# Generated by pormake.
# Topology cbo, (4)-cn, num edge types: 1
# Building blocks:
#     Node 0, Type 0, BuildingBlock: QUQFOY_clean_sbu_1, # of connection points: 4
#     Node 1, Type 0, BuildingBlock: QUQFOY_clean_sbu_1, # of connection points: 4
#     Node 2, Type 0, BuildingBlock: QUQFOY_clean_sbu_1, # of connection points: 4
#     Node 3, Type 0, BuildingBlock: QUQFOY_clean_sbu_1, # of connection points: 4
#     Node 4, Type 0, BuildingBlock: QUQFOY_clean_sbu_1, # of connection points: 4
#     Node 5, Type 0, BuildingBlock: QUQFOY_clean_sbu_1, # of connection points: 4
#     Node 6, Type 0, BuildingBlock: QUQFOY_clean_sbu_1, # of connection points: 4
#     Node 7, Type 0, BuildingBlock: QUQFOY_clean_sbu_1, # of connection points: 4
#     Node 8, Type 0, BuildingBlock: QUQFOY_clean_sbu_1, # of connection points: 4
#     Node 9, Type 0, BuildingBlock: QUQFOY_clean_sbu_1, # of connection points: 4
#     Node 10, Type 0, BuildingBlock: QUQFOY_clean_sbu_1, # of connection points: 4
#     Node 11, Type 0, BuildingBlock: QUQFOY_clean_sbu_1, # of connection points: 4
#     Node 12, Type 0, BuildingBlock: QUQFOY_clean_sbu_1, # of connection points: 4
#     Node 13, Type 0, BuildingBlock: QUQFOY_clean_sbu_1, # of connection points: 4
#     Node 14, Type 0, BuildingBlock: QUQFOY_clean_sbu_1, # of connection points: 4
#     Node 15, Type 0, BuildingBlock: QUQFOY_clean_sbu_1, # of connection points: 4
#     Node 16, Type 0, BuildingBlock: QUQFOY_clean_sbu_1, # of connection points: 4
#     Node 17, Type 0, BuildingBlock: QUQFOY_clean_sbu_1, # of connection points: 4
#     Node 18, Type 0, BuildingBlock: QUQFOY_clean_sbu_1, # of connection points: 4
#     Node 19, Type 0, BuildingBlock: QUQFOY_clean_sbu_1, # of connection points: 4
#     Node 20, Type 0, BuildingBlock: QUQFOY_clean_sbu_1, # of connection points: 4
#     Node 21, Type 0, BuildingBlock: QUQFOY_clean_sbu_1, # of connection points: 4
#     Node 22, Type 0, BuildingBlock: QUQFOY_clean_sbu_1, # of connection points: 4
#     Node 23, Type 0, BuildingBlock: QUQFOY_clean_sbu_1, # of connection points: 4
#     Edge 24, Type (0, 0), BuildingBlock: CIFDUS_clean_linker_0, # of connection points: 2
#     Edge 25, Type (0, 0), BuildingBlock: CIFDUS_clean_linker_0, # of connection points: 2
#     Edge 26, Type (0, 0), BuildingBlock: CIFDUS_clean_linker_0, # of connection points: 2
#     Edge 27, Type (0, 0), BuildingBlock: CIFDUS_clean_linker_0, # of connection points: 2
#     Edge 28, Type (0, 0), BuildingBlock: CIFDUS_clean_linker_0, # of connection points: 2
#     Edge 29, Type (0, 0), BuildingBlock: CIFDUS_clean_linker_0, # of connection points: 2
#     Edge 30, Type (0, 0), BuildingBlock: CIFDUS_clean_linker_0, # of connection points: 2
#     Edge 31, Type (0, 0), BuildingBlock: CIFDUS_clean_linker_0, # of connection points: 2
#     Edge 32, Type (0, 0), BuildingBlock: CIFDUS_clean_linker_0, # of connection points: 2
#     Edge 33, Type (0, 0), BuildingBlock: CIFDUS_clean_linker_0, # of connection points: 2
#     Edge 34, Type (0, 0), BuildingBlock: CIFDUS_clean_linker_0, # of connection points: 2
#     Edge 35, Type (0, 0), BuildingBlock: CIFDUS_clean_linker_0, # of connection points: 2
#     Edge 36, Type (0, 0), BuildingBlock: CIFDUS_clean_linker_0, # of connection points: 2
#     Edge 37, Type (0, 0), BuildingBlock: CIFDUS_clean_linker_0, # of connection points: 2
#     Edge 38, Type (0, 0), BuildingBlock: CIFDUS_clean_linker_0, # of connection points: 2
#     Edge 39, Type (0, 0), BuildingBlock: CIFDUS_clean_linker_0, # of connection points: 2
#     Edge 40, Type (0, 0), BuildingBlock: CIFDUS_clean_linker_0, # of connection points: 2
#     Edge 41, Type (0, 0), BuildingBlock: CIFDUS_clean_linker_0, # of connection points: 2
#     Edge 42, Type (0, 0), BuildingBlock: CIFDUS_clean_linker_0, # of connection points: 2
#     Edge 43, Type (0, 0), BuildingBlock: CIFDUS_clean_linker_0, # of connection points: 2
#     Edge 44, Type (0, 0), BuildingBlock: CIFDUS_clean_linker_0, # of connection points: 2
#     Edge 45, Type (0, 0), BuildingBlock: CIFDUS_clean_linker_0, # of connection points: 2
#     Edge 46, Type (0, 0), BuildingBlock: CIFDUS_clean_linker_0, # of connection points: 2
#     Edge 47, Type (0, 0), BuildingBlock: CIFDUS_clean_linker_0, # of connection points: 2
#     Edge 48, Type (0, 0), BuildingBlock: CIFDUS_clean_linker_0, # of connection points: 2
#     Edge 49, Type (0, 0), BuildingBlock: CIFDUS_clean_linker_0, # of connection points: 2
#     Edge 50, Type (0, 0), BuildingBlock: CIFDUS_clean_linker_0, # of connection points: 2
#     Edge 51, Type (0, 0), BuildingBlock: CIFDUS_clean_linker_0, # of connection points: 2
#     Edge 52, Type (0, 0), BuildingBlock: CIFDUS_clean_linker_0, # of connection points: 2
#     Edge 53, Type (0, 0), BuildingBlock: CIFDUS_clean_linker_0, # of connection points: 2
#     Edge 54, Type (0, 0), BuildingBlock: CIFDUS_clean_linker_0, # of connection points: 2
#     Edge 55, Type (0, 0), BuildingBlock: CIFDUS_clean_linker_0, # of connection points: 2
#     Edge 56, Type (0, 0), BuildingBlock: CIFDUS_clean_linker_0, # of connection points: 2
#     Edge 57, Type (0, 0), BuildingBlock: CIFDUS_clean_linker_0, # of connection points: 2
#     Edge 58, Type (0, 0), BuildingBlock: CIFDUS_clean_linker_0, # of connection points: 2
#     Edge 59, Type (0, 0), BuildingBlock: CIFDUS_clean_linker_0, # of connection points: 2
#     Edge 60, Type (0, 0), BuildingBlock: CIFDUS_clean_linker_0, # of connection points: 2
#     Edge 61, Type (0, 0), BuildingBlock: CIFDUS_clean_linker_0, # of connection points: 2
#     Edge 62, Type (0, 0), BuildingBlock: CIFDUS_clean_linker_0, # of connection points: 2
#     Edge 63, Type (0, 0), BuildingBlock: CIFDUS_clean_linker_0, # of connection points: 2
#     Edge 64, Type (0, 0), BuildingBlock: CIFDUS_clean_linker_0, # of connection points: 2
#     Edge 65, Type (0, 0), BuildingBlock: CIFDUS_clean_linker_0, # of connection points: 2
#     Edge 66, Type (0, 0), BuildingBlock: CIFDUS_clean_linker_0, # of connection points: 2
#     Edge 67, Type (0, 0), BuildingBlock: CIFDUS_clean_linker_0, # of connection points: 2
#     Edge 68, Type (0, 0), BuildingBlock: CIFDUS_clean_linker_0, # of connection points: 2
#     Edge 69, Type (0, 0), BuildingBlock: CIFDUS_clean_linker_0, # of connection points: 2
#     Edge 70, Type (0, 0), BuildingBlock: CIFDUS_clean_linker_0, # of connection points: 2
#     Edge 71, Type (0, 0), BuildingBlock: CIFDUS_clean_linker_0, # of connection points: 2
# Relax obj value: 0.092
# Max RMSD: 0.125
# Mean RMSD: 0.125
data_MOF--net-cbo--node1-QUQFOY_clean_sbu_1--edge1-CIFDUS_clean_linker_0
_symmetry_space_group_name_H-M    P1
_symmetry_Int_Tables_number       1
_symmetry_cell_setting            triclinic
loop_
_symmetry_equiv_pos_as_xyz
'x, y, z'
_cell_length_a     47.58894
_cell_length_b     47.564262
_cell_length_c     47.448364
_cell_angle_alpha  90.082014
_cell_angle_beta   89929796.0
_cell_angle_gamma 90.042665
loop_
_atom_site_label
_atom_site_type_symbol
_atom_site_fract_x
_atom_site_fract_y
_atom_site_fract_z
_atom_type_partial_charge
O0 O -3.76037 0.17982 3.8638 0.0
Cd1 Cd -4.06181 0.14206 4.16632 0.0
Cd2 Cd -4.52397 0.16802 4.66753 0.0
O3 O -4.16237 0.20166 4.29588 0.0
O4 O -3.91546 0.12322 3.98372 0.0
O5 O -4.5408 0.13555 4.62039 0.0
C6 C -4.2901 0.12497 4.35149 0.0
C7 C -5.21013 0.17834 5.35857 0.0
C8 C -3.85711 0.2018 3.97433 0.0
C9 C -4.02114 0.11881 4.1843 0.0
O10 O -4.26889 0.1383 4.4388 0.0
O11 O -3.91074 0.11569 4.0483 0.0
O12 O -4.95103 0.18704 5.11744 0.0
O13 O -5.08327 0.16301 5.21093 0.0
O14 O -10.39075 0.83784 10.87503 0.0
Cd15 Cd -10.77194 0.87221 11.25701 0.0
Cd16 Cd -11.23217 0.83677 11.68888 0.0
O17 O -10.80528 0.80639 11.27251 0.0
O18 O -10.52167 0.89545 11.0368 0.0
O19 O -11.13689 0.87838 11.65572 0.0
C20 C -10.84097 0.89158 11.37116 0.0
C21 C -11.92131 0.83237 12.38696 0.0
C22 C -10.46187 0.81269 10.93889 0.0
C23 C -10.89484 0.88572 11.31928 0.0
O24 O -11.07112 0.86211 11.49438 0.0
O25 O -10.77942 0.89538 11.2275 0.0
O26 O -11.74163 0.81722 12.18833 0.0
O27 O -11.70668 0.84941 12.18706 0.0
O28 O -9.84444 0.32993 10.49223 0.0
Cd29 Cd -9.54491 0.36763 10.19019 0.0
Cd30 Cd -9.04223 0.34261 9.72238 0.0
O31 O -9.39989 0.30777 10.07389 0.0
O32 O -9.76175 0.38518 10.37223 0.0
O33 O -9.1182 0.37382 9.73388 0.0
C34 C -9.40319 0.38352 10.00313 0.0
C35 C -8.34634 0.339 9.02087 0.0
C36 C -9.73011 0.30787 10.39073 0.0
C37 C -9.51142 0.39191 10.21454 0.0
O38 O -9.26567 0.37196 9.9741 0.0
O39 O -9.64738 0.39509 10.3257 0.0
O40 O -8.52818 0.32752 9.2238 0.0
O41 O -8.56009 0.3525 9.21638 0.0
O42 O -2.61804 0.67489 3.56181 0.0
Cd43 Cd -2.17833 0.64464 3.11655 0.0
Cd44 Cd -1.86034 0.68225 2.76385 0.0
O45 O -2.29051 0.70866 3.21243 0.0
O46 O -2.15689 0.62123 3.13012 0.0
O47 O -1.67484 0.65043 2.63486 0.0
C48 C -1.81953 0.63338 2.79812 0.0
C49 C -1.18374 0.69494 2.08264 0.0
C50 C -2.5936 0.70044 3.5298 0.0
C51 C -2.2075 0.63019 3.08488 0.0
O52 O -2.07693 0.65495 2.95042 0.0
O53 O -2.23581 0.62032 3.13807 0.0
O54 O -1.46039 0.70716 2.34467 0.0
O55 O -1.29147 0.67597 2.20823 0.0
O56 O -2.35999 0.07908 2.64684 0.0
Cd57 Cd -1.81893 0.0815 2.12677 0.0
Cd58 Cd -2.26912 0.10839 2.61499 0.0
O59 O -2.74555 0.09614 3.06641 0.0
O60 O -1.47991 0.05039 1.77173 0.0
O61 O -1.66926 0.0523 2.00589 0.0
C62 C -1.48751 0.03889 1.80395 0.0
C63 C -2.28279 0.10289 2.67758 0.0
C64 C -2.70728 0.08586 3.00349 0.0
C65 C -1.65405 0.1425 1.96823 0.0
O66 O -1.95384 0.14254 2.28487 0.0
O67 O -1.52468 0.11948 1.82827 0.0
O68 O -2.51765 0.12059 2.9 0.0
O69 O -2.04615 0.08749 2.42552 0.0
O70 O -9.57081 0.92462 9.85135 0.0
Cd71 Cd -9.06294 0.92622 9.31829 0.0
Cd72 Cd -9.45943 0.88892 9.68457 0.0
O73 O -9.92296 0.89625 10.17681 0.0
O74 O -8.79731 0.96124 9.06551 0.0
O75 O -9.00827 0.95502 9.2328 0.0
C76 C -8.84759 0.9711 9.09078 0.0
C77 C -9.55522 0.89415 9.73207 0.0
C78 C -9.89171 0.91106 10.16776 0.0
C79 C -8.70581 0.86834 8.959 0.0
O80 O -9.01235 0.86171 9.2511 0.0
O81 O -8.65535 0.89372 8.91614 0.0
O82 O -9.708 0.87325 9.89836 0.0
O83 O -9.35095 0.91243 9.54168 0.0
O84 O -11.00472 0.43383 11.84286 0.0
Cd85 Cd -11.50625 0.43181 12.37016 0.0
Cd86 Cd -11.01452 0.40269 11.91187 0.0
O87 O -10.58531 0.41399 11.45323 0.0
O88 O -11.85539 0.46337 12.70637 0.0
O89 O -11.59947 0.4611 12.49338 0.0
C90 C -11.80538 0.47483 12.68072 0.0
C91 C -10.83244 0.40544 11.77707 0.0
C92 C -10.65138 0.42556 11.49566 0.0
C93 C -11.70392 0.37135 12.57523 0.0
O94 O -11.38439 0.37002 12.27028 0.0
O95 O -11.82572 0.39486 12.68734 0.0
O96 O -10.67228 0.38715 11.60014 0.0
O97 O -11.10165 0.42244 12.03636 0.0
O98 O -3.89102 0.59238 4.6476 0.0
Cd99 Cd -4.45064 0.59188 5.18867 0.0
Cd100 Cd -4.08413 0.62318 4.78366 0.0
O101 O -3.56936 0.61389 4.2916 0.0
O102 O -4.71226 0.55808 5.46687 0.0
O103 O -4.57425 0.56225 5.28333 0.0
C104 C -4.70502 0.54709 5.43475 0.0
C105 C -4.08915 0.61843 4.73973 0.0
C106 C -3.5669 0.60209 4.31317 0.0
C107 C -4.72843 0.6516 5.46321 0.0
O108 O -4.44753 0.65435 5.16416 0.0
O109 O -4.80432 0.62747 5.54937 0.0
O110 O -3.88148 0.63766 4.54419 0.0
O111 O -4.2913 0.60135 4.95752 0.0
O112 O -0.99356 0.26592 1.18282 0.0
Cd113 Cd -1.06116 0.2929 1.21683 0.0
Cd114 Cd -1.54999 0.31958 1.74122 0.0
O115 O -1.34607 0.29037 1.56638 0.0
O116 O -0.58739 0.28334 0.71892 0.0
O117 O -0.68403 0.32544 0.8345 0.0
C118 C -0.45862 0.30842 0.59458 0.0
C119 C -1.54543 0.36747 1.74739 0.0
C120 C -1.13098 0.26895 1.3451 0.0
C121 C -1.92949 0.29241 2.0702 0.0
O122 O -1.98559 0.30522 2.14959 0.0
O123 O -1.57344 0.28687 1.70556 0.0
O124 O -1.7958 0.35065 2.00976 0.0
O125 O -1.29224 0.35708 1.47609 0.0
O126 O -12.55354 0.2545 13.30109 0.0
Cd127 Cd -12.54901 0.22806 13.26213 0.0
Cd128 Cd -12.07026 0.19778 12.81659 0.0
O129 O -12.22723 0.22696 13.00417 0.0
O130 O -13.00995 0.24323 13.70109 0.0
O131 O -12.99883 0.20019 13.70751 0.0
C132 C -13.19325 0.21991 13.88899 0.0
C133 C -12.1169 0.14998 12.87323 0.0
C134 C -12.41383 0.24984 13.18577 0.0
C135 C -11.68936 0.22338 12.38419 0.0
O136 O -11.6332 0.2105 12.35119 0.0
O137 O -12.04405 0.2305 12.73156 0.0
O138 O -11.84485 0.16537 12.61253 0.0
O139 O -12.36752 0.16172 13.10669 0.0
O140 O -5.44392 0.76441 6.31144 0.0
Cd141 Cd -5.37426 0.78998 6.27638 0.0
Cd142 Cd -5.02249 0.82288 5.88684 0.0
O143 O -5.23525 0.79412 6.07039 0.0
O144 O -5.81281 0.77873 6.74157 0.0
O145 O -5.77535 0.821 6.6848 0.0
C146 C -5.97015 0.80335 6.89508 0.0
C147 C -5.10269 0.87152 5.96255 0.0
C148 C -5.37679 0.77024 6.2186 0.0
C149 C -4.49175 0.79623 5.40025 0.0
O150 O -4.51406 0.81003 5.39967 0.0
O151 O -4.81101 0.78753 5.7316 0.0
O152 O -4.87127 0.85743 5.71421 0.0
O153 O -5.30339 0.85786 6.18208 0.0
O154 O -7.90802 0.7441 8.2701 0.0
Cd155 Cd -7.87207 0.72171 8.27128 0.0
Cd156 Cd -8.31072 0.68457 8.68172 0.0
O157 O -8.1981 0.71089 8.53548 0.0
O158 O -7.37485 0.7354 7.79282 0.0
O159 O -7.4482 0.69151 7.8515 0.0
C160 C -7.22241 0.71058 7.63666 0.0
C161 C -8.28301 0.63624 8.64564 0.0
C162 C -8.04781 0.7353 8.38669 0.0
C163 C -8.71381 0.71476 9.13371 0.0
O164 O -8.74981 0.69838 9.14869 0.0
O165 O -8.37276 0.7254 8.79826 0.0
O166 O -8.55748 0.65196 8.90916 0.0
O167 O -8.0181 0.64784 8.39661 0.0
O168 O -9.82971 0.83323 10.80751 0.0
Cd169 Cd -9.41733 0.86498 10.39117 0.0
Cd170 Cd -9.01369 0.82588 9.95905 0.0
O171 O -9.45583 0.79901 10.4159 0.0
O172 O -9.5698 0.8908 10.57514 0.0
O173 O -8.98376 0.86828 9.98684 0.0
C174 C -9.23226 0.88421 10.24928 0.0
C175 C -8.33128 0.81419 9.28044 0.0
C176 C -9.78242 0.80743 10.754 0.0
C177 C -9.34511 0.87491 10.25731 0.0
O178 O -9.18094 0.85062 10.0925 0.0
O179 O -9.43708 0.88627 10.37284 0.0
O180 O -8.56399 0.80093 9.49616 0.0
O181 O -8.48677 0.83395 9.45134 0.0
O182 O -2.82683 0.18683 3.43484 0.0
Cd183 Cd -2.53576 0.14841 3.14045 0.0
Cd184 Cd -1.94599 0.17613 2.57548 0.0
O185 O -2.31369 0.21097 2.93749 0.0
O186 O -2.84962 0.1284 3.42496 0.0
O187 O -2.2061 0.13905 2.77612 0.0
C188 C -2.53158 0.12876 3.09116 0.0
C189 C -1.26556 0.17817 1.88293 0.0
C190 C -2.67841 0.21001 3.29436 0.0
C191 C -2.34371 0.13063 3.00708 0.0
O192 O -2.09806 0.15098 2.7613 0.0
O193 O -2.53536 0.12442 3.17645 0.0
O194 O -1.41138 0.19234 2.04966 0.0
O195 O -1.50695 0.16287 2.10975 0.0
O196 O -3.31511 0.68978 3.7546 0.0
Cd197 Cd -3.72018 0.65725 4.16073 0.0
Cd198 Cd -4.14708 0.69409 4.55715 0.0
O199 O -3.6949 0.72227 4.11464 0.0
O200 O -3.47168 0.63304 3.94171 0.0
O201 O -4.07793 0.65211 4.55277 0.0
C202 C -3.78495 0.63773 4.2705 0.0
C203 C -4.82773 0.70469 5.24549 0.0
C204 C -3.36262 0.7148 3.79337 0.0
C205 C -3.84557 0.64219 4.22571 0.0
O206 O -4.00602 0.66647 4.38379 0.0
O207 O -3.73912 0.63316 4.14336 0.0
O208 O -4.62294 0.71699 5.02117 0.0
O209 O -4.64412 0.68662 5.07768 0.0
O210 O -10.90579 0.33109 11.05401 0.0
Cd211 Cd -11.23762 0.36792 11.38835 0.0
Cd212 Cd -11.67066 0.34007 11.85876 0.0
O213 O -11.29779 0.30691 11.47436 0.0
O214 O -11.1065 0.38823 11.22185 0.0
O215 O -11.72162 0.37399 11.84782 0.0
C216 C -11.47959 0.38579 11.58803 0.0
C217 C -12.36016 0.33159 12.55014 0.0
C218 C -10.98957 0.30821 11.15019 0.0
C219 C -11.20086 0.38916 11.41061 0.0
O220 O -11.42709 0.36859 11.64304 0.0
O221 O -11.10386 0.39377 11.28806 0.0
O222 O -12.11794 0.32099 12.32622 0.0
O223 O -12.21333 0.34754 12.38388 0.0
O224 O -11.13471 0.93952 11.9339 0.0
Cd225 Cd -11.66003 0.93936 12.43632 0.0
Cd226 Cd -11.23658 0.90394 11.9807 0.0
O227 O -10.76134 0.91359 11.53189 0.0
O228 O -11.95032 0.97378 12.74024 0.0
O229 O -11.75291 0.9679 12.49856 0.0
C230 C -11.91639 0.98374 12.68115 0.0
C231 C -11.19941 0.90902 11.8947 0.0
C232 C -10.79912 0.92786 11.59225 0.0
C233 C -11.94406 0.8799 12.71939 0.0
O234 O -11.63621 0.87481 12.39614 0.0
O235 O -12.02599 0.905 12.80898 0.0
O236 O -11.00247 0.88931 11.71045 0.0
O237 O -11.41097 0.92639 12.12135 0.0
O238 O -3.96617 0.07507 4.75917 0.0
Cd239 Cd -4.42723 0.07705 5.24946 0.0
Cd240 Cd -3.86386 0.10705 4.71417 0.0
O241 O -3.48364 0.09429 4.30145 0.0
O242 O -4.79608 0.04806 5.603 0.0
O243 O -4.51581 0.04451 5.36469 0.0
C244 C -4.73341 0.03352 5.56276 0.0
C245 C -3.64679 0.10463 4.5438 0.0
C246 C -3.6021 0.08261 4.39738 0.0
C247 C -4.60105 0.13837 5.43087 0.0
O248 O -4.25099 0.13975 5.09142 0.0
O249 O -4.74661 0.11465 5.5696 0.0
O250 O -3.49266 0.12211 4.37201 0.0
O251 O -3.92318 0.08794 4.81133 0.0
O252 O -2.45441 0.58692 2.69885 0.0
Cd253 Cd -1.91151 0.58064 2.13522 0.0
Cd254 Cd -2.21961 0.61891 2.40854 0.0
O255 O -2.7092 0.6191 2.92535 0.0
O256 O -1.71017 0.54366 1.94809 0.0
O257 O -1.84413 0.55166 2.03715 0.0
C258 C -1.7305 0.53437 1.94294 0.0
C259 C -2.32174 0.61339 2.46242 0.0
C260 C -2.73609 0.60408 2.97434 0.0
C261 C -1.47213 0.63505 1.6927 0.0
O262 O -1.73386 0.64201 1.93624 0.0
O263 O -1.47885 0.61065 1.7104 0.0
O264 O -2.38502 0.63721 2.53802 0.0
O265 O -2.20202 0.59239 2.35779 0.0
O266 O -9.4788 0.42945 9.8083 0.0
Cd267 Cd -8.92275 0.42839 9.27143 0.0
Cd268 Cd -9.28227 0.39335 9.66649 0.0
O269 O -9.7849 0.40277 10.14553 0.0
O270 O -8.64579 0.46201 8.97933 0.0
O271 O -8.78463 0.45639 9.16351 0.0
C272 C -8.64049 0.47182 8.99937 0.0
C273 C -9.36351 0.39445 9.79649 0.0
C274 C -9.79526 0.41737 10.13353 0.0
C275 C -8.61306 0.3692 8.96156 0.0
O276 O -8.88606 0.36434 9.25281 0.0
O277 O -8.56273 0.39402 8.90199 0.0
O278 O -9.52238 0.37505 9.94025 0.0
O279 O -9.14932 0.4133 9.56984 0.0
O280 O -12.52786 0.74763 13.40902 0.0
Cd281 Cd -12.4985 0.7237 13.41579 0.0
Cd282 Cd -12.10625 0.68768 12.99001 0.0
O283 O -12.26201 0.71599 13.11451 0.0
O284 O -12.95687 0.73709 13.89822 0.0
O285 O -12.90494 0.69359 13.82973 0.0
C286 C -13.10866 0.71235 14.04739 0.0
C287 C -12.17186 0.63952 13.04762 0.0
C288 C -12.41623 0.74025 13.27278 0.0
C289 C -11.63079 0.71491 12.56099 0.0
O290 O -11.62659 0.6993 12.53501 0.0
O291 O -11.96002 0.72596 12.8989 0.0
O292 O -11.91218 0.65424 12.7743 0.0
O293 O -12.40341 0.65215 13.29722 0.0
O294 O -0.70358 0.7656 1.02613 0.0
Cd295 Cd -0.66949 0.7907 1.02737 0.0
Cd296 Cd -1.07248 0.8268 1.39694 0.0
O297 O -0.93381 0.79766 1.22705 0.0
O298 O -0.21804 0.77316 0.59736 0.0
O299 O -0.1951 0.81651 0.55765 0.0
C300 C -0.01596 0.7958 0.39102 0.0
C301 C -1.03075 0.87499 1.34579 0.0
C302 C -0.80879 0.77274 1.10667 0.0
C303 C -1.52178 0.80182 1.89595 0.0
O304 O -1.53668 0.81565 1.88795 0.0
O305 O -1.18793 0.79153 1.57051 0.0
O306 O -1.29109 0.85936 1.59387 0.0
O307 O -0.78254 0.86323 1.11486 0.0
O308 O -8.10696 0.23979 8.34199 0.0
Cd309 Cd -8.15262 0.21756 8.35046 0.0
Cd310 Cd -8.64193 0.18549 8.86947 0.0
O311 O -8.46988 0.21083 8.73045 0.0
O312 O -7.66151 0.22765 7.83753 0.0
O313 O -7.79107 0.18423 7.98112 0.0
C314 C -7.55034 0.20165 7.72815 0.0
C315 C -8.64189 0.13716 8.87715 0.0
C316 C -8.26018 0.23294 8.51879 0.0
C317 C -9.01203 0.21888 9.19239 0.0
O318 O -9.07106 0.20242 9.27212 0.0
O319 O -8.65655 0.22662 8.83066 0.0
O320 O -8.9028 0.15354 9.15003 0.0
O321 O -8.37958 0.14811 8.59802 0.0
O322 O -5.24785 0.27665 5.98145 0.0
Cd323 Cd -5.32464 0.2993 6.02166 0.0
Cd324 Cd -4.76186 0.33168 5.48279 0.0
O325 O -4.82346 0.3047 5.57833 0.0
O326 O -5.81651 0.28124 6.49852 0.0
O327 O -5.79417 0.32637 6.48718 0.0
C328 C -6.00013 0.30506 6.68479 0.0
C329 C -4.80415 0.38014 5.53254 0.0
C330 C -5.03237 0.28245 5.78714 0.0
C331 C -4.51949 0.30103 5.18744 0.0
O332 O -4.40556 0.31653 5.09378 0.0
O333 O -4.88437 0.2932 5.55093 0.0
O334 O -4.49793 0.3656 5.23467 0.0
O335 O -5.09052 0.36722 5.80611 0.0
H336 H -2.72557 0.29963 2.87879 0.0
H337 H -1.91816 0.2561 2.01402 0.0
H338 H -2.46905 0.22653 2.5492 0.0
H339 H -3.14744 0.20795 3.236 0.0
H340 H -3.94651 0.25064 4.09364 0.0
H341 H -3.4333 0.28573 3.5894 0.0
C342 C -2.67123 0.2841 2.80806 0.0
C343 C -2.27841 0.27974 2.40462 0.0
C344 C -2.98731 0.26668 3.11565 0.0
C345 C -2.21601 0.25978 2.32067 0.0
C346 C -2.53086 0.24269 2.62661 0.0
C347 C -3.21296 0.22524 3.31581 0.0
C348 C -3.58254 0.22623 3.70013 0.0
C349 C -2.9131 0.24513 3.02147 0.0
C350 C -3.6632 0.24906 3.79894 0.0
C351 C -3.36896 0.26914 3.50995 0.0
H352 H -10.43404 0.76111 10.88549 0.0
H353 H -9.71885 0.81841 10.2192 0.0
H354 H -9.11567 0.79055 9.60588 0.0
H355 H -8.77582 0.7543 9.23741 0.0
H356 H -9.48789 0.69757 9.89967 0.0
H357 H -10.10403 0.72049 10.53256 0.0
C358 C -10.14826 0.76714 10.60872 0.0
C359 C -10.12205 0.79214 10.59826 0.0
C360 C -9.79884 0.75129 10.25292 0.0
C361 C -9.74829 0.79949 10.23611 0.0
C362 C -9.40167 0.78361 9.88364 0.0
C363 C -9.06569 0.74652 9.52054 0.0
C364 C -9.0832 0.72456 9.5182 0.0
C365 C -9.42058 0.76013 9.88476 0.0
C366 C -9.46321 0.71466 9.88998 0.0
C367 C -9.81717 0.72783 10.25343 0.0
H368 H -10.4458 0.30073 11.07978 0.0
H369 H -9.65116 0.26135 10.3453 0.0
H370 H -10.17742 0.22817 10.88431 0.0
H371 H -10.89283 0.21559 11.59932 0.0
H372 H -11.69324 0.25621 12.34075 0.0
H373 H -11.13308 0.28318 11.76157 0.0
C374 C -10.38428 0.28454 11.03377 0.0
C375 C -10.01153 0.28396 10.675 0.0
C376 C -10.69126 0.26587 11.34845 0.0
C377 C -9.93603 0.26253 10.61923 0.0
C378 C -10.23802 0.24359 10.92866 0.0
C379 C -10.94395 0.22987 11.633 0.0
C380 C -11.33732 0.23424 12.01621 0.0
C381 C -10.62186 0.24586 11.30049 0.0
C382 C -11.3954 0.25261 12.05143 0.0
C383 C -11.07507 0.26819 11.72027 0.0
H384 H -2.70776 0.7533 3.62306 0.0
H385 H -3.27384 0.69029 4.24105 0.0
H386 H -3.90308 0.71713 4.87005 0.0
H387 H -4.31854 0.75457 5.26461 0.0
H388 H -3.75843 0.81636 4.65085 0.0
H389 H -3.10223 0.79422 4.00198 0.0
C390 C -2.96589 0.7457 3.89296 0.0
C391 C -2.94432 0.71954 3.88514 0.0
C392 C -3.33078 0.76092 4.25709 0.0
C393 C -3.28222 0.71017 4.23833 0.0
C394 C -3.6435 0.72549 4.59944 0.0
C395 C -4.05177 0.76363 4.98832 0.0
C396 C -4.08952 0.78684 5.0079 0.0
C397 C -3.67563 0.75032 4.61584 0.0
C398 C -3.73956 0.79829 4.6458 0.0
C399 C -3.36357 0.78558 4.2739 0.0
H400 H -2.73355 0.06492 2.97633 0.0
H401 H -3.46194 0.108 3.7673 0.0
H402 H -3.97049 0.11837 4.24039 0.0
H403 H -4.15314 0.12179 4.37308 0.0
H404 H -3.41191 0.08001 3.56908 0.0
H405 H -2.96904 0.06223 3.16301 0.0
C406 C -3.00726 0.07607 3.25611 0.0
C407 C -3.05467 0.08611 3.33132 0.0
C408 C -3.29511 0.08252 3.52331 0.0
C409 C -3.41458 0.1002 3.6987 0.0
C410 C -3.70527 0.1063 3.96905 0.0
C411 C -3.89977 0.1083 4.11407 0.0
C412 C -3.81254 0.10275 3.99823 0.0
C413 C -3.64043 0.09859 3.87597 0.0
C414 C -3.48511 0.08492 3.66403 0.0
C415 C -3.22973 0.07483 3.42971 0.0
H416 H -11.07471 0.87026 11.44536 0.0
H417 H -10.42417 0.93231 10.84239 0.0
H418 H -10.09782 0.94859 10.4729 0.0
H419 H -9.92099 0.94034 10.24642 0.0
H420 H -10.55345 0.87713 10.83164 0.0
H421 H -10.96672 0.86658 11.28624 0.0
C422 C -10.86762 0.88772 11.23919 0.0
C423 C -10.76923 0.89966 11.16705 0.0
C424 C -10.67387 0.89661 11.02061 0.0
C425 C -10.50364 0.92251 10.90208 0.0
C426 C -10.31478 0.93177 10.68853 0.0
C427 C -10.15442 0.92462 10.47838 0.0
C428 C -10.2002 0.90921 10.49901 0.0
C429 C -10.38558 0.91821 10.73358 0.0
C430 C -10.50837 0.88919 10.80564 0.0
C431 C -10.7439 0.88301 11.06488 0.0
H432 H -10.6957 0.44624 11.48655 0.0
H433 H -9.8865 0.40409 10.73468 0.0
H434 H -9.42192 0.39392 10.23132 0.0
H435 H -9.30325 0.39006 10.06174 0.0
H436 H -10.12485 0.4307 10.8258 0.0
H437 H -10.52078 0.44881 11.26138 0.0
C438 C -10.41386 0.43535 11.20888 0.0
C439 C -10.33124 0.42541 11.15356 0.0
C440 C -10.15135 0.429 10.92385 0.0
C441 C -9.96127 0.41169 10.7886 0.0
C442 C -9.69545 0.40574 10.50057 0.0
C443 C -9.56392 0.40338 10.3185 0.0
C444 C -9.68861 0.40845 10.41534 0.0
C445 C -9.79623 0.4132 10.57369 0.0
C446 C -10.02383 0.42614 10.74597 0.0
C447 C -10.25234 0.43641 10.99715 0.0
H448 H -2.14659 0.64261 2.96808 0.0
H449 H -2.69111 0.58396 3.57049 0.0
H450 H -3.12608 0.56686 3.96808 0.0
H451 H -3.42729 0.57423 4.2227 0.0
H452 H -2.89131 0.63354 3.62913 0.0
H453 H -2.37466 0.64431 3.14705 0.0
C454 C -2.35406 0.62565 3.17987 0.0
C455 C -2.3913 0.61502 3.2447 0.0
C456 C -2.60914 0.61625 3.41347 0.0
C457 C -2.65748 0.59273 3.51593 0.0
C458 C -2.90897 0.58305 3.74607 0.0
C459 C -3.19263 0.58909 3.9828 0.0
C460 C -3.20364 0.60346 3.96788 0.0
C461 C -2.89953 0.59553 3.70986 0.0
C462 C -2.89297 0.6223 3.65063 0.0
C463 C -2.59814 0.62862 3.37566 0.0
H464 H -1.08914 0.15122 1.36223 0.0
H465 H -1.87246 0.19532 2.20408 0.0
H466 H -1.7314 0.23961 2.03938 0.0
H467 H -1.46915 0.2645 1.73568 0.0
H468 H -0.70133 0.2201 0.90857 0.0
H469 H -0.74826 0.17757 0.98383 0.0
C470 C -1.22246 0.17058 1.50354 0.0
C471 C -1.4971 0.16975 1.8009 0.0
C472 C -1.14662 0.19601 1.41365 0.0
C473 C -1.66373 0.19517 1.9777 0.0
C474 C -1.58446 0.22058 1.88485 0.0
C475 C -1.30485 0.24572 1.56495 0.0
C476 C -1.08848 0.24544 1.32295 0.0
C477 C -1.33928 0.22107 1.61549 0.0
C478 C -0.87468 0.2209 1.10134 0.0
C479 C -0.90224 0.19647 1.14506 0.0
H480 H -12.32061 0.36556 13.15484 0.0
H481 H -11.51002 0.31749 12.39665 0.0
H482 H -11.70811 0.27432 12.57105 0.0
H483 H -12.0265 0.25153 12.84893 0.0
H484 H -12.815 0.30011 13.58388 0.0
H485 H -12.71445 0.34151 13.51264 0.0
C486 C -12.19361 0.34559 13.03456 0.0
C487 C -11.8948 0.34493 12.75663 0.0
C488 C -12.30094 0.32087 13.12769 0.0
C489 C -11.73701 0.31875 12.6074 0.0
C490 C -11.84877 0.294 12.70553 0.0
C491 C -12.18356 0.27099 13.00106 0.0
C492 C -12.42159 0.27279 13.21473 0.0
C493 C -12.11731 0.29499 12.95142 0.0
C494 C -12.62522 0.29817 13.41248 0.0
C495 C -12.56723 0.32194 13.37121 0.0
H496 H -5.08923 0.7701 5.87693 0.0
H497 H -5.71694 0.71861 6.56523 0.0
H498 H -5.6217 0.67755 6.43983 0.0
H499 H -5.26874 0.65494 6.04712 0.0
H500 H -4.62272 0.70617 5.34121 0.0
H501 H -4.82235 0.74846 5.56662 0.0
C502 C -5.21413 0.75007 6.00815 0.0
C503 C -5.40363 0.74744 6.22413 0.0
C504 C -5.15024 0.72628 5.92707 0.0
C505 C -5.56501 0.72126 6.39321 0.0
C506 C -5.50942 0.69767 6.32042 0.0
C507 C -5.17861 0.67538 5.94919 0.0
C508 C -4.92439 0.67721 5.67118 0.0
C509 C -5.28781 0.69969 6.07365 0.0
C510 C -4.81417 0.70398 5.5511 0.0
C511 C -4.92715 0.72827 5.67887 0.0
H512 H -8.74397 0.81188 8.98767 0.0
H513 H -8.08077 0.87433 8.37064 0.0
H514 H -7.76454 0.83751 8.0825 0.0
H515 H -7.76493 0.78871 8.09952 0.0
H516 H -8.4434 0.72642 8.73272 0.0
H517 H -8.65772 0.76197 8.91323 0.0
C518 C -8.52366 0.81744 8.78313 0.0
C519 C -8.44389 0.84592 8.70894 0.0
C520 C -8.3485 0.79618 8.62452 0.0
C521 C -8.15266 0.85264 8.43798 0.0
C522 C -7.97249 0.83157 8.27402 0.0
C523 C -7.95272 0.78274 8.26972 0.0
C524 C -8.09473 0.75504 8.40965 0.0
C525 C -8.08202 0.80342 8.37991 0.0
C526 C -8.33285 0.74764 8.62454 0.0
C527 C -8.45769 0.76801 8.73007 0.0
H528 H -11.50432 0.75529 12.47426 0.0
H529 H -10.87929 0.69402 11.79735 0.0
H530 H -10.23547 0.71491 11.16557 0.0
H531 H -9.86292 0.75499 10.812 0.0
H532 H -10.49312 0.81736 11.49241 0.0
H533 H -11.1179 0.79136 12.11245 0.0
C534 C -11.22703 0.74607 12.18879 0.0
C535 C -11.24203 0.72344 12.18472 0.0
C536 C -10.85729 0.75862 11.82549 0.0
C537 C -10.87826 0.71168 11.81076 0.0
C538 C -10.50898 0.72368 11.44828 0.0
C539 C -10.13449 0.76256 11.09404 0.0
C540 C -10.13179 0.78837 11.10586 0.0
C541 C -10.49641 0.74786 11.45258 0.0
C542 C -10.48694 0.79775 11.47457 0.0
C543 C -10.84555 0.78294 11.83043 0.0
H544 H -3.45475 0.21622 4.05355 0.0
H545 H -2.51263 0.25925 3.15591 0.0
H546 H -2.99833 0.2945 3.65819 0.0
H547 H -3.70473 0.30834 4.37279 0.0
H548 H -4.64795 0.26425 5.2726 0.0
H549 H -4.14668 0.23462 4.7477 0.0
C550 C -3.35348 0.23362 3.96513 0.0
C551 C -2.94887 0.2347 3.5691 0.0
C552 C -3.63588 0.25353 4.25748 0.0
C553 C -2.82253 0.25768 3.45906 0.0
C554 C -3.10095 0.27781 3.74713 0.0
C555 C -3.80094 0.29269 4.45389 0.0
C556 C -4.21489 0.28819 4.86355 0.0
C557 C -3.51108 0.27523 4.15091 0.0
C558 C -4.33234 0.26801 4.96105 0.0
C559 C -4.04555 0.25091 4.66078 0.0
H560 H -3.2852 0.76465 3.68794 0.0
H561 H -2.6368 0.70687 3.09313 0.0
H562 H -2.01121 0.73154 2.4579 0.0
H563 H -1.63276 0.76487 2.05027 0.0
H564 H -2.27804 0.82172 2.64079 0.0
H565 H -2.917 0.80241 3.29575 0.0
C566 C -3.00911 0.75784 3.42196 0.0
C567 C -3.00825 0.73362 3.4381 0.0
C568 C -2.64681 0.77178 3.05354 0.0
C569 C -2.64667 0.72522 3.08952 0.0
C570 C -2.28735 0.73928 2.72463 0.0
C571 C -1.9131 0.7735 2.32262 0.0
C572 C -1.90527 0.7944 2.29384 0.0
C573 C -2.28102 0.76188 2.6994 0.0
C574 C -2.27316 0.80539 2.6518 0.0
C575 C -2.63999 0.79429 3.02769 0.0
H576 H -9.80773 0.20963 9.99835 0.0
H577 H -9.00549 0.25943 9.14492 0.0
H578 H -9.569 0.28936 9.69422 0.0
H579 H -10.26355 0.30577 10.39698 0.0
H580 H -11.05727 0.25703 11.24358 0.0
H581 H -10.52429 0.22219 10.71765 0.0
C582 C -9.75657 0.22666 9.93245 0.0
C583 C -9.36257 0.23255 9.52915 0.0
C584 C -10.08021 0.24426 10.24857 0.0
C585 C -9.30421 0.25452 9.45141 0.0
C586 C -9.62644 0.27179 9.76559 0.0
C587 C -10.32323 0.28725 10.46927 0.0
C588 C -10.69822 0.28437 10.85797 0.0
C589 C -10.01216 0.26756 10.16271 0.0
C590 C -10.77048 0.26003 10.94624 0.0
C591 C -10.46501 0.24009 10.64491 0.0
H592 H -10.1128 0.89566 10.90653 0.0
H593 H -10.76253 0.95905 11.60391 0.0
H594 H -10.3224 0.95122 11.20394 0.0
H595 H -9.82581 0.92131 10.73133 0.0
H596 H -9.1922 0.85671 10.05064 0.0
H597 H -9.54713 0.87046 10.36289 0.0
C598 C -10.15241 0.90825 10.96504 0.0
C599 C -10.47557 0.92757 11.29018 0.0
C600 C -9.90338 0.9032 10.73939 0.0
C601 C -10.52004 0.94377 11.35936 0.0
C602 C -10.26887 0.93925 11.13127 0.0
C603 C -9.75782 0.91065 10.64363 0.0
C604 C -9.48733 0.88766 10.37275 0.0
C605 C -9.9704 0.91821 10.83178 0.0
C606 C -9.40216 0.87426 10.26171 0.0
C607 C -9.60656 0.88203 10.44163 0.0
H608 H -2.90249 0.08996 3.57526 0.0
H609 H -2.03073 0.14129 2.74616 0.0
H610 H -2.3083 0.1273 3.06923 0.0
H611 H -2.86425 0.10661 3.65235 0.0
H612 H -3.74799 0.05653 4.49315 0.0
H613 H -3.39594 0.06357 4.09648 0.0
C614 C -2.76714 0.09764 3.45914 0.0
C615 C -2.45114 0.11711 3.14169 0.0
C616 C -2.9336 0.08998 3.65177 0.0
C617 C -2.27735 0.12655 2.99314 0.0
C618 C -2.43704 0.11865 3.17894 0.0
C619 C -2.97484 0.09667 3.74396 0.0
C620 C -3.3368 0.08152 4.10678 0.0
C621 C -2.7756 0.10131 3.5189 0.0
C622 C -3.47339 0.06864 4.21852 0.0
C623 C -3.27284 0.07273 3.99236 0.0
H624 H -3.94009 0.65816 4.26547 0.0
H625 H -3.46462 0.59098 3.84149 0.0
H626 H -3.12546 0.57064 3.46124 0.0
H627 H -2.87835 0.57614 3.16567 0.0
H628 H -3.32939 0.64448 3.5657 0.0
H629 H -3.76798 0.65977 4.04298 0.0
C630 C -3.76965 0.63873 4.09721 0.0
C631 C -3.72233 0.62646 4.0767 0.0
C632 C -3.56635 0.62749 3.87031 0.0
C633 C -3.50319 0.6011 3.85982 0.0
C634 C -3.3071 0.58949 3.64022 0.0
C635 C -3.07807 0.59407 3.36248 0.0
C636 C -3.06432 0.60943 3.32338 0.0
C637 C -3.32283 0.60317 3.62981 0.0
C638 C -3.32996 0.63238 3.58559 0.0
C639 C -3.57996 0.64125 3.85779 0.0
H640 H -9.90445 0.44269 10.19181 0.0
H641 H -10.50608 0.39063 10.85488 0.0
H642 H -11.04045 0.38111 11.35572 0.0
H643 H -11.27373 0.38122 11.54012 0.0
H644 H -10.65655 0.4317 10.86092 0.0
H645 H -10.1982 0.44858 10.43862 0.0
C646 C -10.15649 0.42973 10.45014 0.0
C647 C -10.15962 0.41692 10.48 0.0
C648 C -10.45907 0.4238 10.73312 0.0
C649 C -10.49209 0.40049 10.82034 0.0
C650 C -10.79792 0.39493 11.10696 0.0
C651 C -11.04505 0.39641 11.30588 0.0
C652 C -10.99494 0.40467 11.22748 0.0
C653 C -10.7751 0.40549 11.0566 0.0
C654 C -10.69962 0.42466 10.92549 0.0
C655 C -10.43532 0.43425 10.68179 0.0
H656 H -12.73602 0.79322 13.59337 0.0
H657 H -12.06243 0.73537 12.8669 0.0
H658 H -11.90456 0.77343 12.67651 0.0
H659 H -11.86732 0.82414 12.63006 0.0
H660 H -12.52715 0.88211 13.3435 0.0
H661 H -12.785 0.84295 13.62898 0.0
C662 C -12.56167 0.78877 13.40008 0.0
C663 C -12.40486 0.76153 13.23858 0.0
C664 C -12.46499 0.81088 13.28502 0.0
C665 C -12.18443 0.75614 12.99325 0.0
C666 C -12.09164 0.77796 12.88189 0.0
C667 C -12.07394 0.82822 12.85406 0.0
C668 C -12.17056 0.85613 12.95831 0.0
C669 C -12.21605 0.8056 13.01234 0.0
C670 C -12.44379 0.86092 13.25389 0.0
C671 C -12.59028 0.83851 13.41633 0.0
H672 H -1.43015 0.6902 1.63552 0.0
H673 H -0.92213 0.62951 1.18515 0.0
H674 H -0.61459 0.66736 0.90442 0.0
H675 H -0.58461 0.71761 0.88584 0.0
H676 H -1.12032 0.7783 1.36515 0.0
H677 H -1.3159 0.7405 1.52898 0.0
C678 C -1.24489 0.68513 1.46833 0.0
C679 C -1.20642 0.65699 1.43884 0.0
C680 C -1.07766 0.70706 1.31691 0.0
C681 C -0.96102 0.65093 1.21674 0.0
C682 C -0.78646 0.67261 1.05766 0.0
C683 C -0.73707 0.72268 1.01879 0.0
C684 C -0.84413 0.75079 1.11989 0.0
C685 C -0.85761 0.70078 1.12146 0.0
C686 C -1.03708 0.75689 1.28724 0.0
C687 C -1.15109 0.73524 1.3831 0.0
H688 H -8.70699 0.31327 9.06559 0.0
H689 H -8.04239 0.37142 8.34905 0.0
H690 H -7.81732 0.33282 8.0937 0.0
H691 H -7.90377 0.28426 8.16403 0.0
H692 H -8.59411 0.22659 8.90518 0.0
H693 H -8.70773 0.2632 9.05405 0.0
C694 C -8.50558 0.31748 8.84662 0.0
C695 C -8.39928 0.34534 8.7339 0.0
C696 C -8.38552 0.29527 8.70875 0.0
C697 C -8.13382 0.35026 8.44576 0.0
C698 C -8.00606 0.32819 8.30055 0.0
C699 C -8.07185 0.27947 8.35117 0.0
C700 C -8.2472 0.25284 8.52986 0.0
C701 C -8.14488 0.30084 8.44411 0.0
C702 C -8.45978 0.24698 8.76748 0.0
C703 C -8.52657 0.26797 8.85444 0.0
H704 H -5.45621 0.23429 6.21827 0.0
H705 H -4.4887 0.2823 5.28664 0.0
H706 H -4.3084 0.24265 5.13646 0.0
H707 H -4.35875 0.19227 5.19729 0.0
H708 H -5.31067 0.14382 6.11185 0.0
H709 H -5.5669 0.18587 6.34467 0.0
C710 C -5.21049 0.23632 5.98733 0.0
C711 C -4.98166 0.26111 5.75895 0.0
C712 C -5.10264 0.21322 5.89632 0.0
C713 C -4.66825 0.26344 5.46516 0.0
C714 C -4.56329 0.24068 5.37736 0.0
C715 C -4.62735 0.19096 5.45311 0.0
C716 C -4.8099 0.16471 5.63114 0.0
C717 C -4.76805 0.21512 5.57983 0.0
C718 C -5.16085 0.1636 5.96571 0.0
C719 C -5.30683 0.18765 6.09813 0.0
H720 H -6.8964 0.23429 7.06959 0.0
H721 H -7.2924 0.14902 7.45416 0.0
H722 H -6.6039 0.13445 6.75279 0.0
H723 H -5.87825 0.14581 6.02177 0.0
H724 H -5.48756 0.23028 5.64807 0.0
H725 H -6.18413 0.24546 6.35249 0.0
C726 C -6.83323 0.21257 7.00076 0.0
C727 C -7.14429 0.19279 7.31246 0.0
C728 C -6.43649 0.20425 6.59776 0.0
C729 C -7.05695 0.16462 7.2183 0.0
C730 C -6.66374 0.15631 6.81776 0.0
C731 C -5.94853 0.16755 6.09717 0.0
C732 C -5.63515 0.18701 5.78646 0.0
C733 C -6.34955 0.17589 6.50382 0.0
C734 C -5.72578 0.21502 5.88419 0.0
C735 C -6.12322 0.22369 6.28611 0.0
H736 H -13.80811 0.84997 14.27326 0.0
H737 H -13.75946 0.75981 14.21479 0.0
H738 H -13.02799 0.7603 13.48732 0.0
H739 H -12.39617 0.78664 12.85817 0.0
H740 H -12.43698 0.87616 12.91284 0.0
H741 H -13.17503 0.87569 13.64925 0.0
C742 C -13.63688 0.83045 14.10115 0.0
C743 C -13.83757 0.80493 14.29728 0.0
C744 C -13.21455 0.83078 13.68174 0.0
C745 C -13.61275 0.77973 14.07164 0.0
C746 C -13.19371 0.77998 13.65475 0.0
C747 C -12.56773 0.80596 13.03276 0.0
C748 C -12.36421 0.83141 12.833 0.0
C749 C -12.99085 0.80541 13.4555 0.0
C750 C -12.58834 0.85629 13.06136 0.0
C751 C -13.00991 0.85604 13.48182 0.0
H752 H -6.4543 0.35051 7.12281 0.0
H753 H -6.53312 0.26336 7.22603 0.0
H754 H -7.26577 0.26607 7.95727 0.0
H755 H -7.88574 0.29369 8.57151 0.0
H756 H -7.82248 0.3795 8.47983 0.0
H757 H -7.08333 0.37691 7.74097 0.0
C758 C -6.63309 0.33213 7.30636 0.0
C759 C -6.44076 0.30685 7.12176 0.0
C760 C -7.05635 0.33362 7.72812 0.0
C761 C -6.67438 0.28304 7.3612 0.0
C762 C -7.09352 0.28458 7.77966 0.0
C763 C -7.70912 0.31172 8.38857 0.0
C764 C -7.90492 0.33681 8.57678 0.0
C765 C -7.28751 0.30982 7.96653 0.0
C766 C -7.67573 0.35996 8.33899 0.0
C767 C -7.25411 0.35851 7.91765 0.0
H768 H -0.54386 0.65913 1.44487 0.0
H769 H -0.86821 0.7457 1.75378 0.0
H770 H -0.16495 0.75658 1.03973 0.0
H771 H 0.53403 0.74094 0.33312 0.0
H772 H -13.41004 0.66181 14.36569 0.0
H773 H 0.15837 0.64331 0.73443 0.0
C774 C -0.45842 0.68042 1.35403 0.0
C775 C -0.75522 0.70167 1.6495 0.0
C776 C -0.05621 0.68624 0.94454 0.0
C777 C -0.64387 0.72905 1.53059 0.0
C778 C -0.24238 0.73526 1.12294 0.0
C779 C 0.45233 0.71972 0.42075 0.0
C780 C 0.7412 0.69796 0.13012 0.0
C781 C 0.05288 0.71395 0.82804 0.0
C782 C 0.63005 0.67046 0.24847 0.0
C783 C 0.23627 0.66472 0.6511 0.0
H784 H -2.90396 0.11128 3.33494 0.0
H785 H -1.63158 0.09261 2.05966 0.0
H786 H -1.59339 0.09787 2.07279 0.0
H787 H -1.91662 0.11165 2.4413 0.0
H788 H -3.19956 0.1271 3.72678 0.0
H789 H -3.23977 0.11901 3.71637 0.0
C790 C -2.6196 0.10802 3.06127 0.0
C791 C -2.27052 0.10186 2.69639 0.0
C792 C -2.60167 0.11066 3.07277 0.0
C793 C -1.90452 0.09731 2.34442 0.0
C794 C -1.88227 0.10049 2.35146 0.0
C795 C -2.20504 0.1129 2.71919 0.0
C796 C -2.55373 0.12024 3.08336 0.0
C797 C -2.2277 0.10775 2.71266 0.0
C798 C -2.92655 0.12147 3.44235 0.0
C799 C -2.94996 0.11697 3.43677 0.0
H800 H -8.5107 0.88739 9.55499 0.0
H801 H -9.79349 0.89702 10.85036 0.0
H802 H -10.6971 0.90185 10.80459 0.0
H803 H -10.25371 0.89934 10.40247 0.0
H804 H -8.96916 0.89364 9.10583 0.0
H805 H -9.05825 0.89137 9.14364 0.0
C806 C -9.7678 0.89099 9.82591 0.0
C807 C -9.15869 0.8916 10.20554 0.0
C808 C -9.70994 0.89421 9.79725 0.0
C809 C -10.48919 0.89653 10.55414 0.0
C810 C -10.43496 0.89912 10.52893 0.0
C811 C -9.99423 0.89799 10.129 0.0
C812 C -9.60641 0.89642 9.75258 0.0
C813 C -10.04796 0.89737 10.1534 0.0
C814 C -9.27044 0.89491 9.39855 0.0
C815 C -9.32165 0.89351 9.42053 0.0
H816 H -10.01212 0.39372 11.07468 0.0
H817 H -12.25107 0.39591 12.3416 0.0
H818 H -11.47034 0.40566 12.51261 0.0
H819 H -11.30897 0.40982 12.30029 0.0
H820 H -10.07229 0.40225 11.03609 0.0
H821 H -9.85107 0.39868 10.86372 0.0
C822 C -10.32999 0.39673 11.38819 0.0
C823 C -11.61498 0.39419 11.69503 0.0
C824 C -10.45349 0.40128 11.48389 0.0
C825 C -12.02606 0.39774 12.10007 0.0
C826 C -11.1513 0.40328 12.19773 0.0
C827 C -10.99129 0.40785 11.9875 0.0
C828 C -10.70594 0.40645 11.68017 0.0
C829 C -10.86796 0.40459 11.89231 0.0
C830 C -10.29578 0.40337 11.27632 0.0
C831 C -10.16963 0.40129 11.17803 0.0
H832 H -4.4289 0.62726 4.94923 0.0
H833 H -3.13055 0.63091 3.64897 0.0
H834 H -3.10869 0.62416 3.67793 0.0
H835 H -3.45876 0.62094 4.07356 0.0
H836 H -4.74949 0.61306 5.36681 0.0
H837 H -4.7759 0.61747 5.3417 0.0
C838 C -4.14192 0.62619 4.67299 0.0
C839 C -3.78232 0.62983 4.298 0.0
C840 C -4.13038 0.62169 4.69078 0.0
C841 C -3.41176 0.62811 3.94151 0.0
C842 C -3.39855 0.6244 3.95742 0.0
C843 C -3.74473 0.61981 4.34867 0.0
C844 C -4.10174 0.61696 4.72134 0.0
C845 C -3.75578 0.62172 4.33024 0.0
C846 C -4.47094 0.61519 5.07645 0.0
C847 C -4.48596 0.61787 5.06209 0.0
H848 H -1.39313 0.41126 1.55983 0.0
H849 H -1.73291 0.39141 1.98512 0.0
H850 H -1.79119 0.44143 2.05464 0.0
H851 H -1.7764 0.49065 2.02492 0.0
H852 H -1.50283 0.51096 1.66481 0.0
H853 H -1.38766 0.46103 1.53915 0.0
C854 C -1.47573 0.418 1.66356 0.0
C855 C -1.5563 0.39778 1.76498 0.0
C856 C -1.52282 0.44684 1.71669 0.0
C857 C -1.6699 0.40665 1.90576 0.0
C858 C -1.70329 0.43522 1.94556 0.0
C859 C -1.68791 0.48417 1.91533 0.0
C860 C -1.6454 0.50443 1.8515 0.0
C861 C -1.63499 0.45547 1.85638 0.0
C862 C -1.53733 0.49571 1.71607 0.0
C863 C -1.47133 0.46719 1.64409 0.0
H864 H -11.95327 0.02653 12.75528 0.0
H865 H -12.11359 1.0073 12.82759 0.0
H866 H -12.23604 0.05721 12.94002 0.0
H867 H -12.2472 0.10685 12.96714 0.0
H868 H -12.00667 0.1256 12.81375 0.0
H869 H -11.96927 0.07543 12.78717 0.0
C870 C -12.02109 0.03321 12.80179 0.0
C871 C -12.02725 0.0133 12.78605 0.0
C872 C -12.07463 0.06192 12.8496 0.0
C873 C -12.10787 0.02229 12.83908 0.0
C874 C -12.17721 0.0508 12.90268 0.0
C875 C -12.19263 0.09981 12.93395 0.0
C876 C -12.13215 0.11971 12.89492 0.0
C877 C -12.1544 0.07088 12.90153 0.0
C878 C -12.05395 0.11054 12.84424 0.0
C879 C -12.03223 0.0819 12.8287 0.0
H880 H -4.89332 1.00206 5.76966 0.0
H881 H -4.86722 0.9986 5.65269 0.0
H882 H -4.9985 0.94831 5.78521 0.0
H883 H -5.06579 0.9045 5.87939 0.0
H884 H -5.148 0.90779 6.05219 0.0
H885 H -5.05463 0.95885 5.95781 0.0
C886 C -4.9218 0.9903 5.77866 0.0
C887 C -4.86683 1.00397 5.6977 0.0
C888 C -5.00574 0.96133 5.86342 0.0
C889 C -4.90892 0.98859 5.71468 0.0
C890 C -4.98206 0.95977 5.78849 0.0
C891 C -5.06893 0.91652 5.90199 0.0
C892 C -5.10972 0.90253 5.96864 0.0
C893 C -5.0229 0.94582 5.85514 0.0
C894 C -5.11812 0.91823 6.00214 0.0
C895 C -5.06222 0.94736 5.94567 0.0
H896 H -8.54915 0.51303 8.86965 0.0
H897 H -8.42988 0.49571 8.83915 0.0
H898 H -8.25686 0.54496 8.67479 0.0
H899 H -8.19403 0.59386 8.59453 0.0
H900 H -8.38858 0.61096 8.70102 0.0
H901 H -8.47243 0.56085 8.77553 0.0
C902 C -8.48001 0.51989 8.82172 0.0
C903 C -8.50154 0.50077 8.86575 0.0
C904 C -8.39502 0.54827 8.74163 0.0
C905 C -8.41599 0.51009 8.8076 0.0
C906 C -8.31736 0.53822 8.71393 0.0
C907 C -8.2475 0.5864 8.62675 0.0
C908 C -8.28253 0.60582 8.63962 0.0
C909 C -8.31319 0.55763 8.68747 0.0
C910 C -8.36003 0.59623 8.68975 0.0
C911 C -8.4089 0.56765 8.73332 0.0
H912 H -6.56838 0.76661 7.50342 0.0
H913 H -6.29784 0.85506 7.23459 0.0
H914 H -7.00339 0.86609 7.95149 0.0
H915 H -7.70995 0.85068 8.66309 0.0
H916 H -7.9829 0.76261 8.92833 0.0
H917 H -7.26529 0.75121 8.20637 0.0
C918 C -6.66243 0.78827 7.60086 0.0
C919 C -6.38158 0.80998 7.31686 0.0
C920 C -7.07059 0.79448 8.01425 0.0
C921 C -6.50901 0.83799 7.44815 0.0
C922 C -6.91232 0.84429 7.85787 0.0
C923 C -7.61015 0.829 8.56115 0.0
C924 C -7.89668 0.80746 8.84644 0.0
C925 C -7.19776 0.82274 8.14499 0.0
C926 C -7.76643 0.77948 8.71286 0.0
C927 C -7.35674 0.77298 8.30065 0.0
H928 H -13.64018 0.17211 14.33044 0.0
H929 H 0.53396 0.2543 0.0757 0.0
H930 H -0.19692 0.25191 0.80452 0.0
H931 H -0.81547 0.22438 1.42693 0.0
H932 H -0.74733 0.13396 1.35758 0.0
H933 H -0.00837 0.13583 0.61673 0.0
C934 C 0.43901 0.18284 0.17145 0.0
C935 C -13.62798 0.21754 14.31764 0.0
C936 C 0.01622 0.18135 0.59266 0.0
C937 C 0.39524 0.23379 0.21386 0.0
C938 C -0.02359 0.23249 0.63167 0.0
C939 C -0.63764 0.20514 1.24791 0.0
C940 C -0.83114 0.17911 1.44236 0.0
C941 C -0.21631 0.20645 0.82502 0.0
C942 C -0.6017 0.15423 1.21112 0.0
C943 C -0.18021 0.15532 0.78874 0.0
H944 H -5.42641 0.66752 5.85518 0.0
H945 H -5.20264 0.7552 5.61545 0.0
H946 H -5.92656 0.76516 6.34002 0.0
H947 H -6.62183 0.74848 7.03678 0.0
H948 H -6.85388 0.66007 7.27926 0.0
H949 H -6.13055 0.65076 6.56119 0.0
C950 C -5.53761 0.68883 5.9635 0.0
C951 C -5.26312 0.71067 5.6841 0.0
C952 C -5.95567 0.69419 6.38075 0.0
C953 C -5.40926 0.73811 5.82592 0.0
C954 C -5.82273 0.74379 6.23972 0.0
C955 C -6.51469 0.72722 6.9335 0.0
C956 C -6.79094 0.70502 7.21093 0.0
C957 C -6.0987 0.72193 6.51937 0.0
C958 C -6.64691 0.67751 7.07134 0.0
C959 C -6.23347 0.67219 6.66087 0.0
H960 H -14.08807 0.28167 14.29433 0.0
H961 H -0.1627 0.36105 0.28803 0.0
H962 H -13.71994 0.38183 13.91287 0.0
H963 H -13.00203 0.36752 13.18936 0.0
H964 H -12.67496 0.28005 12.87085 0.0
H965 H -13.38382 0.26755 13.58483 0.0
C966 C -14.00855 0.3035 14.21148 0.0
C967 C -0.04717 0.31621 0.17428 0.0
C968 C -13.6051 0.31043 13.80307 0.0
C969 C -14.1966 0.35285 14.39835 0.0
C970 C -13.79649 0.3599 13.99213 0.0
C971 C -13.0889 0.34575 13.27889 0.0
C972 C -12.7904 0.32463 12.98148 0.0
C973 C -13.49666 0.33888 13.6908 0.0
C974 C -12.90197 0.29655 13.09699 0.0
C975 C -13.30624 0.28942 13.50418 0.0
H976 H -10.55525 0.9035 11.21586 0.0
H977 H -11.83814 0.91786 12.49887 0.0
H978 H -11.846 0.91462 12.45512 0.0
H979 H -11.48857 0.90433 12.05267 0.0
H980 H -10.19536 0.89443 10.75979 0.0
H981 H -10.18923 0.89963 10.80475 0.0
C982 C -10.83518 0.90624 11.4844 0.0
C983 C -11.19591 0.91061 11.86016 0.0
C984 C -10.8352 0.90509 11.45484 0.0
C985 C -11.55677 0.91451 12.20622 0.0
C986 C -11.56141 0.91253 12.18141 0.0
C987 C -11.20577 0.90371 11.78116 0.0
C988 C -10.84354 0.89879 11.40407 0.0
C989 C -11.20297 0.90734 11.80785 0.0
C990 C -10.47833 0.8983 11.05367 0.0
C991 C -10.47436 0.9011 11.07898 0.0
H992 H -4.10789 0.09862 5.05218 0.0
H993 H -2.88819 0.11177 3.80398 0.0
H994 H -2.66494 0.11655 3.62944 0.0
H995 H -2.82267 0.12034 3.83743 0.0
H996 H -5.05085 0.11222 5.09444 0.0
H997 H -4.26575 0.10208 5.26109 0.0
C998 C -3.79273 0.10209 4.74162 0.0
C999 C -3.51359 0.10464 4.4402 0.0
C1000 C -3.66933 0.10598 4.6463 0.0
C1001 C -3.10752 0.10971 4.04019 0.0
C1002 C -2.98009 0.11249 3.94058 0.0
C1003 C -3.13684 0.11601 4.1474 0.0
C1004 C -4.42018 0.11689 4.45291 0.0
C1005 C -3.25926 0.11116 4.24201 0.0
C1006 C -3.827 0.11167 4.85388 0.0
C1007 C -3.94981 0.10589 4.9491 0.0
H1008 H -2.12531 0.65049 2.22544 0.0
H1009 H -2.67224 0.56975 2.78542 0.0
H1010 H -2.85655 0.56767 2.91977 0.0
H1011 H -1.90841 0.59096 2.92517 0.0
H1012 H -1.3146 0.67022 2.31814 0.0
H1013 H -2.09569 0.67055 2.14817 0.0
C1014 C -2.28137 0.63234 2.37326 0.0
C1015 C -2.39098 0.6105 2.50115 0.0
C1016 C -2.37727 0.63105 2.44044 0.0
C1017 C -2.58638 0.58682 2.68574 0.0
C1018 C -2.69258 0.58569 2.76346 0.0
C1019 C -2.72567 0.60805 2.75019 0.0
C1020 C -1.63155 0.63067 2.63818 0.0
C1021 C -2.59631 0.60797 2.64901 0.0
C1022 C -2.3909 0.65254 2.40775 0.0
C1023 C -2.26773 0.65285 2.31263 0.0
H1024 H -8.82597 0.40527 9.30058 0.0
H1025 H -10.06627 0.38425 10.52579 0.0
H1026 H -10.19596 0.3819 10.70613 0.0
H1027 H -9.94926 0.38278 10.50766 0.0
H1028 H -8.69416 0.39842 9.26845 0.0
H1029 H -8.57578 0.40602 9.09955 0.0
C1030 C -9.12469 0.40051 9.60727 0.0
C1031 C -9.4372 0.39505 9.90078 0.0
C1032 C -9.19307 0.39808 9.70486 0.0
C1033 C -9.82188 0.38844 10.29577 0.0
C1034 C -9.89603 0.38711 10.39883 0.0
C1035 C -9.65069 0.38823 10.20156 0.0
C1036 C -9.33145 0.39025 9.90143 0.0
C1037 C -9.58283 0.39146 10.10472 0.0
C1038 C -8.94465 0.39679 9.50455 0.0
C1039 C -8.8771 0.4011 9.40816 0.0
H1040 H -12.19793 0.59879 13.11359 0.0
H1041 H -12.15822 0.61215 12.98409 0.0
H1042 H -12.09192 0.56152 12.90978 0.0
H1043 H -11.97998 0.51424 12.81637 0.0
H1044 H -11.93595 0.5009 12.86215 0.0
H1045 H -12.10186 0.55061 13.03622 0.0
C1046 C -12.18269 0.59042 13.07709 0.0
C1047 C -12.18639 0.60893 13.05772 0.0
C1048 C -12.12518 0.56137 13.01521 0.0
C1049 C -12.15727 0.59813 13.00113 0.0
C1050 C -12.1182 0.56925 12.9575 0.0
C1051 C -12.01313 0.52209 12.8709 0.0
C1052 C -11.94729 0.50394 12.82796 0.0
C1053 C -12.0922 0.55077 12.95443 0.0
C1054 C -11.98504 0.51451 12.89328 0.0
C1055 C -12.07927 0.54291 12.99216 0.0
H1056 H -0.97056 0.91644 1.32472 0.0
H1057 H -1.12711 0.90176 1.3924 0.0
H1058 H -1.23453 0.95207 1.49201 0.0
H1059 H -1.34855 0.99935 1.62501 0.0
H1060 H -1.27078 0.0137 1.63679 0.0
H1061 H -1.06661 0.96459 1.43973 0.0
C1062 C -1.01995 0.92446 1.35302 0.0
C1063 C -1.03751 0.90561 1.34776 0.0
C1064 C -1.10027 0.95329 1.42922 0.0
C1065 C -1.111 0.91599 1.39408 0.0
C1066 C -1.17372 0.9447 1.45237 0.0
C1067 C -1.28068 0.99186 1.57817 0.0
C1068 C -1.32356 0.01015 1.64422 0.0
C1069 C -1.17869 0.96344 1.48019 0.0
C1070 C -1.24038 1.00001 1.58821 0.0
C1071 C -1.1241 0.97193 1.476 0.0
H1072 H -8.83007 0.01389 9.1103 0.0
H1073 H -8.66432 0.99463 8.85638 0.0
H1074 H -8.54707 0.04448 8.72906 0.0
H1075 H -8.52861 0.09403 8.72685 0.0
H1076 H -8.77205 0.11275 9.05773 0.0
H1077 H -8.81928 0.06264 9.1155 0.0
C1078 C -8.76344 0.02056 9.02228 0.0
C1079 C -8.75237 1.00069 8.98931 0.0
C1080 C -8.71197 0.04919 8.96512 0.0
C1081 C -8.67362 0.00963 8.88288 0.0
C1082 C -8.60692 0.03809 8.81044 0.0
C1083 C -8.58759 0.08697 8.80718 0.0
C1084 C -8.64481 0.10684 8.88604 0.0
C1085 C -8.63035 0.05812 8.85562 0.0
C1086 C -8.72786 0.0977 8.99662 0.0
C1087 C -8.75474 0.06911 9.02951 0.0
H1088 H -5.02827 0.42167 5.72037 0.0
H1089 H -4.60643 0.40675 5.38294 0.0
H1090 H -4.58335 0.45735 5.36865 0.0
H1091 H -4.63736 0.50564 5.40544 0.0
H1092 H -4.97777 0.52123 5.65974 0.0
H1093 H -5.08084 0.47074 5.75548 0.0
C1094 C -4.93663 0.42964 5.6491 0.0
C1095 C -4.82179 0.41068 5.55552 0.0
C1096 C -4.90758 0.45884 5.62454 0.0
C1097 C -4.69598 0.42107 5.45587 0.0
C1098 C -4.68267 0.44995 5.44758 0.0
C1099 C -4.7402 0.49803 5.48802 0.0
C1100 C -4.80385 0.51711 5.52952 0.0
C1101 C -4.78158 0.46901 5.52505 0.0
C1102 C -4.9283 0.50691 5.62766 0.0
C1103 C -4.98633 0.47806 5.6815 0.0
loop_
_geom_bond_atom_site_label_1
_geom_bond_atom_site_label_2
_geom_bond_distance
_geom_bond_site_symmetry_2
_ccdc_geom_bond_type
O0 Cd1 2.223 . S
O0 C8 1.315 . S
Cd1 O0 2.223 . S
Cd1 O4 2.297 . S
Cd1 O5 2.439 . S
Cd1 O11 2.240 . S
Cd2 O3 2.240 . S
Cd2 O10 2.223 . S
Cd2 O12 2.297 . S
Cd2 O13 2.439 . S
O3 Cd2 2.240 . S
O3 C8 1.279 . S
O4 Cd1 2.297 . S
O4 C6 1.247 . S
O5 Cd1 2.439 . S
O5 C6 1.208 . S
C6 O4 1.247 . S
C6 O5 1.208 . S
C7 O12 1.247 . S
C7 O13 1.208 . S
C8 O0 1.315 . S
C8 O3 1.279 . S
C9 O10 1.315 . S
C9 O11 1.279 . S
O10 Cd2 2.223 . S
O10 C9 1.315 . S
O11 Cd1 2.240 . S
O11 C9 1.279 . S
O12 Cd2 2.297 . S
O12 C7 1.247 . S
O13 Cd2 2.439 . S
O13 C7 1.208 . S
O14 Cd15 2.223 . S
O14 C22 1.315 . S
Cd15 O14 2.223 . S
Cd15 O18 2.297 . S
Cd15 O19 2.439 . S
Cd15 O25 2.240 . S
Cd16 O17 2.240 . S
Cd16 O24 2.223 . S
Cd16 O26 2.297 . S
Cd16 O27 2.439 . S
O17 Cd16 2.240 . S
O17 C22 1.279 . S
O18 Cd15 2.297 . S
O18 C20 1.247 . S
O19 Cd15 2.439 . S
O19 C20 1.208 . S
C20 O18 1.247 . S
C20 O19 1.208 . S
C21 O26 1.247 . S
C21 O27 1.208 . S
C22 O14 1.315 . S
C22 O17 1.279 . S
C23 O24 1.315 . S
C23 O25 1.279 . S
O24 Cd16 2.223 . S
O24 C23 1.315 . S
O25 Cd15 2.240 . S
O25 C23 1.279 . S
O26 Cd16 2.297 . S
O26 C21 1.247 . S
O27 Cd16 2.439 . S
O27 C21 1.208 . S
O28 Cd29 2.223 . S
O28 C36 1.315 . S
Cd29 O28 2.223 . S
Cd29 O32 2.297 . S
Cd29 O33 2.439 . S
Cd29 O39 2.240 . S
Cd30 O31 2.240 . S
Cd30 O38 2.223 . S
Cd30 O40 2.297 . S
Cd30 O41 2.439 . S
O31 Cd30 2.240 . S
O31 C36 1.279 . S
O32 Cd29 2.297 . S
O32 C34 1.247 . S
O33 Cd29 2.439 . S
O33 C34 1.208 . S
C34 O32 1.247 . S
C34 O33 1.208 . S
C35 O40 1.247 . S
C35 O41 1.208 . S
C36 O28 1.315 . S
C36 O31 1.279 . S
C37 O38 1.315 . S
C37 O39 1.279 . S
O38 Cd30 2.223 . S
O38 C37 1.315 . S
O39 Cd29 2.240 . S
O39 C37 1.279 . S
O40 Cd30 2.297 . S
O40 C35 1.247 . S
O41 Cd30 2.439 . S
O41 C35 1.208 . S
O42 Cd43 2.223 . S
O42 C50 1.315 . S
Cd43 O42 2.223 . S
Cd43 O46 2.297 . S
Cd43 O47 2.439 . S
Cd43 O53 2.240 . S
Cd44 O45 2.240 . S
Cd44 O52 2.223 . S
Cd44 O54 2.297 . S
Cd44 O55 2.439 . S
O45 Cd44 2.240 . S
O45 C50 1.279 . S
O46 Cd43 2.297 . S
O46 C48 1.247 . S
O47 Cd43 2.439 . S
O47 C48 1.208 . S
C48 O46 1.247 . S
C48 O47 1.208 . S
C49 O54 1.247 . S
C49 O55 1.208 . S
C50 O42 1.315 . S
C50 O45 1.279 . S
C51 O52 1.315 . S
C51 O53 1.279 . S
O52 Cd44 2.223 . S
O52 C51 1.315 . S
O53 Cd43 2.240 . S
O53 C51 1.279 . S
O54 Cd44 2.297 . S
O54 C49 1.247 . S
O55 Cd44 2.439 . S
O55 C49 1.208 . S
O56 Cd57 2.223 . S
O56 C64 1.315 . S
Cd57 O56 2.223 . S
Cd57 O60 2.297 . S
Cd57 O61 2.439 . S
Cd57 O67 2.240 . S
Cd58 O59 2.240 . S
Cd58 O66 2.223 . S
Cd58 O68 2.297 . S
Cd58 O69 2.439 . S
O59 Cd58 2.240 . S
O59 C64 1.279 . S
O60 Cd57 2.297 . S
O60 C62 1.247 . S
O61 Cd57 2.439 . S
O61 C62 1.208 . S
C62 O60 1.247 . S
C62 O61 1.208 . S
C63 O68 1.247 . S
C63 O69 1.208 . S
C64 O56 1.315 . S
C64 O59 1.279 . S
C65 O66 1.315 . S
C65 O67 1.279 . S
O66 Cd58 2.223 . S
O66 C65 1.315 . S
O67 Cd57 2.240 . S
O67 C65 1.279 . S
O68 Cd58 2.297 . S
O68 C63 1.247 . S
O69 Cd58 2.439 . S
O69 C63 1.208 . S
O70 Cd71 2.223 . S
O70 C78 1.315 . S
Cd71 O70 2.223 . S
Cd71 O74 2.297 . S
Cd71 O75 2.439 . S
Cd71 O81 2.240 . S
Cd72 O73 2.240 . S
Cd72 O80 2.223 . S
Cd72 O82 2.297 . S
Cd72 O83 2.439 . S
O73 Cd72 2.240 . S
O73 C78 1.279 . S
O74 Cd71 2.297 . S
O74 C76 1.247 . S
O75 Cd71 2.439 . S
O75 C76 1.208 . S
C76 O74 1.247 . S
C76 O75 1.208 . S
C77 O82 1.247 . S
C77 O83 1.208 . S
C78 O70 1.315 . S
C78 O73 1.279 . S
C79 O80 1.315 . S
C79 O81 1.279 . S
O80 Cd72 2.223 . S
O80 C79 1.315 . S
O81 Cd71 2.240 . S
O81 C79 1.279 . S
O82 Cd72 2.297 . S
O82 C77 1.247 . S
O83 Cd72 2.439 . S
O83 C77 1.208 . S
O84 Cd85 2.223 . S
O84 C92 1.315 . S
Cd85 O84 2.223 . S
Cd85 O88 2.297 . S
Cd85 O89 2.439 . S
Cd85 O95 2.240 . S
Cd86 O87 2.240 . S
Cd86 O94 2.223 . S
Cd86 O96 2.297 . S
Cd86 O97 2.439 . S
O87 Cd86 2.240 . S
O87 C92 1.279 . S
O88 Cd85 2.297 . S
O88 C90 1.247 . S
O89 Cd85 2.439 . S
O89 C90 1.208 . S
C90 O88 1.247 . S
C90 O89 1.208 . S
C91 O96 1.247 . S
C91 O97 1.208 . S
C92 O84 1.315 . S
C92 O87 1.279 . S
C93 O94 1.315 . S
C93 O95 1.279 . S
O94 Cd86 2.223 . S
O94 C93 1.315 . S
O95 Cd85 2.240 . S
O95 C93 1.279 . S
O96 Cd86 2.297 . S
O96 C91 1.247 . S
O97 Cd86 2.439 . S
O97 C91 1.208 . S
O98 Cd99 2.223 . S
O98 C106 1.315 . S
Cd99 O98 2.223 . S
Cd99 O102 2.297 . S
Cd99 O103 2.439 . S
Cd99 O109 2.240 . S
Cd100 O101 2.240 . S
Cd100 O108 2.223 . S
Cd100 O110 2.297 . S
Cd100 O111 2.439 . S
O101 Cd100 2.240 . S
O101 C106 1.279 . S
O102 Cd99 2.297 . S
O102 C104 1.247 . S
O103 Cd99 2.439 . S
O103 C104 1.208 . S
C104 O102 1.247 . S
C104 O103 1.208 . S
C105 O110 1.247 . S
C105 O111 1.208 . S
C106 O98 1.315 . S
C106 O101 1.279 . S
C107 O108 1.315 . S
C107 O109 1.279 . S
O108 Cd100 2.223 . S
O108 C107 1.315 . S
O109 Cd99 2.240 . S
O109 C107 1.279 . S
O110 Cd100 2.297 . S
O110 C105 1.247 . S
O111 Cd100 2.439 . S
O111 C105 1.208 . S
O112 Cd113 2.223 . S
O112 C120 1.315 . S
Cd113 O112 2.223 . S
Cd113 O116 2.297 . S
Cd113 O117 2.439 . S
Cd113 O123 2.240 . S
Cd114 O115 2.240 . S
Cd114 O122 2.223 . S
Cd114 O124 2.297 . S
Cd114 O125 2.439 . S
O115 Cd114 2.240 . S
O115 C120 1.279 . S
O116 Cd113 2.297 . S
O116 C118 1.247 . S
O117 Cd113 2.439 . S
O117 C118 1.208 . S
C118 O116 1.247 . S
C118 O117 1.208 . S
C119 O124 1.247 . S
C119 O125 1.208 . S
C120 O112 1.315 . S
C120 O115 1.279 . S
C121 O122 1.315 . S
C121 O123 1.279 . S
O122 Cd114 2.223 . S
O122 C121 1.315 . S
O123 Cd113 2.240 . S
O123 C121 1.279 . S
O124 Cd114 2.297 . S
O124 C119 1.247 . S
O125 Cd114 2.439 . S
O125 C119 1.208 . S
O126 Cd127 2.223 . S
O126 C134 1.315 . S
Cd127 O126 2.223 . S
Cd127 O130 2.297 . S
Cd127 O131 2.439 . S
Cd127 O137 2.240 . S
Cd128 O129 2.240 . S
Cd128 O136 2.223 . S
Cd128 O138 2.297 . S
Cd128 O139 2.439 . S
O129 Cd128 2.240 . S
O129 C134 1.279 . S
O130 Cd127 2.297 . S
O130 C132 1.247 . S
O131 Cd127 2.439 . S
O131 C132 1.208 . S
C132 O130 1.247 . S
C132 O131 1.208 . S
C133 O138 1.247 . S
C133 O139 1.208 . S
C134 O126 1.315 . S
C134 O129 1.279 . S
C135 O136 1.315 . S
C135 O137 1.279 . S
O136 Cd128 2.223 . S
O136 C135 1.315 . S
O137 Cd127 2.240 . S
O137 C135 1.279 . S
O138 Cd128 2.297 . S
O138 C133 1.247 . S
O139 Cd128 2.439 . S
O139 C133 1.208 . S
O140 Cd141 2.223 . S
O140 C148 1.315 . S
Cd141 O140 2.223 . S
Cd141 O144 2.297 . S
Cd141 O145 2.439 . S
Cd141 O151 2.240 . S
Cd142 O143 2.240 . S
Cd142 O150 2.223 . S
Cd142 O152 2.297 . S
Cd142 O153 2.439 . S
O143 Cd142 2.240 . S
O143 C148 1.279 . S
O144 Cd141 2.297 . S
O144 C146 1.247 . S
O145 Cd141 2.439 . S
O145 C146 1.208 . S
C146 O144 1.247 . S
C146 O145 1.208 . S
C147 O152 1.247 . S
C147 O153 1.208 . S
C148 O140 1.315 . S
C148 O143 1.279 . S
C149 O150 1.315 . S
C149 O151 1.279 . S
O150 Cd142 2.223 . S
O150 C149 1.315 . S
O151 Cd141 2.240 . S
O151 C149 1.279 . S
O152 Cd142 2.297 . S
O152 C147 1.247 . S
O153 Cd142 2.439 . S
O153 C147 1.208 . S
O154 Cd155 2.223 . S
O154 C162 1.315 . S
Cd155 O154 2.223 . S
Cd155 O158 2.297 . S
Cd155 O159 2.439 . S
Cd155 O165 2.240 . S
Cd156 O157 2.240 . S
Cd156 O164 2.223 . S
Cd156 O166 2.297 . S
Cd156 O167 2.439 . S
O157 Cd156 2.240 . S
O157 C162 1.279 . S
O158 Cd155 2.297 . S
O158 C160 1.247 . S
O159 Cd155 2.439 . S
O159 C160 1.208 . S
C160 O158 1.247 . S
C160 O159 1.208 . S
C161 O166 1.247 . S
C161 O167 1.208 . S
C162 O154 1.315 . S
C162 O157 1.279 . S
C163 O164 1.315 . S
C163 O165 1.279 . S
O164 Cd156 2.223 . S
O164 C163 1.315 . S
O165 Cd155 2.240 . S
O165 C163 1.279 . S
O166 Cd156 2.297 . S
O166 C161 1.247 . S
O167 Cd156 2.439 . S
O167 C161 1.208 . S
O168 Cd169 2.223 . S
O168 C176 1.315 . S
Cd169 O168 2.223 . S
Cd169 O172 2.297 . S
Cd169 O173 2.439 . S
Cd169 O179 2.240 . S
Cd170 O171 2.240 . S
Cd170 O178 2.223 . S
Cd170 O180 2.297 . S
Cd170 O181 2.439 . S
O171 Cd170 2.240 . S
O171 C176 1.279 . S
O172 Cd169 2.297 . S
O172 C174 1.247 . S
O173 Cd169 2.439 . S
O173 C174 1.208 . S
C174 O172 1.247 . S
C174 O173 1.208 . S
C175 O180 1.247 . S
C175 O181 1.208 . S
C176 O168 1.315 . S
C176 O171 1.279 . S
C177 O178 1.315 . S
C177 O179 1.279 . S
O178 Cd170 2.223 . S
O178 C177 1.315 . S
O179 Cd169 2.240 . S
O179 C177 1.279 . S
O180 Cd170 2.297 . S
O180 C175 1.247 . S
O181 Cd170 2.439 . S
O181 C175 1.208 . S
O182 Cd183 2.223 . S
O182 C190 1.315 . S
Cd183 O182 2.223 . S
Cd183 O186 2.297 . S
Cd183 O187 2.439 . S
Cd183 O193 2.240 . S
Cd184 O185 2.240 . S
Cd184 O192 2.223 . S
Cd184 O194 2.297 . S
Cd184 O195 2.439 . S
O185 Cd184 2.240 . S
O185 C190 1.279 . S
O186 Cd183 2.297 . S
O186 C188 1.247 . S
O187 Cd183 2.439 . S
O187 C188 1.208 . S
C188 O186 1.247 . S
C188 O187 1.208 . S
C189 O194 1.247 . S
C189 O195 1.208 . S
C190 O182 1.315 . S
C190 O185 1.279 . S
C191 O192 1.315 . S
C191 O193 1.279 . S
O192 Cd184 2.223 . S
O192 C191 1.315 . S
O193 Cd183 2.240 . S
O193 C191 1.279 . S
O194 Cd184 2.297 . S
O194 C189 1.247 . S
O195 Cd184 2.439 . S
O195 C189 1.208 . S
O196 Cd197 2.223 . S
O196 C204 1.315 . S
Cd197 O196 2.223 . S
Cd197 O200 2.297 . S
Cd197 O201 2.439 . S
Cd197 O207 2.240 . S
Cd198 O199 2.240 . S
Cd198 O206 2.223 . S
Cd198 O208 2.297 . S
Cd198 O209 2.439 . S
O199 Cd198 2.240 . S
O199 C204 1.279 . S
O200 Cd197 2.297 . S
O200 C202 1.247 . S
O201 Cd197 2.439 . S
O201 C202 1.208 . S
C202 O200 1.247 . S
C202 O201 1.208 . S
C203 O208 1.247 . S
C203 O209 1.208 . S
C204 O196 1.315 . S
C204 O199 1.279 . S
C205 O206 1.315 . S
C205 O207 1.279 . S
O206 Cd198 2.223 . S
O206 C205 1.315 . S
O207 Cd197 2.240 . S
O207 C205 1.279 . S
O208 Cd198 2.297 . S
O208 C203 1.247 . S
O209 Cd198 2.439 . S
O209 C203 1.208 . S
O210 Cd211 2.223 . S
O210 C218 1.315 . S
Cd211 O210 2.223 . S
Cd211 O214 2.297 . S
Cd211 O215 2.439 . S
Cd211 O221 2.240 . S
Cd212 O213 2.240 . S
Cd212 O220 2.223 . S
Cd212 O222 2.297 . S
Cd212 O223 2.439 . S
O213 Cd212 2.240 . S
O213 C218 1.279 . S
O214 Cd211 2.297 . S
O214 C216 1.247 . S
O215 Cd211 2.439 . S
O215 C216 1.208 . S
C216 O214 1.247 . S
C216 O215 1.208 . S
C217 O222 1.247 . S
C217 O223 1.208 . S
C218 O210 1.315 . S
C218 O213 1.279 . S
C219 O220 1.315 . S
C219 O221 1.279 . S
O220 Cd212 2.223 . S
O220 C219 1.315 . S
O221 Cd211 2.240 . S
O221 C219 1.279 . S
O222 Cd212 2.297 . S
O222 C217 1.247 . S
O223 Cd212 2.439 . S
O223 C217 1.208 . S
O224 Cd225 2.223 . S
O224 C232 1.315 . S
Cd225 O224 2.223 . S
Cd225 O228 2.297 . S
Cd225 O229 2.439 . S
Cd225 O235 2.240 . S
Cd226 O227 2.240 . S
Cd226 O234 2.223 . S
Cd226 O236 2.297 . S
Cd226 O237 2.439 . S
O227 Cd226 2.240 . S
O227 C232 1.279 . S
O228 Cd225 2.297 . S
O228 C230 1.247 . S
O229 Cd225 2.439 . S
O229 C230 1.208 . S
C230 O228 1.247 . S
C230 O229 1.208 . S
C231 O236 1.247 . S
C231 O237 1.208 . S
C232 O224 1.315 . S
C232 O227 1.279 . S
C233 O234 1.315 . S
C233 O235 1.279 . S
O234 Cd226 2.223 . S
O234 C233 1.315 . S
O235 Cd225 2.240 . S
O235 C233 1.279 . S
O236 Cd226 2.297 . S
O236 C231 1.247 . S
O237 Cd226 2.439 . S
O237 C231 1.208 . S
O238 Cd239 2.223 . S
O238 C246 1.315 . S
Cd239 O238 2.223 . S
Cd239 O242 2.297 . S
Cd239 O243 2.439 . S
Cd239 O249 2.240 . S
Cd240 O241 2.240 . S
Cd240 O248 2.223 . S
Cd240 O250 2.297 . S
Cd240 O251 2.439 . S
O241 Cd240 2.240 . S
O241 C246 1.279 . S
O242 Cd239 2.297 . S
O242 C244 1.247 . S
O243 Cd239 2.439 . S
O243 C244 1.208 . S
C244 O242 1.247 . S
C244 O243 1.208 . S
C245 O250 1.247 . S
C245 O251 1.208 . S
C246 O238 1.315 . S
C246 O241 1.279 . S
C247 O248 1.315 . S
C247 O249 1.279 . S
O248 Cd240 2.223 . S
O248 C247 1.315 . S
O249 Cd239 2.240 . S
O249 C247 1.279 . S
O250 Cd240 2.297 . S
O250 C245 1.247 . S
O251 Cd240 2.439 . S
O251 C245 1.208 . S
O252 Cd253 2.223 . S
O252 C260 1.315 . S
Cd253 O252 2.223 . S
Cd253 O256 2.297 . S
Cd253 O257 2.439 . S
Cd253 O263 2.240 . S
Cd254 O255 2.240 . S
Cd254 O262 2.223 . S
Cd254 O264 2.297 . S
Cd254 O265 2.439 . S
O255 Cd254 2.240 . S
O255 C260 1.279 . S
O256 Cd253 2.297 . S
O256 C258 1.247 . S
O257 Cd253 2.439 . S
O257 C258 1.208 . S
C258 O256 1.247 . S
C258 O257 1.208 . S
C259 O264 1.247 . S
C259 O265 1.208 . S
C260 O252 1.315 . S
C260 O255 1.279 . S
C261 O262 1.315 . S
C261 O263 1.279 . S
O262 Cd254 2.223 . S
O262 C261 1.315 . S
O263 Cd253 2.240 . S
O263 C261 1.279 . S
O264 Cd254 2.297 . S
O264 C259 1.247 . S
O265 Cd254 2.439 . S
O265 C259 1.208 . S
O266 Cd267 2.223 . S
O266 C274 1.315 . S
Cd267 O266 2.223 . S
Cd267 O270 2.297 . S
Cd267 O271 2.439 . S
Cd267 O277 2.240 . S
Cd268 O269 2.240 . S
Cd268 O276 2.223 . S
Cd268 O278 2.297 . S
Cd268 O279 2.439 . S
O269 Cd268 2.240 . S
O269 C274 1.279 . S
O270 Cd267 2.297 . S
O270 C272 1.247 . S
O271 Cd267 2.439 . S
O271 C272 1.208 . S
C272 O270 1.247 . S
C272 O271 1.208 . S
C273 O278 1.247 . S
C273 O279 1.208 . S
C274 O266 1.315 . S
C274 O269 1.279 . S
C275 O276 1.315 . S
C275 O277 1.279 . S
O276 Cd268 2.223 . S
O276 C275 1.315 . S
O277 Cd267 2.240 . S
O277 C275 1.279 . S
O278 Cd268 2.297 . S
O278 C273 1.247 . S
O279 Cd268 2.439 . S
O279 C273 1.208 . S
O280 Cd281 2.223 . S
O280 C288 1.315 . S
Cd281 O280 2.223 . S
Cd281 O284 2.297 . S
Cd281 O285 2.439 . S
Cd281 O291 2.240 . S
Cd282 O283 2.240 . S
Cd282 O290 2.223 . S
Cd282 O292 2.297 . S
Cd282 O293 2.439 . S
O283 Cd282 2.240 . S
O283 C288 1.279 . S
O284 Cd281 2.297 . S
O284 C286 1.247 . S
O285 Cd281 2.439 . S
O285 C286 1.208 . S
C286 O284 1.247 . S
C286 O285 1.208 . S
C287 O292 1.247 . S
C287 O293 1.208 . S
C288 O280 1.315 . S
C288 O283 1.279 . S
C289 O290 1.315 . S
C289 O291 1.279 . S
O290 Cd282 2.223 . S
O290 C289 1.315 . S
O291 Cd281 2.240 . S
O291 C289 1.279 . S
O292 Cd282 2.297 . S
O292 C287 1.247 . S
O293 Cd282 2.439 . S
O293 C287 1.208 . S
O294 Cd295 2.223 . S
O294 C302 1.315 . S
Cd295 O294 2.223 . S
Cd295 O298 2.297 . S
Cd295 O299 2.439 . S
Cd295 O305 2.240 . S
Cd296 O297 2.240 . S
Cd296 O304 2.223 . S
Cd296 O306 2.297 . S
Cd296 O307 2.439 . S
O297 Cd296 2.240 . S
O297 C302 1.279 . S
O298 Cd295 2.297 . S
O298 C300 1.247 . S
O299 Cd295 2.439 . S
O299 C300 1.208 . S
C300 O298 1.247 . S
C300 O299 1.208 . S
C301 O306 1.247 . S
C301 O307 1.208 . S
C302 O294 1.315 . S
C302 O297 1.279 . S
C303 O304 1.315 . S
C303 O305 1.279 . S
O304 Cd296 2.223 . S
O304 C303 1.315 . S
O305 Cd295 2.240 . S
O305 C303 1.279 . S
O306 Cd296 2.297 . S
O306 C301 1.247 . S
O307 Cd296 2.439 . S
O307 C301 1.208 . S
O308 Cd309 2.223 . S
O308 C316 1.315 . S
Cd309 O308 2.223 . S
Cd309 O312 2.297 . S
Cd309 O313 2.439 . S
Cd309 O319 2.240 . S
Cd310 O311 2.240 . S
Cd310 O318 2.223 . S
Cd310 O320 2.297 . S
Cd310 O321 2.439 . S
O311 Cd310 2.240 . S
O311 C316 1.279 . S
O312 Cd309 2.297 . S
O312 C314 1.247 . S
O313 Cd309 2.439 . S
O313 C314 1.208 . S
C314 O312 1.247 . S
C314 O313 1.208 . S
C315 O320 1.247 . S
C315 O321 1.208 . S
C316 O308 1.315 . S
C316 O311 1.279 . S
C317 O318 1.315 . S
C317 O319 1.279 . S
O318 Cd310 2.223 . S
O318 C317 1.315 . S
O319 Cd309 2.240 . S
O319 C317 1.279 . S
O320 Cd310 2.297 . S
O320 C315 1.247 . S
O321 Cd310 2.439 . S
O321 C315 1.208 . S
O322 Cd323 2.223 . S
O322 C330 1.315 . S
Cd323 O322 2.223 . S
Cd323 O326 2.297 . S
Cd323 O327 2.439 . S
Cd323 O333 2.240 . S
Cd324 O325 2.240 . S
Cd324 O332 2.223 . S
Cd324 O334 2.297 . S
Cd324 O335 2.439 . S
O325 Cd324 2.240 . S
O325 C330 1.279 . S
O326 Cd323 2.297 . S
O326 C328 1.247 . S
O327 Cd323 2.439 . S
O327 C328 1.208 . S
C328 O326 1.247 . S
C328 O327 1.208 . S
C329 O334 1.247 . S
C329 O335 1.208 . S
C330 O322 1.315 . S
C330 O325 1.279 . S
C331 O332 1.315 . S
C331 O333 1.279 . S
O332 Cd324 2.223 . S
O332 C331 1.315 . S
O333 Cd323 2.240 . S
O333 C331 1.279 . S
O334 Cd324 2.297 . S
O334 C329 1.247 . S
O335 Cd324 2.439 . S
O335 C329 1.208 . S
H336 C342 0.930 . S
H337 C345 0.930 . S
H338 C346 0.930 . S
H339 C347 0.930 . S
H340 C350 0.930 . S
H341 C351 0.930 . S
C342 H336 0.930 . S
C342 C343 1.355 . S
C342 C344 1.415 . S
C343 C342 1.355 . S
C343 C345 1.419 . S
C344 C342 1.415 . S
C344 C349 1.425 . S
C344 C351 1.409 . S
C345 H337 0.930 . S
C345 C343 1.419 . S
C345 C346 1.362 . S
C346 H338 0.930 . S
C346 C345 1.362 . S
C346 C349 1.409 . S
C347 H339 0.930 . S
C347 C348 1.355 . S
C347 C349 1.415 . S
C348 C347 1.355 . S
C348 C350 1.419 . S
C349 C344 1.425 . S
C349 C346 1.409 . S
C349 C347 1.415 . S
C350 H340 0.930 . S
C350 C348 1.419 . S
C350 C351 1.362 . S
C351 H341 0.930 . S
C351 C344 1.409 . S
C351 C350 1.362 . S
H352 C358 0.930 . S
H353 C361 0.930 . S
H354 C362 0.930 . S
H355 C363 0.930 . S
H356 C366 0.930 . S
H357 C367 0.930 . S
C358 H352 0.930 . S
C358 C359 1.355 . S
C358 C360 1.415 . S
C359 C358 1.355 . S
C359 C361 1.419 . S
C360 C358 1.415 . S
C360 C365 1.425 . S
C360 C367 1.409 . S
C361 H353 0.930 . S
C361 C359 1.419 . S
C361 C362 1.362 . S
C362 H354 0.930 . S
C362 C361 1.362 . S
C362 C365 1.409 . S
C363 H355 0.930 . S
C363 C364 1.355 . S
C363 C365 1.415 . S
C364 C363 1.355 . S
C364 C366 1.419 . S
C365 C360 1.425 . S
C365 C362 1.409 . S
C365 C363 1.415 . S
C366 H356 0.930 . S
C366 C364 1.419 . S
C366 C367 1.362 . S
C367 H357 0.930 . S
C367 C360 1.409 . S
C367 C366 1.362 . S
H368 C374 0.930 . S
H369 C377 0.930 . S
H370 C378 0.930 . S
H371 C379 0.930 . S
H372 C382 0.930 . S
H373 C383 0.930 . S
C374 H368 0.930 . S
C374 C375 1.355 . S
C374 C376 1.415 . S
C375 C374 1.355 . S
C375 C377 1.419 . S
C376 C374 1.415 . S
C376 C381 1.425 . S
C376 C383 1.409 . S
C377 H369 0.930 . S
C377 C375 1.419 . S
C377 C378 1.362 . S
C378 H370 0.930 . S
C378 C377 1.362 . S
C378 C381 1.409 . S
C379 H371 0.930 . S
C379 C380 1.355 . S
C379 C381 1.415 . S
C380 C379 1.355 . S
C380 C382 1.419 . S
C381 C376 1.425 . S
C381 C378 1.409 . S
C381 C379 1.415 . S
C382 H372 0.930 . S
C382 C380 1.419 . S
C382 C383 1.362 . S
C383 H373 0.930 . S
C383 C376 1.409 . S
C383 C382 1.362 . S
H384 C390 0.930 . S
H385 C393 0.930 . S
H386 C394 0.930 . S
H387 C395 0.930 . S
H388 C398 0.930 . S
H389 C399 0.930 . S
C390 H384 0.930 . S
C390 C391 1.355 . S
C390 C392 1.415 . S
C391 C390 1.355 . S
C391 C393 1.419 . S
C392 C390 1.415 . S
C392 C397 1.425 . S
C392 C399 1.409 . S
C393 H385 0.930 . S
C393 C391 1.419 . S
C393 C394 1.362 . S
C394 H386 0.930 . S
C394 C393 1.362 . S
C394 C397 1.409 . S
C395 H387 0.930 . S
C395 C396 1.355 . S
C395 C397 1.415 . S
C396 C395 1.355 . S
C396 C398 1.419 . S
C397 C392 1.425 . S
C397 C394 1.409 . S
C397 C395 1.415 . S
C398 H388 0.930 . S
C398 C396 1.419 . S
C398 C399 1.362 . S
C399 H389 0.930 . S
C399 C392 1.409 . S
C399 C398 1.362 . S
H400 C406 0.930 . S
H401 C409 0.930 . S
H402 C410 0.930 . S
H403 C411 0.930 . S
H404 C414 0.930 . S
H405 C415 0.930 . S
C406 H400 0.930 . S
C406 C407 1.355 . S
C406 C408 1.415 . S
C407 C406 1.355 . S
C407 C409 1.419 . S
C408 C406 1.415 . S
C408 C413 1.425 . S
C408 C415 1.409 . S
C409 H401 0.930 . S
C409 C407 1.419 . S
C409 C410 1.362 . S
C410 H402 0.930 . S
C410 C409 1.362 . S
C410 C413 1.409 . S
C411 H403 0.930 . S
C411 C412 1.355 . S
C411 C413 1.415 . S
C412 C411 1.355 . S
C412 C414 1.419 . S
C413 C408 1.425 . S
C413 C410 1.409 . S
C413 C411 1.415 . S
C414 H404 0.930 . S
C414 C412 1.419 . S
C414 C415 1.362 . S
C415 H405 0.930 . S
C415 C408 1.409 . S
C415 C414 1.362 . S
H416 C422 0.930 . S
H417 C425 0.930 . S
H418 C426 0.930 . S
H419 C427 0.930 . S
H420 C430 0.930 . S
H421 C431 0.930 . S
C422 H416 0.930 . S
C422 C423 1.355 . S
C422 C424 1.415 . S
C423 C422 1.355 . S
C423 C425 1.419 . S
C424 C422 1.415 . S
C424 C429 1.425 . S
C424 C431 1.409 . S
C425 H417 0.930 . S
C425 C423 1.419 . S
C425 C426 1.362 . S
C426 H418 0.930 . S
C426 C425 1.362 . S
C426 C429 1.409 . S
C427 H419 0.930 . S
C427 C428 1.355 . S
C427 C429 1.415 . S
C428 C427 1.355 . S
C428 C430 1.419 . S
C429 C424 1.425 . S
C429 C426 1.409 . S
C429 C427 1.415 . S
C430 H420 0.930 . S
C430 C428 1.419 . S
C430 C431 1.362 . S
C431 H421 0.930 . S
C431 C424 1.409 . S
C431 C430 1.362 . S
H432 C438 0.930 . S
H433 C441 0.930 . S
H434 C442 0.930 . S
H435 C443 0.930 . S
H436 C446 0.930 . S
H437 C447 0.930 . S
C438 H432 0.930 . S
C438 C439 1.355 . S
C438 C440 1.415 . S
C439 C438 1.355 . S
C439 C441 1.419 . S
C440 C438 1.415 . S
C440 C445 1.425 . S
C440 C447 1.409 . S
C441 H433 0.930 . S
C441 C439 1.419 . S
C441 C442 1.362 . S
C442 H434 0.930 . S
C442 C441 1.362 . S
C442 C445 1.409 . S
C443 H435 0.930 . S
C443 C444 1.355 . S
C443 C445 1.415 . S
C444 C443 1.355 . S
C444 C446 1.419 . S
C445 C440 1.425 . S
C445 C442 1.409 . S
C445 C443 1.415 . S
C446 H436 0.930 . S
C446 C444 1.419 . S
C446 C447 1.362 . S
C447 H437 0.930 . S
C447 C440 1.409 . S
C447 C446 1.362 . S
H448 C454 0.930 . S
H449 C457 0.930 . S
H450 C458 0.930 . S
H451 C459 0.930 . S
H452 C462 0.930 . S
H453 C463 0.930 . S
C454 H448 0.930 . S
C454 C455 1.355 . S
C454 C456 1.415 . S
C455 C454 1.355 . S
C455 C457 1.419 . S
C456 C454 1.415 . S
C456 C461 1.425 . S
C456 C463 1.409 . S
C457 H449 0.930 . S
C457 C455 1.419 . S
C457 C458 1.362 . S
C458 H450 0.930 . S
C458 C457 1.362 . S
C458 C461 1.409 . S
C459 H451 0.930 . S
C459 C460 1.355 . S
C459 C461 1.415 . S
C460 C459 1.355 . S
C460 C462 1.419 . S
C461 C456 1.425 . S
C461 C458 1.409 . S
C461 C459 1.415 . S
C462 H452 0.930 . S
C462 C460 1.419 . S
C462 C463 1.362 . S
C463 H453 0.930 . S
C463 C456 1.409 . S
C463 C462 1.362 . S
H464 C470 0.930 . S
H465 C473 0.930 . S
H466 C474 0.930 . S
H467 C475 0.930 . S
H468 C478 0.930 . S
H469 C479 0.930 . S
C470 H464 0.930 . S
C470 C471 1.355 . S
C470 C472 1.415 . S
C471 C470 1.355 . S
C471 C473 1.419 . S
C472 C470 1.415 . S
C472 C477 1.425 . S
C472 C479 1.409 . S
C473 H465 0.930 . S
C473 C471 1.419 . S
C473 C474 1.362 . S
C474 H466 0.930 . S
C474 C473 1.362 . S
C474 C477 1.409 . S
C475 H467 0.930 . S
C475 C476 1.355 . S
C475 C477 1.415 . S
C476 C475 1.355 . S
C476 C478 1.419 . S
C477 C472 1.425 . S
C477 C474 1.409 . S
C477 C475 1.415 . S
C478 H468 0.930 . S
C478 C476 1.419 . S
C478 C479 1.362 . S
C479 H469 0.930 . S
C479 C472 1.409 . S
C479 C478 1.362 . S
H480 C486 0.930 . S
H481 C489 0.930 . S
H482 C490 0.930 . S
H483 C491 0.930 . S
H484 C494 0.930 . S
H485 C495 0.930 . S
C486 H480 0.930 . S
C486 C487 1.355 . S
C486 C488 1.415 . S
C487 C486 1.355 . S
C487 C489 1.419 . S
C488 C486 1.415 . S
C488 C493 1.425 . S
C488 C495 1.409 . S
C489 H481 0.930 . S
C489 C487 1.419 . S
C489 C490 1.362 . S
C490 H482 0.930 . S
C490 C489 1.362 . S
C490 C493 1.409 . S
C491 H483 0.930 . S
C491 C492 1.355 . S
C491 C493 1.415 . S
C492 C491 1.355 . S
C492 C494 1.419 . S
C493 C488 1.425 . S
C493 C490 1.409 . S
C493 C491 1.415 . S
C494 H484 0.930 . S
C494 C492 1.419 . S
C494 C495 1.362 . S
C495 H485 0.930 . S
C495 C488 1.409 . S
C495 C494 1.362 . S
H496 C502 0.930 . S
H497 C505 0.930 . S
H498 C506 0.930 . S
H499 C507 0.930 . S
H500 C510 0.930 . S
H501 C511 0.930 . S
C502 H496 0.930 . S
C502 C503 1.355 . S
C502 C504 1.415 . S
C503 C502 1.355 . S
C503 C505 1.419 . S
C504 C502 1.415 . S
C504 C509 1.425 . S
C504 C511 1.409 . S
C505 H497 0.930 . S
C505 C503 1.419 . S
C505 C506 1.362 . S
C506 H498 0.930 . S
C506 C505 1.362 . S
C506 C509 1.409 . S
C507 H499 0.930 . S
C507 C508 1.355 . S
C507 C509 1.415 . S
C508 C507 1.355 . S
C508 C510 1.419 . S
C509 C504 1.425 . S
C509 C506 1.409 . S
C509 C507 1.415 . S
C510 H500 0.930 . S
C510 C508 1.419 . S
C510 C511 1.362 . S
C511 H501 0.930 . S
C511 C504 1.409 . S
C511 C510 1.362 . S
H512 C518 0.930 . S
H513 C521 0.930 . S
H514 C522 0.930 . S
H515 C523 0.930 . S
H516 C526 0.930 . S
H517 C527 0.930 . S
C518 H512 0.930 . S
C518 C519 1.355 . S
C518 C520 1.415 . S
C519 C518 1.355 . S
C519 C521 1.419 . S
C520 C518 1.415 . S
C520 C525 1.425 . S
C520 C527 1.409 . S
C521 H513 0.930 . S
C521 C519 1.419 . S
C521 C522 1.362 . S
C522 H514 0.930 . S
C522 C521 1.362 . S
C522 C525 1.409 . S
C523 H515 0.930 . S
C523 C524 1.355 . S
C523 C525 1.415 . S
C524 C523 1.355 . S
C524 C526 1.419 . S
C525 C520 1.425 . S
C525 C522 1.409 . S
C525 C523 1.415 . S
C526 H516 0.930 . S
C526 C524 1.419 . S
C526 C527 1.362 . S
C527 H517 0.930 . S
C527 C520 1.409 . S
C527 C526 1.362 . S
H528 C534 0.930 . S
H529 C537 0.930 . S
H530 C538 0.930 . S
H531 C539 0.930 . S
H532 C542 0.930 . S
H533 C543 0.930 . S
C534 H528 0.930 . S
C534 C535 1.355 . S
C534 C536 1.415 . S
C535 C534 1.355 . S
C535 C537 1.419 . S
C536 C534 1.415 . S
C536 C541 1.425 . S
C536 C543 1.409 . S
C537 H529 0.930 . S
C537 C535 1.419 . S
C537 C538 1.362 . S
C538 H530 0.930 . S
C538 C537 1.362 . S
C538 C541 1.409 . S
C539 H531 0.930 . S
C539 C540 1.355 . S
C539 C541 1.415 . S
C540 C539 1.355 . S
C540 C542 1.419 . S
C541 C536 1.425 . S
C541 C538 1.409 . S
C541 C539 1.415 . S
C542 H532 0.930 . S
C542 C540 1.419 . S
C542 C543 1.362 . S
C543 H533 0.930 . S
C543 C536 1.409 . S
C543 C542 1.362 . S
H544 C550 0.930 . S
H545 C553 0.930 . S
H546 C554 0.930 . S
H547 C555 0.930 . S
H548 C558 0.930 . S
H549 C559 0.930 . S
C550 H544 0.930 . S
C550 C551 1.355 . S
C550 C552 1.415 . S
C551 C550 1.355 . S
C551 C553 1.419 . S
C552 C550 1.415 . S
C552 C557 1.425 . S
C552 C559 1.409 . S
C553 H545 0.930 . S
C553 C551 1.419 . S
C553 C554 1.362 . S
C554 H546 0.930 . S
C554 C553 1.362 . S
C554 C557 1.409 . S
C555 H547 0.930 . S
C555 C556 1.355 . S
C555 C557 1.415 . S
C556 C555 1.355 . S
C556 C558 1.419 . S
C557 C552 1.425 . S
C557 C554 1.409 . S
C557 C555 1.415 . S
C558 H548 0.930 . S
C558 C556 1.419 . S
C558 C559 1.362 . S
C559 H549 0.930 . S
C559 C552 1.409 . S
C559 C558 1.362 . S
H560 C566 0.930 . S
H561 C569 0.930 . S
H562 C570 0.930 . S
H563 C571 0.930 . S
H564 C574 0.930 . S
H565 C575 0.930 . S
C566 H560 0.930 . S
C566 C567 1.355 . S
C566 C568 1.415 . S
C567 C566 1.355 . S
C567 C569 1.419 . S
C568 C566 1.415 . S
C568 C573 1.425 . S
C568 C575 1.409 . S
C569 H561 0.930 . S
C569 C567 1.419 . S
C569 C570 1.362 . S
C570 H562 0.930 . S
C570 C569 1.362 . S
C570 C573 1.409 . S
C571 H563 0.930 . S
C571 C572 1.355 . S
C571 C573 1.415 . S
C572 C571 1.355 . S
C572 C574 1.419 . S
C573 C568 1.425 . S
C573 C570 1.409 . S
C573 C571 1.415 . S
C574 H564 0.930 . S
C574 C572 1.419 . S
C574 C575 1.362 . S
C575 H565 0.930 . S
C575 C568 1.409 . S
C575 C574 1.362 . S
H576 C582 0.930 . S
H577 C585 0.930 . S
H578 C586 0.930 . S
H579 C587 0.930 . S
H580 C590 0.930 . S
H581 C591 0.930 . S
C582 H576 0.930 . S
C582 C583 1.355 . S
C582 C584 1.415 . S
C583 C582 1.355 . S
C583 C585 1.419 . S
C584 C582 1.415 . S
C584 C589 1.425 . S
C584 C591 1.409 . S
C585 H577 0.930 . S
C585 C583 1.419 . S
C585 C586 1.362 . S
C586 H578 0.930 . S
C586 C585 1.362 . S
C586 C589 1.409 . S
C587 H579 0.930 . S
C587 C588 1.355 . S
C587 C589 1.415 . S
C588 C587 1.355 . S
C588 C590 1.419 . S
C589 C584 1.425 . S
C589 C586 1.409 . S
C589 C587 1.415 . S
C590 H580 0.930 . S
C590 C588 1.419 . S
C590 C591 1.362 . S
C591 H581 0.930 . S
C591 C584 1.409 . S
C591 C590 1.362 . S
H592 C598 0.930 . S
H593 C601 0.930 . S
H594 C602 0.930 . S
H595 C603 0.930 . S
H596 C606 0.930 . S
H597 C607 0.930 . S
C598 H592 0.930 . S
C598 C599 1.355 . S
C598 C600 1.415 . S
C599 C598 1.355 . S
C599 C601 1.419 . S
C600 C598 1.415 . S
C600 C605 1.425 . S
C600 C607 1.409 . S
C601 H593 0.930 . S
C601 C599 1.419 . S
C601 C602 1.362 . S
C602 H594 0.930 . S
C602 C601 1.362 . S
C602 C605 1.409 . S
C603 H595 0.930 . S
C603 C604 1.355 . S
C603 C605 1.415 . S
C604 C603 1.355 . S
C604 C606 1.419 . S
C605 C600 1.425 . S
C605 C602 1.409 . S
C605 C603 1.415 . S
C606 H596 0.930 . S
C606 C604 1.419 . S
C606 C607 1.362 . S
C607 H597 0.930 . S
C607 C600 1.409 . S
C607 C606 1.362 . S
H608 C614 0.930 . S
H609 C617 0.930 . S
H610 C618 0.930 . S
H611 C619 0.930 . S
H612 C622 0.930 . S
H613 C623 0.930 . S
C614 H608 0.930 . S
C614 C615 1.355 . S
C614 C616 1.415 . S
C615 C614 1.355 . S
C615 C617 1.419 . S
C616 C614 1.415 . S
C616 C621 1.425 . S
C616 C623 1.409 . S
C617 H609 0.930 . S
C617 C615 1.419 . S
C617 C618 1.362 . S
C618 H610 0.930 . S
C618 C617 1.362 . S
C618 C621 1.409 . S
C619 H611 0.930 . S
C619 C620 1.355 . S
C619 C621 1.415 . S
C620 C619 1.355 . S
C620 C622 1.419 . S
C621 C616 1.425 . S
C621 C618 1.409 . S
C621 C619 1.415 . S
C622 H612 0.930 . S
C622 C620 1.419 . S
C622 C623 1.362 . S
C623 H613 0.930 . S
C623 C616 1.409 . S
C623 C622 1.362 . S
H624 C630 0.930 . S
H625 C633 0.930 . S
H626 C634 0.930 . S
H627 C635 0.930 . S
H628 C638 0.930 . S
H629 C639 0.930 . S
C630 H624 0.930 . S
C630 C631 1.355 . S
C630 C632 1.415 . S
C631 C630 1.355 . S
C631 C633 1.419 . S
C632 C630 1.415 . S
C632 C637 1.425 . S
C632 C639 1.409 . S
C633 H625 0.930 . S
C633 C631 1.419 . S
C633 C634 1.362 . S
C634 H626 0.930 . S
C634 C633 1.362 . S
C634 C637 1.409 . S
C635 H627 0.930 . S
C635 C636 1.355 . S
C635 C637 1.415 . S
C636 C635 1.355 . S
C636 C638 1.419 . S
C637 C632 1.425 . S
C637 C634 1.409 . S
C637 C635 1.415 . S
C638 H628 0.930 . S
C638 C636 1.419 . S
C638 C639 1.362 . S
C639 H629 0.930 . S
C639 C632 1.409 . S
C639 C638 1.362 . S
H640 C646 0.930 . S
H641 C649 0.930 . S
H642 C650 0.930 . S
H643 C651 0.930 . S
H644 C654 0.930 . S
H645 C655 0.930 . S
C646 H640 0.930 . S
C646 C647 1.355 . S
C646 C648 1.415 . S
C647 C646 1.355 . S
C647 C649 1.419 . S
C648 C646 1.415 . S
C648 C653 1.425 . S
C648 C655 1.409 . S
C649 H641 0.930 . S
C649 C647 1.419 . S
C649 C650 1.362 . S
C650 H642 0.930 . S
C650 C649 1.362 . S
C650 C653 1.409 . S
C651 H643 0.930 . S
C651 C652 1.355 . S
C651 C653 1.415 . S
C652 C651 1.355 . S
C652 C654 1.419 . S
C653 C648 1.425 . S
C653 C650 1.409 . S
C653 C651 1.415 . S
C654 H644 0.930 . S
C654 C652 1.419 . S
C654 C655 1.362 . S
C655 H645 0.930 . S
C655 C648 1.409 . S
C655 C654 1.362 . S
H656 C662 0.930 . S
H657 C665 0.930 . S
H658 C666 0.930 . S
H659 C667 0.930 . S
H660 C670 0.930 . S
H661 C671 0.930 . S
C662 H656 0.930 . S
C662 C663 1.355 . S
C662 C664 1.415 . S
C663 C662 1.355 . S
C663 C665 1.419 . S
C664 C662 1.415 . S
C664 C669 1.425 . S
C664 C671 1.409 . S
C665 H657 0.930 . S
C665 C663 1.419 . S
C665 C666 1.362 . S
C666 H658 0.930 . S
C666 C665 1.362 . S
C666 C669 1.409 . S
C667 H659 0.930 . S
C667 C668 1.355 . S
C667 C669 1.415 . S
C668 C667 1.355 . S
C668 C670 1.419 . S
C669 C664 1.425 . S
C669 C666 1.409 . S
C669 C667 1.415 . S
C670 H660 0.930 . S
C670 C668 1.419 . S
C670 C671 1.362 . S
C671 H661 0.930 . S
C671 C664 1.409 . S
C671 C670 1.362 . S
H672 C678 0.930 . S
H673 C681 0.930 . S
H674 C682 0.930 . S
H675 C683 0.930 . S
H676 C686 0.930 . S
H677 C687 0.930 . S
C678 H672 0.930 . S
C678 C679 1.355 . S
C678 C680 1.415 . S
C679 C678 1.355 . S
C679 C681 1.419 . S
C680 C678 1.415 . S
C680 C685 1.425 . S
C680 C687 1.409 . S
C681 H673 0.930 . S
C681 C679 1.419 . S
C681 C682 1.362 . S
C682 H674 0.930 . S
C682 C681 1.362 . S
C682 C685 1.409 . S
C683 H675 0.930 . S
C683 C684 1.355 . S
C683 C685 1.415 . S
C684 C683 1.355 . S
C684 C686 1.419 . S
C685 C680 1.425 . S
C685 C682 1.409 . S
C685 C683 1.415 . S
C686 H676 0.930 . S
C686 C684 1.419 . S
C686 C687 1.362 . S
C687 H677 0.930 . S
C687 C680 1.409 . S
C687 C686 1.362 . S
H688 C694 0.930 . S
H689 C697 0.930 . S
H690 C698 0.930 . S
H691 C699 0.930 . S
H692 C702 0.930 . S
H693 C703 0.930 . S
C694 H688 0.930 . S
C694 C695 1.355 . S
C694 C696 1.415 . S
C695 C694 1.355 . S
C695 C697 1.419 . S
C696 C694 1.415 . S
C696 C701 1.425 . S
C696 C703 1.409 . S
C697 H689 0.930 . S
C697 C695 1.419 . S
C697 C698 1.362 . S
C698 H690 0.930 . S
C698 C697 1.362 . S
C698 C701 1.409 . S
C699 H691 0.930 . S
C699 C700 1.355 . S
C699 C701 1.415 . S
C700 C699 1.355 . S
C700 C702 1.419 . S
C701 C696 1.425 . S
C701 C698 1.409 . S
C701 C699 1.415 . S
C702 H692 0.930 . S
C702 C700 1.419 . S
C702 C703 1.362 . S
C703 H693 0.930 . S
C703 C696 1.409 . S
C703 C702 1.362 . S
H704 C710 0.930 . S
H705 C713 0.930 . S
H706 C714 0.930 . S
H707 C715 0.930 . S
H708 C718 0.930 . S
H709 C719 0.930 . S
C710 H704 0.930 . S
C710 C711 1.355 . S
C710 C712 1.415 . S
C711 C710 1.355 . S
C711 C713 1.419 . S
C712 C710 1.415 . S
C712 C717 1.425 . S
C712 C719 1.409 . S
C713 H705 0.930 . S
C713 C711 1.419 . S
C713 C714 1.362 . S
C714 H706 0.930 . S
C714 C713 1.362 . S
C714 C717 1.409 . S
C715 H707 0.930 . S
C715 C716 1.355 . S
C715 C717 1.415 . S
C716 C715 1.355 . S
C716 C718 1.419 . S
C717 C712 1.425 . S
C717 C714 1.409 . S
C717 C715 1.415 . S
C718 H708 0.930 . S
C718 C716 1.419 . S
C718 C719 1.362 . S
C719 H709 0.930 . S
C719 C712 1.409 . S
C719 C718 1.362 . S
H720 C726 0.930 . S
H721 C729 0.930 . S
H722 C730 0.930 . S
H723 C731 0.930 . S
H724 C734 0.930 . S
H725 C735 0.930 . S
C726 H720 0.930 . S
C726 C727 1.355 . S
C726 C728 1.415 . S
C727 C726 1.355 . S
C727 C729 1.419 . S
C728 C726 1.415 . S
C728 C733 1.425 . S
C728 C735 1.409 . S
C729 H721 0.930 . S
C729 C727 1.419 . S
C729 C730 1.362 . S
C730 H722 0.930 . S
C730 C729 1.362 . S
C730 C733 1.409 . S
C731 H723 0.930 . S
C731 C732 1.355 . S
C731 C733 1.415 . S
C732 C731 1.355 . S
C732 C734 1.419 . S
C733 C728 1.425 . S
C733 C730 1.409 . S
C733 C731 1.415 . S
C734 H724 0.930 . S
C734 C732 1.419 . S
C734 C735 1.362 . S
C735 H725 0.930 . S
C735 C728 1.409 . S
C735 C734 1.362 . S
H736 C742 0.930 . S
H737 C745 0.930 . S
H738 C746 0.930 . S
H739 C747 0.930 . S
H740 C750 0.930 . S
H741 C751 0.930 . S
C742 H736 0.930 . S
C742 C743 1.355 . S
C742 C744 1.415 1_554 S
C743 C742 1.355 . S
C743 C745 1.419 . S
C744 C742 1.415 1_556 S
C744 C749 1.425 . S
C744 C751 1.409 . S
C745 H737 0.930 . S
C745 C743 1.419 . S
C745 C746 1.362 . S
C746 H738 0.930 . S
C746 C745 1.362 . S
C746 C749 1.409 1_554 S
C747 H739 0.930 . S
C747 C748 1.355 . S
C747 C749 1.415 . S
C748 C747 1.355 . S
C748 C750 1.419 . S
C749 C744 1.425 . S
C749 C746 1.409 1_556 S
C749 C747 1.415 . S
C750 H740 0.930 . S
C750 C748 1.419 . S
C750 C751 1.362 . S
C751 H741 0.930 . S
C751 C744 1.409 . S
C751 C750 1.362 . S
H752 C758 0.930 . S
H753 C761 0.930 . S
H754 C762 0.930 . S
H755 C763 0.930 . S
H756 C766 0.930 . S
H757 C767 0.930 . S
C758 H752 0.930 . S
C758 C759 1.355 . S
C758 C760 1.415 . S
C759 C758 1.355 . S
C759 C761 1.419 . S
C760 C758 1.415 . S
C760 C765 1.425 . S
C760 C767 1.409 . S
C761 H753 0.930 . S
C761 C759 1.419 . S
C761 C762 1.362 . S
C762 H754 0.930 . S
C762 C761 1.362 . S
C762 C765 1.409 . S
C763 H755 0.930 . S
C763 C764 1.355 . S
C763 C765 1.415 . S
C764 C763 1.355 . S
C764 C766 1.419 . S
C765 C760 1.425 . S
C765 C762 1.409 . S
C765 C763 1.415 . S
C766 H756 0.930 . S
C766 C764 1.419 . S
C766 C767 1.362 . S
C767 H757 0.930 . S
C767 C760 1.409 . S
C767 C766 1.362 . S
H768 C774 0.930 . S
H769 C777 0.930 . S
H770 C778 0.955 . S
H771 C779 0.930 . S
H772 C782 0.930 . S
H773 C783 0.930 . S
C774 H768 0.930 . S
C774 C775 1.355 . S
C774 C776 1.415 . S
C775 C774 1.355 . S
C775 C777 1.419 . S
C776 C774 1.415 . S
C776 C781 1.425 1_554 S
C776 C783 1.409 . S
C777 H769 0.930 . S
C777 C775 1.419 . S
C777 C778 1.329 1_554 S
C778 H770 0.955 . S
C778 C777 1.329 1_556 S
C778 C781 1.418 . S
C779 H771 0.930 . S
C779 C780 1.355 . S
C779 C781 1.415 . S
C780 C779 1.355 . S
C780 C782 1.419 . S
C781 C776 1.425 1_556 S
C781 C778 1.418 . S
C781 C779 1.415 . S
C782 H772 0.930 . S
C782 C780 1.419 . S
C782 C783 1.362 1_556 S
C783 H773 0.930 . S
C783 C776 1.409 . S
C783 C782 1.362 1_554 S
H784 C790 0.930 . S
H785 C793 0.930 . S
H786 C794 0.930 . S
H787 C795 0.930 . S
H788 C798 0.930 . S
H789 C799 0.930 . S
C790 H784 0.930 . S
C790 C791 1.355 . S
C790 C792 1.415 . S
C791 C790 1.355 . S
C791 C793 1.419 . S
C792 C790 1.415 . S
C792 C797 1.425 . S
C792 C799 1.409 . S
C793 H785 0.930 . S
C793 C791 1.419 . S
C793 C794 1.362 . S
C794 H786 0.930 . S
C794 C793 1.362 . S
C794 C797 1.409 . S
C795 H787 0.930 . S
C795 C796 1.355 . S
C795 C797 1.415 . S
C796 C795 1.355 . S
C796 C798 1.419 . S
C797 C792 1.425 . S
C797 C794 1.409 . S
C797 C795 1.415 . S
C798 H788 0.930 . S
C798 C796 1.419 . S
C798 C799 1.362 . S
C799 H789 0.930 . S
C799 C792 1.409 . S
C799 C798 1.362 . S
H800 C806 0.930 . S
H801 C809 0.930 . S
H802 C810 0.930 . S
H803 C811 0.930 . S
H804 C814 0.930 . S
H805 C815 0.930 . S
C806 H800 0.930 . S
C806 C807 1.355 . S
C806 C808 1.415 1_655 S
C807 C806 1.355 . S
C807 C809 1.419 . S
C808 C806 1.415 1_455 S
C808 C813 1.428 . S
C808 C815 1.409 . S
C809 H801 0.930 . S
C809 C807 1.419 . S
C809 C810 1.362 . S
C810 H802 0.930 . S
C810 C809 1.362 . S
C810 C813 1.393 1_655 S
C811 H803 0.930 . S
C811 C812 1.355 . S
C811 C813 1.428 . S
C812 C811 1.355 . S
C812 C814 1.419 . S
C813 C808 1.428 . S
C813 C810 1.393 1_455 S
C813 C811 1.428 . S
C814 H804 0.930 . S
C814 C812 1.419 . S
C814 C815 1.362 . S
C815 H805 0.930 . S
C815 C808 1.409 . S
C815 C814 1.362 . S
H816 C822 0.930 . S
H817 C825 0.930 . S
H818 C826 0.930 . S
H819 C827 0.930 . S
H820 C830 0.930 . S
H821 C831 0.925 1_455 S
C822 H816 0.930 . S
C822 C823 1.355 . S
C822 C824 1.415 . S
C823 C822 1.355 . S
C823 C825 1.419 . S
C824 C822 1.415 . S
C824 C829 1.425 1_455 S
C824 C831 1.407 1_455 S
C825 H817 0.930 . S
C825 C823 1.419 . S
C825 C826 1.362 1_455 S
C826 H818 0.930 . S
C826 C825 1.362 1_655 S
C826 C829 1.409 . S
C827 H819 0.930 . S
C827 C828 1.355 . S
C827 C829 1.415 . S
C828 C827 1.355 . S
C828 C830 1.419 . S
C829 C824 1.425 1_655 S
C829 C826 1.409 . S
C829 C827 1.415 . S
C830 H820 0.930 . S
C830 C828 1.419 . S
C830 C831 1.369 . S
C831 H821 0.925 1_655 S
C831 C824 1.407 1_655 S
C831 C830 1.369 . S
H832 C838 0.930 . S
H833 C841 0.930 . S
H834 C842 0.930 . S
H835 C843 0.930 . S
H836 C846 0.930 . S
H837 C847 0.930 . S
C838 H832 0.930 . S
C838 C839 1.355 . S
C838 C840 1.415 . S
C839 C838 1.355 . S
C839 C841 1.419 . S
C840 C838 1.415 . S
C840 C845 1.425 . S
C840 C847 1.409 . S
C841 H833 0.930 . S
C841 C839 1.419 . S
C841 C842 1.362 . S
C842 H834 0.930 . S
C842 C841 1.362 . S
C842 C845 1.409 . S
C843 H835 0.930 . S
C843 C844 1.355 . S
C843 C845 1.415 . S
C844 C843 1.355 . S
C844 C846 1.419 . S
C845 C840 1.425 . S
C845 C842 1.409 . S
C845 C843 1.415 . S
C846 H836 0.930 . S
C846 C844 1.419 . S
C846 C847 1.362 . S
C847 H837 0.930 . S
C847 C840 1.409 . S
C847 C846 1.362 . S
H848 C854 0.930 . S
H849 C857 0.930 . S
H850 C858 0.930 . S
H851 C859 0.930 . S
H852 C862 0.930 . S
H853 C863 0.930 . S
C854 H848 0.930 . S
C854 C855 1.355 . S
C854 C856 1.415 . S
C855 C854 1.355 . S
C855 C857 1.419 . S
C856 C854 1.415 . S
C856 C861 1.425 . S
C856 C863 1.409 . S
C857 H849 0.930 . S
C857 C855 1.419 . S
C857 C858 1.362 . S
C858 H850 0.930 . S
C858 C857 1.362 . S
C858 C861 1.409 . S
C859 H851 0.930 . S
C859 C860 1.355 . S
C859 C861 1.415 . S
C860 C859 1.355 . S
C860 C862 1.419 . S
C861 C856 1.425 . S
C861 C858 1.409 . S
C861 C859 1.415 . S
C862 H852 0.930 . S
C862 C860 1.419 . S
C862 C863 1.362 . S
C863 H853 0.930 . S
C863 C856 1.409 . S
C863 C862 1.362 . S
H864 C870 0.930 . S
H865 C873 0.930 . S
H866 C874 0.930 . S
H867 C875 0.930 . S
H868 C878 0.930 . S
H869 C879 0.930 1_565 S
C870 H864 0.930 . S
C870 C871 1.355 . S
C870 C872 1.415 . S
C871 C870 1.355 . S
C871 C873 1.419 . S
C872 C870 1.415 . S
C872 C877 1.425 1_565 S
C872 C879 1.409 1_565 S
C873 H865 0.930 . S
C873 C871 1.419 . S
C873 C874 1.362 1_565 S
C874 H866 0.930 . S
C874 C873 1.362 1_545 S
C874 C877 1.409 . S
C875 H867 0.930 . S
C875 C876 1.355 . S
C875 C877 1.415 . S
C876 C875 1.355 . S
C876 C878 1.419 . S
C877 C872 1.425 1_545 S
C877 C874 1.409 . S
C877 C875 1.415 . S
C878 H868 0.930 . S
C878 C876 1.419 . S
C878 C879 1.362 . S
C879 H869 0.930 1_545 S
C879 C872 1.409 1_545 S
C879 C878 1.362 . S
H880 C886 0.930 . S
H881 C889 0.930 . S
H882 C890 0.930 . S
H883 C891 0.930 . S
H884 C894 0.930 . S
H885 C895 0.930 . S
C886 H880 0.930 . S
C886 C887 1.355 . S
C886 C888 1.415 1_545 S
C887 C886 1.355 . S
C887 C889 1.419 . S
C888 C886 1.415 1_565 S
C888 C893 1.425 . S
C888 C895 1.409 . S
C889 H881 0.930 . S
C889 C887 1.419 . S
C889 C890 1.362 . S
C890 H882 0.930 . S
C890 C889 1.362 . S
C890 C893 1.409 1_545 S
C891 H883 0.930 . S
C891 C892 1.355 . S
C891 C893 1.415 . S
C892 C891 1.355 . S
C892 C894 1.419 . S
C893 C888 1.425 . S
C893 C890 1.409 1_565 S
C893 C891 1.415 . S
C894 H884 0.930 . S
C894 C892 1.419 . S
C894 C895 1.362 . S
C895 H885 0.930 . S
C895 C888 1.409 . S
C895 C894 1.362 . S
H896 C902 0.930 . S
H897 C905 0.930 . S
H898 C906 0.930 . S
H899 C907 0.930 . S
H900 C910 0.930 . S
H901 C911 0.930 . S
C902 H896 0.930 . S
C902 C903 1.355 . S
C902 C904 1.415 . S
C903 C902 1.355 . S
C903 C905 1.419 . S
C904 C902 1.415 . S
C904 C909 1.425 . S
C904 C911 1.409 . S
C905 H897 0.930 . S
C905 C903 1.419 . S
C905 C906 1.362 . S
C906 H898 0.930 . S
C906 C905 1.362 . S
C906 C909 1.409 . S
C907 H899 0.930 . S
C907 C908 1.355 . S
C907 C909 1.415 . S
C908 C907 1.355 . S
C908 C910 1.419 . S
C909 C904 1.425 . S
C909 C906 1.409 . S
C909 C907 1.415 . S
C910 H900 0.930 . S
C910 C908 1.419 . S
C910 C911 1.362 . S
C911 H901 0.930 . S
C911 C904 1.409 . S
C911 C910 1.362 . S
H912 C918 0.930 . S
H913 C921 0.930 . S
H914 C922 0.930 . S
H915 C923 0.930 . S
H916 C926 0.930 . S
H917 C927 0.930 . S
C918 H912 0.930 . S
C918 C919 1.355 . S
C918 C920 1.415 . S
C919 C918 1.355 . S
C919 C921 1.419 . S
C920 C918 1.415 . S
C920 C925 1.425 . S
C920 C927 1.409 . S
C921 H913 0.930 . S
C921 C919 1.419 . S
C921 C922 1.362 . S
C922 H914 0.930 . S
C922 C921 1.362 . S
C922 C925 1.409 . S
C923 H915 0.930 . S
C923 C924 1.355 . S
C923 C925 1.415 . S
C924 C923 1.355 . S
C924 C926 1.419 . S
C925 C920 1.425 . S
C925 C922 1.409 . S
C925 C923 1.415 . S
C926 H916 0.930 . S
C926 C924 1.419 . S
C926 C927 1.362 . S
C927 H917 0.930 . S
C927 C920 1.409 . S
C927 C926 1.362 . S
H928 C934 0.930 . S
H929 C937 0.930 . S
H930 C938 0.930 . S
H931 C939 0.930 . S
H932 C942 0.930 . S
H933 C943 0.930 . S
C934 H928 0.930 . S
C934 C935 1.355 . S
C934 C936 1.415 1_556 S
C935 C934 1.355 . S
C935 C937 1.419 . S
C936 C934 1.415 1_554 S
C936 C941 1.425 . S
C936 C943 1.409 . S
C937 H929 0.930 . S
C937 C935 1.419 . S
C937 C938 1.362 . S
C938 H930 0.930 . S
C938 C937 1.362 . S
C938 C941 1.409 1_556 S
C939 H931 0.930 . S
C939 C940 1.355 . S
C939 C941 1.415 . S
C940 C939 1.355 . S
C940 C942 1.419 . S
C941 C936 1.425 . S
C941 C938 1.409 1_554 S
C941 C939 1.415 . S
C942 H932 0.930 . S
C942 C940 1.419 . S
C942 C943 1.362 . S
C943 H933 0.930 . S
C943 C936 1.409 . S
C943 C942 1.362 . S
H944 C950 0.930 . S
H945 C953 0.930 . S
H946 C954 0.930 . S
H947 C955 0.930 . S
H948 C958 0.930 . S
H949 C959 0.930 . S
C950 H944 0.930 . S
C950 C951 1.355 . S
C950 C952 1.415 . S
C951 C950 1.355 . S
C951 C953 1.419 . S
C952 C950 1.415 . S
C952 C957 1.425 . S
C952 C959 1.409 . S
C953 H945 0.930 . S
C953 C951 1.419 . S
C953 C954 1.362 . S
C954 H946 0.930 . S
C954 C953 1.362 . S
C954 C957 1.409 . S
C955 H947 0.930 . S
C955 C956 1.355 . S
C955 C957 1.415 . S
C956 C955 1.355 . S
C956 C958 1.419 . S
C957 C952 1.425 . S
C957 C954 1.409 . S
C957 C955 1.415 . S
C958 H948 0.930 . S
C958 C956 1.419 . S
C958 C959 1.362 . S
C959 H949 0.930 . S
C959 C952 1.409 . S
C959 C958 1.362 . S
H960 C966 0.930 . S
H961 C969 0.930 . S
H962 C970 0.930 . S
H963 C971 0.930 . S
H964 C974 0.930 . S
H965 C975 0.930 . S
C966 H960 0.930 . S
C966 C967 1.355 . S
C966 C968 1.415 1_554 S
C967 C966 1.355 . S
C967 C969 1.419 . S
C968 C966 1.415 1_556 S
C968 C973 1.425 . S
C968 C975 1.409 . S
C969 H961 0.930 . S
C969 C967 1.419 . S
C969 C970 1.362 . S
C970 H962 0.930 . S
C970 C969 1.362 . S
C970 C973 1.409 1_554 S
C971 H963 0.930 . S
C971 C972 1.355 . S
C971 C973 1.415 . S
C972 C971 1.355 . S
C972 C974 1.419 . S
C973 C968 1.425 . S
C973 C970 1.409 1_556 S
C973 C971 1.415 . S
C974 H964 0.930 . S
C974 C972 1.419 . S
C974 C975 1.362 . S
C975 H965 0.930 . S
C975 C968 1.409 . S
C975 C974 1.362 . S
H976 C982 0.930 . S
H977 C985 0.930 . S
H978 C986 0.930 . S
H979 C987 0.930 . S
H980 C990 0.930 . S
H981 C991 0.930 . S
C982 H976 0.930 . S
C982 C983 1.355 . S
C982 C984 1.415 . S
C983 C982 1.355 . S
C983 C985 1.419 . S
C984 C982 1.415 . S
C984 C989 1.425 . S
C984 C991 1.409 . S
C985 H977 0.930 . S
C985 C983 1.419 . S
C985 C986 1.362 . S
C986 H978 0.930 . S
C986 C985 1.362 . S
C986 C989 1.409 . S
C987 H979 0.930 . S
C987 C988 1.355 . S
C987 C989 1.415 . S
C988 C987 1.355 . S
C988 C990 1.419 . S
C989 C984 1.425 . S
C989 C986 1.409 . S
C989 C987 1.415 . S
C990 H980 0.930 . S
C990 C988 1.419 . S
C990 C991 1.362 . S
C991 H981 0.930 . S
C991 C984 1.409 . S
C991 C990 1.362 . S
H992 C998 0.930 . S
H993 C1001 0.930 . S
H994 C1002 0.946 . S
H995 C1003 0.930 . S
H996 C1006 0.930 . S
H997 C1007 0.930 . S
C998 H992 0.930 . S
C998 C999 1.355 . S
C998 C1000 1.415 . S
C999 C998 1.355 . S
C999 C1001 1.419 . S
C1000 C998 1.415 . S
C1000 C1005 1.425 1_655 S
C1000 C1007 1.409 . S
C1001 H993 0.930 . S
C1001 C999 1.419 . S
C1001 C1002 1.342 1_655 S
C1002 H994 0.946 . S
C1002 C1001 1.342 1_455 S
C1002 C1005 1.415 . S
C1003 H995 0.930 . S
C1003 C1004 1.355 . S
C1003 C1005 1.415 . S
C1004 C1003 1.355 . S
C1004 C1006 1.419 . S
C1005 C1000 1.425 1_455 S
C1005 C1002 1.415 . S
C1005 C1003 1.415 . S
C1006 H996 0.930 . S
C1006 C1004 1.419 . S
C1006 C1007 1.362 1_455 S
C1007 H997 0.930 . S
C1007 C1000 1.409 . S
C1007 C1006 1.362 1_655 S
H1008 C1014 0.930 . S
H1009 C1017 0.930 . S
H1010 C1018 0.930 . S
H1011 C1019 0.930 . S
H1012 C1022 0.930 . S
H1013 C1023 0.930 . S
C1014 H1008 0.930 . S
C1014 C1015 1.355 . S
C1014 C1016 1.415 . S
C1015 C1014 1.355 . S
C1015 C1017 1.419 . S
C1016 C1014 1.415 . S
C1016 C1021 1.425 . S
C1016 C1023 1.409 1_455 S
C1017 H1009 0.930 . S
C1017 C1015 1.419 . S
C1017 C1018 1.362 . S
C1018 H1010 0.930 . S
C1018 C1017 1.362 . S
C1018 C1021 1.409 . S
C1019 H1011 0.930 . S
C1019 C1020 1.355 . S
C1019 C1021 1.415 1_655 S
C1020 C1019 1.355 . S
C1020 C1022 1.419 . S
C1021 C1016 1.425 . S
C1021 C1018 1.409 . S
C1021 C1019 1.415 1_455 S
C1022 H1012 0.930 . S
C1022 C1020 1.419 . S
C1022 C1023 1.362 . S
C1023 H1013 0.930 . S
C1023 C1016 1.409 1_655 S
C1023 C1022 1.362 . S
H1024 C1030 0.930 . S
H1025 C1033 0.930 . S
H1026 C1034 0.930 . S
H1027 C1035 0.930 . S
H1028 C1038 0.930 . S
H1029 C1039 0.930 . S
C1030 H1024 0.930 . S
C1030 C1031 1.355 . S
C1030 C1032 1.415 . S
C1031 C1030 1.355 . S
C1031 C1033 1.419 . S
C1032 C1030 1.415 . S
C1032 C1037 1.425 . S
C1032 C1039 1.409 . S
C1033 H1025 0.930 . S
C1033 C1031 1.419 . S
C1033 C1034 1.362 . S
C1034 H1026 0.930 . S
C1034 C1033 1.362 . S
C1034 C1037 1.409 . S
C1035 H1027 0.930 . S
C1035 C1036 1.355 . S
C1035 C1037 1.415 . S
C1036 C1035 1.355 . S
C1036 C1038 1.419 . S
C1037 C1032 1.425 . S
C1037 C1034 1.409 . S
C1037 C1035 1.415 . S
C1038 H1028 0.930 . S
C1038 C1036 1.419 . S
C1038 C1039 1.362 . S
C1039 H1029 0.930 . S
C1039 C1032 1.409 . S
C1039 C1038 1.362 . S
H1040 C1046 0.930 . S
H1041 C1049 0.930 . S
H1042 C1050 0.930 . S
H1043 C1051 0.930 . S
H1044 C1054 0.930 . S
H1045 C1055 0.930 . S
C1046 H1040 0.930 . S
C1046 C1047 1.355 . S
C1046 C1048 1.415 . S
C1047 C1046 1.355 . S
C1047 C1049 1.419 . S
C1048 C1046 1.415 . S
C1048 C1053 1.425 . S
C1048 C1055 1.409 . S
C1049 H1041 0.930 . S
C1049 C1047 1.419 . S
C1049 C1050 1.362 . S
C1050 H1042 0.930 . S
C1050 C1049 1.362 . S
C1050 C1053 1.409 . S
C1051 H1043 0.930 . S
C1051 C1052 1.355 . S
C1051 C1053 1.415 . S
C1052 C1051 1.355 . S
C1052 C1054 1.419 . S
C1053 C1048 1.425 . S
C1053 C1050 1.409 . S
C1053 C1051 1.415 . S
C1054 H1044 0.930 . S
C1054 C1052 1.419 . S
C1054 C1055 1.362 . S
C1055 H1045 0.930 . S
C1055 C1048 1.409 . S
C1055 C1054 1.362 . S
H1056 C1062 0.930 . S
H1057 C1065 0.930 . S
H1058 C1066 0.930 . S
H1059 C1067 0.930 . S
H1060 C1070 0.930 . S
H1061 C1071 0.930 . S
C1062 H1056 0.930 . S
C1062 C1063 1.355 . S
C1062 C1064 1.445 . S
C1063 C1062 1.355 . S
C1063 C1065 1.419 . S
C1064 C1062 1.445 . S
C1064 C1069 1.430 . S
C1064 C1071 1.375 1_565 S
C1065 H1057 0.930 . S
C1065 C1063 1.419 . S
C1065 C1066 1.362 . S
C1066 H1058 0.930 . S
C1066 C1065 1.362 . S
C1066 C1069 1.409 . S
C1067 H1059 0.930 . S
C1067 C1068 1.355 . S
C1067 C1069 1.415 1_545 S
C1068 C1067 1.355 . S
C1068 C1070 1.419 . S
C1069 C1064 1.430 . S
C1069 C1066 1.409 . S
C1069 C1067 1.415 1_565 S
C1070 H1060 0.930 . S
C1070 C1068 1.419 . S
C1070 C1071 1.362 . S
C1071 H1061 0.930 . S
C1071 C1064 1.375 1_545 S
C1071 C1070 1.362 . S
H1072 C1078 0.930 . S
H1073 C1081 0.930 . S
H1074 C1082 0.930 . S
H1075 C1083 0.930 . S
H1076 C1086 0.930 . S
H1077 C1087 0.951 . S
C1078 H1072 0.930 . S
C1078 C1079 1.355 . S
C1078 C1080 1.415 . S
C1079 C1078 1.355 . S
C1079 C1081 1.419 . S
C1080 C1078 1.415 . S
C1080 C1085 1.425 1_565 S
C1080 C1087 1.416 . S
C1081 H1073 0.930 . S
C1081 C1079 1.419 . S
C1081 C1082 1.362 1_565 S
C1082 H1074 0.930 . S
C1082 C1081 1.362 1_545 S
C1082 C1085 1.409 . S
C1083 H1075 0.930 . S
C1083 C1084 1.355 . S
C1083 C1085 1.415 . S
C1084 C1083 1.355 . S
C1084 C1086 1.419 . S
C1085 C1080 1.425 1_545 S
C1085 C1082 1.409 . S
C1085 C1083 1.415 . S
C1086 H1076 0.930 . S
C1086 C1084 1.419 . S
C1086 C1087 1.335 1_545 S
C1087 H1077 0.951 . S
C1087 C1080 1.416 . S
C1087 C1086 1.335 1_565 S
H1088 C1094 0.930 . S
H1089 C1097 0.930 . S
H1090 C1098 0.930 . S
H1091 C1099 0.930 . S
H1092 C1102 0.930 . S
H1093 C1103 0.930 . S
C1094 H1088 0.930 . S
C1094 C1095 1.355 . S
C1094 C1096 1.415 . S
C1095 C1094 1.355 . S
C1095 C1097 1.419 . S
C1096 C1094 1.415 . S
C1096 C1101 1.425 . S
C1096 C1103 1.409 . S
C1097 H1089 0.930 . S
C1097 C1095 1.419 . S
C1097 C1098 1.362 . S
C1098 H1090 0.930 . S
C1098 C1097 1.362 . S
C1098 C1101 1.409 . S
C1099 H1091 0.930 . S
C1099 C1100 1.355 . S
C1099 C1101 1.415 . S
C1100 C1099 1.355 . S
C1100 C1102 1.419 . S
C1101 C1096 1.425 . S
C1101 C1098 1.409 . S
C1101 C1099 1.415 . S
C1102 H1092 0.930 . S
C1102 C1100 1.419 . S
C1102 C1103 1.362 . S
C1103 H1093 0.930 . S
C1103 C1096 1.409 . S
C1103 C1102 1.362 . S
C343 C121 1.320 . S
C348 C8 1.282 . S
C359 C22 1.223 . S
C364 C163 1.280 . S
C375 C36 1.299 . S
C380 C135 1.310 . S
C391 C50 1.246 . S
C396 C149 1.283 . S
C407 C64 1.265 . S
C412 C9 1.318 . S
C423 C23 1.296 . S
C428 C78 1.282 . S
C439 C92 1.267 . S
C444 C37 1.318 . S
C455 C51 1.294 . S
C460 C106 1.279 . S
C471 C65 1.295 . S
C476 C120 1.215 . S
C487 C93 1.301 . S
C492 C134 1.223 . S
C503 C148 1.226 . S
C508 C107 1.280 . S
C519 C79 1.310 . S
C524 C162 1.241 . S
C535 C289 1.281 . S
C540 C176 1.237 . S
C551 C190 1.224 . S
C556 C331 1.302 . S
C567 C204 1.219 . S
C572 C303 1.299 . S
C583 C317 1.311 . S
C588 C218 1.300 . S
C599 C232 1.226 . S
C604 C177 1.280 . S
C615 C191 1.281 . S
C620 C246 1.238 . S
C631 C205 1.308 . S
C636 C260 1.298 . S
C647 C274 1.237 . S
C652 C219 1.308 . S
C663 C288 1.286 . S
C668 C233 1.298 . S
C679 C261 1.311 . S
C684 C302 1.243 . S
C695 C275 1.303 . S
C700 C316 1.226 . S
C711 C330 1.286 . S
C716 C247 1.298 . S
C727 C314 1.522 . S
C732 C7 1.536 . S
C743 C300 1.475 . S
C748 C21 1.560 . S
C759 C328 1.469 . S
C764 C35 1.556 . S
C775 C49 1.568 . S
C780 C286 1.526 . S
C791 C63 1.526 . S
C796 C188 1.463 . S
C807 C174 1.458 . S
C812 C77 1.543 . S
C823 C216 1.535 . S
C828 C91 1.562 . S
C839 C202 1.462 . S
C844 C105 1.549 . S
C855 C119 1.548 . S
C860 C258 1.533 . S
C871 C230 1.521 . S
C876 C133 1.536 . S
C887 C244 1.465 . S
C892 C147 1.553 . S
C903 C272 1.466 . S
C908 C161 1.525 . S
C919 C146 1.507 . S
C924 C175 1.570 . S
C935 C132 1.461 . S
C940 C189 1.549 . S
C951 C203 1.529 . S
C956 C160 1.459 . S
C967 C118 1.494 . S
C972 C217 1.524 . S
C983 C231 1.567 . S
C988 C20 1.492 . S
C999 C245 1.560 . S
C1004 C6 1.536 . S
C1015 C259 1.531 . S
C1020 C48 1.457 . S
C1031 C273 1.555 . S
C1036 C34 1.536 . S
C1047 C287 1.556 . S
C1052 C90 1.536 . S
C1063 C301 1.533 . S
C1068 C62 1.457 . S
C1079 C76 1.535 . S
C1084 C315 1.561 . S
C1095 C329 1.568 . S
C1100 C104 1.527 . S
