# Generated by pormake.
# Topology uoz, (4)-cn, num edge types: 1
# Building blocks:
#     Node 0, Type 0, BuildingBlock: ICAMEG_clean_sbu_1, # of connection points: 4
#     Node 1, Type 0, BuildingBlock: ICAMEG_clean_sbu_1, # of connection points: 4
#     Node 2, Type 0, BuildingBlock: ICAMEG_clean_sbu_1, # of connection points: 4
#     Node 3, Type 0, BuildingBlock: ICAMEG_clean_sbu_1, # of connection points: 4
#     Node 4, Type 0, BuildingBlock: ICAMEG_clean_sbu_1, # of connection points: 4
#     Node 5, Type 0, BuildingBlock: ICAMEG_clean_sbu_1, # of connection points: 4
#     Node 6, Type 0, BuildingBlock: ICAMEG_clean_sbu_1, # of connection points: 4
#     Node 7, Type 0, BuildingBlock: ICAMEG_clean_sbu_1, # of connection points: 4
#     Node 8, Type 0, BuildingBlock: ICAMEG_clean_sbu_1, # of connection points: 4
#     Node 9, Type 0, BuildingBlock: ICAMEG_clean_sbu_1, # of connection points: 4
#     Node 10, Type 0, BuildingBlock: ICAMEG_clean_sbu_1, # of connection points: 4
#     Node 11, Type 0, BuildingBlock: ICAMEG_clean_sbu_1, # of connection points: 4
#     Node 12, Type 0, BuildingBlock: ICAMEG_clean_sbu_1, # of connection points: 4
#     Node 13, Type 0, BuildingBlock: ICAMEG_clean_sbu_1, # of connection points: 4
#     Node 14, Type 0, BuildingBlock: ICAMEG_clean_sbu_1, # of connection points: 4
#     Node 15, Type 0, BuildingBlock: ICAMEG_clean_sbu_1, # of connection points: 4
#     Edge 16, Type (0, 0), BuildingBlock: CIFDUS_clean_linker_0, # of connection points: 2
#     Edge 17, Type (0, 0), BuildingBlock: CIFDUS_clean_linker_0, # of connection points: 2
#     Edge 18, Type (0, 0), BuildingBlock: CIFDUS_clean_linker_0, # of connection points: 2
#     Edge 19, Type (0, 0), BuildingBlock: CIFDUS_clean_linker_0, # of connection points: 2
#     Edge 20, Type (0, 0), BuildingBlock: CIFDUS_clean_linker_0, # of connection points: 2
#     Edge 21, Type (0, 0), BuildingBlock: CIFDUS_clean_linker_0, # of connection points: 2
#     Edge 22, Type (0, 0), BuildingBlock: CIFDUS_clean_linker_0, # of connection points: 2
#     Edge 23, Type (0, 0), BuildingBlock: CIFDUS_clean_linker_0, # of connection points: 2
#     Edge 24, Type (0, 0), BuildingBlock: CIFDUS_clean_linker_0, # of connection points: 2
#     Edge 25, Type (0, 0), BuildingBlock: CIFDUS_clean_linker_0, # of connection points: 2
#     Edge 26, Type (0, 0), BuildingBlock: CIFDUS_clean_linker_0, # of connection points: 2
#     Edge 27, Type (0, 0), BuildingBlock: CIFDUS_clean_linker_0, # of connection points: 2
#     Edge 28, Type (0, 0), BuildingBlock: CIFDUS_clean_linker_0, # of connection points: 2
#     Edge 29, Type (0, 0), BuildingBlock: CIFDUS_clean_linker_0, # of connection points: 2
#     Edge 30, Type (0, 0), BuildingBlock: CIFDUS_clean_linker_0, # of connection points: 2
#     Edge 31, Type (0, 0), BuildingBlock: CIFDUS_clean_linker_0, # of connection points: 2
#     Edge 32, Type (0, 0), BuildingBlock: CIFDUS_clean_linker_0, # of connection points: 2
#     Edge 33, Type (0, 0), BuildingBlock: CIFDUS_clean_linker_0, # of connection points: 2
#     Edge 34, Type (0, 0), BuildingBlock: CIFDUS_clean_linker_0, # of connection points: 2
#     Edge 35, Type (0, 0), BuildingBlock: CIFDUS_clean_linker_0, # of connection points: 2
#     Edge 36, Type (0, 0), BuildingBlock: CIFDUS_clean_linker_0, # of connection points: 2
#     Edge 37, Type (0, 0), BuildingBlock: CIFDUS_clean_linker_0, # of connection points: 2
#     Edge 38, Type (0, 0), BuildingBlock: CIFDUS_clean_linker_0, # of connection points: 2
#     Edge 39, Type (0, 0), BuildingBlock: CIFDUS_clean_linker_0, # of connection points: 2
#     Edge 40, Type (0, 0), BuildingBlock: CIFDUS_clean_linker_0, # of connection points: 2
#     Edge 41, Type (0, 0), BuildingBlock: CIFDUS_clean_linker_0, # of connection points: 2
#     Edge 42, Type (0, 0), BuildingBlock: CIFDUS_clean_linker_0, # of connection points: 2
#     Edge 43, Type (0, 0), BuildingBlock: CIFDUS_clean_linker_0, # of connection points: 2
#     Edge 44, Type (0, 0), BuildingBlock: CIFDUS_clean_linker_0, # of connection points: 2
#     Edge 45, Type (0, 0), BuildingBlock: CIFDUS_clean_linker_0, # of connection points: 2
#     Edge 46, Type (0, 0), BuildingBlock: CIFDUS_clean_linker_0, # of connection points: 2
#     Edge 47, Type (0, 0), BuildingBlock: CIFDUS_clean_linker_0, # of connection points: 2
# Relax obj value: 0.291
# Max RMSD: 0.240
# Mean RMSD: 0.240
data_MOF--net-uoz--node1-ICAMEG_clean_sbu_1--edge1-CIFDUS_clean_linker_0
_symmetry_space_group_name_H-M    P1
_symmetry_Int_Tables_number       1
_symmetry_cell_setting            triclinic
loop_
_symmetry_equiv_pos_as_xyz
'x, y, z'
_cell_length_a     54.768691
_cell_length_b     54.79113
_cell_length_c     20.609377
_cell_angle_alpha  90.057262
_cell_angle_beta   90.136077
_cell_angle_gamma 90.028563
loop_
_atom_site_label
_atom_site_type_symbol
_atom_site_fract_x
_atom_site_fract_y
_atom_site_fract_z
_atom_type_partial_charge
Co0 Co 1.00817 0.59139 0.17871 0.0
Co1 Co 0.00944 0.60295 0.34396 0.0
O2 O 1.00542 0.58047 0.26971 0.0
C3 C 0.96306 0.56003 0.17678 0.0
O4 O 0.95729 0.56618 0.2363 0.0
C5 C 0.03087 0.55347 0.38961 0.0
O6 O 0.03059 0.54569 0.32941 0.0
O7 O 0.04217 0.6146 0.30855 0.0
O8 O 0.03426 0.61506 0.20182 0.0
H9 H 0.02973 0.68382 0.44562 0.0
H10 H 0.01084 0.53828 0.205 0.0
O11 O 0.98227 0.5682 0.15016 0.0
H12 H 0.08877 0.55874 0.09886 0.0
H13 H 0.01123 0.57973 0.93625 0.0
H14 H 0.01302 0.63966 0.11486 0.0
H15 H 0.05809 0.59063 0.1199 0.0
H16 H 1.00837 0.56617 0.04995 0.0
O17 O 0.02556 0.57597 0.40105 0.0
H18 H 0.02373 0.65487 0.35527 0.0
H19 H 1.00434 0.59899 0.48835 0.0
H20 H 0.01615 0.65397 1.00182 0.0
H21 H 0.04083 0.5057 0.18382 0.0
H22 H 0.01526 0.62391 0.91155 0.0
H23 H 0.08013 0.51584 0.1303 0.0
O24 O 0.983 0.61682 0.19329 0.0
H25 H 0.94406 0.54162 0.39965 0.0
H26 H 0.96633 0.62873 0.39918 0.0
H27 H 0.92597 0.61631 0.43983 0.0
H28 H 0.91465 0.57241 0.44079 0.0
H29 H 0.98387 0.55489 0.35788 0.0
H30 H 0.01039 0.62726 0.58007 0.0
H31 H 0.02307 0.67005 0.559 0.0
O32 O 0.99185 0.63008 0.29385 0.0
C33 C 0.04731 0.62123 0.25022 0.0
C34 C 0.02417 0.66523 0.45542 0.0
C35 C 0.01337 0.63347 0.53089 0.0
N36 N 0.01366 0.62527 0.41639 0.0
C37 C 0.0207 0.64876 0.40444 0.0
C38 C 0.01009 0.61751 0.4787 0.0
C39 C 0.02045 0.65748 0.51903 0.0
C40 C 0.02788 0.54285 0.18165 0.0
N41 N 0.03272 0.5664 0.16407 0.0
C42 C 0.04482 0.52432 0.1699 0.0
C43 C 0.06687 0.53003 0.13995 0.0
C44 C 0.07174 0.5541 0.12238 0.0
C45 C 0.05436 0.57214 0.13491 0.0
C46 C 0.01168 0.593 0.97516 0.0
C47 C 0.01274 0.62644 0.0759 0.0
C48 C 0.01001 0.58544 0.03969 0.0
N49 N 0.01069 0.6021 0.08915 0.0
C50 C 0.01447 0.63467 0.01196 0.0
C51 C 0.01395 0.61779 0.96134 0.0
C52 C 0.98062 0.63222 0.2392 0.0
C53 C 0.94885 0.56079 0.4 0.0
C54 C 0.96153 0.60964 0.39887 0.0
C55 C 0.93865 0.60269 0.42226 0.0
C56 C 0.93232 0.57807 0.42287 0.0
N57 N 0.97777 0.59259 0.37689 0.0
C58 C 0.97156 0.56843 0.37694 0.0
Co59 Co 0.67913 0.75922 0.43096 0.0
Co60 Co 0.66757 0.76052 0.59614 0.0
O61 O 0.69004 0.75658 0.52208 0.0
C62 C 0.70964 0.71367 0.4291 0.0
O63 O 0.70255 0.70741 0.48749 0.0
C64 C 0.71732 0.78137 0.64294 0.0
O65 O 0.72532 0.78076 0.58302 0.0
O66 O 0.65574 0.7932 0.56014 0.0
O67 O 0.65535 0.78522 0.45344 0.0
H68 H 0.58664 0.78068 0.69692 0.0
H69 H 0.73224 0.76204 0.45769 0.0
O70 O 0.70239 0.73337 0.40312 0.0
H71 H 0.71163 0.83982 0.3507 0.0
H72 H 0.69094 0.76193 0.18862 0.0
H73 H 0.63086 0.76393 0.36639 0.0
H74 H 0.67977 0.80908 0.37178 0.0
H75 H 0.70443 0.75929 0.30255 0.0
O76 O 0.69461 0.77665 0.65359 0.0
H77 H 0.61559 0.77465 0.60689 0.0
H78 H 0.67154 0.75557 0.74067 0.0
H79 H 0.61661 0.76683 0.25313 0.0
H80 H 0.76477 0.79211 0.43655 0.0
H81 H 0.64675 0.76584 0.16327 0.0
H82 H 0.75456 0.83132 0.38257 0.0
O83 O 0.65373 0.73401 0.44555 0.0
H84 H 0.72886 0.69489 0.65071 0.0
H85 H 0.64186 0.71762 0.65264 0.0
H86 H 0.65426 0.67727 0.69345 0.0
H87 H 0.6981 0.66572 0.69323 0.0
H88 H 0.7156 0.73468 0.60885 0.0
H89 H 0.64326 0.76166 0.83208 0.0
H90 H 0.60043 0.7742 0.8105 0.0
O91 O 0.64045 0.74281 0.54601 0.0
C92 C 0.64903 0.79823 0.50164 0.0
C93 C 0.60524 0.77519 0.70695 0.0
C94 C 0.63704 0.76456 0.7828 0.0
N95 N 0.64523 0.76474 0.66837 0.0
C96 C 0.62171 0.77169 0.65615 0.0
C97 C 0.65301 0.76127 0.73079 0.0
C98 C 0.613 0.77157 0.77066 0.0
C99 C 0.72763 0.77906 0.43421 0.0
N100 N 0.70407 0.78382 0.41635 0.0
C101 C 0.74614 0.79603 0.42244 0.0
C102 C 0.74039 0.81804 0.39223 0.0
C103 C 0.7163 0.82283 0.37442 0.0
C104 C 0.69828 0.80542 0.38695 0.0
C105 C 0.67763 0.76242 0.22735 0.0
C106 C 0.64411 0.7636 0.32762 0.0
C107 C 0.68515 0.76088 0.29201 0.0
N108 N 0.66846 0.7616 0.34124 0.0
C109 C 0.63592 0.7652 0.26355 0.0
C110 C 0.65284 0.76462 0.21316 0.0
C111 C 0.63835 0.73156 0.49141 0.0
C112 C 0.70972 0.69979 0.65165 0.0
C113 C 0.66093 0.71274 0.65192 0.0
C114 C 0.66787 0.68986 0.67536 0.0
C115 C 0.69246 0.6834 0.67529 0.0
N116 N 0.67796 0.72888 0.62931 0.0
C117 C 0.70209 0.72251 0.62857 0.0
Co118 Co 0.50742 0.42234 0.68807 0.0
Co119 Co 0.50523 0.40769 0.85161 0.0
O120 O 0.51053 0.43108 0.78052 0.0
C121 C 0.55359 0.43858 0.62955 0.0
O122 O 0.55674 0.41575 0.61195 0.0
C123 C 0.48778 0.45778 0.90762 0.0
O124 O 0.49163 0.46884 0.85213 0.0
O125 O 0.47234 0.39769 0.81279 0.0
O126 O 0.47949 0.40016 0.70584 0.0
H127 H 0.48062 0.3263 0.94242 0.0
H128 H 0.5091 0.47483 0.72236 0.0
O129 O 0.53577 0.44425 0.66666 0.0
H130 H 0.42929 0.46279 0.6158 0.0
H131 H 0.50388 0.44003 0.44797 0.0
H132 H 0.50064 0.37599 0.6157 0.0
H133 H 0.45758 0.42825 0.63021 0.0
H134 H 0.50749 0.4507 0.56378 0.0
O135 O 0.48963 0.4343 0.91069 0.0
H136 H 0.48874 0.35628 0.85595 0.0
H137 H 0.50952 0.40909 0.99663 0.0
H138 H 0.49685 0.36454 0.5004 0.0
H139 H 0.4815 0.50998 0.70802 0.0
H140 H 0.4985 0.39667 0.41559 0.0
H141 H 0.44127 0.50407 0.65438 0.0
O142 O 0.53023 0.39456 0.69995 0.0
H143 H 0.5746 0.46471 0.90889 0.0
H144 H 0.54603 0.37948 0.9112 0.0
H145 H 0.58674 0.3893 0.95447 0.0
H146 H 0.60125 0.43225 0.95415 0.0
H147 H 0.53435 0.45406 0.865 0.0
H148 H 0.5013 0.37981 0.08461 0.0
H149 H 0.48686 0.33802 0.05773 0.0
O150 O 0.52226 0.38081 0.80024 0.0
C151 C 0.46662 0.39293 0.75337 0.0
C152 C 0.48692 0.34445 0.95475 0.0
C153 C 0.49846 0.3745 0.03456 0.0
N154 N 0.49955 0.38445 0.92113 0.0
C155 C 0.49159 0.36149 0.90599 0.0
C156 C 0.50292 0.39107 0.98452 0.0
C157 C 0.49039 0.35105 0.01944 0.0
C158 C 0.49166 0.47212 0.69876 0.0
N159 N 0.48499 0.44949 0.67719 0.0
C160 C 0.47608 0.49208 0.69092 0.0
C161 C 0.4535 0.48875 0.66091 0.0
C162 C 0.44676 0.46559 0.63932 0.0
C163 C 0.4628 0.44605 0.64801 0.0
C164 C 0.5031 0.42586 0.48445 0.0
C165 C 0.50133 0.3901 0.57912 0.0
C166 C 0.50512 0.43179 0.55015 0.0
N167 N 0.50427 0.41398 0.5966 0.0
C168 C 0.49918 0.3835 0.51389 0.0
C169 C 0.5001 0.40153 0.46633 0.0
C170 C 0.53287 0.37889 0.74496 0.0
C171 C 0.56836 0.44596 0.91011 0.0
C172 C 0.55206 0.39822 0.91089 0.0
C173 C 0.57521 0.40367 0.93552 0.0
C174 C 0.58334 0.42775 0.93531 0.0
N175 N 0.53719 0.41622 0.88728 0.0
C176 C 0.54533 0.43981 0.88583 0.0
Co177 Co 0.8439 0.26328 0.93394 0.0
Co178 Co 0.85865 0.2618 0.0972 0.0
O179 O 0.83505 0.26641 0.02618 0.0
C180 C 0.8254 0.30842 0.87388 0.0
O181 O 0.84792 0.31243 0.85488 0.0
C182 C 0.80915 0.24291 0.15341 0.0
O183 O 0.79791 0.24624 0.09782 0.0
O184 O 0.86881 0.22898 0.0597 0.0
O185 O 0.86721 0.23632 0.95271 0.0
H186 H 0.94059 0.23883 0.18848 0.0
H187 H 0.79135 0.26289 0.96784 0.0
O188 O 0.8208 0.29056 0.91186 0.0
H189 H 0.80668 0.18325 0.86408 0.0
H190 H 0.82623 0.25803 0.69389 0.0
H191 H 0.89047 0.25814 0.86196 0.0
H192 H 0.84004 0.21304 0.87768 0.0
H193 H 0.81548 0.2617 0.80954 0.0
O194 O 0.8325 0.24595 0.15682 0.0
H195 H 0.9103 0.24601 0.10186 0.0
H196 H 0.85749 0.26684 0.24197 0.0
H197 H 0.902 0.25435 0.74685 0.0
H198 H 0.75737 0.23377 0.95424 0.0
H199 H 0.86977 0.25431 0.66186 0.0
H200 H 0.76494 0.19361 0.90204 0.0
O201 O 0.87084 0.28723 0.94523 0.0
H202 H 0.80053 0.33 0.15438 0.0
H203 H 0.88646 0.30354 0.15359 0.0
H204 H 0.87604 0.34426 0.19549 0.0
H205 H 0.83274 0.35771 0.19667 0.0
H206 H 0.81179 0.28972 0.11184 0.0
H207 H 0.8871 0.25958 0.3301 0.0
H208 H 0.92904 0.24559 0.30358 0.0
O209 O 0.88523 0.27882 0.04478 0.0
C210 C 0.87418 0.22347 1.00068 0.0
C211 C 0.92238 0.24495 0.20065 0.0
C212 C 0.89234 0.25654 0.28014 0.0
N213 N 0.88213 0.25681 0.16674 0.0
C214 C 0.90516 0.24909 0.1518 0.0
C215 C 0.8756 0.26046 0.23002 0.0
C216 C 0.91588 0.24872 0.26522 0.0
C217 C 0.79478 0.24549 0.94483 0.0
N218 N 0.81767 0.23971 0.92362 0.0
C219 C 0.77547 0.22905 0.93742 0.0
C220 C 0.77974 0.20651 0.90821 0.0
C221 C 0.80316 0.20068 0.88698 0.0
C222 C 0.82202 0.21758 0.8952 0.0
C223 C 0.84045 0.258 0.73046 0.0
C224 C 0.87632 0.25811 0.82532 0.0
C225 C 0.83448 0.26006 0.79607 0.0
N226 N 0.85233 0.26014 0.84261 0.0
C227 C 0.88297 0.25596 0.76018 0.0
C228 C 0.86487 0.25593 0.71253 0.0
C229 C 0.88685 0.28964 0.98969 0.0
C230 C 0.81944 0.32425 0.15483 0.0
C231 C 0.86758 0.30914 0.15385 0.0
C232 C 0.86179 0.33228 0.17773 0.0
C233 C 0.83751 0.33981 0.17838 0.0
N234 N 0.84974 0.29373 0.13177 0.0
C235 C 0.82594 0.30124 0.13128 0.0
Co236 Co 0.01409 0.42873 0.92589 0.0
Co237 Co 0.01382 0.41733 0.76075 0.0
O238 O 0.01065 0.43973 0.83525 0.0
C239 C 0.96801 0.458 0.93095 0.0
O240 O 0.96084 0.44946 0.87456 0.0
C241 C 0.03418 0.46705 0.7138 0.0
O242 O 0.03435 0.4749 0.77394 0.0
O243 O 0.04689 0.40564 0.79448 0.0
O244 O 0.03981 0.40484 0.90158 0.0
H245 H 0.03312 0.33658 0.65743 0.0
H246 H 0.01688 0.48187 0.90044 0.0
O247 O 0.98852 0.45208 0.95506 0.0
H248 H 0.09574 0.46056 1.00135 0.0
H249 H 0.01887 0.44041 0.16814 0.0
H250 H 0.01901 0.38042 0.9896 0.0
H251 H 0.06455 0.42894 0.98175 0.0
H252 H 0.0154 0.45396 0.05449 0.0
O253 O 0.02927 0.44441 0.70285 0.0
H254 H 0.02802 0.36544 0.74827 0.0
H255 H 1.00729 0.42141 0.61668 0.0
H256 H 0.02273 0.36611 0.10255 0.0
H257 H 0.04741 0.51416 0.92014 0.0
H258 H 0.02267 0.3962 0.19279 0.0
H259 H 0.08717 0.50359 0.97102 0.0
O260 O 0.98866 0.40352 0.91229 0.0
H261 H 0.9474 0.47851 0.71254 0.0
H262 H 0.97036 0.39163 0.7065 0.0
H263 H 0.9295 0.40401 0.66905 0.0
H264 H 0.91782 0.44779 0.67138 0.0
H265 H 0.98774 0.46529 0.75095 0.0
H266 H 0.01243 0.39323 0.52447 0.0
H267 H 0.02532 0.35043 0.54455 0.0
O268 O 0.99672 0.39016 0.81149 0.0
C269 C 0.05244 0.39874 0.85246 0.0
C270 C 0.02746 0.35517 0.64806 0.0
C271 C 0.0159 0.38698 0.57343 0.0
N272 N 0.01733 0.39508 0.68793 0.0
C273 C 0.02449 0.37159 0.69932 0.0
C274 C 0.01315 0.4029 0.62588 0.0
C275 C 0.02311 0.36296 0.58473 0.0
C276 C 0.03413 0.47712 0.92262 0.0
N277 N 0.03895 0.45351 0.93957 0.0
C278 C 0.05136 0.49548 0.93357 0.0
C279 C 0.07368 0.48953 0.96204 0.0
C280 C 0.07851 0.46539 0.97899 0.0
C281 C 0.06084 0.44752 0.96732 0.0
C282 C 0.01897 0.42712 0.12924 0.0
C283 C 0.01911 0.39365 0.02854 0.0
C284 C 0.01696 0.43468 0.06475 0.0
N285 N 0.01718 0.41801 0.01531 0.0
C286 C 0.02116 0.38543 0.09243 0.0
C287 C 0.02111 0.40232 0.14304 0.0
C288 C 0.98584 0.38813 0.86649 0.0
C289 C 0.95235 0.4594 0.71068 0.0
C290 C 0.96544 0.41068 0.70805 0.0
C291 C 0.94227 0.4176 0.68654 0.0
C292 C 0.93573 0.44216 0.6878 0.0
N293 N 0.9818 0.42769 0.7299 0.0
C294 C 0.97537 0.45179 0.73181 0.0
Co295 Co 0.8417 0.76088 0.18161 0.0
Co296 Co 0.85331 0.7617 0.01658 0.0
O297 O 0.8308 0.75798 0.09058 0.0
C298 C 0.81172 0.71505 0.18441 0.0
O299 O 0.81948 0.70838 0.12691 0.0
C300 C 0.80354 0.78221 0.96917 0.0
O301 O 0.79553 0.78183 0.02908 0.0
O302 O 0.86504 0.79456 0.05197 0.0
O303 O 0.86556 0.78681 0.15875 0.0
H304 H 0.93427 0.78168 0.91573 0.0
H305 H 0.78862 0.76369 0.15481 0.0
O306 O 0.81837 0.73513 0.20967 0.0
H307 H 0.80942 0.84177 0.2605 0.0
H308 H 0.82986 0.7643 0.42387 0.0
H309 H 0.88998 0.7655 0.24615 0.0
H310 H 0.84119 0.8109 0.24007 0.0
H311 H 0.81638 0.7614 0.30996 0.0
O312 O 0.82626 0.77753 0.95867 0.0
H313 H 0.90526 0.77593 1.00576 0.0
H314 H 0.84944 0.75618 0.87214 0.0
H315 H 0.90423 0.76866 0.3594 0.0
H316 H 0.75616 0.7939 0.1753 0.0
H317 H 0.87407 0.76807 0.44923 0.0
H318 H 0.76648 0.83326 0.22861 0.0
O319 O 0.86699 0.73555 0.16745 0.0
H320 H 0.79216 0.69564 0.96377 0.0
H321 H 0.8791 0.71864 0.96092 0.0
H322 H 0.86677 0.6781 0.92112 0.0
H323 H 0.82295 0.6664 0.92181 0.0
H324 H 0.80534 0.73564 1.00458 0.0
H325 H 0.87777 0.76199 0.78073 0.0
H326 H 0.92056 0.77471 0.80224 0.0
O327 O 0.88043 0.74421 0.06715 0.0
C328 C 0.87176 0.79978 0.11038 0.0
C329 C 0.91568 0.7761 0.90574 0.0
C330 C 0.88395 0.7651 0.82997 0.0
N331 N 0.87568 0.7657 0.94436 0.0
C332 C 0.89918 0.77277 0.95654 0.0
C333 C 0.86795 0.76197 0.88197 0.0
C334 C 0.90797 0.77221 0.84207 0.0
C335 C 0.79326 0.78078 0.178 0.0
N336 N 0.81683 0.78556 0.19583 0.0
C337 C 0.77481 0.79783 0.1894 0.0
C338 C 0.78061 0.81992 0.21923 0.0
C339 C 0.8047 0.82472 0.23706 0.0
C340 C 0.82267 0.80723 0.22489 0.0
C341 C 0.84318 0.76463 0.38516 0.0
C342 C 0.87672 0.76537 0.28491 0.0
C343 C 0.83566 0.76294 0.32051 0.0
N344 N 0.85236 0.76347 0.2713 0.0
C345 C 0.88491 0.7671 0.34898 0.0
C346 C 0.86798 0.76675 0.39935 0.0
C347 C 0.8824 0.73296 0.12174 0.0
C348 C 0.81128 0.7006 0.96261 0.0
C349 C 0.86003 0.71372 0.9618 0.0
C350 C 0.85314 0.69072 0.93894 0.0
C351 C 0.82857 0.68417 0.93928 0.0
N352 N 0.84298 0.72989 0.98407 0.0
C353 C 0.81887 0.72344 0.9851 0.0
Co354 Co 0.50818 0.59338 0.4255 0.0
Co355 Co 0.50925 0.60627 0.2613 0.0
O356 O 0.51204 0.58294 0.33411 0.0
C357 C 0.55071 0.55763 0.4336 0.0
O358 O 0.5556 0.55817 0.37137 0.0
C359 C 0.48945 0.55709 0.20373 0.0
O360 O 0.49137 0.54596 0.25987 0.0
O361 O 0.47614 0.61795 0.29434 0.0
O362 O 0.48307 0.61772 0.40126 0.0
H363 H 0.49084 0.68839 0.1647 0.0
H364 H 0.50424 0.54087 0.39284 0.0
O365 O 0.53308 0.56977 0.45705 0.0
H366 H 0.42556 0.56205 0.49394 0.0
H367 H 0.50033 0.58063 0.66681 0.0
H368 H 0.50406 0.64147 0.49097 0.0
H369 H 0.45764 0.59317 0.48062 0.0
H370 H 0.50469 0.56753 0.55301 0.0
O371 O 0.49338 0.58031 0.2005 0.0
H372 H 0.49544 0.65841 0.25304 0.0
H373 H 0.51661 0.60403 0.11737 0.0
H374 H 0.49949 0.65532 0.60411 0.0
H375 H 0.47281 0.50905 0.40606 0.0
H376 H 0.49759 0.6248 0.693 0.0
H377 H 0.43311 0.51957 0.45694 0.0
O378 O 0.53423 0.6183 0.41486 0.0
H379 H 0.57554 0.54533 0.20897 0.0
H380 H 0.553 0.63231 0.21078 0.0
H381 H 0.59384 0.62026 0.17319 0.0
H382 H 0.60533 0.57642 0.1715 0.0
H383 H 0.53526 0.55824 0.24771 0.0
H384 H 0.51193 0.63332 0.02752 0.0
H385 H 0.49907 0.67589 0.05095 0.0
O386 O 0.52647 0.63264 0.31489 0.0
C387 C 0.47055 0.62434 0.35254 0.0
C388 C 0.49645 0.66989 0.15386 0.0
C389 C 0.50823 0.63897 0.07687 0.0
N390 N 0.50621 0.62946 0.19046 0.0
C391 C 0.49912 0.65284 0.20371 0.0
C392 C 0.51069 0.62241 0.12794 0.0
C393 C 0.50105 0.66286 0.09005 0.0
C394 C 0.48707 0.54558 0.41522 0.0
N395 N 0.48282 0.5689 0.43587 0.0
C396 C 0.46931 0.52749 0.42245 0.0
C397 C 0.44703 0.53341 0.45092 0.0
C398 C 0.44277 0.55725 0.47162 0.0
C399 C 0.46096 0.57485 0.46358 0.0
C400 C 0.50109 0.5941 0.6285 0.0
C401 C 0.50314 0.62805 0.5293 0.0
C402 C 0.50361 0.58681 0.56392 0.0
N403 N 0.50446 0.60371 0.51518 0.0
C404 C 0.50059 0.63602 0.59331 0.0
C405 C 0.49955 0.61889 0.64316 0.0
C406 C 0.53734 0.63405 0.37015 0.0
C407 C 0.57069 0.56448 0.20888 0.0
C408 C 0.55781 0.61324 0.21071 0.0
C409 C 0.581 0.6065 0.18907 0.0
C410 C 0.58742 0.58192 0.18807 0.0
N411 N 0.54132 0.59604 0.2305 0.0
C412 C 0.54768 0.57192 0.23022 0.0
Co413 Co 0.67462 0.25363 0.67182 0.0
Co414 Co 0.66128 0.25592 0.5084 0.0
O415 O 0.68477 0.25811 0.58084 0.0
C416 C 0.70527 0.29912 0.68516 0.0
O417 O 0.69686 0.30896 0.63158 0.0
C418 C 0.71056 0.2378 0.44944 0.0
O419 O 0.72177 0.23952 0.50563 0.0
O420 O 0.64991 0.22246 0.53965 0.0
O421 O 0.64985 0.229 0.64682 0.0
H422 H 0.57905 0.23772 0.41115 0.0
H423 H 0.72701 0.24971 0.63909 0.0
O424 O 0.69894 0.27787 0.70287 0.0
H425 H 0.70533 0.17015 0.73458 0.0
H426 H 0.68856 0.24446 0.91242 0.0
H427 H 0.62681 0.24928 0.7384 0.0
H428 H 0.67445 0.2026 0.72376 0.0
H429 H 0.70109 0.24933 0.7984 0.0
O430 O 0.68724 0.24101 0.44652 0.0
H431 H 0.60917 0.24179 0.49958 0.0
H432 H 0.66316 0.26457 0.36491 0.0
H433 H 0.61352 0.24419 0.85174 0.0
H434 H 0.75859 0.21787 0.64969 0.0
H435 H 0.64449 0.24176 0.93972 0.0
H436 H 0.74781 0.17773 0.69771 0.0
O437 O 0.64979 0.27991 0.66281 0.0
H438 H 0.72136 0.32399 0.46533 0.0
H439 H 0.63482 0.29967 0.45903 0.0
H440 H 0.64641 0.34107 0.42501 0.0
H441 H 0.69003 0.35347 0.42738 0.0
H442 H 0.70894 0.28309 0.50027 0.0
H443 H 0.63372 0.26042 0.27497 0.0
H444 H 0.59127 0.24702 0.29785 0.0
O445 O 0.63494 0.27221 0.56322 0.0
C446 C 0.64331 0.21669 0.59758 0.0
C447 C 0.59749 0.24358 0.40055 0.0
C448 C 0.62818 0.25626 0.32411 0.0
N449 N 0.63794 0.25335 0.43753 0.0
C450 C 0.61462 0.24596 0.45046 0.0
C451 C 0.64483 0.25841 0.37523 0.0
C452 C 0.60436 0.24878 0.33699 0.0
C453 C 0.72219 0.2323 0.66005 0.0
N454 N 0.69887 0.22799 0.68043 0.0
C455 C 0.74014 0.21433 0.66589 0.0
C456 C 0.73408 0.19181 0.69278 0.0
C457 C 0.71024 0.18754 0.7134 0.0
C458 C 0.69277 0.20594 0.70677 0.0
C459 C 0.67489 0.24546 0.87451 0.0
C460 C 0.64043 0.24811 0.77631 0.0
C461 C 0.68187 0.24826 0.80981 0.0
N462 N 0.66471 0.24942 0.76158 0.0
C463 C 0.63278 0.24528 0.84046 0.0
C464 C 0.65016 0.24394 0.88979 0.0
C465 C 0.63368 0.28285 0.6187 0.0
C466 C 0.70233 0.31872 0.46325 0.0
C467 C 0.65383 0.3048 0.46032 0.0
C468 C 0.66029 0.32833 0.44087 0.0
C469 C 0.68474 0.33527 0.4422 0.0
N470 N 0.67118 0.28843 0.47998 0.0
C471 C 0.69516 0.29533 0.48235 0.0
Co472 Co 0.33902 0.25857 0.66854 0.0
Co473 Co 0.35085 0.26055 0.50357 0.0
O474 O 0.32837 0.25616 0.57729 0.0
C475 C 0.31008 0.21213 0.66814 0.0
O476 O 0.31843 0.20593 0.61088 0.0
C477 C 0.30085 0.28081 0.45751 0.0
O478 O 0.29293 0.27993 0.51747 0.0
O479 O 0.3625 0.29319 0.54086 0.0
O480 O 0.36249 0.28503 0.64746 0.0
H481 H 0.43172 0.28168 0.4039 0.0
H482 H 0.28588 0.26058 0.64163 0.0
O483 O 0.31609 0.23221 0.69451 0.0
H484 H 0.30514 0.3382 0.75166 0.0
H485 H 0.32646 0.2599 0.91066 0.0
H486 H 0.38703 0.26371 0.73428 0.0
H487 H 0.33755 0.30819 0.72924 0.0
H488 H 0.31336 0.25754 0.79635 0.0
O489 O 0.32366 0.27667 0.44664 0.0
H490 H 0.40275 0.27501 0.49358 0.0
H491 H 0.34695 0.25635 0.3588 0.0
H492 H 0.40089 0.26633 0.84797 0.0
H493 H 0.25281 0.2899 0.66415 0.0
H494 H 0.37051 0.26444 0.93712 0.0
H495 H 0.26235 0.32903 0.71968 0.0
O496 O 0.36476 0.23381 0.65351 0.0
H497 H 0.29009 0.19441 0.44803 0.0
H498 H 0.3768 0.21825 0.4446 0.0
H499 H 0.36471 0.17795 0.40258 0.0
H500 H 0.32101 0.16583 0.40355 0.0
H501 H 0.30303 0.23415 0.49103 0.0
H502 H 0.37524 0.26308 0.26776 0.0
H503 H 0.418 0.27573 0.29002 0.0
O504 O 0.37802 0.24271 0.55312 0.0
C505 C 0.36892 0.29819 0.59968 0.0
C506 C 0.41314 0.27614 0.39358 0.0
C507 C 0.38143 0.26575 0.31717 0.0
N508 N 0.37319 0.26526 0.43158 0.0
C509 C 0.39667 0.27228 0.44418 0.0
C510 C 0.36545 0.26209 0.36898 0.0
C511 C 0.40543 0.27283 0.3297 0.0
C512 C 0.2902 0.27757 0.66575 0.0
N513 N 0.31368 0.28269 0.68371 0.0
C514 C 0.27139 0.29412 0.67829 0.0
C515 C 0.27676 0.31608 0.70937 0.0
C516 C 0.30077 0.32125 0.72725 0.0
C517 C 0.3191 0.30426 0.71394 0.0
C518 C 0.33988 0.26079 0.87225 0.0
C519 C 0.37367 0.26299 0.77276 0.0
C520 C 0.33258 0.25941 0.80738 0.0
N521 N 0.3494 0.26066 0.75855 0.0
C522 C 0.38164 0.26443 0.83707 0.0
C523 C 0.36459 0.26334 0.88706 0.0
C524 C 0.38008 0.23137 0.60753 0.0
C525 C 0.30916 0.19956 0.44671 0.0
C526 C 0.35778 0.21315 0.44559 0.0
C527 C 0.35102 0.19029 0.42148 0.0
C528 C 0.32652 0.18351 0.42198 0.0
N529 N 0.34066 0.22896 0.46925 0.0
C530 C 0.31661 0.22227 0.47044 0.0
Co531 Co 0.17568 0.75702 0.16621 0.0
Co532 Co 0.1588 0.75575 1.00508 0.0
O533 O 0.18328 0.75984 0.07356 0.0
C534 C 0.19747 0.80198 0.22098 0.0
O535 O 0.17627 0.8065 0.24816 0.0
C536 C 0.20752 0.73665 0.94628 0.0
O537 O 0.21873 0.73907 1.00223 0.0
O538 O 0.14885 0.72301 0.04314 0.0
O539 O 0.15123 0.73066 0.15008 0.0
H540 H 0.0755 0.73384 0.92074 0.0
H541 H 0.22783 0.75483 0.12746 0.0
O542 O 0.19999 0.78353 0.18381 0.0
H543 H 0.21111 0.67601 0.23369 0.0
H544 H 0.19713 0.75249 0.40405 0.0
H545 H 0.13023 0.75301 0.24346 0.0
H546 H 0.17867 0.70687 0.22284 0.0
H547 H 0.20604 0.75551 0.28714 0.0
O548 O 0.18422 0.74001 0.94306 0.0
H549 H 0.10694 0.74051 1.00475 0.0
H550 H 0.15823 0.76099 0.86042 0.0
H551 H 0.12051 0.7499 0.35992 0.0
H552 H 0.26091 0.72461 0.13825 0.0
H553 H 0.1541 0.74965 0.44114 0.0
H554 H 0.25265 0.68484 0.19163 0.0
O555 O 0.14938 0.78181 0.15763 0.0
H556 H 0.21677 0.82367 0.94454 0.0
H557 H 0.13067 0.79786 0.95223 0.0
H558 H 0.14092 0.83864 0.91054 0.0
H559 H 0.18429 0.85176 0.90591 0.0
H560 H 0.2057 0.78334 0.9869 0.0
H561 H 0.12744 0.75425 0.77482 0.0
H562 H 0.08568 0.7407 0.80479 0.0
O563 O 0.13308 0.7728 0.06045 0.0
C564 C 0.14378 0.71775 0.10254 0.0
C565 C 0.09362 0.73978 0.90706 0.0
C566 C 0.12279 0.75117 0.82516 0.0
N567 N 0.13441 0.75113 0.9376 0.0
C568 C 0.11149 0.74363 0.95444 0.0
C569 C 0.1402 0.75481 0.87385 0.0
C570 C 0.09936 0.7436 0.84201 0.0
C571 C 0.22407 0.73761 0.15094 0.0
N572 N 0.20127 0.73263 0.17419 0.0
C573 C 0.24288 0.72054 0.15678 0.0
C574 C 0.23823 0.69822 0.18665 0.0
C575 C 0.21493 0.69324 0.21017 0.0
C576 C 0.19656 0.71074 0.20345 0.0
C577 C 0.18233 0.75256 0.36915 0.0
C578 C 0.14495 0.75288 0.27848 0.0
C579 C 0.18726 0.75425 0.30286 0.0
N580 N 0.16866 0.75444 0.25843 0.0
C581 C 0.13934 0.75112 0.34437 0.0
C582 C 0.15819 0.75098 0.38991 0.0
C583 C 0.13255 0.784 0.11525 0.0
C584 C 0.19782 0.81806 0.9456 0.0
C585 C 0.14958 0.80332 0.95042 0.0
C586 C 0.15528 0.82649 0.92668 0.0
C587 C 0.17959 0.83384 0.92411 0.0
N588 N 0.16755 0.7877 0.97049 0.0
C589 C 0.19141 0.79503 0.96907 0.0
Co590 Co 0.18187 0.26359 0.91469 0.0
Co591 Co 0.16619 0.25955 0.07713 0.0
O592 O 0.19023 0.25793 1.00632 0.0
C593 C 0.2085 0.21616 0.90822 0.0
O594 O 0.1975 0.20829 0.96067 0.0
C595 C 0.21413 0.28165 0.13195 0.0
O596 O 0.22174 0.28493 0.07233 0.0
O597 O 0.15469 0.29305 0.04646 0.0
O598 O 0.15827 0.28963 0.93838 0.0
H599 H 0.08319 0.27581 0.17072 0.0
H600 H 0.23445 0.26349 0.94934 0.0
O601 O 0.20489 0.23757 0.88668 0.0
H602 H 0.21858 0.34523 0.85871 0.0
H603 H 0.20065 0.27263 0.67675 0.0
H604 H 0.13574 0.27217 0.84219 0.0
H605 H 0.18531 0.31515 0.86832 0.0
H606 H 0.2107 0.26611 0.79205 0.0
O607 O 0.19205 0.27425 0.14095 0.0
H608 H 0.11392 0.27294 0.08374 0.0
H609 H 0.1675 0.25019 0.22021 0.0
H610 H 0.12492 0.27897 0.72744 0.0
H611 H 0.26837 0.29287 0.93946 0.0
H612 H 0.1575 0.27922 0.64378 0.0
H613 H 0.26053 0.33408 0.89383 0.0
O614 O 0.15543 0.23901 0.91906 0.0
H615 H 0.22749 0.19372 0.12816 0.0
H616 H 0.14 0.21436 0.11744 0.0
H617 H 0.1524 0.17299 0.15048 0.0
H618 H 0.19645 0.16245 0.15644 0.0
H619 H 0.21431 0.23466 0.09421 0.0
H620 H 0.13743 0.25305 0.30867 0.0
H621 H 0.09489 0.26584 0.28415 0.0
O622 O 0.14022 0.24312 0.01965 0.0
C623 C 0.15007 0.30048 0.98837 0.0
C624 C 0.10166 0.27018 0.182 0.0
C625 C 0.13211 0.25745 0.25945 0.0
N626 N 0.14246 0.26136 0.14678 0.0
C627 C 0.11912 0.26847 0.13294 0.0
C628 C 0.14909 0.25597 0.20915 0.0
C629 C 0.10824 0.26461 0.24564 0.0
C630 C 0.2309 0.28136 0.92927 0.0
N631 N 0.20788 0.28761 0.90974 0.0
C632 C 0.25017 0.29795 0.92397 0.0
C633 C 0.24576 0.32107 0.89846 0.0
C634 C 0.22222 0.32735 0.87885 0.0
C635 C 0.20339 0.3103 0.88489 0.0
C636 C 0.18629 0.27259 0.71275 0.0
C637 C 0.15005 0.27238 0.80615 0.0
C638 C 0.19186 0.26885 0.77815 0.0
N639 N 0.17384 0.26891 0.82398 0.0
C640 C 0.1438 0.27618 0.74121 0.0
C641 C 0.16208 0.2763 0.69429 0.0
C642 C 0.13925 0.23442 0.96165 0.0
C643 C 0.20824 0.19814 0.12629 0.0
C644 C 0.1592 0.20996 0.11971 0.0
C645 C 0.16611 0.18648 0.13861 0.0
C646 C 0.19082 0.18059 0.14198 0.0
N647 N 0.17638 0.22718 0.10491 0.0
C648 C 0.20065 0.22143 0.1076 0.0
Co649 Co 0.34214 0.75899 0.43539 0.0
Co650 Co 0.35624 0.75728 0.59856 0.0
O651 O 0.33254 0.76113 0.52742 0.0
C652 C 0.31003 0.80345 0.43864 0.0
O653 O 0.31815 0.80995 0.49601 0.0
C654 C 0.30727 0.737 0.65341 0.0
O655 O 0.2963 0.73976 0.59723 0.0
O656 O 0.3675 0.72488 0.56059 0.0
O657 O 0.36707 0.73359 0.45443 0.0
H658 H 0.43892 0.73706 0.68974 0.0
H659 H 0.28978 0.75421 0.4688 0.0
O660 O 0.31762 0.78415 0.4111 0.0
H661 H 0.31104 0.6774 0.35774 0.0
H662 H 0.32632 0.75678 0.1945 0.0
H663 H 0.38941 0.75585 0.36559 0.0
H664 H 0.34203 0.70944 0.37423 0.0
H665 H 0.31472 0.75861 0.30986 0.0
O666 O 0.33052 0.74055 0.65765 0.0
H667 H 0.40842 0.74335 0.60314 0.0
H668 H 0.35482 0.76184 0.74344 0.0
H669 H 0.40178 0.75378 0.25081 0.0
H670 H 0.2581 0.72278 0.45257 0.0
H671 H 0.37013 0.75424 0.1643 0.0
H672 H 0.26867 0.68402 0.3967 0.0
O673 O 0.36707 0.78489 0.44822 0.0
H674 H 0.29583 0.82291 0.66065 0.0
H675 H 0.38268 0.79983 0.65503 0.0
H676 H 0.37099 0.83995 0.69861 0.0
H677 H 0.32722 0.85168 0.70229 0.0
H678 H 0.30837 0.78342 0.61579 0.0
H679 H 0.38464 0.75545 0.83154 0.0
H680 H 0.42708 0.74308 0.80491 0.0
O681 O 0.38229 0.77533 0.5463 0.0
C682 C 0.37375 0.72026 0.50167 0.0
C683 C 0.42049 0.74246 0.70196 0.0
C684 C 0.39001 0.75273 0.78154 0.0
N685 N 0.37984 0.75293 0.66812 0.0
C686 C 0.40315 0.7461 0.65312 0.0
C687 C 0.37315 0.75617 0.73143 0.0
C688 C 0.41382 0.74582 0.76657 0.0
C689 C 0.29451 0.73741 0.44439 0.0
N690 N 0.31778 0.73365 0.42281 0.0
C691 C 0.27651 0.71966 0.43541 0.0
C692 C 0.28245 0.69791 0.40411 0.0
C693 C 0.30622 0.69418 0.38231 0.0
C694 C 0.32375 0.71234 0.39216 0.0
C695 C 0.34028 0.75653 0.23174 0.0
C696 C 0.3755 0.75595 0.32829 0.0
C697 C 0.33383 0.75762 0.2972 0.0
N698 N 0.35136 0.75721 0.34456 0.0
C699 C 0.38263 0.75482 0.26334 0.0
C700 C 0.36486 0.7551 0.21483 0.0
C701 C 0.38328 0.78708 0.49239 0.0
C702 C 0.31495 0.81792 0.66 0.0
C703 C 0.36363 0.80476 0.65596 0.0
C704 C 0.3571 0.82752 0.68099 0.0
C705 C 0.33256 0.83409 0.68312 0.0
N706 N 0.34626 0.78879 0.63394 0.0
C707 C 0.32218 0.79531 0.63528 0.0
Co708 Co 0.5066 0.09007 0.67353 0.0
Co709 Co 0.50728 0.10425 0.83682 0.0
O710 O 0.50377 0.08037 0.76571 0.0
C711 C 0.46239 0.05727 0.67268 0.0
O712 O 0.45598 0.06375 0.73146 0.0
C713 C 0.52714 0.0555 0.89622 0.0
O714 O 0.52452 0.04378 0.84105 0.0
O715 O 0.54009 0.11513 0.80084 0.0
O716 O 0.53192 0.11492 0.69435 0.0
H717 H 0.52753 0.18702 0.92722 0.0
H718 H 0.51111 0.03784 0.70813 0.0
O719 O 0.4816 0.06567 0.6466 0.0
H720 H 0.58864 0.05879 0.60051 0.0
H721 H 0.51108 0.07476 0.43267 0.0
H722 H 0.51005 0.13746 0.60445 0.0
H723 H 0.55658 0.08986 0.61508 0.0
H724 H 0.50828 0.0629 0.54771 0.0
O725 O 0.52345 0.07876 0.89814 0.0
H726 H 0.52177 0.15629 0.84104 0.0
H727 H 0.50119 0.10343 0.9813 0.0
H728 H 0.51308 0.15009 0.49 0.0
H729 H 0.54255 1.00609 0.69382 0.0
H730 H 0.51361 0.11863 0.40314 0.0
H731 H 0.58165 0.01649 0.6396 0.0
O732 O 0.48058 0.115 0.68469 0.0
H733 H 0.44095 0.04438 0.89688 0.0
H734 H 0.46426 0.13113 0.88874 0.0
H735 H 0.42372 0.11975 0.92992 0.0
H736 H 0.41185 0.07603 0.93487 0.0
H737 H 0.4809 0.05662 0.85438 0.0
H738 H 0.50703 0.13349 0.06902 0.0
H739 H 0.52019 0.17568 0.04219 0.0
O740 O 0.48991 0.1303 0.78276 0.0
C741 C 0.5451 0.12138 0.74218 0.0
C742 C 0.52179 0.1687 0.93953 0.0
C743 C 0.51034 0.13865 0.01912 0.0
N744 N 0.5112 0.12806 0.90603 0.0
C745 C 0.51846 0.15123 0.89092 0.0
C746 C 0.50721 0.12165 0.96924 0.0
C747 C 0.51769 0.16232 1.00403 0.0
C748 C 0.52806 0.0425 0.68444 0.0
N749 N 0.532 0.0657 0.66261 0.0
C750 C 0.54581 0.02445 0.67655 0.0
C751 C 0.56775 0.0303 0.64619 0.0
C752 C 0.57169 0.05404 0.6243 0.0
C753 C 0.55352 0.07161 0.63304 0.0
C754 C 0.51091 0.08864 0.47007 0.0
C755 C 0.5104 0.12364 0.56701 0.0
C756 C 0.50927 0.08204 0.53535 0.0
N757 N 0.50917 0.09947 0.58293 0.0
C758 C 0.51206 0.13091 0.50225 0.0
C759 C 0.51233 0.11326 0.45354 0.0
C760 C 0.47836 0.13132 0.72842 0.0
C761 C 0.44598 0.06348 0.89565 0.0
C762 C 0.45928 0.1121 0.89022 0.0
C763 C 0.43627 0.10575 0.91389 0.0
C764 C 0.42964 0.08124 0.91672 0.0
N765 N 0.47541 0.09459 0.87025 0.0
C766 C 0.46884 0.07054 0.87225 0.0
Co767 Co 0.00962 0.92567 0.19249 0.0
Co768 Co 1.00786 0.91095 0.35577 0.0
O769 O 0.01296 0.93429 0.28477 0.0
C770 C 0.05592 0.94241 0.1351 0.0
O771 O 0.05912 0.91981 0.11555 0.0
C772 C 0.99074 0.96119 0.41127 0.0
O773 O 0.99479 0.97209 0.35567 0.0
O774 O 0.97489 0.90103 0.31758 0.0
O775 O 0.98175 0.90336 0.21042 0.0
H776 H 0.98358 0.82958 0.44738 0.0
H777 H 0.01128 0.97821 0.22686 0.0
O778 O 0.03786 0.94769 0.1717 0.0
H779 H 0.93131 0.96601 0.12134 0.0
H780 H 1.00615 0.94392 0.95275 0.0
H781 H 1.00246 0.87952 0.11944 0.0
H782 H 0.95966 0.9315 0.13552 0.0
H783 H 0.00988 0.95429 0.06874 0.0
O784 O 0.99242 0.93769 0.4148 0.0
H785 H 0.9915 0.85949 0.3606 0.0
H786 H 0.01215 0.91258 0.50074 0.0
H787 H 0.99855 0.86836 1.00397 0.0
H788 H 0.98364 0.01332 0.21262 0.0
H789 H 1.00043 0.90067 0.91967 0.0
H790 H 0.94331 1.00733 0.15956 0.0
O791 O 0.03247 0.89789 0.20359 0.0
H792 H 0.07767 0.96765 0.41172 0.0
H793 H 0.04867 0.88256 0.4144 0.0
H794 H 0.08953 0.89217 0.45702 0.0
H795 H 0.10425 0.93504 0.4565 0.0
H796 H 0.03726 0.95722 0.36852 0.0
H797 H 1.00414 0.88336 0.589 0.0
H798 H 0.98987 0.84147 0.56256 0.0
O799 O 0.02466 0.88401 0.30389 0.0
C800 C 0.96905 0.89614 0.25833 0.0
C801 C 0.98982 0.84777 0.45952 0.0
C802 C 1.0013 0.87797 0.539 0.0
N803 N 1.00229 0.88777 0.42547 0.0
C804 C 0.99439 0.86477 0.41058 0.0
C805 C 1.00566 0.8945 0.48879 0.0
C806 C 0.99333 0.85446 0.52413 0.0
C807 C 0.99381 0.97546 0.20351 0.0
N808 N 0.98712 0.9528 0.18215 0.0
C809 C 0.9782 0.9954 0.19574 0.0
C810 C 0.95557 0.99203 0.16603 0.0
C811 C 0.94881 0.96884 0.14465 0.0
C812 C 0.96489 0.94932 0.15323 0.0
C813 C 1.00528 0.92967 0.98901 0.0
C814 C 1.00325 0.8937 0.08309 0.0
C815 C 1.00737 0.93543 0.0548 0.0
N816 N 1.00639 0.91753 0.10095 0.0
C817 C 1.00103 0.88727 0.01776 0.0
C818 C 1.00208 0.90541 0.97049 0.0
C819 C 0.03505 0.88208 0.24829 0.0
C820 C 0.07133 0.94894 0.41307 0.0
C821 C 0.05478 0.90129 0.41411 0.0
C822 C 0.07802 0.90661 0.43833 0.0
C823 C 0.08627 0.93064 0.438 0.0
N824 N 0.03993 0.91937 0.39084 0.0
C825 C 0.0482 0.94291 0.38921 0.0
Co826 Co 0.5128 0.92521 0.42277 0.0
Co827 Co 0.51243 0.91077 0.25971 0.0
O828 O 0.50958 0.93468 0.33073 0.0
C829 C 0.46698 0.95503 0.42631 0.0
O830 O 0.45873 0.94498 0.37278 0.0
C831 C 0.53114 0.95963 0.19935 0.0
O832 O 0.52868 0.97134 0.25455 0.0
O833 O 0.5454 0.89953 0.29508 0.0
O834 O 0.53801 0.9003 0.40196 0.0
H835 H 0.53154 0.82786 0.16886 0.0
H836 H 0.51712 0.97737 0.38751 0.0
O837 O 0.48789 0.94972 0.44888 0.0
H838 H 0.59516 0.9567 0.49378 0.0
H839 H 0.51786 0.94132 0.66321 0.0
H840 H 0.51655 0.87806 0.49285 0.0
H841 H 0.56302 0.92559 0.48035 0.0
H842 H 0.51476 0.95279 0.54788 0.0
O843 O 0.52827 0.93624 0.19789 0.0
H844 H 0.52639 0.85861 0.25516 0.0
H845 H 0.50571 0.91165 0.11527 0.0
H846 H 0.51988 0.86581 0.60758 0.0
H847 H 0.54866 0.00917 0.4006 0.0
H848 H 0.52055 0.89755 0.69372 0.0
H849 H 0.58802 0.9989 0.45413 0.0
O850 O 0.48672 0.90028 0.41249 0.0
H851 H 0.44519 0.97084 0.20755 0.0
H852 H 0.46932 0.88429 0.20585 0.0
H853 H 0.42849 0.89586 0.1669 0.0
H854 H 0.4162 0.93948 0.1669 0.0
H855 H 0.48547 0.95843 0.24755 0.0
H856 H 0.51098 0.88158 0.02743 0.0
H857 H 0.52386 0.83928 0.05401 0.0
O858 O 0.49509 0.88489 0.31402 0.0
C859 C 0.55078 0.89347 0.35382 0.0
C860 C 0.52591 0.84622 0.15666 0.0
C861 C 0.51444 0.87639 0.07727 0.0
N862 N 0.51581 0.88694 0.19037 0.0
C863 C 0.52292 0.86371 0.20534 0.0
C864 C 0.51165 0.8934 0.12722 0.0
C865 C 0.52163 0.85265 0.09223 0.0
C866 C 0.5342 0.97277 0.41083 0.0
N867 N 0.53824 0.94962 0.43287 0.0
C868 C 0.552 0.99085 0.41807 0.0
C869 C 0.57408 0.98507 0.44805 0.0
C870 C 0.57811 0.96139 0.47024 0.0
C871 C 0.55989 0.94379 0.46215 0.0
C872 C 0.51764 0.92731 0.62612 0.0
C873 C 0.51697 0.892 0.52998 0.0
C874 C 0.51584 0.93369 0.56069 0.0
N875 N 0.51566 0.91612 0.51353 0.0
C876 C 0.5188 0.88494 0.5949 0.0
C877 C 0.51915 0.90276 0.6432 0.0
C878 C 0.48385 0.88409 0.36866 0.0
C879 C 0.45044 0.9518 0.20646 0.0
C880 C 0.46424 0.90329 0.20622 0.0
C881 C 0.44103 0.90975 0.18393 0.0
C882 C 0.43415 0.9342 0.18391 0.0
N883 N 0.48036 0.92066 0.2274 0.0
C884 C 0.4735 0.94464 0.2284 0.0
Co885 Co 1.00413 0.09037 0.93318 0.0
Co886 Co 0.01089 0.10783 0.77373 0.0
O887 O 0.01052 0.08275 0.84176 0.0
C888 C 0.05025 0.062 0.95033 0.0
O889 O 0.06197 0.07583 0.90882 0.0
C890 C 0.99096 0.06056 0.70721 0.0
O891 O 0.99024 0.04919 0.76313 0.0
O892 O 0.97725 0.11987 0.80154 0.0
O893 O 0.98039 0.11622 0.9095 0.0
H894 H 0.99845 0.19257 0.68697 0.0
H895 H 1.00041 0.0387 0.89176 0.0
O896 O 0.02762 0.06487 0.9614 0.0
H897 H 0.91877 0.05988 0.97493 0.0
H898 H 0.99008 0.06929 0.168 0.0
H899 H 0.9987 0.13607 0.00941 0.0
H900 H 0.95188 0.09035 0.97499 0.0
H901 H 0.9972 0.06026 0.05242 0.0
O902 O 0.99631 0.08354 0.70588 0.0
H903 H 0.99912 0.16056 0.771 0.0
H904 H 0.02257 0.10837 0.63196 0.0
H905 H 0.99136 0.1459 0.12448 0.0
H906 H 0.96789 1.00754 0.89158 0.0
H907 H 0.987 0.11238 0.2047 0.0
H908 H 0.9267 0.01808 0.93328 0.0
O909 O 0.03072 0.11497 0.9336 0.0
H910 H 0.07716 0.04597 0.73017 0.0
H911 H 0.05698 0.13353 0.73922 0.0
H912 H 0.09871 0.12091 0.71071 0.0
H913 H 0.10904 0.07682 0.70554 0.0
H914 H 0.03587 0.05934 0.7594 0.0
H915 H 0.02188 0.13974 0.54631 0.0
H916 H 0.00987 0.18223 0.57366 0.0
O917 O 0.02705 0.13241 0.83553 0.0
C918 C 0.96993 0.12483 0.85943 0.0
C919 C 1.00375 0.17413 0.67446 0.0
C920 C 0.01685 0.14447 0.59549 0.0
N921 N 0.01088 0.13262 0.70648 0.0
C922 C 1.0042 0.15594 0.72187 0.0
C923 C 0.01707 0.12675 0.64415 0.0
C924 C 0.01013 0.16831 0.61089 0.0
C925 C 0.98254 0.04341 0.91008 0.0
N926 N 0.97802 0.06638 0.93288 0.0
C927 C 0.96419 0.0257 0.90978 0.0
C928 C 0.94109 0.03163 0.93313 0.0
C929 C 0.93661 0.05509 0.95641 0.0
C930 C 0.95541 0.07233 0.95592 0.0
C931 C 0.99189 0.08406 0.1335 0.0
C932 C 0.99667 0.12136 0.04392 0.0
C933 C 0.99596 0.07906 0.06796 0.0
N934 N 0.99816 0.09762 0.02401 0.0
C935 C 0.99258 0.12705 0.10906 0.0
C936 C 0.99016 0.10824 0.15405 0.0
C937 C 0.03586 0.13189 0.89344 0.0
C938 C 0.07281 0.06523 0.73143 0.0
C939 C 0.06119 0.1143 0.73679 0.0
C940 C 0.08492 0.10726 0.72067 0.0
C941 C 0.09071 0.08254 0.71781 0.0
N942 N 0.04356 0.09723 0.74907 0.0
C943 C 0.04927 0.07295 0.74735 0.0
H944 H 0.13187 0.70044 0.22358 0.0
H945 H 0.11766 0.68777 0.01998 0.0
H946 H 0.0879 0.65624 0.04862 0.0
H947 H 0.06445 0.63404 0.13048 0.0
H948 H 0.07777 0.64672 0.33439 0.0
H949 H 0.10953 0.67653 0.30614 0.0
C950 C 0.1225 0.6907 0.18507 0.0
C951 C 0.12724 0.69673 0.11918 0.0
C952 C 0.10518 0.67265 0.20201 0.0
C953 C 0.11469 0.68367 0.07075 0.0
C954 C 0.09754 0.66565 0.08724 0.0
C955 C 0.07435 0.643 0.16933 0.0
C956 C 0.06847 0.63784 0.23503 0.0
C957 C 0.09243 0.66022 0.15263 0.0
C958 C 0.08177 0.65 0.28371 0.0
C959 C 0.09991 0.66718 0.26741 0.0
H960 H 0.56828 0.88111 0.47428 0.0
H961 H 0.58093 0.86764 0.27054 0.0
H962 H 0.61301 0.83829 0.29917 0.0
H963 H 0.63589 0.81518 0.38142 0.0
H964 H 0.62301 0.82823 0.58524 0.0
H965 H 0.59257 0.85932 0.55666 0.0
C966 C 0.57811 0.87204 0.43561 0.0
C967 C 0.57193 0.87688 0.36973 0.0
C968 C 0.59647 0.85506 0.45256 0.0
C969 C 0.58513 0.8646 0.32127 0.0
C970 C 0.60347 0.8477 0.3378 0.0
C971 C 0.62673 0.82489 0.42015 0.0
C972 C 0.63206 0.81911 0.486 0.0
C973 C 0.6091 0.84261 0.40324 0.0
C974 C 0.61964 0.83215 0.53451 0.0
C975 C 0.60209 0.8499 0.51801 0.0
H976 H 0.44876 0.38207 0.63187 0.0
H977 H 0.43609 0.3668 0.83465 0.0
H978 H 0.40415 0.33757 0.80417 0.0
H979 H 0.38164 0.31475 0.72068 0.0
H980 H 0.39477 0.32902 0.51765 0.0
H981 H 0.42476 0.36041 0.548 0.0
C982 C 0.43895 0.37261 0.66989 0.0
C983 C 0.44512 0.37691 0.7361 0.0
C984 C 0.42073 0.35554 0.65186 0.0
C985 C 0.43191 0.36421 0.78372 0.0
C986 C 0.41365 0.34734 0.76613 0.0
C987 C 0.39075 0.32478 0.68248 0.0
C988 C 0.38563 0.31925 0.61633 0.0
C989 C 0.40816 0.34262 0.7004 0.0
C990 C 0.39799 0.33273 0.56859 0.0
C991 C 0.41527 0.35066 0.58611 0.0
H992 H 0.88883 0.20768 0.88036 0.0
H993 H 0.89685 0.19117 0.08428 0.0
H994 H 0.9257 0.15858 0.0572 0.0
H995 H 0.94991 0.13626 0.97701 0.0
H996 H 0.9435 0.15357 0.77322 0.0
H997 H 0.91247 0.1844 0.79934 0.0
C998 C 0.89667 0.19694 0.91928 0.0
C999 C 0.89042 0.20213 0.98482 0.0
C1000 C 0.91358 0.1784 0.90332 0.0
C1001 C 0.90103 0.18775 0.03375 0.0
C1002 C 0.91764 0.16912 0.01816 0.0
C1003 C 0.94175 0.14654 0.93768 0.0
C1004 C 0.94931 0.14232 0.87268 0.0
C1005 C 0.92424 0.16448 0.95324 0.0
C1006 C 0.93817 0.15611 0.82335 0.0
C1007 C 0.92046 0.17387 0.83846 0.0
H1008 H 0.06902 0.38328 0.9711 0.0
H1009 H 0.08364 0.37552 0.76622 0.0
H1010 H 0.1159 0.34587 0.7913 0.0
H1011 H 0.13848 0.32089 0.87065 0.0
H1012 H 0.12268 0.32767 0.07517 0.0
H1013 H 0.09237 0.35928 0.05048 0.0
C1014 C 0.07926 0.37536 0.93142 0.0
C1015 C 0.07363 0.38193 0.8663 0.0
C1016 C 0.09759 0.3581 0.94625 0.0
C1017 C 0.0874 0.37114 0.81649 0.0
C1018 C 0.10585 0.35407 0.83096 0.0
C1019 C 0.12863 0.32929 0.91035 0.0
C1020 C 0.13314 0.32162 0.97524 0.0
C1021 C 0.11091 0.34722 0.89561 0.0
C1022 C 0.11994 0.33305 0.02514 0.0
C1023 C 0.10246 0.35111 0.01086 0.0
H1024 H 0.95084 0.88467 0.13754 0.0
H1025 H 0.93918 0.87003 0.34108 0.0
H1026 H 0.90755 0.84026 0.31242 0.0
H1027 H 0.88505 0.8168 0.23039 0.0
H1028 H 0.89697 0.83047 0.02654 0.0
H1029 H 0.92674 0.86232 0.05498 0.0
C1030 C 0.94131 0.87522 0.17608 0.0
C1031 C 0.94767 0.87986 0.24197 0.0
C1032 C 0.92325 0.85783 0.1591 0.0
C1033 C 0.93483 0.86718 0.29035 0.0
C1034 C 0.91676 0.85 0.27381 0.0
C1035 C 0.89384 0.82679 0.19159 0.0
C1036 C 0.88845 0.82096 0.12581 0.0
C1037 C 0.91107 0.84494 0.20841 0.0
C1038 C 0.90041 0.8344 0.07726 0.0
C1039 C 0.91756 0.8526 0.09368 0.0
H1040 H 0.38686 0.7042 0.38043 0.0
H1041 H 0.39912 0.68943 0.58383 0.0
H1042 H 0.42889 0.65793 0.55446 0.0
H1043 H 0.45269 0.6363 0.47217 0.0
H1044 H 0.44106 0.65101 0.26854 0.0
H1045 H 0.40948 0.68093 0.2974 0.0
C1046 C 0.39577 0.69402 0.41879 0.0
C1047 C 0.39049 0.69942 0.48484 0.0
C1048 C 0.41301 0.67599 0.40143 0.0
C1049 C 0.40252 0.68581 0.53298 0.0
C1050 C 0.41965 0.66781 0.51605 0.0
C1051 C 0.44319 0.64571 0.43345 0.0
C1052 C 0.44949 0.64108 0.36766 0.0
C1053 C 0.42522 0.66296 0.45052 0.0
C1054 C 0.43672 0.65386 0.31922 0.0
C1055 C 0.4187 0.67109 0.3359 0.0
H1056 H 0.63102 0.19841 0.71639 0.0
H1057 H 0.61621 0.18809 0.51221 0.0
H1058 H 0.58551 0.15707 0.53969 0.0
H1059 H 0.56159 0.1347 0.62167 0.0
H1060 H 0.57632 0.14578 0.82568 0.0
H1061 H 0.60863 0.17486 0.79766 0.0
C1062 C 0.62141 0.18932 0.67725 0.0
C1063 C 0.62623 0.19582 0.61173 0.0
C1064 C 0.60367 0.17172 0.69355 0.0
C1065 C 0.61321 0.18357 0.56271 0.0
C1066 C 0.59553 0.16588 0.5786 0.0
C1067 C 0.57192 0.1432 0.66047 0.0
C1068 C 0.56628 0.1378 0.72627 0.0
C1069 C 0.59041 0.16005 0.64389 0.0
C1070 C 0.5801 0.1493 0.77499 0.0
C1071 C 0.59857 0.16603 0.75884 0.0
H1072 H 0.97125 0.36915 0.98299 0.0
H1073 H 0.96175 0.35957 0.77669 0.0
H1074 H 0.93065 0.32847 0.79629 0.0
H1075 H 0.90459 0.3052 0.87224 0.0
H1076 H 0.91699 0.31212 0.07827 0.0
H1077 H 0.94845 0.34275 0.05846 0.0
C1078 C 0.96252 0.36021 0.94212 0.0
C1079 C 0.96867 0.36726 0.8782 0.0
C1080 C 0.945 0.3418 0.95378 0.0
C1081 C 0.95734 0.35496 0.82626 0.0
C1082 C 0.93947 0.33708 0.83751 0.0
C1083 C 0.91424 0.31327 0.91295 0.0
C1084 C 0.90788 0.30652 0.97698 0.0
C1085 C 0.93288 0.33057 0.90109 0.0
C1086 C 0.92106 0.317 0.02867 0.0
C1087 C 0.93915 0.3346 0.01731 0.0
H1088 H 0.46115 0.14813 0.61104 0.0
H1089 H 0.45738 0.16249 0.81666 0.0
H1090 H 0.42713 0.19432 0.79755 0.0
H1091 H 0.40031 0.21719 0.72305 0.0
H1092 H 0.40698 0.20606 0.51671 0.0
H1093 H 0.43751 0.17428 0.53546 0.0
C1094 C 0.45381 0.15824 0.6518 0.0
C1095 C 0.46131 0.15226 0.71563 0.0
C1096 C 0.43682 0.17725 0.64025 0.0
C1097 C 0.45182 0.16612 0.76728 0.0
C1098 C 0.43447 0.18449 0.75632 0.0
C1099 C 0.40851 0.20797 0.68197 0.0
C1100 C 0.40083 0.21392 0.61834 0.0
C1101 C 0.42659 0.19003 0.69311 0.0
C1102 C 0.41216 0.2019 0.56609 0.0
C1103 C 0.42968 0.18361 0.57687 0.0
H1104 H 0.5545 0.65101 0.48749 0.0
H1105 H 0.55962 0.66422 0.2816 0.0
H1106 H 0.59099 0.695 0.30074 0.0
H1107 H 0.61838 0.71723 0.37544 0.0
H1108 H 0.61042 0.7073 0.58187 0.0
H1109 H 0.57885 0.67654 0.563 0.0
C1110 C 0.56237 0.66065 0.44666 0.0
C1111 C 0.55491 0.65462 0.38279 0.0
C1112 C 0.58006 0.67902 0.45817 0.0
C1113 C 0.56512 0.66788 0.33104 0.0
C1114 C 0.58312 0.68564 0.34201 0.0
C1115 C 0.6097 0.70847 0.41651 0.0
C1116 C 0.61732 0.71445 0.48022 0.0
C1117 C 0.59099 0.69117 0.40529 0.0
C1118 C 0.60535 0.70307 0.53242 0.0
C1119 C 0.5872 0.68538 0.52159 0.0
H1120 H 0.11678 0.79994 0.23441 0.0
H1121 H 0.10084 0.80598 0.02993 0.0
H1122 H 0.06938 0.83627 0.05289 0.0
H1123 H 0.04752 0.86264 0.13055 0.0
H1124 H 0.06069 0.85401 0.33564 0.0
H1125 H 0.09171 0.82312 0.31298 0.0
C1126 C 0.10636 0.80775 0.19475 0.0
C1127 C 0.11171 0.80086 0.13015 0.0
C1128 C 0.08769 0.82481 0.20849 0.0
C1129 C 0.09756 0.81099 0.07989 0.0
C1130 C 0.07945 0.82839 0.09305 0.0
C1131 C 0.057 0.85389 0.17048 0.0
C1132 C 0.05185 0.86108 0.23493 0.0
C1133 C 0.07455 0.83569 0.15708 0.0
C1134 C 0.0642 0.84913 0.28571 0.0
C1135 C 0.08208 0.83144 0.27268 0.0
H1136 H 0.96512 0.65143 0.12322 0.0
H1137 H 0.95777 0.66115 0.33 0.0
H1138 H 0.92716 0.69286 0.3121 0.0
H1139 H 0.90099 0.71678 0.23778 0.0
H1140 H 0.91122 0.70988 0.03109 0.0
H1141 H 0.94212 0.67845 0.04898 0.0
C1142 C 0.95695 0.66052 0.16455 0.0
C1143 C 0.96358 0.65332 0.22816 0.0
C1144 C 0.9397 0.67933 0.15384 0.0
C1145 C 0.95298 0.66584 0.28066 0.0
C1146 C 0.93539 0.68409 0.27039 0.0
C1147 C 0.91002 0.70853 0.19646 0.0
C1148 C 0.90319 0.71555 0.13285 0.0
C1149 C 0.92836 0.69079 0.2072 0.0
C1150 C 0.91563 0.70482 0.08041 0.0
C1151 C 0.93341 0.68675 0.09068 0.0
H1152 H 0.06144 0.16583 0.82119 0.0
H1153 H 0.04905 0.1427 0.01845 0.0
H1154 H 0.07812 0.17302 0.05767 0.0
H1155 H 0.10886 0.20527 0.03643 0.0
H1156 H 0.12293 0.22639 0.83839 0.0
H1157 H 0.09175 0.1982 0.80008 0.0
C1158 C 0.06497 0.16744 0.87277 0.0
C1159 C 0.0529 0.15169 0.91634 0.0
C1160 C 0.08228 0.18474 0.89539 0.0
C1161 C 0.05797 0.1543 0.9832 0.0
C1162 C 0.0747 0.17175 1.00597 0.0
C1163 C 0.105 0.20389 0.98499 0.0
C1164 C 0.1185 0.21817 0.94076 0.0
C1165 C 0.08723 0.18696 0.96258 0.0
C1166 C 0.11309 0.21577 0.87405 0.0
C1167 C 0.09517 0.19952 0.85179 0.0
H1168 H 0.61621 0.29821 0.73693 0.0
H1169 H 0.60299 0.30497 0.53124 0.0
H1170 H 0.57081 0.33465 0.55192 0.0
H1171 H 0.54733 0.36017 0.62801 0.0
H1172 H 0.55758 0.35068 0.83399 0.0
H1173 H 0.58954 0.32056 0.8136 0.0
C1174 C 0.60627 0.30609 0.69652 0.0
C1175 C 0.61265 0.29961 0.6323 0.0
C1176 C 0.58709 0.32275 0.70886 0.0
C1177 C 0.59903 0.30976 0.58098 0.0
C1178 C 0.58046 0.32678 0.59282 0.0
C1179 C 0.55639 0.35142 0.66862 0.0
C1180 C 0.55015 0.35818 0.73269 0.0
C1181 C 0.5745 0.33365 0.6565 0.0
C1182 C 0.56196 0.34619 0.78431 0.0
C1183 C 0.58037 0.32891 0.77261 0.0
H1184 H 0.40184 0.80197 0.37552 0.0
H1185 H 0.41213 0.81093 0.58167 0.0
H1186 H 0.44363 0.84156 0.56208 0.0
H1187 H 0.46748 0.86711 0.48616 0.0
H1188 H 0.46047 0.85456 0.2803 0.0
H1189 H 0.42883 0.82416 0.3 0.0
C1190 C 0.41101 0.81051 0.41631 0.0
C1191 C 0.40405 0.80432 0.48024 0.0
C1192 C 0.42979 0.82766 0.40463 0.0
C1193 C 0.41665 0.81539 0.5321 0.0
C1194 C 0.43479 0.83298 0.52086 0.0
C1195 C 0.45913 0.85768 0.44548 0.0
C1196 C 0.46615 0.86375 0.38149 0.0
C1197 C 0.44135 0.83949 0.45731 0.0
C1198 C 0.45534 0.8508 0.32986 0.0
C1199 C 0.43717 0.83328 0.34115 0.0
H1200 H 0.94916 0.55854 0.05186 0.0
H1201 H 0.95217 0.51546 0.22642 0.0
H1202 H 0.94857 0.47801 0.16222 0.0
H1203 H 0.95486 0.45828 0.05613 0.0
H1204 H 0.9529 0.50137 0.88153 0.0
H1205 H 0.94522 0.53823 0.94569 0.0
C1206 C 0.94786 0.54095 0.07581 0.0
C1207 C 0.95107 0.53956 0.14343 0.0
C1208 C 0.94643 0.51961 0.03842 0.0
C1209 C 0.94952 0.51686 0.17444 0.0
C1210 C 0.94782 0.49547 0.13762 0.0
C1211 C 0.95164 0.47563 0.03219 0.0
C1212 C 0.95452 0.47735 0.96459 0.0
C1213 C 0.94775 0.49667 0.06952 0.0
C1214 C 0.95052 0.49974 0.93353 0.0
C1215 C 0.94644 0.5208 0.9703 0.0
H1216 H 0.81106 0.7015 0.30936 0.0
H1217 H 0.76788 0.70133 0.13442 0.0
H1218 H 0.73075 0.69503 0.19829 0.0
H1219 H 0.71063 0.69984 0.30426 0.0
H1220 H 0.75381 0.7012 0.47918 0.0
H1221 H 0.79111 0.69606 0.41531 0.0
C1222 C 0.7936 0.69894 0.28526 0.0
C1223 C 0.79198 0.70197 0.21765 0.0
C1224 C 0.77242 0.69591 0.32245 0.0
C1225 C 0.76945 0.69882 0.18641 0.0
C1226 C 0.74823 0.69555 0.22304 0.0
C1227 C 0.72816 0.69785 0.32837 0.0
C1228 C 0.72969 0.701 0.39598 0.0
C1229 C 0.74943 0.69552 0.29116 0.0
C1230 C 0.75231 0.69858 0.4272 0.0
C1231 C 0.77362 0.69599 0.39057 0.0
H1232 H 0.56784 0.51209 0.40428 0.0
H1233 H 0.55786 0.56271 0.56241 0.0
H1234 H 0.56248 0.52983 0.6407 0.0
H1235 H 0.5603 0.48597 0.6624 0.0
H1236 H 0.56998 0.43493 0.50515 0.0
H1237 H 0.5751 0.46854 0.42893 0.0
C1238 C 0.56769 0.51601 0.45587 0.0
C1239 C 0.56197 0.53962 0.47756 0.0
C1240 C 0.56985 0.49684 0.50095 0.0
C1241 C 0.56183 0.54453 0.5446 0.0
C1242 C 0.56434 0.52572 0.58949 0.0
C1243 C 0.56436 0.48224 0.61183 0.0
C1244 C 0.56433 0.45809 0.58933 0.0
C1245 C 0.56693 0.50165 0.56804 0.0
C1246 C 0.56984 0.45342 0.5238 0.0
C1247 C 0.57255 0.47266 0.47991 0.0
H1248 H 0.77805 0.31241 0.90949 0.0
H1249 H 0.82697 0.32567 0.74974 0.0
H1250 H 0.79236 0.32936 0.67568 0.0
H1251 H 0.74894 0.3197 0.65321 0.0
H1252 H 0.70077 0.30507 0.81354 0.0
H1253 H 0.734 0.31165 0.89034 0.0
C1254 C 0.78106 0.31692 0.85887 0.0
C1255 C 0.80498 0.31833 0.83501 0.0
C1256 C 0.76112 0.31853 0.81631 0.0
C1257 C 0.8087 0.32442 0.76943 0.0
C1258 C 0.78889 0.32631 0.72678 0.0
C1259 C 0.7456 0.31909 0.70505 0.0
C1260 C 0.72263 0.3118 0.72795 0.0
C1261 C 0.76509 0.32213 0.74908 0.0
C1262 C 0.71843 0.31065 0.79512 0.0
C1263 C 0.73746 0.31419 0.83902 0.0
H1264 H 0.20855 0.20233 0.78369 0.0
H1265 H 0.25114 0.2 0.95942 0.0
H1266 H 0.28811 0.19189 0.89632 0.0
H1267 H 0.30871 0.19643 0.79106 0.0
H1268 H 0.26619 0.2005 0.61539 0.0
H1269 H 0.22853 0.19612 0.67807 0.0
C1270 C 0.22578 0.19881 0.80809 0.0
C1271 C 0.22738 0.20176 0.87568 0.0
C1272 C 0.2469 0.19483 0.77131 0.0
C1273 C 0.24962 0.19752 0.90739 0.0
C1274 C 0.27075 0.19321 0.87122 0.0
C1275 C 0.29121 0.19507 0.76647 0.0
C1276 C 0.28999 0.19887 0.6991 0.0
C1277 C 0.26975 0.19335 0.80308 0.0
C1278 C 0.26743 0.19735 0.6672 0.0
C1279 C 0.24592 0.19524 0.70318 0.0
H1280 H 0.30427 0.81195 0.31196 0.0
H1281 H 0.2686 0.82078 0.49651 0.0
H1282 H 0.22934 0.82686 0.44129 0.0
H1283 H 0.20465 0.81997 0.34253 0.0
H1284 H 0.24086 0.80748 0.15976 0.0
H1285 H 0.2805 0.81301 0.21183 0.0
C1286 C 0.288 0.8161 0.33987 0.0
C1287 C 0.28909 0.81566 0.40792 0.0
C1288 C 0.26556 0.81851 0.30797 0.0
C1289 C 0.2681 0.82114 0.44397 0.0
C1290 C 0.24564 0.82429 0.41237 0.0
C1291 C 0.22118 0.81943 0.31371 0.0
C1292 C 0.21992 0.81303 0.24759 0.0
C1293 C 0.24399 0.82161 0.34461 0.0
C1294 C 0.24146 0.81218 0.21083 0.0
C1295 C 0.26412 0.8152 0.24065 0.0
H1296 H 0.45372 0.95541 0.55124 0.0
H1297 H 0.45249 0.99859 0.3768 0.0
H1298 H 0.44523 0.03553 0.44107 0.0
H1299 H 0.4491 0.05574 0.54736 0.0
H1300 H 0.45147 0.01257 0.72184 0.0
H1301 H 0.44768 0.97517 0.65742 0.0
C1302 C 0.45072 0.9728 0.52735 0.0
C1303 C 0.45362 0.97451 0.45975 0.0
C1304 C 0.44711 0.99387 0.56477 0.0
C1305 C 0.45002 0.99697 0.42877 0.0
C1306 C 0.44619 0.01807 0.46562 0.0
C1307 C 0.44766 0.03815 0.57124 0.0
C1308 C 0.45068 0.03672 0.63892 0.0
C1309 C 0.44609 0.01684 0.53374 0.0
C1310 C 0.44895 0.01401 0.66982 0.0
C1311 C 0.44713 0.99265 0.63288 0.0
H1312 H 0.07089 0.0187 0.91815 0.0
H1313 H 0.05598 0.06683 0.07852 0.0
H1314 H 0.06184 0.03344 0.15513 0.0
H1315 H 0.0615 0.98934 0.17309 0.0
H1316 H 0.07468 0.94054 0.01267 0.0
H1317 H 0.07991 0.97522 0.93994 0.0
C1318 C 0.07016 0.02198 0.97004 0.0
C1319 C 0.0631 0.04498 0.9931 0.0
C1320 C 0.07272 1.00243 0.01373 0.0
C1321 C 0.06163 0.04916 0.06019 0.0
C1322 C 0.06469 0.03004 0.10389 0.0
C1323 C 0.06638 0.98635 0.12269 0.0
C1324 C 0.0672 0.96249 0.09805 0.0
C1325 C 0.06879 1.00635 0.08085 0.0
C1326 C 0.07381 0.95878 0.03286 0.0
C1327 C 0.07658 0.97862 0.99097 0.0
H1328 H 0.03505 0.46031 0.57877 0.0
H1329 H 0.03677 0.51679 0.72469 0.0
H1330 H 0.03621 0.548 0.64074 0.0
H1331 H 0.03381 0.56022 0.52441 0.0
H1332 H 0.0339 0.50377 0.37837 0.0
H1333 H 0.03526 0.47255 0.46228 0.0
C1334 C 0.03555 0.47941 0.59242 0.0
C1335 C 0.03596 0.48572 0.6592 0.0
C1336 C 0.03545 0.49775 0.54307 0.0
C1337 C 0.03653 0.51088 0.67454 0.0
C1338 C 0.03614 0.529 0.62613 0.0
C1339 C 0.03435 0.54113 0.5107 0.0
C1340 C 0.03374 0.53481 0.44394 0.0
C1341 C 0.0354 0.52279 0.55999 0.0
C1342 C 0.03443 0.50967 0.42851 0.0
C1343 C 0.03514 0.49155 0.4769 0.0
H1344 H 0.81041 0.78388 0.83403 0.0
H1345 H 0.75377 0.78502 0.97911 0.0
H1346 H 0.72263 0.78522 0.89468 0.0
H1347 H 0.71046 0.78364 0.77801 0.0
H1348 H 0.76709 0.78425 0.6329 0.0
H1349 H 0.79823 0.7849 0.71732 0.0
C1350 C 0.7913 0.78442 0.84742 0.0
C1351 C 0.78494 0.78444 0.91416 0.0
C1352 C 0.77297 0.78475 0.79776 0.0
C1353 C 0.75974 0.78507 0.92906 0.0
C1354 C 0.74165 0.78511 0.88034 0.0
C1355 C 0.72957 0.78415 0.7646 0.0
C1356 C 0.73593 0.78389 0.69787 0.0
C1357 C 0.7479 0.78476 0.81425 0.0
C1358 C 0.76112 0.78451 0.68295 0.0
C1359 C 0.77921 0.78481 0.73166 0.0
H1360 H 0.4844 0.50684 0.19059 0.0
H1361 H 0.48766 0.57268 0.07634 0.0
H1362 H 0.48655 0.54839 0.97682 0.0
H1363 H 0.48655 0.5082 0.92063 0.0
H1364 H 0.48263 0.44235 0.03463 0.0
H1365 H 0.48197 0.46669 0.13414 0.0
C1366 C 0.48462 0.51602 0.14405 0.0
C1367 C 0.48623 0.54194 0.14223 0.0
C1368 C 0.48396 0.50176 0.08607 0.0
C1369 C 0.48652 0.55303 0.08051 0.0
C1370 C 0.4859 0.53902 0.02306 0.0
C1371 C 0.48528 0.49904 0.96707 0.0
C1372 C 0.48474 0.47308 0.96887 0.0
C1373 C 0.4849 0.51333 0.02498 0.0
C1374 C 0.48316 0.46203 0.03049 0.0
C1375 C 0.48281 0.47606 0.08793 0.0
H1376 H 0.75886 0.23912 0.16624 0.0
H1377 H 0.82507 0.23798 0.28002 0.0
H1378 H 0.80097 0.23538 0.3795 0.0
H1379 H 0.7609 0.23532 0.43599 0.0
H1380 H 0.6947 0.23602 0.32216 0.0
H1381 H 0.71881 0.23675 0.2225 0.0
C1382 C 0.76816 0.23806 0.21263 0.0
C1383 C 0.79411 0.23885 0.21445 0.0
C1384 C 0.75402 0.23658 0.27051 0.0
C1385 C 0.80537 0.23749 0.27594 0.0
C1386 C 0.79148 0.23603 0.33334 0.0
C1387 C 0.75162 0.23537 0.38949 0.0
C1388 C 0.72566 0.23568 0.38779 0.0
C1389 C 0.76576 0.23583 0.33151 0.0
C1390 C 0.71441 0.23583 0.32618 0.0
C1391 C 0.7283 0.23628 0.26867 0.0
H1392 H 0.30741 0.28464 0.32251 0.0
H1393 H 0.25104 0.28089 0.46801 0.0
H1394 H 0.21977 0.28075 0.38394 0.0
H1395 H 0.20744 0.28053 0.26725 0.0
H1396 H 0.2637 0.2864 0.12199 0.0
H1397 H 0.29496 0.2869 0.20611 0.0
C1398 C 0.28831 0.28402 0.33609 0.0
C1399 C 0.28208 0.2828 0.40282 0.0
C1400 C 0.26989 0.28422 0.28665 0.0
C1401 C 0.25691 0.28195 0.41796 0.0
C1402 C 0.23875 0.28178 0.36944 0.0
C1403 C 0.22649 0.2821 0.2538 0.0
C1404 C 0.23272 0.28343 0.18709 0.0
C1405 C 0.24487 0.28274 0.30332 0.0
C1406 C 0.25783 0.28545 0.17206 0.0
C1407 C 0.27599 0.28568 0.22059 0.0
H1408 H 0.2569 0.73426 0.66465 0.0
H1409 H 0.32257 0.73259 0.78062 0.0
H1410 H 0.29798 0.73132 0.87942 0.0
H1411 H 0.25772 0.73269 0.93446 0.0
H1412 H 0.19201 0.73422 0.81869 0.0
H1413 H 0.21656 0.73338 0.7197 0.0
C1414 C 0.26597 0.73335 0.71139 0.0
C1415 C 0.29191 0.73359 0.71407 0.0
C1416 C 0.25155 0.7327 0.76883 0.0
C1417 C 0.30288 0.73249 0.77594 0.0
C1418 C 0.28871 0.7318 0.83292 0.0
C1419 C 0.24862 0.73258 0.8877 0.0
C1420 C 0.2227 0.73357 0.88516 0.0
C1421 C 0.26301 0.73219 0.83022 0.0
C1422 C 0.21169 0.73349 0.82326 0.0
C1423 C 0.22583 0.73306 0.76618 0.0
H1424 H 0.53301 0.00986 0.18249 0.0
H1425 H 0.53441 0.94268 0.07326 0.0
H1426 H 0.53416 0.96586 0.97193 0.0
H1427 H 0.53161 1.00536 0.91271 0.0
H1428 H 0.5308 0.07252 0.02208 0.0
H1429 H 0.53287 0.04938 0.12327 0.0
C1430 C 0.53354 1.00016 0.13667 0.0
C1431 C 0.53364 0.97419 0.13678 0.0
C1432 C 0.53337 0.01376 0.0777 0.0
C1433 C 0.53424 0.96241 0.07594 0.0
C1434 C 0.53406 0.97577 0.01745 0.0
C1435 C 0.53213 0.01508 0.95852 0.0
C1436 C 0.53093 0.04102 0.9585 0.0
C1437 C 0.53334 1.00148 0.01746 0.0
C1438 C 0.5316 0.05282 0.01932 0.0
C1439 C 0.53277 0.03948 0.07774 0.0
H1440 H 0.98381 0.01075 0.69293 0.0
H1441 H 0.99365 0.0762 0.57978 0.0
H1442 H 0.99339 0.05185 0.48009 0.0
H1443 H 0.99211 0.01161 0.42399 0.0
H1444 H 0.98262 0.94617 0.53743 0.0
H1445 H 0.98094 0.97072 0.63657 0.0
C1446 C 0.98568 0.01986 0.64656 0.0
C1447 C 0.98872 0.04566 0.64504 0.0
C1448 C 0.98568 1.00556 0.5887 0.0
C1449 C 0.99122 0.05664 0.5836 0.0
C1450 C 0.99113 0.0426 0.52613 0.0
C1451 C 0.98941 1.00259 0.4702 0.0
C1452 C 0.98748 0.97669 0.47204 0.0
C1453 C 0.98861 0.01698 0.52789 0.0
C1454 C 0.98417 0.96581 0.53334 0.0
C1455 C 0.98324 0.97995 0.59053 0.0
loop_
_geom_bond_atom_site_label_1
_geom_bond_atom_site_label_2
_geom_bond_distance
_geom_bond_site_symmetry_2
_ccdc_geom_bond_type
Co0 O2 2.143 . S
Co0 O8 2.074 . S
Co0 O11 2.093 1_455 S
Co0 O24 2.097 1_455 S
Co0 N41 2.151 . S
Co0 N49 2.214 . S
Co1 O2 2.160 1_655 S
Co1 O7 2.058 1_655 S
Co1 O17 2.057 1_655 S
Co1 O32 2.037 . S
Co1 N36 2.145 . S
Co1 N57 2.257 . S
O2 Co0 2.143 . S
O2 Co1 2.160 1_455 S
C3 O4 1.278 . S
C3 O11 1.224 . S
O4 C3 1.278 . S
C5 O6 1.245 . S
C5 O17 1.232 . S
O6 C5 1.245 . S
O7 Co1 2.058 1_455 S
O7 C33 1.269 . S
O8 Co0 2.074 . S
O8 C33 1.257 . S
H9 C34 0.930 . S
H10 C40 0.930 . S
O11 Co0 2.093 1_655 S
O11 C3 1.224 . S
H12 C44 0.929 . S
H13 C46 0.930 . S
H14 C47 0.930 . S
H15 C45 0.929 . S
H16 C48 0.928 . S
O17 Co1 2.057 1_455 S
O17 C5 1.232 . S
H18 C37 0.929 . S
H19 C38 0.929 . S
H20 C50 0.931 . S
H21 C42 0.929 . S
H22 C51 0.930 . S
H23 C43 0.931 . S
O24 Co0 2.097 1_655 S
O24 C52 1.214 . S
H25 C53 0.929 . S
H26 C54 0.929 . S
H27 C55 0.930 . S
H28 C56 0.929 . S
H29 C58 0.930 . S
H30 C35 0.930 . S
H31 C39 0.930 . S
O32 Co1 2.037 . S
O32 C52 1.234 . S
C33 O7 1.269 . S
C33 O8 1.257 . S
C34 H9 0.930 . S
C34 C37 1.388 . S
C34 C39 1.418 . S
C35 H30 0.930 . S
C35 C38 1.404 . S
C35 C39 1.353 . S
N36 Co1 2.145 . S
N36 C37 1.397 . S
N36 C38 1.334 . S
C37 H18 0.929 . S
C37 C34 1.388 . S
C37 N36 1.397 . S
C38 H19 0.929 . S
C38 C35 1.404 . S
C38 N36 1.334 . S
C39 H31 0.930 . S
C39 C34 1.418 . S
C39 C35 1.353 . S
C40 H10 0.930 . S
C40 N41 1.330 . S
C40 C42 1.446 . S
N41 Co0 2.151 . S
N41 C40 1.330 . S
N41 C45 1.418 . S
C42 H21 0.929 . S
C42 C40 1.446 . S
C42 C43 1.332 . S
C43 H23 0.931 . S
C43 C42 1.332 . S
C43 C44 1.267 . S
C44 H12 0.929 . S
C44 C43 1.267 . S
C44 C45 1.251 . S
C45 H15 0.929 . S
C45 N41 1.418 . S
C45 C44 1.251 . S
C46 H13 0.930 . S
C46 C48 1.406 1_556 S
C46 C51 1.261 . S
C47 H14 0.930 . S
C47 N49 1.325 . S
C47 C50 1.357 . S
C48 H16 0.928 . S
C48 C46 1.406 1_554 S
C48 N49 1.261 . S
N49 Co0 2.214 . S
N49 C47 1.325 . S
N49 C48 1.261 . S
C50 H20 0.931 . S
C50 C47 1.357 . S
C50 C51 1.312 1_554 S
C51 H22 0.930 . S
C51 C46 1.261 . S
C51 C50 1.312 1_556 S
C52 O24 1.214 . S
C52 O32 1.234 . S
C53 H25 0.929 . S
C53 C56 1.391 . S
C53 C58 1.391 . S
C54 H26 0.929 . S
C54 C55 1.390 . S
C54 N57 1.391 . S
C55 H27 0.930 . S
C55 C54 1.390 . S
C55 C56 1.392 . S
C56 H28 0.929 . S
C56 C53 1.391 . S
C56 C55 1.392 . S
N57 Co1 2.257 . S
N57 C54 1.391 . S
N57 C58 1.388 . S
C58 H29 0.930 . S
C58 C53 1.391 . S
C58 N57 1.388 . S
Co59 O61 2.143 . S
Co59 O67 2.074 . S
Co59 O70 2.093 . S
Co59 O83 2.097 . S
Co59 N100 2.151 . S
Co59 N108 2.214 . S
Co60 O61 2.160 . S
Co60 O66 2.058 . S
Co60 O76 2.057 . S
Co60 O91 2.037 . S
Co60 N95 2.145 . S
Co60 N116 2.257 . S
O61 Co59 2.143 . S
O61 Co60 2.160 . S
C62 O63 1.278 . S
C62 O70 1.224 . S
O63 C62 1.278 . S
C64 O65 1.245 . S
C64 O76 1.232 . S
O65 C64 1.245 . S
O66 Co60 2.058 . S
O66 C92 1.269 . S
O67 Co59 2.074 . S
O67 C92 1.257 . S
H68 C93 0.930 . S
H69 C99 0.930 . S
O70 Co59 2.093 . S
O70 C62 1.224 . S
H71 C103 0.929 . S
H72 C105 0.930 . S
H73 C106 0.930 . S
H74 C104 0.929 . S
H75 C107 0.928 . S
O76 Co60 2.057 . S
O76 C64 1.232 . S
H77 C96 0.929 . S
H78 C97 0.929 . S
H79 C109 0.931 . S
H80 C101 0.929 . S
H81 C110 0.930 . S
H82 C102 0.931 . S
O83 Co59 2.097 . S
O83 C111 1.214 . S
H84 C112 0.929 . S
H85 C113 0.929 . S
H86 C114 0.930 . S
H87 C115 0.929 . S
H88 C117 0.930 . S
H89 C94 0.930 . S
H90 C98 0.930 . S
O91 Co60 2.037 . S
O91 C111 1.234 . S
C92 O66 1.269 . S
C92 O67 1.257 . S
C93 H68 0.930 . S
C93 C96 1.388 . S
C93 C98 1.418 . S
C94 H89 0.930 . S
C94 C97 1.404 . S
C94 C98 1.353 . S
N95 Co60 2.145 . S
N95 C96 1.397 . S
N95 C97 1.334 . S
C96 H77 0.929 . S
C96 C93 1.388 . S
C96 N95 1.397 . S
C97 H78 0.929 . S
C97 C94 1.404 . S
C97 N95 1.334 . S
C98 H90 0.930 . S
C98 C93 1.418 . S
C98 C94 1.353 . S
C99 H69 0.930 . S
C99 N100 1.330 . S
C99 C101 1.446 . S
N100 Co59 2.151 . S
N100 C99 1.330 . S
N100 C104 1.418 . S
C101 H80 0.929 . S
C101 C99 1.446 . S
C101 C102 1.332 . S
C102 H82 0.931 . S
C102 C101 1.332 . S
C102 C103 1.267 . S
C103 H71 0.929 . S
C103 C102 1.267 . S
C103 C104 1.251 . S
C104 H74 0.929 . S
C104 N100 1.418 . S
C104 C103 1.251 . S
C105 H72 0.930 . S
C105 C107 1.406 . S
C105 C110 1.261 . S
C106 H73 0.930 . S
C106 N108 1.325 . S
C106 C109 1.357 . S
C107 H75 0.928 . S
C107 C105 1.406 . S
C107 N108 1.261 . S
N108 Co59 2.214 . S
N108 C106 1.325 . S
N108 C107 1.261 . S
C109 H79 0.931 . S
C109 C106 1.357 . S
C109 C110 1.312 . S
C110 H81 0.930 . S
C110 C105 1.261 . S
C110 C109 1.312 . S
C111 O83 1.214 . S
C111 O91 1.234 . S
C112 H84 0.929 . S
C112 C115 1.391 . S
C112 C117 1.391 . S
C113 H85 0.929 . S
C113 C114 1.390 . S
C113 N116 1.391 . S
C114 H86 0.930 . S
C114 C113 1.390 . S
C114 C115 1.392 . S
C115 H87 0.929 . S
C115 C112 1.391 . S
C115 C114 1.392 . S
N116 Co60 2.257 . S
N116 C113 1.391 . S
N116 C117 1.388 . S
C117 H88 0.930 . S
C117 C112 1.391 . S
C117 N116 1.388 . S
Co118 O120 2.143 . S
Co118 O126 2.074 . S
Co118 O129 2.093 . S
Co118 O142 2.097 . S
Co118 N159 2.151 . S
Co118 N167 2.214 . S
Co119 O120 2.160 . S
Co119 O125 2.058 . S
Co119 O135 2.057 . S
Co119 O150 2.037 . S
Co119 N154 2.145 . S
Co119 N175 2.257 . S
O120 Co118 2.143 . S
O120 Co119 2.160 . S
C121 O122 1.278 . S
C121 O129 1.224 . S
O122 C121 1.278 . S
C123 O124 1.245 . S
C123 O135 1.232 . S
O124 C123 1.245 . S
O125 Co119 2.058 . S
O125 C151 1.269 . S
O126 Co118 2.074 . S
O126 C151 1.257 . S
H127 C152 0.930 . S
H128 C158 0.930 . S
O129 Co118 2.093 . S
O129 C121 1.224 . S
H130 C162 0.929 . S
H131 C164 0.930 . S
H132 C165 0.930 . S
H133 C163 0.929 . S
H134 C166 0.928 . S
O135 Co119 2.057 . S
O135 C123 1.232 . S
H136 C155 0.929 . S
H137 C156 0.929 . S
H138 C168 0.931 . S
H139 C160 0.929 . S
H140 C169 0.930 . S
H141 C161 0.931 . S
O142 Co118 2.097 . S
O142 C170 1.214 . S
H143 C171 0.929 . S
H144 C172 0.929 . S
H145 C173 0.930 . S
H146 C174 0.929 . S
H147 C176 0.930 . S
H148 C153 0.930 . S
H149 C157 0.930 1_554 S
O150 Co119 2.037 . S
O150 C170 1.234 . S
C151 O125 1.269 . S
C151 O126 1.257 . S
C152 H127 0.930 . S
C152 C155 1.388 . S
C152 C157 1.418 . S
C153 H148 0.930 . S
C153 C156 1.404 1_554 S
C153 C157 1.353 1_554 S
N154 Co119 2.145 . S
N154 C155 1.397 . S
N154 C156 1.334 . S
C155 H136 0.929 . S
C155 C152 1.388 . S
C155 N154 1.397 . S
C156 H137 0.929 . S
C156 C153 1.404 1_556 S
C156 N154 1.334 . S
C157 H149 0.930 1_556 S
C157 C152 1.418 . S
C157 C153 1.353 1_556 S
C158 H128 0.930 . S
C158 N159 1.330 . S
C158 C160 1.446 . S
N159 Co118 2.151 . S
N159 C158 1.330 . S
N159 C163 1.418 . S
C160 H139 0.929 . S
C160 C158 1.446 . S
C160 C161 1.332 . S
C161 H141 0.931 . S
C161 C160 1.332 . S
C161 C162 1.267 . S
C162 H130 0.929 . S
C162 C161 1.267 . S
C162 C163 1.251 . S
C163 H133 0.929 . S
C163 N159 1.418 . S
C163 C162 1.251 . S
C164 H131 0.930 . S
C164 C166 1.406 . S
C164 C169 1.261 . S
C165 H132 0.930 . S
C165 N167 1.325 . S
C165 C168 1.357 . S
C166 H134 0.928 . S
C166 C164 1.406 . S
C166 N167 1.261 . S
N167 Co118 2.214 . S
N167 C165 1.325 . S
N167 C166 1.261 . S
C168 H138 0.931 . S
C168 C165 1.357 . S
C168 C169 1.312 . S
C169 H140 0.930 . S
C169 C164 1.261 . S
C169 C168 1.312 . S
C170 O142 1.214 . S
C170 O150 1.234 . S
C171 H143 0.929 . S
C171 C174 1.391 . S
C171 C176 1.391 . S
C172 H144 0.929 . S
C172 C173 1.390 . S
C172 N175 1.391 . S
C173 H145 0.930 . S
C173 C172 1.390 . S
C173 C174 1.392 . S
C174 H146 0.929 . S
C174 C171 1.391 . S
C174 C173 1.392 . S
N175 Co119 2.257 . S
N175 C172 1.391 . S
N175 C176 1.388 . S
C176 H147 0.930 . S
C176 C171 1.391 . S
C176 N175 1.388 . S
Co177 O179 2.143 1_556 S
Co177 O185 2.074 . S
Co177 O188 2.093 . S
Co177 O201 2.097 . S
Co177 N218 2.151 . S
Co177 N226 2.214 . S
Co178 O179 2.160 . S
Co178 O184 2.058 . S
Co178 O194 2.057 . S
Co178 O209 2.037 . S
Co178 N213 2.145 . S
Co178 N234 2.257 . S
O179 Co177 2.143 1_554 S
O179 Co178 2.160 . S
C180 O181 1.278 . S
C180 O188 1.224 . S
O181 C180 1.278 . S
C182 O183 1.245 . S
C182 O194 1.232 . S
O183 C182 1.245 . S
O184 Co178 2.058 . S
O184 C210 1.269 . S
O185 Co177 2.074 . S
O185 C210 1.257 1_556 S
H186 C211 0.930 . S
H187 C217 0.930 . S
O188 Co177 2.093 . S
O188 C180 1.224 . S
H189 C221 0.929 . S
H190 C223 0.930 . S
H191 C224 0.930 . S
H192 C222 0.929 . S
H193 C225 0.928 . S
O194 Co178 2.057 . S
O194 C182 1.232 . S
H195 C214 0.929 . S
H196 C215 0.929 . S
H197 C227 0.931 . S
H198 C219 0.929 . S
H199 C228 0.930 . S
H200 C220 0.931 . S
O201 Co177 2.097 . S
O201 C229 1.214 . S
H202 C230 0.929 . S
H203 C231 0.929 . S
H204 C232 0.930 . S
H205 C233 0.929 . S
H206 C235 0.930 . S
H207 C212 0.930 . S
H208 C216 0.930 . S
O209 Co178 2.037 . S
O209 C229 1.234 1_554 S
C210 O184 1.269 . S
C210 O185 1.257 1_554 S
C211 H186 0.930 . S
C211 C214 1.388 . S
C211 C216 1.418 . S
C212 H207 0.930 . S
C212 C215 1.404 . S
C212 C216 1.353 . S
N213 Co178 2.145 . S
N213 C214 1.397 . S
N213 C215 1.334 . S
C214 H195 0.929 . S
C214 C211 1.388 . S
C214 N213 1.397 . S
C215 H196 0.929 . S
C215 C212 1.404 . S
C215 N213 1.334 . S
C216 H208 0.930 . S
C216 C211 1.418 . S
C216 C212 1.353 . S
C217 H187 0.930 . S
C217 N218 1.330 . S
C217 C219 1.446 . S
N218 Co177 2.151 . S
N218 C217 1.330 . S
N218 C222 1.418 . S
C219 H198 0.929 . S
C219 C217 1.446 . S
C219 C220 1.332 . S
C220 H200 0.931 . S
C220 C219 1.332 . S
C220 C221 1.267 . S
C221 H189 0.929 . S
C221 C220 1.267 . S
C221 C222 1.251 . S
C222 H192 0.929 . S
C222 N218 1.418 . S
C222 C221 1.251 . S
C223 H190 0.930 . S
C223 C225 1.406 . S
C223 C228 1.261 . S
C224 H191 0.930 . S
C224 N226 1.325 . S
C224 C227 1.357 . S
C225 H193 0.928 . S
C225 C223 1.406 . S
C225 N226 1.261 . S
N226 Co177 2.214 . S
N226 C224 1.325 . S
N226 C225 1.261 . S
C227 H197 0.931 . S
C227 C224 1.357 . S
C227 C228 1.312 . S
C228 H199 0.930 . S
C228 C223 1.261 . S
C228 C227 1.312 . S
C229 O201 1.214 . S
C229 O209 1.234 1_556 S
C230 H202 0.929 . S
C230 C233 1.391 . S
C230 C235 1.391 . S
C231 H203 0.929 . S
C231 C232 1.390 . S
C231 N234 1.391 . S
C232 H204 0.930 . S
C232 C231 1.390 . S
C232 C233 1.392 . S
C233 H205 0.929 . S
C233 C230 1.391 . S
C233 C232 1.392 . S
N234 Co178 2.257 . S
N234 C231 1.391 . S
N234 C235 1.388 . S
C235 H206 0.930 . S
C235 C230 1.391 . S
C235 N234 1.388 . S
Co236 O238 2.143 . S
Co236 O244 2.074 . S
Co236 O247 2.093 1_455 S
Co236 O260 2.097 1_455 S
Co236 N277 2.151 . S
Co236 N285 2.214 1_556 S
Co237 O238 2.160 1_655 S
Co237 O243 2.058 1_655 S
Co237 O253 2.057 1_655 S
Co237 O268 2.037 . S
Co237 N272 2.145 . S
Co237 N293 2.257 . S
O238 Co236 2.143 . S
O238 Co237 2.160 1_455 S
C239 O240 1.278 . S
C239 O247 1.224 . S
O240 C239 1.278 . S
C241 O242 1.245 . S
C241 O253 1.232 . S
O242 C241 1.245 . S
O243 Co237 2.058 1_455 S
O243 C269 1.269 . S
O244 Co236 2.074 . S
O244 C269 1.257 . S
H245 C270 0.930 . S
H246 C276 0.930 . S
O247 Co236 2.093 1_655 S
O247 C239 1.224 . S
H248 C280 0.929 . S
H249 C282 0.930 . S
H250 C283 0.930 1_556 S
H251 C281 0.929 . S
H252 C284 0.928 . S
O253 Co237 2.057 1_455 S
O253 C241 1.232 . S
H254 C273 0.929 . S
H255 C274 0.929 . S
H256 C286 0.931 . S
H257 C278 0.929 . S
H258 C287 0.930 . S
H259 C279 0.931 . S
O260 Co236 2.097 1_655 S
O260 C288 1.214 . S
H261 C289 0.929 . S
H262 C290 0.929 . S
H263 C291 0.930 . S
H264 C292 0.929 . S
H265 C294 0.930 . S
H266 C271 0.930 . S
H267 C275 0.930 . S
O268 Co237 2.037 . S
O268 C288 1.234 . S
C269 O243 1.269 . S
C269 O244 1.257 . S
C270 H245 0.930 . S
C270 C273 1.388 . S
C270 C275 1.418 . S
C271 H266 0.930 . S
C271 C274 1.404 . S
C271 C275 1.353 . S
N272 Co237 2.145 . S
N272 C273 1.397 . S
N272 C274 1.334 . S
C273 H254 0.929 . S
C273 C270 1.388 . S
C273 N272 1.397 . S
C274 H255 0.929 . S
C274 C271 1.404 . S
C274 N272 1.334 . S
C275 H267 0.930 . S
C275 C270 1.418 . S
C275 C271 1.353 . S
C276 H246 0.930 . S
C276 N277 1.330 . S
C276 C278 1.446 . S
N277 Co236 2.151 . S
N277 C276 1.330 . S
N277 C281 1.418 . S
C278 H257 0.929 . S
C278 C276 1.446 . S
C278 C279 1.332 . S
C279 H259 0.931 . S
C279 C278 1.332 . S
C279 C280 1.267 . S
C280 H248 0.929 . S
C280 C279 1.267 . S
C280 C281 1.251 . S
C281 H251 0.929 . S
C281 N277 1.418 . S
C281 C280 1.251 . S
C282 H249 0.930 . S
C282 C284 1.406 . S
C282 C287 1.261 . S
C283 H250 0.930 1_554 S
C283 N285 1.325 . S
C283 C286 1.357 . S
C284 H252 0.928 . S
C284 C282 1.406 . S
C284 N285 1.261 . S
N285 Co236 2.214 1_554 S
N285 C283 1.325 . S
N285 C284 1.261 . S
C286 H256 0.931 . S
C286 C283 1.357 . S
C286 C287 1.312 . S
C287 H258 0.930 . S
C287 C282 1.261 . S
C287 C286 1.312 . S
C288 O260 1.214 . S
C288 O268 1.234 . S
C289 H261 0.929 . S
C289 C292 1.391 . S
C289 C294 1.391 . S
C290 H262 0.929 . S
C290 C291 1.390 . S
C290 N293 1.391 . S
C291 H263 0.930 . S
C291 C290 1.390 . S
C291 C292 1.392 . S
C292 H264 0.929 . S
C292 C289 1.391 . S
C292 C291 1.392 . S
N293 Co237 2.257 . S
N293 C290 1.391 . S
N293 C294 1.388 . S
C294 H265 0.930 . S
C294 C289 1.391 . S
C294 N293 1.388 . S
Co295 O297 2.143 . S
Co295 O303 2.074 . S
Co295 O306 2.093 . S
Co295 O319 2.097 . S
Co295 N336 2.151 . S
Co295 N344 2.214 . S
Co296 O297 2.160 . S
Co296 O302 2.058 . S
Co296 O312 2.057 1_554 S
Co296 O327 2.037 . S
Co296 N331 2.145 1_554 S
Co296 N352 2.257 . S
O297 Co295 2.143 . S
O297 Co296 2.160 . S
C298 O299 1.278 . S
C298 O306 1.224 . S
O299 C298 1.278 . S
C300 O301 1.245 . S
C300 O312 1.232 . S
O301 C300 1.245 . S
O302 Co296 2.058 . S
O302 C328 1.269 . S
O303 Co295 2.074 . S
O303 C328 1.257 . S
H304 C329 0.930 . S
H305 C335 0.930 . S
O306 Co295 2.093 . S
O306 C298 1.224 . S
H307 C339 0.929 . S
H308 C341 0.930 . S
H309 C342 0.930 . S
H310 C340 0.929 . S
H311 C343 0.928 . S
O312 Co296 2.057 1_556 S
O312 C300 1.232 . S
H313 C332 0.929 . S
H314 C333 0.929 . S
H315 C345 0.931 . S
H316 C337 0.929 . S
H317 C346 0.930 . S
H318 C338 0.931 . S
O319 Co295 2.097 . S
O319 C347 1.214 . S
H320 C348 0.930 . S
H321 C349 0.929 . S
H322 C350 0.930 . S
H323 C351 0.929 . S
H324 C353 0.930 . S
H325 C330 0.930 . S
H326 C334 0.930 . S
O327 Co296 2.037 . S
O327 C347 1.234 . S
C328 O302 1.269 . S
C328 O303 1.257 . S
C329 H304 0.930 . S
C329 C332 1.388 . S
C329 C334 1.418 . S
C330 H325 0.930 . S
C330 C333 1.404 . S
C330 C334 1.353 . S
N331 Co296 2.145 1_556 S
N331 C332 1.397 . S
N331 C333 1.334 . S
C332 H313 0.929 . S
C332 C329 1.388 . S
C332 N331 1.397 . S
C333 H314 0.929 . S
C333 C330 1.404 . S
C333 N331 1.334 . S
C334 H326 0.930 . S
C334 C329 1.418 . S
C334 C330 1.353 . S
C335 H305 0.930 . S
C335 N336 1.330 . S
C335 C337 1.446 . S
N336 Co295 2.151 . S
N336 C335 1.330 . S
N336 C340 1.418 . S
C337 H316 0.929 . S
C337 C335 1.446 . S
C337 C338 1.332 . S
C338 H318 0.931 . S
C338 C337 1.332 . S
C338 C339 1.267 . S
C339 H307 0.929 . S
C339 C338 1.267 . S
C339 C340 1.251 . S
C340 H310 0.929 . S
C340 N336 1.418 . S
C340 C339 1.251 . S
C341 H308 0.930 . S
C341 C343 1.406 . S
C341 C346 1.261 . S
C342 H309 0.930 . S
C342 N344 1.325 . S
C342 C345 1.357 . S
C343 H311 0.928 . S
C343 C341 1.406 . S
C343 N344 1.261 . S
N344 Co295 2.214 . S
N344 C342 1.325 . S
N344 C343 1.261 . S
C345 H315 0.931 . S
C345 C342 1.357 . S
C345 C346 1.312 . S
C346 H317 0.930 . S
C346 C341 1.261 . S
C346 C345 1.312 . S
C347 O319 1.214 . S
C347 O327 1.234 . S
C348 H320 0.930 . S
C348 C351 1.390 1_556 S
C348 C353 1.391 . S
C349 H321 0.929 . S
C349 C350 1.390 . S
C349 N352 1.391 . S
C350 H322 0.930 . S
C350 C349 1.390 . S
C350 C351 1.392 . S
C351 H323 0.929 . S
C351 C348 1.390 1_554 S
C351 C350 1.392 . S
N352 Co296 2.257 . S
N352 C349 1.391 . S
N352 C353 1.388 1_554 S
C353 H324 0.930 . S
C353 C348 1.391 . S
C353 N352 1.388 1_556 S
Co354 O356 2.143 . S
Co354 O362 2.074 . S
Co354 O365 2.093 . S
Co354 O378 2.097 . S
Co354 N395 2.151 . S
Co354 N403 2.214 . S
Co355 O356 2.160 . S
Co355 O361 2.058 . S
Co355 O371 2.057 . S
Co355 O386 2.037 . S
Co355 N390 2.145 . S
Co355 N411 2.257 . S
O356 Co354 2.143 . S
O356 Co355 2.160 . S
C357 O358 1.278 . S
C357 O365 1.224 . S
O358 C357 1.278 . S
C359 O360 1.245 . S
C359 O371 1.232 . S
O360 C359 1.245 . S
O361 Co355 2.058 . S
O361 C387 1.269 . S
O362 Co354 2.074 . S
O362 C387 1.257 . S
H363 C388 0.930 . S
H364 C394 0.930 . S
O365 Co354 2.093 . S
O365 C357 1.224 . S
H366 C398 0.929 . S
H367 C400 0.930 . S
H368 C401 0.930 . S
H369 C399 0.929 . S
H370 C402 0.928 . S
O371 Co355 2.057 . S
O371 C359 1.232 . S
H372 C391 0.929 . S
H373 C392 0.929 . S
H374 C404 0.931 . S
H375 C396 0.929 . S
H376 C405 0.930 . S
H377 C397 0.931 . S
O378 Co354 2.097 . S
O378 C406 1.214 . S
H379 C407 0.929 . S
H380 C408 0.929 . S
H381 C409 0.930 . S
H382 C410 0.929 . S
H383 C412 0.930 . S
H384 C389 0.930 . S
H385 C393 0.930 . S
O386 Co355 2.037 . S
O386 C406 1.234 . S
C387 O361 1.269 . S
C387 O362 1.257 . S
C388 H363 0.930 . S
C388 C391 1.388 . S
C388 C393 1.418 . S
C389 H384 0.930 . S
C389 C392 1.404 . S
C389 C393 1.353 . S
N390 Co355 2.145 . S
N390 C391 1.397 . S
N390 C392 1.334 . S
C391 H372 0.929 . S
C391 C388 1.388 . S
C391 N390 1.397 . S
C392 H373 0.929 . S
C392 C389 1.404 . S
C392 N390 1.334 . S
C393 H385 0.930 . S
C393 C388 1.418 . S
C393 C389 1.353 . S
C394 H364 0.930 . S
C394 N395 1.330 . S
C394 C396 1.446 . S
N395 Co354 2.151 . S
N395 C394 1.330 . S
N395 C399 1.418 . S
C396 H375 0.929 . S
C396 C394 1.446 . S
C396 C397 1.332 . S
C397 H377 0.931 . S
C397 C396 1.332 . S
C397 C398 1.267 . S
C398 H366 0.929 . S
C398 C397 1.267 . S
C398 C399 1.251 . S
C399 H369 0.929 . S
C399 N395 1.418 . S
C399 C398 1.251 . S
C400 H367 0.930 . S
C400 C402 1.406 . S
C400 C405 1.261 . S
C401 H368 0.930 . S
C401 N403 1.325 . S
C401 C404 1.357 . S
C402 H370 0.928 . S
C402 C400 1.406 . S
C402 N403 1.261 . S
N403 Co354 2.214 . S
N403 C401 1.325 . S
N403 C402 1.261 . S
C404 H374 0.931 . S
C404 C401 1.357 . S
C404 C405 1.312 . S
C405 H376 0.930 . S
C405 C400 1.261 . S
C405 C404 1.312 . S
C406 O378 1.214 . S
C406 O386 1.234 . S
C407 H379 0.929 . S
C407 C410 1.391 . S
C407 C412 1.391 . S
C408 H380 0.929 . S
C408 C409 1.390 . S
C408 N411 1.391 . S
C409 H381 0.930 . S
C409 C408 1.390 . S
C409 C410 1.392 . S
C410 H382 0.929 . S
C410 C407 1.391 . S
C410 C409 1.392 . S
N411 Co355 2.257 . S
N411 C408 1.391 . S
N411 C412 1.388 . S
C412 H383 0.930 . S
C412 C407 1.391 . S
C412 N411 1.388 . S
Co413 O415 2.143 . S
Co413 O421 2.074 . S
Co413 O424 2.093 . S
Co413 O437 2.097 . S
Co413 N454 2.151 . S
Co413 N462 2.214 . S
Co414 O415 2.160 . S
Co414 O420 2.058 . S
Co414 O430 2.057 . S
Co414 O445 2.037 . S
Co414 N449 2.145 . S
Co414 N470 2.257 . S
O415 Co413 2.143 . S
O415 Co414 2.160 . S
C416 O417 1.278 . S
C416 O424 1.224 . S
O417 C416 1.278 . S
C418 O419 1.245 . S
C418 O430 1.232 . S
O419 C418 1.245 . S
O420 Co414 2.058 . S
O420 C446 1.269 . S
O421 Co413 2.074 . S
O421 C446 1.257 . S
H422 C447 0.930 . S
H423 C453 0.930 . S
O424 Co413 2.093 . S
O424 C416 1.224 . S
H425 C457 0.929 . S
H426 C459 0.930 . S
H427 C460 0.930 . S
H428 C458 0.929 . S
H429 C461 0.928 . S
O430 Co414 2.057 . S
O430 C418 1.232 . S
H431 C450 0.929 . S
H432 C451 0.929 . S
H433 C463 0.931 . S
H434 C455 0.929 . S
H435 C464 0.930 . S
H436 C456 0.931 . S
O437 Co413 2.097 . S
O437 C465 1.214 . S
H438 C466 0.929 . S
H439 C467 0.929 . S
H440 C468 0.930 . S
H441 C469 0.929 . S
H442 C471 0.930 . S
H443 C448 0.930 . S
H444 C452 0.930 . S
O445 Co414 2.037 . S
O445 C465 1.234 . S
C446 O420 1.269 . S
C446 O421 1.257 . S
C447 H422 0.930 . S
C447 C450 1.388 . S
C447 C452 1.418 . S
C448 H443 0.930 . S
C448 C451 1.404 . S
C448 C452 1.353 . S
N449 Co414 2.145 . S
N449 C450 1.397 . S
N449 C451 1.334 . S
C450 H431 0.929 . S
C450 C447 1.388 . S
C450 N449 1.397 . S
C451 H432 0.929 . S
C451 C448 1.404 . S
C451 N449 1.334 . S
C452 H444 0.930 . S
C452 C447 1.418 . S
C452 C448 1.353 . S
C453 H423 0.930 . S
C453 N454 1.330 . S
C453 C455 1.446 . S
N454 Co413 2.151 . S
N454 C453 1.330 . S
N454 C458 1.418 . S
C455 H434 0.929 . S
C455 C453 1.446 . S
C455 C456 1.332 . S
C456 H436 0.931 . S
C456 C455 1.332 . S
C456 C457 1.267 . S
C457 H425 0.929 . S
C457 C456 1.267 . S
C457 C458 1.251 . S
C458 H428 0.929 . S
C458 N454 1.418 . S
C458 C457 1.251 . S
C459 H426 0.930 . S
C459 C461 1.406 . S
C459 C464 1.261 . S
C460 H427 0.930 . S
C460 N462 1.325 . S
C460 C463 1.357 . S
C461 H429 0.928 . S
C461 C459 1.406 . S
C461 N462 1.261 . S
N462 Co413 2.214 . S
N462 C460 1.325 . S
N462 C461 1.261 . S
C463 H433 0.931 . S
C463 C460 1.357 . S
C463 C464 1.312 . S
C464 H435 0.930 . S
C464 C459 1.261 . S
C464 C463 1.312 . S
C465 O437 1.214 . S
C465 O445 1.234 . S
C466 H438 0.929 . S
C466 C469 1.391 . S
C466 C471 1.391 . S
C467 H439 0.929 . S
C467 C468 1.390 . S
C467 N470 1.391 . S
C468 H440 0.930 . S
C468 C467 1.390 . S
C468 C469 1.392 . S
C469 H441 0.929 . S
C469 C466 1.391 . S
C469 C468 1.392 . S
N470 Co414 2.257 . S
N470 C467 1.391 . S
N470 C471 1.388 . S
C471 H442 0.930 . S
C471 C466 1.391 . S
C471 N470 1.388 . S
Co472 O474 2.143 . S
Co472 O480 2.074 . S
Co472 O483 2.093 . S
Co472 O496 2.097 . S
Co472 N513 2.151 . S
Co472 N521 2.214 . S
Co473 O474 2.160 . S
Co473 O479 2.058 . S
Co473 O489 2.057 . S
Co473 O504 2.037 . S
Co473 N508 2.145 . S
Co473 N529 2.257 . S
O474 Co472 2.143 . S
O474 Co473 2.160 . S
C475 O476 1.278 . S
C475 O483 1.224 . S
O476 C475 1.278 . S
C477 O478 1.245 . S
C477 O489 1.232 . S
O478 C477 1.245 . S
O479 Co473 2.058 . S
O479 C505 1.269 . S
O480 Co472 2.074 . S
O480 C505 1.257 . S
H481 C506 0.930 . S
H482 C512 0.930 . S
O483 Co472 2.093 . S
O483 C475 1.224 . S
H484 C516 0.929 . S
H485 C518 0.930 . S
H486 C519 0.930 . S
H487 C517 0.929 . S
H488 C520 0.928 . S
O489 Co473 2.057 . S
O489 C477 1.232 . S
H490 C509 0.929 . S
H491 C510 0.929 . S
H492 C522 0.931 . S
H493 C514 0.929 . S
H494 C523 0.930 . S
H495 C515 0.931 . S
O496 Co472 2.097 . S
O496 C524 1.214 . S
H497 C525 0.929 . S
H498 C526 0.929 . S
H499 C527 0.930 . S
H500 C528 0.929 . S
H501 C530 0.930 . S
H502 C507 0.930 . S
H503 C511 0.930 . S
O504 Co473 2.037 . S
O504 C524 1.234 . S
C505 O479 1.269 . S
C505 O480 1.257 . S
C506 H481 0.930 . S
C506 C509 1.388 . S
C506 C511 1.418 . S
C507 H502 0.930 . S
C507 C510 1.404 . S
C507 C511 1.353 . S
N508 Co473 2.145 . S
N508 C509 1.397 . S
N508 C510 1.334 . S
C509 H490 0.929 . S
C509 C506 1.388 . S
C509 N508 1.397 . S
C510 H491 0.929 . S
C510 C507 1.404 . S
C510 N508 1.334 . S
C511 H503 0.930 . S
C511 C506 1.418 . S
C511 C507 1.353 . S
C512 H482 0.930 . S
C512 N513 1.330 . S
C512 C514 1.446 . S
N513 Co472 2.151 . S
N513 C512 1.330 . S
N513 C517 1.418 . S
C514 H493 0.929 . S
C514 C512 1.446 . S
C514 C515 1.332 . S
C515 H495 0.931 . S
C515 C514 1.332 . S
C515 C516 1.267 . S
C516 H484 0.929 . S
C516 C515 1.267 . S
C516 C517 1.251 . S
C517 H487 0.929 . S
C517 N513 1.418 . S
C517 C516 1.251 . S
C518 H485 0.930 . S
C518 C520 1.406 . S
C518 C523 1.261 . S
C519 H486 0.930 . S
C519 N521 1.325 . S
C519 C522 1.357 . S
C520 H488 0.928 . S
C520 C518 1.406 . S
C520 N521 1.261 . S
N521 Co472 2.214 . S
N521 C519 1.325 . S
N521 C520 1.261 . S
C522 H492 0.931 . S
C522 C519 1.357 . S
C522 C523 1.312 . S
C523 H494 0.930 . S
C523 C518 1.261 . S
C523 C522 1.312 . S
C524 O496 1.214 . S
C524 O504 1.234 . S
C525 H497 0.929 . S
C525 C528 1.391 . S
C525 C530 1.391 . S
C526 H498 0.929 . S
C526 C527 1.390 . S
C526 N529 1.391 . S
C527 H499 0.930 . S
C527 C526 1.390 . S
C527 C528 1.392 . S
C528 H500 0.929 . S
C528 C525 1.391 . S
C528 C527 1.392 . S
N529 Co473 2.257 . S
N529 C526 1.391 . S
N529 C530 1.388 . S
C530 H501 0.930 . S
C530 C525 1.391 . S
C530 N529 1.388 . S
Co531 O533 2.143 . S
Co531 O539 2.074 . S
Co531 O542 2.093 . S
Co531 O555 2.097 . S
Co531 N572 2.151 . S
Co531 N580 2.214 . S
Co532 O533 2.160 . S
Co532 O538 2.058 . S
Co532 O548 2.057 1_554 S
Co532 O563 2.037 . S
Co532 N567 2.145 1_554 S
Co532 N588 2.257 . S
O533 Co531 2.143 . S
O533 Co532 2.160 . S
C534 O535 1.278 . S
C534 O542 1.224 . S
O535 C534 1.278 . S
C536 O537 1.245 . S
C536 O548 1.232 . S
O537 C536 1.245 . S
O538 Co532 2.058 . S
O538 C564 1.269 . S
O539 Co531 2.074 . S
O539 C564 1.257 . S
H540 C565 0.930 . S
H541 C571 0.930 . S
O542 Co531 2.093 . S
O542 C534 1.224 . S
H543 C575 0.929 . S
H544 C577 0.930 . S
H545 C578 0.930 . S
H546 C576 0.929 . S
H547 C579 0.928 . S
O548 Co532 2.057 1_556 S
O548 C536 1.232 . S
H549 C568 0.929 . S
H550 C569 0.929 . S
H551 C581 0.931 . S
H552 C573 0.929 . S
H553 C582 0.930 . S
H554 C574 0.931 . S
O555 Co531 2.097 . S
O555 C583 1.214 . S
H556 C584 0.930 . S
H557 C585 0.929 . S
H558 C586 0.930 . S
H559 C587 0.929 . S
H560 C589 0.930 . S
H561 C566 0.930 . S
H562 C570 0.930 . S
O563 Co532 2.037 . S
O563 C583 1.234 . S
C564 O538 1.269 . S
C564 O539 1.257 . S
C565 H540 0.930 . S
C565 C568 1.388 . S
C565 C570 1.418 . S
C566 H561 0.930 . S
C566 C569 1.404 . S
C566 C570 1.353 . S
N567 Co532 2.145 1_556 S
N567 C568 1.397 . S
N567 C569 1.334 . S
C568 H549 0.929 . S
C568 C565 1.388 . S
C568 N567 1.397 . S
C569 H550 0.929 . S
C569 C566 1.404 . S
C569 N567 1.334 . S
C570 H562 0.930 . S
C570 C565 1.418 . S
C570 C566 1.353 . S
C571 H541 0.930 . S
C571 N572 1.330 . S
C571 C573 1.446 . S
N572 Co531 2.151 . S
N572 C571 1.330 . S
N572 C576 1.418 . S
C573 H552 0.929 . S
C573 C571 1.446 . S
C573 C574 1.332 . S
C574 H554 0.931 . S
C574 C573 1.332 . S
C574 C575 1.267 . S
C575 H543 0.929 . S
C575 C574 1.267 . S
C575 C576 1.251 . S
C576 H546 0.929 . S
C576 N572 1.418 . S
C576 C575 1.251 . S
C577 H544 0.930 . S
C577 C579 1.406 . S
C577 C582 1.261 . S
C578 H545 0.930 . S
C578 N580 1.325 . S
C578 C581 1.357 . S
C579 H547 0.928 . S
C579 C577 1.406 . S
C579 N580 1.261 . S
N580 Co531 2.214 . S
N580 C578 1.325 . S
N580 C579 1.261 . S
C581 H551 0.931 . S
C581 C578 1.357 . S
C581 C582 1.312 . S
C582 H553 0.930 . S
C582 C577 1.261 . S
C582 C581 1.312 . S
C583 O555 1.214 . S
C583 O563 1.234 . S
C584 H556 0.930 . S
C584 C587 1.390 1_556 S
C584 C589 1.391 . S
C585 H557 0.929 . S
C585 C586 1.390 . S
C585 N588 1.391 . S
C586 H558 0.930 . S
C586 C585 1.390 . S
C586 C587 1.392 . S
C587 H559 0.929 . S
C587 C584 1.390 1_554 S
C587 C586 1.392 . S
N588 Co532 2.257 . S
N588 C585 1.391 . S
N588 C589 1.388 1_554 S
C589 H560 0.930 . S
C589 C584 1.391 . S
C589 N588 1.388 1_556 S
Co590 O592 2.143 1_556 S
Co590 O598 2.074 . S
Co590 O601 2.093 . S
Co590 O614 2.097 . S
Co590 N631 2.151 . S
Co590 N639 2.214 . S
Co591 O592 2.160 . S
Co591 O597 2.058 . S
Co591 O607 2.057 . S
Co591 O622 2.037 . S
Co591 N626 2.145 . S
Co591 N647 2.257 . S
O592 Co590 2.143 1_554 S
O592 Co591 2.160 . S
C593 O594 1.278 . S
C593 O601 1.224 . S
O594 C593 1.278 . S
C595 O596 1.245 . S
C595 O607 1.232 . S
O596 C595 1.245 . S
O597 Co591 2.058 . S
O597 C623 1.269 . S
O598 Co590 2.074 . S
O598 C623 1.257 1_556 S
H599 C624 0.930 . S
H600 C630 0.930 . S
O601 Co590 2.093 . S
O601 C593 1.224 . S
H602 C634 0.929 . S
H603 C636 0.930 . S
H604 C637 0.930 . S
H605 C635 0.929 . S
H606 C638 0.928 . S
O607 Co591 2.057 . S
O607 C595 1.232 . S
H608 C627 0.929 . S
H609 C628 0.929 . S
H610 C640 0.931 . S
H611 C632 0.929 . S
H612 C641 0.930 . S
H613 C633 0.931 . S
O614 Co590 2.097 . S
O614 C642 1.214 . S
H615 C643 0.929 . S
H616 C644 0.929 . S
H617 C645 0.930 . S
H618 C646 0.929 . S
H619 C648 0.930 . S
H620 C625 0.930 . S
H621 C629 0.930 . S
O622 Co591 2.037 . S
O622 C642 1.234 1_554 S
C623 O597 1.269 . S
C623 O598 1.257 1_554 S
C624 H599 0.930 . S
C624 C627 1.388 . S
C624 C629 1.418 . S
C625 H620 0.930 . S
C625 C628 1.404 . S
C625 C629 1.353 . S
N626 Co591 2.145 . S
N626 C627 1.397 . S
N626 C628 1.334 . S
C627 H608 0.929 . S
C627 C624 1.388 . S
C627 N626 1.397 . S
C628 H609 0.929 . S
C628 C625 1.404 . S
C628 N626 1.334 . S
C629 H621 0.930 . S
C629 C624 1.418 . S
C629 C625 1.353 . S
C630 H600 0.930 . S
C630 N631 1.330 . S
C630 C632 1.446 . S
N631 Co590 2.151 . S
N631 C630 1.330 . S
N631 C635 1.418 . S
C632 H611 0.929 . S
C632 C630 1.446 . S
C632 C633 1.332 . S
C633 H613 0.931 . S
C633 C632 1.332 . S
C633 C634 1.267 . S
C634 H602 0.929 . S
C634 C633 1.267 . S
C634 C635 1.251 . S
C635 H605 0.929 . S
C635 N631 1.418 . S
C635 C634 1.251 . S
C636 H603 0.930 . S
C636 C638 1.406 . S
C636 C641 1.261 . S
C637 H604 0.930 . S
C637 N639 1.325 . S
C637 C640 1.357 . S
C638 H606 0.928 . S
C638 C636 1.406 . S
C638 N639 1.261 . S
N639 Co590 2.214 . S
N639 C637 1.325 . S
N639 C638 1.261 . S
C640 H610 0.931 . S
C640 C637 1.357 . S
C640 C641 1.312 . S
C641 H612 0.930 . S
C641 C636 1.261 . S
C641 C640 1.312 . S
C642 O614 1.214 . S
C642 O622 1.234 1_556 S
C643 H615 0.929 . S
C643 C646 1.391 . S
C643 C648 1.391 . S
C644 H616 0.929 . S
C644 C645 1.390 . S
C644 N647 1.391 . S
C645 H617 0.930 . S
C645 C644 1.390 . S
C645 C646 1.392 . S
C646 H618 0.929 . S
C646 C643 1.391 . S
C646 C645 1.392 . S
N647 Co591 2.257 . S
N647 C644 1.391 . S
N647 C648 1.388 . S
C648 H619 0.930 . S
C648 C643 1.391 . S
C648 N647 1.388 . S
Co649 O651 2.143 . S
Co649 O657 2.074 . S
Co649 O660 2.093 . S
Co649 O673 2.097 . S
Co649 N690 2.151 . S
Co649 N698 2.214 . S
Co650 O651 2.160 . S
Co650 O656 2.058 . S
Co650 O666 2.057 . S
Co650 O681 2.037 . S
Co650 N685 2.145 . S
Co650 N706 2.257 . S
O651 Co649 2.143 . S
O651 Co650 2.160 . S
C652 O653 1.278 . S
C652 O660 1.224 . S
O653 C652 1.278 . S
C654 O655 1.245 . S
C654 O666 1.232 . S
O655 C654 1.245 . S
O656 Co650 2.058 . S
O656 C682 1.269 . S
O657 Co649 2.074 . S
O657 C682 1.257 . S
H658 C683 0.930 . S
H659 C689 0.930 . S
O660 Co649 2.093 . S
O660 C652 1.224 . S
H661 C693 0.929 . S
H662 C695 0.930 . S
H663 C696 0.930 . S
H664 C694 0.929 . S
H665 C697 0.928 . S
O666 Co650 2.057 . S
O666 C654 1.232 . S
H667 C686 0.929 . S
H668 C687 0.929 . S
H669 C699 0.931 . S
H670 C691 0.929 . S
H671 C700 0.930 . S
H672 C692 0.931 . S
O673 Co649 2.097 . S
O673 C701 1.214 . S
H674 C702 0.929 . S
H675 C703 0.929 . S
H676 C704 0.930 . S
H677 C705 0.929 . S
H678 C707 0.930 . S
H679 C684 0.930 . S
H680 C688 0.930 . S
O681 Co650 2.037 . S
O681 C701 1.234 . S
C682 O656 1.269 . S
C682 O657 1.257 . S
C683 H658 0.930 . S
C683 C686 1.388 . S
C683 C688 1.418 . S
C684 H679 0.930 . S
C684 C687 1.404 . S
C684 C688 1.353 . S
N685 Co650 2.145 . S
N685 C686 1.397 . S
N685 C687 1.334 . S
C686 H667 0.929 . S
C686 C683 1.388 . S
C686 N685 1.397 . S
C687 H668 0.929 . S
C687 C684 1.404 . S
C687 N685 1.334 . S
C688 H680 0.930 . S
C688 C683 1.418 . S
C688 C684 1.353 . S
C689 H659 0.930 . S
C689 N690 1.330 . S
C689 C691 1.446 . S
N690 Co649 2.151 . S
N690 C689 1.330 . S
N690 C694 1.418 . S
C691 H670 0.929 . S
C691 C689 1.446 . S
C691 C692 1.332 . S
C692 H672 0.931 . S
C692 C691 1.332 . S
C692 C693 1.267 . S
C693 H661 0.929 . S
C693 C692 1.267 . S
C693 C694 1.251 . S
C694 H664 0.929 . S
C694 N690 1.418 . S
C694 C693 1.251 . S
C695 H662 0.930 . S
C695 C697 1.406 . S
C695 C700 1.261 . S
C696 H663 0.930 . S
C696 N698 1.325 . S
C696 C699 1.357 . S
C697 H665 0.928 . S
C697 C695 1.406 . S
C697 N698 1.261 . S
N698 Co649 2.214 . S
N698 C696 1.325 . S
N698 C697 1.261 . S
C699 H669 0.931 . S
C699 C696 1.357 . S
C699 C700 1.312 . S
C700 H671 0.930 . S
C700 C695 1.261 . S
C700 C699 1.312 . S
C701 O673 1.214 . S
C701 O681 1.234 . S
C702 H674 0.929 . S
C702 C705 1.391 . S
C702 C707 1.391 . S
C703 H675 0.929 . S
C703 C704 1.390 . S
C703 N706 1.391 . S
C704 H676 0.930 . S
C704 C703 1.390 . S
C704 C705 1.392 . S
C705 H677 0.929 . S
C705 C702 1.391 . S
C705 C704 1.392 . S
N706 Co650 2.257 . S
N706 C703 1.391 . S
N706 C707 1.388 . S
C707 H678 0.930 . S
C707 C702 1.391 . S
C707 N706 1.388 . S
Co708 O710 2.143 . S
Co708 O716 2.074 . S
Co708 O719 2.093 . S
Co708 O732 2.097 . S
Co708 N749 2.151 . S
Co708 N757 2.214 . S
Co709 O710 2.160 . S
Co709 O715 2.058 . S
Co709 O725 2.057 . S
Co709 O740 2.037 . S
Co709 N744 2.145 . S
Co709 N765 2.257 . S
O710 Co708 2.143 . S
O710 Co709 2.160 . S
C711 O712 1.278 . S
C711 O719 1.224 . S
O712 C711 1.278 . S
C713 O714 1.245 . S
C713 O725 1.232 . S
O714 C713 1.245 . S
O715 Co709 2.058 . S
O715 C741 1.269 . S
O716 Co708 2.074 . S
O716 C741 1.257 . S
H717 C742 0.930 . S
H718 C748 0.930 . S
O719 Co708 2.093 . S
O719 C711 1.224 . S
H720 C752 0.929 . S
H721 C754 0.930 . S
H722 C755 0.930 . S
H723 C753 0.929 . S
H724 C756 0.928 . S
O725 Co709 2.057 . S
O725 C713 1.232 . S
H726 C745 0.929 . S
H727 C746 0.929 . S
H728 C758 0.931 . S
H729 C750 0.929 . S
H730 C759 0.930 . S
H731 C751 0.931 . S
O732 Co708 2.097 . S
O732 C760 1.214 . S
H733 C761 0.929 . S
H734 C762 0.929 . S
H735 C763 0.930 . S
H736 C764 0.929 . S
H737 C766 0.930 . S
H738 C743 0.930 . S
H739 C747 0.930 1_554 S
O740 Co709 2.037 . S
O740 C760 1.234 . S
C741 O715 1.269 . S
C741 O716 1.257 . S
C742 H717 0.930 . S
C742 C745 1.388 . S
C742 C747 1.418 . S
C743 H738 0.930 . S
C743 C746 1.404 1_554 S
C743 C747 1.353 1_554 S
N744 Co709 2.145 . S
N744 C745 1.397 . S
N744 C746 1.334 . S
C745 H726 0.929 . S
C745 C742 1.388 . S
C745 N744 1.397 . S
C746 H727 0.929 . S
C746 C743 1.404 1_556 S
C746 N744 1.334 . S
C747 H739 0.930 1_556 S
C747 C742 1.418 . S
C747 C743 1.353 1_556 S
C748 H718 0.930 . S
C748 N749 1.330 . S
C748 C750 1.446 . S
N749 Co708 2.151 . S
N749 C748 1.330 . S
N749 C753 1.418 . S
C750 H729 0.929 . S
C750 C748 1.446 . S
C750 C751 1.332 . S
C751 H731 0.931 . S
C751 C750 1.332 . S
C751 C752 1.267 . S
C752 H720 0.929 . S
C752 C751 1.267 . S
C752 C753 1.251 . S
C753 H723 0.929 . S
C753 N749 1.418 . S
C753 C752 1.251 . S
C754 H721 0.930 . S
C754 C756 1.406 . S
C754 C759 1.261 . S
C755 H722 0.930 . S
C755 N757 1.325 . S
C755 C758 1.357 . S
C756 H724 0.928 . S
C756 C754 1.406 . S
C756 N757 1.261 . S
N757 Co708 2.214 . S
N757 C755 1.325 . S
N757 C756 1.261 . S
C758 H728 0.931 . S
C758 C755 1.357 . S
C758 C759 1.312 . S
C759 H730 0.930 . S
C759 C754 1.261 . S
C759 C758 1.312 . S
C760 O732 1.214 . S
C760 O740 1.234 . S
C761 H733 0.929 . S
C761 C764 1.391 . S
C761 C766 1.391 . S
C762 H734 0.929 . S
C762 C763 1.390 . S
C762 N765 1.391 . S
C763 H735 0.930 . S
C763 C762 1.390 . S
C763 C764 1.392 . S
C764 H736 0.929 . S
C764 C761 1.391 . S
C764 C763 1.392 . S
N765 Co709 2.257 . S
N765 C762 1.391 . S
N765 C766 1.388 . S
C766 H737 0.930 . S
C766 C761 1.391 . S
C766 N765 1.388 . S
Co767 O769 2.143 . S
Co767 O775 2.074 . S
Co767 O778 2.093 1_655 S
Co767 O791 2.097 1_655 S
Co767 N808 2.151 . S
Co767 N816 2.214 . S
Co768 O769 2.160 1_455 S
Co768 O774 2.058 1_455 S
Co768 O784 2.052 1_455 S
Co768 O799 2.037 . S
Co768 N803 2.145 . S
Co768 N824 2.257 . S
O769 Co767 2.143 . S
O769 Co768 2.160 1_655 S
C770 O771 1.278 . S
C770 O778 1.224 . S
O771 C770 1.278 . S
C772 O773 1.245 . S
C772 O784 1.243 . S
O773 C772 1.245 . S
O774 Co768 2.058 1_655 S
O774 C800 1.269 . S
O775 Co767 2.074 . S
O775 C800 1.257 . S
H776 C801 0.930 . S
H777 C807 0.930 . S
O778 Co767 2.093 1_455 S
O778 C770 1.224 . S
H779 C811 0.929 . S
H780 C813 0.930 . S
H781 C814 0.930 . S
H782 C812 0.929 . S
H783 C815 0.928 . S
O784 Co768 2.052 1_655 S
O784 C772 1.243 . S
H785 C804 0.929 . S
H786 C805 0.929 . S
H787 C817 0.931 . S
H788 C809 0.929 . S
H789 C818 0.930 . S
H790 C810 0.931 . S
O791 Co767 2.097 1_455 S
O791 C819 1.214 . S
H792 C820 0.929 . S
H793 C821 0.929 . S
H794 C822 0.930 . S
H795 C823 0.929 . S
H796 C825 0.930 . S
H797 C802 0.930 . S
H798 C806 0.930 . S
O799 Co768 2.037 . S
O799 C819 1.234 . S
C800 O774 1.269 . S
C800 O775 1.257 . S
C801 H776 0.930 . S
C801 C804 1.388 . S
C801 C806 1.418 . S
C802 H797 0.930 . S
C802 C805 1.404 . S
C802 C806 1.353 . S
N803 Co768 2.145 . S
N803 C804 1.397 . S
N803 C805 1.334 . S
C804 H785 0.929 . S
C804 C801 1.388 . S
C804 N803 1.397 . S
C805 H786 0.929 . S
C805 C802 1.404 . S
C805 N803 1.334 . S
C806 H798 0.930 . S
C806 C801 1.418 . S
C806 C802 1.353 . S
C807 H777 0.930 . S
C807 N808 1.330 . S
C807 C809 1.446 . S
N808 Co767 2.151 . S
N808 C807 1.330 . S
N808 C812 1.418 . S
C809 H788 0.929 . S
C809 C807 1.446 . S
C809 C810 1.332 . S
C810 H790 0.931 . S
C810 C809 1.332 . S
C810 C811 1.267 . S
C811 H779 0.929 . S
C811 C810 1.267 . S
C811 C812 1.251 . S
C812 H782 0.929 . S
C812 N808 1.418 . S
C812 C811 1.251 . S
C813 H780 0.930 . S
C813 C815 1.406 1_556 S
C813 C818 1.261 . S
C814 H781 0.930 . S
C814 N816 1.325 . S
C814 C817 1.357 . S
C815 H783 0.928 . S
C815 C813 1.406 1_554 S
C815 N816 1.261 . S
N816 Co767 2.214 . S
N816 C814 1.325 . S
N816 C815 1.261 . S
C817 H787 0.931 . S
C817 C814 1.357 . S
C817 C818 1.312 1_554 S
C818 H789 0.930 . S
C818 C813 1.261 . S
C818 C817 1.312 1_556 S
C819 O791 1.214 . S
C819 O799 1.234 . S
C820 H792 0.929 . S
C820 C823 1.391 . S
C820 C825 1.391 . S
C821 H793 0.929 . S
C821 C822 1.390 . S
C821 N824 1.391 . S
C822 H794 0.930 . S
C822 C821 1.390 . S
C822 C823 1.392 . S
C823 H795 0.929 . S
C823 C820 1.391 . S
C823 C822 1.392 . S
N824 Co768 2.257 . S
N824 C821 1.391 . S
N824 C825 1.388 . S
C825 H796 0.930 . S
C825 C820 1.391 . S
C825 N824 1.388 . S
Co826 O828 2.143 . S
Co826 O834 2.074 . S
Co826 O837 2.093 . S
Co826 O850 2.097 . S
Co826 N867 2.151 . S
Co826 N875 2.214 . S
Co827 O828 2.160 . S
Co827 O833 2.058 . S
Co827 O843 2.057 . S
Co827 O858 2.037 . S
Co827 N862 2.145 . S
Co827 N883 2.257 . S
O828 Co826 2.143 . S
O828 Co827 2.160 . S
C829 O830 1.278 . S
C829 O837 1.224 . S
O830 C829 1.278 . S
C831 O832 1.245 . S
C831 O843 1.232 . S
O832 C831 1.245 . S
O833 Co827 2.058 . S
O833 C859 1.269 . S
O834 Co826 2.074 . S
O834 C859 1.257 . S
H835 C860 0.930 . S
H836 C866 0.930 . S
O837 Co826 2.093 . S
O837 C829 1.224 . S
H838 C870 0.929 . S
H839 C872 0.930 . S
H840 C873 0.930 . S
H841 C871 0.929 . S
H842 C874 0.928 . S
O843 Co827 2.057 . S
O843 C831 1.232 . S
H844 C863 0.929 . S
H845 C864 0.929 . S
H846 C876 0.931 . S
H847 C868 0.929 . S
H848 C877 0.930 . S
H849 C869 0.931 . S
O850 Co826 2.097 . S
O850 C878 1.214 . S
H851 C879 0.929 . S
H852 C880 0.929 . S
H853 C881 0.930 . S
H854 C882 0.929 . S
H855 C884 0.930 . S
H856 C861 0.930 . S
H857 C865 0.930 . S
O858 Co827 2.037 . S
O858 C878 1.234 . S
C859 O833 1.269 . S
C859 O834 1.257 . S
C860 H835 0.930 . S
C860 C863 1.388 . S
C860 C865 1.418 . S
C861 H856 0.930 . S
C861 C864 1.404 . S
C861 C865 1.353 . S
N862 Co827 2.145 . S
N862 C863 1.397 . S
N862 C864 1.334 . S
C863 H844 0.929 . S
C863 C860 1.388 . S
C863 N862 1.397 . S
C864 H845 0.929 . S
C864 C861 1.404 . S
C864 N862 1.334 . S
C865 H857 0.930 . S
C865 C860 1.418 . S
C865 C861 1.353 . S
C866 H836 0.930 . S
C866 N867 1.330 . S
C866 C868 1.446 . S
N867 Co826 2.151 . S
N867 C866 1.330 . S
N867 C871 1.418 . S
C868 H847 0.929 . S
C868 C866 1.446 . S
C868 C869 1.332 . S
C869 H849 0.931 . S
C869 C868 1.332 . S
C869 C870 1.267 . S
C870 H838 0.929 . S
C870 C869 1.267 . S
C870 C871 1.251 . S
C871 H841 0.929 . S
C871 N867 1.418 . S
C871 C870 1.251 . S
C872 H839 0.930 . S
C872 C874 1.406 . S
C872 C877 1.261 . S
C873 H840 0.930 . S
C873 N875 1.325 . S
C873 C876 1.357 . S
C874 H842 0.928 . S
C874 C872 1.406 . S
C874 N875 1.261 . S
N875 Co826 2.214 . S
N875 C873 1.325 . S
N875 C874 1.261 . S
C876 H846 0.931 . S
C876 C873 1.357 . S
C876 C877 1.312 . S
C877 H848 0.930 . S
C877 C872 1.261 . S
C877 C876 1.312 . S
C878 O850 1.214 . S
C878 O858 1.234 . S
C879 H851 0.929 . S
C879 C882 1.391 . S
C879 C884 1.391 . S
C880 H852 0.929 . S
C880 C881 1.390 . S
C880 N883 1.391 . S
C881 H853 0.930 . S
C881 C880 1.390 . S
C881 C882 1.392 . S
C882 H854 0.929 . S
C882 C879 1.391 . S
C882 C881 1.392 . S
N883 Co827 2.257 . S
N883 C880 1.391 . S
N883 C884 1.388 . S
C884 H855 0.930 . S
C884 C879 1.391 . S
C884 N883 1.388 . S
Co885 O887 2.143 . S
Co885 O893 2.074 . S
Co885 O896 2.093 1_655 S
Co885 O909 2.097 1_655 S
Co885 N926 2.151 . S
Co885 N934 2.214 1_556 S
Co886 O887 2.160 1_455 S
Co886 O892 2.058 1_455 S
Co886 O902 2.052 1_455 S
Co886 O917 2.037 . S
Co886 N921 2.145 . S
Co886 N942 2.257 . S
O887 Co885 2.143 . S
O887 Co886 2.160 1_655 S
C888 O889 1.278 . S
C888 O896 1.224 . S
O889 C888 1.278 . S
C890 O891 1.245 . S
C890 O902 1.243 . S
O891 C890 1.245 . S
O892 Co886 2.058 1_655 S
O892 C918 1.269 . S
O893 Co885 2.074 . S
O893 C918 1.257 . S
H894 C919 0.930 . S
H895 C925 0.930 . S
O896 Co885 2.093 1_455 S
O896 C888 1.224 . S
H897 C929 0.929 . S
H898 C931 0.930 . S
H899 C932 0.930 1_556 S
H900 C930 0.929 . S
H901 C933 0.928 . S
O902 Co886 2.052 1_655 S
O902 C890 1.243 . S
H903 C922 0.929 . S
H904 C923 0.929 . S
H905 C935 0.931 . S
H906 C927 0.929 . S
H907 C936 0.930 . S
H908 C928 0.931 . S
O909 Co885 2.097 1_455 S
O909 C937 1.214 . S
H910 C938 0.929 . S
H911 C939 0.929 . S
H912 C940 0.930 . S
H913 C941 0.929 . S
H914 C943 0.930 . S
H915 C920 0.930 . S
H916 C924 0.930 . S
O917 Co886 2.037 . S
O917 C937 1.234 . S
C918 O892 1.269 . S
C918 O893 1.257 . S
C919 H894 0.930 . S
C919 C922 1.388 . S
C919 C924 1.418 . S
C920 H915 0.930 . S
C920 C923 1.404 . S
C920 C924 1.353 . S
N921 Co886 2.145 . S
N921 C922 1.397 . S
N921 C923 1.334 . S
C922 H903 0.929 . S
C922 C919 1.388 . S
C922 N921 1.397 . S
C923 H904 0.929 . S
C923 C920 1.404 . S
C923 N921 1.334 . S
C924 H916 0.930 . S
C924 C919 1.418 . S
C924 C920 1.353 . S
C925 H895 0.930 . S
C925 N926 1.330 . S
C925 C927 1.446 . S
N926 Co885 2.151 . S
N926 C925 1.330 . S
N926 C930 1.418 . S
C927 H906 0.929 . S
C927 C925 1.446 . S
C927 C928 1.332 . S
C928 H908 0.931 . S
C928 C927 1.332 . S
C928 C929 1.267 . S
C929 H897 0.929 . S
C929 C928 1.267 . S
C929 C930 1.251 . S
C930 H900 0.929 . S
C930 N926 1.418 . S
C930 C929 1.251 . S
C931 H898 0.930 . S
C931 C933 1.406 . S
C931 C936 1.261 . S
C932 H899 0.930 1_554 S
C932 N934 1.325 . S
C932 C935 1.357 . S
C933 H901 0.928 . S
C933 C931 1.406 . S
C933 N934 1.261 . S
N934 Co885 2.214 1_554 S
N934 C932 1.325 . S
N934 C933 1.261 . S
C935 H905 0.931 . S
C935 C932 1.357 . S
C935 C936 1.312 . S
C936 H907 0.930 . S
C936 C931 1.261 . S
C936 C935 1.312 . S
C937 O909 1.214 . S
C937 O917 1.234 . S
C938 H910 0.929 . S
C938 C941 1.391 . S
C938 C943 1.391 . S
C939 H911 0.929 . S
C939 C940 1.390 . S
C939 N942 1.391 . S
C940 H912 0.930 . S
C940 C939 1.390 . S
C940 C941 1.392 . S
C941 H913 0.929 . S
C941 C938 1.391 . S
C941 C940 1.392 . S
N942 Co886 2.257 . S
N942 C939 1.391 . S
N942 C943 1.388 . S
C943 H914 0.930 . S
C943 C938 1.391 . S
C943 N942 1.388 . S
H944 C950 0.930 . S
H945 C953 0.930 . S
H946 C954 0.930 . S
H947 C955 0.930 . S
H948 C958 0.930 . S
H949 C959 0.930 . S
C950 H944 0.930 . S
C950 C951 1.355 . S
C950 C952 1.415 . S
C951 C950 1.355 . S
C951 C953 1.419 . S
C952 C950 1.415 . S
C952 C957 1.425 . S
C952 C959 1.409 . S
C953 H945 0.930 . S
C953 C951 1.419 . S
C953 C954 1.362 . S
C954 H946 0.930 . S
C954 C953 1.362 . S
C954 C957 1.409 . S
C955 H947 0.930 . S
C955 C956 1.355 . S
C955 C957 1.415 . S
C956 C955 1.355 . S
C956 C958 1.419 . S
C957 C952 1.425 . S
C957 C954 1.409 . S
C957 C955 1.415 . S
C958 H948 0.930 . S
C958 C956 1.419 . S
C958 C959 1.362 . S
C959 H949 0.930 . S
C959 C952 1.409 . S
C959 C958 1.362 . S
H960 C966 0.930 . S
H961 C969 0.930 . S
H962 C970 0.930 . S
H963 C971 0.930 . S
H964 C974 0.930 . S
H965 C975 0.930 . S
C966 H960 0.930 . S
C966 C967 1.355 . S
C966 C968 1.415 . S
C967 C966 1.355 . S
C967 C969 1.419 . S
C968 C966 1.415 . S
C968 C973 1.425 . S
C968 C975 1.409 . S
C969 H961 0.930 . S
C969 C967 1.419 . S
C969 C970 1.362 . S
C970 H962 0.930 . S
C970 C969 1.362 . S
C970 C973 1.409 . S
C971 H963 0.930 . S
C971 C972 1.355 . S
C971 C973 1.415 . S
C972 C971 1.355 . S
C972 C974 1.419 . S
C973 C968 1.425 . S
C973 C970 1.409 . S
C973 C971 1.415 . S
C974 H964 0.930 . S
C974 C972 1.419 . S
C974 C975 1.362 . S
C975 H965 0.930 . S
C975 C968 1.409 . S
C975 C974 1.362 . S
H976 C982 0.930 . S
H977 C985 0.930 . S
H978 C986 0.930 . S
H979 C987 0.930 . S
H980 C990 0.930 . S
H981 C991 0.930 . S
C982 H976 0.930 . S
C982 C983 1.355 . S
C982 C984 1.415 . S
C983 C982 1.355 . S
C983 C985 1.419 . S
C984 C982 1.415 . S
C984 C989 1.425 . S
C984 C991 1.409 . S
C985 H977 0.930 . S
C985 C983 1.419 . S
C985 C986 1.362 . S
C986 H978 0.930 . S
C986 C985 1.362 . S
C986 C989 1.409 . S
C987 H979 0.930 . S
C987 C988 1.355 . S
C987 C989 1.415 . S
C988 C987 1.355 . S
C988 C990 1.419 . S
C989 C984 1.425 . S
C989 C986 1.409 . S
C989 C987 1.415 . S
C990 H980 0.930 . S
C990 C988 1.419 . S
C990 C991 1.362 . S
C991 H981 0.930 . S
C991 C984 1.409 . S
C991 C990 1.362 . S
H992 C998 0.930 . S
H993 C1001 0.930 . S
H994 C1002 0.930 . S
H995 C1003 0.930 . S
H996 C1006 0.930 . S
H997 C1007 0.930 . S
C998 H992 0.930 . S
C998 C999 1.355 . S
C998 C1000 1.415 . S
C999 C998 1.355 . S
C999 C1001 1.419 . S
C1000 C998 1.415 . S
C1000 C1005 1.425 . S
C1000 C1007 1.409 . S
C1001 H993 0.930 . S
C1001 C999 1.419 . S
C1001 C1002 1.362 . S
C1002 H994 0.930 . S
C1002 C1001 1.362 . S
C1002 C1005 1.409 . S
C1003 H995 0.930 . S
C1003 C1004 1.355 . S
C1003 C1005 1.415 . S
C1004 C1003 1.355 . S
C1004 C1006 1.419 . S
C1005 C1000 1.425 . S
C1005 C1002 1.409 . S
C1005 C1003 1.415 . S
C1006 H996 0.930 . S
C1006 C1004 1.419 . S
C1006 C1007 1.362 . S
C1007 H997 0.930 . S
C1007 C1000 1.409 . S
C1007 C1006 1.362 . S
H1008 C1014 0.930 . S
H1009 C1017 0.930 . S
H1010 C1018 0.930 1_554 S
H1011 C1019 0.930 1_554 S
H1012 C1022 0.930 . S
H1013 C1023 0.930 . S
C1014 H1008 0.930 . S
C1014 C1015 1.355 . S
C1014 C1016 1.415 . S
C1015 C1014 1.355 . S
C1015 C1017 1.419 . S
C1016 C1014 1.415 . S
C1016 C1021 1.425 . S
C1016 C1023 1.409 . S
C1017 H1009 0.930 . S
C1017 C1015 1.419 . S
C1017 C1018 1.362 . S
C1018 H1010 0.930 1_556 S
C1018 C1017 1.362 . S
C1018 C1021 1.409 . S
C1019 H1011 0.930 1_556 S
C1019 C1020 1.355 . S
C1019 C1021 1.415 . S
C1020 C1019 1.355 . S
C1020 C1022 1.419 . S
C1021 C1016 1.425 . S
C1021 C1018 1.409 . S
C1021 C1019 1.415 . S
C1022 H1012 0.930 . S
C1022 C1020 1.419 . S
C1022 C1023 1.362 . S
C1023 H1013 0.930 . S
C1023 C1016 1.409 . S
C1023 C1022 1.362 . S
H1024 C1030 0.930 . S
H1025 C1033 0.930 . S
H1026 C1034 0.930 . S
H1027 C1035 0.930 . S
H1028 C1038 0.930 . S
H1029 C1039 0.930 . S
C1030 H1024 0.930 . S
C1030 C1031 1.355 . S
C1030 C1032 1.415 . S
C1031 C1030 1.355 . S
C1031 C1033 1.419 . S
C1032 C1030 1.415 . S
C1032 C1037 1.425 . S
C1032 C1039 1.409 . S
C1033 H1025 0.930 . S
C1033 C1031 1.419 . S
C1033 C1034 1.362 . S
C1034 H1026 0.930 . S
C1034 C1033 1.362 . S
C1034 C1037 1.409 . S
C1035 H1027 0.930 . S
C1035 C1036 1.355 . S
C1035 C1037 1.415 . S
C1036 C1035 1.355 . S
C1036 C1038 1.419 . S
C1037 C1032 1.425 . S
C1037 C1034 1.409 . S
C1037 C1035 1.415 . S
C1038 H1028 0.930 . S
C1038 C1036 1.419 . S
C1038 C1039 1.362 . S
C1039 H1029 0.930 . S
C1039 C1032 1.409 . S
C1039 C1038 1.362 . S
H1040 C1046 0.930 . S
H1041 C1049 0.930 . S
H1042 C1050 0.930 . S
H1043 C1051 0.930 . S
H1044 C1054 0.930 . S
H1045 C1055 0.930 . S
C1046 H1040 0.930 . S
C1046 C1047 1.355 . S
C1046 C1048 1.415 . S
C1047 C1046 1.355 . S
C1047 C1049 1.419 . S
C1048 C1046 1.415 . S
C1048 C1053 1.425 . S
C1048 C1055 1.409 . S
C1049 H1041 0.930 . S
C1049 C1047 1.419 . S
C1049 C1050 1.362 . S
C1050 H1042 0.930 . S
C1050 C1049 1.362 . S
C1050 C1053 1.409 . S
C1051 H1043 0.930 . S
C1051 C1052 1.355 . S
C1051 C1053 1.415 . S
C1052 C1051 1.355 . S
C1052 C1054 1.419 . S
C1053 C1048 1.425 . S
C1053 C1050 1.409 . S
C1053 C1051 1.415 . S
C1054 H1044 0.930 . S
C1054 C1052 1.419 . S
C1054 C1055 1.362 . S
C1055 H1045 0.930 . S
C1055 C1048 1.409 . S
C1055 C1054 1.362 . S
H1056 C1062 0.930 . S
H1057 C1065 0.930 . S
H1058 C1066 0.930 . S
H1059 C1067 0.930 . S
H1060 C1070 0.930 . S
H1061 C1071 0.930 . S
C1062 H1056 0.930 . S
C1062 C1063 1.355 . S
C1062 C1064 1.415 . S
C1063 C1062 1.355 . S
C1063 C1065 1.419 . S
C1064 C1062 1.415 . S
C1064 C1069 1.425 . S
C1064 C1071 1.409 . S
C1065 H1057 0.930 . S
C1065 C1063 1.419 . S
C1065 C1066 1.362 . S
C1066 H1058 0.930 . S
C1066 C1065 1.362 . S
C1066 C1069 1.409 . S
C1067 H1059 0.930 . S
C1067 C1068 1.355 . S
C1067 C1069 1.415 . S
C1068 C1067 1.355 . S
C1068 C1070 1.419 . S
C1069 C1064 1.425 . S
C1069 C1066 1.409 . S
C1069 C1067 1.415 . S
C1070 H1060 0.930 . S
C1070 C1068 1.419 . S
C1070 C1071 1.362 . S
C1071 H1061 0.930 . S
C1071 C1064 1.409 . S
C1071 C1070 1.362 . S
H1072 C1078 0.930 . S
H1073 C1081 0.930 . S
H1074 C1082 0.930 . S
H1075 C1083 0.930 . S
H1076 C1086 0.930 . S
H1077 C1087 0.930 . S
C1078 H1072 0.930 . S
C1078 C1079 1.355 . S
C1078 C1080 1.415 . S
C1079 C1078 1.355 . S
C1079 C1081 1.419 . S
C1080 C1078 1.415 . S
C1080 C1085 1.425 . S
C1080 C1087 1.409 . S
C1081 H1073 0.930 . S
C1081 C1079 1.419 . S
C1081 C1082 1.362 . S
C1082 H1074 0.930 . S
C1082 C1081 1.362 . S
C1082 C1085 1.409 . S
C1083 H1075 0.930 . S
C1083 C1084 1.355 . S
C1083 C1085 1.415 . S
C1084 C1083 1.355 . S
C1084 C1086 1.419 . S
C1085 C1080 1.425 . S
C1085 C1082 1.409 . S
C1085 C1083 1.415 . S
C1086 H1076 0.930 . S
C1086 C1084 1.419 . S
C1086 C1087 1.362 . S
C1087 H1077 0.930 . S
C1087 C1080 1.409 . S
C1087 C1086 1.362 . S
H1088 C1094 0.930 . S
H1089 C1097 0.930 . S
H1090 C1098 0.930 . S
H1091 C1099 0.930 . S
H1092 C1102 0.930 . S
H1093 C1103 0.930 . S
C1094 H1088 0.930 . S
C1094 C1095 1.355 . S
C1094 C1096 1.415 . S
C1095 C1094 1.355 . S
C1095 C1097 1.419 . S
C1096 C1094 1.415 . S
C1096 C1101 1.425 . S
C1096 C1103 1.409 . S
C1097 H1089 0.930 . S
C1097 C1095 1.419 . S
C1097 C1098 1.362 . S
C1098 H1090 0.930 . S
C1098 C1097 1.362 . S
C1098 C1101 1.409 . S
C1099 H1091 0.930 . S
C1099 C1100 1.355 . S
C1099 C1101 1.415 . S
C1100 C1099 1.355 . S
C1100 C1102 1.419 . S
C1101 C1096 1.425 . S
C1101 C1098 1.409 . S
C1101 C1099 1.415 . S
C1102 H1092 0.930 . S
C1102 C1100 1.419 . S
C1102 C1103 1.362 . S
C1103 H1093 0.930 . S
C1103 C1096 1.409 . S
C1103 C1102 1.362 . S
H1104 C1110 0.930 . S
H1105 C1113 0.930 . S
H1106 C1114 0.930 . S
H1107 C1115 0.930 . S
H1108 C1118 0.930 . S
H1109 C1119 0.930 . S
C1110 H1104 0.930 . S
C1110 C1111 1.355 . S
C1110 C1112 1.415 . S
C1111 C1110 1.355 . S
C1111 C1113 1.419 . S
C1112 C1110 1.415 . S
C1112 C1117 1.425 . S
C1112 C1119 1.409 . S
C1113 H1105 0.930 . S
C1113 C1111 1.419 . S
C1113 C1114 1.362 . S
C1114 H1106 0.930 . S
C1114 C1113 1.362 . S
C1114 C1117 1.409 . S
C1115 H1107 0.930 . S
C1115 C1116 1.355 . S
C1115 C1117 1.415 . S
C1116 C1115 1.355 . S
C1116 C1118 1.419 . S
C1117 C1112 1.425 . S
C1117 C1114 1.409 . S
C1117 C1115 1.415 . S
C1118 H1108 0.930 . S
C1118 C1116 1.419 . S
C1118 C1119 1.362 . S
C1119 H1109 0.930 . S
C1119 C1112 1.409 . S
C1119 C1118 1.362 . S
H1120 C1126 0.930 . S
H1121 C1129 0.930 . S
H1122 C1130 0.930 . S
H1123 C1131 0.930 . S
H1124 C1134 0.930 . S
H1125 C1135 0.930 . S
C1126 H1120 0.930 . S
C1126 C1127 1.355 . S
C1126 C1128 1.415 . S
C1127 C1126 1.355 . S
C1127 C1129 1.419 . S
C1128 C1126 1.415 . S
C1128 C1133 1.425 . S
C1128 C1135 1.409 . S
C1129 H1121 0.930 . S
C1129 C1127 1.419 . S
C1129 C1130 1.362 . S
C1130 H1122 0.930 . S
C1130 C1129 1.362 . S
C1130 C1133 1.409 . S
C1131 H1123 0.930 . S
C1131 C1132 1.355 . S
C1131 C1133 1.415 . S
C1132 C1131 1.355 . S
C1132 C1134 1.419 . S
C1133 C1128 1.425 . S
C1133 C1130 1.409 . S
C1133 C1131 1.415 . S
C1134 H1124 0.930 . S
C1134 C1132 1.419 . S
C1134 C1135 1.362 . S
C1135 H1125 0.930 . S
C1135 C1128 1.409 . S
C1135 C1134 1.362 . S
H1136 C1142 0.930 . S
H1137 C1145 0.930 . S
H1138 C1146 0.930 . S
H1139 C1147 0.930 . S
H1140 C1150 0.930 . S
H1141 C1151 0.930 . S
C1142 H1136 0.930 . S
C1142 C1143 1.355 . S
C1142 C1144 1.415 . S
C1143 C1142 1.355 . S
C1143 C1145 1.419 . S
C1144 C1142 1.415 . S
C1144 C1149 1.425 . S
C1144 C1151 1.409 . S
C1145 H1137 0.930 . S
C1145 C1143 1.419 . S
C1145 C1146 1.362 . S
C1146 H1138 0.930 . S
C1146 C1145 1.362 . S
C1146 C1149 1.409 . S
C1147 H1139 0.930 . S
C1147 C1148 1.355 . S
C1147 C1149 1.415 . S
C1148 C1147 1.355 . S
C1148 C1150 1.419 . S
C1149 C1144 1.425 . S
C1149 C1146 1.409 . S
C1149 C1147 1.415 . S
C1150 H1140 0.930 . S
C1150 C1148 1.419 . S
C1150 C1151 1.362 . S
C1151 H1141 0.930 . S
C1151 C1144 1.409 . S
C1151 C1150 1.362 . S
H1152 C1158 0.930 . S
H1153 C1161 0.930 . S
H1154 C1162 0.930 1_554 S
H1155 C1163 0.930 1_554 S
H1156 C1166 0.930 . S
H1157 C1167 0.930 . S
C1158 H1152 0.930 . S
C1158 C1159 1.355 . S
C1158 C1160 1.415 . S
C1159 C1158 1.355 . S
C1159 C1161 1.419 . S
C1160 C1158 1.415 . S
C1160 C1165 1.425 . S
C1160 C1167 1.409 . S
C1161 H1153 0.930 . S
C1161 C1159 1.419 . S
C1161 C1162 1.362 . S
C1162 H1154 0.930 1_556 S
C1162 C1161 1.362 . S
C1162 C1165 1.409 . S
C1163 H1155 0.930 1_556 S
C1163 C1164 1.355 . S
C1163 C1165 1.415 . S
C1164 C1163 1.355 . S
C1164 C1166 1.419 . S
C1165 C1160 1.425 . S
C1165 C1162 1.409 . S
C1165 C1163 1.415 . S
C1166 H1156 0.930 . S
C1166 C1164 1.419 . S
C1166 C1167 1.362 . S
C1167 H1157 0.930 . S
C1167 C1160 1.409 . S
C1167 C1166 1.362 . S
H1168 C1174 0.930 . S
H1169 C1177 0.930 . S
H1170 C1178 0.930 . S
H1171 C1179 0.930 . S
H1172 C1182 0.930 . S
H1173 C1183 0.930 . S
C1174 H1168 0.930 . S
C1174 C1175 1.355 . S
C1174 C1176 1.415 . S
C1175 C1174 1.355 . S
C1175 C1177 1.419 . S
C1176 C1174 1.415 . S
C1176 C1181 1.425 . S
C1176 C1183 1.409 . S
C1177 H1169 0.930 . S
C1177 C1175 1.419 . S
C1177 C1178 1.362 . S
C1178 H1170 0.930 . S
C1178 C1177 1.362 . S
C1178 C1181 1.409 . S
C1179 H1171 0.930 . S
C1179 C1180 1.355 . S
C1179 C1181 1.415 . S
C1180 C1179 1.355 . S
C1180 C1182 1.419 . S
C1181 C1176 1.425 . S
C1181 C1178 1.409 . S
C1181 C1179 1.415 . S
C1182 H1172 0.930 . S
C1182 C1180 1.419 . S
C1182 C1183 1.362 . S
C1183 H1173 0.930 . S
C1183 C1176 1.409 . S
C1183 C1182 1.362 . S
H1184 C1190 0.930 . S
H1185 C1193 0.930 . S
H1186 C1194 0.930 . S
H1187 C1195 0.930 . S
H1188 C1198 0.930 . S
H1189 C1199 0.930 . S
C1190 H1184 0.930 . S
C1190 C1191 1.355 . S
C1190 C1192 1.415 . S
C1191 C1190 1.355 . S
C1191 C1193 1.419 . S
C1192 C1190 1.415 . S
C1192 C1197 1.425 . S
C1192 C1199 1.409 . S
C1193 H1185 0.930 . S
C1193 C1191 1.419 . S
C1193 C1194 1.362 . S
C1194 H1186 0.930 . S
C1194 C1193 1.362 . S
C1194 C1197 1.409 . S
C1195 H1187 0.930 . S
C1195 C1196 1.355 . S
C1195 C1197 1.415 . S
C1196 C1195 1.355 . S
C1196 C1198 1.419 . S
C1197 C1192 1.425 . S
C1197 C1194 1.409 . S
C1197 C1195 1.415 . S
C1198 H1188 0.930 . S
C1198 C1196 1.419 . S
C1198 C1199 1.362 . S
C1199 H1189 0.930 . S
C1199 C1192 1.409 . S
C1199 C1198 1.362 . S
H1200 C1206 0.930 1_455 S
H1201 C1209 0.930 . S
H1202 C1210 0.930 . S
H1203 C1211 0.930 . S
H1204 C1214 0.930 . S
H1205 C1215 0.930 . S
C1206 H1200 0.930 1_655 S
C1206 C1207 1.355 . S
C1206 C1208 1.415 . S
C1207 C1206 1.355 . S
C1207 C1209 1.419 . S
C1208 C1206 1.415 . S
C1208 C1213 1.425 . S
C1208 C1215 1.409 1_654 S
C1209 H1201 0.930 . S
C1209 C1207 1.419 . S
C1209 C1210 1.362 . S
C1210 H1202 0.930 . S
C1210 C1209 1.362 . S
C1210 C1213 1.409 . S
C1211 H1203 0.930 . S
C1211 C1212 1.355 1_554 S
C1211 C1213 1.415 . S
C1212 C1211 1.355 1_556 S
C1212 C1214 1.419 1_655 S
C1213 C1208 1.425 . S
C1213 C1210 1.409 . S
C1213 C1211 1.415 . S
C1214 H1204 0.930 . S
C1214 C1212 1.419 1_455 S
C1214 C1215 1.362 . S
C1215 H1205 0.930 . S
C1215 C1208 1.409 1_456 S
C1215 C1214 1.362 . S
H1216 C1222 0.930 . S
H1217 C1225 0.930 . S
H1218 C1226 0.930 . S
H1219 C1227 0.930 . S
H1220 C1230 0.930 . S
H1221 C1231 0.930 . S
C1222 H1216 0.930 . S
C1222 C1223 1.355 . S
C1222 C1224 1.415 . S
C1223 C1222 1.355 . S
C1223 C1225 1.419 . S
C1224 C1222 1.415 . S
C1224 C1229 1.425 . S
C1224 C1231 1.409 . S
C1225 H1217 0.930 . S
C1225 C1223 1.419 . S
C1225 C1226 1.362 . S
C1226 H1218 0.930 . S
C1226 C1225 1.362 . S
C1226 C1229 1.409 . S
C1227 H1219 0.930 . S
C1227 C1228 1.355 . S
C1227 C1229 1.415 . S
C1228 C1227 1.355 . S
C1228 C1230 1.419 . S
C1229 C1224 1.425 . S
C1229 C1226 1.409 . S
C1229 C1227 1.415 . S
C1230 H1220 0.930 . S
C1230 C1228 1.419 . S
C1230 C1231 1.362 . S
C1231 H1221 0.930 . S
C1231 C1224 1.409 . S
C1231 C1230 1.362 . S
H1232 C1238 0.930 . S
H1233 C1241 0.930 . S
H1234 C1242 0.930 . S
H1235 C1243 0.930 . S
H1236 C1246 0.930 . S
H1237 C1247 0.930 . S
C1238 H1232 0.930 . S
C1238 C1239 1.355 . S
C1238 C1240 1.415 . S
C1239 C1238 1.355 . S
C1239 C1241 1.419 . S
C1240 C1238 1.415 . S
C1240 C1245 1.425 . S
C1240 C1247 1.409 . S
C1241 H1233 0.930 . S
C1241 C1239 1.419 . S
C1241 C1242 1.362 . S
C1242 H1234 0.930 . S
C1242 C1241 1.362 . S
C1242 C1245 1.409 . S
C1243 H1235 0.930 . S
C1243 C1244 1.355 . S
C1243 C1245 1.415 . S
C1244 C1243 1.355 . S
C1244 C1246 1.419 . S
C1245 C1240 1.425 . S
C1245 C1242 1.409 . S
C1245 C1243 1.415 . S
C1246 H1236 0.930 . S
C1246 C1244 1.419 . S
C1246 C1247 1.362 . S
C1247 H1237 0.930 . S
C1247 C1240 1.409 . S
C1247 C1246 1.362 . S
H1248 C1254 0.930 . S
H1249 C1257 0.930 . S
H1250 C1258 0.930 . S
H1251 C1259 0.930 . S
H1252 C1262 0.930 . S
H1253 C1263 0.930 . S
C1254 H1248 0.930 . S
C1254 C1255 1.355 . S
C1254 C1256 1.415 . S
C1255 C1254 1.355 . S
C1255 C1257 1.419 . S
C1256 C1254 1.415 . S
C1256 C1261 1.425 . S
C1256 C1263 1.409 . S
C1257 H1249 0.930 . S
C1257 C1255 1.419 . S
C1257 C1258 1.362 . S
C1258 H1250 0.930 . S
C1258 C1257 1.362 . S
C1258 C1261 1.409 . S
C1259 H1251 0.930 . S
C1259 C1260 1.355 . S
C1259 C1261 1.415 . S
C1260 C1259 1.355 . S
C1260 C1262 1.419 . S
C1261 C1256 1.425 . S
C1261 C1258 1.409 . S
C1261 C1259 1.415 . S
C1262 H1252 0.930 . S
C1262 C1260 1.419 . S
C1262 C1263 1.362 . S
C1263 H1253 0.930 . S
C1263 C1256 1.409 . S
C1263 C1262 1.362 . S
H1264 C1270 0.930 . S
H1265 C1273 0.930 . S
H1266 C1274 0.930 . S
H1267 C1275 0.930 . S
H1268 C1278 0.930 . S
H1269 C1279 0.930 . S
C1270 H1264 0.930 . S
C1270 C1271 1.355 . S
C1270 C1272 1.415 . S
C1271 C1270 1.355 . S
C1271 C1273 1.419 . S
C1272 C1270 1.415 . S
C1272 C1277 1.425 . S
C1272 C1279 1.409 . S
C1273 H1265 0.930 . S
C1273 C1271 1.419 . S
C1273 C1274 1.362 . S
C1274 H1266 0.930 . S
C1274 C1273 1.362 . S
C1274 C1277 1.409 . S
C1275 H1267 0.930 . S
C1275 C1276 1.355 . S
C1275 C1277 1.415 . S
C1276 C1275 1.355 . S
C1276 C1278 1.419 . S
C1277 C1272 1.425 . S
C1277 C1274 1.409 . S
C1277 C1275 1.415 . S
C1278 H1268 0.930 . S
C1278 C1276 1.419 . S
C1278 C1279 1.362 . S
C1279 H1269 0.930 . S
C1279 C1272 1.409 . S
C1279 C1278 1.362 . S
H1280 C1286 0.930 . S
H1281 C1289 0.930 . S
H1282 C1290 0.930 . S
H1283 C1291 0.930 . S
H1284 C1294 0.930 . S
H1285 C1295 0.930 . S
C1286 H1280 0.930 . S
C1286 C1287 1.355 . S
C1286 C1288 1.415 . S
C1287 C1286 1.355 . S
C1287 C1289 1.419 . S
C1288 C1286 1.415 . S
C1288 C1293 1.425 . S
C1288 C1295 1.409 . S
C1289 H1281 0.930 . S
C1289 C1287 1.419 . S
C1289 C1290 1.362 . S
C1290 H1282 0.930 . S
C1290 C1289 1.362 . S
C1290 C1293 1.409 . S
C1291 H1283 0.930 . S
C1291 C1292 1.355 . S
C1291 C1293 1.415 . S
C1292 C1291 1.355 . S
C1292 C1294 1.419 . S
C1293 C1288 1.425 . S
C1293 C1290 1.409 . S
C1293 C1291 1.415 . S
C1294 H1284 0.930 . S
C1294 C1292 1.419 . S
C1294 C1295 1.362 . S
C1295 H1285 0.930 . S
C1295 C1288 1.409 . S
C1295 C1294 1.362 . S
H1296 C1302 0.930 . S
H1297 C1305 0.930 . S
H1298 C1306 0.930 . S
H1299 C1307 0.930 . S
H1300 C1310 0.930 . S
H1301 C1311 0.930 . S
C1302 H1296 0.930 . S
C1302 C1303 1.355 . S
C1302 C1304 1.415 . S
C1303 C1302 1.355 . S
C1303 C1305 1.419 . S
C1304 C1302 1.415 . S
C1304 C1309 1.425 1_565 S
C1304 C1311 1.409 . S
C1305 H1297 0.930 . S
C1305 C1303 1.419 . S
C1305 C1306 1.362 1_565 S
C1306 H1298 0.930 . S
C1306 C1305 1.362 1_545 S
C1306 C1309 1.409 . S
C1307 H1299 0.930 . S
C1307 C1308 1.355 . S
C1307 C1309 1.415 . S
C1308 C1307 1.355 . S
C1308 C1310 1.419 . S
C1309 C1304 1.425 1_545 S
C1309 C1306 1.409 . S
C1309 C1307 1.415 . S
C1310 H1300 0.930 . S
C1310 C1308 1.419 . S
C1310 C1311 1.362 1_545 S
C1311 H1301 0.930 . S
C1311 C1304 1.409 . S
C1311 C1310 1.362 1_565 S
H1312 C1318 0.949 . S
H1313 C1321 0.930 . S
H1314 C1322 0.930 . S
H1315 C1323 0.949 . S
H1316 C1326 0.930 . S
H1317 C1327 0.930 1_556 S
C1318 H1312 0.949 . S
C1318 C1319 1.355 . S
C1318 C1320 1.415 1_546 S
C1319 C1318 1.355 . S
C1319 C1321 1.419 1_556 S
C1320 C1318 1.415 1_564 S
C1320 C1325 1.425 1_565 S
C1320 C1327 1.409 . S
C1321 H1313 0.930 . S
C1321 C1319 1.419 1_554 S
C1321 C1322 1.362 . S
C1322 H1314 0.930 . S
C1322 C1321 1.362 . S
C1322 C1325 1.409 . S
C1323 H1315 0.949 . S
C1323 C1324 1.355 . S
C1323 C1325 1.415 1_565 S
C1324 C1323 1.355 . S
C1324 C1326 1.419 . S
C1325 C1320 1.425 1_545 S
C1325 C1322 1.409 . S
C1325 C1323 1.415 1_545 S
C1326 H1316 0.930 . S
C1326 C1324 1.419 . S
C1326 C1327 1.362 . S
C1327 H1317 0.930 1_554 S
C1327 C1320 1.409 . S
C1327 C1326 1.362 . S
H1328 C1334 0.930 1_655 S
H1329 C1337 0.930 . S
H1330 C1338 0.930 . S
H1331 C1339 0.930 . S
H1332 C1342 0.940 . S
H1333 C1343 0.930 . S
C1334 H1328 0.930 1_455 S
C1334 C1335 1.355 . S
C1334 C1336 1.415 . S
C1335 C1334 1.355 . S
C1335 C1337 1.419 . S
C1336 C1334 1.415 . S
C1336 C1341 1.425 . S
C1336 C1343 1.409 1_455 S
C1337 H1329 0.930 . S
C1337 C1335 1.419 . S
C1337 C1338 1.362 . S
C1338 H1330 0.930 . S
C1338 C1337 1.362 . S
C1338 C1341 1.409 . S
C1339 H1331 0.930 . S
C1339 C1340 1.355 . S
C1339 C1341 1.415 . S
C1340 C1339 1.355 . S
C1340 C1342 1.407 1_455 S
C1341 C1336 1.425 . S
C1341 C1338 1.409 . S
C1341 C1339 1.415 . S
C1342 H1332 0.940 . S
C1342 C1340 1.407 1_655 S
C1342 C1343 1.365 . S
C1343 H1333 0.930 . S
C1343 C1336 1.409 1_655 S
C1343 C1342 1.365 . S
H1344 C1350 0.930 . S
H1345 C1353 0.930 . S
H1346 C1354 0.930 . S
H1347 C1355 0.930 . S
H1348 C1358 0.930 . S
H1349 C1359 0.930 . S
C1350 H1344 0.930 . S
C1350 C1351 1.355 . S
C1350 C1352 1.415 . S
C1351 C1350 1.355 . S
C1351 C1353 1.419 . S
C1352 C1350 1.415 . S
C1352 C1357 1.425 . S
C1352 C1359 1.409 . S
C1353 H1345 0.930 . S
C1353 C1351 1.419 . S
C1353 C1354 1.362 . S
C1354 H1346 0.930 . S
C1354 C1353 1.362 . S
C1354 C1357 1.409 . S
C1355 H1347 0.930 . S
C1355 C1356 1.355 . S
C1355 C1357 1.415 . S
C1356 C1355 1.355 . S
C1356 C1358 1.419 . S
C1357 C1352 1.425 . S
C1357 C1354 1.409 . S
C1357 C1355 1.415 . S
C1358 H1348 0.930 . S
C1358 C1356 1.419 . S
C1358 C1359 1.362 . S
C1359 H1349 0.930 . S
C1359 C1352 1.409 . S
C1359 C1358 1.362 . S
H1360 C1366 0.930 . S
H1361 C1369 0.930 . S
H1362 C1370 0.930 1_556 S
H1363 C1371 0.930 . S
H1364 C1374 0.930 . S
H1365 C1375 0.930 . S
C1366 H1360 0.930 . S
C1366 C1367 1.355 . S
C1366 C1368 1.415 . S
C1367 C1366 1.355 . S
C1367 C1369 1.419 . S
C1368 C1366 1.415 . S
C1368 C1373 1.425 . S
C1368 C1375 1.409 . S
C1369 H1361 0.930 . S
C1369 C1367 1.419 . S
C1369 C1370 1.362 . S
C1370 H1362 0.930 1_554 S
C1370 C1369 1.362 . S
C1370 C1373 1.409 . S
C1371 H1363 0.930 . S
C1371 C1372 1.355 . S
C1371 C1373 1.415 1_556 S
C1372 C1371 1.355 . S
C1372 C1374 1.419 1_556 S
C1373 C1368 1.425 . S
C1373 C1370 1.409 . S
C1373 C1371 1.415 1_554 S
C1374 H1364 0.930 . S
C1374 C1372 1.419 1_554 S
C1374 C1375 1.362 . S
C1375 H1365 0.930 . S
C1375 C1368 1.409 . S
C1375 C1374 1.362 . S
H1376 C1382 0.930 . S
H1377 C1385 0.930 . S
H1378 C1386 0.930 . S
H1379 C1387 0.930 . S
H1380 C1390 0.930 . S
H1381 C1391 0.930 . S
C1382 H1376 0.930 . S
C1382 C1383 1.355 . S
C1382 C1384 1.415 . S
C1383 C1382 1.355 . S
C1383 C1385 1.419 . S
C1384 C1382 1.415 . S
C1384 C1389 1.425 . S
C1384 C1391 1.409 . S
C1385 H1377 0.930 . S
C1385 C1383 1.419 . S
C1385 C1386 1.362 . S
C1386 H1378 0.930 . S
C1386 C1385 1.362 . S
C1386 C1389 1.409 . S
C1387 H1379 0.930 . S
C1387 C1388 1.355 . S
C1387 C1389 1.415 . S
C1388 C1387 1.355 . S
C1388 C1390 1.419 . S
C1389 C1384 1.425 . S
C1389 C1386 1.409 . S
C1389 C1387 1.415 . S
C1390 H1380 0.930 . S
C1390 C1388 1.419 . S
C1390 C1391 1.362 . S
C1391 H1381 0.930 . S
C1391 C1384 1.409 . S
C1391 C1390 1.362 . S
H1392 C1398 0.930 . S
H1393 C1401 0.930 . S
H1394 C1402 0.930 . S
H1395 C1403 0.930 . S
H1396 C1406 0.930 . S
H1397 C1407 0.930 . S
C1398 H1392 0.930 . S
C1398 C1399 1.355 . S
C1398 C1400 1.415 . S
C1399 C1398 1.355 . S
C1399 C1401 1.419 . S
C1400 C1398 1.415 . S
C1400 C1405 1.425 . S
C1400 C1407 1.409 . S
C1401 H1393 0.930 . S
C1401 C1399 1.419 . S
C1401 C1402 1.362 . S
C1402 H1394 0.930 . S
C1402 C1401 1.362 . S
C1402 C1405 1.409 . S
C1403 H1395 0.930 . S
C1403 C1404 1.355 . S
C1403 C1405 1.415 . S
C1404 C1403 1.355 . S
C1404 C1406 1.419 . S
C1405 C1400 1.425 . S
C1405 C1402 1.409 . S
C1405 C1403 1.415 . S
C1406 H1396 0.930 . S
C1406 C1404 1.419 . S
C1406 C1407 1.362 . S
C1407 H1397 0.930 . S
C1407 C1400 1.409 . S
C1407 C1406 1.362 . S
H1408 C1414 0.930 . S
H1409 C1417 0.930 . S
H1410 C1418 0.930 . S
H1411 C1419 0.930 . S
H1412 C1422 0.930 . S
H1413 C1423 0.930 . S
C1414 H1408 0.930 . S
C1414 C1415 1.355 . S
C1414 C1416 1.415 . S
C1415 C1414 1.355 . S
C1415 C1417 1.419 . S
C1416 C1414 1.415 . S
C1416 C1421 1.425 . S
C1416 C1423 1.409 . S
C1417 H1409 0.930 . S
C1417 C1415 1.419 . S
C1417 C1418 1.362 . S
C1418 H1410 0.930 . S
C1418 C1417 1.362 . S
C1418 C1421 1.409 . S
C1419 H1411 0.930 . S
C1419 C1420 1.355 . S
C1419 C1421 1.415 . S
C1420 C1419 1.355 . S
C1420 C1422 1.419 . S
C1421 C1416 1.425 . S
C1421 C1418 1.409 . S
C1421 C1419 1.415 . S
C1422 H1412 0.930 . S
C1422 C1420 1.419 . S
C1422 C1423 1.362 . S
C1423 H1413 0.930 . S
C1423 C1416 1.409 . S
C1423 C1422 1.362 . S
H1424 C1430 0.930 . S
H1425 C1433 0.930 . S
H1426 C1434 0.930 . S
H1427 C1435 0.930 . S
H1428 C1438 0.930 . S
H1429 C1439 0.930 . S
C1430 H1424 0.930 . S
C1430 C1431 1.355 . S
C1430 C1432 1.415 . S
C1431 C1430 1.355 . S
C1431 C1433 1.419 . S
C1432 C1430 1.415 . S
C1432 C1437 1.425 1_565 S
C1432 C1439 1.409 1_565 S
C1433 H1425 0.930 . S
C1433 C1431 1.419 . S
C1433 C1434 1.362 . S
C1434 H1426 0.930 . S
C1434 C1433 1.362 . S
C1434 C1437 1.409 1_565 S
C1435 H1427 0.930 . S
C1435 C1436 1.355 . S
C1435 C1437 1.415 1_556 S
C1436 C1435 1.355 . S
C1436 C1438 1.419 . S
C1437 C1432 1.425 1_545 S
C1437 C1434 1.409 1_545 S
C1437 C1435 1.415 1_554 S
C1438 H1428 0.930 . S
C1438 C1436 1.419 . S
C1438 C1439 1.362 1_556 S
C1439 H1429 0.930 . S
C1439 C1432 1.409 1_545 S
C1439 C1438 1.362 1_554 S
H1440 C1446 0.930 . S
H1441 C1449 0.930 . S
H1442 C1450 0.930 1_565 S
H1443 C1451 0.946 . S
H1444 C1454 0.930 . S
H1445 C1455 0.930 1_545 S
C1446 H1440 0.930 . S
C1446 C1447 1.355 . S
C1446 C1448 1.415 . S
C1447 C1446 1.355 . S
C1447 C1449 1.419 1_655 S
C1448 C1446 1.415 . S
C1448 C1453 1.425 1_545 S
C1448 C1455 1.409 1_545 S
C1449 H1441 0.930 . S
C1449 C1447 1.419 1_455 S
C1449 C1450 1.362 . S
C1450 H1442 0.930 1_545 S
C1450 C1449 1.362 . S
C1450 C1453 1.409 1_445 S
C1451 H1443 0.946 . S
C1451 C1452 1.342 1_455 S
C1451 C1453 1.412 1_455 S
C1452 C1451 1.342 1_655 S
C1452 C1454 1.419 . S
C1453 C1448 1.425 1_565 S
C1453 C1450 1.409 1_665 S
C1453 C1451 1.412 1_655 S
C1454 H1444 0.930 . S
C1454 C1452 1.419 . S
C1454 C1455 1.362 . S
C1455 H1445 0.930 1_565 S
C1455 C1448 1.409 1_565 S
C1455 C1454 1.362 . S
C951 C564 1.848 . S
C956 C33 1.849 . S
C967 C859 1.791 . S
C972 C92 1.791 . S
C983 C151 1.793 . S
C988 C505 1.792 . S
C999 C210 1.825 1_556 S
C1004 C918 1.823 . S
C1015 C269 1.790 . S
C1020 C623 1.789 1_556 S
C1031 C800 1.792 . S
C1036 C328 1.793 . S
C1047 C682 1.856 . S
C1052 C387 1.855 . S
C1063 C446 1.851 . S
C1068 C741 1.852 . S
C1079 C288 1.525 . S
C1084 C229 1.515 . S
C1095 C760 1.523 . S
C1100 C524 1.512 . S
C1111 C406 1.502 . S
C1116 C111 1.502 . S
C1127 C583 1.505 . S
C1132 C819 1.501 . S
C1143 C52 1.503 . S
C1148 C347 1.512 . S
C1159 C937 1.521 . S
C1164 C642 1.528 . S
C1175 C465 1.508 . S
C1180 C170 1.519 . S
C1191 C701 1.504 . S
C1196 C878 1.513 . S
C1207 C3 0.674 . S
C1212 C239 0.650 . S
C1223 C298 0.671 . S
C1228 C62 0.646 . S
C1239 C357 0.599 . S
C1244 C121 0.620 . S
C1255 C180 0.594 . S
C1260 C416 0.593 . S
C1271 C593 0.690 . S
C1276 C475 0.685 . S
C1287 C652 0.640 . S
C1292 C534 0.614 . S
C1303 C829 0.686 . S
C1308 C711 0.670 . S
C1319 C888 0.592 . S
C1324 C770 0.603 . S
C1335 C241 1.942 . S
C1340 C5 1.930 . S
C1351 C300 1.928 . S
C1356 C64 1.933 . S
C1367 C359 1.947 . S
C1372 C123 1.958 . S
C1383 C182 1.945 . S
C1388 C418 1.957 . S
C1399 C477 1.937 . S
C1404 C595 1.928 . S
C1415 C654 1.958 . S
C1420 C536 1.955 . S
C1431 C831 1.933 . S
C1436 C713 1.948 . S
C1447 C890 1.931 . S
C1452 C772 1.943 . S
