# Generated by pormake.
# Topology qtz-a, (4)-cn, num edge types: 1
# Building blocks:
#     Node 0, Type 0, BuildingBlock: AZAVOO_clean_sbu_0, # of connection points: 4
#     Node 1, Type 0, BuildingBlock: AZAVOO_clean_sbu_0, # of connection points: 4
#     Node 2, Type 0, BuildingBlock: AZAVOO_clean_sbu_0, # of connection points: 4
#     Node 3, Type 0, BuildingBlock: AZAVOO_clean_sbu_0, # of connection points: 4
#     Node 4, Type 0, BuildingBlock: AZAVOO_clean_sbu_0, # of connection points: 4
#     Node 5, Type 0, BuildingBlock: AZAVOO_clean_sbu_0, # of connection points: 4
#     Node 6, Type 0, BuildingBlock: AZAVOO_clean_sbu_0, # of connection points: 4
#     Node 7, Type 0, BuildingBlock: AZAVOO_clean_sbu_0, # of connection points: 4
#     Node 8, Type 0, BuildingBlock: AZAVOO_clean_sbu_0, # of connection points: 4
#     Node 9, Type 0, BuildingBlock: AZAVOO_clean_sbu_0, # of connection points: 4
#     Node 10, Type 0, BuildingBlock: AZAVOO_clean_sbu_0, # of connection points: 4
#     Node 11, Type 0, BuildingBlock: AZAVOO_clean_sbu_0, # of connection points: 4
#     Edge 12, Type (0, 0), BuildingBlock: UVAHIK_clean_linker_0, # of connection points: 2
#     Edge 13, Type (0, 0), BuildingBlock: UVAHIK_clean_linker_0, # of connection points: 2
#     Edge 14, Type (0, 0), BuildingBlock: UVAHIK_clean_linker_0, # of connection points: 2
#     Edge 15, Type (0, 0), BuildingBlock: UVAHIK_clean_linker_0, # of connection points: 2
#     Edge 16, Type (0, 0), BuildingBlock: UVAHIK_clean_linker_0, # of connection points: 2
#     Edge 17, Type (0, 0), BuildingBlock: UVAHIK_clean_linker_0, # of connection points: 2
#     Edge 18, Type (0, 0), BuildingBlock: UVAHIK_clean_linker_0, # of connection points: 2
#     Edge 19, Type (0, 0), BuildingBlock: UVAHIK_clean_linker_0, # of connection points: 2
#     Edge 20, Type (0, 0), BuildingBlock: UVAHIK_clean_linker_0, # of connection points: 2
#     Edge 21, Type (0, 0), BuildingBlock: UVAHIK_clean_linker_0, # of connection points: 2
#     Edge 22, Type (0, 0), BuildingBlock: UVAHIK_clean_linker_0, # of connection points: 2
#     Edge 23, Type (0, 0), BuildingBlock: UVAHIK_clean_linker_0, # of connection points: 2
#     Edge 24, Type (0, 0), BuildingBlock: UVAHIK_clean_linker_0, # of connection points: 2
#     Edge 25, Type (0, 0), BuildingBlock: UVAHIK_clean_linker_0, # of connection points: 2
#     Edge 26, Type (0, 0), BuildingBlock: UVAHIK_clean_linker_0, # of connection points: 2
#     Edge 27, Type (0, 0), BuildingBlock: UVAHIK_clean_linker_0, # of connection points: 2
#     Edge 28, Type (0, 0), BuildingBlock: UVAHIK_clean_linker_0, # of connection points: 2
#     Edge 29, Type (0, 0), BuildingBlock: UVAHIK_clean_linker_0, # of connection points: 2
#     Edge 30, Type (0, 0), BuildingBlock: UVAHIK_clean_linker_0, # of connection points: 2
#     Edge 31, Type (0, 0), BuildingBlock: UVAHIK_clean_linker_0, # of connection points: 2
#     Edge 32, Type (0, 0), BuildingBlock: UVAHIK_clean_linker_0, # of connection points: 2
#     Edge 33, Type (0, 0), BuildingBlock: UVAHIK_clean_linker_0, # of connection points: 2
#     Edge 34, Type (0, 0), BuildingBlock: UVAHIK_clean_linker_0, # of connection points: 2
#     Edge 35, Type (0, 0), BuildingBlock: UVAHIK_clean_linker_0, # of connection points: 2
# Relax obj value: 0.802
# Max RMSD: 0.290
# Mean RMSD: 0.288
data_MOF--net-qtz-a--node1-AZAVOO_clean_sbu_0--edge1-UVAHIK_clean_linker_0
_symmetry_space_group_name_H-M    P1
_symmetry_Int_Tables_number       1
_symmetry_cell_setting            triclinic
loop_
_symmetry_equiv_pos_as_xyz
'x, y, z'
_cell_length_a     48.687979
_cell_length_b     48.730024
_cell_length_c     64.264951
_cell_angle_alpha  89.997943
_cell_angle_beta   89.988187
_cell_angle_gamma 97.44452
loop_
_atom_site_label
_atom_site_type_symbol
_atom_site_fract_x
_atom_site_fract_y
_atom_site_fract_z
_atom_type_partial_charge
Mg0 Mg 0.47661 0.18688 0.06162 0.0
O1 O 0.5014 0.16625 0.03706 0.0
O2 O 0.48054 0.12302 0.03255 0.0
Mg3 Mg 0.444 0.11534 0.05541 0.0
C4 C 0.4996 0.14271 0.02808 0.0
C5 C 0.51031 0.2463 0.0656 0.0
O6 O 0.52503 0.26917 0.05904 0.0
O7 O 0.44211 0.19007 0.03766 0.0
O8 O 0.4218 0.14606 0.03703 0.0
O9 O 0.50299 0.17094 0.08646 0.0
O10 O 0.46329 0.14891 0.07522 0.0
C11 C 0.42294 0.17136 0.03158 0.0
C12 C 0.4849 0.14898 0.08666 0.0
O13 O 0.49924 0.22893 0.05231 0.0
Mg14 Mg 0.29788 0.45349 0.44174 0.0
O15 O 0.29271 0.49271 0.42242 0.0
O16 O 0.31425 0.48755 0.39218 0.0
Mg17 Mg 0.33532 0.44854 0.39268 0.0
C18 C 0.30034 0.50132 0.40424 0.0
C19 C 0.26689 0.48415 0.47488 0.0
O20 O 0.28683 0.5037 0.46957 0.0
O21 O 0.26806 0.42387 0.42201 0.0
O22 O 0.29441 0.41965 0.39403 0.0
O23 O 0.33598 0.47588 0.45571 0.0
O24 O 0.33569 0.4511 0.4269 0.0
C25 C 0.27234 0.41272 0.40452 0.0
C26 C 0.34943 0.46735 0.44012 0.0
O27 O 0.26426 0.46144 0.46489 0.0
Mg28 Mg 0.96496 0.31937 0.91448 0.0
O29 O 0.95955 0.35334 0.89053 0.0
O30 O 0.9972 0.38486 0.89211 0.0
Mg31 Mg 0.02628 0.37141 0.91713 0.0
C32 C 0.97361 0.37581 0.8843 0.0
C33 C 0.91409 0.27602 0.91377 0.0
O34 O 0.92208 0.27635 0.93331 0.0
O35 O 0.99548 0.30281 0.89192 0.0
O36 O 0.03255 0.3346 0.89639 0.0
O37 O 0.94604 0.34376 0.9389 0.0
O38 O 0.99085 0.34743 0.93225 0.0
C39 C 0.02077 0.3122 0.88827 0.0
C40 C 0.97074 0.35646 0.94196 0.0
O41 O 0.92814 0.29182 0.90084 0.0
Mg42 Mg 0.55684 0.83738 0.07971 0.0
O43 O 0.53713 0.86172 0.05253 0.0
O44 O 0.56244 0.90348 0.0493 0.0
Mg45 Mg 0.59556 0.90766 0.07442 0.0
C46 C 0.54246 0.88547 0.04352 0.0
C47 C 0.49711 0.81867 0.0647 0.0
O48 O 0.47393 0.81747 0.0541 0.0
O49 O 0.59037 0.83163 0.05583 0.0
O50 O 0.61544 0.87349 0.05781 0.0
O51 O 0.52976 0.8559 0.10433 0.0
O52 O 0.56728 0.87777 0.09157 0.0
C53 C 0.61202 0.8484 0.05156 0.0
C54 C 0.54616 0.87855 0.103 0.0
O55 O 0.51878 0.83401 0.05829 0.0
Mg56 Mg 0.69647 0.54656 0.43687 0.0
O57 O 0.70019 0.50573 0.41904 0.0
O58 O 0.67566 0.50792 0.38981 0.0
Mg59 Mg 0.6553 0.54735 0.38907 0.0
C60 C 0.69069 0.49526 0.40182 0.0
C61 C 0.72811 0.51711 0.46969 0.0
O62 O 0.70815 0.49764 0.46429 0.0
O63 O 0.72538 0.57412 0.41486 0.0
O64 O 0.69651 0.57549 0.38803 0.0
O65 O 0.65917 0.52567 0.45305 0.0
O66 O 0.6576 0.54779 0.42317 0.0
C67 C 0.7195 0.58353 0.39706 0.0
C68 C 0.64478 0.53269 0.43748 0.0
O69 O 0.73099 0.53974 0.45957 0.0
Mg70 Mg 0.00787 0.67592 0.91526 0.0
O71 O 0.01679 0.64148 0.89228 0.0
O72 O 0.98266 0.60642 0.89628 0.0
Mg73 Mg 0.95177 0.61839 0.92031 0.0
C74 C 0.00516 0.61715 0.88763 0.0
C75 C 0.05779 0.72058 0.91327 0.0
O76 O 0.05445 0.7152 0.93321 0.0
O77 O 0.97456 0.68749 0.89291 0.0
O78 O 0.94134 0.65191 0.89776 0.0
O79 O 0.03041 0.65557 0.94003 0.0
O80 O 0.98549 0.64634 0.93424 0.0
C81 C 0.9504 0.67488 0.88906 0.0
C82 C 0.00717 0.64023 0.94371 0.0
O83 O 0.0413 0.70719 0.9004 0.0
Mg84 Mg 0.82922 0.54663 0.68209 0.0
O85 O 0.85566 0.52676 0.70615 0.0
O86 O 0.89974 0.54524 0.70164 0.0
Mg87 Mg 0.90136 0.57701 0.67526 0.0
C88 C 0.88129 0.52873 0.71106 0.0
C89 C 0.76909 0.51684 0.68847 0.0
O90 O 0.74757 0.50418 0.69849 0.0
O91 O 0.83295 0.58566 0.7022 0.0
O92 O 0.87684 0.60351 0.69595 0.0
O93 O 0.83711 0.51387 0.65943 0.0
O94 O 0.86338 0.55417 0.66248 0.0
C95 C 0.85341 0.60463 0.70464 0.0
C96 C 0.85972 0.52962 0.65468 0.0
O97 O 0.78976 0.52836 0.69875 0.0
Mg98 Mg 0.32198 0.98237 0.84956 0.0
O99 O 0.35454 0.97395 0.87422 0.0
O100 O 0.39019 0.00748 0.87048 0.0
Mg101 Mg 0.38084 0.03708 0.84452 0.0
C102 C 0.37865 0.98556 0.87946 0.0
C103 C 0.27136 0.93888 0.85132 0.0
O104 O 0.27331 0.94657 0.83172 0.0
O105 O 0.30982 0.01738 0.8701 0.0
O106 O 0.34557 0.05024 0.86416 0.0
O107 O 0.34333 0.95787 0.82664 0.0
O108 O 0.35319 0.00298 0.83094 0.0
C109 C 0.3221 0.042 0.87241 0.0
C110 C 0.35948 0.98053 0.82276 0.0
O111 O 0.28913 0.95036 0.86419 0.0
Mg112 Mg 0.45523 0.294 0.31447 0.0
O113 O 0.49469 0.29049 0.33396 0.0
O114 O 0.48967 0.31384 0.3634 0.0
Mg115 Mg 0.45039 0.33451 0.36211 0.0
C116 C 0.50345 0.29933 0.35182 0.0
C117 C 0.48725 0.26221 0.28328 0.0
O118 O 0.50646 0.28185 0.28965 0.0
O119 O 0.42614 0.26502 0.33528 0.0
O120 O 0.42166 0.29353 0.3619 0.0
O121 O 0.47714 0.33127 0.29909 0.0
O122 O 0.45273 0.33269 0.32796 0.0
C123 C 0.41472 0.27068 0.3524 0.0
C124 C 0.46879 0.34561 0.31422 0.0
O125 O 0.46376 0.25956 0.29223 0.0
Mg126 Mg 0.1613 0.44647 0.69068 0.0
O127 O 0.13254 0.4605 0.71659 0.0
O128 O 0.08993 0.43618 0.71565 0.0
Mg129 Mg 0.08942 0.40196 0.691 0.0
C130 C 0.10758 0.45532 0.72336 0.0
C131 C 0.21532 0.49108 0.69188 0.0
O132 O 0.23441 0.50839 0.70114 0.0
O133 O 0.17334 0.41107 0.71239 0.0
O134 O 0.13227 0.40304 0.70091 0.0
O135 O 0.14118 0.47229 0.66784 0.0
O136 O 0.1235 0.42919 0.67442 0.0
C137 C 0.15045 0.39551 0.71269 0.0
C138 C 0.12135 0.45224 0.66521 0.0
O139 O 0.19813 0.47559 0.70304 0.0
Mg140 Mg 0.69219 0.99772 0.8438 0.0
O141 O 0.67147 0.02547 0.8669 0.0
O142 O 0.63071 0.00103 0.87494 0.0
Mg143 Mg 0.62723 0.95797 0.86054 0.0
C144 C 0.64805 0.023 0.8762 0.0
C145 C 0.75443 0.04289 0.84664 0.0
O146 O 0.77772 0.03479 0.84031 0.0
O147 O 0.70543 0.97219 0.87092 0.0
O148 O 0.66448 0.94879 0.87994 0.0
O149 O 0.66788 0.01396 0.81783 0.0
O150 O 0.65445 0.97594 0.83583 0.0
C151 C 0.69061 0.95464 0.8823 0.0
C152 C 0.64895 0.99353 0.82206 0.0
O153 O 0.73208 0.02653 0.84558 0.0
Mg154 Mg 0.54166 0.69301 0.30915 0.0
O155 O 0.50141 0.6967 0.32773 0.0
O156 O 0.50566 0.67372 0.35744 0.0
Mg157 Mg 0.54561 0.6542 0.3577 0.0
C158 C 0.49202 0.68786 0.34545 0.0
C159 C 0.54979 0.7273 0.27064 0.0
O160 O 0.57082 0.71295 0.27171 0.0
O161 O 0.56966 0.72341 0.32981 0.0
O162 O 0.573 0.69584 0.35717 0.0
O163 O 0.52081 0.65475 0.29427 0.0
O164 O 0.54453 0.655 0.32358 0.0
C165 C 0.58011 0.71851 0.34747 0.0
C166 C 0.5291 0.64124 0.3099 0.0
O167 O 0.53298 0.72599 0.28584 0.0
C168 C 0.51228 0.11954 0.99541 0.0
C169 C 0.5199 0.13824 0.01167 0.0
C170 C 0.53113 0.11544 0.9797 0.0
C171 C 0.60207 0.11225 0.96849 0.0
H172 H 0.58004 0.11877 0.91091 0.0
C173 C 0.65863 0.06321 0.90102 0.0
C174 C 0.63975 0.04624 0.88851 0.0
C175 C 0.64912 0.08249 0.91468 0.0
C176 C 0.58664 0.11696 0.92689 0.0
H177 H 0.5534 0.16707 0.02436 0.0
H178 H 0.58688 0.1589 0.9971 0.0
H179 H 0.55273 0.13646 0.93852 0.0
H180 H 0.59673 0.03748 0.87929 0.0
H181 H 0.58032 0.07073 0.90264 0.0
H182 H 0.63471 0.09074 0.957 0.0
C183 C 0.56608 0.14793 0.99646 0.0
C184 C 0.57103 0.12717 0.94265 0.0
C185 C 0.54694 0.15259 0.01197 0.0
C186 C 0.61171 0.05007 0.88892 0.0
C187 C 0.60235 0.06942 0.90219 0.0
C188 C 0.61753 0.10162 0.95268 0.0
C189 C 0.55821 0.12946 0.98012 0.0
C190 C 0.57798 0.12395 0.9636 0.0
C191 C 0.62072 0.08543 0.91564 0.0
C192 C 0.6092 0.10275 0.93175 0.0
H193 H 0.49159 0.10831 0.99469 0.0
H194 H 0.52468 0.10091 0.96733 0.0
H195 H 0.6078 0.10953 0.98458 0.0
H196 H 0.68041 0.06068 0.90097 0.0
H197 H 0.66382 0.09461 0.92478 0.0
C198 C 0.44242 0.68642 0.33476 0.0
C199 C 0.46241 0.68835 0.35065 0.0
C200 C 0.41464 0.67691 0.33922 0.0
C201 C 0.36426 0.65442 0.38189 0.0
H202 H 0.34769 0.58927 0.34736 0.0
C203 C 0.30951 0.55138 0.41272 0.0
C204 C 0.29946 0.53056 0.39855 0.0
C205 C 0.31949 0.57799 0.40562 0.0
C206 C 0.35112 0.60765 0.35694 0.0
H207 H 0.46839 0.68554 0.38396 0.0
H208 H 0.42015 0.66929 0.39174 0.0
H209 H 0.38377 0.62522 0.33697 0.0
H210 H 0.28831 0.52204 0.3664 0.0
H211 H 0.30356 0.56889 0.3542 0.0
H212 H 0.33208 0.63628 0.40225 0.0
C213 C 0.42575 0.6748 0.37582 0.0
C214 C 0.37208 0.62842 0.35091 0.0
C215 C 0.4535 0.68405 0.37135 0.0
C216 C 0.29612 0.53772 0.37763 0.0
C217 C 0.30534 0.56451 0.37062 0.0
C218 C 0.34294 0.63373 0.38783 0.0
C219 C 0.40634 0.66948 0.35967 0.0
C220 C 0.37971 0.65151 0.36371 0.0
C221 C 0.31908 0.58444 0.38423 0.0
C222 C 0.33686 0.60943 0.37588 0.0
H223 H 0.44857 0.68957 0.31864 0.0
H224 H 0.40006 0.67343 0.32647 0.0
H225 H 0.36946 0.67213 0.39199 0.0
H226 H 0.31262 0.54636 0.4289 0.0
H227 H 0.32984 0.59251 0.41671 0.0
C228 C 0.91745 0.51571 0.73568 0.0
C229 C 0.88998 0.51164 0.72841 0.0
C230 C 0.92568 0.50007 0.75223 0.0
C231 C 0.89798 0.45667 0.79681 0.0
H232 H 0.97152 0.43417 0.79658 0.0
C233 C 0.93591 0.38371 0.85905 0.0
C234 C 0.96282 0.39133 0.86687 0.0
C235 C 0.92625 0.39776 0.84211 0.0
C236 C 0.95099 0.44049 0.79694 0.0
H237 H 0.84968 0.48756 0.73281 0.0
H238 H 0.86419 0.4599 0.76143 0.0
H239 H 0.95608 0.4591 0.76684 0.0
H240 H 0.00054 0.41994 0.86299 0.0
H241 H 0.98368 0.44431 0.83351 0.0
H242 H 0.89295 0.43777 0.82693 0.0
C243 C 0.87926 0.47558 0.75456 0.0
C244 C 0.94213 0.45483 0.7799 0.0
C245 C 0.87098 0.49136 0.73805 0.0
C246 C 0.97971 0.41347 0.85742 0.0
C247 C 0.97013 0.42735 0.84041 0.0
C248 C 0.9068 0.44214 0.81381 0.0
C249 C 0.90672 0.47978 0.7619 0.0
C250 C 0.91562 0.46339 0.77969 0.0
C251 C 0.94335 0.41958 0.83249 0.0
C252 C 0.93351 0.43413 0.81415 0.0
H253 H 0.93265 0.53123 0.72875 0.0
H254 H 0.94685 0.50426 0.75767 0.0
H255 H 0.87758 0.46324 0.79733 0.0
H256 H 0.92232 0.36676 0.86593 0.0
H257 H 0.90557 0.39119 0.83627 0.0
C258 C 0.49906 0.87754 0.02145 0.0
C259 C 0.52482 0.89297 0.026 0.0
C260 C 0.48211 0.88597 0.00567 0.0
C261 C 0.47066 0.94858 0.97585 0.0
H262 H 0.42912 0.8969 0.93799 0.0
C263 C 0.42075 0.98575 0.90194 0.0
C264 C 0.39402 0.9734 0.89641 0.0
C265 C 0.4354 0.97479 0.91792 0.0
C266 C 0.44034 0.91156 0.94861 0.0
H267 H 0.55332 0.9289 0.01669 0.0
H268 H 0.52418 0.94321 0.98919 0.0
H269 H 0.45736 0.87958 0.96533 0.0
H270 H 0.36194 0.93943 0.90338 0.0
H271 H 0.3876 0.92035 0.93149 0.0
H272 H 0.45392 0.98055 0.95918 0.0
C273 C 0.51667 0.92495 0.99816 0.0
C274 C 0.45653 0.90163 0.96427 0.0
C275 C 0.53349 0.91661 0.01392 0.0
C276 C 0.38245 0.94953 0.90722 0.0
C277 C 0.3972 0.93849 0.92326 0.0
C278 C 0.45458 0.95846 0.96024 0.0
C279 C 0.49056 0.91003 0.99402 0.0
C280 C 0.47221 0.92009 0.97791 0.0
C281 C 0.42379 0.95115 0.9289 0.0
C282 C 0.43951 0.94014 0.94623 0.0
H283 H 0.49161 0.85932 0.03034 0.0
H284 H 0.46207 0.87404 0.00298 0.0
H285 H 0.48186 0.96337 0.98638 0.0
H286 H 0.43051 0.00401 0.89392 0.0
H287 H 0.45602 0.98477 0.92157 0.0
C288 C 0.68632 0.45531 0.37718 0.0
C289 C 0.69143 0.46547 0.39749 0.0
C290 C 0.67715 0.42729 0.37377 0.0
C291 C 0.63198 0.37521 0.40116 0.0
H292 H 0.63842 0.33176 0.35131 0.0
C293 C 0.54049 0.29752 0.37835 0.0
C294 C 0.53286 0.29914 0.35738 0.0
C295 C 0.56745 0.30732 0.38475 0.0
C296 C 0.63625 0.3436 0.36532 0.0
H297 H 0.69418 0.45357 0.42985 0.0
H298 H 0.67811 0.4046 0.42388 0.0
H299 H 0.67446 0.36988 0.35967 0.0
H300 H 0.54799 0.30985 0.32638 0.0
H301 H 0.59438 0.32812 0.33745 0.0
H302 H 0.59296 0.3511 0.40611 0.0
C303 C 0.68094 0.41841 0.41062 0.0
C304 C 0.65706 0.36534 0.37017 0.0
C305 C 0.6904 0.44645 0.41402 0.0
C306 C 0.55337 0.30808 0.34265 0.0
C307 C 0.58013 0.31866 0.3491 0.0
C308 C 0.61106 0.35386 0.39618 0.0
C309 C 0.67269 0.40886 0.39062 0.0
C310 C 0.65467 0.38199 0.38779 0.0
C311 C 0.58707 0.31995 0.37041 0.0
C312 C 0.61229 0.33833 0.37778 0.0
H313 H 0.68709 0.46943 0.3641 0.0
H314 H 0.67099 0.4207 0.35817 0.0
H315 H 0.62919 0.38783 0.41468 0.0
H316 H 0.52507 0.29059 0.39002 0.0
H317 H 0.57221 0.30681 0.40119 0.0
C318 C 0.11499 0.49646 0.74737 0.0
C319 C 0.09862 0.47207 0.74082 0.0
C320 C 0.10601 0.5125 0.76349 0.0
C321 C 0.0421 0.52482 0.79164 0.0
H322 H 0.09343 0.56116 0.83222 0.0
C323 C 0.00424 0.57461 0.86557 0.0
C324 C 0.01759 0.60083 0.8714 0.0
C325 C 0.01512 0.5594 0.84987 0.0
C326 C 0.0789 0.55136 0.82087 0.0
H327 H 0.06033 0.44504 0.74661 0.0
H328 H 0.04506 0.47255 0.77484 0.0
H329 H 0.11059 0.53339 0.80459 0.0
H330 H 0.0533 0.63132 0.86541 0.0
H331 H 0.07232 0.60463 0.8379 0.0
H332 H 0.0104 0.54248 0.80801 0.0
C333 C 0.06449 0.47976 0.76721 0.0
C334 C 0.08872 0.53546 0.80501 0.0
C335 C 0.07335 0.46387 0.75104 0.0
C336 C 0.04244 0.61123 0.86132 0.0
C337 C 0.05342 0.59589 0.84562 0.0
C338 C 0.0323 0.54055 0.80751 0.0
C339 C 0.08054 0.50446 0.77352 0.0
C340 C 0.0704 0.52184 0.79026 0.0
C341 C 0.0397 0.56992 0.83958 0.0
C342 C 0.05053 0.55388 0.8224 0.0
H343 H 0.13455 0.50345 0.73984 0.0
H344 H 0.1188 0.53152 0.76777 0.0
H345 H 0.02744 0.5152 0.78031 0.0
H346 H 0.98516 0.56578 0.87301 0.0
H347 H 0.00428 0.53927 0.84585 0.0
C348 C 0.37449 0.17306 0.02046 0.0
C349 C 0.40285 0.17758 0.01585 0.0
C350 C 0.35494 0.16937 0.00444 0.0
C351 C 0.34885 0.1639 0.94591 0.0
H352 H 0.29544 0.10065 0.96005 0.0
C353 C 0.31094 0.08868 0.8819 0.0
C354 C 0.31156 0.0609 0.88737 0.0
C355 C 0.3097 0.10874 0.8973 0.0
C356 C 0.31029 0.11821 0.95572 0.0
H357 H 0.43322 0.18359 0.99123 0.0
H358 H 0.39968 0.17596 0.96329 0.0
H359 H 0.31905 0.12811 0.98747 0.0
H360 H 0.30934 0.03177 0.91284 0.0
H361 H 0.30878 0.06651 0.93976 0.0
H362 H 0.3426 0.15208 0.91425 0.0
C363 C 0.39193 0.17622 0.97905 0.0
C364 C 0.32357 0.13448 0.97158 0.0
C365 C 0.41137 0.18063 0.99509 0.0
C366 C 0.30852 0.05306 0.90828 0.0
C367 C 0.30817 0.07319 0.92374 0.0
C368 C 0.33616 0.14717 0.93007 0.0
C369 C 0.36351 0.16904 0.98351 0.0
C370 C 0.34417 0.15672 0.96692 0.0
C371 C 0.31026 0.10154 0.91851 0.0
C372 C 0.31777 0.12318 0.93479 0.0
H373 H 0.36756 0.17045 0.03645 0.0
H374 H 0.33327 0.16485 0.00857 0.0
H375 H 0.36372 0.18144 0.9416 0.0
H376 H 0.31319 0.09512 0.86579 0.0
H377 H 0.31023 0.1301 0.89252 0.0
C378 C 0.36832 0.24684 0.34255 0.0
C379 C 0.38761 0.2553 0.35831 0.0
C380 C 0.33993 0.24642 0.34632 0.0
C381 C 0.28799 0.26327 0.38585 0.0
H382 H 0.28075 0.32318 0.34758 0.0
C383 C 0.25739 0.36409 0.41373 0.0
C384 C 0.25691 0.38557 0.39927 0.0
C385 C 0.25733 0.33683 0.40692 0.0
C386 C 0.28123 0.30612 0.35825 0.0
H387 H 0.39227 0.26415 0.39122 0.0
H388 H 0.34304 0.26299 0.39786 0.0
H389 H 0.31161 0.29041 0.33939 0.0
H390 H 0.2503 0.39498 0.36694 0.0
H391 H 0.24662 0.34716 0.35525 0.0
H392 H 0.25795 0.27938 0.40499 0.0
C393 C 0.34952 0.25725 0.38252 0.0
C394 C 0.2993 0.28706 0.35342 0.0
C395 C 0.37787 0.25792 0.37872 0.0
C396 C 0.25106 0.37878 0.3784 0.0
C397 C 0.24971 0.3513 0.37168 0.0
C398 C 0.26925 0.282 0.39048 0.0
C399 C 0.33054 0.25407 0.36593 0.0
C400 C 0.30434 0.26659 0.36779 0.0
C401 C 0.25592 0.33041 0.38549 0.0
C402 C 0.26721 0.30506 0.37751 0.0
H403 H 0.37511 0.24446 0.32668 0.0
H404 H 0.3257 0.24335 0.33332 0.0
H405 H 0.29108 0.24738 0.39708 0.0
H406 H 0.26196 0.36875 0.42996 0.0
H407 H 0.26169 0.32177 0.41839 0.0
C408 C 0.16206 0.3692 0.7444 0.0
C409 C 0.1433 0.37388 0.72861 0.0
C410 C 0.15354 0.35148 0.76098 0.0
C411 C 0.09491 0.30042 0.78049 0.0
H412 H 0.11442 0.33581 0.83336 0.0
C413 C 0.02407 0.29429 0.85221 0.0
C414 C 0.03627 0.29992 0.87178 0.0
C415 C 0.04077 0.29254 0.83464 0.0
C416 C 0.10921 0.32504 0.81886 0.0
H417 H 0.10157 0.36223 0.717 0.0
H418 H 0.08661 0.33209 0.74596 0.0
H419 H 0.13805 0.35352 0.80216 0.0
H420 H 0.07482 0.30434 0.88896 0.0
H421 H 0.10385 0.29998 0.85855 0.0
H422 H 0.06484 0.27289 0.79731 0.0
C423 C 0.10796 0.34166 0.74557 0.0
C424 C 0.12285 0.33529 0.80087 0.0
C425 C 0.11648 0.35922 0.72902 0.0
C426 C 0.06499 0.30022 0.87396 0.0
C427 C 0.0816 0.29799 0.85651 0.0
C428 C 0.08115 0.29017 0.79856 0.0
C429 C 0.12611 0.33819 0.76208 0.0
C430 C 0.11529 0.32371 0.78136 0.0
C431 C 0.06985 0.29608 0.8365 0.0
C432 C 0.0876 0.30291 0.81789 0.0
H433 H 0.18294 0.38003 0.74439 0.0
H434 H 0.16818 0.34892 0.7733 0.0
H435 H 0.0889 0.29073 0.76573 0.0
H436 H 0.00198 0.2942 0.85013 0.0
H437 H 0.03098 0.29108 0.81948 0.0
C438 C 0.624 0.83243 0.01649 0.0
C439 C 0.63246 0.84055 0.03663 0.0
C440 C 0.64323 0.83475 0.00023 0.0
C441 C 0.70645 0.88175 0.98902 0.0
H442 H 0.69009 0.85296 0.93362 0.0
C443 C 0.70009 0.95082 0.91975 0.0
C444 C 0.70322 0.94113 0.89951 0.0
C445 C 0.70467 0.93429 0.93678 0.0
C446 C 0.69569 0.86096 0.94898 0.0
H447 H 0.66771 0.85361 0.05638 0.0
H448 H 0.70163 0.8559 0.02831 0.0
H449 H 0.67335 0.82549 0.96367 0.0
H450 H 0.71499 0.90764 0.88084 0.0
H451 H 0.7235 0.8786 0.91075 0.0
H452 H 0.72821 0.91747 0.97431 0.0
C453 C 0.68011 0.84905 0.02471 0.0
C454 C 0.6857 0.84531 0.96626 0.0
C455 C 0.66077 0.84746 0.04084 0.0
C456 C 0.71285 0.91555 0.89643 0.0
C457 C 0.71745 0.8989 0.91351 0.0
C458 C 0.71674 0.89717 0.97179 0.0
C459 C 0.67129 0.84483 0.00397 0.0
C460 C 0.68931 0.85636 0.98644 0.0
C461 C 0.71224 0.90761 0.93385 0.0
C462 C 0.70982 0.88782 0.95157 0.0
H463 H 0.6022 0.82725 0.01291 0.0
H464 H 0.63543 0.83132 0.98455 0.0
H465 H 0.70989 0.89115 0.00421 0.0
H466 H 0.69216 0.97032 0.92235 0.0
H467 H 0.69997 0.94158 0.95213 0.0
C468 C 0.61453 0.73193 0.37524 0.0
C469 C 0.60607 0.73508 0.3546 0.0
C470 C 0.64263 0.73439 0.38021 0.0
C471 C 0.70493 0.72096 0.35062 0.0
H472 H 0.72412 0.70262 0.40683 0.0
C473 C 0.73096 0.61678 0.36819 0.0
C474 C 0.73528 0.60935 0.38891 0.0
C475 C 0.7328 0.64457 0.3625 0.0
C476 C 0.72001 0.70795 0.39091 0.0
H477 H 0.62008 0.74938 0.32401 0.0
H478 H 0.66906 0.75556 0.33293 0.0
H479 H 0.69301 0.73634 0.40119 0.0
H480 H 0.75094 0.62495 0.41878 0.0
H481 H 0.756 0.67344 0.40857 0.0
H482 H 0.73319 0.69385 0.3403 0.0
C483 C 0.65422 0.74913 0.34507 0.0
C484 C 0.70139 0.72713 0.38766 0.0
C485 C 0.62595 0.74618 0.34 0.0
C486 C 0.74684 0.63001 0.40275 0.0
C487 C 0.74915 0.65799 0.39696 0.0
C488 C 0.7245 0.70275 0.35384 0.0
C489 C 0.66301 0.74053 0.36469 0.0
C490 C 0.69117 0.73148 0.36759 0.0
C491 C 0.73946 0.66571 0.37737 0.0
C492 C 0.72991 0.69355 0.37403 0.0
H493 H 0.59962 0.72398 0.38699 0.0
H494 H 0.64782 0.72806 0.39568 0.0
H495 H 0.6988 0.72425 0.33474 0.0
H496 H 0.72263 0.60125 0.357 0.0
H497 H 0.72562 0.64894 0.34709 0.0
C498 C 0.94502 0.70461 0.85772 0.0
C499 C 0.9334 0.68485 0.87222 0.0
C500 C 0.93084 0.70912 0.83933 0.0
C501 C 0.91072 0.69106 0.79656 0.0
H502 H 0.83117 0.67624 0.78889 0.0
C503 C 0.83615 0.62134 0.73839 0.0
C504 C 0.8518 0.62672 0.72015 0.0
C505 C 0.84068 0.63908 0.75552 0.0
C506 C 0.85342 0.68059 0.79074 0.0
H507 H 0.89646 0.65673 0.8799 0.0
H508 H 0.87229 0.66399 0.84791 0.0
H509 H 0.85 0.69001 0.82314 0.0
H510 H 0.88169 0.65656 0.70449 0.0
H511 H 0.88889 0.68796 0.73405 0.0
H512 H 0.91441 0.68027 0.76468 0.0
C513 C 0.89218 0.6762 0.85057 0.0
C514 C 0.86422 0.68848 0.81035 0.0
C515 C 0.90626 0.67179 0.86891 0.0
C516 C 0.86967 0.65168 0.7185 0.0
C517 C 0.87389 0.66959 0.73548 0.0
C518 C 0.89997 0.68329 0.77702 0.0
C519 C 0.90483 0.6939 0.83509 0.0
C520 C 0.89305 0.69263 0.81368 0.0
C521 C 0.86071 0.66266 0.75458 0.0
C522 C 0.87123 0.67686 0.77405 0.0
H523 H 0.96576 0.71528 0.85989 0.0
H524 H 0.94093 0.72337 0.82791 0.0
H525 H 0.933 0.69364 0.79849 0.0
H526 H 0.82225 0.60223 0.7401 0.0
H527 H 0.8302 0.63301 0.76998 0.0
C528 C 0.55937 0.92818 0.11211 0.0
C529 C 0.53901 0.90501 0.11114 0.0
C530 C 0.55205 0.95442 0.11612 0.0
C531 C 0.49356 0.99225 0.1073 0.0
H532 H 0.53896 0.05165 0.13616 0.0
C533 C 0.46777 0.10291 0.10157 0.0
C534 C 0.49014 0.12327 0.09715 0.0
C535 C 0.47237 0.07684 0.10861 0.0
C536 C 0.52612 0.03529 0.12799 0.0
H537 H 0.49532 0.89066 0.11518 0.0
H538 H 0.48244 0.93663 0.12228 0.0
H539 H 0.54924 0.00405 0.13973 0.0
H540 H 0.53481 0.13295 0.09767 0.0
H541 H 0.54301 0.087 0.10946 0.0
H542 H 0.47119 0.02328 0.0948 0.0
C543 C 0.50405 0.93452 0.11967 0.0
C544 C 0.53195 0.00805 0.1301 0.0
C545 C 0.51142 0.90821 0.11574 0.0
C546 C 0.51721 0.11761 0.10101 0.0
C547 C 0.52186 0.09131 0.10783 0.0
C548 C 0.48783 0.0194 0.10514 0.0
C549 C 0.52418 0.95801 0.11921 0.0
C550 C 0.51599 0.9863 0.11948 0.0
C551 C 0.49947 0.07038 0.11111 0.0
C552 C 0.50427 0.04134 0.11519 0.0
H553 H 0.58088 0.92624 0.10895 0.0
H554 H 0.56804 0.97206 0.11555 0.0
H555 H 0.48123 0.9761 0.09856 0.0
H556 H 0.44664 0.10688 0.09902 0.0
H557 H 0.45464 0.06147 0.11149 0.0
C558 C 0.60088 0.52184 0.41714 0.0
C559 C 0.61479 0.5236 0.43631 0.0
C560 C 0.57225 0.51428 0.41634 0.0
C561 C 0.51234 0.48359 0.44855 0.0
H562 H 0.46991 0.52016 0.40839 0.0
C563 C 0.39506 0.48605 0.45531 0.0
C564 C 0.37952 0.47551 0.43801 0.0
C565 C 0.42383 0.49163 0.45405 0.0
C566 C 0.48161 0.50973 0.41957 0.0
H567 H 0.60983 0.51878 0.46967 0.0
H568 H 0.55986 0.50679 0.46845 0.0
H569 H 0.52038 0.52977 0.40834 0.0
H570 H 0.38184 0.46358 0.40559 0.0
H571 H 0.43221 0.47419 0.40327 0.0
H572 H 0.47329 0.46457 0.46029 0.0
C573 C 0.57098 0.51033 0.45391 0.0
C574 C 0.51049 0.51503 0.4195 0.0
C575 C 0.59964 0.51738 0.45465 0.0
C576 C 0.39321 0.4716 0.41919 0.0
C577 C 0.42199 0.47771 0.41783 0.0
C578 C 0.4835 0.47873 0.44886 0.0
C579 C 0.55687 0.50878 0.43475 0.0
C580 C 0.52622 0.50216 0.4341 0.0
C581 C 0.43749 0.48727 0.43536 0.0
C582 C 0.46795 0.4919 0.43448 0.0
H583 H 0.61204 0.52608 0.40273 0.0
H584 H 0.56222 0.5127 0.40128 0.0
H585 H 0.52371 0.47276 0.45967 0.0
H586 H 0.3851 0.48921 0.47004 0.0
H587 H 0.43545 0.4992 0.46772 0.0
C588 C 0.98072 0.59806 0.95953 0.0
C589 C 0.00632 0.61355 0.95479 0.0
C590 C 0.97937 0.57054 0.96591 0.0
C591 C 0.01929 0.51255 0.9587 0.0
H592 H 0.95961 0.47282 0.99103 0.0
C593 C 0.00251 0.3946 0.95833 0.0
C594 C 0.97545 0.38328 0.95293 0.0
C595 C 0.00805 0.42197 0.96506 0.0
C596 C 0.97644 0.48367 0.98203 0.0
H597 H 0.05082 0.61333 0.95515 0.0
H598 H 0.04855 0.56545 0.96686 0.0
H599 H 0.96719 0.52341 0.99197 0.0
H600 H 0.9326 0.39095 0.95195 0.0
H601 H 0.94229 0.43895 0.96356 0.0
H602 H 0.02807 0.47303 0.94826 0.0
C603 C 0.02941 0.57429 0.96498 0.0
C604 C 0.98078 0.51262 0.98253 0.0
C605 C 0.03074 0.60181 0.95845 0.0
C606 C 0.95368 0.39915 0.95596 0.0
C607 C 0.95923 0.42662 0.96268 0.0
C608 C 0.01507 0.4837 0.95832 0.0
C609 C 0.00365 0.55798 0.96792 0.0
C610 C 0.0018 0.52743 0.97041 0.0
C611 C 0.98663 0.4386 0.96654 0.0
C612 C 0.99319 0.46894 0.96955 0.0
H613 H 0.96155 0.60674 0.95735 0.0
H614 H 0.95914 0.5587 0.96796 0.0
H615 H 0.03532 0.52313 0.94884 0.0
H616 H 0.01965 0.38266 0.95655 0.0
H617 H 0.02929 0.43046 0.96833 0.0
C618 C 0.8832 0.48941 0.64327 0.0
C619 C 0.88304 0.51815 0.64465 0.0
C620 C 0.90756 0.47864 0.63805 0.0
C621 C 0.98082 0.49813 0.62035 0.0
H622 H 0.99543 0.44188 0.66005 0.0
C623 C 0.08952 0.48372 0.65046 0.0
C624 C 0.09516 0.45681 0.65498 0.0
C625 C 0.06329 0.48818 0.64343 0.0
C626 C 0.99158 0.45718 0.64854 0.0
H627 H 0.90722 0.5581 0.6393 0.0
H628 H 0.94974 0.53951 0.63092 0.0
H629 H 0.94906 0.45465 0.65724 0.0
H630 H 0.07857 0.41331 0.65394 0.0
H631 H 0.03273 0.42115 0.64195 0.0
H632 H 0.02397 0.50159 0.6126 0.0
C633 C 0.93124 0.52513 0.63378 0.0
C634 C 0.9649 0.46447 0.64686 0.0
C635 C 0.90689 0.53585 0.63886 0.0
C636 C 0.07464 0.43435 0.6511 0.0
C637 C 0.04842 0.43881 0.64418 0.0
C638 C 0.00762 0.49096 0.62216 0.0
C639 C 0.93218 0.49641 0.63415 0.0
C640 C 0.95931 0.48554 0.63314 0.0
C641 C 0.04225 0.46581 0.64081 0.0
C642 C 0.01338 0.47088 0.63664 0.0
H643 H 0.86504 0.47521 0.64742 0.0
H644 H 0.90741 0.45639 0.63799 0.0
H645 H 0.97714 0.51412 0.60938 0.0
H646 H 0.10495 0.50145 0.65321 0.0
H647 H 0.05909 0.50926 0.64111 0.0
C648 C 0.40347 0.00495 0.80797 0.0
C649 C 0.38711 0.98004 0.81335 0.0
C650 C 0.43155 0.00534 0.80332 0.0
C651 C 0.48772 0.96604 0.81719 0.0
H652 H 0.53153 0.01529 0.77885 0.0
C653 C 0.60418 0.96593 0.81324 0.0
C654 C 0.62057 0.9918 0.8138 0.0
C655 C 0.57602 0.96396 0.80881 0.0
C656 C 0.51954 0.00155 0.78968 0.0
H657 H 0.38666 0.93564 0.81609 0.0
H658 H 0.43555 0.93622 0.80758 0.0
H659 H 0.48086 0.01195 0.77809 0.0
H660 H 0.62085 0.03585 0.80911 0.0
H661 H 0.57108 0.03252 0.80173 0.0
H662 H 0.526 0.95614 0.82925 0.0
C663 C 0.42683 0.95558 0.8075 0.0
C664 C 0.49057 0.99957 0.78922 0.0
C665 C 0.39876 0.9552 0.81219 0.0
C666 C 0.60862 0.01564 0.80867 0.0
C667 C 0.58018 0.0137 0.80444 0.0
C668 C 0.51649 0.96804 0.81768 0.0
C669 C 0.44377 0.98078 0.80386 0.0
C670 C 0.47437 0.98177 0.803 0.0
C671 C 0.56345 0.98787 0.80515 0.0
C672 C 0.53279 0.98575 0.80394 0.0
H673 H 0.39492 0.02438 0.8083 0.0
H674 H 0.44398 0.02509 0.80057 0.0
H675 H 0.47596 0.95276 0.82844 0.0
H676 H 0.61298 0.94718 0.81689 0.0
H677 H 0.56389 0.94369 0.80893 0.0
C678 C 0.48637 0.39037 0.29734 0.0
C679 C 0.47724 0.37571 0.31537 0.0
C680 C 0.49274 0.41908 0.29783 0.0
C681 C 0.48081 0.48029 0.32933 0.0
H682 H 0.53752 0.51726 0.29293 0.0
C683 C 0.52197 0.59776 0.33104 0.0
C684 C 0.52135 0.61111 0.31171 0.0
C685 C 0.51613 0.569 0.33238 0.0
C686 C 0.52158 0.50712 0.30311 0.0
H687 H 0.46865 0.37948 0.34825 0.0
H688 H 0.48093 0.42945 0.34941 0.0
H689 H 0.53018 0.46688 0.29434 0.0
H690 H 0.51382 0.605 0.27867 0.0
H691 H 0.5043 0.55458 0.28098 0.0
H692 H 0.47302 0.52091 0.33848 0.0
C693 C 0.48223 0.41893 0.33467 0.0
C694 C 0.51724 0.47829 0.30387 0.0
C695 C 0.47535 0.39022 0.33406 0.0
C696 C 0.51439 0.59525 0.29378 0.0
C697 C 0.5091 0.56647 0.29506 0.0
C698 C 0.48556 0.50917 0.32885 0.0
C699 C 0.49066 0.43378 0.31649 0.0
C700 C 0.4965 0.46448 0.31674 0.0
C701 C 0.51013 0.55316 0.31435 0.0
C702 C 0.50569 0.52273 0.31551 0.0
H703 H 0.48779 0.37975 0.28264 0.0
H704 H 0.49859 0.42976 0.28341 0.0
H705 H 0.46438 0.47045 0.33919 0.0
H706 H 0.52701 0.6094 0.34514 0.0
H707 H 0.51702 0.55907 0.34741 0.0
C708 C 0.46814 0.23258 0.25334 0.0
C709 C 0.49079 0.24821 0.26316 0.0
C710 C 0.47002 0.22441 0.23257 0.0
C711 C 0.51912 0.22061 0.18833 0.0
H712 H 0.45776 0.23979 0.15528 0.0
C713 C 0.52978 0.24932 0.10155 0.0
C714 C 0.50762 0.24064 0.08813 0.0
C715 C 0.52724 0.24458 0.12295 0.0
C716 C 0.47486 0.23382 0.16424 0.0
H717 H 0.53389 0.26541 0.25941 0.0
H718 H 0.53707 0.25145 0.2233 0.0
H719 H 0.45442 0.23966 0.19302 0.0
H720 H 0.46505 0.22122 0.0866 0.0
H721 H 0.46073 0.21236 0.12395 0.0
H722 H 0.53989 0.21571 0.15945 0.0
C723 C 0.51785 0.24539 0.23156 0.0
C724 C 0.47293 0.23367 0.18593 0.0
C725 C 0.51598 0.25355 0.25229 0.0
C726 C 0.48274 0.22739 0.09651 0.0
C727 C 0.48016 0.22266 0.11794 0.0
C728 C 0.52106 0.22078 0.16662 0.0
C729 C 0.4946 0.23163 0.22121 0.0
C730 C 0.49527 0.22768 0.19826 0.0
C731 C 0.50236 0.2313 0.13142 0.0
C732 C 0.49919 0.22801 0.15434 0.0
H733 H 0.44848 0.22792 0.26131 0.0
H734 H 0.45188 0.21336 0.22517 0.0
H735 H 0.53653 0.21549 0.19736 0.0
H736 H 0.54911 0.2598 0.09549 0.0
H737 H 0.54455 0.25199 0.13292 0.0
C738 C 0.2046 0.46574 0.65825 0.0
C739 C 0.21388 0.49037 0.66889 0.0
C740 C 0.20439 0.46506 0.6365 0.0
C741 C 0.21018 0.51023 0.58942 0.0
H742 H 0.23618 0.44656 0.56347 0.0
C743 C 0.25621 0.5108 0.50655 0.0
C744 C 0.25164 0.48643 0.49464 0.0
C745 C 0.24586 0.51146 0.52682 0.0
C746 C 0.22837 0.46428 0.5704 0.0
H747 H 0.23064 0.53348 0.66513 0.0
H748 H 0.23106 0.53217 0.62722 0.0
H749 H 0.22947 0.44711 0.60092 0.0
H750 H 0.2309 0.44424 0.49418 0.0
H751 H 0.21277 0.44547 0.52951 0.0
H752 H 0.2101 0.52774 0.55881 0.0
C753 C 0.2231 0.51355 0.6356 0.0
C754 C 0.22451 0.4646 0.59192 0.0
C755 C 0.22314 0.51424 0.65734 0.0
C756 C 0.23498 0.4633 0.50296 0.0
C757 C 0.22473 0.46393 0.52326 0.0
C758 C 0.21419 0.50995 0.56786 0.0
C759 C 0.21389 0.48889 0.62488 0.0
C760 C 0.21575 0.48774 0.60177 0.0
C761 C 0.23077 0.48774 0.53563 0.0
C762 C 0.22369 0.48711 0.55815 0.0
H763 H 0.19833 0.44675 0.66667 0.0
H764 H 0.19706 0.44573 0.62879 0.0
H765 H 0.20295 0.52819 0.59643 0.0
H766 H 0.26887 0.52903 0.5006 0.0
H767 H 0.25102 0.53009 0.53595 0.0
C768 C 0.7522 0.09276 0.84107 0.0
C769 C 0.75444 0.07085 0.85478 0.0
C770 C 0.75873 0.12003 0.84786 0.0
C771 C 0.7808 0.16451 0.89368 0.0
H772 H 0.83807 0.19637 0.85564 0.0
C773 C 0.87663 0.23694 0.92067 0.0
C774 C 0.8893 0.25734 0.90707 0.0
C775 C 0.85382 0.21858 0.91421 0.0
C776 C 0.82176 0.18833 0.8663 0.0
H777 H 0.76235 0.05943 0.8865 0.0
H778 H 0.77426 0.10709 0.89845 0.0
H779 H 0.80594 0.157 0.84475 0.0
H780 H 0.88731 0.27523 0.87629 0.0
H781 H 0.84713 0.24353 0.86513 0.0
H782 H 0.79748 0.19543 0.91553 0.0
C783 C 0.76725 0.10353 0.88257 0.0
C784 C 0.80321 0.16569 0.86001 0.0
C785 C 0.76067 0.07627 0.87575 0.0
C786 C 0.87818 0.25953 0.88706 0.0
C787 C 0.85518 0.24132 0.88066 0.0
C788 C 0.79931 0.18738 0.89996 0.0
C789 C 0.76787 0.12559 0.86838 0.0
C790 C 0.78308 0.15298 0.87382 0.0
C791 C 0.84298 0.22034 0.89405 0.0
C792 C 0.82059 0.19898 0.88655 0.0
H793 H 0.74721 0.08877 0.82483 0.0
H794 H 0.75854 0.13666 0.8367 0.0
H795 H 0.76535 0.15525 0.9046 0.0
H796 H 0.88471 0.23469 0.93619 0.0
H797 H 0.84534 0.2024 0.92482 0.0
C798 C 0.56182 0.73993 0.23383 0.0
C799 C 0.54349 0.74037 0.25068 0.0
C800 C 0.55443 0.74824 0.21406 0.0
C801 C 0.50771 0.7875 0.18486 0.0
H802 H 0.52221 0.73806 0.14 0.0
C803 C 0.47677 0.80736 0.09981 0.0
C804 C 0.49748 0.80475 0.08502 0.0
C805 C 0.47932 0.79757 0.12011 0.0
C806 C 0.51818 0.7522 0.1523 0.0
H807 H 0.50356 0.75133 0.2602 0.0
H808 H 0.49074 0.76614 0.2255 0.0
H809 H 0.53366 0.72693 0.17563 0.0
H810 H 0.53567 0.78787 0.07905 0.0
H811 H 0.54051 0.77119 0.11444 0.0
H812 H 0.49283 0.81313 0.16143 0.0
C813 C 0.5108 0.75921 0.22768 0.0
C814 C 0.52476 0.74582 0.17272 0.0
C815 C 0.51815 0.75075 0.24754 0.0
C816 C 0.51976 0.79062 0.09037 0.0
C817 C 0.52234 0.78083 0.11059 0.0
C818 C 0.50125 0.79399 0.16436 0.0
C819 C 0.52858 0.7573 0.21065 0.0
C820 C 0.52003 0.76361 0.18918 0.0
C821 C 0.50248 0.78473 0.12585 0.0
C822 C 0.50682 0.77661 0.1478 0.0
H823 H 0.5816 0.7323 0.23571 0.0
H824 H 0.56883 0.74713 0.20133 0.0
H825 H 0.50392 0.80163 0.19723 0.0
H826 H 0.45929 0.81808 0.09596 0.0
H827 H 0.46342 0.80046 0.13139 0.0
C828 C 0.78135 0.54013 0.65442 0.0
C829 C 0.76959 0.51669 0.6655 0.0
C830 C 0.78191 0.53993 0.63268 0.0
C831 C 0.77505 0.49299 0.58702 0.0
H832 H 0.75541 0.55751 0.55811 0.0
C833 C 0.73671 0.49106 0.50207 0.0
C834 C 0.74245 0.51506 0.48987 0.0
C835 C 0.74557 0.49082 0.52274 0.0
C836 C 0.76151 0.53951 0.56586 0.0
H837 H 0.74845 0.47495 0.66265 0.0
H838 H 0.74895 0.47466 0.6246 0.0
H839 H 0.75925 0.55816 0.59582 0.0
H840 H 0.764 0.55691 0.48931 0.0
H841 H 0.77982 0.55634 0.52531 0.0
H842 H 0.77668 0.47414 0.557 0.0
C843 C 0.75843 0.49297 0.6327 0.0
C844 C 0.76363 0.53987 0.58754 0.0
C845 C 0.75787 0.49321 0.65445 0.0
C846 C 0.75902 0.53814 0.49832 0.0
C847 C 0.7679 0.5379 0.51901 0.0
C848 C 0.77294 0.49264 0.5653 0.0
C849 C 0.77045 0.51635 0.62155 0.0
C850 C 0.77003 0.51648 0.5984 0.0
C851 C 0.76045 0.51456 0.53168 0.0
C852 C 0.76576 0.51577 0.55448 0.0
H853 H 0.78976 0.55881 0.66255 0.0
H854 H 0.79137 0.55825 0.62459 0.0
H855 H 0.78048 0.4748 0.5949 0.0
H856 H 0.7241 0.47285 0.49604 0.0
H857 H 0.73933 0.47253 0.53203 0.0
C858 C 0.09893 0.75548 0.92079 0.0
C859 C 0.08006 0.74228 0.90626 0.0
C860 C 0.1197 0.77634 0.91456 0.0
C861 C 0.13807 0.8278 0.8732 0.0
H862 H 0.21201 0.8306 0.89623 0.0
C863 C 0.23008 0.90434 0.84324 0.0
C864 C 0.24919 0.91681 0.85792 0.0
C865 C 0.20941 0.88316 0.84911 0.0
C866 C 0.19139 0.83034 0.88985 0.0
H867 H 0.06834 0.74062 0.87369 0.0
H868 H 0.10476 0.77713 0.86275 0.0
H869 H 0.17634 0.79301 0.90604 0.0
H870 H 0.26136 0.9169 0.89037 0.0
H871 H 0.22502 0.88005 0.9007 0.0
H872 H 0.15305 0.8652 0.85709 0.0
C873 C 0.10329 0.77141 0.87904 0.0
C874 C 0.17095 0.80874 0.89544 0.0
C875 C 0.08253 0.75038 0.88528 0.0
C876 C 0.24702 0.90769 0.87867 0.0
C877 C 0.22629 0.88645 0.88456 0.0
C878 C 0.1585 0.84944 0.86764 0.0
C879 C 0.12211 0.78464 0.89363 0.0
C880 C 0.14402 0.80723 0.88721 0.0
C881 C 0.20726 0.87388 0.86982 0.0
C882 C 0.18542 0.851 0.87591 0.0
H883 H 0.09764 0.74981 0.93709 0.0
H884 H 0.13358 0.78634 0.92624 0.0
H885 H 0.11743 0.82749 0.86683 0.0
H886 H 0.23117 0.91078 0.8271 0.0
H887 H 0.19539 0.87372 0.83729 0.0
loop_
_geom_bond_atom_site_label_1
_geom_bond_atom_site_label_2
_geom_bond_distance
_geom_bond_site_symmetry_2
_ccdc_geom_bond_type
Mg0 O1 2.028 . S
Mg0 O7 1.986 . S
Mg0 O9 2.114 . S
Mg0 O10 2.251 . S
Mg0 O13 2.010 . S
O1 Mg0 2.028 . S
O1 C4 1.250 . S
O2 Mg3 2.028 . S
O2 C4 1.248 . S
Mg3 O2 2.028 . S
Mg3 O8 2.032 . S
Mg3 O10 2.079 . S
C4 O1 1.250 . S
C4 O2 1.248 . S
C5 O6 1.264 . S
C5 O13 1.249 . S
O6 C5 1.264 . S
O7 Mg0 1.986 . S
O7 C11 1.246 . S
O8 Mg3 2.032 . S
O8 C11 1.259 . S
O9 Mg0 2.114 . S
O9 C12 1.252 . S
O10 Mg0 2.251 . S
O10 Mg3 2.079 . S
O10 C12 1.273 . S
C11 O7 1.246 . S
C11 O8 1.259 . S
C12 O9 1.252 . S
C12 O10 1.273 . S
O13 Mg0 2.010 . S
O13 C5 1.249 . S
Mg14 O15 2.028 . S
Mg14 O21 1.986 . S
Mg14 O23 2.114 . S
Mg14 O24 2.251 . S
Mg14 O27 2.010 . S
O15 Mg14 2.028 . S
O15 C18 1.250 . S
O16 Mg17 2.028 . S
O16 C18 1.248 . S
Mg17 O16 2.028 . S
Mg17 O22 2.032 . S
Mg17 O24 2.079 . S
C18 O15 1.250 . S
C18 O16 1.248 . S
C19 O20 1.264 . S
C19 O27 1.249 . S
O20 C19 1.264 . S
O21 Mg14 1.986 . S
O21 C25 1.246 . S
O22 Mg17 2.032 . S
O22 C25 1.259 . S
O23 Mg14 2.114 . S
O23 C26 1.252 . S
O24 Mg14 2.251 . S
O24 Mg17 2.079 . S
O24 C26 1.273 . S
C25 O21 1.246 . S
C25 O22 1.259 . S
C26 O23 1.252 . S
C26 O24 1.273 . S
O27 Mg14 2.010 . S
O27 C19 1.249 . S
Mg28 O29 2.028 . S
Mg28 O35 1.986 . S
Mg28 O37 2.114 . S
Mg28 O38 2.251 . S
Mg28 O41 2.010 . S
O29 Mg28 2.028 . S
O29 C32 1.250 . S
O30 Mg31 2.028 . S
O30 C32 1.248 . S
Mg31 O30 2.028 . S
Mg31 O36 2.032 1_655 S
Mg31 O38 2.079 . S
C32 O29 1.250 . S
C32 O30 1.248 . S
C33 O34 1.264 . S
C33 O41 1.249 . S
O34 C33 1.264 . S
O35 Mg28 1.986 . S
O35 C39 1.246 1_655 S
O36 Mg31 2.032 1_455 S
O36 C39 1.259 . S
O37 Mg28 2.114 . S
O37 C40 1.252 . S
O38 Mg28 2.251 . S
O38 Mg31 2.079 . S
O38 C40 1.273 . S
C39 O35 1.246 1_455 S
C39 O36 1.259 . S
C40 O37 1.252 . S
C40 O38 1.273 . S
O41 Mg28 2.010 . S
O41 C33 1.249 . S
Mg42 O43 2.028 . S
Mg42 O49 1.986 . S
Mg42 O51 2.114 . S
Mg42 O52 2.251 . S
Mg42 O55 2.010 . S
O43 Mg42 2.028 . S
O43 C46 1.250 . S
O44 Mg45 2.028 . S
O44 C46 1.248 . S
Mg45 O44 2.028 . S
Mg45 O50 2.032 . S
Mg45 O52 2.079 . S
C46 O43 1.250 . S
C46 O44 1.248 . S
C47 O48 1.264 . S
C47 O55 1.249 . S
O48 C47 1.264 . S
O49 Mg42 1.986 . S
O49 C53 1.246 . S
O50 Mg45 2.032 . S
O50 C53 1.259 . S
O51 Mg42 2.114 . S
O51 C54 1.252 . S
O52 Mg42 2.251 . S
O52 Mg45 2.079 . S
O52 C54 1.273 . S
C53 O49 1.246 . S
C53 O50 1.259 . S
C54 O51 1.252 . S
C54 O52 1.273 . S
O55 Mg42 2.010 . S
O55 C47 1.249 . S
Mg56 O57 2.028 . S
Mg56 O63 1.986 . S
Mg56 O65 2.114 . S
Mg56 O66 2.251 . S
Mg56 O69 2.010 . S
O57 Mg56 2.028 . S
O57 C60 1.250 . S
O58 Mg59 2.028 . S
O58 C60 1.248 . S
Mg59 O58 2.028 . S
Mg59 O64 2.032 . S
Mg59 O66 2.079 . S
C60 O57 1.250 . S
C60 O58 1.248 . S
C61 O62 1.264 . S
C61 O69 1.249 . S
O62 C61 1.264 . S
O63 Mg56 1.986 . S
O63 C67 1.246 . S
O64 Mg59 2.032 . S
O64 C67 1.259 . S
O65 Mg56 2.114 . S
O65 C68 1.252 . S
O66 Mg56 2.251 . S
O66 Mg59 2.079 . S
O66 C68 1.273 . S
C67 O63 1.246 . S
C67 O64 1.259 . S
C68 O65 1.252 . S
C68 O66 1.273 . S
O69 Mg56 2.010 . S
O69 C61 1.249 . S
Mg70 O71 2.028 . S
Mg70 O77 1.986 . S
Mg70 O79 2.114 . S
Mg70 O80 2.251 . S
Mg70 O83 2.010 . S
O71 Mg70 2.028 . S
O71 C74 1.250 . S
O72 Mg73 2.028 . S
O72 C74 1.248 . S
Mg73 O72 2.028 . S
Mg73 O78 2.032 1_455 S
Mg73 O80 2.079 . S
C74 O71 1.250 . S
C74 O72 1.248 . S
C75 O76 1.264 . S
C75 O83 1.249 . S
O76 C75 1.264 . S
O77 Mg70 1.986 . S
O77 C81 1.246 1_455 S
O78 Mg73 2.032 1_655 S
O78 C81 1.259 . S
O79 Mg70 2.114 . S
O79 C82 1.252 . S
O80 Mg70 2.251 . S
O80 Mg73 2.079 . S
O80 C82 1.273 . S
C81 O77 1.246 1_655 S
C81 O78 1.259 . S
C82 O79 1.252 . S
C82 O80 1.273 . S
O83 Mg70 2.010 . S
O83 C75 1.249 . S
Mg84 O85 2.028 . S
Mg84 O91 1.986 . S
Mg84 O93 2.114 . S
Mg84 O94 2.251 . S
Mg84 O97 2.010 . S
O85 Mg84 2.028 . S
O85 C88 1.250 . S
O86 Mg87 2.028 . S
O86 C88 1.248 . S
Mg87 O86 2.028 . S
Mg87 O92 2.032 . S
Mg87 O94 2.079 . S
C88 O85 1.250 . S
C88 O86 1.248 . S
C89 O90 1.264 . S
C89 O97 1.249 . S
O90 C89 1.264 . S
O91 Mg84 1.986 . S
O91 C95 1.246 . S
O92 Mg87 2.032 . S
O92 C95 1.259 . S
O93 Mg84 2.114 . S
O93 C96 1.252 . S
O94 Mg84 2.251 . S
O94 Mg87 2.079 . S
O94 C96 1.273 . S
C95 O91 1.246 . S
C95 O92 1.259 . S
C96 O93 1.252 . S
C96 O94 1.273 . S
O97 Mg84 2.010 . S
O97 C89 1.249 . S
Mg98 O99 2.028 . S
Mg98 O105 1.986 . S
Mg98 O107 2.114 . S
Mg98 O108 2.251 . S
Mg98 O111 2.010 . S
O99 Mg98 2.028 . S
O99 C102 1.250 . S
O100 Mg101 2.028 . S
O100 C102 1.248 . S
Mg101 O100 2.028 . S
Mg101 O106 2.032 1_565 S
Mg101 O108 2.079 . S
C102 O99 1.250 . S
C102 O100 1.248 . S
C103 O104 1.264 . S
C103 O111 1.249 . S
O104 C103 1.264 . S
O105 Mg98 1.986 . S
O105 C109 1.246 1_565 S
O106 Mg101 2.032 1_545 S
O106 C109 1.259 . S
O107 Mg98 2.114 . S
O107 C110 1.252 . S
O108 Mg98 2.251 . S
O108 Mg101 2.079 . S
O108 C110 1.273 . S
C109 O105 1.246 1_545 S
C109 O106 1.259 . S
C110 O107 1.252 . S
C110 O108 1.273 . S
O111 Mg98 2.010 . S
O111 C103 1.249 . S
Mg112 O113 2.028 . S
Mg112 O119 1.986 . S
Mg112 O121 2.114 . S
Mg112 O122 2.251 . S
Mg112 O125 2.010 . S
O113 Mg112 2.028 . S
O113 C116 1.250 . S
O114 Mg115 2.028 . S
O114 C116 1.248 . S
Mg115 O114 2.028 . S
Mg115 O120 2.032 . S
Mg115 O122 2.079 . S
C116 O113 1.250 . S
C116 O114 1.248 . S
C117 O118 1.264 . S
C117 O125 1.249 . S
O118 C117 1.264 . S
O119 Mg112 1.986 . S
O119 C123 1.246 . S
O120 Mg115 2.032 . S
O120 C123 1.259 . S
O121 Mg112 2.114 . S
O121 C124 1.252 . S
O122 Mg112 2.251 . S
O122 Mg115 2.079 . S
O122 C124 1.273 . S
C123 O119 1.246 . S
C123 O120 1.259 . S
C124 O121 1.252 . S
C124 O122 1.273 . S
O125 Mg112 2.010 . S
O125 C117 1.249 . S
Mg126 O127 2.028 . S
Mg126 O133 1.986 . S
Mg126 O135 2.114 . S
Mg126 O136 2.251 . S
Mg126 O139 2.010 . S
O127 Mg126 2.028 . S
O127 C130 1.250 . S
O128 Mg129 2.028 . S
O128 C130 1.248 . S
Mg129 O128 2.028 . S
Mg129 O134 2.032 . S
Mg129 O136 2.079 . S
C130 O127 1.250 . S
C130 O128 1.248 . S
C131 O132 1.264 . S
C131 O139 1.249 . S
O132 C131 1.264 . S
O133 Mg126 1.986 . S
O133 C137 1.246 . S
O134 Mg129 2.032 . S
O134 C137 1.259 . S
O135 Mg126 2.114 . S
O135 C138 1.252 . S
O136 Mg126 2.251 . S
O136 Mg129 2.079 . S
O136 C138 1.273 . S
C137 O133 1.246 . S
C137 O134 1.259 . S
C138 O135 1.252 . S
C138 O136 1.273 . S
O139 Mg126 2.010 . S
O139 C131 1.249 . S
Mg140 O141 2.028 . S
Mg140 O147 1.986 . S
Mg140 O149 2.114 . S
Mg140 O150 2.251 . S
Mg140 O153 2.010 . S
O141 Mg140 2.028 . S
O141 C144 1.250 . S
O142 Mg143 2.028 . S
O142 C144 1.248 . S
Mg143 O142 2.028 . S
Mg143 O148 2.032 1_545 S
Mg143 O150 2.079 . S
C144 O141 1.250 . S
C144 O142 1.248 . S
C145 O146 1.264 . S
C145 O153 1.249 . S
O146 C145 1.264 . S
O147 Mg140 1.986 . S
O147 C151 1.246 1_545 S
O148 Mg143 2.032 1_565 S
O148 C151 1.259 . S
O149 Mg140 2.114 . S
O149 C152 1.252 . S
O150 Mg140 2.251 . S
O150 Mg143 2.079 . S
O150 C152 1.273 . S
C151 O147 1.246 1_565 S
C151 O148 1.259 . S
C152 O149 1.252 . S
C152 O150 1.273 . S
O153 Mg140 2.010 . S
O153 C145 1.249 . S
Mg154 O155 2.028 . S
Mg154 O161 1.986 . S
Mg154 O163 2.114 . S
Mg154 O164 2.251 . S
Mg154 O167 2.010 . S
O155 Mg154 2.028 . S
O155 C158 1.250 . S
O156 Mg157 2.028 . S
O156 C158 1.248 . S
Mg157 O156 2.028 . S
Mg157 O162 2.032 . S
Mg157 O164 2.079 . S
C158 O155 1.250 . S
C158 O156 1.248 . S
C159 O160 1.264 . S
C159 O167 1.249 . S
O160 C159 1.264 . S
O161 Mg154 1.986 . S
O161 C165 1.246 . S
O162 Mg157 2.032 . S
O162 C165 1.259 . S
O163 Mg154 2.114 . S
O163 C166 1.252 . S
O164 Mg154 2.251 . S
O164 Mg157 2.079 . S
O164 C166 1.273 . S
C165 O161 1.246 . S
C165 O162 1.259 . S
C166 O163 1.252 . S
C166 O164 1.273 . S
O167 Mg154 2.010 . S
O167 C159 1.249 . S
C168 C169 1.349 . S
C168 C170 1.327 . S
C168 H193 0.950 . S
C169 C168 1.349 . S
C169 C185 1.349 . S
C170 C168 1.327 . S
C170 C189 1.429 1_554 S
C170 H194 0.950 1_554 S
C171 C188 1.574 . S
C171 C190 1.368 . S
C171 H195 0.949 . S
H172 C176 0.949 . S
C173 C174 1.349 . S
C173 C175 1.327 . S
C173 H196 0.950 . S
C174 C173 1.349 . S
C174 C186 1.349 . S
C175 C173 1.327 . S
C175 C191 1.429 . S
C175 H197 0.950 . S
C176 H172 0.949 . S
C176 C184 1.574 . S
C176 C192 1.368 . S
H177 C185 0.950 . S
H178 C183 0.950 . S
H179 C184 0.949 . S
H180 C186 0.950 . S
H181 C187 0.950 . S
H182 C188 0.949 . S
C183 H178 0.950 . S
C183 C185 1.327 . S
C183 C189 1.429 1_554 S
C184 C176 1.574 . S
C184 H179 0.949 . S
C184 C190 1.368 . S
C185 C169 1.349 . S
C185 H177 0.950 . S
C185 C183 1.327 . S
C186 C174 1.349 . S
C186 H180 0.950 . S
C186 C187 1.327 . S
C187 H181 0.950 . S
C187 C186 1.327 . S
C187 C191 1.429 . S
C188 C171 1.574 . S
C188 H182 0.949 . S
C188 C192 1.368 . S
C189 C170 1.429 1_556 S
C189 C183 1.429 1_556 S
C189 C190 1.523 . S
C190 C171 1.368 . S
C190 C184 1.368 . S
C190 C189 1.523 . S
C191 C175 1.429 . S
C191 C187 1.429 . S
C191 C192 1.523 . S
C192 C176 1.368 . S
C192 C188 1.368 . S
C192 C191 1.523 . S
H193 C168 0.950 . S
H194 C170 0.950 1_556 S
H195 C171 0.949 . S
H196 C173 0.950 . S
H197 C175 0.950 . S
C198 C199 1.349 . S
C198 C200 1.327 . S
C198 H223 0.950 . S
C199 C198 1.349 . S
C199 C215 1.349 . S
C200 C198 1.327 . S
C200 C219 1.429 . S
C200 H224 0.950 . S
C201 C218 1.574 . S
C201 C220 1.368 . S
C201 H225 0.949 . S
H202 C206 0.949 . S
C203 C204 1.349 . S
C203 C205 1.327 . S
C203 H226 0.950 . S
C204 C203 1.349 . S
C204 C216 1.349 . S
C205 C203 1.327 . S
C205 C221 1.429 . S
C205 H227 0.950 . S
C206 H202 0.949 . S
C206 C214 1.574 . S
C206 C222 1.368 . S
H207 C215 0.950 . S
H208 C213 0.950 . S
H209 C214 0.949 . S
H210 C216 0.950 . S
H211 C217 0.950 . S
H212 C218 0.949 . S
C213 H208 0.950 . S
C213 C215 1.327 . S
C213 C219 1.429 . S
C214 C206 1.574 . S
C214 H209 0.949 . S
C214 C220 1.368 . S
C215 C199 1.349 . S
C215 H207 0.950 . S
C215 C213 1.327 . S
C216 C204 1.349 . S
C216 H210 0.950 . S
C216 C217 1.327 . S
C217 H211 0.950 . S
C217 C216 1.327 . S
C217 C221 1.429 . S
C218 C201 1.574 . S
C218 H212 0.949 . S
C218 C222 1.368 . S
C219 C200 1.429 . S
C219 C213 1.429 . S
C219 C220 1.523 . S
C220 C201 1.368 . S
C220 C214 1.368 . S
C220 C219 1.523 . S
C221 C205 1.429 . S
C221 C217 1.429 . S
C221 C222 1.523 . S
C222 C206 1.368 . S
C222 C218 1.368 . S
C222 C221 1.523 . S
H223 C198 0.950 . S
H224 C200 0.950 . S
H225 C201 0.949 . S
H226 C203 0.950 . S
H227 C205 0.950 . S
C228 C229 1.349 . S
C228 C230 1.327 . S
C228 H253 0.950 . S
C229 C228 1.349 . S
C229 C245 1.349 . S
C230 C228 1.327 . S
C230 C249 1.429 . S
C230 H254 0.950 . S
C231 C248 1.574 . S
C231 C250 1.368 . S
C231 H255 0.949 . S
H232 C236 0.949 . S
C233 C234 1.349 . S
C233 C235 1.327 . S
C233 H256 0.950 . S
C234 C233 1.349 . S
C234 C246 1.349 . S
C235 C233 1.327 . S
C235 C251 1.429 . S
C235 H257 0.950 . S
C236 H232 0.949 . S
C236 C244 1.574 . S
C236 C252 1.368 . S
H237 C245 0.950 . S
H238 C243 0.950 . S
H239 C244 0.949 . S
H240 C246 0.950 . S
H241 C247 0.950 . S
H242 C248 0.949 . S
C243 H238 0.950 . S
C243 C245 1.327 . S
C243 C249 1.429 . S
C244 C236 1.574 . S
C244 H239 0.949 . S
C244 C250 1.368 . S
C245 C229 1.349 . S
C245 H237 0.950 . S
C245 C243 1.327 . S
C246 C234 1.349 . S
C246 H240 0.950 . S
C246 C247 1.327 . S
C247 H241 0.950 . S
C247 C246 1.327 . S
C247 C251 1.429 . S
C248 C231 1.574 . S
C248 H242 0.949 . S
C248 C252 1.368 . S
C249 C230 1.429 . S
C249 C243 1.429 . S
C249 C250 1.523 . S
C250 C231 1.368 . S
C250 C244 1.368 . S
C250 C249 1.523 . S
C251 C235 1.429 . S
C251 C247 1.429 . S
C251 C252 1.523 . S
C252 C236 1.368 . S
C252 C248 1.368 . S
C252 C251 1.523 . S
H253 C228 0.950 . S
H254 C230 0.950 . S
H255 C231 0.949 . S
H256 C233 0.950 . S
H257 C235 0.950 . S
C258 C259 1.349 . S
C258 C260 1.327 . S
C258 H283 0.950 . S
C259 C258 1.349 . S
C259 C275 1.349 . S
C260 C258 1.327 . S
C260 C279 1.429 1_554 S
C260 H284 0.950 . S
C261 C278 1.574 . S
C261 C280 1.368 . S
C261 H285 0.949 . S
H262 C266 0.949 . S
C263 C264 1.349 . S
C263 C265 1.327 . S
C263 H286 0.950 . S
C264 C263 1.349 . S
C264 C276 1.349 . S
C265 C263 1.327 . S
C265 C281 1.429 . S
C265 H287 0.950 . S
C266 H262 0.949 . S
C266 C274 1.574 . S
C266 C282 1.368 . S
H267 C275 0.950 . S
H268 C273 0.950 . S
H269 C274 0.949 1_554 S
H270 C276 0.950 . S
H271 C277 0.950 . S
H272 C278 0.949 . S
C273 H268 0.950 . S
C273 C275 1.327 1_556 S
C273 C279 1.429 . S
C274 C266 1.574 . S
C274 H269 0.949 1_556 S
C274 C280 1.368 . S
C275 C259 1.349 . S
C275 H267 0.950 . S
C275 C273 1.327 1_554 S
C276 C264 1.349 . S
C276 H270 0.950 . S
C276 C277 1.327 . S
C277 H271 0.950 . S
C277 C276 1.327 . S
C277 C281 1.429 . S
C278 C261 1.574 . S
C278 H272 0.949 . S
C278 C282 1.368 . S
C279 C260 1.429 1_556 S
C279 C273 1.429 . S
C279 C280 1.523 . S
C280 C261 1.368 . S
C280 C274 1.368 . S
C280 C279 1.523 . S
C281 C265 1.429 . S
C281 C277 1.429 . S
C281 C282 1.523 . S
C282 C266 1.368 . S
C282 C278 1.368 . S
C282 C281 1.523 . S
H283 C258 0.950 . S
H284 C260 0.950 . S
H285 C261 0.949 . S
H286 C263 0.950 . S
H287 C265 0.950 . S
C288 C289 1.349 . S
C288 C290 1.327 . S
C288 H313 0.950 . S
C289 C288 1.349 . S
C289 C305 1.349 . S
C290 C288 1.327 . S
C290 C309 1.429 . S
C290 H314 0.950 . S
C291 C308 1.574 . S
C291 C310 1.368 . S
C291 H315 0.949 . S
H292 C296 0.949 . S
C293 C294 1.349 . S
C293 C295 1.327 . S
C293 H316 0.950 . S
C294 C293 1.349 . S
C294 C306 1.349 . S
C295 C293 1.327 . S
C295 C311 1.429 . S
C295 H317 0.950 . S
C296 H292 0.949 . S
C296 C304 1.574 . S
C296 C312 1.368 . S
H297 C305 0.950 . S
H298 C303 0.950 . S
H299 C304 0.949 . S
H300 C306 0.950 . S
H301 C307 0.950 . S
H302 C308 0.949 . S
C303 H298 0.950 . S
C303 C305 1.327 . S
C303 C309 1.429 . S
C304 C296 1.574 . S
C304 H299 0.949 . S
C304 C310 1.368 . S
C305 C289 1.349 . S
C305 H297 0.950 . S
C305 C303 1.327 . S
C306 C294 1.349 . S
C306 H300 0.950 . S
C306 C307 1.327 . S
C307 H301 0.950 . S
C307 C306 1.327 . S
C307 C311 1.429 . S
C308 C291 1.574 . S
C308 H302 0.949 . S
C308 C312 1.368 . S
C309 C290 1.429 . S
C309 C303 1.429 . S
C309 C310 1.523 . S
C310 C291 1.368 . S
C310 C304 1.368 . S
C310 C309 1.523 . S
C311 C295 1.429 . S
C311 C307 1.429 . S
C311 C312 1.523 . S
C312 C296 1.368 . S
C312 C308 1.368 . S
C312 C311 1.523 . S
H313 C288 0.950 . S
H314 C290 0.950 . S
H315 C291 0.949 . S
H316 C293 0.950 . S
H317 C295 0.950 . S
C318 C319 1.349 . S
C318 C320 1.327 . S
C318 H343 0.950 . S
C319 C318 1.349 . S
C319 C335 1.349 . S
C320 C318 1.327 . S
C320 C339 1.429 . S
C320 H344 0.950 . S
C321 C338 1.574 . S
C321 C340 1.368 . S
C321 H345 0.949 . S
H322 C326 0.949 . S
C323 C324 1.349 . S
C323 C325 1.327 . S
C323 H346 0.950 . S
C324 C323 1.349 . S
C324 C336 1.349 . S
C325 C323 1.327 . S
C325 C341 1.429 . S
C325 H347 0.950 . S
C326 H322 0.949 . S
C326 C334 1.574 . S
C326 C342 1.368 . S
H327 C335 0.950 . S
H328 C333 0.950 . S
H329 C334 0.949 . S
H330 C336 0.950 . S
H331 C337 0.950 . S
H332 C338 0.949 . S
C333 H328 0.950 . S
C333 C335 1.327 . S
C333 C339 1.429 . S
C334 C326 1.574 . S
C334 H329 0.949 . S
C334 C340 1.368 . S
C335 C319 1.349 . S
C335 H327 0.950 . S
C335 C333 1.327 . S
C336 C324 1.349 . S
C336 H330 0.950 . S
C336 C337 1.327 . S
C337 H331 0.950 . S
C337 C336 1.327 . S
C337 C341 1.429 . S
C338 C321 1.574 . S
C338 H332 0.949 . S
C338 C342 1.368 . S
C339 C320 1.429 . S
C339 C333 1.429 . S
C339 C340 1.523 . S
C340 C321 1.368 . S
C340 C334 1.368 . S
C340 C339 1.523 . S
C341 C325 1.429 . S
C341 C337 1.429 . S
C341 C342 1.523 . S
C342 C326 1.368 . S
C342 C338 1.368 . S
C342 C341 1.523 . S
H343 C318 0.950 . S
H344 C320 0.950 . S
H345 C321 0.949 . S
H346 C323 0.950 . S
H347 C325 0.950 . S
C348 C349 1.349 . S
C348 C350 1.327 . S
C348 H373 0.950 . S
C349 C348 1.349 . S
C349 C365 1.349 . S
C350 C348 1.327 . S
C350 C369 1.429 1_554 S
C350 H374 0.950 . S
C351 C368 1.574 . S
C351 C370 1.368 . S
C351 H375 0.949 . S
H352 C356 0.949 . S
C353 C354 1.349 . S
C353 C355 1.327 . S
C353 H376 0.950 . S
C354 C353 1.349 . S
C354 C366 1.357 . S
C355 C353 1.327 . S
C355 C371 1.429 . S
C355 H377 0.950 . S
C356 H352 0.949 . S
C356 C364 1.574 . S
C356 C372 1.368 . S
H357 C365 0.950 . S
H358 C363 0.950 . S
H359 C364 0.966 . S
H360 C366 0.927 1_565 S
H361 C367 0.950 . S
H362 C368 0.949 . S
C363 H358 0.950 . S
C363 C365 1.327 1_556 S
C363 C369 1.429 . S
C364 C356 1.574 . S
C364 H359 0.966 . S
C364 C370 1.368 . S
C365 C349 1.349 . S
C365 H357 0.950 . S
C365 C363 1.327 1_554 S
C366 C354 1.357 . S
C366 H360 0.927 1_545 S
C366 C367 1.342 . S
C367 H361 0.950 . S
C367 C366 1.342 . S
C367 C371 1.429 . S
C368 C351 1.574 . S
C368 H362 0.949 . S
C368 C372 1.368 . S
C369 C350 1.429 1_556 S
C369 C363 1.429 . S
C369 C370 1.523 . S
C370 C351 1.368 . S
C370 C364 1.368 . S
C370 C369 1.523 . S
C371 C355 1.429 . S
C371 C367 1.429 . S
C371 C372 1.523 . S
C372 C356 1.368 . S
C372 C368 1.368 . S
C372 C371 1.523 . S
H373 C348 0.950 . S
H374 C350 0.950 . S
H375 C351 0.949 . S
H376 C353 0.950 . S
H377 C355 0.950 . S
C378 C379 1.349 . S
C378 C380 1.327 . S
C378 H403 0.950 . S
C379 C378 1.349 . S
C379 C395 1.349 . S
C380 C378 1.327 . S
C380 C399 1.429 . S
C380 H404 0.950 . S
C381 C398 1.574 . S
C381 C400 1.368 . S
C381 H405 0.949 . S
H382 C386 0.949 . S
C383 C384 1.349 . S
C383 C385 1.327 . S
C383 H406 0.950 . S
C384 C383 1.349 . S
C384 C396 1.349 . S
C385 C383 1.327 . S
C385 C401 1.429 . S
C385 H407 0.950 . S
C386 H382 0.949 . S
C386 C394 1.574 . S
C386 C402 1.368 . S
H387 C395 0.950 . S
H388 C393 0.950 . S
H389 C394 0.949 . S
H390 C396 0.950 . S
H391 C397 0.950 . S
H392 C398 0.949 . S
C393 H388 0.950 . S
C393 C395 1.327 . S
C393 C399 1.429 . S
C394 C386 1.574 . S
C394 H389 0.949 . S
C394 C400 1.368 . S
C395 C379 1.349 . S
C395 H387 0.950 . S
C395 C393 1.327 . S
C396 C384 1.349 . S
C396 H390 0.950 . S
C396 C397 1.327 . S
C397 H391 0.950 . S
C397 C396 1.327 . S
C397 C401 1.429 . S
C398 C381 1.574 . S
C398 H392 0.949 . S
C398 C402 1.368 . S
C399 C380 1.429 . S
C399 C393 1.429 . S
C399 C400 1.523 . S
C400 C381 1.368 . S
C400 C394 1.368 . S
C400 C399 1.523 . S
C401 C385 1.429 . S
C401 C397 1.429 . S
C401 C402 1.523 . S
C402 C386 1.368 . S
C402 C398 1.368 . S
C402 C401 1.523 . S
H403 C378 0.950 . S
H404 C380 0.950 . S
H405 C381 0.949 . S
H406 C383 0.950 . S
H407 C385 0.950 . S
C408 C409 1.349 . S
C408 C410 1.327 . S
C408 H433 0.950 . S
C409 C408 1.349 . S
C409 C425 1.349 . S
C410 C408 1.327 . S
C410 C429 1.429 . S
C410 H434 0.950 . S
C411 C428 1.574 . S
C411 C430 1.368 . S
C411 H435 0.949 . S
H412 C416 0.949 . S
C413 C414 1.349 . S
C413 C415 1.327 . S
C413 H436 0.950 . S
C414 C413 1.349 . S
C414 C426 1.349 . S
C415 C413 1.327 . S
C415 C431 1.429 . S
C415 H437 0.950 . S
C416 H412 0.949 . S
C416 C424 1.574 . S
C416 C432 1.368 . S
H417 C425 0.950 . S
H418 C423 0.950 . S
H419 C424 0.949 . S
H420 C426 0.950 1_655 S
H421 C427 0.950 . S
H422 C428 0.949 . S
C423 H418 0.950 . S
C423 C425 1.327 . S
C423 C429 1.429 . S
C424 C416 1.574 . S
C424 H419 0.949 . S
C424 C430 1.368 . S
C425 C409 1.349 . S
C425 H417 0.950 . S
C425 C423 1.327 . S
C426 C414 1.349 . S
C426 H420 0.950 1_455 S
C426 C427 1.327 . S
C427 H421 0.950 . S
C427 C426 1.327 . S
C427 C431 1.429 . S
C428 C411 1.574 . S
C428 H422 0.949 . S
C428 C432 1.368 . S
C429 C410 1.429 . S
C429 C423 1.429 . S
C429 C430 1.523 . S
C430 C411 1.368 . S
C430 C424 1.368 . S
C430 C429 1.523 . S
C431 C415 1.429 . S
C431 C427 1.429 . S
C431 C432 1.523 . S
C432 C416 1.368 . S
C432 C428 1.368 . S
C432 C431 1.523 . S
H433 C408 0.950 . S
H434 C410 0.950 . S
H435 C411 0.949 . S
H436 C413 0.950 . S
H437 C415 0.950 . S
C438 C439 1.349 . S
C438 C440 1.327 1_554 S
C438 H463 0.950 1_554 S
C439 C438 1.349 . S
C439 C455 1.349 . S
C440 C438 1.327 1_556 S
C440 C459 1.429 . S
C440 H464 0.950 . S
C441 C458 1.574 . S
C441 C460 1.368 . S
C441 H465 0.949 1_556 S
H442 C446 0.949 . S
C443 C444 1.349 . S
C443 C445 1.327 . S
C443 H466 0.950 1_565 S
C444 C443 1.349 . S
C444 C456 1.349 . S
C445 C443 1.327 . S
C445 C461 1.429 . S
C445 H467 0.950 . S
C446 H442 0.949 . S
C446 C454 1.574 . S
C446 C462 1.368 . S
H447 C455 0.950 . S
H448 C453 0.950 . S
H449 C454 0.949 . S
H450 C456 0.950 . S
H451 C457 0.950 . S
H452 C458 0.949 . S
C453 H448 0.950 . S
C453 C455 1.327 . S
C453 C459 1.429 1_554 S
C454 C446 1.574 . S
C454 H449 0.949 . S
C454 C460 1.368 . S
C455 C439 1.349 . S
C455 H447 0.950 . S
C455 C453 1.327 . S
C456 C444 1.349 . S
C456 H450 0.950 . S
C456 C457 1.327 . S
C457 H451 0.950 . S
C457 C456 1.327 . S
C457 C461 1.429 . S
C458 C441 1.574 . S
C458 H452 0.949 . S
C458 C462 1.368 . S
C459 C440 1.429 . S
C459 C453 1.429 1_556 S
C459 C460 1.523 . S
C460 C441 1.368 . S
C460 C454 1.368 . S
C460 C459 1.523 . S
C461 C445 1.429 . S
C461 C457 1.429 . S
C461 C462 1.523 . S
C462 C446 1.368 . S
C462 C458 1.368 . S
C462 C461 1.523 . S
H463 C438 0.950 1_556 S
H464 C440 0.950 . S
H465 C441 0.949 1_554 S
H466 C443 0.950 1_545 S
H467 C445 0.950 . S
C468 C469 1.349 . S
C468 C470 1.327 . S
C468 H493 0.950 . S
C469 C468 1.349 . S
C469 C485 1.349 . S
C470 C468 1.327 . S
C470 C489 1.429 . S
C470 H494 0.950 . S
C471 C488 1.574 . S
C471 C490 1.368 . S
C471 H495 0.949 . S
H472 C476 0.949 . S
C473 C474 1.349 . S
C473 C475 1.327 . S
C473 H496 0.950 . S
C474 C473 1.349 . S
C474 C486 1.349 . S
C475 C473 1.327 . S
C475 C491 1.429 . S
C475 H497 0.950 . S
C476 H472 0.949 . S
C476 C484 1.574 . S
C476 C492 1.368 . S
H477 C485 0.950 . S
H478 C483 0.950 . S
H479 C484 0.949 . S
H480 C486 0.950 . S
H481 C487 0.950 . S
H482 C488 0.949 . S
C483 H478 0.950 . S
C483 C485 1.327 . S
C483 C489 1.429 . S
C484 C476 1.574 . S
C484 H479 0.949 . S
C484 C490 1.368 . S
C485 C469 1.349 . S
C485 H477 0.950 . S
C485 C483 1.327 . S
C486 C474 1.349 . S
C486 H480 0.950 . S
C486 C487 1.327 . S
C487 H481 0.950 . S
C487 C486 1.327 . S
C487 C491 1.429 . S
C488 C471 1.574 . S
C488 H482 0.949 . S
C488 C492 1.368 . S
C489 C470 1.429 . S
C489 C483 1.429 . S
C489 C490 1.523 . S
C490 C471 1.368 . S
C490 C484 1.368 . S
C490 C489 1.523 . S
C491 C475 1.429 . S
C491 C487 1.429 . S
C491 C492 1.523 . S
C492 C476 1.368 . S
C492 C488 1.368 . S
C492 C491 1.523 . S
H493 C468 0.950 . S
H494 C470 0.950 . S
H495 C471 0.949 . S
H496 C473 0.950 . S
H497 C475 0.950 . S
C498 C499 1.349 . S
C498 C500 1.327 . S
C498 H523 0.950 1_655 S
C499 C498 1.349 . S
C499 C515 1.349 . S
C500 C498 1.327 . S
C500 C519 1.429 . S
C500 H524 0.950 . S
C501 C518 1.574 . S
C501 C520 1.368 . S
C501 H525 0.949 . S
H502 C506 0.949 . S
C503 C504 1.349 . S
C503 C505 1.327 . S
C503 H526 0.950 . S
C504 C503 1.349 . S
C504 C516 1.349 . S
C505 C503 1.327 . S
C505 C521 1.429 . S
C505 H527 0.950 . S
C506 H502 0.949 . S
C506 C514 1.574 . S
C506 C522 1.368 . S
H507 C515 0.950 . S
H508 C513 0.950 . S
H509 C514 0.949 . S
H510 C516 0.950 . S
H511 C517 0.950 . S
H512 C518 0.949 . S
C513 H508 0.950 . S
C513 C515 1.327 . S
C513 C519 1.429 . S
C514 C506 1.574 . S
C514 H509 0.949 . S
C514 C520 1.368 . S
C515 C499 1.349 . S
C515 H507 0.950 . S
C515 C513 1.327 . S
C516 C504 1.349 . S
C516 H510 0.950 . S
C516 C517 1.327 . S
C517 H511 0.950 . S
C517 C516 1.327 . S
C517 C521 1.429 . S
C518 C501 1.574 . S
C518 H512 0.949 . S
C518 C522 1.368 . S
C519 C500 1.429 . S
C519 C513 1.429 . S
C519 C520 1.523 . S
C520 C501 1.368 . S
C520 C514 1.368 . S
C520 C519 1.523 . S
C521 C505 1.429 . S
C521 C517 1.429 . S
C521 C522 1.523 . S
C522 C506 1.368 . S
C522 C518 1.368 . S
C522 C521 1.523 . S
H523 C498 0.950 1_455 S
H524 C500 0.950 . S
H525 C501 0.949 . S
H526 C503 0.950 . S
H527 C505 0.950 . S
C528 C529 1.349 . S
C528 C530 1.327 . S
C528 H553 0.950 . S
C529 C528 1.349 . S
C529 C545 1.349 . S
C530 C528 1.327 . S
C530 C549 1.429 . S
C530 H554 0.950 . S
C531 C548 1.574 1_565 S
C531 C550 1.368 . S
C531 H555 0.949 . S
H532 C536 0.949 . S
C533 C534 1.349 . S
C533 C535 1.327 . S
C533 H556 0.950 . S
C534 C533 1.349 . S
C534 C546 1.349 . S
C535 C533 1.327 . S
C535 C551 1.429 . S
C535 H557 0.950 . S
C536 H532 0.949 . S
C536 C544 1.574 1_545 S
C536 C552 1.368 . S
H537 C545 0.950 . S
H538 C543 0.950 . S
H539 C544 0.949 . S
H540 C546 0.950 . S
H541 C547 0.950 . S
H542 C548 0.949 . S
C543 H538 0.950 . S
C543 C545 1.327 . S
C543 C549 1.429 . S
C544 C536 1.574 1_565 S
C544 H539 0.949 . S
C544 C550 1.368 . S
C545 C529 1.349 . S
C545 H537 0.950 . S
C545 C543 1.327 . S
C546 C534 1.349 . S
C546 H540 0.950 . S
C546 C547 1.327 . S
C547 H541 0.950 . S
C547 C546 1.327 . S
C547 C551 1.429 . S
C548 C531 1.574 1_545 S
C548 H542 0.949 . S
C548 C552 1.368 . S
C549 C530 1.429 . S
C549 C543 1.429 . S
C549 C550 1.523 . S
C550 C531 1.368 . S
C550 C544 1.368 . S
C550 C549 1.523 . S
C551 C535 1.429 . S
C551 C547 1.429 . S
C551 C552 1.523 . S
C552 C536 1.368 . S
C552 C548 1.368 . S
C552 C551 1.523 . S
H553 C528 0.950 . S
H554 C530 0.950 . S
H555 C531 0.949 . S
H556 C533 0.950 . S
H557 C535 0.950 . S
C558 C559 1.349 . S
C558 C560 1.327 . S
C558 H583 0.950 . S
C559 C558 1.349 . S
C559 C575 1.349 . S
C560 C558 1.327 . S
C560 C579 1.429 . S
C560 H584 0.950 . S
C561 C578 1.574 . S
C561 C580 1.368 . S
C561 H585 0.949 . S
H562 C566 0.949 . S
C563 C564 1.349 . S
C563 C565 1.327 . S
C563 H586 0.950 . S
C564 C563 1.349 . S
C564 C576 1.349 . S
C565 C563 1.327 . S
C565 C581 1.429 . S
C565 H587 0.950 . S
C566 H562 0.949 . S
C566 C574 1.574 . S
C566 C582 1.368 . S
H567 C575 0.950 . S
H568 C573 0.950 . S
H569 C574 0.949 . S
H570 C576 0.950 . S
H571 C577 0.950 . S
H572 C578 0.949 . S
C573 H568 0.950 . S
C573 C575 1.327 . S
C573 C579 1.429 . S
C574 C566 1.574 . S
C574 H569 0.949 . S
C574 C580 1.368 . S
C575 C559 1.349 . S
C575 H567 0.950 . S
C575 C573 1.327 . S
C576 C564 1.349 . S
C576 H570 0.950 . S
C576 C577 1.327 . S
C577 H571 0.950 . S
C577 C576 1.327 . S
C577 C581 1.429 . S
C578 C561 1.574 . S
C578 H572 0.949 . S
C578 C582 1.368 . S
C579 C560 1.429 . S
C579 C573 1.429 . S
C579 C580 1.523 . S
C580 C561 1.368 . S
C580 C574 1.368 . S
C580 C579 1.523 . S
C581 C565 1.429 . S
C581 C577 1.429 . S
C581 C582 1.523 . S
C582 C566 1.368 . S
C582 C578 1.368 . S
C582 C581 1.523 . S
H583 C558 0.950 . S
H584 C560 0.950 . S
H585 C561 0.949 . S
H586 C563 0.950 . S
H587 C565 0.950 . S
C588 C589 1.349 . S
C588 C590 1.330 . S
C588 H613 0.930 1_455 S
C589 C588 1.349 . S
C589 C605 1.349 . S
C590 C588 1.330 . S
C590 C609 1.444 . S
C590 H614 0.932 1_455 S
C591 C608 1.574 . S
C591 C610 1.368 . S
C591 H615 0.949 . S
H592 C596 0.949 . S
C593 C594 1.349 . S
C593 C595 1.330 . S
C593 H616 0.950 1_655 S
C594 C593 1.349 . S
C594 C606 1.349 . S
C595 C593 1.330 . S
C595 C611 1.443 . S
C595 H617 0.932 1_655 S
C596 H592 0.949 . S
C596 C604 1.574 . S
C596 C612 1.368 . S
H597 C605 0.950 . S
H598 C603 0.950 . S
H599 C604 0.949 . S
H600 C606 0.950 . S
H601 C607 0.950 . S
H602 C608 0.949 . S
C603 H598 0.950 . S
C603 C605 1.327 . S
C603 C609 1.429 . S
C604 C596 1.574 . S
C604 H599 0.949 . S
C604 C610 1.368 1_655 S
C605 C589 1.349 . S
C605 H597 0.950 . S
C605 C603 1.327 . S
C606 C594 1.349 . S
C606 H600 0.950 . S
C606 C607 1.327 . S
C607 H601 0.950 . S
C607 C606 1.327 . S
C607 C611 1.429 . S
C608 C591 1.574 . S
C608 H602 0.949 . S
C608 C612 1.368 1_455 S
C609 C590 1.444 . S
C609 C603 1.429 . S
C609 C610 1.523 . S
C610 C591 1.368 . S
C610 C604 1.368 1_455 S
C610 C609 1.523 . S
C611 C595 1.443 . S
C611 C607 1.429 . S
C611 C612 1.523 . S
C612 C596 1.368 . S
C612 C608 1.368 1_655 S
C612 C611 1.523 . S
H613 C588 0.930 1_655 S
H614 C590 0.932 1_655 S
H615 C591 0.949 . S
H616 C593 0.950 1_455 S
H617 C595 0.932 1_455 S
C618 C619 1.349 . S
C618 C620 1.327 . S
C618 H643 0.950 . S
C619 C618 1.349 . S
C619 C635 1.349 . S
C620 C618 1.327 . S
C620 C639 1.429 . S
C620 H644 0.950 . S
C621 C638 1.574 1_655 S
C621 C640 1.368 . S
C621 H645 0.949 . S
H622 C626 0.949 . S
C623 C624 1.349 . S
C623 C625 1.327 . S
C623 H646 0.950 . S
C624 C623 1.349 . S
C624 C636 1.349 . S
C625 C623 1.327 . S
C625 C641 1.429 . S
C625 H647 0.950 . S
C626 H622 0.949 . S
C626 C634 1.574 1_455 S
C626 C642 1.368 . S
H627 C635 0.950 . S
H628 C633 0.950 . S
H629 C634 0.949 . S
H630 C636 0.950 . S
H631 C637 0.950 . S
H632 C638 0.949 . S
C633 H628 0.950 . S
C633 C635 1.327 . S
C633 C639 1.429 . S
C634 C626 1.574 1_655 S
C634 H629 0.949 . S
C634 C640 1.368 . S
C635 C619 1.349 . S
C635 H627 0.950 . S
C635 C633 1.327 . S
C636 C624 1.349 . S
C636 H630 0.950 . S
C636 C637 1.327 . S
C637 H631 0.950 . S
C637 C636 1.327 . S
C637 C641 1.429 . S
C638 C621 1.574 1_455 S
C638 H632 0.949 . S
C638 C642 1.368 . S
C639 C620 1.429 . S
C639 C633 1.429 . S
C639 C640 1.523 . S
C640 C621 1.368 . S
C640 C634 1.368 . S
C640 C639 1.523 . S
C641 C625 1.429 . S
C641 C637 1.429 . S
C641 C642 1.523 . S
C642 C626 1.368 . S
C642 C638 1.368 . S
C642 C641 1.523 . S
H643 C618 0.950 . S
H644 C620 0.950 . S
H645 C621 0.949 . S
H646 C623 0.950 . S
H647 C625 0.950 . S
C648 C649 1.349 . S
C648 C650 1.330 . S
C648 H673 0.931 1_565 S
C649 C648 1.349 . S
C649 C665 1.349 . S
C650 C648 1.330 . S
C650 C669 1.444 . S
C650 H674 0.932 1_565 S
C651 C668 1.574 . S
C651 C670 1.368 . S
C651 H675 0.949 . S
H652 C656 0.949 . S
C653 C654 1.349 . S
C653 C655 1.330 . S
C653 H676 0.931 1_545 S
C654 C653 1.349 . S
C654 C666 1.349 . S
C655 C653 1.330 . S
C655 C671 1.444 . S
C655 H677 0.932 1_545 S
C656 H652 0.949 . S
C656 C664 1.574 . S
C656 C672 1.368 . S
H657 C665 0.950 . S
H658 C663 0.950 . S
H659 C664 0.949 . S
H660 C666 0.950 . S
H661 C667 0.950 . S
H662 C668 0.949 . S
C663 H658 0.950 . S
C663 C665 1.327 . S
C663 C669 1.429 . S
C664 C656 1.574 . S
C664 H659 0.949 . S
C664 C670 1.368 1_545 S
C665 C649 1.349 . S
C665 H657 0.950 . S
C665 C663 1.327 . S
C666 C654 1.349 . S
C666 H660 0.950 . S
C666 C667 1.327 . S
C667 H661 0.950 . S
C667 C666 1.327 . S
C667 C671 1.429 . S
C668 C651 1.574 . S
C668 H662 0.949 . S
C668 C672 1.368 1_565 S
C669 C650 1.444 . S
C669 C663 1.429 . S
C669 C670 1.523 . S
C670 C651 1.368 . S
C670 C664 1.368 1_565 S
C670 C669 1.523 . S
C671 C655 1.444 . S
C671 C667 1.429 . S
C671 C672 1.523 . S
C672 C656 1.368 . S
C672 C668 1.368 1_545 S
C672 C671 1.523 . S
H673 C648 0.931 1_545 S
H674 C650 0.932 1_545 S
H675 C651 0.949 . S
H676 C653 0.931 1_565 S
H677 C655 0.932 1_565 S
C678 C679 1.349 . S
C678 C680 1.327 . S
C678 H703 0.950 . S
C679 C678 1.349 . S
C679 C695 1.349 . S
C680 C678 1.327 . S
C680 C699 1.429 . S
C680 H704 0.950 . S
C681 C698 1.574 . S
C681 C700 1.368 . S
C681 H705 0.949 . S
H682 C686 0.949 . S
C683 C684 1.349 . S
C683 C685 1.327 . S
C683 H706 0.950 . S
C684 C683 1.349 . S
C684 C696 1.349 . S
C685 C683 1.327 . S
C685 C701 1.429 . S
C685 H707 0.950 . S
C686 H682 0.949 . S
C686 C694 1.574 . S
C686 C702 1.368 . S
H687 C695 0.950 . S
H688 C693 0.950 . S
H689 C694 0.949 . S
H690 C696 0.950 . S
H691 C697 0.950 . S
H692 C698 0.949 . S
C693 H688 0.950 . S
C693 C695 1.327 . S
C693 C699 1.429 . S
C694 C686 1.574 . S
C694 H689 0.949 . S
C694 C700 1.368 . S
C695 C679 1.349 . S
C695 H687 0.950 . S
C695 C693 1.327 . S
C696 C684 1.349 . S
C696 H690 0.950 . S
C696 C697 1.327 . S
C697 H691 0.950 . S
C697 C696 1.327 . S
C697 C701 1.429 . S
C698 C681 1.574 . S
C698 H692 0.949 . S
C698 C702 1.368 . S
C699 C680 1.429 . S
C699 C693 1.429 . S
C699 C700 1.523 . S
C700 C681 1.368 . S
C700 C694 1.368 . S
C700 C699 1.523 . S
C701 C685 1.429 . S
C701 C697 1.429 . S
C701 C702 1.523 . S
C702 C686 1.368 . S
C702 C698 1.368 . S
C702 C701 1.523 . S
H703 C678 0.950 . S
H704 C680 0.950 . S
H705 C681 0.949 . S
H706 C683 0.950 . S
H707 C685 0.950 . S
C708 C709 1.349 . S
C708 C710 1.327 . S
C708 H733 0.950 . S
C709 C708 1.349 . S
C709 C725 1.349 . S
C710 C708 1.327 . S
C710 C729 1.429 . S
C710 H734 0.950 . S
C711 C728 1.574 . S
C711 C730 1.368 . S
C711 H735 0.949 . S
H712 C716 0.949 . S
C713 C714 1.349 . S
C713 C715 1.327 . S
C713 H736 0.950 . S
C714 C713 1.349 . S
C714 C726 1.349 . S
C715 C713 1.327 . S
C715 C731 1.429 . S
C715 H737 0.950 . S
C716 H712 0.949 . S
C716 C724 1.574 . S
C716 C732 1.368 . S
H717 C725 0.950 . S
H718 C723 0.950 . S
H719 C724 0.949 . S
H720 C726 0.950 . S
H721 C727 0.950 . S
H722 C728 0.949 . S
C723 H718 0.950 . S
C723 C725 1.327 . S
C723 C729 1.429 . S
C724 C716 1.574 . S
C724 H719 0.949 . S
C724 C730 1.368 . S
C725 C709 1.349 . S
C725 H717 0.950 . S
C725 C723 1.327 . S
C726 C714 1.349 . S
C726 H720 0.950 . S
C726 C727 1.327 . S
C727 H721 0.950 . S
C727 C726 1.327 . S
C727 C731 1.429 . S
C728 C711 1.574 . S
C728 H722 0.949 . S
C728 C732 1.368 . S
C729 C710 1.429 . S
C729 C723 1.429 . S
C729 C730 1.523 . S
C730 C711 1.368 . S
C730 C724 1.368 . S
C730 C729 1.523 . S
C731 C715 1.429 . S
C731 C727 1.429 . S
C731 C732 1.523 . S
C732 C716 1.368 . S
C732 C728 1.368 . S
C732 C731 1.523 . S
H733 C708 0.950 . S
H734 C710 0.950 . S
H735 C711 0.949 . S
H736 C713 0.950 . S
H737 C715 0.950 . S
C738 C739 1.349 . S
C738 C740 1.327 . S
C738 H763 0.950 . S
C739 C738 1.349 . S
C739 C755 1.349 . S
C740 C738 1.327 . S
C740 C759 1.429 . S
C740 H764 0.950 . S
C741 C758 1.574 . S
C741 C760 1.368 . S
C741 H765 0.949 . S
H742 C746 0.949 . S
C743 C744 1.349 . S
C743 C745 1.327 . S
C743 H766 0.950 . S
C744 C743 1.349 . S
C744 C756 1.349 . S
C745 C743 1.327 . S
C745 C761 1.429 . S
C745 H767 0.950 . S
C746 H742 0.949 . S
C746 C754 1.574 . S
C746 C762 1.368 . S
H747 C755 0.950 . S
H748 C753 0.950 . S
H749 C754 0.949 . S
H750 C756 0.950 . S
H751 C757 0.950 . S
H752 C758 0.949 . S
C753 H748 0.950 . S
C753 C755 1.327 . S
C753 C759 1.429 . S
C754 C746 1.574 . S
C754 H749 0.949 . S
C754 C760 1.368 . S
C755 C739 1.349 . S
C755 H747 0.950 . S
C755 C753 1.327 . S
C756 C744 1.349 . S
C756 H750 0.950 . S
C756 C757 1.327 . S
C757 H751 0.950 . S
C757 C756 1.327 . S
C757 C761 1.429 . S
C758 C741 1.574 . S
C758 H752 0.949 . S
C758 C762 1.368 . S
C759 C740 1.429 . S
C759 C753 1.429 . S
C759 C760 1.523 . S
C760 C741 1.368 . S
C760 C754 1.368 . S
C760 C759 1.523 . S
C761 C745 1.429 . S
C761 C757 1.429 . S
C761 C762 1.523 . S
C762 C746 1.368 . S
C762 C758 1.368 . S
C762 C761 1.523 . S
H763 C738 0.950 . S
H764 C740 0.950 . S
H765 C741 0.949 . S
H766 C743 0.950 . S
H767 C745 0.950 . S
C768 C769 1.349 . S
C768 C770 1.327 . S
C768 H793 0.950 . S
C769 C768 1.349 . S
C769 C785 1.349 . S
C770 C768 1.327 . S
C770 C789 1.429 . S
C770 H794 0.950 . S
C771 C788 1.574 . S
C771 C790 1.368 . S
C771 H795 0.949 . S
H772 C776 0.949 . S
C773 C774 1.349 . S
C773 C775 1.327 . S
C773 H796 0.950 . S
C774 C773 1.349 . S
C774 C786 1.349 . S
C775 C773 1.327 . S
C775 C791 1.429 . S
C775 H797 0.950 . S
C776 H772 0.949 . S
C776 C784 1.574 . S
C776 C792 1.368 . S
H777 C785 0.950 . S
H778 C783 0.950 . S
H779 C784 0.949 . S
H780 C786 0.950 . S
H781 C787 0.950 . S
H782 C788 0.949 . S
C783 H778 0.950 . S
C783 C785 1.327 . S
C783 C789 1.429 . S
C784 C776 1.574 . S
C784 H779 0.949 . S
C784 C790 1.368 . S
C785 C769 1.349 . S
C785 H777 0.950 . S
C785 C783 1.327 . S
C786 C774 1.349 . S
C786 H780 0.950 . S
C786 C787 1.327 . S
C787 H781 0.950 . S
C787 C786 1.327 . S
C787 C791 1.429 . S
C788 C771 1.574 . S
C788 H782 0.949 . S
C788 C792 1.368 . S
C789 C770 1.429 . S
C789 C783 1.429 . S
C789 C790 1.523 . S
C790 C771 1.368 . S
C790 C784 1.368 . S
C790 C789 1.523 . S
C791 C775 1.429 . S
C791 C787 1.429 . S
C791 C792 1.523 . S
C792 C776 1.368 . S
C792 C788 1.368 . S
C792 C791 1.523 . S
H793 C768 0.950 . S
H794 C770 0.950 . S
H795 C771 0.949 . S
H796 C773 0.950 . S
H797 C775 0.950 . S
C798 C799 1.349 . S
C798 C800 1.327 . S
C798 H823 0.950 . S
C799 C798 1.349 . S
C799 C815 1.349 . S
C800 C798 1.327 . S
C800 C819 1.429 . S
C800 H824 0.950 . S
C801 C818 1.574 . S
C801 C820 1.368 . S
C801 H825 0.949 . S
H802 C806 0.949 . S
C803 C804 1.349 . S
C803 C805 1.327 . S
C803 H826 0.950 . S
C804 C803 1.349 . S
C804 C816 1.349 . S
C805 C803 1.327 . S
C805 C821 1.429 . S
C805 H827 0.950 . S
C806 H802 0.949 . S
C806 C814 1.574 . S
C806 C822 1.368 . S
H807 C815 0.950 . S
H808 C813 0.950 . S
H809 C814 0.949 . S
H810 C816 0.950 . S
H811 C817 0.950 . S
H812 C818 0.949 . S
C813 H808 0.950 . S
C813 C815 1.327 . S
C813 C819 1.429 . S
C814 C806 1.574 . S
C814 H809 0.949 . S
C814 C820 1.368 . S
C815 C799 1.349 . S
C815 H807 0.950 . S
C815 C813 1.327 . S
C816 C804 1.349 . S
C816 H810 0.950 . S
C816 C817 1.327 . S
C817 H811 0.950 . S
C817 C816 1.327 . S
C817 C821 1.429 . S
C818 C801 1.574 . S
C818 H812 0.949 . S
C818 C822 1.368 . S
C819 C800 1.429 . S
C819 C813 1.429 . S
C819 C820 1.523 . S
C820 C801 1.368 . S
C820 C814 1.368 . S
C820 C819 1.523 . S
C821 C805 1.429 . S
C821 C817 1.429 . S
C821 C822 1.523 . S
C822 C806 1.368 . S
C822 C818 1.368 . S
C822 C821 1.523 . S
H823 C798 0.950 . S
H824 C800 0.950 . S
H825 C801 0.949 . S
H826 C803 0.950 . S
H827 C805 0.950 . S
C828 C829 1.349 . S
C828 C830 1.327 . S
C828 H853 0.950 . S
C829 C828 1.349 . S
C829 C845 1.349 . S
C830 C828 1.327 . S
C830 C849 1.429 . S
C830 H854 0.950 . S
C831 C848 1.574 . S
C831 C850 1.368 . S
C831 H855 0.949 . S
H832 C836 0.949 . S
C833 C834 1.349 . S
C833 C835 1.327 . S
C833 H856 0.950 . S
C834 C833 1.349 . S
C834 C846 1.349 . S
C835 C833 1.327 . S
C835 C851 1.429 . S
C835 H857 0.950 . S
C836 H832 0.949 . S
C836 C844 1.574 . S
C836 C852 1.368 . S
H837 C845 0.950 . S
H838 C843 0.950 . S
H839 C844 0.949 . S
H840 C846 0.950 . S
H841 C847 0.950 . S
H842 C848 0.949 . S
C843 H838 0.950 . S
C843 C845 1.327 . S
C843 C849 1.429 . S
C844 C836 1.574 . S
C844 H839 0.949 . S
C844 C850 1.368 . S
C845 C829 1.349 . S
C845 H837 0.950 . S
C845 C843 1.327 . S
C846 C834 1.349 . S
C846 H840 0.950 . S
C846 C847 1.327 . S
C847 H841 0.950 . S
C847 C846 1.327 . S
C847 C851 1.429 . S
C848 C831 1.574 . S
C848 H842 0.949 . S
C848 C852 1.368 . S
C849 C830 1.429 . S
C849 C843 1.429 . S
C849 C850 1.523 . S
C850 C831 1.368 . S
C850 C844 1.368 . S
C850 C849 1.523 . S
C851 C835 1.429 . S
C851 C847 1.429 . S
C851 C852 1.523 . S
C852 C836 1.368 . S
C852 C848 1.368 . S
C852 C851 1.523 . S
H853 C828 0.950 . S
H854 C830 0.950 . S
H855 C831 0.949 . S
H856 C833 0.950 . S
H857 C835 0.950 . S
C858 C859 1.349 . S
C858 C860 1.327 . S
C858 H883 0.950 . S
C859 C858 1.349 . S
C859 C875 1.349 . S
C860 C858 1.327 . S
C860 C879 1.429 . S
C860 H884 0.950 . S
C861 C878 1.574 . S
C861 C880 1.368 . S
C861 H885 0.949 . S
H862 C866 0.949 . S
C863 C864 1.349 . S
C863 C865 1.327 . S
C863 H886 0.950 . S
C864 C863 1.349 . S
C864 C876 1.349 . S
C865 C863 1.327 . S
C865 C881 1.429 . S
C865 H887 0.950 . S
C866 H862 0.949 . S
C866 C874 1.574 . S
C866 C882 1.368 . S
H867 C875 0.950 . S
H868 C873 0.950 . S
H869 C874 0.949 . S
H870 C876 0.950 . S
H871 C877 0.950 . S
H872 C878 0.949 . S
C873 H868 0.950 . S
C873 C875 1.327 . S
C873 C879 1.429 . S
C874 C866 1.574 . S
C874 H869 0.949 . S
C874 C880 1.368 . S
C875 C859 1.349 . S
C875 H867 0.950 . S
C875 C873 1.327 . S
C876 C864 1.349 . S
C876 H870 0.950 . S
C876 C877 1.327 . S
C877 H871 0.950 . S
C877 C876 1.327 . S
C877 C881 1.429 . S
C878 C861 1.574 . S
C878 H872 0.949 . S
C878 C882 1.368 . S
C879 C860 1.429 . S
C879 C873 1.429 . S
C879 C880 1.523 . S
C880 C861 1.368 . S
C880 C874 1.368 . S
C880 C879 1.523 . S
C881 C865 1.429 . S
C881 C877 1.429 . S
C881 C882 1.523 . S
C882 C866 1.368 . S
C882 C878 1.368 . S
C882 C881 1.523 . S
H883 C858 0.950 . S
H884 C860 0.950 . S
H885 C861 0.949 . S
H886 C863 0.950 . S
H887 C865 0.950 . S
C169 C4 0.743 . S
C174 C144 0.479 . S
C199 C158 0.795 . S
C204 C18 0.795 . S
C229 C88 0.743 . S
C234 C32 0.479 . S
C259 C46 0.743 . S
C264 C102 0.479 . S
C289 C60 0.795 . S
C294 C116 0.795 . S
C319 C130 0.743 . S
C324 C74 0.479 . S
C349 C11 0.948 . S
C354 C109 0.870 . S
C379 C123 0.817 . S
C384 C25 0.816 . S
C409 C137 0.948 . S
C414 C39 0.870 . S
C439 C53 0.948 . S
C444 C151 0.870 . S
C469 C165 0.817 . S
C474 C67 0.816 . S
C499 C81 0.870 . S
C504 C95 0.948 . S
C529 C54 0.221 . S
C534 C12 0.221 . S
C559 C68 0.388 . S
C564 C26 0.388 . S
C589 C82 0.618 . S
C594 C40 0.618 . S
C619 C96 0.221 . S
C624 C138 0.221 . S
C649 C110 0.618 . S
C654 C152 0.618 . S
C679 C124 0.388 . S
C684 C166 0.388 . S
C709 C117 0.932 . S
C714 C5 0.973 . S
C739 C131 0.973 . S
C744 C19 0.931 . S
C769 C145 1.213 . S
C774 C33 1.213 . S
C799 C159 0.931 . S
C804 C47 0.972 . S
C829 C89 0.973 . S
C834 C61 0.932 . S
C859 C75 1.213 . S
C864 C103 1.213 . S
