# Generated by pormake.
# Topology crs, (6)-cn, num edge types: 1
# Building blocks:
#     Node 0, Type 0, BuildingBlock: LEVNOQ01_clean_sbu_1, # of connection points: 6
#     Node 1, Type 0, BuildingBlock: LEVNOQ01_clean_sbu_1, # of connection points: 6
#     Node 2, Type 0, BuildingBlock: LEVNOQ01_clean_sbu_1, # of connection points: 6
#     Node 3, Type 0, BuildingBlock: LEVNOQ01_clean_sbu_1, # of connection points: 6
#     Node 4, Type 0, BuildingBlock: LEVNOQ01_clean_sbu_1, # of connection points: 6
#     Node 5, Type 0, BuildingBlock: LEVNOQ01_clean_sbu_1, # of connection points: 6
#     Node 6, Type 0, BuildingBlock: LEVNOQ01_clean_sbu_1, # of connection points: 6
#     Node 7, Type 0, BuildingBlock: LEVNOQ01_clean_sbu_1, # of connection points: 6
#     Node 8, Type 0, BuildingBlock: LEVNOQ01_clean_sbu_1, # of connection points: 6
#     Node 9, Type 0, BuildingBlock: LEVNOQ01_clean_sbu_1, # of connection points: 6
#     Node 10, Type 0, BuildingBlock: LEVNOQ01_clean_sbu_1, # of connection points: 6
#     Node 11, Type 0, BuildingBlock: LEVNOQ01_clean_sbu_1, # of connection points: 6
#     Node 12, Type 0, BuildingBlock: LEVNOQ01_clean_sbu_1, # of connection points: 6
#     Node 13, Type 0, BuildingBlock: LEVNOQ01_clean_sbu_1, # of connection points: 6
#     Node 14, Type 0, BuildingBlock: LEVNOQ01_clean_sbu_1, # of connection points: 6
#     Node 15, Type 0, BuildingBlock: LEVNOQ01_clean_sbu_1, # of connection points: 6
#     Edge 16, Type (0, 0), BuildingBlock: UVAHIK_clean_linker_0, # of connection points: 2
#     Edge 17, Type (0, 0), BuildingBlock: UVAHIK_clean_linker_0, # of connection points: 2
#     Edge 18, Type (0, 0), BuildingBlock: UVAHIK_clean_linker_0, # of connection points: 2
#     Edge 19, Type (0, 0), BuildingBlock: UVAHIK_clean_linker_0, # of connection points: 2
#     Edge 20, Type (0, 0), BuildingBlock: UVAHIK_clean_linker_0, # of connection points: 2
#     Edge 21, Type (0, 0), BuildingBlock: UVAHIK_clean_linker_0, # of connection points: 2
#     Edge 22, Type (0, 0), BuildingBlock: UVAHIK_clean_linker_0, # of connection points: 2
#     Edge 23, Type (0, 0), BuildingBlock: UVAHIK_clean_linker_0, # of connection points: 2
#     Edge 24, Type (0, 0), BuildingBlock: UVAHIK_clean_linker_0, # of connection points: 2
#     Edge 25, Type (0, 0), BuildingBlock: UVAHIK_clean_linker_0, # of connection points: 2
#     Edge 26, Type (0, 0), BuildingBlock: UVAHIK_clean_linker_0, # of connection points: 2
#     Edge 27, Type (0, 0), BuildingBlock: UVAHIK_clean_linker_0, # of connection points: 2
#     Edge 28, Type (0, 0), BuildingBlock: UVAHIK_clean_linker_0, # of connection points: 2
#     Edge 29, Type (0, 0), BuildingBlock: UVAHIK_clean_linker_0, # of connection points: 2
#     Edge 30, Type (0, 0), BuildingBlock: UVAHIK_clean_linker_0, # of connection points: 2
#     Edge 31, Type (0, 0), BuildingBlock: UVAHIK_clean_linker_0, # of connection points: 2
#     Edge 32, Type (0, 0), BuildingBlock: UVAHIK_clean_linker_0, # of connection points: 2
#     Edge 33, Type (0, 0), BuildingBlock: UVAHIK_clean_linker_0, # of connection points: 2
#     Edge 34, Type (0, 0), BuildingBlock: UVAHIK_clean_linker_0, # of connection points: 2
#     Edge 35, Type (0, 0), BuildingBlock: UVAHIK_clean_linker_0, # of connection points: 2
#     Edge 36, Type (0, 0), BuildingBlock: UVAHIK_clean_linker_0, # of connection points: 2
#     Edge 37, Type (0, 0), BuildingBlock: UVAHIK_clean_linker_0, # of connection points: 2
#     Edge 38, Type (0, 0), BuildingBlock: UVAHIK_clean_linker_0, # of connection points: 2
#     Edge 39, Type (0, 0), BuildingBlock: UVAHIK_clean_linker_0, # of connection points: 2
#     Edge 40, Type (0, 0), BuildingBlock: UVAHIK_clean_linker_0, # of connection points: 2
#     Edge 41, Type (0, 0), BuildingBlock: UVAHIK_clean_linker_0, # of connection points: 2
#     Edge 42, Type (0, 0), BuildingBlock: UVAHIK_clean_linker_0, # of connection points: 2
#     Edge 43, Type (0, 0), BuildingBlock: UVAHIK_clean_linker_0, # of connection points: 2
#     Edge 44, Type (0, 0), BuildingBlock: UVAHIK_clean_linker_0, # of connection points: 2
#     Edge 45, Type (0, 0), BuildingBlock: UVAHIK_clean_linker_0, # of connection points: 2
#     Edge 46, Type (0, 0), BuildingBlock: UVAHIK_clean_linker_0, # of connection points: 2
#     Edge 47, Type (0, 0), BuildingBlock: UVAHIK_clean_linker_0, # of connection points: 2
#     Edge 48, Type (0, 0), BuildingBlock: UVAHIK_clean_linker_0, # of connection points: 2
#     Edge 49, Type (0, 0), BuildingBlock: UVAHIK_clean_linker_0, # of connection points: 2
#     Edge 50, Type (0, 0), BuildingBlock: UVAHIK_clean_linker_0, # of connection points: 2
#     Edge 51, Type (0, 0), BuildingBlock: UVAHIK_clean_linker_0, # of connection points: 2
#     Edge 52, Type (0, 0), BuildingBlock: UVAHIK_clean_linker_0, # of connection points: 2
#     Edge 53, Type (0, 0), BuildingBlock: UVAHIK_clean_linker_0, # of connection points: 2
#     Edge 54, Type (0, 0), BuildingBlock: UVAHIK_clean_linker_0, # of connection points: 2
#     Edge 55, Type (0, 0), BuildingBlock: UVAHIK_clean_linker_0, # of connection points: 2
#     Edge 56, Type (0, 0), BuildingBlock: UVAHIK_clean_linker_0, # of connection points: 2
#     Edge 57, Type (0, 0), BuildingBlock: UVAHIK_clean_linker_0, # of connection points: 2
#     Edge 58, Type (0, 0), BuildingBlock: UVAHIK_clean_linker_0, # of connection points: 2
#     Edge 59, Type (0, 0), BuildingBlock: UVAHIK_clean_linker_0, # of connection points: 2
#     Edge 60, Type (0, 0), BuildingBlock: UVAHIK_clean_linker_0, # of connection points: 2
#     Edge 61, Type (0, 0), BuildingBlock: UVAHIK_clean_linker_0, # of connection points: 2
#     Edge 62, Type (0, 0), BuildingBlock: UVAHIK_clean_linker_0, # of connection points: 2
#     Edge 63, Type (0, 0), BuildingBlock: UVAHIK_clean_linker_0, # of connection points: 2
# Relax obj value: 0.265
# Max RMSD: 0.229
# Mean RMSD: 0.224
data_MOF--net-crs--node1-LEVNOQ01_clean_sbu_1--edge1-UVAHIK_clean_linker_0
_symmetry_space_group_name_H-M    P1
_symmetry_Int_Tables_number       1
_symmetry_cell_setting            triclinic
loop_
_symmetry_equiv_pos_as_xyz
'x, y, z'
_cell_length_a     51.692962
_cell_length_b     51.972957
_cell_length_c     52.533996
_cell_angle_alpha  90.143373
_cell_angle_beta   89.799535
_cell_angle_gamma 88.973935
loop_
_atom_site_label
_atom_site_type_symbol
_atom_site_fract_x
_atom_site_fract_y
_atom_site_fract_z
_atom_type_partial_charge
O0 O 0.02443 0.06958 0.03725 0.0
Mg1 Mg 0.02243 0.07725 0.99724 0.0
O2 O 0.02438 0.02664 0.03644 0.0
Mg3 Mg 0.02276 0.01101 0.99506 0.0
O4 O 0.00324 0.04716 0.98329 0.0
O5 O 0.98629 0.08532 0.97809 0.0
O6 O 0.02197 0.99468 0.95327 0.0
O7 O 0.98259 0.99522 0.00285 0.0
Mg8 Mg 0.02478 0.94529 0.99152 0.0
O9 O 0.04046 0.97503 0.00928 0.0
O10 O 0.03653 0.95387 0.95378 0.0
O11 O 0.98376 0.95267 0.99687 0.0
O12 O 0.04992 0.93669 0.02315 0.0
C13 C 0.07133 0.04893 0.9764 0.0
C14 C 0.02522 0.04794 0.04859 0.0
C15 C 0.98435 0.06088 0.97497 0.0
C16 C 0.03006 0.97426 0.94179 0.0
C17 C 0.97129 0.97367 0.00125 0.0
C18 C 0.05187 0.96116 0.02602 0.0
O19 O 0.05805 0.06972 0.97842 0.0
O20 O 0.06305 0.02707 0.98367 0.0
O21 O 0.02492 0.30548 0.27365 0.0
Mg22 Mg 0.03221 0.27166 0.29393 0.0
O23 O 0.98887 0.28914 0.25859 0.0
Mg24 Mg 0.994 0.24357 0.2563 0.0
O25 O 0.03686 0.24232 0.2687 0.0
O26 O 0.06924 0.2567 0.29231 0.0
O27 O -0.00157 0.19854 0.2518 0.0
O28 O 0.00779 0.24867 0.215 0.0
Mg29 Mg 0.95316 0.2186 0.21459 0.0
O30 O 0.95195 0.24321 0.24465 0.0
O31 O 0.96588 0.18266 0.22931 0.0
O32 O 0.9787 0.23518 0.18708 0.0
O33 O 0.91651 0.23409 0.22373 0.0
C34 C 0.98562 0.24723 0.31967 0.0
C35 C 0.00323 0.30849 0.26292 0.0
C36 C 0.06106 0.241 0.27519 0.0
C37 C 0.98623 0.17945 0.24249 0.0
C38 C 0.0003 0.24541 0.19209 0.0
C39 C 0.92732 0.24651 0.24198 0.0
O40 O 0.00537 0.26107 0.32302 0.0
O41 O 0.97966 0.23889 0.29762 0.0
O42 O 0.83183 0.2933 0.56866 0.0
Mg43 Mg 0.79874 0.31572 0.55714 0.0
O44 O 0.81953 0.2562 0.55155 0.0
Mg45 Mg 0.77522 0.25576 0.54503 0.0
O46 O 0.76986 0.29227 0.56577 0.0
O47 O 0.76808 0.33109 0.58119 0.0
O48 O 0.73055 0.2552 0.53832 0.0
O49 O 0.77183 0.2337 0.58343 0.0
Mg50 Mg 0.75443 0.19464 0.53767 0.0
O51 O 0.78085 0.21904 0.52371 0.0
O52 O 0.71907 0.2146 0.53064 0.0
O53 O 0.76199 0.19251 0.57746 0.0
O54 O 0.77925 0.18012 0.50819 0.0
C55 C 0.78691 0.30085 0.50043 0.0
C56 C 0.83683 0.27024 0.56156 0.0
C57 C 0.75714 0.30922 0.57851 0.0
C58 C 0.71358 0.23846 0.53295 0.0
C59 C 0.7674 0.21123 0.59206 0.0
C60 C 0.78983 0.20236 0.5078 0.0
O61 O 0.79507 0.31744 0.51634 0.0
O62 O 0.77917 0.27866 0.50736 0.0
O63 O 0.72269 0.01092 0.71758 0.0
Mg64 Mg 0.76133 0.01324 0.73293 0.0
O65 O 0.70277 -0.00044 0.75332 0.0
Mg66 Mg 0.73015 0.99677 0.78701 0.0
O67 O 0.76256 0.98679 0.7609 0.0
O68 O 0.78926 0.98289 0.72875 0.0
O69 O 0.7569 0.99388 0.82194 0.0
O70 O 0.72257 0.9531 0.78957 0.0
Mg71 Mg 0.69642 0.98094 0.84058 0.0
O72 O 0.69619 0.00567 0.81141 0.0
O73 O 0.73356 0.9879 0.8573 0.0
O74 O 0.69544 0.94456 0.82144 0.0
O75 O 0.66435 0.00775 0.83857 0.0
C76 C 0.75505 0.05544 0.77274 0.0
C77 C 0.70223 0.00512 0.72975 0.0
C78 C 0.78065 0.97381 0.74985 0.0
C79 C 0.75518 0.99133 0.84611 0.0
C80 C 0.70891 0.93736 0.80225 0.0
C81 C 0.67445 0.01601 0.81779 0.0
O82 O 0.76808 0.04745 0.75363 0.0
O83 O 0.73931 0.04101 0.78474 0.0
O84 O 0.49235 0.76009 0.31585 0.0
Mg85 Mg 0.48458 0.71986 0.31292 0.0
O86 O 0.49342 0.77094 0.27466 0.0
Mg87 Mg 0.49022 0.73394 0.25006 0.0
O88 O 0.50457 0.70944 0.28163 0.0
O89 O 0.51208 0.68887 0.31698 0.0
O90 O 0.4874 0.69578 0.22688 0.0
O91 O 0.53295 0.7406 0.23755 0.0
Mg92 Mg 0.4948 0.74237 0.18733 0.0
O93 O 0.47486 0.75728 0.21749 0.0
O94 O 0.48467 0.70299 0.18527 0.0
O95 O 0.53442 0.74822 0.19581 0.0
O96 O 0.46794 0.77218 0.17902 0.0
C97 C 0.4346 0.72076 0.28187 0.0
C98 C 0.49417 0.77689 0.2983 0.0
C99 C 0.51676 0.69116 0.29302 0.0
C100 C 0.48462 0.68766 0.2041 0.0
C101 C 0.54552 0.74581 0.21727 0.0
C102 C 0.46217 0.77277 0.2029 0.0
O103 O 0.44551 0.71326 0.30231 0.0
O104 O 0.44743 0.7295 0.26304 0.0
O105 O 0.25831 0.83028 0.48996 0.0
Mg106 Mg 0.21727 0.82638 0.48932 0.0
O107 O 0.27031 0.78879 0.4894 0.0
Mg108 Mg 0.23369 0.76379 0.49428 0.0
O109 O 0.21197 0.79641 0.51273 0.0
O110 O 0.19475 0.83396 0.52236 0.0
O111 O 0.19751 0.73852 0.49954 0.0
O112 O 0.24812 0.75332 0.53532 0.0
Mg113 Mg 0.25264 0.70296 0.50216 0.0
O114 O 0.25512 0.73097 0.47582 0.0
O115 O 0.21176 0.69837 0.50676 0.0
O116 O 0.27161 0.71706 0.53488 0.0
O117 O 0.27232 0.69288 0.46815 0.0
C118 C 0.20693 0.79321 0.44241 0.0
C119 C 0.27578 0.81269 0.48911 0.0
C120 C 0.19891 0.8103 0.52862 0.0
C121 C 0.19337 0.7149 0.50463 0.0
C122 C 0.26334 0.73718 0.54623 0.0
C123 C 0.26744 0.71594 0.46036 0.0
O124 O 0.20184 0.81432 0.45386 0.0
O125 O 0.21909 0.77476 0.45352 0.0
O126 O 0.22367 0.49972 0.68393 0.0
Mg127 Mg 0.26505 0.5006 0.6844 0.0
O128 O 0.2153 0.50538 0.72535 0.0
Mg129 Mg 0.25373 0.50907 0.74751 0.0
O130 O 0.27357 0.48502 0.71845 0.0
O131 O 0.28798 0.46587 0.68417 0.0
O132 O 0.29247 0.51178 0.76984 0.0
O133 O 0.24358 0.47125 0.76809 0.0
Mg134 Mg 0.24307 0.51765 0.81011 0.0
O135 O 0.23309 0.53336 0.77638 0.0
O136 O 0.28411 0.52124 0.81057 0.0
O137 O 0.23039 0.47869 0.80785 0.0
O138 O 0.21811 0.55055 0.81161 0.0
C139 C 0.27492 0.55429 0.70586 0.0
C140 C 0.2078 0.50207 0.70245 0.0
C141 C 0.28593 0.4659 0.70859 0.0
C142 C 0.30002 0.51696 0.79241 0.0
C143 C 0.23449 0.46336 0.78925 0.0
C144 C 0.21937 0.55113 0.78713 0.0
O145 O 0.27957 0.53848 0.68778 0.0
O146 O 0.26439 0.54715 0.72671 0.0
O147 O 0.05601 0.50857 0.49126 0.0
Mg148 Mg 0.06344 0.46816 0.48522 0.0
O149 O 0.01269 0.51226 0.49082 0.0
Mg150 Mg 0.99733 0.47068 0.48754 0.0
O151 O 0.03191 0.45908 0.46589 0.0
O152 O 0.06885 0.45262 0.4471 0.0
O153 O 0.98383 0.42843 0.48526 0.0
O154 O 0.97873 0.4812 0.44906 0.0
Mg155 Mg 0.93248 0.46611 0.48835 0.0
O156 O 0.96145 0.48218 0.50873 0.0
O157 O 0.94104 0.42582 0.48895 0.0
O158 O 0.93573 0.48157 0.4509 0.0
O159 O 0.92135 0.48744 0.52138 0.0
C160 C 0.03782 0.45044 0.53434 0.0
C161 C 0.03515 0.52205 0.4927 0.0
C162 C 0.04404 0.4521 0.44574 0.0
C163 C 0.96329 0.4152 0.48637 0.0
C164 C 0.95672 0.48457 0.4386 0.0
C165 C 0.94549 0.49176 0.52513 0.0
O166 O 0.05766 0.44753 0.52002 0.0
O167 O 0.01659 0.46018 0.52602 0.0
O168 O 0.27303 0.31788 0.02791 0.0
Mg169 Mg 0.24196 0.32283 0.00209 0.0
O170 O 0.27765 0.27543 0.02293 0.0
Mg171 Mg 0.23981 0.25827 0.00661 0.0
O172 O 0.2175 0.29503 0.01216 0.0
O173 O 0.20444 0.33524 0.01404 0.0
O174 O 0.20313 0.24092 0.98818 0.0
O175 O 0.22936 0.24742 0.04874 0.0
Mg176 Mg 0.23766 0.19412 0.01567 0.0
O177 O 0.26148 0.221 0.00119 0.0
O178 O 0.20482 0.19814 0.99213 0.0
O179 O 0.23128 0.20486 0.05395 0.0
O180 O 0.27354 0.18044 0.00064 0.0
C181 C 0.25413 0.29103 0.95318 0.0
C182 C 0.28576 0.29699 0.03116 0.0
C183 C 0.1994 0.31135 0.01769 0.0
C184 C 0.19409 0.21864 0.98383 0.0
C185 C 0.22764 0.22743 0.06276 0.0
C186 C 0.27837 0.20385 0.99451 0.0
O187 O 0.25159 0.31303 0.96373 0.0
O188 O 0.25057 0.27008 0.96528 0.0
O189 O 0.22715 0.01403 0.19187 0.0
Mg190 Mg 0.26799 0.01485 0.18528 0.0
O191 O 0.22379 0.00874 0.23414 0.0
Mg192 Mg 0.26571 0.00928 0.24954 0.0
O193 O 0.28055 0.99257 0.21373 0.0
O194 O 0.29037 0.98113 0.175 0.0
O195 O 0.30786 0.01198 0.26327 0.0
O196 O 0.26118 0.9676 0.26526 0.0
Mg197 Mg 0.27098 0.00824 0.31475 0.0
O198 O 0.25184 0.0251 0.28584 0.0
O199 O 0.31061 0.01518 0.30559 0.0
O200 O 0.26214 0.96878 0.30787 0.0
O201 O 0.24338 0.0388 0.32412 0.0
C202 C 0.27798 0.06334 0.21539 0.0
C203 C 0.21372 0.01155 0.2121 0.0
C204 C 0.2916 0.97615 0.19895 0.0
C205 C 0.32101 0.01465 0.28356 0.0
C206 C 0.26009 0.95646 0.28695 0.0
C207 C 0.23892 0.04047 0.30012 0.0
O208 O 0.28299 0.05168 0.19453 0.0
O209 O 0.26979 0.05131 0.23495 0.0
O210 O 0.52077 0.30792 0.77317 0.0
Mg211 Mg 0.52716 0.27205 0.79111 0.0
O212 O 0.4865 0.29719 0.74979 0.0
Mg213 Mg 0.48805 0.25246 0.74309 0.0
O214 O 0.52626 0.24818 0.76153 0.0
O215 O 0.5609 0.24838 0.78517 0.0
O216 O 0.49122 0.20833 0.73385 0.0
O217 O 0.50905 0.26112 0.70617 0.0
Mg218 Mg 0.45547 0.23774 0.69023 0.0
O219 O 0.44951 0.25605 0.72409 0.0
O220 O 0.46562 0.19953 0.70089 0.0
O221 O 0.48623 0.25719 0.67074 0.0
O222 O 0.41798 0.2533 0.69649 0.0
C223 C 0.47309 0.24915 0.80529 0.0
C224 C 0.50167 0.31396 0.75908 0.0
C225 C 0.54849 0.23834 0.76657 0.0
C226 C 0.48143 0.1924 0.7181 0.0
C227 C 0.50694 0.26327 0.68213 0.0
C228 C 0.42583 0.26119 0.71837 0.0
O229 O 0.49448 0.25875 0.81238 0.0
O230 O 0.46773 0.24539 0.78179 0.0
O231 O 0.98293 0.76231 0.80949 0.0
Mg232 Mg 0.98062 0.72125 0.80427 0.0
O233 O 0.98142 0.77384 0.7687 0.0
Mg234 Mg 0.97803 0.73852 0.74267 0.0
O235 O -0.00057 0.71496 0.771 0.0
O236 O 0.01432 0.69714 0.80574 0.0
O237 O 0.97583 0.70305 0.71596 0.0
O238 O 0.01796 0.74871 0.72515 0.0
Mg239 Mg 0.97464 0.75839 0.68153 0.0
O240 O 0.95626 0.76266 0.71497 0.0
O241 O 0.97477 0.71756 0.67583 0.0
O242 O 0.01231 0.77195 0.68986 0.0
O243 O 0.94048 0.78226 0.68162 0.0
C244 C 0.92838 0.71637 0.77918 0.0
C245 C 0.98283 0.77958 0.79227 0.0
C246 C 0.01696 0.70107 0.78169 0.0
C247 C 0.97536 0.69923 0.69191 0.0
C248 C 0.02681 0.7626 0.70719 0.0
C249 C 0.9388 0.77766 0.70562 0.0
O250 O 0.94247 0.70805 0.79729 0.0
O251 O 0.9379 0.72873 0.76042 0.0
O252 O 0.71826 0.47051 0.19514 0.0
Mg253 Mg 0.75793 0.47383 0.1847 0.0
O254 O 0.71735 0.49075 0.2328 0.0
Mg255 Mg 0.75973 0.49971 0.24391 0.0
O256 O 0.77501 0.46889 0.21865 0.0
O257 O 0.78338 0.44122 0.18833 0.0
O258 O 0.8022 0.50953 0.25374 0.0
O259 O 0.75806 0.4696 0.27647 0.0
Mg260 Mg 0.76558 0.52882 0.30111 0.0
O261 O 0.74406 0.53007 0.26943 0.0
O262 O 0.80358 0.53596 0.28714 0.0
O263 O 0.75986 0.49014 0.31382 0.0
O264 O 0.73406 0.55588 0.30095 0.0
C265 C 0.76579 0.53199 0.18799 0.0
C266 C 0.70605 0.47923 0.21453 0.0
C267 C 0.78624 0.44784 0.21176 0.0
C268 C 0.8147 0.52416 0.26872 0.0
C269 C 0.75789 0.4695 0.30082 0.0
C270 C 0.72874 0.54736 0.27859 0.0
O271 O 0.76755 0.5122 0.17366 0.0
O272 O 0.76197 0.53003 0.21194 0.0
O273 O 0.69609 0.75232 0.03434 0.0
Mg274 Mg 0.68796 0.79297 0.03124 0.0
O275 O 0.73891 0.75021 0.02778 0.0
Mg276 Mg 0.75331 0.79177 0.02518 0.0
O277 O 0.71622 0.8033 0.0076 0.0
O278 O 0.67643 0.80879 0.99516 0.0
O279 O 0.76598 0.8346 0.02233 0.0
O280 O 0.76913 0.78206 0.98508 0.0
Mg281 Mg 0.81805 0.79842 0.02304 0.0
O282 O 0.79075 0.77913 0.04227 0.0
O283 O 0.80808 0.83737 0.0309 0.0
O284 O 0.81189 0.78736 0.98406 0.0
O285 O 0.8314 0.77243 0.05171 0.0
C286 C 0.71786 0.81069 0.07701 0.0
C287 C 0.71724 0.73947 0.03183 0.0
C288 C 0.70069 0.8096 0.98969 0.0
C289 C 0.78602 0.84783 0.02697 0.0
C290 C 0.7907 0.78175 0.97317 0.0
C291 C 0.80754 0.76707 0.05588 0.0
O292 O 0.69669 0.8137 0.06498 0.0
O293 O 0.73808 0.80108 0.06622 0.0
O294 O 0.47055 0.05928 0.44364 0.0
Mg295 Mg 0.45814 0.04296 0.47893 0.0
O296 O 0.50673 0.03551 0.44147 0.0
Mg297 Mg 0.51996 0.02185 0.48107 0.0
O298 O 0.48936 0.04435 0.50134 0.0
O299 O 0.45356 0.06324 0.5141 0.0
O300 O 0.5338 0.00783 0.52047 0.0
O301 O 0.54457 0.05829 0.48313 0.0
Mg302 Mg 0.58346 0.00884 0.4813 0.0
O303 O 0.55174 0.00023 0.46049 0.0
O304 O 0.5748 0.99408 0.51821 0.0
O305 O 0.58666 0.04983 0.47924 0.0
O306 O 0.58992 0.985 0.44908 0.0
C307 C 0.4686 0.98323 0.47867 0.0
C308 C 0.48999 0.0505 0.43127 0.0
C309 C 0.47719 0.05675 0.51891 0.0
C310 C 0.55374 0.99728 0.53056 0.0
C311 C 0.56784 0.06583 0.48149 0.0
C312 C 0.56542 0.9866 0.44483 0.0
O313 O 0.45255 0.0022 0.47847 0.0
O314 O 0.49313 0.98633 0.47907 0.0
O315 O 0.50337 0.52529 0.03446 0.0
Mg316 Mg 0.50658 0.54006 0.99689 0.0
O317 O 0.5308 0.49169 0.03049 0.0
Mg318 Mg 0.53786 0.48265 0.98739 0.0
O319 O 0.50508 0.50784 0.97583 0.0
O320 O 0.47734 0.53903 0.96832 0.0
O321 O 0.54376 0.47395 0.94484 0.0
O322 O 0.51207 0.44738 0.99119 0.0
Mg323 Mg 0.5733 0.42736 0.9744 0.0
O324 O 0.57074 0.45807 0.99717 0.0
O325 O 0.57439 0.44422 0.93688 0.0
O326 O 0.53581 0.41163 0.98317 0.0
O327 O 0.6009 0.42989 0.00556 0.0
C328 C 0.56532 0.5411 0.98511 0.0
C329 C 0.51654 0.5068 0.04401 0.0
C330 C 0.48678 0.51686 0.96197 0.0
C331 C 0.558 0.46114 0.92931 0.0
C332 C 0.51451 0.42285 0.98952 0.0
C333 C 0.58822 0.45025 0.01241 0.0
O334 O 0.54453 0.55429 0.98845 0.0
O335 O 0.56546 0.51656 0.98468 0.0
C336 C 0.04236 0.06726 0.08831 0.0
C337 C 0.02836 0.0477 0.07651 0.0
C338 C 0.04422 0.06838 0.11474 0.0
C339 C 0.04972 0.06364 0.1721 0.0
H340 H 0.97971 0.07751 0.19555 0.0
C341 C 0.98453 0.13159 0.24538 0.0
C342 C -0.00118 0.15386 0.24095 0.0
C343 C 0.99308 0.1078 0.2356 0.0
C344 C -0.00053 0.07299 0.19004 0.0
H345 H 0.00672 0.01297 0.08291 0.0
H346 H 0.0087 0.01584 0.12961 0.0
H347 H 0.98679 0.05321 0.15673 0.0
H348 H 0.03324 0.1686 0.22317 0.0
H349 H 0.04839 0.12779 0.20667 0.0
H350 H 0.06241 0.08466 0.20469 0.0
C351 C 0.0186 0.02997 0.11823 0.0
C352 C 0.00349 0.05899 0.1676 0.0
C353 C 0.01731 0.02846 0.09161 0.0
C354 C 0.02265 0.15162 0.22828 0.0
C355 C 0.03114 0.12799 0.21843 0.0
C356 C 0.04573 0.07732 0.19479 0.0
C357 C 0.03164 0.0503 0.13001 0.0
C358 C 0.02852 0.0558 0.15753 0.0
C359 C 0.01575 0.10603 0.22065 0.0
C360 C 0.02047 0.08387 0.20299 0.0
H361 H 0.05152 0.08203 0.0771 0.0
H362 H 0.05414 0.08443 0.12326 0.0
H363 H 0.06926 0.06103 0.16489 0.0
H364 H 0.96584 0.13294 0.25472 0.0
H365 H 0.98091 0.09125 0.23808 0.0
C366 C 0.81874 0.1895 0.47167 0.0
C367 C 0.81111 0.20795 0.48989 0.0
C368 C 0.83909 0.19426 0.45494 0.0
C369 C 0.87868 0.24689 0.42846 0.0
H370 H 0.92231 0.18947 0.40643 0.0
C371 C 0.95047 0.22192 0.34006 0.0
C372 C 0.96835 0.24192 0.34143 0.0
C373 C 0.93319 0.21779 0.36006 0.0
C374 C 0.91025 0.20565 0.41245 0.0
H375 H 0.81858 0.24608 0.50442 0.0
H376 H 0.85491 0.25403 0.47613 0.0
H377 H 0.88887 0.18262 0.43837 0.0
H378 H 0.98211 0.2733 0.36482 0.0
H379 H 0.95144 0.2663 0.39958 0.0
H380 H 0.90065 0.26991 0.4027 0.0
C381 C 0.84483 0.23604 0.47435 0.0
C382 C 0.89096 0.20175 0.43061 0.0
C383 C 0.82411 0.23141 0.49079 0.0
C384 C 0.96868 0.25761 0.36328 0.0
C385 C 0.95107 0.25375 0.38309 0.0
C386 C 0.89829 0.25085 0.41058 0.0
C387 C 0.85264 0.21746 0.45623 0.0
C388 C 0.87453 0.22219 0.43845 0.0
C389 C 0.93315 0.23385 0.3816 0.0
C390 C 0.91389 0.23015 0.40208 0.0
H391 H 0.8089 0.17132 0.47021 0.0
H392 H 0.84398 0.17976 0.4408 0.0
H393 H 0.86628 0.26304 0.43377 0.0
H394 H 0.94973 0.20954 0.32348 0.0
H395 H 0.91939 0.20243 0.35841 0.0
C396 C 0.73265 0.09749 0.76995 0.0
C397 C 0.75479 0.08336 0.77697 0.0
C398 C 0.73483 0.12285 0.76156 0.0
C399 C 0.74293 0.17388 0.73664 0.0
H400 H 0.80513 0.17224 0.69515 0.0
C401 C 0.78411 0.21889 0.63624 0.0
C402 C 0.76651 0.20708 0.61979 0.0
C403 C 0.7837 0.21343 0.66237 0.0
C404 C 0.78794 0.17348 0.70698 0.0
H405 H 0.79568 0.08547 0.78495 0.0
H406 H 0.79922 0.13047 0.77271 0.0
H407 H 0.80277 0.14524 0.7324 0.0
H408 H 0.73371 0.18177 0.61772 0.0
H409 H 0.73252 0.17288 0.66327 0.0
H410 H 0.72729 0.20002 0.70884 0.0
C411 C 0.78039 0.12173 0.77193 0.0
C412 C 0.7865 0.15801 0.72861 0.0
C413 C 0.77834 0.09607 0.77948 0.0
C414 C 0.7477 0.19086 0.62997 0.0
C415 C 0.74681 0.18604 0.65603 0.0
C416 C 0.74418 0.18886 0.71459 0.0
C417 C 0.75921 0.13465 0.76057 0.0
C418 C 0.76341 0.15684 0.74299 0.0
C419 C 0.76505 0.19687 0.67239 0.0
C420 C 0.76627 0.1878 0.699 0.0
H421 H 0.71434 0.08798 0.76765 0.0
H422 H 0.71786 0.13185 0.7532 0.0
H423 H 0.72517 0.17435 0.74762 0.0
H424 H 0.79873 0.23154 0.62878 0.0
H425 H 0.79813 0.22173 0.67466 0.0
C426 C 0.96108 0.02397 0.95561 0.0
C427 C 0.96076 0.04944 0.96443 0.0
C428 C 0.93875 0.01298 0.94592 0.0
C429 C 0.86751 0.02166 0.94332 0.0
H430 H 0.87443 0.98389 0.87983 0.0
C431 C 0.77832 0.98759 0.88787 0.0
C432 C 0.77898 0.99261 0.86157 0.0
C433 C 0.80069 0.98959 0.90254 0.0
C434 C 0.87217 0.99438 0.89757 0.0
H435 H 0.93673 0.0836 0.97002 0.0
H436 H 0.8977 0.06467 0.95268 0.0
H437 H 0.91303 0.99757 0.90207 0.0
H438 H 0.80383 0.00303 0.82998 0.0
H439 H 0.84253 0.00717 0.85557 0.0
H440 H 0.82663 0.01971 0.93807 0.0
C441 C 0.91517 0.05291 0.95372 0.0
C442 C 0.8943 0.00196 0.91048 0.0
C443 C 0.93759 0.06387 0.96335 0.0
C444 C 0.8026 -0.00092 0.85018 0.0
C445 C 0.82489 0.00121 0.86484 0.0
C446 C 0.84536 0.01418 0.93033 0.0
C447 C 0.91555 0.02736 0.94483 0.0
C448 C 0.89219 0.01636 0.93308 0.0
C449 C 0.82415 0.99673 0.89122 0.0
C450 C 0.84746 0.00116 0.9069 0.0
H451 H 0.97858 0.0125 0.95605 0.0
H452 H 0.93965 0.99319 0.93942 0.0
H453 H 0.86532 0.03222 0.96102 0.0
H454 H 0.76049 0.98228 0.89721 0.0
H455 H 0.79958 0.98569 0.92275 0.0
C456 C 0.06318 0.95782 0.07189 0.0
C457 C 0.06281 0.97224 0.04936 0.0
C458 C 0.07185 0.96867 0.09455 0.0
C459 C 0.11266 0.0212 0.11805 0.0
H460 H 0.08998 0.99474 0.18326 0.0
C461 C 0.17051 0.99226 0.20736 0.0
C462 C 0.18567 0.01422 0.20935 0.0
C463 C 0.14649 0.99381 0.19521 0.0
C464 C 0.09617 0.00265 0.16523 0.0
H465 H 0.07217 0.00883 0.03248 0.0
H466 H 0.08652 0.02825 0.07214 0.0
H467 H 0.0652 0.98533 0.14487 0.0
H468 H 0.18702 0.05531 0.20322 0.0
H469 H 0.14497 0.05812 0.18224 0.0
H470 H 0.14378 0.03811 0.13818 0.0
C471 C 0.08025 0.0085 0.07247 0.0
C472 C 0.08224 0.99702 0.14318 0.0
C473 C 0.07181 0.9975 0.04974 0.0
C474 C 0.17543 0.03818 0.2019 0.0
C475 C 0.15146 0.03977 0.18988 0.0
C476 C 0.12618 0.02725 0.14007 0.0
C477 C 0.08031 0.99425 0.09524 0.0
C478 C 0.0912 0.00502 0.11913 0.0
C479 C 0.13768 0.01731 0.18481 0.0
C480 C 0.11885 0.01699 0.16367 0.0
H481 H 0.05646 0.9382 0.07211 0.0
H482 H 0.07239 0.9567 0.11138 0.0
H483 H 0.12038 0.02765 0.10004 0.0
H484 H 0.17832 0.97358 0.21273 0.0
H485 H 0.13635 0.97616 0.19143 0.0
C486 C 0.04303 0.44883 0.39822 0.0
C487 C 0.03052 0.44598 0.42177 0.0
C488 C 0.03012 0.44341 0.37553 0.0
C489 C 0.97669 0.40382 0.35244 0.0
H490 H 0.99757 0.43265 0.28773 0.0
C491 C 0.96742 0.34061 0.26911 0.0
C492 C 0.99299 0.33518 0.26161 0.0
C493 C 0.96114 0.36424 0.28062 0.0
C494 C 0.99112 0.42467 0.30564 0.0
H495 H 0.99489 0.43488 0.43992 0.0
H496 H 0.97194 0.42645 0.40067 0.0
H497 H 0.00839 0.45481 0.32728 0.0
H498 H 0.03039 0.35193 0.25457 0.0
H499 H 0.01959 0.39293 0.27419 0.0
H500 H 0.96061 0.37312 0.33126 0.0
C501 C 0.99182 0.43257 0.39953 0.0
C502 C 0.99757 0.43719 0.32833 0.0
C503 C 0.00488 0.43768 0.42214 0.0
C504 C 0.01063 0.35542 0.26083 0.0
C505 C 0.00435 0.37908 0.27206 0.0
C506 C 0.97005 0.3915 0.32987 0.0
C507 C 0.00435 0.43502 0.37588 0.0
C508 C 0.99185 0.426 0.35202 0.0
C509 C 0.98034 0.38272 0.28434 0.0
C510 C 0.97865 0.40085 0.30627 0.0
H511 H 0.06286 0.45519 0.39732 0.0
H512 H 0.04071 0.44495 0.35781 0.0
H513 H 0.97188 0.39446 0.37018 0.0
H514 H 0.9533 0.32559 0.26923 0.0
H515 H 0.94228 0.3668 0.28936 0.0
C516 C 0.71309 0.32564 0.59074 0.0
C517 C 0.73051 0.30485 0.58735 0.0
C518 C 0.68746 0.32129 0.59786 0.0
C519 C 0.63096 0.30367 0.59965 0.0
H520 H 0.6213 0.25926 0.65801 0.0
C521 C 0.53173 0.26899 0.64121 0.0
C522 C 0.52982 0.27188 0.66779 0.0
C523 C 0.55506 0.2741 0.62868 0.0
C524 C 0.62373 0.27162 0.64162 0.0
H525 H 0.73495 0.26349 0.58925 0.0
H526 H 0.69053 0.25581 0.60208 0.0
H527 H 0.66469 0.26556 0.64123 0.0
H528 H 0.55024 0.28416 0.70173 0.0
H529 H 0.59053 0.29276 0.67994 0.0
H530 H 0.58975 0.30989 0.60049 0.0
C531 C 0.69653 0.27541 0.59891 0.0
C532 C 0.6485 0.2751 0.63194 0.0
C533 C 0.72197 0.27977 0.59153 0.0
C534 C 0.55111 0.28131 0.6813 0.0
C535 C 0.57425 0.28622 0.66888 0.0
C536 C 0.60601 0.29995 0.60923 0.0
C537 C 0.67901 0.29611 0.60208 0.0
C538 C 0.65241 0.29144 0.61112 0.0
C539 C 0.57667 0.28198 0.64263 0.0
C540 C 0.60234 0.28429 0.63061 0.0
H541 H 0.71916 0.34521 0.58753 0.0
H542 H 0.6744 0.33761 0.60054 0.0
H543 H 0.63352 0.31617 0.5834 0.0
H544 H 0.51564 0.26182 0.6303 0.0
H545 H 0.55658 0.27077 0.60836 0.0
C546 C 0.73866 0.90015 0.7945 0.0
C547 C 0.71334 0.90948 0.79883 0.0
C548 C 0.74604 0.87567 0.80306 0.0
C549 C 0.75233 0.8524 0.85522 0.0
H550 H 0.71087 0.7926 0.86851 0.0
C551 C 0.73514 0.82035 0.95796 0.0
C552 C 0.70961 0.81339 0.96329 0.0
C553 C 0.74391 0.82176 0.93279 0.0
C554 C 0.72269 0.80925 0.86514 0.0
H555 H 0.67469 0.89897 0.8102 0.0
H556 H 0.68721 0.85617 0.82447 0.0
H557 H 0.71104 0.81149 0.82604 0.0
H558 H 0.6729 0.80331 0.94655 0.0
H559 H 0.68734 0.80761 0.90295 0.0
H560 H 0.76132 0.85266 0.89465 0.0
C561 C 0.70166 0.8677 0.81511 0.0
C562 C 0.72314 0.81971 0.84065 0.0
C563 C 0.69444 0.89234 0.80708 0.0
C564 C 0.69276 0.80863 0.94304 0.0
C565 C 0.70131 0.81051 0.91793 0.0
C566 C 0.75136 0.84239 0.87979 0.0
C567 C 0.72795 0.86023 0.81556 0.0
C568 C 0.73648 0.8425 0.83599 0.0
C569 C 0.72707 0.81698 0.91235 0.0
C570 C 0.73492 0.8219 0.88547 0.0
H571 H 0.75351 0.91292 0.7879 0.0
H572 H 0.76637 0.87023 0.8029 0.0
H573 H 0.76284 0.87001 0.85228 0.0
H574 H 0.74827 0.8249 0.97324 0.0
H575 H 0.76384 0.82686 0.92944 0.0
C576 C 0.15533 0.32251 0.03409 0.0
C577 C 0.17452 0.3037 0.02899 0.0
C578 C 0.13308 0.31625 0.04761 0.0
C579 C 0.09465 0.26219 0.07284 0.0
H580 H 0.07845 0.31117 0.12668 0.0
C581 C 0.01116 0.24826 0.14552 0.0
C582 C 0.01755 0.25323 0.17106 0.0
C583 C 0.02808 0.25494 0.12587 0.0
C584 C 0.08274 0.29729 0.11176 0.0
H585 H 0.18451 0.26321 0.03238 0.0
H586 H 0.14601 0.25235 0.05677 0.0
H587 H 0.1117 0.32104 0.09563 0.0
H588 H 0.04671 0.26922 0.1959 0.0
H589 H 0.07607 0.28067 0.16178 0.0
H590 H 0.06625 0.23801 0.08983 0.0
C591 C 0.14806 0.27192 0.05013 0.0
C592 C 0.10158 0.30307 0.09374 0.0
C593 C 0.17028 0.27817 0.03637 0.0
C594 C 0.04108 0.26519 0.17647 0.0
C595 C 0.05789 0.2719 0.15689 0.0
C596 C 0.07572 0.25639 0.09094 0.0
C597 C 0.12959 0.29109 0.05653 0.0
C598 C 0.10801 0.28548 0.07425 0.0
C599 C 0.05161 0.26683 0.13139 0.0
C600 C 0.06992 0.27372 0.11083 0.0
H601 H 0.15782 0.3423 0.0283 0.0
H602 H 0.11892 0.33133 0.0517 0.0
H603 H 0.09902 0.24835 0.05792 0.0
H604 H 0.9932 0.23904 0.14069 0.0
H605 H 0.02267 0.25097 0.10637 0.0
C606 C 0.76469 0.42154 0.30344 0.0
C607 C 0.75621 0.44483 0.31465 0.0
C608 C 0.76588 0.3989 0.31786 0.0
C609 C 0.78637 0.3651 0.36261 0.0
H610 H 0.73104 0.34605 0.40858 0.0
C611 C 0.80133 0.3276 0.46382 0.0
C612 C 0.78528 0.3083 0.47333 0.0
C613 C 0.7979 0.33704 0.4392 0.0
C614 C 0.74654 0.3507 0.39554 0.0
H615 H 0.74063 0.46228 0.34912 0.0
H616 H 0.74199 0.42279 0.3739 0.0
H617 H 0.72228 0.37664 0.37427 0.0
H618 H 0.7538 0.28292 0.46413 0.0
H619 H 0.74728 0.30011 0.42112 0.0
H620 H 0.81107 0.34062 0.38509 0.0
C621 C 0.74808 0.42206 0.35415 0.0
C622 C 0.74154 0.36828 0.37601 0.0
C623 C 0.74749 0.44472 0.34 0.0
C624 C 0.76646 0.2978 0.45728 0.0
C625 C 0.76269 0.30763 0.43274 0.0
C626 C 0.79147 0.34781 0.38242 0.0
C627 C 0.75782 0.39908 0.34343 0.0
C628 C 0.76161 0.37632 0.35997 0.0
C629 C 0.77808 0.32769 0.42367 0.0
C630 C 0.77178 0.34116 0.39959 0.0
H631 H 0.7713 0.42101 0.28388 0.0
H632 H 0.77342 0.38139 0.3092 0.0
H633 H 0.8022 0.37108 0.35055 0.0
H634 H 0.81611 0.33594 0.47567 0.0
H635 H 0.80986 0.3527 0.43283 0.0
C636 C 0.53589 0.0035 0.57458 0.0
C637 C 0.55349 0.99107 0.55795 0.0
C638 C 0.53994 0.00279 0.60088 0.0
C639 C 0.57634 0.01861 0.64418 0.0
H640 H 0.60475 0.96044 0.68155 0.0
C641 C 0.67386 0.01771 0.69319 0.0
C642 C 0.67694 0.00546 0.71679 0.0
C643 C 0.64995 0.01772 0.68096 0.0
C644 C 0.59636 0.97691 0.67179 0.0
H645 H 0.58665 0.965 0.55581 0.0
H646 H 0.59317 0.96302 0.60149 0.0
H647 H 0.57472 0.95309 0.6466 0.0
H648 H 0.65711 0.98442 0.74653 0.0
H649 H 0.61557 0.98367 0.72452 0.0
H650 H 0.60003 0.04223 0.66771 0.0
C651 C 0.57666 0.97388 0.59434 0.0
C652 C 0.57919 0.97268 0.65184 0.0
C653 C 0.57309 0.9752 0.56813 0.0
C654 C 0.65543 0.99382 0.72822 0.0
C655 C 0.63162 0.99348 0.71577 0.0
C656 C 0.5938 0.02281 0.66389 0.0
C657 C 0.56101 0.98875 0.61083 0.0
C658 C 0.5703 0.99338 0.63694 0.0
C659 C 0.62877 0.00523 0.69193 0.0
C660 C 0.60503 0.00185 0.67685 0.0
H661 H 0.52014 0.01524 0.56726 0.0
H662 H 0.52757 0.01432 0.61328 0.0
H663 H 0.5698 0.03491 0.63292 0.0
H664 H 0.68995 0.02711 0.68407 0.0
H665 H 0.64831 0.02658 0.66237 0.0
C666 C 0.04561 0.95613 0.9008 0.0
C667 C 0.0278 0.97193 0.91398 0.0
C668 C 0.03915 0.94558 0.8773 0.0
C669 C 0.98044 0.92041 0.85239 0.0
H670 H 0.02758 0.89061 0.80239 0.0
C671 C 0.98944 0.82603 0.78143 0.0
C672 C 0.98411 0.80702 0.79968 0.0
C673 C 0.99131 0.85187 0.78861 0.0
C674 C 0.01394 0.89906 0.81584 0.0
H675 H 0.99073 0.99186 0.91168 0.0
H676 H 0.97926 0.97323 0.87051 0.0
H677 H 0.03896 0.93038 0.82428 0.0
H678 H 0.9757 0.80041 0.83959 0.0
H679 H 0.97883 0.84538 0.85204 0.0
H680 H 0.95618 0.88829 0.8451 0.0
C681 C -0.00183 0.96889 0.87839 0.0
C682 C 0.02048 0.92178 0.82841 0.0
C683 C 0.00481 0.97972 0.90186 0.0
C684 C 0.98 0.81451 0.82509 0.0
C685 C 0.98152 0.84032 0.83218 0.0
C686 C 0.97399 0.89768 0.83993 0.0
C687 C 0.01458 0.9504 0.86674 0.0
C688 C 0.00441 0.93195 0.84777 0.0
C689 C 0.98742 0.85923 0.81408 0.0
C690 C 0.99127 0.88613 0.82249 0.0
H691 H 0.06352 0.94997 0.90976 0.0
H692 H 0.05228 0.93143 0.86895 0.0
H693 H 0.96765 0.92755 0.86728 0.0
H694 H 0.99263 0.82091 0.76165 0.0
H695 H 0.99588 0.86607 0.77431 0.0
C696 C 0.09134 0.05046 0.93427 0.0
C697 C 0.0947 0.05048 0.96079 0.0
C698 C 0.10703 0.06558 0.91887 0.0
C699 C 0.16013 0.1123 0.91876 0.0
H700 H 0.105 0.16355 0.91235 0.0
C701 C 0.15138 0.2037 0.9704 0.0
C702 C 0.17477 0.21517 0.96395 0.0
C703 C 0.13923 0.1877 0.95293 0.0
C704 C 0.12067 0.14944 0.91292 0.0
H705 H 0.11915 0.06258 0.99166 0.0
H706 H 0.14742 0.08791 0.96477 0.0
H707 H 0.09467 0.118 0.91232 0.0
H708 H 0.20216 0.22199 0.93357 0.0
H709 H 0.18153 0.19308 0.90336 0.0
H710 H 0.18582 0.14388 0.92184 0.0
C711 C 0.1326 0.07661 0.95574 0.0
C712 C 0.11483 0.12332 0.91287 0.0
C713 C 0.11651 0.06201 0.97121 0.0
C714 C 0.18387 0.21353 0.93876 0.0
C715 C 0.17218 0.1969 0.9215 0.0
C716 C 0.16604 0.13841 0.91819 0.0
C717 C 0.1265 0.08035 0.9299 0.0
C718 C 0.13427 0.10472 0.91792 0.0
C719 C 0.1509 0.18244 0.92919 0.0
C720 C 0.14609 0.15717 0.91739 0.0
H721 H 0.07435 0.04191 0.92595 0.0
H722 H 0.10196 0.06818 0.89904 0.0
H723 H 0.17539 0.09833 0.92271 0.0
H724 H 0.14431 0.20444 0.98984 0.0
H725 H 0.12291 0.17664 0.9594 0.0
C726 C 0.68139 0.55273 0.28063 0.0
C727 C 0.7042 0.55452 0.26639 0.0
C728 C 0.65809 0.5621 0.27094 0.0
C729 C 0.63477 0.61501 0.23469 0.0
H730 H 0.56891 0.58497 0.25218 0.0
C731 C 0.54293 0.67716 0.2547 0.0
C732 C 0.53405 0.67259 0.27957 0.0
C733 C 0.56022 0.65987 0.24279 0.0
C734 C 0.58707 0.59354 0.24673 0.0
H735 H 0.72082 0.56641 0.23052 0.0
H736 H 0.67974 0.58425 0.21377 0.0
H737 H 0.60744 0.55734 0.24801 0.0
H738 H 0.53531 0.64559 0.31098 0.0
H739 H 0.5651 0.61546 0.29028 0.0
H740 H 0.61478 0.65146 0.23541 0.0
C741 C 0.67993 0.57502 0.23224 0.0
C742 C 0.60906 0.57774 0.24427 0.0
C743 C 0.70331 0.56489 0.24176 0.0
C744 C 0.54194 0.64985 0.29189 0.0
C745 C 0.55878 0.63241 0.2799 0.0
C746 C 0.61271 0.63083 0.23707 0.0
C747 C 0.65719 0.57404 0.24699 0.0
C748 C 0.63339 0.58857 0.23994 0.0
C749 C 0.56842 0.6374 0.2554 0.0
C750 C 0.58906 0.62038 0.24475 0.0
H751 H 0.68173 0.54469 0.29965 0.0
H752 H 0.64104 0.56146 0.28297 0.0
H753 H 0.65328 0.62388 0.23139 0.0
H754 H 0.53683 0.69416 0.24453 0.0
H755 H 0.56736 0.66417 0.22389 0.0
C756 C 0.32258 0.80604 0.47676 0.0
C757 C 0.30307 0.82055 0.48923 0.0
C758 C 0.34813 0.81477 0.47626 0.0
C759 C 0.39243 0.85717 0.51006 0.0
H760 H 0.41803 0.87977 0.44448 0.0
C761 C 0.43461 0.9541 0.49412 0.0
C762 C 0.45789 0.95716 0.48073 0.0
C763 C 0.42348 0.93005 0.49612 0.0
C764 C 0.4117 0.87286 0.46288 0.0
H765 H 0.29506 0.85485 0.51169 0.0
H766 H 0.33937 0.8696 0.51135 0.0
H767 H 0.38271 0.84891 0.44643 0.0
H768 H 0.48797 0.9373 0.4591 0.0
H769 H 0.46755 0.89483 0.46167 0.0
H770 H 0.41969 0.88279 0.52653 0.0
C771 C 0.33505 0.85168 0.5018 0.0
C772 C 0.39151 0.85525 0.464 0.0
C773 C 0.30963 0.84336 0.50179 0.0
C774 C 0.47001 0.93546 0.46951 0.0
C775 C 0.4584 0.91126 0.47098 0.0
C776 C 0.41251 0.87468 0.50895 0.0
C777 C 0.35451 0.83765 0.48889 0.0
C778 C 0.38073 0.84853 0.4876 0.0
C779 C 0.43507 0.90845 0.48443 0.0
C780 C 0.42122 0.88383 0.48536 0.0
H781 H 0.31794 0.78841 0.46686 0.0
H782 H 0.36283 0.80378 0.46602 0.0
H783 H 0.38456 0.85207 0.52848 0.0
H784 H 0.42493 0.97039 0.50318 0.0
H785 H 0.4053 0.92846 0.50629 0.0
C786 C 0.04021 0.68285 0.7434 0.0
C787 C 0.04069 0.69259 0.76836 0.0
C788 C 0.06288 0.67251 0.73233 0.0
C789 C 0.13423 0.66904 0.74018 0.0
H790 H 0.12781 0.59569 0.72894 0.0
C791 C 0.19883 0.59463 0.78527 0.0
C792 C 0.20585 0.57167 0.77274 0.0
C793 C 0.18353 0.61315 0.77312 0.0
C794 C 0.13005 0.61626 0.73115 0.0
H795 H 0.06507 0.70087 0.80068 0.0
H796 H 0.10442 0.68361 0.78137 0.0
H797 H 0.08929 0.62348 0.72779 0.0
H798 H 0.2037 0.55083 0.73714 0.0
H799 H 0.17568 0.58284 0.71611 0.0
H800 H 0.17461 0.66143 0.74602 0.0
C801 C 0.0868 0.68367 0.77027 0.0
C802 C 0.10797 0.6322 0.73046 0.0
C803 C 0.06421 0.69327 0.78148 0.0
C804 C 0.19836 0.56819 0.7473 0.0
C805 C 0.18243 0.58653 0.73525 0.0
C806 C 0.15625 0.65313 0.74095 0.0
C807 C 0.08634 0.67265 0.74583 0.0
C808 C 0.10968 0.6584 0.73675 0.0
C809 C 0.17451 0.60898 0.74828 0.0
C810 C 0.15404 0.62638 0.73815 0.0
H811 H 0.02221 0.68217 0.73296 0.0
H812 H 0.062 0.66396 0.71353 0.0
H813 H 0.13609 0.68928 0.74467 0.0
H814 H 0.20455 0.59802 0.8048 0.0
H815 H 0.17746 0.63009 0.7838 0.0
C816 C 0.88322 0.27655 0.57203 0.0
C817 C 0.86429 0.26178 0.56015 0.0
C818 C 0.90874 0.2754 0.56344 0.0
C819 C 0.93382 0.27009 0.49987 0.0
H820 H 0.985 0.31125 0.53391 0.0
C821 C 0.94335 0.3726 0.47911 0.0
C822 C 0.96522 0.38682 0.4854 0.0
C823 C 0.94375 0.34592 0.48131 0.0
C824 C 0.97161 0.29925 0.52369 0.0
H825 H 0.8582 0.23028 0.53378 0.0
H826 H 0.90273 0.22853 0.51844 0.0
H827 H 0.96362 0.27735 0.5571 0.0
H828 H 0.00544 0.38414 0.49689 0.0
H829 H 0.00596 0.33719 0.50136 0.0
H830 H 0.94084 0.29293 0.46687 0.0
C831 C 0.89779 0.24157 0.53389 0.0
C832 C 0.95912 0.27987 0.53713 0.0
C833 C 0.8722 0.24263 0.54267 0.0
C834 C 0.98818 0.37364 0.49216 0.0
C835 C 0.98851 0.34679 0.49467 0.0
C836 C 0.94668 0.28907 0.4863 0.0
C837 C 0.91578 0.25957 0.54262 0.0
C838 C 0.93789 0.26739 0.52625 0.0
C839 C 0.966 0.33272 0.49007 0.0
C840 C 0.96344 0.30576 0.49899 0.0
H841 H 0.87788 0.29098 0.58612 0.0
H842 H 0.9219 0.28941 0.57105 0.0
H843 H 0.91816 0.2604 0.49041 0.0
H844 H 0.92549 0.38216 0.47345 0.0
H845 H 0.92587 0.33592 0.47795 0.0
C846 C 0.3122 0.94987 0.23376 0.0
C847 C 0.30395 0.9522 0.20839 0.0
C848 C 0.32479 0.92736 0.24207 0.0
C849 C 0.33648 0.85909 0.22513 0.0
H850 H 0.40596 0.86854 0.25073 0.0
C851 C 0.42117 0.7967 0.19485 0.0
C852 C 0.44044 0.78906 0.21212 0.0
C853 C 0.40085 0.81281 0.20257 0.0
C854 C 0.38636 0.86545 0.24433 0.0
H855 H 0.30166 0.93257 0.17204 0.0
H856 H 0.32344 0.89342 0.18643 0.0
H857 H 0.3756 0.90516 0.24943 0.0
H858 H 0.45333 0.79184 0.2512 0.0
H859 H 0.4179 0.82113 0.26465 0.0
H860 H 0.34775 0.81984 0.21841 0.0
C861 C 0.32011 0.90886 0.20001 0.0
C862 C 0.369 0.8864 0.24354 0.0
C863 C 0.30789 0.9314 0.19168 0.0
C864 C 0.43874 0.7975 0.23752 0.0
C865 C 0.41853 0.8142 0.24519 0.0
C866 C 0.35377 0.83821 0.22594 0.0
C867 C 0.32895 0.90668 0.22519 0.0
C868 C 0.34441 0.88366 0.23263 0.0
C869 C 0.39945 0.82201 0.22769 0.0
C870 C 0.3793 0.84154 0.23422 0.0
H871 H 0.30954 0.96561 0.24701 0.0
H872 H 0.33149 0.92619 0.26156 0.0
H873 H 0.31745 0.85638 0.21707 0.0
H874 H 0.42184 0.79035 0.1752 0.0
H875 H 0.3867 0.81886 0.18854 0.0
C876 C 0.30192 0.44677 0.74966 0.0
C877 C 0.29557 0.44396 0.72382 0.0
C878 C 0.31265 0.42606 0.76327 0.0
C879 C 0.31815 0.35684 0.76642 0.0
H880 H 0.39286 0.36126 0.76854 0.0
C881 C 0.3821 0.27873 0.72871 0.0
C882 C 0.40837 0.27648 0.73506 0.0
C883 C 0.36602 0.29639 0.74124 0.0
C884 C 0.37201 0.35965 0.76918 0.0
H885 H 0.29383 0.41697 0.69237 0.0
H886 H 0.31162 0.38069 0.7163 0.0
H887 H 0.36657 0.40039 0.76489 0.0
H888 H 0.43778 0.2889 0.76143 0.0
H889 H 0.40962 0.32033 0.78331 0.0
H890 H 0.32341 0.3161 0.76943 0.0
C891 C 0.30875 0.399 0.7259 0.0
C892 C 0.35697 0.38215 0.767 0.0
C893 C 0.29882 0.4198 0.71218 0.0
C894 C 0.41773 0.29064 0.75579 0.0
C895 C 0.40158 0.30858 0.76834 0.0
C896 C 0.33309 0.33441 0.76926 0.0
C897 C 0.31617 0.40207 0.75137 0.0
C898 C 0.33013 0.38066 0.76383 0.0
C899 C 0.37577 0.31236 0.76049 0.0
C900 C 0.36028 0.33542 0.76844 0.0
H901 H 0.29918 0.46504 0.75913 0.0
H902 H 0.31842 0.4288 0.78288 0.0
H903 H 0.29744 0.35531 0.76394 0.0
H904 H 0.37416 0.26778 0.71309 0.0
H905 H 0.34643 0.29882 0.73432 0.0
C906 C 0.1914 0.77433 0.55965 0.0
C907 C 0.19037 0.80065 0.55365 0.0
C908 C 0.18283 0.76576 0.58345 0.0
C909 C 0.16307 0.78985 0.64811 0.0
H910 H 0.11509 0.73349 0.64564 0.0
C911 C 0.07127 0.74342 0.70587 0.0
C912 C 0.0549 0.76519 0.70404 0.0
C913 C 0.09637 0.74398 0.69587 0.0
C914 C 0.129 0.74878 0.64695 0.0
H915 H 0.18002 0.83865 0.56801 0.0
H916 H 0.16473 0.82386 0.60887 0.0
H917 H 0.14345 0.74105 0.60954 0.0
H918 H 0.05244 0.80525 0.69306 0.0
H919 H 0.09648 0.8066 0.67646 0.0
H920 H 0.1465 0.79903 0.68456 0.0
C921 C 0.17263 0.80973 0.59566 0.0
C922 C 0.14528 0.75316 0.62621 0.0
C923 C 0.18105 0.81822 0.57199 0.0
C924 C 0.06477 0.78825 0.69464 0.0
C925 C 0.08999 0.78901 0.68528 0.0
C926 C 0.14648 0.7857 0.66867 0.0
C927 C 0.17326 0.78339 0.60172 0.0
C928 C 0.16145 0.77464 0.62598 0.0
C929 C 0.10553 0.76656 0.68459 0.0
C930 C 0.12842 0.76591 0.66767 0.0
H931 H 0.19834 0.76034 0.54588 0.0
H932 H 0.18342 0.74534 0.58743 0.0
H933 H 0.17591 0.80607 0.64888 0.0
H934 H 0.06394 0.72538 0.71288 0.0
H935 H 0.108 0.72642 0.69547 0.0
C936 C 0.24147 0.915 0.271 0.0
C937 C 0.25694 0.92833 0.28839 0.0
C938 C 0.23578 0.88902 0.27516 0.0
C939 C 0.25297 0.83268 0.31647 0.0
H940 H 0.17882 0.82687 0.32476 0.0
C941 C 0.18755 0.81186 0.40307 0.0
C942 C 0.20241 0.79226 0.41457 0.0
C943 C 0.18978 0.81658 0.37707 0.0
C944 C 0.19958 0.82783 0.32222 0.0
H945 H 0.28054 0.92454 0.32221 0.0
H946 H 0.27094 0.87973 0.32936 0.0
H947 H 0.19596 0.85983 0.29688 0.0
H948 H 0.22745 0.75924 0.40708 0.0
H949 H 0.23211 0.76793 0.36157 0.0
H950 H 0.25677 0.80278 0.34401 0.0
C951 C 0.263 0.88898 0.31259 0.0
C952 C 0.20943 0.84661 0.306 0.0
C953 C 0.26825 0.91484 0.30871 0.0
C954 C 0.21659 0.77513 0.39891 0.0
C955 C 0.21915 0.78005 0.3728 0.0
C956 C 0.24315 0.81408 0.33286 0.0
C957 C 0.24602 0.87593 0.29641 0.0
C958 C 0.23622 0.85052 0.30458 0.0
C959 C 0.20704 0.80187 0.36194 0.0
C960 C 0.21637 0.81291 0.33749 0.0
H961 H 0.23264 0.92498 0.25508 0.0
H962 H 0.22265 0.87946 0.26236 0.0
H963 H 0.27375 0.8348 0.3152 0.0
H964 H 0.17587 0.82505 0.41448 0.0
H965 H 0.18003 0.83353 0.36957 0.0
C966 C 0.95883 0.65485 0.68563 0.0
C967 C 0.97818 0.67298 0.68194 0.0
C968 C 0.96018 0.63122 0.67278 0.0
C969 C 0.99025 0.6032 0.61465 0.0
H970 H 0.9572 0.54118 0.63807 0.0
C971 C 0.93586 0.51524 0.56563 0.0
C972 C 0.95398 0.50721 0.54713 0.0
C973 C 0.94314 0.5314 0.58549 0.0
C974 C 0.96665 0.55834 0.63139 0.0
H975 H 0.01495 0.68043 0.6639 0.0
H976 H 0.01813 0.63882 0.64253 0.0
H977 H 0.96267 0.57713 0.66753 0.0
H978 H 0.99427 0.50859 0.53584 0.0
H979 H 0.00689 0.53756 0.57018 0.0
H980 H 0.99396 0.58449 0.57848 0.0
C981 C 0.00133 0.64296 0.65432 0.0
C982 C 0.96964 0.579 0.64818 0.0
C983 C -0.00034 0.6667 0.66668 0.0
C984 C 0.97979 0.51484 0.54948 0.0
C985 C 0.98704 0.53131 0.5692 0.0
C986 C 0.98757 0.58246 0.59803 0.0
C987 C 0.98115 0.62527 0.65641 0.0
C988 C 0.98087 0.60197 0.63982 0.0
C989 C 0.96865 0.54006 0.58715 0.0
C990 C 0.97514 0.56011 0.60603 0.0
H991 H 0.94207 0.65948 0.69732 0.0
H992 H 0.94413 0.61826 0.67471 0.0
H993 H -0.00145 0.62065 0.60726 0.0
H994 H 0.91585 0.50953 0.56448 0.0
H995 H 0.92851 0.53805 0.5989 0.0
C996 C 0.27867 0.70427 0.41585 0.0
C997 C 0.27408 0.72353 0.43414 0.0
C998 C 0.28585 0.71062 0.39115 0.0
C999 C 0.29477 0.72663 0.33749 0.0
H1000 H 0.35358 0.77174 0.33569 0.0
C1001 C 0.39142 0.70405 0.29305 0.0
C1002 C 0.40627 0.72358 0.28236 0.0
C1003 C 0.36621 0.70932 0.3013 0.0
C1004 C 0.3367 0.75968 0.3355 0.0
H1005 H 0.27286 0.76468 0.44084 0.0
H1006 H 0.2857 0.77597 0.39729 0.0
H1007 H 0.32508 0.77239 0.37258 0.0
H1008 H 0.40607 0.76331 0.27006 0.0
H1009 H 0.36212 0.77287 0.28549 0.0
H1010 H 0.30835 0.7119 0.30161 0.0
C1011 C 0.28369 0.75588 0.40219 0.0
C1012 C 0.32031 0.76004 0.35672 0.0
C1013 C 0.27632 0.74945 0.42708 0.0
C1014 C 0.3948 0.74787 0.27796 0.0
C1015 C 0.36976 0.75338 0.28688 0.0
C1016 C 0.31143 0.72596 0.3165 0.0
C1017 C 0.28875 0.73646 0.38399 0.0
C1018 C 0.30022 0.74227 0.35868 0.0
C1019 C 0.35573 0.73441 0.29963 0.0
C1020 C 0.33339 0.74141 0.31607 0.0
H1021 H 0.27702 0.68411 0.42068 0.0
H1022 H 0.29025 0.69506 0.378 0.0
H1023 H 0.27892 0.7133 0.33806 0.0
H1024 H 0.39999 0.68526 0.29679 0.0
H1025 H 0.35594 0.69441 0.31131 0.0
C1026 C 0.26269 0.10605 0.2327 0.0
C1027 C 0.27833 0.09181 0.21558 0.0
C1028 C 0.25831 0.13245 0.22899 0.0
C1029 C 0.27688 0.18762 0.187 0.0
H1030 H 0.2027 0.19782 0.18151 0.0
C1031 C 0.20879 0.21151 0.10287 0.0
C1032 C 0.22387 0.2298 0.09045 0.0
C1033 C 0.21179 0.20711 0.12884 0.0
C1034 C 0.2235 0.1956 0.1832 0.0
H1035 H 0.3038 0.09452 0.18289 0.0
H1036 H 0.29613 0.14004 0.17625 0.0
H1037 H 0.21986 0.16413 0.20893 0.0
H1038 H 0.25149 0.26014 0.0957 0.0
H1039 H 0.25684 0.25251 0.14142 0.0
H1040 H 0.2805 0.21689 0.15895 0.0
C1041 C 0.2872 0.13118 0.19263 0.0
C1042 C 0.23341 0.17638 0.1992 0.0
C1043 C 0.29143 0.10489 0.19625 0.0
C1044 C 0.23966 0.24588 0.10493 0.0
C1045 C 0.24287 0.24133 0.13105 0.0
C1046 C 0.26698 0.20656 0.17073 0.0
C1047 C 0.26967 0.14509 0.20821 0.0
C1048 C 0.26015 0.17088 0.19971 0.0
C1049 C 0.23022 0.22073 0.14292 0.0
C1050 C 0.24011 0.20933 0.1671 0.0
H1051 H 0.25238 0.0965 0.24785 0.0
H1052 H 0.24499 0.14265 0.24155 0.0
H1053 H 0.29764 0.18445 0.18765 0.0
H1054 H 0.19637 0.19898 0.09206 0.0
H1055 H 0.20169 0.19104 0.13704 0.0
C1056 C 0.77485 0.75582 0.93633 0.0
C1057 C 0.79123 0.77481 0.94596 0.0
C1058 C 0.77761 0.74731 0.91113 0.0
C1059 C 0.8167 0.72248 0.87127 0.0
H1060 H 0.81418 0.7623 0.80907 0.0
C1061 C 0.88657 0.74016 0.78163 0.0
C1062 C 0.90019 0.7167 0.78331 0.0
C1063 C 0.86281 0.74352 0.79402 0.0
C1064 C 0.81528 0.75086 0.82622 0.0
H1065 H 0.82148 0.80148 0.93643 0.0
H1066 H 0.8257 0.78714 0.89222 0.0
H1067 H 0.79166 0.7782 0.84704 0.0
H1068 H 0.89813 0.67714 0.7956 0.0
H1069 H 0.8554 0.68195 0.81485 0.0
H1070 H 0.84269 0.69685 0.85244 0.0
C1071 C 0.8111 0.77859 0.90423 0.0
C1072 C 0.80196 0.75987 0.84782 0.0
C1073 C 0.80893 0.78653 0.92954 0.0
C1074 C 0.88809 0.69557 0.7944 0.0
C1075 C 0.86375 0.69858 0.80586 0.0
C1076 C 0.83068 0.71389 0.85005 0.0
C1077 C 0.79607 0.75838 0.89509 0.0
C1078 C 0.80342 0.74616 0.87072 0.0
C1079 C 0.85176 0.72314 0.80777 0.0
C1080 C 0.83128 0.72858 0.82749 0.0
H1081 H 0.76095 0.74661 0.94862 0.0
H1082 H 0.76607 0.73148 0.90446 0.0
H1083 H 0.81826 0.71174 0.88887 0.0
H1084 H 0.89556 0.75673 0.77323 0.0
H1085 H 0.85463 0.76281 0.79465 0.0
C1086 C 0.29558 0.58877 0.68047 0.0
C1087 C 0.2807 0.58177 0.70166 0.0
C1088 C 0.29851 0.61452 0.67411 0.0
C1089 C 0.26395 0.67644 0.68014 0.0
H1090 H 0.32049 0.69522 0.63582 0.0
C1091 C 0.24561 0.7296 0.58892 0.0
C1092 C 0.26631 0.73781 0.57395 0.0
C1093 C 0.24981 0.72118 0.61378 0.0
C1094 C 0.30464 0.69112 0.64858 0.0
H1095 H 0.25842 0.59653 0.73377 0.0
H1096 H 0.26385 0.64189 0.72278 0.0
H1097 H 0.32579 0.65926 0.66416 0.0
H1098 H 0.30703 0.7464 0.5736 0.0
H1099 H 0.31424 0.73376 0.61779 0.0
H1100 H 0.24299 0.70871 0.66507 0.0
C1101 C 0.27296 0.62728 0.71087 0.0
C1102 C 0.30761 0.66996 0.66465 0.0
C1103 C 0.26998 0.6013 0.71726 0.0
C1104 C 0.29077 0.74017 0.58496 0.0
C1105 C 0.29489 0.73247 0.61017 0.0
C1106 C 0.26123 0.69817 0.66461 0.0
C1107 C 0.28679 0.63419 0.68883 0.0
C1108 C 0.28661 0.6611 0.67904 0.0
C1109 C 0.27488 0.72104 0.62433 0.0
C1110 C 0.28077 0.70454 0.64703 0.0
H1111 H 0.30427 0.57429 0.66811 0.0
H1112 H 0.30884 0.61881 0.65671 0.0
H1113 H 0.24744 0.67058 0.69131 0.0
H1114 H 0.22674 0.72703 0.5805 0.0
H1115 H 0.23373 0.71246 0.62351 0.0
C1116 C 0.36598 0.00513 0.2973 0.0
C1117 C 0.3489 0.01881 0.28149 0.0
C1118 C 0.39193 0.01186 0.29847 0.0
C1119 C 0.42373 0.06765 0.30627 0.0
H1120 H 0.48539 0.02447 0.30995 0.0
C1121 C 0.4839 0.07817 0.39294 0.0
C1122 C 0.49086 0.0544 0.40361 0.0
C1123 C 0.47908 0.0801 0.36685 0.0
C1124 C 0.46835 0.03684 0.3093 0.0
H1125 H 0.34532 0.04916 0.25348 0.0
H1126 H 0.39069 0.06218 0.25691 0.0
H1127 H 0.45009 0.01234 0.28201 0.0
H1128 H 0.50085 0.01461 0.3955 0.0
H1129 H 0.49025 0.01704 0.35102 0.0
H1130 H 0.4393 0.09004 0.33592 0.0
C1131 C 0.38418 0.04566 0.26753 0.0
C1132 C 0.44839 0.03008 0.29282 0.0
C1133 C 0.35834 0.03834 0.26572 0.0
C1134 C 0.49526 0.03316 0.38764 0.0
C1135 C 0.48934 0.03475 0.36182 0.0
C1136 C 0.44314 0.07387 0.32342 0.0
C1137 C 0.40095 0.03286 0.28443 0.0
C1138 C 0.42531 0.0446 0.29249 0.0
C1139 C 0.47955 0.05791 0.35127 0.0
C1140 C 0.46483 0.05734 0.32673 0.0
H1141 H 0.35902 0.98997 0.30952 0.0
H1142 H 0.40441 0.00206 0.312 0.0
H1143 H 0.40603 0.07916 0.30628 0.0
H1144 H 0.48107 0.09498 0.40494 0.0
H1145 H 0.47317 0.09867 0.35943 0.0
C1146 C 0.79889 0.8901 0.04375 0.0
C1147 C 0.78469 0.87607 0.02601 0.0
C1148 C 0.80484 0.91565 0.03904 0.0
C1149 C 0.82253 0.96742 0.0243 0.0
H1150 H 0.85634 0.95636 0.95919 0.0
C1151 C 0.92814 0.99584 0.008 0.0
C1152 C 0.94267 0.97372 0.00099 0.0
C1153 C 0.90115 0.99633 0.00573 0.0
C1154 C 0.84678 0.96016 0.97724 0.0
H1155 H 0.7628 0.87824 0.99102 0.0
H1156 H 0.77359 0.92315 0.98239 0.0
H1157 H 0.81581 0.9354 0.96802 0.0
H1158 H 0.94023 0.93513 0.98543 0.0
H1159 H 0.89354 0.93578 0.98202 0.0
H1160 H 0.85544 0.98945 0.03461 0.0
C1161 C 0.78015 0.91442 -3e-05 0.0
C1162 C 0.82328 0.94837 0.98226 0.0
C1163 C 0.77388 0.88878 0.00493 0.0
C1164 C 0.92969 0.95234 0.99135 0.0
C1165 C 0.90289 0.95293 0.98887 0.0
C1166 C 0.84626 0.97892 0.0194 0.0
C1167 C 0.79714 0.92758 0.01617 0.0
C1168 C 0.81236 0.94971 0.00683 0.0
C1169 C 0.88827 0.97484 0.99612 0.0
C1170 C 0.85968 0.97325 0.99673 0.0
H1171 H 0.80722 0.88067 0.06025 0.0
H1172 H 0.81802 0.92487 0.05201 0.0
H1173 H 0.814 0.96968 0.04306 0.0
H1174 H 0.93761 0.0128 0.01513 0.0
H1175 H 0.89035 0.0134 0.01157 0.0
C1176 C 0.66853 0.23545 0.54703 0.0
C1177 C 0.68632 0.24589 0.52996 0.0
C1178 C 0.64335 0.23062 0.53924 0.0
C1179 C 0.62013 0.20833 0.47839 0.0
H1180 H 0.56852 0.1796 0.52323 0.0
C1181 C 0.55319 0.1117 0.48848 0.0
C1182 C 0.57295 0.09377 0.48213 0.0
C1183 C 0.55837 0.13803 0.48978 0.0
C1184 C 0.58232 0.18779 0.51012 0.0
H1185 H 0.6911 0.2635 0.49307 0.0
H1186 H 0.64668 0.25591 0.47951 0.0
H1187 H 0.58982 0.21926 0.53523 0.0
H1188 H 0.61343 0.08953 0.47167 0.0
H1189 H 0.62247 0.13509 0.47417 0.0
H1190 H 0.61325 0.17643 0.45373 0.0
C1191 C 0.65223 0.25067 0.49869 0.0
C1192 C 0.5947 0.21047 0.51709 0.0
C1193 C 0.67759 0.25536 0.50651 0.0
C1194 C 0.59778 0.10276 0.47663 0.0
C1195 C 0.60287 0.12898 0.47777 0.0
C1196 C 0.60756 0.18592 0.47132 0.0
C1197 C 0.63571 0.2359 0.51404 0.0
C1198 C 0.61529 0.2198 0.5023 0.0
C1199 C 0.58331 0.14693 0.4845 0.0
C1200 C 0.59 0.17438 0.48801 0.0
H1201 H 0.67498 0.22797 0.56522 0.0
H1202 H 0.63136 0.21952 0.5519 0.0
H1203 H 0.63562 0.2148 0.4662 0.0
H1204 H 0.53382 0.1054 0.49285 0.0
H1205 H 0.54293 0.15138 0.49507 0.0
C1206 C 0.8136 0.43892 0.25042 0.0
C1207 C 0.79864 0.43008 0.23001 0.0
C1208 C 0.82648 0.42128 0.26637 0.0
C1209 C 0.82782 0.35327 0.2863 0.0
H1210 H 0.90165 0.35364 0.27374 0.0
C1211 C 0.88516 0.26758 0.25297 0.0
C1212 C 0.91179 0.26479 0.25769 0.0
C1213 C 0.87086 0.28768 0.26395 0.0
C1214 C 0.8813 0.35354 0.27857 0.0
H1215 H 0.78393 0.39626 0.21118 0.0
H1216 H 0.80551 0.36569 0.23928 0.0
H1217 H 0.87594 0.39267 0.26669 0.0
H1218 H 0.94354 0.27886 0.2803 0.0
H1219 H 0.91841 0.31471 0.29926 0.0
H1220 H 0.83286 0.31355 0.29614 0.0
C1221 C 0.80768 0.38608 0.24289 0.0
C1222 C 0.86652 0.37592 0.27439 0.0
C1223 C 0.79559 0.40356 0.22661 0.0
C1224 C 0.92324 0.28102 0.2757 0.0
C1225 C 0.90887 0.30141 0.28663 0.0
C1226 C 0.84262 0.331 0.29073 0.0
C1227 C 0.82362 0.39468 0.26262 0.0
C1228 C 0.83947 0.37539 0.27651 0.0
C1229 C 0.88282 0.30557 0.27992 0.0
C1230 C 0.86924 0.33044 0.28518 0.0
H1231 H 0.81603 0.45931 0.25349 0.0
H1232 H 0.83887 0.42832 0.28133 0.0
H1233 H 0.80698 0.35246 0.28821 0.0
H1234 H 0.87553 0.2551 0.23959 0.0
H1235 H 0.85087 0.29033 0.25824 0.0
C1236 C 0.02392 0.56863 0.48509 0.0
C1237 C 0.03758 0.54956 0.49867 0.0
C1238 C 0.02954 0.59469 0.48884 0.0
C1239 C 0.06672 0.64044 0.48542 0.0
H1240 H 0.08824 0.6664 0.55116 0.0
C1241 C 0.16203 0.68562 0.52497 0.0
C1242 C 0.16665 0.70607 0.50828 0.0
C1243 C 0.13753 0.67506 0.52674 0.0
C1244 C 0.08193 0.65974 0.53267 0.0
H1245 H 0.06599 0.54246 0.52812 0.0
H1246 H 0.07542 0.58752 0.53501 0.0
H1247 H 0.05822 0.63072 0.54904 0.0
H1248 H 0.14908 0.73239 0.4812 0.0
H1249 H 0.10601 0.71314 0.48366 0.0
H1250 H 0.09206 0.66809 0.46908 0.0
C1251 C 0.06058 0.5827 0.52137 0.0
C1252 C 0.06476 0.63935 0.53146 0.0
C1253 C 0.05542 0.55686 0.51724 0.0
C1254 C 0.14597 0.71659 0.4942 0.0
C1255 C 0.12141 0.70561 0.49558 0.0
C1256 C 0.0839 0.6609 0.48664 0.0
C1257 C 0.04833 0.60189 0.5067 0.0
C1258 C 0.05835 0.62843 0.50785 0.0
C1259 C 0.11711 0.68444 0.51158 0.0
C1260 C 0.09292 0.66959 0.5103 0.0
H1261 H 0.01002 0.56334 0.4707 0.0
H1262 H 0.01988 0.60911 0.47725 0.0
H1263 H 0.06217 0.6324 0.46696 0.0
H1264 H 0.17757 0.67732 0.53623 0.0
H1265 H 0.13497 0.65853 0.53897 0.0
C1266 C 0.67307 0.04651 0.78083 0.0
C1267 C 0.6607 0.03503 0.80162 0.0
C1268 C 0.66025 0.06512 0.7662 0.0
C1269 C 0.5963 0.09446 0.75205 0.0
H1270 H 0.63304 0.15881 0.7527 0.0
C1271 C 0.54535 0.1913 0.76361 0.0
C1272 C 0.55735 0.21384 0.75567 0.0
C1273 C 0.55712 0.16739 0.75901 0.0
C1274 C 0.62261 0.14097 0.7515 0.0
H1275 H 0.62461 0.03324 0.82269 0.0
H1276 H 0.60232 0.066 0.79742 0.0
H1277 H 0.65578 0.11921 0.76365 0.0
H1278 H 0.58996 0.22958 0.73554 0.0
H1279 H 0.61002 0.18755 0.72604 0.0
H1280 H 0.56288 0.11637 0.74065 0.0
C1281 C 0.62193 0.06039 0.79225 0.0
C1282 C 0.6357 0.11822 0.75792 0.0
C1283 C 0.63482 0.04188 0.80693 0.0
C1284 C 0.58035 0.21225 0.74156 0.0
C1285 C 0.59187 0.18825 0.73638 0.0
C1286 C 0.58325 0.11719 0.74527 0.0
C1287 C 0.6347 0.07255 0.77206 0.0
C1288 C 0.62236 0.09499 0.75944 0.0
C1289 C 0.58095 0.1656 0.746 0.0
C1290 C 0.59594 0.14091 0.74623 0.0
H1291 H 0.69283 0.04163 0.77617 0.0
H1292 H 0.67048 0.07412 0.75065 0.0
H1293 H 0.58572 0.07666 0.75266 0.0
H1294 H 0.52781 0.19228 0.77496 0.0
H1295 H 0.54829 0.15054 0.76711 0.0
C1296 C 0.76855 0.56101 0.15004 0.0
C1297 C 0.76765 0.55794 0.17661 0.0
C1298 C 0.76981 0.58552 0.13932 0.0
C1299 C 0.79049 0.65094 0.15353 0.0
H1300 H 0.75173 0.66847 0.09268 0.0
C1301 C 0.77438 0.74153 0.07942 0.0
C1302 C 0.8004 0.74664 0.07395 0.0
C1303 C 0.76788 0.72053 0.0946 0.0
C1304 C 0.76241 0.66399 0.10987 0.0
H1305 H 0.76725 0.57835 0.21274 0.0
H1306 H 0.76957 0.62109 0.19396 0.0
H1307 H 0.74453 0.62733 0.11378 0.0
H1308 H 0.84009 0.73464 0.08131 0.0
H1309 H 0.82882 0.6983 0.10792 0.0
H1310 H 0.80869 0.68737 0.14938 0.0
C1311 C 0.76938 0.60448 0.18147 0.0
C1312 C 0.7585 0.64035 0.12177 0.0
C1313 C 0.76799 0.57998 0.1922 0.0
C1314 C 0.81983 0.73117 0.08504 0.0
C1315 C 0.81339 0.71039 0.1004 0.0
C1316 C 0.79451 0.67448 0.14155 0.0
C1317 C 0.77033 0.60751 0.15492 0.0
C1318 C 0.77283 0.63341 0.14348 0.0
C1319 C 0.78736 0.70456 0.10497 0.0
C1320 C 0.78086 0.68105 0.11935 0.0
H1321 H 0.76824 0.54448 0.13746 0.0
H1322 H 0.77087 0.58723 0.1188 0.0
H1323 H 0.80191 0.64608 0.17014 0.0
H1324 H 0.75904 0.75356 0.07179 0.0
H1325 H 0.74765 0.71668 0.09811 0.0
C1326 C 0.97708 0.49722 0.39695 0.0
C1327 C 0.95556 0.48852 0.4108 0.0
C1328 C 0.97606 0.49907 0.37035 0.0
C1329 C 0.95226 0.52077 0.31987 0.0
H1330 H 0.91208 0.46927 0.28518 0.0
C1331 C 0.85671 0.54294 0.28161 0.0
C1332 C 0.84324 0.52519 0.26676 0.0
C1333 C 0.88322 0.53985 0.28547 0.0
C1334 C 0.92404 0.4838 0.29373 0.0
H1335 H 0.91654 0.47419 0.40758 0.0
H1336 H 0.91478 0.47742 0.36168 0.0
H1337 H 0.93762 0.45719 0.32186 0.0
H1338 H 0.84766 0.49276 0.24091 0.0
H1339 H 0.89409 0.48724 0.24778 0.0
H1340 H 0.93719 0.54782 0.29287 0.0
C1341 C 0.93249 0.48269 0.37119 0.0
C1342 C 0.93861 0.4768 0.31497 0.0
C1343 C 0.9333 0.48132 0.39758 0.0
C1344 C 0.85739 0.50637 0.25305 0.0
C1345 C 0.88404 0.50322 0.25696 0.0
C1346 C 0.93793 0.52775 0.29837 0.0
C1347 C 0.95376 0.4916 0.35728 0.0
C1348 C 0.95056 0.49577 0.32965 0.0
C1349 C 0.8969 0.51883 0.27463 0.0
C1350 C 0.9214 0.50989 0.28688 0.0
H1351 H 0.99464 0.50258 0.40667 0.0
H1352 H 0.99258 0.50625 0.36001 0.0
H1353 H 0.96177 0.53568 0.33061 0.0
H1354 H 0.84649 0.55809 0.29193 0.0
H1355 H 0.8922 0.55241 0.29919 0.0
C1356 C 0.17011 0.50943 0.67408 0.0
C1357 C 0.18001 0.49983 0.69704 0.0
C1358 C 0.14481 0.5043 0.66691 0.0
C1359 C 0.08756 0.49642 0.65904 0.0
H1360 H 0.08176 0.42278 0.64926 0.0
C1361 C 0.02494 0.46004 0.5794 0.0
C1362 C 0.04106 0.44664 0.56205 0.0
C1363 C 0.03227 0.46259 0.60487 0.0
C1364 C 0.08269 0.44336 0.65231 0.0
H1365 H 0.17105 0.47838 0.73118 0.0
H1366 H 0.12671 0.46843 0.71803 0.0
H1367 H 0.11375 0.43931 0.67896 0.0
H1368 H 0.0755 0.42247 0.55848 0.0
H1369 H 0.08818 0.42676 0.6027 0.0
H1370 H 0.0582 0.50068 0.63083 0.0
C1371 C 0.1385 0.48034 0.70589 0.0
C1372 C 0.10088 0.45282 0.66943 0.0
C1373 C 0.16375 0.48604 0.71339 0.0
C1374 C 0.06287 0.43323 0.5713 0.0
C1375 C 0.07002 0.43552 0.59677 0.0
C1376 C 0.06928 0.48699 0.64208 0.0
C1377 C 0.12902 0.48903 0.68234 0.0
C1378 C 0.10453 0.47945 0.67169 0.0
C1379 C 0.05561 0.45145 0.61346 0.0
C1380 C 0.06783 0.46041 0.63734 0.0
H1381 H 0.18225 0.52021 0.66124 0.0
H1382 H 0.13815 0.51095 0.64849 0.0
H1383 H 0.08989 0.51704 0.66064 0.0
H1384 H 0.00783 0.47038 0.57293 0.0
H1385 H 0.02064 0.47474 0.61738 0.0
C1386 C 0.58536 0.76353 0.23754 0.0
C1387 C 0.57372 0.74913 0.21818 0.0
C1388 C 0.61146 0.77025 0.23549 0.0
C1389 C 0.65502 0.79988 0.20901 0.0
H1390 H 0.7033 0.75622 0.17148 0.0
C1391 C 0.69673 0.82819 0.11616 0.0
C1392 C 0.7171 0.81392 0.10498 0.0
C1393 C 0.69031 0.82461 0.14168 0.0
C1394 C 0.69076 0.76884 0.18259 0.0
H1395 H 0.58037 0.72858 0.1828 0.0
H1396 H 0.62556 0.73977 0.17934 0.0
H1397 H 0.66977 0.73687 0.19695 0.0
H1398 H 0.74925 0.78773 0.11265 0.0
H1399 H 0.73819 0.78164 0.15742 0.0
H1400 H 0.67515 0.83191 0.19351 0.0
C1401 C 0.6149 0.74608 0.19608 0.0
C1402 C 0.67129 0.75764 0.19706 0.0
C1403 C 0.58889 0.73987 0.19788 0.0
C1404 C 0.73319 0.79876 0.12066 0.0
C1405 C 0.72674 0.79513 0.14631 0.0
C1406 C 0.6747 0.81112 0.19473 0.0
C1407 C 0.62631 0.76206 0.21436 0.0
C1408 C 0.65198 0.77306 0.20862 0.0
C1409 C 0.70412 0.80661 0.1566 0.0
C1410 C 0.69139 0.79573 0.17959 0.0
H1411 H 0.57393 0.7709 0.25337 0.0
H1412 H 0.61974 0.78262 0.24981 0.0
H1413 H 0.64062 0.81232 0.21798 0.0
H1414 H 0.68425 0.8404 0.10465 0.0
H1415 H 0.6728 0.83392 0.14872 0.0
C1416 C 0.66356 0.50222 0.21438 0.0
C1417 C 0.6777 0.47893 0.21329 0.0
C1418 C 0.63952 0.50431 0.20227 0.0
C1419 C 0.59452 0.46693 0.16058 0.0
H1420 H 0.6124 0.51927 0.11146 0.0
C1421 C 0.56851 0.4558 0.05497 0.0
C1422 C 0.58935 0.46012 0.03848 0.0
C1423 C 0.56941 0.46396 0.08026 0.0
C1424 C 0.60699 0.50464 0.12502 0.0
H1425 H 0.67646 0.43873 0.20285 0.0
H1426 H 0.63481 0.442 0.18226 0.0
H1427 H 0.62845 0.52229 0.15468 0.0
H1428 H 0.62744 0.47616 0.03492 0.0
H1429 H 0.6294 0.49035 0.07933 0.0
H1430 H 0.5754 0.44785 0.13015 0.0
C1431 C 0.64184 0.45887 0.19199 0.0
C1432 C 0.61578 0.5066 0.15003 0.0
C1433 C 0.66588 0.45691 0.20374 0.0
C1434 C 0.61111 0.47288 0.0474 0.0
C1435 C 0.612 0.48123 0.07271 0.0
C1436 C 0.58596 0.46483 0.13549 0.0
C1437 C 0.62946 0.48305 0.18918 0.0
C1438 C 0.61129 0.48671 0.16756 0.0
C1439 C 0.59122 0.47667 0.08951 0.0
C1440 C 0.59367 0.48274 0.11705 0.0
H1441 H 0.67238 0.51944 0.22172 0.0
H1442 H 0.6302 0.52309 0.2009 0.0
H1443 H 0.5902 0.45162 0.17381 0.0
H1444 H 0.55163 0.4457 0.04835 0.0
H1445 H 0.55308 0.46019 0.09259 0.0
C1446 C 0.47354 0.41746 0.01383 0.0
C1447 C 0.49258 0.40696 0.99756 0.0
C1448 C 0.45364 0.40228 0.02296 0.0
C1449 C 0.43266 0.33447 0.03017 0.0
H1450 H 0.36501 0.3676 0.03425 0.0
C1451 C 0.33266 0.28589 0.02799 0.0
C1452 C 0.31238 0.2991 0.04057 0.0
C1453 C 0.35796 0.29482 0.0298 0.0
C1454 C 0.38386 0.35814 0.03378 0.0
H1455 H 0.50573 0.37229 0.97804 0.0
H1456 H 0.4701 0.34596 0.99302 0.0
H1457 H 0.40182 0.39237 0.0212 0.0
H1458 H 0.30287 0.32905 0.06793 0.0
H1459 H 0.34707 0.34411 0.07171 0.0
H1460 H 0.41383 0.29973 0.04148 0.0
C1461 C 0.47101 0.36577 -0.00067 0.0
C1462 C 0.40504 0.37238 0.02624 0.0
C1463 C 0.49125 0.38091 0.99051 0.0
C1464 C 0.31819 0.31881 0.05779 0.0
C1465 C 0.34343 0.32748 0.05985 0.0
C1466 C 0.41123 0.32005 0.03746 0.0
C1467 C 0.45194 0.37631 0.01565 0.0
C1468 C 0.42972 0.3608 0.02429 0.0
C1469 C 0.36312 0.31684 0.0444 0.0
C1470 C 0.38664 0.33183 0.03934 0.0
H1471 H 0.47432 0.43732 0.02005 0.0
H1472 H 0.43968 0.41092 0.03595 0.0
H1473 H 0.45146 0.325 0.02912 0.0
H1474 H 0.32863 0.27062 0.01458 0.0
H1475 H 0.3728 0.28621 0.01774 0.0
C1476 C 0.10574 0.2238 0.2682 0.0
C1477 C 0.07897 0.22099 0.26516 0.0
C1478 C 0.12278 0.20345 0.26274 0.0
C1479 C 0.12297 0.13291 0.26192 0.0
H1480 H 0.19552 0.1426 0.24627 0.0
C1481 C 0.20079 0.05233 0.2736 0.0
C1482 C 0.22097 0.0598 0.28962 0.0
C1483 C 0.18346 0.07073 0.26389 0.0
C1484 C 0.17527 0.1396 0.25044 0.0
H1485 H 0.04917 0.19538 0.25302 0.0
H1486 H 0.079 0.15962 0.24254 0.0
H1487 H 0.16439 0.17756 0.23855 0.0
H1488 H 0.23935 0.09192 0.30799 0.0
H1489 H 0.20934 0.12434 0.29058 0.0
H1490 H 0.13409 0.09504 0.27415 0.0
C1491 C 0.08679 0.1775 0.24949 0.0
C1492 C 0.15743 0.1596 0.24615 0.0
C1493 C 0.06971 0.19797 0.2551 0.0
C1494 C 0.22386 0.08585 0.29564 0.0
C1495 C 0.2069 0.10432 0.2855 0.0
C1496 C 0.14077 0.11279 0.26583 0.0
C1497 C 0.11349 0.17974 0.25403 0.0
C1498 C 0.13124 0.1569 0.25292 0.0
C1499 C 0.18642 0.09689 0.2697 0.0
C1500 C 0.16719 0.11634 0.26109 0.0
H1501 H 0.1135 0.24142 0.27586 0.0
H1502 H 0.14309 0.20591 0.26688 0.0
H1503 H 0.10307 0.13012 0.2676 0.0
H1504 H 0.19791 0.03222 0.26932 0.0
H1505 H 0.16762 0.06454 0.25204 0.0
C1506 C 0.2764 0.30819 0.91532 0.0
C1507 C 0.25909 0.29056 0.92563 0.0
C1508 C 0.27564 0.3141 0.88949 0.0
C1509 C 0.2695 0.32712 0.83424 0.0
H1510 H 0.19795 0.34953 0.8271 0.0
C1511 C 0.24291 0.41727 0.77678 0.0
C1512 C 0.23104 0.43543 0.7932 0.0
C1513 C 0.24383 0.39116 0.78325 0.0
C1514 C 0.21794 0.34304 0.82842 0.0
H1515 H 0.22942 0.26306 0.91692 0.0
H1516 H 0.22768 0.27374 0.8715 0.0
H1517 H 0.20883 0.31482 0.85631 0.0
H1518 H 0.20857 0.44008 0.8279 0.0
H1519 H 0.2098 0.39474 0.83894 0.0
H1520 H 0.27878 0.35735 0.80843 0.0
C1521 C 0.24189 0.28296 0.88338 0.0
C1522 C 0.2242 0.32292 0.84498 0.0
C1523 C 0.24297 0.27675 0.90929 0.0
C1524 C 0.21813 0.42666 0.81498 0.0
C1525 C 0.21864 0.40059 0.82119 0.0
C1526 C 0.26322 0.3473 0.81771 0.0
C1527 C 0.25719 0.30279 0.87355 0.0
C1528 C 0.25023 0.31599 0.8494 0.0
C1529 C 0.2323 0.3827 0.80591 0.0
C1530 C 0.23756 0.3565 0.81595 0.0
H1531 H 0.2891 0.31894 0.92761 0.0
H1532 H 0.28764 0.32954 0.88273 0.0
H1533 H 0.28969 0.32193 0.83695 0.0
H1534 H 0.25269 0.42333 0.75963 0.0
H1535 H 0.25434 0.37776 0.77106 0.0
C1536 C 0.31655 0.18978 0.96863 0.0
C1537 C 0.30095 0.2099 0.97845 0.0
C1538 C 0.33621 0.19484 0.95123 0.0
C1539 C 0.35491 0.24156 0.90293 0.0
H1540 H 0.42097 0.2051 0.90567 0.0
C1541 C 0.4276 0.23954 0.81876 0.0
C1542 C 0.45365 0.24336 0.8251 0.0
C1543 C 0.40914 0.23577 0.83789 0.0
C1544 C 0.40267 0.21553 0.90471 0.0
H1545 H 0.29478 0.25122 0.97892 0.0
H1546 H 0.32906 0.26012 0.94816 0.0
H1547 H 0.38947 0.19937 0.93972 0.0
H1548 H 0.4808 0.24579 0.85645 0.0
H1549 H 0.44872 0.2392 0.88958 0.0
H1550 H 0.36825 0.25782 0.86792 0.0
C1551 C 0.32572 0.24039 0.95368 0.0
C1552 C 0.38458 0.21212 0.92412 0.0
C1553 C 0.30611 0.23531 0.97128 0.0
C1554 C 0.4609 0.24291 0.85087 0.0
C1555 C 0.44254 0.239 0.8699 0.0
C1556 C 0.37299 0.24489 0.88342 0.0
C1557 C 0.34073 0.22013 0.94323 0.0
C1558 C 0.36047 0.225 0.92338 0.0
C1559 C 0.41645 0.23555 0.86365 0.0
C1560 C 0.39704 0.23186 0.8841 0.0
H1561 H 0.31311 0.16996 0.97378 0.0
H1562 H 0.34729 0.1788 0.94336 0.0
H1563 H 0.33637 0.25153 0.90173 0.0
H1564 H 0.42136 0.23994 0.7991 0.0
H1565 H 0.38919 0.23291 0.83252 0.0
C1566 C 0.49224 0.51532 0.91537 0.0
C1567 C 0.48024 0.50574 0.93727 0.0
C1568 C 0.48171 0.51072 0.89139 0.0
C1569 C 0.42903 0.47695 0.85689 0.0
H1570 H 0.41633 0.54457 0.82792 0.0
C1571 C 0.34493 0.49857 0.78691 0.0
C1572 C 0.32787 0.51652 0.79845 0.0
C1573 C 0.37018 0.49525 0.79611 0.0
C1574 C 0.4201 0.52545 0.83538 0.0
H1575 H 0.44915 0.48264 0.95167 0.0
H1576 H 0.43054 0.47447 0.90976 0.0
H1577 H 0.45039 0.53867 0.85924 0.0
H1578 H 0.3243 0.54633 0.82721 0.0
H1579 H 0.36843 0.54121 0.84261 0.0
H1580 H 0.3972 0.46437 0.83423 0.0
C1581 C 0.44829 0.48516 0.91087 0.0
C1582 C 0.43974 0.52196 0.85323 0.0
C1583 C 0.45882 0.48986 0.93489 0.0
C1584 C 0.337 0.53229 0.81804 0.0
C1585 C 0.3623 0.52945 0.82675 0.0
C1586 C 0.40943 0.48043 0.83884 0.0
C1587 C 0.4589 0.49661 0.88899 0.0
C1588 C 0.4435 0.49801 0.8652 0.0
C1589 C 0.3789 0.51043 0.8164 0.0
C1590 C 0.40395 0.50504 0.829 0.0
H1591 H 0.50876 0.52776 0.91696 0.0
H1592 H 0.49053 0.51948 0.87488 0.0
H1593 H 0.43173 0.4582 0.86554 0.0
H1594 H 0.33838 0.48615 0.77178 0.0
H1595 H 0.38265 0.48044 0.78788 0.0
C1596 C 0.69694 0.69881 0.04556 0.0
C1597 C 0.71587 0.71125 0.03118 0.0
C1598 C 0.6915 0.67307 0.04091 0.0
C1599 C 0.6855 0.61622 0.02885 0.0
H1600 H 0.66204 0.61526 0.95878 0.0
C1601 C 0.61302 0.54179 0.99252 0.0
C1602 C 0.59027 0.55442 0.98422 0.0
C1603 C 0.63593 0.55537 0.99526 0.0
C1604 C 0.66895 0.61497 0.97823 0.0
H1605 H 0.74553 0.70621 0.00224 0.0
H1606 H 0.73533 0.66118 0.99346 0.0
H1607 H 0.69169 0.64846 0.97273 0.0
H1608 H 0.57403 0.59061 0.97078 0.0
H1609 H 0.61421 0.61419 0.97505 0.0
H1610 H 0.66137 0.58369 0.03469 0.0
C1611 C 0.72498 0.67131 0.00851 0.0
C1612 C 0.68606 0.63381 0.98618 0.0
C1613 C 0.73081 0.69699 0.01356 0.0
C1614 C 0.59124 0.58044 0.97728 0.0
C1615 C 0.61426 0.59385 0.97955 0.0
C1616 C 0.66866 0.59715 0.0208 0.0
C1617 C 0.70458 0.65948 0.02147 0.0
C1618 C 0.69344 0.63536 0.01185 0.0
C1619 C 0.6366 0.58161 0.98921 0.0
C1620 C 0.65927 0.59719 0.99573 0.0
H1621 H 0.68534 0.7094 0.05941 0.0
H1622 H 0.67555 0.6645 0.05106 0.0
H1623 H 0.69095 0.61704 0.04873 0.0
H1624 H 0.61281 0.52175 0.99815 0.0
H1625 H 0.65291 0.54558 0.00281 0.0
C1626 C 0.92163 0.79573 0.74672 0.0
C1627 C 0.91772 0.7892 0.72111 0.0
C1628 C 0.90261 0.80941 0.7604 0.0
C1629 C 0.86949 0.85701 0.77295 0.0
H1630 H 0.7963 0.84974 0.75939 0.0
C1631 C 0.78712 0.92776 0.74036 0.0
C1632 C 0.78842 0.94789 0.75802 0.0
C1633 C 0.79757 0.90364 0.74609 0.0
C1634 C 0.81662 0.85181 0.7638 0.0
H1635 H 0.89044 0.79078 0.68995 0.0
H1636 H 0.85713 0.8144 0.7137 0.0
H1637 H 0.82625 0.81403 0.74999 0.0
H1638 H 0.80049 0.95881 0.79588 0.0
H1639 H 0.82002 0.91636 0.80572 0.0
H1640 H 0.86017 0.89544 0.78493 0.0
C1641 C 0.8748 0.80885 0.72343 0.0
C1642 C 0.83375 0.83145 0.75832 0.0
C1643 C 0.89398 0.79556 0.70971 0.0
C1644 C 0.79932 0.94338 0.78205 0.0
C1645 C 0.81042 0.91922 0.78763 0.0
C1646 C 0.85236 0.87739 0.77841 0.0
C1647 C 0.87912 0.81644 0.74876 0.0
C1648 C 0.86052 0.83444 0.76141 0.0
C1649 C 0.81009 0.89929 0.76942 0.0
C1650 C 0.82601 0.87551 0.77238 0.0
H1651 H 0.93973 0.79129 0.75587 0.0
H1652 H 0.90651 0.81499 0.77988 0.0
H1653 H 0.89001 0.85992 0.77555 0.0
H1654 H 0.77873 0.93094 0.72173 0.0
H1655 H 0.79737 0.88888 0.73149 0.0
C1656 C 0.51922 0.16408 0.70885 0.0
C1657 C 0.49284 0.16645 0.71502 0.0
C1658 C 0.52864 0.14247 0.69559 0.0
C1659 C 0.50809 0.08093 0.66463 0.0
H1660 H 0.537 0.11263 0.6044 0.0
C1661 C 0.51471 0.06576 0.54782 0.0
C1662 C 0.48827 0.0611 0.54435 0.0
C1663 C 0.52432 0.07099 0.57222 0.0
C1664 C 0.52965 0.10306 0.62116 0.0
H1665 H 0.45608 0.14732 0.71431 0.0
H1666 H 0.47219 0.10976 0.69117 0.0
H1667 H 0.53879 0.13493 0.64491 0.0
H1668 H 0.4514 0.0571 0.56352 0.0
H1669 H 0.46798 0.0659 0.60577 0.0
H1670 H 0.49714 0.04996 0.64015 0.0
C1671 C 0.48594 0.12415 0.69685 0.0
C1672 C 0.5307 0.11586 0.64455 0.0
C1673 C 0.47659 0.14572 0.71014 0.0
C1674 C 0.47184 0.06082 0.56564 0.0
C1675 C 0.48145 0.06548 0.58992 0.0
C1676 C 0.50701 0.06814 0.64121 0.0
C1677 C 0.51166 0.12311 0.68789 0.0
C1678 C 0.51846 0.1057 0.66621 0.0
C1679 C 0.50769 0.07101 0.59351 0.0
C1680 C 0.5163 0.07989 0.61896 0.0
H1681 H 0.53193 0.1802 0.71149 0.0
H1682 H 0.54861 0.14213 0.68929 0.0
H1683 H 0.49901 0.07231 0.68106 0.0
H1684 H 0.52777 0.06601 0.53168 0.0
H1685 H 0.54462 0.07526 0.57442 0.0
C1686 C 0.51583 0.35588 0.74314 0.0
C1687 C 0.49676 0.34152 0.75536 0.0
C1688 C 0.51901 0.38174 0.7494 0.0
C1689 C 0.49741 0.43382 0.79447 0.0
H1690 H 0.56746 0.42448 0.81922 0.0
C1691 C 0.52546 0.46095 0.89496 0.0
C1692 C 0.55151 0.46229 0.90209 0.0
C1693 C 0.51871 0.45739 0.86956 0.0
C1694 C 0.54816 0.42833 0.81212 0.0
H1695 H 0.46389 0.34327 0.78087 0.0
H1696 H 0.46963 0.38828 0.79231 0.0
H1697 H 0.55295 0.39891 0.78423 0.0
H1698 H 0.59094 0.463 0.88833 0.0
H1699 H 0.57925 0.45835 0.84351 0.0
H1700 H 0.49248 0.46281 0.82314 0.0
C1701 C 0.48195 0.37996 0.77761 0.0
C1702 C 0.53974 0.41344 0.79181 0.0
C1703 C 0.47859 0.35413 0.77107 0.0
C1704 C 0.57071 0.46183 0.88322 0.0
C1705 C 0.56392 0.45898 0.85759 0.0
C1706 C 0.50602 0.44918 0.81458 0.0
C1707 C 0.50355 0.3933 0.76846 0.0
C1708 C 0.51387 0.41491 0.78371 0.0
C1709 C 0.53788 0.45543 0.85052 0.0
C1710 C 0.53104 0.44544 0.82475 0.0
H1711 H 0.5301 0.3464 0.73101 0.0
H1712 H 0.53548 0.3917 0.74164 0.0
H1713 H 0.47745 0.43563 0.78841 0.0
H1714 H 0.51033 0.46076 0.90928 0.0
H1715 H 0.49852 0.45433 0.86533 0.0
C1716 C 0.51189 0.82091 0.2913 0.0
C1717 C 0.49699 0.80402 0.30588 0.0
C1718 C 0.51651 0.84584 0.30017 0.0
C1719 C 0.49444 0.8966 0.34414 0.0
H1720 H 0.56704 0.90666 0.3583 0.0
C1721 C 0.52883 0.96456 0.42331 0.0
C1722 C 0.55418 0.97358 0.42262 0.0
C1723 C 0.51979 0.94868 0.40386 0.0
C1724 C 0.54672 0.90482 0.35394 0.0
H1725 H 0.4738 0.80035 0.34011 0.0
H1726 H 0.48133 0.84402 0.35518 0.0
H1727 H 0.55422 0.87046 0.33241 0.0
H1728 H 0.58912 0.97557 0.39989 0.0
H1729 H 0.57297 0.94945 0.36519 0.0
H1730 H 0.48677 0.93091 0.36563 0.0
C1731 C 0.48967 0.83794 0.33714 0.0
C1732 C 0.53942 0.88388 0.33912 0.0
C1733 C 0.48559 0.81291 0.32864 0.0
C1734 C 0.56963 0.96834 0.40116 0.0
C1735 C 0.56039 0.95316 0.38135 0.0
C1736 C 0.50175 0.91794 0.35853 0.0
C1737 C 0.50566 0.8544 0.32332 0.0
C1738 C 0.51321 0.87915 0.33475 0.0
C1739 C 0.53578 0.94209 0.38293 0.0
C1740 C 0.52797 0.92189 0.36435 0.0
H1741 H 0.52088 0.81449 0.27369 0.0
H1742 H 0.52899 0.85823 0.28926 0.0
H1743 H 0.47407 0.89333 0.34089 0.0
H1744 H 0.51654 0.96852 0.43956 0.0
H1745 H 0.5008 0.94051 0.40605 0.0
C1746 C 0.49633 0.49735 0.08574 0.0
C1747 C 0.51772 0.50574 0.07183 0.0
C1748 C 0.49314 0.50475 0.11119 0.0
C1749 C 0.52146 0.54776 0.16174 0.0
H1750 H 0.45165 0.57625 0.1615 0.0
C1751 C 0.47294 0.65125 0.17573 0.0
C1752 C 0.48298 0.65974 0.199 0.0
C1753 C 0.47426 0.6253 0.16911 0.0
C1754 C 0.47112 0.56821 0.16215 0.0
H1755 H 0.55369 0.52619 0.07365 0.0
H1756 H 0.54796 0.53987 0.11751 0.0
H1757 H 0.4623 0.53996 0.13438 0.0
H1758 H 0.50118 0.64744 0.23418 0.0
H1759 H 0.50422 0.60184 0.22215 0.0
H1760 H 0.53058 0.57807 0.1878 0.0
C1761 C 0.53379 0.52711 0.1095 0.0
C1762 C 0.47727 0.54706 0.14677 0.0
C1763 C 0.53713 0.51937 0.08422 0.0
C1764 C 0.49339 0.64148 0.21605 0.0
C1765 C 0.49516 0.61542 0.20919 0.0
C1766 C 0.5153 0.56914 0.17704 0.0
C1767 C 0.51083 0.52145 0.12274 0.0
C1768 C 0.50291 0.53754 0.14512 0.0
C1769 C 0.4859 0.60716 0.18546 0.0
C1770 C 0.49044 0.58048 0.17612 0.0
H1771 H 0.48111 0.48687 0.07639 0.0
H1772 H 0.47564 0.4993 0.12102 0.0
H1773 H 0.54124 0.54051 0.16153 0.0
H1774 H 0.46469 0.66479 0.16223 0.0
H1775 H 0.46731 0.61967 0.15052 0.0
loop_
_geom_bond_atom_site_label_1
_geom_bond_atom_site_label_2
_geom_bond_distance
_geom_bond_site_symmetry_2
_ccdc_geom_bond_type
O0 Mg1 1.990 1_554 S
O0 C14 1.253 . S
Mg1 O0 1.990 1_556 S
Mg1 O4 2.180 . S
Mg1 O5 2.117 . S
Mg1 O19 2.030 1_655 S
O2 Mg3 2.059 1_554 S
O2 C14 1.247 1_455 S
Mg3 O2 2.059 1_556 S
Mg3 O4 2.114 1_455 S
Mg3 O6 2.097 1_545 S
Mg3 O7 2.068 1_446 S
Mg3 O9 2.084 1_546 S
Mg3 O20 2.086 . S
O4 Mg1 2.180 . S
O4 Mg3 2.114 1_655 S
O4 C15 1.279 . S
O5 Mg1 2.117 . S
O5 C15 1.250 . S
O6 Mg3 2.097 1_565 S
O6 C16 1.264 . S
O7 Mg3 2.068 1_664 S
O7 C17 1.260 . S
Mg8 O9 2.180 . S
Mg8 O10 2.030 1_554 S
Mg8 O11 1.990 1_455 S
Mg8 O12 2.117 . S
O9 Mg3 2.084 1_564 S
O9 Mg8 2.180 . S
O9 C18 1.279 . S
O10 Mg8 2.030 1_556 S
O10 C16 1.248 . S
O11 Mg8 1.990 1_655 S
O11 C17 1.253 . S
O12 Mg8 2.117 . S
O12 C18 1.250 . S
C13 O19 1.248 . S
C13 O20 1.264 . S
C14 O0 1.253 . S
C14 O2 1.247 1_655 S
C15 O4 1.279 . S
C15 O5 1.250 . S
C16 O6 1.264 . S
C16 O10 1.248 . S
C17 O7 1.260 . S
C17 O11 1.253 . S
C18 O9 1.279 . S
C18 O12 1.250 . S
O19 Mg1 2.030 1_455 S
O19 C13 1.248 . S
O20 Mg3 2.086 . S
O20 C13 1.264 . S
O21 Mg22 1.990 . S
O21 C35 1.253 . S
Mg22 O21 1.990 . S
Mg22 O25 2.180 . S
Mg22 O26 2.117 . S
Mg22 O40 2.030 1_455 S
O23 Mg24 2.072 . S
O23 C35 1.260 . S
Mg24 O23 2.072 . S
Mg24 O25 2.099 . S
Mg24 O27 2.079 1_455 S
Mg24 O28 2.072 . S
Mg24 O30 2.099 1_455 S
Mg24 O41 2.079 1_455 S
O25 Mg22 2.180 . S
O25 Mg24 2.099 . S
O25 C36 1.279 . S
O26 Mg22 2.117 . S
O26 C36 1.250 . S
O27 Mg24 2.079 1_655 S
O27 C37 1.264 . S
O28 Mg24 2.072 . S
O28 C38 1.260 . S
Mg29 O30 2.180 . S
Mg29 O31 2.030 . S
Mg29 O32 1.990 1_655 S
Mg29 O33 2.117 . S
O30 Mg24 2.099 1_655 S
O30 Mg29 2.180 . S
O30 C39 1.279 . S
O31 Mg29 2.030 . S
O31 C37 1.248 . S
O32 Mg29 1.990 1_455 S
O32 C38 1.253 . S
O33 Mg29 2.117 . S
O33 C39 1.250 . S
C34 O40 1.248 . S
C34 O41 1.264 . S
C35 O21 1.253 . S
C35 O23 1.260 . S
C36 O25 1.279 . S
C36 O26 1.250 . S
C37 O27 1.264 . S
C37 O31 1.248 . S
C38 O28 1.260 . S
C38 O32 1.253 . S
C39 O30 1.279 . S
C39 O33 1.250 . S
O40 Mg22 2.030 1_655 S
O40 C34 1.248 . S
O41 Mg24 2.079 1_655 S
O41 C34 1.264 . S
O42 Mg43 1.990 . S
O42 C56 1.253 . S
Mg43 O42 1.990 . S
Mg43 O46 2.180 . S
Mg43 O47 2.117 . S
Mg43 O61 2.030 . S
O44 Mg45 2.072 . S
O44 C56 1.260 . S
Mg45 O44 2.072 . S
Mg45 O46 2.099 . S
Mg45 O48 2.079 . S
Mg45 O49 2.072 . S
Mg45 O51 2.099 . S
Mg45 O62 2.079 . S
O46 Mg43 2.180 . S
O46 Mg45 2.099 . S
O46 C57 1.279 . S
O47 Mg43 2.117 . S
O47 C57 1.250 . S
O48 Mg45 2.079 . S
O48 C58 1.264 . S
O49 Mg45 2.072 . S
O49 C59 1.260 . S
Mg50 O51 2.180 . S
Mg50 O52 2.030 . S
Mg50 O53 1.990 . S
Mg50 O54 2.117 . S
O51 Mg45 2.099 . S
O51 Mg50 2.180 . S
O51 C60 1.279 . S
O52 Mg50 2.030 . S
O52 C58 1.248 . S
O53 Mg50 1.990 . S
O53 C59 1.253 . S
O54 Mg50 2.117 . S
O54 C60 1.250 . S
C55 O61 1.248 . S
C55 O62 1.264 . S
C56 O42 1.253 . S
C56 O44 1.260 . S
C57 O46 1.279 . S
C57 O47 1.250 . S
C58 O48 1.264 . S
C58 O52 1.248 . S
C59 O49 1.260 . S
C59 O53 1.253 . S
C60 O51 1.279 . S
C60 O54 1.250 . S
O61 Mg43 2.030 . S
O61 C55 1.248 . S
O62 Mg45 2.079 . S
O62 C55 1.264 . S
O63 Mg64 1.990 . S
O63 C77 1.253 . S
Mg64 O63 1.990 . S
Mg64 O67 2.180 . S
Mg64 O68 2.117 . S
Mg64 O82 2.030 1_565 S
O65 Mg66 2.072 1_565 S
O65 C77 1.260 . S
Mg66 O65 2.072 1_545 S
Mg66 O67 2.099 1_545 S
Mg66 O69 2.079 . S
Mg66 O70 2.072 1_545 S
Mg66 O72 2.099 . S
Mg66 O83 2.079 . S
O67 Mg64 2.180 . S
O67 Mg66 2.099 1_565 S
O67 C78 1.279 . S
O68 Mg64 2.117 . S
O68 C78 1.250 . S
O69 Mg66 2.079 . S
O69 C79 1.264 . S
O70 Mg66 2.072 1_565 S
O70 C80 1.260 . S
Mg71 O72 2.180 . S
Mg71 O73 2.030 . S
Mg71 O74 1.990 1_545 S
Mg71 O75 2.117 . S
O72 Mg66 2.099 . S
O72 Mg71 2.180 . S
O72 C81 1.279 . S
O73 Mg71 2.030 . S
O73 C79 1.248 . S
O74 Mg71 1.990 1_565 S
O74 C80 1.253 . S
O75 Mg71 2.117 . S
O75 C81 1.250 . S
C76 O82 1.248 . S
C76 O83 1.264 . S
C77 O63 1.253 . S
C77 O65 1.260 . S
C78 O67 1.279 . S
C78 O68 1.250 . S
C79 O69 1.264 . S
C79 O73 1.248 . S
C80 O70 1.260 . S
C80 O74 1.253 . S
C81 O72 1.279 . S
C81 O75 1.250 . S
O82 Mg64 2.030 1_545 S
O82 C76 1.248 . S
O83 Mg66 2.079 . S
O83 C76 1.264 . S
O84 Mg85 1.990 . S
O84 C98 1.253 . S
Mg85 O84 1.990 . S
Mg85 O88 2.180 . S
Mg85 O89 2.117 . S
Mg85 O103 2.030 . S
O86 Mg87 2.072 . S
O86 C98 1.260 . S
Mg87 O86 2.072 . S
Mg87 O88 2.099 . S
Mg87 O90 2.079 . S
Mg87 O91 2.072 . S
Mg87 O93 2.099 . S
Mg87 O104 2.079 . S
O88 Mg85 2.180 . S
O88 Mg87 2.099 . S
O88 C99 1.279 . S
O89 Mg85 2.117 . S
O89 C99 1.250 . S
O90 Mg87 2.079 . S
O90 C100 1.264 . S
O91 Mg87 2.072 . S
O91 C101 1.260 . S
Mg92 O93 2.180 . S
Mg92 O94 2.030 . S
Mg92 O95 1.990 . S
Mg92 O96 2.117 . S
O93 Mg87 2.099 . S
O93 Mg92 2.180 . S
O93 C102 1.279 . S
O94 Mg92 2.030 . S
O94 C100 1.248 . S
O95 Mg92 1.990 . S
O95 C101 1.253 . S
O96 Mg92 2.117 . S
O96 C102 1.250 . S
C97 O103 1.248 . S
C97 O104 1.264 . S
C98 O84 1.253 . S
C98 O86 1.260 . S
C99 O88 1.279 . S
C99 O89 1.250 . S
C100 O90 1.264 . S
C100 O94 1.248 . S
C101 O91 1.260 . S
C101 O95 1.253 . S
C102 O93 1.279 . S
C102 O96 1.250 . S
O103 Mg85 2.030 . S
O103 C97 1.248 . S
O104 Mg87 2.079 . S
O104 C97 1.264 . S
O105 Mg106 1.990 . S
O105 C119 1.253 . S
Mg106 O105 1.990 . S
Mg106 O109 2.180 . S
Mg106 O110 2.117 . S
Mg106 O124 2.030 . S
O107 Mg108 2.072 . S
O107 C119 1.260 . S
Mg108 O107 2.072 . S
Mg108 O109 2.099 . S
Mg108 O111 2.079 . S
Mg108 O112 2.072 . S
Mg108 O114 2.099 . S
Mg108 O125 2.079 . S
O109 Mg106 2.180 . S
O109 Mg108 2.099 . S
O109 C120 1.279 . S
O110 Mg106 2.117 . S
O110 C120 1.250 . S
O111 Mg108 2.079 . S
O111 C121 1.264 . S
O112 Mg108 2.072 . S
O112 C122 1.260 . S
Mg113 O114 2.180 . S
Mg113 O115 2.030 . S
Mg113 O116 1.990 . S
Mg113 O117 2.117 . S
O114 Mg108 2.099 . S
O114 Mg113 2.180 . S
O114 C123 1.279 . S
O115 Mg113 2.030 . S
O115 C121 1.248 . S
O116 Mg113 1.990 . S
O116 C122 1.253 . S
O117 Mg113 2.117 . S
O117 C123 1.250 . S
C118 O124 1.248 . S
C118 O125 1.264 . S
C119 O105 1.253 . S
C119 O107 1.260 . S
C120 O109 1.279 . S
C120 O110 1.250 . S
C121 O111 1.264 . S
C121 O115 1.248 . S
C122 O112 1.260 . S
C122 O116 1.253 . S
C123 O114 1.279 . S
C123 O117 1.250 . S
O124 Mg106 2.030 . S
O124 C118 1.248 . S
O125 Mg108 2.079 . S
O125 C118 1.264 . S
O126 Mg127 1.990 . S
O126 C140 1.253 . S
Mg127 O126 1.990 . S
Mg127 O130 2.180 . S
Mg127 O131 2.117 . S
Mg127 O145 2.030 . S
O128 Mg129 2.072 . S
O128 C140 1.260 . S
Mg129 O128 2.072 . S
Mg129 O130 2.099 . S
Mg129 O132 2.079 . S
Mg129 O133 2.072 . S
Mg129 O135 2.099 . S
Mg129 O146 2.079 . S
O130 Mg127 2.180 . S
O130 Mg129 2.099 . S
O130 C141 1.279 . S
O131 Mg127 2.117 . S
O131 C141 1.250 . S
O132 Mg129 2.079 . S
O132 C142 1.264 . S
O133 Mg129 2.072 . S
O133 C143 1.260 . S
Mg134 O135 2.180 . S
Mg134 O136 2.030 . S
Mg134 O137 1.990 . S
Mg134 O138 2.117 . S
O135 Mg129 2.099 . S
O135 Mg134 2.180 . S
O135 C144 1.279 . S
O136 Mg134 2.030 . S
O136 C142 1.248 . S
O137 Mg134 1.990 . S
O137 C143 1.253 . S
O138 Mg134 2.117 . S
O138 C144 1.250 . S
C139 O145 1.248 . S
C139 O146 1.264 . S
C140 O126 1.253 . S
C140 O128 1.260 . S
C141 O130 1.279 . S
C141 O131 1.250 . S
C142 O132 1.264 . S
C142 O136 1.248 . S
C143 O133 1.260 . S
C143 O137 1.253 . S
C144 O135 1.279 . S
C144 O138 1.250 . S
O145 Mg127 2.030 . S
O145 C139 1.248 . S
O146 Mg129 2.079 . S
O146 C139 1.264 . S
O147 Mg148 1.990 . S
O147 C161 1.253 . S
Mg148 O147 1.990 . S
Mg148 O151 2.180 . S
Mg148 O152 2.117 . S
Mg148 O166 2.030 . S
O149 Mg150 2.072 . S
O149 C161 1.260 . S
Mg150 O149 2.072 . S
Mg150 O151 2.099 . S
Mg150 O153 2.079 1_455 S
Mg150 O154 2.072 1_455 S
Mg150 O156 2.099 1_455 S
Mg150 O167 2.079 . S
O151 Mg148 2.180 . S
O151 Mg150 2.099 . S
O151 C162 1.279 . S
O152 Mg148 2.117 . S
O152 C162 1.250 . S
O153 Mg150 2.079 1_655 S
O153 C163 1.264 . S
O154 Mg150 2.072 1_655 S
O154 C164 1.260 . S
Mg155 O156 2.180 . S
Mg155 O157 2.030 . S
Mg155 O158 1.990 . S
Mg155 O159 2.117 . S
O156 Mg150 2.099 1_655 S
O156 Mg155 2.180 . S
O156 C165 1.279 . S
O157 Mg155 2.030 . S
O157 C163 1.248 . S
O158 Mg155 1.990 . S
O158 C164 1.253 . S
O159 Mg155 2.117 . S
O159 C165 1.250 . S
C160 O166 1.248 . S
C160 O167 1.264 . S
C161 O147 1.253 . S
C161 O149 1.260 . S
C162 O151 1.279 . S
C162 O152 1.250 . S
C163 O153 1.264 . S
C163 O157 1.248 . S
C164 O154 1.260 . S
C164 O158 1.253 . S
C165 O156 1.279 . S
C165 O159 1.250 . S
O166 Mg148 2.030 . S
O166 C160 1.248 . S
O167 Mg150 2.079 . S
O167 C160 1.264 . S
O168 Mg169 1.990 . S
O168 C182 1.253 . S
Mg169 O168 1.990 . S
Mg169 O172 2.180 . S
Mg169 O173 2.117 . S
Mg169 O187 2.030 1_554 S
O170 Mg171 2.072 1_554 S
O170 C182 1.260 . S
Mg171 O170 2.072 1_556 S
Mg171 O172 2.099 1_556 S
Mg171 O174 2.079 . S
Mg171 O175 2.072 1_556 S
Mg171 O177 2.099 . S
Mg171 O188 2.079 . S
O172 Mg169 2.180 . S
O172 Mg171 2.099 1_554 S
O172 C183 1.279 . S
O173 Mg169 2.117 . S
O173 C183 1.250 . S
O174 Mg171 2.079 . S
O174 C184 1.264 . S
O175 Mg171 2.072 1_554 S
O175 C185 1.260 . S
Mg176 O177 2.180 . S
Mg176 O178 2.030 . S
Mg176 O179 1.990 1_556 S
Mg176 O180 2.117 . S
O177 Mg171 2.099 . S
O177 Mg176 2.180 . S
O177 C186 1.279 . S
O178 Mg176 2.030 . S
O178 C184 1.248 . S
O179 Mg176 1.990 1_554 S
O179 C185 1.253 . S
O180 Mg176 2.117 . S
O180 C186 1.250 . S
C181 O187 1.248 . S
C181 O188 1.264 . S
C182 O168 1.253 . S
C182 O170 1.260 . S
C183 O172 1.279 . S
C183 O173 1.250 . S
C184 O174 1.264 . S
C184 O178 1.248 . S
C185 O175 1.260 . S
C185 O179 1.253 . S
C186 O177 1.279 . S
C186 O180 1.250 . S
O187 Mg169 2.030 1_556 S
O187 C181 1.248 . S
O188 Mg171 2.079 . S
O188 C181 1.264 . S
O189 Mg190 1.990 . S
O189 C203 1.253 . S
Mg190 O189 1.990 . S
Mg190 O193 2.180 . S
Mg190 O194 2.117 . S
Mg190 O208 2.030 1_565 S
O191 Mg192 2.073 1_565 S
O191 C203 1.259 . S
Mg192 O191 2.073 1_545 S
Mg192 O193 2.099 1_545 S
Mg192 O195 2.079 . S
Mg192 O196 2.072 1_545 S
Mg192 O198 2.099 . S
Mg192 O209 2.079 . S
O193 Mg190 2.180 . S
O193 Mg192 2.099 1_565 S
O193 C204 1.279 . S
O194 Mg190 2.117 . S
O194 C204 1.250 . S
O195 Mg192 2.079 . S
O195 C205 1.264 . S
O196 Mg192 2.072 1_565 S
O196 C206 1.260 . S
Mg197 O198 2.180 . S
Mg197 O199 2.030 . S
Mg197 O200 1.990 1_545 S
Mg197 O201 2.117 . S
O198 Mg192 2.099 . S
O198 Mg197 2.180 . S
O198 C207 1.279 . S
O199 Mg197 2.030 . S
O199 C205 1.248 . S
O200 Mg197 1.990 1_565 S
O200 C206 1.253 . S
O201 Mg197 2.117 . S
O201 C207 1.250 . S
C202 O208 1.248 . S
C202 O209 1.264 . S
C203 O189 1.253 . S
C203 O191 1.259 . S
C204 O193 1.279 . S
C204 O194 1.250 . S
C205 O195 1.264 . S
C205 O199 1.248 . S
C206 O196 1.260 . S
C206 O200 1.253 . S
C207 O198 1.279 . S
C207 O201 1.250 . S
O208 Mg190 2.030 1_545 S
O208 C202 1.248 . S
O209 Mg192 2.079 . S
O209 C202 1.264 . S
O210 Mg211 1.990 . S
O210 C224 1.253 . S
Mg211 O210 1.990 . S
Mg211 O214 2.180 . S
Mg211 O215 2.117 . S
Mg211 O229 2.030 . S
O212 Mg213 2.072 . S
O212 C224 1.260 . S
Mg213 O212 2.072 . S
Mg213 O214 2.099 . S
Mg213 O216 2.079 . S
Mg213 O217 2.072 . S
Mg213 O219 2.099 . S
Mg213 O230 2.079 . S
O214 Mg211 2.180 . S
O214 Mg213 2.099 . S
O214 C225 1.279 . S
O215 Mg211 2.117 . S
O215 C225 1.250 . S
O216 Mg213 2.079 . S
O216 C226 1.264 . S
O217 Mg213 2.072 . S
O217 C227 1.260 . S
Mg218 O219 2.180 . S
Mg218 O220 2.030 . S
Mg218 O221 1.990 . S
Mg218 O222 2.117 . S
O219 Mg213 2.099 . S
O219 Mg218 2.180 . S
O219 C228 1.279 . S
O220 Mg218 2.030 . S
O220 C226 1.248 . S
O221 Mg218 1.990 . S
O221 C227 1.253 . S
O222 Mg218 2.117 . S
O222 C228 1.250 . S
C223 O229 1.248 . S
C223 O230 1.264 . S
C224 O210 1.253 . S
C224 O212 1.260 . S
C225 O214 1.279 . S
C225 O215 1.250 . S
C226 O216 1.264 . S
C226 O220 1.248 . S
C227 O217 1.260 . S
C227 O221 1.253 . S
C228 O219 1.279 . S
C228 O222 1.250 . S
O229 Mg211 2.030 . S
O229 C223 1.248 . S
O230 Mg213 2.079 . S
O230 C223 1.264 . S
O231 Mg232 1.990 . S
O231 C245 1.253 . S
Mg232 O231 1.990 . S
Mg232 O235 2.180 . S
Mg232 O236 2.117 . S
Mg232 O250 2.030 1_455 S
O233 Mg234 2.077 . S
O233 C245 1.260 . S
Mg234 O233 2.077 . S
Mg234 O235 2.111 . S
Mg234 O237 2.072 1_455 S
Mg234 O238 2.090 . S
Mg234 O240 2.086 1_455 S
Mg234 O251 2.063 1_455 S
O235 Mg232 2.180 . S
O235 Mg234 2.111 . S
O235 C246 1.279 . S
O236 Mg232 2.117 . S
O236 C246 1.250 . S
O237 Mg234 2.072 1_655 S
O237 C247 1.264 . S
O238 Mg234 2.090 . S
O238 C248 1.260 . S
Mg239 O240 2.180 . S
Mg239 O241 2.030 . S
Mg239 O242 1.990 1_655 S
Mg239 O243 2.117 . S
O240 Mg234 2.086 1_655 S
O240 Mg239 2.180 . S
O240 C249 1.279 . S
O241 Mg239 2.030 . S
O241 C247 1.248 . S
O242 Mg239 1.990 1_455 S
O242 C248 1.253 . S
O243 Mg239 2.117 . S
O243 C249 1.250 . S
C244 O250 1.248 . S
C244 O251 1.264 . S
C245 O231 1.253 . S
C245 O233 1.260 . S
C246 O235 1.279 . S
C246 O236 1.250 . S
C247 O237 1.264 . S
C247 O241 1.248 . S
C248 O238 1.260 . S
C248 O242 1.253 . S
C249 O240 1.279 . S
C249 O243 1.250 . S
O250 Mg232 2.030 1_655 S
O250 C244 1.248 . S
O251 Mg234 2.063 1_655 S
O251 C244 1.264 . S
O252 Mg253 1.990 . S
O252 C266 1.253 . S
Mg253 O252 1.990 . S
Mg253 O256 2.180 . S
Mg253 O257 2.117 . S
Mg253 O271 2.030 . S
O254 Mg255 2.072 . S
O254 C266 1.260 . S
Mg255 O254 2.072 . S
Mg255 O256 2.099 . S
Mg255 O258 2.079 . S
Mg255 O259 2.072 . S
Mg255 O261 2.099 . S
Mg255 O272 2.079 . S
O256 Mg253 2.180 . S
O256 Mg255 2.099 . S
O256 C267 1.279 . S
O257 Mg253 2.117 . S
O257 C267 1.250 . S
O258 Mg255 2.079 . S
O258 C268 1.264 . S
O259 Mg255 2.072 . S
O259 C269 1.260 . S
Mg260 O261 2.180 . S
Mg260 O262 2.030 . S
Mg260 O263 1.990 . S
Mg260 O264 2.117 . S
O261 Mg255 2.099 . S
O261 Mg260 2.180 . S
O261 C270 1.279 . S
O262 Mg260 2.030 . S
O262 C268 1.248 . S
O263 Mg260 1.990 . S
O263 C269 1.253 . S
O264 Mg260 2.117 . S
O264 C270 1.250 . S
C265 O271 1.248 . S
C265 O272 1.264 . S
C266 O252 1.253 . S
C266 O254 1.260 . S
C267 O256 1.279 . S
C267 O257 1.250 . S
C268 O258 1.264 . S
C268 O262 1.248 . S
C269 O259 1.260 . S
C269 O263 1.253 . S
C270 O261 1.279 . S
C270 O264 1.250 . S
O271 Mg253 2.030 . S
O271 C265 1.248 . S
O272 Mg255 2.079 . S
O272 C265 1.264 . S
O273 Mg274 1.990 . S
O273 C287 1.253 . S
Mg274 O273 1.990 . S
Mg274 O277 2.180 . S
Mg274 O278 2.117 . S
Mg274 O292 2.030 1_556 S
O275 Mg276 2.072 1_556 S
O275 C287 1.260 . S
Mg276 O275 2.072 1_554 S
Mg276 O277 2.099 1_554 S
Mg276 O279 2.079 . S
Mg276 O280 2.072 1_554 S
Mg276 O282 2.099 . S
Mg276 O293 2.079 . S
O277 Mg274 2.180 . S
O277 Mg276 2.099 1_556 S
O277 C288 1.279 . S
O278 Mg274 2.117 . S
O278 C288 1.250 . S
O279 Mg276 2.079 . S
O279 C289 1.264 . S
O280 Mg276 2.072 1_556 S
O280 C290 1.260 . S
Mg281 O282 2.180 . S
Mg281 O283 2.030 . S
Mg281 O284 1.990 1_554 S
Mg281 O285 2.117 . S
O282 Mg276 2.099 . S
O282 Mg281 2.180 . S
O282 C291 1.279 . S
O283 Mg281 2.030 . S
O283 C289 1.248 . S
O284 Mg281 1.990 1_556 S
O284 C290 1.253 . S
O285 Mg281 2.117 . S
O285 C291 1.250 . S
C286 O292 1.248 . S
C286 O293 1.264 . S
C287 O273 1.253 . S
C287 O275 1.260 . S
C288 O277 1.279 . S
C288 O278 1.250 . S
C289 O279 1.264 . S
C289 O283 1.248 . S
C290 O280 1.260 . S
C290 O284 1.253 . S
C291 O282 1.279 . S
C291 O285 1.250 . S
O292 Mg274 2.030 1_554 S
O292 C286 1.248 . S
O293 Mg276 2.079 . S
O293 C286 1.264 . S
O294 Mg295 1.990 . S
O294 C308 1.253 . S
Mg295 O294 1.990 . S
Mg295 O298 2.180 . S
Mg295 O299 2.117 . S
Mg295 O313 2.030 1_545 S
O296 Mg297 2.072 1_545 S
O296 C308 1.260 . S
Mg297 O296 2.072 1_565 S
Mg297 O298 2.099 1_565 S
Mg297 O300 2.079 . S
Mg297 O301 2.072 1_565 S
Mg297 O303 2.099 . S
Mg297 O314 2.079 . S
O298 Mg295 2.180 . S
O298 Mg297 2.099 1_545 S
O298 C309 1.279 . S
O299 Mg295 2.117 . S
O299 C309 1.250 . S
O300 Mg297 2.079 . S
O300 C310 1.264 . S
O301 Mg297 2.072 1_545 S
O301 C311 1.260 . S
Mg302 O303 2.180 . S
Mg302 O304 2.030 . S
Mg302 O305 1.990 1_565 S
Mg302 O306 2.117 . S
O303 Mg297 2.099 . S
O303 Mg302 2.180 . S
O303 C312 1.279 . S
O304 Mg302 2.030 . S
O304 C310 1.248 . S
O305 Mg302 1.990 1_545 S
O305 C311 1.253 . S
O306 Mg302 2.117 . S
O306 C312 1.250 . S
C307 O313 1.248 . S
C307 O314 1.264 . S
C308 O294 1.253 . S
C308 O296 1.260 . S
C309 O298 1.279 . S
C309 O299 1.250 . S
C310 O300 1.264 . S
C310 O304 1.248 . S
C311 O301 1.260 . S
C311 O305 1.253 . S
C312 O303 1.279 . S
C312 O306 1.250 . S
O313 Mg295 2.030 1_565 S
O313 C307 1.248 . S
O314 Mg297 2.079 . S
O314 C307 1.264 . S
O315 Mg316 1.990 1_554 S
O315 C329 1.253 . S
Mg316 O315 1.990 1_556 S
Mg316 O319 2.180 . S
Mg316 O320 2.117 . S
Mg316 O334 2.030 . S
O317 Mg318 2.056 1_554 S
O317 C329 1.260 . S
Mg318 O317 2.056 1_556 S
Mg318 O319 2.111 . S
Mg318 O321 2.094 . S
Mg318 O322 2.069 1_556 S
Mg318 O324 2.087 1_556 S
Mg318 O335 2.084 . S
O319 Mg316 2.180 . S
O319 Mg318 2.111 . S
O319 C330 1.279 . S
O320 Mg316 2.117 . S
O320 C330 1.250 . S
O321 Mg318 2.094 . S
O321 C331 1.264 . S
O322 Mg318 2.069 1_554 S
O322 C332 1.260 . S
Mg323 O324 2.180 . S
Mg323 O325 2.030 1_554 S
Mg323 O326 1.990 . S
Mg323 O327 2.117 . S
O324 Mg318 2.087 1_554 S
O324 Mg323 2.180 . S
O324 C333 1.279 . S
O325 Mg323 2.030 1_556 S
O325 C331 1.248 . S
O326 Mg323 1.990 . S
O326 C332 1.253 . S
O327 Mg323 2.117 . S
O327 C333 1.250 . S
C328 O334 1.248 . S
C328 O335 1.264 . S
C329 O315 1.253 . S
C329 O317 1.260 . S
C330 O319 1.279 . S
C330 O320 1.250 . S
C331 O321 1.264 . S
C331 O325 1.248 . S
C332 O322 1.260 . S
C332 O326 1.253 . S
C333 O324 1.279 . S
C333 O327 1.250 . S
O334 Mg316 2.030 . S
O334 C328 1.248 . S
O335 Mg318 2.084 . S
O335 C328 1.264 . S
C336 C337 1.349 1_455 S
C336 C338 1.327 . S
C336 H361 0.950 . S
C337 C336 1.349 1_655 S
C337 C353 1.349 . S
C338 C336 1.327 . S
C338 C357 1.429 1_455 S
C338 H362 0.950 . S
C339 C356 1.574 . S
C339 C358 1.368 . S
C339 H363 0.949 . S
H340 C344 0.949 . S
C341 C342 1.349 . S
C341 C343 1.327 . S
C341 H364 0.950 . S
C342 C341 1.349 . S
C342 C354 1.349 1_655 S
C343 C341 1.327 . S
C343 C359 1.429 . S
C343 H365 0.950 . S
C344 H340 0.949 . S
C344 C352 1.574 . S
C344 C360 1.368 1_455 S
H345 C353 0.950 . S
H346 C351 0.950 . S
H347 C352 0.949 . S
H348 C354 0.950 . S
H349 C355 0.950 . S
H350 C356 0.949 . S
C351 H346 0.950 . S
C351 C353 1.327 . S
C351 C357 1.429 . S
C352 C344 1.574 . S
C352 H347 0.949 . S
C352 C358 1.368 1_455 S
C353 C337 1.349 . S
C353 H345 0.950 . S
C353 C351 1.327 . S
C354 C342 1.349 1_455 S
C354 H348 0.950 . S
C354 C355 1.327 . S
C355 H349 0.950 . S
C355 C354 1.327 . S
C355 C359 1.429 1_455 S
C356 C339 1.574 . S
C356 H350 0.949 . S
C356 C360 1.368 . S
C357 C338 1.429 1_655 S
C357 C351 1.429 . S
C357 C358 1.523 . S
C358 C339 1.368 . S
C358 C352 1.368 1_655 S
C358 C357 1.523 . S
C359 C343 1.429 . S
C359 C355 1.429 1_655 S
C359 C360 1.523 . S
C360 C344 1.368 1_655 S
C360 C356 1.368 . S
C360 C359 1.523 . S
H361 C336 0.950 . S
H362 C338 0.950 . S
H363 C339 0.949 . S
H364 C341 0.950 . S
H365 C343 0.950 . S
C366 C367 1.349 . S
C366 C368 1.327 . S
C366 H391 0.950 . S
C367 C366 1.349 . S
C367 C383 1.349 . S
C368 C366 1.327 . S
C368 C387 1.429 . S
C368 H392 0.950 . S
C369 C386 1.574 . S
C369 C388 1.368 . S
C369 H393 0.949 . S
H370 C374 0.949 . S
C371 C372 1.349 . S
C371 C373 1.327 . S
C371 H394 0.950 . S
C372 C371 1.349 . S
C372 C384 1.349 . S
C373 C371 1.327 . S
C373 C389 1.429 . S
C373 H395 0.950 . S
C374 H370 0.949 . S
C374 C382 1.574 . S
C374 C390 1.368 . S
H375 C383 0.950 . S
H376 C381 0.950 . S
H377 C382 0.949 . S
H378 C384 0.950 . S
H379 C385 0.950 . S
H380 C386 0.949 . S
C381 H376 0.950 . S
C381 C383 1.327 . S
C381 C387 1.429 . S
C382 C374 1.574 . S
C382 H377 0.949 . S
C382 C388 1.368 . S
C383 C367 1.349 . S
C383 H375 0.950 . S
C383 C381 1.327 . S
C384 C372 1.349 . S
C384 H378 0.950 . S
C384 C385 1.327 . S
C385 H379 0.950 . S
C385 C384 1.327 . S
C385 C389 1.429 . S
C386 C369 1.574 . S
C386 H380 0.949 . S
C386 C390 1.368 . S
C387 C368 1.429 . S
C387 C381 1.429 . S
C387 C388 1.523 . S
C388 C369 1.368 . S
C388 C382 1.368 . S
C388 C387 1.523 . S
C389 C373 1.429 . S
C389 C385 1.429 . S
C389 C390 1.523 . S
C390 C374 1.368 . S
C390 C386 1.368 . S
C390 C389 1.523 . S
H391 C366 0.950 . S
H392 C368 0.950 . S
H393 C369 0.949 . S
H394 C371 0.950 . S
H395 C373 0.950 . S
C396 C397 1.349 . S
C396 C398 1.327 . S
C396 H421 0.950 . S
C397 C396 1.349 . S
C397 C413 1.349 . S
C398 C396 1.327 . S
C398 C417 1.429 . S
C398 H422 0.950 . S
C399 C416 1.574 . S
C399 C418 1.368 . S
C399 H423 0.949 . S
H400 C404 0.949 . S
C401 C402 1.349 . S
C401 C403 1.327 . S
C401 H424 0.950 . S
C402 C401 1.349 . S
C402 C414 1.349 . S
C403 C401 1.327 . S
C403 C419 1.429 . S
C403 H425 0.950 . S
C404 H400 0.949 . S
C404 C412 1.574 . S
C404 C420 1.368 . S
H405 C413 0.950 . S
H406 C411 0.950 . S
H407 C412 0.949 . S
H408 C414 0.950 . S
H409 C415 0.950 . S
H410 C416 0.949 . S
C411 H406 0.950 . S
C411 C413 1.327 . S
C411 C417 1.429 . S
C412 C404 1.574 . S
C412 H407 0.949 . S
C412 C418 1.368 . S
C413 C397 1.349 . S
C413 H405 0.950 . S
C413 C411 1.327 . S
C414 C402 1.349 . S
C414 H408 0.950 . S
C414 C415 1.327 . S
C415 H409 0.950 . S
C415 C414 1.327 . S
C415 C419 1.429 . S
C416 C399 1.574 . S
C416 H410 0.949 . S
C416 C420 1.368 . S
C417 C398 1.429 . S
C417 C411 1.429 . S
C417 C418 1.523 . S
C418 C399 1.368 . S
C418 C412 1.368 . S
C418 C417 1.523 . S
C419 C403 1.429 . S
C419 C415 1.429 . S
C419 C420 1.523 . S
C420 C404 1.368 . S
C420 C416 1.368 . S
C420 C419 1.523 . S
H421 C396 0.950 . S
H422 C398 0.950 . S
H423 C399 0.949 . S
H424 C401 0.950 . S
H425 C403 0.950 . S
C426 C427 1.349 . S
C426 C428 1.327 . S
C426 H451 0.950 . S
C427 C426 1.349 . S
C427 C443 1.337 1_545 S
C428 C426 1.327 . S
C428 C447 1.429 . S
C428 H452 0.950 . S
C429 C446 1.574 . S
C429 C448 1.368 1_565 S
C429 H453 0.949 . S
H430 C434 0.949 . S
C431 C432 1.360 . S
C431 C433 1.327 1_545 S
C431 H454 0.939 1_545 S
C432 C431 1.360 . S
C432 C444 1.349 . S
C433 C431 1.327 1_565 S
C433 C449 1.424 1_565 S
C433 H455 0.955 . S
C434 H430 0.949 . S
C434 C442 1.574 . S
C434 C450 1.368 . S
H435 C443 0.961 . S
H436 C441 0.977 . S
H437 C442 0.949 . S
H438 C444 0.950 . S
H439 C445 0.950 . S
H440 C446 0.949 . S
C441 H436 0.977 . S
C441 C443 1.327 . S
C441 C447 1.403 1_565 S
C442 C434 1.574 . S
C442 H437 0.949 . S
C442 C448 1.368 . S
C443 C427 1.337 1_565 S
C443 H435 0.961 . S
C443 C441 1.327 . S
C444 C432 1.349 . S
C444 H438 0.950 . S
C444 C445 1.327 . S
C445 H439 0.950 . S
C445 C444 1.327 . S
C445 C449 1.429 . S
C446 C429 1.574 . S
C446 H440 0.949 . S
C446 C450 1.368 1_565 S
C447 C428 1.429 . S
C447 C441 1.403 1_545 S
C447 C448 1.523 . S
C448 C429 1.368 1_545 S
C448 C442 1.368 . S
C448 C447 1.523 . S
C449 C433 1.424 1_545 S
C449 C445 1.429 . S
C449 C450 1.523 . S
C450 C434 1.368 . S
C450 C446 1.368 1_545 S
C450 C449 1.523 . S
H451 C426 0.950 . S
H452 C428 0.950 . S
H453 C429 0.949 . S
H454 C431 0.939 1_565 S
H455 C433 0.955 . S
C456 C457 1.349 1_545 S
C456 C458 1.327 . S
C456 H481 0.950 . S
C457 C456 1.349 1_565 S
C457 C473 1.349 . S
C458 C456 1.327 . S
C458 C477 1.429 1_545 S
C458 H482 0.950 . S
C459 C476 1.574 . S
C459 C478 1.368 . S
C459 H483 0.949 . S
H460 C464 0.949 . S
C461 C462 1.349 . S
C461 C463 1.327 . S
C461 H484 0.950 . S
C462 C461 1.349 . S
C462 C474 1.349 1_565 S
C463 C461 1.327 . S
C463 C479 1.429 . S
C463 H485 0.950 . S
C464 H460 0.949 . S
C464 C472 1.574 . S
C464 C480 1.368 1_545 S
H465 C473 0.950 . S
H466 C471 0.950 . S
H467 C472 0.949 . S
H468 C474 0.950 . S
H469 C475 0.950 . S
H470 C476 0.949 . S
C471 H466 0.950 . S
C471 C473 1.327 . S
C471 C477 1.429 . S
C472 C464 1.574 . S
C472 H467 0.949 . S
C472 C478 1.368 1_545 S
C473 C457 1.349 . S
C473 H465 0.950 . S
C473 C471 1.327 . S
C474 C462 1.349 1_545 S
C474 H468 0.950 . S
C474 C475 1.327 . S
C475 H469 0.950 . S
C475 C474 1.327 . S
C475 C479 1.429 1_545 S
C476 C459 1.574 . S
C476 H470 0.949 . S
C476 C480 1.368 . S
C477 C458 1.429 1_565 S
C477 C471 1.429 . S
C477 C478 1.523 . S
C478 C459 1.368 . S
C478 C472 1.368 1_565 S
C478 C477 1.523 . S
C479 C463 1.429 . S
C479 C475 1.429 1_565 S
C479 C480 1.523 . S
C480 C464 1.368 1_565 S
C480 C476 1.368 . S
C480 C479 1.523 . S
H481 C456 0.950 . S
H482 C458 0.950 . S
H483 C459 0.949 . S
H484 C461 0.950 . S
H485 C463 0.950 . S
C486 C487 1.349 . S
C486 C488 1.327 . S
C486 H511 0.950 . S
C487 C486 1.349 . S
C487 C503 1.349 . S
C488 C486 1.327 . S
C488 C507 1.429 . S
C488 H512 0.950 . S
C489 C506 1.574 . S
C489 C508 1.368 . S
C489 H513 0.949 . S
H490 C494 0.949 . S
C491 C492 1.349 . S
C491 C493 1.327 . S
C491 H514 0.950 . S
C492 C491 1.349 . S
C492 C504 1.349 . S
C493 C491 1.327 . S
C493 C509 1.429 . S
C493 H515 0.950 . S
C494 H490 0.949 . S
C494 C502 1.574 . S
C494 C510 1.368 . S
H495 C503 0.950 . S
H496 C501 0.950 . S
H497 C502 0.949 . S
H498 C504 0.950 . S
H499 C505 0.950 . S
H500 C506 0.949 . S
C501 H496 0.950 . S
C501 C503 1.327 . S
C501 C507 1.429 . S
C502 C494 1.574 . S
C502 H497 0.949 . S
C502 C508 1.368 . S
C503 C487 1.349 . S
C503 H495 0.950 . S
C503 C501 1.327 . S
C504 C492 1.349 . S
C504 H498 0.950 . S
C504 C505 1.327 . S
C505 H499 0.950 . S
C505 C504 1.327 . S
C505 C509 1.429 . S
C506 C489 1.574 . S
C506 H500 0.949 . S
C506 C510 1.368 . S
C507 C488 1.429 . S
C507 C501 1.429 . S
C507 C508 1.523 . S
C508 C489 1.368 . S
C508 C502 1.368 . S
C508 C507 1.523 . S
C509 C493 1.429 . S
C509 C505 1.429 . S
C509 C510 1.523 . S
C510 C494 1.368 . S
C510 C506 1.368 . S
C510 C509 1.523 . S
H511 C486 0.950 . S
H512 C488 0.950 . S
H513 C489 0.949 . S
H514 C491 0.950 . S
H515 C493 0.950 . S
C516 C517 1.349 . S
C516 C518 1.327 . S
C516 H541 0.950 . S
C517 C516 1.349 . S
C517 C533 1.349 . S
C518 C516 1.327 . S
C518 C537 1.429 . S
C518 H542 0.950 . S
C519 C536 1.574 . S
C519 C538 1.368 . S
C519 H543 0.949 . S
H520 C524 0.949 . S
C521 C522 1.349 . S
C521 C523 1.327 . S
C521 H544 0.950 . S
C522 C521 1.349 . S
C522 C534 1.349 . S
C523 C521 1.327 . S
C523 C539 1.429 . S
C523 H545 0.950 . S
C524 H520 0.949 . S
C524 C532 1.574 . S
C524 C540 1.368 . S
H525 C533 0.950 . S
H526 C531 0.950 . S
H527 C532 0.949 . S
H528 C534 0.950 . S
H529 C535 0.950 . S
H530 C536 0.949 . S
C531 H526 0.950 . S
C531 C533 1.327 . S
C531 C537 1.429 . S
C532 C524 1.574 . S
C532 H527 0.949 . S
C532 C538 1.368 . S
C533 C517 1.349 . S
C533 H525 0.950 . S
C533 C531 1.327 . S
C534 C522 1.349 . S
C534 H528 0.950 . S
C534 C535 1.327 . S
C535 H529 0.950 . S
C535 C534 1.327 . S
C535 C539 1.429 . S
C536 C519 1.574 . S
C536 H530 0.949 . S
C536 C540 1.368 . S
C537 C518 1.429 . S
C537 C531 1.429 . S
C537 C538 1.523 . S
C538 C519 1.368 . S
C538 C532 1.368 . S
C538 C537 1.523 . S
C539 C523 1.429 . S
C539 C535 1.429 . S
C539 C540 1.523 . S
C540 C524 1.368 . S
C540 C536 1.368 . S
C540 C539 1.523 . S
H541 C516 0.950 . S
H542 C518 0.950 . S
H543 C519 0.949 . S
H544 C521 0.950 . S
H545 C523 0.950 . S
C546 C547 1.349 . S
C546 C548 1.327 . S
C546 H571 0.950 . S
C547 C546 1.349 . S
C547 C563 1.349 . S
C548 C546 1.327 . S
C548 C567 1.429 . S
C548 H572 0.950 . S
C549 C566 1.574 . S
C549 C568 1.368 . S
C549 H573 0.949 . S
H550 C554 0.949 . S
C551 C552 1.349 . S
C551 C553 1.327 . S
C551 H574 0.950 . S
C552 C551 1.349 . S
C552 C564 1.349 . S
C553 C551 1.327 . S
C553 C569 1.429 . S
C553 H575 0.950 . S
C554 H550 0.949 . S
C554 C562 1.574 . S
C554 C570 1.368 . S
H555 C563 0.950 . S
H556 C561 0.950 . S
H557 C562 0.949 . S
H558 C564 0.950 . S
H559 C565 0.950 . S
H560 C566 0.949 . S
C561 H556 0.950 . S
C561 C563 1.327 . S
C561 C567 1.429 . S
C562 C554 1.574 . S
C562 H557 0.949 . S
C562 C568 1.368 . S
C563 C547 1.349 . S
C563 H555 0.950 . S
C563 C561 1.327 . S
C564 C552 1.349 . S
C564 H558 0.950 . S
C564 C565 1.327 . S
C565 H559 0.950 . S
C565 C564 1.327 . S
C565 C569 1.429 . S
C566 C549 1.574 . S
C566 H560 0.949 . S
C566 C570 1.368 . S
C567 C548 1.429 . S
C567 C561 1.429 . S
C567 C568 1.523 . S
C568 C549 1.368 . S
C568 C562 1.368 . S
C568 C567 1.523 . S
C569 C553 1.429 . S
C569 C565 1.429 . S
C569 C570 1.523 . S
C570 C554 1.368 . S
C570 C566 1.368 . S
C570 C569 1.523 . S
H571 C546 0.950 . S
H572 C548 0.950 . S
H573 C549 0.949 . S
H574 C551 0.950 . S
H575 C553 0.950 . S
C576 C577 1.349 . S
C576 C578 1.327 . S
C576 H601 0.950 . S
C577 C576 1.349 . S
C577 C593 1.349 . S
C578 C576 1.327 . S
C578 C597 1.429 . S
C578 H602 0.950 . S
C579 C596 1.574 . S
C579 C598 1.368 . S
C579 H603 0.949 . S
H580 C584 0.949 . S
C581 C582 1.349 . S
C581 C583 1.327 . S
C581 H604 0.950 . S
C582 C581 1.349 . S
C582 C594 1.349 . S
C583 C581 1.327 . S
C583 C599 1.429 . S
C583 H605 0.950 . S
C584 H580 0.949 . S
C584 C592 1.574 . S
C584 C600 1.368 . S
H585 C593 0.950 . S
H586 C591 0.950 . S
H587 C592 0.949 . S
H588 C594 0.950 . S
H589 C595 0.950 . S
H590 C596 0.949 . S
C591 H586 0.950 . S
C591 C593 1.327 . S
C591 C597 1.429 . S
C592 C584 1.574 . S
C592 H587 0.949 . S
C592 C598 1.368 . S
C593 C577 1.349 . S
C593 H585 0.950 . S
C593 C591 1.327 . S
C594 C582 1.349 . S
C594 H588 0.950 . S
C594 C595 1.327 . S
C595 H589 0.950 . S
C595 C594 1.327 . S
C595 C599 1.429 . S
C596 C579 1.574 . S
C596 H590 0.949 . S
C596 C600 1.368 . S
C597 C578 1.429 . S
C597 C591 1.429 . S
C597 C598 1.523 . S
C598 C579 1.368 . S
C598 C592 1.368 . S
C598 C597 1.523 . S
C599 C583 1.429 . S
C599 C595 1.429 . S
C599 C600 1.523 . S
C600 C584 1.368 . S
C600 C596 1.368 . S
C600 C599 1.523 . S
H601 C576 0.950 . S
H602 C578 0.950 . S
H603 C579 0.949 . S
H604 C581 0.950 . S
H605 C583 0.950 . S
C606 C607 1.349 . S
C606 C608 1.327 . S
C606 H631 0.950 . S
C607 C606 1.349 . S
C607 C623 1.349 . S
C608 C606 1.327 . S
C608 C627 1.429 . S
C608 H632 0.950 . S
C609 C626 1.574 . S
C609 C628 1.368 . S
C609 H633 0.949 . S
H610 C614 0.949 . S
C611 C612 1.349 . S
C611 C613 1.327 . S
C611 H634 0.950 . S
C612 C611 1.349 . S
C612 C624 1.349 . S
C613 C611 1.327 . S
C613 C629 1.429 . S
C613 H635 0.950 . S
C614 H610 0.949 . S
C614 C622 1.574 . S
C614 C630 1.368 . S
H615 C623 0.950 . S
H616 C621 0.950 . S
H617 C622 0.949 . S
H618 C624 0.950 . S
H619 C625 0.950 . S
H620 C626 0.949 . S
C621 H616 0.950 . S
C621 C623 1.327 . S
C621 C627 1.429 . S
C622 C614 1.574 . S
C622 H617 0.949 . S
C622 C628 1.368 . S
C623 C607 1.349 . S
C623 H615 0.950 . S
C623 C621 1.327 . S
C624 C612 1.349 . S
C624 H618 0.950 . S
C624 C625 1.327 . S
C625 H619 0.950 . S
C625 C624 1.327 . S
C625 C629 1.429 . S
C626 C609 1.574 . S
C626 H620 0.949 . S
C626 C630 1.368 . S
C627 C608 1.429 . S
C627 C621 1.429 . S
C627 C628 1.523 . S
C628 C609 1.368 . S
C628 C622 1.368 . S
C628 C627 1.523 . S
C629 C613 1.429 . S
C629 C625 1.429 . S
C629 C630 1.523 . S
C630 C614 1.368 . S
C630 C626 1.368 . S
C630 C629 1.523 . S
H631 C606 0.950 . S
H632 C608 0.950 . S
H633 C609 0.949 . S
H634 C611 0.950 . S
H635 C613 0.950 . S
C636 C637 1.349 1_545 S
C636 C638 1.327 . S
C636 H661 0.950 . S
C637 C636 1.349 1_565 S
C637 C653 1.349 . S
C638 C636 1.327 . S
C638 C657 1.429 1_545 S
C638 H662 0.950 . S
C639 C656 1.574 . S
C639 C658 1.368 . S
C639 H663 0.949 . S
H640 C644 0.949 . S
C641 C642 1.349 . S
C641 C643 1.327 . S
C641 H664 0.950 . S
C642 C641 1.349 . S
C642 C654 1.349 1_565 S
C643 C641 1.327 . S
C643 C659 1.429 . S
C643 H665 0.950 . S
C644 H640 0.949 . S
C644 C652 1.574 . S
C644 C660 1.368 1_545 S
H645 C653 0.950 . S
H646 C651 0.950 . S
H647 C652 0.949 . S
H648 C654 0.950 . S
H649 C655 0.950 . S
H650 C656 0.949 . S
C651 H646 0.950 . S
C651 C653 1.327 . S
C651 C657 1.429 . S
C652 C644 1.574 . S
C652 H647 0.949 . S
C652 C658 1.368 1_545 S
C653 C637 1.349 . S
C653 H645 0.950 . S
C653 C651 1.327 . S
C654 C642 1.349 1_545 S
C654 H648 0.950 . S
C654 C655 1.327 . S
C655 H649 0.950 . S
C655 C654 1.327 . S
C655 C659 1.429 1_545 S
C656 C639 1.574 . S
C656 H650 0.949 . S
C656 C660 1.368 . S
C657 C638 1.429 1_565 S
C657 C651 1.429 . S
C657 C658 1.523 . S
C658 C639 1.368 . S
C658 C652 1.368 1_565 S
C658 C657 1.523 . S
C659 C643 1.429 . S
C659 C655 1.429 1_565 S
C659 C660 1.523 . S
C660 C644 1.368 1_565 S
C660 C656 1.368 . S
C660 C659 1.523 . S
H661 C636 0.950 . S
H662 C638 0.950 . S
H663 C639 0.949 . S
H664 C641 0.950 . S
H665 C643 0.950 . S
C666 C667 1.349 . S
C666 C668 1.327 . S
C666 H691 0.950 . S
C667 C666 1.349 . S
C667 C683 1.349 . S
C668 C666 1.327 . S
C668 C687 1.429 . S
C668 H692 0.950 . S
C669 C686 1.574 . S
C669 C688 1.368 . S
C669 H693 0.949 . S
H670 C674 0.949 . S
C671 C672 1.349 . S
C671 C673 1.327 . S
C671 H694 0.950 . S
C672 C671 1.349 . S
C672 C684 1.349 . S
C673 C671 1.327 . S
C673 C689 1.429 . S
C673 H695 0.950 . S
C674 H670 0.949 . S
C674 C682 1.574 . S
C674 C690 1.368 . S
H675 C683 0.950 . S
H676 C681 0.950 . S
H677 C682 0.949 . S
H678 C684 0.950 . S
H679 C685 0.950 . S
H680 C686 0.949 . S
C681 H676 0.950 . S
C681 C683 1.327 . S
C681 C687 1.429 . S
C682 C674 1.574 . S
C682 H677 0.949 . S
C682 C688 1.368 . S
C683 C667 1.349 . S
C683 H675 0.950 . S
C683 C681 1.327 . S
C684 C672 1.349 . S
C684 H678 0.950 . S
C684 C685 1.327 . S
C685 H679 0.950 . S
C685 C684 1.327 . S
C685 C689 1.429 . S
C686 C669 1.574 . S
C686 H680 0.949 . S
C686 C690 1.368 . S
C687 C668 1.429 . S
C687 C681 1.429 . S
C687 C688 1.523 . S
C688 C669 1.368 . S
C688 C682 1.368 . S
C688 C687 1.523 . S
C689 C673 1.429 . S
C689 C685 1.429 . S
C689 C690 1.523 . S
C690 C674 1.368 . S
C690 C686 1.368 . S
C690 C689 1.523 . S
H691 C666 0.950 . S
H692 C668 0.950 . S
H693 C669 0.949 . S
H694 C671 0.950 . S
H695 C673 0.950 . S
C696 C697 1.349 . S
C696 C698 1.327 . S
C696 H721 0.950 . S
C697 C696 1.349 . S
C697 C713 1.349 1_556 S
C698 C696 1.327 . S
C698 C717 1.429 . S
C698 H722 0.950 . S
C699 C716 1.574 . S
C699 C718 1.368 1_554 S
C699 H723 0.949 . S
H700 C704 0.949 . S
C701 C702 1.349 1_554 S
C701 C703 1.327 . S
C701 H724 0.950 . S
C702 C701 1.349 1_556 S
C702 C714 1.349 . S
C703 C701 1.327 . S
C703 C719 1.429 1_554 S
C703 H725 0.950 . S
C704 H700 0.949 . S
C704 C712 1.574 . S
C704 C720 1.368 . S
H705 C713 0.950 . S
H706 C711 0.950 . S
H707 C712 0.949 . S
H708 C714 0.950 . S
H709 C715 0.950 . S
H710 C716 0.949 . S
C711 H706 0.950 . S
C711 C713 1.327 . S
C711 C717 1.429 1_554 S
C712 C704 1.574 . S
C712 H707 0.949 . S
C712 C718 1.368 . S
C713 C697 1.349 1_554 S
C713 H705 0.950 . S
C713 C711 1.327 . S
C714 C702 1.349 . S
C714 H708 0.950 . S
C714 C715 1.327 . S
C715 H709 0.950 . S
C715 C714 1.327 . S
C715 C719 1.429 . S
C716 C699 1.574 . S
C716 H710 0.949 . S
C716 C720 1.368 1_554 S
C717 C698 1.429 . S
C717 C711 1.429 1_556 S
C717 C718 1.523 . S
C718 C699 1.368 1_556 S
C718 C712 1.368 . S
C718 C717 1.523 . S
C719 C703 1.429 1_556 S
C719 C715 1.429 . S
C719 C720 1.523 . S
C720 C704 1.368 . S
C720 C716 1.368 1_556 S
C720 C719 1.523 . S
H721 C696 0.950 . S
H722 C698 0.950 . S
H723 C699 0.949 . S
H724 C701 0.950 . S
H725 C703 0.950 . S
C726 C727 1.349 . S
C726 C728 1.327 . S
C726 H751 0.950 . S
C727 C726 1.349 . S
C727 C743 1.349 . S
C728 C726 1.327 . S
C728 C747 1.429 . S
C728 H752 0.950 . S
C729 C746 1.574 . S
C729 C748 1.368 . S
C729 H753 0.949 . S
H730 C734 0.949 . S
C731 C732 1.349 . S
C731 C733 1.327 . S
C731 H754 0.950 . S
C732 C731 1.349 . S
C732 C744 1.349 . S
C733 C731 1.327 . S
C733 C749 1.429 . S
C733 H755 0.950 . S
C734 H730 0.949 . S
C734 C742 1.574 . S
C734 C750 1.368 . S
H735 C743 0.950 . S
H736 C741 0.950 . S
H737 C742 0.949 . S
H738 C744 0.950 . S
H739 C745 0.950 . S
H740 C746 0.949 . S
C741 H736 0.950 . S
C741 C743 1.327 . S
C741 C747 1.429 . S
C742 C734 1.574 . S
C742 H737 0.949 . S
C742 C748 1.368 . S
C743 C727 1.349 . S
C743 H735 0.950 . S
C743 C741 1.327 . S
C744 C732 1.349 . S
C744 H738 0.950 . S
C744 C745 1.327 . S
C745 H739 0.950 . S
C745 C744 1.327 . S
C745 C749 1.429 . S
C746 C729 1.574 . S
C746 H740 0.949 . S
C746 C750 1.368 . S
C747 C728 1.429 . S
C747 C741 1.429 . S
C747 C748 1.523 . S
C748 C729 1.368 . S
C748 C742 1.368 . S
C748 C747 1.523 . S
C749 C733 1.429 . S
C749 C745 1.429 . S
C749 C750 1.523 . S
C750 C734 1.368 . S
C750 C746 1.368 . S
C750 C749 1.523 . S
H751 C726 0.950 . S
H752 C728 0.950 . S
H753 C729 0.949 . S
H754 C731 0.950 . S
H755 C733 0.950 . S
C756 C757 1.349 . S
C756 C758 1.327 . S
C756 H781 0.950 . S
C757 C756 1.349 . S
C757 C773 1.349 . S
C758 C756 1.327 . S
C758 C777 1.429 . S
C758 H782 0.950 . S
C759 C776 1.574 . S
C759 C778 1.368 . S
C759 H783 0.949 . S
H760 C764 0.949 . S
C761 C762 1.349 . S
C761 C763 1.327 . S
C761 H784 0.950 . S
C762 C761 1.349 . S
C762 C774 1.349 . S
C763 C761 1.327 . S
C763 C779 1.429 . S
C763 H785 0.950 . S
C764 H760 0.949 . S
C764 C772 1.574 . S
C764 C780 1.368 . S
H765 C773 0.950 . S
H766 C771 0.950 . S
H767 C772 0.949 . S
H768 C774 0.950 . S
H769 C775 0.950 . S
H770 C776 0.949 . S
C771 H766 0.950 . S
C771 C773 1.327 . S
C771 C777 1.429 . S
C772 C764 1.574 . S
C772 H767 0.949 . S
C772 C778 1.368 . S
C773 C757 1.349 . S
C773 H765 0.950 . S
C773 C771 1.327 . S
C774 C762 1.349 . S
C774 H768 0.950 . S
C774 C775 1.327 . S
C775 H769 0.950 . S
C775 C774 1.327 . S
C775 C779 1.429 . S
C776 C759 1.574 . S
C776 H770 0.949 . S
C776 C780 1.368 . S
C777 C758 1.429 . S
C777 C771 1.429 . S
C777 C778 1.523 . S
C778 C759 1.368 . S
C778 C772 1.368 . S
C778 C777 1.523 . S
C779 C763 1.429 . S
C779 C775 1.429 . S
C779 C780 1.523 . S
C780 C764 1.368 . S
C780 C776 1.368 . S
C780 C779 1.523 . S
H781 C756 0.950 . S
H782 C758 0.950 . S
H783 C759 0.949 . S
H784 C761 0.950 . S
H785 C763 0.950 . S
C786 C787 1.349 . S
C786 C788 1.327 . S
C786 H811 0.950 . S
C787 C786 1.349 . S
C787 C803 1.349 . S
C788 C786 1.327 . S
C788 C807 1.429 . S
C788 H812 0.950 . S
C789 C806 1.574 . S
C789 C808 1.368 . S
C789 H813 0.949 . S
H790 C794 0.949 . S
C791 C792 1.349 . S
C791 C793 1.327 . S
C791 H814 0.950 . S
C792 C791 1.349 . S
C792 C804 1.349 . S
C793 C791 1.327 . S
C793 C809 1.429 . S
C793 H815 0.950 . S
C794 H790 0.949 . S
C794 C802 1.574 . S
C794 C810 1.368 . S
H795 C803 0.950 . S
H796 C801 0.950 . S
H797 C802 0.949 . S
H798 C804 0.950 . S
H799 C805 0.950 . S
H800 C806 0.949 . S
C801 H796 0.950 . S
C801 C803 1.327 . S
C801 C807 1.429 . S
C802 C794 1.574 . S
C802 H797 0.949 . S
C802 C808 1.368 . S
C803 C787 1.349 . S
C803 H795 0.950 . S
C803 C801 1.327 . S
C804 C792 1.349 . S
C804 H798 0.950 . S
C804 C805 1.327 . S
C805 H799 0.950 . S
C805 C804 1.327 . S
C805 C809 1.429 . S
C806 C789 1.574 . S
C806 H800 0.949 . S
C806 C810 1.368 . S
C807 C788 1.429 . S
C807 C801 1.429 . S
C807 C808 1.523 . S
C808 C789 1.368 . S
C808 C802 1.368 . S
C808 C807 1.523 . S
C809 C793 1.429 . S
C809 C805 1.429 . S
C809 C810 1.523 . S
C810 C794 1.368 . S
C810 C806 1.368 . S
C810 C809 1.523 . S
H811 C786 0.950 . S
H812 C788 0.950 . S
H813 C789 0.949 . S
H814 C791 0.950 . S
H815 C793 0.950 . S
C816 C817 1.349 . S
C816 C818 1.327 . S
C816 H841 0.950 . S
C817 C816 1.349 . S
C817 C833 1.349 . S
C818 C816 1.327 . S
C818 C837 1.429 . S
C818 H842 0.950 . S
C819 C836 1.574 . S
C819 C838 1.368 . S
C819 H843 0.949 . S
H820 C824 0.949 . S
C821 C822 1.349 . S
C821 C823 1.327 . S
C821 H844 0.950 . S
C822 C821 1.349 . S
C822 C834 1.349 . S
C823 C821 1.327 . S
C823 C839 1.429 . S
C823 H845 0.950 . S
C824 H820 0.949 . S
C824 C832 1.574 . S
C824 C840 1.368 . S
H825 C833 0.950 . S
H826 C831 0.950 . S
H827 C832 0.949 . S
H828 C834 0.950 . S
H829 C835 0.950 . S
H830 C836 0.949 . S
C831 H826 0.950 . S
C831 C833 1.327 . S
C831 C837 1.429 . S
C832 C824 1.574 . S
C832 H827 0.949 . S
C832 C838 1.368 . S
C833 C817 1.349 . S
C833 H825 0.950 . S
C833 C831 1.327 . S
C834 C822 1.349 . S
C834 H828 0.950 . S
C834 C835 1.327 . S
C835 H829 0.950 . S
C835 C834 1.327 . S
C835 C839 1.429 . S
C836 C819 1.574 . S
C836 H830 0.949 . S
C836 C840 1.368 . S
C837 C818 1.429 . S
C837 C831 1.429 . S
C837 C838 1.523 . S
C838 C819 1.368 . S
C838 C832 1.368 . S
C838 C837 1.523 . S
C839 C823 1.429 . S
C839 C835 1.429 . S
C839 C840 1.523 . S
C840 C824 1.368 . S
C840 C836 1.368 . S
C840 C839 1.523 . S
H841 C816 0.950 . S
H842 C818 0.950 . S
H843 C819 0.949 . S
H844 C821 0.950 . S
H845 C823 0.950 . S
C846 C847 1.349 . S
C846 C848 1.327 . S
C846 H871 0.950 . S
C847 C846 1.349 . S
C847 C863 1.349 . S
C848 C846 1.327 . S
C848 C867 1.429 . S
C848 H872 0.950 . S
C849 C866 1.574 . S
C849 C868 1.368 . S
C849 H873 0.949 . S
H850 C854 0.949 . S
C851 C852 1.349 . S
C851 C853 1.327 . S
C851 H874 0.950 . S
C852 C851 1.349 . S
C852 C864 1.349 . S
C853 C851 1.327 . S
C853 C869 1.429 . S
C853 H875 0.950 . S
C854 H850 0.949 . S
C854 C862 1.574 . S
C854 C870 1.368 . S
H855 C863 0.950 . S
H856 C861 0.950 . S
H857 C862 0.949 . S
H858 C864 0.950 . S
H859 C865 0.950 . S
H860 C866 0.949 . S
C861 H856 0.950 . S
C861 C863 1.327 . S
C861 C867 1.429 . S
C862 C854 1.574 . S
C862 H857 0.949 . S
C862 C868 1.368 . S
C863 C847 1.349 . S
C863 H855 0.950 . S
C863 C861 1.327 . S
C864 C852 1.349 . S
C864 H858 0.950 . S
C864 C865 1.327 . S
C865 H859 0.950 . S
C865 C864 1.327 . S
C865 C869 1.429 . S
C866 C849 1.574 . S
C866 H860 0.949 . S
C866 C870 1.368 . S
C867 C848 1.429 . S
C867 C861 1.429 . S
C867 C868 1.523 . S
C868 C849 1.368 . S
C868 C862 1.368 . S
C868 C867 1.523 . S
C869 C853 1.429 . S
C869 C865 1.429 . S
C869 C870 1.523 . S
C870 C854 1.368 . S
C870 C866 1.368 . S
C870 C869 1.523 . S
H871 C846 0.950 . S
H872 C848 0.950 . S
H873 C849 0.949 . S
H874 C851 0.950 . S
H875 C853 0.950 . S
C876 C877 1.349 . S
C876 C878 1.327 . S
C876 H901 0.950 . S
C877 C876 1.349 . S
C877 C893 1.349 . S
C878 C876 1.327 . S
C878 C897 1.429 . S
C878 H902 0.950 . S
C879 C896 1.574 . S
C879 C898 1.368 . S
C879 H903 0.949 . S
H880 C884 0.949 . S
C881 C882 1.349 . S
C881 C883 1.327 . S
C881 H904 0.950 . S
C882 C881 1.349 . S
C882 C894 1.349 . S
C883 C881 1.327 . S
C883 C899 1.429 . S
C883 H905 0.950 . S
C884 H880 0.949 . S
C884 C892 1.574 . S
C884 C900 1.368 . S
H885 C893 0.950 . S
H886 C891 0.950 . S
H887 C892 0.949 . S
H888 C894 0.950 . S
H889 C895 0.950 . S
H890 C896 0.949 . S
C891 H886 0.950 . S
C891 C893 1.327 . S
C891 C897 1.429 . S
C892 C884 1.574 . S
C892 H887 0.949 . S
C892 C898 1.368 . S
C893 C877 1.349 . S
C893 H885 0.950 . S
C893 C891 1.327 . S
C894 C882 1.349 . S
C894 H888 0.950 . S
C894 C895 1.327 . S
C895 H889 0.950 . S
C895 C894 1.327 . S
C895 C899 1.429 . S
C896 C879 1.574 . S
C896 H890 0.949 . S
C896 C900 1.368 . S
C897 C878 1.429 . S
C897 C891 1.429 . S
C897 C898 1.523 . S
C898 C879 1.368 . S
C898 C892 1.368 . S
C898 C897 1.523 . S
C899 C883 1.429 . S
C899 C895 1.429 . S
C899 C900 1.523 . S
C900 C884 1.368 . S
C900 C896 1.368 . S
C900 C899 1.523 . S
H901 C876 0.950 . S
H902 C878 0.950 . S
H903 C879 0.949 . S
H904 C881 0.950 . S
H905 C883 0.950 . S
C906 C907 1.349 . S
C906 C908 1.327 . S
C906 H931 0.950 . S
C907 C906 1.349 . S
C907 C923 1.349 . S
C908 C906 1.327 . S
C908 C927 1.429 . S
C908 H932 0.950 . S
C909 C926 1.574 . S
C909 C928 1.368 . S
C909 H933 0.949 . S
H910 C914 0.949 . S
C911 C912 1.349 . S
C911 C913 1.327 . S
C911 H934 0.950 . S
C912 C911 1.349 . S
C912 C924 1.349 . S
C913 C911 1.327 . S
C913 C929 1.429 . S
C913 H935 0.950 . S
C914 H910 0.949 . S
C914 C922 1.574 . S
C914 C930 1.368 . S
H915 C923 0.950 . S
H916 C921 0.950 . S
H917 C922 0.949 . S
H918 C924 0.950 . S
H919 C925 0.950 . S
H920 C926 0.949 . S
C921 H916 0.950 . S
C921 C923 1.327 . S
C921 C927 1.429 . S
C922 C914 1.574 . S
C922 H917 0.949 . S
C922 C928 1.368 . S
C923 C907 1.349 . S
C923 H915 0.950 . S
C923 C921 1.327 . S
C924 C912 1.349 . S
C924 H918 0.950 . S
C924 C925 1.327 . S
C925 H919 0.950 . S
C925 C924 1.327 . S
C925 C929 1.429 . S
C926 C909 1.574 . S
C926 H920 0.949 . S
C926 C930 1.368 . S
C927 C908 1.429 . S
C927 C921 1.429 . S
C927 C928 1.523 . S
C928 C909 1.368 . S
C928 C922 1.368 . S
C928 C927 1.523 . S
C929 C913 1.429 . S
C929 C925 1.429 . S
C929 C930 1.523 . S
C930 C914 1.368 . S
C930 C926 1.368 . S
C930 C929 1.523 . S
H931 C906 0.950 . S
H932 C908 0.950 . S
H933 C909 0.949 . S
H934 C911 0.950 . S
H935 C913 0.950 . S
C936 C937 1.349 . S
C936 C938 1.327 . S
C936 H961 0.950 . S
C937 C936 1.349 . S
C937 C953 1.349 . S
C938 C936 1.327 . S
C938 C957 1.429 . S
C938 H962 0.950 . S
C939 C956 1.574 . S
C939 C958 1.368 . S
C939 H963 0.949 . S
H940 C944 0.949 . S
C941 C942 1.349 . S
C941 C943 1.327 . S
C941 H964 0.950 . S
C942 C941 1.349 . S
C942 C954 1.349 . S
C943 C941 1.327 . S
C943 C959 1.429 . S
C943 H965 0.950 . S
C944 H940 0.949 . S
C944 C952 1.574 . S
C944 C960 1.368 . S
H945 C953 0.950 . S
H946 C951 0.950 . S
H947 C952 0.949 . S
H948 C954 0.950 . S
H949 C955 0.950 . S
H950 C956 0.949 . S
C951 H946 0.950 . S
C951 C953 1.327 . S
C951 C957 1.429 . S
C952 C944 1.574 . S
C952 H947 0.949 . S
C952 C958 1.368 . S
C953 C937 1.349 . S
C953 H945 0.950 . S
C953 C951 1.327 . S
C954 C942 1.349 . S
C954 H948 0.950 . S
C954 C955 1.327 . S
C955 H949 0.950 . S
C955 C954 1.327 . S
C955 C959 1.429 . S
C956 C939 1.574 . S
C956 H950 0.949 . S
C956 C960 1.368 . S
C957 C938 1.429 . S
C957 C951 1.429 . S
C957 C958 1.523 . S
C958 C939 1.368 . S
C958 C952 1.368 . S
C958 C957 1.523 . S
C959 C943 1.429 . S
C959 C955 1.429 . S
C959 C960 1.523 . S
C960 C944 1.368 . S
C960 C956 1.368 . S
C960 C959 1.523 . S
H961 C936 0.950 . S
H962 C938 0.950 . S
H963 C939 0.949 . S
H964 C941 0.950 . S
H965 C943 0.950 . S
C966 C967 1.349 . S
C966 C968 1.327 . S
C966 H991 0.950 . S
C967 C966 1.349 . S
C967 C983 1.349 . S
C968 C966 1.327 . S
C968 C987 1.429 . S
C968 H992 0.950 . S
C969 C986 1.574 . S
C969 C988 1.368 . S
C969 H993 0.949 1_655 S
H970 C974 0.949 . S
C971 C972 1.349 . S
C971 C973 1.327 . S
C971 H994 0.950 1_655 S
C972 C971 1.349 . S
C972 C984 1.349 . S
C973 C971 1.327 . S
C973 C989 1.429 . S
C973 H995 0.950 1_655 S
C974 H970 0.949 . S
C974 C982 1.574 . S
C974 C990 1.368 . S
H975 C983 0.950 1_455 S
H976 C981 0.950 1_455 S
H977 C982 0.949 . S
H978 C984 0.950 . S
H979 C985 0.950 . S
H980 C986 0.949 1_455 S
C981 H976 0.950 1_655 S
C981 C983 1.327 . S
C981 C987 1.429 . S
C982 C974 1.574 . S
C982 H977 0.949 . S
C982 C988 1.368 . S
C983 C967 1.349 . S
C983 H975 0.950 1_655 S
C983 C981 1.327 . S
C984 C972 1.349 . S
C984 H978 0.950 . S
C984 C985 1.327 . S
C985 H979 0.950 . S
C985 C984 1.327 . S
C985 C989 1.429 . S
C986 C969 1.574 . S
C986 H980 0.949 1_655 S
C986 C990 1.368 . S
C987 C968 1.429 . S
C987 C981 1.429 . S
C987 C988 1.523 . S
C988 C969 1.368 . S
C988 C982 1.368 . S
C988 C987 1.523 . S
C989 C973 1.429 . S
C989 C985 1.429 . S
C989 C990 1.523 . S
C990 C974 1.368 . S
C990 C986 1.368 . S
C990 C989 1.523 . S
H991 C966 0.950 . S
H992 C968 0.950 . S
H993 C969 0.949 1_455 S
H994 C971 0.950 1_455 S
H995 C973 0.950 1_455 S
C996 C997 1.349 . S
C996 C998 1.327 . S
C996 H1021 0.950 . S
C997 C996 1.349 . S
C997 C1013 1.349 . S
C998 C996 1.327 . S
C998 C1017 1.429 . S
C998 H1022 0.950 . S
C999 C1016 1.574 . S
C999 C1018 1.368 . S
C999 H1023 0.949 . S
H1000 C1004 0.949 . S
C1001 C1002 1.349 . S
C1001 C1003 1.327 . S
C1001 H1024 0.950 . S
C1002 C1001 1.349 . S
C1002 C1014 1.349 . S
C1003 C1001 1.327 . S
C1003 C1019 1.429 . S
C1003 H1025 0.950 . S
C1004 H1000 0.949 . S
C1004 C1012 1.574 . S
C1004 C1020 1.368 . S
H1005 C1013 0.950 . S
H1006 C1011 0.950 . S
H1007 C1012 0.949 . S
H1008 C1014 0.950 . S
H1009 C1015 0.950 . S
H1010 C1016 0.949 . S
C1011 H1006 0.950 . S
C1011 C1013 1.327 . S
C1011 C1017 1.429 . S
C1012 C1004 1.574 . S
C1012 H1007 0.949 . S
C1012 C1018 1.368 . S
C1013 C997 1.349 . S
C1013 H1005 0.950 . S
C1013 C1011 1.327 . S
C1014 C1002 1.349 . S
C1014 H1008 0.950 . S
C1014 C1015 1.327 . S
C1015 H1009 0.950 . S
C1015 C1014 1.327 . S
C1015 C1019 1.429 . S
C1016 C999 1.574 . S
C1016 H1010 0.949 . S
C1016 C1020 1.368 . S
C1017 C998 1.429 . S
C1017 C1011 1.429 . S
C1017 C1018 1.523 . S
C1018 C999 1.368 . S
C1018 C1012 1.368 . S
C1018 C1017 1.523 . S
C1019 C1003 1.429 . S
C1019 C1015 1.429 . S
C1019 C1020 1.523 . S
C1020 C1004 1.368 . S
C1020 C1016 1.368 . S
C1020 C1019 1.523 . S
H1021 C996 0.950 . S
H1022 C998 0.950 . S
H1023 C999 0.949 . S
H1024 C1001 0.950 . S
H1025 C1003 0.950 . S
C1026 C1027 1.349 . S
C1026 C1028 1.327 . S
C1026 H1051 0.950 . S
C1027 C1026 1.349 . S
C1027 C1043 1.349 . S
C1028 C1026 1.327 . S
C1028 C1047 1.429 . S
C1028 H1052 0.950 . S
C1029 C1046 1.574 . S
C1029 C1048 1.368 . S
C1029 H1053 0.949 . S
H1030 C1034 0.949 . S
C1031 C1032 1.349 . S
C1031 C1033 1.327 . S
C1031 H1054 0.950 . S
C1032 C1031 1.349 . S
C1032 C1044 1.349 . S
C1033 C1031 1.327 . S
C1033 C1049 1.429 . S
C1033 H1055 0.950 . S
C1034 H1030 0.949 . S
C1034 C1042 1.574 . S
C1034 C1050 1.368 . S
H1035 C1043 0.950 . S
H1036 C1041 0.950 . S
H1037 C1042 0.949 . S
H1038 C1044 0.950 . S
H1039 C1045 0.950 . S
H1040 C1046 0.949 . S
C1041 H1036 0.950 . S
C1041 C1043 1.327 . S
C1041 C1047 1.429 . S
C1042 C1034 1.574 . S
C1042 H1037 0.949 . S
C1042 C1048 1.368 . S
C1043 C1027 1.349 . S
C1043 H1035 0.950 . S
C1043 C1041 1.327 . S
C1044 C1032 1.349 . S
C1044 H1038 0.950 . S
C1044 C1045 1.327 . S
C1045 H1039 0.950 . S
C1045 C1044 1.327 . S
C1045 C1049 1.429 . S
C1046 C1029 1.574 . S
C1046 H1040 0.949 . S
C1046 C1050 1.368 . S
C1047 C1028 1.429 . S
C1047 C1041 1.429 . S
C1047 C1048 1.523 . S
C1048 C1029 1.368 . S
C1048 C1042 1.368 . S
C1048 C1047 1.523 . S
C1049 C1033 1.429 . S
C1049 C1045 1.429 . S
C1049 C1050 1.523 . S
C1050 C1034 1.368 . S
C1050 C1046 1.368 . S
C1050 C1049 1.523 . S
H1051 C1026 0.950 . S
H1052 C1028 0.950 . S
H1053 C1029 0.949 . S
H1054 C1031 0.950 . S
H1055 C1033 0.950 . S
C1056 C1057 1.349 . S
C1056 C1058 1.327 . S
C1056 H1081 0.950 . S
C1057 C1056 1.349 . S
C1057 C1073 1.349 . S
C1058 C1056 1.327 . S
C1058 C1077 1.429 . S
C1058 H1082 0.950 . S
C1059 C1076 1.574 . S
C1059 C1078 1.368 . S
C1059 H1083 0.949 . S
H1060 C1064 0.949 . S
C1061 C1062 1.349 . S
C1061 C1063 1.327 . S
C1061 H1084 0.950 . S
C1062 C1061 1.349 . S
C1062 C1074 1.349 . S
C1063 C1061 1.327 . S
C1063 C1079 1.429 . S
C1063 H1085 0.950 . S
C1064 H1060 0.949 . S
C1064 C1072 1.574 . S
C1064 C1080 1.368 . S
H1065 C1073 0.950 . S
H1066 C1071 0.950 . S
H1067 C1072 0.949 . S
H1068 C1074 0.950 . S
H1069 C1075 0.950 . S
H1070 C1076 0.949 . S
C1071 H1066 0.950 . S
C1071 C1073 1.327 . S
C1071 C1077 1.429 . S
C1072 C1064 1.574 . S
C1072 H1067 0.949 . S
C1072 C1078 1.368 . S
C1073 C1057 1.349 . S
C1073 H1065 0.950 . S
C1073 C1071 1.327 . S
C1074 C1062 1.349 . S
C1074 H1068 0.950 . S
C1074 C1075 1.327 . S
C1075 H1069 0.950 . S
C1075 C1074 1.327 . S
C1075 C1079 1.429 . S
C1076 C1059 1.574 . S
C1076 H1070 0.949 . S
C1076 C1080 1.368 . S
C1077 C1058 1.429 . S
C1077 C1071 1.429 . S
C1077 C1078 1.523 . S
C1078 C1059 1.368 . S
C1078 C1072 1.368 . S
C1078 C1077 1.523 . S
C1079 C1063 1.429 . S
C1079 C1075 1.429 . S
C1079 C1080 1.523 . S
C1080 C1064 1.368 . S
C1080 C1076 1.368 . S
C1080 C1079 1.523 . S
H1081 C1056 0.950 . S
H1082 C1058 0.950 . S
H1083 C1059 0.949 . S
H1084 C1061 0.950 . S
H1085 C1063 0.950 . S
C1086 C1087 1.349 . S
C1086 C1088 1.327 . S
C1086 H1111 0.950 . S
C1087 C1086 1.349 . S
C1087 C1103 1.349 . S
C1088 C1086 1.327 . S
C1088 C1107 1.429 . S
C1088 H1112 0.950 . S
C1089 C1106 1.574 . S
C1089 C1108 1.368 . S
C1089 H1113 0.949 . S
H1090 C1094 0.949 . S
C1091 C1092 1.349 . S
C1091 C1093 1.327 . S
C1091 H1114 0.950 . S
C1092 C1091 1.349 . S
C1092 C1104 1.349 . S
C1093 C1091 1.327 . S
C1093 C1109 1.429 . S
C1093 H1115 0.950 . S
C1094 H1090 0.949 . S
C1094 C1102 1.574 . S
C1094 C1110 1.368 . S
H1095 C1103 0.950 . S
H1096 C1101 0.950 . S
H1097 C1102 0.949 . S
H1098 C1104 0.950 . S
H1099 C1105 0.950 . S
H1100 C1106 0.949 . S
C1101 H1096 0.950 . S
C1101 C1103 1.327 . S
C1101 C1107 1.429 . S
C1102 C1094 1.574 . S
C1102 H1097 0.949 . S
C1102 C1108 1.368 . S
C1103 C1087 1.349 . S
C1103 H1095 0.950 . S
C1103 C1101 1.327 . S
C1104 C1092 1.349 . S
C1104 H1098 0.950 . S
C1104 C1105 1.327 . S
C1105 H1099 0.950 . S
C1105 C1104 1.327 . S
C1105 C1109 1.429 . S
C1106 C1089 1.574 . S
C1106 H1100 0.949 . S
C1106 C1110 1.368 . S
C1107 C1088 1.429 . S
C1107 C1101 1.429 . S
C1107 C1108 1.523 . S
C1108 C1089 1.368 . S
C1108 C1102 1.368 . S
C1108 C1107 1.523 . S
C1109 C1093 1.429 . S
C1109 C1105 1.429 . S
C1109 C1110 1.523 . S
C1110 C1094 1.368 . S
C1110 C1106 1.368 . S
C1110 C1109 1.523 . S
H1111 C1086 0.950 . S
H1112 C1088 0.950 . S
H1113 C1089 0.949 . S
H1114 C1091 0.950 . S
H1115 C1093 0.950 . S
C1116 C1117 1.349 . S
C1116 C1118 1.327 . S
C1116 H1141 0.950 1_545 S
C1117 C1116 1.349 . S
C1117 C1133 1.349 . S
C1118 C1116 1.327 . S
C1118 C1137 1.436 . S
C1118 H1142 0.942 1_545 S
C1119 C1136 1.574 . S
C1119 C1138 1.368 . S
C1119 H1143 0.949 . S
H1120 C1124 0.949 . S
C1121 C1122 1.349 . S
C1121 C1123 1.327 . S
C1121 H1144 0.950 . S
C1122 C1121 1.349 . S
C1122 C1134 1.349 1_545 S
C1123 C1121 1.327 . S
C1123 C1139 1.429 . S
C1123 H1145 0.950 . S
C1124 H1120 0.949 . S
C1124 C1132 1.574 . S
C1124 C1140 1.368 1_565 S
H1125 C1133 0.950 . S
H1126 C1131 0.950 . S
H1127 C1132 0.949 . S
H1128 C1134 0.950 . S
H1129 C1135 0.950 . S
H1130 C1136 0.949 . S
C1131 H1126 0.950 . S
C1131 C1133 1.327 . S
C1131 C1137 1.429 . S
C1132 C1124 1.574 . S
C1132 H1127 0.949 . S
C1132 C1138 1.368 1_565 S
C1133 C1117 1.349 . S
C1133 H1125 0.950 . S
C1133 C1131 1.327 . S
C1134 C1122 1.349 1_565 S
C1134 H1128 0.950 . S
C1134 C1135 1.327 . S
C1135 H1129 0.950 . S
C1135 C1134 1.327 . S
C1135 C1139 1.429 1_565 S
C1136 C1119 1.574 . S
C1136 H1130 0.949 . S
C1136 C1140 1.368 . S
C1137 C1118 1.436 . S
C1137 C1131 1.429 . S
C1137 C1138 1.523 . S
C1138 C1119 1.368 . S
C1138 C1132 1.368 1_545 S
C1138 C1137 1.523 . S
C1139 C1123 1.429 . S
C1139 C1135 1.429 1_545 S
C1139 C1140 1.523 . S
C1140 C1124 1.368 1_545 S
C1140 C1136 1.368 . S
C1140 C1139 1.523 . S
H1141 C1116 0.950 1_565 S
H1142 C1118 0.942 1_565 S
H1143 C1119 0.949 . S
H1144 C1121 0.950 . S
H1145 C1123 0.950 . S
C1146 C1147 1.349 . S
C1146 C1148 1.327 . S
C1146 H1171 0.950 . S
C1147 C1146 1.349 . S
C1147 C1163 1.349 1_554 S
C1148 C1146 1.327 . S
C1148 C1167 1.429 . S
C1148 H1172 0.950 . S
C1149 C1166 1.574 . S
C1149 C1168 1.368 1_556 S
C1149 H1173 0.949 . S
H1150 C1154 0.949 . S
C1151 C1152 1.349 1_556 S
C1151 C1153 1.327 . S
C1151 H1174 0.950 . S
C1152 C1151 1.349 1_554 S
C1152 C1164 1.349 . S
C1153 C1151 1.327 . S
C1153 C1169 1.429 1_556 S
C1153 H1175 0.950 . S
C1154 H1150 0.949 . S
C1154 C1162 1.574 . S
C1154 C1170 1.368 . S
H1155 C1163 0.950 . S
H1156 C1161 0.950 . S
H1157 C1162 0.949 . S
H1158 C1164 0.950 . S
H1159 C1165 0.950 . S
H1160 C1166 0.949 . S
C1161 H1156 0.950 . S
C1161 C1163 1.327 . S
C1161 C1167 1.429 1_556 S
C1162 C1154 1.574 . S
C1162 H1157 0.949 . S
C1162 C1168 1.368 . S
C1163 C1147 1.349 1_556 S
C1163 H1155 0.950 . S
C1163 C1161 1.327 . S
C1164 C1152 1.349 . S
C1164 H1158 0.950 . S
C1164 C1165 1.327 . S
C1165 H1159 0.950 . S
C1165 C1164 1.327 . S
C1165 C1169 1.429 . S
C1166 C1149 1.574 . S
C1166 H1160 0.949 . S
C1166 C1170 1.368 1_556 S
C1167 C1148 1.429 . S
C1167 C1161 1.429 1_554 S
C1167 C1168 1.523 . S
C1168 C1149 1.368 1_554 S
C1168 C1162 1.368 . S
C1168 C1167 1.523 . S
C1169 C1153 1.429 1_554 S
C1169 C1165 1.429 . S
C1169 C1170 1.523 . S
C1170 C1154 1.368 . S
C1170 C1166 1.368 1_554 S
C1170 C1169 1.523 . S
H1171 C1146 0.950 . S
H1172 C1148 0.950 . S
H1173 C1149 0.949 . S
H1174 C1151 0.950 . S
H1175 C1153 0.950 . S
C1176 C1177 1.349 . S
C1176 C1178 1.327 . S
C1176 H1201 0.950 . S
C1177 C1176 1.349 . S
C1177 C1193 1.349 . S
C1178 C1176 1.327 . S
C1178 C1197 1.429 . S
C1178 H1202 0.950 . S
C1179 C1196 1.574 . S
C1179 C1198 1.368 . S
C1179 H1203 0.949 . S
H1180 C1184 0.949 . S
C1181 C1182 1.349 . S
C1181 C1183 1.327 . S
C1181 H1204 0.950 . S
C1182 C1181 1.349 . S
C1182 C1194 1.349 . S
C1183 C1181 1.327 . S
C1183 C1199 1.429 . S
C1183 H1205 0.950 . S
C1184 H1180 0.949 . S
C1184 C1192 1.574 . S
C1184 C1200 1.368 . S
H1185 C1193 0.950 . S
H1186 C1191 0.950 . S
H1187 C1192 0.949 . S
H1188 C1194 0.950 . S
H1189 C1195 0.950 . S
H1190 C1196 0.949 . S
C1191 H1186 0.950 . S
C1191 C1193 1.327 . S
C1191 C1197 1.429 . S
C1192 C1184 1.574 . S
C1192 H1187 0.949 . S
C1192 C1198 1.368 . S
C1193 C1177 1.349 . S
C1193 H1185 0.950 . S
C1193 C1191 1.327 . S
C1194 C1182 1.349 . S
C1194 H1188 0.950 . S
C1194 C1195 1.327 . S
C1195 H1189 0.950 . S
C1195 C1194 1.327 . S
C1195 C1199 1.429 . S
C1196 C1179 1.574 . S
C1196 H1190 0.949 . S
C1196 C1200 1.368 . S
C1197 C1178 1.429 . S
C1197 C1191 1.429 . S
C1197 C1198 1.523 . S
C1198 C1179 1.368 . S
C1198 C1192 1.368 . S
C1198 C1197 1.523 . S
C1199 C1183 1.429 . S
C1199 C1195 1.429 . S
C1199 C1200 1.523 . S
C1200 C1184 1.368 . S
C1200 C1196 1.368 . S
C1200 C1199 1.523 . S
H1201 C1176 0.950 . S
H1202 C1178 0.950 . S
H1203 C1179 0.949 . S
H1204 C1181 0.950 . S
H1205 C1183 0.950 . S
C1206 C1207 1.349 . S
C1206 C1208 1.327 . S
C1206 H1231 0.950 . S
C1207 C1206 1.349 . S
C1207 C1223 1.349 . S
C1208 C1206 1.327 . S
C1208 C1227 1.429 . S
C1208 H1232 0.950 . S
C1209 C1226 1.574 . S
C1209 C1228 1.368 . S
C1209 H1233 0.949 . S
H1210 C1214 0.949 . S
C1211 C1212 1.349 . S
C1211 C1213 1.327 . S
C1211 H1234 0.950 . S
C1212 C1211 1.349 . S
C1212 C1224 1.349 . S
C1213 C1211 1.327 . S
C1213 C1229 1.429 . S
C1213 H1235 0.950 . S
C1214 H1210 0.949 . S
C1214 C1222 1.574 . S
C1214 C1230 1.368 . S
H1215 C1223 0.950 . S
H1216 C1221 0.950 . S
H1217 C1222 0.949 . S
H1218 C1224 0.950 . S
H1219 C1225 0.950 . S
H1220 C1226 0.949 . S
C1221 H1216 0.950 . S
C1221 C1223 1.327 . S
C1221 C1227 1.429 . S
C1222 C1214 1.574 . S
C1222 H1217 0.949 . S
C1222 C1228 1.368 . S
C1223 C1207 1.349 . S
C1223 H1215 0.950 . S
C1223 C1221 1.327 . S
C1224 C1212 1.349 . S
C1224 H1218 0.950 . S
C1224 C1225 1.327 . S
C1225 H1219 0.950 . S
C1225 C1224 1.327 . S
C1225 C1229 1.429 . S
C1226 C1209 1.574 . S
C1226 H1220 0.949 . S
C1226 C1230 1.368 . S
C1227 C1208 1.429 . S
C1227 C1221 1.429 . S
C1227 C1228 1.523 . S
C1228 C1209 1.368 . S
C1228 C1222 1.368 . S
C1228 C1227 1.523 . S
C1229 C1213 1.429 . S
C1229 C1225 1.429 . S
C1229 C1230 1.523 . S
C1230 C1214 1.368 . S
C1230 C1226 1.368 . S
C1230 C1229 1.523 . S
H1231 C1206 0.950 . S
H1232 C1208 0.950 . S
H1233 C1209 0.949 . S
H1234 C1211 0.950 . S
H1235 C1213 0.950 . S
C1236 C1237 1.349 . S
C1236 C1238 1.327 . S
C1236 H1261 0.950 . S
C1237 C1236 1.349 . S
C1237 C1253 1.349 . S
C1238 C1236 1.327 . S
C1238 C1257 1.429 . S
C1238 H1262 0.950 . S
C1239 C1256 1.574 . S
C1239 C1258 1.368 . S
C1239 H1263 0.949 . S
H1240 C1244 0.949 . S
C1241 C1242 1.349 . S
C1241 C1243 1.327 . S
C1241 H1264 0.950 . S
C1242 C1241 1.349 . S
C1242 C1254 1.349 . S
C1243 C1241 1.327 . S
C1243 C1259 1.429 . S
C1243 H1265 0.950 . S
C1244 H1240 0.949 . S
C1244 C1252 1.574 . S
C1244 C1260 1.368 . S
H1245 C1253 0.950 . S
H1246 C1251 0.950 . S
H1247 C1252 0.949 . S
H1248 C1254 0.950 . S
H1249 C1255 0.950 . S
H1250 C1256 0.949 . S
C1251 H1246 0.950 . S
C1251 C1253 1.327 . S
C1251 C1257 1.429 . S
C1252 C1244 1.574 . S
C1252 H1247 0.949 . S
C1252 C1258 1.368 . S
C1253 C1237 1.349 . S
C1253 H1245 0.950 . S
C1253 C1251 1.327 . S
C1254 C1242 1.349 . S
C1254 H1248 0.950 . S
C1254 C1255 1.327 . S
C1255 H1249 0.950 . S
C1255 C1254 1.327 . S
C1255 C1259 1.429 . S
C1256 C1239 1.574 . S
C1256 H1250 0.949 . S
C1256 C1260 1.368 . S
C1257 C1238 1.429 . S
C1257 C1251 1.429 . S
C1257 C1258 1.523 . S
C1258 C1239 1.368 . S
C1258 C1252 1.368 . S
C1258 C1257 1.523 . S
C1259 C1243 1.429 . S
C1259 C1255 1.429 . S
C1259 C1260 1.523 . S
C1260 C1244 1.368 . S
C1260 C1256 1.368 . S
C1260 C1259 1.523 . S
H1261 C1236 0.950 . S
H1262 C1238 0.950 . S
H1263 C1239 0.949 . S
H1264 C1241 0.950 . S
H1265 C1243 0.950 . S
C1266 C1267 1.349 . S
C1266 C1268 1.327 . S
C1266 H1291 0.950 . S
C1267 C1266 1.349 . S
C1267 C1283 1.349 . S
C1268 C1266 1.327 . S
C1268 C1287 1.429 . S
C1268 H1292 0.950 . S
C1269 C1286 1.574 . S
C1269 C1288 1.368 . S
C1269 H1293 0.949 . S
H1270 C1274 0.949 . S
C1271 C1272 1.349 . S
C1271 C1273 1.327 . S
C1271 H1294 0.950 . S
C1272 C1271 1.349 . S
C1272 C1284 1.349 . S
C1273 C1271 1.327 . S
C1273 C1289 1.429 . S
C1273 H1295 0.950 . S
C1274 H1270 0.949 . S
C1274 C1282 1.574 . S
C1274 C1290 1.368 . S
H1275 C1283 0.950 . S
H1276 C1281 0.950 . S
H1277 C1282 0.949 . S
H1278 C1284 0.950 . S
H1279 C1285 0.950 . S
H1280 C1286 0.949 . S
C1281 H1276 0.950 . S
C1281 C1283 1.327 . S
C1281 C1287 1.429 . S
C1282 C1274 1.574 . S
C1282 H1277 0.949 . S
C1282 C1288 1.368 . S
C1283 C1267 1.349 . S
C1283 H1275 0.950 . S
C1283 C1281 1.327 . S
C1284 C1272 1.349 . S
C1284 H1278 0.950 . S
C1284 C1285 1.327 . S
C1285 H1279 0.950 . S
C1285 C1284 1.327 . S
C1285 C1289 1.429 . S
C1286 C1269 1.574 . S
C1286 H1280 0.949 . S
C1286 C1290 1.368 . S
C1287 C1268 1.429 . S
C1287 C1281 1.429 . S
C1287 C1288 1.523 . S
C1288 C1269 1.368 . S
C1288 C1282 1.368 . S
C1288 C1287 1.523 . S
C1289 C1273 1.429 . S
C1289 C1285 1.429 . S
C1289 C1290 1.523 . S
C1290 C1274 1.368 . S
C1290 C1286 1.368 . S
C1290 C1289 1.523 . S
H1291 C1266 0.950 . S
H1292 C1268 0.950 . S
H1293 C1269 0.949 . S
H1294 C1271 0.950 . S
H1295 C1273 0.950 . S
C1296 C1297 1.349 . S
C1296 C1298 1.327 . S
C1296 H1321 0.950 . S
C1297 C1296 1.349 . S
C1297 C1313 1.349 . S
C1298 C1296 1.327 . S
C1298 C1317 1.429 . S
C1298 H1322 0.950 . S
C1299 C1316 1.574 . S
C1299 C1318 1.368 . S
C1299 H1323 0.949 . S
H1300 C1304 0.949 . S
C1301 C1302 1.349 . S
C1301 C1303 1.327 . S
C1301 H1324 0.950 . S
C1302 C1301 1.349 . S
C1302 C1314 1.349 . S
C1303 C1301 1.327 . S
C1303 C1319 1.429 . S
C1303 H1325 0.950 . S
C1304 H1300 0.949 . S
C1304 C1312 1.574 . S
C1304 C1320 1.368 . S
H1305 C1313 0.950 . S
H1306 C1311 0.950 . S
H1307 C1312 0.949 . S
H1308 C1314 0.950 . S
H1309 C1315 0.950 . S
H1310 C1316 0.949 . S
C1311 H1306 0.950 . S
C1311 C1313 1.327 . S
C1311 C1317 1.429 . S
C1312 C1304 1.574 . S
C1312 H1307 0.949 . S
C1312 C1318 1.368 . S
C1313 C1297 1.349 . S
C1313 H1305 0.950 . S
C1313 C1311 1.327 . S
C1314 C1302 1.349 . S
C1314 H1308 0.950 . S
C1314 C1315 1.327 . S
C1315 H1309 0.950 . S
C1315 C1314 1.327 . S
C1315 C1319 1.429 . S
C1316 C1299 1.574 . S
C1316 H1310 0.949 . S
C1316 C1320 1.368 . S
C1317 C1298 1.429 . S
C1317 C1311 1.429 . S
C1317 C1318 1.523 . S
C1318 C1299 1.368 . S
C1318 C1312 1.368 . S
C1318 C1317 1.523 . S
C1319 C1303 1.429 . S
C1319 C1315 1.429 . S
C1319 C1320 1.523 . S
C1320 C1304 1.368 . S
C1320 C1316 1.368 . S
C1320 C1319 1.523 . S
H1321 C1296 0.950 . S
H1322 C1298 0.950 . S
H1323 C1299 0.949 . S
H1324 C1301 0.950 . S
H1325 C1303 0.950 . S
C1326 C1327 1.349 . S
C1326 C1328 1.327 . S
C1326 H1351 0.950 . S
C1327 C1326 1.349 . S
C1327 C1343 1.349 . S
C1328 C1326 1.327 . S
C1328 C1347 1.429 . S
C1328 H1352 0.950 . S
C1329 C1346 1.574 . S
C1329 C1348 1.368 . S
C1329 H1353 0.949 . S
H1330 C1334 0.949 . S
C1331 C1332 1.349 . S
C1331 C1333 1.327 . S
C1331 H1354 0.950 . S
C1332 C1331 1.349 . S
C1332 C1344 1.349 . S
C1333 C1331 1.327 . S
C1333 C1349 1.429 . S
C1333 H1355 0.950 . S
C1334 H1330 0.949 . S
C1334 C1342 1.574 . S
C1334 C1350 1.368 . S
H1335 C1343 0.950 . S
H1336 C1341 0.950 . S
H1337 C1342 0.949 . S
H1338 C1344 0.950 . S
H1339 C1345 0.950 . S
H1340 C1346 0.949 . S
C1341 H1336 0.950 . S
C1341 C1343 1.327 . S
C1341 C1347 1.429 . S
C1342 C1334 1.574 . S
C1342 H1337 0.949 . S
C1342 C1348 1.368 . S
C1343 C1327 1.349 . S
C1343 H1335 0.950 . S
C1343 C1341 1.327 . S
C1344 C1332 1.349 . S
C1344 H1338 0.950 . S
C1344 C1345 1.327 . S
C1345 H1339 0.950 . S
C1345 C1344 1.327 . S
C1345 C1349 1.429 . S
C1346 C1329 1.574 . S
C1346 H1340 0.949 . S
C1346 C1350 1.368 . S
C1347 C1328 1.429 . S
C1347 C1341 1.429 . S
C1347 C1348 1.523 . S
C1348 C1329 1.368 . S
C1348 C1342 1.368 . S
C1348 C1347 1.523 . S
C1349 C1333 1.429 . S
C1349 C1345 1.429 . S
C1349 C1350 1.523 . S
C1350 C1334 1.368 . S
C1350 C1346 1.368 . S
C1350 C1349 1.523 . S
H1351 C1326 0.950 . S
H1352 C1328 0.950 . S
H1353 C1329 0.949 . S
H1354 C1331 0.950 . S
H1355 C1333 0.950 . S
C1356 C1357 1.349 . S
C1356 C1358 1.327 . S
C1356 H1381 0.950 . S
C1357 C1356 1.349 . S
C1357 C1373 1.349 . S
C1358 C1356 1.327 . S
C1358 C1377 1.429 . S
C1358 H1382 0.950 . S
C1359 C1376 1.574 . S
C1359 C1378 1.368 . S
C1359 H1383 0.949 . S
H1360 C1364 0.949 . S
C1361 C1362 1.349 . S
C1361 C1363 1.327 . S
C1361 H1384 0.950 . S
C1362 C1361 1.349 . S
C1362 C1374 1.349 . S
C1363 C1361 1.327 . S
C1363 C1379 1.429 . S
C1363 H1385 0.950 . S
C1364 H1360 0.949 . S
C1364 C1372 1.574 . S
C1364 C1380 1.368 . S
H1365 C1373 0.950 . S
H1366 C1371 0.950 . S
H1367 C1372 0.949 . S
H1368 C1374 0.950 . S
H1369 C1375 0.950 . S
H1370 C1376 0.949 . S
C1371 H1366 0.950 . S
C1371 C1373 1.327 . S
C1371 C1377 1.429 . S
C1372 C1364 1.574 . S
C1372 H1367 0.949 . S
C1372 C1378 1.368 . S
C1373 C1357 1.349 . S
C1373 H1365 0.950 . S
C1373 C1371 1.327 . S
C1374 C1362 1.349 . S
C1374 H1368 0.950 . S
C1374 C1375 1.327 . S
C1375 H1369 0.950 . S
C1375 C1374 1.327 . S
C1375 C1379 1.429 . S
C1376 C1359 1.574 . S
C1376 H1370 0.949 . S
C1376 C1380 1.368 . S
C1377 C1358 1.429 . S
C1377 C1371 1.429 . S
C1377 C1378 1.523 . S
C1378 C1359 1.368 . S
C1378 C1372 1.368 . S
C1378 C1377 1.523 . S
C1379 C1363 1.429 . S
C1379 C1375 1.429 . S
C1379 C1380 1.523 . S
C1380 C1364 1.368 . S
C1380 C1376 1.368 . S
C1380 C1379 1.523 . S
H1381 C1356 0.950 . S
H1382 C1358 0.950 . S
H1383 C1359 0.949 . S
H1384 C1361 0.950 . S
H1385 C1363 0.950 . S
C1386 C1387 1.349 . S
C1386 C1388 1.327 . S
C1386 H1411 0.950 . S
C1387 C1386 1.349 . S
C1387 C1403 1.349 . S
C1388 C1386 1.327 . S
C1388 C1407 1.429 . S
C1388 H1412 0.950 . S
C1389 C1406 1.574 . S
C1389 C1408 1.368 . S
C1389 H1413 0.949 . S
H1390 C1394 0.949 . S
C1391 C1392 1.349 . S
C1391 C1393 1.327 . S
C1391 H1414 0.950 . S
C1392 C1391 1.349 . S
C1392 C1404 1.349 . S
C1393 C1391 1.327 . S
C1393 C1409 1.429 . S
C1393 H1415 0.950 . S
C1394 H1390 0.949 . S
C1394 C1402 1.574 . S
C1394 C1410 1.368 . S
H1395 C1403 0.950 . S
H1396 C1401 0.950 . S
H1397 C1402 0.949 . S
H1398 C1404 0.950 . S
H1399 C1405 0.950 . S
H1400 C1406 0.949 . S
C1401 H1396 0.950 . S
C1401 C1403 1.327 . S
C1401 C1407 1.429 . S
C1402 C1394 1.574 . S
C1402 H1397 0.949 . S
C1402 C1408 1.368 . S
C1403 C1387 1.349 . S
C1403 H1395 0.950 . S
C1403 C1401 1.327 . S
C1404 C1392 1.349 . S
C1404 H1398 0.950 . S
C1404 C1405 1.327 . S
C1405 H1399 0.950 . S
C1405 C1404 1.327 . S
C1405 C1409 1.429 . S
C1406 C1389 1.574 . S
C1406 H1400 0.949 . S
C1406 C1410 1.368 . S
C1407 C1388 1.429 . S
C1407 C1401 1.429 . S
C1407 C1408 1.523 . S
C1408 C1389 1.368 . S
C1408 C1402 1.368 . S
C1408 C1407 1.523 . S
C1409 C1393 1.429 . S
C1409 C1405 1.429 . S
C1409 C1410 1.523 . S
C1410 C1394 1.368 . S
C1410 C1406 1.368 . S
C1410 C1409 1.523 . S
H1411 C1386 0.950 . S
H1412 C1388 0.950 . S
H1413 C1389 0.949 . S
H1414 C1391 0.950 . S
H1415 C1393 0.950 . S
C1416 C1417 1.349 . S
C1416 C1418 1.327 . S
C1416 H1441 0.950 . S
C1417 C1416 1.349 . S
C1417 C1433 1.349 . S
C1418 C1416 1.327 . S
C1418 C1437 1.429 . S
C1418 H1442 0.950 . S
C1419 C1436 1.574 . S
C1419 C1438 1.368 . S
C1419 H1443 0.949 . S
H1420 C1424 0.949 . S
C1421 C1422 1.349 . S
C1421 C1423 1.327 . S
C1421 H1444 0.950 . S
C1422 C1421 1.349 . S
C1422 C1434 1.349 . S
C1423 C1421 1.327 . S
C1423 C1439 1.429 . S
C1423 H1445 0.950 . S
C1424 H1420 0.949 . S
C1424 C1432 1.574 . S
C1424 C1440 1.368 . S
H1425 C1433 0.950 . S
H1426 C1431 0.950 . S
H1427 C1432 0.949 . S
H1428 C1434 0.950 . S
H1429 C1435 0.950 . S
H1430 C1436 0.949 . S
C1431 H1426 0.950 . S
C1431 C1433 1.327 . S
C1431 C1437 1.429 . S
C1432 C1424 1.574 . S
C1432 H1427 0.949 . S
C1432 C1438 1.368 . S
C1433 C1417 1.349 . S
C1433 H1425 0.950 . S
C1433 C1431 1.327 . S
C1434 C1422 1.349 . S
C1434 H1428 0.950 . S
C1434 C1435 1.327 . S
C1435 H1429 0.950 . S
C1435 C1434 1.327 . S
C1435 C1439 1.429 . S
C1436 C1419 1.574 . S
C1436 H1430 0.949 . S
C1436 C1440 1.368 . S
C1437 C1418 1.429 . S
C1437 C1431 1.429 . S
C1437 C1438 1.523 . S
C1438 C1419 1.368 . S
C1438 C1432 1.368 . S
C1438 C1437 1.523 . S
C1439 C1423 1.429 . S
C1439 C1435 1.429 . S
C1439 C1440 1.523 . S
C1440 C1424 1.368 . S
C1440 C1436 1.368 . S
C1440 C1439 1.523 . S
H1441 C1416 0.950 . S
H1442 C1418 0.950 . S
H1443 C1419 0.949 . S
H1444 C1421 0.950 . S
H1445 C1423 0.950 . S
C1446 C1447 1.349 . S
C1446 C1448 1.327 . S
C1446 H1471 0.950 . S
C1447 C1446 1.349 . S
C1447 C1463 1.349 1_554 S
C1448 C1446 1.327 . S
C1448 C1467 1.429 . S
C1448 H1472 0.950 . S
C1449 C1466 1.574 . S
C1449 C1468 1.368 1_556 S
C1449 H1473 0.949 . S
H1450 C1454 0.949 . S
C1451 C1452 1.349 1_556 S
C1451 C1453 1.327 . S
C1451 H1474 0.950 . S
C1452 C1451 1.349 1_554 S
C1452 C1464 1.349 . S
C1453 C1451 1.327 . S
C1453 C1469 1.429 1_556 S
C1453 H1475 0.950 . S
C1454 H1450 0.949 . S
C1454 C1462 1.574 . S
C1454 C1470 1.368 . S
H1455 C1463 0.950 . S
H1456 C1461 0.950 . S
H1457 C1462 0.949 . S
H1458 C1464 0.950 . S
H1459 C1465 0.950 . S
H1460 C1466 0.949 . S
C1461 H1456 0.950 . S
C1461 C1463 1.327 . S
C1461 C1467 1.429 1_556 S
C1462 C1454 1.574 . S
C1462 H1457 0.949 . S
C1462 C1468 1.368 . S
C1463 C1447 1.349 1_556 S
C1463 H1455 0.950 . S
C1463 C1461 1.327 . S
C1464 C1452 1.349 . S
C1464 H1458 0.950 . S
C1464 C1465 1.327 . S
C1465 H1459 0.950 . S
C1465 C1464 1.327 . S
C1465 C1469 1.429 . S
C1466 C1449 1.574 . S
C1466 H1460 0.949 . S
C1466 C1470 1.368 1_556 S
C1467 C1448 1.429 . S
C1467 C1461 1.429 1_554 S
C1467 C1468 1.523 . S
C1468 C1449 1.368 1_554 S
C1468 C1462 1.368 . S
C1468 C1467 1.523 . S
C1469 C1453 1.429 1_554 S
C1469 C1465 1.429 . S
C1469 C1470 1.523 . S
C1470 C1454 1.368 . S
C1470 C1466 1.368 1_554 S
C1470 C1469 1.523 . S
H1471 C1446 0.950 . S
H1472 C1448 0.950 . S
H1473 C1449 0.949 . S
H1474 C1451 0.950 . S
H1475 C1453 0.950 . S
C1476 C1477 1.349 . S
C1476 C1478 1.327 . S
C1476 H1501 0.950 . S
C1477 C1476 1.349 . S
C1477 C1493 1.349 . S
C1478 C1476 1.327 . S
C1478 C1497 1.429 . S
C1478 H1502 0.950 . S
C1479 C1496 1.574 . S
C1479 C1498 1.368 . S
C1479 H1503 0.949 . S
H1480 C1484 0.949 . S
C1481 C1482 1.349 . S
C1481 C1483 1.327 . S
C1481 H1504 0.950 . S
C1482 C1481 1.349 . S
C1482 C1494 1.349 . S
C1483 C1481 1.327 . S
C1483 C1499 1.429 . S
C1483 H1505 0.950 . S
C1484 H1480 0.949 . S
C1484 C1492 1.574 . S
C1484 C1500 1.368 . S
H1485 C1493 0.950 . S
H1486 C1491 0.950 . S
H1487 C1492 0.949 . S
H1488 C1494 0.950 . S
H1489 C1495 0.950 . S
H1490 C1496 0.949 . S
C1491 H1486 0.950 . S
C1491 C1493 1.327 . S
C1491 C1497 1.429 . S
C1492 C1484 1.574 . S
C1492 H1487 0.949 . S
C1492 C1498 1.368 . S
C1493 C1477 1.349 . S
C1493 H1485 0.950 . S
C1493 C1491 1.327 . S
C1494 C1482 1.349 . S
C1494 H1488 0.950 . S
C1494 C1495 1.327 . S
C1495 H1489 0.950 . S
C1495 C1494 1.327 . S
C1495 C1499 1.429 . S
C1496 C1479 1.574 . S
C1496 H1490 0.949 . S
C1496 C1500 1.368 . S
C1497 C1478 1.429 . S
C1497 C1491 1.429 . S
C1497 C1498 1.523 . S
C1498 C1479 1.368 . S
C1498 C1492 1.368 . S
C1498 C1497 1.523 . S
C1499 C1483 1.429 . S
C1499 C1495 1.429 . S
C1499 C1500 1.523 . S
C1500 C1484 1.368 . S
C1500 C1496 1.368 . S
C1500 C1499 1.523 . S
H1501 C1476 0.950 . S
H1502 C1478 0.950 . S
H1503 C1479 0.949 . S
H1504 C1481 0.950 . S
H1505 C1483 0.950 . S
C1506 C1507 1.349 . S
C1506 C1508 1.327 . S
C1506 H1531 0.950 . S
C1507 C1506 1.349 . S
C1507 C1523 1.349 . S
C1508 C1506 1.327 . S
C1508 C1527 1.429 . S
C1508 H1532 0.950 . S
C1509 C1526 1.574 . S
C1509 C1528 1.368 . S
C1509 H1533 0.949 . S
H1510 C1514 0.949 . S
C1511 C1512 1.349 . S
C1511 C1513 1.327 . S
C1511 H1534 0.950 . S
C1512 C1511 1.349 . S
C1512 C1524 1.349 . S
C1513 C1511 1.327 . S
C1513 C1529 1.429 . S
C1513 H1535 0.950 . S
C1514 H1510 0.949 . S
C1514 C1522 1.574 . S
C1514 C1530 1.368 . S
H1515 C1523 0.950 . S
H1516 C1521 0.950 . S
H1517 C1522 0.949 . S
H1518 C1524 0.950 . S
H1519 C1525 0.950 . S
H1520 C1526 0.949 . S
C1521 H1516 0.950 . S
C1521 C1523 1.327 . S
C1521 C1527 1.429 . S
C1522 C1514 1.574 . S
C1522 H1517 0.949 . S
C1522 C1528 1.368 . S
C1523 C1507 1.349 . S
C1523 H1515 0.950 . S
C1523 C1521 1.327 . S
C1524 C1512 1.349 . S
C1524 H1518 0.950 . S
C1524 C1525 1.327 . S
C1525 H1519 0.950 . S
C1525 C1524 1.327 . S
C1525 C1529 1.429 . S
C1526 C1509 1.574 . S
C1526 H1520 0.949 . S
C1526 C1530 1.368 . S
C1527 C1508 1.429 . S
C1527 C1521 1.429 . S
C1527 C1528 1.523 . S
C1528 C1509 1.368 . S
C1528 C1522 1.368 . S
C1528 C1527 1.523 . S
C1529 C1513 1.429 . S
C1529 C1525 1.429 . S
C1529 C1530 1.523 . S
C1530 C1514 1.368 . S
C1530 C1526 1.368 . S
C1530 C1529 1.523 . S
H1531 C1506 0.950 . S
H1532 C1508 0.950 . S
H1533 C1509 0.949 . S
H1534 C1511 0.950 . S
H1535 C1513 0.950 . S
C1536 C1537 1.349 . S
C1536 C1538 1.327 . S
C1536 H1561 0.950 . S
C1537 C1536 1.349 . S
C1537 C1553 1.349 . S
C1538 C1536 1.327 . S
C1538 C1557 1.429 . S
C1538 H1562 0.950 . S
C1539 C1556 1.574 . S
C1539 C1558 1.368 . S
C1539 H1563 0.949 . S
H1540 C1544 0.949 . S
C1541 C1542 1.349 . S
C1541 C1543 1.327 . S
C1541 H1564 0.950 . S
C1542 C1541 1.349 . S
C1542 C1554 1.349 . S
C1543 C1541 1.327 . S
C1543 C1559 1.429 . S
C1543 H1565 0.950 . S
C1544 H1540 0.949 . S
C1544 C1552 1.574 . S
C1544 C1560 1.368 . S
H1545 C1553 0.950 . S
H1546 C1551 0.950 . S
H1547 C1552 0.949 . S
H1548 C1554 0.950 . S
H1549 C1555 0.950 . S
H1550 C1556 0.949 . S
C1551 H1546 0.950 . S
C1551 C1553 1.327 . S
C1551 C1557 1.429 . S
C1552 C1544 1.574 . S
C1552 H1547 0.949 . S
C1552 C1558 1.368 . S
C1553 C1537 1.349 . S
C1553 H1545 0.950 . S
C1553 C1551 1.327 . S
C1554 C1542 1.349 . S
C1554 H1548 0.950 . S
C1554 C1555 1.327 . S
C1555 H1549 0.950 . S
C1555 C1554 1.327 . S
C1555 C1559 1.429 . S
C1556 C1539 1.574 . S
C1556 H1550 0.949 . S
C1556 C1560 1.368 . S
C1557 C1538 1.429 . S
C1557 C1551 1.429 . S
C1557 C1558 1.523 . S
C1558 C1539 1.368 . S
C1558 C1552 1.368 . S
C1558 C1557 1.523 . S
C1559 C1543 1.429 . S
C1559 C1555 1.429 . S
C1559 C1560 1.523 . S
C1560 C1544 1.368 . S
C1560 C1556 1.368 . S
C1560 C1559 1.523 . S
H1561 C1536 0.950 . S
H1562 C1538 0.950 . S
H1563 C1539 0.949 . S
H1564 C1541 0.950 . S
H1565 C1543 0.950 . S
C1566 C1567 1.349 . S
C1566 C1568 1.327 . S
C1566 H1591 0.950 . S
C1567 C1566 1.349 . S
C1567 C1583 1.349 . S
C1568 C1566 1.327 . S
C1568 C1587 1.429 . S
C1568 H1592 0.950 . S
C1569 C1586 1.574 . S
C1569 C1588 1.368 . S
C1569 H1593 0.949 . S
H1570 C1574 0.949 . S
C1571 C1572 1.349 . S
C1571 C1573 1.327 . S
C1571 H1594 0.950 . S
C1572 C1571 1.349 . S
C1572 C1584 1.349 . S
C1573 C1571 1.327 . S
C1573 C1589 1.429 . S
C1573 H1595 0.950 . S
C1574 H1570 0.949 . S
C1574 C1582 1.574 . S
C1574 C1590 1.368 . S
H1575 C1583 0.950 . S
H1576 C1581 0.950 . S
H1577 C1582 0.949 . S
H1578 C1584 0.950 . S
H1579 C1585 0.950 . S
H1580 C1586 0.949 . S
C1581 H1576 0.950 . S
C1581 C1583 1.327 . S
C1581 C1587 1.429 . S
C1582 C1574 1.574 . S
C1582 H1577 0.949 . S
C1582 C1588 1.368 . S
C1583 C1567 1.349 . S
C1583 H1575 0.950 . S
C1583 C1581 1.327 . S
C1584 C1572 1.349 . S
C1584 H1578 0.950 . S
C1584 C1585 1.327 . S
C1585 H1579 0.950 . S
C1585 C1584 1.327 . S
C1585 C1589 1.429 . S
C1586 C1569 1.574 . S
C1586 H1580 0.949 . S
C1586 C1590 1.368 . S
C1587 C1568 1.429 . S
C1587 C1581 1.429 . S
C1587 C1588 1.523 . S
C1588 C1569 1.368 . S
C1588 C1582 1.368 . S
C1588 C1587 1.523 . S
C1589 C1573 1.429 . S
C1589 C1585 1.429 . S
C1589 C1590 1.523 . S
C1590 C1574 1.368 . S
C1590 C1586 1.368 . S
C1590 C1589 1.523 . S
H1591 C1566 0.950 . S
H1592 C1568 0.950 . S
H1593 C1569 0.949 . S
H1594 C1571 0.950 . S
H1595 C1573 0.950 . S
C1596 C1597 1.349 1_554 S
C1596 C1598 1.327 . S
C1596 H1621 0.950 . S
C1597 C1596 1.349 1_556 S
C1597 C1613 1.349 . S
C1598 C1596 1.327 . S
C1598 C1617 1.429 1_554 S
C1598 H1622 0.950 . S
C1599 C1616 1.574 . S
C1599 C1618 1.368 . S
C1599 H1623 0.949 . S
H1600 C1604 0.949 . S
C1601 C1602 1.349 . S
C1601 C1603 1.327 . S
C1601 H1624 0.950 . S
C1602 C1601 1.349 . S
C1602 C1614 1.349 1_556 S
C1603 C1601 1.327 . S
C1603 C1619 1.429 . S
C1603 H1625 0.950 . S
C1604 H1600 0.949 . S
C1604 C1612 1.574 . S
C1604 C1620 1.368 1_554 S
H1605 C1613 0.950 . S
H1606 C1611 0.950 . S
H1607 C1612 0.949 . S
H1608 C1614 0.950 . S
H1609 C1615 0.950 . S
H1610 C1616 0.949 . S
C1611 H1606 0.950 . S
C1611 C1613 1.327 . S
C1611 C1617 1.429 . S
C1612 C1604 1.574 . S
C1612 H1607 0.949 . S
C1612 C1618 1.368 1_554 S
C1613 C1597 1.349 . S
C1613 H1605 0.950 . S
C1613 C1611 1.327 . S
C1614 C1602 1.349 1_554 S
C1614 H1608 0.950 . S
C1614 C1615 1.327 . S
C1615 H1609 0.950 . S
C1615 C1614 1.327 . S
C1615 C1619 1.429 1_554 S
C1616 C1599 1.574 . S
C1616 H1610 0.949 . S
C1616 C1620 1.368 . S
C1617 C1598 1.429 1_556 S
C1617 C1611 1.429 . S
C1617 C1618 1.523 . S
C1618 C1599 1.368 . S
C1618 C1612 1.368 1_556 S
C1618 C1617 1.523 . S
C1619 C1603 1.429 . S
C1619 C1615 1.429 1_556 S
C1619 C1620 1.523 . S
C1620 C1604 1.368 1_556 S
C1620 C1616 1.368 . S
C1620 C1619 1.523 . S
H1621 C1596 0.950 . S
H1622 C1598 0.950 . S
H1623 C1599 0.949 . S
H1624 C1601 0.950 . S
H1625 C1603 0.950 . S
C1626 C1627 1.349 . S
C1626 C1628 1.327 . S
C1626 H1651 0.950 . S
C1627 C1626 1.349 . S
C1627 C1643 1.349 . S
C1628 C1626 1.327 . S
C1628 C1647 1.429 . S
C1628 H1652 0.950 . S
C1629 C1646 1.574 . S
C1629 C1648 1.368 . S
C1629 H1653 0.949 . S
H1630 C1634 0.949 . S
C1631 C1632 1.349 . S
C1631 C1633 1.327 . S
C1631 H1654 0.950 . S
C1632 C1631 1.349 . S
C1632 C1644 1.349 . S
C1633 C1631 1.327 . S
C1633 C1649 1.429 . S
C1633 H1655 0.950 . S
C1634 H1630 0.949 . S
C1634 C1642 1.574 . S
C1634 C1650 1.368 . S
H1635 C1643 0.950 . S
H1636 C1641 0.950 . S
H1637 C1642 0.949 . S
H1638 C1644 0.950 . S
H1639 C1645 0.950 . S
H1640 C1646 0.949 . S
C1641 H1636 0.950 . S
C1641 C1643 1.327 . S
C1641 C1647 1.429 . S
C1642 C1634 1.574 . S
C1642 H1637 0.949 . S
C1642 C1648 1.368 . S
C1643 C1627 1.349 . S
C1643 H1635 0.950 . S
C1643 C1641 1.327 . S
C1644 C1632 1.349 . S
C1644 H1638 0.950 . S
C1644 C1645 1.327 . S
C1645 H1639 0.950 . S
C1645 C1644 1.327 . S
C1645 C1649 1.429 . S
C1646 C1629 1.574 . S
C1646 H1640 0.949 . S
C1646 C1650 1.368 . S
C1647 C1628 1.429 . S
C1647 C1641 1.429 . S
C1647 C1648 1.523 . S
C1648 C1629 1.368 . S
C1648 C1642 1.368 . S
C1648 C1647 1.523 . S
C1649 C1633 1.429 . S
C1649 C1645 1.429 . S
C1649 C1650 1.523 . S
C1650 C1634 1.368 . S
C1650 C1646 1.368 . S
C1650 C1649 1.523 . S
H1651 C1626 0.950 . S
H1652 C1628 0.950 . S
H1653 C1629 0.949 . S
H1654 C1631 0.950 . S
H1655 C1633 0.950 . S
C1656 C1657 1.349 . S
C1656 C1658 1.327 . S
C1656 H1681 0.950 . S
C1657 C1656 1.349 . S
C1657 C1673 1.349 . S
C1658 C1656 1.327 . S
C1658 C1677 1.429 . S
C1658 H1682 0.950 . S
C1659 C1676 1.574 . S
C1659 C1678 1.368 . S
C1659 H1683 0.949 . S
H1660 C1664 0.949 . S
C1661 C1662 1.349 . S
C1661 C1663 1.327 . S
C1661 H1684 0.950 . S
C1662 C1661 1.349 . S
C1662 C1674 1.349 . S
C1663 C1661 1.327 . S
C1663 C1679 1.429 . S
C1663 H1685 0.950 . S
C1664 H1660 0.949 . S
C1664 C1672 1.574 . S
C1664 C1680 1.368 . S
H1665 C1673 0.950 . S
H1666 C1671 0.950 . S
H1667 C1672 0.949 . S
H1668 C1674 0.950 . S
H1669 C1675 0.950 . S
H1670 C1676 0.949 . S
C1671 H1666 0.950 . S
C1671 C1673 1.327 . S
C1671 C1677 1.429 . S
C1672 C1664 1.574 . S
C1672 H1667 0.949 . S
C1672 C1678 1.368 . S
C1673 C1657 1.349 . S
C1673 H1665 0.950 . S
C1673 C1671 1.327 . S
C1674 C1662 1.349 . S
C1674 H1668 0.950 . S
C1674 C1675 1.327 . S
C1675 H1669 0.950 . S
C1675 C1674 1.327 . S
C1675 C1679 1.429 . S
C1676 C1659 1.574 . S
C1676 H1670 0.949 . S
C1676 C1680 1.368 . S
C1677 C1658 1.429 . S
C1677 C1671 1.429 . S
C1677 C1678 1.523 . S
C1678 C1659 1.368 . S
C1678 C1672 1.368 . S
C1678 C1677 1.523 . S
C1679 C1663 1.429 . S
C1679 C1675 1.429 . S
C1679 C1680 1.523 . S
C1680 C1664 1.368 . S
C1680 C1676 1.368 . S
C1680 C1679 1.523 . S
H1681 C1656 0.950 . S
H1682 C1658 0.950 . S
H1683 C1659 0.949 . S
H1684 C1661 0.950 . S
H1685 C1663 0.950 . S
C1686 C1687 1.349 . S
C1686 C1688 1.327 . S
C1686 H1711 0.950 . S
C1687 C1686 1.349 . S
C1687 C1703 1.349 . S
C1688 C1686 1.327 . S
C1688 C1707 1.429 . S
C1688 H1712 0.950 . S
C1689 C1706 1.574 . S
C1689 C1708 1.368 . S
C1689 H1713 0.949 . S
H1690 C1694 0.949 . S
C1691 C1692 1.349 . S
C1691 C1693 1.327 . S
C1691 H1714 0.950 . S
C1692 C1691 1.349 . S
C1692 C1704 1.349 . S
C1693 C1691 1.327 . S
C1693 C1709 1.429 . S
C1693 H1715 0.950 . S
C1694 H1690 0.949 . S
C1694 C1702 1.574 . S
C1694 C1710 1.368 . S
H1695 C1703 0.950 . S
H1696 C1701 0.950 . S
H1697 C1702 0.949 . S
H1698 C1704 0.950 . S
H1699 C1705 0.950 . S
H1700 C1706 0.949 . S
C1701 H1696 0.950 . S
C1701 C1703 1.327 . S
C1701 C1707 1.429 . S
C1702 C1694 1.574 . S
C1702 H1697 0.949 . S
C1702 C1708 1.368 . S
C1703 C1687 1.349 . S
C1703 H1695 0.950 . S
C1703 C1701 1.327 . S
C1704 C1692 1.349 . S
C1704 H1698 0.950 . S
C1704 C1705 1.327 . S
C1705 H1699 0.950 . S
C1705 C1704 1.327 . S
C1705 C1709 1.429 . S
C1706 C1689 1.574 . S
C1706 H1700 0.949 . S
C1706 C1710 1.368 . S
C1707 C1688 1.429 . S
C1707 C1701 1.429 . S
C1707 C1708 1.523 . S
C1708 C1689 1.368 . S
C1708 C1702 1.368 . S
C1708 C1707 1.523 . S
C1709 C1693 1.429 . S
C1709 C1705 1.429 . S
C1709 C1710 1.523 . S
C1710 C1694 1.368 . S
C1710 C1706 1.368 . S
C1710 C1709 1.523 . S
H1711 C1686 0.950 . S
H1712 C1688 0.950 . S
H1713 C1689 0.949 . S
H1714 C1691 0.950 . S
H1715 C1693 0.950 . S
C1716 C1717 1.349 . S
C1716 C1718 1.327 . S
C1716 H1741 0.950 . S
C1717 C1716 1.349 . S
C1717 C1733 1.349 . S
C1718 C1716 1.327 . S
C1718 C1737 1.429 . S
C1718 H1742 0.950 . S
C1719 C1736 1.574 . S
C1719 C1738 1.368 . S
C1719 H1743 0.949 . S
H1720 C1724 0.949 . S
C1721 C1722 1.349 . S
C1721 C1723 1.327 . S
C1721 H1744 0.950 . S
C1722 C1721 1.349 . S
C1722 C1734 1.349 . S
C1723 C1721 1.327 . S
C1723 C1739 1.429 . S
C1723 H1745 0.950 . S
C1724 H1720 0.949 . S
C1724 C1732 1.574 . S
C1724 C1740 1.368 . S
H1725 C1733 0.950 . S
H1726 C1731 0.950 . S
H1727 C1732 0.949 . S
H1728 C1734 0.950 . S
H1729 C1735 0.950 . S
H1730 C1736 0.949 . S
C1731 H1726 0.950 . S
C1731 C1733 1.327 . S
C1731 C1737 1.429 . S
C1732 C1724 1.574 . S
C1732 H1727 0.949 . S
C1732 C1738 1.368 . S
C1733 C1717 1.349 . S
C1733 H1725 0.950 . S
C1733 C1731 1.327 . S
C1734 C1722 1.349 . S
C1734 H1728 0.950 . S
C1734 C1735 1.327 . S
C1735 H1729 0.950 . S
C1735 C1734 1.327 . S
C1735 C1739 1.429 . S
C1736 C1719 1.574 . S
C1736 H1730 0.949 . S
C1736 C1740 1.368 . S
C1737 C1718 1.429 . S
C1737 C1731 1.429 . S
C1737 C1738 1.523 . S
C1738 C1719 1.368 . S
C1738 C1732 1.368 . S
C1738 C1737 1.523 . S
C1739 C1723 1.429 . S
C1739 C1735 1.429 . S
C1739 C1740 1.523 . S
C1740 C1724 1.368 . S
C1740 C1736 1.368 . S
C1740 C1739 1.523 . S
H1741 C1716 0.950 . S
H1742 C1718 0.950 . S
H1743 C1719 0.949 . S
H1744 C1721 0.950 . S
H1745 C1723 0.950 . S
C1746 C1747 1.349 . S
C1746 C1748 1.327 . S
C1746 H1771 0.950 . S
C1747 C1746 1.349 . S
C1747 C1763 1.349 . S
C1748 C1746 1.327 . S
C1748 C1767 1.429 . S
C1748 H1772 0.950 . S
C1749 C1766 1.574 . S
C1749 C1768 1.368 . S
C1749 H1773 0.949 . S
H1750 C1754 0.949 . S
C1751 C1752 1.349 . S
C1751 C1753 1.327 . S
C1751 H1774 0.950 . S
C1752 C1751 1.349 . S
C1752 C1764 1.349 . S
C1753 C1751 1.327 . S
C1753 C1769 1.429 . S
C1753 H1775 0.950 . S
C1754 H1750 0.949 . S
C1754 C1762 1.574 . S
C1754 C1770 1.368 . S
H1755 C1763 0.950 . S
H1756 C1761 0.950 . S
H1757 C1762 0.949 . S
H1758 C1764 0.950 . S
H1759 C1765 0.950 . S
H1760 C1766 0.949 . S
C1761 H1756 0.950 . S
C1761 C1763 1.327 . S
C1761 C1767 1.429 . S
C1762 C1754 1.574 . S
C1762 H1757 0.949 . S
C1762 C1768 1.368 . S
C1763 C1747 1.349 . S
C1763 H1755 0.950 . S
C1763 C1761 1.327 . S
C1764 C1752 1.349 . S
C1764 H1758 0.950 . S
C1764 C1765 1.327 . S
C1765 H1759 0.950 . S
C1765 C1764 1.327 . S
C1765 C1769 1.429 . S
C1766 C1749 1.574 . S
C1766 H1760 0.949 . S
C1766 C1770 1.368 . S
C1767 C1748 1.429 . S
C1767 C1761 1.429 . S
C1767 C1768 1.523 . S
C1768 C1749 1.368 . S
C1768 C1762 1.368 . S
C1768 C1767 1.523 . S
C1769 C1753 1.429 . S
C1769 C1765 1.429 . S
C1769 C1770 1.523 . S
C1770 C1754 1.368 . S
C1770 C1766 1.368 . S
C1770 C1769 1.523 . S
H1771 C1746 0.950 . S
H1772 C1748 0.950 . S
H1773 C1749 0.949 . S
H1774 C1751 0.950 . S
H1775 C1753 0.950 . S
C337 C14 0.748 . S
C342 C37 0.748 . S
C367 C60 0.738 . S
C372 C34 0.735 . S
C397 C76 0.714 . S
C402 C59 0.712 . S
C427 C15 0.707 . S
C432 C79 0.697 . S
C457 C18 0.790 . S
C462 C203 0.800 . S
C487 C162 0.794 . S
C492 C35 0.806 . S
C517 C57 0.830 . S
C522 C227 0.848 . S
C547 C80 0.838 . S
C552 C288 0.821 . S
C577 C183 0.843 . S
C582 C38 0.864 . S
C607 C269 0.805 . S
C612 C55 0.803 . S
C637 C310 0.778 . S
C642 C77 0.779 . S
C667 C16 0.759 . S
C672 C245 0.760 . S
C697 C13 0.598 . S
C702 C184 0.599 . S
C727 C270 0.785 . S
C732 C99 0.786 . S
C757 C119 0.694 . S
C762 C307 0.695 . S
C787 C246 0.748 . S
C792 C144 0.748 . S
C817 C56 0.697 . S
C822 C163 0.698 . S
C847 C204 0.789 . S
C852 C102 0.789 . S
C877 C141 0.819 . S
C882 C228 0.820 . S
C907 C120 0.781 . S
C912 C248 0.789 . S
C937 C206 0.747 . S
C942 C118 0.747 . S
C967 C247 0.701 . S
C972 C165 0.711 . S
C997 C123 0.695 . S
C1002 C97 0.681 . S
C1027 C202 0.729 . S
C1032 C185 0.728 . S
C1057 C290 0.663 . S
C1062 C244 0.668 . S
C1087 C139 0.661 . S
C1092 C122 0.655 . S
C1117 C205 0.680 . S
C1122 C308 0.677 . S
C1147 C289 0.700 . S
C1152 C17 0.699 . S
C1177 C58 0.695 . S
C1182 C311 0.694 . S
C1207 C267 0.807 . S
C1212 C39 0.805 . S
C1237 C161 0.691 . S
C1242 C121 0.692 . S
C1267 C81 0.764 . S
C1272 C225 0.763 . S
C1297 C265 0.728 . S
C1302 C291 0.732 . S
C1327 C164 0.690 . S
C1332 C268 0.693 . S
C1357 C140 0.790 . S
C1362 C160 0.788 . S
C1387 C101 0.758 . S
C1392 C286 0.758 . S
C1417 C266 0.836 . S
C1422 C333 0.819 . S
C1447 C332 0.797 . S
C1452 C182 0.797 . S
C1477 C36 0.736 . S
C1482 C207 0.736 . S
C1507 C181 0.730 . S
C1512 C143 0.729 . S
C1537 C186 0.686 . S
C1542 C223 0.668 . S
C1567 C330 0.672 . S
C1572 C142 0.650 . S
C1597 C287 0.691 . S
C1602 C328 0.693 . S
C1627 C249 0.768 . S
C1632 C78 0.767 . S
C1657 C226 0.716 . S
C1662 C309 0.722 . S
C1687 C224 0.791 . S
C1692 C331 0.789 . S
C1717 C98 0.817 . S
C1722 C312 0.803 . S
C1747 C329 0.695 . S
C1752 C100 0.698 . S
