# Generated by pormake.
# Topology snk, (6)-cn, num edge types: 1
# Building blocks:
#     Node 0, Type 0, BuildingBlock: BETDAH_clean_sbu_0, # of connection points: 6
#     Node 1, Type 0, BuildingBlock: BETDAH_clean_sbu_0, # of connection points: 6
#     Node 2, Type 0, BuildingBlock: BETDAH_clean_sbu_0, # of connection points: 6
#     Node 3, Type 0, BuildingBlock: BETDAH_clean_sbu_0, # of connection points: 6
#     Node 4, Type 0, BuildingBlock: BETDAH_clean_sbu_0, # of connection points: 6
#     Node 5, Type 0, BuildingBlock: BETDAH_clean_sbu_0, # of connection points: 6
#     Node 6, Type 0, BuildingBlock: BETDAH_clean_sbu_0, # of connection points: 6
#     Node 7, Type 0, BuildingBlock: BETDAH_clean_sbu_0, # of connection points: 6
#     Edge 8, Type (0, 0), BuildingBlock: TEMPAE_clean_linker_10, # of connection points: 2
#     Edge 9, Type (0, 0), BuildingBlock: TEMPAE_clean_linker_10, # of connection points: 2
#     Edge 10, Type (0, 0), BuildingBlock: TEMPAE_clean_linker_10, # of connection points: 2
#     Edge 11, Type (0, 0), BuildingBlock: TEMPAE_clean_linker_10, # of connection points: 2
#     Edge 12, Type (0, 0), BuildingBlock: TEMPAE_clean_linker_10, # of connection points: 2
#     Edge 13, Type (0, 0), BuildingBlock: TEMPAE_clean_linker_10, # of connection points: 2
#     Edge 14, Type (0, 0), BuildingBlock: TEMPAE_clean_linker_10, # of connection points: 2
#     Edge 15, Type (0, 0), BuildingBlock: TEMPAE_clean_linker_10, # of connection points: 2
#     Edge 16, Type (0, 0), BuildingBlock: TEMPAE_clean_linker_10, # of connection points: 2
#     Edge 17, Type (0, 0), BuildingBlock: TEMPAE_clean_linker_10, # of connection points: 2
#     Edge 18, Type (0, 0), BuildingBlock: TEMPAE_clean_linker_10, # of connection points: 2
#     Edge 19, Type (0, 0), BuildingBlock: TEMPAE_clean_linker_10, # of connection points: 2
#     Edge 20, Type (0, 0), BuildingBlock: TEMPAE_clean_linker_10, # of connection points: 2
#     Edge 21, Type (0, 0), BuildingBlock: TEMPAE_clean_linker_10, # of connection points: 2
#     Edge 22, Type (0, 0), BuildingBlock: TEMPAE_clean_linker_10, # of connection points: 2
#     Edge 23, Type (0, 0), BuildingBlock: TEMPAE_clean_linker_10, # of connection points: 2
#     Edge 24, Type (0, 0), BuildingBlock: TEMPAE_clean_linker_10, # of connection points: 2
#     Edge 25, Type (0, 0), BuildingBlock: TEMPAE_clean_linker_10, # of connection points: 2
#     Edge 26, Type (0, 0), BuildingBlock: TEMPAE_clean_linker_10, # of connection points: 2
#     Edge 27, Type (0, 0), BuildingBlock: TEMPAE_clean_linker_10, # of connection points: 2
#     Edge 28, Type (0, 0), BuildingBlock: TEMPAE_clean_linker_10, # of connection points: 2
#     Edge 29, Type (0, 0), BuildingBlock: TEMPAE_clean_linker_10, # of connection points: 2
#     Edge 30, Type (0, 0), BuildingBlock: TEMPAE_clean_linker_10, # of connection points: 2
#     Edge 31, Type (0, 0), BuildingBlock: TEMPAE_clean_linker_10, # of connection points: 2
# Relax obj value: 0.086
# Max RMSD: 0.150
# Mean RMSD: 0.124
data_MOF--net-snk--node1-BETDAH_clean_sbu_0--edge1-TEMPAE_clean_linker_10
_symmetry_space_group_name_H-M    P1
_symmetry_Int_Tables_number       1
_symmetry_cell_setting            triclinic
loop_
_symmetry_equiv_pos_as_xyz
'x, y, z'
_cell_length_a     38.047258
_cell_length_b     37.988672
_cell_length_c     25.627705
_cell_angle_alpha  83.109622
_cell_angle_beta   96.979118
_cell_angle_gamma 88.948501
loop_
_atom_site_label
_atom_site_type_symbol
_atom_site_fract_x
_atom_site_fract_y
_atom_site_fract_z
_atom_type_partial_charge
Ho0 Ho 0.99363 0.98617 0.45175 0.0
Ho1 Ho 0.02854 0.00863 0.55907 0.0
C2 C 0.06295 0.03559 0.4559 0.0
C3 C 0.96698 0.97923 0.35578 0.0
C4 C 0.97415 0.9909 0.30122 0.0
C5 C 0.94597 0.99498 0.26007 0.0
C6 C 0.95253 1.00116 0.20724 0.0
C7 C 0.98747 1.00314 0.19466 0.0
C8 C 0.01558 1.00073 0.23616 0.0
C9 C 0.00898 0.99481 0.28898 0.0
C10 C 0.03886 0.93892 0.5132 0.0
C11 C 0.95626 0.96256 0.5545 0.0
C12 C 0.05981 0.00769 0.65486 0.0
C13 C 0.05065 0.00529 0.70924 0.0
C14 C 0.07789 1.00417 0.75143 0.0
C15 C 0.06998 1.00389 0.80331 0.0
C16 C 0.03458 0.00464 0.81401 0.0
C17 C 0.00727 0.00483 0.77159 0.0
C18 C 0.01526 0.00526 0.71955 0.0
C19 C 0.98322 0.05695 0.50058 0.0
O20 O 0.03386 0.02618 0.42758 0.0
O21 O 0.06975 0.02604 0.50755 0.0
O22 O 0.99046 0.95707 0.38435 0.0
O23 O 0.95542 1.00326 0.38265 0.0
O24 O 0.00961 0.93032 0.48715 0.0
O25 O 0.04271 0.97184 0.50506 0.0
O26 O 0.98393 0.97434 0.58333 0.0
O27 O 0.95184 0.96768 0.50203 0.0
O28 O 0.04925 0.03681 0.62388 0.0
O29 O 0.05537 0.97925 0.63097 0.0
O30 O 0.00896 0.06522 0.53443 0.0
O31 O 0.97999 0.02384 0.50487 0.0
H32 H 0.91892 0.99204 0.26871 0.0
H33 H 0.93034 1.00275 0.17619 0.0
H34 H 0.04274 1.00272 0.22772 0.0
H35 H 0.03116 0.99204 0.32015 0.0
H36 H 0.10536 1.00393 0.74418 0.0
H37 H 0.09161 1.00307 0.83512 0.0
H38 H 0.97975 0.00556 0.77847 0.0
H39 H 0.99388 0.00613 0.68733 0.0
Ho40 Ho 0.23198 0.7386 0.85923 0.0
Ho41 Ho 0.24687 0.776 0.74927 0.0
C42 C 0.28307 0.8073 0.85094 0.0
C43 C 0.23549 0.70762 0.95571 0.0
C44 C 0.23628 0.71731 1.00977 0.0
C45 C 0.24615 0.69142 0.05305 0.0
C46 C 0.24599 0.69953 0.10484 0.0
C47 C 0.2359 0.73378 0.1144 0.0
C48 C 0.22636 0.75983 0.07073 0.0
C49 C 0.22664 0.75169 0.01885 0.0
C50 C 0.18466 0.7901 0.8129 0.0
C51 C 0.19927 0.70523 0.75611 0.0
C52 C 0.24035 0.80882 0.6538 0.0
C53 C 0.23526 0.79999 0.59905 0.0
C54 C 0.22775 0.8273 0.55711 0.0
C55 C 0.22531 0.81997 0.50462 0.0
C56 C 0.23052 0.7851 0.49299 0.0
C57 C 0.23706 0.75757 0.53537 0.0
C58 C 0.2394 0.76496 0.58795 0.0
C59 C 0.29466 0.72484 0.79511 0.0
O60 O 0.27342 0.77862 0.88002 0.0
O61 O 0.27121 0.81498 0.8001 0.0
O62 O 0.20583 0.71475 0.92433 0.0
O63 O 0.26337 0.71521 0.93183 0.0
O64 O 0.17624 0.76185 0.84154 0.0
O65 O 0.21761 0.79022 0.81268 0.0
O66 O 0.20769 0.73468 0.72778 0.0
O67 O 0.21038 0.69803 0.8075 0.0
O68 O 0.27084 0.79874 0.68139 0.0
O69 O 0.21368 0.80344 0.68125 0.0
O70 O 0.30236 0.7518 0.7629 0.0
O71 O 0.26179 0.72454 0.79654 0.0
H72 H 0.25363 0.66473 0.04677 0.0
H73 H 0.2531 0.67873 0.13741 0.0
H74 H 0.2189 0.78657 0.07668 0.0
H75 H 0.21912 0.77211 0.98586 0.0
H76 H 0.22435 0.85448 0.56494 0.0
H77 H 0.21954 0.84172 0.47311 0.0
H78 H 0.24146 0.73046 0.528 0.0
H79 H 0.24522 0.7435 0.61992 0.0
Ho80 Ho 0.52453 0.98786 0.07234 0.0
Ho81 Ho 0.49377 0.02263 0.96002 0.0
C82 C 0.45869 0.04715 0.05677 0.0
C83 C 0.55239 0.97747 0.17061 0.0
C84 C 0.54397 0.98467 0.22322 0.0
C85 C 0.57161 0.99134 0.26183 0.0
C86 C 0.56476 0.99636 0.31292 0.0
C87 C 0.53006 0.99471 0.32661 0.0
C88 C 0.50226 0.98868 0.28742 0.0
C89 C 0.50912 0.98384 0.23617 0.0
C90 C 0.47424 0.95163 0.02095 0.0
C91 C 0.55939 0.96333 0.97519 0.0
C92 C 0.46583 0.03368 0.86184 0.0
C93 C 0.47362 0.02633 0.80902 0.0
C94 C 0.44541 0.02374 0.76922 0.0
C95 C 0.45182 0.01892 0.71789 0.0
C96 C 0.48668 0.0167 0.70507 0.0
C97 C 0.51499 0.0184 0.74556 0.0
C98 C 0.50852 0.02314 0.79706 0.0
C99 C 0.54358 0.05892 1.01239 0.0
O100 O 0.48413 0.02845 0.08893 0.0
O101 O 0.45449 0.04655 1.00488 0.0
O102 O 0.53315 0.95429 0.14728 0.0
O103 O 0.55901 0.00495 0.13773 0.0
O104 O 0.50079 0.93657 0.05298 0.0
O105 O 0.47439 0.98483 0.02067 0.0
O106 O 0.53386 0.98197 0.94322 0.0
O107 O 0.56372 0.96387 0.02712 0.0
O108 O 0.48602 0.05622 0.88507 0.0
O109 O 0.45858 0.00642 0.89468 0.0
O110 O 0.517 0.07401 0.98044 0.0
O111 O 0.54364 0.0258 1.01193 0.0
H112 H 0.59867 0.99212 0.25268 0.0
H113 H 0.58683 1.00063 0.34212 0.0
H114 H 0.47516 0.98778 0.29636 0.0
H115 H 0.48727 0.97906 0.20688 0.0
H116 H 0.41829 0.02589 0.7777 0.0
H117 H 0.42936 0.01698 0.68818 0.0
H118 H 0.54217 0.01701 0.7372 0.0
H119 H 0.53075 0.02492 0.82726 0.0
Ho120 Ho 0.23708 0.26867 0.20648 0.0
Ho121 Ho 0.27748 0.24317 0.31726 0.0
C122 C 0.29829 0.20481 0.22146 0.0
C123 C 0.21961 0.29189 0.10725 0.0
C124 C 0.22714 0.28461 0.05417 0.0
C125 C 0.26189 0.28065 0.04175 0.0
C126 C 0.26787 0.27538 0.99023 0.0
C127 C 0.23926 0.27397 0.95014 0.0
C128 C 0.20459 0.27736 0.96319 0.0
C129 C 0.19865 0.28269 1.01449 0.0
C130 C 0.20411 0.22106 0.26813 0.0
C131 C 0.21664 0.30727 0.30267 0.0
C132 C 0.29492 0.22008 0.41651 0.0
C133 C 0.28755 0.22801 0.46945 0.0
C134 C 0.25296 0.22899 0.48348 0.0
C135 C 0.24719 0.23496 0.53479 0.0
C136 C 0.27584 0.24025 0.57302 0.0
C137 C 0.31032 0.23965 0.55854 0.0
C138 C 0.31607 0.2335 0.50746 0.0
C139 C 0.31089 0.28957 0.25449 0.0
O140 O 0.27811 0.22904 0.18909 0.0
O141 O 0.29984 0.20228 0.27361 0.0
O142 O 0.20194 0.26804 0.13346 0.0
O143 O 0.24489 0.30518 0.13763 0.0
O144 O 0.18768 0.24667 0.23571 0.0
O145 O 0.23678 0.22072 0.26399 0.0
O146 O 0.23698 0.2831 0.3348 0.0
O147 O 0.21455 0.30949 0.25046 0.0
O148 O 0.31297 0.24342 0.38997 0.0
O149 O 0.26941 0.20694 0.38631 0.0
O150 O 0.32711 0.26415 0.28753 0.0
O151 O 0.27829 0.29059 0.25915 0.0
H152 H 0.28441 0.28202 0.07159 0.0
H153 H 0.29493 0.27317 0.98156 0.0
H154 H 0.1819 0.27577 0.93374 0.0
H155 H 0.17164 0.28559 0.02313 0.0
H156 H 0.23037 0.22494 0.45502 0.0
H157 H 0.22028 0.23563 0.54445 0.0
H158 H 0.33302 0.24316 0.5871 0.0
H159 H 0.343 0.23263 0.49779 0.0
Ho160 Ho 0.74811 0.23824 0.31735 0.0
Ho161 Ho 0.76525 0.2761 0.20906 0.0
C162 C 0.79601 0.30938 0.312 0.0
C163 C 0.75059 0.2073 0.41358 0.0
C164 C 0.75471 0.21717 0.46786 0.0
C165 C 0.76559 0.19117 0.51065 0.0
C166 C 0.76718 0.19922 0.56276 0.0
C167 C 0.75776 0.23348 0.57311 0.0
C168 C 0.7477 0.25975 0.52993 0.0
C169 C 0.74629 0.25169 0.47778 0.0
C170 C 0.69974 0.28702 0.26644 0.0
C171 C 0.71807 0.20466 0.21393 0.0
C172 C 0.7616 0.3077 0.11307 0.0
C173 C 0.75661 0.29848 0.05847 0.0
C174 C 0.74806 0.32545 0.01625 0.0
C175 C 0.74615 0.31795 0.96387 0.0
C176 C 0.75279 0.28324 0.95261 0.0
C177 C 0.76016 0.25599 0.99522 0.0
C178 C 0.76206 0.26355 0.04769 0.0
C179 C 0.81359 0.22723 0.26004 0.0
O180 O 0.78657 0.2803 0.34037 0.0
O181 O 0.78592 0.31644 0.26048 0.0
O182 O 0.7212 0.21839 0.38373 0.0
O183 O 0.77835 0.21035 0.38799 0.0
O184 O 0.69163 0.25823 0.29426 0.0
O185 O 0.73279 0.28919 0.26936 0.0
O186 O 0.72731 0.23388 0.18577 0.0
O187 O 0.72792 0.19763 0.26558 0.0
O188 O 0.79127 0.29619 0.14186 0.0
O189 O 0.73426 0.30449 0.13953 0.0
O190 O 0.82176 0.25534 0.23061 0.0
O191 O 0.78054 0.2252 0.25722 0.0
H192 H 0.77218 0.16437 0.50379 0.0
H193 H 0.77476 0.1783 0.59498 0.0
H194 H 0.7408 0.28652 0.53649 0.0
H195 H 0.73805 0.27224 0.44524 0.0
H196 H 0.7435 0.35252 0.0238 0.0
H197 H 0.7397 0.33944 0.93213 0.0
H198 H 0.76557 0.22901 0.98809 0.0
H199 H 0.76859 0.24232 0.07983 0.0
Ho200 Ho 0.73958 0.77031 0.70668 0.0
Ho201 Ho 0.77687 0.74197 0.81831 0.0
C202 C 0.79957 0.70533 0.72178 0.0
C203 C 0.7252 0.7964 0.60795 0.0
C204 C 0.73146 0.78862 0.55466 0.0
C205 C 0.76275 0.77138 0.54562 0.0
C206 C 0.76808 0.76539 0.49411 0.0
C207 C 0.74223 0.77651 0.45071 0.0
C208 C 0.71077 0.79327 0.46039 0.0
C209 C 0.70552 0.79927 0.51171 0.0
C210 C 0.70478 0.72112 0.76265 0.0
C211 C 0.71679 0.80676 0.8035 0.0
C212 C 0.79132 0.71618 0.91712 0.0
C213 C 0.78536 0.72459 0.9703 0.0
C214 C 0.75284 0.73884 0.98034 0.0
C215 C 0.7479 0.74544 0.03172 0.0
C216 C 0.77543 0.73814 0.07393 0.0
C217 C 0.808 0.72423 0.06338 0.0
C218 C 0.81285 0.7175 1.01221 0.0
C219 C 0.81159 0.79098 0.76171 0.0
O220 O 0.78038 0.73038 0.68957 0.0
O221 O 0.79975 0.70178 0.7738 0.0
O222 O 0.70439 0.77515 0.63289 0.0
O223 O 0.7525 0.80539 0.63925 0.0
O224 O 0.68916 0.74732 0.73053 0.0
O225 O 0.73776 0.72098 0.76094 0.0
O226 O 0.73629 0.78195 0.83565 0.0
O227 O 0.71622 0.81018 0.75141 0.0
O228 O 0.81242 0.73684 0.89177 0.0
O229 O 0.76382 0.7073 0.88607 0.0
O230 O 0.82731 0.76486 0.7939 0.0
O231 O 0.77869 0.7911 0.76394 0.0
H232 H 0.78315 0.76282 0.57821 0.0
H233 H 0.79273 0.75264 0.48817 0.0
H234 H 0.68998 0.80159 0.42828 0.0
H235 H 0.68111 0.81243 0.51784 0.0
H236 H 0.73125 0.74474 0.94861 0.0
H237 H 0.72262 0.75653 0.03833 0.0
H238 H 0.82961 0.71789 0.09495 0.0
H239 H 0.8381 0.70642 1.00542 0.0
Ho240 Ho 0.4909 0.48368 0.93308 0.0
Ho241 Ho 0.52757 0.49991 0.04282 0.0
C242 C 0.5597 0.53461 0.94093 0.0
C243 C 0.45975 0.48682 0.83678 0.0
C244 C 0.46904 0.48774 0.78258 0.0
C245 C 0.4423 0.49497 0.73976 0.0
C246 C 0.45004 0.49472 0.68787 0.0
C247 C 0.48475 0.48714 0.67774 0.0
C248 C 0.51167 0.4805 0.72094 0.0
C249 C 0.50387 0.4808 0.77295 0.0
C250 C 0.54211 0.43661 0.98074 0.0
C251 C 0.45712 0.4518 0.03606 0.0
C252 C 0.55964 0.49449 0.13865 0.0
C253 C 0.55002 0.48963 0.19291 0.0
C254 C 0.57607 0.47808 0.23531 0.0
C255 C 0.56811 0.47551 0.28748 0.0
C256 C 0.5339 0.48455 0.29821 0.0
C257 C 0.50759 0.49524 0.25538 0.0
C258 C 0.51555 0.49766 0.20316 0.0
C259 C 0.47643 0.54718 0.99526 0.0
O260 O 0.53129 0.52451 0.91173 0.0
O261 O 0.56683 0.5237 0.99216 0.0
O262 O 0.46739 0.45717 0.86804 0.0
O263 O 0.46718 0.51484 0.86056 0.0
O264 O 0.51422 0.42792 0.95155 0.0
O265 O 0.54221 0.46966 0.98065 0.0
O266 O 0.48608 0.46103 0.06476 0.0
O267 O 0.45035 0.46213 0.98445 0.0
O268 O 0.54957 0.52477 0.11035 0.0
O269 O 0.555 0.46748 0.1116 0.0
O270 O 0.50322 0.55543 0.02733 0.0
O271 O 0.47636 0.51417 0.99475 0.0
H272 H 0.4153 0.50061 0.74649 0.0
H273 H 0.4288 0.50061 0.65561 0.0
H274 H 0.53862 0.47433 0.71463 0.0
H275 H 0.52488 0.47522 0.80564 0.0
H276 H 0.6028 0.4717 0.22811 0.0
H277 H 0.58904 0.46744 0.3195 0.0
H278 H 0.48086 0.50186 0.26226 0.0
H279 H 0.49498 0.50633 0.17085 0.0
Ho280 Ho 0.02212 0.48448 0.57309 0.0
Ho281 Ho 0.99832 0.52625 0.46253 0.0
C282 C 0.95833 0.54575 0.55742 0.0
C283 C 0.04394 0.46584 0.67254 0.0
C284 C 0.03705 0.47418 0.72543 0.0
C285 C 0.03568 0.50919 0.73797 0.0
C286 C 0.03034 0.51583 0.78918 0.0
C287 C 0.02612 0.48764 0.82877 0.0
C288 C 0.02732 0.45274 0.81575 0.0
C289 C 0.03276 0.44614 0.76477 0.0
C290 C 0.9762 0.45192 0.50817 0.0
C291 C 0.06181 0.46481 0.47757 0.0
C292 C 0.97659 0.54563 0.36326 0.0
C293 C 0.9839 0.53843 0.31008 0.0
C294 C 0.99025 0.50388 0.29819 0.0
C295 C 0.99559 0.4981 0.24661 0.0
C296 C 0.99473 0.52674 0.20595 0.0
C297 C 0.98902 0.56127 0.21855 0.0
C298 C 0.9836 0.56699 0.26991 0.0
C299 C 0.04307 0.55912 0.52873 0.0
O300 O 0.98223 0.52538 0.59009 0.0
O301 O 0.95657 0.54784 0.50528 0.0
O302 O 0.01889 0.44982 0.6458 0.0
O303 O 0.05907 0.48993 0.64258 0.0
O304 O 1.00124 0.43531 0.54147 0.0
O305 O 0.97534 0.48451 0.51329 0.0
O306 O 0.03823 0.48568 0.44522 0.0
O307 O 0.06334 0.46211 0.52978 0.0
O308 O 1.00106 0.56194 0.39068 0.0
O309 O 0.96209 0.52055 0.39239 0.0
O310 O 0.01813 0.57556 0.49506 0.0
O311 O 0.04457 0.52666 0.52292 0.0
H312 H 0.03885 0.5314 0.70836 0.0
H313 H 0.02924 0.54306 0.79767 0.0
H314 H 0.02473 0.43036 0.84532 0.0
H315 H 0.03397 0.41893 0.75617 0.0
H316 H 0.99071 0.48136 0.32853 0.0
H317 H 0.99964 0.47112 0.23836 0.0
H318 H 0.98886 0.58403 0.1887 0.0
H319 H 0.97892 0.59387 0.27822 0.0
C320 C 0.08686 0.06317 0.37433 0.0
C321 C 0.08758 0.05938 0.42954 0.0
C322 C 0.10807 0.08786 0.34866 0.0
C323 C 0.12989 0.10981 0.37886 0.0
C324 C 0.13125 0.10559 0.4347 0.0
C325 C 0.11034 0.08019 0.4594 0.0
C326 C 0.10641 0.09109 0.28911 0.0
C327 C 0.15364 0.12894 0.46821 0.0
C328 C 0.20308 0.1601 0.31677 0.0
C329 C 0.18604 0.19307 0.29863 0.0
C330 C 0.18511 0.13259 0.34282 0.0
C331 C 0.14961 0.13861 0.35185 0.0
C332 C 0.13271 0.17227 0.33483 0.0
C333 C 0.15104 0.19898 0.30792 0.0
C334 C 0.20382 0.09693 0.3597 0.0
C335 C 0.09518 0.18002 0.34479 0.0
H336 H 0.06946 0.04705 0.35105 0.0
H337 H 0.11081 0.07764 0.50206 0.0
H338 H 0.09451 0.11735 0.2714 0.0
H339 H 0.13351 0.08946 0.27755 0.0
H340 H 0.09043 0.07012 0.27193 0.0
H341 H 0.15312 0.12113 0.51129 0.0
H342 H 0.18153 0.12787 0.45978 0.0
H343 H 0.14386 0.15692 0.45814 0.0
H344 H 0.23014 0.15551 0.30938 0.0
H345 H 0.13797 0.2246 0.29418 0.0
H346 H 0.18908 0.07623 0.33995 0.0
H347 H 0.20439 0.08962 0.40301 0.0
H348 H 0.23145 0.0966 0.34983 0.0
H349 H 0.07681 0.16235 0.3242 0.0
H350 H 0.0864 0.20799 0.3309 0.0
H351 H 0.09293 0.17457 0.38776 0.0
C352 C 0.04056 0.89932 0.59754 0.0
C353 C 0.05846 0.91592 0.55731 0.0
C354 C 0.05929 0.87893 0.64172 0.0
C355 C 0.09641 0.8737 0.64388 0.0
C356 C 0.11433 0.88959 0.6022 0.0
C357 C 0.09515 0.91139 0.55992 0.0
C358 C 0.03952 0.86373 0.68647 0.0
C359 C 0.15364 0.8833 0.60202 0.0
C360 C 0.15647 0.84775 0.77227 0.0
C361 C 0.15973 0.81104 0.77268 0.0
C362 C 0.13426 0.86834 0.7319 0.0
C363 C 0.11671 0.85181 0.68979 0.0
C364 C 0.12005 0.81458 0.69032 0.0
C365 C 0.14084 0.79447 0.73274 0.0
C366 C 0.13002 0.90777 0.73382 0.0
C367 C 0.1031 0.7962 0.645 0.0
H368 H 0.0121 0.90327 0.59527 0.0
H369 H 0.10867 0.92433 0.52834 0.0
H370 H 0.0424 0.83438 0.69215 0.0
H371 H 0.05101 0.87321 0.72398 0.0
H372 H 0.01082 0.8713 0.67922 0.0
H373 H 0.163 0.89567 0.5649 0.0
H374 H 0.16859 0.89428 0.63595 0.0
H375 H 0.16008 0.85439 0.60677 0.0
H376 H 0.17117 0.86025 0.80362 0.0
H377 H 0.14364 0.76597 0.73344 0.0
H378 H 0.10151 0.916 0.72766 0.0
H379 H 0.14267 0.92253 0.70146 0.0
H380 H 0.14216 0.91572 0.77212 0.0
H381 H 0.07407 0.80167 0.63871 0.0
H382 H 0.10813 0.767 0.65186 0.0
H383 H 0.11366 0.80673 0.60791 0.0
C384 C 0.31353 0.83145 0.93069 0.0
C385 C 0.30862 0.83116 0.87565 0.0
C386 C 0.33912 0.8527 0.95447 0.0
C387 C 0.36084 0.87345 0.92253 0.0
C388 C 0.35573 0.8735 0.86689 0.0
C389 C 0.32944 0.85265 0.84409 0.0
C390 C 0.34328 0.85255 1.01384 0.0
C391 C 0.37884 0.89465 0.83156 0.0
C392 C 0.41228 0.94885 0.97685 0.0
C393 C 0.44546 0.93219 0.99457 0.0
C394 C 0.38429 0.92995 0.95387 0.0
C395 C 0.38998 0.89386 0.94741 0.0
C396 C 0.42374 0.8772 0.96431 0.0
C397 C 0.45096 0.89649 0.98826 0.0
C398 C 0.34853 0.94845 0.93715 0.0
C399 C 0.43114 0.83903 0.95693 0.0
H400 H 0.29738 0.81503 0.95522 0.0
H401 H 0.32601 0.85229 0.80155 0.0
H402 H 0.36971 0.84103 0.03131 0.0
H403 H 0.34179 0.88011 0.02387 0.0
H404 H 0.32269 0.83697 0.03258 0.0
H405 H 0.37083 0.89255 0.78892 0.0
H406 H 0.37772 0.92304 0.83769 0.0
H407 H 0.40683 0.88509 0.84206 0.0
H408 H 0.408 0.97646 0.98197 0.0
H409 H 0.47673 0.88369 1.00169 0.0
H410 H 0.32812 0.93403 0.95789 0.0
H411 H 0.3408 0.94823 0.89405 0.0
H412 H 0.34828 0.97639 0.9459 0.0
H413 H 0.4136 0.82142 0.97899 0.0
H414 H 0.4591 0.83036 0.97083 0.0
H415 H 0.42528 0.83542 0.91445 0.0
C416 C 0.42057 0.0564 0.12705 0.0
C417 C 0.43394 0.06931 0.08011 0.0
C418 C 0.39723 0.07736 0.14988 0.0
C419 C 0.38832 0.11261 0.12644 0.0
C420 C 0.40229 0.1259 0.0794 0.0
C421 C 0.42435 0.10381 0.05621 0.0
C422 C 0.38196 0.06171 0.19889 0.0
C423 C 0.39465 0.16373 0.05429 0.0
C424 C 0.30653 0.1619 0.15706 0.0
C425 C 0.32086 0.18046 0.19821 0.0
C426 C 0.32799 0.13893 0.13432 0.0
C427 C 0.36489 0.13579 0.15157 0.0
C428 C 0.37949 0.15515 0.19254 0.0
C429 C 0.35714 0.17668 0.21612 0.0
C430 C 0.31114 0.11785 0.09215 0.0
C431 C 0.41882 0.15375 0.21065 0.0
H432 H 0.4279 0.02962 0.14538 0.0
H433 H 0.43508 0.11391 0.02024 0.0
H434 H 0.39103 0.07645 0.23258 0.0
H435 H 0.35261 0.06432 0.19219 0.0
H436 H 0.3898 0.03324 0.21026 0.0
H437 H 0.40856 0.17032 0.01885 0.0
H438 H 0.36579 0.16836 0.04233 0.0
H439 H 0.40297 0.18226 0.08347 0.0
H440 H 0.27841 0.16487 0.14337 0.0
H441 H 0.3682 0.19152 0.24748 0.0
H442 H 0.31794 0.08919 0.10347 0.0
H443 H 0.32163 0.12592 0.05414 0.0
H444 H 0.28184 0.12155 0.08564 0.0
H445 H 0.42779 0.12627 0.22698 0.0
H446 H 0.42611 0.17149 0.24143 0.0
H447 H 0.43347 0.16162 0.17641 0.0
C448 C 0.93 0.94152 0.63709 0.0
C449 C 0.93037 0.94135 0.58244 0.0
C450 C 0.90821 0.91891 0.66524 0.0
C451 C 0.88666 0.89514 0.63827 0.0
C452 C 0.88613 0.89554 0.58286 0.0
C453 C 0.90782 0.91884 0.55553 0.0
C454 C 0.90916 0.91967 0.72418 0.0
C455 C 0.8639 0.87023 0.55284 0.0
C456 C 0.86515 0.81039 0.7209 0.0
C457 C 0.83008 0.81738 0.72892 0.0
C458 C 0.88361 0.83526 0.69067 0.0
C459 C 0.86671 0.86815 0.66868 0.0
C460 C 0.83118 0.8753 0.67655 0.0
C461 C 0.81315 0.84964 0.7063 0.0
C462 C 0.92127 0.82638 0.68249 0.0
C463 C 0.81247 0.91024 0.65434 0.0
H464 H 0.94719 0.95896 0.65817 0.0
H465 H 0.90812 0.91834 0.51339 0.0
H466 H 0.88187 0.9223 0.73469 0.0
H467 H 0.92103 0.89433 0.7457 0.0
H468 H 0.92487 0.94181 0.73831 0.0
H469 H 0.86459 0.87551 0.50939 0.0
H470 H 0.87375 0.84259 0.56652 0.0
H471 H 0.83597 0.87204 0.56084 0.0
H472 H 0.87817 0.78532 0.7381 0.0
H473 H 0.78603 0.85507 0.71269 0.0
H474 H 0.93949 0.84545 0.70016 0.0
H475 H 0.92378 0.82884 0.63953 0.0
H476 H 0.93007 0.79911 0.70053 0.0
H477 H 0.82697 0.93229 0.6709 0.0
H478 H 0.78471 0.91148 0.66348 0.0
H479 H 0.81229 0.91466 0.61073 0.0
C480 C 0.94061 0.10845 0.48721 0.0
C481 C 0.95932 0.08279 0.46585 0.0
C482 C 0.91719 0.13292 0.45422 0.0
C483 C 0.9128 0.13154 0.3988 0.0
C484 C 0.93248 0.10611 0.37717 0.0
C485 C 0.95586 0.08229 0.4111 0.0
C486 C 0.89691 0.15993 0.47859 0.0
C487 C 0.92873 0.1039 0.3183 0.0
C488 C 0.82783 0.17033 0.31823 0.0
C489 C 0.83905 0.20273 0.29491 0.0
C490 C 0.85161 0.14689 0.35224 0.0
C491 C 0.8873 0.15635 0.36342 0.0
C492 C 0.8987 0.1892 0.34015 0.0
C493 C 0.87441 0.21196 0.30579 0.0
C494 C 0.83859 0.11194 0.37595 0.0
C495 C 0.93647 0.20034 0.35173 0.0
H496 H 0.94393 0.10901 0.52973 0.0
H497 H 0.97207 0.06381 0.39474 0.0
H498 H 0.9021 0.18711 0.46072 0.0
H499 H 0.86803 0.15609 0.47013 0.0
H500 H 0.9041 0.15806 0.52219 0.0
H501 H 0.94552 0.0821 0.30812 0.0
H502 H 0.9007 0.09954 0.30353 0.0
H503 H 0.93617 0.12931 0.29704 0.0
H504 H 0.80044 0.16322 0.30968 0.0
H505 H 0.88297 0.23718 0.28797 0.0
H506 H 0.84282 0.10995 0.41982 0.0
H507 H 0.85399 0.08969 0.36431 0.0
H508 H 0.81002 0.10861 0.36312 0.0
H509 H 0.94346 0.20061 0.39499 0.0
H510 H 0.94086 0.22706 0.33122 0.0
H511 H 0.95485 0.18091 0.33917 0.0
C512 C 0.69392 0.18006 0.13127 0.0
C513 C 0.6956 0.17952 0.18633 0.0
C514 C 0.67075 0.15835 0.10382 0.0
C515 C 0.64814 0.1361 0.13195 0.0
C516 C 0.65018 0.13493 0.18769 0.0
C517 C 0.67416 0.15643 0.2143 0.0
C518 C 0.66989 0.15987 0.04451 0.0
C519 C 0.62605 0.11205 0.21895 0.0
C520 C 0.56264 0.11298 0.05262 0.0
C521 C 0.5701 0.07807 0.04401 0.0
C522 C 0.58756 0.13187 0.08216 0.0
C523 C 0.62102 0.11564 0.1026 0.0
C524 C 0.62866 0.08031 0.09401 0.0
C525 C 0.60291 0.06178 0.06519 0.0
C526 C 0.57812 0.16925 0.09134 0.0
C527 C 0.66422 0.06233 0.11439 0.0
H528 H 0.7106 0.1977 0.10945 0.0
H529 H 0.67513 0.15613 0.2568 0.0
H530 H 0.67288 0.13273 0.03336 0.0
H531 H 0.6439 0.17113 0.02459 0.0
H532 H 0.6911 0.17637 0.02921 0.0
H533 H 0.63212 0.11281 0.2623 0.0
H534 H 0.5981 0.12125 0.20644 0.0
H535 H 0.62826 0.08412 0.21083 0.0
H536 H 0.53713 0.12547 0.03657 0.0
H537 H 0.6087 0.03478 0.05835 0.0
H538 H 0.55042 0.17741 0.07483 0.0
H539 H 0.59621 0.18813 0.07276 0.0
H540 H 0.58156 0.17154 0.13442 0.0
H541 H 0.6855 0.07761 0.09707 0.0
H542 H 0.66589 0.03469 0.1046 0.0
H543 H 0.66948 0.06182 0.15801 0.0
C544 C 0.65861 0.8366 0.80864 0.0
C545 C 0.69469 0.83133 0.82721 0.0
C546 C 0.63667 0.85795 0.83327 0.0
C547 C 0.65156 0.87563 0.87602 0.0
C548 C 0.68831 0.87111 0.8938 0.0
C549 C 0.70927 0.84833 0.86997 0.0
C550 C 0.59744 0.86083 0.81444 0.0
C551 C 0.70554 0.89048 0.93779 0.0
C552 C 0.59797 0.95515 0.90519 0.0
C553 C 0.58407 0.94142 0.95129 0.0
C554 C 0.62081 0.93439 0.88118 0.0
C555 C 0.62861 0.89852 0.90245 0.0
C556 C 0.61411 0.88442 0.94868 0.0
C557 C 0.59261 0.9063 0.97319 0.0
C558 C 0.63671 0.9509 0.83323 0.0
C559 C 0.62052 0.84598 0.97144 0.0
H560 H 0.64732 0.82298 0.77601 0.0
H561 H 0.73724 0.84422 0.8842 0.0
H562 H 0.58232 0.85241 0.84797 0.0
H563 H 0.58932 0.8888 0.79978 0.0
H564 H 0.58984 0.84429 0.7822 0.0
H565 H 0.73477 0.88604 0.9444 0.0
H566 H 0.69946 0.9194 0.92834 0.0
H567 H 0.69473 0.88155 0.97525 0.0
H568 H 0.59139 0.98239 0.88836 0.0
H569 H 0.58142 0.89558 1.00846 0.0
H570 H 0.62712 0.93759 0.79824 0.0
H571 H 0.66599 0.94718 0.83997 0.0
H572 H 0.62993 0.97972 0.82382 0.0
H573 H 0.61172 0.82863 0.9408 0.0
H574 H 0.60629 0.83882 1.00639 0.0
H575 H 0.64924 0.84029 0.98347 0.0
C576 C 0.60612 0.58009 0.94663 0.0
C577 C 0.58406 0.55931 0.9157 0.0
C578 C 0.62747 0.60561 0.92318 0.0
C579 C 0.62726 0.60999 0.86752 0.0
C580 C 0.60598 0.58823 0.83623 0.0
C581 C 0.58431 0.5634 0.86065 0.0
C582 C 0.64924 0.62876 0.95779 0.0
C583 C 0.60556 0.59167 0.77685 0.0
C584 C 0.65047 0.69914 0.79884 0.0
C585 C 0.6858 0.69303 0.79138 0.0
C586 C 0.63133 0.67249 0.82434 0.0
C587 C 0.64777 0.63868 0.84178 0.0
C588 C 0.68358 0.63242 0.83452 0.0
C589 C 0.70234 0.65987 0.80986 0.0
C590 C 0.59347 0.6805 0.83243 0.0
C591 C 0.70182 0.59658 0.85191 0.0
H592 H 0.60584 0.57726 0.98917 0.0
H593 H 0.5675 0.54725 0.83658 0.0
H594 H 0.67745 0.62731 0.95105 0.0
H595 H 0.6399 0.65684 0.94717 0.0
H596 H 0.64755 0.62105 1.0006 0.0
H597 H 0.58968 0.57098 0.75874 0.0
H598 H 0.59426 0.6181 0.7589 0.0
H599 H 0.63299 0.5897 0.76663 0.0
H600 H 0.63777 0.72491 0.78486 0.0
H601 H 0.72967 0.65513 0.80389 0.0
H602 H 0.59026 0.675 0.87507 0.0
H603 H 0.57543 0.663 0.81092 0.0
H604 H 0.58507 0.70853 0.81833 0.0
H605 H 0.70154 0.58921 0.89506 0.0
H606 H 0.72973 0.59603 0.84328 0.0
H607 H 0.68729 0.57605 0.83148 0.0
C608 C 0.65364 0.29 0.18897 0.0
C609 C 0.67514 0.30748 0.22519 0.0
C610 C 0.6318 0.30932 0.14686 0.0
C611 C 0.63038 0.34684 0.14279 0.0
C612 C 0.65141 0.36449 0.18045 0.0
C613 C 0.67433 0.3445 0.22054 0.0
C614 C 0.6109 0.28967 0.10624 0.0
C615 C 0.64954 0.40439 0.17855 0.0
C616 C 0.59929 0.40468 1.01388 0.0
C617 C 0.56392 0.41164 0.01984 0.0
C618 C 0.62089 0.38208 0.05258 0.0
C619 C 0.60698 0.36781 0.09917 0.0
C620 C 0.57108 0.37482 0.105 0.0
C621 C 0.54967 0.39592 0.06436 0.0
C622 C 0.65861 0.37385 0.04399 0.0
C623 C 0.55569 0.36136 0.15499 0.0
H624 H 0.65487 0.26125 0.19254 0.0
H625 H 0.69119 0.35772 0.24886 0.0
H626 H 0.58213 0.29512 0.10579 0.0
H627 H 0.61768 0.29915 0.06612 0.0
H628 H 0.61613 0.26052 0.11409 0.0
H629 H 0.66572 0.4137 0.213 0.0
H630 H 0.65909 0.41692 0.14176 0.0
H631 H 0.62166 0.41378 0.1778 0.0
H632 H 0.60995 0.41679 0.9789 0.0
H633 H 0.52214 0.40128 0.06837 0.0
H634 H 0.66419 0.34477 0.05071 0.0
H635 H 0.67725 0.38596 0.0729 0.0
H636 H 0.66411 0.38401 1.0034 0.0
H637 H 0.55862 0.33204 0.16269 0.0
H638 H 0.52719 0.36907 0.15294 0.0
H639 H 0.57045 0.37218 0.18929 0.0
C640 C 0.95613 0.39925 0.46529 0.0
C641 C 0.94936 0.43401 0.47524 0.0
C642 C 0.93036 0.38087 0.43649 0.0
C643 C 0.89677 0.39747 0.41814 0.0
C644 C 0.88997 0.43283 0.42748 0.0
C645 C 0.91655 0.45085 0.45552 0.0
C646 C 0.93895 0.3435 0.42633 0.0
C647 C 0.85434 0.45123 0.40914 0.0
C648 C 0.84026 0.35718 0.30932 0.0
C649 C 0.81938 0.33425 0.33867 0.0
C650 C 0.86507 0.3785 0.33455 0.0
C651 C 0.86862 0.37733 0.39036 0.0
C652 C 0.84661 0.35528 0.41999 0.0
C653 C 0.8225 0.33373 0.39384 0.0
C654 C 0.8885 0.40117 0.30169 0.0
C655 C 0.84915 0.35377 0.47948 0.0
H656 H 0.98165 0.38635 0.48019 0.0
H657 H 0.9113 0.47774 0.46336 0.0
H658 H 0.96694 0.33518 0.44071 0.0
H659 H 0.92145 0.32471 0.44642 0.0
H660 H 0.93395 0.34131 0.38329 0.0
H661 H 0.85359 0.47903 0.41844 0.0
H662 H 0.84761 0.45135 0.36578 0.0
H663 H 0.83351 0.43649 0.42846 0.0
H664 H 0.83818 0.3575 0.26671 0.0
H665 H 0.80628 0.31623 0.41671 0.0
H666 H 0.91649 0.39164 0.31238 0.0
H667 H 0.88701 0.42908 0.31012 0.0
H668 H 0.88113 0.40056 0.25851 0.0
H669 H 0.8754 0.34229 0.49788 0.0
H670 H 0.82827 0.33746 0.49615 0.0
H671 H 0.84686 0.38092 0.49085 0.0
C672 C 0.85628 0.67113 0.72233 0.0
C673 C 0.82178 0.68058 0.69843 0.0
C674 C 0.87845 0.6492 0.69906 0.0
C675 C 0.86527 0.63522 0.65191 0.0
C676 C 0.83003 0.64401 0.62844 0.0
C677 C 0.80897 0.66722 0.65137 0.0
C678 C 0.91626 0.64172 0.72422 0.0
C679 C 0.81451 0.62877 0.57926 0.0
C680 C 0.92966 0.60447 0.56252 0.0
C681 C 0.93365 0.56814 0.58036 0.0
C682 C 0.90789 0.62669 0.58596 0.0
C683 C 0.88855 0.61192 0.62673 0.0
C684 C 0.89187 0.57497 0.64386 0.0
C685 C 0.91503 0.55365 0.62126 0.0
C686 C 0.9063 0.66609 0.56798 0.0
C687 C 0.8708 0.55793 0.68582 0.0
H688 H 0.86633 0.68188 0.75837 0.0
H689 H 0.78222 0.67447 0.63299 0.0
H690 H 0.92104 0.61282 0.73596 0.0
H691 H 0.93472 0.65024 0.69512 0.0
H692 H 0.92275 0.65557 0.75978 0.0
H693 H 0.786 0.6363 0.56804 0.0
H694 H 0.82907 0.63821 0.54558 0.0
H695 H 0.81747 0.59939 0.58561 0.0
H696 H 0.94453 0.61569 0.53137 0.0
H697 H 0.91816 0.52549 0.63491 0.0
H698 H 0.91411 0.68076 0.60229 0.0
H699 H 0.8788 0.67495 0.55168 0.0
H700 H 0.92395 0.6735 0.53722 0.0
H701 H 0.87874 0.56842 0.72392 0.0
H702 H 0.87464 0.5286 0.69221 0.0
H703 H 0.84216 0.56461 0.67435 0.0
C704 C 0.36206 0.30359 0.2049 0.0
C705 C 0.32851 0.31333 0.2167 0.0
C706 C 0.38031 0.32635 0.17118 0.0
C707 C 0.36487 0.35995 0.14951 0.0
C708 C 0.33054 0.36954 0.16024 0.0
C709 C 0.3126 0.34592 0.1935 0.0
C710 C 0.41658 0.31482 0.16 0.0
C711 C 0.31338 0.40525 0.13836 0.0
C712 C 0.43196 0.42953 0.11873 0.0
C713 C 0.43129 0.4304 0.06375 0.0
C714 C 0.40941 0.4078 0.14665 0.0
C715 C 0.38597 0.38585 0.11912 0.0
C716 C 0.38454 0.38715 0.06341 0.0
C717 C 0.40707 0.40968 0.03626 0.0
C718 C 0.41142 0.40764 0.20593 0.0
C719 C 0.36027 0.36374 0.03284 0.0
H720 H 0.37419 0.27816 0.22235 0.0
H721 H 0.28662 0.35342 0.20267 0.0
H722 H 0.41792 0.318 0.11669 0.0
H723 H 0.43689 0.33189 0.17789 0.0
H724 H 0.42348 0.28675 0.17616 0.0
H725 H 0.28562 0.40762 0.1472 0.0
H726 H 0.32879 0.42646 0.15572 0.0
H727 H 0.31352 0.40999 0.09483 0.0
H728 H 0.45036 0.44574 0.14021 0.0
H729 H 0.40656 0.41013 0.9938 0.0
H730 H 0.42158 0.38133 0.22621 0.0
H731 H 0.38462 0.41214 0.21726 0.0
H732 H 0.42905 0.42824 0.22071 0.0
H733 H 0.36867 0.33552 0.04499 0.0
H734 H 0.36042 0.36972 0.98936 0.0
H735 H 0.33271 0.36687 0.042 0.0
C736 C 0.42374 0.56149 0.92783 0.0
C737 C 0.44852 0.57229 0.96723 0.0
C738 C 0.39868 0.58574 0.89797 0.0
C739 C 0.39682 0.62095 0.91054 0.0
C740 C 0.42059 0.63145 0.95237 0.0
C741 C 0.44678 0.60718 0.97939 0.0
C742 C 0.37482 0.57384 0.8523 0.0
C743 C 0.41824 0.66824 0.96872 0.0
C744 C 0.35493 0.69601 0.80995 0.0
C745 C 0.32029 0.69736 0.82299 0.0
C746 C 0.37982 0.67042 0.837 0.0
C747 C 0.3702 0.64689 0.87973 0.0
C748 C 0.33524 0.64833 0.89313 0.0
C749 C 0.31036 0.67275 0.86325 0.0
C750 C 0.41631 0.66847 0.81976 0.0
C751 C 0.32428 0.62471 0.93972 0.0
H752 H 0.42432 0.53422 0.91963 0.0
H753 H 0.46559 0.61538 1.01054 0.0
H754 H 0.34692 0.57433 0.86062 0.0
H755 H 0.37629 0.59231 0.81569 0.0
H756 H 0.38202 0.54659 0.84472 0.0
H757 H 0.43678 0.67122 1.00479 0.0
H758 H 0.42446 0.68821 0.93618 0.0
H759 H 0.39085 0.67435 0.97648 0.0
H760 H 0.36247 0.71469 0.77815 0.0
H761 H 0.28328 0.67303 0.87214 0.0
H762 H 0.42278 0.64097 0.81262 0.0
H763 H 0.43644 0.67544 0.85157 0.0
H764 H 0.41856 0.68667 0.7831 0.0
H765 H 0.32521 0.59661 0.93219 0.0
H766 H 0.29709 0.63154 0.94775 0.0
H767 H 0.34301 0.62697 0.97582 0.0
C768 C 0.17756 0.6805 0.67285 0.0
C769 C 0.17829 0.67927 0.7279 0.0
C770 C 0.15642 0.65782 0.64423 0.0
C771 C 0.1349 0.63361 0.6711 0.0
C772 C 0.136 0.63164 0.72687 0.0
C773 C 0.15797 0.65436 0.75475 0.0
C774 C 0.15646 0.66047 0.58493 0.0
C775 C 0.113 0.60653 0.75673 0.0
C776 C 0.05449 0.60911 0.582 0.0
C777 C 0.06543 0.57625 0.56886 0.0
C778 C 0.07609 0.62712 0.61763 0.0
C779 C 0.10975 0.61218 0.63988 0.0
C780 C 0.12042 0.57838 0.62806 0.0
C781 C 0.09794 0.56064 0.59288 0.0
C782 C 0.0634 0.66278 0.6299 0.0
C783 C 0.15622 0.56174 0.65053 0.0
H784 H 0.19348 0.69942 0.65184 0.0
H785 H 0.15833 0.65342 0.79725 0.0
H786 H 0.16177 0.63393 0.57306 0.0
H787 H 0.13001 0.67008 0.56461 0.0
H788 H 0.1766 0.67886 0.57066 0.0
H789 H 0.11883 0.60633 0.80031 0.0
H790 H 0.0847 0.61446 0.74457 0.0
H791 H 0.11671 0.57915 0.74694 0.0
H792 H 0.02909 0.62096 0.56396 0.0
H793 H 0.10634 0.53518 0.58271 0.0
H794 H 0.03524 0.66897 0.61373 0.0
H795 H 0.07985 0.68391 0.61267 0.0
H796 H 0.06638 0.66358 0.67335 0.0
H797 H 0.17728 0.57763 0.63373 0.0
H798 H 0.15919 0.53405 0.64144 0.0
H799 H 0.16055 0.56174 0.69411 0.0
C800 C 0.20955 0.34712 0.37173 0.0
C801 C 0.19509 0.33226 0.32674 0.0
C802 C 0.1891 0.36999 0.3962 0.0
C803 C 0.15287 0.37694 0.37659 0.0
C804 C 0.13807 0.36161 0.33141 0.0
C805 C 0.15957 0.34002 0.3064 0.0
C806 C 0.20632 0.38678 0.44296 0.0
C807 C 0.09931 0.36721 0.31035 0.0
C808 C 0.09274 0.40691 0.4728 0.0
C809 C 0.08656 0.44288 0.45372 0.0
C810 C 0.11387 0.38504 0.44768 0.0
C811 C 0.13035 0.39985 0.40371 0.0
C812 C 0.12499 0.4365 0.38539 0.0
C813 C 0.10252 0.45738 0.40989 0.0
C814 C 0.11773 0.34589 0.46725 0.0
C815 C 0.14302 0.45369 0.33999 0.0
H816 H 0.23708 0.34118 0.38738 0.0
H817 H 0.14826 0.32812 0.27204 0.0
H818 H 0.20196 0.41602 0.43569 0.0
H819 H 0.19405 0.37726 0.47893 0.0
H820 H 0.23527 0.38062 0.45103 0.0
H821 H 0.09166 0.35252 0.27596 0.0
H822 H 0.08284 0.35834 0.34206 0.0
H823 H 0.09297 0.39582 0.29801 0.0
H824 H 0.07992 0.39558 0.50619 0.0
H825 H 0.09775 0.48524 0.39516 0.0
H826 H 0.14599 0.33831 0.48035 0.0
H827 H 0.10862 0.33029 0.4345 0.0
H828 H 0.1023 0.33833 0.50077 0.0
H829 H 0.17203 0.44808 0.34806 0.0
H830 H 0.13811 0.48289 0.33303 0.0
H831 H 0.1334 0.44241 0.30313 0.0
C832 C 1.00023 0.98463 0.88951 0.0
C833 C 0.02642 0.00585 0.86918 0.0
C834 C 0.99313 0.98492 0.94205 0.0
C835 C 0.01251 0.00711 0.97497 0.0
C836 C 0.03854 0.02902 0.95437 0.0
C837 C 0.04521 0.02807 0.90184 0.0
C838 C 0.96532 0.96099 0.96262 0.0
C839 C 0.05958 0.05326 0.98798 0.0
C840 C 0.97478 0.02877 0.09892 0.0
C841 C 0.99461 0.00531 0.13857 0.0
C842 C 0.98047 0.02986 0.04555 0.0
C843 C 0.00633 0.00666 0.03143 0.0
C844 C 0.02647 0.98299 0.07134 0.0
C845 C 0.02047 0.98272 0.12438 0.0
C846 C 0.95877 0.05579 1.00427 0.0
C847 C 0.05408 0.95761 0.05795 0.0
H848 H 0.98582 0.96719 0.86467 0.0
H849 H 0.06507 0.04497 0.88616 0.0
H850 H 0.97768 0.94177 0.99615 0.0
H851 H 0.94498 0.97686 0.97795 0.0
H852 H 0.95197 0.94599 0.93164 0.0
H853 H 0.07809 0.06944 0.96554 0.0
H854 H 0.0414 0.07138 1.00367 0.0
H855 H 0.07514 0.03735 0.02253 0.0
H856 H 0.95492 0.04644 0.10973 0.0
H857 H 0.0355 0.96413 0.15472 0.0
H858 H 0.94339 0.04124 0.97459 0.0
H859 H 0.97653 0.07351 0.98278 0.0
H860 H 0.94007 0.07237 0.0218 0.0
H861 H 0.04159 0.94002 0.02995 0.0
H862 H 0.06744 0.94084 0.0936 0.0
H863 H 0.07447 0.97259 0.03796 0.0
C864 C 0.21468 0.74739 0.41955 0.0
C865 C 0.23034 0.77779 0.43697 0.0
C866 C 0.21496 0.74009 0.36705 0.0
C867 C 0.23125 0.76374 0.33094 0.0
C868 C 0.24693 0.79453 0.34817 0.0
C869 C 0.24636 0.80112 0.40085 0.0
C870 C 0.19792 0.70699 0.35025 0.0
C871 C 0.26465 0.8204 0.31104 0.0
C872 C 0.2621 0.72921 0.20999 0.0
C873 C 0.23494 0.74199 0.16971 0.0
C874 C 0.26118 0.73602 0.26253 0.0
C875 C 0.23238 0.75609 0.27532 0.0
C876 C 0.20493 0.76918 0.23486 0.0
C877 C 0.20656 0.76202 0.1826 0.0
C878 C 0.29111 0.72178 0.30436 0.0
C879 C 0.17374 0.79062 0.24684 0.0
H880 H 0.20189 0.72941 0.44688 0.0
H881 H 0.25909 0.82434 0.41402 0.0
H882 H 0.17684 0.71416 0.31654 0.0
H883 H 0.21787 0.68983 0.33638 0.0
H884 H 0.18611 0.69145 0.38293 0.0
H885 H 0.275 0.84345 0.33027 0.0
H886 H 0.28696 0.80679 0.29659 0.0
H887 H 0.24559 0.83036 0.27585 0.0
H888 H 0.28436 0.71411 0.20031 0.0
H889 H 0.18524 0.77161 0.15192 0.0
H890 H 0.28058 0.70434 0.33635 0.0
H891 H 0.30409 0.744 0.32268 0.0
H892 H 0.31146 0.70644 0.28805 0.0
H893 H 0.15972 0.77489 0.27677 0.0
H894 H 0.15455 0.79884 0.21099 0.0
H895 H 0.1831 0.81474 0.264 0.0
C896 C 0.5209 0.99127 0.63902 0.0
C897 C 0.49328 0.0134 0.64945 0.0
C898 C 0.52718 0.98804 0.58676 0.0
C899 C 0.50533 0.00735 0.54367 0.0
C900 C 0.47747 0.02976 0.55389 0.0
C901 C 0.47185 0.03257 0.60648 0.0
C902 C 0.55716 0.96383 0.57763 0.0
C903 C 0.45359 0.0509 0.50922 0.0
C904 C 0.54022 0.02422 0.40981 0.0
C905 C 0.52314 0.99845 0.38186 0.0
C906 C 0.53468 0.0274 0.46235 0.0
C907 C 0.51157 1.0042 0.48787 0.0
C908 C 0.49417 0.9782 0.45985 0.0
C909 C 0.50009 0.9757 0.40726 0.0
C910 C 0.55355 0.05567 0.49057 0.0
C911 C 0.46943 0.95285 0.48556 0.0
H912 H 0.53737 0.97603 0.67177 0.0
H913 H 0.45084 0.05024 0.61393 0.0
H914 H 0.54666 0.94298 0.55372 0.0
H915 H 0.57602 0.97912 0.55478 0.0
H916 H 0.57187 0.9508 0.6153 0.0
H917 H 0.43298 0.06697 0.52375 0.0
H918 H 0.46955 0.06895 0.48495 0.0
H919 H 0.44027 0.03278 0.48277 0.0
H920 H 0.55775 0.04219 0.39037 0.0
H921 H 0.48715 0.9554 0.3863 0.0
H922 H 0.57017 0.04327 0.52694 0.0
H923 H 0.53391 0.07384 0.5031 0.0
H924 H 0.57071 0.07157 0.46529 0.0
H925 H 0.4838 0.9373 0.52148 0.0
H926 H 0.45797 0.93413 0.45848 0.0
H927 H 0.44745 0.9679 0.49846 0.0
C928 C 0.27172 0.24568 0.88485 0.0
C929 C 0.24529 0.26942 0.89474 0.0
C930 C 0.27706 0.24079 0.83276 0.0
C931 C 0.25549 0.26009 0.78934 0.0
C932 C 0.22895 0.28424 0.79904 0.0
C933 C 0.22423 0.28864 0.85145 0.0
C934 C 0.30564 0.21477 0.82418 0.0
C935 C 0.20547 0.30547 0.75398 0.0
C936 C 0.28883 0.27147 0.65411 0.0
C937 C 0.27005 0.24581 0.62808 0.0
C938 C 0.28437 0.27638 0.70646 0.0
C939 C 0.26061 0.25505 0.73374 0.0
C940 C 0.24148 0.22918 0.70766 0.0
C941 C 0.24635 0.22494 0.65519 0.0
C942 C 0.30506 0.30446 0.73257 0.0
C943 C 0.21599 0.2058 0.73533 0.0
H944 H 0.28787 0.23041 0.9179 0.0
H945 H 0.20416 0.30751 0.85852 0.0
H946 H 0.29374 0.19371 0.8019 0.0
H947 H 0.32474 0.22845 0.79993 0.0
H948 H 0.32038 0.20208 0.86205 0.0
H949 H 0.18607 0.32316 0.76814 0.0
H950 H 0.2219 0.32192 0.72827 0.0
H951 H 0.19073 0.28731 0.72906 0.0
H952 H 0.30687 0.28801 0.63329 0.0
H953 H 0.23206 0.20475 0.63568 0.0
H954 H 0.32163 0.29218 0.76906 0.0
H955 H 0.28659 0.32404 0.74461 0.0
H956 H 0.32254 0.31879 0.70605 0.0
H957 H 0.23015 0.19048 0.77162 0.0
H958 H 0.2032 0.18689 0.70966 0.0
H959 H 0.19502 0.22239 0.74792 0.0
C960 C 0.73829 0.24513 0.87932 0.0
C961 C 0.7532 0.27585 0.89673 0.0
C962 C 0.73888 0.23792 0.82682 0.0
C963 C 0.75481 0.26194 0.79076 0.0
C964 C 0.76994 0.29295 0.8081 0.0
C965 C 0.76897 0.2995 0.86073 0.0
C966 C 0.72234 0.20462 0.80989 0.0
C967 C 0.78734 0.31917 0.77108 0.0
C968 C 0.78495 0.22855 0.66837 0.0
C969 C 0.75744 0.24138 0.6287 0.0
C970 C 0.78445 0.23504 0.72118 0.0
C971 C 0.75566 0.25472 0.73485 0.0
C972 C 0.72785 0.2678 0.69499 0.0
C973 C 0.72911 0.26105 0.64247 0.0
C974 C 0.81478 0.22087 0.76234 0.0
C975 C 0.6966 0.28875 0.70788 0.0
H976 H 0.72574 0.22688 0.9066 0.0
H977 H 0.78111 0.32299 0.87395 0.0
H978 H 0.70094 0.21161 0.77658 0.0
H979 H 0.74244 0.18797 0.79538 0.0
H980 H 0.71105 0.18861 0.84267 0.0
H981 H 0.7978 0.34206 0.79064 0.0
H982 H 0.80951 0.30582 0.75593 0.0
H983 H 0.76802 0.32936 0.73632 0.0
H984 H 0.80711 0.21366 0.65801 0.0
H985 H 0.70749 0.27063 0.61226 0.0
H986 H 0.8047 0.20298 0.79426 0.0
H987 H 0.82758 0.24308 0.78092 0.0
H988 H 0.83517 0.20603 0.74533 0.0
H989 H 0.683 0.27264 0.73793 0.0
H990 H 0.67709 0.29699 0.67242 0.0
H991 H 0.70584 0.31284 0.72525 0.0
C992 C 0.76352 0.73932 0.38481 0.0
C993 C 0.74789 0.77103 0.39547 0.0
C994 C 0.7682 0.73371 0.33274 0.0
C995 C 0.75701 0.76042 0.29011 0.0
C996 C 0.74146 0.79256 0.30063 0.0
C997 C 0.73717 0.79749 0.35302 0.0
C998 C 0.78491 0.69906 0.32328 0.0
C999 C 0.72931 0.82181 0.25649 0.0
C1000 C 0.79709 0.7597 0.1609 0.0
C1001 C 0.77031 0.74456 0.12893 0.0
C1002 C 0.79312 0.76501 0.21327 0.0
C1003 C 0.76162 0.75485 0.23451 0.0
C1004 C 0.73441 0.73968 0.20241 0.0
C1005 C 0.73903 0.73481 0.15005 0.0
C1006 C 0.82266 0.78154 0.24588 0.0
C1007 C 0.70047 0.72837 0.22351 0.0
H1008 H 0.77154 0.71854 0.41711 0.0
H1009 H 0.72564 0.82234 0.36078 0.0
H1010 H 0.76619 0.68527 0.29657 0.0
H1011 H 0.80892 0.70416 0.30329 0.0
H1012 H 0.79249 0.6811 0.36064 0.0
H1013 H 0.71766 0.84519 0.2712 0.0
H1014 H 0.75196 0.83052 0.23522 0.0
H1015 H 0.70919 0.8118 0.22725 0.0
H1016 H 0.82115 0.76774 0.14474 0.0
H1017 H 0.71838 0.7227 0.12593 0.0
H1018 H 0.83213 0.76323 0.28212 0.0
H1019 H 0.8127 0.80628 0.2589 0.0
H1020 H 0.84548 0.78795 0.22361 0.0
H1021 H 0.70647 0.70827 0.25881 0.0
H1022 H 0.68189 0.71696 0.1936 0.0
H1023 H 0.68701 0.75142 0.23635 0.0
C1024 C 0.46888 0.47007 0.58628 0.0
C1025 C 0.49254 0.48582 0.62233 0.0
C1026 C 0.47537 0.46916 0.53365 0.0
C1027 C 0.50636 0.48428 0.51647 0.0
C1028 C 0.53055 0.49992 0.55272 0.0
C1029 C 0.52336 0.5005 0.60516 0.0
C1030 C 0.44897 0.45213 0.49635 0.0
C1031 C 0.56386 0.51638 0.53594 0.0
C1032 C 0.5389 0.45584 0.39259 0.0
C1033 C 0.52612 0.48396 0.35391 0.0
C1034 C 0.53261 0.45554 0.44557 0.0
C1035 C 0.51319 0.48412 0.46037 0.0
C1036 C 0.50012 0.51252 0.42149 0.0
C1037 C 0.50668 0.51206 0.36878 0.0
C1038 C 0.54676 0.42464 0.48573 0.0
C1039 C 0.47943 0.54357 0.43565 0.0
H1040 H 0.4453 0.45811 0.59935 0.0
H1041 H 0.5416 0.51307 0.63251 0.0
H1042 H 0.43845 0.47188 0.46232 0.0
H1043 H 0.46219 0.43032 0.48013 0.0
H1044 H 0.42635 0.44124 0.51602 0.0
H1045 H 0.58028 0.52689 0.56911 0.0
H1046 H 0.58004 0.49646 0.52021 0.0
H1047 H 0.55687 0.5384 0.50355 0.0
H1048 H 0.55363 0.43386 0.38131 0.0
H1049 H 0.49715 0.53413 0.33931 0.0
H1050 H 0.52463 0.41171 0.50422 0.0
H1051 H 0.56491 0.4342 0.51789 0.0
H1052 H 0.56128 0.40444 0.46784 0.0
H1053 H 0.45549 0.53412 0.4531 0.0
H1054 H 0.47104 0.56352 0.40078 0.0
H1055 H 0.49577 0.55677 0.46602 0.0
C1056 C 0.04087 0.51947 0.90906 0.0
C1057 C 0.0209 0.4943 0.88365 0.0
C1058 C 0.03703 0.52501 0.96143 0.0
C1059 C 0.01257 0.50498 0.98921 0.0
C1060 C 0.99211 0.47979 0.96362 0.0
C1061 C 0.9965 0.47478 0.9113 0.0
C1062 C 0.05937 0.55212 0.98722 0.0
C1063 C 0.96556 0.45804 0.99158 0.0
C1064 C 0.02426 0.49564 0.14035 0.0
C1065 C 0.99927 0.52083 0.15045 0.0
C1066 C 0.02891 0.49024 0.08819 0.0
C1067 C 0.00814 0.51053 0.04488 0.0
C1068 C 0.98285 0.53592 0.05478 0.0
C1069 C 0.97866 0.54067 0.10726 0.0
C1070 C 0.05613 0.46286 0.0794 0.0
C1071 C 0.96007 0.55804 1.00986 0.0
H1072 H 0.06008 0.53439 0.88834 0.0
H1073 H 0.98056 0.45565 0.89182 0.0
H1074 H 0.04206 0.57242 1.00003 0.0
H1075 H 0.07595 0.5391 0.0232 0.0
H1076 H 0.077 0.56569 0.96021 0.0
H1077 H 0.95175 0.4395 0.96624 0.0
H1078 H 0.97908 0.44242 0.0281 0.0
H1079 H 0.94544 0.47581 1.00382 0.0
H1080 H 0.04062 0.48045 0.17327 0.0
H1081 H 0.95884 0.55975 0.11447 0.0
H1082 H 0.07605 0.47564 0.05578 0.0
H1083 H 0.04319 0.44265 0.0564 0.0
H1084 H 0.0701 0.4492 0.11721 0.0
H1085 H 0.97708 0.57327 0.98364 0.0
H1086 H 0.94193 0.57696 0.02415 0.0
H1087 H 0.94399 0.54052 0.98543 0.0
loop_
_geom_bond_atom_site_label_1
_geom_bond_atom_site_label_2
_geom_bond_distance
_geom_bond_site_symmetry_2
_ccdc_geom_bond_type
Ho0 C3 2.811 1_655 S
Ho0 O20 2.322 1_665 S
Ho0 O22 2.378 1_655 S
Ho0 O23 2.524 1_565 S
Ho0 O24 2.381 1_655 S
Ho0 O25 2.669 1_655 S
Ho0 O27 2.346 . S
Ho0 O31 2.305 1_565 S
Ho1 C12 2.811 1_455 S
Ho1 O21 2.346 . S
Ho1 O25 2.305 1_545 S
Ho1 O26 2.322 1_445 S
Ho1 O28 2.378 1_455 S
Ho1 O29 2.524 1_545 S
Ho1 O30 2.381 1_455 S
Ho1 O31 2.669 1_455 S
C2 O20 1.259 . S
C2 O21 1.268 . S
C3 Ho0 2.811 1_455 S
C3 C4 1.488 . S
C3 O22 1.215 . S
C3 O23 1.289 1_465 S
C4 C3 1.488 . S
C4 C5 1.348 1_565 S
C4 C9 1.413 . S
C5 C4 1.348 1_545 S
C5 C6 1.442 . S
C5 H32 0.930 1_455 S
C6 C5 1.442 . S
C6 C7 1.405 . S
C6 H33 0.931 . S
C7 C6 1.405 . S
C7 C8 1.298 1_545 S
C8 C7 1.298 1_565 S
C8 C9 1.403 . S
C8 H34 0.934 . S
C9 C4 1.413 . S
C9 C8 1.403 . S
C9 H35 0.930 . S
C10 O24 1.275 . S
C10 O25 1.256 . S
C11 O26 1.259 . S
C11 O27 1.268 . S
C12 Ho1 2.811 1_655 S
C12 C13 1.488 . S
C12 O28 1.215 . S
C12 O29 1.289 1_645 S
C13 C12 1.488 . S
C13 C14 1.348 1_545 S
C13 C18 1.413 . S
C14 C13 1.348 1_565 S
C14 C15 1.442 . S
C14 H36 0.930 1_655 S
C15 C14 1.442 . S
C15 C16 1.399 . S
C15 H37 0.931 . S
C16 C15 1.399 . S
C16 C17 1.304 1_565 S
C17 C16 1.304 1_545 S
C17 C18 1.403 . S
C17 H38 0.934 . S
C18 C13 1.413 . S
C18 C17 1.403 . S
C18 H39 0.930 . S
C19 O30 1.275 . S
C19 O31 1.256 . S
O20 Ho0 2.322 1_445 S
O20 C2 1.259 . S
O21 Ho1 2.346 . S
O21 C2 1.268 . S
O22 Ho0 2.378 1_455 S
O22 C3 1.215 . S
O23 Ho0 2.524 1_545 S
O23 C3 1.289 1_645 S
O24 Ho0 2.381 1_455 S
O24 C10 1.275 . S
O25 Ho0 2.669 1_455 S
O25 Ho1 2.305 1_565 S
O25 C10 1.256 . S
O26 Ho1 2.322 1_665 S
O26 C11 1.259 . S
O27 Ho0 2.346 . S
O27 C11 1.268 . S
O28 Ho1 2.378 1_655 S
O28 C12 1.215 . S
O29 Ho1 2.524 1_565 S
O29 C12 1.289 1_465 S
O30 Ho1 2.381 1_655 S
O30 C19 1.275 . S
O31 Ho0 2.305 1_545 S
O31 Ho1 2.669 1_655 S
O31 C19 1.256 . S
H32 C5 0.930 1_655 S
H33 C6 0.931 . S
H34 C8 0.934 . S
H35 C9 0.930 . S
H36 C14 0.930 1_455 S
H37 C15 0.931 . S
H38 C17 0.934 . S
H39 C18 0.930 . S
Ho40 C43 2.811 . S
Ho40 O60 2.322 . S
Ho40 O62 2.378 . S
Ho40 O63 2.524 . S
Ho40 O64 2.381 . S
Ho40 O65 2.669 . S
Ho40 O67 2.346 . S
Ho40 O71 2.305 . S
Ho41 C52 2.811 . S
Ho41 O61 2.346 . S
Ho41 O65 2.305 . S
Ho41 O66 2.322 . S
Ho41 O68 2.378 . S
Ho41 O69 2.524 . S
Ho41 O70 2.381 . S
Ho41 O71 2.669 . S
C42 O60 1.259 . S
C42 O61 1.268 . S
C43 Ho40 2.811 . S
C43 C44 1.488 . S
C43 O62 1.215 . S
C43 O63 1.289 . S
C44 C43 1.488 . S
C44 C45 1.348 . S
C44 C49 1.413 . S
C45 C44 1.348 . S
C45 C46 1.442 1_556 S
C45 H72 0.930 . S
C46 C45 1.442 1_554 S
C46 C47 1.381 . S
C46 H73 0.931 . S
C47 C46 1.381 . S
C47 C48 1.321 . S
C48 C47 1.321 . S
C48 C49 1.403 1_554 S
C48 H74 0.934 . S
C49 C44 1.413 . S
C49 C48 1.403 1_556 S
C49 H75 0.930 . S
C50 O64 1.275 . S
C50 O65 1.256 . S
C51 O66 1.259 . S
C51 O67 1.268 . S
C52 Ho41 2.811 . S
C52 C53 1.488 . S
C52 O68 1.215 . S
C52 O69 1.289 . S
C53 C52 1.488 . S
C53 C54 1.348 . S
C53 C58 1.413 . S
C54 C53 1.348 . S
C54 C55 1.442 . S
C54 H76 0.930 . S
C55 C54 1.442 . S
C55 C56 1.381 . S
C55 H77 0.931 . S
C56 C55 1.381 . S
C56 C57 1.321 . S
C57 C56 1.321 . S
C57 C58 1.403 . S
C57 H78 0.934 . S
C58 C53 1.413 . S
C58 C57 1.403 . S
C58 H79 0.930 . S
C59 O70 1.275 . S
C59 O71 1.256 . S
O60 Ho40 2.322 . S
O60 C42 1.259 . S
O61 Ho41 2.346 . S
O61 C42 1.268 . S
O62 Ho40 2.378 . S
O62 C43 1.215 . S
O63 Ho40 2.524 . S
O63 C43 1.289 . S
O64 Ho40 2.381 . S
O64 C50 1.275 . S
O65 Ho40 2.669 . S
O65 Ho41 2.305 . S
O65 C50 1.256 . S
O66 Ho41 2.322 . S
O66 C51 1.259 . S
O67 Ho40 2.346 . S
O67 C51 1.268 . S
O68 Ho41 2.378 . S
O68 C52 1.215 . S
O69 Ho41 2.524 . S
O69 C52 1.289 . S
O70 Ho41 2.381 . S
O70 C59 1.275 . S
O71 Ho40 2.305 . S
O71 Ho41 2.669 . S
O71 C59 1.256 . S
H72 C45 0.930 . S
H73 C46 0.931 . S
H74 C48 0.934 . S
H75 C49 0.930 . S
H76 C54 0.930 . S
H77 C55 0.931 . S
H78 C57 0.934 . S
H79 C58 0.930 . S
Ho80 C83 2.811 . S
Ho80 O100 2.322 1_565 S
Ho80 O102 2.378 . S
Ho80 O103 2.524 . S
Ho80 O104 2.381 . S
Ho80 O105 2.669 1_554 S
Ho80 O107 2.346 . S
Ho80 O111 2.305 1_565 S
Ho81 C92 2.811 . S
Ho81 O101 2.346 . S
Ho81 O105 2.305 1_545 S
Ho81 O106 2.322 1_545 S
Ho81 O108 2.378 . S
Ho81 O109 2.524 . S
Ho81 O110 2.381 . S
Ho81 O111 2.669 1_556 S
C82 O100 1.259 . S
C82 O101 1.268 1_554 S
C83 Ho80 2.811 . S
C83 C84 1.488 . S
C83 O102 1.215 . S
C83 O103 1.289 . S
C84 C83 1.488 . S
C84 C85 1.348 1_565 S
C84 C89 1.413 . S
C85 C84 1.348 1_545 S
C85 C86 1.442 . S
C85 H112 0.930 . S
C86 C85 1.442 . S
C86 C87 1.381 1_545 S
C86 H113 0.931 . S
C87 C86 1.381 1_565 S
C87 C88 1.321 . S
C88 C87 1.321 . S
C88 C89 1.403 . S
C88 H114 0.934 . S
C89 C84 1.413 . S
C89 C88 1.403 . S
C89 H115 0.930 . S
C90 O104 1.275 1_556 S
C90 O105 1.256 . S
C91 O106 1.259 . S
C91 O107 1.268 1_556 S
C92 Ho81 2.811 . S
C92 C93 1.488 . S
C92 O108 1.215 . S
C92 O109 1.289 . S
C93 C92 1.488 . S
C93 C94 1.348 1_545 S
C93 C98 1.413 . S
C94 C93 1.348 1_565 S
C94 C95 1.442 . S
C94 H116 0.930 . S
C95 C94 1.442 . S
C95 C96 1.381 1_565 S
C95 H117 0.931 . S
C96 C95 1.381 1_545 S
C96 C97 1.321 . S
C97 C96 1.321 . S
C97 C98 1.403 . S
C97 H118 0.934 . S
C98 C93 1.413 . S
C98 C97 1.403 . S
C98 H119 0.930 . S
C99 O110 1.275 1_554 S
C99 O111 1.256 . S
O100 Ho80 2.322 1_545 S
O100 C82 1.259 . S
O101 Ho81 2.346 . S
O101 C82 1.268 1_556 S
O102 Ho80 2.378 . S
O102 C83 1.215 . S
O103 Ho80 2.524 . S
O103 C83 1.289 . S
O104 Ho80 2.381 . S
O104 C90 1.275 1_554 S
O105 Ho80 2.669 1_556 S
O105 Ho81 2.305 1_565 S
O105 C90 1.256 . S
O106 Ho81 2.322 1_565 S
O106 C91 1.259 . S
O107 Ho80 2.346 . S
O107 C91 1.268 1_554 S
O108 Ho81 2.378 . S
O108 C92 1.215 . S
O109 Ho81 2.524 . S
O109 C92 1.289 . S
O110 Ho81 2.381 . S
O110 C99 1.275 1_556 S
O111 Ho80 2.305 1_545 S
O111 Ho81 2.669 1_554 S
O111 C99 1.256 . S
H112 C85 0.930 . S
H113 C86 0.931 . S
H114 C88 0.934 . S
H115 C89 0.930 . S
H116 C94 0.930 . S
H117 C95 0.931 . S
H118 C97 0.934 . S
H119 C98 0.930 . S
Ho120 C123 2.811 . S
Ho120 O140 2.322 . S
Ho120 O142 2.378 . S
Ho120 O143 2.524 . S
Ho120 O144 2.381 . S
Ho120 O145 2.669 . S
Ho120 O147 2.346 . S
Ho120 O151 2.305 . S
Ho121 C132 2.811 . S
Ho121 O141 2.346 . S
Ho121 O145 2.305 . S
Ho121 O146 2.322 . S
Ho121 O148 2.378 . S
Ho121 O149 2.524 . S
Ho121 O150 2.381 . S
Ho121 O151 2.669 . S
C122 O140 1.259 . S
C122 O141 1.268 . S
C123 Ho120 2.811 . S
C123 C124 1.488 . S
C123 O142 1.215 . S
C123 O143 1.289 . S
C124 C123 1.488 . S
C124 C125 1.348 . S
C124 C129 1.413 . S
C125 C124 1.348 . S
C125 C126 1.442 1_554 S
C125 H152 0.930 . S
C126 C125 1.442 1_556 S
C126 C127 1.381 . S
C126 H153 0.931 . S
C127 C126 1.381 . S
C127 C128 1.321 . S
C128 C127 1.321 . S
C128 C129 1.403 1_556 S
C128 H154 0.934 . S
C129 C124 1.413 . S
C129 C128 1.403 1_554 S
C129 H155 0.930 . S
C130 O144 1.275 . S
C130 O145 1.256 . S
C131 O146 1.259 . S
C131 O147 1.268 . S
C132 Ho121 2.811 . S
C132 C133 1.488 . S
C132 O148 1.215 . S
C132 O149 1.289 . S
C133 C132 1.488 . S
C133 C134 1.348 . S
C133 C138 1.413 . S
C134 C133 1.348 . S
C134 C135 1.442 . S
C134 H156 0.930 . S
C135 C134 1.442 . S
C135 C136 1.381 . S
C135 H157 0.931 . S
C136 C135 1.381 . S
C136 C137 1.321 . S
C137 C136 1.321 . S
C137 C138 1.403 . S
C137 H158 0.934 . S
C138 C133 1.413 . S
C138 C137 1.403 . S
C138 H159 0.930 . S
C139 O150 1.275 . S
C139 O151 1.256 . S
O140 Ho120 2.322 . S
O140 C122 1.259 . S
O141 Ho121 2.346 . S
O141 C122 1.268 . S
O142 Ho120 2.378 . S
O142 C123 1.215 . S
O143 Ho120 2.524 . S
O143 C123 1.289 . S
O144 Ho120 2.381 . S
O144 C130 1.275 . S
O145 Ho120 2.669 . S
O145 Ho121 2.305 . S
O145 C130 1.256 . S
O146 Ho121 2.322 . S
O146 C131 1.259 . S
O147 Ho120 2.346 . S
O147 C131 1.268 . S
O148 Ho121 2.378 . S
O148 C132 1.215 . S
O149 Ho121 2.524 . S
O149 C132 1.289 . S
O150 Ho121 2.381 . S
O150 C139 1.275 . S
O151 Ho120 2.305 . S
O151 Ho121 2.669 . S
O151 C139 1.256 . S
H152 C125 0.930 . S
H153 C126 0.931 . S
H154 C128 0.934 . S
H155 C129 0.930 . S
H156 C134 0.930 . S
H157 C135 0.931 . S
H158 C137 0.934 . S
H159 C138 0.930 . S
Ho160 C163 2.811 . S
Ho160 O180 2.322 . S
Ho160 O182 2.378 . S
Ho160 O183 2.524 . S
Ho160 O184 2.381 . S
Ho160 O185 2.669 . S
Ho160 O187 2.346 . S
Ho160 O191 2.305 . S
Ho161 C172 2.811 . S
Ho161 O181 2.346 . S
Ho161 O185 2.305 . S
Ho161 O186 2.322 . S
Ho161 O188 2.378 . S
Ho161 O189 2.524 . S
Ho161 O190 2.381 . S
Ho161 O191 2.669 . S
C162 O180 1.259 . S
C162 O181 1.268 . S
C163 Ho160 2.811 . S
C163 C164 1.488 . S
C163 O182 1.215 . S
C163 O183 1.289 . S
C164 C163 1.488 . S
C164 C165 1.348 . S
C164 C169 1.413 . S
C165 C164 1.348 . S
C165 C166 1.442 . S
C165 H192 0.930 . S
C166 C165 1.442 . S
C166 C167 1.381 . S
C166 H193 0.931 . S
C167 C166 1.381 . S
C167 C168 1.321 . S
C168 C167 1.321 . S
C168 C169 1.403 . S
C168 H194 0.934 . S
C169 C164 1.413 . S
C169 C168 1.403 . S
C169 H195 0.930 . S
C170 O184 1.275 . S
C170 O185 1.256 . S
C171 O186 1.259 . S
C171 O187 1.268 . S
C172 Ho161 2.811 . S
C172 C173 1.488 . S
C172 O188 1.215 . S
C172 O189 1.289 . S
C173 C172 1.488 . S
C173 C174 1.348 . S
C173 C178 1.413 . S
C174 C173 1.348 . S
C174 C175 1.442 1_554 S
C174 H196 0.930 . S
C175 C174 1.442 1_556 S
C175 C176 1.381 . S
C175 H197 0.931 . S
C176 C175 1.381 . S
C176 C177 1.321 . S
C177 C176 1.321 . S
C177 C178 1.403 1_556 S
C177 H198 0.934 . S
C178 C173 1.413 . S
C178 C177 1.403 1_554 S
C178 H199 0.930 . S
C179 O190 1.275 . S
C179 O191 1.256 . S
O180 Ho160 2.322 . S
O180 C162 1.259 . S
O181 Ho161 2.346 . S
O181 C162 1.268 . S
O182 Ho160 2.378 . S
O182 C163 1.215 . S
O183 Ho160 2.524 . S
O183 C163 1.289 . S
O184 Ho160 2.381 . S
O184 C170 1.275 . S
O185 Ho160 2.669 . S
O185 Ho161 2.305 . S
O185 C170 1.256 . S
O186 Ho161 2.322 . S
O186 C171 1.259 . S
O187 Ho160 2.346 . S
O187 C171 1.268 . S
O188 Ho161 2.378 . S
O188 C172 1.215 . S
O189 Ho161 2.524 . S
O189 C172 1.289 . S
O190 Ho161 2.381 . S
O190 C179 1.275 . S
O191 Ho160 2.305 . S
O191 Ho161 2.669 . S
O191 C179 1.256 . S
H192 C165 0.930 . S
H193 C166 0.931 . S
H194 C168 0.934 . S
H195 C169 0.930 . S
H196 C174 0.930 . S
H197 C175 0.931 . S
H198 C177 0.934 . S
H199 C178 0.930 . S
Ho200 C203 2.811 . S
Ho200 O220 2.322 . S
Ho200 O222 2.378 . S
Ho200 O223 2.524 . S
Ho200 O224 2.381 . S
Ho200 O225 2.669 . S
Ho200 O227 2.346 . S
Ho200 O231 2.305 . S
Ho201 C212 2.811 . S
Ho201 O221 2.346 . S
Ho201 O225 2.305 . S
Ho201 O226 2.322 . S
Ho201 O228 2.378 . S
Ho201 O229 2.524 . S
Ho201 O230 2.381 . S
Ho201 O231 2.669 . S
C202 O220 1.259 . S
C202 O221 1.268 . S
C203 Ho200 2.811 . S
C203 C204 1.488 . S
C203 O222 1.215 . S
C203 O223 1.289 . S
C204 C203 1.488 . S
C204 C205 1.348 . S
C204 C209 1.413 . S
C205 C204 1.348 . S
C205 C206 1.442 . S
C205 H232 0.930 . S
C206 C205 1.442 . S
C206 C207 1.381 . S
C206 H233 0.931 . S
C207 C206 1.381 . S
C207 C208 1.321 . S
C208 C207 1.321 . S
C208 C209 1.403 . S
C208 H234 0.934 . S
C209 C204 1.413 . S
C209 C208 1.403 . S
C209 H235 0.930 . S
C210 O224 1.275 . S
C210 O225 1.256 . S
C211 O226 1.259 . S
C211 O227 1.268 . S
C212 Ho201 2.811 . S
C212 C213 1.488 . S
C212 O228 1.215 . S
C212 O229 1.289 . S
C213 C212 1.488 . S
C213 C214 1.348 . S
C213 C218 1.413 . S
C214 C213 1.348 . S
C214 C215 1.442 1_556 S
C214 H236 0.930 . S
C215 C214 1.442 1_554 S
C215 C216 1.381 . S
C215 H237 0.931 . S
C216 C215 1.381 . S
C216 C217 1.321 . S
C217 C216 1.321 . S
C217 C218 1.403 1_554 S
C217 H238 0.934 . S
C218 C213 1.413 . S
C218 C217 1.403 1_556 S
C218 H239 0.930 . S
C219 O230 1.275 . S
C219 O231 1.256 . S
O220 Ho200 2.322 . S
O220 C202 1.259 . S
O221 Ho201 2.346 . S
O221 C202 1.268 . S
O222 Ho200 2.378 . S
O222 C203 1.215 . S
O223 Ho200 2.524 . S
O223 C203 1.289 . S
O224 Ho200 2.381 . S
O224 C210 1.275 . S
O225 Ho200 2.669 . S
O225 Ho201 2.305 . S
O225 C210 1.256 . S
O226 Ho201 2.322 . S
O226 C211 1.259 . S
O227 Ho200 2.346 . S
O227 C211 1.268 . S
O228 Ho201 2.378 . S
O228 C212 1.215 . S
O229 Ho201 2.524 . S
O229 C212 1.289 . S
O230 Ho201 2.381 . S
O230 C219 1.275 . S
O231 Ho200 2.305 . S
O231 Ho201 2.669 . S
O231 C219 1.256 . S
H232 C205 0.930 . S
H233 C206 0.931 . S
H234 C208 0.934 . S
H235 C209 0.930 . S
H236 C214 0.930 . S
H237 C215 0.931 . S
H238 C217 0.934 . S
H239 C218 0.930 . S
Ho240 C243 2.811 . S
Ho240 O260 2.322 . S
Ho240 O262 2.378 . S
Ho240 O263 2.524 . S
Ho240 O264 2.381 . S
Ho240 O265 2.669 1_556 S
Ho240 O267 2.346 1_556 S
Ho240 O271 2.305 . S
Ho241 C252 2.811 . S
Ho241 O261 2.346 1_554 S
Ho241 O265 2.305 . S
Ho241 O266 2.322 . S
Ho241 O268 2.378 . S
Ho241 O269 2.524 . S
Ho241 O270 2.381 . S
Ho241 O271 2.669 1_554 S
C242 O260 1.259 . S
C242 O261 1.268 . S
C243 Ho240 2.811 . S
C243 C244 1.488 . S
C243 O262 1.215 . S
C243 O263 1.289 . S
C244 C243 1.488 . S
C244 C245 1.348 . S
C244 C249 1.413 . S
C245 C244 1.348 . S
C245 C246 1.442 . S
C245 H272 0.930 . S
C246 C245 1.442 . S
C246 C247 1.381 . S
C246 H273 0.931 . S
C247 C246 1.381 . S
C247 C248 1.321 . S
C248 C247 1.321 . S
C248 C249 1.403 . S
C248 H274 0.934 . S
C249 C244 1.413 . S
C249 C248 1.403 . S
C249 H275 0.930 . S
C250 O264 1.275 1_554 S
C250 O265 1.256 . S
C251 O266 1.259 . S
C251 O267 1.268 . S
C252 Ho241 2.811 . S
C252 C253 1.488 . S
C252 O268 1.215 . S
C252 O269 1.289 . S
C253 C252 1.488 . S
C253 C254 1.348 . S
C253 C258 1.413 . S
C254 C253 1.348 . S
C254 C255 1.442 . S
C254 H276 0.930 . S
C255 C254 1.442 . S
C255 C256 1.381 . S
C255 H277 0.931 . S
C256 C255 1.381 . S
C256 C257 1.321 . S
C257 C256 1.321 . S
C257 C258 1.403 . S
C257 H278 0.934 . S
C258 C253 1.413 . S
C258 C257 1.403 . S
C258 H279 0.930 . S
C259 O270 1.275 1_556 S
C259 O271 1.256 . S
O260 Ho240 2.322 . S
O260 C242 1.259 . S
O261 Ho241 2.346 1_556 S
O261 C242 1.268 . S
O262 Ho240 2.378 . S
O262 C243 1.215 . S
O263 Ho240 2.524 . S
O263 C243 1.289 . S
O264 Ho240 2.381 . S
O264 C250 1.275 1_556 S
O265 Ho240 2.669 1_554 S
O265 Ho241 2.305 . S
O265 C250 1.256 . S
O266 Ho241 2.322 . S
O266 C251 1.259 . S
O267 Ho240 2.346 1_554 S
O267 C251 1.268 . S
O268 Ho241 2.378 . S
O268 C252 1.215 . S
O269 Ho241 2.524 . S
O269 C252 1.289 . S
O270 Ho241 2.381 . S
O270 C259 1.275 1_554 S
O271 Ho240 2.305 . S
O271 Ho241 2.669 1_556 S
O271 C259 1.256 . S
H272 C245 0.930 . S
H273 C246 0.931 . S
H274 C248 0.934 . S
H275 C249 0.930 . S
H276 C254 0.930 . S
H277 C255 0.931 . S
H278 C257 0.934 . S
H279 C258 0.930 . S
Ho280 C283 2.811 1_455 S
Ho280 O300 2.322 1_455 S
Ho280 O302 2.378 1_455 S
Ho280 O303 2.524 . S
Ho280 O304 2.381 1_455 S
Ho280 O305 2.669 1_455 S
Ho280 O307 2.346 . S
Ho280 O311 2.305 . S
Ho281 C292 2.811 1_655 S
Ho281 O301 2.346 . S
Ho281 O305 2.305 . S
Ho281 O306 2.322 1_655 S
Ho281 O308 2.378 1_655 S
Ho281 O309 2.524 . S
Ho281 O310 2.381 1_655 S
Ho281 O311 2.669 1_655 S
C282 O300 1.259 . S
C282 O301 1.268 . S
C283 Ho280 2.811 1_655 S
C283 C284 1.488 . S
C283 O302 1.215 . S
C283 O303 1.289 1_655 S
C284 C283 1.488 . S
C284 C285 1.348 . S
C284 C289 1.413 . S
C285 C284 1.348 . S
C285 C286 1.442 . S
C285 H312 0.930 1_655 S
C286 C285 1.442 . S
C286 C287 1.381 . S
C286 H313 0.931 . S
C287 C286 1.381 . S
C287 C288 1.321 . S
C288 C287 1.321 . S
C288 C289 1.403 . S
C288 H314 0.934 . S
C289 C284 1.413 . S
C289 C288 1.403 . S
C289 H315 0.930 . S
C290 O304 1.275 . S
C290 O305 1.256 . S
C291 O306 1.259 . S
C291 O307 1.268 . S
C292 Ho281 2.811 1_455 S
C292 C293 1.488 . S
C292 O308 1.215 . S
C292 O309 1.289 1_455 S
C293 C292 1.488 . S
C293 C294 1.348 . S
C293 C298 1.413 . S
C294 C293 1.348 . S
C294 C295 1.442 . S
C294 H316 0.930 1_455 S
C295 C294 1.442 . S
C295 C296 1.381 . S
C295 H317 0.931 . S
C296 C295 1.381 . S
C296 C297 1.321 . S
C297 C296 1.321 . S
C297 C298 1.403 . S
C297 H318 0.934 . S
C298 C293 1.413 . S
C298 C297 1.403 . S
C298 H319 0.930 . S
C299 O310 1.275 . S
C299 O311 1.256 . S
O300 Ho280 2.322 1_655 S
O300 C282 1.259 . S
O301 Ho281 2.346 . S
O301 C282 1.268 . S
O302 Ho280 2.378 1_655 S
O302 C283 1.215 . S
O303 Ho280 2.524 . S
O303 C283 1.289 1_455 S
O304 Ho280 2.381 1_655 S
O304 C290 1.275 . S
O305 Ho280 2.669 1_655 S
O305 Ho281 2.305 . S
O305 C290 1.256 . S
O306 Ho281 2.322 1_455 S
O306 C291 1.259 . S
O307 Ho280 2.346 . S
O307 C291 1.268 . S
O308 Ho281 2.378 1_455 S
O308 C292 1.215 . S
O309 Ho281 2.524 . S
O309 C292 1.289 1_655 S
O310 Ho281 2.381 1_455 S
O310 C299 1.275 . S
O311 Ho280 2.305 . S
O311 Ho281 2.669 1_455 S
O311 C299 1.256 . S
H312 C285 0.930 1_455 S
H313 C286 0.931 . S
H314 C288 0.934 . S
H315 C289 0.930 . S
H316 C294 0.930 1_655 S
H317 C295 0.931 . S
H318 C297 0.934 . S
H319 C298 0.930 . S
C320 C321 1.391 . S
C320 C322 1.394 . S
C320 H336 0.931 . S
C321 C320 1.391 . S
C321 C325 1.376 . S
C322 C320 1.394 . S
C322 C323 1.369 . S
C322 C326 1.531 . S
C323 C322 1.369 . S
C323 C324 1.410 . S
C323 C331 1.503 . S
C324 C323 1.410 . S
C324 C325 1.392 . S
C324 C327 1.511 . S
C325 C321 1.376 . S
C325 C324 1.392 . S
C325 H337 0.929 . S
C326 C322 1.531 . S
C326 H338 0.960 . S
C326 H339 0.962 . S
C326 H340 0.960 . S
C327 C324 1.511 . S
C327 H341 0.961 . S
C327 H342 0.961 . S
C327 H343 0.961 . S
C328 C329 1.370 . S
C328 C330 1.363 . S
C328 H344 0.931 . S
C329 C328 1.370 . S
C329 C333 1.408 . S
C330 C328 1.363 . S
C330 C331 1.370 . S
C330 C334 1.524 . S
C331 C323 1.503 . S
C331 C330 1.370 . S
C331 C332 1.403 . S
C332 C331 1.403 . S
C332 C333 1.404 . S
C332 C335 1.539 . S
C333 C329 1.408 . S
C333 C332 1.404 . S
C333 H345 0.930 . S
C334 C330 1.524 . S
C334 H346 0.956 . S
C334 H347 0.961 . S
C334 H348 0.961 . S
C335 C332 1.539 . S
C335 H349 0.958 . S
C335 H350 0.961 . S
C335 H351 0.960 . S
H336 C320 0.931 . S
H337 C325 0.929 . S
H338 C326 0.960 . S
H339 C326 0.962 . S
H340 C326 0.960 . S
H341 C327 0.961 . S
H342 C327 0.961 . S
H343 C327 0.961 . S
H344 C328 0.931 . S
H345 C333 0.930 . S
H346 C334 0.956 . S
H347 C334 0.961 . S
H348 C334 0.961 . S
H349 C335 0.958 . S
H350 C335 0.961 . S
H351 C335 0.960 . S
C352 C353 1.391 . S
C352 C354 1.394 . S
C352 H368 0.931 . S
C353 C352 1.391 . S
C353 C357 1.376 . S
C354 C352 1.394 . S
C354 C355 1.369 . S
C354 C358 1.531 . S
C355 C354 1.369 . S
C355 C356 1.410 . S
C355 C363 1.503 . S
C356 C355 1.410 . S
C356 C357 1.392 . S
C356 C359 1.511 . S
C357 C353 1.376 . S
C357 C356 1.392 . S
C357 H369 0.929 . S
C358 C354 1.531 . S
C358 H370 0.960 . S
C358 H371 0.962 . S
C358 H372 0.960 . S
C359 C356 1.511 . S
C359 H373 0.961 . S
C359 H374 0.961 . S
C359 H375 0.961 . S
C360 C361 1.370 . S
C360 C362 1.363 . S
C360 H376 0.931 . S
C361 C360 1.370 . S
C361 C365 1.408 . S
C362 C360 1.363 . S
C362 C363 1.370 . S
C362 C366 1.524 . S
C363 C355 1.503 . S
C363 C362 1.370 . S
C363 C364 1.403 . S
C364 C363 1.403 . S
C364 C365 1.404 . S
C364 C367 1.539 . S
C365 C361 1.408 . S
C365 C364 1.404 . S
C365 H377 0.930 . S
C366 C362 1.524 . S
C366 H378 0.956 . S
C366 H379 0.961 . S
C366 H380 0.961 . S
C367 C364 1.539 . S
C367 H381 0.958 . S
C367 H382 0.961 . S
C367 H383 0.960 . S
H368 C352 0.931 . S
H369 C357 0.929 . S
H370 C358 0.960 . S
H371 C358 0.962 . S
H372 C358 0.960 . S
H373 C359 0.961 . S
H374 C359 0.961 . S
H375 C359 0.961 . S
H376 C360 0.931 . S
H377 C365 0.930 . S
H378 C366 0.956 . S
H379 C366 0.961 . S
H380 C366 0.961 . S
H381 C367 0.958 . S
H382 C367 0.961 . S
H383 C367 0.960 . S
C384 C385 1.391 . S
C384 C386 1.394 . S
C384 H400 0.931 . S
C385 C384 1.391 . S
C385 C389 1.376 . S
C386 C384 1.394 . S
C386 C387 1.369 . S
C386 C390 1.531 . S
C387 C386 1.369 . S
C387 C388 1.410 . S
C387 C395 1.503 . S
C388 C387 1.410 . S
C388 C389 1.392 . S
C388 C391 1.511 . S
C389 C385 1.376 . S
C389 C388 1.392 . S
C389 H401 0.929 . S
C390 C386 1.531 . S
C390 H402 0.960 . S
C390 H403 0.962 . S
C390 H404 0.960 . S
C391 C388 1.511 . S
C391 H405 0.961 . S
C391 H406 0.961 . S
C391 H407 0.961 . S
C392 C393 1.370 . S
C392 C394 1.363 . S
C392 H408 0.931 . S
C393 C392 1.370 . S
C393 C397 1.408 . S
C394 C392 1.363 . S
C394 C395 1.370 . S
C394 C398 1.524 . S
C395 C387 1.503 . S
C395 C394 1.370 . S
C395 C396 1.403 . S
C396 C395 1.403 . S
C396 C397 1.404 . S
C396 C399 1.539 . S
C397 C393 1.408 . S
C397 C396 1.404 . S
C397 H409 0.930 1_556 S
C398 C394 1.524 . S
C398 H410 0.956 . S
C398 H411 0.961 . S
C398 H412 0.961 . S
C399 C396 1.539 . S
C399 H413 0.958 1_556 S
C399 H414 0.961 1_556 S
C399 H415 0.960 . S
H400 C384 0.931 . S
H401 C389 0.929 . S
H402 C390 0.960 . S
H403 C390 0.962 . S
H404 C390 0.960 . S
H405 C391 0.961 . S
H406 C391 0.961 . S
H407 C391 0.961 . S
H408 C392 0.931 . S
H409 C397 0.930 1_554 S
H410 C398 0.956 . S
H411 C398 0.961 . S
H412 C398 0.961 . S
H413 C399 0.958 1_554 S
H414 C399 0.961 1_554 S
H415 C399 0.960 . S
C416 C417 1.391 . S
C416 C418 1.394 . S
C416 H432 0.931 . S
C417 C416 1.391 . S
C417 C421 1.376 . S
C418 C416 1.394 . S
C418 C419 1.369 . S
C418 C422 1.531 . S
C419 C418 1.369 . S
C419 C420 1.410 . S
C419 C427 1.503 . S
C420 C419 1.410 . S
C420 C421 1.392 . S
C420 C423 1.511 . S
C421 C417 1.376 . S
C421 C420 1.392 . S
C421 H433 0.929 . S
C422 C418 1.531 . S
C422 H434 0.960 . S
C422 H435 0.962 . S
C422 H436 0.960 . S
C423 C420 1.511 . S
C423 H437 0.961 . S
C423 H438 0.961 . S
C423 H439 0.961 . S
C424 C425 1.370 . S
C424 C426 1.363 . S
C424 H440 0.931 . S
C425 C424 1.370 . S
C425 C429 1.408 . S
C426 C424 1.363 . S
C426 C427 1.370 . S
C426 C430 1.524 . S
C427 C419 1.503 . S
C427 C426 1.370 . S
C427 C428 1.403 . S
C428 C427 1.403 . S
C428 C429 1.404 . S
C428 C431 1.539 . S
C429 C425 1.408 . S
C429 C428 1.404 . S
C429 H441 0.930 . S
C430 C426 1.524 . S
C430 H442 0.956 . S
C430 H443 0.961 . S
C430 H444 0.961 . S
C431 C428 1.539 . S
C431 H445 0.958 . S
C431 H446 0.961 . S
C431 H447 0.960 . S
H432 C416 0.931 . S
H433 C421 0.929 . S
H434 C422 0.960 . S
H435 C422 0.962 . S
H436 C422 0.960 . S
H437 C423 0.961 . S
H438 C423 0.961 . S
H439 C423 0.961 . S
H440 C424 0.931 . S
H441 C429 0.930 . S
H442 C430 0.956 . S
H443 C430 0.961 . S
H444 C430 0.961 . S
H445 C431 0.958 . S
H446 C431 0.961 . S
H447 C431 0.960 . S
C448 C449 1.391 . S
C448 C450 1.394 . S
C448 H464 0.931 . S
C449 C448 1.391 . S
C449 C453 1.376 . S
C450 C448 1.394 . S
C450 C451 1.369 . S
C450 C454 1.531 . S
C451 C450 1.369 . S
C451 C452 1.410 . S
C451 C459 1.503 . S
C452 C451 1.410 . S
C452 C453 1.392 . S
C452 C455 1.511 . S
C453 C449 1.376 . S
C453 C452 1.392 . S
C453 H465 0.929 . S
C454 C450 1.531 . S
C454 H466 0.960 . S
C454 H467 0.962 . S
C454 H468 0.960 . S
C455 C452 1.511 . S
C455 H469 0.961 . S
C455 H470 0.961 . S
C455 H471 0.961 . S
C456 C457 1.370 . S
C456 C458 1.363 . S
C456 H472 0.931 . S
C457 C456 1.370 . S
C457 C461 1.408 . S
C458 C456 1.363 . S
C458 C459 1.370 . S
C458 C462 1.524 . S
C459 C451 1.503 . S
C459 C458 1.370 . S
C459 C460 1.403 . S
C460 C459 1.403 . S
C460 C461 1.404 . S
C460 C463 1.539 . S
C461 C457 1.408 . S
C461 C460 1.404 . S
C461 H473 0.930 . S
C462 C458 1.524 . S
C462 H474 0.956 . S
C462 H475 0.961 . S
C462 H476 0.961 . S
C463 C460 1.539 . S
C463 H477 0.958 . S
C463 H478 0.961 . S
C463 H479 0.960 . S
H464 C448 0.931 . S
H465 C453 0.929 . S
H466 C454 0.960 . S
H467 C454 0.962 . S
H468 C454 0.960 . S
H469 C455 0.961 . S
H470 C455 0.961 . S
H471 C455 0.961 . S
H472 C456 0.931 . S
H473 C461 0.930 . S
H474 C462 0.956 . S
H475 C462 0.961 . S
H476 C462 0.961 . S
H477 C463 0.958 . S
H478 C463 0.961 . S
H479 C463 0.960 . S
C480 C481 1.391 . S
C480 C482 1.394 . S
C480 H496 0.931 . S
C481 C480 1.391 . S
C481 C485 1.376 . S
C482 C480 1.394 . S
C482 C483 1.369 . S
C482 C486 1.531 . S
C483 C482 1.369 . S
C483 C484 1.410 . S
C483 C491 1.503 . S
C484 C483 1.410 . S
C484 C485 1.392 . S
C484 C487 1.511 . S
C485 C481 1.376 . S
C485 C484 1.392 . S
C485 H497 0.929 . S
C486 C482 1.531 . S
C486 H498 0.960 . S
C486 H499 0.962 . S
C486 H500 0.960 . S
C487 C484 1.511 . S
C487 H501 0.961 . S
C487 H502 0.961 . S
C487 H503 0.961 . S
C488 C489 1.370 . S
C488 C490 1.363 . S
C488 H504 0.931 . S
C489 C488 1.370 . S
C489 C493 1.408 . S
C490 C488 1.363 . S
C490 C491 1.370 . S
C490 C494 1.524 . S
C491 C483 1.503 . S
C491 C490 1.370 . S
C491 C492 1.403 . S
C492 C491 1.403 . S
C492 C493 1.404 . S
C492 C495 1.539 . S
C493 C489 1.408 . S
C493 C492 1.404 . S
C493 H505 0.930 . S
C494 C490 1.524 . S
C494 H506 0.956 . S
C494 H507 0.961 . S
C494 H508 0.961 . S
C495 C492 1.539 . S
C495 H509 0.958 . S
C495 H510 0.961 . S
C495 H511 0.960 . S
H496 C480 0.931 . S
H497 C485 0.929 . S
H498 C486 0.960 . S
H499 C486 0.962 . S
H500 C486 0.960 . S
H501 C487 0.961 . S
H502 C487 0.961 . S
H503 C487 0.961 . S
H504 C488 0.931 . S
H505 C493 0.930 . S
H506 C494 0.956 . S
H507 C494 0.961 . S
H508 C494 0.961 . S
H509 C495 0.958 . S
H510 C495 0.961 . S
H511 C495 0.960 . S
C512 C513 1.391 . S
C512 C514 1.394 . S
C512 H528 0.931 . S
C513 C512 1.391 . S
C513 C517 1.376 . S
C514 C512 1.394 . S
C514 C515 1.369 . S
C514 C518 1.531 . S
C515 C514 1.369 . S
C515 C516 1.410 . S
C515 C523 1.503 . S
C516 C515 1.410 . S
C516 C517 1.392 . S
C516 C519 1.511 . S
C517 C513 1.376 . S
C517 C516 1.392 . S
C517 H529 0.929 . S
C518 C514 1.531 . S
C518 H530 0.960 . S
C518 H531 0.962 . S
C518 H532 0.960 . S
C519 C516 1.511 . S
C519 H533 0.961 . S
C519 H534 0.961 . S
C519 H535 0.961 . S
C520 C521 1.370 . S
C520 C522 1.363 . S
C520 H536 0.931 . S
C521 C520 1.370 . S
C521 C525 1.408 . S
C522 C520 1.363 . S
C522 C523 1.370 . S
C522 C526 1.524 . S
C523 C515 1.503 . S
C523 C522 1.370 . S
C523 C524 1.403 . S
C524 C523 1.403 . S
C524 C525 1.404 . S
C524 C527 1.539 1_554 S
C525 C521 1.408 . S
C525 C524 1.404 . S
C525 H537 0.930 1_554 S
C526 C522 1.524 . S
C526 H538 0.956 . S
C526 H539 0.961 . S
C526 H540 0.961 . S
C527 C524 1.539 1_556 S
C527 H541 0.958 . S
C527 H542 0.961 . S
C527 H543 0.960 1_556 S
H528 C512 0.931 . S
H529 C517 0.929 . S
H530 C518 0.960 . S
H531 C518 0.962 . S
H532 C518 0.960 . S
H533 C519 0.961 . S
H534 C519 0.961 . S
H535 C519 0.961 . S
H536 C520 0.931 . S
H537 C525 0.930 1_556 S
H538 C526 0.956 . S
H539 C526 0.961 . S
H540 C526 0.961 . S
H541 C527 0.958 . S
H542 C527 0.961 . S
H543 C527 0.960 1_554 S
C544 C545 1.391 . S
C544 C546 1.394 . S
C544 H560 0.931 . S
C545 C544 1.391 . S
C545 C549 1.376 . S
C546 C544 1.394 . S
C546 C547 1.369 . S
C546 C550 1.531 . S
C547 C546 1.369 . S
C547 C548 1.410 . S
C547 C555 1.503 . S
C548 C547 1.410 . S
C548 C549 1.392 . S
C548 C551 1.511 . S
C549 C545 1.376 . S
C549 C548 1.392 . S
C549 H561 0.929 . S
C550 C546 1.531 . S
C550 H562 0.960 . S
C550 H563 0.962 . S
C550 H564 0.960 . S
C551 C548 1.511 . S
C551 H565 0.961 . S
C551 H566 0.961 . S
C551 H567 0.961 . S
C552 C553 1.370 . S
C552 C554 1.363 . S
C552 H568 0.931 . S
C553 C552 1.370 . S
C553 C557 1.408 . S
C554 C552 1.363 . S
C554 C555 1.370 . S
C554 C558 1.524 . S
C555 C547 1.503 . S
C555 C554 1.370 . S
C555 C556 1.403 . S
C556 C555 1.403 . S
C556 C557 1.404 . S
C556 C559 1.539 . S
C557 C553 1.408 . S
C557 C556 1.404 . S
C557 H569 0.930 . S
C558 C554 1.524 . S
C558 H570 0.956 . S
C558 H571 0.961 . S
C558 H572 0.961 . S
C559 C556 1.539 . S
C559 H573 0.958 . S
C559 H574 0.961 . S
C559 H575 0.960 . S
H560 C544 0.931 . S
H561 C549 0.929 . S
H562 C550 0.960 . S
H563 C550 0.962 . S
H564 C550 0.960 . S
H565 C551 0.961 . S
H566 C551 0.961 . S
H567 C551 0.961 . S
H568 C552 0.931 . S
H569 C557 0.930 . S
H570 C558 0.956 . S
H571 C558 0.961 . S
H572 C558 0.961 . S
H573 C559 0.958 . S
H574 C559 0.961 . S
H575 C559 0.960 . S
C576 C577 1.391 . S
C576 C578 1.394 . S
C576 H592 0.931 . S
C577 C576 1.391 . S
C577 C581 1.376 . S
C578 C576 1.394 . S
C578 C579 1.369 . S
C578 C582 1.531 . S
C579 C578 1.369 . S
C579 C580 1.410 . S
C579 C587 1.503 . S
C580 C579 1.410 . S
C580 C581 1.392 . S
C580 C583 1.511 . S
C581 C577 1.376 . S
C581 C580 1.392 . S
C581 H593 0.929 . S
C582 C578 1.531 . S
C582 H594 0.960 . S
C582 H595 0.962 . S
C582 H596 0.960 . S
C583 C580 1.511 . S
C583 H597 0.961 . S
C583 H598 0.961 . S
C583 H599 0.961 . S
C584 C585 1.370 . S
C584 C586 1.363 . S
C584 H600 0.931 . S
C585 C584 1.370 . S
C585 C589 1.408 . S
C586 C584 1.363 . S
C586 C587 1.370 . S
C586 C590 1.524 . S
C587 C579 1.503 . S
C587 C586 1.370 . S
C587 C588 1.403 . S
C588 C587 1.403 . S
C588 C589 1.404 . S
C588 C591 1.539 . S
C589 C585 1.408 . S
C589 C588 1.404 . S
C589 H601 0.930 . S
C590 C586 1.524 . S
C590 H602 0.956 . S
C590 H603 0.961 . S
C590 H604 0.961 . S
C591 C588 1.539 . S
C591 H605 0.958 . S
C591 H606 0.961 . S
C591 H607 0.960 . S
H592 C576 0.931 . S
H593 C581 0.929 . S
H594 C582 0.960 . S
H595 C582 0.962 . S
H596 C582 0.960 . S
H597 C583 0.961 . S
H598 C583 0.961 . S
H599 C583 0.961 . S
H600 C584 0.931 . S
H601 C589 0.930 . S
H602 C590 0.956 . S
H603 C590 0.961 . S
H604 C590 0.961 . S
H605 C591 0.958 . S
H606 C591 0.961 . S
H607 C591 0.960 . S
C608 C609 1.391 . S
C608 C610 1.394 . S
C608 H624 0.931 . S
C609 C608 1.391 . S
C609 C613 1.376 . S
C610 C608 1.394 . S
C610 C611 1.369 . S
C610 C614 1.531 . S
C611 C610 1.369 . S
C611 C612 1.410 . S
C611 C619 1.503 . S
C612 C611 1.410 . S
C612 C613 1.392 . S
C612 C615 1.511 . S
C613 C609 1.376 . S
C613 C612 1.392 . S
C613 H625 0.929 . S
C614 C610 1.531 . S
C614 H626 0.960 . S
C614 H627 0.962 . S
C614 H628 0.960 . S
C615 C612 1.511 . S
C615 H629 0.961 . S
C615 H630 0.961 . S
C615 H631 0.961 . S
C616 C617 1.370 . S
C616 C618 1.363 . S
C616 H632 0.931 . S
C617 C616 1.370 . S
C617 C621 1.408 . S
C618 C616 1.363 . S
C618 C619 1.370 . S
C618 C622 1.524 . S
C619 C611 1.503 . S
C619 C618 1.370 . S
C619 C620 1.403 . S
C620 C619 1.403 . S
C620 C621 1.404 . S
C620 C623 1.539 . S
C621 C617 1.408 . S
C621 C620 1.404 . S
C621 H633 0.930 . S
C622 C618 1.524 . S
C622 H634 0.956 . S
C622 H635 0.961 . S
C622 H636 0.961 . S
C623 C620 1.539 . S
C623 H637 0.958 . S
C623 H638 0.961 . S
C623 H639 0.960 . S
H624 C608 0.931 . S
H625 C613 0.929 . S
H626 C614 0.960 . S
H627 C614 0.962 . S
H628 C614 0.960 . S
H629 C615 0.961 . S
H630 C615 0.961 . S
H631 C615 0.961 . S
H632 C616 0.931 . S
H633 C621 0.930 . S
H634 C622 0.956 . S
H635 C622 0.961 . S
H636 C622 0.961 . S
H637 C623 0.958 . S
H638 C623 0.961 . S
H639 C623 0.960 . S
C640 C641 1.391 . S
C640 C642 1.394 . S
C640 H656 0.931 . S
C641 C640 1.391 . S
C641 C645 1.376 . S
C642 C640 1.394 . S
C642 C643 1.369 . S
C642 C646 1.531 . S
C643 C642 1.369 . S
C643 C644 1.410 . S
C643 C651 1.503 . S
C644 C643 1.410 . S
C644 C645 1.392 . S
C644 C647 1.511 . S
C645 C641 1.376 . S
C645 C644 1.392 . S
C645 H657 0.929 . S
C646 C642 1.531 . S
C646 H658 0.960 . S
C646 H659 0.962 . S
C646 H660 0.960 . S
C647 C644 1.511 . S
C647 H661 0.961 . S
C647 H662 0.961 . S
C647 H663 0.961 . S
C648 C649 1.370 . S
C648 C650 1.363 . S
C648 H664 0.931 . S
C649 C648 1.370 . S
C649 C653 1.408 . S
C650 C648 1.363 . S
C650 C651 1.370 . S
C650 C654 1.524 . S
C651 C643 1.503 . S
C651 C650 1.370 . S
C651 C652 1.403 . S
C652 C651 1.403 . S
C652 C653 1.404 . S
C652 C655 1.539 . S
C653 C649 1.408 . S
C653 C652 1.404 . S
C653 H665 0.930 . S
C654 C650 1.524 . S
C654 H666 0.956 . S
C654 H667 0.961 . S
C654 H668 0.961 . S
C655 C652 1.539 . S
C655 H669 0.958 . S
C655 H670 0.961 . S
C655 H671 0.960 . S
H656 C640 0.931 . S
H657 C645 0.929 . S
H658 C646 0.960 . S
H659 C646 0.962 . S
H660 C646 0.960 . S
H661 C647 0.961 . S
H662 C647 0.961 . S
H663 C647 0.961 . S
H664 C648 0.931 . S
H665 C653 0.930 . S
H666 C654 0.956 . S
H667 C654 0.961 . S
H668 C654 0.961 . S
H669 C655 0.958 . S
H670 C655 0.961 . S
H671 C655 0.960 . S
C672 C673 1.391 . S
C672 C674 1.394 . S
C672 H688 0.931 . S
C673 C672 1.391 . S
C673 C677 1.376 . S
C674 C672 1.394 . S
C674 C675 1.369 . S
C674 C678 1.531 . S
C675 C674 1.369 . S
C675 C676 1.410 . S
C675 C683 1.503 . S
C676 C675 1.410 . S
C676 C677 1.392 . S
C676 C679 1.511 . S
C677 C673 1.376 . S
C677 C676 1.392 . S
C677 H689 0.929 . S
C678 C674 1.531 . S
C678 H690 0.960 . S
C678 H691 0.962 . S
C678 H692 0.960 . S
C679 C676 1.511 . S
C679 H693 0.961 . S
C679 H694 0.961 . S
C679 H695 0.961 . S
C680 C681 1.370 . S
C680 C682 1.363 . S
C680 H696 0.931 . S
C681 C680 1.370 . S
C681 C685 1.408 . S
C682 C680 1.363 . S
C682 C683 1.370 . S
C682 C686 1.524 . S
C683 C675 1.503 . S
C683 C682 1.370 . S
C683 C684 1.403 . S
C684 C683 1.403 . S
C684 C685 1.404 . S
C684 C687 1.539 . S
C685 C681 1.408 . S
C685 C684 1.404 . S
C685 H697 0.930 . S
C686 C682 1.524 . S
C686 H698 0.956 . S
C686 H699 0.961 . S
C686 H700 0.961 . S
C687 C684 1.539 . S
C687 H701 0.958 . S
C687 H702 0.961 . S
C687 H703 0.960 . S
H688 C672 0.931 . S
H689 C677 0.929 . S
H690 C678 0.960 . S
H691 C678 0.962 . S
H692 C678 0.960 . S
H693 C679 0.961 . S
H694 C679 0.961 . S
H695 C679 0.961 . S
H696 C680 0.931 . S
H697 C685 0.930 . S
H698 C686 0.956 . S
H699 C686 0.961 . S
H700 C686 0.961 . S
H701 C687 0.958 . S
H702 C687 0.961 . S
H703 C687 0.960 . S
C704 C705 1.391 . S
C704 C706 1.394 . S
C704 H720 0.931 . S
C705 C704 1.391 . S
C705 C709 1.376 . S
C706 C704 1.394 . S
C706 C707 1.369 . S
C706 C710 1.531 . S
C707 C706 1.369 . S
C707 C708 1.410 . S
C707 C715 1.503 . S
C708 C707 1.410 . S
C708 C709 1.392 . S
C708 C711 1.511 . S
C709 C705 1.376 . S
C709 C708 1.392 . S
C709 H721 0.929 . S
C710 C706 1.531 . S
C710 H722 0.960 . S
C710 H723 0.962 . S
C710 H724 0.960 . S
C711 C708 1.511 . S
C711 H725 0.961 . S
C711 H726 0.961 . S
C711 H727 0.961 . S
C712 C713 1.370 . S
C712 C714 1.363 . S
C712 H728 0.931 . S
C713 C712 1.370 . S
C713 C717 1.408 . S
C714 C712 1.363 . S
C714 C715 1.370 . S
C714 C718 1.524 . S
C715 C707 1.503 . S
C715 C714 1.370 . S
C715 C716 1.403 . S
C716 C715 1.403 . S
C716 C717 1.404 . S
C716 C719 1.539 . S
C717 C713 1.408 . S
C717 C716 1.404 . S
C717 H729 0.930 . S
C718 C714 1.524 . S
C718 H730 0.956 . S
C718 H731 0.961 . S
C718 H732 0.961 . S
C719 C716 1.539 . S
C719 H733 0.958 . S
C719 H734 0.945 1_554 S
C719 H735 0.960 . S
H720 C704 0.931 . S
H721 C709 0.929 . S
H722 C710 0.960 . S
H723 C710 0.962 . S
H724 C710 0.960 . S
H725 C711 0.961 . S
H726 C711 0.961 . S
H727 C711 0.961 . S
H728 C712 0.931 . S
H729 C717 0.930 . S
H730 C718 0.956 . S
H731 C718 0.961 . S
H732 C718 0.961 . S
H733 C719 0.958 . S
H734 C719 0.945 1_556 S
H735 C719 0.960 . S
C736 C737 1.391 . S
C736 C738 1.394 . S
C736 H752 0.931 . S
C737 C736 1.391 . S
C737 C741 1.376 . S
C738 C736 1.394 . S
C738 C739 1.369 . S
C738 C742 1.531 . S
C739 C738 1.369 . S
C739 C740 1.410 . S
C739 C747 1.503 . S
C740 C739 1.410 . S
C740 C741 1.392 . S
C740 C743 1.511 . S
C741 C737 1.376 . S
C741 C740 1.392 . S
C741 H753 0.929 1_556 S
C742 C738 1.531 . S
C742 H754 0.960 . S
C742 H755 0.962 . S
C742 H756 0.960 . S
C743 C740 1.511 . S
C743 H757 0.961 . S
C743 H758 0.961 . S
C743 H759 0.961 . S
C744 C745 1.370 . S
C744 C746 1.363 . S
C744 H760 0.931 . S
C745 C744 1.370 . S
C745 C749 1.408 . S
C746 C744 1.363 . S
C746 C747 1.370 . S
C746 C750 1.524 . S
C747 C739 1.503 . S
C747 C746 1.370 . S
C747 C748 1.403 . S
C748 C747 1.403 . S
C748 C749 1.404 . S
C748 C751 1.539 . S
C749 C745 1.408 . S
C749 C748 1.404 . S
C749 H761 0.930 . S
C750 C746 1.524 . S
C750 H762 0.956 . S
C750 H763 0.961 . S
C750 H764 0.961 . S
C751 C748 1.539 . S
C751 H765 0.958 . S
C751 H766 0.961 . S
C751 H767 0.960 . S
H752 C736 0.931 . S
H753 C741 0.929 1_554 S
H754 C742 0.960 . S
H755 C742 0.962 . S
H756 C742 0.960 . S
H757 C743 0.961 . S
H758 C743 0.961 . S
H759 C743 0.961 . S
H760 C744 0.931 . S
H761 C749 0.930 . S
H762 C750 0.956 . S
H763 C750 0.961 . S
H764 C750 0.961 . S
H765 C751 0.958 . S
H766 C751 0.961 . S
H767 C751 0.960 . S
C768 C769 1.391 . S
C768 C770 1.394 . S
C768 H784 0.931 . S
C769 C768 1.391 . S
C769 C773 1.376 . S
C770 C768 1.394 . S
C770 C771 1.369 . S
C770 C774 1.531 . S
C771 C770 1.369 . S
C771 C772 1.410 . S
C771 C779 1.503 . S
C772 C771 1.410 . S
C772 C773 1.392 . S
C772 C775 1.511 . S
C773 C769 1.376 . S
C773 C772 1.392 . S
C773 H785 0.929 . S
C774 C770 1.531 . S
C774 H786 0.960 . S
C774 H787 0.962 . S
C774 H788 0.960 . S
C775 C772 1.511 . S
C775 H789 0.961 . S
C775 H790 0.961 . S
C775 H791 0.961 . S
C776 C777 1.370 . S
C776 C778 1.363 . S
C776 H792 0.931 . S
C777 C776 1.370 . S
C777 C781 1.408 . S
C778 C776 1.363 . S
C778 C779 1.370 . S
C778 C782 1.524 . S
C779 C771 1.503 . S
C779 C778 1.370 . S
C779 C780 1.403 . S
C780 C779 1.403 . S
C780 C781 1.404 . S
C780 C783 1.539 . S
C781 C777 1.408 . S
C781 C780 1.404 . S
C781 H793 0.930 . S
C782 C778 1.524 . S
C782 H794 0.956 . S
C782 H795 0.961 . S
C782 H796 0.961 . S
C783 C780 1.539 . S
C783 H797 0.958 . S
C783 H798 0.961 . S
C783 H799 0.960 . S
H784 C768 0.931 . S
H785 C773 0.929 . S
H786 C774 0.960 . S
H787 C774 0.962 . S
H788 C774 0.960 . S
H789 C775 0.961 . S
H790 C775 0.961 . S
H791 C775 0.961 . S
H792 C776 0.931 . S
H793 C781 0.930 . S
H794 C782 0.956 . S
H795 C782 0.961 . S
H796 C782 0.961 . S
H797 C783 0.958 . S
H798 C783 0.961 . S
H799 C783 0.960 . S
C800 C801 1.391 . S
C800 C802 1.394 . S
C800 H816 0.931 . S
C801 C800 1.391 . S
C801 C805 1.376 . S
C802 C800 1.394 . S
C802 C803 1.369 . S
C802 C806 1.531 . S
C803 C802 1.369 . S
C803 C804 1.410 . S
C803 C811 1.503 . S
C804 C803 1.410 . S
C804 C805 1.392 . S
C804 C807 1.511 . S
C805 C801 1.376 . S
C805 C804 1.392 . S
C805 H817 0.929 . S
C806 C802 1.531 . S
C806 H818 0.960 . S
C806 H819 0.962 . S
C806 H820 0.960 . S
C807 C804 1.511 . S
C807 H821 0.961 . S
C807 H822 0.961 . S
C807 H823 0.961 . S
C808 C809 1.370 . S
C808 C810 1.363 . S
C808 H824 0.931 . S
C809 C808 1.370 . S
C809 C813 1.408 . S
C810 C808 1.363 . S
C810 C811 1.370 . S
C810 C814 1.524 . S
C811 C803 1.503 . S
C811 C810 1.370 . S
C811 C812 1.403 . S
C812 C811 1.403 . S
C812 C813 1.404 . S
C812 C815 1.539 . S
C813 C809 1.408 . S
C813 C812 1.404 . S
C813 H825 0.930 . S
C814 C810 1.524 . S
C814 H826 0.956 . S
C814 H827 0.961 . S
C814 H828 0.961 . S
C815 C812 1.539 . S
C815 H829 0.958 . S
C815 H830 0.961 . S
C815 H831 0.960 . S
H816 C800 0.931 . S
H817 C805 0.929 . S
H818 C806 0.960 . S
H819 C806 0.962 . S
H820 C806 0.960 . S
H821 C807 0.961 . S
H822 C807 0.961 . S
H823 C807 0.961 . S
H824 C808 0.931 . S
H825 C813 0.930 . S
H826 C814 0.956 . S
H827 C814 0.961 . S
H828 C814 0.961 . S
H829 C815 0.958 . S
H830 C815 0.961 . S
H831 C815 0.960 . S
C832 C833 1.391 . S
C832 C834 1.394 . S
C832 H848 0.931 . S
C833 C832 1.391 . S
C833 C837 1.376 1_655 S
C834 C832 1.394 . S
C834 C835 1.369 . S
C834 C838 1.531 . S
C835 C834 1.369 . S
C835 C836 1.410 1_655 S
C835 C843 1.503 1_656 S
C836 C835 1.410 1_455 S
C836 C837 1.392 . S
C836 C839 1.511 . S
C837 C833 1.376 1_455 S
C837 C836 1.392 . S
C837 H849 0.929 . S
C838 C834 1.531 . S
C838 H850 0.960 1_556 S
C838 H851 0.962 1_565 S
C838 H852 0.960 . S
C839 C836 1.511 . S
C839 H853 0.961 1_565 S
C839 H854 0.961 1_565 S
C839 H855 0.961 . S
C840 C841 1.384 . S
C840 C842 1.363 . S
C840 H856 0.931 . S
C841 C840 1.384 . S
C841 C845 1.390 1_545 S
C842 C840 1.363 . S
C842 C843 1.370 1_545 S
C842 C846 1.524 1_455 S
C843 C835 1.503 1_454 S
C843 C842 1.370 1_565 S
C843 C844 1.403 . S
C844 C843 1.403 . S
C844 C845 1.404 . S
C844 C847 1.539 . S
C845 C841 1.390 1_565 S
C845 C844 1.404 . S
C845 H857 0.930 . S
C846 C842 1.524 1_655 S
C846 H858 0.956 1_554 S
C846 H859 0.961 1_654 S
C846 H860 0.961 1_655 S
C847 C844 1.539 . S
C847 H861 0.958 1_455 S
C847 H862 0.961 . S
C847 H863 0.960 . S
H848 C832 0.931 . S
H849 C837 0.929 . S
H850 C838 0.960 1_554 S
H851 C838 0.962 1_545 S
H852 C838 0.960 . S
H853 C839 0.961 1_545 S
H854 C839 0.961 1_545 S
H855 C839 0.961 . S
H856 C840 0.931 . S
H857 C845 0.930 . S
H858 C846 0.956 1_556 S
H859 C846 0.961 1_456 S
H860 C846 0.961 1_455 S
H861 C847 0.958 1_655 S
H862 C847 0.961 . S
H863 C847 0.960 . S
C864 C865 1.391 . S
C864 C866 1.394 . S
C864 H880 0.931 . S
C865 C864 1.391 . S
C865 C869 1.376 . S
C866 C864 1.394 . S
C866 C867 1.369 . S
C866 C870 1.531 . S
C867 C866 1.369 . S
C867 C868 1.410 . S
C867 C875 1.503 . S
C868 C867 1.410 . S
C868 C869 1.392 . S
C868 C871 1.511 . S
C869 C865 1.376 . S
C869 C868 1.392 . S
C869 H881 0.929 . S
C870 C866 1.531 . S
C870 H882 0.960 . S
C870 H883 0.962 . S
C870 H884 0.960 . S
C871 C868 1.511 . S
C871 H885 0.961 . S
C871 H886 0.961 . S
C871 H887 0.961 . S
C872 C873 1.370 . S
C872 C874 1.363 . S
C872 H888 0.931 . S
C873 C872 1.370 . S
C873 C877 1.408 . S
C874 C872 1.363 . S
C874 C875 1.370 . S
C874 C878 1.524 . S
C875 C867 1.503 . S
C875 C874 1.370 . S
C875 C876 1.403 . S
C876 C875 1.403 . S
C876 C877 1.404 . S
C876 C879 1.539 . S
C877 C873 1.408 . S
C877 C876 1.404 . S
C877 H889 0.930 . S
C878 C874 1.524 . S
C878 H890 0.956 . S
C878 H891 0.961 . S
C878 H892 0.961 . S
C879 C876 1.539 . S
C879 H893 0.958 . S
C879 H894 0.961 . S
C879 H895 0.960 . S
H880 C864 0.931 . S
H881 C869 0.929 . S
H882 C870 0.960 . S
H883 C870 0.962 . S
H884 C870 0.960 . S
H885 C871 0.961 . S
H886 C871 0.961 . S
H887 C871 0.961 . S
H888 C872 0.931 . S
H889 C877 0.930 . S
H890 C878 0.956 . S
H891 C878 0.961 . S
H892 C878 0.961 . S
H893 C879 0.958 . S
H894 C879 0.961 . S
H895 C879 0.960 . S
C896 C897 1.391 . S
C896 C898 1.394 1_545 S
C896 H912 0.931 . S
C897 C896 1.391 . S
C897 C901 1.376 . S
C898 C896 1.394 1_565 S
C898 C899 1.369 . S
C898 C902 1.531 . S
C899 C898 1.369 . S
C899 C900 1.410 1_565 S
C899 C907 1.503 . S
C900 C899 1.410 1_545 S
C900 C901 1.392 . S
C900 C903 1.511 . S
C901 C897 1.376 . S
C901 C900 1.392 . S
C901 H913 0.929 . S
C902 C898 1.531 . S
C902 H914 0.960 . S
C902 H915 0.962 1_565 S
C902 H916 0.960 . S
C903 C900 1.511 . S
C903 H917 0.961 . S
C903 H918 0.961 . S
C903 H919 0.961 1_545 S
C904 C905 1.370 1_545 S
C904 C906 1.363 . S
C904 H920 0.931 . S
C905 C904 1.370 1_565 S
C905 C909 1.408 . S
C906 C904 1.363 . S
C906 C907 1.370 1_545 S
C906 C910 1.524 . S
C907 C899 1.503 . S
C907 C906 1.370 1_565 S
C907 C908 1.403 . S
C908 C907 1.403 . S
C908 C909 1.404 . S
C908 C911 1.539 . S
C909 C905 1.408 . S
C909 C908 1.404 . S
C909 H921 0.930 . S
C910 C906 1.524 . S
C910 H922 0.956 . S
C910 H923 0.961 . S
C910 H924 0.961 . S
C911 C908 1.539 . S
C911 H925 0.958 . S
C911 H926 0.961 . S
C911 H927 0.960 . S
H912 C896 0.931 . S
H913 C901 0.929 . S
H914 C902 0.960 . S
H915 C902 0.962 1_545 S
H916 C902 0.960 . S
H917 C903 0.961 . S
H918 C903 0.961 . S
H919 C903 0.961 1_565 S
H920 C904 0.931 . S
H921 C909 0.930 . S
H922 C910 0.956 . S
H923 C910 0.961 . S
H924 C910 0.961 . S
H925 C911 0.958 . S
H926 C911 0.961 . S
H927 C911 0.960 . S
C928 C929 1.391 . S
C928 C930 1.394 . S
C928 H944 0.931 . S
C929 C928 1.391 . S
C929 C933 1.376 . S
C930 C928 1.394 . S
C930 C931 1.369 . S
C930 C934 1.531 . S
C931 C930 1.369 . S
C931 C932 1.410 . S
C931 C939 1.503 . S
C932 C931 1.410 . S
C932 C933 1.392 . S
C932 C935 1.511 . S
C933 C929 1.376 . S
C933 C932 1.392 . S
C933 H945 0.929 . S
C934 C930 1.531 . S
C934 H946 0.960 . S
C934 H947 0.962 . S
C934 H948 0.960 . S
C935 C932 1.511 . S
C935 H949 0.961 . S
C935 H950 0.961 . S
C935 H951 0.961 . S
C936 C937 1.370 . S
C936 C938 1.363 . S
C936 H952 0.931 . S
C937 C936 1.370 . S
C937 C941 1.408 . S
C938 C936 1.363 . S
C938 C939 1.370 . S
C938 C942 1.524 . S
C939 C931 1.503 . S
C939 C938 1.370 . S
C939 C940 1.403 . S
C940 C939 1.403 . S
C940 C941 1.404 . S
C940 C943 1.539 . S
C941 C937 1.408 . S
C941 C940 1.404 . S
C941 H953 0.930 . S
C942 C938 1.524 . S
C942 H954 0.956 . S
C942 H955 0.961 . S
C942 H956 0.961 . S
C943 C940 1.539 . S
C943 H957 0.958 . S
C943 H958 0.961 . S
C943 H959 0.960 . S
H944 C928 0.931 . S
H945 C933 0.929 . S
H946 C934 0.960 . S
H947 C934 0.962 . S
H948 C934 0.960 . S
H949 C935 0.961 . S
H950 C935 0.961 . S
H951 C935 0.961 . S
H952 C936 0.931 . S
H953 C941 0.930 . S
H954 C942 0.956 . S
H955 C942 0.961 . S
H956 C942 0.961 . S
H957 C943 0.958 . S
H958 C943 0.961 . S
H959 C943 0.960 . S
C960 C961 1.391 . S
C960 C962 1.394 . S
C960 H976 0.931 . S
C961 C960 1.391 . S
C961 C965 1.376 . S
C962 C960 1.394 . S
C962 C963 1.369 . S
C962 C966 1.531 . S
C963 C962 1.369 . S
C963 C964 1.410 . S
C963 C971 1.503 . S
C964 C963 1.410 . S
C964 C965 1.392 . S
C964 C967 1.511 . S
C965 C961 1.376 . S
C965 C964 1.392 . S
C965 H977 0.929 . S
C966 C962 1.531 . S
C966 H978 0.960 . S
C966 H979 0.962 . S
C966 H980 0.960 . S
C967 C964 1.511 . S
C967 H981 0.961 . S
C967 H982 0.961 . S
C967 H983 0.961 . S
C968 C969 1.370 . S
C968 C970 1.363 . S
C968 H984 0.931 . S
C969 C968 1.370 . S
C969 C973 1.408 . S
C970 C968 1.363 . S
C970 C971 1.370 . S
C970 C974 1.524 . S
C971 C963 1.503 . S
C971 C970 1.370 . S
C971 C972 1.403 . S
C972 C971 1.403 . S
C972 C973 1.404 . S
C972 C975 1.539 . S
C973 C969 1.408 . S
C973 C972 1.404 . S
C973 H985 0.930 . S
C974 C970 1.524 . S
C974 H986 0.956 . S
C974 H987 0.961 . S
C974 H988 0.961 . S
C975 C972 1.539 . S
C975 H989 0.958 . S
C975 H990 0.961 . S
C975 H991 0.960 . S
H976 C960 0.931 . S
H977 C965 0.929 . S
H978 C966 0.960 . S
H979 C966 0.962 . S
H980 C966 0.960 . S
H981 C967 0.961 . S
H982 C967 0.961 . S
H983 C967 0.961 . S
H984 C968 0.931 . S
H985 C973 0.930 . S
H986 C974 0.956 . S
H987 C974 0.961 . S
H988 C974 0.961 . S
H989 C975 0.958 . S
H990 C975 0.961 . S
H991 C975 0.960 . S
C992 C993 1.391 . S
C992 C994 1.394 . S
C992 H1008 0.931 . S
C993 C992 1.391 . S
C993 C997 1.376 . S
C994 C992 1.394 . S
C994 C995 1.369 . S
C994 C998 1.531 . S
C995 C994 1.369 . S
C995 C996 1.410 . S
C995 C1003 1.503 . S
C996 C995 1.410 . S
C996 C997 1.392 . S
C996 C999 1.511 . S
C997 C993 1.376 . S
C997 C996 1.392 . S
C997 H1009 0.929 . S
C998 C994 1.531 . S
C998 H1010 0.960 . S
C998 H1011 0.962 . S
C998 H1012 0.960 . S
C999 C996 1.511 . S
C999 H1013 0.961 . S
C999 H1014 0.961 . S
C999 H1015 0.961 . S
C1000 C1001 1.370 . S
C1000 C1002 1.363 . S
C1000 H1016 0.931 . S
C1001 C1000 1.370 . S
C1001 C1005 1.408 . S
C1002 C1000 1.363 . S
C1002 C1003 1.370 . S
C1002 C1006 1.524 . S
C1003 C995 1.503 . S
C1003 C1002 1.370 . S
C1003 C1004 1.403 . S
C1004 C1003 1.403 . S
C1004 C1005 1.404 . S
C1004 C1007 1.539 . S
C1005 C1001 1.408 . S
C1005 C1004 1.404 . S
C1005 H1017 0.930 . S
C1006 C1002 1.524 . S
C1006 H1018 0.956 . S
C1006 H1019 0.961 . S
C1006 H1020 0.961 . S
C1007 C1004 1.539 . S
C1007 H1021 0.958 . S
C1007 H1022 0.961 . S
C1007 H1023 0.960 . S
H1008 C992 0.931 . S
H1009 C997 0.929 . S
H1010 C998 0.960 . S
H1011 C998 0.962 . S
H1012 C998 0.960 . S
H1013 C999 0.961 . S
H1014 C999 0.961 . S
H1015 C999 0.961 . S
H1016 C1000 0.931 . S
H1017 C1005 0.930 . S
H1018 C1006 0.956 . S
H1019 C1006 0.961 . S
H1020 C1006 0.961 . S
H1021 C1007 0.958 . S
H1022 C1007 0.961 . S
H1023 C1007 0.960 . S
C1024 C1025 1.391 . S
C1024 C1026 1.394 . S
C1024 H1040 0.931 . S
C1025 C1024 1.391 . S
C1025 C1029 1.376 . S
C1026 C1024 1.394 . S
C1026 C1027 1.369 . S
C1026 C1030 1.531 . S
C1027 C1026 1.369 . S
C1027 C1028 1.410 . S
C1027 C1035 1.503 . S
C1028 C1027 1.410 . S
C1028 C1029 1.392 . S
C1028 C1031 1.511 . S
C1029 C1025 1.376 . S
C1029 C1028 1.392 . S
C1029 H1041 0.929 . S
C1030 C1026 1.531 . S
C1030 H1042 0.960 . S
C1030 H1043 0.962 . S
C1030 H1044 0.960 . S
C1031 C1028 1.511 . S
C1031 H1045 0.961 . S
C1031 H1046 0.961 . S
C1031 H1047 0.961 . S
C1032 C1033 1.370 . S
C1032 C1034 1.363 . S
C1032 H1048 0.931 . S
C1033 C1032 1.370 . S
C1033 C1037 1.408 . S
C1034 C1032 1.363 . S
C1034 C1035 1.370 . S
C1034 C1038 1.524 . S
C1035 C1027 1.503 . S
C1035 C1034 1.370 . S
C1035 C1036 1.403 . S
C1036 C1035 1.403 . S
C1036 C1037 1.404 . S
C1036 C1039 1.539 . S
C1037 C1033 1.408 . S
C1037 C1036 1.404 . S
C1037 H1049 0.930 . S
C1038 C1034 1.524 . S
C1038 H1050 0.956 . S
C1038 H1051 0.961 . S
C1038 H1052 0.961 . S
C1039 C1036 1.539 . S
C1039 H1053 0.958 . S
C1039 H1054 0.961 . S
C1039 H1055 0.960 . S
H1040 C1024 0.931 . S
H1041 C1029 0.929 . S
H1042 C1030 0.960 . S
H1043 C1030 0.962 . S
H1044 C1030 0.960 . S
H1045 C1031 0.961 . S
H1046 C1031 0.961 . S
H1047 C1031 0.961 . S
H1048 C1032 0.931 . S
H1049 C1037 0.930 . S
H1050 C1038 0.956 . S
H1051 C1038 0.961 . S
H1052 C1038 0.961 . S
H1053 C1039 0.958 . S
H1054 C1039 0.961 . S
H1055 C1039 0.960 . S
C1056 C1057 1.391 1_455 S
C1056 C1058 1.394 . S
C1056 H1072 0.931 . S
C1057 C1056 1.391 1_655 S
C1057 C1061 1.376 . S
C1058 C1056 1.394 . S
C1058 C1059 1.369 1_455 S
C1058 C1062 1.531 . S
C1059 C1058 1.369 1_655 S
C1059 C1060 1.410 . S
C1059 C1067 1.503 1_656 S
C1060 C1059 1.410 . S
C1060 C1061 1.392 . S
C1060 C1063 1.511 . S
C1061 C1057 1.376 . S
C1061 C1060 1.392 . S
C1061 H1073 0.929 . S
C1062 C1058 1.531 . S
C1062 H1074 0.960 . S
C1062 H1075 0.962 . S
C1062 H1076 0.960 . S
C1063 C1060 1.511 . S
C1063 H1077 0.961 . S
C1063 H1078 0.961 1_556 S
C1063 H1079 0.961 . S
C1064 C1065 1.370 . S
C1064 C1066 1.363 . S
C1064 H1080 0.931 . S
C1065 C1064 1.370 . S
C1065 C1069 1.408 . S
C1066 C1064 1.363 . S
C1066 C1067 1.370 . S
C1066 C1070 1.524 . S
C1067 C1059 1.503 1_454 S
C1067 C1066 1.370 . S
C1067 C1068 1.402 . S
C1068 C1067 1.402 . S
C1068 C1069 1.404 . S
C1068 C1071 1.540 1_454 S
C1069 C1065 1.408 . S
C1069 C1068 1.404 . S
C1069 H1081 0.930 . S
C1070 C1066 1.524 . S
C1070 H1082 0.956 . S
C1070 H1083 0.961 1_455 S
C1070 H1084 0.961 . S
C1071 C1068 1.540 1_656 S
C1071 H1085 0.958 1_655 S
C1071 H1086 0.961 1_556 S
C1071 H1087 0.960 . S
H1072 C1056 0.931 . S
H1073 C1061 0.929 . S
H1074 C1062 0.960 . S
H1075 C1062 0.962 . S
H1076 C1062 0.960 . S
H1077 C1063 0.961 . S
H1078 C1063 0.961 1_554 S
H1079 C1063 0.961 . S
H1080 C1064 0.931 . S
H1081 C1069 0.930 . S
H1082 C1070 0.956 . S
H1083 C1070 0.961 1_655 S
H1084 C1070 0.961 . S
H1085 C1071 0.958 1_455 S
H1086 C1071 0.961 1_554 S
H1087 C1071 0.960 . S
C321 C2 1.538 . S
C329 C130 1.507 . S
C353 C10 0.851 . S
C361 C50 0.893 . S
C385 C42 1.538 . S
C393 C90 1.513 . S
C417 C82 2.062 . S
C425 C122 2.057 . S
C449 C11 1.533 . S
C457 C219 1.518 . S
C481 C19 0.853 . S
C489 C179 0.878 . S
C513 C171 1.535 . S
C521 C99 1.511 . S
C545 C211 2.062 . S
C553 C91 2.065 . S
C577 C242 1.510 . S
C585 C210 1.526 . S
C609 C170 0.852 . S
C617 C250 0.892 . S
C641 C290 1.499 . S
C649 C162 1.533 . S
C673 C202 2.049 . S
C681 C282 2.060 . S
C705 C139 1.525 . S
C713 C251 1.522 . S
C737 C259 0.895 . S
C745 C59 0.899 . S
C769 C51 1.534 . S
C777 C299 1.513 . S
C801 C131 2.048 . S
C809 C291 2.059 . S
C833 C16 1.444 . S
C841 C7 1.445 . S
C865 C56 1.463 . S
C873 C47 1.438 . S
C897 C96 1.588 . S
C905 C87 1.617 . S
C929 C127 1.630 . S
C937 C136 1.598 . S
C961 C176 1.465 . S
C969 C167 1.438 . S
C993 C207 1.631 . S
C1001 C216 1.598 . S
C1025 C247 1.463 . S
C1033 C256 1.437 . S
C1057 C287 1.596 . S
C1065 C296 1.611 . S
