# Generated by pormake.
# Topology wkf, (6)-cn, num edge types: 1
# Building blocks:
#     Node 0, Type 0, BuildingBlock: KUMBUR_clean_sbu_0, # of connection points: 6
#     Node 1, Type 0, BuildingBlock: KUMBUR_clean_sbu_0, # of connection points: 6
#     Node 2, Type 0, BuildingBlock: KUMBUR_clean_sbu_0, # of connection points: 6
#     Node 3, Type 0, BuildingBlock: KUMBUR_clean_sbu_0, # of connection points: 6
#     Node 4, Type 0, BuildingBlock: KUMBUR_clean_sbu_0, # of connection points: 6
#     Node 5, Type 0, BuildingBlock: KUMBUR_clean_sbu_0, # of connection points: 6
#     Node 6, Type 0, BuildingBlock: KUMBUR_clean_sbu_0, # of connection points: 6
#     Node 7, Type 0, BuildingBlock: KUMBUR_clean_sbu_0, # of connection points: 6
#     Node 8, Type 0, BuildingBlock: KUMBUR_clean_sbu_0, # of connection points: 6
#     Node 9, Type 0, BuildingBlock: KUMBUR_clean_sbu_0, # of connection points: 6
#     Node 10, Type 0, BuildingBlock: KUMBUR_clean_sbu_0, # of connection points: 6
#     Node 11, Type 0, BuildingBlock: KUMBUR_clean_sbu_0, # of connection points: 6
#     Edge 12, Type (0, 0), BuildingBlock: UVAHIK_clean_linker_0, # of connection points: 2
#     Edge 13, Type (0, 0), BuildingBlock: UVAHIK_clean_linker_0, # of connection points: 2
#     Edge 14, Type (0, 0), BuildingBlock: UVAHIK_clean_linker_0, # of connection points: 2
#     Edge 15, Type (0, 0), BuildingBlock: UVAHIK_clean_linker_0, # of connection points: 2
#     Edge 16, Type (0, 0), BuildingBlock: UVAHIK_clean_linker_0, # of connection points: 2
#     Edge 17, Type (0, 0), BuildingBlock: UVAHIK_clean_linker_0, # of connection points: 2
#     Edge 18, Type (0, 0), BuildingBlock: UVAHIK_clean_linker_0, # of connection points: 2
#     Edge 19, Type (0, 0), BuildingBlock: UVAHIK_clean_linker_0, # of connection points: 2
#     Edge 20, Type (0, 0), BuildingBlock: UVAHIK_clean_linker_0, # of connection points: 2
#     Edge 21, Type (0, 0), BuildingBlock: UVAHIK_clean_linker_0, # of connection points: 2
#     Edge 22, Type (0, 0), BuildingBlock: UVAHIK_clean_linker_0, # of connection points: 2
#     Edge 23, Type (0, 0), BuildingBlock: UVAHIK_clean_linker_0, # of connection points: 2
#     Edge 24, Type (0, 0), BuildingBlock: UVAHIK_clean_linker_0, # of connection points: 2
#     Edge 25, Type (0, 0), BuildingBlock: UVAHIK_clean_linker_0, # of connection points: 2
#     Edge 26, Type (0, 0), BuildingBlock: UVAHIK_clean_linker_0, # of connection points: 2
#     Edge 27, Type (0, 0), BuildingBlock: UVAHIK_clean_linker_0, # of connection points: 2
#     Edge 28, Type (0, 0), BuildingBlock: UVAHIK_clean_linker_0, # of connection points: 2
#     Edge 29, Type (0, 0), BuildingBlock: UVAHIK_clean_linker_0, # of connection points: 2
#     Edge 30, Type (0, 0), BuildingBlock: UVAHIK_clean_linker_0, # of connection points: 2
#     Edge 31, Type (0, 0), BuildingBlock: UVAHIK_clean_linker_0, # of connection points: 2
#     Edge 32, Type (0, 0), BuildingBlock: UVAHIK_clean_linker_0, # of connection points: 2
#     Edge 33, Type (0, 0), BuildingBlock: UVAHIK_clean_linker_0, # of connection points: 2
#     Edge 34, Type (0, 0), BuildingBlock: UVAHIK_clean_linker_0, # of connection points: 2
#     Edge 35, Type (0, 0), BuildingBlock: UVAHIK_clean_linker_0, # of connection points: 2
#     Edge 36, Type (0, 0), BuildingBlock: UVAHIK_clean_linker_0, # of connection points: 2
#     Edge 37, Type (0, 0), BuildingBlock: UVAHIK_clean_linker_0, # of connection points: 2
#     Edge 38, Type (0, 0), BuildingBlock: UVAHIK_clean_linker_0, # of connection points: 2
#     Edge 39, Type (0, 0), BuildingBlock: UVAHIK_clean_linker_0, # of connection points: 2
#     Edge 40, Type (0, 0), BuildingBlock: UVAHIK_clean_linker_0, # of connection points: 2
#     Edge 41, Type (0, 0), BuildingBlock: UVAHIK_clean_linker_0, # of connection points: 2
#     Edge 42, Type (0, 0), BuildingBlock: UVAHIK_clean_linker_0, # of connection points: 2
#     Edge 43, Type (0, 0), BuildingBlock: UVAHIK_clean_linker_0, # of connection points: 2
#     Edge 44, Type (0, 0), BuildingBlock: UVAHIK_clean_linker_0, # of connection points: 2
#     Edge 45, Type (0, 0), BuildingBlock: UVAHIK_clean_linker_0, # of connection points: 2
#     Edge 46, Type (0, 0), BuildingBlock: UVAHIK_clean_linker_0, # of connection points: 2
#     Edge 47, Type (0, 0), BuildingBlock: UVAHIK_clean_linker_0, # of connection points: 2
# Relax obj value: 0.130
# Max RMSD: 0.266
# Mean RMSD: 0.261
data_MOF--net-wkf--node1-KUMBUR_clean_sbu_0--edge1-UVAHIK_clean_linker_0
_symmetry_space_group_name_H-M    P1
_symmetry_Int_Tables_number       1
_symmetry_cell_setting            triclinic
loop_
_symmetry_equiv_pos_as_xyz
'x, y, z'
_cell_length_a     37.85889
_cell_length_b     37.872609
_cell_length_c     99.1937
_cell_angle_alpha  89.956163
_cell_angle_beta   89.922821
_cell_angle_gamma 119.74129
loop_
_atom_site_label
_atom_site_type_symbol
_atom_site_fract_x
_atom_site_fract_y
_atom_site_fract_z
_atom_type_partial_charge
Tb0 Tb 0.51825 1.00634 0.36165 0.0
C1 C 0.44607 1.02363 0.31087 0.0
C2 C 0.40424 0.05542 0.31321 0.0
C3 C 0.43754 0.05925 0.29184 0.0
C4 C 0.42073 1.03232 0.31858 0.0
C5 C 0.45555 0.03795 0.2975 0.0
C6 C 0.41191 0.06794 0.29968 0.0
C7 C 0.50288 1.01267 0.29679 0.0
N8 N 0.46382 1.00394 0.31686 0.0
C9 C 0.49262 0.99912 0.3101 0.0
C10 C 0.4839 1.03168 0.2904 0.0
Tb11 Tb 0.43908 0.97885 0.33795 0.0
N12 N 0.41596 1.02167 0.33182 0.0
C13 C 0.39482 1.03289 0.34029 0.0
C14 C 0.38202 0.06663 0.32177 0.0
C15 C 0.37762 0.05562 0.33539 0.0
H16 H 0.50804 0.98494 0.31479 0.0
H17 H 0.36061 0.06426 0.34209 0.0
H18 H 0.39925 0.08545 0.2953 0.0
H19 H 0.52551 1.00849 0.29147 0.0
H20 H 0.39029 1.0232 0.35069 0.0
H21 H 0.60164 0.05672 0.31452 0.0
H22 H 0.36884 0.08442 0.31804 0.0
H23 H 0.51719 0.9433 0.38533 0.0
H24 H 0.55163 0.05016 0.33129 0.0
H25 H 0.54984 0.90213 0.38953 0.0
H26 H 0.44417 0.07016 0.28154 0.0
H27 H 0.64106 1.02138 0.31779 0.0
H28 H 0.65504 0.9745 0.33178 0.0
H29 H 0.49212 0.04231 0.28011 0.0
H30 H 0.64003 0.93147 0.35194 0.0
N31 N 0.56314 1.01316 0.34477 0.0
C32 C 0.56919 1.03567 0.33332 0.0
C33 C 0.61954 1.01905 0.32543 0.0
C34 C 0.61294 0.99553 0.33701 0.0
C35 C 0.59741 0.03906 0.32357 0.0
C36 C 0.58439 0.99337 0.34662 0.0
H37 H 0.60046 0.90381 0.37338 0.0
N38 N 0.54686 0.96653 0.36648 0.0
C39 C 0.55723 0.92055 0.3805 0.0
C40 C 0.57584 0.96909 0.35786 0.0
C41 C 0.5383 0.94354 0.37796 0.0
C42 C 0.58594 0.92177 0.37142 0.0
C43 C 0.5958 0.94644 0.35997 0.0
O44 O 0.53902 1.01654 0.38163 0.0
O45 O 0.46526 1.01194 0.35671 0.0
O46 O 0.47587 0.04762 0.33767 0.0
O47 O 0.5299 0.06551 0.35246 0.0
O48 O 0.47233 1.00038 0.3762 0.0
O49 O 0.56712 0.064 0.36677 0.0
O50 O 0.39688 0.93568 0.32441 0.0
O51 O 0.48949 0.97147 0.3442 0.0
O52 O 0.47072 0.94452 0.36749 0.0
O53 O 0.41412 0.93744 0.35558 0.0
O54 O 0.45604 0.93466 0.32931 0.0
O55 O 0.37683 0.94872 0.3432 0.0
C56 C 0.45007 1.00846 0.36843 0.0
C57 C 0.55878 0.08333 0.38869 0.0
C58 C 0.58596 0.15194 0.39764 0.0
C59 C 0.58909 0.12432 0.38892 0.0
C60 C 0.5512 0.13831 0.4058 0.0
C61 C 0.52465 0.0701 0.39718 0.0
C62 C 0.52073 0.09761 0.40552 0.0
C63 C 0.51007 0.07588 0.34356 0.0
C64 C 0.56345 0.05506 0.37957 0.0
C65 C 0.62455 0.94877 0.35053 0.0
C66 C 0.63313 0.97331 0.33907 0.0
C67 C 0.48522 0.94123 0.33734 0.0
C68 C 0.32975 0.92638 0.32449 0.0
C69 C 0.31258 0.90059 0.31308 0.0
C70 C 0.27686 0.8962 0.30683 0.0
C71 C 0.26 0.91939 0.31182 0.0
C72 C 0.31063 0.94744 0.32943 0.0
C73 C 0.27668 0.9446 0.32298 0.0
C74 C 0.43096 0.92484 0.36485 0.0
C75 C 0.36554 0.92889 0.33175 0.0
H76 H 0.61539 0.13458 0.38239 0.0
H77 H 0.54818 0.15873 0.41273 0.0
H78 H 0.50106 0.03856 0.39755 0.0
H79 H 0.49434 0.08718 0.41198 0.0
H80 H 0.32604 0.88298 0.30943 0.0
H81 H 0.23335 0.9177 0.30715 0.0
H82 H 0.32138 0.96574 0.33844 0.0
H83 H 0.2627 0.96152 0.32682 0.0
Tb84 Tb 0.54907 0.49977 0.52528 0.0
C85 C 0.45231 0.41969 0.47635 0.0
C86 C 0.37971 0.37752 0.48038 0.0
C87 C 0.40433 0.40781 0.45828 0.0
C88 C 0.4202 0.39521 0.48486 0.0
C89 C 0.44458 0.42705 0.46306 0.0
C90 C 0.37197 0.38307 0.46692 0.0
C91 C 0.51639 0.47489 0.46067 0.0
N92 N 0.4907 0.43885 0.48152 0.0
C93 C 0.52256 0.46676 0.47396 0.0
C94 C 0.47735 0.45462 0.45514 0.0
Tb95 Tb 0.49588 0.41775 0.50269 0.0
N96 N 0.42887 0.39255 0.49799 0.0
C97 C 0.39855 0.37228 0.50718 0.0
C98 C 0.34833 0.35625 0.4897 0.0
C99 C 0.35781 0.35391 0.50318 0.0
H100 H 0.55289 0.48303 0.47802 0.0
H101 H 0.33377 0.33756 0.51046 0.0
H102 H 0.34105 0.36945 0.46322 0.0
H103 H 0.54178 0.49688 0.45471 0.0
H104 H 0.40592 0.36914 0.51745 0.0
H105 H 0.5769 0.57806 0.47722 0.0
H106 H 0.31675 0.34217 0.48666 0.0
H107 H 0.61418 0.49875 0.54784 0.0
H108 H 0.53578 0.52883 0.49443 0.0
H109 H 0.68803 0.53218 0.55118 0.0
H110 H 0.39781 0.41281 0.44805 0.0
H111 H 0.65138 0.61955 0.47999 0.0
H112 H 0.71341 0.63583 0.49355 0.0
H113 H 0.47271 0.46122 0.44487 0.0
H114 H 0.74373 0.62237 0.51342 0.0
N115 N 0.58515 0.54314 0.5078 0.0
C116 C 0.56765 0.54743 0.49631 0.0
C117 C 0.63317 0.59845 0.48786 0.0
C118 C 0.65127 0.59327 0.49938 0.0
C119 C 0.59119 0.57515 0.48628 0.0
C120 C 0.62613 0.5652 0.5093 0.0
H121 H 0.7346 0.58329 0.53477 0.0
N122 N 0.61794 0.52867 0.52923 0.0
C123 C 0.67588 0.53945 0.54241 0.0
C124 C 0.64314 0.55756 0.52039 0.0
C125 C 0.63386 0.52005 0.54034 0.0
C126 C 0.70203 0.56845 0.53318 0.0
C127 C 0.68582 0.57792 0.52202 0.0
O128 O 0.56563 0.52631 0.54444 0.0
O129 O 0.49054 0.44629 0.52121 0.0
O130 O 0.46387 0.45473 0.50212 0.0
O131 O 0.50131 0.51094 0.51595 0.0
O132 O 0.51091 0.45578 0.54051 0.0
O133 O 0.53461 0.5451 0.53053 0.0
O134 O 0.49744 0.37553 0.48923 0.0
O135 O 0.55366 0.46879 0.50819 0.0
O136 O 0.56237 0.45181 0.53194 0.0
O137 O 0.51329 0.39417 0.52047 0.0
O138 O 0.5562 0.4349 0.4933 0.0
O139 O 0.46601 0.35586 0.50833 0.0
C140 C 0.4799 0.43276 0.53316 0.0
C141 C 0.51507 0.53866 0.5535 0.0
C142 C 0.47007 0.55944 0.56431 0.0
C143 C 0.49669 0.56292 0.55375 0.0
C144 C 0.45968 0.52857 0.57402 0.0
C145 C 0.50449 0.5085 0.56343 0.0
C146 C 0.47632 0.50301 0.57341 0.0
C147 C 0.47032 0.48984 0.50749 0.0
C148 C 0.5457 0.54574 0.543 0.0
C149 C 0.71093 0.60651 0.51235 0.0
C150 C 0.69367 0.61421 0.50106 0.0
C151 C 0.57916 0.46466 0.50103 0.0
C152 C 0.44093 0.30805 0.48985 0.0
C153 C 0.44922 0.29091 0.47833 0.0
C154 C 0.41811 0.25479 0.47233 0.0
C155 C 0.37854 0.23738 0.4777 0.0
C156 C 0.40127 0.28855 0.49515 0.0
C157 C 0.37032 0.25409 0.48896 0.0
C158 C 0.54261 0.41183 0.52966 0.0
C159 C 0.4741 0.34437 0.49681 0.0
H160 H 0.50416 0.58514 0.5458 0.0
H161 H 0.44008 0.52491 0.58247 0.0
H162 H 0.51816 0.48929 0.56362 0.0
H163 H 0.46837 0.4797 0.58101 0.0
H164 H 0.47992 0.30475 0.47437 0.0
H165 H 0.35376 0.21034 0.47323 0.0
H166 H 0.39404 0.29942 0.50422 0.0
H167 H 0.33981 0.23976 0.49308 0.0
Tb168 Tb 0.07763 0.5292 0.6921 0.0
C169 C 1.04902 0.40235 0.65111 0.0
C170 C 1.03197 0.33953 0.66271 0.0
C171 C 1.00848 0.33771 0.63976 0.0
C172 C 1.05102 0.38228 0.66249 0.0
C173 C 1.02749 0.38037 0.63965 0.0
C174 C 1.01066 0.31733 0.65127 0.0
C175 C 1.04334 0.44431 0.62921 0.0
N176 N 0.06618 0.44355 0.65171 0.0
C177 C 0.06424 0.46481 0.64086 0.0
C178 C 1.02493 0.40195 0.62858 0.0
Tb179 Tb 0.10497 0.47364 0.67041 0.0
N180 N 0.07207 0.40488 0.67331 0.0
C181 C 0.07731 0.38666 0.6844 0.0
C182 C 1.03544 0.32054 0.67435 0.0
C183 C 0.05842 0.34425 0.68521 0.0
H184 H 0.07875 0.49753 0.64113 0.0
H185 H 0.06212 0.32992 0.69413 0.0
H186 H 0.99583 0.28442 0.65123 0.0
H187 H 1.0416 0.46123 0.62068 0.0
H188 H 0.09652 0.4049 0.69257 0.0
H189 H 1.02985 0.55318 0.64238 0.0
H190 H 1.02118 0.28772 0.67495 0.0
H191 H 0.1522 0.59918 0.71097 0.0
H192 H 1.04719 0.51693 0.65891 0.0
H193 H 0.18618 0.67273 0.71432 0.0
H194 H 0.99173 0.3202 0.63105 0.0
H195 H 1.04746 0.62431 0.6466 0.0
H196 H 0.08548 0.68678 0.66076 0.0
H197 H 1.00862 0.38621 0.61957 0.0
H198 H 0.1307 0.7202 0.68004 0.0
N199 N 0.06668 0.56268 0.67411 0.0
C200 C 1.05134 0.54596 0.66173 0.0
C201 C 1.05312 0.60747 0.65432 0.0
C202 C 0.07395 0.62642 0.66611 0.0
C203 C 1.04296 0.56734 0.65194 0.0
C204 C 0.08069 0.60304 0.67581 0.0
H205 H 0.16973 0.71545 0.69971 0.0
N206 N 0.11587 0.59876 0.69439 0.0
C207 C 0.16378 0.65886 0.70641 0.0
C208 C 0.1066 0.62188 0.68636 0.0
C209 C 0.14423 0.61682 0.70439 0.0
C210 C 0.15429 0.68283 0.6982 0.0
C211 C 0.12569 0.6645 0.68793 0.0
O212 O 0.0894 0.53498 0.71275 0.0
O213 O 0.08009 0.47358 0.69023 0.0
O214 O 1.03671 0.44849 0.66816 0.0
O215 O 1.01828 0.48833 0.68135 0.0
O216 O 1.02957 0.47036 0.69903 0.0
O217 O 1.04186 0.54419 0.70466 0.0
O218 O 0.14656 0.48504 0.65438 0.0
O219 O 0.12219 0.53394 0.67807 0.0
O220 O 0.13583 0.53511 0.69973 0.0
O221 O 0.14084 0.4829 0.68906 0.0
O222 O 0.13067 0.53167 0.65839 0.0
O223 O 0.14866 0.45493 0.67235 0.0
C224 C 1.04648 0.44919 0.69599 0.0
C225 C 1.03165 0.51293 0.72642 0.0
C226 C 0.96598 0.47998 0.73806 0.0
C227 C 0.99084 0.50327 0.72723 0.0
C228 C 0.98236 0.465 0.74777 0.0
C229 C 1.04726 0.49772 0.7363 0.0
C230 C 1.02259 0.47358 0.74679 0.0
C231 C 1.00834 0.45664 0.67301 0.0
C232 C 0.05852 0.53968 0.71558 0.0
C233 C 0.11665 0.68752 0.67893 0.0
C234 C 0.09076 0.66847 0.66801 0.0
C235 C 0.13667 0.55687 0.66796 0.0
C236 C 0.16744 0.4352 0.6519 0.0
C237 C 0.19624 0.44719 0.64121 0.0
C238 C 0.20185 0.41771 0.63415 0.0
C239 C 0.17728 0.37647 0.63753 0.0
C240 C 0.14462 0.39367 0.65519 0.0
C241 C 0.14895 0.36465 0.64792 0.0
C242 C 0.15298 0.51185 0.69841 0.0
C243 C 0.16281 0.4657 0.66016 0.0
H244 H 0.97865 0.51429 0.71947 0.0
H245 H 0.96469 0.4477 0.75639 0.0
H246 H 0.07867 0.50466 0.73599 0.0
H247 H 1.03498 0.46221 0.75437 0.0
H248 H 0.21504 0.47912 0.63875 0.0
H249 H 0.1805 0.35323 0.63222 0.0
H250 H 0.12388 0.38332 0.66358 0.0
H251 H 0.13082 0.33281 0.65056 0.0
Tb252 Tb 0.58849 0.05943 0.86192 0.0
C253 C 0.6866 1.03096 0.82061 0.0
C254 C 0.73283 1.01346 0.83172 0.0
C255 C 0.71053 0.99066 0.80877 0.0
C256 C 0.70912 1.03266 0.83181 0.0
C257 C 0.68669 1.00963 0.809 0.0
C258 C 0.7335 0.99251 0.82012 0.0
C259 C 0.63788 1.0255 0.79911 0.0
N260 N 0.66237 0.04803 0.82153 0.0
C261 C 0.63864 0.04619 0.81089 0.0
C262 C 0.66202 1.00719 0.79814 0.0
Tb263 Tb 0.67169 0.08644 0.84043 0.0
N264 N 0.70757 0.05314 0.84283 0.0
C265 C 0.731 0.05764 0.85383 0.0
C266 C 0.75533 1.0162 0.84325 0.0
C267 C 0.75454 0.03856 0.85434 0.0
H268 H 0.62032 0.06067 0.81137 0.0
H269 H 0.77265 0.04176 0.86317 0.0
H270 H 0.75161 0.97759 0.81983 0.0
H271 H 0.61881 1.02387 0.79074 0.0
H272 H 0.73226 0.07676 0.8621 0.0
H273 H 0.5192 1.01133 0.81196 0.0
H274 H 0.77391 1.0018 0.84361 0.0
H275 H 0.59185 0.13382 0.88073 0.0
H276 H 0.57136 1.0277 0.82886 0.0
H277 H 0.55277 0.16881 0.88359 0.0
H278 H 0.71106 0.9741 0.79994 0.0
H279 H 0.46655 1.03075 0.81557 0.0
H280 H 0.44215 0.06995 0.82929 0.0
H281 H 0.66115 0.99103 0.78903 0.0
H282 H 0.45305 0.11536 0.84846 0.0
N283 N 0.54521 0.04876 0.84366 0.0
C284 C 0.54687 1.03279 0.83142 0.0
C285 C 0.48843 1.03607 0.82346 0.0
C286 C 0.48996 0.0573 0.83513 0.0
C287 C 0.51791 1.02489 0.82142 0.0
C288 C 0.51929 0.06359 0.84505 0.0
H289 H 0.49526 0.15363 0.86842 0.0
N290 N 0.55744 0.09829 0.86387 0.0
C291 C 0.54478 0.14655 0.87565 0.0
C292 C 0.52588 0.08962 0.85555 0.0
C293 C 0.56702 0.12644 0.87391 0.0
C294 C 0.51225 0.13777 0.86713 0.0
C295 C 0.50263 0.10928 0.85684 0.0
O296 O 0.59214 0.07023 0.88264 0.0
O297 O 0.64654 0.0618 0.86018 0.0
O298 O 0.62956 1.01791 0.83843 0.0
O299 O 0.57095 0.99984 0.85135 0.0
O300 O 0.60005 1.01195 0.86934 0.0
O301 O 0.53656 1.02345 0.87388 0.0
O302 O 0.70256 0.12835 0.82457 0.0
O303 O 0.62853 0.10414 0.84796 0.0
O304 O 0.64039 0.11773 0.86964 0.0
O305 O 0.6974 0.12116 0.85933 0.0
O306 O 0.64014 0.11306 0.82836 0.0
O307 O 0.73375 0.12969 0.84268 0.0
C308 C 0.63794 1.02875 0.86624 0.0
C309 C 0.5555 1.01052 0.89543 0.0
C310 C 0.51869 0.94557 0.90723 0.0
C311 C 0.51967 0.97353 0.89768 0.0
C312 C 0.55403 0.95506 0.91456 0.0
C313 C 0.59045 1.01963 0.90302 0.0
C314 C 0.5896 0.99198 0.91248 0.0
C315 C 0.5931 0.98961 0.84323 0.0
C316 C 0.55656 0.03906 0.88504 0.0
C317 C 0.47144 0.10084 0.84758 0.0
C318 C 0.4651 0.07484 0.83672 0.0
C319 C 0.62059 0.11912 0.83783 0.0
C320 C 0.77323 0.14904 0.82243 0.0
C321 C 0.78918 0.17695 0.81149 0.0
C322 C 0.82479 0.18324 0.80462 0.0
C323 C 0.84312 0.16044 0.80851 0.0
C324 C 0.79322 0.12757 0.82611 0.0
C325 C 0.82734 0.13278 0.8191 0.0
C326 C 0.68073 0.13423 0.8685 0.0
C327 C 0.73771 0.14418 0.83053 0.0
H328 H 0.49272 0.96622 0.89184 0.0
H329 H 0.55397 0.93424 0.92207 0.0
H330 H 0.6186 0.048 0.90163 0.0
H331 H 0.61656 0.99931 0.91826 0.0
H332 H 0.77488 0.19454 0.80865 0.0
H333 H 0.87013 0.16435 0.80337 0.0
H334 H 0.78318 0.10723 0.83462 0.0
H335 H 0.84214 0.1158 0.82208 0.0
Tb336 Tb 0.56898 0.5784 0.02943 0.0
C337 C 0.65861 0.65351 0.97929 0.0
C338 C 0.73189 0.69599 0.98145 0.0
C339 C 0.70256 0.66289 0.96011 0.0
C340 C 0.69248 0.67881 0.98695 0.0
C341 C 0.66344 0.64456 0.96586 0.0
C342 C 0.7367 0.68861 0.96788 0.0
C343 C 0.59112 0.59774 0.96512 0.0
N344 N 0.62131 0.63577 0.98532 0.0
C345 C 0.58779 0.60761 0.97848 0.0
C346 C 0.62898 0.61662 0.95873 0.0
Tb347 Tb 0.62095 0.65967 0.00655 0.0
N348 N 0.68671 0.68348 1.00021 0.0
C349 C 0.71898 0.70522 0.00856 0.0
C350 C 0.76521 0.71894 0.98988 0.0
C351 C 0.75873 0.72329 0.00352 0.0
H352 H 0.55823 0.59239 0.98313 0.0
H353 H 0.7843 0.74077 0.01012 0.0
H354 H 0.76673 0.70175 0.96341 0.0
H355 H 0.56438 0.57554 0.95976 0.0
H356 H 0.71388 0.70926 0.01903 0.0
H357 H 0.53937 0.49975 0.98147 0.0
H358 H 0.79603 0.73274 0.98603 0.0
H359 H 0.50515 0.57876 0.05266 0.0
H360 H 0.58146 0.54798 0.9987 0.0
H361 H 0.43138 0.54654 0.05624 0.0
H362 H 0.70683 0.65664 0.94976 0.0
H363 H 0.4647 0.46065 0.98418 0.0
H364 H 0.40312 0.44599 0.99781 0.0
H365 H 0.63139 0.6088 0.94839 0.0
H366 H 0.37371 0.45957 0.01792 0.0
N367 N 0.53225 0.53562 0.01199 0.0
C368 C 0.54941 0.53045 1.00055 0.0
C369 C 0.48327 0.48133 0.99205 0.0
C370 C 0.4656 0.48708 0.0036 0.0
C371 C 0.52537 0.50327 0.9905 0.0
C372 C 0.49121 0.51454 0.01353 0.0
H373 H 0.38392 0.49739 0.0396 0.0
N374 N 0.50038 0.55025 0.0337 0.0
C375 C 0.44309 0.53961 0.04727 0.0
C376 C 0.47471 0.52223 0.02476 0.0
C377 C 0.48504 0.55834 0.04507 0.0
C378 C 0.41644 0.51172 0.03791 0.0
C379 C 0.43208 0.50255 0.02652 0.0
O380 O 0.55427 0.55308 0.04882 0.0
O381 O 0.62719 0.63154 0.02493 0.0
O382 O 0.65484 0.62432 0.00653 0.0
O383 O 0.61641 0.56678 0.01973 0.0
O384 O 0.60891 0.62255 0.04437 0.0
O385 O 0.58042 0.53069 0.03424 0.0
O386 O 0.62131 0.70358 0.99341 0.0
O387 O 0.56285 0.60916 0.01243 0.0
O388 O 0.55602 0.62644 0.03635 0.0
O389 O 0.60426 0.68354 0.02438 0.0
O390 O 0.5603 0.64414 0.99788 0.0
O391 O 0.65193 0.72111 0.01264 0.0
C392 C 0.63916 0.64563 0.03672 0.0
C393 C 0.60135 0.53446 0.05694 0.0
C394 C 0.63847 0.50486 0.06793 0.0
C395 C 0.61217 0.5041 0.05772 0.0
C396 C 0.65592 0.53827 0.07679 0.0
C397 C 0.61871 0.56711 0.06608 0.0
C398 C 0.64644 0.56932 0.07573 0.0
C399 C 0.64811 0.58863 0.01152 0.0
C400 C 0.57093 0.53071 0.04687 0.0
C401 C 0.40648 0.47484 0.01677 0.0
C402 C 0.42322 0.46708 0.00534 0.0
C403 C 0.53722 0.61447 0.00569 0.0
C404 C 0.67843 0.7706 0.99462 0.0
C405 C 0.67115 0.78783 0.98294 0.0
C406 C 0.70243 0.82451 0.97726 0.0
C407 C 0.74131 0.84254 0.98315 0.0
C408 C 0.71735 0.7906 1.00043 0.0
C409 C 0.74859 0.82573 0.99459 0.0
C410 C 0.57551 0.66632 0.03381 0.0
C411 C 0.6447 0.73388 0.00125 0.0
H412 H 0.59916 0.4794 0.05052 0.0
H413 H 0.67569 0.53987 0.08492 0.0
H414 H 0.61056 0.5907 0.066 0.0
H415 H 0.65967 0.5946 0.08271 0.0
H416 H 0.64093 0.7736 0.9786 0.0
H417 H 0.76624 0.87005 0.97894 0.0
H418 H 0.72375 0.77955 0.00964 0.0
H419 H 0.77854 0.84047 0.9991 0.0
Tb420 Tb 1.02858 0.54871 0.19569 0.0
C421 C 1.04437 0.63729 0.14502 0.0
C422 C 0.0767 0.71074 0.14712 0.0
C423 C 0.07927 0.68055 0.12577 0.0
C424 C 1.05363 0.67151 0.15264 0.0
C425 C 0.05802 0.64157 0.13158 0.0
C426 C 0.08857 0.71505 0.13352 0.0
C427 C 1.03202 0.56905 0.13105 0.0
N428 N 1.02469 0.60018 0.15115 0.0
C429 C 1.01911 0.5663 0.14443 0.0
C430 C 1.05107 0.60673 0.12454 0.0
Tb431 Tb 1.00056 0.60075 0.17233 0.0
N432 N 1.04358 0.66612 0.16594 0.0
C433 C 0.0555 0.69863 0.17432 0.0
C434 C 0.08856 0.74434 0.15559 0.0
C435 C 0.07825 0.73824 0.16928 0.0
H436 H 1.00478 0.5369 0.1492 0.0
H437 H 0.08746 0.76401 0.17591 0.0
H438 H 0.10605 0.74495 0.12903 0.0
H439 H 1.02726 0.54204 0.12577 0.0
H440 H 1.04647 0.69386 0.1848 0.0
H441 H 0.07834 0.51666 0.14825 0.0
H442 H 0.10636 0.77504 0.15174 0.0
H443 H 0.96463 0.48654 0.21917 0.0
H444 H 0.0724 0.55976 0.16529 0.0
H445 H 0.92312 0.41293 0.2231 0.0
H446 H 0.08967 0.68441 0.11541 0.0
H447 H 1.04223 0.44203 0.1512 0.0
H448 H 0.995 0.38116 0.16501 0.0
H449 H 0.06117 0.60871 0.1142 0.0
H450 H 0.95201 0.35292 0.18516 0.0
N451 N 1.03492 0.5111 0.17859 0.0
C452 C 0.05754 0.52771 0.16718 0.0
C453 C 1.04016 0.46105 0.15896 0.0
C454 C 1.01659 0.44398 0.17051 0.0
C455 C 0.0606 0.50311 0.15727 0.0
C456 C 1.01479 0.47013 0.18029 0.0
H457 H 0.92461 0.36446 0.20674 0.0
N458 N 0.98837 0.4805 0.20033 0.0
C459 C 0.94175 0.42409 0.21412 0.0
C460 C 0.99059 0.45429 0.19154 0.0
C461 C 0.96504 0.46591 0.21174 0.0
C462 C 0.94284 0.39686 0.20491 0.0
C463 C 0.96758 0.41179 0.19348 0.0
O464 O 1.03904 0.53561 0.21532 0.0
O465 O 1.03408 0.60729 0.191 0.0
O466 O 0.06954 0.63264 0.17193 0.0
O467 O 0.08785 0.59624 0.1865 0.0
O468 O 1.02328 0.5884 0.2105 0.0
O469 O 0.08702 0.55865 0.20053 0.0
O470 O 0.9571 0.60034 0.15898 0.0
O471 O 0.99283 0.54262 0.17843 0.0
O472 O 0.96718 0.5355 0.20194 0.0
O473 O 0.9598 0.58504 0.19012 0.0
O474 O 0.95523 0.53996 0.16392 0.0
O475 O 0.97112 0.63369 0.17768 0.0
C476 C 1.03104 0.61881 0.20281 0.0
C477 C 0.10477 0.58401 0.22277 0.0
C478 C 0.1731 0.62758 0.23185 0.0
C479 C 0.14688 0.59926 0.22222 0.0
C480 C 0.15626 0.64252 0.24144 0.0
C481 C 0.0889 0.59942 0.23249 0.0
C482 C 0.11467 0.62903 0.24157 0.0
C483 C 0.0981 0.62671 0.17773 0.0
C484 C 0.0779 0.55167 0.21329 0.0
C485 C 0.96957 0.38562 0.18388 0.0
C486 C 0.99407 0.40169 0.17242 0.0
C487 C 0.96181 0.51695 0.17181 0.0
C488 C 0.94877 0.65874 0.15898 0.0
C489 C 0.92285 0.65039 0.14761 0.0
C490 C 0.91932 0.68198 0.14112 0.0
C491 C 0.94362 0.722 0.14585 0.0
C492 C 0.97063 0.69888 0.16372 0.0
C493 C 0.96873 0.73022 0.15703 0.0
C494 C 0.94741 0.55568 0.19937 0.0
C495 C 0.95092 0.62532 0.16631 0.0
H496 H 0.15875 0.58815 0.21439 0.0
H497 H 0.17463 0.6635 0.24925 0.0
H498 H 0.05658 0.58843 0.23324 0.0
H499 H 0.10216 0.64064 0.24904 0.0
H500 H 0.90458 0.61934 0.14415 0.0
H501 H 0.94299 0.74726 0.14096 0.0
H502 H 0.98895 0.70625 0.17272 0.0
H503 H 0.98641 0.76111 0.16068 0.0
Tb504 Tb 0.08489 0.57384 0.4727 0.0
C505 C 0.06698 0.64347 0.52403 0.0
C506 C 1.03517 0.68535 0.522 0.0
C507 C 1.03123 0.65122 0.54319 0.0
C508 C 0.0583 0.66909 0.51649 0.0
C509 C 1.05256 0.63344 0.53737 0.0
C510 C 1.02258 0.67715 0.53552 0.0
C511 C 0.07774 0.58604 0.53775 0.0
N512 N 0.08676 0.62603 0.51789 0.0
C513 C 0.0914 0.59685 0.52447 0.0
C514 C 0.05876 0.60479 0.5443 0.0
Tb515 Tb 0.11199 0.65166 0.49689 0.0
N516 N 0.06902 0.6744 0.50325 0.0
C517 C 0.05784 0.69586 0.49493 0.0
C518 C 1.024 0.70791 0.5136 0.0
C519 C 1.03507 0.71286 0.49998 0.0
H520 H 0.10548 0.58151 0.51965 0.0
H521 H 1.02646 0.73012 0.4934 0.0
H522 H 1.00504 0.68963 0.54001 0.0
H523 H 0.08181 0.56313 0.54292 0.0
H524 H 0.06754 0.70078 0.48453 0.0
H525 H 1.0325 0.48807 0.51938 0.0
H526 H 1.00619 0.72094 0.51745 0.0
H527 H 0.14967 0.57641 0.44933 0.0
H528 H 1.04031 0.53928 0.50297 0.0
H529 H 0.19069 0.54366 0.44508 0.0
H530 H 1.02025 0.64417 0.55348 0.0
H531 H 0.06712 0.44808 0.51586 0.0
H532 H 0.11414 0.43438 0.50185 0.0
H533 H 1.04805 0.59614 0.55456 0.0
H534 H 0.15817 0.45042 0.4819 0.0
N535 N 0.07699 0.52776 0.48932 0.0
C536 C 1.05435 0.52142 0.50076 0.0
C537 C 0.06991 0.4701 0.50834 0.0
C538 C 0.09379 0.47713 0.49682 0.0
C539 C 1.0503 0.49254 0.51034 0.0
C540 C 0.09656 0.50632 0.48737 0.0
H541 H 0.1874 0.49151 0.46085 0.0
N542 N 0.12465 0.54509 0.46783 0.0
C543 C 0.17157 0.5356 0.45396 0.0
C544 C 0.12139 0.51543 0.47625 0.0
C545 C 0.14862 0.55456 0.45654 0.0
C546 C 0.16944 0.50603 0.46282 0.0
C547 C 0.144 0.49543 0.4741 0.0
O548 O 0.07613 0.55328 0.45271 0.0
O549 O 0.07932 0.62667 0.478 0.0
O550 O 1.04322 0.61502 0.49695 0.0
O551 O 1.02549 0.56157 0.48191 0.0
O552 O 0.09242 0.62128 0.45858 0.0
O553 O 1.02653 0.52745 0.46681 0.0
O554 O 0.15474 0.69376 0.51055 0.0
O555 O 0.11927 0.60142 0.49036 0.0
O556 O 0.14701 0.62152 0.46719 0.0
O557 O 0.15432 0.6775 0.47951 0.0
O558 O 0.15592 0.63417 0.50539 0.0
O559 O 0.14212 0.71389 0.49171 0.0
C560 C 0.08358 0.64282 0.46642 0.0
C561 C 1.01157 0.53743 0.44441 0.0
C562 C 0.94606 0.51302 0.43333 0.0
C563 C 0.97076 0.50751 0.44272 0.0
C564 C 0.96214 0.54953 0.42601 0.0
C565 C 1.02751 0.57312 0.43655 0.0
C566 C 1.00269 0.57935 0.42763 0.0
C567 C 1.01503 0.58111 0.49092 0.0
C568 C 1.03711 0.53061 0.45417 0.0
C569 C 0.14094 0.46596 0.48335 0.0
C570 C 0.11583 0.45679 0.49469 0.0
C571 C 0.14935 0.60528 0.49722 0.0
C572 C 0.16401 0.76088 0.51041 0.0
C573 C 0.1896 0.77804 0.52185 0.0
C574 C 0.19394 0.81378 0.52805 0.0
C575 C 0.17088 0.83068 0.52298 0.0
C576 C 0.14311 0.78004 0.50537 0.0
C577 C 0.14586 0.81401 0.51178 0.0
C578 C 0.16702 0.66105 0.47015 0.0
C579 C 0.16167 0.72512 0.5032 0.0
H580 H 0.95845 0.47958 0.44852 0.0
H581 H 0.94391 0.55428 0.41861 0.0
H582 H 0.0592 0.59612 0.43705 0.0
H583 H 1.01522 0.60696 0.42169 0.0
H584 H 0.20713 0.76456 0.52557 0.0
H585 H 0.17253 0.85735 0.52762 0.0
H586 H 0.12501 0.76932 0.49632 0.0
H587 H 0.12906 0.82803 0.50788 0.0
Tb588 Tb 0.54304 0.06131 0.63905 0.0
C589 C 0.45473 0.04721 0.6897 0.0
C590 C 0.38114 1.01329 0.68772 0.0
C591 C 0.41209 1.01313 0.70917 0.0
C592 C 0.42021 1.03666 0.68209 0.0
C593 C 0.45092 1.03459 0.70325 0.0
C594 C 0.37727 1.00252 0.70142 0.0
C595 C 0.52362 0.06166 0.7037 0.0
N596 N 0.49171 0.06704 0.68349 0.0
C597 C 0.5259 0.0735 0.69022 0.0
C598 C 0.4861 0.04264 0.71031 0.0
Tb599 Tb 0.49026 0.08943 0.66208 0.0
N600 N 0.42521 0.04571 0.66871 0.0
C601 C 0.39242 1.03234 0.66036 0.0
C602 C 0.34728 0.99998 0.67927 0.0
C603 C 0.35298 1.00917 0.66551 0.0
H604 H 0.55519 0.08766 0.68538 0.0
H605 H 0.327 0.99883 0.65889 0.0
H606 H 0.3475 0.98486 0.706 0.0
H607 H 0.55089 0.06716 0.70898 0.0
H608 H 0.39683 0.04054 0.64982 0.0
H609 H 0.57441 1.01313 0.68689 0.0
H610 H 0.3167 0.98189 0.68321 0.0
H611 H 0.60553 0.12471 0.61552 0.0
H612 H 0.53152 1.01842 0.66961 0.0
H613 H 0.67923 0.16634 0.61172 0.0
H614 H 0.40861 1.00353 0.71961 0.0
H615 H 0.64913 0.04939 0.6841 0.0
H616 H 0.71023 0.0964 0.67033 0.0
H617 H 0.48449 1.03335 0.72073 0.0
H618 H 0.73876 0.13886 0.65008 0.0
N619 N 0.58043 0.05563 0.65636 0.0
C620 C 0.56363 1.03331 0.6678 0.0
C621 C 0.63022 0.05116 0.67624 0.0
C622 C 0.64746 0.07443 0.66464 0.0
C623 C 0.5881 1.03064 0.67784 0.0
C624 C 0.62143 0.07585 0.65474 0.0
H625 H 0.7275 0.16555 0.62831 0.0
N626 N 0.61132 0.10162 0.63451 0.0
C627 C 0.66794 0.14797 0.62074 0.0
C628 C 0.63744 0.09976 0.64344 0.0
C629 C 0.62607 0.12462 0.62305 0.0
C630 C 0.69506 0.14727 0.63008 0.0
C631 C 0.67998 0.12284 0.64158 0.0
O632 O 0.55636 0.0504 0.6195 0.0
O633 O 0.48431 0.05564 0.64357 0.0
O634 O 0.45896 1.0205 0.66276 0.0
O635 O 0.49532 1.00206 0.64822 0.0
O636 O 0.50333 0.06589 0.62406 0.0
O637 O 0.53385 1.003 0.63449 0.0
O638 O 0.48965 0.13351 0.67487 0.0
O639 O 0.54867 0.09736 0.65619 0.0
O640 O 0.55609 0.12243 0.63251 0.0
O641 O 0.5064 0.12993 0.64421 0.0
O642 O 0.55084 0.13573 0.67036 0.0
O643 O 0.45598 0.11704 0.65622 0.0
C644 C 0.4729 0.05838 0.63172 0.0
C645 C 0.50806 0.98428 0.61234 0.0
C646 C 0.46352 0.91536 0.60388 0.0
C647 C 0.49224 0.94216 0.6133 0.0
C648 C 0.44882 0.93176 0.59404 0.0
C649 C 0.49286 0.99968 0.60239 0.0
C650 C 0.46289 0.97342 0.5935 0.0
C651 C 0.46485 0.99188 0.657 0.0
C652 C 0.54056 1.01166 0.62169 0.0
C653 C 0.70603 0.12124 0.65131 0.0
C654 C 0.6898 0.09703 0.66282 0.0
C655 C 0.5741 0.12892 0.66266 0.0
C656 C 0.43012 0.13969 0.67459 0.0
C657 C 0.43805 0.16672 0.68559 0.0
C658 C 0.40581 0.16842 0.69238 0.0
C659 C 0.36566 0.14102 0.6883 0.0
C660 C 0.3898 0.1155 0.67027 0.0
C661 C 0.35791 0.1154 0.67729 0.0
C662 C 0.53581 0.14217 0.63497 0.0
C663 C 0.46404 0.13822 0.66737 0.0
H664 H 0.50318 0.93073 0.62132 0.0
H665 H 0.42757 0.91296 0.58636 0.0
H666 H 0.50422 1.03199 0.60134 0.0
H667 H 0.45143 0.98556 0.58586 0.0
H668 H 0.46925 0.187 0.68854 0.0
H669 H 0.3398 0.13942 0.69353 0.0
H670 H 0.38265 0.09665 0.66142 0.0
H671 H 0.32688 0.09557 0.67407 0.0
Tb672 Tb 0.52116 0.52573 0.80633 0.0
C673 C 0.42082 0.39849 0.84681 0.0
C674 C 0.37465 0.33621 0.83516 0.0
C675 C 0.39537 0.3335 0.85819 0.0
C676 C 0.39889 0.37887 0.83539 0.0
C677 C 0.41967 0.37609 0.8583 0.0
C678 C 0.37295 0.31361 0.84664 0.0
C679 C 0.46826 0.43942 0.86878 0.0
N680 N 0.44544 0.4396 0.84624 0.0
C681 C 0.46853 0.46036 0.85711 0.0
C682 C 0.44371 0.39714 0.86939 0.0
Tb683 Tb 0.43761 0.47043 0.82752 0.0
N684 N 0.40139 0.40182 0.82451 0.0
C685 C 0.37851 0.38413 0.81332 0.0
C686 C 0.35257 0.31769 0.82346 0.0
C687 C 0.35434 0.34179 0.81252 0.0
H688 H 0.48711 0.49303 0.85687 0.0
H689 H 0.33665 0.32784 0.80354 0.0
H690 H 0.35442 0.28076 0.84668 0.0
H691 H 0.48683 0.45594 0.87733 0.0
H692 H 0.3783 0.40272 0.80509 0.0
H693 H 0.58969 0.54659 0.85645 0.0
H694 H 0.33358 0.28495 0.82286 0.0
H695 H 0.51748 0.59629 0.78732 0.0
H696 H 0.53797 0.51088 0.83947 0.0
H697 H 0.55585 0.67013 0.78453 0.0
H698 H 0.39402 0.31567 0.86692 0.0
H699 H 0.64166 0.61854 0.85293 0.0
H700 H 0.66549 0.68196 0.83926 0.0
H701 H 0.44375 0.38106 0.87842 0.0
H702 H 0.65444 0.71634 0.82003 0.0
N703 N 0.56389 0.55806 0.82469 0.0
C704 C 0.56227 0.54041 0.83693 0.0
C705 C 0.62002 0.60203 0.84501 0.0
C706 C 0.61839 0.6217 0.83333 0.0
C707 C 0.59094 0.56144 0.84699 0.0
C708 C 0.58939 0.59872 0.82334 0.0
H709 H 0.6126 0.71237 0.79992 0.0
N710 N 0.55146 0.5953 0.80439 0.0
C711 C 0.5638 0.65594 0.79254 0.0
C712 C 0.5827 0.6181 0.8128 0.0
C713 C 0.54193 0.61374 0.79425 0.0
C714 C 0.5959 0.67964 0.80119 0.0
C715 C 0.60554 0.66086 0.81154 0.0
O716 O 0.51788 0.53235 0.78555 0.0
O717 O 0.46301 0.47064 0.80779 0.0
O718 O 0.47964 0.4436 0.82976 0.0
O719 O 0.53853 0.48355 0.81697 0.0
O720 O 0.50984 0.46672 0.79914 0.0
O721 O 0.57385 0.5428 0.79466 0.0
O722 O 0.40638 0.48051 0.84354 0.0
O723 O 0.48093 0.53107 0.82012 0.0
O724 O 0.46961 0.53203 0.79808 0.0
O725 O 0.41198 0.48099 0.80886 0.0
O726 O 0.46929 0.52796 0.83975 0.0
O727 O 0.37584 0.45298 0.82513 0.0
C728 C 0.47168 0.44584 0.80196 0.0
C729 C 0.55768 0.51351 0.77258 0.0
C730 C 0.59254 0.48052 0.76226 0.0
C731 C 0.58722 0.50147 0.77311 0.0
C732 C 0.56606 0.4699 0.75114 0.0
C733 C 0.53175 0.50257 0.76135 0.0
C734 C 0.53561 0.48042 0.75082 0.0
C735 C 0.51619 0.45139 0.82508 0.0
C736 C 0.55434 0.53857 0.78338 0.0
C737 C 0.63638 0.68355 0.82088 0.0
C738 C 0.64281 0.66396 0.83178 0.0
C739 C 0.48877 0.55365 0.83032 0.0
C740 C 0.33554 0.43109 0.84517 0.0
C741 C 0.31925 0.44191 0.85631 0.0
C742 C 0.28332 0.41216 0.86286 0.0
C743 C 0.26519 0.37161 0.85848 0.0
C744 C 0.31551 0.3903 0.84092 0.0
C745 C 0.28123 0.36086 0.84765 0.0
C746 C 0.42927 0.5097 0.79943 0.0
C747 C 0.37145 0.46228 0.83741 0.0
H748 H 0.60635 0.50895 0.78195 0.0
H749 H 0.56948 0.45466 0.74244 0.0
H750 H 0.50862 0.51141 0.76066 0.0
H751 H 0.51559 0.47228 0.74219 0.0
H752 H 0.33352 0.47333 0.85955 0.0
H753 H 0.23812 0.34808 0.8634 0.0
H754 H 0.32564 0.38093 0.8322 0.0
H755 H 0.26651 0.32959 0.84427 0.0
Tb756 Tb 1.0314 0.50811 0.97517 0.0
C757 C 0.06129 0.41056 0.01659 0.0
C758 C 0.07878 0.3644 0.00543 0.0
C759 C 0.10187 0.38685 0.02834 0.0
C760 C 0.05951 0.38805 0.00538 0.0
C761 C 0.08278 0.41059 0.02816 0.0
C762 C 0.09993 0.36385 0.017 0.0
C763 C 0.06687 0.45933 0.0381 0.0
N764 N 1.04403 0.43462 0.01571 0.0
C765 C 1.04601 0.45845 0.02635 0.0
C766 C 0.08526 0.43526 0.03903 0.0
Tb767 Tb 1.00537 0.42519 0.99688 0.0
N768 N 1.0388 0.38944 0.99441 0.0
C769 C 1.03413 0.36588 0.98342 0.0
C770 C 0.07586 0.34177 0.99391 0.0
C771 C 1.05325 0.34239 0.98288 0.0
H772 H 1.0316 0.47684 0.02586 0.0
H773 H 1.04995 0.32423 0.97405 0.0
H774 H 0.11491 0.34581 0.01726 0.0
H775 H 0.06861 0.47847 0.04646 0.0
H776 H 1.01502 0.36464 0.97515 0.0
H777 H 0.0814 0.58147 0.02452 0.0
H778 H 0.0903 0.32324 0.99353 0.0
H779 H 0.95357 0.50059 0.95722 0.0
H780 H 0.06373 0.52747 0.00822 0.0
H781 H 0.91707 0.53814 0.95436 0.0
H782 H 0.11857 0.38642 0.03715 0.0
H783 H 0.06211 0.63396 0.02036 0.0
H784 H 1.0216 0.65661 0.00656 0.0
H785 H 0.10156 0.43622 0.04811 0.0
H786 H 0.974 0.64285 0.98784 0.0
N787 N 1.04248 0.5526 0.99311 0.0
C788 C 0.05884 0.55192 0.00538 0.0
C789 C 0.05635 0.61133 0.01271 0.0
C790 C 1.03435 0.6086 0.00111 0.0
C791 C 0.06743 0.58192 0.01506 0.0
C792 C 1.02751 0.57831 0.99149 0.0
H793 H 0.93352 0.59762 0.96871 0.0
N794 N 0.99104 0.5376 0.97336 0.0
C795 C 0.94046 0.54757 0.96198 0.0
C796 C 1.00036 0.5702 0.98124 0.0
C797 C 0.96136 0.52612 0.96375 0.0
C798 C 0.94998 0.58124 0.97003 0.0
C799 C 0.97996 0.59273 0.9799 0.0
O800 O 1.01941 0.50397 0.95451 0.0
O801 O 1.03006 0.45069 0.97721 0.0
O802 O 0.07352 0.46804 0.99894 0.0
O803 O 0.09099 0.52627 0.98584 0.0
O804 O 0.07927 0.4972 0.96772 0.0
O805 O 0.0674 0.55935 0.96293 0.0
O806 O 0.96353 0.39442 0.01277 0.0
O807 O 0.98765 0.46813 0.98929 0.0
O808 O 0.97367 0.45532 0.96753 0.0
O809 O 0.97098 0.3989 0.978 0.0
O810 O 0.97888 0.45691 0.00893 0.0
O811 O 0.96193 0.36329 0.99459 0.0
C812 C 0.06307 0.45957 0.97108 0.0
C813 C 0.07887 0.53874 0.94144 0.0
C814 C 0.14364 0.5737 0.92944 0.0
C815 C 0.11596 0.57408 0.93884 0.0
C816 C 0.13383 0.53745 0.92264 0.0
C817 C 0.0693 0.5029 0.93432 0.0
C818 C 0.09675 0.50234 0.92505 0.0
C819 C 0.10142 0.50456 0.99408 0.0
C820 C 1.05103 0.53901 0.95189 0.0
C821 C 0.98906 0.62498 0.98877 0.0
C822 C 1.0163 0.63295 0.99938 0.0
C823 C 0.97318 0.47654 0.99942 0.0
C824 C 0.94253 0.32369 0.01477 0.0
C825 C 0.9142 0.30742 0.02557 0.0
C826 C 0.90766 0.27165 0.03234 0.0
C827 C 0.93056 0.25338 0.0285 0.0
C828 C 0.96419 0.30387 0.01112 0.0
C829 C 0.95868 0.2695 0.01804 0.0
C830 C 0.95767 0.41509 0.96875 0.0
C831 C 0.94752 0.35932 0.00676 0.0
H832 H 0.12365 0.60169 0.94434 0.0
H833 H 0.15453 0.53642 0.91531 0.0
H834 H 1.04082 0.47508 0.93599 0.0
H835 H 0.08926 0.47456 0.91971 0.0
H836 H 0.89649 0.32162 0.02838 0.0
H837 H 0.92637 0.2262 0.03357 0.0
H838 H 0.9849 0.31419 0.00271 0.0
H839 H 0.97577 0.25479 0.01508 0.0
Tb840 Tb 0.55979 1.01415 0.1438 0.0
C841 C 0.68775 0.04255 0.18437 0.0
C842 C 0.75058 0.06002 0.1727 0.0
C843 C 0.75243 0.08306 0.19571 0.0
C844 C 0.70781 0.04083 0.17295 0.0
C845 C 0.70974 0.06391 0.19586 0.0
C846 C 0.77281 0.08118 0.18415 0.0
C847 C 0.64576 0.04748 0.20641 0.0
N848 N 0.64651 1.02524 0.18382 0.0
C849 C 0.62524 1.02676 0.19474 0.0
C850 C 0.68815 0.06611 0.20699 0.0
Tb851 Tb 0.61639 0.98682 0.16504 0.0
N852 N 0.68519 1.01994 0.16212 0.0
C853 C 0.70343 1.0151 0.15095 0.0
C854 C 0.76959 0.0569 0.161 0.0
C855 C 0.74587 1.03414 0.15011 0.0
H856 H 0.5925 1.01203 0.19452 0.0
H857 H 0.76021 1.03072 0.14114 0.0
H858 H 0.80573 0.09612 0.18417 0.0
H859 H 0.62882 0.0489 0.21499 0.0
H860 H 0.68523 0.99611 0.14274 0.0
H861 H 0.53786 0.06071 0.19402 0.0
H862 H 0.80242 0.07127 0.16037 0.0
H863 H 0.48907 0.94115 0.12481 0.0
H864 H 0.57332 0.04368 0.17708 0.0
H865 H 0.41537 0.90749 0.12173 0.0
H866 H 0.76995 0.09968 0.20444 0.0
H867 H 0.46665 0.04356 0.19022 0.0
H868 H 0.40362 1.00624 0.17626 0.0
H869 H 0.7039 0.08228 0.21602 0.0
H870 H 0.36937 0.96181 0.15689 0.0
N871 N 0.52706 1.02492 0.16209 0.0
C872 C 0.54425 0.03978 0.17445 0.0
C873 C 0.48314 0.03807 0.18233 0.0
C874 C 0.46371 1.01769 0.17054 0.0
C875 C 0.52332 0.04797 0.18447 0.0
C876 C 0.48667 1.01114 0.1606 0.0
H877 H 0.37327 0.92348 0.13685 0.0
N878 N 0.49012 0.97659 0.14172 0.0
C879 C 0.42955 0.92948 0.12974 0.0
C880 C 0.46738 0.98566 0.15001 0.0
C881 C 0.47167 0.94878 0.1316 0.0
C882 C 0.40594 0.93871 0.13823 0.0
C883 C 0.42471 0.96683 0.14861 0.0
O884 O 0.55463 1.00271 0.12309 0.0
O885 O 0.61559 1.01203 0.14543 0.0
O886 O 0.64134 0.055 0.16747 0.0
O887 O 0.60088 0.07339 0.15456 0.0
O888 O 0.61835 0.0624 0.1367 0.0
O889 O 0.54359 0.04902 0.13131 0.0
O890 O 0.605 0.94454 0.18083 0.0
O891 O 0.55586 0.96955 0.1576 0.0
O892 O 0.55284 0.9553 0.13635 0.0
O893 O 0.60769 0.95284 0.14596 0.0
O894 O 0.55846 0.96034 0.1772 0.0
O895 O 0.63527 0.94333 0.16279 0.0
C896 C 0.63971 0.04561 0.13963 0.0
C897 C 0.57476 0.06004 0.1095 0.0
C898 C 0.61617 0.12789 0.09973 0.0
C899 C 0.59347 0.10253 0.11057 0.0
C900 C 0.62176 0.10969 0.08812 0.0
C901 C 0.58085 0.04286 0.09781 0.0
C902 C 0.6047 0.06761 0.0873 0.0
C903 C 0.6329 0.08332 0.16276 0.0
C904 C 0.54866 1.03286 0.12036 0.0
C905 C 0.40209 0.97566 0.15786 0.0
C906 C 0.4216 1.00112 0.16883 0.0
C907 C 0.53309 0.95464 0.16772 0.0
C908 C 0.65505 0.92387 0.18309 0.0
C909 C 0.64315 0.89493 0.19374 0.0
C910 C 0.67271 0.88927 0.20074 0.0
C911 C 0.71393 0.9139 0.19732 0.0
C912 C 0.69658 0.94679 0.1798 0.0
C913 C 0.72566 0.94237 0.18699 0.0
C914 C 0.57754 0.93957 0.13699 0.0
C915 C 0.62449 0.92866 0.17492 0.0
H916 H 0.58987 0.11563 0.11979 0.0
H917 H 0.63804 0.12753 0.0794 0.0
H918 H 0.56699 1.01016 0.09679 0.0
H919 H 0.60907 0.05405 0.0783 0.0
H920 H 0.61123 0.8761 0.19622 0.0
H921 H 0.73725 0.91068 0.20258 0.0
H922 H 0.70688 0.96773 0.17145 0.0
H923 H 0.75751 0.96059 0.18434 0.0
Tb924 Tb 0.59103 0.54177 0.30969 0.0
C925 C 0.67129 0.63839 0.3586 0.0
C926 C 0.7133 0.71101 0.35465 0.0
C927 C 0.68322 0.68615 0.37675 0.0
C928 C 0.69566 0.67058 0.35011 0.0
C929 C 0.66402 0.64596 0.37193 0.0
C930 C 0.70783 0.7186 0.36813 0.0
C931 C 0.61637 0.57411 0.37427 0.0
N932 N 0.65219 0.60005 0.3534 0.0
C933 C 0.62442 0.56809 0.36095 0.0
C934 C 0.63659 0.61309 0.37984 0.0
Tb935 Tb 0.67326 0.59513 0.33218 0.0
N936 N 0.69825 0.66205 0.33696 0.0
C937 C 0.71836 0.69245 0.32779 0.0
C938 C 0.73443 0.74248 0.34534 0.0
C939 C 0.73667 0.73314 0.33183 0.0
H940 H 0.60822 0.5378 0.35687 0.0
H941 H 0.75289 0.75725 0.32457 0.0
H942 H 0.72141 0.74947 0.37187 0.0
H943 H 0.5945 0.54864 0.38023 0.0
H944 H 0.7214 0.6852 0.31749 0.0
H945 H 0.51326 0.51376 0.35787 0.0
H946 H 0.74846 0.77402 0.34842 0.0
H947 H 0.59191 0.47687 0.28702 0.0
H948 H 0.56215 0.555 0.34058 0.0
H949 H 0.55862 0.40305 0.28365 0.0
H950 H 0.67829 0.69255 0.38701 0.0
H951 H 0.47205 0.43927 0.35513 0.0
H952 H 0.45584 0.3773 0.34154 0.0
H953 H 0.63006 0.61761 0.39013 0.0
H954 H 0.46912 0.34711 0.32159 0.0
N955 N 0.54794 0.50563 0.32722 0.0
C956 C 0.54367 0.5231 0.33872 0.0
C957 C 0.493 0.45752 0.34723 0.0
C958 C 0.49812 0.43947 0.33568 0.0
C959 C 0.51615 0.49951 0.3488 0.0
C960 C 0.526 0.46466 0.32572 0.0
H961 H 0.50787 0.35638 0.30015 0.0
N962 N 0.56225 0.47297 0.30571 0.0
C963 C 0.55143 0.41514 0.29246 0.0
C964 C 0.53355 0.44772 0.31459 0.0
C965 C 0.57075 0.45714 0.29455 0.0
C966 C 0.52264 0.38893 0.30173 0.0
C967 C 0.51328 0.40506 0.31295 0.0
O968 O 0.56453 0.5255 0.29052 0.0
O969 O 0.64447 0.60038 0.31371 0.0
O970 O 0.63618 0.62704 0.33282 0.0
O971 O 0.57985 0.58948 0.31905 0.0
O972 O 0.63472 0.58003 0.29439 0.0
O973 O 0.54507 0.5555 0.30463 0.0
O974 O 0.71568 0.59369 0.34558 0.0
O975 O 0.62224 0.53728 0.32672 0.0
O976 O 0.63899 0.52858 0.30297 0.0
O977 O 0.69674 0.57789 0.31433 0.0
O978 O 0.65647 0.53485 0.34152 0.0
O979 O 0.73516 0.62527 0.32651 0.0
C980 C 0.65782 0.61104 0.30173 0.0
C981 C 0.5512 0.57571 0.28175 0.0
C982 C 0.52969 0.62062 0.27132 0.0
C983 C 0.52671 0.59385 0.28175 0.0
C984 C 0.5603 0.63137 0.26148 0.0
C985 C 0.58114 0.58671 0.2717 0.0
C986 C 0.58613 0.61501 0.26184 0.0
C987 C 0.60098 0.6205 0.3275 0.0
C988 C 0.5446 0.5449 0.29211 0.0
C989 C 0.4849 0.37989 0.32266 0.0
C990 C 0.4773 0.39708 0.334 0.0
C991 C 0.62662 0.51183 0.33383 0.0
C992 C 0.78305 0.65041 0.34497 0.0
C993 C 0.80031 0.64219 0.35647 0.0
C994 C 0.83636 0.67338 0.36249 0.0
C995 C 0.85356 0.71295 0.35715 0.0
C996 C 0.80239 0.69008 0.33971 0.0
C997 C 0.83676 0.7211 0.34591 0.0
C998 C 0.67901 0.54851 0.30516 0.0
C999 C 0.74679 0.61719 0.338 0.0
H1000 H 0.50474 0.58609 0.2898 0.0
H1001 H 0.56358 0.65109 0.25311 0.0
H1002 H 0.60056 0.5733 0.27133 0.0
H1003 H 0.60926 0.62328 0.25415 0.0
H1004 H 0.7866 0.61148 0.36041 0.0
H1005 H 0.88053 0.7378 0.36163 0.0
H1006 H 0.79144 0.69728 0.33065 0.0
H1007 H 0.85095 0.75162 0.34181 0.0
C1008 C 1.04061 0.66858 0.22063 0.0
C1009 C 0.056 0.65977 0.20898 0.0
C1010 C 0.06658 0.69807 0.22988 0.0
C1011 C 0.17438 0.74915 0.24165 0.0
H1012 H 0.13982 0.81166 0.2633 0.0
C1013 C 0.27579 0.86463 0.28398 0.0
C1014 C 0.25525 0.86685 0.29552 0.0
C1015 C 0.2539 0.84067 0.27279 0.0
C1016 C 0.14992 0.79412 0.25748 0.0
H1017 H 0.11136 0.6768 0.19792 0.0
H1018 H 0.15657 0.72877 0.21372 0.0
H1019 H 0.09774 0.77113 0.24464 0.0
H1020 H 0.19558 0.84299 0.30459 0.0
H1021 H 0.15798 0.80152 0.28545 0.0
H1022 H 0.22657 0.77214 0.25466 0.0
C1023 C 0.12423 0.71256 0.21579 0.0
C1024 C 0.12564 0.77078 0.24669 0.0
C1025 C 0.09805 0.68313 0.20649 0.0
C1026 C 0.21252 0.84288 0.2958 0.0
C1027 C 0.19082 0.81913 0.28473 0.0
C1028 C 0.19877 0.77259 0.2525 0.0
C1029 C 0.10905 0.71964 0.22787 0.0
C1030 C 0.13704 0.74736 0.23869 0.0
C1031 C 0.21092 0.81831 0.27288 0.0
C1032 C 0.18658 0.79496 0.26074 0.0
H1033 H 1.00861 0.65034 0.22312 0.0
H1034 H 1.05342 0.70197 0.23907 0.0
H1035 H 0.18425 0.73139 0.23586 0.0
H1036 H 0.30863 0.8827 0.28337 0.0
H1037 H 0.2706 0.84088 0.2639 0.0
C1038 C 0.44675 0.25387 0.4491 0.0
C1039 C 0.42569 0.23337 0.46087 0.0
C1040 C 0.44851 0.232 0.43783 0.0
C1041 C 0.39261 0.12745 0.42299 0.0
H1042 H 0.48753 0.16312 0.40022 0.0
C1043 C 0.41023 1.01819 0.38638 0.0
C1044 C 0.43347 1.03316 0.37454 0.0
C1045 C 0.40618 0.04431 0.39548 0.0
C1046 C 0.46047 0.15286 0.40634 0.0
H1047 H 0.39265 0.17393 0.47025 0.0
H1048 H 0.39608 0.13636 0.45094 0.0
H1049 H 0.48942 0.20569 0.41906 0.0
H1050 H 0.46903 0.0878 0.36285 0.0
H1051 H 0.46141 0.13332 0.37843 0.0
H1052 H 0.36369 0.07461 0.41045 0.0
C1053 C 0.41014 0.1691 0.45012 0.0
C1054 C 0.46162 0.17739 0.4172 0.0
C1055 C 0.40837 0.19078 0.46128 0.0
C1056 C 0.4504 0.07484 0.37165 0.0
C1057 C 0.44658 0.10119 0.3808 0.0
C1058 C 0.39148 0.10303 0.41219 0.0
C1059 C 0.42929 0.1891 0.43807 0.0
C1060 C 0.42791 0.16469 0.42587 0.0
C1061 C 0.42548 0.08653 0.39309 0.0
C1062 C 0.42558 0.11486 0.4038 0.0
H1063 H 0.46036 0.2866 0.4484 0.0
H1064 H 0.46364 0.24861 0.42876 0.0
H1065 H 0.36557 0.11695 0.42914 0.0
H1066 H 0.39774 0.9865 0.38915 0.0
H1067 H 0.39009 1.03156 0.40484 0.0
C1068 C 0.26149 0.41351 0.6253 0.0
C1069 C 0.23408 0.42812 0.6237 0.0
C1070 C 0.28624 0.41464 0.61463 0.0
C1071 C 0.32778 0.45805 0.58078 0.0
H1072 H 0.3329 0.35874 0.57706 0.0
C1073 C 0.41415 0.43393 0.53614 0.0
C1074 C 0.43958 0.41819 0.53971 0.0
C1075 C 0.38529 0.43302 0.54531 0.0
C1076 C 0.33219 0.38688 0.57796 0.0
H1077 H 0.21269 0.45725 0.60975 0.0
H1078 H 0.25648 0.45966 0.59096 0.0
H1079 H 0.29344 0.36511 0.59528 0.0
H1080 H 0.4529 0.38722 0.55551 0.0
H1081 H 0.40232 0.38443 0.57126 0.0
H1082 H 0.36715 0.47993 0.56347 0.0
C1083 C 0.25877 0.44732 0.60056 0.0
C1084 C 0.30951 0.39059 0.58847 0.0
C1085 C 0.23381 0.44618 0.61133 0.0
C1086 C 0.43317 0.39874 0.55227 0.0
C1087 C 0.40428 0.39753 0.56139 0.0
C1088 C 0.3507 0.45438 0.57022 0.0
C1089 C 0.28434 0.43026 0.60194 0.0
C1090 C 0.30738 0.42642 0.5902 0.0
C1091 C 0.38082 0.41591 0.55826 0.0
C1092 C 0.35369 0.41887 0.56876 0.0
H1093 H 0.26253 0.39953 0.63472 0.0
H1094 H 0.30622 0.40221 0.61625 0.0
H1095 H 0.32703 0.48614 0.58178 0.0
H1096 H 0.41812 0.44931 0.52668 0.0
H1097 H 0.36735 0.44685 0.54239 0.0
C1098 C 1.05356 0.41684 0.71683 0.0
C1099 C 1.03492 0.41259 0.70425 0.0
C1100 C 1.03243 0.38977 0.72743 0.0
C1101 C 0.93673 0.29204 0.73612 0.0
H1102 H 0.9496 0.34483 0.77066 0.0
C1103 C 0.82646 0.21011 0.78114 0.0
C1104 C 0.84502 0.2142 0.79374 0.0
C1105 C 0.84901 0.23462 0.77015 0.0
C1106 C 0.94573 0.3294 0.76113 0.0
H1107 H 0.98028 0.37577 0.69276 0.0
H1108 H 0.94391 0.32814 0.71093 0.0
H1109 H 0.99241 0.3834 0.75174 0.0
H1110 H 0.90126 0.248 0.80481 0.0
H1111 H 0.94018 0.29097 0.7859 0.0
H1112 H 0.88964 0.23807 0.74556 0.0
C1113 C 0.97491 0.35187 0.71274 0.0
C1114 C 0.9706 0.35157 0.75023 0.0
C1115 C 0.99598 0.37899 0.7022 0.0
C1116 C 0.88599 0.24445 0.79526 0.0
C1117 C 0.90833 0.26911 0.78438 0.0
C1118 C 0.91172 0.26988 0.74702 0.0
C1119 C 0.99204 0.35786 0.72571 0.0
C1120 C 0.96665 0.3333 0.73753 0.0
C1121 C 0.89054 0.26402 0.77156 0.0
C1122 C 0.91588 0.28817 0.75972 0.0
H1123 H 0.0829 0.44328 0.71887 0.0
H1124 H 1.04709 0.39513 0.73717 0.0
H1125 H 0.93284 0.27658 0.7266 0.0
H1126 H 0.79514 0.18669 0.77961 0.0
H1127 H 0.83407 0.23008 0.7605 0.0
C1128 C 0.65489 0.97636 0.87308 0.0
C1129 C 0.66359 1.01689 0.87412 0.0
C1130 C 0.6643 0.95765 0.88359 0.0
C1131 C 0.68128 0.96735 0.92084 0.0
H1132 H 0.69853 0.87553 0.91583 0.0
C1133 C 0.71188 0.88804 0.96578 0.0
C1134 C 0.6954 0.84552 0.96557 0.0
C1135 C 0.70893 0.90898 0.95458 0.0
C1136 C 0.69319 0.90078 0.91743 0.0
H1137 H 0.69024 0.07002 0.8869 0.0
H1138 H 0.70883 0.03834 0.90501 0.0
H1139 H 0.69736 0.91407 0.8963 0.0
H1140 H 0.66191 0.79174 0.95329 0.0
H1141 H 0.65637 0.82829 0.93366 0.0
H1142 H 0.67722 0.95409 0.94197 0.0
C1143 C 0.69404 1.02051 0.89614 0.0
C1144 C 0.6926 0.92311 0.90617 0.0
C1145 C 0.6844 0.03919 0.88559 0.0
C1146 C 0.67483 0.82441 0.95386 0.0
C1147 C 0.6721 0.8455 0.94254 0.0
C1148 C 0.68199 0.94513 0.93208 0.0
C1149 C 0.68259 0.97887 0.89556 0.0
C1150 C 0.68635 0.95669 0.90765 0.0
C1151 C 0.68941 0.88822 0.9427 0.0
C1152 C 0.68782 0.91137 0.93058 0.0
H1153 H 0.63764 0.95799 0.86457 0.0
H1154 H 0.65438 0.9256 0.88265 0.0
H1155 H 0.67575 0.99239 0.92255 0.0
H1156 H 0.72759 0.90539 0.97465 0.0
H1157 H 0.72297 0.94176 0.95514 0.0
C1158 C 0.86905 0.69657 0.1292 0.0
C1159 C 0.89005 0.67454 0.12974 0.0
C1160 C 0.84507 0.69384 0.11808 0.0
C1161 C 0.78989 0.63151 0.08827 0.0
H1162 H 0.79872 0.73266 0.07579 0.0
C1163 C 0.69762 0.63423 0.04187 0.0
C1164 C 0.68013 0.65943 0.04259 0.0
C1165 C 0.72732 0.63805 0.05115 0.0
C1166 C 0.79537 0.70396 0.07916 0.0
H1167 H 0.90009 0.63052 0.11899 0.0
H1168 H 0.85746 0.62519 0.09954 0.0
H1169 H 0.83997 0.73316 0.09466 0.0
H1170 H 0.68033 0.70828 0.05386 0.0
H1171 H 0.73212 0.71547 0.06996 0.0
H1172 H 0.74471 0.60216 0.07295 0.0
C1173 C 0.86007 0.64501 0.10781 0.0
C1174 C 0.81922 0.70426 0.09004 0.0
C1175 C 0.88447 0.64795 0.11899 0.0
C1176 C 0.69435 0.68954 0.05262 0.0
C1177 C 0.72394 0.69333 0.06197 0.0
C1178 C 0.76579 0.63116 0.07741 0.0
C1179 C 0.84072 0.66866 0.10706 0.0
C1180 C 0.81658 0.66803 0.0949 0.0
C1181 C 0.74007 0.66677 0.06167 0.0
C1182 C 0.76777 0.66737 0.07274 0.0
H1183 H 0.87144 0.71651 0.1374 0.0
H1184 H 0.82984 0.71165 0.11814 0.0
H1185 H 0.78665 0.60293 0.09174 0.0
H1186 H 0.68597 0.60909 0.03495 0.0
H1187 H 0.739 0.61719 0.05039 0.0
C1188 C 0.40843 0.99164 0.62811 0.0
C1189 C 0.43188 1.03365 0.62561 0.0
C1190 C 0.37869 0.96558 0.61888 0.0
C1191 C 0.31979 0.96441 0.58825 0.0
H1192 H 0.31835 0.86363 0.57998 0.0
C1193 C 0.24711 0.87805 0.53914 0.0
C1194 C 0.22317 0.83533 0.53938 0.0
C1195 C 0.27093 0.89965 0.55021 0.0
C1196 C 0.31792 0.89139 0.58223 0.0
H1197 H 0.44127 0.08114 0.61154 0.0
H1198 H 0.38908 1.03649 0.5957 0.0
H1199 H 0.35955 0.90581 0.59873 0.0
H1200 H 0.20737 0.78187 0.55147 0.0
H1201 H 0.2493 0.81972 0.57093 0.0
H1202 H 0.27853 0.95034 0.57176 0.0
C1203 C 0.39313 1.0233 0.60484 0.0
C1204 C 0.34161 0.91569 0.59305 0.0
C1205 C 0.42294 0.04915 0.61403 0.0
C1206 C 0.22542 0.8147 0.55089 0.0
C1207 C 0.24944 0.83649 0.56206 0.0
C1208 C 0.29621 0.94022 0.57748 0.0
C1209 C 0.37143 0.98086 0.60687 0.0
C1210 C 0.34343 0.95297 0.5961 0.0
C1211 C 0.27182 0.87944 0.562 0.0
C1212 C 0.29535 0.90363 0.57412 0.0
H1213 H 0.41494 0.97827 0.63662 0.0
H1214 H 0.3624 0.93325 0.62095 0.0
H1215 H 0.3195 0.9923 0.59039 0.0
H1216 H 0.247 0.89505 0.53037 0.0
H1217 H 0.28856 0.93248 0.54952 0.0
C1218 C 0.44543 0.2122 0.7126 0.0
C1219 C 0.4128 0.19865 0.70345 0.0
C1220 C 0.44984 0.23878 0.72325 0.0
C1221 C 0.40865 0.30615 0.73603 0.0
H1222 H 0.4608 0.30262 0.7691 0.0
C1223 C 0.44004 0.42136 0.77952 0.0
C1224 C 0.44667 0.41207 0.79265 0.0
C1225 C 0.43277 0.39426 0.76883 0.0
C1226 C 0.44529 0.30368 0.76009 0.0
H1227 H 0.36057 0.20523 0.69825 0.0
H1228 H 0.36625 0.24785 0.71697 0.0
H1229 H 0.45561 0.25894 0.75054 0.0
H1230 H 0.44985 0.36657 0.80491 0.0
H1231 H 0.43285 0.31747 0.78676 0.0
H1232 H 0.39603 0.34891 0.74582 0.0
C1233 C 0.38934 0.23916 0.71592 0.0
C1234 C 0.44315 0.27896 0.74919 0.0
C1235 C 0.38548 0.2135 0.70519 0.0
C1236 C 0.44344 0.37401 0.79498 0.0
C1237 C 0.43491 0.34632 0.7844 0.0
C1238 C 0.40993 0.33011 0.74702 0.0
C1239 C 0.42152 0.2524 0.72522 0.0
C1240 C 0.42479 0.27966 0.7369 0.0
C1241 C 0.43127 0.35661 0.77098 0.0
C1242 C 0.42839 0.32955 0.7593 0.0
H1243 H 0.46724 0.20172 0.71172 0.0
H1244 H 0.47565 0.2486 0.7299 0.0
H1245 H 0.39507 0.30887 0.72679 0.0
H1246 H 0.44428 0.45123 0.77728 0.0
H1247 H 0.43104 0.40431 0.75877 0.0
C1248 C 0.05697 0.41521 0.95177 0.0
C1249 C 0.07635 0.43413 0.96387 0.0
C1250 C 0.07862 0.40851 0.9415 0.0
C1251 C 0.18511 0.45444 0.92932 0.0
H1252 H 0.1411 0.36537 0.90384 0.0
C1253 C 0.28253 0.43948 0.88611 0.0
C1254 C 0.26267 0.42185 0.87394 0.0
C1255 C 0.26041 0.44126 0.89728 0.0
C1256 C 0.15383 0.39083 0.91075 0.0
H1257 H 0.1326 0.45829 0.97502 0.0
H1258 H 0.16981 0.44531 0.95746 0.0
H1259 H 0.10029 0.36337 0.92318 0.0
H1260 H 0.20456 0.39455 0.86371 0.0
H1261 H 0.16647 0.39863 0.88286 0.0
H1262 H 0.23842 0.48219 0.91682 0.0
C1263 C 0.13821 0.43627 0.95571 0.0
C1264 C 0.13034 0.38953 0.92191 0.0
C1265 C 0.11659 0.44288 0.96592 0.0
C1266 C 0.22073 0.40805 0.87299 0.0
C1267 C 0.19876 0.40997 0.88405 0.0
C1268 C 0.20857 0.45579 0.91814 0.0
C1269 C 0.12021 0.42092 0.94308 0.0
C1270 C 0.1456 0.4213 0.93138 0.0
C1271 C 0.21793 0.42553 0.89651 0.0
C1272 C 0.19327 0.42409 0.90863 0.0
H1273 H 1.02646 0.40945 0.94972 0.0
H1274 H 0.06366 0.39672 0.93193 0.0
H1275 H 0.19767 0.47998 0.9362 0.0
H1276 H 0.3147 0.44996 0.88721 0.0
H1277 H 0.27636 0.45339 0.90668 0.0
C1278 C 0.6721 0.0396 0.1187 0.0
C1279 C 0.67641 0.05744 0.13144 0.0
C1280 C 0.69926 0.06132 0.1082 0.0
C1281 C 0.79745 0.15642 0.09999 0.0
H1282 H 0.74435 0.1479 0.0658 0.0
C1283 C 0.88067 0.26917 0.05581 0.0
C1284 C 0.87635 0.25127 0.04308 0.0
C1285 C 0.85576 0.24629 0.06666 0.0
C1286 C 0.75981 0.15053 0.07524 0.0
H1287 H 0.71341 0.11114 0.14332 0.0
H1288 H 0.76132 0.1485 0.1253 0.0
H1289 H 0.70532 0.10414 0.08452 0.0
H1290 H 0.84181 0.19597 0.03161 0.0
H1291 H 0.79803 0.15646 0.05031 0.0
H1292 H 0.85185 0.20325 0.09069 0.0
C1293 C 0.73741 0.11771 0.1233 0.0
C1294 C 0.73742 0.12512 0.086 0.0
C1295 C 0.71015 0.09608 0.13374 0.0
C1296 C 0.84549 0.2107 0.04128 0.0
C1297 C 0.8204 0.18804 0.05202 0.0
C1298 C 0.8198 0.18197 0.08924 0.0
C1299 C 0.7313 0.10145 0.1102 0.0
C1300 C 0.7559 0.12749 0.09854 0.0
C1301 C 0.82575 0.20512 0.06497 0.0
C1302 C 0.80137 0.17933 0.07668 0.0
H1303 H 0.64553 1.01052 0.11649 0.0
H1304 H 0.69385 0.0474 0.09833 0.0
H1305 H 0.81296 0.15907 0.10942 0.0
H1306 H 0.90458 0.30017 0.05754 0.0
H1307 H 0.86049 0.26063 0.07644 0.0
C1308 C 0.65628 0.67659 0.29871 0.0
C1309 C 0.6723 0.65135 0.29519 0.0
C1310 C 0.65714 0.70539 0.28953 0.0
C1311 C 0.7036 0.75874 0.25693 0.0
H1312 H 0.6042 0.76365 0.25301 0.0
C1313 C 0.67741 0.82989 0.2096 0.0
C1314 C 0.66243 0.85701 0.21117 0.0
C1315 C 0.6763 0.80512 0.22025 0.0
C1316 C 0.63234 0.76299 0.25404 0.0
H1317 H 0.70362 0.6383 0.27942 0.0
H1318 H 0.70633 0.68879 0.26366 0.0
H1319 H 0.61034 0.72352 0.27131 0.0
H1320 H 0.63267 0.87781 0.2251 0.0
H1321 H 0.6303 0.834 0.24385 0.0
H1322 H 0.72553 0.79765 0.23965 0.0
C1323 C 0.69307 0.68672 0.27351 0.0
C1324 C 0.63597 0.74004 0.26459 0.0
C1325 C 0.6919 0.65788 0.28264 0.0
C1326 C 0.64404 0.85694 0.22352 0.0
C1327 C 0.64292 0.83196 0.23428 0.0
C1328 C 0.69995 0.78148 0.24642 0.0
C1329 C 0.67446 0.71001 0.2766 0.0
C1330 C 0.67152 0.73713 0.26609 0.0
C1331 C 0.66032 0.80667 0.23291 0.0
C1332 C 0.66409 0.78354 0.24465 0.0
H1333 H 0.64071 0.67248 0.30814 0.0
H1334 H 0.64311 0.72316 0.29243 0.0
H1335 H 0.73178 0.75811 0.25785 0.0
H1336 H 0.69163 0.82908 0.2002 0.0
H1337 H 0.689 0.78536 0.21864 0.0
C1338 C 1.01681 0.64175 0.46313 0.0
C1339 C 0.05857 0.65906 0.46028 0.0
C1340 C 0.99039 0.64546 0.45398 0.0
C1341 C 0.9883 0.70072 0.42268 0.0
H1342 H 0.8862 0.60229 0.41564 0.0
C1343 C 0.90055 0.68359 0.37355 0.0
C1344 C 0.85791 0.66592 0.37393 0.0
C1345 C 0.92231 0.68193 0.3847 0.0
C1346 C 0.91433 0.63023 0.41755 0.0
H1347 H 0.10534 0.69551 0.44579 0.0
H1348 H 0.06016 0.70299 0.43011 0.0
H1349 H 0.92882 0.6044 0.43448 0.0
H1350 H 0.80468 0.63074 0.38637 0.0
H1351 H 0.84279 0.62762 0.40599 0.0
H1352 H 0.97415 0.72654 0.40575 0.0
C1353 C 1.04737 0.68663 0.43942 0.0
C1354 C 0.93889 0.63151 0.42842 0.0
C1355 C 0.07356 0.68266 0.44851 0.0
C1356 C 0.83744 0.64462 0.38568 0.0
C1357 C 0.85939 0.64295 0.39695 0.0
C1358 C 0.96383 0.69946 0.41186 0.0
C1359 C 1.00507 0.66688 0.44174 0.0
C1360 C 0.9767 0.66659 0.43102 0.0
C1361 C 0.90233 0.66252 0.39673 0.0
C1362 C 0.92679 0.664 0.40893 0.0
H1363 H 1.00384 0.62295 0.47189 0.0
H1364 H 0.95821 0.63031 0.45631 0.0
H1365 H 1.01655 0.72865 0.42445 0.0
H1366 H 0.9174 0.69951 0.3646 0.0
H1367 H 0.95509 0.69627 0.3839 0.0
C1368 C 0.55846 0.65407 0.32125 0.0
C1369 C 0.58768 0.65227 0.32965 0.0
C1370 C 0.5486 0.68556 0.32248 0.0
C1371 C 0.55803 0.76992 0.34593 0.0
H1372 H 0.52889 0.80847 0.31399 0.0
C1373 C 0.49516 0.8856 0.34868 0.0
C1374 C 0.50403 0.91384 0.33811 0.0
C1375 C 0.50704 0.85543 0.34807 0.0
C1376 C 0.53723 0.79861 0.32309 0.0
H1377 H 0.62864 0.68345 0.34619 0.0
H1378 H 0.61174 0.73757 0.34837 0.0
H1379 H 0.54555 0.75419 0.31216 0.0
H1380 H 0.53083 0.92994 0.31823 0.0
H1381 H 0.55193 0.8785 0.31719 0.0
H1382 H 0.55004 0.81471 0.35684 0.0
C1383 C 0.59601 0.71448 0.34078 0.0
C1384 C 0.5464 0.76662 0.32205 0.0
C1385 C 0.60606 0.68317 0.33947 0.0
C1386 C 0.5244 0.90985 0.32679 0.0
C1387 C 0.53611 0.87965 0.32613 0.0
C1388 C 0.54855 0.80174 0.34699 0.0
C1389 C 0.56723 0.71677 0.33225 0.0
C1390 C 0.55709 0.75137 0.33343 0.0
C1391 C 0.52733 0.85126 0.33668 0.0
C1392 C 0.53795 0.81701 0.33559 0.0
H1393 H 0.54359 0.63147 0.31345 0.0
H1394 H 0.52595 0.68514 0.31574 0.0
H1395 H 0.5656 0.75949 0.35507 0.0
H1396 H 0.47776 0.88573 0.35729 0.0
H1397 H 0.49877 0.83428 0.35639 0.0
C1398 C 0.64463 0.47415 0.51209 0.0
C1399 C 0.62517 0.48323 0.50161 0.0
C1400 C 0.68658 0.48608 0.51142 0.0
C1401 C 0.77369 0.51764 0.48639 0.0
H1402 H 0.84024 0.54396 0.51844 0.0
C1403 C 0.93954 0.53951 0.48427 0.0
C1404 C 0.97 0.56774 0.49297 0.0
C1405 C 0.89822 0.52955 0.48549 0.0
C1406 C 0.82253 0.53701 0.50929 0.0
H1407 H 0.63547 0.51039 0.48181 0.0
H1408 H 0.70796 0.53173 0.48067 0.0
H1409 H 0.7696 0.52835 0.52024 0.0
H1410 H 0.97881 0.60682 0.51004 0.0
H1411 H 0.90793 0.5899 0.51217 0.0
H1412 H 0.82663 0.52678 0.4754 0.0
C1413 C 0.69113 0.51564 0.48958 0.0
C1414 C 0.78129 0.52746 0.51036 0.0
C1415 C 0.64927 0.5038 0.49029 0.0
C1416 C 0.95697 0.58504 0.50308 0.0
C1417 C 0.91566 0.57495 0.50436 0.0
C1418 C 0.81482 0.52695 0.48533 0.0
C1419 C 0.71087 0.5067 0.50006 0.0
C1420 C 0.75573 0.51753 0.49893 0.0
C1421 C 0.88514 0.54714 0.49554 0.0
C1422 C 0.84043 0.53689 0.49674 0.0
H1423 H 0.62721 0.45658 0.52068 0.0
H1424 H 0.69954 0.47763 0.51968 0.0
H1425 H 0.75575 0.50984 0.47726 0.0
H1426 H 0.94769 0.52547 0.47625 0.0
H1427 H 0.87643 0.50763 0.47852 0.0
C1428 C 0.43052 0.91599 0.65034 0.0
C1429 C 0.43286 0.94673 0.65902 0.0
C1430 C 0.39888 0.87476 0.65146 0.0
C1431 C 0.31453 0.79917 0.67503 0.0
H1432 H 0.27574 0.73235 0.64301 0.0
C1433 C 0.19685 0.6216 0.67805 0.0
C1434 C 0.16848 0.60228 0.66756 0.0
C1435 C 0.2278 0.66318 0.67724 0.0
C1436 C 0.28566 0.75025 0.65214 0.0
H1437 H 0.4022 0.9558 0.67596 0.0
H1438 H 0.348 0.88512 0.67798 0.0
H1439 H 0.33017 0.80294 0.64124 0.0
H1440 H 0.15251 0.61294 0.64766 0.0
H1441 H 0.20579 0.68455 0.64616 0.0
H1442 H 0.26974 0.7465 0.68591 0.0
C1443 C 0.37077 0.89259 0.67023 0.0
C1444 C 0.31777 0.79129 0.65114 0.0
C1445 C 0.4022 0.93385 0.66902 0.0
C1446 C 0.17314 0.62632 0.65607 0.0
C1447 C 0.20426 0.6678 0.65519 0.0
C1448 C 0.28265 0.758 0.67605 0.0
C1449 C 0.36794 0.86181 0.66142 0.0
C1450 C 0.33316 0.81704 0.66254 0.0
C1451 C 0.23265 0.68747 0.66573 0.0
C1452 C 0.2672 0.7323 0.66464 0.0
H1453 H 0.45284 0.92388 0.64239 0.0
H1454 H 0.39902 0.85289 0.64447 0.0
H1455 H 0.32492 0.81685 0.6842 0.0
H1456 H 0.1958 0.60424 0.68686 0.0
H1457 H 0.24878 0.6759 0.68558 0.0
C1458 C 0.55887 0.41719 0.81909 0.0
C1459 C 0.52972 0.41953 0.82745 0.0
C1460 C 0.56841 0.38532 0.8204 0.0
C1461 C 0.55758 0.29984 0.84404 0.0
H1462 H 0.58776 0.26104 0.8124 0.0
C1463 C 0.61587 0.17984 0.84785 0.0
C1464 C 0.60741 0.15156 0.83733 0.0
C1465 C 0.60569 0.21132 0.8469 0.0
C1466 C 0.57919 0.27096 0.82144 0.0
H1467 H 0.48875 0.38849 0.84401 0.0
H1468 H 0.5051 0.33406 0.84638 0.0
H1469 H 0.57227 0.3162 0.81036 0.0
H1470 H 0.58238 0.13652 0.81723 0.0
H1471 H 0.56495 0.19069 0.81548 0.0
H1472 H 0.56432 0.25441 0.8551 0.0
C1473 C 0.52101 0.35696 0.83872 0.0
C1474 C 0.57062 0.3035 0.82027 0.0
C1475 C 0.51123 0.38857 0.83731 0.0
C1476 C 0.58913 0.15698 0.82568 0.0
C1477 C 0.57929 0.18865 0.82465 0.0
C1478 C 0.56657 0.26758 0.84523 0.0
C1479 C 0.54964 0.35408 0.83023 0.0
C1480 C 0.55944 0.31892 0.83153 0.0
C1481 C 0.58737 0.21691 0.83522 0.0
C1482 C 0.57756 0.25204 0.83396 0.0
H1483 H 0.57387 0.43964 0.81123 0.0
H1484 H 0.59094 0.38545 0.81364 0.0
H1485 H 0.54961 0.31018 0.85312 0.0
H1486 H 0.63139 0.17832 0.85679 0.0
H1487 H 0.61342 0.23212 0.85528 0.0
C1488 C 0.17784 0.54729 0.98802 0.0
C1489 C 0.1467 0.51874 0.99654 0.0
C1490 C 0.21916 0.5569 0.9894 0.0
C1491 C 0.29355 0.54683 0.01335 0.0
H1492 H 0.36213 0.57532 0.98167 0.0
C1493 C 0.47129 0.60462 0.01692 0.0
C1494 C 0.49099 0.59629 0.00628 0.0
C1495 C 0.42953 0.59388 0.01615 0.0
C1496 C 0.34373 0.56716 0.99072 0.0
H1497 H 0.13714 0.47907 0.01348 0.0
H1498 H 0.20764 0.49534 0.01591 0.0
H1499 H 0.29181 0.56015 0.97958 0.0
H1500 H 0.48096 0.57161 0.98613 0.0
H1501 H 0.4091 0.55243 0.98482 0.0
H1502 H 0.34549 0.55349 0.02446 0.0
C1503 C 0.20054 0.51077 0.0081 0.0
C1504 C 0.30283 0.55884 0.98952 0.0
C1505 C 0.1593 0.501 0.00664 0.0
C1506 C 0.46712 0.57757 0.99475 0.0
C1507 C 0.42553 0.567 0.99393 0.0
C1508 C 0.33459 0.55547 0.01457 0.0
C1509 C 0.23172 0.53872 0.99944 0.0
C1510 C 0.27643 0.54833 1.00079 0.0
C1511 C 0.40556 0.57528 0.00453 0.0
C1512 C 0.36089 0.56578 0.00328 0.0
H1513 H 0.17018 0.56163 0.97998 0.0
H1514 H 0.24136 0.57892 0.98251 0.0
H1515 H 0.27536 0.53942 0.02243 0.0
H1516 H 0.48847 0.62078 0.02573 0.0
H1517 H 0.41652 0.60172 0.02455 0.0
C1518 C 0.90546 0.45213 0.18337 0.0
C1519 C 0.9335 0.47085 0.17269 0.0
C1520 C 0.87429 0.41055 0.18284 0.0
C1521 C 0.81463 0.32358 0.15797 0.0
H1522 H 0.77371 0.25747 0.19014 0.0
C1523 C 0.66748 0.15941 0.15628 0.0
C1524 C 0.6644 0.12843 0.16503 0.0
C1525 C 0.69957 0.20046 0.15741 0.0
C1526 C 0.78456 0.27502 0.18094 0.0
H1527 H 0.9479 0.4592 0.15268 0.0
H1528 H 0.89486 0.3876 0.15177 0.0
H1529 H 0.83023 0.32718 0.19173 0.0
H1530 H 0.69404 0.11886 0.1821 0.0
H1531 H 0.74902 0.18901 0.18411 0.0
H1532 H 0.7693 0.27142 0.14715 0.0
C1533 C 0.89691 0.40471 0.16075 0.0
C1534 C 0.81723 0.31582 0.1819 0.0
C1535 C 0.92813 0.44614 0.16134 0.0
C1536 C 0.69468 0.14094 0.17509 0.0
C1537 C 0.72655 0.18195 0.1763 0.0
C1538 C 0.78177 0.28292 0.15703 0.0
C1539 C 0.86871 0.38576 0.17142 0.0
C1540 C 0.83333 0.34131 0.17043 0.0
C1541 C 0.73025 0.21293 0.16741 0.0
C1542 C 0.76575 0.25735 0.16848 0.0
H1543 H 0.90652 0.46989 0.19203 0.0
H1544 H 0.85348 0.39836 0.19127 0.0
H1545 H 0.82496 0.34136 0.1488 0.0
H1546 H 0.64557 0.15179 0.14824 0.0
H1547 H 0.70009 0.22252 0.15036 0.0
C1548 C 0.20534 0.59575 0.48594 0.0
C1549 C 0.17657 0.58627 0.49638 0.0
C1550 C 0.23554 0.5839 0.48658 0.0
C1551 C 0.2914 0.55269 0.5116 0.0
H1552 H 0.33223 0.52608 0.47965 0.0
C1553 C 0.43628 0.53192 0.5138 0.0
C1554 C 0.43851 0.50309 0.50531 0.0
C1555 C 0.40475 0.54172 0.51251 0.0
C1556 C 0.32132 0.53315 0.48878 0.0
H1557 H 0.15951 0.55832 0.51607 0.0
H1558 H 0.21101 0.53728 0.51716 0.0
H1559 H 0.27693 0.54153 0.47776 0.0
H1560 H 0.40805 0.4628 0.48856 0.0
H1561 H 0.35389 0.47963 0.48628 0.0
H1562 H 0.33543 0.54403 0.52264 0.0
C1563 C 0.21025 0.55358 0.5083 0.0
C1564 C 0.28945 0.54256 0.48765 0.0
C1565 C 0.18001 0.56524 0.5076 0.0
C1566 C 0.40799 0.48506 0.49535 0.0
C1567 C 0.37666 0.49508 0.49398 0.0
C1568 C 0.32345 0.54362 0.51271 0.0
C1569 C 0.23921 0.56303 0.49788 0.0
C1570 C 0.27355 0.55251 0.49904 0.0
C1571 C 0.37394 0.52345 0.5026 0.0
C1572 C 0.33931 0.53355 0.50134 0.0
H1573 H 0.20563 0.61366 0.47742 0.0
H1574 H 0.25712 0.59267 0.47836 0.0
H1575 H 0.28104 0.56053 0.5207 0.0
H1576 H 0.45857 0.5465 0.52171 0.0
H1577 H 0.40482 0.56406 0.51933 0.0
C1578 C 0.63942 0.18509 0.65126 0.0
C1579 C 0.62027 0.15712 0.66192 0.0
C1580 C 0.68104 0.21619 0.65191 0.0
C1581 C 0.76741 0.2755 0.67708 0.0
H1582 H 0.83447 0.31676 0.64511 0.0
C1583 C 0.93207 0.422 0.67937 0.0
C1584 C 0.96319 0.42526 0.67065 0.0
C1585 C 0.89096 0.39008 0.67812 0.0
C1586 C 0.81666 0.30581 0.65426 0.0
H1587 H 0.63123 0.14274 0.68202 0.0
H1588 H 0.70284 0.19558 0.68313 0.0
H1589 H 0.76471 0.26046 0.6433 0.0
H1590 H 0.9729 0.39612 0.65346 0.0
H1591 H 0.90272 0.34141 0.65124 0.0
H1592 H 0.81936 0.32048 0.68807 0.0
C1593 C 0.68606 0.19358 0.67407 0.0
C1594 C 0.77581 0.27326 0.65317 0.0
C1595 C 0.6446 0.16246 0.67337 0.0
C1596 C 0.95074 0.39532 0.66047 0.0
C1597 C 0.90969 0.3636 0.65913 0.0
C1598 C 0.80812 0.30822 0.67815 0.0
C1599 C 0.70545 0.22175 0.66344 0.0
C1600 C 0.74996 0.25704 0.66456 0.0
C1601 C 0.87855 0.35972 0.668 0.0
C1602 C 0.83405 0.32437 0.66678 0.0
H1603 H 0.62195 0.18399 0.64251 0.0
H1604 H 0.69355 0.23696 0.64348 0.0
H1605 H 0.74937 0.2651 0.6862 0.0
H1606 H 0.9396 0.44367 0.68749 0.0
H1607 H 0.8688 0.38944 0.68515 0.0
C1608 C 0.5977 0.93155 0.83101 0.0
C1609 C 0.57936 0.94425 0.8409 0.0
C1610 C 0.58784 0.89021 0.82961 0.0
C1611 C 0.53819 0.78743 0.84807 0.0
H1612 H 0.54452 0.74481 0.81324 0.0
C1613 C 0.51969 0.6225 0.84259 0.0
C1614 C 0.50163 0.59909 0.8309 0.0
C1615 C 0.52943 0.6639 0.84366 0.0
C1616 C 0.54224 0.75567 0.82311 0.0
H1617 H 0.53543 0.92067 0.85717 0.0
H1618 H 0.5182 0.84947 0.85478 0.0
H1619 H 0.55922 0.81514 0.81524 0.0
H1620 H 0.47791 0.6023 0.81142 0.0
H1621 H 0.49566 0.67385 0.81299 0.0
H1622 H 0.52103 0.72791 0.85593 0.0
C1623 C 0.54066 0.87165 0.848 0.0
C1624 C 0.55125 0.79686 0.82431 0.0
C1625 C 0.55028 0.91303 0.84929 0.0
C1626 C 0.49325 0.6191 0.82039 0.0
C1627 C 0.50331 0.66064 0.82138 0.0
C1628 C 0.52961 0.74638 0.8469 0.0
C1629 C 0.55927 0.85895 0.83814 0.0
C1630 C 0.54939 0.81403 0.83682 0.0
C1631 C 0.52146 0.68428 0.83309 0.0
C1632 C 0.53125 0.72915 0.83437 0.0
H1633 H 0.62014 0.95371 0.82429 0.0
H1634 H 0.60365 0.88305 0.82194 0.0
H1635 H 0.53653 0.79843 0.85799 0.0
H1636 H 0.52641 0.60866 0.85104 0.0
H1637 H 0.54363 0.68004 0.85285 0.0
C1638 C 0.67426 0.53719 0.01332 0.0
C1639 C 0.68042 0.57577 0.00935 0.0
C1640 C 0.70526 0.52649 0.01189 0.0
C1641 C 0.81979 0.57203 0.00792 0.0
H1642 H 0.79402 0.46352 0.99722 0.0
C1643 C 0.94081 0.51536 0.0102 0.0
C1644 C 0.94132 0.49021 0.99978 0.0
C1645 C 0.91014 0.52658 0.01099 0.0
C1646 C 0.80215 0.49413 1.00019 0.0
H1647 H 0.72607 0.63305 1.00081 0.0
H1648 H 0.77936 0.61505 0.99853 0.0
H1649 H 0.73962 0.48051 0.99938 0.0
H1650 H 0.90772 0.45605 0.9823 0.0
H1651 H 0.85416 0.4746 0.98379 0.0
H1652 H 0.88223 0.58549 0.00891 0.0
C1653 C 0.75037 0.59265 0.00273 0.0
C1654 C 0.77051 0.50388 0.00155 0.0
C1655 C 0.71922 0.60302 0.00394 0.0
C1656 C 0.90921 0.47603 0.99035 0.0
C1657 C 0.878 0.48648 0.99131 0.0
C1658 C 0.8513 0.56204 0.00682 0.0
C1659 C 0.74433 0.55411 0.00666 0.0
C1660 C 0.77847 0.54318 0.00539 0.0
C1661 C 0.87758 0.51203 0.00166 0.0
C1662 C 0.84339 0.52287 0.00286 0.0
H1663 H 0.64535 0.51509 0.01765 0.0
H1664 H 0.69876 0.49661 0.01519 0.0
H1665 H 0.82793 0.60256 0.01099 0.0
H1666 H 0.96447 0.52667 0.01778 0.0
H1667 H 0.91144 0.54597 0.01921 0.0
C1668 C 0.46372 0.91771 0.17965 0.0
C1669 C 0.4877 0.92288 0.1681 0.0
C1670 C 0.4222 0.88664 0.18046 0.0
C1671 C 0.33203 0.80956 0.15932 0.0
H1672 H 0.28686 0.76031 0.19391 0.0
C1673 C 0.15621 0.68982 0.16597 0.0
C1674 C 0.14324 0.65872 0.1758 0.0
C1675 C 0.19748 0.72127 0.16488 0.0
C1676 C 0.29858 0.77319 0.18408 0.0
H1677 H 0.4856 0.89653 0.14859 0.0
H1678 H 0.41398 0.84365 0.14976 0.0
H1679 H 0.3575 0.81472 0.19233 0.0
H1680 H 0.16592 0.63794 0.19226 0.0
H1681 H 0.23694 0.69178 0.19035 0.0
H1682 H 0.27324 0.76774 0.15104 0.0
C1683 C 0.42674 0.86419 0.15821 0.0
C1684 C 0.33964 0.8053 0.18318 0.0
C1685 C 0.46832 0.89509 0.15747 0.0
C1686 C 0.17389 0.66062 0.18444 0.0
C1687 C 0.21514 0.69226 0.18342 0.0
C1688 C 0.29086 0.77766 0.16023 0.0
C1689 C 0.40249 0.85885 0.16977 0.0
C1690 C 0.35765 0.82436 0.17077 0.0
C1691 C 0.22816 0.72365 0.17364 0.0
C1692 C 0.27292 0.75842 0.17263 0.0
H1693 H 0.47716 0.93791 0.18816 0.0
H1694 H 0.40547 0.88469 0.18954 0.0
H1695 H 0.34359 0.82297 0.14952 0.0
H1696 H 0.13432 0.69017 0.15908 0.0
H1697 H 0.20502 0.74441 0.15726 0.0
C1698 C 0.58784 0.44174 0.34459 0.0
C1699 C 0.60814 0.46583 0.33324 0.0
C1700 C 0.57604 0.3999 0.34528 0.0
C1701 C 0.56356 0.30969 0.32438 0.0
H1702 H 0.56519 0.26437 0.35924 0.0
C1703 C 0.50579 0.13396 0.33155 0.0
C1704 C 0.52341 0.1209 0.34153 0.0
C1705 C 0.51593 0.17529 0.33031 0.0
C1706 C 0.56475 0.27617 0.34934 0.0
H1707 H 0.63439 0.46376 0.31408 0.0
H1708 H 0.61338 0.39145 0.31504 0.0
H1709 H 0.5822 0.33527 0.35745 0.0
H1710 H 0.56625 0.14321 0.3581 0.0
H1711 H 0.58412 0.21445 0.35592 0.0
H1712 H 0.54668 0.2507 0.31625 0.0
C1713 C 0.60511 0.40442 0.32335 0.0
C1714 C 0.5741 0.31732 0.34832 0.0
C1715 C 0.61702 0.44636 0.32271 0.0
C1716 C 0.55197 0.15136 0.35017 0.0
C1717 C 0.56195 0.19268 0.349 0.0
C1718 C 0.55394 0.26843 0.32541 0.0
C1719 C 0.58473 0.38015 0.33474 0.0
C1720 C 0.57387 0.33527 0.33582 0.0
C1721 C 0.54408 0.2058 0.33906 0.0
C1722 C 0.55439 0.25053 0.33792 0.0
H1723 H 0.58142 0.45553 0.35312 0.0
H1724 H 0.56017 0.38308 0.35422 0.0
H1725 H 0.56241 0.32138 0.31453 0.0
H1726 H 0.48374 0.11212 0.32465 0.0
H1727 H 0.50076 0.18304 0.32259 0.0
C1728 C 0.21474 0.73105 0.46075 0.0
C1729 C 0.19967 0.68874 0.46058 0.0
C1730 C 0.24115 0.75619 0.45058 0.0
C1731 C 0.267 0.75326 0.41507 0.0
H1732 H 0.36567 0.8548 0.42237 0.0
C1733 C 0.36107 0.87606 0.37414 0.0
C1734 C 0.4036 0.89256 0.37458 0.0
C1735 C 0.336 0.84976 0.38435 0.0
C1736 C 0.33821 0.82649 0.42017 0.0
H1737 H 0.20346 0.64071 0.44995 0.0
H1738 H 0.24817 0.68411 0.43215 0.0
H1739 H 0.32357 0.81291 0.44116 0.0
H1740 H 0.45221 0.89166 0.38584 0.0
H1741 H 0.40893 0.84714 0.40367 0.0
H1742 H 0.28132 0.76713 0.39408 0.0
C1743 C 0.23908 0.6977 0.44005 0.0
C1744 C 0.314 0.80265 0.43093 0.0
C1745 C 0.21329 0.67274 0.4503 0.0
C1746 C 0.41996 0.8806 0.38522 0.0
C1747 C 0.39507 0.85495 0.39551 0.0
C1748 C 0.2908 0.77748 0.40431 0.0
C1749 C 0.25279 0.73962 0.43992 0.0
C1750 C 0.27827 0.76556 0.42851 0.0
C1751 C 0.35286 0.83971 0.39533 0.0
C1752 C 0.32689 0.81423 0.40673 0.0
H1753 H 0.20511 0.74467 0.46847 0.0
H1754 H 0.25127 0.78842 0.45079 0.0
H1755 H 0.23947 0.72501 0.41287 0.0
H1756 H 0.34713 0.88435 0.36614 0.0
H1757 H 0.30354 0.83844 0.3839 0.0
C1758 C 0.53071 0.34321 0.53763 0.0
C1759 C 0.54729 0.38523 0.53983 0.0
C1760 C 0.53155 0.31778 0.54781 0.0
C1761 C 0.53858 0.3125 0.58506 0.0
H1762 H 0.56107 0.22514 0.57762 0.0
C1763 C 0.51228 0.18794 0.62461 0.0
C1764 C 0.54079 0.17436 0.62516 0.0
C1765 C 0.51435 0.21473 0.61444 0.0
C1766 C 0.55497 0.24956 0.5799 0.0
H1767 H 0.57767 0.43288 0.55471 0.0
H1768 H 0.57973 0.38914 0.57217 0.0
H1769 H 0.5628 0.26905 0.55924 0.0
H1770 H 0.59524 0.18059 0.61568 0.0
H1771 H 0.59867 0.22682 0.59799 0.0
H1772 H 0.5309 0.2932 0.60571 0.0
C1773 C 0.56588 0.37568 0.5626 0.0
C1774 C 0.55554 0.2745 0.56932 0.0
C1775 C 0.56527 0.40103 0.55243 0.0
C1776 C 0.57223 0.18953 0.61549 0.0
C1777 C 0.57416 0.21609 0.60528 0.0
C1778 C 0.53768 0.28738 0.59561 0.0
C1779 C 0.54859 0.3336 0.56054 0.0
C1780 C 0.54753 0.30648 0.57175 0.0
C1781 C 0.54493 0.22865 0.60448 0.0
C1782 C 0.54598 0.2556 0.59321 0.0
H1783 H 0.51637 0.3298 0.5281 0.0
H1784 H 0.5177 0.28548 0.54586 0.0
H1785 H 0.53176 0.33646 0.58732 0.0
H1786 H 0.4875 0.17696 0.63181 0.0
H1787 H 0.49115 0.22351 0.61414 0.0
C1788 C 0.41589 0.52516 0.77591 0.0
C1789 C 0.40267 0.51394 0.78927 0.0
C1790 C 0.38975 0.52634 0.7661 0.0
C1791 C 0.27871 0.49337 0.76015 0.0
H1792 H 0.32237 0.56189 0.72852 0.0
C1793 C 0.18246 0.52806 0.7218 0.0
C1794 C 0.18361 0.51547 0.70854 0.0
C1795 C 0.20957 0.52888 0.73161 0.0
C1796 C 0.30979 0.54257 0.73731 0.0
H1797 H 0.35202 0.49646 0.80291 0.0
H1798 H 0.30748 0.50113 0.78623 0.0
H1799 H 0.36859 0.56298 0.74583 0.0
H1800 H 0.21485 0.49479 0.69515 0.0
H1801 H 0.26344 0.49805 0.71217 0.0
H1802 H 0.21974 0.47473 0.75173 0.0
C1803 C 0.33726 0.50721 0.78298 0.0
C1804 C 0.33632 0.5428 0.74725 0.0
C1805 C 0.36305 0.50495 0.79267 0.0
C1806 C 0.21318 0.50465 0.70526 0.0
C1807 C 0.24103 0.50658 0.71498 0.0
C1808 C 0.25225 0.49401 0.75038 0.0
C1809 C 0.34981 0.51735 0.76942 0.0
C1810 C 0.32135 0.51796 0.75885 0.0
C1811 C 0.23919 0.51822 0.72831 0.0
C1812 C 0.26747 0.51837 0.73881 0.0
H1813 H 0.44607 0.53172 0.7729 0.0
H1814 H 0.40083 0.53342 0.75585 0.0
H1815 H 0.2654 0.4729 0.76861 0.0
H1816 H 0.15986 0.53623 0.72472 0.0
H1817 H 0.20748 0.53799 0.7418 0.0
C1818 C 0.75048 0.18536 0.87701 0.0
C1819 C 0.70789 0.16537 0.87853 0.0
C1820 C 0.77624 0.21345 0.88664 0.0
C1821 C 0.77941 0.24365 0.9225 0.0
H1822 H 0.87757 0.3412 0.91141 0.0
C1823 C 0.90697 0.34499 0.9604 0.0
C1824 C 0.92687 0.3875 0.95871 0.0
C1825 C 0.87923 0.31883 0.95076 0.0
C1826 C 0.85015 0.31429 0.91472 0.0
H1827 H 0.65932 0.15967 0.89157 0.0
H1828 H 0.70412 0.20866 0.90831 0.0
H1829 H 0.83135 0.29485 0.89439 0.0
H1830 H 0.93279 0.43551 0.94536 0.0
H1831 H 0.88439 0.39001 0.92862 0.0
H1832 H 0.79813 0.26317 0.94283 0.0
C1833 C 0.71766 0.20243 0.89966 0.0
C1834 C 0.82378 0.28739 0.90492 0.0
C1835 C 0.69186 0.1745 0.88997 0.0
C1836 C 0.918 0.40304 0.9471 0.0
C1837 C 0.89041 0.37684 0.9374 0.0
C1838 C 0.80592 0.27041 0.9323 0.0
C1839 C 0.76029 0.22229 0.89817 0.0
C1840 C 0.78802 0.25156 0.90865 0.0
C1841 C 0.87066 0.33429 0.93906 0.0
C1842 C 0.8418 0.30612 0.92857 0.0
H1843 H 0.7641 0.17914 0.86838 0.0
H1844 H 0.80881 0.22762 0.88518 0.0
H1845 H 0.75246 0.21628 0.92581 0.0
H1846 H 0.913 0.33174 0.96916 0.0
H1847 H 0.86513 0.28633 0.95236 0.0
C1848 C 0.54804 0.9006 0.1154 0.0
C1849 C 0.57401 0.90949 0.12658 0.0
C1850 C 0.54639 0.87397 0.10526 0.0
C1851 C 0.57046 0.79158 0.09822 0.0
H1852 H 0.56454 0.81757 0.06077 0.0
C1853 C 0.54674 0.6781 0.05529 0.0
C1854 C 0.57037 0.69372 0.04353 0.0
C1855 C 0.54534 0.70405 0.0651 0.0
C1856 C 0.56637 0.80988 0.07117 0.0
H1857 H 0.61849 0.89678 0.13575 0.0
H1858 H 0.61552 0.85044 0.11815 0.0
H1859 H 0.56633 0.86313 0.07852 0.0
H1860 H 0.61015 0.74966 0.03282 0.0
H1861 H 0.60761 0.79477 0.04987 0.0
H1862 H 0.5711 0.73869 0.09089 0.0
C1863 C 0.59613 0.86381 0.11726 0.0
C1864 C 0.56697 0.83585 0.08138 0.0
C1865 C 0.59796 0.89062 0.12736 0.0
C1866 C 0.59155 0.73624 0.0417 0.0
C1867 C 0.58999 0.76224 0.05149 0.0
C1868 C 0.56959 0.7655 0.08802 0.0
C1869 C 0.57049 0.85524 0.106 0.0
C1870 C 0.56917 0.82718 0.09508 0.0
C1871 C 0.56739 0.74656 0.06345 0.0
C1872 C 0.56763 0.77426 0.07433 0.0
H1873 H 0.52932 0.91464 0.11435 0.0
H1874 H 0.52594 0.86786 0.09685 0.0
H1875 H 0.57178 0.78358 0.10862 0.0
H1876 H 0.52997 0.64578 0.05716 0.0
H1877 H 0.52702 0.69069 0.07404 0.0
C1878 C 0.74755 0.56041 0.29709 0.0
C1879 C 0.70552 0.54395 0.29493 0.0
C1880 C 0.77289 0.5597 0.28684 0.0
C1881 C 0.77799 0.55363 0.24958 0.0
H1882 H 0.86466 0.5298 0.25666 0.0
C1883 C 0.9022 0.57971 0.20985 0.0
C1884 C 0.91514 0.55073 0.20914 0.0
C1885 C 0.87553 0.5777 0.22007 0.0
C1886 C 0.84044 0.53629 0.25448 0.0
H1887 H 0.65773 0.51398 0.28006 0.0
H1888 H 0.70133 0.51217 0.26248 0.0
H1889 H 0.82105 0.52804 0.27515 0.0
H1890 H 0.90783 0.4955 0.21831 0.0
H1891 H 0.86186 0.49221 0.23608 0.0
H1892 H 0.79721 0.56174 0.22892 0.0
C1893 C 0.71486 0.52579 0.27207 0.0
C1894 C 0.81568 0.53569 0.26513 0.0
C1895 C 0.6896 0.52626 0.28231 0.0
C1896 C 0.89941 0.51888 0.21865 0.0
C1897 C 0.873 0.51702 0.2289 0.0
C1898 C 0.80295 0.55457 0.23896 0.0
C1899 C 0.75695 0.54295 0.2741 0.0
C1900 C 0.78395 0.54415 0.26283 0.0
C1901 C 0.86114 0.54673 0.22989 0.0
C1902 C 0.83445 0.54576 0.24123 0.0
H1903 H 0.76103 0.57454 0.30663 0.0
H1904 H 0.8052 0.57344 0.28876 0.0
H1905 H 0.75421 0.56079 0.24742 0.0
H1906 H 0.91365 0.60481 0.20278 0.0
H1907 H 0.86726 0.60125 0.22052 0.0
C1908 C 0.89975 0.44034 0.42766 0.0
C1909 C 0.9051 0.4792 0.43007 0.0
C1910 C 0.86263 0.4092 0.42304 0.0
C1911 C 0.79318 0.36172 0.40385 0.0
H1912 H 0.69109 0.32649 0.42261 0.0
C1913 C 0.66034 0.20093 0.39927 0.0
C1914 C 0.62033 0.19402 0.39897 0.0
C1915 C 0.69289 0.23987 0.40134 0.0
C1916 C 0.7192 0.33655 0.41709 0.0
H1917 H 0.87549 0.51569 0.43006 0.0
H1918 H 0.80978 0.46046 0.42209 0.0
H1919 H 0.75257 0.38768 0.43016 0.0
H1920 H 0.58309 0.22273 0.40032 0.0
H1921 H 0.64047 0.29126 0.40411 0.0
H1922 H 0.76044 0.31042 0.39097 0.0
C1923 C 0.83464 0.45451 0.42371 0.0
C1924 C 0.75429 0.3714 0.42144 0.0
C1925 C 0.8721 0.48596 0.42822 0.0
C1926 C 0.61361 0.22712 0.40062 0.0
C1927 C 0.64635 0.26626 0.40276 0.0
C1928 C 0.75821 0.32719 0.39947 0.0
C1929 C 0.83 0.41618 0.4208 0.0
C1930 C 0.79177 0.38333 0.41513 0.0
C1931 C 0.68628 0.27289 0.40321 0.0
C1932 C 0.7212 0.31341 0.40634 0.0
H1933 H 0.92477 0.43439 0.42885 0.0
H1934 H 0.85955 0.37967 0.42105 0.0
H1935 H 0.82165 0.37088 0.39866 0.0
H1936 H 0.66652 0.17601 0.39836 0.0
H1937 H 0.72322 0.24383 0.40195 0.0
C1938 C 0.41663 0.84217 0.59693 0.0
C1939 C 0.45246 0.87155 0.60336 0.0
C1940 C 0.41102 0.80366 0.59386 0.0
C1941 C 0.47663 0.75811 0.58864 0.0
H1942 H 0.37494 0.65976 0.58127 0.0
C1943 C 0.48221 0.63063 0.56139 0.0
C1944 C 0.45721 0.59066 0.56611 0.0
C1945 C 0.47447 0.66163 0.56497 0.0
C1946 C 0.4036 0.68689 0.58339 0.0
H1947 H 0.50795 0.88026 0.61306 0.0
H1948 H 0.49568 0.81285 0.60918 0.0
H1949 H 0.37404 0.71751 0.59192 0.0
H1950 H 0.4013 0.55192 0.57715 0.0
H1951 H 0.3904 0.60688 0.58449 0.0
H1952 H 0.5065 0.72754 0.58097 0.0
C1953 C 0.47335 0.8205 0.60554 0.0
C1954 C 0.40308 0.72016 0.58938 0.0
C1955 C 0.47987 0.85938 0.60808 0.0
C1956 C 0.42245 0.5824 0.57375 0.0
C1957 C 0.4156 0.61392 0.57777 0.0
C1958 C 0.47716 0.7249 0.58298 0.0
C1959 C 0.44039 0.79311 0.5976 0.0
C1960 C 0.43971 0.75629 0.59203 0.0
C1961 C 0.44265 0.65423 0.57388 0.0
C1962 C 0.44076 0.68904 0.58004 0.0
H1963 H 0.39357 0.84924 0.59368 0.0
H1964 H 0.38485 0.78323 0.5879 0.0
H1965 H 0.50555 0.78555 0.59011 0.0
H1966 H 0.50944 0.63914 0.55558 0.0
H1967 H 0.49495 0.692 0.56126 0.0
C1968 C 0.6642 0.49965 0.76852 0.0
C1969 C 0.62749 0.4727 0.76206 0.0
C1970 C 0.69828 0.49501 0.76726 0.0
C1971 C 0.73573 0.42749 0.75331 0.0
H1972 H 0.83647 0.53038 0.75177 0.0
C1973 C 0.8933 0.43893 0.74616 0.0
C1974 C 0.92417 0.47382 0.73972 0.0
C1975 C 0.85551 0.43552 0.74892 0.0
C1976 C 0.80864 0.5013 0.75189 0.0
H1977 H 0.59771 0.41775 0.74993 0.0
H1978 H 0.65818 0.41219 0.74664 0.0
H1979 H 0.7741 0.52978 0.75672 0.0
H1980 H 0.93819 0.53175 0.7307 0.0
H1981 H 0.87191 0.52397 0.7343 0.0
H1982 H 0.77045 0.39951 0.74739 0.0
C1983 C 0.66028 0.43624 0.75306 0.0
C1984 C 0.77269 0.50085 0.75512 0.0
C1985 C 0.62563 0.44 0.75472 0.0
C1986 C 0.91538 0.50408 0.73549 0.0
C1987 C 0.87735 0.50007 0.73788 0.0
C1988 C 0.77176 0.42806 0.74971 0.0
C1989 C 0.69739 0.46439 0.75903 0.0
C1990 C 0.73568 0.46399 0.75594 0.0
C1991 C 0.84735 0.46647 0.74503 0.0
C1992 C 0.80868 0.46506 0.7489 0.0
H1993 H 0.66758 0.5256 0.77414 0.0
H1994 H 0.72577 0.51646 0.77246 0.0
H1995 H 0.70801 0.39843 0.75399 0.0
H1996 H 0.89842 0.41444 0.74928 0.0
H1997 H 0.83328 0.40919 0.75448 0.0
C1998 C 0.48161 0.87017 0.91086 0.0
C1999 C 0.48073 0.90667 0.90956 0.0
C2000 C 0.4457 0.83352 0.91306 0.0
C2001 C 0.36228 0.75855 0.9095 0.0
H2002 H 0.28301 0.75604 0.93487 0.0
C2003 C 0.21912 0.60982 0.92591 0.0
C2004 C 0.18277 0.61116 0.92683 0.0
C2005 C 0.2561 0.64544 0.92378 0.0
C2006 C 0.30469 0.75637 0.92766 0.0
H2007 H 0.44178 0.93357 0.90966 0.0
H2008 H 0.37902 0.86952 0.91328 0.0
H2009 H 0.34669 0.8192 0.93129 0.0
H2010 H 0.15636 0.65048 0.92587 0.0
H2011 H 0.22087 0.71263 0.92215 0.0
H2012 H 0.3201 0.69566 0.90585 0.0
C2013 C 0.40747 0.86926 0.91272 0.0
C2014 C 0.34112 0.7925 0.92561 0.0
C2015 C 0.44331 0.90584 0.9105 0.0
C2016 C 0.18401 0.64866 0.92543 0.0
C2017 C 0.22092 0.68421 0.92331 0.0
C2018 C 0.32578 0.72235 0.91155 0.0
C2019 C 0.4083 0.83274 0.91404 0.0
C2020 C 0.37017 0.79403 0.91645 0.0
C2021 C 0.25736 0.68301 0.92255 0.0
C2022 C 0.29653 0.721 0.92058 0.0
H2023 H 0.51 0.86989 0.91005 0.0
H2024 H 0.44727 0.80587 0.91414 0.0
H2025 H 0.38393 0.75897 0.90226 0.0
H2026 H 0.21908 0.58136 0.9271 0.0
H2027 H 0.28378 0.64369 0.92337 0.0
C2028 C 0.66325 0.19996 0.09185 0.0
C2029 C 0.63037 0.17243 0.09993 0.0
C2030 C 0.67102 0.23977 0.08994 0.0
C2031 C 0.6862 0.32633 0.08817 0.0
H2032 H 0.58673 0.33185 0.0882 0.0
C2033 C 0.6804 0.47385 0.07601 0.0
C2034 C 0.64446 0.46925 0.07016 0.0
C2035 C 0.68325 0.4398 0.07986 0.0
C2036 C 0.6148 0.33084 0.08789 0.0
H2037 H 0.583 0.16773 0.11355 0.0
H2038 H 0.59947 0.23732 0.11141 0.0
H2039 H 0.58476 0.27033 0.0953 0.0
H2040 H 0.58422 0.42441 0.0631 0.0
H2041 H 0.59068 0.36607 0.06861 0.0
H2042 H 0.71536 0.38632 0.07971 0.0
C2043 C 0.61744 0.22745 0.10573 0.0
C2044 C 0.61392 0.29563 0.09235 0.0
C2045 C 0.60859 0.18733 0.10722 0.0
C2046 C 0.61266 0.42971 0.06742 0.0
C2047 C 0.61597 0.39589 0.07091 0.0
C2048 C 0.68689 0.36148 0.08338 0.0
C2049 C 0.64704 0.25349 0.09644 0.0
C2050 C 0.64951 0.29267 0.09254 0.0
C2051 C 0.65054 0.40037 0.07768 0.0
C2052 C 0.651 0.3639 0.08304 0.0
H2053 H 0.68207 0.19049 0.0865 0.0
H2054 H 0.69439 0.25886 0.08279 0.0
H2055 H 0.71437 0.32551 0.08831 0.0
H2056 H 0.70606 0.50373 0.07796 0.0
H2057 H 0.71045 0.44451 0.085 0.0
C2058 C 0.45855 0.60835 0.27477 0.0
C2059 C 0.49826 0.63336 0.26981 0.0
C2060 C 0.4273 0.61601 0.27148 0.0
C2061 C 0.401 0.68647 0.25322 0.0
H2062 H 0.30183 0.58445 0.24714 0.0
C2063 C 0.24595 0.6738 0.23927 0.0
C2064 C 0.21666 0.63798 0.23281 0.0
C2065 C 0.28418 0.67909 0.24262 0.0
C2066 C 0.3294 0.61336 0.24844 0.0
H2067 H 0.53632 0.68929 0.25869 0.0
H2068 H 0.48087 0.6999 0.25179 0.0
H2069 H 0.36009 0.58368 0.25612 0.0
H2070 H 0.20763 0.58189 0.22352 0.0
H2071 H 0.27463 0.59351 0.2279 0.0
H2072 H 0.37026 0.71578 0.24461 0.0
C2073 C 0.47422 0.67477 0.25849 0.0
C2074 C 0.36278 0.61297 0.25402 0.0
C2075 C 0.50603 0.66806 0.26225 0.0
C2076 C 0.22855 0.61003 0.22846 0.0
C2077 C 0.26715 0.61618 0.23131 0.0
C2078 C 0.36756 0.68683 0.2473 0.0
C2079 C 0.43412 0.6477 0.2626 0.0
C2080 C 0.3989 0.64942 0.25668 0.0
C2081 C 0.29452 0.64936 0.23917 0.0
C2082 C 0.33128 0.65016 0.24485 0.0
H2083 H 0.45039 0.58118 0.28055 0.0
H2084 H 0.39717 0.59554 0.27537 0.0
H2085 H 0.42828 0.71518 0.25515 0.0
H2086 H 0.23903 0.69715 0.24228 0.0
H2087 H 0.30459 0.70539 0.24853 0.0
loop_
_geom_bond_atom_site_label_1
_geom_bond_atom_site_label_2
_geom_bond_distance
_geom_bond_site_symmetry_2
_ccdc_geom_bond_type
Tb0 N31 2.660 . S
Tb0 N38 2.600 1_545 S
Tb0 O44 2.546 . S
Tb0 O45 2.610 . S
Tb0 O47 2.320 . S
Tb0 O48 2.552 . S
Tb0 O49 2.413 . S
Tb0 O51 2.362 1_545 S
Tb0 O52 2.421 1_545 S
Tb0 C64 2.833 . S
C1 C4 1.432 . S
C1 C5 1.414 . S
C1 N8 1.359 . S
C2 C4 1.417 . S
C2 C6 1.432 . S
C2 C14 1.413 . S
C3 C5 1.444 . S
C3 C6 1.317 . S
C3 H26 0.929 . S
C4 C1 1.432 . S
C4 C2 1.417 . S
C4 N12 1.360 1_545 S
C5 C1 1.414 . S
C5 C3 1.444 . S
C5 C10 1.385 . S
C6 C2 1.432 . S
C6 C3 1.317 . S
C6 H18 0.930 . S
C7 C9 1.392 . S
C7 C10 1.370 . S
C7 H19 0.931 . S
N8 C1 1.359 . S
N8 C9 1.327 . S
N8 Tb11 2.600 1_545 S
C9 C7 1.392 . S
C9 N8 1.327 . S
C9 H16 0.930 . S
C10 C5 1.385 . S
C10 C7 1.370 . S
C10 H29 0.930 . S
Tb11 N8 2.600 1_565 S
Tb11 N12 2.660 . S
Tb11 O45 2.362 1_565 S
Tb11 O46 2.421 1_565 S
Tb11 O50 2.546 . S
Tb11 O51 2.610 . S
Tb11 O53 2.320 . S
Tb11 O54 2.552 . S
Tb11 O55 2.413 . S
Tb11 C75 2.833 . S
N12 C4 1.360 1_565 S
N12 Tb11 2.660 . S
N12 C13 1.305 . S
C13 N12 1.305 . S
C13 C15 1.407 . S
C13 H20 0.930 . S
C14 C2 1.413 . S
C14 C15 1.338 1_545 S
C14 H22 0.934 . S
C15 C13 1.407 . S
C15 C14 1.338 1_565 S
C15 H17 0.930 . S
H16 C9 0.930 . S
H17 C15 0.930 . S
H18 C6 0.930 . S
H19 C7 0.931 . S
H20 C13 0.930 . S
H21 C35 0.930 . S
H22 C14 0.934 . S
H23 C41 0.930 . S
H24 C32 0.930 . S
H25 C39 0.931 . S
H26 C3 0.929 . S
H27 C33 0.930 . S
H28 C66 0.930 . S
H29 C10 0.930 . S
H30 C65 0.929 . S
N31 Tb0 2.660 . S
N31 C32 1.305 . S
N31 C36 1.360 1_545 S
C32 H24 0.930 . S
C32 N31 1.305 . S
C32 C35 1.407 . S
C33 H27 0.930 . S
C33 C34 1.410 . S
C33 C35 1.345 1_565 S
C34 C33 1.410 . S
C34 C36 1.417 . S
C34 C66 1.432 . S
C35 H21 0.930 . S
C35 C32 1.407 . S
C35 C33 1.345 1_545 S
C36 N31 1.360 1_565 S
C36 C34 1.417 . S
C36 C40 1.432 . S
H37 C42 0.930 . S
N38 Tb0 2.600 1_565 S
N38 C40 1.359 . S
N38 C41 1.327 . S
C39 H25 0.931 . S
C39 C41 1.392 . S
C39 C42 1.370 . S
C40 C36 1.432 . S
C40 N38 1.359 . S
C40 C43 1.414 . S
C41 H23 0.930 . S
C41 N38 1.327 . S
C41 C39 1.392 . S
C42 H37 0.930 . S
C42 C39 1.370 . S
C42 C43 1.385 . S
C43 C40 1.414 . S
C43 C42 1.385 . S
C43 C65 1.444 . S
O44 Tb0 2.546 . S
O44 C64 1.251 . S
O45 Tb0 2.610 . S
O45 Tb11 2.362 1_545 S
O45 C56 1.283 . S
O46 Tb11 2.421 1_545 S
O46 C63 1.262 . S
O47 Tb0 2.320 . S
O47 C63 1.260 . S
O48 Tb0 2.552 . S
O48 C56 1.243 . S
O49 Tb0 2.413 . S
O49 C64 1.256 . S
O50 Tb11 2.546 . S
O50 C75 1.251 . S
O51 Tb0 2.362 1_565 S
O51 Tb11 2.610 . S
O51 C67 1.283 . S
O52 Tb0 2.421 1_565 S
O52 C74 1.262 . S
O53 Tb11 2.320 . S
O53 C74 1.260 . S
O54 Tb11 2.552 . S
O54 C67 1.243 . S
O55 Tb11 2.413 . S
O55 C75 1.256 . S
C56 O45 1.283 . S
C56 O48 1.243 . S
C57 C59 1.382 . S
C57 C61 1.393 . S
C57 C64 1.500 . S
C58 C59 1.400 . S
C58 C60 1.384 . S
C59 C57 1.382 . S
C59 C58 1.400 . S
C59 H76 0.930 . S
C60 C58 1.384 . S
C60 C62 1.392 . S
C60 H77 0.931 . S
C61 C57 1.393 . S
C61 C62 1.401 . S
C61 H78 0.930 . S
C62 C60 1.392 . S
C62 C61 1.401 . S
C62 H79 0.930 . S
C63 O46 1.262 . S
C63 O47 1.260 . S
C64 Tb0 2.833 . S
C64 O44 1.251 . S
C64 O49 1.256 . S
C64 C57 1.500 . S
C65 H30 0.929 . S
C65 C43 1.444 . S
C65 C66 1.317 . S
C66 H28 0.930 . S
C66 C34 1.432 . S
C66 C65 1.317 . S
C67 O51 1.283 . S
C67 O54 1.243 . S
C68 C69 1.382 . S
C68 C72 1.393 . S
C68 C75 1.500 . S
C69 C68 1.382 . S
C69 C70 1.400 . S
C69 H80 0.930 . S
C70 C69 1.400 . S
C70 C71 1.384 . S
C71 C70 1.384 . S
C71 C73 1.392 . S
C71 H81 0.931 . S
C72 C68 1.393 . S
C72 C73 1.401 . S
C72 H82 0.930 . S
C73 C71 1.392 . S
C73 C72 1.401 . S
C73 H83 0.930 . S
C74 O52 1.262 . S
C74 O53 1.260 . S
C75 Tb11 2.833 . S
C75 O50 1.251 . S
C75 O55 1.256 . S
C75 C68 1.500 . S
H76 C59 0.930 . S
H77 C60 0.931 . S
H78 C61 0.930 . S
H79 C62 0.930 . S
H80 C69 0.930 . S
H81 C71 0.931 . S
H82 C72 0.930 . S
H83 C73 0.930 . S
Tb84 N115 2.660 . S
Tb84 N122 2.600 . S
Tb84 O128 2.546 . S
Tb84 O129 2.610 . S
Tb84 O131 2.320 . S
Tb84 O132 2.552 . S
Tb84 O133 2.413 . S
Tb84 O135 2.362 . S
Tb84 O136 2.421 . S
Tb84 C148 2.833 . S
C85 C88 1.432 . S
C85 C89 1.414 . S
C85 N92 1.359 . S
C86 C88 1.417 . S
C86 C90 1.432 . S
C86 C98 1.410 . S
C87 C89 1.444 . S
C87 C90 1.317 . S
C87 H110 0.929 . S
C88 C85 1.432 . S
C88 C86 1.417 . S
C88 N96 1.360 . S
C89 C85 1.414 . S
C89 C87 1.444 . S
C89 C94 1.385 . S
C90 C86 1.432 . S
C90 C87 1.317 . S
C90 H102 0.930 . S
C91 C93 1.392 . S
C91 C94 1.370 . S
C91 H103 0.931 . S
N92 C85 1.359 . S
N92 C93 1.327 . S
N92 Tb95 2.600 . S
C93 C91 1.392 . S
C93 N92 1.327 . S
C93 H100 0.930 . S
C94 C89 1.385 . S
C94 C91 1.370 . S
C94 H113 0.930 . S
Tb95 N92 2.600 . S
Tb95 N96 2.660 . S
Tb95 O129 2.362 . S
Tb95 O130 2.421 . S
Tb95 O134 2.546 . S
Tb95 O135 2.610 . S
Tb95 O137 2.320 . S
Tb95 O138 2.552 . S
Tb95 O139 2.413 . S
Tb95 C159 2.833 . S
N96 C88 1.360 . S
N96 Tb95 2.660 . S
N96 C97 1.305 . S
C97 N96 1.305 . S
C97 C99 1.407 . S
C97 H104 0.930 . S
C98 C86 1.410 . S
C98 C99 1.345 . S
C98 H106 0.930 . S
C99 C97 1.407 . S
C99 C98 1.345 . S
C99 H101 0.930 . S
H100 C93 0.930 . S
H101 C99 0.930 . S
H102 C90 0.930 . S
H103 C91 0.931 . S
H104 C97 0.930 . S
H105 C119 0.930 . S
H106 C98 0.930 . S
H107 C125 0.930 . S
H108 C116 0.930 . S
H109 C123 0.931 . S
H110 C87 0.929 . S
H111 C117 0.930 . S
H112 C150 0.930 . S
H113 C94 0.930 . S
H114 C149 0.929 . S
N115 Tb84 2.660 . S
N115 C116 1.305 . S
N115 C120 1.360 . S
C116 H108 0.930 . S
C116 N115 1.305 . S
C116 C119 1.407 . S
C117 H111 0.930 . S
C117 C118 1.410 . S
C117 C119 1.345 . S
C118 C117 1.410 . S
C118 C120 1.417 . S
C118 C150 1.432 . S
C119 H105 0.930 . S
C119 C116 1.407 . S
C119 C117 1.345 . S
C120 N115 1.360 . S
C120 C118 1.417 . S
C120 C124 1.432 . S
H121 C126 0.930 . S
N122 Tb84 2.600 . S
N122 C124 1.359 . S
N122 C125 1.327 . S
C123 H109 0.931 . S
C123 C125 1.392 . S
C123 C126 1.370 . S
C124 C120 1.432 . S
C124 N122 1.359 . S
C124 C127 1.414 . S
C125 H107 0.930 . S
C125 N122 1.327 . S
C125 C123 1.392 . S
C126 H121 0.930 . S
C126 C123 1.370 . S
C126 C127 1.385 . S
C127 C124 1.414 . S
C127 C126 1.385 . S
C127 C149 1.444 . S
O128 Tb84 2.546 . S
O128 C148 1.251 . S
O129 Tb84 2.610 . S
O129 Tb95 2.362 . S
O129 C140 1.283 . S
O130 Tb95 2.421 . S
O130 C147 1.262 . S
O131 Tb84 2.320 . S
O131 C147 1.260 . S
O132 Tb84 2.552 . S
O132 C140 1.243 . S
O133 Tb84 2.413 . S
O133 C148 1.256 . S
O134 Tb95 2.546 . S
O134 C159 1.251 . S
O135 Tb84 2.362 . S
O135 Tb95 2.610 . S
O135 C151 1.283 . S
O136 Tb84 2.421 . S
O136 C158 1.262 . S
O137 Tb95 2.320 . S
O137 C158 1.260 . S
O138 Tb95 2.552 . S
O138 C151 1.243 . S
O139 Tb95 2.413 . S
O139 C159 1.256 . S
C140 O129 1.283 . S
C140 O132 1.243 . S
C141 C143 1.382 . S
C141 C145 1.393 . S
C141 C148 1.500 . S
C142 C143 1.400 . S
C142 C144 1.384 . S
C143 C141 1.382 . S
C143 C142 1.400 . S
C143 H160 0.930 . S
C144 C142 1.384 . S
C144 C146 1.392 . S
C144 H161 0.931 . S
C145 C141 1.393 . S
C145 C146 1.401 . S
C145 H162 0.930 . S
C146 C144 1.392 . S
C146 C145 1.401 . S
C146 H163 0.930 . S
C147 O130 1.262 . S
C147 O131 1.260 . S
C148 Tb84 2.833 . S
C148 O128 1.251 . S
C148 O133 1.256 . S
C148 C141 1.500 . S
C149 H114 0.929 . S
C149 C127 1.444 . S
C149 C150 1.317 . S
C150 H112 0.930 . S
C150 C118 1.432 . S
C150 C149 1.317 . S
C151 O135 1.283 . S
C151 O138 1.243 . S
C152 C153 1.382 . S
C152 C156 1.393 . S
C152 C159 1.500 . S
C153 C152 1.382 . S
C153 C154 1.400 . S
C153 H164 0.930 . S
C154 C153 1.400 . S
C154 C155 1.384 . S
C155 C154 1.384 . S
C155 C157 1.392 . S
C155 H165 0.931 . S
C156 C152 1.393 . S
C156 C157 1.401 . S
C156 H166 0.930 . S
C157 C155 1.392 . S
C157 C156 1.401 . S
C157 H167 0.930 . S
C158 O136 1.262 . S
C158 O137 1.260 . S
C159 Tb95 2.833 . S
C159 O134 1.251 . S
C159 O139 1.256 . S
C159 C152 1.500 . S
H160 C143 0.930 . S
H161 C144 0.931 . S
H162 C145 0.930 . S
H163 C146 0.930 . S
H164 C153 0.930 . S
H165 C155 0.931 . S
H166 C156 0.930 . S
H167 C157 0.930 . S
Tb168 N199 2.660 . S
Tb168 N206 2.600 1_655 S
Tb168 O212 2.546 . S
Tb168 O213 2.610 . S
Tb168 O215 2.320 . S
Tb168 O216 2.552 . S
Tb168 O217 2.413 . S
Tb168 O219 2.362 1_655 S
Tb168 O220 2.421 1_655 S
Tb168 C232 2.833 . S
C169 C172 1.432 . S
C169 C173 1.414 . S
C169 N176 1.359 . S
C170 C172 1.417 . S
C170 C174 1.432 . S
C170 C182 1.410 1_655 S
C171 C173 1.444 . S
C171 C174 1.317 . S
C171 H194 0.929 . S
C172 C169 1.432 . S
C172 C170 1.417 . S
C172 N180 1.360 1_655 S
C173 C169 1.414 . S
C173 C171 1.444 . S
C173 C178 1.385 . S
C174 C170 1.432 . S
C174 C171 1.317 . S
C174 H186 0.930 . S
C175 C177 1.392 . S
C175 C178 1.370 . S
C175 H187 0.931 . S
N176 C169 1.359 . S
N176 C177 1.327 . S
N176 Tb179 2.600 1_655 S
C177 C175 1.392 . S
C177 N176 1.327 . S
C177 H184 0.930 . S
C178 C173 1.385 . S
C178 C175 1.370 . S
C178 H197 0.930 . S
Tb179 N176 2.600 1_455 S
Tb179 N180 2.660 . S
Tb179 O213 2.362 1_455 S
Tb179 O214 2.421 1_455 S
Tb179 O218 2.546 . S
Tb179 O219 2.610 . S
Tb179 O221 2.320 . S
Tb179 O222 2.552 . S
Tb179 O223 2.413 . S
Tb179 C243 2.833 . S
N180 C172 1.360 1_455 S
N180 Tb179 2.660 . S
N180 C181 1.305 . S
C181 N180 1.305 . S
C181 C183 1.407 . S
C181 H188 0.930 . S
C182 C170 1.410 1_455 S
C182 C183 1.345 . S
C182 H190 0.931 . S
C183 C181 1.407 . S
C183 C182 1.345 . S
C183 H185 0.930 . S
H184 C177 0.930 . S
H185 C183 0.930 . S
H186 C174 0.930 . S
H187 C175 0.931 . S
H188 C181 0.930 . S
H189 C203 0.930 . S
H190 C182 0.931 . S
H191 C209 0.930 . S
H192 C200 0.930 . S
H193 C207 0.931 . S
H194 C171 0.929 . S
H195 C201 0.928 . S
H196 C234 0.930 . S
H197 C178 0.930 . S
H198 C233 0.929 . S
N199 Tb168 2.660 . S
N199 C200 1.305 . S
N199 C204 1.360 1_655 S
C200 H192 0.930 . S
C200 N199 1.305 . S
C200 C203 1.407 . S
C201 H195 0.928 . S
C201 C202 1.410 1_655 S
C201 C203 1.345 . S
C202 C201 1.410 1_455 S
C202 C204 1.417 . S
C202 C234 1.432 . S
C203 H189 0.930 . S
C203 C200 1.407 . S
C203 C201 1.345 . S
C204 N199 1.360 1_455 S
C204 C202 1.417 . S
C204 C208 1.432 . S
H205 C210 0.930 . S
N206 Tb168 2.600 1_455 S
N206 C208 1.359 . S
N206 C209 1.327 . S
C207 H193 0.931 . S
C207 C209 1.392 . S
C207 C210 1.370 . S
C208 C204 1.432 . S
C208 N206 1.359 . S
C208 C211 1.414 . S
C209 H191 0.930 . S
C209 N206 1.327 . S
C209 C207 1.392 . S
C210 H205 0.930 . S
C210 C207 1.370 . S
C210 C211 1.385 . S
C211 C208 1.414 . S
C211 C210 1.385 . S
C211 C233 1.444 . S
O212 Tb168 2.546 . S
O212 C232 1.251 . S
O213 Tb168 2.610 . S
O213 Tb179 2.362 1_655 S
O213 C224 1.283 . S
O214 Tb179 2.421 1_655 S
O214 C231 1.262 . S
O215 Tb168 2.320 . S
O215 C231 1.260 . S
O216 Tb168 2.552 . S
O216 C224 1.243 . S
O217 Tb168 2.413 . S
O217 C232 1.256 . S
O218 Tb179 2.546 . S
O218 C243 1.251 . S
O219 Tb168 2.362 1_455 S
O219 Tb179 2.610 . S
O219 C235 1.283 . S
O220 Tb168 2.421 1_455 S
O220 C242 1.262 . S
O221 Tb179 2.320 . S
O221 C242 1.260 . S
O222 Tb179 2.552 . S
O222 C235 1.243 . S
O223 Tb179 2.413 . S
O223 C243 1.256 . S
C224 O213 1.283 . S
C224 O216 1.243 . S
C225 C227 1.382 . S
C225 C229 1.393 . S
C225 C232 1.500 . S
C226 C227 1.400 . S
C226 C228 1.384 . S
C227 C225 1.382 . S
C227 C226 1.400 . S
C227 H244 0.930 . S
C228 C226 1.384 . S
C228 C230 1.392 . S
C228 H245 0.931 . S
C229 C225 1.393 . S
C229 C230 1.401 . S
C229 H246 0.930 . S
C230 C228 1.392 . S
C230 C229 1.401 . S
C230 H247 0.930 . S
C231 O214 1.262 . S
C231 O215 1.260 . S
C232 Tb168 2.833 . S
C232 O212 1.251 . S
C232 O217 1.256 . S
C232 C225 1.500 . S
C233 H198 0.929 . S
C233 C211 1.444 . S
C233 C234 1.317 . S
C234 H196 0.930 . S
C234 C202 1.432 . S
C234 C233 1.317 . S
C235 O219 1.283 . S
C235 O222 1.243 . S
C236 C237 1.382 . S
C236 C240 1.393 . S
C236 C243 1.500 . S
C237 C236 1.382 . S
C237 C238 1.400 . S
C237 H248 0.930 . S
C238 C237 1.400 . S
C238 C239 1.384 . S
C239 C238 1.384 . S
C239 C241 1.392 . S
C239 H249 0.931 . S
C240 C236 1.393 . S
C240 C241 1.401 . S
C240 H250 0.930 . S
C241 C239 1.392 . S
C241 C240 1.401 . S
C241 H251 0.930 . S
C242 O220 1.262 . S
C242 O221 1.260 . S
C243 Tb179 2.833 . S
C243 O218 1.251 . S
C243 O223 1.256 . S
C243 C236 1.500 . S
H244 C227 0.930 . S
H245 C228 0.931 . S
H246 C229 0.930 . S
H247 C230 0.930 . S
H248 C237 0.930 . S
H249 C239 0.931 . S
H250 C240 0.930 . S
H251 C241 0.930 . S
Tb252 N283 2.660 . S
Tb252 N290 2.600 1_565 S
Tb252 O296 2.546 . S
Tb252 O297 2.610 . S
Tb252 O299 2.320 . S
Tb252 O300 2.552 . S
Tb252 O301 2.413 . S
Tb252 O303 2.362 1_565 S
Tb252 O304 2.421 1_565 S
Tb252 C316 2.833 . S
C253 C256 1.432 . S
C253 C257 1.414 . S
C253 N260 1.359 . S
C254 C256 1.417 . S
C254 C258 1.432 . S
C254 C266 1.413 . S
C255 C257 1.444 . S
C255 C258 1.317 . S
C255 H278 0.929 . S
C256 C253 1.432 . S
C256 C254 1.417 . S
C256 N264 1.360 1_565 S
C257 C253 1.414 . S
C257 C255 1.444 . S
C257 C262 1.385 . S
C258 C254 1.432 . S
C258 C255 1.317 . S
C258 H270 0.930 . S
C259 C261 1.392 . S
C259 C262 1.370 . S
C259 H271 0.931 . S
N260 C253 1.359 . S
N260 C261 1.327 . S
N260 Tb263 2.600 1_565 S
C261 C259 1.392 . S
C261 N260 1.327 . S
C261 H268 0.930 . S
C262 C257 1.385 . S
C262 C259 1.370 . S
C262 H281 0.930 . S
Tb263 N260 2.600 1_545 S
Tb263 N264 2.660 . S
Tb263 O297 2.362 1_545 S
Tb263 O298 2.421 1_545 S
Tb263 O302 2.546 . S
Tb263 O303 2.610 . S
Tb263 O305 2.320 . S
Tb263 O306 2.552 . S
Tb263 O307 2.413 . S
Tb263 C327 2.833 . S
N264 C256 1.360 1_545 S
N264 Tb263 2.660 . S
N264 C265 1.305 . S
C265 N264 1.305 . S
C265 C267 1.407 . S
C265 H272 0.930 . S
C266 C254 1.413 . S
C266 C267 1.338 1_565 S
C266 H274 0.934 . S
C267 C265 1.407 . S
C267 C266 1.338 1_545 S
C267 H269 0.930 . S
H268 C261 0.930 . S
H269 C267 0.930 . S
H270 C258 0.930 . S
H271 C259 0.931 . S
H272 C265 0.930 . S
H273 C287 0.930 . S
H274 C266 0.934 . S
H275 C293 0.930 . S
H276 C284 0.930 . S
H277 C291 0.931 . S
H278 C255 0.929 . S
H279 C285 0.930 . S
H280 C318 0.930 . S
H281 C262 0.930 . S
H282 C317 0.929 . S
N283 Tb252 2.660 . S
N283 C284 1.305 . S
N283 C288 1.360 1_565 S
C284 H276 0.930 . S
C284 N283 1.305 . S
C284 C287 1.407 . S
C285 H279 0.930 . S
C285 C286 1.410 . S
C285 C287 1.345 1_545 S
C286 C285 1.410 . S
C286 C288 1.417 . S
C286 C318 1.432 . S
C287 H273 0.930 . S
C287 C284 1.407 . S
C287 C285 1.345 1_565 S
C288 N283 1.360 1_545 S
C288 C286 1.417 . S
C288 C292 1.432 . S
H289 C294 0.930 . S
N290 Tb252 2.600 1_545 S
N290 C292 1.359 . S
N290 C293 1.327 . S
C291 H277 0.931 . S
C291 C293 1.392 . S
C291 C294 1.370 . S
C292 C288 1.432 . S
C292 N290 1.359 . S
C292 C295 1.414 . S
C293 H275 0.930 . S
C293 N290 1.327 . S
C293 C291 1.392 . S
C294 H289 0.930 . S
C294 C291 1.370 . S
C294 C295 1.385 . S
C295 C292 1.414 . S
C295 C294 1.385 . S
C295 C317 1.444 . S
O296 Tb252 2.546 . S
O296 C316 1.251 . S
O297 Tb252 2.610 . S
O297 Tb263 2.362 1_565 S
O297 C308 1.283 . S
O298 Tb263 2.421 1_565 S
O298 C315 1.262 . S
O299 Tb252 2.320 . S
O299 C315 1.260 . S
O300 Tb252 2.552 . S
O300 C308 1.243 . S
O301 Tb252 2.413 . S
O301 C316 1.256 . S
O302 Tb263 2.546 . S
O302 C327 1.251 . S
O303 Tb252 2.362 1_545 S
O303 Tb263 2.610 . S
O303 C319 1.283 . S
O304 Tb252 2.421 1_545 S
O304 C326 1.262 . S
O305 Tb263 2.320 . S
O305 C326 1.260 . S
O306 Tb263 2.552 . S
O306 C319 1.243 . S
O307 Tb263 2.413 . S
O307 C327 1.256 . S
C308 O297 1.283 . S
C308 O300 1.243 . S
C309 C311 1.382 . S
C309 C313 1.393 . S
C309 C316 1.500 . S
C310 C311 1.400 . S
C310 C312 1.384 . S
C311 C309 1.382 . S
C311 C310 1.400 . S
C311 H328 0.930 . S
C312 C310 1.384 . S
C312 C314 1.392 . S
C312 H329 0.931 . S
C313 C309 1.393 . S
C313 C314 1.401 . S
C313 H330 0.930 . S
C314 C312 1.392 . S
C314 C313 1.401 . S
C314 H331 0.930 . S
C315 O298 1.262 . S
C315 O299 1.260 . S
C316 Tb252 2.833 . S
C316 O296 1.251 . S
C316 O301 1.256 . S
C316 C309 1.500 . S
C317 H282 0.929 . S
C317 C295 1.444 . S
C317 C318 1.317 . S
C318 H280 0.930 . S
C318 C286 1.432 . S
C318 C317 1.317 . S
C319 O303 1.283 . S
C319 O306 1.243 . S
C320 C321 1.382 . S
C320 C324 1.393 . S
C320 C327 1.500 . S
C321 C320 1.382 . S
C321 C322 1.400 . S
C321 H332 0.930 . S
C322 C321 1.400 . S
C322 C323 1.384 . S
C323 C322 1.384 . S
C323 C325 1.392 . S
C323 H333 0.931 . S
C324 C320 1.393 . S
C324 C325 1.401 . S
C324 H334 0.930 . S
C325 C323 1.392 . S
C325 C324 1.401 . S
C325 H335 0.930 . S
C326 O304 1.262 . S
C326 O305 1.260 . S
C327 Tb263 2.833 . S
C327 O302 1.251 . S
C327 O307 1.256 . S
C327 C320 1.500 . S
H328 C311 0.930 . S
H329 C312 0.931 . S
H330 C313 0.930 . S
H331 C314 0.930 . S
H332 C321 0.930 . S
H333 C323 0.931 . S
H334 C324 0.930 . S
H335 C325 0.930 . S
Tb336 N367 2.660 . S
Tb336 N374 2.600 . S
Tb336 O380 2.546 . S
Tb336 O381 2.610 . S
Tb336 O383 2.320 . S
Tb336 O384 2.552 . S
Tb336 O385 2.413 . S
Tb336 O387 2.362 . S
Tb336 O388 2.421 . S
Tb336 C400 2.833 . S
C337 C340 1.432 . S
C337 C341 1.414 . S
C337 N344 1.359 . S
C338 C340 1.417 . S
C338 C342 1.432 . S
C338 C350 1.410 . S
C339 C341 1.444 . S
C339 C342 1.317 . S
C339 H362 0.929 . S
C340 C337 1.432 . S
C340 C338 1.417 . S
C340 N348 1.360 . S
C341 C337 1.414 . S
C341 C339 1.444 . S
C341 C346 1.385 . S
C342 C338 1.432 . S
C342 C339 1.317 . S
C342 H354 0.930 . S
C343 C345 1.392 1_556 S
C343 C346 1.370 1_556 S
C343 H355 0.931 . S
N344 C337 1.359 . S
N344 C345 1.327 . S
N344 Tb347 2.600 . S
C345 C343 1.392 1_554 S
C345 N344 1.327 . S
C345 H352 0.930 1_554 S
C346 C341 1.385 . S
C346 C343 1.370 1_554 S
C346 H365 0.897 1_554 S
Tb347 N344 2.600 . S
Tb347 N348 2.660 . S
Tb347 O381 2.362 . S
Tb347 O382 2.421 . S
Tb347 O386 2.546 1_554 S
Tb347 O387 2.610 . S
Tb347 O389 2.320 . S
Tb347 O390 2.552 . S
Tb347 O391 2.413 . S
Tb347 C411 2.833 . S
N348 C340 1.360 . S
N348 Tb347 2.660 . S
N348 C349 1.305 . S
C349 N348 1.305 . S
C349 C351 1.407 . S
C349 H356 0.930 . S
C350 C338 1.410 . S
C350 C351 1.345 . S
C350 H358 0.930 . S
C351 C349 1.407 . S
C351 C350 1.345 . S
C351 H353 0.930 . S
H352 C345 0.930 1_556 S
H353 C351 0.930 . S
H354 C342 0.930 . S
H355 C343 0.931 . S
H356 C349 0.930 . S
H357 C371 0.930 . S
H358 C350 0.930 . S
H359 C377 0.930 . S
H360 C368 0.930 . S
H361 C375 0.931 . S
H362 C339 0.929 . S
H363 C369 0.930 . S
H364 C402 0.930 . S
H365 C346 0.897 1_556 S
H366 C401 0.929 . S
N367 Tb336 2.660 . S
N367 C368 1.305 . S
N367 C372 1.360 . S
C368 H360 0.930 . S
C368 N367 1.305 . S
C368 C371 1.407 . S
C369 H363 0.930 . S
C369 C370 1.410 . S
C369 C371 1.345 . S
C370 C369 1.410 . S
C370 C372 1.417 . S
C370 C402 1.432 . S
C371 H357 0.930 . S
C371 C368 1.407 . S
C371 C369 1.345 . S
C372 N367 1.360 . S
C372 C370 1.417 . S
C372 C376 1.432 . S
H373 C378 0.930 . S
N374 Tb336 2.600 . S
N374 C376 1.359 . S
N374 C377 1.327 . S
C375 H361 0.931 . S
C375 C377 1.392 . S
C375 C378 1.370 . S
C376 C372 1.432 . S
C376 N374 1.359 . S
C376 C379 1.414 . S
C377 H359 0.930 . S
C377 N374 1.327 . S
C377 C375 1.392 . S
C378 H373 0.930 . S
C378 C375 1.370 . S
C378 C379 1.385 . S
C379 C376 1.414 . S
C379 C378 1.385 . S
C379 C401 1.444 . S
O380 Tb336 2.546 . S
O380 C400 1.251 . S
O381 Tb336 2.610 . S
O381 Tb347 2.362 . S
O381 C392 1.283 . S
O382 Tb347 2.421 . S
O382 C399 1.262 . S
O383 Tb336 2.320 . S
O383 C399 1.260 . S
O384 Tb336 2.552 . S
O384 C392 1.243 . S
O385 Tb336 2.413 . S
O385 C400 1.256 . S
O386 Tb347 2.546 1_556 S
O386 C411 1.251 1_556 S
O387 Tb336 2.362 . S
O387 Tb347 2.610 . S
O387 C403 1.283 . S
O388 Tb336 2.421 . S
O388 C410 1.262 . S
O389 Tb347 2.320 . S
O389 C410 1.260 . S
O390 Tb347 2.552 . S
O390 C403 1.243 . S
O391 Tb347 2.413 . S
O391 C411 1.256 . S
C392 O381 1.283 . S
C392 O384 1.243 . S
C393 C395 1.382 . S
C393 C397 1.393 . S
C393 C400 1.500 . S
C394 C395 1.400 . S
C394 C396 1.384 . S
C395 C393 1.382 . S
C395 C394 1.400 . S
C395 H412 0.930 . S
C396 C394 1.384 . S
C396 C398 1.392 . S
C396 H413 0.931 . S
C397 C393 1.393 . S
C397 C398 1.401 . S
C397 H414 0.930 . S
C398 C396 1.392 . S
C398 C397 1.401 . S
C398 H415 0.930 . S
C399 O382 1.262 . S
C399 O383 1.260 . S
C400 Tb336 2.833 . S
C400 O380 1.251 . S
C400 O385 1.256 . S
C400 C393 1.500 . S
C401 H366 0.929 . S
C401 C379 1.444 . S
C401 C402 1.317 . S
C402 H364 0.930 . S
C402 C370 1.432 . S
C402 C401 1.317 . S
C403 O387 1.283 . S
C403 O390 1.243 . S
C404 C405 1.382 . S
C404 C408 1.393 . S
C404 C411 1.500 1_556 S
C405 C404 1.382 . S
C405 C406 1.400 . S
C405 H416 0.930 1_556 S
C406 C405 1.400 . S
C406 C407 1.384 . S
C407 C406 1.384 . S
C407 C409 1.392 . S
C407 H417 0.931 . S
C408 C404 1.393 . S
C408 C409 1.401 . S
C408 H418 0.930 . S
C409 C407 1.392 . S
C409 C408 1.401 . S
C409 H419 0.930 . S
C410 O388 1.262 . S
C410 O389 1.260 . S
C411 Tb347 2.833 . S
C411 O386 1.251 1_554 S
C411 O391 1.256 . S
C411 C404 1.500 1_554 S
H412 C395 0.930 . S
H413 C396 0.931 . S
H414 C397 0.930 . S
H415 C398 0.930 . S
H416 C405 0.930 1_554 S
H417 C407 0.931 . S
H418 C408 0.930 . S
H419 C409 0.930 . S
Tb420 N451 2.660 . S
Tb420 N458 2.600 1_455 S
Tb420 O464 2.546 . S
Tb420 O465 2.610 . S
Tb420 O467 2.320 . S
Tb420 O468 2.552 . S
Tb420 O469 2.413 . S
Tb420 O471 2.362 1_455 S
Tb420 O472 2.421 1_455 S
Tb420 C484 2.833 . S
C421 C424 1.432 . S
C421 C425 1.414 . S
C421 N428 1.359 . S
C422 C424 1.417 . S
C422 C426 1.432 . S
C422 C434 1.410 1_455 S
C423 C425 1.444 . S
C423 C426 1.317 . S
C423 H446 0.929 . S
C424 C421 1.432 . S
C424 C422 1.417 . S
C424 N432 1.360 1_455 S
C425 C421 1.414 . S
C425 C423 1.444 . S
C425 C430 1.385 . S
C426 C422 1.432 . S
C426 C423 1.317 . S
C426 H438 0.930 . S
C427 C429 1.392 . S
C427 C430 1.370 . S
C427 H439 0.931 . S
N428 C421 1.359 . S
N428 C429 1.327 . S
N428 Tb431 2.600 1_455 S
C429 C427 1.392 . S
C429 N428 1.327 . S
C429 H436 0.930 . S
C430 C425 1.385 . S
C430 C427 1.370 . S
C430 H449 0.930 . S
Tb431 N428 2.600 1_655 S
Tb431 N432 2.660 . S
Tb431 O465 2.362 1_655 S
Tb431 O466 2.421 1_655 S
Tb431 O470 2.546 . S
Tb431 O471 2.610 . S
Tb431 O473 2.320 . S
Tb431 O474 2.552 . S
Tb431 O475 2.413 . S
Tb431 C495 2.833 . S
N432 C424 1.360 1_655 S
N432 Tb431 2.660 . S
N432 C433 1.305 . S
C433 N432 1.305 . S
C433 C435 1.407 . S
C433 H440 0.930 . S
C434 C422 1.410 1_655 S
C434 C435 1.345 . S
C434 H442 0.931 . S
C435 C433 1.407 . S
C435 C434 1.345 . S
C435 H437 0.930 . S
H436 C429 0.930 . S
H437 C435 0.930 . S
H438 C426 0.930 . S
H439 C427 0.931 . S
H440 C433 0.930 . S
H441 C455 0.930 . S
H442 C434 0.931 . S
H443 C461 0.930 . S
H444 C452 0.930 . S
H445 C459 0.931 . S
H446 C423 0.929 . S
H447 C453 0.928 . S
H448 C486 0.930 . S
H449 C430 0.930 . S
H450 C485 0.929 . S
N451 Tb420 2.660 . S
N451 C452 1.305 . S
N451 C456 1.360 1_455 S
C452 H444 0.930 . S
C452 N451 1.305 . S
C452 C455 1.407 . S
C453 H447 0.928 . S
C453 C454 1.410 1_455 S
C453 C455 1.345 . S
C454 C453 1.410 1_655 S
C454 C456 1.417 . S
C454 C486 1.432 . S
C455 H441 0.930 . S
C455 C452 1.407 . S
C455 C453 1.345 . S
C456 N451 1.360 1_655 S
C456 C454 1.417 . S
C456 C460 1.432 . S
H457 C462 0.930 . S
N458 Tb420 2.600 1_655 S
N458 C460 1.359 . S
N458 C461 1.327 . S
C459 H445 0.931 . S
C459 C461 1.392 . S
C459 C462 1.370 . S
C460 C456 1.432 . S
C460 N458 1.359 . S
C460 C463 1.414 . S
C461 H443 0.930 . S
C461 N458 1.327 . S
C461 C459 1.392 . S
C462 H457 0.930 . S
C462 C459 1.370 . S
C462 C463 1.385 . S
C463 C460 1.414 . S
C463 C462 1.385 . S
C463 C485 1.444 . S
O464 Tb420 2.546 . S
O464 C484 1.251 . S
O465 Tb420 2.610 . S
O465 Tb431 2.362 1_455 S
O465 C476 1.283 . S
O466 Tb431 2.421 1_455 S
O466 C483 1.262 . S
O467 Tb420 2.320 . S
O467 C483 1.260 . S
O468 Tb420 2.552 . S
O468 C476 1.243 . S
O469 Tb420 2.413 . S
O469 C484 1.256 . S
O470 Tb431 2.546 . S
O470 C495 1.251 . S
O471 Tb420 2.362 1_655 S
O471 Tb431 2.610 . S
O471 C487 1.283 . S
O472 Tb420 2.421 1_655 S
O472 C494 1.262 . S
O473 Tb431 2.320 . S
O473 C494 1.260 . S
O474 Tb431 2.552 . S
O474 C487 1.243 . S
O475 Tb431 2.413 . S
O475 C495 1.256 . S
C476 O465 1.283 . S
C476 O468 1.243 . S
C477 C479 1.382 . S
C477 C481 1.393 . S
C477 C484 1.500 . S
C478 C479 1.400 . S
C478 C480 1.384 . S
C479 C477 1.382 . S
C479 C478 1.400 . S
C479 H496 0.930 . S
C480 C478 1.384 . S
C480 C482 1.392 . S
C480 H497 0.931 . S
C481 C477 1.393 . S
C481 C482 1.401 . S
C481 H498 0.930 . S
C482 C480 1.392 . S
C482 C481 1.401 . S
C482 H499 0.930 . S
C483 O466 1.262 . S
C483 O467 1.260 . S
C484 Tb420 2.833 . S
C484 O464 1.251 . S
C484 O469 1.256 . S
C484 C477 1.500 . S
C485 H450 0.929 . S
C485 C463 1.444 . S
C485 C486 1.317 . S
C486 H448 0.930 . S
C486 C454 1.432 . S
C486 C485 1.317 . S
C487 O471 1.283 . S
C487 O474 1.243 . S
C488 C489 1.382 . S
C488 C492 1.393 . S
C488 C495 1.500 . S
C489 C488 1.382 . S
C489 C490 1.400 . S
C489 H500 0.930 . S
C490 C489 1.400 . S
C490 C491 1.384 . S
C491 C490 1.384 . S
C491 C493 1.392 . S
C491 H501 0.931 . S
C492 C488 1.393 . S
C492 C493 1.401 . S
C492 H502 0.930 . S
C493 C491 1.392 . S
C493 C492 1.401 . S
C493 H503 0.930 . S
C494 O472 1.262 . S
C494 O473 1.260 . S
C495 Tb431 2.833 . S
C495 O470 1.251 . S
C495 O475 1.256 . S
C495 C488 1.500 . S
H496 C479 0.930 . S
H497 C480 0.931 . S
H498 C481 0.930 . S
H499 C482 0.930 . S
H500 C489 0.930 . S
H501 C491 0.931 . S
H502 C492 0.930 . S
H503 C493 0.930 . S
Tb504 N535 2.660 . S
Tb504 N542 2.600 1_655 S
Tb504 O548 2.546 . S
Tb504 O549 2.610 . S
Tb504 O551 2.320 . S
Tb504 O552 2.552 . S
Tb504 O553 2.413 . S
Tb504 O555 2.362 1_655 S
Tb504 O556 2.421 1_655 S
Tb504 C568 2.833 . S
C505 C508 1.432 . S
C505 C509 1.414 . S
C505 N512 1.359 . S
C506 C508 1.417 . S
C506 C510 1.432 . S
C506 C518 1.413 . S
C507 C509 1.444 . S
C507 C510 1.317 . S
C507 H530 0.929 . S
C508 C505 1.432 . S
C508 C506 1.417 . S
C508 N516 1.360 1_655 S
C509 C505 1.414 . S
C509 C507 1.444 . S
C509 C514 1.385 . S
C510 C506 1.432 . S
C510 C507 1.317 . S
C510 H522 0.930 . S
C511 C513 1.392 . S
C511 C514 1.370 . S
C511 H523 0.931 . S
N512 C505 1.359 . S
N512 C513 1.327 . S
N512 Tb515 2.600 1_655 S
C513 C511 1.392 . S
C513 N512 1.327 . S
C513 H520 0.930 . S
C514 C509 1.385 . S
C514 C511 1.370 . S
C514 H533 0.930 . S
Tb515 N512 2.600 1_455 S
Tb515 N516 2.660 . S
Tb515 O549 2.362 1_455 S
Tb515 O550 2.421 1_455 S
Tb515 O554 2.546 . S
Tb515 O555 2.610 . S
Tb515 O557 2.320 . S
Tb515 O558 2.552 . S
Tb515 O559 2.413 . S
Tb515 C579 2.833 . S
N516 C508 1.360 1_455 S
N516 Tb515 2.660 . S
N516 C517 1.305 . S
C517 N516 1.305 . S
C517 C519 1.407 . S
C517 H524 0.930 . S
C518 C506 1.413 . S
C518 C519 1.338 1_655 S
C518 H526 0.934 . S
C519 C517 1.407 . S
C519 C518 1.338 1_455 S
C519 H521 0.930 . S
H520 C513 0.930 . S
H521 C519 0.930 . S
H522 C510 0.930 . S
H523 C511 0.931 . S
H524 C517 0.930 . S
H525 C539 0.930 . S
H526 C518 0.934 . S
H527 C545 0.930 . S
H528 C536 0.930 . S
H529 C543 0.931 . S
H530 C507 0.929 . S
H531 C537 0.930 . S
H532 C570 0.930 . S
H533 C514 0.930 . S
H534 C569 0.929 . S
N535 Tb504 2.660 . S
N535 C536 1.305 . S
N535 C540 1.360 1_655 S
C536 H528 0.930 . S
C536 N535 1.305 . S
C536 C539 1.407 . S
C537 H531 0.930 . S
C537 C538 1.410 . S
C537 C539 1.345 1_455 S
C538 C537 1.410 . S
C538 C540 1.417 . S
C538 C570 1.432 . S
C539 H525 0.930 . S
C539 C536 1.407 . S
C539 C537 1.345 1_655 S
C540 N535 1.360 1_455 S
C540 C538 1.417 . S
C540 C544 1.432 . S
H541 C546 0.930 . S
N542 Tb504 2.600 1_455 S
N542 C544 1.359 . S
N542 C545 1.327 . S
C543 H529 0.931 . S
C543 C545 1.392 . S
C543 C546 1.370 . S
C544 C540 1.432 . S
C544 N542 1.359 . S
C544 C547 1.414 . S
C545 H527 0.930 . S
C545 N542 1.327 . S
C545 C543 1.392 . S
C546 H541 0.930 . S
C546 C543 1.370 . S
C546 C547 1.385 . S
C547 C544 1.414 . S
C547 C546 1.385 . S
C547 C569 1.444 . S
O548 Tb504 2.546 . S
O548 C568 1.251 . S
O549 Tb504 2.610 . S
O549 Tb515 2.362 1_655 S
O549 C560 1.283 . S
O550 Tb515 2.421 1_655 S
O550 C567 1.262 . S
O551 Tb504 2.320 . S
O551 C567 1.260 . S
O552 Tb504 2.552 . S
O552 C560 1.243 . S
O553 Tb504 2.413 . S
O553 C568 1.256 . S
O554 Tb515 2.546 . S
O554 C579 1.251 . S
O555 Tb504 2.362 1_455 S
O555 Tb515 2.610 . S
O555 C571 1.283 . S
O556 Tb504 2.421 1_455 S
O556 C578 1.262 . S
O557 Tb515 2.320 . S
O557 C578 1.260 . S
O558 Tb515 2.552 . S
O558 C571 1.243 . S
O559 Tb515 2.413 . S
O559 C579 1.256 . S
C560 O549 1.283 . S
C560 O552 1.243 . S
C561 C563 1.382 . S
C561 C565 1.393 . S
C561 C568 1.500 . S
C562 C563 1.400 . S
C562 C564 1.384 . S
C563 C561 1.382 . S
C563 C562 1.400 . S
C563 H580 0.930 . S
C564 C562 1.384 . S
C564 C566 1.392 . S
C564 H581 0.931 . S
C565 C561 1.393 . S
C565 C566 1.401 . S
C565 H582 0.930 . S
C566 C564 1.392 . S
C566 C565 1.401 . S
C566 H583 0.930 . S
C567 O550 1.262 . S
C567 O551 1.260 . S
C568 Tb504 2.833 . S
C568 O548 1.251 . S
C568 O553 1.256 . S
C568 C561 1.500 . S
C569 H534 0.929 . S
C569 C547 1.444 . S
C569 C570 1.317 . S
C570 H532 0.930 . S
C570 C538 1.432 . S
C570 C569 1.317 . S
C571 O555 1.283 . S
C571 O558 1.243 . S
C572 C573 1.382 . S
C572 C576 1.393 . S
C572 C579 1.500 . S
C573 C572 1.382 . S
C573 C574 1.400 . S
C573 H584 0.930 . S
C574 C573 1.400 . S
C574 C575 1.384 . S
C575 C574 1.384 . S
C575 C577 1.392 . S
C575 H585 0.931 . S
C576 C572 1.393 . S
C576 C577 1.401 . S
C576 H586 0.930 . S
C577 C575 1.392 . S
C577 C576 1.401 . S
C577 H587 0.930 . S
C578 O556 1.262 . S
C578 O557 1.260 . S
C579 Tb515 2.833 . S
C579 O554 1.251 . S
C579 O559 1.256 . S
C579 C572 1.500 . S
H580 C563 0.930 . S
H581 C564 0.931 . S
H582 C565 0.930 . S
H583 C566 0.930 . S
H584 C573 0.930 . S
H585 C575 0.931 . S
H586 C576 0.930 . S
H587 C577 0.930 . S
Tb588 N619 2.660 . S
Tb588 N626 2.600 1_565 S
Tb588 O632 2.546 . S
Tb588 O633 2.610 . S
Tb588 O635 2.320 . S
Tb588 O636 2.552 . S
Tb588 O637 2.413 . S
Tb588 O639 2.362 1_565 S
Tb588 O640 2.421 1_565 S
Tb588 C652 2.833 . S
C589 C592 1.432 . S
C589 C593 1.414 . S
C589 N596 1.359 . S
C590 C592 1.417 . S
C590 C594 1.432 . S
C590 C602 1.410 1_565 S
C591 C593 1.444 . S
C591 C594 1.317 . S
C591 H614 0.929 . S
C592 C589 1.432 . S
C592 C590 1.417 . S
C592 N600 1.360 1_565 S
C593 C589 1.414 . S
C593 C591 1.444 . S
C593 C598 1.385 . S
C594 C590 1.432 . S
C594 C591 1.317 . S
C594 H606 0.930 . S
C595 C597 1.392 . S
C595 C598 1.370 . S
C595 H607 0.931 . S
N596 C589 1.359 . S
N596 C597 1.327 . S
N596 Tb599 2.600 1_565 S
C597 C595 1.392 . S
C597 N596 1.327 . S
C597 H604 0.930 . S
C598 C593 1.385 . S
C598 C595 1.370 . S
C598 H617 0.930 . S
Tb599 N596 2.600 1_545 S
Tb599 N600 2.660 . S
Tb599 O633 2.362 1_545 S
Tb599 O634 2.421 1_545 S
Tb599 O638 2.546 . S
Tb599 O639 2.610 . S
Tb599 O641 2.320 . S
Tb599 O642 2.552 . S
Tb599 O643 2.413 . S
Tb599 C663 2.833 . S
N600 C592 1.360 1_545 S
N600 Tb599 2.660 . S
N600 C601 1.305 . S
C601 N600 1.305 . S
C601 C603 1.407 . S
C601 H608 0.930 . S
C602 C590 1.410 1_545 S
C602 C603 1.345 . S
C602 H610 0.931 . S
C603 C601 1.407 . S
C603 C602 1.345 . S
C603 H605 0.930 . S
H604 C597 0.930 . S
H605 C603 0.930 . S
H606 C594 0.930 . S
H607 C595 0.931 . S
H608 C601 0.930 . S
H609 C623 0.930 . S
H610 C602 0.931 . S
H611 C629 0.930 . S
H612 C620 0.930 . S
H613 C627 0.931 . S
H614 C591 0.929 . S
H615 C621 0.928 . S
H616 C654 0.930 . S
H617 C598 0.930 . S
H618 C653 0.929 . S
N619 Tb588 2.660 . S
N619 C620 1.305 . S
N619 C624 1.360 1_565 S
C620 H612 0.930 . S
C620 N619 1.305 . S
C620 C623 1.407 . S
C621 H615 0.928 . S
C621 C622 1.410 1_565 S
C621 C623 1.345 . S
C622 C621 1.410 1_545 S
C622 C624 1.417 . S
C622 C654 1.432 . S
C623 H609 0.930 . S
C623 C620 1.407 . S
C623 C621 1.345 . S
C624 N619 1.360 1_545 S
C624 C622 1.417 . S
C624 C628 1.432 . S
H625 C630 0.930 . S
N626 Tb588 2.600 1_545 S
N626 C628 1.359 . S
N626 C629 1.327 . S
C627 H613 0.931 . S
C627 C629 1.392 . S
C627 C630 1.370 . S
C628 C624 1.432 . S
C628 N626 1.359 . S
C628 C631 1.414 . S
C629 H611 0.930 . S
C629 N626 1.327 . S
C629 C627 1.392 . S
C630 H625 0.930 . S
C630 C627 1.370 . S
C630 C631 1.385 . S
C631 C628 1.414 . S
C631 C630 1.385 . S
C631 C653 1.444 . S
O632 Tb588 2.546 . S
O632 C652 1.251 . S
O633 Tb588 2.610 . S
O633 Tb599 2.362 1_565 S
O633 C644 1.283 . S
O634 Tb599 2.421 1_565 S
O634 C651 1.262 . S
O635 Tb588 2.320 . S
O635 C651 1.260 . S
O636 Tb588 2.552 . S
O636 C644 1.243 . S
O637 Tb588 2.413 . S
O637 C652 1.256 . S
O638 Tb599 2.546 . S
O638 C663 1.251 . S
O639 Tb588 2.362 1_545 S
O639 Tb599 2.610 . S
O639 C655 1.283 . S
O640 Tb588 2.421 1_545 S
O640 C662 1.262 . S
O641 Tb599 2.320 . S
O641 C662 1.260 . S
O642 Tb599 2.552 . S
O642 C655 1.243 . S
O643 Tb599 2.413 . S
O643 C663 1.256 . S
C644 O633 1.283 . S
C644 O636 1.243 . S
C645 C647 1.382 . S
C645 C649 1.393 . S
C645 C652 1.500 . S
C646 C647 1.400 . S
C646 C648 1.384 . S
C647 C645 1.382 . S
C647 C646 1.400 . S
C647 H664 0.930 . S
C648 C646 1.384 . S
C648 C650 1.392 . S
C648 H665 0.931 . S
C649 C645 1.393 . S
C649 C650 1.401 . S
C649 H666 0.930 . S
C650 C648 1.392 . S
C650 C649 1.401 . S
C650 H667 0.930 . S
C651 O634 1.262 . S
C651 O635 1.260 . S
C652 Tb588 2.833 . S
C652 O632 1.251 . S
C652 O637 1.256 . S
C652 C645 1.500 . S
C653 H618 0.929 . S
C653 C631 1.444 . S
C653 C654 1.317 . S
C654 H616 0.930 . S
C654 C622 1.432 . S
C654 C653 1.317 . S
C655 O639 1.283 . S
C655 O642 1.243 . S
C656 C657 1.382 . S
C656 C660 1.393 . S
C656 C663 1.500 . S
C657 C656 1.382 . S
C657 C658 1.400 . S
C657 H668 0.930 . S
C658 C657 1.400 . S
C658 C659 1.384 . S
C659 C658 1.384 . S
C659 C661 1.392 . S
C659 H669 0.931 . S
C660 C656 1.393 . S
C660 C661 1.401 . S
C660 H670 0.930 . S
C661 C659 1.392 . S
C661 C660 1.401 . S
C661 H671 0.930 . S
C662 O640 1.262 . S
C662 O641 1.260 . S
C663 Tb599 2.833 . S
C663 O638 1.251 . S
C663 O643 1.256 . S
C663 C656 1.500 . S
H664 C647 0.930 . S
H665 C648 0.931 . S
H666 C649 0.930 . S
H667 C650 0.930 . S
H668 C657 0.930 . S
H669 C659 0.931 . S
H670 C660 0.930 . S
H671 C661 0.930 . S
Tb672 N703 2.660 . S
Tb672 N710 2.600 . S
Tb672 O716 2.546 . S
Tb672 O717 2.610 . S
Tb672 O719 2.320 . S
Tb672 O720 2.552 . S
Tb672 O721 2.413 . S
Tb672 O723 2.362 . S
Tb672 O724 2.421 . S
Tb672 C736 2.833 . S
C673 C676 1.432 . S
C673 C677 1.414 . S
C673 N680 1.359 . S
C674 C676 1.417 . S
C674 C678 1.432 . S
C674 C686 1.410 . S
C675 C677 1.444 . S
C675 C678 1.317 . S
C675 H698 0.929 . S
C676 C673 1.432 . S
C676 C674 1.417 . S
C676 N684 1.360 . S
C677 C673 1.414 . S
C677 C675 1.444 . S
C677 C682 1.385 . S
C678 C674 1.432 . S
C678 C675 1.317 . S
C678 H690 0.930 . S
C679 C681 1.392 . S
C679 C682 1.370 . S
C679 H691 0.931 . S
N680 C673 1.359 . S
N680 C681 1.327 . S
N680 Tb683 2.600 . S
C681 C679 1.392 . S
C681 N680 1.327 . S
C681 H688 0.930 . S
C682 C677 1.385 . S
C682 C679 1.370 . S
C682 H701 0.930 . S
Tb683 N680 2.600 . S
Tb683 N684 2.660 . S
Tb683 O717 2.362 . S
Tb683 O718 2.421 . S
Tb683 O722 2.546 . S
Tb683 O723 2.610 . S
Tb683 O725 2.320 . S
Tb683 O726 2.552 . S
Tb683 O727 2.413 . S
Tb683 C747 2.833 . S
N684 C676 1.360 . S
N684 Tb683 2.660 . S
N684 C685 1.305 . S
C685 N684 1.305 . S
C685 C687 1.407 . S
C685 H692 0.930 . S
C686 C674 1.410 . S
C686 C687 1.345 . S
C686 H694 0.930 . S
C687 C685 1.407 . S
C687 C686 1.345 . S
C687 H689 0.930 . S
H688 C681 0.930 . S
H689 C687 0.930 . S
H690 C678 0.930 . S
H691 C679 0.931 . S
H692 C685 0.930 . S
H693 C707 0.930 . S
H694 C686 0.930 . S
H695 C713 0.930 . S
H696 C704 0.930 . S
H697 C711 0.931 . S
H698 C675 0.929 . S
H699 C705 0.930 . S
H700 C738 0.930 . S
H701 C682 0.930 . S
H702 C737 0.929 . S
N703 Tb672 2.660 . S
N703 C704 1.305 . S
N703 C708 1.360 . S
C704 H696 0.930 . S
C704 N703 1.305 . S
C704 C707 1.407 . S
C705 H699 0.930 . S
C705 C706 1.410 . S
C705 C707 1.345 . S
C706 C705 1.410 . S
C706 C708 1.417 . S
C706 C738 1.432 . S
C707 H693 0.930 . S
C707 C704 1.407 . S
C707 C705 1.345 . S
C708 N703 1.360 . S
C708 C706 1.417 . S
C708 C712 1.432 . S
H709 C714 0.930 . S
N710 Tb672 2.600 . S
N710 C712 1.359 . S
N710 C713 1.327 . S
C711 H697 0.931 . S
C711 C713 1.392 . S
C711 C714 1.370 . S
C712 C708 1.432 . S
C712 N710 1.359 . S
C712 C715 1.414 . S
C713 H695 0.930 . S
C713 N710 1.327 . S
C713 C711 1.392 . S
C714 H709 0.930 . S
C714 C711 1.370 . S
C714 C715 1.385 . S
C715 C712 1.414 . S
C715 C714 1.385 . S
C715 C737 1.444 . S
O716 Tb672 2.546 . S
O716 C736 1.251 . S
O717 Tb672 2.610 . S
O717 Tb683 2.362 . S
O717 C728 1.283 . S
O718 Tb683 2.421 . S
O718 C735 1.262 . S
O719 Tb672 2.320 . S
O719 C735 1.260 . S
O720 Tb672 2.552 . S
O720 C728 1.243 . S
O721 Tb672 2.413 . S
O721 C736 1.256 . S
O722 Tb683 2.546 . S
O722 C747 1.251 . S
O723 Tb672 2.362 . S
O723 Tb683 2.610 . S
O723 C739 1.283 . S
O724 Tb672 2.421 . S
O724 C746 1.262 . S
O725 Tb683 2.320 . S
O725 C746 1.260 . S
O726 Tb683 2.552 . S
O726 C739 1.243 . S
O727 Tb683 2.413 . S
O727 C747 1.256 . S
C728 O717 1.283 . S
C728 O720 1.243 . S
C729 C731 1.382 . S
C729 C733 1.393 . S
C729 C736 1.500 . S
C730 C731 1.400 . S
C730 C732 1.384 . S
C731 C729 1.382 . S
C731 C730 1.400 . S
C731 H748 0.930 . S
C732 C730 1.384 . S
C732 C734 1.392 . S
C732 H749 0.931 . S
C733 C729 1.393 . S
C733 C734 1.401 . S
C733 H750 0.930 . S
C734 C732 1.392 . S
C734 C733 1.401 . S
C734 H751 0.930 . S
C735 O718 1.262 . S
C735 O719 1.260 . S
C736 Tb672 2.833 . S
C736 O716 1.251 . S
C736 O721 1.256 . S
C736 C729 1.500 . S
C737 H702 0.929 . S
C737 C715 1.444 . S
C737 C738 1.317 . S
C738 H700 0.930 . S
C738 C706 1.432 . S
C738 C737 1.317 . S
C739 O723 1.283 . S
C739 O726 1.243 . S
C740 C741 1.382 . S
C740 C744 1.393 . S
C740 C747 1.500 . S
C741 C740 1.382 . S
C741 C742 1.400 . S
C741 H752 0.930 . S
C742 C741 1.400 . S
C742 C743 1.384 . S
C743 C742 1.384 . S
C743 C745 1.392 . S
C743 H753 0.931 . S
C744 C740 1.393 . S
C744 C745 1.401 . S
C744 H754 0.930 . S
C745 C743 1.392 . S
C745 C744 1.401 . S
C745 H755 0.930 . S
C746 O724 1.262 . S
C746 O725 1.260 . S
C747 Tb683 2.833 . S
C747 O722 1.251 . S
C747 O727 1.256 . S
C747 C740 1.500 . S
H748 C731 0.930 . S
H749 C732 0.931 . S
H750 C733 0.930 . S
H751 C734 0.930 . S
H752 C741 0.930 . S
H753 C743 0.931 . S
H754 C744 0.930 . S
H755 C745 0.930 . S
Tb756 N787 2.660 . S
Tb756 N794 2.600 1_455 S
Tb756 O800 2.546 . S
Tb756 O801 2.610 . S
Tb756 O803 2.320 . S
Tb756 O804 2.552 . S
Tb756 O805 2.413 . S
Tb756 O807 2.362 1_455 S
Tb756 O808 2.421 1_455 S
Tb756 C820 2.833 . S
C757 C760 1.432 . S
C757 C761 1.414 . S
C757 N764 1.359 . S
C758 C760 1.417 . S
C758 C762 1.432 . S
C758 C770 1.413 . S
C759 C761 1.444 . S
C759 C762 1.317 . S
C759 H782 0.929 . S
C760 C757 1.432 . S
C760 C758 1.417 . S
C760 N768 1.360 1_455 S
C761 C757 1.414 . S
C761 C759 1.444 . S
C761 C766 1.385 1_556 S
C762 C758 1.432 . S
C762 C759 1.317 . S
C762 H774 0.930 . S
C763 C765 1.392 . S
C763 C766 1.370 . S
C763 H775 0.931 . S
N764 C757 1.359 . S
N764 C765 1.327 1_556 S
N764 Tb767 2.600 1_455 S
C765 C763 1.392 . S
C765 N764 1.327 1_554 S
C765 H772 0.930 . S
C766 C761 1.385 1_554 S
C766 C763 1.370 . S
C766 H785 0.930 . S
Tb767 N764 2.600 1_655 S
Tb767 N768 2.660 . S
Tb767 O801 2.362 1_655 S
Tb767 O802 2.421 1_655 S
Tb767 O806 2.546 1_556 S
Tb767 O807 2.610 . S
Tb767 O809 2.320 . S
Tb767 O810 2.552 . S
Tb767 O811 2.413 . S
Tb767 C831 2.833 1_556 S
N768 C760 1.360 1_655 S
N768 Tb767 2.660 . S
N768 C769 1.305 . S
C769 N768 1.305 . S
C769 C771 1.407 . S
C769 H776 0.930 . S
C770 C758 1.413 . S
C770 C771 1.338 1_455 S
C770 H778 0.934 . S
C771 C769 1.407 . S
C771 C770 1.338 1_655 S
C771 H773 0.930 . S
H772 C765 0.930 . S
H773 C771 0.930 . S
H774 C762 0.930 . S
H775 C763 0.931 . S
H776 C769 0.930 . S
H777 C791 0.930 1_554 S
H778 C770 0.934 . S
H779 C797 0.930 . S
H780 C788 0.930 . S
H781 C795 0.931 . S
H782 C759 0.929 . S
H783 C789 0.930 . S
H784 C822 0.930 . S
H785 C766 0.930 . S
H786 C821 0.929 . S
N787 Tb756 2.660 . S
N787 C788 1.305 . S
N787 C792 1.360 1_455 S
C788 H780 0.930 . S
C788 N787 1.305 . S
C788 C791 1.407 . S
C789 H783 0.930 . S
C789 C790 1.410 . S
C789 C791 1.345 1_655 S
C790 C789 1.410 . S
C790 C792 1.417 . S
C790 C822 1.432 . S
C791 H777 0.930 1_556 S
C791 C788 1.407 . S
C791 C789 1.345 1_455 S
C792 N787 1.360 1_655 S
C792 C790 1.417 . S
C792 C796 1.432 . S
H793 C798 0.930 . S
N794 Tb756 2.600 1_655 S
N794 C796 1.359 . S
N794 C797 1.327 . S
C795 H781 0.931 . S
C795 C797 1.392 . S
C795 C798 1.370 . S
C796 C792 1.432 . S
C796 N794 1.359 . S
C796 C799 1.414 . S
C797 H779 0.930 . S
C797 N794 1.327 . S
C797 C795 1.392 . S
C798 H793 0.930 . S
C798 C795 1.370 . S
C798 C799 1.385 . S
C799 C796 1.414 . S
C799 C798 1.385 . S
C799 C821 1.444 . S
O800 Tb756 2.546 . S
O800 C820 1.251 . S
O801 Tb756 2.610 . S
O801 Tb767 2.362 1_455 S
O801 C812 1.283 . S
O802 Tb767 2.421 1_455 S
O802 C819 1.262 . S
O803 Tb756 2.320 . S
O803 C819 1.260 . S
O804 Tb756 2.552 . S
O804 C812 1.243 . S
O805 Tb756 2.413 . S
O805 C820 1.256 . S
O806 Tb767 2.546 1_554 S
O806 C831 1.251 . S
O807 Tb756 2.362 1_655 S
O807 Tb767 2.610 . S
O807 C823 1.283 . S
O808 Tb756 2.421 1_655 S
O808 C830 1.262 . S
O809 Tb767 2.320 . S
O809 C830 1.260 . S
O810 Tb767 2.552 . S
O810 C823 1.243 . S
O811 Tb767 2.413 . S
O811 C831 1.256 1_556 S
C812 O801 1.283 . S
C812 O804 1.243 . S
C813 C815 1.382 . S
C813 C817 1.393 . S
C813 C820 1.500 . S
C814 C815 1.400 . S
C814 C816 1.384 . S
C815 C813 1.382 . S
C815 C814 1.400 . S
C815 H832 0.930 . S
C816 C814 1.384 . S
C816 C818 1.392 . S
C816 H833 0.931 . S
C817 C813 1.393 . S
C817 C818 1.401 . S
C817 H834 0.930 . S
C818 C816 1.392 . S
C818 C817 1.401 . S
C818 H835 0.930 . S
C819 O802 1.262 . S
C819 O803 1.260 . S
C820 Tb756 2.833 . S
C820 O800 1.251 . S
C820 O805 1.256 . S
C820 C813 1.500 . S
C821 H786 0.929 . S
C821 C799 1.444 . S
C821 C822 1.317 . S
C822 H784 0.930 . S
C822 C790 1.432 . S
C822 C821 1.317 . S
C823 O807 1.283 . S
C823 O810 1.243 . S
C824 C825 1.382 . S
C824 C828 1.393 . S
C824 C831 1.500 . S
C825 C824 1.382 . S
C825 C826 1.400 . S
C825 H836 0.930 . S
C826 C825 1.400 . S
C826 C827 1.384 . S
C827 C826 1.384 . S
C827 C829 1.392 . S
C827 H837 0.931 . S
C828 C824 1.393 . S
C828 C829 1.401 . S
C828 H838 0.930 . S
C829 C827 1.392 . S
C829 C828 1.401 . S
C829 H839 0.930 . S
C830 O808 1.262 . S
C830 O809 1.260 . S
C831 Tb767 2.833 1_554 S
C831 O806 1.251 . S
C831 O811 1.256 1_554 S
C831 C824 1.500 . S
H832 C815 0.930 . S
H833 C816 0.931 . S
H834 C817 0.930 . S
H835 C818 0.930 . S
H836 C825 0.930 . S
H837 C827 0.931 . S
H838 C828 0.930 . S
H839 C829 0.930 . S
Tb840 N871 2.660 . S
Tb840 N878 2.600 1_545 S
Tb840 O884 2.546 . S
Tb840 O885 2.610 . S
Tb840 O887 2.320 . S
Tb840 O888 2.552 . S
Tb840 O889 2.413 . S
Tb840 O891 2.362 1_545 S
Tb840 O892 2.421 1_545 S
Tb840 C904 2.833 . S
C841 C844 1.432 . S
C841 C845 1.414 . S
C841 N848 1.359 . S
C842 C844 1.417 . S
C842 C846 1.432 . S
C842 C854 1.410 1_545 S
C843 C845 1.444 . S
C843 C846 1.317 . S
C843 H866 0.929 . S
C844 C841 1.432 . S
C844 C842 1.417 . S
C844 N852 1.360 1_545 S
C845 C841 1.414 . S
C845 C843 1.444 . S
C845 C850 1.385 . S
C846 C842 1.432 . S
C846 C843 1.317 . S
C846 H858 0.930 . S
C847 C849 1.392 . S
C847 C850 1.370 . S
C847 H859 0.931 . S
N848 C841 1.359 . S
N848 C849 1.327 . S
N848 Tb851 2.600 1_545 S
C849 C847 1.392 . S
C849 N848 1.327 . S
C849 H856 0.930 . S
C850 C845 1.385 . S
C850 C847 1.370 . S
C850 H869 0.930 . S
Tb851 N848 2.600 1_565 S
Tb851 N852 2.660 . S
Tb851 O885 2.362 1_565 S
Tb851 O886 2.421 1_565 S
Tb851 O890 2.546 . S
Tb851 O891 2.610 . S
Tb851 O893 2.320 . S
Tb851 O894 2.552 . S
Tb851 O895 2.413 . S
Tb851 C915 2.833 . S
N852 C844 1.360 1_565 S
N852 Tb851 2.660 . S
N852 C853 1.305 . S
C853 N852 1.305 . S
C853 C855 1.407 . S
C853 H860 0.930 . S
C854 C842 1.410 1_565 S
C854 C855 1.345 . S
C854 H862 0.931 . S
C855 C853 1.407 . S
C855 C854 1.345 . S
C855 H857 0.930 . S
H856 C849 0.930 . S
H857 C855 0.930 . S
H858 C846 0.930 . S
H859 C847 0.931 . S
H860 C853 0.930 . S
H861 C875 0.930 . S
H862 C854 0.931 . S
H863 C881 0.930 . S
H864 C872 0.930 . S
H865 C879 0.931 . S
H866 C843 0.929 . S
H867 C873 0.928 . S
H868 C906 0.930 . S
H869 C850 0.930 . S
H870 C905 0.929 . S
N871 Tb840 2.660 . S
N871 C872 1.305 . S
N871 C876 1.360 1_545 S
C872 H864 0.930 . S
C872 N871 1.305 . S
C872 C875 1.407 . S
C873 H867 0.928 . S
C873 C874 1.410 1_545 S
C873 C875 1.345 . S
C874 C873 1.410 1_565 S
C874 C876 1.417 . S
C874 C906 1.432 . S
C875 H861 0.930 . S
C875 C872 1.407 . S
C875 C873 1.345 . S
C876 N871 1.360 1_565 S
C876 C874 1.417 . S
C876 C880 1.432 . S
H877 C882 0.930 . S
N878 Tb840 2.600 1_565 S
N878 C880 1.359 . S
N878 C881 1.327 . S
C879 H865 0.931 . S
C879 C881 1.392 . S
C879 C882 1.370 . S
C880 C876 1.432 . S
C880 N878 1.359 . S
C880 C883 1.414 . S
C881 H863 0.930 . S
C881 N878 1.327 . S
C881 C879 1.392 . S
C882 H877 0.930 . S
C882 C879 1.370 . S
C882 C883 1.385 . S
C883 C880 1.414 . S
C883 C882 1.385 . S
C883 C905 1.444 . S
O884 Tb840 2.546 . S
O884 C904 1.251 . S
O885 Tb840 2.610 . S
O885 Tb851 2.362 1_545 S
O885 C896 1.283 . S
O886 Tb851 2.421 1_545 S
O886 C903 1.262 . S
O887 Tb840 2.320 . S
O887 C903 1.260 . S
O888 Tb840 2.552 . S
O888 C896 1.243 . S
O889 Tb840 2.413 . S
O889 C904 1.256 . S
O890 Tb851 2.546 . S
O890 C915 1.251 . S
O891 Tb840 2.362 1_565 S
O891 Tb851 2.610 . S
O891 C907 1.283 . S
O892 Tb840 2.421 1_565 S
O892 C914 1.262 . S
O893 Tb851 2.320 . S
O893 C914 1.260 . S
O894 Tb851 2.552 . S
O894 C907 1.243 . S
O895 Tb851 2.413 . S
O895 C915 1.256 . S
C896 O885 1.283 . S
C896 O888 1.243 . S
C897 C899 1.382 . S
C897 C901 1.393 . S
C897 C904 1.500 . S
C898 C899 1.400 . S
C898 C900 1.384 . S
C899 C897 1.382 . S
C899 C898 1.400 . S
C899 H916 0.930 . S
C900 C898 1.384 . S
C900 C902 1.392 . S
C900 H917 0.931 . S
C901 C897 1.393 . S
C901 C902 1.401 . S
C901 H918 0.930 . S
C902 C900 1.392 . S
C902 C901 1.401 . S
C902 H919 0.930 . S
C903 O886 1.262 . S
C903 O887 1.260 . S
C904 Tb840 2.833 . S
C904 O884 1.251 . S
C904 O889 1.256 . S
C904 C897 1.500 . S
C905 H870 0.929 . S
C905 C883 1.444 . S
C905 C906 1.317 . S
C906 H868 0.930 . S
C906 C874 1.432 . S
C906 C905 1.317 . S
C907 O891 1.283 . S
C907 O894 1.243 . S
C908 C909 1.382 . S
C908 C912 1.393 . S
C908 C915 1.500 . S
C909 C908 1.382 . S
C909 C910 1.400 . S
C909 H920 0.930 . S
C910 C909 1.400 . S
C910 C911 1.384 . S
C911 C910 1.384 . S
C911 C913 1.392 . S
C911 H921 0.931 . S
C912 C908 1.393 . S
C912 C913 1.401 . S
C912 H922 0.930 . S
C913 C911 1.392 . S
C913 C912 1.401 . S
C913 H923 0.930 . S
C914 O892 1.262 . S
C914 O893 1.260 . S
C915 Tb851 2.833 . S
C915 O890 1.251 . S
C915 O895 1.256 . S
C915 C908 1.500 . S
H916 C899 0.930 . S
H917 C900 0.931 . S
H918 C901 0.930 . S
H919 C902 0.930 . S
H920 C909 0.930 . S
H921 C911 0.931 . S
H922 C912 0.930 . S
H923 C913 0.930 . S
Tb924 N955 2.660 . S
Tb924 N962 2.600 . S
Tb924 O968 2.546 . S
Tb924 O969 2.610 . S
Tb924 O971 2.320 . S
Tb924 O972 2.552 . S
Tb924 O973 2.413 . S
Tb924 O975 2.362 . S
Tb924 O976 2.421 . S
Tb924 C988 2.833 . S
C925 C928 1.432 . S
C925 C929 1.414 . S
C925 N932 1.359 . S
C926 C928 1.417 . S
C926 C930 1.432 . S
C926 C938 1.410 . S
C927 C929 1.444 . S
C927 C930 1.317 . S
C927 H950 0.929 . S
C928 C925 1.432 . S
C928 C926 1.417 . S
C928 N936 1.360 . S
C929 C925 1.414 . S
C929 C927 1.444 . S
C929 C934 1.385 . S
C930 C926 1.432 . S
C930 C927 1.317 . S
C930 H942 0.930 . S
C931 C933 1.392 . S
C931 C934 1.370 . S
C931 H943 0.931 . S
N932 C925 1.359 . S
N932 C933 1.327 . S
N932 Tb935 2.600 . S
C933 C931 1.392 . S
C933 N932 1.327 . S
C933 H940 0.930 . S
C934 C929 1.385 . S
C934 C931 1.370 . S
C934 H953 0.930 . S
Tb935 N932 2.600 . S
Tb935 N936 2.660 . S
Tb935 O969 2.362 . S
Tb935 O970 2.421 . S
Tb935 O974 2.546 . S
Tb935 O975 2.610 . S
Tb935 O977 2.320 . S
Tb935 O978 2.552 . S
Tb935 O979 2.413 . S
Tb935 C999 2.833 . S
N936 C928 1.360 . S
N936 Tb935 2.660 . S
N936 C937 1.305 . S
C937 N936 1.305 . S
C937 C939 1.407 . S
C937 H944 0.930 . S
C938 C926 1.410 . S
C938 C939 1.345 . S
C938 H946 0.930 . S
C939 C937 1.407 . S
C939 C938 1.345 . S
C939 H941 0.930 . S
H940 C933 0.930 . S
H941 C939 0.930 . S
H942 C930 0.930 . S
H943 C931 0.931 . S
H944 C937 0.930 . S
H945 C959 0.930 . S
H946 C938 0.930 . S
H947 C965 0.930 . S
H948 C956 0.930 . S
H949 C963 0.931 . S
H950 C927 0.929 . S
H951 C957 0.930 . S
H952 C990 0.930 . S
H953 C934 0.930 . S
H954 C989 0.929 . S
N955 Tb924 2.660 . S
N955 C956 1.305 . S
N955 C960 1.360 . S
C956 H948 0.930 . S
C956 N955 1.305 . S
C956 C959 1.407 . S
C957 H951 0.930 . S
C957 C958 1.410 . S
C957 C959 1.345 . S
C958 C957 1.410 . S
C958 C960 1.417 . S
C958 C990 1.432 . S
C959 H945 0.930 . S
C959 C956 1.407 . S
C959 C957 1.345 . S
C960 N955 1.360 . S
C960 C958 1.417 . S
C960 C964 1.432 . S
H961 C966 0.930 . S
N962 Tb924 2.600 . S
N962 C964 1.359 . S
N962 C965 1.327 . S
C963 H949 0.931 . S
C963 C965 1.392 . S
C963 C966 1.370 . S
C964 C960 1.432 . S
C964 N962 1.359 . S
C964 C967 1.414 . S
C965 H947 0.930 . S
C965 N962 1.327 . S
C965 C963 1.392 . S
C966 H961 0.930 . S
C966 C963 1.370 . S
C966 C967 1.385 . S
C967 C964 1.414 . S
C967 C966 1.385 . S
C967 C989 1.444 . S
O968 Tb924 2.546 . S
O968 C988 1.251 . S
O969 Tb924 2.610 . S
O969 Tb935 2.362 . S
O969 C980 1.283 . S
O970 Tb935 2.421 . S
O970 C987 1.262 . S
O971 Tb924 2.320 . S
O971 C987 1.260 . S
O972 Tb924 2.552 . S
O972 C980 1.243 . S
O973 Tb924 2.413 . S
O973 C988 1.256 . S
O974 Tb935 2.546 . S
O974 C999 1.251 . S
O975 Tb924 2.362 . S
O975 Tb935 2.610 . S
O975 C991 1.283 . S
O976 Tb924 2.421 . S
O976 C998 1.262 . S
O977 Tb935 2.320 . S
O977 C998 1.260 . S
O978 Tb935 2.552 . S
O978 C991 1.243 . S
O979 Tb935 2.413 . S
O979 C999 1.256 . S
C980 O969 1.283 . S
C980 O972 1.243 . S
C981 C983 1.382 . S
C981 C985 1.393 . S
C981 C988 1.500 . S
C982 C983 1.400 . S
C982 C984 1.384 . S
C983 C981 1.382 . S
C983 C982 1.400 . S
C983 H1000 0.930 . S
C984 C982 1.384 . S
C984 C986 1.392 . S
C984 H1001 0.931 . S
C985 C981 1.393 . S
C985 C986 1.401 . S
C985 H1002 0.930 . S
C986 C984 1.392 . S
C986 C985 1.401 . S
C986 H1003 0.930 . S
C987 O970 1.262 . S
C987 O971 1.260 . S
C988 Tb924 2.833 . S
C988 O968 1.251 . S
C988 O973 1.256 . S
C988 C981 1.500 . S
C989 H954 0.929 . S
C989 C967 1.444 . S
C989 C990 1.317 . S
C990 H952 0.930 . S
C990 C958 1.432 . S
C990 C989 1.317 . S
C991 O975 1.283 . S
C991 O978 1.243 . S
C992 C993 1.382 . S
C992 C996 1.393 . S
C992 C999 1.500 . S
C993 C992 1.382 . S
C993 C994 1.400 . S
C993 H1004 0.930 . S
C994 C993 1.400 . S
C994 C995 1.384 . S
C995 C994 1.384 . S
C995 C997 1.392 . S
C995 H1005 0.931 . S
C996 C992 1.393 . S
C996 C997 1.401 . S
C996 H1006 0.930 . S
C997 C995 1.392 . S
C997 C996 1.401 . S
C997 H1007 0.930 . S
C998 O976 1.262 . S
C998 O977 1.260 . S
C999 Tb935 2.833 . S
C999 O974 1.251 . S
C999 O979 1.256 . S
C999 C992 1.500 . S
H1000 C983 0.930 . S
H1001 C984 0.931 . S
H1002 C985 0.930 . S
H1003 C986 0.930 . S
H1004 C993 0.930 . S
H1005 C995 0.931 . S
H1006 C996 0.930 . S
H1007 C997 0.930 . S
C1008 C1009 1.349 . S
C1008 C1010 1.327 . S
C1008 H1033 0.950 . S
C1009 C1008 1.349 . S
C1009 C1025 1.349 . S
C1010 C1008 1.327 . S
C1010 C1029 1.429 . S
C1010 H1034 0.950 . S
C1011 C1028 1.574 . S
C1011 C1030 1.368 . S
C1011 H1035 0.949 . S
H1012 C1016 0.949 . S
C1013 C1014 1.349 . S
C1013 C1015 1.327 . S
C1013 H1036 0.950 . S
C1014 C1013 1.349 . S
C1014 C1026 1.349 . S
C1015 C1013 1.327 . S
C1015 C1031 1.429 . S
C1015 H1037 0.950 . S
C1016 H1012 0.949 . S
C1016 C1024 1.574 . S
C1016 C1032 1.368 . S
H1017 C1025 0.950 . S
H1018 C1023 0.950 . S
H1019 C1024 0.949 . S
H1020 C1026 0.950 . S
H1021 C1027 0.950 . S
H1022 C1028 0.949 . S
C1023 H1018 0.950 . S
C1023 C1025 1.327 . S
C1023 C1029 1.429 . S
C1024 C1016 1.574 . S
C1024 H1019 0.949 . S
C1024 C1030 1.368 . S
C1025 C1009 1.349 . S
C1025 H1017 0.950 . S
C1025 C1023 1.327 . S
C1026 C1014 1.349 . S
C1026 H1020 0.950 . S
C1026 C1027 1.327 . S
C1027 H1021 0.950 . S
C1027 C1026 1.327 . S
C1027 C1031 1.429 . S
C1028 C1011 1.574 . S
C1028 H1022 0.949 . S
C1028 C1032 1.368 . S
C1029 C1010 1.429 . S
C1029 C1023 1.429 . S
C1029 C1030 1.523 . S
C1030 C1011 1.368 . S
C1030 C1024 1.368 . S
C1030 C1029 1.523 . S
C1031 C1015 1.429 . S
C1031 C1027 1.429 . S
C1031 C1032 1.523 . S
C1032 C1016 1.368 . S
C1032 C1028 1.368 . S
C1032 C1031 1.523 . S
H1033 C1008 0.950 . S
H1034 C1010 0.950 . S
H1035 C1011 0.949 . S
H1036 C1013 0.950 . S
H1037 C1015 0.950 . S
C1038 C1039 1.349 . S
C1038 C1040 1.327 . S
C1038 H1063 0.950 . S
C1039 C1038 1.349 . S
C1039 C1055 1.349 . S
C1040 C1038 1.327 . S
C1040 C1059 1.429 . S
C1040 H1064 0.950 . S
C1041 C1058 1.574 . S
C1041 C1060 1.368 . S
C1041 H1065 0.949 . S
H1042 C1046 0.949 . S
C1043 C1044 1.349 . S
C1043 C1045 1.327 . S
C1043 H1066 0.950 . S
C1044 C1043 1.349 . S
C1044 C1056 1.349 . S
C1045 C1043 1.327 . S
C1045 C1061 1.429 . S
C1045 H1067 0.950 . S
C1046 H1042 0.949 . S
C1046 C1054 1.574 . S
C1046 C1062 1.368 . S
H1047 C1055 0.950 . S
H1048 C1053 0.950 . S
H1049 C1054 0.949 . S
H1050 C1056 0.950 . S
H1051 C1057 0.950 . S
H1052 C1058 0.949 . S
C1053 H1048 0.950 . S
C1053 C1055 1.327 . S
C1053 C1059 1.429 . S
C1054 C1046 1.574 . S
C1054 H1049 0.949 . S
C1054 C1060 1.368 . S
C1055 C1039 1.349 . S
C1055 H1047 0.950 . S
C1055 C1053 1.327 . S
C1056 C1044 1.349 . S
C1056 H1050 0.950 . S
C1056 C1057 1.327 . S
C1057 H1051 0.950 . S
C1057 C1056 1.327 . S
C1057 C1061 1.429 . S
C1058 C1041 1.574 . S
C1058 H1052 0.949 . S
C1058 C1062 1.368 . S
C1059 C1040 1.429 . S
C1059 C1053 1.429 . S
C1059 C1060 1.523 . S
C1060 C1041 1.368 . S
C1060 C1054 1.368 . S
C1060 C1059 1.523 . S
C1061 C1045 1.429 . S
C1061 C1057 1.429 . S
C1061 C1062 1.523 . S
C1062 C1046 1.368 . S
C1062 C1058 1.368 . S
C1062 C1061 1.523 . S
H1063 C1038 0.950 . S
H1064 C1040 0.950 . S
H1065 C1041 0.949 . S
H1066 C1043 0.950 . S
H1067 C1045 0.950 . S
C1068 C1069 1.349 . S
C1068 C1070 1.327 . S
C1068 H1093 0.950 . S
C1069 C1068 1.349 . S
C1069 C1085 1.349 . S
C1070 C1068 1.327 . S
C1070 C1089 1.429 . S
C1070 H1094 0.950 . S
C1071 C1088 1.574 . S
C1071 C1090 1.368 . S
C1071 H1095 0.949 . S
H1072 C1076 0.949 . S
C1073 C1074 1.349 . S
C1073 C1075 1.327 . S
C1073 H1096 0.950 . S
C1074 C1073 1.349 . S
C1074 C1086 1.349 . S
C1075 C1073 1.327 . S
C1075 C1091 1.429 . S
C1075 H1097 0.950 . S
C1076 H1072 0.949 . S
C1076 C1084 1.574 . S
C1076 C1092 1.368 . S
H1077 C1085 0.950 . S
H1078 C1083 0.950 . S
H1079 C1084 0.949 . S
H1080 C1086 0.950 . S
H1081 C1087 0.950 . S
H1082 C1088 0.949 . S
C1083 H1078 0.950 . S
C1083 C1085 1.327 . S
C1083 C1089 1.429 . S
C1084 C1076 1.574 . S
C1084 H1079 0.949 . S
C1084 C1090 1.368 . S
C1085 C1069 1.349 . S
C1085 H1077 0.950 . S
C1085 C1083 1.327 . S
C1086 C1074 1.349 . S
C1086 H1080 0.950 . S
C1086 C1087 1.327 . S
C1087 H1081 0.950 . S
C1087 C1086 1.327 . S
C1087 C1091 1.429 . S
C1088 C1071 1.574 . S
C1088 H1082 0.949 . S
C1088 C1092 1.368 . S
C1089 C1070 1.429 . S
C1089 C1083 1.429 . S
C1089 C1090 1.523 . S
C1090 C1071 1.368 . S
C1090 C1084 1.368 . S
C1090 C1089 1.523 . S
C1091 C1075 1.429 . S
C1091 C1087 1.429 . S
C1091 C1092 1.523 . S
C1092 C1076 1.368 . S
C1092 C1088 1.368 . S
C1092 C1091 1.523 . S
H1093 C1068 0.950 . S
H1094 C1070 0.950 . S
H1095 C1071 0.949 . S
H1096 C1073 0.950 . S
H1097 C1075 0.950 . S
C1098 C1099 1.349 . S
C1098 C1100 1.327 . S
C1098 H1123 0.950 . S
C1099 C1098 1.349 . S
C1099 C1115 1.349 . S
C1100 C1098 1.327 . S
C1100 C1119 1.429 . S
C1100 H1124 0.950 . S
C1101 C1118 1.574 . S
C1101 C1120 1.368 . S
C1101 H1125 0.949 . S
H1102 C1106 0.949 . S
C1103 C1104 1.349 . S
C1103 C1105 1.327 . S
C1103 H1126 0.950 . S
C1104 C1103 1.349 . S
C1104 C1116 1.349 . S
C1105 C1103 1.327 . S
C1105 C1121 1.429 . S
C1105 H1127 0.950 . S
C1106 H1102 0.949 . S
C1106 C1114 1.574 . S
C1106 C1122 1.368 . S
H1107 C1115 0.950 . S
H1108 C1113 0.950 . S
H1109 C1114 0.949 . S
H1110 C1116 0.950 . S
H1111 C1117 0.950 . S
H1112 C1118 0.949 . S
C1113 H1108 0.950 . S
C1113 C1115 1.327 . S
C1113 C1119 1.429 . S
C1114 C1106 1.574 . S
C1114 H1109 0.949 . S
C1114 C1120 1.368 . S
C1115 C1099 1.349 . S
C1115 H1107 0.950 . S
C1115 C1113 1.327 . S
C1116 C1104 1.349 . S
C1116 H1110 0.950 . S
C1116 C1117 1.327 . S
C1117 H1111 0.950 . S
C1117 C1116 1.327 . S
C1117 C1121 1.429 . S
C1118 C1101 1.574 . S
C1118 H1112 0.949 . S
C1118 C1122 1.368 . S
C1119 C1100 1.429 . S
C1119 C1113 1.429 . S
C1119 C1120 1.523 . S
C1120 C1101 1.368 . S
C1120 C1114 1.368 . S
C1120 C1119 1.523 . S
C1121 C1105 1.429 . S
C1121 C1117 1.429 . S
C1121 C1122 1.523 . S
C1122 C1106 1.368 . S
C1122 C1118 1.368 . S
C1122 C1121 1.523 . S
H1123 C1098 0.950 . S
H1124 C1100 0.950 . S
H1125 C1101 0.949 . S
H1126 C1103 0.950 . S
H1127 C1105 0.950 . S
C1128 C1129 1.349 . S
C1128 C1130 1.327 . S
C1128 H1153 0.950 . S
C1129 C1128 1.349 . S
C1129 C1145 1.349 . S
C1130 C1128 1.327 . S
C1130 C1149 1.429 . S
C1130 H1154 0.950 . S
C1131 C1148 1.574 . S
C1131 C1150 1.368 . S
C1131 H1155 0.949 . S
H1132 C1136 0.949 . S
C1133 C1134 1.349 . S
C1133 C1135 1.327 . S
C1133 H1156 0.950 . S
C1134 C1133 1.349 . S
C1134 C1146 1.349 . S
C1135 C1133 1.327 . S
C1135 C1151 1.429 . S
C1135 H1157 0.950 . S
C1136 H1132 0.949 . S
C1136 C1144 1.574 . S
C1136 C1152 1.368 . S
H1137 C1145 0.950 . S
H1138 C1143 0.950 . S
H1139 C1144 0.949 . S
H1140 C1146 0.950 . S
H1141 C1147 0.950 . S
H1142 C1148 0.949 . S
C1143 H1138 0.950 . S
C1143 C1145 1.327 . S
C1143 C1149 1.429 . S
C1144 C1136 1.574 . S
C1144 H1139 0.949 . S
C1144 C1150 1.368 . S
C1145 C1129 1.349 . S
C1145 H1137 0.950 . S
C1145 C1143 1.327 . S
C1146 C1134 1.349 . S
C1146 H1140 0.950 . S
C1146 C1147 1.327 . S
C1147 H1141 0.950 . S
C1147 C1146 1.327 . S
C1147 C1151 1.429 . S
C1148 C1131 1.574 . S
C1148 H1142 0.949 . S
C1148 C1152 1.368 . S
C1149 C1130 1.429 . S
C1149 C1143 1.429 . S
C1149 C1150 1.523 . S
C1150 C1131 1.368 . S
C1150 C1144 1.368 . S
C1150 C1149 1.523 . S
C1151 C1135 1.429 . S
C1151 C1147 1.429 . S
C1151 C1152 1.523 . S
C1152 C1136 1.368 . S
C1152 C1148 1.368 . S
C1152 C1151 1.523 . S
H1153 C1128 0.950 . S
H1154 C1130 0.950 . S
H1155 C1131 0.949 . S
H1156 C1133 0.950 . S
H1157 C1135 0.950 . S
C1158 C1159 1.349 . S
C1158 C1160 1.327 . S
C1158 H1183 0.950 . S
C1159 C1158 1.349 . S
C1159 C1175 1.349 . S
C1160 C1158 1.327 . S
C1160 C1179 1.429 . S
C1160 H1184 0.950 . S
C1161 C1178 1.574 . S
C1161 C1180 1.368 . S
C1161 H1185 0.949 . S
H1162 C1166 0.949 . S
C1163 C1164 1.349 . S
C1163 C1165 1.327 . S
C1163 H1186 0.950 . S
C1164 C1163 1.349 . S
C1164 C1176 1.349 . S
C1165 C1163 1.327 . S
C1165 C1181 1.429 . S
C1165 H1187 0.950 . S
C1166 H1162 0.949 . S
C1166 C1174 1.574 . S
C1166 C1182 1.368 . S
H1167 C1175 0.950 . S
H1168 C1173 0.950 . S
H1169 C1174 0.949 . S
H1170 C1176 0.950 . S
H1171 C1177 0.950 . S
H1172 C1178 0.949 . S
C1173 H1168 0.950 . S
C1173 C1175 1.327 . S
C1173 C1179 1.429 . S
C1174 C1166 1.574 . S
C1174 H1169 0.949 . S
C1174 C1180 1.368 . S
C1175 C1159 1.349 . S
C1175 H1167 0.950 . S
C1175 C1173 1.327 . S
C1176 C1164 1.349 . S
C1176 H1170 0.950 . S
C1176 C1177 1.327 . S
C1177 H1171 0.950 . S
C1177 C1176 1.327 . S
C1177 C1181 1.429 . S
C1178 C1161 1.574 . S
C1178 H1172 0.949 . S
C1178 C1182 1.368 . S
C1179 C1160 1.429 . S
C1179 C1173 1.429 . S
C1179 C1180 1.523 . S
C1180 C1161 1.368 . S
C1180 C1174 1.368 . S
C1180 C1179 1.523 . S
C1181 C1165 1.429 . S
C1181 C1177 1.429 . S
C1181 C1182 1.523 . S
C1182 C1166 1.368 . S
C1182 C1178 1.368 . S
C1182 C1181 1.523 . S
H1183 C1158 0.950 . S
H1184 C1160 0.950 . S
H1185 C1161 0.949 . S
H1186 C1163 0.950 . S
H1187 C1165 0.950 . S
C1188 C1189 1.349 . S
C1188 C1190 1.327 . S
C1188 H1213 0.950 . S
C1189 C1188 1.349 . S
C1189 C1205 1.349 . S
C1190 C1188 1.327 . S
C1190 C1209 1.429 . S
C1190 H1214 0.950 . S
C1191 C1208 1.574 . S
C1191 C1210 1.368 . S
C1191 H1215 0.949 . S
H1192 C1196 0.949 . S
C1193 C1194 1.349 . S
C1193 C1195 1.327 . S
C1193 H1216 0.950 . S
C1194 C1193 1.349 . S
C1194 C1206 1.349 . S
C1195 C1193 1.327 . S
C1195 C1211 1.429 . S
C1195 H1217 0.950 . S
C1196 H1192 0.949 . S
C1196 C1204 1.574 . S
C1196 C1212 1.368 . S
H1197 C1205 0.950 . S
H1198 C1203 0.950 . S
H1199 C1204 0.949 . S
H1200 C1206 0.950 . S
H1201 C1207 0.950 . S
H1202 C1208 0.949 . S
C1203 H1198 0.950 . S
C1203 C1205 1.327 . S
C1203 C1209 1.429 . S
C1204 C1196 1.574 . S
C1204 H1199 0.949 . S
C1204 C1210 1.368 . S
C1205 C1189 1.349 . S
C1205 H1197 0.950 . S
C1205 C1203 1.327 . S
C1206 C1194 1.349 . S
C1206 H1200 0.950 . S
C1206 C1207 1.327 . S
C1207 H1201 0.950 . S
C1207 C1206 1.327 . S
C1207 C1211 1.429 . S
C1208 C1191 1.574 . S
C1208 H1202 0.949 . S
C1208 C1212 1.368 . S
C1209 C1190 1.429 . S
C1209 C1203 1.429 . S
C1209 C1210 1.523 . S
C1210 C1191 1.368 . S
C1210 C1204 1.368 . S
C1210 C1209 1.523 . S
C1211 C1195 1.429 . S
C1211 C1207 1.429 . S
C1211 C1212 1.523 . S
C1212 C1196 1.368 . S
C1212 C1208 1.368 . S
C1212 C1211 1.523 . S
H1213 C1188 0.950 . S
H1214 C1190 0.950 . S
H1215 C1191 0.949 . S
H1216 C1193 0.950 . S
H1217 C1195 0.950 . S
C1218 C1219 1.349 . S
C1218 C1220 1.327 . S
C1218 H1243 0.950 . S
C1219 C1218 1.349 . S
C1219 C1235 1.349 . S
C1220 C1218 1.327 . S
C1220 C1239 1.429 . S
C1220 H1244 0.950 . S
C1221 C1238 1.574 . S
C1221 C1240 1.368 . S
C1221 H1245 0.949 . S
H1222 C1226 0.949 . S
C1223 C1224 1.349 . S
C1223 C1225 1.327 . S
C1223 H1246 0.950 . S
C1224 C1223 1.349 . S
C1224 C1236 1.349 . S
C1225 C1223 1.327 . S
C1225 C1241 1.429 . S
C1225 H1247 0.950 . S
C1226 H1222 0.949 . S
C1226 C1234 1.574 . S
C1226 C1242 1.368 . S
H1227 C1235 0.950 . S
H1228 C1233 0.950 . S
H1229 C1234 0.949 . S
H1230 C1236 0.950 . S
H1231 C1237 0.950 . S
H1232 C1238 0.949 . S
C1233 H1228 0.950 . S
C1233 C1235 1.327 . S
C1233 C1239 1.429 . S
C1234 C1226 1.574 . S
C1234 H1229 0.949 . S
C1234 C1240 1.368 . S
C1235 C1219 1.349 . S
C1235 H1227 0.950 . S
C1235 C1233 1.327 . S
C1236 C1224 1.349 . S
C1236 H1230 0.950 . S
C1236 C1237 1.327 . S
C1237 H1231 0.950 . S
C1237 C1236 1.327 . S
C1237 C1241 1.429 . S
C1238 C1221 1.574 . S
C1238 H1232 0.949 . S
C1238 C1242 1.368 . S
C1239 C1220 1.429 . S
C1239 C1233 1.429 . S
C1239 C1240 1.523 . S
C1240 C1221 1.368 . S
C1240 C1234 1.368 . S
C1240 C1239 1.523 . S
C1241 C1225 1.429 . S
C1241 C1237 1.429 . S
C1241 C1242 1.523 . S
C1242 C1226 1.368 . S
C1242 C1238 1.368 . S
C1242 C1241 1.523 . S
H1243 C1218 0.950 . S
H1244 C1220 0.950 . S
H1245 C1221 0.949 . S
H1246 C1223 0.950 . S
H1247 C1225 0.950 . S
C1248 C1249 1.349 . S
C1248 C1250 1.327 . S
C1248 H1273 0.950 . S
C1249 C1248 1.349 . S
C1249 C1265 1.349 . S
C1250 C1248 1.327 . S
C1250 C1269 1.429 . S
C1250 H1274 0.950 . S
C1251 C1268 1.574 . S
C1251 C1270 1.368 . S
C1251 H1275 0.949 . S
H1252 C1256 0.949 . S
C1253 C1254 1.349 . S
C1253 C1255 1.327 . S
C1253 H1276 0.950 . S
C1254 C1253 1.349 . S
C1254 C1266 1.349 . S
C1255 C1253 1.327 . S
C1255 C1271 1.429 . S
C1255 H1277 0.950 . S
C1256 H1252 0.949 . S
C1256 C1264 1.574 . S
C1256 C1272 1.368 . S
H1257 C1265 0.950 . S
H1258 C1263 0.950 . S
H1259 C1264 0.949 . S
H1260 C1266 0.950 . S
H1261 C1267 0.950 . S
H1262 C1268 0.949 . S
C1263 H1258 0.950 . S
C1263 C1265 1.327 . S
C1263 C1269 1.429 . S
C1264 C1256 1.574 . S
C1264 H1259 0.949 . S
C1264 C1270 1.368 . S
C1265 C1249 1.349 . S
C1265 H1257 0.950 . S
C1265 C1263 1.327 . S
C1266 C1254 1.349 . S
C1266 H1260 0.950 . S
C1266 C1267 1.327 . S
C1267 H1261 0.950 . S
C1267 C1266 1.327 . S
C1267 C1271 1.429 . S
C1268 C1251 1.574 . S
C1268 H1262 0.949 . S
C1268 C1272 1.368 . S
C1269 C1250 1.429 . S
C1269 C1263 1.429 . S
C1269 C1270 1.523 . S
C1270 C1251 1.368 . S
C1270 C1264 1.368 . S
C1270 C1269 1.523 . S
C1271 C1255 1.429 . S
C1271 C1267 1.429 . S
C1271 C1272 1.523 . S
C1272 C1256 1.368 . S
C1272 C1268 1.368 . S
C1272 C1271 1.523 . S
H1273 C1248 0.950 . S
H1274 C1250 0.950 . S
H1275 C1251 0.949 . S
H1276 C1253 0.950 . S
H1277 C1255 0.950 . S
C1278 C1279 1.349 . S
C1278 C1280 1.327 . S
C1278 H1303 0.950 . S
C1279 C1278 1.349 . S
C1279 C1295 1.349 . S
C1280 C1278 1.327 . S
C1280 C1299 1.429 . S
C1280 H1304 0.950 . S
C1281 C1298 1.574 . S
C1281 C1300 1.368 . S
C1281 H1305 0.949 . S
H1282 C1286 0.949 . S
C1283 C1284 1.349 . S
C1283 C1285 1.327 . S
C1283 H1306 0.950 . S
C1284 C1283 1.349 . S
C1284 C1296 1.349 . S
C1285 C1283 1.327 . S
C1285 C1301 1.429 . S
C1285 H1307 0.950 . S
C1286 H1282 0.949 . S
C1286 C1294 1.574 . S
C1286 C1302 1.368 . S
H1287 C1295 0.950 . S
H1288 C1293 0.950 . S
H1289 C1294 0.949 . S
H1290 C1296 0.950 . S
H1291 C1297 0.950 . S
H1292 C1298 0.949 . S
C1293 H1288 0.950 . S
C1293 C1295 1.327 . S
C1293 C1299 1.429 . S
C1294 C1286 1.574 . S
C1294 H1289 0.949 . S
C1294 C1300 1.368 . S
C1295 C1279 1.349 . S
C1295 H1287 0.950 . S
C1295 C1293 1.327 . S
C1296 C1284 1.349 . S
C1296 H1290 0.950 . S
C1296 C1297 1.327 . S
C1297 H1291 0.950 . S
C1297 C1296 1.327 . S
C1297 C1301 1.429 . S
C1298 C1281 1.574 . S
C1298 H1292 0.949 . S
C1298 C1302 1.368 . S
C1299 C1280 1.429 . S
C1299 C1293 1.429 . S
C1299 C1300 1.523 . S
C1300 C1281 1.368 . S
C1300 C1294 1.368 . S
C1300 C1299 1.523 . S
C1301 C1285 1.429 . S
C1301 C1297 1.429 . S
C1301 C1302 1.523 . S
C1302 C1286 1.368 . S
C1302 C1298 1.368 . S
C1302 C1301 1.523 . S
H1303 C1278 0.950 . S
H1304 C1280 0.950 . S
H1305 C1281 0.949 . S
H1306 C1283 0.950 . S
H1307 C1285 0.950 . S
C1308 C1309 1.349 . S
C1308 C1310 1.327 . S
C1308 H1333 0.950 . S
C1309 C1308 1.349 . S
C1309 C1325 1.349 . S
C1310 C1308 1.327 . S
C1310 C1329 1.429 . S
C1310 H1334 0.950 . S
C1311 C1328 1.574 . S
C1311 C1330 1.368 . S
C1311 H1335 0.949 . S
H1312 C1316 0.949 . S
C1313 C1314 1.349 . S
C1313 C1315 1.327 . S
C1313 H1336 0.950 . S
C1314 C1313 1.349 . S
C1314 C1326 1.349 . S
C1315 C1313 1.327 . S
C1315 C1331 1.429 . S
C1315 H1337 0.950 . S
C1316 H1312 0.949 . S
C1316 C1324 1.574 . S
C1316 C1332 1.368 . S
H1317 C1325 0.950 . S
H1318 C1323 0.950 . S
H1319 C1324 0.949 . S
H1320 C1326 0.950 . S
H1321 C1327 0.950 . S
H1322 C1328 0.949 . S
C1323 H1318 0.950 . S
C1323 C1325 1.327 . S
C1323 C1329 1.429 . S
C1324 C1316 1.574 . S
C1324 H1319 0.949 . S
C1324 C1330 1.368 . S
C1325 C1309 1.349 . S
C1325 H1317 0.950 . S
C1325 C1323 1.327 . S
C1326 C1314 1.349 . S
C1326 H1320 0.950 . S
C1326 C1327 1.327 . S
C1327 H1321 0.950 . S
C1327 C1326 1.327 . S
C1327 C1331 1.429 . S
C1328 C1311 1.574 . S
C1328 H1322 0.949 . S
C1328 C1332 1.368 . S
C1329 C1310 1.429 . S
C1329 C1323 1.429 . S
C1329 C1330 1.523 . S
C1330 C1311 1.368 . S
C1330 C1324 1.368 . S
C1330 C1329 1.523 . S
C1331 C1315 1.429 . S
C1331 C1327 1.429 . S
C1331 C1332 1.523 . S
C1332 C1316 1.368 . S
C1332 C1328 1.368 . S
C1332 C1331 1.523 . S
H1333 C1308 0.950 . S
H1334 C1310 0.950 . S
H1335 C1311 0.949 . S
H1336 C1313 0.950 . S
H1337 C1315 0.950 . S
C1338 C1339 1.349 . S
C1338 C1340 1.327 . S
C1338 H1363 0.950 . S
C1339 C1338 1.349 . S
C1339 C1355 1.349 . S
C1340 C1338 1.327 . S
C1340 C1359 1.429 . S
C1340 H1364 0.950 . S
C1341 C1358 1.574 . S
C1341 C1360 1.368 . S
C1341 H1365 0.949 . S
H1342 C1346 0.949 . S
C1343 C1344 1.349 . S
C1343 C1345 1.327 . S
C1343 H1366 0.950 . S
C1344 C1343 1.349 . S
C1344 C1356 1.349 . S
C1345 C1343 1.327 . S
C1345 C1361 1.429 . S
C1345 H1367 0.950 . S
C1346 H1342 0.949 . S
C1346 C1354 1.574 . S
C1346 C1362 1.368 . S
H1347 C1355 0.950 . S
H1348 C1353 0.950 . S
H1349 C1354 0.949 . S
H1350 C1356 0.950 . S
H1351 C1357 0.950 . S
H1352 C1358 0.949 . S
C1353 H1348 0.950 . S
C1353 C1355 1.327 . S
C1353 C1359 1.429 . S
C1354 C1346 1.574 . S
C1354 H1349 0.949 . S
C1354 C1360 1.368 . S
C1355 C1339 1.349 . S
C1355 H1347 0.950 . S
C1355 C1353 1.327 . S
C1356 C1344 1.349 . S
C1356 H1350 0.950 . S
C1356 C1357 1.327 . S
C1357 H1351 0.950 . S
C1357 C1356 1.327 . S
C1357 C1361 1.429 . S
C1358 C1341 1.574 . S
C1358 H1352 0.949 . S
C1358 C1362 1.368 . S
C1359 C1340 1.429 . S
C1359 C1353 1.429 . S
C1359 C1360 1.523 . S
C1360 C1341 1.368 . S
C1360 C1354 1.368 . S
C1360 C1359 1.523 . S
C1361 C1345 1.429 . S
C1361 C1357 1.429 . S
C1361 C1362 1.523 . S
C1362 C1346 1.368 . S
C1362 C1358 1.368 . S
C1362 C1361 1.523 . S
H1363 C1338 0.950 . S
H1364 C1340 0.950 . S
H1365 C1341 0.949 . S
H1366 C1343 0.950 . S
H1367 C1345 0.950 . S
C1368 C1369 1.349 . S
C1368 C1370 1.327 . S
C1368 H1393 0.950 . S
C1369 C1368 1.349 . S
C1369 C1385 1.349 . S
C1370 C1368 1.327 . S
C1370 C1389 1.429 . S
C1370 H1394 0.950 . S
C1371 C1388 1.574 . S
C1371 C1390 1.368 . S
C1371 H1395 0.949 . S
H1372 C1376 0.949 . S
C1373 C1374 1.349 . S
C1373 C1375 1.327 . S
C1373 H1396 0.950 . S
C1374 C1373 1.349 . S
C1374 C1386 1.349 . S
C1375 C1373 1.327 . S
C1375 C1391 1.429 . S
C1375 H1397 0.950 . S
C1376 H1372 0.949 . S
C1376 C1384 1.574 . S
C1376 C1392 1.368 . S
H1377 C1385 0.950 . S
H1378 C1383 0.950 . S
H1379 C1384 0.949 . S
H1380 C1386 0.950 . S
H1381 C1387 0.950 . S
H1382 C1388 0.949 . S
C1383 H1378 0.950 . S
C1383 C1385 1.327 . S
C1383 C1389 1.429 . S
C1384 C1376 1.574 . S
C1384 H1379 0.949 . S
C1384 C1390 1.368 . S
C1385 C1369 1.349 . S
C1385 H1377 0.950 . S
C1385 C1383 1.327 . S
C1386 C1374 1.349 . S
C1386 H1380 0.950 . S
C1386 C1387 1.327 . S
C1387 H1381 0.950 . S
C1387 C1386 1.327 . S
C1387 C1391 1.429 . S
C1388 C1371 1.574 . S
C1388 H1382 0.949 . S
C1388 C1392 1.368 . S
C1389 C1370 1.429 . S
C1389 C1383 1.429 . S
C1389 C1390 1.523 . S
C1390 C1371 1.368 . S
C1390 C1384 1.368 . S
C1390 C1389 1.523 . S
C1391 C1375 1.429 . S
C1391 C1387 1.429 . S
C1391 C1392 1.523 . S
C1392 C1376 1.368 . S
C1392 C1388 1.368 . S
C1392 C1391 1.523 . S
H1393 C1368 0.950 . S
H1394 C1370 0.950 . S
H1395 C1371 0.949 . S
H1396 C1373 0.950 . S
H1397 C1375 0.950 . S
C1398 C1399 1.349 . S
C1398 C1400 1.327 . S
C1398 H1423 0.950 . S
C1399 C1398 1.349 . S
C1399 C1415 1.349 . S
C1400 C1398 1.327 . S
C1400 C1419 1.429 . S
C1400 H1424 0.950 . S
C1401 C1418 1.574 . S
C1401 C1420 1.368 . S
C1401 H1425 0.949 . S
H1402 C1406 0.949 . S
C1403 C1404 1.349 . S
C1403 C1405 1.327 . S
C1403 H1426 0.950 . S
C1404 C1403 1.349 . S
C1404 C1416 1.349 . S
C1405 C1403 1.327 . S
C1405 C1421 1.429 . S
C1405 H1427 0.950 . S
C1406 H1402 0.949 . S
C1406 C1414 1.574 . S
C1406 C1422 1.368 . S
H1407 C1415 0.950 . S
H1408 C1413 0.950 . S
H1409 C1414 0.949 . S
H1410 C1416 0.950 . S
H1411 C1417 0.950 . S
H1412 C1418 0.949 . S
C1413 H1408 0.950 . S
C1413 C1415 1.327 . S
C1413 C1419 1.429 . S
C1414 C1406 1.574 . S
C1414 H1409 0.949 . S
C1414 C1420 1.368 . S
C1415 C1399 1.349 . S
C1415 H1407 0.950 . S
C1415 C1413 1.327 . S
C1416 C1404 1.349 . S
C1416 H1410 0.950 . S
C1416 C1417 1.327 . S
C1417 H1411 0.950 . S
C1417 C1416 1.327 . S
C1417 C1421 1.429 . S
C1418 C1401 1.574 . S
C1418 H1412 0.949 . S
C1418 C1422 1.368 . S
C1419 C1400 1.429 . S
C1419 C1413 1.429 . S
C1419 C1420 1.523 . S
C1420 C1401 1.368 . S
C1420 C1414 1.368 . S
C1420 C1419 1.523 . S
C1421 C1405 1.429 . S
C1421 C1417 1.429 . S
C1421 C1422 1.523 . S
C1422 C1406 1.368 . S
C1422 C1418 1.368 . S
C1422 C1421 1.523 . S
H1423 C1398 0.950 . S
H1424 C1400 0.950 . S
H1425 C1401 0.949 . S
H1426 C1403 0.950 . S
H1427 C1405 0.950 . S
C1428 C1429 1.349 . S
C1428 C1430 1.327 . S
C1428 H1453 0.950 . S
C1429 C1428 1.349 . S
C1429 C1445 1.349 . S
C1430 C1428 1.327 . S
C1430 C1449 1.429 . S
C1430 H1454 0.950 . S
C1431 C1448 1.574 . S
C1431 C1450 1.368 . S
C1431 H1455 0.949 . S
H1432 C1436 0.949 . S
C1433 C1434 1.349 . S
C1433 C1435 1.327 . S
C1433 H1456 0.950 . S
C1434 C1433 1.349 . S
C1434 C1446 1.349 . S
C1435 C1433 1.327 . S
C1435 C1451 1.429 . S
C1435 H1457 0.950 . S
C1436 H1432 0.949 . S
C1436 C1444 1.574 . S
C1436 C1452 1.368 . S
H1437 C1445 0.950 . S
H1438 C1443 0.950 . S
H1439 C1444 0.949 . S
H1440 C1446 0.950 . S
H1441 C1447 0.950 . S
H1442 C1448 0.949 . S
C1443 H1438 0.950 . S
C1443 C1445 1.327 . S
C1443 C1449 1.429 . S
C1444 C1436 1.574 . S
C1444 H1439 0.949 . S
C1444 C1450 1.368 . S
C1445 C1429 1.349 . S
C1445 H1437 0.950 . S
C1445 C1443 1.327 . S
C1446 C1434 1.349 . S
C1446 H1440 0.950 . S
C1446 C1447 1.327 . S
C1447 H1441 0.950 . S
C1447 C1446 1.327 . S
C1447 C1451 1.429 . S
C1448 C1431 1.574 . S
C1448 H1442 0.949 . S
C1448 C1452 1.368 . S
C1449 C1430 1.429 . S
C1449 C1443 1.429 . S
C1449 C1450 1.523 . S
C1450 C1431 1.368 . S
C1450 C1444 1.368 . S
C1450 C1449 1.523 . S
C1451 C1435 1.429 . S
C1451 C1447 1.429 . S
C1451 C1452 1.523 . S
C1452 C1436 1.368 . S
C1452 C1448 1.368 . S
C1452 C1451 1.523 . S
H1453 C1428 0.950 . S
H1454 C1430 0.950 . S
H1455 C1431 0.949 . S
H1456 C1433 0.950 . S
H1457 C1435 0.950 . S
C1458 C1459 1.349 . S
C1458 C1460 1.327 . S
C1458 H1483 0.950 . S
C1459 C1458 1.349 . S
C1459 C1475 1.349 . S
C1460 C1458 1.327 . S
C1460 C1479 1.429 . S
C1460 H1484 0.950 . S
C1461 C1478 1.574 . S
C1461 C1480 1.368 . S
C1461 H1485 0.949 . S
H1462 C1466 0.949 . S
C1463 C1464 1.349 . S
C1463 C1465 1.327 . S
C1463 H1486 0.950 . S
C1464 C1463 1.349 . S
C1464 C1476 1.349 . S
C1465 C1463 1.327 . S
C1465 C1481 1.429 . S
C1465 H1487 0.950 . S
C1466 H1462 0.949 . S
C1466 C1474 1.574 . S
C1466 C1482 1.368 . S
H1467 C1475 0.950 . S
H1468 C1473 0.950 . S
H1469 C1474 0.949 . S
H1470 C1476 0.950 . S
H1471 C1477 0.950 . S
H1472 C1478 0.949 . S
C1473 H1468 0.950 . S
C1473 C1475 1.327 . S
C1473 C1479 1.429 . S
C1474 C1466 1.574 . S
C1474 H1469 0.949 . S
C1474 C1480 1.368 . S
C1475 C1459 1.349 . S
C1475 H1467 0.950 . S
C1475 C1473 1.327 . S
C1476 C1464 1.349 . S
C1476 H1470 0.950 . S
C1476 C1477 1.327 . S
C1477 H1471 0.950 . S
C1477 C1476 1.327 . S
C1477 C1481 1.429 . S
C1478 C1461 1.574 . S
C1478 H1472 0.949 . S
C1478 C1482 1.368 . S
C1479 C1460 1.429 . S
C1479 C1473 1.429 . S
C1479 C1480 1.523 . S
C1480 C1461 1.368 . S
C1480 C1474 1.368 . S
C1480 C1479 1.523 . S
C1481 C1465 1.429 . S
C1481 C1477 1.429 . S
C1481 C1482 1.523 . S
C1482 C1466 1.368 . S
C1482 C1478 1.368 . S
C1482 C1481 1.523 . S
H1483 C1458 0.950 . S
H1484 C1460 0.950 . S
H1485 C1461 0.949 . S
H1486 C1463 0.950 . S
H1487 C1465 0.950 . S
C1488 C1489 1.349 . S
C1488 C1490 1.327 . S
C1488 H1513 0.950 . S
C1489 C1488 1.349 . S
C1489 C1505 1.349 . S
C1490 C1488 1.327 . S
C1490 C1509 1.429 . S
C1490 H1514 0.950 . S
C1491 C1508 1.574 . S
C1491 C1510 1.325 1_554 S
C1491 H1515 0.949 . S
H1492 C1496 0.949 . S
C1493 C1494 1.349 . S
C1493 C1495 1.327 . S
C1493 H1516 0.950 . S
C1494 C1493 1.349 . S
C1494 C1506 1.349 . S
C1495 C1493 1.327 . S
C1495 C1511 1.429 . S
C1495 H1517 0.950 . S
C1496 H1492 0.949 . S
C1496 C1504 1.574 . S
C1496 C1512 1.368 1_556 S
H1497 C1505 0.950 1_554 S
H1498 C1503 0.950 . S
H1499 C1504 0.949 . S
H1500 C1506 0.950 . S
H1501 C1507 0.950 1_556 S
H1502 C1508 0.949 . S
C1503 H1498 0.950 . S
C1503 C1505 1.327 1_554 S
C1503 C1509 1.429 1_554 S
C1504 C1496 1.574 . S
C1504 H1499 0.949 . S
C1504 C1510 1.403 . S
C1505 C1489 1.349 . S
C1505 H1497 0.950 1_556 S
C1505 C1503 1.327 1_556 S
C1506 C1494 1.349 . S
C1506 H1500 0.950 . S
C1506 C1507 1.327 . S
C1507 H1501 0.950 1_554 S
C1507 C1506 1.327 . S
C1507 C1511 1.429 . S
C1508 C1491 1.574 . S
C1508 H1502 0.949 . S
C1508 C1512 1.368 . S
C1509 C1490 1.429 . S
C1509 C1503 1.429 1_556 S
C1509 C1510 1.540 . S
C1510 C1491 1.325 1_556 S
C1510 C1504 1.403 . S
C1510 C1509 1.540 . S
C1511 C1495 1.429 . S
C1511 C1507 1.429 . S
C1511 C1512 1.523 . S
C1512 C1496 1.368 1_554 S
C1512 C1508 1.368 . S
C1512 C1511 1.523 . S
H1513 C1488 0.950 . S
H1514 C1490 0.950 . S
H1515 C1491 0.949 . S
H1516 C1493 0.950 . S
H1517 C1495 0.950 . S
C1518 C1519 1.349 . S
C1518 C1520 1.327 . S
C1518 H1543 0.950 . S
C1519 C1518 1.349 . S
C1519 C1535 1.349 . S
C1520 C1518 1.327 . S
C1520 C1539 1.429 . S
C1520 H1544 0.950 . S
C1521 C1538 1.574 . S
C1521 C1540 1.368 . S
C1521 H1545 0.949 . S
H1522 C1526 0.949 . S
C1523 C1524 1.349 . S
C1523 C1525 1.327 . S
C1523 H1546 0.950 . S
C1524 C1523 1.349 . S
C1524 C1536 1.349 . S
C1525 C1523 1.327 . S
C1525 C1541 1.429 . S
C1525 H1547 0.950 . S
C1526 H1522 0.949 . S
C1526 C1534 1.574 . S
C1526 C1542 1.368 . S
H1527 C1535 0.950 . S
H1528 C1533 0.950 . S
H1529 C1534 0.949 . S
H1530 C1536 0.950 . S
H1531 C1537 0.950 . S
H1532 C1538 0.949 . S
C1533 H1528 0.950 . S
C1533 C1535 1.327 . S
C1533 C1539 1.429 . S
C1534 C1526 1.574 . S
C1534 H1529 0.949 . S
C1534 C1540 1.368 . S
C1535 C1519 1.349 . S
C1535 H1527 0.950 . S
C1535 C1533 1.327 . S
C1536 C1524 1.349 . S
C1536 H1530 0.950 . S
C1536 C1537 1.327 . S
C1537 H1531 0.950 . S
C1537 C1536 1.327 . S
C1537 C1541 1.429 . S
C1538 C1521 1.574 . S
C1538 H1532 0.949 . S
C1538 C1542 1.368 . S
C1539 C1520 1.429 . S
C1539 C1533 1.429 . S
C1539 C1540 1.523 . S
C1540 C1521 1.368 . S
C1540 C1534 1.368 . S
C1540 C1539 1.523 . S
C1541 C1525 1.429 . S
C1541 C1537 1.429 . S
C1541 C1542 1.523 . S
C1542 C1526 1.368 . S
C1542 C1538 1.368 . S
C1542 C1541 1.523 . S
H1543 C1518 0.950 . S
H1544 C1520 0.950 . S
H1545 C1521 0.949 . S
H1546 C1523 0.950 . S
H1547 C1525 0.950 . S
C1548 C1549 1.349 . S
C1548 C1550 1.327 . S
C1548 H1573 0.950 . S
C1549 C1548 1.349 . S
C1549 C1565 1.349 . S
C1550 C1548 1.327 . S
C1550 C1569 1.429 . S
C1550 H1574 0.950 . S
C1551 C1568 1.574 . S
C1551 C1570 1.368 . S
C1551 H1575 0.949 . S
H1552 C1556 0.949 . S
C1553 C1554 1.349 . S
C1553 C1555 1.327 . S
C1553 H1576 0.950 . S
C1554 C1553 1.349 . S
C1554 C1566 1.349 . S
C1555 C1553 1.327 . S
C1555 C1571 1.429 . S
C1555 H1577 0.950 . S
C1556 H1552 0.949 . S
C1556 C1564 1.574 . S
C1556 C1572 1.368 . S
H1557 C1565 0.950 . S
H1558 C1563 0.950 . S
H1559 C1564 0.949 . S
H1560 C1566 0.950 . S
H1561 C1567 0.950 . S
H1562 C1568 0.949 . S
C1563 H1558 0.950 . S
C1563 C1565 1.327 . S
C1563 C1569 1.429 . S
C1564 C1556 1.574 . S
C1564 H1559 0.949 . S
C1564 C1570 1.368 . S
C1565 C1549 1.349 . S
C1565 H1557 0.950 . S
C1565 C1563 1.327 . S
C1566 C1554 1.349 . S
C1566 H1560 0.950 . S
C1566 C1567 1.327 . S
C1567 H1561 0.950 . S
C1567 C1566 1.327 . S
C1567 C1571 1.429 . S
C1568 C1551 1.574 . S
C1568 H1562 0.949 . S
C1568 C1572 1.368 . S
C1569 C1550 1.429 . S
C1569 C1563 1.429 . S
C1569 C1570 1.523 . S
C1570 C1551 1.368 . S
C1570 C1564 1.368 . S
C1570 C1569 1.523 . S
C1571 C1555 1.429 . S
C1571 C1567 1.429 . S
C1571 C1572 1.523 . S
C1572 C1556 1.368 . S
C1572 C1568 1.368 . S
C1572 C1571 1.523 . S
H1573 C1548 0.950 . S
H1574 C1550 0.950 . S
H1575 C1551 0.949 . S
H1576 C1553 0.950 . S
H1577 C1555 0.950 . S
C1578 C1579 1.349 . S
C1578 C1580 1.327 . S
C1578 H1603 0.950 . S
C1579 C1578 1.349 . S
C1579 C1595 1.349 . S
C1580 C1578 1.327 . S
C1580 C1599 1.429 . S
C1580 H1604 0.950 . S
C1581 C1598 1.574 . S
C1581 C1600 1.368 . S
C1581 H1605 0.949 . S
H1582 C1586 0.949 . S
C1583 C1584 1.349 . S
C1583 C1585 1.327 . S
C1583 H1606 0.950 . S
C1584 C1583 1.349 . S
C1584 C1596 1.349 . S
C1585 C1583 1.327 . S
C1585 C1601 1.429 . S
C1585 H1607 0.950 . S
C1586 H1582 0.949 . S
C1586 C1594 1.574 . S
C1586 C1602 1.368 . S
H1587 C1595 0.950 . S
H1588 C1593 0.950 . S
H1589 C1594 0.949 . S
H1590 C1596 0.950 . S
H1591 C1597 0.950 . S
H1592 C1598 0.949 . S
C1593 H1588 0.950 . S
C1593 C1595 1.327 . S
C1593 C1599 1.429 . S
C1594 C1586 1.574 . S
C1594 H1589 0.949 . S
C1594 C1600 1.368 . S
C1595 C1579 1.349 . S
C1595 H1587 0.950 . S
C1595 C1593 1.327 . S
C1596 C1584 1.349 . S
C1596 H1590 0.950 . S
C1596 C1597 1.327 . S
C1597 H1591 0.950 . S
C1597 C1596 1.327 . S
C1597 C1601 1.429 . S
C1598 C1581 1.574 . S
C1598 H1592 0.949 . S
C1598 C1602 1.368 . S
C1599 C1580 1.429 . S
C1599 C1593 1.429 . S
C1599 C1600 1.523 . S
C1600 C1581 1.368 . S
C1600 C1594 1.368 . S
C1600 C1599 1.523 . S
C1601 C1585 1.429 . S
C1601 C1597 1.429 . S
C1601 C1602 1.523 . S
C1602 C1586 1.368 . S
C1602 C1598 1.368 . S
C1602 C1601 1.523 . S
H1603 C1578 0.950 . S
H1604 C1580 0.950 . S
H1605 C1581 0.949 . S
H1606 C1583 0.950 . S
H1607 C1585 0.950 . S
C1608 C1609 1.349 . S
C1608 C1610 1.327 . S
C1608 H1633 0.950 . S
C1609 C1608 1.349 . S
C1609 C1625 1.349 . S
C1610 C1608 1.327 . S
C1610 C1629 1.429 . S
C1610 H1634 0.950 . S
C1611 C1628 1.574 . S
C1611 C1630 1.368 . S
C1611 H1635 0.949 . S
H1612 C1616 0.949 . S
C1613 C1614 1.349 . S
C1613 C1615 1.327 . S
C1613 H1636 0.950 . S
C1614 C1613 1.349 . S
C1614 C1626 1.349 . S
C1615 C1613 1.327 . S
C1615 C1631 1.429 . S
C1615 H1637 0.950 . S
C1616 H1612 0.949 . S
C1616 C1624 1.574 . S
C1616 C1632 1.368 . S
H1617 C1625 0.950 . S
H1618 C1623 0.950 . S
H1619 C1624 0.949 . S
H1620 C1626 0.950 . S
H1621 C1627 0.950 . S
H1622 C1628 0.949 . S
C1623 H1618 0.950 . S
C1623 C1625 1.327 . S
C1623 C1629 1.429 . S
C1624 C1616 1.574 . S
C1624 H1619 0.949 . S
C1624 C1630 1.368 . S
C1625 C1609 1.349 . S
C1625 H1617 0.950 . S
C1625 C1623 1.327 . S
C1626 C1614 1.349 . S
C1626 H1620 0.950 . S
C1626 C1627 1.327 . S
C1627 H1621 0.950 . S
C1627 C1626 1.327 . S
C1627 C1631 1.429 . S
C1628 C1611 1.574 . S
C1628 H1622 0.949 . S
C1628 C1632 1.368 . S
C1629 C1610 1.429 . S
C1629 C1623 1.429 . S
C1629 C1630 1.523 . S
C1630 C1611 1.368 . S
C1630 C1624 1.368 . S
C1630 C1629 1.523 . S
C1631 C1615 1.429 . S
C1631 C1627 1.429 . S
C1631 C1632 1.523 . S
C1632 C1616 1.368 . S
C1632 C1628 1.368 . S
C1632 C1631 1.523 . S
H1633 C1608 0.950 . S
H1634 C1610 0.950 . S
H1635 C1611 0.949 . S
H1636 C1613 0.950 . S
H1637 C1615 0.950 . S
C1638 C1639 1.349 . S
C1638 C1640 1.327 . S
C1638 H1663 0.950 . S
C1639 C1638 1.349 . S
C1639 C1655 1.349 . S
C1640 C1638 1.327 . S
C1640 C1659 1.429 . S
C1640 H1664 0.950 . S
C1641 C1658 1.574 . S
C1641 C1660 1.368 1_556 S
C1641 H1665 0.949 . S
H1642 C1646 0.949 . S
C1643 C1644 1.349 . S
C1643 C1645 1.327 . S
C1643 H1666 0.950 . S
C1644 C1643 1.349 . S
C1644 C1656 1.349 1_556 S
C1645 C1643 1.327 . S
C1645 C1661 1.429 . S
C1645 H1667 0.950 . S
C1646 H1642 0.949 . S
C1646 C1654 1.574 . S
C1646 C1662 1.368 . S
H1647 C1655 0.950 . S
H1648 C1653 0.936 1_556 S
H1649 C1654 0.949 . S
H1650 C1656 0.949 . S
H1651 C1657 0.950 . S
H1652 C1658 0.949 . S
C1653 H1648 0.936 1_554 S
C1653 C1655 1.327 . S
C1653 C1659 1.429 . S
C1654 C1646 1.574 . S
C1654 H1649 0.949 . S
C1654 C1660 1.368 . S
C1655 C1639 1.349 . S
C1655 H1647 0.950 . S
C1655 C1653 1.327 . S
C1656 C1644 1.349 1_554 S
C1656 H1650 0.949 . S
C1656 C1657 1.327 . S
C1657 H1651 0.950 . S
C1657 C1656 1.327 . S
C1657 C1661 1.429 1_554 S
C1658 C1641 1.574 . S
C1658 H1652 0.949 . S
C1658 C1662 1.368 1_556 S
C1659 C1640 1.429 . S
C1659 C1653 1.429 . S
C1659 C1660 1.523 . S
C1660 C1641 1.368 1_554 S
C1660 C1654 1.368 . S
C1660 C1659 1.523 . S
C1661 C1645 1.429 . S
C1661 C1657 1.429 1_556 S
C1661 C1662 1.523 1_556 S
C1662 C1646 1.368 . S
C1662 C1658 1.368 1_554 S
C1662 C1661 1.523 1_554 S
H1663 C1638 0.950 . S
H1664 C1640 0.950 . S
H1665 C1641 0.949 . S
H1666 C1643 0.950 . S
H1667 C1645 0.950 . S
C1668 C1669 1.349 . S
C1668 C1670 1.327 . S
C1668 H1693 0.950 . S
C1669 C1668 1.349 . S
C1669 C1685 1.349 . S
C1670 C1668 1.327 . S
C1670 C1689 1.429 . S
C1670 H1694 0.950 . S
C1671 C1688 1.574 . S
C1671 C1690 1.368 . S
C1671 H1695 0.949 . S
H1672 C1676 0.949 . S
C1673 C1674 1.349 . S
C1673 C1675 1.327 . S
C1673 H1696 0.950 . S
C1674 C1673 1.349 . S
C1674 C1686 1.349 . S
C1675 C1673 1.327 . S
C1675 C1691 1.429 . S
C1675 H1697 0.950 . S
C1676 H1672 0.949 . S
C1676 C1684 1.574 . S
C1676 C1692 1.368 . S
H1677 C1685 0.950 . S
H1678 C1683 0.950 . S
H1679 C1684 0.949 . S
H1680 C1686 0.950 . S
H1681 C1687 0.950 . S
H1682 C1688 0.949 . S
C1683 H1678 0.950 . S
C1683 C1685 1.327 . S
C1683 C1689 1.429 . S
C1684 C1676 1.574 . S
C1684 H1679 0.949 . S
C1684 C1690 1.368 . S
C1685 C1669 1.349 . S
C1685 H1677 0.950 . S
C1685 C1683 1.327 . S
C1686 C1674 1.349 . S
C1686 H1680 0.950 . S
C1686 C1687 1.327 . S
C1687 H1681 0.950 . S
C1687 C1686 1.327 . S
C1687 C1691 1.429 . S
C1688 C1671 1.574 . S
C1688 H1682 0.949 . S
C1688 C1692 1.368 . S
C1689 C1670 1.429 . S
C1689 C1683 1.429 . S
C1689 C1690 1.523 . S
C1690 C1671 1.368 . S
C1690 C1684 1.368 . S
C1690 C1689 1.523 . S
C1691 C1675 1.429 . S
C1691 C1687 1.429 . S
C1691 C1692 1.523 . S
C1692 C1676 1.368 . S
C1692 C1688 1.368 . S
C1692 C1691 1.523 . S
H1693 C1668 0.950 . S
H1694 C1670 0.950 . S
H1695 C1671 0.949 . S
H1696 C1673 0.950 . S
H1697 C1675 0.950 . S
C1698 C1699 1.349 . S
C1698 C1700 1.327 . S
C1698 H1723 0.950 . S
C1699 C1698 1.349 . S
C1699 C1715 1.349 . S
C1700 C1698 1.327 . S
C1700 C1719 1.429 . S
C1700 H1724 0.950 . S
C1701 C1718 1.574 . S
C1701 C1720 1.368 . S
C1701 H1725 0.949 . S
H1702 C1706 0.949 . S
C1703 C1704 1.349 . S
C1703 C1705 1.327 . S
C1703 H1726 0.950 . S
C1704 C1703 1.349 . S
C1704 C1716 1.349 . S
C1705 C1703 1.327 . S
C1705 C1721 1.429 . S
C1705 H1727 0.950 . S
C1706 H1702 0.949 . S
C1706 C1714 1.574 . S
C1706 C1722 1.368 . S
H1707 C1715 0.950 . S
H1708 C1713 0.950 . S
H1709 C1714 0.949 . S
H1710 C1716 0.950 . S
H1711 C1717 0.950 . S
H1712 C1718 0.949 . S
C1713 H1708 0.950 . S
C1713 C1715 1.327 . S
C1713 C1719 1.429 . S
C1714 C1706 1.574 . S
C1714 H1709 0.949 . S
C1714 C1720 1.368 . S
C1715 C1699 1.349 . S
C1715 H1707 0.950 . S
C1715 C1713 1.327 . S
C1716 C1704 1.349 . S
C1716 H1710 0.950 . S
C1716 C1717 1.327 . S
C1717 H1711 0.950 . S
C1717 C1716 1.327 . S
C1717 C1721 1.429 . S
C1718 C1701 1.574 . S
C1718 H1712 0.949 . S
C1718 C1722 1.368 . S
C1719 C1700 1.429 . S
C1719 C1713 1.429 . S
C1719 C1720 1.523 . S
C1720 C1701 1.368 . S
C1720 C1714 1.368 . S
C1720 C1719 1.523 . S
C1721 C1705 1.429 . S
C1721 C1717 1.429 . S
C1721 C1722 1.523 . S
C1722 C1706 1.368 . S
C1722 C1718 1.368 . S
C1722 C1721 1.523 . S
H1723 C1698 0.950 . S
H1724 C1700 0.950 . S
H1725 C1701 0.949 . S
H1726 C1703 0.950 . S
H1727 C1705 0.950 . S
C1728 C1729 1.349 . S
C1728 C1730 1.327 . S
C1728 H1753 0.950 . S
C1729 C1728 1.349 . S
C1729 C1745 1.349 . S
C1730 C1728 1.327 . S
C1730 C1749 1.429 . S
C1730 H1754 0.950 . S
C1731 C1748 1.574 . S
C1731 C1750 1.368 . S
C1731 H1755 0.949 . S
H1732 C1736 0.949 . S
C1733 C1734 1.349 . S
C1733 C1735 1.327 . S
C1733 H1756 0.950 . S
C1734 C1733 1.349 . S
C1734 C1746 1.349 . S
C1735 C1733 1.327 . S
C1735 C1751 1.429 . S
C1735 H1757 0.950 . S
C1736 H1732 0.949 . S
C1736 C1744 1.574 . S
C1736 C1752 1.368 . S
H1737 C1745 0.950 . S
H1738 C1743 0.950 . S
H1739 C1744 0.949 . S
H1740 C1746 0.950 . S
H1741 C1747 0.950 . S
H1742 C1748 0.949 . S
C1743 H1738 0.950 . S
C1743 C1745 1.327 . S
C1743 C1749 1.429 . S
C1744 C1736 1.574 . S
C1744 H1739 0.949 . S
C1744 C1750 1.368 . S
C1745 C1729 1.349 . S
C1745 H1737 0.950 . S
C1745 C1743 1.327 . S
C1746 C1734 1.349 . S
C1746 H1740 0.950 . S
C1746 C1747 1.327 . S
C1747 H1741 0.950 . S
C1747 C1746 1.327 . S
C1747 C1751 1.429 . S
C1748 C1731 1.574 . S
C1748 H1742 0.949 . S
C1748 C1752 1.368 . S
C1749 C1730 1.429 . S
C1749 C1743 1.429 . S
C1749 C1750 1.523 . S
C1750 C1731 1.368 . S
C1750 C1744 1.368 . S
C1750 C1749 1.523 . S
C1751 C1735 1.429 . S
C1751 C1747 1.429 . S
C1751 C1752 1.523 . S
C1752 C1736 1.368 . S
C1752 C1748 1.368 . S
C1752 C1751 1.523 . S
H1753 C1728 0.950 . S
H1754 C1730 0.950 . S
H1755 C1731 0.949 . S
H1756 C1733 0.950 . S
H1757 C1735 0.950 . S
C1758 C1759 1.349 . S
C1758 C1760 1.327 . S
C1758 H1783 0.950 . S
C1759 C1758 1.349 . S
C1759 C1775 1.349 . S
C1760 C1758 1.327 . S
C1760 C1779 1.429 . S
C1760 H1784 0.950 . S
C1761 C1778 1.574 . S
C1761 C1780 1.368 . S
C1761 H1785 0.949 . S
H1762 C1766 0.949 . S
C1763 C1764 1.349 . S
C1763 C1765 1.327 . S
C1763 H1786 0.950 . S
C1764 C1763 1.349 . S
C1764 C1776 1.349 . S
C1765 C1763 1.327 . S
C1765 C1781 1.429 . S
C1765 H1787 0.950 . S
C1766 H1762 0.949 . S
C1766 C1774 1.574 . S
C1766 C1782 1.368 . S
H1767 C1775 0.950 . S
H1768 C1773 0.950 . S
H1769 C1774 0.949 . S
H1770 C1776 0.950 . S
H1771 C1777 0.950 . S
H1772 C1778 0.949 . S
C1773 H1768 0.950 . S
C1773 C1775 1.327 . S
C1773 C1779 1.429 . S
C1774 C1766 1.574 . S
C1774 H1769 0.949 . S
C1774 C1780 1.368 . S
C1775 C1759 1.349 . S
C1775 H1767 0.950 . S
C1775 C1773 1.327 . S
C1776 C1764 1.349 . S
C1776 H1770 0.950 . S
C1776 C1777 1.327 . S
C1777 H1771 0.950 . S
C1777 C1776 1.327 . S
C1777 C1781 1.429 . S
C1778 C1761 1.574 . S
C1778 H1772 0.949 . S
C1778 C1782 1.368 . S
C1779 C1760 1.429 . S
C1779 C1773 1.429 . S
C1779 C1780 1.523 . S
C1780 C1761 1.368 . S
C1780 C1774 1.368 . S
C1780 C1779 1.523 . S
C1781 C1765 1.429 . S
C1781 C1777 1.429 . S
C1781 C1782 1.523 . S
C1782 C1766 1.368 . S
C1782 C1778 1.368 . S
C1782 C1781 1.523 . S
H1783 C1758 0.950 . S
H1784 C1760 0.950 . S
H1785 C1761 0.949 . S
H1786 C1763 0.950 . S
H1787 C1765 0.950 . S
C1788 C1789 1.349 . S
C1788 C1790 1.327 . S
C1788 H1813 0.950 . S
C1789 C1788 1.349 . S
C1789 C1805 1.349 . S
C1790 C1788 1.327 . S
C1790 C1809 1.429 . S
C1790 H1814 0.950 . S
C1791 C1808 1.574 . S
C1791 C1810 1.368 . S
C1791 H1815 0.949 . S
H1792 C1796 0.949 . S
C1793 C1794 1.349 . S
C1793 C1795 1.327 . S
C1793 H1816 0.950 . S
C1794 C1793 1.349 . S
C1794 C1806 1.349 . S
C1795 C1793 1.327 . S
C1795 C1811 1.429 . S
C1795 H1817 0.950 . S
C1796 H1792 0.949 . S
C1796 C1804 1.574 . S
C1796 C1812 1.368 . S
H1797 C1805 0.950 . S
H1798 C1803 0.950 . S
H1799 C1804 0.949 . S
H1800 C1806 0.950 . S
H1801 C1807 0.950 . S
H1802 C1808 0.949 . S
C1803 H1798 0.950 . S
C1803 C1805 1.327 . S
C1803 C1809 1.429 . S
C1804 C1796 1.574 . S
C1804 H1799 0.949 . S
C1804 C1810 1.368 . S
C1805 C1789 1.349 . S
C1805 H1797 0.950 . S
C1805 C1803 1.327 . S
C1806 C1794 1.349 . S
C1806 H1800 0.950 . S
C1806 C1807 1.327 . S
C1807 H1801 0.950 . S
C1807 C1806 1.327 . S
C1807 C1811 1.429 . S
C1808 C1791 1.574 . S
C1808 H1802 0.949 . S
C1808 C1812 1.368 . S
C1809 C1790 1.429 . S
C1809 C1803 1.429 . S
C1809 C1810 1.523 . S
C1810 C1791 1.368 . S
C1810 C1804 1.368 . S
C1810 C1809 1.523 . S
C1811 C1795 1.429 . S
C1811 C1807 1.429 . S
C1811 C1812 1.523 . S
C1812 C1796 1.368 . S
C1812 C1808 1.368 . S
C1812 C1811 1.523 . S
H1813 C1788 0.950 . S
H1814 C1790 0.950 . S
H1815 C1791 0.949 . S
H1816 C1793 0.950 . S
H1817 C1795 0.950 . S
C1818 C1819 1.349 . S
C1818 C1820 1.327 . S
C1818 H1843 0.950 . S
C1819 C1818 1.349 . S
C1819 C1835 1.349 . S
C1820 C1818 1.327 . S
C1820 C1839 1.429 . S
C1820 H1844 0.950 . S
C1821 C1838 1.574 . S
C1821 C1840 1.368 . S
C1821 H1845 0.949 . S
H1822 C1826 0.949 . S
C1823 C1824 1.349 . S
C1823 C1825 1.327 . S
C1823 H1846 0.950 . S
C1824 C1823 1.349 . S
C1824 C1836 1.349 . S
C1825 C1823 1.327 . S
C1825 C1841 1.429 . S
C1825 H1847 0.950 . S
C1826 H1822 0.949 . S
C1826 C1834 1.574 . S
C1826 C1842 1.368 . S
H1827 C1835 0.950 . S
H1828 C1833 0.950 . S
H1829 C1834 0.949 . S
H1830 C1836 0.950 . S
H1831 C1837 0.950 . S
H1832 C1838 0.949 . S
C1833 H1828 0.950 . S
C1833 C1835 1.327 . S
C1833 C1839 1.429 . S
C1834 C1826 1.574 . S
C1834 H1829 0.949 . S
C1834 C1840 1.368 . S
C1835 C1819 1.349 . S
C1835 H1827 0.950 . S
C1835 C1833 1.327 . S
C1836 C1824 1.349 . S
C1836 H1830 0.950 . S
C1836 C1837 1.327 . S
C1837 H1831 0.950 . S
C1837 C1836 1.327 . S
C1837 C1841 1.429 . S
C1838 C1821 1.574 . S
C1838 H1832 0.949 . S
C1838 C1842 1.368 . S
C1839 C1820 1.429 . S
C1839 C1833 1.429 . S
C1839 C1840 1.523 . S
C1840 C1821 1.368 . S
C1840 C1834 1.368 . S
C1840 C1839 1.523 . S
C1841 C1825 1.429 . S
C1841 C1837 1.429 . S
C1841 C1842 1.523 . S
C1842 C1826 1.368 . S
C1842 C1838 1.368 . S
C1842 C1841 1.523 . S
H1843 C1818 0.950 . S
H1844 C1820 0.950 . S
H1845 C1821 0.949 . S
H1846 C1823 0.950 . S
H1847 C1825 0.950 . S
C1848 C1849 1.349 . S
C1848 C1850 1.327 . S
C1848 H1873 0.950 . S
C1849 C1848 1.349 . S
C1849 C1865 1.349 . S
C1850 C1848 1.327 . S
C1850 C1869 1.429 . S
C1850 H1874 0.950 . S
C1851 C1868 1.574 . S
C1851 C1870 1.368 . S
C1851 H1875 0.949 . S
H1852 C1856 0.949 . S
C1853 C1854 1.349 . S
C1853 C1855 1.327 . S
C1853 H1876 0.950 . S
C1854 C1853 1.349 . S
C1854 C1866 1.349 . S
C1855 C1853 1.327 . S
C1855 C1871 1.429 . S
C1855 H1877 0.950 . S
C1856 H1852 0.949 . S
C1856 C1864 1.574 . S
C1856 C1872 1.368 . S
H1857 C1865 0.950 . S
H1858 C1863 0.950 . S
H1859 C1864 0.949 . S
H1860 C1866 0.950 . S
H1861 C1867 0.950 . S
H1862 C1868 0.949 . S
C1863 H1858 0.950 . S
C1863 C1865 1.327 . S
C1863 C1869 1.429 . S
C1864 C1856 1.574 . S
C1864 H1859 0.949 . S
C1864 C1870 1.368 . S
C1865 C1849 1.349 . S
C1865 H1857 0.950 . S
C1865 C1863 1.327 . S
C1866 C1854 1.349 . S
C1866 H1860 0.950 . S
C1866 C1867 1.327 . S
C1867 H1861 0.950 . S
C1867 C1866 1.327 . S
C1867 C1871 1.429 . S
C1868 C1851 1.574 . S
C1868 H1862 0.949 . S
C1868 C1872 1.368 . S
C1869 C1850 1.429 . S
C1869 C1863 1.429 . S
C1869 C1870 1.523 . S
C1870 C1851 1.368 . S
C1870 C1864 1.368 . S
C1870 C1869 1.523 . S
C1871 C1855 1.429 . S
C1871 C1867 1.429 . S
C1871 C1872 1.523 . S
C1872 C1856 1.368 . S
C1872 C1868 1.368 . S
C1872 C1871 1.523 . S
H1873 C1848 0.950 . S
H1874 C1850 0.950 . S
H1875 C1851 0.949 . S
H1876 C1853 0.950 . S
H1877 C1855 0.950 . S
C1878 C1879 1.349 . S
C1878 C1880 1.327 . S
C1878 H1903 0.950 . S
C1879 C1878 1.349 . S
C1879 C1895 1.349 . S
C1880 C1878 1.327 . S
C1880 C1899 1.429 . S
C1880 H1904 0.950 . S
C1881 C1898 1.574 . S
C1881 C1900 1.368 . S
C1881 H1905 0.949 . S
H1882 C1886 0.949 . S
C1883 C1884 1.349 . S
C1883 C1885 1.327 . S
C1883 H1906 0.950 . S
C1884 C1883 1.349 . S
C1884 C1896 1.349 . S
C1885 C1883 1.327 . S
C1885 C1901 1.429 . S
C1885 H1907 0.950 . S
C1886 H1882 0.949 . S
C1886 C1894 1.574 . S
C1886 C1902 1.368 . S
H1887 C1895 0.950 . S
H1888 C1893 0.950 . S
H1889 C1894 0.949 . S
H1890 C1896 0.950 . S
H1891 C1897 0.950 . S
H1892 C1898 0.949 . S
C1893 H1888 0.950 . S
C1893 C1895 1.327 . S
C1893 C1899 1.429 . S
C1894 C1886 1.574 . S
C1894 H1889 0.949 . S
C1894 C1900 1.368 . S
C1895 C1879 1.349 . S
C1895 H1887 0.950 . S
C1895 C1893 1.327 . S
C1896 C1884 1.349 . S
C1896 H1890 0.950 . S
C1896 C1897 1.327 . S
C1897 H1891 0.950 . S
C1897 C1896 1.327 . S
C1897 C1901 1.429 . S
C1898 C1881 1.574 . S
C1898 H1892 0.949 . S
C1898 C1902 1.368 . S
C1899 C1880 1.429 . S
C1899 C1893 1.429 . S
C1899 C1900 1.523 . S
C1900 C1881 1.368 . S
C1900 C1894 1.368 . S
C1900 C1899 1.523 . S
C1901 C1885 1.429 . S
C1901 C1897 1.429 . S
C1901 C1902 1.523 . S
C1902 C1886 1.368 . S
C1902 C1898 1.368 . S
C1902 C1901 1.523 . S
H1903 C1878 0.950 . S
H1904 C1880 0.950 . S
H1905 C1881 0.949 . S
H1906 C1883 0.950 . S
H1907 C1885 0.950 . S
C1908 C1909 1.349 . S
C1908 C1910 1.327 . S
C1908 H1933 0.950 . S
C1909 C1908 1.349 . S
C1909 C1925 1.349 . S
C1910 C1908 1.327 . S
C1910 C1929 1.429 . S
C1910 H1934 0.950 . S
C1911 C1928 1.574 . S
C1911 C1930 1.368 . S
C1911 H1935 0.949 . S
H1912 C1916 0.949 . S
C1913 C1914 1.349 . S
C1913 C1915 1.327 . S
C1913 H1936 0.950 . S
C1914 C1913 1.349 . S
C1914 C1926 1.349 . S
C1915 C1913 1.327 . S
C1915 C1931 1.429 . S
C1915 H1937 0.950 . S
C1916 H1912 0.949 . S
C1916 C1924 1.574 . S
C1916 C1932 1.368 . S
H1917 C1925 0.950 . S
H1918 C1923 0.950 . S
H1919 C1924 0.949 . S
H1920 C1926 0.950 . S
H1921 C1927 0.950 . S
H1922 C1928 0.949 . S
C1923 H1918 0.950 . S
C1923 C1925 1.327 . S
C1923 C1929 1.429 . S
C1924 C1916 1.574 . S
C1924 H1919 0.949 . S
C1924 C1930 1.368 . S
C1925 C1909 1.349 . S
C1925 H1917 0.950 . S
C1925 C1923 1.327 . S
C1926 C1914 1.349 . S
C1926 H1920 0.950 . S
C1926 C1927 1.327 . S
C1927 H1921 0.950 . S
C1927 C1926 1.327 . S
C1927 C1931 1.429 . S
C1928 C1911 1.574 . S
C1928 H1922 0.949 . S
C1928 C1932 1.368 . S
C1929 C1910 1.429 . S
C1929 C1923 1.429 . S
C1929 C1930 1.523 . S
C1930 C1911 1.368 . S
C1930 C1924 1.368 . S
C1930 C1929 1.523 . S
C1931 C1915 1.429 . S
C1931 C1927 1.429 . S
C1931 C1932 1.523 . S
C1932 C1916 1.368 . S
C1932 C1928 1.368 . S
C1932 C1931 1.523 . S
H1933 C1908 0.950 . S
H1934 C1910 0.950 . S
H1935 C1911 0.949 . S
H1936 C1913 0.950 . S
H1937 C1915 0.950 . S
C1938 C1939 1.349 . S
C1938 C1940 1.327 . S
C1938 H1963 0.950 . S
C1939 C1938 1.349 . S
C1939 C1955 1.349 . S
C1940 C1938 1.327 . S
C1940 C1959 1.429 . S
C1940 H1964 0.950 . S
C1941 C1958 1.574 . S
C1941 C1960 1.368 . S
C1941 H1965 0.949 . S
H1942 C1946 0.949 . S
C1943 C1944 1.349 . S
C1943 C1945 1.327 . S
C1943 H1966 0.950 . S
C1944 C1943 1.349 . S
C1944 C1956 1.349 . S
C1945 C1943 1.327 . S
C1945 C1961 1.429 . S
C1945 H1967 0.950 . S
C1946 H1942 0.949 . S
C1946 C1954 1.574 . S
C1946 C1962 1.368 . S
H1947 C1955 0.950 . S
H1948 C1953 0.950 . S
H1949 C1954 0.949 . S
H1950 C1956 0.950 . S
H1951 C1957 0.950 . S
H1952 C1958 0.949 . S
C1953 H1948 0.950 . S
C1953 C1955 1.327 . S
C1953 C1959 1.429 . S
C1954 C1946 1.574 . S
C1954 H1949 0.949 . S
C1954 C1960 1.368 . S
C1955 C1939 1.349 . S
C1955 H1947 0.950 . S
C1955 C1953 1.327 . S
C1956 C1944 1.349 . S
C1956 H1950 0.950 . S
C1956 C1957 1.327 . S
C1957 H1951 0.950 . S
C1957 C1956 1.327 . S
C1957 C1961 1.429 . S
C1958 C1941 1.574 . S
C1958 H1952 0.949 . S
C1958 C1962 1.368 . S
C1959 C1940 1.429 . S
C1959 C1953 1.429 . S
C1959 C1960 1.523 . S
C1960 C1941 1.368 . S
C1960 C1954 1.368 . S
C1960 C1959 1.523 . S
C1961 C1945 1.429 . S
C1961 C1957 1.429 . S
C1961 C1962 1.523 . S
C1962 C1946 1.368 . S
C1962 C1958 1.368 . S
C1962 C1961 1.523 . S
H1963 C1938 0.950 . S
H1964 C1940 0.950 . S
H1965 C1941 0.949 . S
H1966 C1943 0.950 . S
H1967 C1945 0.950 . S
C1968 C1969 1.349 . S
C1968 C1970 1.327 . S
C1968 H1993 0.950 . S
C1969 C1968 1.349 . S
C1969 C1985 1.349 . S
C1970 C1968 1.327 . S
C1970 C1989 1.429 . S
C1970 H1994 0.950 . S
C1971 C1988 1.574 . S
C1971 C1990 1.368 . S
C1971 H1995 0.949 . S
H1972 C1976 0.949 . S
C1973 C1974 1.349 . S
C1973 C1975 1.327 . S
C1973 H1996 0.950 . S
C1974 C1973 1.349 . S
C1974 C1986 1.349 . S
C1975 C1973 1.327 . S
C1975 C1991 1.429 . S
C1975 H1997 0.950 . S
C1976 H1972 0.949 . S
C1976 C1984 1.574 . S
C1976 C1992 1.368 . S
H1977 C1985 0.950 . S
H1978 C1983 0.950 . S
H1979 C1984 0.949 . S
H1980 C1986 0.950 . S
H1981 C1987 0.950 . S
H1982 C1988 0.949 . S
C1983 H1978 0.950 . S
C1983 C1985 1.327 . S
C1983 C1989 1.429 . S
C1984 C1976 1.574 . S
C1984 H1979 0.949 . S
C1984 C1990 1.368 . S
C1985 C1969 1.349 . S
C1985 H1977 0.950 . S
C1985 C1983 1.327 . S
C1986 C1974 1.349 . S
C1986 H1980 0.950 . S
C1986 C1987 1.327 . S
C1987 H1981 0.950 . S
C1987 C1986 1.327 . S
C1987 C1991 1.429 . S
C1988 C1971 1.574 . S
C1988 H1982 0.949 . S
C1988 C1992 1.368 . S
C1989 C1970 1.429 . S
C1989 C1983 1.429 . S
C1989 C1990 1.523 . S
C1990 C1971 1.368 . S
C1990 C1984 1.368 . S
C1990 C1989 1.523 . S
C1991 C1975 1.429 . S
C1991 C1987 1.429 . S
C1991 C1992 1.523 . S
C1992 C1976 1.368 . S
C1992 C1988 1.368 . S
C1992 C1991 1.523 . S
H1993 C1968 0.950 . S
H1994 C1970 0.950 . S
H1995 C1971 0.949 . S
H1996 C1973 0.950 . S
H1997 C1975 0.950 . S
C1998 C1999 1.349 . S
C1998 C2000 1.327 . S
C1998 H2023 0.950 . S
C1999 C1998 1.349 . S
C1999 C2015 1.349 . S
C2000 C1998 1.327 . S
C2000 C2019 1.429 . S
C2000 H2024 0.950 . S
C2001 C2018 1.574 . S
C2001 C2020 1.368 . S
C2001 H2025 0.949 . S
H2002 C2006 0.949 . S
C2003 C2004 1.349 . S
C2003 C2005 1.327 . S
C2003 H2026 0.950 . S
C2004 C2003 1.349 . S
C2004 C2016 1.349 . S
C2005 C2003 1.327 . S
C2005 C2021 1.429 . S
C2005 H2027 0.950 . S
C2006 H2002 0.949 . S
C2006 C2014 1.574 . S
C2006 C2022 1.368 . S
H2007 C2015 0.950 . S
H2008 C2013 0.950 . S
H2009 C2014 0.949 . S
H2010 C2016 0.950 . S
H2011 C2017 0.950 . S
H2012 C2018 0.949 . S
C2013 H2008 0.950 . S
C2013 C2015 1.327 . S
C2013 C2019 1.429 . S
C2014 C2006 1.574 . S
C2014 H2009 0.949 . S
C2014 C2020 1.368 . S
C2015 C1999 1.349 . S
C2015 H2007 0.950 . S
C2015 C2013 1.327 . S
C2016 C2004 1.349 . S
C2016 H2010 0.950 . S
C2016 C2017 1.327 . S
C2017 H2011 0.950 . S
C2017 C2016 1.327 . S
C2017 C2021 1.429 . S
C2018 C2001 1.574 . S
C2018 H2012 0.949 . S
C2018 C2022 1.368 . S
C2019 C2000 1.429 . S
C2019 C2013 1.429 . S
C2019 C2020 1.523 . S
C2020 C2001 1.368 . S
C2020 C2014 1.368 . S
C2020 C2019 1.523 . S
C2021 C2005 1.429 . S
C2021 C2017 1.429 . S
C2021 C2022 1.523 . S
C2022 C2006 1.368 . S
C2022 C2018 1.368 . S
C2022 C2021 1.523 . S
H2023 C1998 0.950 . S
H2024 C2000 0.950 . S
H2025 C2001 0.949 . S
H2026 C2003 0.950 . S
H2027 C2005 0.950 . S
C2028 C2029 1.349 . S
C2028 C2030 1.327 . S
C2028 H2053 0.950 . S
C2029 C2028 1.349 . S
C2029 C2045 1.349 . S
C2030 C2028 1.327 . S
C2030 C2049 1.429 . S
C2030 H2054 0.950 . S
C2031 C2048 1.574 . S
C2031 C2050 1.368 . S
C2031 H2055 0.949 . S
H2032 C2036 0.949 . S
C2033 C2034 1.349 . S
C2033 C2035 1.327 . S
C2033 H2056 0.950 . S
C2034 C2033 1.349 . S
C2034 C2046 1.349 . S
C2035 C2033 1.327 . S
C2035 C2051 1.429 . S
C2035 H2057 0.950 . S
C2036 H2032 0.949 . S
C2036 C2044 1.574 . S
C2036 C2052 1.368 . S
H2037 C2045 0.950 . S
H2038 C2043 0.950 . S
H2039 C2044 0.949 . S
H2040 C2046 0.950 . S
H2041 C2047 0.950 . S
H2042 C2048 0.949 . S
C2043 H2038 0.950 . S
C2043 C2045 1.327 . S
C2043 C2049 1.429 . S
C2044 C2036 1.574 . S
C2044 H2039 0.949 . S
C2044 C2050 1.368 . S
C2045 C2029 1.349 . S
C2045 H2037 0.950 . S
C2045 C2043 1.327 . S
C2046 C2034 1.349 . S
C2046 H2040 0.950 . S
C2046 C2047 1.327 . S
C2047 H2041 0.950 . S
C2047 C2046 1.327 . S
C2047 C2051 1.429 . S
C2048 C2031 1.574 . S
C2048 H2042 0.949 . S
C2048 C2052 1.368 . S
C2049 C2030 1.429 . S
C2049 C2043 1.429 . S
C2049 C2050 1.523 . S
C2050 C2031 1.368 . S
C2050 C2044 1.368 . S
C2050 C2049 1.523 . S
C2051 C2035 1.429 . S
C2051 C2047 1.429 . S
C2051 C2052 1.523 . S
C2052 C2036 1.368 . S
C2052 C2048 1.368 . S
C2052 C2051 1.523 . S
H2053 C2028 0.950 . S
H2054 C2030 0.950 . S
H2055 C2031 0.949 . S
H2056 C2033 0.950 . S
H2057 C2035 0.950 . S
C2058 C2059 1.349 . S
C2058 C2060 1.327 . S
C2058 H2083 0.950 . S
C2059 C2058 1.349 . S
C2059 C2075 1.349 . S
C2060 C2058 1.327 . S
C2060 C2079 1.429 . S
C2060 H2084 0.950 . S
C2061 C2078 1.574 . S
C2061 C2080 1.368 . S
C2061 H2085 0.949 . S
H2062 C2066 0.949 . S
C2063 C2064 1.349 . S
C2063 C2065 1.327 . S
C2063 H2086 0.950 . S
C2064 C2063 1.349 . S
C2064 C2076 1.349 . S
C2065 C2063 1.327 . S
C2065 C2081 1.429 . S
C2065 H2087 0.950 . S
C2066 H2062 0.949 . S
C2066 C2074 1.574 . S
C2066 C2082 1.368 . S
H2067 C2075 0.950 . S
H2068 C2073 0.950 . S
H2069 C2074 0.949 . S
H2070 C2076 0.950 . S
H2071 C2077 0.950 . S
H2072 C2078 0.949 . S
C2073 H2068 0.950 . S
C2073 C2075 1.327 . S
C2073 C2079 1.429 . S
C2074 C2066 1.574 . S
C2074 H2069 0.949 . S
C2074 C2080 1.368 . S
C2075 C2059 1.349 . S
C2075 H2067 0.950 . S
C2075 C2073 1.327 . S
C2076 C2064 1.349 . S
C2076 H2070 0.950 . S
C2076 C2077 1.327 . S
C2077 H2071 0.950 . S
C2077 C2076 1.327 . S
C2077 C2081 1.429 . S
C2078 C2061 1.574 . S
C2078 H2072 0.949 . S
C2078 C2082 1.368 . S
C2079 C2060 1.429 . S
C2079 C2073 1.429 . S
C2079 C2080 1.523 . S
C2080 C2061 1.368 . S
C2080 C2074 1.368 . S
C2080 C2079 1.523 . S
C2081 C2065 1.429 . S
C2081 C2077 1.429 . S
C2081 C2082 1.523 . S
C2082 C2066 1.368 . S
C2082 C2078 1.368 . S
C2082 C2081 1.523 . S
H2083 C2058 0.950 . S
H2084 C2060 0.950 . S
H2085 C2061 0.949 . S
H2086 C2063 0.950 . S
H2087 C2065 0.950 . S
C1009 C476 1.348 . S
C1014 C70 1.249 . S
C1039 C154 1.194 . S
C1044 C56 1.296 . S
C1069 C238 1.307 . S
C1074 C140 1.419 . S
C1099 C224 1.348 . S
C1104 C322 1.249 . S
C1129 C308 1.300 . S
C1134 C406 1.191 . S
C1159 C490 1.307 . S
C1164 C392 1.419 . S
C1189 C644 1.348 . S
C1194 C574 1.249 . S
C1219 C658 1.307 . S
C1224 C728 1.419 . S
C1249 C812 1.299 . S
C1254 C742 1.191 . S
C1279 C896 1.348 . S
C1284 C826 1.249 . S
C1309 C980 1.416 . S
C1314 C910 1.311 . S
C1339 C560 1.300 . S
C1344 C994 1.191 . S
C1369 C987 3.293 . S
C1374 C67 3.280 . S
C1399 C151 2.780 . S
C1404 C567 2.792 . S
C1429 C651 3.042 . S
C1434 C235 3.022 . S
C1459 C735 3.293 . S
C1464 C319 3.281 . S
C1489 C819 2.796 . S
C1494 C403 2.777 . S
C1519 C487 3.024 . S
C1524 C903 3.040 . S
C1549 C571 3.277 . S
C1554 C147 3.297 . S
C1579 C655 3.025 . S
C1584 C231 3.040 . S
C1609 C315 2.796 . S
C1614 C739 2.777 . S
C1639 C399 3.293 . S
C1644 C823 3.280 . S
C1669 C907 3.024 . S
C1674 C483 3.040 . S
C1699 C991 2.781 . S
C1704 C63 2.792 . S
C1729 C578 2.270 . S
C1734 C74 2.273 . S
C1759 C158 1.539 . S
C1764 C662 1.555 . S
C1789 C746 1.539 . S
C1794 C242 1.555 . S
C1819 C326 2.270 . S
C1824 C830 2.274 . S
C1849 C914 1.551 . S
C1854 C410 1.542 . S
C1879 C998 1.539 . S
C1884 C494 1.555 . S
C1909 C562 0.753 . S
C1914 C58 0.756 . S
C1939 C646 0.517 . S
C1944 C142 0.499 . S
C1969 C730 0.498 . S
C1974 C226 0.517 . S
C1999 C310 0.753 . S
C2004 C814 0.756 . S
C2029 C898 0.516 . S
C2034 C394 0.499 . S
C2059 C982 0.498 . S
C2064 C478 0.517 . S
