# Generated by pormake.
# Topology uoy, (4)-cn, num edge types: 1
# Building blocks:
#     Node 0, Type 0, BuildingBlock: GALJAG_clean_sbu_0, # of connection points: 4
#     Node 1, Type 0, BuildingBlock: GALJAG_clean_sbu_0, # of connection points: 4
#     Node 2, Type 0, BuildingBlock: GALJAG_clean_sbu_0, # of connection points: 4
#     Node 3, Type 0, BuildingBlock: GALJAG_clean_sbu_0, # of connection points: 4
#     Node 4, Type 0, BuildingBlock: GALJAG_clean_sbu_0, # of connection points: 4
#     Node 5, Type 0, BuildingBlock: GALJAG_clean_sbu_0, # of connection points: 4
#     Node 6, Type 0, BuildingBlock: GALJAG_clean_sbu_0, # of connection points: 4
#     Node 7, Type 0, BuildingBlock: GALJAG_clean_sbu_0, # of connection points: 4
#     Node 8, Type 0, BuildingBlock: GALJAG_clean_sbu_0, # of connection points: 4
#     Node 9, Type 0, BuildingBlock: GALJAG_clean_sbu_0, # of connection points: 4
#     Node 10, Type 0, BuildingBlock: GALJAG_clean_sbu_0, # of connection points: 4
#     Node 11, Type 0, BuildingBlock: GALJAG_clean_sbu_0, # of connection points: 4
#     Node 12, Type 0, BuildingBlock: GALJAG_clean_sbu_0, # of connection points: 4
#     Node 13, Type 0, BuildingBlock: GALJAG_clean_sbu_0, # of connection points: 4
#     Node 14, Type 0, BuildingBlock: GALJAG_clean_sbu_0, # of connection points: 4
#     Node 15, Type 0, BuildingBlock: GALJAG_clean_sbu_0, # of connection points: 4
#     Edge 16, Type (0, 0), BuildingBlock: EZIPEK_clean_linker_0, # of connection points: 2
#     Edge 17, Type (0, 0), BuildingBlock: EZIPEK_clean_linker_0, # of connection points: 2
#     Edge 18, Type (0, 0), BuildingBlock: EZIPEK_clean_linker_0, # of connection points: 2
#     Edge 19, Type (0, 0), BuildingBlock: EZIPEK_clean_linker_0, # of connection points: 2
#     Edge 20, Type (0, 0), BuildingBlock: EZIPEK_clean_linker_0, # of connection points: 2
#     Edge 21, Type (0, 0), BuildingBlock: EZIPEK_clean_linker_0, # of connection points: 2
#     Edge 22, Type (0, 0), BuildingBlock: EZIPEK_clean_linker_0, # of connection points: 2
#     Edge 23, Type (0, 0), BuildingBlock: EZIPEK_clean_linker_0, # of connection points: 2
#     Edge 24, Type (0, 0), BuildingBlock: EZIPEK_clean_linker_0, # of connection points: 2
#     Edge 25, Type (0, 0), BuildingBlock: EZIPEK_clean_linker_0, # of connection points: 2
#     Edge 26, Type (0, 0), BuildingBlock: EZIPEK_clean_linker_0, # of connection points: 2
#     Edge 27, Type (0, 0), BuildingBlock: EZIPEK_clean_linker_0, # of connection points: 2
#     Edge 28, Type (0, 0), BuildingBlock: EZIPEK_clean_linker_0, # of connection points: 2
#     Edge 29, Type (0, 0), BuildingBlock: EZIPEK_clean_linker_0, # of connection points: 2
#     Edge 30, Type (0, 0), BuildingBlock: EZIPEK_clean_linker_0, # of connection points: 2
#     Edge 31, Type (0, 0), BuildingBlock: EZIPEK_clean_linker_0, # of connection points: 2
#     Edge 32, Type (0, 0), BuildingBlock: EZIPEK_clean_linker_0, # of connection points: 2
#     Edge 33, Type (0, 0), BuildingBlock: EZIPEK_clean_linker_0, # of connection points: 2
#     Edge 34, Type (0, 0), BuildingBlock: EZIPEK_clean_linker_0, # of connection points: 2
#     Edge 35, Type (0, 0), BuildingBlock: EZIPEK_clean_linker_0, # of connection points: 2
#     Edge 36, Type (0, 0), BuildingBlock: EZIPEK_clean_linker_0, # of connection points: 2
#     Edge 37, Type (0, 0), BuildingBlock: EZIPEK_clean_linker_0, # of connection points: 2
#     Edge 38, Type (0, 0), BuildingBlock: EZIPEK_clean_linker_0, # of connection points: 2
#     Edge 39, Type (0, 0), BuildingBlock: EZIPEK_clean_linker_0, # of connection points: 2
#     Edge 40, Type (0, 0), BuildingBlock: EZIPEK_clean_linker_0, # of connection points: 2
#     Edge 41, Type (0, 0), BuildingBlock: EZIPEK_clean_linker_0, # of connection points: 2
#     Edge 42, Type (0, 0), BuildingBlock: EZIPEK_clean_linker_0, # of connection points: 2
#     Edge 43, Type (0, 0), BuildingBlock: EZIPEK_clean_linker_0, # of connection points: 2
#     Edge 44, Type (0, 0), BuildingBlock: EZIPEK_clean_linker_0, # of connection points: 2
#     Edge 45, Type (0, 0), BuildingBlock: EZIPEK_clean_linker_0, # of connection points: 2
#     Edge 46, Type (0, 0), BuildingBlock: EZIPEK_clean_linker_0, # of connection points: 2
#     Edge 47, Type (0, 0), BuildingBlock: EZIPEK_clean_linker_0, # of connection points: 2
# Relax obj value: 0.037
# Max RMSD: 0.056
# Mean RMSD: 0.056
data_MOF--net-uoy--node1-GALJAG_clean_sbu_0--edge1-EZIPEK_clean_linker_0
_symmetry_space_group_name_H-M    P1
_symmetry_Int_Tables_number       1
_symmetry_cell_setting            triclinic
loop_
_symmetry_equiv_pos_as_xyz
'x, y, z'
_cell_length_a     20.236462
_cell_length_b     20.241415
_cell_length_c     80.725016
_cell_angle_alpha  90.015094
_cell_angle_beta   89.997735
_cell_angle_gamma 90.019264
loop_
_atom_site_label
_atom_site_type_symbol
_atom_site_fract_x
_atom_site_fract_y
_atom_site_fract_z
_atom_type_partial_charge
In0 In 0.24528 0.11134 0.18582 0.0
O1 O 0.23293 0.20553 0.17059 0.0
O2 O 0.25355 0.11626 0.15768 0.0
C3 C 0.26127 0.16072 0.21658 0.0
C4 C 0.12425 0.05512 0.18628 0.0
C5 C 0.36416 0.05231 0.18397 0.0
O6 O 0.25547 0.19741 0.20401 0.0
O7 O 0.2569 0.09965 0.21369 0.0
O8 O 0.31085 0.01975 0.18448 0.0
O9 O 0.35747 0.11428 0.18424 0.0
C10 C 0.24262 0.17746 0.15683 0.0
O11 O 0.17606 0.02227 0.18353 0.0
O12 O 0.13323 0.11581 0.18889 0.0
In13 In 0.88895 0.74873 0.43725 0.0
O14 O 0.98062 0.6826 0.43712 0.0
O15 O 0.88644 0.63624 0.4385 0.0
C16 C 0.94219 0.87005 0.43446 0.0
C17 C 0.82269 0.7439 0.40839 0.0
C18 C 0.84138 0.76069 0.46831 0.0
O19 O 0.97709 0.8183 0.43405 0.0
O20 O 0.88089 0.86062 0.43598 0.0
O21 O 0.80453 0.74738 0.45613 0.0
O22 O 0.90199 0.76548 0.4649 0.0
C23 C 0.94829 0.62933 0.4379 0.0
O24 O 0.79362 0.7449 0.42223 0.0
O25 O 0.88493 0.74519 0.40907 0.0
In26 In 0.25133 0.38046 0.68676 0.0
O27 O 0.26832 0.28537 0.67204 0.0
O28 O 0.24823 0.37415 0.65871 0.0
C29 C 0.23392 0.33829 0.71816 0.0
C30 C 0.37205 0.43608 0.68663 0.0
C31 C 0.13168 0.43818 0.6847 0.0
O32 O 0.22466 0.30065 0.70587 0.0
O33 O 0.25474 0.3952 0.71458 0.0
O34 O 0.18362 0.47106 0.68754 0.0
O35 O 0.14055 0.37728 0.68235 0.0
C36 C 0.26029 0.31307 0.65812 0.0
O37 O 0.32073 0.46777 0.68253 0.0
O38 O 0.36253 0.37667 0.69074 0.0
In39 In 0.61684 0.74979 0.93683 0.0
O40 O 0.52645 0.81715 0.93838 0.0
O41 O 0.62151 0.86222 0.93762 0.0
C42 C 0.55905 0.62995 0.93451 0.0
C43 C 0.68014 0.75282 0.90741 0.0
C44 C 0.66718 0.74199 0.9677 0.0
O45 O 0.52719 0.68296 0.93237 0.0
O46 O 0.61969 0.63739 0.93755 0.0
O47 O 0.70269 0.75562 0.95527 0.0
O48 O 0.60656 0.73456 0.96459 0.0
C49 C 0.55972 0.86999 0.93826 0.0
O50 O 0.70983 0.74048 0.92083 0.0
O51 O 0.6191 0.76366 0.90884 0.0
In52 In 0.26474 0.38787 0.06605 0.0
O53 O 0.2726 0.29414 0.0817 0.0
O54 O 0.2457 0.3835 0.09385 0.0
C55 C 0.2737 0.33809 0.03515 0.0
C56 C 0.14515 0.44562 0.06499 0.0
C57 C 0.38429 0.44653 0.0681 0.0
O58 O 0.26013 0.30216 0.04749 0.0
O59 O 0.28103 0.39855 0.03838 0.0
O60 O 0.33152 0.47916 0.06644 0.0
O61 O 0.37674 0.38485 0.06914 0.0
C62 C 0.25763 0.32258 0.09511 0.0
O63 O 0.19703 0.47758 0.06837 0.0
O64 O 0.15344 0.38502 0.06201 0.0
In65 In 0.61699 0.75156 0.31685 0.0
O66 O 0.52874 0.68189 0.31817 0.0
O67 O 0.62339 0.64037 0.31288 0.0
C68 C 0.55891 0.87104 0.31947 0.0
C69 C 0.68256 0.74482 0.34588 0.0
C70 C 0.66 0.76525 0.2855 0.0
O71 O 0.52627 0.81788 0.32017 0.0
O72 O 0.62045 0.86383 0.31796 0.0
O73 O 0.69964 0.75715 0.29745 0.0
O74 O 0.5996 0.76432 0.28934 0.0
C75 C 0.56242 0.63073 0.31516 0.0
O76 O 0.71162 0.75651 0.33234 0.0
O77 O 0.62117 0.73556 0.34472 0.0
In78 In 0.24569 0.1141 0.56552 0.0
O79 O 0.24418 0.20772 0.58149 0.0
O80 O 0.25796 0.11515 0.59351 0.0
C81 C 0.23395 0.15712 0.53411 0.0
C82 C 0.36625 0.05904 0.56414 0.0
C83 C 0.1256 0.05739 0.56797 0.0
O84 O 0.23688 0.19684 0.5462 0.0
O85 O 0.23945 0.09691 0.53787 0.0
O86 O 0.17838 0.02465 0.56954 0.0
O87 O 0.13343 0.11835 0.56552 0.0
C88 C 0.25208 0.17685 0.59497 0.0
O89 O 0.31412 0.02506 0.56551 0.0
O90 O 0.35766 0.12077 0.56332 0.0
In91 In 0.87802 0.75823 0.81481 0.0
O92 O 0.78379 0.76163 0.83035 0.0
O93 O 0.87613 0.75781 0.843 0.0
C94 C 0.82924 0.74422 0.7839 0.0
C95 C 0.93374 0.87942 0.81419 0.0
C96 C 0.93616 0.6391 0.81711 0.0
O97 O 0.79217 0.75066 0.79639 0.0
O98 O 0.89025 0.74766 0.78692 0.0
O99 O 0.96897 0.6922 0.81755 0.0
O100 O 0.8745 0.64608 0.81576 0.0
C101 C 0.81399 0.75987 0.84403 0.0
O102 O 0.96758 0.82707 0.81457 0.0
O103 O 0.872 0.87084 0.81412 0.0
In104 In 0.7516 0.61497 0.68649 0.0
O105 O 0.68456 0.52417 0.68762 0.0
O106 O 0.63911 0.61903 0.68723 0.0
C107 C 0.87189 0.5587 0.6838 0.0
C108 C 0.74887 0.67899 0.65725 0.0
C109 C 0.76009 0.66414 0.71745 0.0
O110 O 0.81906 0.52588 0.68229 0.0
O111 O 0.864 0.6195 0.68653 0.0
O112 O 0.74561 0.70001 0.70515 0.0
O113 O 0.7679 0.60374 0.71417 0.0
C114 C 0.63158 0.55718 0.6876 0.0
O115 O 0.75929 0.70857 0.67078 0.0
O116 O 0.73911 0.61769 0.65849 0.0
In117 In 0.38226 0.25009 0.93691 0.0
O118 O 0.28707 0.23781 0.92199 0.0
O119 O 0.37672 0.25322 0.90874 0.0
C120 C 0.33556 0.26556 0.96788 0.0
C121 C 0.43902 0.12952 0.93764 0.0
C122 C 0.43927 0.36998 0.93502 0.0
O123 O 0.29759 0.25998 0.95552 0.0
O124 O 0.39642 0.26152 0.96464 0.0
O125 O 0.47285 0.31741 0.93582 0.0
O126 O 0.37744 0.36203 0.93494 0.0
C127 C 0.31518 0.24401 0.90811 0.0
O128 O 0.47036 0.18068 0.93337 0.0
O129 O 0.37959 0.13908 0.94163 0.0
In130 In 0.74496 0.87727 0.18674 0.0
O131 O 0.75938 0.78131 0.17225 0.0
O132 O 0.74907 0.87141 0.15871 0.0
C133 C 0.73079 0.83516 0.21826 0.0
C134 C 0.86469 0.93482 0.18648 0.0
C135 C 0.62429 0.93299 0.18403 0.0
O136 O 0.72173 0.79713 0.20605 0.0
O137 O 0.74954 0.89261 0.21454 0.0
O138 O 0.67542 0.96658 0.18716 0.0
O139 O 0.63435 0.87225 0.18177 0.0
C140 C 0.7572 0.80963 0.15829 0.0
O141 O 0.81219 0.96692 0.18375 0.0
O142 O 0.8568 0.87395 0.18928 0.0
In143 In 0.12182 0.2477 0.43567 0.0
O144 O 0.03519 0.31922 0.43305 0.0
O145 O 0.12896 0.35911 0.43962 0.0
C146 C 0.05936 0.13065 0.43368 0.0
C147 C 0.188 0.25173 0.40668 0.0
C148 C 0.16566 0.2296 0.46686 0.0
O149 O 0.02846 0.18489 0.43311 0.0
O150 O 0.1213 0.13553 0.43495 0.0
O151 O 0.20427 0.22776 0.45455 0.0
O152 O 0.10615 0.24217 0.46344 0.0
C153 C 0.06887 0.36989 0.43651 0.0
O154 O 0.21641 0.26135 0.42041 0.0
O155 O 0.12698 0.24012 0.4076 0.0
In156 In 0.74594 0.88195 0.56536 0.0
O157 O 0.6773 0.97117 0.56779 0.0
O158 O 0.63456 0.87867 0.56125 0.0
C159 C 0.86552 0.93887 0.56713 0.0
C160 C 0.741 0.81737 0.59452 0.0
C161 C 0.76292 0.83309 0.53467 0.0
O162 O 0.81291 0.97249 0.56666 0.0
O163 O 0.85778 0.87703 0.56693 0.0
O164 O 0.75675 0.79604 0.54718 0.0
O165 O 0.75827 0.89412 0.5376 0.0
C166 C 0.62568 0.93907 0.5643 0.0
O167 O 0.73223 0.78842 0.58083 0.0
O168 O 0.7521 0.87849 0.5935 0.0
In169 In 0.11111 0.2587 0.81635 0.0
O170 O 0.02109 0.19106 0.817 0.0
O171 O 0.1159 0.14679 0.81369 0.0
C172 C 0.05554 0.37939 0.81881 0.0
C173 C 0.17488 0.25225 0.84561 0.0
C174 C 0.1562 0.27019 0.78509 0.0
O175 O 0.02179 0.32691 0.81946 0.0
O176 O 0.11694 0.37093 0.81733 0.0
O177 O 0.19492 0.26172 0.7972 0.0
O178 O 0.0956 0.27076 0.78871 0.0
C179 C 0.05434 0.13875 0.8152 0.0
O180 O 0.20509 0.26103 0.83209 0.0
O181 O 0.11317 0.24561 0.84432 0.0
In182 In 0.76453 0.62139 0.06455 0.0
O183 O 0.7672 0.71336 0.08101 0.0
O184 O 0.76692 0.61892 0.0927 0.0
C185 C 0.74948 0.6729 0.03394 0.0
C186 C 0.88538 0.56506 0.064 0.0
C187 C 0.64483 0.56423 0.06646 0.0
O188 O 0.75745 0.70897 0.04657 0.0
O189 O 0.75201 0.61165 0.03668 0.0
O190 O 0.69703 0.53088 0.06451 0.0
O191 O 0.65301 0.62579 0.06763 0.0
C192 C 0.76696 0.68086 0.09438 0.0
O193 O 0.83303 0.53184 0.06573 0.0
O194 O 0.87693 0.62647 0.06234 0.0
In195 In 0.38486 0.25089 0.31397 0.0
O196 O 0.29077 0.25406 0.32963 0.0
O197 O 0.3835 0.25265 0.34213 0.0
C198 C 0.33683 0.23688 0.28297 0.0
C199 C 0.44294 0.37096 0.31332 0.0
C200 C 0.44009 0.13076 0.3167 0.0
O201 O 0.2999 0.24986 0.29517 0.0
O202 O 0.39757 0.23353 0.28633 0.0
O203 O 0.47425 0.18306 0.31663 0.0
O204 O 0.37848 0.13902 0.31558 0.0
C205 C 0.3214 0.25374 0.34327 0.0
O206 O 0.47571 0.31809 0.31441 0.0
O207 O 0.38122 0.3634 0.31234 0.0
C208 C 0.20553 0.23476 0.11271 0.0
C209 C 0.25246 0.28655 0.11106 0.0
C210 C 0.29302 0.26586 0.13926 0.0
C211 C 0.24575 0.21452 0.14101 0.0
N212 N 0.16151 0.14451 0.12919 0.0
N213 N 0.33277 0.35953 0.12353 0.0
C214 C 0.2033 0.19729 0.12765 0.0
C215 C 0.29365 0.3046 0.12458 0.0
N216 N 0.1601 0.22461 0.10039 0.0
N217 N 0.34071 0.27433 0.15111 0.0
H218 H 0.33733 0.38763 0.11281 0.0
H219 H 0.35704 0.38045 0.13361 0.0
H220 H 0.3437 0.24566 0.16181 0.0
H221 H 0.38138 0.3053 0.14971 0.0
H222 H 0.1202 0.19247 0.10128 0.0
H223 H 0.15884 0.25236 0.08951 0.0
H224 H 0.13512 0.12383 0.11943 0.0
H225 H 0.15531 0.11847 0.1402 0.0
C226 C 0.79755 0.69178 0.38087 0.0
C227 C 0.78644 0.74335 0.39246 0.0
C228 C 0.70189 0.79103 0.37434 0.0
C229 C 0.71752 0.74336 0.36202 0.0
N230 N 0.7834 0.65095 0.35283 0.0
N231 N 0.73793 0.84908 0.39896 0.0
C232 C 0.76668 0.69475 0.36503 0.0
C233 C 0.74105 0.79474 0.38891 0.0
N234 N 0.83488 0.63829 0.38531 0.0
N235 N 0.64949 0.8328 0.37223 0.0
H236 H 0.76697 0.85473 0.40954 0.0
H237 H 0.71142 0.89154 0.39599 0.0
H238 H 0.62077 0.83383 0.36155 0.0
H239 H 0.63107 0.86292 0.38161 0.0
H240 H 0.83919 0.59579 0.37814 0.0
H241 H 0.85719 0.63365 0.3969 0.0
H242 H 0.82437 0.61996 0.35349 0.0
H243 H 0.75836 0.64779 0.34157 0.0
C244 C 0.21031 0.19243 0.6241 0.0
C245 C 0.25525 0.21048 0.61131 0.0
C246 C 0.30573 0.29369 0.62955 0.0
C247 C 0.26028 0.27619 0.64224 0.0
N248 N 0.16218 0.21791 0.65088 0.0
N249 N 0.35389 0.26791 0.60276 0.0
C250 C 0.2112 0.22731 0.63941 0.0
C251 C 0.30485 0.25878 0.61422 0.0
N252 N 0.16707 0.14136 0.62167 0.0
N253 N 0.34901 0.34467 0.63205 0.0
H254 H 0.35617 0.24207 0.5916 0.0
H255 H 0.39569 0.29674 0.60475 0.0
H256 H 0.35421 0.36876 0.64338 0.0
H257 H 0.37735 0.366 0.62273 0.0
H258 H 0.13975 0.11943 0.63111 0.0
H259 H 0.16085 0.11763 0.61035 0.0
H260 H 0.12025 0.18932 0.64883 0.0
H261 H 0.16003 0.24306 0.66213 0.0
C262 C 0.79192 0.80874 0.87206 0.0
C263 C 0.7792 0.75866 0.86017 0.0
C264 C 0.69724 0.70845 0.87867 0.0
C265 C 0.71422 0.75495 0.89116 0.0
N266 N 0.78148 0.84625 0.90048 0.0
N267 N 0.72946 0.65397 0.85319 0.0
C268 C 0.76307 0.80391 0.88811 0.0
C269 C 0.73422 0.7068 0.86371 0.0
N270 N 0.82881 0.86271 0.86772 0.0
N271 N 0.64566 0.66584 0.88104 0.0
H272 H 0.75667 0.65001 0.84227 0.0
H273 H 0.70334 0.61109 0.85601 0.0
H274 H 0.61907 0.66299 0.89206 0.0
H275 H 0.62594 0.63654 0.87166 0.0
H276 H 0.83413 0.90435 0.87517 0.0
H277 H 0.84965 0.86872 0.856 0.0
H278 H 0.82244 0.87723 0.89972 0.0
H279 H 0.75806 0.84808 0.91197 0.0
C280 C 0.6974 0.79928 0.62333 0.0
C281 C 0.74232 0.78161 0.61053 0.0
C282 C 0.79105 0.69598 0.62829 0.0
C283 C 0.74644 0.7139 0.64113 0.0
N284 N 0.64962 0.77322 0.65014 0.0
N285 N 0.83977 0.72284 0.60167 0.0
C286 C 0.69797 0.76355 0.63852 0.0
C287 C 0.79083 0.73202 0.61316 0.0
N288 N 0.65482 0.85096 0.62102 0.0
N289 N 0.83316 0.64382 0.63047 0.0
H290 H 0.84258 0.74924 0.5906 0.0
H291 H 0.88113 0.69331 0.60357 0.0
H292 H 0.83823 0.61871 0.64165 0.0
H293 H 0.86043 0.62237 0.62096 0.0
H294 H 0.62684 0.87221 0.63043 0.0
H295 H 0.6498 0.87572 0.60979 0.0
H296 H 0.60848 0.80317 0.64838 0.0
H297 H 0.64727 0.74699 0.66124 0.0
C298 C 0.29322 0.1977 0.87973 0.0
C299 C 0.27821 0.24471 0.89226 0.0
C300 C 0.19338 0.29477 0.87452 0.0
C301 C 0.20942 0.24887 0.8618 0.0
N302 N 0.26465 0.14927 0.85311 0.0
N303 N 0.2237 0.34522 0.90068 0.0
C304 C 0.25718 0.19865 0.86456 0.0
C305 C 0.23033 0.29474 0.8895 0.0
N306 N 0.34266 0.15273 0.88227 0.0
N307 N 0.14208 0.33793 0.87239 0.0
H308 H 0.2507 0.34815 0.91165 0.0
H309 H 0.19588 0.38758 0.89854 0.0
H310 H 0.11599 0.34259 0.86135 0.0
H311 H 0.12198 0.36625 0.8819 0.0
H312 H 0.36214 0.12248 0.87308 0.0
H313 H 0.36717 0.14753 0.89354 0.0
H314 H 0.29337 0.10731 0.85491 0.0
H315 H 0.23779 0.14717 0.8421 0.0
C316 C 0.81953 0.75163 0.11621 0.0
C317 C 0.76504 0.71286 0.11089 0.0
C318 C 0.70773 0.73317 0.13728 0.0
C319 C 0.76159 0.77325 0.14241 0.0
N320 N 0.86617 0.8257 0.13683 0.0
N321 N 0.65956 0.66158 0.11631 0.0
C322 C 0.81681 0.78386 0.13189 0.0
C323 C 0.70987 0.70194 0.12145 0.0
N324 N 0.87537 0.75439 0.10666 0.0
N325 N 0.65283 0.72855 0.14714 0.0
H326 H 0.65624 0.6426 0.10433 0.0
H327 H 0.62179 0.64458 0.12392 0.0
H328 H 0.64945 0.75056 0.15878 0.0
H329 H 0.60884 0.70602 0.14364 0.0
H330 H 0.91958 0.7758 0.11045 0.0
H331 H 0.8795 0.73089 0.09521 0.0
H332 H 0.90357 0.84269 0.12909 0.0
H333 H 0.86839 0.84627 0.14867 0.0
C334 C 0.20751 0.30255 0.37875 0.0
C335 C 0.22327 0.25313 0.39061 0.0
C336 C 0.29883 0.20082 0.37077 0.0
C337 C 0.28727 0.25339 0.35949 0.0
N338 N 0.24023 0.36041 0.35376 0.0
N339 N 0.28848 0.15874 0.39878 0.0
C340 C 0.24398 0.30583 0.36371 0.0
C341 C 0.27073 0.20361 0.38692 0.0
N342 N 0.15743 0.34625 0.38178 0.0
N343 N 0.3336 0.14643 0.36573 0.0
H344 H 0.26573 0.15581 0.41034 0.0
H345 H 0.32855 0.12686 0.39756 0.0
H346 H 0.35347 0.14159 0.35387 0.0
H347 H 0.33781 0.10339 0.3727 0.0
H348 H 0.13836 0.37802 0.37283 0.0
H349 H 0.13149 0.34782 0.39291 0.0
H350 H 0.21538 0.40345 0.35708 0.0
H351 H 0.267 0.36527 0.34279 0.0
C352 C 0.32992 0.22969 0.23604 0.0
C353 C 0.27562 0.18648 0.23341 0.0
C354 C 0.26084 0.17582 0.26343 0.0
C355 C 0.31153 0.22334 0.26602 0.0
N356 N 0.38242 0.3076 0.25455 0.0
N357 N 0.17925 0.13182 0.24445 0.0
C358 C 0.34232 0.2541 0.25223 0.0
C359 C 0.23784 0.16377 0.24707 0.0
N360 N 0.37236 0.24434 0.22338 0.0
N361 N 0.23743 0.13892 0.27634 0.0
H362 H 0.15994 0.1236 0.23264 0.0
H363 H 0.14666 0.11986 0.25398 0.0
H364 H 0.25457 0.14358 0.28845 0.0
H365 H 0.20571 0.09887 0.27474 0.0
H366 H 0.41661 0.2697 0.22515 0.0
H367 H 0.36725 0.22563 0.21142 0.0
H368 H 0.40088 0.33592 0.24481 0.0
H369 H 0.39143 0.32788 0.26619 0.0
C370 C 0.84719 0.74291 0.49902 0.0
C371 C 0.81591 0.77334 0.48526 0.0
C372 C 0.74024 0.83027 0.5042 0.0
C373 C 0.77812 0.8079 0.51787 0.0
N374 N 0.87596 0.75226 0.52797 0.0
N375 N 0.74026 0.85651 0.47501 0.0
C376 C 0.83362 0.76629 0.51525 0.0
C377 C 0.76404 0.81953 0.48787 0.0
N378 N 0.88888 0.69069 0.49665 0.0
N379 N 0.68089 0.86078 0.5068 0.0
H380 H 0.7581 0.85301 0.46294 0.0
H381 H 0.70753 0.89569 0.47666 0.0
H382 H 0.6611 0.86813 0.51859 0.0
H383 H 0.64831 0.87239 0.49723 0.0
H384 H 0.90781 0.66253 0.50636 0.0
H385 H 0.89896 0.67118 0.48498 0.0
H386 H 0.921 0.72831 0.52623 0.0
H387 H 0.86975 0.77011 0.53998 0.0
C388 C 0.17351 0.36292 0.74458 0.0
C389 C 0.21546 0.32012 0.73538 0.0
C390 C 0.21664 0.24198 0.75869 0.0
C391 C 0.1795 0.28756 0.76825 0.0
N392 N 0.13586 0.39774 0.77161 0.0
N393 N 0.28676 0.2246 0.7347 0.0
C394 C 0.16179 0.34985 0.76157 0.0
C395 C 0.23971 0.26104 0.7427 0.0
N396 N 0.14211 0.41452 0.73698 0.0
N397 N 0.22796 0.17981 0.76464 0.0
H398 H 0.30588 0.23767 0.72316 0.0
H399 H 0.31122 0.18486 0.74012 0.0
H400 H 0.21217 0.16442 0.77632 0.0
H401 H 0.24829 0.142 0.75753 0.0
H402 H 0.10495 0.44201 0.74265 0.0
H403 H 0.1479 0.42614 0.7245 0.0
H404 H 0.12886 0.44643 0.76781 0.0
H405 H 0.1277 0.39094 0.78424 0.0
C406 C 0.67847 0.74042 0.01466 0.0
C407 C 0.73433 0.69921 0.0172 0.0
C408 C 0.74707 0.68637 0.98718 0.0
C409 C 0.69422 0.7314 0.9846 0.0
N410 N 0.62038 0.81341 0.99591 0.0
N411 N 0.83165 0.64745 0.00596 0.0
C412 C 0.66334 0.76229 0.99836 0.0
C413 C 0.77177 0.67684 0.00346 0.0
N414 N 0.63726 0.75542 0.02755 0.0
N415 N 0.77097 0.64923 0.97436 0.0
H416 H 0.85192 0.64171 0.01774 0.0
H417 H 0.86402 0.63566 0.99637 0.0
H418 H 0.75276 0.65198 0.96231 0.0
H419 H 0.80438 0.61064 0.97602 0.0
H420 H 0.59184 0.77878 0.02595 0.0
H421 H 0.64509 0.73932 0.03964 0.0
H422 H 0.60167 0.84216 0.00554 0.0
H423 H 0.60872 0.83139 0.98418 0.0
C424 C 0.24911 0.34483 0.00484 0.0
C425 C 0.2818 0.31227 0.01807 0.0
C426 C 0.33518 0.23827 0.99811 0.0
C427 C 0.31158 0.27818 0.98494 0.0
N428 N 0.25366 0.37648 0.976 0.0
N429 N 0.36405 0.23339 0.02713 0.0
C430 C 0.26999 0.33305 0.98831 0.0
C431 C 0.32654 0.25987 0.01471 0.0
N432 N 0.19721 0.3861 0.00805 0.0
N433 N 0.36485 0.17909 0.99476 0.0
H434 H 0.36124 0.24877 0.03942 0.0
H435 H 0.40256 0.20034 0.02497 0.0
H436 H 0.37062 0.16097 0.98274 0.0
H437 H 0.37729 0.14505 0.00392 0.0
H438 H 0.16765 0.40631 0.99878 0.0
H439 H 0.17921 0.39435 0.01999 0.0
H440 H 0.22972 0.42115 0.97825 0.0
H441 H 0.26937 0.37137 0.96378 0.0
C442 C 0.72076 0.73946 0.25899 0.0
C443 C 0.68183 0.78339 0.26859 0.0
C444 C 0.67078 0.85762 0.24482 0.0
C445 C 0.71426 0.81666 0.23556 0.0
N446 N 0.79036 0.72497 0.23478 0.0
N447 N 0.63321 0.89152 0.27193 0.0
C448 C 0.74195 0.75918 0.24289 0.0
C449 C 0.66073 0.84456 0.26188 0.0
N450 N 0.73547 0.67807 0.26499 0.0
N451 N 0.6365 0.90738 0.23723 0.0
H452 H 0.62654 0.88488 0.28462 0.0
H453 H 0.62344 0.93962 0.26805 0.0
H454 H 0.64118 0.91888 0.22472 0.0
H455 H 0.59834 0.93323 0.24298 0.0
H456 H 0.75738 0.64119 0.25787 0.0
H457 H 0.72097 0.66212 0.27673 0.0
H458 H 0.8172 0.68678 0.2402 0.0
H459 H 0.808 0.73859 0.22313 0.0
C460 C 0.15202 0.15864 0.49191 0.0
C461 C 0.18614 0.21072 0.48385 0.0
C462 C 0.25645 0.22477 0.5084 0.0
C463 C 0.21704 0.17795 0.51701 0.0
N464 N 0.11724 0.11231 0.51803 0.0
N465 N 0.26474 0.30019 0.48511 0.0
C466 C 0.16195 0.14824 0.50907 0.0
C467 C 0.2369 0.24569 0.49226 0.0
N468 N 0.11213 0.11712 0.48304 0.0
N469 N 0.31373 0.24735 0.51536 0.0
H470 H 0.25152 0.31703 0.47336 0.0
H471 H 0.29686 0.33177 0.49136 0.0
H472 H 0.32985 0.2327 0.52706 0.0
H473 H 0.348 0.27611 0.50898 0.0
H474 H 0.09121 0.07449 0.48802 0.0
H475 H 0.10596 0.12094 0.47025 0.0
H476 H 0.07284 0.09515 0.51311 0.0
H477 H 0.12065 0.10588 0.53081 0.0
C478 C 0.74084 0.65868 0.7481 0.0
C479 C 0.77103 0.69054 0.73438 0.0
C480 C 0.8262 0.76719 0.7534 0.0
C481 C 0.80414 0.729 0.76705 0.0
N482 N 0.7494 0.63059 0.77711 0.0
N483 N 0.85238 0.76831 0.72421 0.0
C484 C 0.76334 0.6729 0.76438 0.0
C485 C 0.81597 0.74345 0.73705 0.0
N486 N 0.68977 0.61563 0.74561 0.0
N487 N 0.85601 0.8268 0.75605 0.0
H488 H 0.84898 0.75095 0.71209 0.0
H489 H 0.89096 0.80176 0.72588 0.0
H490 H 0.8632 0.84612 0.76787 0.0
H491 H 0.86715 0.85983 0.74655 0.0
H492 H 0.66158 0.59614 0.75524 0.0
H493 H 0.67121 0.60474 0.73388 0.0
H494 H 0.72625 0.58513 0.77537 0.0
H495 H 0.76647 0.6374 0.78917 0.0
C496 C 0.01346 0.03711 0.17313 0.0
C497 C 0.05767 0.02486 0.18643 0.0
C498 C 0.9726 0.95956 0.20057 0.0
C499 C 0.93091 0.96622 0.1865 0.0
N500 N 0.91647 0.00069 0.1581 0.0
N501 N 0.08304 0.96895 0.21203 0.0
C502 C 0.95247 0.00237 0.17244 0.0
C503 C 0.03846 0.98407 0.19987 0.0
N504 N 0.0295 0.08226 0.1612 0.0
N505 N 0.94816 0.93311 0.21491 0.0
H506 H 0.13051 0.98897 0.21248 0.0
H507 H 0.07455 0.93324 0.22106 0.0
H508 H 0.89961 0.91656 0.21613 0.0
H509 H 0.97383 0.93325 0.22608 0.0
H510 H 0.99628 0.09869 0.15225 0.0
H511 H 0.07437 0.10748 0.16103 0.0
H512 H 0.93334 0.02001 0.14692 0.0
H513 H 0.87242 0.97439 0.1569 0.0
C514 C 0.05855 0.4852 0.42534 0.0
C515 C 0.03964 0.43694 0.43719 0.0
C516 C 0.96635 0.51739 0.4506 0.0
C517 C 0.98027 0.56337 0.43777 0.0
N518 N 0.02937 0.58646 0.41114 0.0
N519 N 0.97151 0.40417 0.46032 0.0
C520 C 0.02393 0.54626 0.42469 0.0
C521 C 0.99202 0.45208 0.44953 0.0
N522 N 0.10958 0.47289 0.41469 0.0
N523 N 0.93138 0.53709 0.46422 0.0
H524 H 0.9926 0.35722 0.46084 0.0
H525 H 0.93098 0.40961 0.46814 0.0
H526 H 0.91259 0.58466 0.4656 0.0
H527 H 0.92586 0.50838 0.47483 0.0
H528 H 0.13043 0.5089 0.4071 0.0
H529 H 0.13484 0.4281 0.41433 0.0
H530 H 0.05466 0.57311 0.40041 0.0
H531 H 0.00321 0.63053 0.40986 0.0
C532 C 0.45256 0.51748 0.6986 0.0
C533 C 0.43858 0.46669 0.68698 0.0
C534 C 0.54928 0.47907 0.67498 0.0
C535 C 0.56526 0.52582 0.68747 0.0
N536 N 0.53616 0.58184 0.71283 0.0
N537 N 0.47654 0.39139 0.66581 0.0
C538 C 0.51785 0.5433 0.69969 0.0
C539 C 0.48798 0.44487 0.67575 0.0
N540 N 0.40357 0.54078 0.70871 0.0
N541 N 0.59092 0.4701 0.66182 0.0
H542 H 0.43155 0.36643 0.66546 0.0
H543 H 0.51327 0.36854 0.65882 0.0
H544 H 0.63527 0.49574 0.66043 0.0
H545 H 0.5786 0.44225 0.65142 0.0
H546 H 0.4083 0.58325 0.71589 0.0
H547 H 0.35648 0.51999 0.70925 0.0
H548 H 0.50631 0.59018 0.72312 0.0
H549 H 0.58358 0.60107 0.71421 0.0
C550 C 0.52059 0.04895 0.94947 0.0
C551 C 0.46955 0.06302 0.93794 0.0
C552 C 0.4816 0.95251 0.92581 0.0
C553 C 0.52863 0.93641 0.93822 0.0
N554 N 0.58598 0.96541 0.9634 0.0
N555 N 0.39431 0.02571 0.91667 0.0
C556 C 0.54662 0.98372 0.95042 0.0
C557 C 0.44762 0.01388 0.92665 0.0
N558 N 0.54398 0.09784 0.9596 0.0
N559 N 0.47226 0.91095 0.91265 0.0
H560 H 0.36989 0.07097 0.91624 0.0
H561 H 0.37117 0.98916 0.90968 0.0
H562 H 0.49773 0.86656 0.91121 0.0
H563 H 0.44423 0.92331 0.90229 0.0
H564 H 0.58656 0.09317 0.96674 0.0
H565 H 0.52306 0.14485 0.96021 0.0
H566 H 0.59478 0.99509 0.9737 0.0
H567 H 0.60569 0.91815 0.96463 0.0
C568 C 0.06119 0.51892 0.05154 0.0
C569 C 0.07901 0.47658 0.06479 0.0
C570 C 0.97208 0.49663 0.07818 0.0
C571 C 0.952 0.53443 0.06424 0.0
N572 N 0.97275 0.57237 0.03641 0.0
N573 N 0.04963 0.41777 0.08972 0.0
C574 C 0.99546 0.54348 0.05061 0.0
C575 C 0.03375 0.46296 0.07777 0.0
N576 N 0.10705 0.53551 0.03981 0.0
N577 N 0.93394 0.49587 0.09217 0.0
H578 H 0.09565 0.39474 0.09042 0.0
H579 H 0.01575 0.39971 0.09831 0.0
H580 H 0.88934 0.52135 0.09318 0.0
H581 H 0.94919 0.47517 0.10334 0.0
H582 H 0.09956 0.57223 0.03098 0.0
H583 H 0.1546 0.51565 0.03953 0.0
H584 H 0.99953 0.57419 0.02541 0.0
H585 H 0.92444 0.58922 0.03512 0.0
C586 C 0.54723 0.51769 0.32723 0.0
C587 C 0.53262 0.56403 0.31455 0.0
C588 C 0.46392 0.4818 0.30033 0.0
C589 C 0.47432 0.4372 0.31366 0.0
N590 N 0.51576 0.41647 0.3412 0.0
N591 N 0.47227 0.5939 0.2899 0.0
C592 C 0.51366 0.45593 0.32745 0.0
C593 C 0.48925 0.54725 0.3014 0.0
N594 N 0.593 0.53278 0.33911 0.0
N595 N 0.43259 0.46057 0.2863 0.0
H596 H 0.49307 0.64103 0.28958 0.0
H597 H 0.43467 0.58743 0.28125 0.0
H598 H 0.41387 0.41293 0.285 0.0
H599 H 0.4299 0.48799 0.27541 0.0
H600 H 0.61187 0.49824 0.34742 0.0
H601 H 0.61558 0.57894 0.34007 0.0
H602 H 0.53746 0.43064 0.35234 0.0
H603 H 0.49051 0.37169 0.34208 0.0
C604 C 0.51296 0.95287 0.57664 0.0
C605 C 0.55926 0.96961 0.56412 0.0
C606 C 0.47689 0.0408 0.55076 0.0
C607 C 0.43285 0.02871 0.56411 0.0
N608 N 0.4138 0.98428 0.59145 0.0
N609 N 0.58894 0.03442 0.54017 0.0
C610 C 0.45204 0.98751 0.5775 0.0
C611 C 0.54243 0.01543 0.5515 0.0
N612 N 0.52694 0.90368 0.5877 0.0
N613 N 0.45503 0.0735 0.53698 0.0
H614 H 0.63616 0.01388 0.53964 0.0
H615 H 0.58221 0.0734 0.53193 0.0
H616 H 0.40698 0.09149 0.53578 0.0
H617 H 0.48243 0.07778 0.52612 0.0
H618 H 0.49214 0.88414 0.59584 0.0
H619 H 0.57186 0.87857 0.58791 0.0
H620 H 0.42877 0.9609 0.60231 0.0
H621 H 0.36983 0.01053 0.59285 0.0
C622 C 0.9837 0.0539 0.80119 0.0
C623 C 0.02327 0.07257 0.81493 0.0
C624 C 0.00294 0.96545 0.82828 0.0
C625 C 0.9643 0.94608 0.81441 0.0
N626 N 0.91232 0.97206 0.78833 0.0
N627 N 0.07726 0.04564 0.84069 0.0
C628 C 0.95298 0.99051 0.80106 0.0
C629 C 0.03492 0.0281 0.82821 0.0
N630 N 0.97874 0.09559 0.78789 0.0
N631 N 0.00527 0.92569 0.84199 0.0
H632 H 0.09816 0.09256 0.84171 0.0
H633 H 0.09488 0.0129 0.84958 0.0
H634 H 0.98131 0.88017 0.84271 0.0
H635 H 0.02623 0.93961 0.85322 0.0
H636 H 0.95612 0.08353 0.77673 0.0
H637 H 0.00096 0.14207 0.78752 0.0
H638 H 0.89561 0.00366 0.77909 0.0
H639 H 0.89247 0.92483 0.78727 0.0
C640 C 0.54095 0.01046 0.17153 0.0
C641 C 0.55704 0.96208 0.18362 0.0
C642 C 0.44801 0.97598 0.19647 0.0
C643 C 0.43005 0.02041 0.18365 0.0
N644 N 0.45456 0.07151 0.15738 0.0
N645 N 0.52196 0.89007 0.20589 0.0
C646 C 0.47531 0.03566 0.17077 0.0
C647 C 0.50923 0.94186 0.19549 0.0
N648 N 0.5882 0.03199 0.16069 0.0
N649 N 0.40843 0.96928 0.21011 0.0
H650 H 0.56695 0.86519 0.20626 0.0
H651 H 0.48602 0.86829 0.21334 0.0
H652 H 0.364 0.99466 0.21159 0.0
H653 H 0.42261 0.9437 0.22072 0.0
H654 H 0.58206 0.0729 0.15303 0.0
H655 H 0.63525 0.01124 0.15995 0.0
H656 H 0.48289 0.0785 0.14676 0.0
H657 H 0.40652 0.08951 0.15617 0.0
C658 C 0.96224 0.98 0.44777 0.0
C659 C 0.97101 0.93727 0.434 0.0
C660 C 0.03798 0.02145 0.41998 0.0
C661 C 0.02589 0.06558 0.43333 0.0
N662 N 0.96932 0.09099 0.4589 0.0
N663 N 0.00723 0.91998 0.4059 0.0
C664 C 0.9854 0.04625 0.44686 0.0
C665 C 0.00642 0.95859 0.41981 0.0
N666 N 0.9351 0.95614 0.46211 0.0
N667 N 0.07971 0.03965 0.40745 0.0
H668 H 0.98418 0.87395 0.40527 0.0
H669 H 0.02593 0.93553 0.39454 0.0
H670 H 0.09971 0.08697 0.40641 0.0
H671 H 0.09732 0.00701 0.39852 0.0
H672 H 0.93429 0.9823 0.47321 0.0
H673 H 0.91843 0.90768 0.46343 0.0
H674 H 0.93363 0.08231 0.46793 0.0
H675 H 0.98826 0.13883 0.45932 0.0
C676 C 0.01545 0.44639 0.69547 0.0
C677 C 0.06497 0.46854 0.68426 0.0
C678 C 0.98727 0.54893 0.67233 0.0
C679 C 0.93822 0.52744 0.68375 0.0
N680 N 0.90945 0.46683 0.70845 0.0
N681 N 0.09618 0.53222 0.6603 0.0
C682 C 0.95308 0.47867 0.69582 0.0
C683 C 0.05063 0.51806 0.67233 0.0
N684 N 0.0275 0.39373 0.70566 0.0
N685 N 0.97347 0.59959 0.66166 0.0
H686 H 0.14237 0.50955 0.65964 0.0
H687 H 0.08723 0.56261 0.65016 0.0
H688 H 0.92677 0.62069 0.66056 0.0
H689 H 0.00859 0.62347 0.65442 0.0
H690 H 0.99088 0.36946 0.71236 0.0
H691 H 0.07333 0.37079 0.7067 0.0
H692 H 0.92051 0.43831 0.71881 0.0
H693 H 0.86392 0.4905 0.70952 0.0
C694 C 0.45478 0.48211 0.94762 0.0
C695 C 0.46985 0.43647 0.93481 0.0
C696 C 0.54681 0.51605 0.92243 0.0
C697 C 0.52741 0.5638 0.93439 0.0
N698 N 0.45874 0.59497 0.95761 0.0
N699 N 0.521 0.41307 0.90849 0.0
C700 C 0.47969 0.54777 0.94667 0.0
C701 C 0.51361 0.45413 0.92182 0.0
N702 N 0.41984 0.46157 0.9612 0.0
N703 N 0.59726 0.52958 0.91169 0.0
H704 H 0.49686 0.36771 0.90747 0.0
H705 H 0.54626 0.42629 0.89775 0.0
H706 H 0.62093 0.57521 0.91115 0.0
H707 H 0.61892 0.49416 0.90407 0.0
H708 H 0.41335 0.49009 0.9718 0.0
H709 H 0.40211 0.41351 0.96259 0.0
H710 H 0.41805 0.5889 0.96535 0.0
H711 H 0.47955 0.64197 0.95838 0.0
C712 C 0.55973 0.49408 0.08056 0.0
C713 C 0.5784 0.53385 0.06688 0.0
C714 C 0.47127 0.51338 0.0536 0.0
C715 C 0.45067 0.47765 0.06783 0.0
N716 N 0.47099 0.44118 0.09578 0.0
N717 N 0.55075 0.58802 0.04115 0.0
C718 C 0.49392 0.46957 0.08154 0.0
C719 C 0.53362 0.54581 0.05368 0.0
N720 N 0.6049 0.47987 0.09266 0.0
N721 N 0.43299 0.51303 0.03962 0.0
H722 H 0.59763 0.60892 0.04001 0.0
H723 H 0.51736 0.60556 0.03238 0.0
H724 H 0.3876 0.48886 0.03889 0.0
H725 H 0.44854 0.53162 0.02825 0.0
H726 H 0.59716 0.44481 0.10189 0.0
H727 H 0.65216 0.50038 0.09298 0.0
H728 H 0.49721 0.44015 0.10687 0.0
H729 H 0.42308 0.42312 0.09694 0.0
C730 C 0.50736 0.04565 0.33161 0.0
C731 C 0.47006 0.06423 0.31751 0.0
C732 C 0.48605 0.95415 0.3054 0.0
C733 C 0.52738 0.93712 0.31899 0.0
N734 N 0.5862 0.9698 0.34371 0.0
N735 N 0.43241 0.04129 0.28975 0.0
C736 C 0.54085 0.98392 0.33168 0.0
C737 C 0.46126 0.01972 0.3041 0.0
N738 N 0.50834 0.08572 0.34526 0.0
N739 N 0.47121 0.90801 0.29359 0.0
H740 H 0.41443 0.08916 0.2882 0.0
H741 H 0.43119 0.01389 0.27885 0.0
H742 H 0.49281 0.86134 0.29313 0.0
H743 H 0.43471 0.91457 0.28465 0.0
H744 H 0.52827 0.07164 0.35661 0.0
H745 H 0.484 0.1311 0.34574 0.0
H746 H 0.60385 0.00462 0.35211 0.0
H747 H 0.61016 0.92446 0.34457 0.0
C748 C 0.95038 0.01088 0.58074 0.0
C749 C 0.93187 0.96946 0.56736 0.0
C750 C 0.04228 0.9812 0.55514 0.0
C751 C 0.05927 0.02641 0.56792 0.0
N752 N 0.0266 0.09259 0.59145 0.0
N753 N 0.95498 0.92389 0.54036 0.0
C754 C 0.01232 0.04395 0.58025 0.0
C755 C 0.97654 0.95657 0.55419 0.0
N756 N 0.9101 0.01611 0.59429 0.0
N757 N 0.08865 0.96238 0.54374 0.0
H758 H 0.90687 0.90622 0.53903 0.0
H759 H 0.98267 0.91921 0.52956 0.0
H760 H 0.13566 0.98323 0.54302 0.0
H761 H 0.08195 0.92339 0.5355 0.0
H762 H 0.92408 0.03941 0.60524 0.0
H763 H 0.86463 0.9921 0.5952 0.0
H764 H 0.99169 0.11298 0.59943 0.0
H765 H 0.07221 0.11627 0.592 0.0
C766 C 0.95904 0.52959 0.80388 0.0
C767 C 0.96759 0.57313 0.8175 0.0
C768 C 0.03909 0.49217 0.83123 0.0
C769 C 0.02525 0.44606 0.81841 0.0
N770 N 0.96927 0.41864 0.79287 0.0
N771 N 0.00665 0.59299 0.84527 0.0
C772 C 0.98398 0.46399 0.80489 0.0
C773 C 0.00545 0.55383 0.83146 0.0
N774 N 0.93024 0.55213 0.78962 0.0
N775 N 0.08481 0.47741 0.84312 0.0
H776 H 0.98208 0.63819 0.84599 0.0
H777 H 0.02703 0.57828 0.85652 0.0
H778 H 0.10897 0.43212 0.84376 0.0
H779 H 0.10265 0.51178 0.85162 0.0
H780 H 0.92897 0.52544 0.7786 0.0
H781 H 0.91251 0.60019 0.78824 0.0
H782 H 0.93277 0.42572 0.78396 0.0
H783 H 0.99111 0.3721 0.79221 0.0
loop_
_geom_bond_atom_site_label_1
_geom_bond_atom_site_label_2
_geom_bond_distance
_geom_bond_site_symmetry_2
_ccdc_geom_bond_type
In0 O1 2.294 . S
In0 O2 2.326 . S
In0 O6 2.266 . S
In0 O7 2.326 . S
In0 O8 2.266 . S
In0 O9 2.326 . S
In0 O11 2.294 . S
In0 O12 2.326 . S
O1 In0 2.294 . S
O1 C10 1.240 . S
O2 In0 2.326 . S
O2 C10 1.252 . S
C3 O6 1.252 . S
C3 O7 1.260 . S
C4 O11 1.240 . S
C4 O12 1.252 . S
C5 O8 1.252 . S
C5 O9 1.260 . S
O6 In0 2.266 . S
O6 C3 1.252 . S
O7 In0 2.326 . S
O7 C3 1.260 . S
O8 In0 2.266 . S
O8 C5 1.252 . S
O9 In0 2.326 . S
O9 C5 1.260 . S
C10 O1 1.240 . S
C10 O2 1.252 . S
O11 In0 2.294 . S
O11 C4 1.240 . S
O12 In0 2.326 . S
O12 C4 1.252 . S
In13 O14 2.294 . S
In13 O15 2.326 . S
In13 O19 2.266 . S
In13 O20 2.326 . S
In13 O21 2.266 . S
In13 O22 2.326 . S
In13 O24 2.294 . S
In13 O25 2.326 . S
O14 In13 2.294 . S
O14 C23 1.240 . S
O15 In13 2.326 . S
O15 C23 1.252 . S
C16 O19 1.252 . S
C16 O20 1.260 . S
C17 O24 1.240 . S
C17 O25 1.252 . S
C18 O21 1.252 . S
C18 O22 1.260 . S
O19 In13 2.266 . S
O19 C16 1.252 . S
O20 In13 2.326 . S
O20 C16 1.260 . S
O21 In13 2.266 . S
O21 C18 1.252 . S
O22 In13 2.326 . S
O22 C18 1.260 . S
C23 O14 1.240 . S
C23 O15 1.252 . S
O24 In13 2.294 . S
O24 C17 1.240 . S
O25 In13 2.326 . S
O25 C17 1.252 . S
In26 O27 2.294 . S
In26 O28 2.326 . S
In26 O32 2.266 . S
In26 O33 2.326 . S
In26 O34 2.266 . S
In26 O35 2.326 . S
In26 O37 2.294 . S
In26 O38 2.326 . S
O27 In26 2.294 . S
O27 C36 1.240 . S
O28 In26 2.326 . S
O28 C36 1.252 . S
C29 O32 1.252 . S
C29 O33 1.260 . S
C30 O37 1.240 . S
C30 O38 1.252 . S
C31 O34 1.252 . S
C31 O35 1.260 . S
O32 In26 2.266 . S
O32 C29 1.252 . S
O33 In26 2.326 . S
O33 C29 1.260 . S
O34 In26 2.266 . S
O34 C31 1.252 . S
O35 In26 2.326 . S
O35 C31 1.260 . S
C36 O27 1.240 . S
C36 O28 1.252 . S
O37 In26 2.294 . S
O37 C30 1.240 . S
O38 In26 2.326 . S
O38 C30 1.252 . S
In39 O40 2.294 . S
In39 O41 2.326 . S
In39 O45 2.266 . S
In39 O46 2.326 . S
In39 O47 2.266 . S
In39 O48 2.326 . S
In39 O50 2.294 . S
In39 O51 2.326 . S
O40 In39 2.294 . S
O40 C49 1.240 . S
O41 In39 2.326 . S
O41 C49 1.252 . S
C42 O45 1.252 . S
C42 O46 1.260 . S
C43 O50 1.240 . S
C43 O51 1.252 . S
C44 O47 1.252 . S
C44 O48 1.260 . S
O45 In39 2.266 . S
O45 C42 1.252 . S
O46 In39 2.326 . S
O46 C42 1.260 . S
O47 In39 2.266 . S
O47 C44 1.252 . S
O48 In39 2.326 . S
O48 C44 1.260 . S
C49 O40 1.240 . S
C49 O41 1.252 . S
O50 In39 2.294 . S
O50 C43 1.240 . S
O51 In39 2.326 . S
O51 C43 1.252 . S
In52 O53 2.294 . S
In52 O54 2.326 . S
In52 O58 2.266 . S
In52 O59 2.326 . S
In52 O60 2.266 . S
In52 O61 2.326 . S
In52 O63 2.294 . S
In52 O64 2.326 . S
O53 In52 2.294 . S
O53 C62 1.240 . S
O54 In52 2.326 . S
O54 C62 1.252 . S
C55 O58 1.252 . S
C55 O59 1.260 . S
C56 O63 1.240 . S
C56 O64 1.252 . S
C57 O60 1.252 . S
C57 O61 1.260 . S
O58 In52 2.266 . S
O58 C55 1.252 . S
O59 In52 2.326 . S
O59 C55 1.260 . S
O60 In52 2.266 . S
O60 C57 1.252 . S
O61 In52 2.326 . S
O61 C57 1.260 . S
C62 O53 1.240 . S
C62 O54 1.252 . S
O63 In52 2.294 . S
O63 C56 1.240 . S
O64 In52 2.326 . S
O64 C56 1.252 . S
In65 O66 2.294 . S
In65 O67 2.326 . S
In65 O71 2.266 . S
In65 O72 2.326 . S
In65 O73 2.266 . S
In65 O74 2.326 . S
In65 O76 2.294 . S
In65 O77 2.326 . S
O66 In65 2.294 . S
O66 C75 1.240 . S
O67 In65 2.326 . S
O67 C75 1.252 . S
C68 O71 1.252 . S
C68 O72 1.260 . S
C69 O76 1.240 . S
C69 O77 1.252 . S
C70 O73 1.252 . S
C70 O74 1.260 . S
O71 In65 2.266 . S
O71 C68 1.252 . S
O72 In65 2.326 . S
O72 C68 1.260 . S
O73 In65 2.266 . S
O73 C70 1.252 . S
O74 In65 2.326 . S
O74 C70 1.260 . S
C75 O66 1.240 . S
C75 O67 1.252 . S
O76 In65 2.294 . S
O76 C69 1.240 . S
O77 In65 2.326 . S
O77 C69 1.252 . S
In78 O79 2.294 . S
In78 O80 2.326 . S
In78 O84 2.266 . S
In78 O85 2.326 . S
In78 O86 2.266 . S
In78 O87 2.326 . S
In78 O89 2.294 . S
In78 O90 2.326 . S
O79 In78 2.294 . S
O79 C88 1.240 . S
O80 In78 2.326 . S
O80 C88 1.252 . S
C81 O84 1.252 . S
C81 O85 1.260 . S
C82 O89 1.240 . S
C82 O90 1.252 . S
C83 O86 1.252 . S
C83 O87 1.260 . S
O84 In78 2.266 . S
O84 C81 1.252 . S
O85 In78 2.326 . S
O85 C81 1.260 . S
O86 In78 2.266 . S
O86 C83 1.252 . S
O87 In78 2.326 . S
O87 C83 1.260 . S
C88 O79 1.240 . S
C88 O80 1.252 . S
O89 In78 2.294 . S
O89 C82 1.240 . S
O90 In78 2.326 . S
O90 C82 1.252 . S
In91 O92 2.294 . S
In91 O93 2.326 . S
In91 O97 2.266 . S
In91 O98 2.326 . S
In91 O99 2.266 . S
In91 O100 2.326 . S
In91 O102 2.294 . S
In91 O103 2.326 . S
O92 In91 2.294 . S
O92 C101 1.240 . S
O93 In91 2.326 . S
O93 C101 1.252 . S
C94 O97 1.252 . S
C94 O98 1.260 . S
C95 O102 1.240 . S
C95 O103 1.252 . S
C96 O99 1.252 . S
C96 O100 1.260 . S
O97 In91 2.266 . S
O97 C94 1.252 . S
O98 In91 2.326 . S
O98 C94 1.260 . S
O99 In91 2.266 . S
O99 C96 1.252 . S
O100 In91 2.326 . S
O100 C96 1.260 . S
C101 O92 1.240 . S
C101 O93 1.252 . S
O102 In91 2.294 . S
O102 C95 1.240 . S
O103 In91 2.326 . S
O103 C95 1.252 . S
In104 O105 2.294 . S
In104 O106 2.326 . S
In104 O110 2.266 . S
In104 O111 2.326 . S
In104 O112 2.266 . S
In104 O113 2.326 . S
In104 O115 2.294 . S
In104 O116 2.326 . S
O105 In104 2.294 . S
O105 C114 1.240 . S
O106 In104 2.326 . S
O106 C114 1.252 . S
C107 O110 1.252 . S
C107 O111 1.260 . S
C108 O115 1.240 . S
C108 O116 1.252 . S
C109 O112 1.252 . S
C109 O113 1.260 . S
O110 In104 2.266 . S
O110 C107 1.252 . S
O111 In104 2.326 . S
O111 C107 1.260 . S
O112 In104 2.266 . S
O112 C109 1.252 . S
O113 In104 2.326 . S
O113 C109 1.260 . S
C114 O105 1.240 . S
C114 O106 1.252 . S
O115 In104 2.294 . S
O115 C108 1.240 . S
O116 In104 2.326 . S
O116 C108 1.252 . S
In117 O118 2.294 . S
In117 O119 2.326 . S
In117 O123 2.266 . S
In117 O124 2.326 . S
In117 O125 2.266 . S
In117 O126 2.326 . S
In117 O128 2.294 . S
In117 O129 2.326 . S
O118 In117 2.294 . S
O118 C127 1.240 . S
O119 In117 2.326 . S
O119 C127 1.252 . S
C120 O123 1.252 . S
C120 O124 1.260 . S
C121 O128 1.240 . S
C121 O129 1.252 . S
C122 O125 1.252 . S
C122 O126 1.260 . S
O123 In117 2.266 . S
O123 C120 1.252 . S
O124 In117 2.326 . S
O124 C120 1.260 . S
O125 In117 2.266 . S
O125 C122 1.252 . S
O126 In117 2.326 . S
O126 C122 1.260 . S
C127 O118 1.240 . S
C127 O119 1.252 . S
O128 In117 2.294 . S
O128 C121 1.240 . S
O129 In117 2.326 . S
O129 C121 1.252 . S
In130 O131 2.294 . S
In130 O132 2.326 . S
In130 O136 2.266 . S
In130 O137 2.326 . S
In130 O138 2.266 . S
In130 O139 2.326 . S
In130 O141 2.294 . S
In130 O142 2.326 . S
O131 In130 2.294 . S
O131 C140 1.240 . S
O132 In130 2.326 . S
O132 C140 1.252 . S
C133 O136 1.252 . S
C133 O137 1.260 . S
C134 O141 1.240 . S
C134 O142 1.252 . S
C135 O138 1.252 . S
C135 O139 1.260 . S
O136 In130 2.266 . S
O136 C133 1.252 . S
O137 In130 2.326 . S
O137 C133 1.260 . S
O138 In130 2.266 . S
O138 C135 1.252 . S
O139 In130 2.326 . S
O139 C135 1.260 . S
C140 O131 1.240 . S
C140 O132 1.252 . S
O141 In130 2.294 . S
O141 C134 1.240 . S
O142 In130 2.326 . S
O142 C134 1.252 . S
In143 O144 2.294 . S
In143 O145 2.326 . S
In143 O149 2.266 . S
In143 O150 2.326 . S
In143 O151 2.266 . S
In143 O152 2.326 . S
In143 O154 2.294 . S
In143 O155 2.326 . S
O144 In143 2.294 . S
O144 C153 1.240 . S
O145 In143 2.326 . S
O145 C153 1.252 . S
C146 O149 1.252 . S
C146 O150 1.260 . S
C147 O154 1.240 . S
C147 O155 1.252 . S
C148 O151 1.252 . S
C148 O152 1.260 . S
O149 In143 2.266 . S
O149 C146 1.252 . S
O150 In143 2.326 . S
O150 C146 1.260 . S
O151 In143 2.266 . S
O151 C148 1.252 . S
O152 In143 2.326 . S
O152 C148 1.260 . S
C153 O144 1.240 . S
C153 O145 1.252 . S
O154 In143 2.294 . S
O154 C147 1.240 . S
O155 In143 2.326 . S
O155 C147 1.252 . S
In156 O157 2.294 . S
In156 O158 2.326 . S
In156 O162 2.266 . S
In156 O163 2.326 . S
In156 O164 2.266 . S
In156 O165 2.326 . S
In156 O167 2.294 . S
In156 O168 2.326 . S
O157 In156 2.294 . S
O157 C166 1.240 . S
O158 In156 2.326 . S
O158 C166 1.252 . S
C159 O162 1.252 . S
C159 O163 1.260 . S
C160 O167 1.240 . S
C160 O168 1.252 . S
C161 O164 1.252 . S
C161 O165 1.260 . S
O162 In156 2.266 . S
O162 C159 1.252 . S
O163 In156 2.326 . S
O163 C159 1.260 . S
O164 In156 2.266 . S
O164 C161 1.252 . S
O165 In156 2.326 . S
O165 C161 1.260 . S
C166 O157 1.240 . S
C166 O158 1.252 . S
O167 In156 2.294 . S
O167 C160 1.240 . S
O168 In156 2.326 . S
O168 C160 1.252 . S
In169 O170 2.294 . S
In169 O171 2.326 . S
In169 O175 2.266 . S
In169 O176 2.326 . S
In169 O177 2.266 . S
In169 O178 2.326 . S
In169 O180 2.294 . S
In169 O181 2.326 . S
O170 In169 2.294 . S
O170 C179 1.240 . S
O171 In169 2.326 . S
O171 C179 1.252 . S
C172 O175 1.252 . S
C172 O176 1.260 . S
C173 O180 1.240 . S
C173 O181 1.252 . S
C174 O177 1.252 . S
C174 O178 1.260 . S
O175 In169 2.266 . S
O175 C172 1.252 . S
O176 In169 2.326 . S
O176 C172 1.260 . S
O177 In169 2.266 . S
O177 C174 1.252 . S
O178 In169 2.326 . S
O178 C174 1.260 . S
C179 O170 1.240 . S
C179 O171 1.252 . S
O180 In169 2.294 . S
O180 C173 1.240 . S
O181 In169 2.326 . S
O181 C173 1.252 . S
In182 O183 2.294 . S
In182 O184 2.326 . S
In182 O188 2.266 . S
In182 O189 2.326 . S
In182 O190 2.266 . S
In182 O191 2.326 . S
In182 O193 2.294 . S
In182 O194 2.326 . S
O183 In182 2.294 . S
O183 C192 1.240 . S
O184 In182 2.326 . S
O184 C192 1.252 . S
C185 O188 1.252 . S
C185 O189 1.260 . S
C186 O193 1.240 . S
C186 O194 1.252 . S
C187 O190 1.252 . S
C187 O191 1.260 . S
O188 In182 2.266 . S
O188 C185 1.252 . S
O189 In182 2.326 . S
O189 C185 1.260 . S
O190 In182 2.266 . S
O190 C187 1.252 . S
O191 In182 2.326 . S
O191 C187 1.260 . S
C192 O183 1.240 . S
C192 O184 1.252 . S
O193 In182 2.294 . S
O193 C186 1.240 . S
O194 In182 2.326 . S
O194 C186 1.252 . S
In195 O196 2.294 . S
In195 O197 2.326 . S
In195 O201 2.266 . S
In195 O202 2.326 . S
In195 O203 2.266 . S
In195 O204 2.326 . S
In195 O206 2.294 . S
In195 O207 2.326 . S
O196 In195 2.294 . S
O196 C205 1.240 . S
O197 In195 2.326 . S
O197 C205 1.252 . S
C198 O201 1.252 . S
C198 O202 1.260 . S
C199 O206 1.240 . S
C199 O207 1.252 . S
C200 O203 1.252 . S
C200 O204 1.260 . S
O201 In195 2.266 . S
O201 C198 1.252 . S
O202 In195 2.326 . S
O202 C198 1.260 . S
O203 In195 2.266 . S
O203 C200 1.252 . S
O204 In195 2.326 . S
O204 C200 1.260 . S
C205 O196 1.240 . S
C205 O197 1.252 . S
O206 In195 2.294 . S
O206 C199 1.240 . S
O207 In195 2.326 . S
O207 C199 1.252 . S
C208 C209 1.363 . S
C208 C214 1.379 . S
C208 N216 1.356 . S
C209 C208 1.363 . S
C209 C215 1.363 . S
C210 C211 1.363 . S
C210 C215 1.379 . S
C210 N217 1.356 . S
C211 C210 1.363 . S
C211 C214 1.363 . S
N212 C214 1.356 . S
N212 H224 0.984 . S
N212 H225 0.985 . S
N213 C215 1.356 . S
N213 H218 0.984 . S
N213 H219 0.985 . S
C214 C208 1.379 . S
C214 C211 1.363 . S
C214 N212 1.356 . S
C215 C209 1.363 . S
C215 C210 1.379 . S
C215 N213 1.356 . S
N216 C208 1.356 . S
N216 H222 0.984 . S
N216 H223 0.984 . S
N217 C210 1.356 . S
N217 H220 0.984 . S
N217 H221 0.985 . S
H218 N213 0.984 . S
H219 N213 0.985 . S
H220 N217 0.984 . S
H221 N217 0.985 . S
H222 N216 0.984 . S
H223 N216 0.984 . S
H224 N212 0.984 . S
H225 N212 0.985 . S
C226 C227 1.363 . S
C226 C232 1.379 . S
C226 N234 1.356 . S
C227 C226 1.363 . S
C227 C233 1.363 . S
C228 C229 1.363 . S
C228 C233 1.379 . S
C228 N235 1.356 . S
C229 C228 1.363 . S
C229 C232 1.363 . S
N230 C232 1.356 . S
N230 H242 0.984 . S
N230 H243 0.985 . S
N231 C233 1.356 . S
N231 H236 0.984 . S
N231 H237 0.985 . S
C232 C226 1.379 . S
C232 C229 1.363 . S
C232 N230 1.356 . S
C233 C227 1.363 . S
C233 C228 1.379 . S
C233 N231 1.356 . S
N234 C226 1.356 . S
N234 H240 0.984 . S
N234 H241 0.984 . S
N235 C228 1.356 . S
N235 H238 0.984 . S
N235 H239 0.985 . S
H236 N231 0.984 . S
H237 N231 0.985 . S
H238 N235 0.984 . S
H239 N235 0.985 . S
H240 N234 0.984 . S
H241 N234 0.984 . S
H242 N230 0.984 . S
H243 N230 0.985 . S
C244 C245 1.363 . S
C244 C250 1.379 . S
C244 N252 1.356 . S
C245 C244 1.363 . S
C245 C251 1.363 . S
C246 C247 1.363 . S
C246 C251 1.379 . S
C246 N253 1.356 . S
C247 C246 1.363 . S
C247 C250 1.363 . S
N248 C250 1.356 . S
N248 H260 0.984 . S
N248 H261 0.985 . S
N249 C251 1.356 . S
N249 H254 0.984 . S
N249 H255 0.985 . S
C250 C244 1.379 . S
C250 C247 1.363 . S
C250 N248 1.356 . S
C251 C245 1.363 . S
C251 C246 1.379 . S
C251 N249 1.356 . S
N252 C244 1.356 . S
N252 H258 0.984 . S
N252 H259 0.984 . S
N253 C246 1.356 . S
N253 H256 0.984 . S
N253 H257 0.985 . S
H254 N249 0.984 . S
H255 N249 0.985 . S
H256 N253 0.984 . S
H257 N253 0.985 . S
H258 N252 0.984 . S
H259 N252 0.984 . S
H260 N248 0.984 . S
H261 N248 0.985 . S
C262 C263 1.363 . S
C262 C268 1.379 . S
C262 N270 1.356 . S
C263 C262 1.363 . S
C263 C269 1.363 . S
C264 C265 1.363 . S
C264 C269 1.379 . S
C264 N271 1.356 . S
C265 C264 1.363 . S
C265 C268 1.363 . S
N266 C268 1.356 . S
N266 H278 0.984 . S
N266 H279 0.985 . S
N267 C269 1.356 . S
N267 H272 0.984 . S
N267 H273 0.985 . S
C268 C262 1.379 . S
C268 C265 1.363 . S
C268 N266 1.356 . S
C269 C263 1.363 . S
C269 C264 1.379 . S
C269 N267 1.356 . S
N270 C262 1.356 . S
N270 H276 0.984 . S
N270 H277 0.984 . S
N271 C264 1.356 . S
N271 H274 0.984 . S
N271 H275 0.985 . S
H272 N267 0.984 . S
H273 N267 0.985 . S
H274 N271 0.984 . S
H275 N271 0.985 . S
H276 N270 0.984 . S
H277 N270 0.984 . S
H278 N266 0.984 . S
H279 N266 0.985 . S
C280 C281 1.363 . S
C280 C286 1.379 . S
C280 N288 1.356 . S
C281 C280 1.363 . S
C281 C287 1.363 . S
C282 C283 1.363 . S
C282 C287 1.379 . S
C282 N289 1.356 . S
C283 C282 1.363 . S
C283 C286 1.363 . S
N284 C286 1.356 . S
N284 H296 0.984 . S
N284 H297 0.985 . S
N285 C287 1.356 . S
N285 H290 0.984 . S
N285 H291 0.985 . S
C286 C280 1.379 . S
C286 C283 1.363 . S
C286 N284 1.356 . S
C287 C281 1.363 . S
C287 C282 1.379 . S
C287 N285 1.356 . S
N288 C280 1.356 . S
N288 H294 0.984 . S
N288 H295 0.984 . S
N289 C282 1.356 . S
N289 H292 0.984 . S
N289 H293 0.985 . S
H290 N285 0.984 . S
H291 N285 0.985 . S
H292 N289 0.984 . S
H293 N289 0.985 . S
H294 N288 0.984 . S
H295 N288 0.984 . S
H296 N284 0.984 . S
H297 N284 0.985 . S
C298 C299 1.363 . S
C298 C304 1.379 . S
C298 N306 1.356 . S
C299 C298 1.363 . S
C299 C305 1.363 . S
C300 C301 1.363 . S
C300 C305 1.379 . S
C300 N307 1.356 . S
C301 C300 1.363 . S
C301 C304 1.363 . S
N302 C304 1.356 . S
N302 H314 0.984 . S
N302 H315 0.985 . S
N303 C305 1.356 . S
N303 H308 0.984 . S
N303 H309 0.985 . S
C304 C298 1.379 . S
C304 C301 1.363 . S
C304 N302 1.356 . S
C305 C299 1.363 . S
C305 C300 1.379 . S
C305 N303 1.356 . S
N306 C298 1.356 . S
N306 H312 0.984 . S
N306 H313 0.984 . S
N307 C300 1.356 . S
N307 H310 0.984 . S
N307 H311 0.985 . S
H308 N303 0.984 . S
H309 N303 0.985 . S
H310 N307 0.984 . S
H311 N307 0.985 . S
H312 N306 0.984 . S
H313 N306 0.984 . S
H314 N302 0.984 . S
H315 N302 0.985 . S
C316 C317 1.363 . S
C316 C322 1.379 . S
C316 N324 1.356 . S
C317 C316 1.363 . S
C317 C323 1.363 . S
C318 C319 1.363 . S
C318 C323 1.379 . S
C318 N325 1.356 . S
C319 C318 1.363 . S
C319 C322 1.363 . S
N320 C322 1.356 . S
N320 H332 0.984 . S
N320 H333 0.985 . S
N321 C323 1.356 . S
N321 H326 0.984 . S
N321 H327 0.985 . S
C322 C316 1.379 . S
C322 C319 1.363 . S
C322 N320 1.356 . S
C323 C317 1.363 . S
C323 C318 1.379 . S
C323 N321 1.356 . S
N324 C316 1.356 . S
N324 H330 0.984 . S
N324 H331 0.984 . S
N325 C318 1.356 . S
N325 H328 0.984 . S
N325 H329 0.985 . S
H326 N321 0.984 . S
H327 N321 0.985 . S
H328 N325 0.984 . S
H329 N325 0.985 . S
H330 N324 0.984 . S
H331 N324 0.984 . S
H332 N320 0.984 . S
H333 N320 0.985 . S
C334 C335 1.363 . S
C334 C340 1.379 . S
C334 N342 1.356 . S
C335 C334 1.363 . S
C335 C341 1.363 . S
C336 C337 1.363 . S
C336 C341 1.379 . S
C336 N343 1.356 . S
C337 C336 1.363 . S
C337 C340 1.363 . S
N338 C340 1.356 . S
N338 H350 0.984 . S
N338 H351 0.985 . S
N339 C341 1.356 . S
N339 H344 0.984 . S
N339 H345 0.985 . S
C340 C334 1.379 . S
C340 C337 1.363 . S
C340 N338 1.356 . S
C341 C335 1.363 . S
C341 C336 1.379 . S
C341 N339 1.356 . S
N342 C334 1.356 . S
N342 H348 0.984 . S
N342 H349 0.984 . S
N343 C336 1.356 . S
N343 H346 0.984 . S
N343 H347 0.985 . S
H344 N339 0.984 . S
H345 N339 0.985 . S
H346 N343 0.984 . S
H347 N343 0.985 . S
H348 N342 0.984 . S
H349 N342 0.984 . S
H350 N338 0.984 . S
H351 N338 0.985 . S
C352 C353 1.363 . S
C352 C358 1.379 . S
C352 N360 1.356 . S
C353 C352 1.363 . S
C353 C359 1.363 . S
C354 C355 1.363 . S
C354 C359 1.379 . S
C354 N361 1.356 . S
C355 C354 1.363 . S
C355 C358 1.363 . S
N356 C358 1.356 . S
N356 H368 0.984 . S
N356 H369 0.985 . S
N357 C359 1.356 . S
N357 H362 0.984 . S
N357 H363 0.985 . S
C358 C352 1.379 . S
C358 C355 1.363 . S
C358 N356 1.356 . S
C359 C353 1.363 . S
C359 C354 1.379 . S
C359 N357 1.356 . S
N360 C352 1.356 . S
N360 H366 0.984 . S
N360 H367 0.984 . S
N361 C354 1.356 . S
N361 H364 0.984 . S
N361 H365 0.985 . S
H362 N357 0.984 . S
H363 N357 0.985 . S
H364 N361 0.984 . S
H365 N361 0.985 . S
H366 N360 0.984 . S
H367 N360 0.984 . S
H368 N356 0.984 . S
H369 N356 0.985 . S
C370 C371 1.363 . S
C370 C376 1.379 . S
C370 N378 1.356 . S
C371 C370 1.363 . S
C371 C377 1.363 . S
C372 C373 1.363 . S
C372 C377 1.379 . S
C372 N379 1.356 . S
C373 C372 1.363 . S
C373 C376 1.363 . S
N374 C376 1.356 . S
N374 H386 0.984 . S
N374 H387 0.985 . S
N375 C377 1.356 . S
N375 H380 0.984 . S
N375 H381 0.985 . S
C376 C370 1.379 . S
C376 C373 1.363 . S
C376 N374 1.356 . S
C377 C371 1.363 . S
C377 C372 1.379 . S
C377 N375 1.356 . S
N378 C370 1.356 . S
N378 H384 0.984 . S
N378 H385 0.984 . S
N379 C372 1.356 . S
N379 H382 0.984 . S
N379 H383 0.985 . S
H380 N375 0.984 . S
H381 N375 0.985 . S
H382 N379 0.984 . S
H383 N379 0.985 . S
H384 N378 0.984 . S
H385 N378 0.984 . S
H386 N374 0.984 . S
H387 N374 0.985 . S
C388 C389 1.363 . S
C388 C394 1.379 . S
C388 N396 1.356 . S
C389 C388 1.363 . S
C389 C395 1.363 . S
C390 C391 1.363 . S
C390 C395 1.379 . S
C390 N397 1.356 . S
C391 C390 1.363 . S
C391 C394 1.363 . S
N392 C394 1.356 . S
N392 H404 0.984 . S
N392 H405 0.985 . S
N393 C395 1.356 . S
N393 H398 0.984 . S
N393 H399 0.985 . S
C394 C388 1.379 . S
C394 C391 1.363 . S
C394 N392 1.356 . S
C395 C389 1.363 . S
C395 C390 1.379 . S
C395 N393 1.356 . S
N396 C388 1.356 . S
N396 H402 0.984 . S
N396 H403 0.984 . S
N397 C390 1.356 . S
N397 H400 0.984 . S
N397 H401 0.985 . S
H398 N393 0.984 . S
H399 N393 0.985 . S
H400 N397 0.984 . S
H401 N397 0.985 . S
H402 N396 0.984 . S
H403 N396 0.984 . S
H404 N392 0.984 . S
H405 N392 0.985 . S
C406 C407 1.363 . S
C406 C412 1.379 1_554 S
C406 N414 1.356 . S
C407 C406 1.363 . S
C407 C413 1.363 . S
C408 C409 1.363 . S
C408 C413 1.379 1_556 S
C408 N415 1.356 . S
C409 C408 1.363 . S
C409 C412 1.363 . S
N410 C412 1.356 . S
N410 H422 0.984 . S
N410 H423 0.985 . S
N411 C413 1.356 . S
N411 H416 0.984 . S
N411 H417 0.985 . S
C412 C406 1.379 1_556 S
C412 C409 1.363 . S
C412 N410 1.356 . S
C413 C407 1.363 . S
C413 C408 1.379 1_554 S
C413 N411 1.356 . S
N414 C406 1.356 . S
N414 H420 0.984 . S
N414 H421 0.984 . S
N415 C408 1.356 . S
N415 H418 0.984 . S
N415 H419 0.985 . S
H416 N411 0.984 . S
H417 N411 0.985 . S
H418 N415 0.984 . S
H419 N415 0.985 . S
H420 N414 0.984 . S
H421 N414 0.984 . S
H422 N410 0.984 . S
H423 N410 0.985 . S
C424 C425 1.363 . S
C424 C430 1.379 1_554 S
C424 N432 1.356 . S
C425 C424 1.363 . S
C425 C431 1.363 . S
C426 C427 1.363 . S
C426 C431 1.379 1_556 S
C426 N433 1.356 . S
C427 C426 1.363 . S
C427 C430 1.363 . S
N428 C430 1.356 . S
N428 H440 0.984 . S
N428 H441 0.985 . S
N429 C431 1.356 . S
N429 H434 0.984 . S
N429 H435 0.985 . S
C430 C424 1.379 1_556 S
C430 C427 1.363 . S
C430 N428 1.356 . S
C431 C425 1.363 . S
C431 C426 1.379 1_554 S
C431 N429 1.356 . S
N432 C424 1.356 . S
N432 H438 0.984 . S
N432 H439 0.984 . S
N433 C426 1.356 . S
N433 H436 0.984 . S
N433 H437 0.985 . S
H434 N429 0.984 . S
H435 N429 0.985 . S
H436 N433 0.984 . S
H437 N433 0.985 . S
H438 N432 0.984 . S
H439 N432 0.984 . S
H440 N428 0.984 . S
H441 N428 0.985 . S
C442 C443 1.363 . S
C442 C448 1.379 . S
C442 N450 1.356 . S
C443 C442 1.363 . S
C443 C449 1.363 . S
C444 C445 1.363 . S
C444 C449 1.379 . S
C444 N451 1.356 . S
C445 C444 1.363 . S
C445 C448 1.363 . S
N446 C448 1.356 . S
N446 H458 0.984 . S
N446 H459 0.985 . S
N447 C449 1.356 . S
N447 H452 0.984 . S
N447 H453 0.985 . S
C448 C442 1.379 . S
C448 C445 1.363 . S
C448 N446 1.356 . S
C449 C443 1.363 . S
C449 C444 1.379 . S
C449 N447 1.356 . S
N450 C442 1.356 . S
N450 H456 0.984 . S
N450 H457 0.984 . S
N451 C444 1.356 . S
N451 H454 0.984 . S
N451 H455 0.985 . S
H452 N447 0.984 . S
H453 N447 0.985 . S
H454 N451 0.984 . S
H455 N451 0.985 . S
H456 N450 0.984 . S
H457 N450 0.984 . S
H458 N446 0.984 . S
H459 N446 0.985 . S
C460 C461 1.363 . S
C460 C466 1.379 . S
C460 N468 1.356 . S
C461 C460 1.363 . S
C461 C467 1.363 . S
C462 C463 1.363 . S
C462 C467 1.379 . S
C462 N469 1.356 . S
C463 C462 1.363 . S
C463 C466 1.363 . S
N464 C466 1.356 . S
N464 H476 0.984 . S
N464 H477 0.985 . S
N465 C467 1.356 . S
N465 H470 0.984 . S
N465 H471 0.985 . S
C466 C460 1.379 . S
C466 C463 1.363 . S
C466 N464 1.356 . S
C467 C461 1.363 . S
C467 C462 1.379 . S
C467 N465 1.356 . S
N468 C460 1.356 . S
N468 H474 0.984 . S
N468 H475 0.984 . S
N469 C462 1.356 . S
N469 H472 0.984 . S
N469 H473 0.985 . S
H470 N465 0.984 . S
H471 N465 0.985 . S
H472 N469 0.984 . S
H473 N469 0.985 . S
H474 N468 0.984 . S
H475 N468 0.984 . S
H476 N464 0.984 . S
H477 N464 0.985 . S
C478 C479 1.363 . S
C478 C484 1.379 . S
C478 N486 1.356 . S
C479 C478 1.363 . S
C479 C485 1.363 . S
C480 C481 1.363 . S
C480 C485 1.379 . S
C480 N487 1.356 . S
C481 C480 1.363 . S
C481 C484 1.363 . S
N482 C484 1.356 . S
N482 H494 0.984 . S
N482 H495 0.985 . S
N483 C485 1.356 . S
N483 H488 0.984 . S
N483 H489 0.985 . S
C484 C478 1.379 . S
C484 C481 1.363 . S
C484 N482 1.356 . S
C485 C479 1.363 . S
C485 C480 1.379 . S
C485 N483 1.356 . S
N486 C478 1.356 . S
N486 H492 0.984 . S
N486 H493 0.984 . S
N487 C480 1.356 . S
N487 H490 0.984 . S
N487 H491 0.985 . S
H488 N483 0.984 . S
H489 N483 0.985 . S
H490 N487 0.984 . S
H491 N487 0.985 . S
H492 N486 0.984 . S
H493 N486 0.984 . S
H494 N482 0.984 . S
H495 N482 0.985 . S
C496 C497 1.363 . S
C496 C502 1.379 1_455 S
C496 N504 1.356 . S
C497 C496 1.363 . S
C497 C503 1.363 1_545 S
C498 C499 1.363 . S
C498 C503 1.379 1_655 S
C498 N505 1.356 . S
C499 C498 1.363 . S
C499 C502 1.363 1_565 S
N500 C502 1.356 . S
N500 H512 0.984 . S
N500 H513 0.985 1_545 S
N501 C503 1.356 . S
N501 H506 0.984 1_565 S
N501 H507 0.985 . S
C502 C496 1.379 1_655 S
C502 C499 1.363 1_545 S
C502 N500 1.356 . S
C503 C497 1.363 1_565 S
C503 C498 1.379 1_455 S
C503 N501 1.356 . S
N504 C496 1.356 . S
N504 H510 0.984 . S
N504 H511 0.984 . S
N505 C498 1.356 . S
N505 H508 0.984 . S
N505 H509 0.985 . S
H506 N501 0.984 1_545 S
H507 N501 0.985 . S
H508 N505 0.984 . S
H509 N505 0.985 . S
H510 N504 0.984 . S
H511 N504 0.984 . S
H512 N500 0.984 . S
H513 N500 0.985 1_565 S
C514 C515 1.363 . S
C514 C520 1.379 . S
C514 N522 1.356 . S
C515 C514 1.363 . S
C515 C521 1.363 1_455 S
C516 C517 1.363 . S
C516 C521 1.379 . S
C516 N523 1.356 . S
C517 C516 1.363 . S
C517 C520 1.363 1_655 S
N518 C520 1.356 . S
N518 H530 0.984 . S
N518 H531 0.985 1_455 S
N519 C521 1.356 . S
N519 H524 0.984 1_655 S
N519 H525 0.985 . S
C520 C514 1.379 . S
C520 C517 1.363 1_455 S
C520 N518 1.356 . S
C521 C515 1.363 1_655 S
C521 C516 1.379 . S
C521 N519 1.356 . S
N522 C514 1.356 . S
N522 H528 0.984 . S
N522 H529 0.984 . S
N523 C516 1.356 . S
N523 H526 0.984 . S
N523 H527 0.985 . S
H524 N519 0.984 1_455 S
H525 N519 0.985 . S
H526 N523 0.984 . S
H527 N523 0.985 . S
H528 N522 0.984 . S
H529 N522 0.984 . S
H530 N518 0.984 . S
H531 N518 0.985 1_655 S
C532 C533 1.363 . S
C532 C538 1.379 . S
C532 N540 1.356 . S
C533 C532 1.363 . S
C533 C539 1.363 . S
C534 C535 1.363 . S
C534 C539 1.379 . S
C534 N541 1.356 . S
C535 C534 1.363 . S
C535 C538 1.363 . S
N536 C538 1.356 . S
N536 H548 0.984 . S
N536 H549 0.985 . S
N537 C539 1.356 . S
N537 H542 0.984 . S
N537 H543 0.985 . S
C538 C532 1.379 . S
C538 C535 1.363 . S
C538 N536 1.356 . S
C539 C533 1.363 . S
C539 C534 1.379 . S
C539 N537 1.356 . S
N540 C532 1.356 . S
N540 H546 0.984 . S
N540 H547 0.984 . S
N541 C534 1.356 . S
N541 H544 0.984 . S
N541 H545 0.985 . S
H542 N537 0.984 . S
H543 N537 0.985 . S
H544 N541 0.984 . S
H545 N541 0.985 . S
H546 N540 0.984 . S
H547 N540 0.984 . S
H548 N536 0.984 . S
H549 N536 0.985 . S
C550 C551 1.363 . S
C550 C556 1.379 1_545 S
C550 N558 1.356 . S
C551 C550 1.363 . S
C551 C557 1.363 . S
C552 C553 1.363 . S
C552 C557 1.379 1_565 S
C552 N559 1.356 . S
C553 C552 1.363 . S
C553 C556 1.363 . S
N554 C556 1.356 . S
N554 H566 0.984 . S
N554 H567 0.985 . S
N555 C557 1.356 . S
N555 H560 0.984 . S
N555 H561 0.985 . S
C556 C550 1.379 1_565 S
C556 C553 1.363 . S
C556 N554 1.356 . S
C557 C551 1.363 . S
C557 C552 1.379 1_545 S
C557 N555 1.356 . S
N558 C550 1.356 . S
N558 H564 0.984 . S
N558 H565 0.984 . S
N559 C552 1.356 . S
N559 H562 0.984 . S
N559 H563 0.985 . S
H560 N555 0.984 . S
H561 N555 0.985 . S
H562 N559 0.984 . S
H563 N559 0.985 . S
H564 N558 0.984 . S
H565 N558 0.984 . S
H566 N554 0.984 . S
H567 N554 0.985 . S
C568 C569 1.363 . S
C568 C574 1.379 1_455 S
C568 N576 1.356 . S
C569 C568 1.363 . S
C569 C575 1.363 . S
C570 C571 1.363 . S
C570 C575 1.379 1_655 S
C570 N577 1.356 . S
C571 C570 1.363 . S
C571 C574 1.363 . S
N572 C574 1.356 . S
N572 H584 0.984 . S
N572 H585 0.985 . S
N573 C575 1.356 . S
N573 H578 0.984 . S
N573 H579 0.985 . S
C574 C568 1.379 1_655 S
C574 C571 1.363 . S
C574 N572 1.356 . S
C575 C569 1.363 . S
C575 C570 1.379 1_455 S
C575 N573 1.356 . S
N576 C568 1.356 . S
N576 H582 0.984 . S
N576 H583 0.984 . S
N577 C570 1.356 . S
N577 H580 0.984 . S
N577 H581 0.985 . S
H578 N573 0.984 . S
H579 N573 0.985 . S
H580 N577 0.984 . S
H581 N577 0.985 . S
H582 N576 0.984 . S
H583 N576 0.984 . S
H584 N572 0.984 . S
H585 N572 0.985 . S
C586 C587 1.363 . S
C586 C592 1.379 . S
C586 N594 1.356 . S
C587 C586 1.363 . S
C587 C593 1.363 . S
C588 C589 1.363 . S
C588 C593 1.379 . S
C588 N595 1.356 . S
C589 C588 1.363 . S
C589 C592 1.363 . S
N590 C592 1.356 . S
N590 H602 0.984 . S
N590 H603 0.985 . S
N591 C593 1.356 . S
N591 H596 0.984 . S
N591 H597 0.985 . S
C592 C586 1.379 . S
C592 C589 1.363 . S
C592 N590 1.356 . S
C593 C587 1.363 . S
C593 C588 1.379 . S
C593 N591 1.356 . S
N594 C586 1.356 . S
N594 H600 0.984 . S
N594 H601 0.984 . S
N595 C588 1.356 . S
N595 H598 0.984 . S
N595 H599 0.985 . S
H596 N591 0.984 . S
H597 N591 0.985 . S
H598 N595 0.984 . S
H599 N595 0.985 . S
H600 N594 0.984 . S
H601 N594 0.984 . S
H602 N590 0.984 . S
H603 N590 0.985 . S
C604 C605 1.363 . S
C604 C610 1.379 . S
C604 N612 1.356 . S
C605 C604 1.363 . S
C605 C611 1.363 1_565 S
C606 C607 1.363 . S
C606 C611 1.379 . S
C606 N613 1.356 . S
C607 C606 1.363 . S
C607 C610 1.363 1_545 S
N608 C610 1.356 . S
N608 H620 0.984 . S
N608 H621 0.985 1_565 S
N609 C611 1.356 . S
N609 H614 0.984 1_545 S
N609 H615 0.985 . S
C610 C604 1.379 . S
C610 C607 1.363 1_565 S
C610 N608 1.356 . S
C611 C605 1.363 1_545 S
C611 C606 1.379 . S
C611 N609 1.356 . S
N612 C604 1.356 . S
N612 H618 0.984 . S
N612 H619 0.984 . S
N613 C606 1.356 . S
N613 H616 0.984 . S
N613 H617 0.985 . S
H614 N609 0.984 1_565 S
H615 N609 0.985 . S
H616 N613 0.984 . S
H617 N613 0.985 . S
H618 N612 0.984 . S
H619 N612 0.984 . S
H620 N608 0.984 . S
H621 N608 0.985 1_545 S
C622 C623 1.363 1_655 S
C622 C628 1.379 1_545 S
C622 N630 1.356 . S
C623 C622 1.363 1_455 S
C623 C629 1.363 . S
C624 C625 1.363 1_455 S
C624 C629 1.379 1_565 S
C624 N631 1.356 . S
C625 C624 1.363 1_655 S
C625 C628 1.363 . S
N626 C628 1.356 . S
N626 H638 0.984 . S
N626 H639 0.985 . S
N627 C629 1.356 . S
N627 H632 0.984 . S
N627 H633 0.985 . S
C628 C622 1.379 1_565 S
C628 C625 1.363 . S
C628 N626 1.356 . S
C629 C623 1.363 . S
C629 C624 1.379 1_545 S
C629 N627 1.356 . S
N630 C622 1.356 . S
N630 H636 0.984 . S
N630 H637 0.984 1_655 S
N631 C624 1.356 . S
N631 H634 0.984 1_455 S
N631 H635 0.985 . S
H632 N627 0.984 . S
H633 N627 0.985 . S
H634 N631 0.984 1_655 S
H635 N631 0.985 . S
H636 N630 0.984 . S
H637 N630 0.984 1_455 S
H638 N626 0.984 . S
H639 N626 0.985 . S
C640 C641 1.363 1_545 S
C640 C646 1.379 . S
C640 N648 1.356 . S
C641 C640 1.363 1_565 S
C641 C647 1.363 . S
C642 C643 1.363 1_565 S
C642 C647 1.379 . S
C642 N649 1.356 . S
C643 C642 1.363 1_545 S
C643 C646 1.363 . S
N644 C646 1.356 . S
N644 H656 0.984 . S
N644 H657 0.985 . S
N645 C647 1.356 . S
N645 H650 0.984 . S
N645 H651 0.985 . S
C646 C640 1.379 . S
C646 C643 1.363 . S
C646 N644 1.356 . S
C647 C641 1.363 . S
C647 C642 1.379 . S
C647 N645 1.356 . S
N648 C640 1.356 . S
N648 H654 0.984 . S
N648 H655 0.984 1_545 S
N649 C642 1.356 . S
N649 H652 0.984 1_565 S
N649 H653 0.985 . S
H650 N645 0.984 . S
H651 N645 0.985 . S
H652 N649 0.984 1_545 S
H653 N649 0.985 . S
H654 N648 0.984 . S
H655 N648 0.984 1_565 S
H656 N644 0.984 . S
H657 N644 0.985 . S
C658 C659 1.363 . S
C658 C664 1.379 1_565 S
C658 N666 1.356 . S
C659 C658 1.363 . S
C659 C665 1.363 1_655 S
C660 C661 1.363 . S
C660 C665 1.379 1_545 S
C660 N667 1.356 . S
C661 C660 1.363 . S
C661 C664 1.363 1_455 S
N662 C664 1.356 . S
N662 H674 0.984 . S
N662 H675 0.985 1_655 S
N663 C665 1.356 . S
N663 H668 0.984 1_455 S
N663 H669 0.985 . S
C664 C658 1.379 1_545 S
C664 C661 1.363 1_655 S
C664 N662 1.356 . S
C665 C659 1.363 1_455 S
C665 C660 1.379 1_565 S
C665 N663 1.356 . S
N666 C658 1.356 . S
N666 H672 0.984 . S
N666 H673 0.984 . S
N667 C660 1.356 . S
N667 H670 0.984 . S
N667 H671 0.985 . S
H668 N663 0.984 1_655 S
H669 N663 0.985 . S
H670 N667 0.984 . S
H671 N667 0.985 . S
H672 N666 0.984 . S
H673 N666 0.984 . S
H674 N662 0.984 . S
H675 N662 0.985 1_455 S
C676 C677 1.363 . S
C676 C682 1.379 1_455 S
C676 N684 1.356 . S
C677 C676 1.363 . S
C677 C683 1.363 . S
C678 C679 1.363 . S
C678 C683 1.379 1_655 S
C678 N685 1.356 . S
C679 C678 1.363 . S
C679 C682 1.363 . S
N680 C682 1.356 . S
N680 H692 0.984 . S
N680 H693 0.985 . S
N681 C683 1.356 . S
N681 H686 0.984 . S
N681 H687 0.985 . S
C682 C676 1.379 1_655 S
C682 C679 1.363 . S
C682 N680 1.356 . S
C683 C677 1.363 . S
C683 C678 1.379 1_455 S
C683 N681 1.356 . S
N684 C676 1.356 . S
N684 H690 0.984 . S
N684 H691 0.984 . S
N685 C678 1.356 . S
N685 H688 0.984 . S
N685 H689 0.985 . S
H686 N681 0.984 . S
H687 N681 0.985 . S
H688 N685 0.984 . S
H689 N685 0.985 . S
H690 N684 0.984 . S
H691 N684 0.984 . S
H692 N680 0.984 . S
H693 N680 0.985 . S
C694 C695 1.363 . S
C694 C700 1.379 . S
C694 N702 1.356 . S
C695 C694 1.363 . S
C695 C701 1.363 . S
C696 C697 1.363 . S
C696 C701 1.379 . S
C696 N703 1.356 . S
C697 C696 1.363 . S
C697 C700 1.363 . S
N698 C700 1.356 . S
N698 H710 0.984 . S
N698 H711 0.985 . S
N699 C701 1.356 . S
N699 H704 0.984 . S
N699 H705 0.985 . S
C700 C694 1.379 . S
C700 C697 1.363 . S
C700 N698 1.356 . S
C701 C695 1.363 . S
C701 C696 1.379 . S
C701 N699 1.356 . S
N702 C694 1.356 . S
N702 H708 0.984 . S
N702 H709 0.984 . S
N703 C696 1.356 . S
N703 H706 0.984 . S
N703 H707 0.985 . S
H704 N699 0.984 . S
H705 N699 0.985 . S
H706 N703 0.984 . S
H707 N703 0.985 . S
H708 N702 0.984 . S
H709 N702 0.984 . S
H710 N698 0.984 . S
H711 N698 0.985 . S
C712 C713 1.363 . S
C712 C718 1.379 . S
C712 N720 1.356 . S
C713 C712 1.363 . S
C713 C719 1.363 . S
C714 C715 1.363 . S
C714 C719 1.379 . S
C714 N721 1.356 . S
C715 C714 1.363 . S
C715 C718 1.363 . S
N716 C718 1.356 . S
N716 H728 0.984 . S
N716 H729 0.985 . S
N717 C719 1.356 . S
N717 H722 0.984 . S
N717 H723 0.985 . S
C718 C712 1.379 . S
C718 C715 1.363 . S
C718 N716 1.356 . S
C719 C713 1.363 . S
C719 C714 1.379 . S
C719 N717 1.356 . S
N720 C712 1.356 . S
N720 H726 0.984 . S
N720 H727 0.984 . S
N721 C714 1.356 . S
N721 H724 0.984 . S
N721 H725 0.985 . S
H722 N717 0.984 . S
H723 N717 0.985 . S
H724 N721 0.984 . S
H725 N721 0.985 . S
H726 N720 0.984 . S
H727 N720 0.984 . S
H728 N716 0.984 . S
H729 N716 0.985 . S
C730 C731 1.363 . S
C730 C736 1.379 1_545 S
C730 N738 1.356 . S
C731 C730 1.363 . S
C731 C737 1.363 . S
C732 C733 1.363 . S
C732 C737 1.379 1_565 S
C732 N739 1.356 . S
C733 C732 1.363 . S
C733 C736 1.363 . S
N734 C736 1.356 . S
N734 H746 0.984 . S
N734 H747 0.985 . S
N735 C737 1.356 . S
N735 H740 0.984 . S
N735 H741 0.985 . S
C736 C730 1.379 1_565 S
C736 C733 1.363 . S
C736 N734 1.356 . S
C737 C731 1.363 . S
C737 C732 1.379 1_545 S
C737 N735 1.356 . S
N738 C730 1.356 . S
N738 H744 0.984 . S
N738 H745 0.984 . S
N739 C732 1.356 . S
N739 H742 0.984 . S
N739 H743 0.985 . S
H740 N735 0.984 . S
H741 N735 0.985 . S
H742 N739 0.984 . S
H743 N739 0.985 . S
H744 N738 0.984 . S
H745 N738 0.984 . S
H746 N734 0.984 . S
H747 N734 0.985 . S
C748 C749 1.363 1_545 S
C748 C754 1.379 1_655 S
C748 N756 1.356 . S
C749 C748 1.363 1_565 S
C749 C755 1.363 . S
C750 C751 1.363 1_565 S
C750 C755 1.379 1_455 S
C750 N757 1.356 . S
C751 C750 1.363 1_545 S
C751 C754 1.363 . S
N752 C754 1.356 . S
N752 H764 0.984 . S
N752 H765 0.985 . S
N753 C755 1.356 . S
N753 H758 0.984 . S
N753 H759 0.985 . S
C754 C748 1.379 1_455 S
C754 C751 1.363 . S
C754 N752 1.356 . S
C755 C749 1.363 . S
C755 C750 1.379 1_655 S
C755 N753 1.356 . S
N756 C748 1.356 . S
N756 H762 0.984 . S
N756 H763 0.984 1_545 S
N757 C750 1.356 . S
N757 H760 0.984 1_565 S
N757 H761 0.985 . S
H758 N753 0.984 . S
H759 N753 0.985 . S
H760 N757 0.984 1_545 S
H761 N757 0.985 . S
H762 N756 0.984 . S
H763 N756 0.984 1_565 S
H764 N752 0.984 . S
H765 N752 0.985 . S
C766 C767 1.363 . S
C766 C772 1.379 . S
C766 N774 1.356 . S
C767 C766 1.363 . S
C767 C773 1.363 1_655 S
C768 C769 1.363 . S
C768 C773 1.379 . S
C768 N775 1.356 . S
C769 C768 1.363 . S
C769 C772 1.363 1_455 S
N770 C772 1.356 . S
N770 H782 0.984 . S
N770 H783 0.985 1_655 S
N771 C773 1.356 . S
N771 H776 0.984 1_455 S
N771 H777 0.985 . S
C772 C766 1.379 . S
C772 C769 1.363 1_655 S
C772 N770 1.356 . S
C773 C767 1.363 1_455 S
C773 C768 1.379 . S
C773 N771 1.356 . S
N774 C766 1.356 . S
N774 H780 0.984 . S
N774 H781 0.984 . S
N775 C768 1.356 . S
N775 H778 0.984 . S
N775 H779 0.985 . S
H776 N771 0.984 1_655 S
H777 N771 0.985 . S
H778 N775 0.984 . S
H779 N775 0.985 . S
H780 N774 0.984 . S
H781 N774 0.984 . S
H782 N770 0.984 . S
H783 N770 0.985 1_455 S
C209 C62 1.557 . S
C211 C10 1.557 . S
C227 C17 1.557 . S
C229 C69 1.557 . S
C245 C88 1.557 . S
C247 C36 1.557 . S
C263 C101 1.557 . S
C265 C43 1.557 . S
C281 C160 1.557 . S
C283 C108 1.557 . S
C299 C127 1.557 . S
C301 C173 1.557 . S
C317 C192 1.557 . S
C319 C140 1.557 . S
C335 C147 1.557 . S
C337 C205 1.557 . S
C353 C3 1.531 . S
C355 C198 1.531 . S
C371 C18 1.531 . S
C373 C161 1.531 . S
C389 C29 1.531 . S
C391 C174 1.531 . S
C407 C185 1.531 . S
C409 C44 1.531 . S
C425 C55 1.531 . S
C427 C120 1.531 . S
C443 C70 1.531 . S
C445 C133 1.531 . S
C461 C148 1.531 . S
C463 C81 1.531 . S
C479 C109 1.531 . S
C481 C94 1.531 . S
C497 C4 1.569 . S
C499 C134 1.569 . S
C515 C153 1.569 . S
C517 C23 1.569 . S
C533 C30 1.569 . S
C535 C114 1.569 . S
C551 C121 1.569 . S
C553 C49 1.569 . S
C569 C56 1.569 . S
C571 C186 1.569 . S
C587 C75 1.569 . S
C589 C199 1.569 . S
C605 C166 1.569 . S
C607 C82 1.569 . S
C623 C179 1.569 . S
C625 C95 1.569 . S
C641 C135 1.461 . S
C643 C5 1.461 . S
C659 C16 1.461 . S
C661 C146 1.461 . S
C677 C31 1.461 . S
C679 C107 1.461 . S
C695 C122 1.461 . S
C697 C42 1.461 . S
C713 C187 1.461 . S
C715 C57 1.461 . S
C731 C200 1.461 . S
C733 C68 1.461 . S
C749 C159 1.461 . S
C751 C83 1.461 . S
C767 C96 1.461 . S
C769 C172 1.461 . S
