# Generated by pormake.
# Topology umh, (4)-cn, num edge types: 1
# Building blocks:
#     Node 0, Type 0, BuildingBlock: KOZSID_clean_sbu_0, # of connection points: 4
#     Node 1, Type 0, BuildingBlock: KOZSID_clean_sbu_0, # of connection points: 4
#     Node 2, Type 0, BuildingBlock: KOZSID_clean_sbu_0, # of connection points: 4
#     Node 3, Type 0, BuildingBlock: KOZSID_clean_sbu_0, # of connection points: 4
#     Node 4, Type 0, BuildingBlock: KOZSID_clean_sbu_0, # of connection points: 4
#     Node 5, Type 0, BuildingBlock: KOZSID_clean_sbu_0, # of connection points: 4
#     Node 6, Type 0, BuildingBlock: KOZSID_clean_sbu_0, # of connection points: 4
#     Node 7, Type 0, BuildingBlock: KOZSID_clean_sbu_0, # of connection points: 4
#     Node 8, Type 0, BuildingBlock: KOZSID_clean_sbu_0, # of connection points: 4
#     Node 9, Type 0, BuildingBlock: KOZSID_clean_sbu_0, # of connection points: 4
#     Node 10, Type 0, BuildingBlock: KOZSID_clean_sbu_0, # of connection points: 4
#     Node 11, Type 0, BuildingBlock: KOZSID_clean_sbu_0, # of connection points: 4
#     Node 12, Type 0, BuildingBlock: KOZSID_clean_sbu_0, # of connection points: 4
#     Node 13, Type 0, BuildingBlock: KOZSID_clean_sbu_0, # of connection points: 4
#     Node 14, Type 0, BuildingBlock: KOZSID_clean_sbu_0, # of connection points: 4
#     Node 15, Type 0, BuildingBlock: KOZSID_clean_sbu_0, # of connection points: 4
#     Edge 16, Type (0, 0), BuildingBlock: EZIPEK_clean_linker_0, # of connection points: 2
#     Edge 17, Type (0, 0), BuildingBlock: EZIPEK_clean_linker_0, # of connection points: 2
#     Edge 18, Type (0, 0), BuildingBlock: EZIPEK_clean_linker_0, # of connection points: 2
#     Edge 19, Type (0, 0), BuildingBlock: EZIPEK_clean_linker_0, # of connection points: 2
#     Edge 20, Type (0, 0), BuildingBlock: EZIPEK_clean_linker_0, # of connection points: 2
#     Edge 21, Type (0, 0), BuildingBlock: EZIPEK_clean_linker_0, # of connection points: 2
#     Edge 22, Type (0, 0), BuildingBlock: EZIPEK_clean_linker_0, # of connection points: 2
#     Edge 23, Type (0, 0), BuildingBlock: EZIPEK_clean_linker_0, # of connection points: 2
#     Edge 24, Type (0, 0), BuildingBlock: EZIPEK_clean_linker_0, # of connection points: 2
#     Edge 25, Type (0, 0), BuildingBlock: EZIPEK_clean_linker_0, # of connection points: 2
#     Edge 26, Type (0, 0), BuildingBlock: EZIPEK_clean_linker_0, # of connection points: 2
#     Edge 27, Type (0, 0), BuildingBlock: EZIPEK_clean_linker_0, # of connection points: 2
#     Edge 28, Type (0, 0), BuildingBlock: EZIPEK_clean_linker_0, # of connection points: 2
#     Edge 29, Type (0, 0), BuildingBlock: EZIPEK_clean_linker_0, # of connection points: 2
#     Edge 30, Type (0, 0), BuildingBlock: EZIPEK_clean_linker_0, # of connection points: 2
#     Edge 31, Type (0, 0), BuildingBlock: EZIPEK_clean_linker_0, # of connection points: 2
#     Edge 32, Type (0, 0), BuildingBlock: EZIPEK_clean_linker_0, # of connection points: 2
#     Edge 33, Type (0, 0), BuildingBlock: EZIPEK_clean_linker_0, # of connection points: 2
#     Edge 34, Type (0, 0), BuildingBlock: EZIPEK_clean_linker_0, # of connection points: 2
#     Edge 35, Type (0, 0), BuildingBlock: EZIPEK_clean_linker_0, # of connection points: 2
#     Edge 36, Type (0, 0), BuildingBlock: EZIPEK_clean_linker_0, # of connection points: 2
#     Edge 37, Type (0, 0), BuildingBlock: EZIPEK_clean_linker_0, # of connection points: 2
#     Edge 38, Type (0, 0), BuildingBlock: EZIPEK_clean_linker_0, # of connection points: 2
#     Edge 39, Type (0, 0), BuildingBlock: EZIPEK_clean_linker_0, # of connection points: 2
#     Edge 40, Type (0, 0), BuildingBlock: EZIPEK_clean_linker_0, # of connection points: 2
#     Edge 41, Type (0, 0), BuildingBlock: EZIPEK_clean_linker_0, # of connection points: 2
#     Edge 42, Type (0, 0), BuildingBlock: EZIPEK_clean_linker_0, # of connection points: 2
#     Edge 43, Type (0, 0), BuildingBlock: EZIPEK_clean_linker_0, # of connection points: 2
#     Edge 44, Type (0, 0), BuildingBlock: EZIPEK_clean_linker_0, # of connection points: 2
#     Edge 45, Type (0, 0), BuildingBlock: EZIPEK_clean_linker_0, # of connection points: 2
#     Edge 46, Type (0, 0), BuildingBlock: EZIPEK_clean_linker_0, # of connection points: 2
#     Edge 47, Type (0, 0), BuildingBlock: EZIPEK_clean_linker_0, # of connection points: 2
# Relax obj value: 0.074
# Max RMSD: 0.157
# Mean RMSD: 0.157
data_MOF--net-umh--node1-KOZSID_clean_sbu_0--edge1-EZIPEK_clean_linker_0
_symmetry_space_group_name_H-M    P1
_symmetry_Int_Tables_number       1
_symmetry_cell_setting            triclinic
loop_
_symmetry_equiv_pos_as_xyz
'x, y, z'
_cell_length_a     42.786619
_cell_length_b     42.925028
_cell_length_c     44.751706
_cell_angle_alpha  89.893495
_cell_angle_beta   90.028316
_cell_angle_gamma 90.023601
loop_
_atom_site_label
_atom_site_type_symbol
_atom_site_fract_x
_atom_site_fract_y
_atom_site_fract_z
_atom_type_partial_charge
C0 C 0.2968 0.08476 0.17306 0.0
C1 C 0.26897 0.068 0.17236 0.0
C2 C 0.26529 0.0576 0.14388 0.0
C3 C 0.2906 0.06888 0.12865 0.0
N4 N 0.31052 0.0855 0.14583 0.0
Co5 Co 0.34913 0.1075 0.13205 0.0
N6 N 0.33804 0.10071 0.08937 0.0
C7 C 0.31122 0.08826 0.07898 0.0
C8 C 0.30329 0.09849 0.05099 0.0
C9 C 0.32683 0.1182 0.04292 0.0
C10 C 0.34877 0.1173 0.06584 0.0
N11 N 0.38859 0.12756 0.11774 0.0
C12 C 0.40086 0.12776 0.08969 0.0
C13 C 0.43269 0.13412 0.09056 0.0
C14 C 0.43991 0.14084 0.11967 0.0
C15 C 0.41259 0.13679 0.13519 0.0
N16 N 0.35867 0.11686 0.17486 0.0
C17 C 0.38395 0.13231 0.18528 0.0
C18 C 0.38267 0.13807 0.2154 0.0
C19 C 0.35446 0.1264 0.22453 0.0
C20 C 0.34013 0.11407 0.19938 0.0
N21 N 0.37319 0.06672 0.13415 0.0
C22 C 0.41257 1.01224 0.13422 0.0
C23 C 0.41948 0.03856 0.15131 0.0
C24 C 0.39944 0.0644 0.15176 0.0
C25 C 0.38456 0.01357 0.1175 0.0
C26 C 0.36578 0.04099 0.11725 0.0
N27 N 0.32616 0.14832 0.13021 0.0
C28 C 0.32587 0.20469 0.13632 0.0
C29 C 0.29404 0.20648 0.12933 0.0
C30 C 0.27861 0.17854 0.12261 0.0
C31 C 0.29492 0.14997 0.12317 0.0
C32 C 0.34132 0.17574 0.13658 0.0
H33 H 0.28182 0.12939 0.11798 0.0
H34 H 0.36563 0.17602 0.1422 0.0
H35 H 0.40621 0.08231 0.16665 0.0
H36 H 0.34546 0.04105 0.10315 0.0
C37 C 0.29138 0.07173 0.09774 0.0
C38 C 0.3085 0.10086 0.19958 0.0
C39 C 0.38195 0.12544 0.06208 0.0
C40 C 0.40874 0.14021 0.16615 0.0
H41 H 0.25205 0.06479 0.19001 0.0
H42 H 0.24504 0.0458 0.13478 0.0
H43 H 0.28223 0.09338 0.03851 0.0
H44 H 0.32839 0.13045 0.02183 0.0
H45 H 0.44895 0.1347 0.0721 0.0
H46 H 0.46253 0.14737 0.12851 0.0
H47 H 0.39998 0.14974 0.22903 0.0
H48 H 0.3452 0.12733 0.24701 0.0
H49 H 0.44046 0.03918 0.16488 0.0
H50 H 0.37748 0.99378 0.10414 0.0
H51 H 0.3388 0.22564 0.14171 0.0
H52 H 0.25396 0.17874 0.11712 0.0
C53 C 0.44607 0.30186 0.68131 0.0
C54 C 0.47015 0.28126 0.68796 0.0
C55 C 0.48839 0.2793 0.66284 0.0
C56 C 0.47469 0.29904 0.64253 0.0
N57 N 0.44907 0.31322 0.65334 0.0
Co58 Co 0.42569 0.34692 0.63339 0.0
N59 N 0.44061 0.33324 0.59362 0.0
C60 C 0.46572 0.31513 0.58842 0.0
C61 C 0.47084 0.30994 0.55858 0.0
C62 C 0.44773 0.32611 0.5441 0.0
C63 C 0.42984 0.34042 0.56604 0.0
N64 N 0.40314 0.38124 0.6132 0.0
C65 C 0.39606 0.38506 0.58388 0.0
C66 C 0.38058 0.41306 0.5793 0.0
C67 C 0.3782 0.42718 0.60676 0.0
C68 C 0.39235 0.40714 0.62656 0.0
N69 N 0.41063 0.35942 0.67352 0.0
C70 C 0.39714 0.38676 0.68047 0.0
C71 C 0.38279 0.38581 0.70795 0.0
C72 C 0.38773 0.3562 0.71878 0.0
C73 C 0.40578 0.34077 0.69774 0.0
N74 N 0.46301 0.37489 0.63742 0.0
C75 C 0.51352 0.41812 0.64209 0.0
C76 C 0.50371 0.4002 0.66679 0.0
C77 C 0.47853 0.37884 0.66403 0.0
C78 C 0.49767 0.41342 0.61509 0.0
C79 C 0.47289 0.39191 0.61327 0.0
N80 N 0.38764 0.3202 0.62946 0.0
C81 C 0.33145 0.31524 0.63594 0.0
C82 C 0.33185 0.28405 0.62711 0.0
C83 C 0.36099 0.27138 0.61875 0.0
C84 C 0.38856 0.28983 0.62003 0.0
C85 C 0.35913 0.33271 0.63677 0.0
H86 H 0.41066 0.27943 0.61396 0.0
H87 H 0.35719 0.35654 0.64375 0.0
H88 H 0.47142 0.36575 0.68351 0.0
H89 H 0.46141 0.38932 0.59221 0.0
C90 C 0.48177 0.30093 0.61207 0.0
C91 C 0.42022 0.30951 0.70154 0.0
C92 C 0.40573 0.36379 0.55979 0.0
C93 C 0.39067 0.4087 0.65791 0.0
H94 H 0.47385 0.2686 0.7086 0.0
H95 H 0.50841 0.26432 0.65944 0.0
H96 H 0.48894 0.2958 0.54855 0.0
H97 H 0.44501 0.32798 0.52012 0.0
H98 H 0.37207 0.42233 0.55831 0.0
H99 H 0.36642 0.44885 0.61179 0.0
H100 H 0.36817 0.40358 0.71786 0.0
H101 H 0.37867 0.3471 0.73957 0.0
H102 H 0.51521 0.40292 0.68819 0.0
H103 H 0.50429 0.42653 0.59538 0.0
H104 H 0.30966 0.32617 0.6424 0.0
H105 H 0.36252 0.24732 0.61169 0.0
C106 C 0.23722 0.44786 0.17353 0.0
C107 C 0.26584 0.46321 0.1739 0.0
C108 C 0.26958 0.47641 0.14634 0.0
C109 C 0.24349 0.46804 0.13048 0.0
N110 N 0.22339 0.4505 0.14647 0.0
Co111 Co 0.1842 0.43123 0.13147 0.0
N112 N 0.19741 0.43655 0.08934 0.0
C113 C 0.22315 0.45152 0.07961 0.0
C114 C 0.23256 0.44176 0.05189 0.0
C115 C 0.21101 0.41995 0.04343 0.0
C116 C 0.18849 0.41897 0.0658 0.0
N117 N 0.14439 0.41336 0.11632 0.0
C118 C 0.13496 0.40859 0.08766 0.0
C119 C 0.10257 0.40587 0.08631 0.0
C120 C 0.09171 0.40754 0.11505 0.0
C121 C 0.11772 0.4122 0.13233 0.0
N122 N 0.17198 0.42469 0.17374 0.0
C123 C 0.14285 0.41958 0.18379 0.0
C124 C 0.14165 0.41578 0.21427 0.0
C125 C 0.17201 0.41877 0.22391 0.0
C126 C 0.19001 0.42427 0.19868 0.0
N127 N 0.16307 0.47279 0.13155 0.0
C128 C 0.11954 0.52261 0.13612 0.0
C129 C 0.13936 0.51478 0.16004 0.0
C130 C 0.16109 0.49014 0.15722 0.0
C131 C 0.1238 0.50648 0.10922 0.0
C132 C 0.14578 0.48212 0.10728 0.0
N133 N 0.20419 0.38933 0.13157 0.0
C134 C 0.20096 0.33361 0.14064 0.0
C135 C 0.23183 0.32917 0.13089 0.0
C136 C 0.24853 0.35561 0.12166 0.0
C137 C 0.23442 0.38526 0.12218 0.0
C138 C 0.18769 0.36369 0.14089 0.0
H139 H 0.24814 0.40485 0.11486 0.0
H140 H 0.16396 0.36617 0.14866 0.0
H141 H 0.17519 0.48419 0.1764 0.0
H142 H 0.14743 0.46979 0.08642 0.0
C143 C 0.24216 0.46783 0.09941 0.0
C144 C 0.22357 0.43163 0.19932 0.0
C145 C 0.15604 0.40809 0.06136 0.0
C146 C 0.11825 0.41533 0.16354 0.0
H147 H 0.28285 0.46411 0.19173 0.0
H148 H 0.29022 0.48819 0.13805 0.0
H149 H 0.25363 0.44823 0.04002 0.0
H150 H 0.21114 0.40746 0.02246 0.0
H151 H 0.08804 0.40363 0.06668 0.0
H152 H 0.06763 0.40623 0.12235 0.0
H153 H 0.1213 0.41077 0.22781 0.0
H154 H 0.17996 0.41754 0.24685 0.0
H155 H 0.13733 0.52691 0.18114 0.0
H156 H 0.10945 0.51198 0.08998 0.0
H157 H 0.18717 0.31392 0.14811 0.0
H158 H 0.27245 0.35337 0.11405 0.0
C159 C 0.08599 0.2354 0.67142 0.0
C160 C 0.07148 0.26437 0.6709 0.0
C161 C 0.0596 0.26822 0.64282 0.0
C162 C 0.06784 0.24179 0.62761 0.0
N163 N 0.08402 0.22132 0.64448 0.0
Co164 Co 0.10239 0.18129 0.63075 0.0
N165 N 0.09879 0.19396 0.58831 0.0
C166 C 0.08557 0.22021 0.57771 0.0
C167 C 0.09653 0.22843 0.55001 0.0
C168 C 0.11724 0.20551 0.54246 0.0
C169 C 0.11638 0.18358 0.56536 0.0
N170 N 0.11921 0.14063 0.61678 0.0
C171 C 0.1234 0.13021 0.58836 0.0
C172 C 0.12478 0.09783 0.58789 0.0
C173 C 0.12287 0.08789 0.61692 0.0
C174 C 0.11936 0.11445 0.63348 0.0
N175 N 0.10739 0.16977 0.67344 0.0
C176 C 0.11166 0.14086 0.6842 0.0
C177 C 0.11464 0.14016 0.71477 0.0
C178 C 0.11204 0.17065 0.72374 0.0
C179 C 0.10756 0.18821 0.69805 0.0
N180 N 0.05985 0.16148 0.63009 0.0
C181 C 1.00821 0.11946 0.63305 0.0
C182 C 0.01628 0.13851 0.65743 0.0
C183 C 0.04183 0.15946 0.65543 0.0
C184 C 0.0252 0.12374 0.60659 0.0
C185 C 0.0504 0.14489 0.60548 0.0
N186 N 0.14532 0.19976 0.63146 0.0
C187 C 0.2011 0.19426 0.64073 0.0
C188 C 0.20713 0.22462 0.63041 0.0
C189 C 0.18131 0.24229 0.62099 0.0
C190 C 0.15087 0.22959 0.62171 0.0
C191 C 0.17028 0.1824 0.64116 0.0
H192 H 0.13191 0.24404 0.61411 0.0
H193 H 0.16672 0.159 0.64928 0.0
H194 H 0.04781 0.17295 0.67493 0.0
H195 H 0.06323 0.14639 0.58492 0.0
C196 C 0.0693 0.24016 0.5966 0.0
C197 C 0.10084 0.22179 0.69794 0.0
C198 C 0.12435 0.15043 0.56148 0.0
C199 C 0.11571 0.11583 0.66459 0.0
H200 H 0.07035 0.28152 0.68853 0.0
H201 H 0.04882 0.28905 0.63386 0.0
H202 H 0.09134 0.24937 0.53745 0.0
H203 H 0.12988 0.20412 0.52157 0.0
H204 H 0.12612 0.0827 0.56867 0.0
H205 H 0.12302 0.06405 0.62486 0.0
H206 H 0.11883 0.12004 0.72882 0.0
H207 H 0.11283 0.17898 0.74654 0.0
H208 H 1.00357 0.1365 0.67826 0.0
H209 H 0.01966 0.11001 0.587 0.0
H210 H 0.22016 0.17969 0.64838 0.0
H211 H 0.18465 0.26588 0.61296 0.0
C212 C 0.29377 0.44329 0.33087 0.0
C213 C 0.26663 0.46104 0.33252 0.0
C214 C 0.26705 0.47567 0.35963 0.0
C215 C 0.2939 0.46564 0.37331 0.0
N216 N 0.31035 0.44547 0.35652 0.0
Co217 Co 0.34824 0.42233 0.36905 0.0
N218 N 0.33938 0.43045 0.41181 0.0
C219 C 0.32051 0.45285 0.42262 0.0
C220 C 0.31934 0.45337 0.45323 0.0
C221 C 0.3389 0.43 0.4623 0.0
C222 C 0.35099 0.41653 0.43654 0.0
N223 N 0.38604 0.3992 0.3818 0.0
C224 C 0.39361 0.3875 0.40902 0.0
C225 C 0.42246 0.3728 0.40814 0.0
C226 C 0.43335 0.37584 0.37939 0.0
C227 C 0.4106 0.39212 0.36432 0.0
N228 N 0.35677 0.41462 0.32623 0.0
C229 C 0.38452 0.40647 0.31452 0.0
C230 C 0.38336 0.40328 0.28398 0.0
C231 C 0.35301 0.40998 0.27613 0.0
C232 C 0.33729 0.41679 0.30242 0.0
N233 N 0.37377 0.46137 0.36684 0.0
C234 C 0.4171 0.5115 0.36092 0.0
C235 C 0.39456 0.50537 0.33877 0.0
C236 C 0.37313 0.48044 0.34219 0.0
C237 C 0.41649 0.49262 0.38652 0.0
C238 C 0.39477 0.46807 0.38907 0.0
N239 N 0.32385 0.38279 0.37086 0.0
C240 C 0.32007 0.32773 0.35894 0.0
C241 C 0.29081 0.32526 0.37277 0.0
C242 C 0.2784 0.35248 0.38569 0.0
C243 C 0.29523 0.38089 0.38454 0.0
C244 C 0.33603 0.35636 0.35822 0.0
H245 H 0.28509 0.40132 0.39469 0.0
H246 H 0.35842 0.35697 0.34728 0.0
H247 H 0.35659 0.47611 0.32446 0.0
H248 H 0.39558 0.45391 0.40883 0.0
C249 C 0.30046 0.46914 0.40365 0.0
C250 C 0.30442 0.42685 0.30394 0.0
C251 C 0.37556 0.3928 0.43656 0.0
C252 C 0.40909 0.39694 0.33327 0.0
H253 H 0.2483 0.46326 0.31603 0.0
H254 H 0.24894 0.49033 0.36895 0.0
H255 H 0.30514 0.4682 0.46727 0.0
H256 H 0.34397 0.42389 0.48527 0.0
H257 H 0.43456 0.3616 0.42649 0.0
H258 H 0.45486 0.36649 0.3704 0.0
H259 H 0.40196 0.39579 0.26927 0.0
H260 H 0.34353 0.40986 0.25371 0.0
H261 H 0.3939 0.51939 0.31863 0.0
H262 H 0.43317 0.49646 0.40435 0.0
H263 H 0.33062 0.30751 0.34859 0.0
H264 H 0.2558 0.35181 0.39654 0.0
C265 C 0.08383 0.2891 0.82907 0.0
C266 C 0.06835 0.26063 0.82972 0.0
C267 C 0.05607 0.25747 0.85773 0.0
C268 C 0.06504 0.28378 0.8728 0.0
N269 N 0.08202 0.30351 0.85586 0.0
Co270 Co 0.10179 0.34293 0.86941 0.0
N271 N 0.09788 0.33068 0.91194 0.0
C272 C 0.08367 0.30499 0.92264 0.0
C273 C 0.09443 0.29645 0.95033 0.0
C274 C 0.11607 0.31859 0.95777 0.0
C275 C 0.11596 0.34049 0.93483 0.0
N276 N 0.12008 0.38305 0.88316 0.0
C277 C 0.12487 0.39344 0.91152 0.0
C278 C 0.12714 0.42578 0.91184 0.0
C279 C 0.12524 0.43567 0.8828 0.0
C280 C 0.12083 0.40915 0.86635 0.0
N281 N 0.10707 0.35403 0.82669 0.0
C282 C 0.11208 0.38275 0.81576 0.0
C283 C 0.11523 0.38312 0.7852 0.0
C284 C 0.11196 0.3526 0.77645 0.0
C285 C 0.10697 0.33538 0.80225 0.0
N286 N 0.0599 0.36412 0.86999 0.0
C287 C 1.00878 0.40682 0.86666 0.0
C288 C 0.01643 0.38724 0.84256 0.0
C289 C 0.04172 0.366 0.84474 0.0
C290 C 0.02604 0.40285 0.89306 0.0
C291 C 0.05098 0.38136 0.89437 0.0
N292 N 0.14401 0.3229 0.86863 0.0
C293 C 0.19979 0.32585 0.85836 0.0
C294 C 0.20454 0.29503 0.86808 0.0
C295 C 0.17809 0.27855 0.8779 0.0
C296 C 0.14833 0.29276 0.87804 0.0
C297 C 0.16958 0.33919 0.85869 0.0
H298 H 0.12887 0.27914 0.88591 0.0
H299 H 0.16697 0.36283 0.85084 0.0
H300 H 0.0473 0.35205 0.82543 0.0
H301 H 0.06395 0.37995 0.91492 0.0
C302 C 0.06661 0.28557 0.90381 0.0
C303 C 0.09962 0.30192 0.80267 0.0
C304 C 0.1256 0.37329 0.9385 0.0
C305 C 0.11693 0.40776 0.83525 0.0
H306 H 0.06687 0.24331 0.81227 0.0
H307 H 0.0446 0.23706 0.8668 0.0
H308 H 0.08851 0.27573 0.96294 0.0
H309 H 0.12891 0.31947 0.97858 0.0
H310 H 0.12903 0.44096 0.93099 0.0
H311 H 0.12599 0.45946 0.87477 0.0
H312 H 0.12004 0.40301 0.77103 0.0
H313 H 0.11274 0.34405 0.75372 0.0
H314 H 1.00355 0.38899 0.82179 0.0
H315 H 0.02084 0.41698 0.91245 0.0
H316 H 0.21938 0.33958 0.8505 0.0
H317 H 0.18041 0.25472 0.88557 0.0
C318 C 0.23867 0.08237 0.32881 0.0
C319 C 0.26763 0.06768 0.32951 0.0
C320 C 0.27049 0.05435 0.35709 0.0
C321 C 0.24362 0.0621 0.37197 0.0
N322 N 0.22382 0.07934 0.35531 0.0
Co323 Co 0.18397 0.09826 0.36899 0.0
N324 N 0.19591 0.09312 0.41145 0.0
C325 C 0.22153 0.07861 0.42204 0.0
C326 C 0.22993 0.08867 0.44997 0.0
C327 C 0.20779 0.11017 0.45765 0.0
C328 C 0.18602 0.11068 0.43457 0.0
N329 N 0.14349 0.11575 0.38288 0.0
C330 C 0.13301 0.12017 0.41125 0.0
C331 C 0.1006 0.12277 0.41155 0.0
C332 C 0.09077 0.12128 0.38245 0.0
C333 C 0.1174 0.11687 0.36601 0.0
N334 N 0.17313 0.1047 0.32637 0.0
C335 C 0.14434 0.10966 0.3154 0.0
C336 C 0.14415 0.11342 0.28489 0.0
C337 C 0.17485 0.11058 0.27624 0.0
C338 C 0.19201 0.10522 0.30204 0.0
N339 N 0.16309 0.05647 0.36828 0.0
C340 C 0.11956 1.00659 0.36255 0.0
C341 C 0.13996 0.01455 0.33911 0.0
C342 C 0.16166 0.03921 0.3425 0.0
C343 C 0.12325 0.02264 0.38959 0.0
C344 C 0.1452 0.04701 0.39208 0.0
N345 N 0.20359 0.14046 0.36948 0.0
C346 C 0.19977 0.19626 0.36091 0.0
C347 C 0.23048 0.20113 0.37104 0.0
C348 C 0.2474 0.17475 0.3802 0.0
C349 C 0.23364 0.14488 0.37934 0.0
C350 C 0.18693 0.16598 0.36015 0.0
H351 H 0.24748 0.12543 0.38677 0.0
H352 H 0.16338 0.16327 0.35195 0.0
H353 H 0.1762 0.04524 0.32366 0.0
H354 H 0.14631 0.05927 0.41298 0.0
C355 C 0.24133 0.0624 0.40296 0.0
C356 C 0.22565 0.09823 0.30252 0.0
C357 C 0.15315 0.12028 0.4382 0.0
C358 C 0.11903 0.1138 0.33483 0.0
H359 H 0.28545 0.06733 0.31242 0.0
H360 H 0.29104 0.04304 0.36612 0.0
H361 H 0.25064 0.0825 0.46256 0.0
H362 H 0.20686 0.12259 0.47864 0.0
H363 H 0.08539 0.12477 0.43072 0.0
H364 H 0.06695 0.12248 0.37437 0.0
H365 H 0.12426 0.11832 0.2707 0.0
H366 H 0.18357 0.11188 0.25357 0.0
H367 H 0.13841 1.00251 0.31792 0.0
H368 H 0.10847 0.01708 0.40849 0.0
H369 H 0.18577 0.2158 0.35347 0.0
H370 H 0.2712 0.17721 0.38808 0.0
C371 C 0.44608 0.22595 0.81787 0.0
C372 C 0.46776 0.24958 0.81321 0.0
C373 C 0.48264 0.25422 0.83995 0.0
C374 C 0.46972 0.23284 0.85917 0.0
N375 N 0.44789 0.21492 0.84608 0.0
Co376 Co 0.42729 0.17828 0.86427 0.0
N377 N 0.43747 0.19268 0.90513 0.0
C378 C 0.45464 0.2179 0.91221 0.0
C379 C 0.44845 0.22869 0.94041 0.0
C380 C 0.42681 0.20843 0.95194 0.0
C381 C 0.42241 0.1852 0.93072 0.0
N382 N 0.40868 0.14038 0.88245 0.0
C383 C 0.40802 0.13163 0.91166 0.0
C384 C 0.40483 0.09944 0.91404 0.0
C385 C 0.40151 0.08811 0.88564 0.0
C386 C 0.40414 0.11361 0.86737 0.0
N387 N 0.41537 0.16566 0.82313 0.0
C388 C 0.40468 0.13752 0.81493 0.0
C389 C 0.39115 0.13788 0.78708 0.0
C390 C 0.39371 0.16812 0.7772 0.0
C391 C 0.40968 0.18443 0.79918 0.0
N392 N 0.46765 0.15455 0.8617 0.0
C393 C 0.51892 0.11221 0.85767 0.0
C394 C 0.50766 0.12823 0.83237 0.0
C395 C 0.48226 0.14928 0.83486 0.0
C396 C 0.50481 0.1191 0.8851 0.0
C397 C 0.47969 0.14025 0.88668 0.0
N398 N 0.38658 0.20094 0.86699 0.0
C399 C 0.33016 0.20138 0.86031 0.0
C400 C 0.32822 0.23282 0.86861 0.0
C401 C 0.35624 0.24781 0.8765 0.0
C402 C 0.38499 0.23159 0.87551 0.0
C403 C 0.35925 0.18595 0.85984 0.0
H404 H 0.40598 0.24416 0.88111 0.0
H405 H 0.35955 0.16181 0.85331 0.0
H406 H 0.47399 0.16068 0.81483 0.0
H407 H 0.46948 0.14406 0.90831 0.0
C408 C 0.47144 0.23408 0.8903 0.0
C409 C 0.42211 0.21655 0.79618 0.0
C410 C 0.41103 0.15329 0.93733 0.0
C411 C 0.40195 0.11362 0.8361 0.0
H412 H 0.47138 0.26304 0.79304 0.0
H413 H 0.49922 0.27245 0.84522 0.0
H414 H 0.45751 0.24953 0.95089 0.0
H415 H 0.41688 0.2098 0.97411 0.0
H416 H 0.40529 0.08534 0.93406 0.0
H417 H 0.39827 0.06406 0.8791 0.0
H418 H 0.37909 0.11896 0.77604 0.0
H419 H 0.38482 0.17691 0.75621 0.0
H420 H 0.518 0.124 0.81068 0.0
H421 H 0.51279 0.10768 0.90531 0.0
H422 H 0.30922 0.18875 0.85413 0.0
H423 H 0.35599 0.27209 0.88302 0.0
C424 C 0.69265 0.91643 0.80041 0.0
C425 C 0.67571 0.90916 0.77492 0.0
C426 C 0.64551 0.90362 0.78401 0.0
C427 C 0.64562 0.90787 0.81445 0.0
N428 N 0.67402 0.91562 0.82496 0.0
Co429 Co 0.68438 0.92431 0.86731 0.0
N430 N 0.64631 0.90293 0.88201 0.0
C431 C 0.62088 0.89618 0.86554 0.0
C432 C 0.59811 0.88126 0.88181 0.0
C433 C 0.60992 0.87877 0.91029 0.0
C434 C 0.6393 0.89244 0.90983 0.0
N435 N 0.69528 0.9332 0.90954 0.0
C436 C 0.68416 0.92042 0.93505 0.0
C437 C 0.69773 0.93417 0.95999 0.0
C438 C 0.7178 0.95651 0.94961 0.0
C439 C 0.7154 0.95516 0.91909 0.0
N440 N 0.72248 0.94586 0.85277 0.0
C441 C 0.74021 0.96596 0.86848 0.0
C442 C 0.76666 0.97503 0.85354 0.0
C443 C 0.76547 0.95984 0.82673 0.0
C444 C 0.73788 0.94272 0.82653 0.0
N445 N 0.65994 0.9641 0.86508 0.0
C446 C 0.61714 0.01485 0.85995 0.0
C447 C 0.61978 0.99749 0.8864 0.0
C448 C 0.64104 0.97251 0.88846 0.0
C449 C 0.63749 1.00692 0.83643 0.0
C450 C 0.65881 0.98183 0.83953 0.0
N451 N 0.7074 0.88399 0.86938 0.0
C452 C 0.75213 0.85236 0.88362 0.0
C453 C 0.73789 0.82516 0.87245 0.0
C454 C 0.70813 0.82833 0.85976 0.0
C455 C 0.6935 0.8576 0.85836 0.0
C456 C 0.73652 0.88143 0.88195 0.0
H457 H 0.67069 0.85871 0.84827 0.0
H458 H 0.748 0.90181 0.89084 0.0
H459 H 0.64142 0.95938 0.90886 0.0
H460 H 0.67375 0.97625 0.82086 0.0
C461 C 0.62147 0.89985 0.83431 0.0
C462 C 0.7258 0.92583 0.80036 0.0
C463 C 0.65862 0.89777 0.9366 0.0
C464 C 0.7351 0.97032 0.89896 0.0
H465 H 0.68429 0.90805 0.7522 0.0
H466 H 0.62613 0.89621 0.77019 0.0
H467 H 0.57597 0.87237 0.87378 0.0
H468 H 0.5981 0.86856 0.92931 0.0
H469 H 0.69324 0.92899 0.98328 0.0
H470 H 0.73303 0.97127 0.96274 0.0
H471 H 0.78552 0.98944 0.86182 0.0
H472 H 0.78311 0.96126 0.80949 0.0
H473 H 0.6048 1.00268 0.90525 0.0
H474 H 0.63659 0.01973 0.81559 0.0
H475 H 0.7752 0.85118 0.89351 0.0
H476 H 0.69619 0.80817 0.85074 0.0
C477 C 0.62338 0.68396 0.29895 0.0
C478 C 0.64044 0.66815 0.27743 0.0
C479 C 0.64485 0.63835 0.288 0.0
C480 C 0.63119 0.63762 0.3158 0.0
N481 N 0.61867 0.66528 0.32324 0.0
Co482 Co 0.60489 0.67766 0.36389 0.0
N483 N 0.62647 0.64222 0.38332 0.0
C484 C 0.63604 0.61617 0.3694 0.0
C485 C 0.64981 0.59531 0.38867 0.0
C486 C 0.64847 0.60907 0.41638 0.0
C487 C 0.63394 0.63767 0.41248 0.0
N488 N 0.59144 0.69143 0.40417 0.0
C489 C 0.60248 0.68347 0.43148 0.0
C490 C 0.58568 0.69826 0.45391 0.0
C491 C 0.56301 0.71558 0.44005 0.0
C492 C 0.56728 0.71054 0.41006 0.0
N493 N 0.58228 0.71245 0.34466 0.0
C494 C 0.5575 0.72742 0.35627 0.0
C495 C 0.54374 0.74764 0.33646 0.0
C496 C 0.56099 0.7452 0.31078 0.0
C497 C 0.58467 0.72387 0.3166 0.0
N498 N 0.5666 0.65099 0.3604 0.0
C499 C 0.51596 0.60796 0.35625 0.0
C500 C 0.53121 0.61358 0.38338 0.0
C501 C 0.55617 0.63486 0.38493 0.0
C502 C 0.52626 0.625 0.33117 0.0
C503 C 0.55139 0.64645 0.33373 0.0
N504 N 0.64394 0.70275 0.36748 0.0
C505 C 0.67303 0.74977 0.37943 0.0
C506 C 0.70157 0.7354 0.37174 0.0
C507 C 0.70038 0.70449 0.36221 0.0
C508 C 0.67179 0.68881 0.3603 0.0
C509 C 0.64448 0.73301 0.37722 0.0
H510 H 0.67255 0.66511 0.3528 0.0
H511 H 0.62289 0.74451 0.38312 0.0
H512 H 0.56745 0.63774 0.40609 0.0
H513 H 0.55882 0.65893 0.314 0.0
C514 C 0.63721 0.61512 0.33799 0.0
C515 C 0.6095 0.71558 0.29537 0.0
C516 C 0.6256 0.65893 0.43707 0.0
C517 C 0.55124 0.72554 0.38689 0.0
H518 H 0.64912 0.67709 0.25642 0.0
H519 H 0.65859 0.62019 0.2776 0.0
H520 H 0.66072 0.57333 0.38312 0.0
H521 H 0.65706 0.59917 0.43707 0.0
H522 H 0.58877 0.69593 0.47782 0.0
H523 H 0.54571 0.73031 0.45058 0.0
H524 H 0.52427 0.76316 0.34051 0.0
H525 H 0.55689 0.75799 0.2903 0.0
H526 H 0.52423 0.60109 0.40335 0.0
H527 H 0.51519 0.62155 0.30967 0.0
H528 H 0.67277 0.77376 0.38684 0.0
H529 H 0.72165 0.69241 0.35603 0.0
C530 C 0.83907 0.6068 0.80138 0.0
C531 C 0.85583 0.61339 0.77562 0.0
C532 C 0.88627 0.61838 0.7843 0.0
C533 C 0.88648 0.61448 0.81481 0.0
N534 N 0.85806 0.60742 0.82571 0.0
Co535 Co 0.84795 0.59986 0.8683 0.0
N536 N 0.88639 0.62105 0.88223 0.0
C537 C 0.9118 0.62697 0.86545 0.0
C538 C 0.9349 0.64197 0.88122 0.0
C539 C 0.9233 0.64537 0.90967 0.0
C540 C 0.89371 0.63216 0.9097 0.0
N541 N 0.83717 0.59217 0.91077 0.0
C542 C 0.84853 0.60554 0.93585 0.0
C543 C 0.8349 0.59264 0.96121 0.0
C544 C 0.81454 0.57023 0.95151 0.0
C545 C 0.81685 0.57069 0.92095 0.0
N546 N 0.80949 0.5785 0.85444 0.0
C547 C 0.79169 0.55889 0.87067 0.0
C548 C 0.7649 0.55007 0.85614 0.0
C549 C 0.76592 0.56496 0.8291 0.0
C550 C 0.79376 0.58166 0.82833 0.0
N551 N 0.87193 0.55963 0.86716 0.0
C552 C 0.91355 0.50757 0.86425 0.0
C553 C 0.9109 0.52579 0.89009 0.0
C554 C 0.89033 0.55141 0.89103 0.0
C555 C 0.89388 0.51549 0.8401 0.0
C556 C 0.87311 0.54122 0.84211 0.0
N557 N 0.82543 0.6405 0.86953 0.0
C558 C 0.78128 0.6729 0.88371 0.0
C559 C 0.79586 0.69985 0.8723 0.0
C560 C 0.82548 0.69613 0.85942 0.0
C561 C 0.83963 0.6666 0.85813 0.0
C562 C 0.79643 0.6436 0.88222 0.0
H563 H 0.86234 0.66504 0.84789 0.0
H564 H 0.78472 0.62347 0.89142 0.0
H565 H 0.89009 0.56513 0.91103 0.0
H566 H 0.85862 0.54667 0.82304 0.0
C567 C 0.91092 0.62258 0.83432 0.0
C568 C 0.80563 0.59841 0.8019 0.0
C569 C 0.8744 0.62789 0.93665 0.0
C570 C 0.79692 0.55521 0.90126 0.0
H571 H 0.84695 0.61453 0.75299 0.0
H572 H 0.90559 0.62533 0.77018 0.0
H573 H 0.95711 0.65033 0.87285 0.0
H574 H 0.93537 0.65591 0.92836 0.0
H575 H 0.83954 0.59842 0.98432 0.0
H576 H 0.7992 0.55601 0.9651 0.0
H577 H 0.74587 0.53617 0.86489 0.0
H578 H 0.74796 0.56372 0.81215 0.0
H579 H 0.92537 0.52075 0.90937 0.0
H580 H 0.89482 0.50211 0.81964 0.0
H581 H 0.75832 0.67448 0.89374 0.0
H582 H 0.83767 0.71606 0.85018 0.0
C583 C 0.90582 0.84254 0.2989 0.0
C584 C 0.88897 0.85865 0.27736 0.0
C585 C 0.88551 0.88864 0.28765 0.0
C586 C 0.89943 0.88917 0.31533 0.0
N587 N 0.91127 0.86123 0.32295 0.0
Co588 Co 0.92474 0.84853 0.36365 0.0
N589 N 0.90401 0.8845 0.38281 0.0
C590 C 0.89508 0.91076 0.36877 0.0
C591 C 0.88168 0.93191 0.3879 0.0
C592 C 0.8826 0.91811 0.41564 0.0
C593 C 0.89654 0.8892 0.41189 0.0
N594 N 0.93782 0.83444 0.40396 0.0
C595 C 0.92694 0.84271 0.43119 0.0
C596 C 0.94341 0.82763 0.45374 0.0
C597 C 0.96569 0.80976 0.44001 0.0
C598 C 0.96156 0.81482 0.40998 0.0
N599 N 0.94646 0.81319 0.34463 0.0
C600 C 0.9709 0.79764 0.35627 0.0
C601 C 0.98396 0.77695 0.33657 0.0
C602 C 0.96658 0.77969 0.31095 0.0
C603 C 0.94354 0.80168 0.31671 0.0
N604 N 0.96372 0.8742 0.36017 0.0
C605 C 0.0161 0.91519 0.35641 0.0
C606 C 1.00044 0.91005 0.38342 0.0
C607 C 0.97461 0.88983 0.38476 0.0
C608 C 1.00519 0.89878 0.33121 0.0
C609 C 0.9792 0.87833 0.33358 0.0
N610 N 0.88514 0.82433 0.36731 0.0
C611 C 0.8552 0.7779 0.37956 0.0
C612 C 0.82694 0.79271 0.37167 0.0
C613 C 0.82868 0.82357 0.36193 0.0
C614 C 0.85756 0.83877 0.35998 0.0
C615 C 0.88403 0.79413 0.3773 0.0
H616 H 0.85727 0.86247 0.35233 0.0
H617 H 0.90539 0.78226 0.38333 0.0
H618 H 0.96313 0.88731 0.40585 0.0
H619 H 0.97139 0.86622 0.3138 0.0
C620 C 0.89396 0.91185 0.33738 0.0
C621 C 0.91873 0.81052 0.29561 0.0
C622 C 0.90437 0.86778 0.43656 0.0
C623 C 0.97726 0.79941 0.38689 0.0
H624 H 0.87977 0.8498 0.25655 0.0
H625 H 0.87209 0.90706 0.2772 0.0
H626 H 0.87125 0.95411 0.38223 0.0
H627 H 0.87412 0.92818 0.43625 0.0
H628 H 0.94037 0.8301 0.47762 0.0
H629 H 0.98266 0.79469 0.45066 0.0
H630 H 1.00299 0.76089 0.34067 0.0
H631 H 0.97016 0.76664 0.29057 0.0
H632 H 1.00781 0.9221 0.40347 0.0
H633 H 0.01651 0.90191 0.30979 0.0
H634 H 0.85503 0.75394 0.38715 0.0
H635 H 0.80763 0.83598 0.35561 0.0
C636 C 0.69125 0.61126 0.69684 0.0
C637 C 0.67474 0.6188 0.72249 0.0
C638 C 0.64449 0.6247 0.71372 0.0
C639 C 0.64414 0.62037 0.68329 0.0
N640 N 0.67229 0.61225 0.67248 0.0
Co641 Co 0.68189 0.60334 0.63001 0.0
N642 N 0.64386 0.62508 0.61567 0.0
C643 C 0.61876 0.63211 0.63244 0.0
C644 C 0.59585 0.64711 0.61637 0.0
C645 C 0.60724 0.64934 0.58772 0.0
C646 C 0.63652 0.63549 0.58788 0.0
N647 N 0.69206 0.59422 0.58765 0.0
C648 C 0.68076 0.60707 0.56223 0.0
C649 C 0.69392 0.5932 0.53718 0.0
C650 C 0.71389 0.57069 0.54738 0.0
C651 C 0.71185 0.57207 0.57793 0.0
N652 N 0.71997 0.58142 0.64417 0.0
C653 C 0.73726 0.56114 0.62827 0.0
C654 C 0.76383 0.55183 0.64289 0.0
C655 C 0.7632 0.56704 0.6697 0.0
C656 C 0.73578 0.58442 0.67024 0.0
N657 N 0.65699 0.56383 0.63265 0.0
C658 C 0.61345 0.51376 0.63861 0.0
C659 C 0.61589 0.531 0.61207 0.0
C660 C 0.63753 0.55564 0.60959 0.0
C661 C 0.63437 0.52144 0.66177 0.0
C662 C 0.65605 0.54618 0.65827 0.0
N663 N 0.70533 0.64338 0.62756 0.0
C664 C 0.75023 0.67453 0.61282 0.0
C665 C 0.73641 0.70189 0.62407 0.0
C666 C 0.70675 0.69905 0.63703 0.0
C667 C 0.69184 0.66994 0.63865 0.0
C668 C 0.73433 0.64563 0.61469 0.0
H669 H 0.66915 0.66908 0.64896 0.0
H670 H 0.74548 0.62511 0.60574 0.0
H671 H 0.63772 0.56873 0.58915 0.0
H672 H 0.6714 0.5516 0.67669 0.0
C673 C 0.6198 0.62857 0.66368 0.0
C674 C 0.72429 0.60141 0.69658 0.0
C675 C 0.65543 0.62997 0.56088 0.0
C676 C 0.73168 0.5568 0.59786 0.0
H677 H 0.68363 0.61985 0.74511 0.0
H678 H 0.62539 0.63236 0.72774 0.0
H679 H 0.5739 0.65618 0.62464 0.0
H680 H 0.59521 0.65951 0.56879 0.0
H681 H 0.68926 0.59844 0.51393 0.0
H682 H 0.72884 0.55581 0.53411 0.0
H683 H 0.78242 0.53723 0.63438 0.0
H684 H 0.78106 0.56546 0.68672 0.0
H685 H 0.60047 0.526 0.59348 0.0
H686 H 0.63364 0.5087 0.68267 0.0
H687 H 0.7732 0.67547 0.60272 0.0
H688 H 0.69514 0.71935 0.64613 0.0
C689 C 0.90562 0.68593 0.19701 0.0
C690 C 0.88886 0.66981 0.2186 0.0
C691 C 0.88551 0.63977 0.20841 0.0
C692 C 0.89942 0.63921 0.18073 0.0
N693 N 0.91112 0.66719 0.17301 0.0
Co694 Co 0.92461 0.67976 0.13229 0.0
N695 N 0.90419 0.6435 0.11325 0.0
C696 C 0.89543 0.61724 0.12741 0.0
C697 C 0.88225 0.59586 0.10834 0.0
C698 C 0.88314 0.6095 0.08053 0.0
C699 C 0.89684 0.63855 0.08417 0.0
N700 N 0.93768 0.6937 0.09193 0.0
C701 C 0.92692 0.68518 0.06471 0.0
C702 C 0.94334 0.70025 0.04213 0.0
C703 C 0.96547 0.71837 0.05582 0.0
C704 C 0.96129 0.71347 0.08586 0.0
N705 N 0.94607 0.71537 0.15118 0.0
C706 C 0.97043 0.73101 0.1395 0.0
C707 C 0.98346 0.75181 0.15915 0.0
C708 C 0.96615 0.74903 0.18478 0.0
C709 C 0.94317 0.72692 0.17909 0.0
N710 N 0.96369 0.65444 0.13607 0.0
C711 C 0.01611 0.61376 0.14044 0.0
C712 C 1.00062 0.6186 0.11328 0.0
C713 C 0.97474 0.63868 0.11164 0.0
C714 C 1.00505 0.63033 0.16545 0.0
C715 C 0.97905 0.65064 0.16276 0.0
N716 N 0.88489 0.70361 0.1284 0.0
C717 C 0.85469 0.74988 0.11636 0.0
C718 C 0.82653 0.73476 0.12403 0.0
C719 C 0.82843 0.70383 0.13352 0.0
C720 C 0.8574 0.68889 0.13552 0.0
C721 C 0.88362 0.73386 0.1186 0.0
H722 H 0.85726 0.66516 0.14309 0.0
H723 H 0.90492 0.74593 0.11274 0.0
H724 H 0.96333 0.64096 0.09047 0.0
H725 H 0.9711 0.66288 0.18241 0.0
C726 C 0.8942 0.61635 0.1588 0.0
C727 C 0.91847 0.71799 0.20025 0.0
C728 C 0.90454 0.65991 0.05941 0.0
C729 C 0.97685 0.72912 0.10891 0.0
H730 H 0.87968 0.67868 0.23941 0.0
H731 H 0.87224 0.6213 0.21894 0.0
H732 H 0.87198 0.57361 0.11411 0.0
H733 H 0.87478 0.59924 0.05995 0.0
H734 H 0.94037 0.69759 0.01825 0.0
H735 H 0.98236 0.7335 0.04514 0.0
H736 H 1.00245 0.76791 0.15501 0.0
H737 H 0.96974 0.76211 0.20515 0.0
H738 H 1.00813 0.60638 0.09338 0.0
H739 H 0.01627 0.62741 0.18696 0.0
H740 H 0.85437 0.77391 0.10897 0.0
H741 H 0.80746 0.69121 0.13967 0.0
C742 C 0.83918 0.91917 0.69484 0.0
C743 C 0.85598 0.91247 0.72057 0.0
C744 C 0.88638 0.90744 0.71183 0.0
C745 C 0.8865 0.91143 0.68134 0.0
N746 N 0.85807 0.91855 0.67049 0.0
Co747 Co 0.8479 0.92648 0.62797 0.0
N748 N 0.88632 0.9054 0.61391 0.0
C749 C 0.91175 0.89933 0.63063 0.0
C750 C 0.9348 0.88441 0.61476 0.0
C751 C 0.92315 0.88122 0.5863 0.0
C752 C 0.89358 0.89446 0.58636 0.0
N753 N 0.83716 0.93457 0.58556 0.0
C754 C 0.84852 0.92142 0.56039 0.0
C755 C 0.83494 0.93456 0.53511 0.0
C756 C 0.81461 0.9569 0.54495 0.0
C757 C 0.81688 0.95616 0.57552 0.0
N758 N 0.80945 0.9477 0.64193 0.0
C759 C 0.79163 0.96741 0.62583 0.0
C760 C 0.76488 0.97616 0.64043 0.0
C761 C 0.76597 0.96115 0.6674 0.0
C762 C 0.7938 0.94444 0.66804 0.0
N763 N 0.8718 0.96667 0.62955 0.0
C764 C 0.91314 0.01879 0.63338 0.0
C765 C 0.91111 1.00064 0.60744 0.0
C766 C 0.8906 0.97499 0.60603 0.0
C767 C 0.89301 1.0108 0.65711 0.0
C768 C 0.87242 0.985 0.65466 0.0
N769 N 0.82534 0.88587 0.62641 0.0
C770 C 0.78096 0.85371 0.61233 0.0
C771 C 0.79545 0.82669 0.62368 0.0
C772 C 0.82518 0.83023 0.6364 0.0
C773 C 0.83949 0.85969 0.63768 0.0
C774 C 0.79628 0.88292 0.61379 0.0
H775 H 0.86225 0.86113 0.64785 0.0
H776 H 0.78462 0.90313 0.6047 0.0
H777 H 0.89068 0.96133 0.58598 0.0
H778 H 0.85759 0.97945 0.67345 0.0
C779 C 0.91092 0.90348 0.66178 0.0
C780 C 0.8058 0.92771 0.69441 0.0
C781 C 0.87426 0.89897 0.55946 0.0
C782 C 0.79689 0.97141 0.59528 0.0
H783 H 0.84718 0.91132 0.74321 0.0
H784 H 0.90573 0.90046 0.72591 0.0
H785 H 0.957 0.87597 0.62307 0.0
H786 H 0.93518 0.8708 0.56754 0.0
H787 H 0.83956 0.92896 0.51196 0.0
H788 H 0.79928 0.97124 0.53146 0.0
H789 H 0.74587 0.99017 0.63179 0.0
H790 H 0.74809 0.96234 0.68441 0.0
H791 H 0.92597 1.00578 0.58847 0.0
H792 H 0.89349 0.02416 0.6776 0.0
H793 H 0.75792 0.85225 0.60241 0.0
H794 H 0.8373 0.81023 0.64557 0.0
C795 C 0.62088 0.84083 0.19704 0.0
C796 C 0.63728 0.85642 0.2192 0.0
C797 C 0.64138 0.88652 0.20939 0.0
C798 C 0.62831 0.88769 0.18133 0.0
N799 N 0.61629 0.86 0.1731 0.0
Co800 Co 0.60396 0.8482 0.13192 0.0
N801 N 0.6268 0.88361 0.11369 0.0
C802 C 0.63619 0.90938 0.12817 0.0
C803 C 0.6511 0.93017 0.10961 0.0
C804 C 0.65065 0.91668 0.08174 0.0
C805 C 0.63553 0.88826 0.08485 0.0
N806 N 0.59124 0.83552 0.0912 0.0
C807 C 0.60284 0.84403 0.06431 0.0
C808 C 0.58625 0.83 0.04126 0.0
C809 C 0.56313 0.81261 0.05432 0.0
C810 C 0.56694 0.81683 0.08448 0.0
N811 N 0.58119 0.8128 0.14996 0.0
C812 C 0.55691 0.7977 0.13756 0.0
C813 C 0.54366 0.7762 0.15645 0.0
C814 C 0.5608 0.7779 0.18231 0.0
C815 C 0.58387 0.80015 0.17753 0.0
N816 N 0.56537 0.87484 0.1346 0.0
C817 C 0.51186 0.91508 0.1365 0.0
C818 C 0.51673 0.89144 0.15809 0.0
C819 C 0.5439 0.87238 0.15728 0.0
C820 C 0.53459 0.91752 0.11406 0.0
C821 C 0.56004 0.89689 0.11299 0.0
N822 N 0.64301 0.82311 0.12893 0.0
C823 C 0.67253 0.77696 0.11518 0.0
C824 C 0.7008 0.79089 0.12444 0.0
C825 C 0.69925 0.82109 0.13579 0.0
C826 C 0.67058 0.83657 0.13782 0.0
C827 C 0.64391 0.7935 0.11752 0.0
H828 H 0.67108 0.85977 0.14664 0.0
H829 H 0.62254 0.7824 0.11027 0.0
H830 H 0.54737 0.85563 0.175 0.0
H831 H 0.57558 0.89919 0.09447 0.0
C832 C 0.63561 0.9103 0.15958 0.0
C833 C 0.60808 0.80862 0.19944 0.0
C834 C 0.62697 0.86779 0.05971 0.0
C835 C 0.55083 0.80079 0.10699 0.0
H836 H 0.64603 0.8471 0.24003 0.0
H837 H 0.65493 0.90451 0.2203 0.0
H838 H 0.66198 0.95202 0.11573 0.0
H839 H 0.66 0.92672 0.06142 0.0
H840 H 0.58996 0.83265 0.01747 0.0
H841 H 0.54601 0.79815 0.04316 0.0
H842 H 0.52465 0.76033 0.15165 0.0
H843 H 0.55696 0.7641 0.20223 0.0
H844 H 0.49993 0.88806 0.17589 0.0
H845 H 0.53251 0.93515 0.09682 0.0
H846 H 0.67257 0.75349 0.10635 0.0
H847 H 0.72029 0.8328 0.14324 0.0
C848 C 0.38326 0.1212 0.97818 0.0
C849 C 0.40742 0.142 0.96937 0.0
C850 C 0.41598 0.15283 0.02207 0.0
C851 C 0.39523 0.12862 0.03077 0.0
N852 N 0.37316 0.0798 0.01332 0.0
N853 N 0.45739 0.16196 0.98678 0.0
C854 C 0.38405 0.109 0.00754 0.0
C855 C 0.42761 0.1526 0.99249 0.0
N856 N 0.35829 0.11501 0.96025 0.0
N857 N 0.42221 0.17762 0.04002 0.0
H858 H 0.46742 0.15954 0.96564 0.0
H859 H 0.47231 0.16918 0.00391 0.0
H860 H 0.41025 0.18145 0.05997 0.0
H861 H 0.43657 0.19586 0.03289 0.0
H862 H 0.33995 0.10076 0.96738 0.0
H863 H 0.35447 0.12678 0.94017 0.0
H864 H 0.3653 0.06521 0.99624 0.0
H865 H 0.37486 0.0698 0.03456 0.0
C866 C 0.37085 0.35773 0.48129 0.0
C867 C 0.3872 0.38192 0.46634 0.0
C868 C 0.41682 0.39314 0.51201 0.0
C869 C 0.39833 0.37107 0.5278 0.0
N870 N 0.35653 0.33355 0.52859 0.0
N871 N 0.424 0.4245 0.46766 0.0
C872 C 0.37506 0.35356 0.51268 0.0
C873 C 0.40996 0.39989 0.48168 0.0
N874 N 0.35149 0.33873 0.46522 0.0
N875 N 0.44155 0.4072 0.52581 0.0
H876 H 0.4216 0.42892 0.44495 0.0
H877 H 0.43688 0.4415 0.47876 0.0
H878 H 0.44619 0.40467 0.54842 0.0
H879 H 0.45862 0.4199 0.51453 0.0
H880 H 0.34063 0.31901 0.47391 0.0
H881 H 0.34819 0.34136 0.44223 0.0
H882 H 0.35923 0.32986 0.5515 0.0
H883 H 0.3372 0.32212 0.51973 0.0
C884 C 0.11071 0.37629 0.99378 0.0
C885 C 0.12981 0.38657 0.96966 0.0
C886 C 0.15389 0.42142 0.00567 0.0
C887 C 0.14378 0.40257 0.03 0.0
N888 N 0.11671 0.35458 0.04293 0.0
N889 N 0.17731 0.41494 0.95736 0.0
C890 C 0.12311 0.37777 0.02304 0.0
C891 C 0.15369 0.40828 0.97673 0.0
N892 N 0.0812 0.36543 0.98919 0.0
N893 N 0.16341 0.45137 0.00979 0.0
H894 H 0.1802 0.40307 0.93724 0.0
H895 H 0.19553 0.42995 0.9632 0.0
H896 H 0.16157 0.46238 0.0305 0.0
H897 H 0.1701 0.46549 0.99187 0.0
H898 H 0.06686 0.35866 0.00692 0.0
H899 H 0.0706 0.36628 0.9682 0.0
H900 H 0.10253 0.3357 0.03722 0.0
H901 H 0.12811 0.35271 0.06346 0.0
C902 C 0.10741 0.14852 0.50683 0.0
C903 C 0.12696 0.13724 0.53022 0.0
C904 C 0.14992 0.10347 0.49274 0.0
C905 C 0.13982 0.12358 0.46935 0.0
N906 N 0.11268 0.17202 0.45838 0.0
N907 N 0.17412 0.10766 0.54094 0.0
C908 C 0.1192 0.14802 0.47734 0.0
C909 C 0.15026 0.11533 0.52216 0.0
N910 N 0.07839 0.16009 0.51246 0.0
N911 N 0.15982 0.07392 0.48712 0.0
H912 H 0.17759 0.11874 0.56139 0.0
H913 H 0.19207 0.0927 0.53433 0.0
H914 H 0.15824 0.06412 0.46585 0.0
H915 H 0.16666 0.0589 0.50429 0.0
H916 H 0.06371 0.1677 0.49529 0.0
H917 H 0.06845 0.15912 0.53372 0.0
H918 H 0.09875 0.19077 0.46492 0.0
H919 H 0.12378 0.17467 0.4378 0.0
C920 C 0.61684 0.89779 0.01204 0.0
C921 C 0.63548 0.87615 0.02819 0.0
C922 C 0.66458 0.86404 0.9823 0.0
C923 C 0.6479 0.8878 0.96702 0.0
N924 N 0.61125 0.93055 0.96846 0.0
N925 N 0.67891 0.8406 0.02993 0.0
C926 C 0.6248 0.90549 0.98217 0.0
C927 C 0.65989 0.85976 0.01362 0.0
N928 N 0.59073 0.91025 0.02487 0.0
N929 N 0.6846 0.84538 0.96664 0.0
H930 H 0.67585 0.83685 0.0528 0.0
H931 H 0.69899 0.83019 0.02148 0.0
H932 H 0.68841 0.84806 0.94374 0.0
H933 H 0.69551 0.82582 0.97561 0.0
H934 H 0.57398 0.92282 0.01302 0.0
H935 H 0.58438 0.90595 0.04686 0.0
H936 H 0.59778 0.94697 0.97972 0.0
H937 H 0.61502 0.93621 0.94617 0.0
C938 C 0.6608 0.66434 0.51556 0.0
C939 C 0.64453 0.64008 0.53051 0.0
C940 C 0.61508 0.62879 0.48466 0.0
C941 C 0.63339 0.65106 0.46893 0.0
N942 N 0.67538 0.68836 0.46826 0.0
N943 N 0.60855 0.59682 0.52875 0.0
C944 C 0.65671 0.66846 0.48413 0.0
C945 C 0.62214 0.62182 0.51495 0.0
N946 N 0.67992 0.68356 0.53165 0.0
N947 N 0.59026 0.61484 0.47088 0.0
H948 H 0.61146 0.59191 0.55133 0.0
H949 H 0.59575 0.57987 0.51749 0.0
H950 H 0.58527 0.61779 0.44834 0.0
H951 H 0.5734 0.60189 0.48217 0.0
H952 H 0.69052 0.70342 0.52295 0.0
H953 H 0.68324 0.681 0.55464 0.0
H954 H 0.67282 0.69197 0.44532 0.0
H955 H 0.69478 0.69964 0.47717 0.0
C956 C 0.90775 0.62084 0.98267 0.0
C957 C 0.88533 0.63869 0.96669 0.0
C958 C 0.87351 0.66846 0.01218 0.0
C959 C 0.89694 0.65154 0.02772 0.0
N960 N 0.94046 0.61575 0.0264 0.0
N961 N 0.85026 0.68236 0.96433 0.0
C962 C 0.91525 0.62894 0.01255 0.0
C963 C 0.86928 0.66347 0.98092 0.0
N964 N 0.92096 0.59519 0.96976 0.0
N965 N 0.85482 0.6887 0.02755 0.0
H966 H 0.84683 0.67917 0.94144 0.0
H967 H 0.83992 0.70256 0.97249 0.0
H968 H 0.85749 0.69297 0.05036 0.0
H969 H 0.83531 0.69958 0.01838 0.0
H970 H 0.93382 0.57868 0.98159 0.0
H971 H 0.91756 0.58925 0.94749 0.0
H972 H 0.95716 0.60247 0.01529 0.0
H973 H 0.94602 0.6198 0.04864 0.0
C974 C 0.91499 0.89855 0.48356 0.0
C975 C 0.89674 0.87597 0.46827 0.0
C976 C 0.8691 0.86368 0.51497 0.0
C977 C 0.88516 0.88839 0.52936 0.0
N978 N 0.92075 0.93196 0.52659 0.0
N979 N 0.8547 0.83868 0.4682 0.0
C980 C 0.90754 0.90639 0.5135 0.0
C981 C 0.87334 0.85889 0.4837 0.0
N982 N 0.9401 0.91197 0.46976 0.0
N983 N 0.85006 0.84469 0.53144 0.0
H984 H 0.85738 0.83456 0.44537 0.0
H985 H 0.83522 0.82767 0.47729 0.0
H986 H 0.84662 0.84775 0.55434 0.0
H987 H 0.8397 0.82454 0.52316 0.0
H988 H 0.95681 0.9252 0.48095 0.0
H989 H 0.94554 0.90823 0.44746 0.0
H990 H 0.93355 0.94861 0.51487 0.0
H991 H 0.91741 0.93771 0.54891 0.0
C992 C 0.25582 0.28234 0.15769 0.0
C993 C 0.24675 0.2971 0.13051 0.0
C994 C 0.26971 0.25302 0.10241 0.0
C995 C 0.27705 0.23745 0.12963 0.0
N996 N 0.27271 0.23518 0.18321 0.0
N997 N 0.24035 0.29387 0.07715 0.0
C998 C 0.26883 0.25158 0.15727 0.0
C999 C 0.25242 0.28165 0.10291 0.0
N1000 N 0.25302 0.29823 0.18397 0.0
N1001 N 0.28021 0.24095 0.07602 0.0
H1002 H 0.22763 0.3146 0.07662 0.0
H1003 H 0.24056 0.28227 0.05674 0.0
H1004 H 0.2925 0.22001 0.07471 0.0
H1005 H 0.2789 0.25274 0.05571 0.0
H1006 H 0.26251 0.29062 0.20412 0.0
H1007 H 0.24313 0.32034 0.18523 0.0
H1008 H 0.264 0.24239 0.20379 0.0
H1009 H 0.28256 0.21298 0.18383 0.0
C1010 C 0.28471 0.2597 0.6006 0.0
C1011 C 0.30157 0.26545 0.62747 0.0
C1012 C 0.25638 0.24528 0.65635 0.0
C1013 C 0.24017 0.2379 0.62945 0.0
N1014 N 0.24184 0.23273 0.57588 0.0
N1015 N 0.30567 0.25811 0.68064 0.0
C1016 C 0.25525 0.24359 0.60155 0.0
C1017 C 0.288 0.25648 0.65523 0.0
N1018 N 0.29625 0.2707 0.57414 0.0
N1019 N 0.24107 0.24295 0.68306 0.0
H1020 H 0.32873 0.26606 0.68065 0.0
H1021 H 0.29859 0.24899 0.70112 0.0
H1022 H 0.21809 0.23508 0.68486 0.0
H1023 H 0.25011 0.25126 0.70313 0.0
H1024 H 0.28356 0.27073 0.55428 0.0
H1025 H 0.31781 0.28192 0.57243 0.0
H1026 H 0.25298 0.23306 0.5552 0.0
H1027 H 0.22059 0.22081 0.57566 0.0
C1028 C 0.26989 0.27676 0.39975 0.0
C1029 C 0.27345 0.2943 0.37292 0.0
C1030 C 0.2508 0.25008 0.34472 0.0
C1031 C 0.24494 0.23352 0.37176 0.0
N1032 N 0.24364 0.23427 0.42559 0.0
N1033 N 0.26109 0.29982 0.32071 0.0
C1034 C 0.25303 0.24781 0.39944 0.0
C1035 C 0.26207 0.28151 0.34567 0.0
N1036 N 0.28366 0.28712 0.42543 0.0
N1037 N 0.24685 0.23536 0.31794 0.0
H1038 H 0.26847 0.32295 0.32077 0.0
H1039 H 0.25015 0.29317 0.30092 0.0
H1040 H 0.23904 0.21243 0.3162 0.0
H1041 H 0.25401 0.24483 0.29762 0.0
H1042 H 0.28506 0.27383 0.44488 0.0
H1043 H 0.29601 0.30803 0.42663 0.0
H1044 H 0.24581 0.24502 0.44634 0.0
H1045 H 0.23102 0.21349 0.42634 0.0
C1046 C 0.28343 0.26004 0.84124 0.0
C1047 C 0.29703 0.24986 0.8686 0.0
C1048 C 0.25197 0.27265 0.89571 0.0
C1049 C 0.23688 0.28008 0.86819 0.0
N1050 N 0.23692 0.27688 0.81444 0.0
N1051 N 0.29214 0.24299 0.92178 0.0
C1052 C 0.25237 0.27278 0.84087 0.0
C1053 C 0.28069 0.25528 0.8958 0.0
N1054 N 0.30059 0.25832 0.81553 0.0
N1055 N 0.23944 0.28325 0.92187 0.0
H1056 H 0.31313 0.23069 0.92285 0.0
H1057 H 0.27974 0.24284 0.9418 0.0
H1058 H 0.21885 0.29621 0.92274 0.0
H1059 H 0.2508 0.28168 0.9424 0.0
H1060 H 0.29369 0.26843 0.79542 0.0
H1061 H 0.32311 0.24903 0.81486 0.0
H1062 H 0.24517 0.26873 0.79402 0.0
H1063 H 0.21451 0.28627 0.81318 0.0
C1064 C 0.75907 0.77724 0.90033 0.0
C1065 C 0.75391 0.7935 0.87298 0.0
C1066 C 0.7723 0.74692 0.84558 0.0
C1067 C 0.78032 0.73176 0.87286 0.0
N1068 N 0.78604 0.73528 0.92633 0.0
N1069 N 0.76177 0.79556 0.81972 0.0
C1070 C 0.77495 0.74772 0.90029 0.0
C1071 C 0.7623 0.77876 0.84567 0.0
N1072 N 0.74778 0.78939 0.92637 0.0
N1073 N 0.77306 0.7305 0.81948 0.0
H1074 H 0.75527 0.81894 0.81895 0.0
H1075 H 0.7707 0.78731 0.79958 0.0
H1076 H 0.77949 0.70712 0.81859 0.0
H1077 H 0.76437 0.73905 0.79933 0.0
H1078 H 0.74761 0.77721 0.94652 0.0
H1079 H 0.73614 0.8107 0.92737 0.0
H1080 H 0.78603 0.74722 0.94657 0.0
H1081 H 0.79775 0.714 0.92726 0.0
C1082 C 0.74902 0.75701 0.39981 0.0
C1083 C 0.73288 0.75202 0.37239 0.0
C1084 C 0.78017 0.76904 0.34499 0.0
C1085 C 0.7954 0.77652 0.37234 0.0
N1086 N 0.79237 0.78182 0.42583 0.0
N1087 N 0.73142 0.75846 0.31895 0.0
C1088 C 0.77926 0.7716 0.39978 0.0
C1089 C 0.74806 0.75954 0.34502 0.0
N1090 N 0.73593 0.74683 0.42591 0.0
N1091 N 0.79677 0.77009 0.31891 0.0
H1092 H 0.70792 0.75199 0.31812 0.0
H1093 H 0.73991 0.76672 0.29863 0.0
H1094 H 0.82027 0.77655 0.31803 0.0
H1095 H 0.78824 0.76183 0.29863 0.0
H1096 H 0.74781 0.74637 0.44621 0.0
H1097 H 0.71379 0.7367 0.4269 0.0
H1098 H 0.78051 0.78229 0.44613 0.0
H1099 H 0.81449 0.792 0.42677 0.0
C1100 C 0.77174 0.77983 0.6506 0.0
C1101 C 0.77967 0.79489 0.62325 0.0
C1102 C 0.75781 0.74956 0.59597 0.0
C1103 C 0.75274 0.73338 0.62338 0.0
N1104 N 0.76107 0.7313 0.67659 0.0
N1105 N 0.78496 0.79126 0.56975 0.0
C1106 C 0.7615 0.74807 0.65061 0.0
C1107 C 0.77396 0.77894 0.59587 0.0
N1108 N 0.77282 0.79629 0.67667 0.0
N1109 N 0.74619 0.73747 0.57002 0.0
H1110 H 0.79689 0.81241 0.56873 0.0
H1111 H 0.78467 0.77929 0.54953 0.0
H1112 H 0.73433 0.71626 0.56913 0.0
H1113 H 0.74596 0.74964 0.54987 0.0
H1114 H 0.76421 0.78782 0.69688 0.0
H1115 H 0.77943 0.81963 0.6775 0.0
H1116 H 0.77025 0.73952 0.69665 0.0
H1117 H 0.75441 0.70796 0.67743 0.0
C1118 C 0.77934 0.75711 0.15087 0.0
C1119 C 0.79491 0.75069 0.12347 0.0
C1120 C 0.74865 0.77064 0.09614 0.0
C1121 C 0.73218 0.7745 0.12353 0.0
N1122 N 0.73016 0.7659 0.17668 0.0
N1123 N 0.79239 0.74697 0.06982 0.0
C1124 C 0.74712 0.76612 0.1508 0.0
C1125 C 0.77899 0.7563 0.09603 0.0
N1126 N 0.79571 0.75554 0.17708 0.0
N1127 N 0.7358 0.78165 0.07024 0.0
H1128 H 0.81455 0.73693 0.0688 0.0
H1129 H 0.78069 0.74704 0.04942 0.0
H1130 H 0.71362 0.79165 0.06933 0.0
H1131 H 0.74793 0.78293 0.05011 0.0
H1132 H 0.78683 0.76304 0.19749 0.0
H1133 H 0.81931 0.7495 0.17802 0.0
H1134 H 0.73857 0.75698 0.19679 0.0
H1135 H 0.70653 0.77187 0.17745 0.0
C1136 C 0.25532 0.12894 0.26319 0.0
C1137 C 0.24482 0.09986 0.27452 0.0
C1138 C 0.28086 0.0728 0.24123 0.0
C1139 C 0.28867 0.10137 0.22722 0.0
N1140 N 0.27914 0.15649 0.22164 0.0
N1141 N 0.24069 0.0443 0.26756 0.0
C1142 C 0.27472 0.1295 0.23728 0.0
C1143 C 0.25528 0.07183 0.26121 0.0
N1144 N 0.24744 0.15588 0.27752 0.0
N1145 N 0.29786 0.04658 0.23544 0.0
H1146 H 0.22127 0.04296 0.28162 0.0
H1147 H 0.24594 0.02358 0.25654 0.0
H1148 H 0.3172 0.04665 0.22124 0.0
H1149 H 0.29455 0.02572 0.24698 0.0
H1150 H 0.25713 0.17743 0.27213 0.0
H1151 H 0.23287 0.15631 0.2962 0.0
H1152 H 0.26695 0.17693 0.22619 0.0
H1153 H 0.29316 0.15777 0.20261 0.0
C1154 C 0.41024 0.2543 0.71877 0.0
C1155 C 0.41283 0.28644 0.72621 0.0
C1156 C 0.40823 0.2709 0.77857 0.0
C1157 C 0.41407 0.23915 0.77129 0.0
N1158 N 0.43242 0.20477 0.73216 0.0
N1159 N 0.42646 0.32222 0.76597 0.0
C1160 C 0.41793 0.2316 0.74066 0.0
C1161 C 0.41472 0.29425 0.75695 0.0
N1162 N 0.40244 0.24541 0.69055 0.0
N1163 N 0.39846 0.27899 0.80644 0.0
H1164 H 0.43608 0.33826 0.75106 0.0
H1165 H 0.43015 0.32745 0.78846 0.0
H1166 H 0.39284 0.26228 0.82247 0.0
H1167 H 0.39304 0.30195 0.81206 0.0
H1168 H 0.39936 0.22206 0.68476 0.0
H1169 H 0.39598 0.26157 0.6743 0.0
H1170 H 0.43752 0.19993 0.70984 0.0
H1171 H 0.44265 0.18953 0.74746 0.0
C1172 C 0.25304 0.40029 0.23832 0.0
C1173 C 0.24197 0.42949 0.2278 0.0
C1174 C 0.27616 0.45618 0.26319 0.0
C1175 C 0.28445 0.42726 0.27634 0.0
N1176 N 0.27803 0.37154 0.27857 0.0
N1177 N 0.23639 0.48466 0.23627 0.0
C1178 C 0.27209 0.39916 0.26451 0.0
C1179 C 0.2513 0.45725 0.24236 0.0
N1180 N 0.24612 0.37379 0.22284 0.0
N1181 N 0.29252 0.48254 0.27007 0.0
H1182 H 0.2176 0.48611 0.22145 0.0
H1183 H 0.24072 0.50509 0.24814 0.0
H1184 H 0.31167 0.4824 0.28451 0.0
H1185 H 0.28901 0.5037 0.25911 0.0
H1186 H 0.25632 0.35231 0.2275 0.0
H1187 H 0.23174 0.37372 0.20401 0.0
H1188 H 0.26718 0.3507 0.27279 0.0
H1189 H 0.29228 0.36984 0.29743 0.0
C1190 C 0.07283 0.24926 0.73965 0.0
C1191 C 0.10149 0.24035 0.72631 0.0
C1192 C 0.1298 0.27111 0.76386 0.0
C1193 C 0.10089 0.28286 0.77462 0.0
N1194 N 0.04546 0.28934 0.76702 0.0
N1195 N 0.15747 0.24559 0.72328 0.0
C1196 C 0.07257 0.27395 0.76058 0.0
C1197 C 0.13013 0.25203 0.73775 0.0
N1198 N 0.04585 0.234 0.73242 0.0
N1199 N 0.15676 0.2775 0.77898 0.0
H1200 H 0.15856 0.23117 0.70456 0.0
H1201 H 0.17866 0.25616 0.72859 0.0
H1202 H 0.1574 0.29186 0.79777 0.0
H1203 H 0.17803 0.26688 0.77412 0.0
H1204 H 0.02475 0.23786 0.74344 0.0
H1205 H 0.04532 0.21536 0.7175 0.0
H1206 H 0.02467 0.2855 0.75545 0.0
H1207 H 0.04459 0.30806 0.78184 0.0
C1208 C 0.75269 0.95391 0.75787 0.0
C1209 C 0.74469 0.92538 0.77193 0.0
C1210 C 0.77549 0.89746 0.73397 0.0
C1211 C 0.78646 0.92639 0.72255 0.0
N1212 N 0.79229 0.98173 0.7301 0.0
N1213 N 0.75134 0.86977 0.77543 0.0
C1214 C 0.77723 0.95449 0.73661 0.0
C1215 C 0.75688 0.897 0.76053 0.0
N1216 N 0.73661 0.98047 0.76455 0.0
N1217 N 0.78224 0.87054 0.71912 0.0
H1218 H 0.73737 0.86857 0.7945 0.0
H1219 H 0.76226 0.84883 0.77011 0.0
H1220 H 0.79615 0.87002 0.69999 0.0
H1221 H 0.77231 0.84913 0.72455 0.0
H1222 H 0.73989 1.00135 0.75304 0.0
H1223 H 0.71787 0.98072 0.77947 0.0
H1224 H 0.78811 1.00237 0.74166 0.0
H1225 H 0.8111 0.98285 0.7153 0.0
C1226 C 0.61973 0.77064 0.27717 0.0
C1227 C 0.61636 0.73846 0.27015 0.0
C1228 C 0.61982 0.75357 0.21737 0.0
C1229 C 0.61514 0.78558 0.22448 0.0
N1230 N 0.59805 0.82041 0.26376 0.0
N1231 N 0.60101 0.70265 0.23099 0.0
C1232 C 0.61199 0.79332 0.25519 0.0
C1233 C 0.61345 0.7305 0.23945 0.0
N1234 N 0.62841 0.77968 0.30513 0.0
N1235 N 0.62871 0.74497 0.18935 0.0
H1236 H 0.59158 0.68692 0.2463 0.0
H1237 H 0.59658 0.69727 0.20865 0.0
H1238 H 0.63438 0.7613 0.17294 0.0
H1239 H 0.6334 0.72182 0.18386 0.0
H1240 H 0.63498 0.76363 0.32149 0.0
H1241 H 0.63203 0.80304 0.31058 0.0
H1242 H 0.59347 0.82548 0.28613 0.0
H1243 H 0.58768 0.83562 0.2485 0.0
C1244 C 0.77522 0.62908 0.76258 0.0
C1245 C 0.78602 0.60002 0.77386 0.0
C1246 C 0.75152 0.57294 0.73875 0.0
C1247 C 0.7436 0.60159 0.72484 0.0
N1248 N 0.7509 0.65712 0.72139 0.0
N1249 N 0.7912 0.54468 0.76603 0.0
C1250 C 0.75629 0.6298 0.73619 0.0
C1251 C 0.77632 0.57207 0.75977 0.0
N1252 N 0.78243 0.6559 0.77741 0.0
N1253 N 0.7351 0.54655 0.73217 0.0
H1254 H 0.81018 0.54335 0.78064 0.0
H1255 H 0.78669 0.52412 0.75444 0.0
H1256 H 0.71617 0.54651 0.71745 0.0
H1257 H 0.73833 0.52561 0.74359 0.0
H1258 H 0.77268 0.67742 0.77209 0.0
H1259 H 0.79654 0.65624 0.79643 0.0
H1260 H 0.76216 0.67792 0.72662 0.0
H1261 H 0.73672 0.65851 0.70246 0.0
C1262 C 0.90683 0.75573 0.27788 0.0
C1263 C 0.91101 0.78779 0.27064 0.0
C1264 C 0.90656 0.77272 0.21806 0.0
C1265 C 0.91085 0.74067 0.22527 0.0
N1266 N 0.92718 0.70541 0.26465 0.0
N1267 N 0.92699 0.82307 0.23115 0.0
C1268 C 0.91388 0.73282 0.25599 0.0
C1269 C 0.91378 0.79564 0.2399 0.0
N1270 N 0.89813 0.74698 0.30594 0.0
N1271 N 0.89763 0.78145 0.19005 0.0
H1272 H 0.93716 0.8385 0.24626 0.0
H1273 H 0.93129 0.82825 0.20873 0.0
H1274 H 0.89153 0.76516 0.1738 0.0
H1275 H 0.89338 0.80468 0.18446 0.0
H1276 H 0.89394 0.72374 0.31155 0.0
H1277 H 0.89212 0.76325 0.32223 0.0
H1278 H 0.93166 0.70023 0.28704 0.0
H1279 H 0.93722 0.68998 0.24948 0.0
C1280 C 0.44695 0.97284 0.16241 0.0
C1281 C 0.43491 0.98424 0.13471 0.0
C1282 C 0.4669 0.94382 0.10979 0.0
C1283 C 0.48372 0.93732 0.1367 0.0
N1284 N 0.49262 0.95296 0.18796 0.0
N1285 N 0.44015 0.98337 0.08086 0.0
C1286 C 0.47442 0.95373 0.16292 0.0
C1287 C 0.44662 0.97039 0.10802 0.0
N1288 N 0.4318 0.97957 0.18844 0.0
N1289 N 0.46938 0.92413 0.086 0.0
H1290 H 0.42746 1.0039 0.07836 0.0
H1291 H 0.45054 0.97565 0.06115 0.0
H1292 H 0.48207 0.90341 0.08697 0.0
H1293 H 0.45577 0.92654 0.06679 0.0
H1294 H 0.43825 0.96981 0.2089 0.0
H1295 H 0.4107 0.99173 0.18894 0.0
H1296 H 0.48802 0.96672 0.20663 0.0
H1297 H 0.51417 0.94172 0.18882 0.0
C1298 C 0.59573 0.45661 0.63843 0.0
C1299 C 0.58831 0.48875 0.64208 0.0
C1300 C 0.53275 0.4739 0.65021 0.0
C1301 C 0.53975 0.44212 0.64404 0.0
N1302 N 0.57761 0.4034 0.63012 0.0
N1303 N 0.54925 0.52828 0.64984 0.0
C1304 C 0.57125 0.43356 0.63775 0.0
C1305 C 0.55664 0.49738 0.64762 0.0
N1306 N 0.62637 0.44806 0.63578 0.0
N1307 N 0.50319 0.48156 0.65918 0.0
H1308 H 0.56605 0.54589 0.64991 0.0
H1309 H 0.52648 0.53677 0.65005 0.0
H1310 H 0.48517 0.46527 0.66074 0.0
H1311 H 0.49689 0.50342 0.66715 0.0
H1312 H 0.63408 0.42508 0.63639 0.0
H1313 H 0.6446 0.46416 0.63491 0.0
H1314 H 0.59903 0.39591 0.62184 0.0
H1315 H 0.5607 0.38588 0.63043 0.0
C1316 C 0.06205 0.53603 0.14381 0.0
C1317 C 0.09337 0.54632 0.13943 0.0
C1318 C 0.07455 0.60101 0.14062 0.0
C1319 C 0.04297 0.5906 0.14225 0.0
N1320 N 1.0064 0.54795 0.14331 0.0
N1321 N 0.12928 0.58856 0.13115 0.0
C1322 C 0.03673 0.558 0.14333 0.0
C1323 C 0.09955 0.57886 0.13738 0.0
N1324 N 0.05657 0.50515 0.14932 0.0
N1325 N 0.08067 0.6322 0.14235 0.0
H1326 H 0.14805 0.5732 0.12918 0.0
H1327 H 0.13515 0.61147 0.12597 0.0
H1328 H 0.0631 0.64898 0.14362 0.0
H1329 H 0.10302 0.64147 0.14462 0.0
H1330 H 0.03502 0.49629 0.15593 0.0
H1331 H 0.07428 0.48844 0.14959 0.0
H1332 H 0.99987 0.52483 0.14016 0.0
H1333 H 0.98739 0.56308 0.1448 0.0
C1334 C 0.96931 0.03817 0.64041 0.0
C1335 C 0.93708 0.0451 0.63561 0.0
C1336 C 0.95124 0.10099 0.6296 0.0
C1337 C 0.98328 0.09413 0.63528 0.0
N1338 N 0.02218 0.05682 0.65032 0.0
N1339 N 0.89688 0.08374 0.62932 0.0
C1340 C 0.99205 0.06284 0.64188 0.0
C1341 C 0.92797 0.07677 0.63141 0.0
N1342 N 0.97832 1.00773 0.64307 0.0
N1343 N 0.94319 0.13061 0.62142 0.0
H1344 H 0.87946 0.06674 0.62923 0.0
H1345 H 0.88804 0.10631 0.6296 0.0
H1346 H 0.95928 0.14887 0.62069 0.0
H1347 H 0.92117 0.13689 0.61362 0.0
H1348 H 1.00149 1.00039 0.64273 0.0
H1349 H 0.96245 0.98931 0.64408 0.0
H1350 H 0.02975 0.03546 0.65861 0.0
H1351 H 0.03945 0.07396 0.65111 0.0
C1352 C 0.49779 0.55139 0.35174 0.0
C1353 C 0.49014 0.58356 0.35451 0.0
C1354 C 0.43444 0.56877 0.36119 0.0
C1355 C 0.44195 0.53669 0.35726 0.0
N1356 N 0.4801 0.49814 0.34344 0.0
N1357 N 0.45052 0.62316 0.35744 0.0
C1358 C 0.47349 0.52827 0.35102 0.0
C1359 C 0.45821 0.59226 0.3578 0.0
N1360 N 0.52852 0.54279 0.35045 0.0
N1361 N 0.40477 0.57672 0.36949 0.0
H1362 H 0.46721 0.64081 0.35591 0.0
H1363 H 0.42765 0.63134 0.35641 0.0
H1364 H 0.38687 0.56041 0.37186 0.0
H1365 H 0.39829 0.59903 0.37609 0.0
H1366 H 0.53614 0.51984 0.35226 0.0
H1367 H 0.54678 0.55887 0.34936 0.0
H1368 H 0.50175 0.49085 0.3355 0.0
H1369 H 0.46312 0.48072 0.34265 0.0
C1370 C 0.99295 0.46374 0.85868 0.0
C1371 C 0.98394 0.43227 0.86414 0.0
C1372 C 0.92843 0.4495 0.86565 0.0
C1373 C 0.93766 0.48129 0.86259 0.0
N1374 N 0.97922 0.51884 0.85795 0.0
N1375 N 0.94322 0.39547 0.8753 0.0
C1376 C 0.97011 0.48835 0.85957 0.0
C1377 C 0.95164 0.42527 0.86808 0.0
N1378 N 0.02344 0.47 0.8517 0.0
N1379 N 0.89729 0.44241 0.8661 0.0
H1380 H 0.9593 0.37725 0.87664 0.0
H1381 H 0.92081 0.38899 0.88184 0.0
H1382 H 0.87984 0.45935 0.86588 0.0
H1383 H 0.88854 0.41983 0.8648 0.0
H1384 H 0.03136 0.49157 0.84424 0.0
H1385 H 0.04073 0.45288 0.85118 0.0
H1386 H 1.00233 0.52619 0.85972 0.0
H1387 H 0.96342 0.53726 0.85632 0.0
C1388 C 0.0746 0.9281 0.35677 0.0
C1389 C 0.043 0.93844 0.35499 0.0
C1390 C 0.0621 0.99308 0.35408 0.0
C1391 C 0.09342 0.98283 0.35865 0.0
N1392 N 0.12924 0.94052 0.36687 0.0
N1393 N 1.00645 0.98107 0.35404 0.0
C1394 C 0.09958 0.95026 0.36044 0.0
C1395 C 0.03678 0.97106 0.35416 0.0
N1396 N 0.08077 0.89693 0.35478 0.0
N1397 N 0.05665 0.024 0.34877 0.0
H1398 H 0.98746 0.96593 0.35227 0.0
H1399 H 0.99989 1.00415 0.35736 0.0
H1400 H 0.07435 0.04072 0.34875 0.0
H1401 H 0.03513 0.03288 0.34206 0.0
H1402 H 0.10314 0.88774 0.35259 0.0
H1403 H 0.06322 0.88015 0.35318 0.0
H1404 H 0.13506 0.91757 0.3719 0.0
H1405 H 0.14798 0.95588 0.36917 0.0
C1406 C 0.60044 0.07227 0.86044 0.0
C1407 C 0.59237 0.04026 0.85696 0.0
C1408 C 0.53689 0.05598 0.84997 0.0
C1409 C 0.54462 0.08769 0.85577 0.0
N1410 N 0.58347 0.12587 0.86861 0.0
N1411 N 0.55249 1.00134 0.85004 0.0
C1412 C 0.5764 0.09574 0.86142 0.0
C1413 C 0.56044 0.03213 0.85208 0.0
N1414 N 0.63128 0.0803 0.86259 0.0
N1415 N 0.50693 0.04871 0.84191 0.0
H1416 H 0.56899 0.98347 0.8496 0.0
H1417 H 0.5296 0.99317 0.85031 0.0
H1418 H 0.48904 0.06519 0.84102 0.0
H1419 H 0.50002 0.02694 0.83416 0.0
H1420 H 0.63942 0.10312 0.86184 0.0
H1421 H 0.64922 0.06388 0.86324 0.0
H1422 H 0.60519 0.1331 0.87642 0.0
H1423 H 0.5669 0.14369 0.86836 0.0
loop_
_geom_bond_atom_site_label_1
_geom_bond_atom_site_label_2
_geom_bond_distance
_geom_bond_site_symmetry_2
_ccdc_geom_bond_type
C0 C1 1.443 . S
C0 N4 1.376 . S
C0 C38 1.389 . S
C1 C0 1.443 . S
C1 C2 1.340 . S
C1 H41 0.951 . S
C2 C1 1.340 . S
C2 C3 1.439 . S
C2 H42 0.950 . S
C3 C2 1.439 . S
C3 N4 1.374 . S
C3 C37 1.395 . S
N4 C0 1.376 . S
N4 C3 1.374 . S
N4 Co5 2.008 . S
Co5 N4 2.008 . S
Co5 N6 1.995 . S
Co5 N11 2.008 . S
Co5 N16 1.995 . S
Co5 N21 2.282 . S
Co5 N27 2.282 . S
N6 Co5 1.995 . S
N6 C7 1.376 . S
N6 C10 1.383 . S
C7 N6 1.376 . S
C7 C8 1.446 . S
C7 C37 1.391 . S
C8 C7 1.446 . S
C8 C9 1.339 . S
C8 H43 0.949 . S
C9 C8 1.339 . S
C9 C10 1.439 . S
C9 H44 0.950 . S
C10 N6 1.383 . S
C10 C9 1.439 . S
C10 C39 1.392 . S
N11 Co5 2.008 . S
N11 C12 1.376 . S
N11 C15 1.374 . S
C12 N11 1.376 . S
C12 C13 1.443 . S
C12 C39 1.389 . S
C13 C12 1.443 . S
C13 C14 1.340 . S
C13 H45 0.951 . S
C14 C13 1.340 . S
C14 C15 1.439 . S
C14 H46 0.950 . S
C15 N11 1.374 . S
C15 C14 1.439 . S
C15 C40 1.395 . S
N16 Co5 1.995 . S
N16 C17 1.376 . S
N16 C20 1.383 . S
C17 N16 1.376 . S
C17 C18 1.446 . S
C17 C40 1.391 . S
C18 C17 1.446 . S
C18 C19 1.339 . S
C18 H47 0.949 . S
C19 C18 1.339 . S
C19 C20 1.439 . S
C19 H48 0.950 . S
C20 N16 1.383 . S
C20 C19 1.439 . S
C20 C38 1.392 . S
N21 Co5 2.282 . S
N21 C24 1.332 . S
N21 C26 1.332 . S
C22 C23 1.386 . S
C22 C25 1.388 . S
C23 C22 1.386 . S
C23 C24 1.382 . S
C23 H49 0.950 . S
C24 N21 1.332 . S
C24 C23 1.382 . S
C24 H35 0.952 . S
C25 C22 1.388 . S
C25 C26 1.382 . S
C25 H50 0.950 1_545 S
C26 N21 1.332 . S
C26 C25 1.382 . S
C26 H36 0.948 . S
N27 Co5 2.282 . S
N27 C31 1.332 . S
N27 C32 1.332 . S
C28 C29 1.388 . S
C28 C32 1.382 . S
C28 H51 0.950 . S
C29 C28 1.388 . S
C29 C30 1.386 . S
C30 C29 1.386 . S
C30 C31 1.382 . S
C30 H52 0.950 . S
C31 N27 1.332 . S
C31 C30 1.382 . S
C31 H33 0.952 . S
C32 N27 1.332 . S
C32 C28 1.382 . S
C32 H34 0.948 . S
H33 C31 0.952 . S
H34 C32 0.948 . S
H35 C24 0.952 . S
H36 C26 0.948 . S
C37 C3 1.395 . S
C37 C7 1.391 . S
C38 C0 1.389 . S
C38 C20 1.392 . S
C39 C10 1.392 . S
C39 C12 1.389 . S
C40 C15 1.395 . S
C40 C17 1.391 . S
H41 C1 0.951 . S
H42 C2 0.950 . S
H43 C8 0.949 . S
H44 C9 0.950 . S
H45 C13 0.951 . S
H46 C14 0.950 . S
H47 C18 0.949 . S
H48 C19 0.950 . S
H49 C23 0.950 . S
H50 C25 0.950 1_565 S
H51 C28 0.950 . S
H52 C30 0.950 . S
C53 C54 1.443 . S
C53 N57 1.376 . S
C53 C91 1.389 . S
C54 C53 1.443 . S
C54 C55 1.340 . S
C54 H94 0.951 . S
C55 C54 1.340 . S
C55 C56 1.439 . S
C55 H95 0.950 . S
C56 C55 1.439 . S
C56 N57 1.374 . S
C56 C90 1.395 . S
N57 C53 1.376 . S
N57 C56 1.374 . S
N57 Co58 2.008 . S
Co58 N57 2.008 . S
Co58 N59 1.995 . S
Co58 N64 2.008 . S
Co58 N69 1.995 . S
Co58 N74 2.282 . S
Co58 N80 2.282 . S
N59 Co58 1.995 . S
N59 C60 1.376 . S
N59 C63 1.383 . S
C60 N59 1.376 . S
C60 C61 1.446 . S
C60 C90 1.391 . S
C61 C60 1.446 . S
C61 C62 1.339 . S
C61 H96 0.949 . S
C62 C61 1.339 . S
C62 C63 1.439 . S
C62 H97 0.950 . S
C63 N59 1.383 . S
C63 C62 1.439 . S
C63 C92 1.392 . S
N64 Co58 2.008 . S
N64 C65 1.376 . S
N64 C68 1.374 . S
C65 N64 1.376 . S
C65 C66 1.443 . S
C65 C92 1.389 . S
C66 C65 1.443 . S
C66 C67 1.340 . S
C66 H98 0.951 . S
C67 C66 1.340 . S
C67 C68 1.439 . S
C67 H99 0.950 . S
C68 N64 1.374 . S
C68 C67 1.439 . S
C68 C93 1.395 . S
N69 Co58 1.995 . S
N69 C70 1.376 . S
N69 C73 1.383 . S
C70 N69 1.376 . S
C70 C71 1.446 . S
C70 C93 1.391 . S
C71 C70 1.446 . S
C71 C72 1.339 . S
C71 H100 0.949 . S
C72 C71 1.339 . S
C72 C73 1.439 . S
C72 H101 0.950 . S
C73 N69 1.383 . S
C73 C72 1.439 . S
C73 C91 1.392 . S
N74 Co58 2.282 . S
N74 C77 1.332 . S
N74 C79 1.332 . S
C75 C76 1.386 . S
C75 C78 1.388 . S
C76 C75 1.386 . S
C76 C77 1.382 . S
C76 H102 0.950 . S
C77 N74 1.332 . S
C77 C76 1.382 . S
C77 H88 0.952 . S
C78 C75 1.388 . S
C78 C79 1.382 . S
C78 H103 0.950 . S
C79 N74 1.332 . S
C79 C78 1.382 . S
C79 H89 0.948 . S
N80 Co58 2.282 . S
N80 C84 1.332 . S
N80 C85 1.332 . S
C81 C82 1.388 . S
C81 C85 1.382 . S
C81 H104 0.950 . S
C82 C81 1.388 . S
C82 C83 1.386 . S
C83 C82 1.386 . S
C83 C84 1.382 . S
C83 H105 0.950 . S
C84 N80 1.332 . S
C84 C83 1.382 . S
C84 H86 0.952 . S
C85 N80 1.332 . S
C85 C81 1.382 . S
C85 H87 0.948 . S
H86 C84 0.952 . S
H87 C85 0.948 . S
H88 C77 0.952 . S
H89 C79 0.948 . S
C90 C56 1.395 . S
C90 C60 1.391 . S
C91 C53 1.389 . S
C91 C73 1.392 . S
C92 C63 1.392 . S
C92 C65 1.389 . S
C93 C68 1.395 . S
C93 C70 1.391 . S
H94 C54 0.951 . S
H95 C55 0.950 . S
H96 C61 0.949 . S
H97 C62 0.950 . S
H98 C66 0.951 . S
H99 C67 0.950 . S
H100 C71 0.949 . S
H101 C72 0.950 . S
H102 C76 0.950 . S
H103 C78 0.950 . S
H104 C81 0.950 . S
H105 C83 0.950 . S
C106 C107 1.443 . S
C106 N110 1.376 . S
C106 C144 1.389 . S
C107 C106 1.443 . S
C107 C108 1.340 . S
C107 H147 0.951 . S
C108 C107 1.340 . S
C108 C109 1.439 . S
C108 H148 0.950 . S
C109 C108 1.439 . S
C109 N110 1.374 . S
C109 C143 1.395 . S
N110 C106 1.376 . S
N110 C109 1.374 . S
N110 Co111 2.008 . S
Co111 N110 2.008 . S
Co111 N112 1.995 . S
Co111 N117 2.008 . S
Co111 N122 1.995 . S
Co111 N127 2.282 . S
Co111 N133 2.282 . S
N112 Co111 1.995 . S
N112 C113 1.376 . S
N112 C116 1.383 . S
C113 N112 1.376 . S
C113 C114 1.446 . S
C113 C143 1.391 . S
C114 C113 1.446 . S
C114 C115 1.339 . S
C114 H149 0.949 . S
C115 C114 1.339 . S
C115 C116 1.439 . S
C115 H150 0.950 . S
C116 N112 1.383 . S
C116 C115 1.439 . S
C116 C145 1.392 . S
N117 Co111 2.008 . S
N117 C118 1.376 . S
N117 C121 1.374 . S
C118 N117 1.376 . S
C118 C119 1.443 . S
C118 C145 1.389 . S
C119 C118 1.443 . S
C119 C120 1.340 . S
C119 H151 0.951 . S
C120 C119 1.340 . S
C120 C121 1.439 . S
C120 H152 0.950 . S
C121 N117 1.374 . S
C121 C120 1.439 . S
C121 C146 1.395 . S
N122 Co111 1.995 . S
N122 C123 1.376 . S
N122 C126 1.383 . S
C123 N122 1.376 . S
C123 C124 1.446 . S
C123 C146 1.391 . S
C124 C123 1.446 . S
C124 C125 1.339 . S
C124 H153 0.949 . S
C125 C124 1.339 . S
C125 C126 1.439 . S
C125 H154 0.950 . S
C126 N122 1.383 . S
C126 C125 1.439 . S
C126 C144 1.392 . S
N127 Co111 2.282 . S
N127 C130 1.332 . S
N127 C132 1.332 . S
C128 C129 1.386 . S
C128 C131 1.388 . S
C129 C128 1.386 . S
C129 C130 1.382 . S
C129 H155 0.950 . S
C130 N127 1.332 . S
C130 C129 1.382 . S
C130 H141 0.952 . S
C131 C128 1.388 . S
C131 C132 1.382 . S
C131 H156 0.950 . S
C132 N127 1.332 . S
C132 C131 1.382 . S
C132 H142 0.948 . S
N133 Co111 2.282 . S
N133 C137 1.332 . S
N133 C138 1.332 . S
C134 C135 1.388 . S
C134 C138 1.382 . S
C134 H157 0.950 . S
C135 C134 1.388 . S
C135 C136 1.386 . S
C136 C135 1.386 . S
C136 C137 1.382 . S
C136 H158 0.950 . S
C137 N133 1.332 . S
C137 C136 1.382 . S
C137 H139 0.952 . S
C138 N133 1.332 . S
C138 C134 1.382 . S
C138 H140 0.948 . S
H139 C137 0.952 . S
H140 C138 0.948 . S
H141 C130 0.952 . S
H142 C132 0.948 . S
C143 C109 1.395 . S
C143 C113 1.391 . S
C144 C106 1.389 . S
C144 C126 1.392 . S
C145 C116 1.392 . S
C145 C118 1.389 . S
C146 C121 1.395 . S
C146 C123 1.391 . S
H147 C107 0.951 . S
H148 C108 0.950 . S
H149 C114 0.949 . S
H150 C115 0.950 . S
H151 C119 0.951 . S
H152 C120 0.950 . S
H153 C124 0.949 . S
H154 C125 0.950 . S
H155 C129 0.950 . S
H156 C131 0.950 . S
H157 C134 0.950 . S
H158 C136 0.950 . S
C159 C160 1.443 . S
C159 N163 1.376 . S
C159 C197 1.389 . S
C160 C159 1.443 . S
C160 C161 1.340 . S
C160 H200 0.951 . S
C161 C160 1.340 . S
C161 C162 1.439 . S
C161 H201 0.950 . S
C162 C161 1.439 . S
C162 N163 1.374 . S
C162 C196 1.395 . S
N163 C159 1.376 . S
N163 C162 1.374 . S
N163 Co164 2.008 . S
Co164 N163 2.008 . S
Co164 N165 1.995 . S
Co164 N170 2.008 . S
Co164 N175 1.995 . S
Co164 N180 2.282 . S
Co164 N186 2.282 . S
N165 Co164 1.995 . S
N165 C166 1.376 . S
N165 C169 1.383 . S
C166 N165 1.376 . S
C166 C167 1.446 . S
C166 C196 1.391 . S
C167 C166 1.446 . S
C167 C168 1.339 . S
C167 H202 0.949 . S
C168 C167 1.339 . S
C168 C169 1.439 . S
C168 H203 0.950 . S
C169 N165 1.383 . S
C169 C168 1.439 . S
C169 C198 1.392 . S
N170 Co164 2.008 . S
N170 C171 1.376 . S
N170 C174 1.374 . S
C171 N170 1.376 . S
C171 C172 1.443 . S
C171 C198 1.389 . S
C172 C171 1.443 . S
C172 C173 1.340 . S
C172 H204 0.951 . S
C173 C172 1.340 . S
C173 C174 1.439 . S
C173 H205 0.950 . S
C174 N170 1.374 . S
C174 C173 1.439 . S
C174 C199 1.395 . S
N175 Co164 1.995 . S
N175 C176 1.376 . S
N175 C179 1.383 . S
C176 N175 1.376 . S
C176 C177 1.446 . S
C176 C199 1.391 . S
C177 C176 1.446 . S
C177 C178 1.339 . S
C177 H206 0.949 . S
C178 C177 1.339 . S
C178 C179 1.439 . S
C178 H207 0.950 . S
C179 N175 1.383 . S
C179 C178 1.439 . S
C179 C197 1.392 . S
N180 Co164 2.282 . S
N180 C183 1.332 . S
N180 C185 1.332 . S
C181 C182 1.386 . S
C181 C184 1.388 . S
C182 C181 1.386 . S
C182 C183 1.382 . S
C182 H208 0.950 . S
C183 N180 1.332 . S
C183 C182 1.382 . S
C183 H194 0.952 . S
C184 C181 1.388 . S
C184 C185 1.382 . S
C184 H209 0.950 1_455 S
C185 N180 1.332 . S
C185 C184 1.382 . S
C185 H195 0.948 . S
N186 Co164 2.282 . S
N186 C190 1.332 . S
N186 C191 1.332 . S
C187 C188 1.388 . S
C187 C191 1.382 . S
C187 H210 0.950 . S
C188 C187 1.388 . S
C188 C189 1.386 . S
C189 C188 1.386 . S
C189 C190 1.382 . S
C189 H211 0.950 . S
C190 N186 1.332 . S
C190 C189 1.382 . S
C190 H192 0.952 . S
C191 N186 1.332 . S
C191 C187 1.382 . S
C191 H193 0.948 . S
H192 C190 0.952 . S
H193 C191 0.948 . S
H194 C183 0.952 . S
H195 C185 0.948 . S
C196 C162 1.395 . S
C196 C166 1.391 . S
C197 C159 1.389 . S
C197 C179 1.392 . S
C198 C169 1.392 . S
C198 C171 1.389 . S
C199 C174 1.395 . S
C199 C176 1.391 . S
H200 C160 0.951 . S
H201 C161 0.950 . S
H202 C167 0.949 . S
H203 C168 0.950 . S
H204 C172 0.951 . S
H205 C173 0.950 . S
H206 C177 0.949 . S
H207 C178 0.950 . S
H208 C182 0.950 . S
H209 C184 0.950 1_655 S
H210 C187 0.950 . S
H211 C189 0.950 . S
C212 C213 1.443 . S
C212 N216 1.376 . S
C212 C250 1.389 . S
C213 C212 1.443 . S
C213 C214 1.340 . S
C213 H253 0.951 . S
C214 C213 1.340 . S
C214 C215 1.439 . S
C214 H254 0.950 . S
C215 C214 1.439 . S
C215 N216 1.374 . S
C215 C249 1.395 . S
N216 C212 1.376 . S
N216 C215 1.374 . S
N216 Co217 2.008 . S
Co217 N216 2.008 . S
Co217 N218 1.995 . S
Co217 N223 2.008 . S
Co217 N228 1.995 . S
Co217 N233 2.282 . S
Co217 N239 2.282 . S
N218 Co217 1.995 . S
N218 C219 1.376 . S
N218 C222 1.383 . S
C219 N218 1.376 . S
C219 C220 1.446 . S
C219 C249 1.391 . S
C220 C219 1.446 . S
C220 C221 1.339 . S
C220 H255 0.949 . S
C221 C220 1.339 . S
C221 C222 1.439 . S
C221 H256 0.950 . S
C222 N218 1.383 . S
C222 C221 1.439 . S
C222 C251 1.392 . S
N223 Co217 2.008 . S
N223 C224 1.376 . S
N223 C227 1.374 . S
C224 N223 1.376 . S
C224 C225 1.443 . S
C224 C251 1.389 . S
C225 C224 1.443 . S
C225 C226 1.340 . S
C225 H257 0.951 . S
C226 C225 1.340 . S
C226 C227 1.439 . S
C226 H258 0.950 . S
C227 N223 1.374 . S
C227 C226 1.439 . S
C227 C252 1.395 . S
N228 Co217 1.995 . S
N228 C229 1.376 . S
N228 C232 1.383 . S
C229 N228 1.376 . S
C229 C230 1.446 . S
C229 C252 1.391 . S
C230 C229 1.446 . S
C230 C231 1.339 . S
C230 H259 0.949 . S
C231 C230 1.339 . S
C231 C232 1.439 . S
C231 H260 0.950 . S
C232 N228 1.383 . S
C232 C231 1.439 . S
C232 C250 1.392 . S
N233 Co217 2.282 . S
N233 C236 1.332 . S
N233 C238 1.332 . S
C234 C235 1.386 . S
C234 C237 1.388 . S
C235 C234 1.386 . S
C235 C236 1.382 . S
C235 H261 0.950 . S
C236 N233 1.332 . S
C236 C235 1.382 . S
C236 H247 0.952 . S
C237 C234 1.388 . S
C237 C238 1.382 . S
C237 H262 0.950 . S
C238 N233 1.332 . S
C238 C237 1.382 . S
C238 H248 0.948 . S
N239 Co217 2.282 . S
N239 C243 1.332 . S
N239 C244 1.332 . S
C240 C241 1.388 . S
C240 C244 1.382 . S
C240 H263 0.950 . S
C241 C240 1.388 . S
C241 C242 1.386 . S
C242 C241 1.386 . S
C242 C243 1.382 . S
C242 H264 0.950 . S
C243 N239 1.332 . S
C243 C242 1.382 . S
C243 H245 0.952 . S
C244 N239 1.332 . S
C244 C240 1.382 . S
C244 H246 0.948 . S
H245 C243 0.952 . S
H246 C244 0.948 . S
H247 C236 0.952 . S
H248 C238 0.948 . S
C249 C215 1.395 . S
C249 C219 1.391 . S
C250 C212 1.389 . S
C250 C232 1.392 . S
C251 C222 1.392 . S
C251 C224 1.389 . S
C252 C227 1.395 . S
C252 C229 1.391 . S
H253 C213 0.951 . S
H254 C214 0.950 . S
H255 C220 0.949 . S
H256 C221 0.950 . S
H257 C225 0.951 . S
H258 C226 0.950 . S
H259 C230 0.949 . S
H260 C231 0.950 . S
H261 C235 0.950 . S
H262 C237 0.950 . S
H263 C240 0.950 . S
H264 C242 0.950 . S
C265 C266 1.443 . S
C265 N269 1.376 . S
C265 C303 1.389 . S
C266 C265 1.443 . S
C266 C267 1.340 . S
C266 H306 0.951 . S
C267 C266 1.340 . S
C267 C268 1.439 . S
C267 H307 0.950 . S
C268 C267 1.439 . S
C268 N269 1.374 . S
C268 C302 1.395 . S
N269 C265 1.376 . S
N269 C268 1.374 . S
N269 Co270 2.008 . S
Co270 N269 2.008 . S
Co270 N271 1.995 . S
Co270 N276 2.008 . S
Co270 N281 1.995 . S
Co270 N286 2.282 . S
Co270 N292 2.282 . S
N271 Co270 1.995 . S
N271 C272 1.376 . S
N271 C275 1.383 . S
C272 N271 1.376 . S
C272 C273 1.446 . S
C272 C302 1.391 . S
C273 C272 1.446 . S
C273 C274 1.339 . S
C273 H308 0.949 . S
C274 C273 1.339 . S
C274 C275 1.439 . S
C274 H309 0.950 . S
C275 N271 1.383 . S
C275 C274 1.439 . S
C275 C304 1.392 . S
N276 Co270 2.008 . S
N276 C277 1.376 . S
N276 C280 1.374 . S
C277 N276 1.376 . S
C277 C278 1.443 . S
C277 C304 1.389 . S
C278 C277 1.443 . S
C278 C279 1.340 . S
C278 H310 0.951 . S
C279 C278 1.340 . S
C279 C280 1.439 . S
C279 H311 0.950 . S
C280 N276 1.374 . S
C280 C279 1.439 . S
C280 C305 1.395 . S
N281 Co270 1.995 . S
N281 C282 1.376 . S
N281 C285 1.383 . S
C282 N281 1.376 . S
C282 C283 1.446 . S
C282 C305 1.391 . S
C283 C282 1.446 . S
C283 C284 1.339 . S
C283 H312 0.949 . S
C284 C283 1.339 . S
C284 C285 1.439 . S
C284 H313 0.950 . S
C285 N281 1.383 . S
C285 C284 1.439 . S
C285 C303 1.392 . S
N286 Co270 2.282 . S
N286 C289 1.332 . S
N286 C291 1.332 . S
C287 C288 1.386 . S
C287 C290 1.388 . S
C288 C287 1.386 . S
C288 C289 1.382 . S
C288 H314 0.950 . S
C289 N286 1.332 . S
C289 C288 1.382 . S
C289 H300 0.952 . S
C290 C287 1.388 . S
C290 C291 1.382 . S
C290 H315 0.950 1_455 S
C291 N286 1.332 . S
C291 C290 1.382 . S
C291 H301 0.948 . S
N292 Co270 2.282 . S
N292 C296 1.332 . S
N292 C297 1.332 . S
C293 C294 1.388 . S
C293 C297 1.382 . S
C293 H316 0.950 . S
C294 C293 1.388 . S
C294 C295 1.386 . S
C295 C294 1.386 . S
C295 C296 1.382 . S
C295 H317 0.950 . S
C296 N292 1.332 . S
C296 C295 1.382 . S
C296 H298 0.952 . S
C297 N292 1.332 . S
C297 C293 1.382 . S
C297 H299 0.948 . S
H298 C296 0.952 . S
H299 C297 0.948 . S
H300 C289 0.952 . S
H301 C291 0.948 . S
C302 C268 1.395 . S
C302 C272 1.391 . S
C303 C265 1.389 . S
C303 C285 1.392 . S
C304 C275 1.392 . S
C304 C277 1.389 . S
C305 C280 1.395 . S
C305 C282 1.391 . S
H306 C266 0.951 . S
H307 C267 0.950 . S
H308 C273 0.949 . S
H309 C274 0.950 . S
H310 C278 0.951 . S
H311 C279 0.950 . S
H312 C283 0.949 . S
H313 C284 0.950 . S
H314 C288 0.950 . S
H315 C290 0.950 1_655 S
H316 C293 0.950 . S
H317 C295 0.950 . S
C318 C319 1.443 . S
C318 N322 1.376 . S
C318 C356 1.389 . S
C319 C318 1.443 . S
C319 C320 1.340 . S
C319 H359 0.951 . S
C320 C319 1.340 . S
C320 C321 1.439 . S
C320 H360 0.950 . S
C321 C320 1.439 . S
C321 N322 1.374 . S
C321 C355 1.395 . S
N322 C318 1.376 . S
N322 C321 1.374 . S
N322 Co323 2.008 . S
Co323 N322 2.008 . S
Co323 N324 1.995 . S
Co323 N329 2.008 . S
Co323 N334 1.995 . S
Co323 N339 2.282 . S
Co323 N345 2.282 . S
N324 Co323 1.995 . S
N324 C325 1.376 . S
N324 C328 1.383 . S
C325 N324 1.376 . S
C325 C326 1.446 . S
C325 C355 1.391 . S
C326 C325 1.446 . S
C326 C327 1.339 . S
C326 H361 0.949 . S
C327 C326 1.339 . S
C327 C328 1.439 . S
C327 H362 0.950 . S
C328 N324 1.383 . S
C328 C327 1.439 . S
C328 C357 1.392 . S
N329 Co323 2.008 . S
N329 C330 1.376 . S
N329 C333 1.374 . S
C330 N329 1.376 . S
C330 C331 1.443 . S
C330 C357 1.389 . S
C331 C330 1.443 . S
C331 C332 1.340 . S
C331 H363 0.951 . S
C332 C331 1.340 . S
C332 C333 1.439 . S
C332 H364 0.950 . S
C333 N329 1.374 . S
C333 C332 1.439 . S
C333 C358 1.395 . S
N334 Co323 1.995 . S
N334 C335 1.376 . S
N334 C338 1.383 . S
C335 N334 1.376 . S
C335 C336 1.446 . S
C335 C358 1.391 . S
C336 C335 1.446 . S
C336 C337 1.339 . S
C336 H365 0.949 . S
C337 C336 1.339 . S
C337 C338 1.439 . S
C337 H366 0.950 . S
C338 N334 1.383 . S
C338 C337 1.439 . S
C338 C356 1.392 . S
N339 Co323 2.282 . S
N339 C342 1.332 . S
N339 C344 1.332 . S
C340 C341 1.386 . S
C340 C343 1.388 . S
C341 C340 1.386 . S
C341 C342 1.382 . S
C341 H367 0.950 . S
C342 N339 1.332 . S
C342 C341 1.382 . S
C342 H353 0.952 . S
C343 C340 1.388 . S
C343 C344 1.382 . S
C343 H368 0.950 1_545 S
C344 N339 1.332 . S
C344 C343 1.382 . S
C344 H354 0.948 . S
N345 Co323 2.282 . S
N345 C349 1.332 . S
N345 C350 1.332 . S
C346 C347 1.388 . S
C346 C350 1.382 . S
C346 H369 0.950 . S
C347 C346 1.388 . S
C347 C348 1.386 . S
C348 C347 1.386 . S
C348 C349 1.382 . S
C348 H370 0.950 . S
C349 N345 1.332 . S
C349 C348 1.382 . S
C349 H351 0.952 . S
C350 N345 1.332 . S
C350 C346 1.382 . S
C350 H352 0.948 . S
H351 C349 0.952 . S
H352 C350 0.948 . S
H353 C342 0.952 . S
H354 C344 0.948 . S
C355 C321 1.395 . S
C355 C325 1.391 . S
C356 C318 1.389 . S
C356 C338 1.392 . S
C357 C328 1.392 . S
C357 C330 1.389 . S
C358 C333 1.395 . S
C358 C335 1.391 . S
H359 C319 0.951 . S
H360 C320 0.950 . S
H361 C326 0.949 . S
H362 C327 0.950 . S
H363 C331 0.951 . S
H364 C332 0.950 . S
H365 C336 0.949 . S
H366 C337 0.950 . S
H367 C341 0.950 . S
H368 C343 0.950 1_565 S
H369 C346 0.950 . S
H370 C348 0.950 . S
C371 C372 1.443 . S
C371 N375 1.376 . S
C371 C409 1.389 . S
C372 C371 1.443 . S
C372 C373 1.340 . S
C372 H412 0.951 . S
C373 C372 1.340 . S
C373 C374 1.439 . S
C373 H413 0.950 . S
C374 C373 1.439 . S
C374 N375 1.374 . S
C374 C408 1.395 . S
N375 C371 1.376 . S
N375 C374 1.374 . S
N375 Co376 2.008 . S
Co376 N375 2.008 . S
Co376 N377 1.995 . S
Co376 N382 2.008 . S
Co376 N387 1.995 . S
Co376 N392 2.282 . S
Co376 N398 2.282 . S
N377 Co376 1.995 . S
N377 C378 1.376 . S
N377 C381 1.383 . S
C378 N377 1.376 . S
C378 C379 1.446 . S
C378 C408 1.391 . S
C379 C378 1.446 . S
C379 C380 1.339 . S
C379 H414 0.949 . S
C380 C379 1.339 . S
C380 C381 1.439 . S
C380 H415 0.950 . S
C381 N377 1.383 . S
C381 C380 1.439 . S
C381 C410 1.392 . S
N382 Co376 2.008 . S
N382 C383 1.376 . S
N382 C386 1.374 . S
C383 N382 1.376 . S
C383 C384 1.443 . S
C383 C410 1.389 . S
C384 C383 1.443 . S
C384 C385 1.340 . S
C384 H416 0.951 . S
C385 C384 1.340 . S
C385 C386 1.439 . S
C385 H417 0.950 . S
C386 N382 1.374 . S
C386 C385 1.439 . S
C386 C411 1.395 . S
N387 Co376 1.995 . S
N387 C388 1.376 . S
N387 C391 1.383 . S
C388 N387 1.376 . S
C388 C389 1.446 . S
C388 C411 1.391 . S
C389 C388 1.446 . S
C389 C390 1.339 . S
C389 H418 0.949 . S
C390 C389 1.339 . S
C390 C391 1.439 . S
C390 H419 0.950 . S
C391 N387 1.383 . S
C391 C390 1.439 . S
C391 C409 1.392 . S
N392 Co376 2.282 . S
N392 C395 1.332 . S
N392 C397 1.332 . S
C393 C394 1.386 . S
C393 C396 1.388 . S
C394 C393 1.386 . S
C394 C395 1.382 . S
C394 H420 0.950 . S
C395 N392 1.332 . S
C395 C394 1.382 . S
C395 H406 0.952 . S
C396 C393 1.388 . S
C396 C397 1.382 . S
C396 H421 0.950 . S
C397 N392 1.332 . S
C397 C396 1.382 . S
C397 H407 0.948 . S
N398 Co376 2.282 . S
N398 C402 1.332 . S
N398 C403 1.332 . S
C399 C400 1.388 . S
C399 C403 1.382 . S
C399 H422 0.950 . S
C400 C399 1.388 . S
C400 C401 1.386 . S
C401 C400 1.386 . S
C401 C402 1.382 . S
C401 H423 0.950 . S
C402 N398 1.332 . S
C402 C401 1.382 . S
C402 H404 0.952 . S
C403 N398 1.332 . S
C403 C399 1.382 . S
C403 H405 0.948 . S
H404 C402 0.952 . S
H405 C403 0.948 . S
H406 C395 0.952 . S
H407 C397 0.948 . S
C408 C374 1.395 . S
C408 C378 1.391 . S
C409 C371 1.389 . S
C409 C391 1.392 . S
C410 C381 1.392 . S
C410 C383 1.389 . S
C411 C386 1.395 . S
C411 C388 1.391 . S
H412 C372 0.951 . S
H413 C373 0.950 . S
H414 C379 0.949 . S
H415 C380 0.950 . S
H416 C384 0.951 . S
H417 C385 0.950 . S
H418 C389 0.949 . S
H419 C390 0.950 . S
H420 C394 0.950 . S
H421 C396 0.950 . S
H422 C399 0.950 . S
H423 C401 0.950 . S
C424 C425 1.443 . S
C424 N428 1.376 . S
C424 C462 1.389 . S
C425 C424 1.443 . S
C425 C426 1.340 . S
C425 H465 0.951 . S
C426 C425 1.340 . S
C426 C427 1.439 . S
C426 H466 0.950 . S
C427 C426 1.439 . S
C427 N428 1.374 . S
C427 C461 1.395 . S
N428 C424 1.376 . S
N428 C427 1.374 . S
N428 Co429 2.008 . S
Co429 N428 2.008 . S
Co429 N430 1.995 . S
Co429 N435 2.008 . S
Co429 N440 1.995 . S
Co429 N445 2.282 . S
Co429 N451 2.282 . S
N430 Co429 1.995 . S
N430 C431 1.376 . S
N430 C434 1.383 . S
C431 N430 1.376 . S
C431 C432 1.446 . S
C431 C461 1.391 . S
C432 C431 1.446 . S
C432 C433 1.339 . S
C432 H467 0.949 . S
C433 C432 1.339 . S
C433 C434 1.439 . S
C433 H468 0.950 . S
C434 N430 1.383 . S
C434 C433 1.439 . S
C434 C463 1.392 . S
N435 Co429 2.008 . S
N435 C436 1.376 . S
N435 C439 1.374 . S
C436 N435 1.376 . S
C436 C437 1.443 . S
C436 C463 1.389 . S
C437 C436 1.443 . S
C437 C438 1.340 . S
C437 H469 0.951 . S
C438 C437 1.340 . S
C438 C439 1.439 . S
C438 H470 0.950 . S
C439 N435 1.374 . S
C439 C438 1.439 . S
C439 C464 1.395 . S
N440 Co429 1.995 . S
N440 C441 1.376 . S
N440 C444 1.383 . S
C441 N440 1.376 . S
C441 C442 1.446 . S
C441 C464 1.391 . S
C442 C441 1.446 . S
C442 C443 1.339 . S
C442 H471 0.949 . S
C443 C442 1.339 . S
C443 C444 1.439 . S
C443 H472 0.950 . S
C444 N440 1.383 . S
C444 C443 1.439 . S
C444 C462 1.392 . S
N445 Co429 2.282 . S
N445 C448 1.332 . S
N445 C450 1.332 . S
C446 C447 1.386 . S
C446 C449 1.388 . S
C447 C446 1.386 . S
C447 C448 1.382 . S
C447 H473 0.950 1_565 S
C448 N445 1.332 . S
C448 C447 1.382 . S
C448 H459 0.952 . S
C449 C446 1.388 . S
C449 C450 1.382 . S
C449 H474 0.950 . S
C450 N445 1.332 . S
C450 C449 1.382 . S
C450 H460 0.948 . S
N451 Co429 2.282 . S
N451 C455 1.332 . S
N451 C456 1.332 . S
C452 C453 1.388 . S
C452 C456 1.382 . S
C452 H475 0.950 . S
C453 C452 1.388 . S
C453 C454 1.386 . S
C454 C453 1.386 . S
C454 C455 1.382 . S
C454 H476 0.950 . S
C455 N451 1.332 . S
C455 C454 1.382 . S
C455 H457 0.952 . S
C456 N451 1.332 . S
C456 C452 1.382 . S
C456 H458 0.948 . S
H457 C455 0.952 . S
H458 C456 0.948 . S
H459 C448 0.952 . S
H460 C450 0.948 . S
C461 C427 1.395 . S
C461 C431 1.391 . S
C462 C424 1.389 . S
C462 C444 1.392 . S
C463 C434 1.392 . S
C463 C436 1.389 . S
C464 C439 1.395 . S
C464 C441 1.391 . S
H465 C425 0.951 . S
H466 C426 0.950 . S
H467 C432 0.949 . S
H468 C433 0.950 . S
H469 C437 0.951 . S
H470 C438 0.950 . S
H471 C442 0.949 . S
H472 C443 0.950 . S
H473 C447 0.950 1_545 S
H474 C449 0.950 . S
H475 C452 0.950 . S
H476 C454 0.950 . S
C477 C478 1.443 . S
C477 N481 1.376 . S
C477 C515 1.389 . S
C478 C477 1.443 . S
C478 C479 1.340 . S
C478 H518 0.951 . S
C479 C478 1.340 . S
C479 C480 1.439 . S
C479 H519 0.950 . S
C480 C479 1.439 . S
C480 N481 1.374 . S
C480 C514 1.395 . S
N481 C477 1.376 . S
N481 C480 1.374 . S
N481 Co482 2.008 . S
Co482 N481 2.008 . S
Co482 N483 1.995 . S
Co482 N488 2.008 . S
Co482 N493 1.995 . S
Co482 N498 2.282 . S
Co482 N504 2.282 . S
N483 Co482 1.995 . S
N483 C484 1.376 . S
N483 C487 1.383 . S
C484 N483 1.376 . S
C484 C485 1.446 . S
C484 C514 1.391 . S
C485 C484 1.446 . S
C485 C486 1.339 . S
C485 H520 0.949 . S
C486 C485 1.339 . S
C486 C487 1.439 . S
C486 H521 0.950 . S
C487 N483 1.383 . S
C487 C486 1.439 . S
C487 C516 1.392 . S
N488 Co482 2.008 . S
N488 C489 1.376 . S
N488 C492 1.374 . S
C489 N488 1.376 . S
C489 C490 1.443 . S
C489 C516 1.389 . S
C490 C489 1.443 . S
C490 C491 1.340 . S
C490 H522 0.951 . S
C491 C490 1.340 . S
C491 C492 1.439 . S
C491 H523 0.950 . S
C492 N488 1.374 . S
C492 C491 1.439 . S
C492 C517 1.395 . S
N493 Co482 1.995 . S
N493 C494 1.376 . S
N493 C497 1.383 . S
C494 N493 1.376 . S
C494 C495 1.446 . S
C494 C517 1.391 . S
C495 C494 1.446 . S
C495 C496 1.339 . S
C495 H524 0.949 . S
C496 C495 1.339 . S
C496 C497 1.439 . S
C496 H525 0.950 . S
C497 N493 1.383 . S
C497 C496 1.439 . S
C497 C515 1.392 . S
N498 Co482 2.282 . S
N498 C501 1.332 . S
N498 C503 1.332 . S
C499 C500 1.386 . S
C499 C502 1.388 . S
C500 C499 1.386 . S
C500 C501 1.382 . S
C500 H526 0.950 . S
C501 N498 1.332 . S
C501 C500 1.382 . S
C501 H512 0.952 . S
C502 C499 1.388 . S
C502 C503 1.382 . S
C502 H527 0.950 . S
C503 N498 1.332 . S
C503 C502 1.382 . S
C503 H513 0.948 . S
N504 Co482 2.282 . S
N504 C508 1.332 . S
N504 C509 1.332 . S
C505 C506 1.388 . S
C505 C509 1.382 . S
C505 H528 0.950 . S
C506 C505 1.388 . S
C506 C507 1.386 . S
C507 C506 1.386 . S
C507 C508 1.382 . S
C507 H529 0.950 . S
C508 N504 1.332 . S
C508 C507 1.382 . S
C508 H510 0.952 . S
C509 N504 1.332 . S
C509 C505 1.382 . S
C509 H511 0.948 . S
H510 C508 0.952 . S
H511 C509 0.948 . S
H512 C501 0.952 . S
H513 C503 0.948 . S
C514 C480 1.395 . S
C514 C484 1.391 . S
C515 C477 1.389 . S
C515 C497 1.392 . S
C516 C487 1.392 . S
C516 C489 1.389 . S
C517 C492 1.395 . S
C517 C494 1.391 . S
H518 C478 0.951 . S
H519 C479 0.950 . S
H520 C485 0.949 . S
H521 C486 0.950 . S
H522 C490 0.951 . S
H523 C491 0.950 . S
H524 C495 0.949 . S
H525 C496 0.950 . S
H526 C500 0.950 . S
H527 C502 0.950 . S
H528 C505 0.950 . S
H529 C507 0.950 . S
C530 C531 1.443 . S
C530 N534 1.376 . S
C530 C568 1.389 . S
C531 C530 1.443 . S
C531 C532 1.340 . S
C531 H571 0.951 . S
C532 C531 1.340 . S
C532 C533 1.439 . S
C532 H572 0.950 . S
C533 C532 1.439 . S
C533 N534 1.374 . S
C533 C567 1.395 . S
N534 C530 1.376 . S
N534 C533 1.374 . S
N534 Co535 2.008 . S
Co535 N534 2.008 . S
Co535 N536 1.995 . S
Co535 N541 2.008 . S
Co535 N546 1.995 . S
Co535 N551 2.282 . S
Co535 N557 2.282 . S
N536 Co535 1.995 . S
N536 C537 1.376 . S
N536 C540 1.383 . S
C537 N536 1.376 . S
C537 C538 1.446 . S
C537 C567 1.391 . S
C538 C537 1.446 . S
C538 C539 1.339 . S
C538 H573 0.949 . S
C539 C538 1.339 . S
C539 C540 1.439 . S
C539 H574 0.950 . S
C540 N536 1.383 . S
C540 C539 1.439 . S
C540 C569 1.392 . S
N541 Co535 2.008 . S
N541 C542 1.376 . S
N541 C545 1.374 . S
C542 N541 1.376 . S
C542 C543 1.443 . S
C542 C569 1.389 . S
C543 C542 1.443 . S
C543 C544 1.340 . S
C543 H575 0.951 . S
C544 C543 1.340 . S
C544 C545 1.439 . S
C544 H576 0.950 . S
C545 N541 1.374 . S
C545 C544 1.439 . S
C545 C570 1.395 . S
N546 Co535 1.995 . S
N546 C547 1.376 . S
N546 C550 1.383 . S
C547 N546 1.376 . S
C547 C548 1.446 . S
C547 C570 1.391 . S
C548 C547 1.446 . S
C548 C549 1.339 . S
C548 H577 0.949 . S
C549 C548 1.339 . S
C549 C550 1.439 . S
C549 H578 0.950 . S
C550 N546 1.383 . S
C550 C549 1.439 . S
C550 C568 1.392 . S
N551 Co535 2.282 . S
N551 C554 1.332 . S
N551 C556 1.332 . S
C552 C553 1.386 . S
C552 C555 1.388 . S
C553 C552 1.386 . S
C553 C554 1.382 . S
C553 H579 0.950 . S
C554 N551 1.332 . S
C554 C553 1.382 . S
C554 H565 0.952 . S
C555 C552 1.388 . S
C555 C556 1.382 . S
C555 H580 0.950 . S
C556 N551 1.332 . S
C556 C555 1.382 . S
C556 H566 0.948 . S
N557 Co535 2.282 . S
N557 C561 1.332 . S
N557 C562 1.332 . S
C558 C559 1.388 . S
C558 C562 1.382 . S
C558 H581 0.950 . S
C559 C558 1.388 . S
C559 C560 1.386 . S
C560 C559 1.386 . S
C560 C561 1.382 . S
C560 H582 0.950 . S
C561 N557 1.332 . S
C561 C560 1.382 . S
C561 H563 0.952 . S
C562 N557 1.332 . S
C562 C558 1.382 . S
C562 H564 0.948 . S
H563 C561 0.952 . S
H564 C562 0.948 . S
H565 C554 0.952 . S
H566 C556 0.948 . S
C567 C533 1.395 . S
C567 C537 1.391 . S
C568 C530 1.389 . S
C568 C550 1.392 . S
C569 C540 1.392 . S
C569 C542 1.389 . S
C570 C545 1.395 . S
C570 C547 1.391 . S
H571 C531 0.951 . S
H572 C532 0.950 . S
H573 C538 0.949 . S
H574 C539 0.950 . S
H575 C543 0.951 . S
H576 C544 0.950 . S
H577 C548 0.949 . S
H578 C549 0.950 . S
H579 C553 0.950 . S
H580 C555 0.950 . S
H581 C558 0.950 . S
H582 C560 0.950 . S
C583 C584 1.443 . S
C583 N587 1.376 . S
C583 C621 1.389 . S
C584 C583 1.443 . S
C584 C585 1.340 . S
C584 H624 0.951 . S
C585 C584 1.340 . S
C585 C586 1.439 . S
C585 H625 0.950 . S
C586 C585 1.439 . S
C586 N587 1.374 . S
C586 C620 1.395 . S
N587 C583 1.376 . S
N587 C586 1.374 . S
N587 Co588 2.008 . S
Co588 N587 2.008 . S
Co588 N589 1.995 . S
Co588 N594 2.008 . S
Co588 N599 1.995 . S
Co588 N604 2.282 . S
Co588 N610 2.282 . S
N589 Co588 1.995 . S
N589 C590 1.376 . S
N589 C593 1.383 . S
C590 N589 1.376 . S
C590 C591 1.446 . S
C590 C620 1.391 . S
C591 C590 1.446 . S
C591 C592 1.339 . S
C591 H626 0.949 . S
C592 C591 1.339 . S
C592 C593 1.439 . S
C592 H627 0.950 . S
C593 N589 1.383 . S
C593 C592 1.439 . S
C593 C622 1.392 . S
N594 Co588 2.008 . S
N594 C595 1.376 . S
N594 C598 1.374 . S
C595 N594 1.376 . S
C595 C596 1.443 . S
C595 C622 1.389 . S
C596 C595 1.443 . S
C596 C597 1.340 . S
C596 H628 0.951 . S
C597 C596 1.340 . S
C597 C598 1.439 . S
C597 H629 0.950 . S
C598 N594 1.374 . S
C598 C597 1.439 . S
C598 C623 1.395 . S
N599 Co588 1.995 . S
N599 C600 1.376 . S
N599 C603 1.383 . S
C600 N599 1.376 . S
C600 C601 1.446 . S
C600 C623 1.391 . S
C601 C600 1.446 . S
C601 C602 1.339 . S
C601 H630 0.949 . S
C602 C601 1.339 . S
C602 C603 1.439 . S
C602 H631 0.950 . S
C603 N599 1.383 . S
C603 C602 1.439 . S
C603 C621 1.392 . S
N604 Co588 2.282 . S
N604 C607 1.332 . S
N604 C609 1.332 . S
C605 C606 1.386 . S
C605 C608 1.388 . S
C606 C605 1.386 . S
C606 C607 1.382 . S
C606 H632 0.950 1_655 S
C607 N604 1.332 . S
C607 C606 1.382 . S
C607 H618 0.952 . S
C608 C605 1.388 . S
C608 C609 1.382 . S
C608 H633 0.950 . S
C609 N604 1.332 . S
C609 C608 1.382 . S
C609 H619 0.948 . S
N610 Co588 2.282 . S
N610 C614 1.332 . S
N610 C615 1.332 . S
C611 C612 1.388 . S
C611 C615 1.382 . S
C611 H634 0.950 . S
C612 C611 1.388 . S
C612 C613 1.386 . S
C613 C612 1.386 . S
C613 C614 1.382 . S
C613 H635 0.950 . S
C614 N610 1.332 . S
C614 C613 1.382 . S
C614 H616 0.952 . S
C615 N610 1.332 . S
C615 C611 1.382 . S
C615 H617 0.948 . S
H616 C614 0.952 . S
H617 C615 0.948 . S
H618 C607 0.952 . S
H619 C609 0.948 . S
C620 C586 1.395 . S
C620 C590 1.391 . S
C621 C583 1.389 . S
C621 C603 1.392 . S
C622 C593 1.392 . S
C622 C595 1.389 . S
C623 C598 1.395 . S
C623 C600 1.391 . S
H624 C584 0.951 . S
H625 C585 0.950 . S
H626 C591 0.949 . S
H627 C592 0.950 . S
H628 C596 0.951 . S
H629 C597 0.950 . S
H630 C601 0.949 . S
H631 C602 0.950 . S
H632 C606 0.950 1_455 S
H633 C608 0.950 . S
H634 C611 0.950 . S
H635 C613 0.950 . S
C636 C637 1.443 . S
C636 N640 1.376 . S
C636 C674 1.389 . S
C637 C636 1.443 . S
C637 C638 1.340 . S
C637 H677 0.951 . S
C638 C637 1.340 . S
C638 C639 1.439 . S
C638 H678 0.950 . S
C639 C638 1.439 . S
C639 N640 1.374 . S
C639 C673 1.395 . S
N640 C636 1.376 . S
N640 C639 1.374 . S
N640 Co641 2.008 . S
Co641 N640 2.008 . S
Co641 N642 1.995 . S
Co641 N647 2.008 . S
Co641 N652 1.995 . S
Co641 N657 2.282 . S
Co641 N663 2.282 . S
N642 Co641 1.995 . S
N642 C643 1.376 . S
N642 C646 1.383 . S
C643 N642 1.376 . S
C643 C644 1.446 . S
C643 C673 1.391 . S
C644 C643 1.446 . S
C644 C645 1.339 . S
C644 H679 0.949 . S
C645 C644 1.339 . S
C645 C646 1.439 . S
C645 H680 0.950 . S
C646 N642 1.383 . S
C646 C645 1.439 . S
C646 C675 1.392 . S
N647 Co641 2.008 . S
N647 C648 1.376 . S
N647 C651 1.374 . S
C648 N647 1.376 . S
C648 C649 1.443 . S
C648 C675 1.389 . S
C649 C648 1.443 . S
C649 C650 1.340 . S
C649 H681 0.951 . S
C650 C649 1.340 . S
C650 C651 1.439 . S
C650 H682 0.950 . S
C651 N647 1.374 . S
C651 C650 1.439 . S
C651 C676 1.395 . S
N652 Co641 1.995 . S
N652 C653 1.376 . S
N652 C656 1.383 . S
C653 N652 1.376 . S
C653 C654 1.446 . S
C653 C676 1.391 . S
C654 C653 1.446 . S
C654 C655 1.339 . S
C654 H683 0.949 . S
C655 C654 1.339 . S
C655 C656 1.439 . S
C655 H684 0.950 . S
C656 N652 1.383 . S
C656 C655 1.439 . S
C656 C674 1.392 . S
N657 Co641 2.282 . S
N657 C660 1.332 . S
N657 C662 1.332 . S
C658 C659 1.386 . S
C658 C661 1.388 . S
C659 C658 1.386 . S
C659 C660 1.382 . S
C659 H685 0.950 . S
C660 N657 1.332 . S
C660 C659 1.382 . S
C660 H671 0.952 . S
C661 C658 1.388 . S
C661 C662 1.382 . S
C661 H686 0.950 . S
C662 N657 1.332 . S
C662 C661 1.382 . S
C662 H672 0.948 . S
N663 Co641 2.282 . S
N663 C667 1.332 . S
N663 C668 1.332 . S
C664 C665 1.388 . S
C664 C668 1.382 . S
C664 H687 0.950 . S
C665 C664 1.388 . S
C665 C666 1.386 . S
C666 C665 1.386 . S
C666 C667 1.382 . S
C666 H688 0.950 . S
C667 N663 1.332 . S
C667 C666 1.382 . S
C667 H669 0.952 . S
C668 N663 1.332 . S
C668 C664 1.382 . S
C668 H670 0.948 . S
H669 C667 0.952 . S
H670 C668 0.948 . S
H671 C660 0.952 . S
H672 C662 0.948 . S
C673 C639 1.395 . S
C673 C643 1.391 . S
C674 C636 1.389 . S
C674 C656 1.392 . S
C675 C646 1.392 . S
C675 C648 1.389 . S
C676 C651 1.395 . S
C676 C653 1.391 . S
H677 C637 0.951 . S
H678 C638 0.950 . S
H679 C644 0.949 . S
H680 C645 0.950 . S
H681 C649 0.951 . S
H682 C650 0.950 . S
H683 C654 0.949 . S
H684 C655 0.950 . S
H685 C659 0.950 . S
H686 C661 0.950 . S
H687 C664 0.950 . S
H688 C666 0.950 . S
C689 C690 1.443 . S
C689 N693 1.376 . S
C689 C727 1.389 . S
C690 C689 1.443 . S
C690 C691 1.340 . S
C690 H730 0.951 . S
C691 C690 1.340 . S
C691 C692 1.439 . S
C691 H731 0.950 . S
C692 C691 1.439 . S
C692 N693 1.374 . S
C692 C726 1.395 . S
N693 C689 1.376 . S
N693 C692 1.374 . S
N693 Co694 2.008 . S
Co694 N693 2.008 . S
Co694 N695 1.995 . S
Co694 N700 2.008 . S
Co694 N705 1.995 . S
Co694 N710 2.282 . S
Co694 N716 2.282 . S
N695 Co694 1.995 . S
N695 C696 1.376 . S
N695 C699 1.383 . S
C696 N695 1.376 . S
C696 C697 1.446 . S
C696 C726 1.391 . S
C697 C696 1.446 . S
C697 C698 1.339 . S
C697 H732 0.949 . S
C698 C697 1.339 . S
C698 C699 1.439 . S
C698 H733 0.950 . S
C699 N695 1.383 . S
C699 C698 1.439 . S
C699 C728 1.392 . S
N700 Co694 2.008 . S
N700 C701 1.376 . S
N700 C704 1.374 . S
C701 N700 1.376 . S
C701 C702 1.443 . S
C701 C728 1.389 . S
C702 C701 1.443 . S
C702 C703 1.340 . S
C702 H734 0.951 . S
C703 C702 1.340 . S
C703 C704 1.439 . S
C703 H735 0.950 . S
C704 N700 1.374 . S
C704 C703 1.439 . S
C704 C729 1.395 . S
N705 Co694 1.995 . S
N705 C706 1.376 . S
N705 C709 1.383 . S
C706 N705 1.376 . S
C706 C707 1.446 . S
C706 C729 1.391 . S
C707 C706 1.446 . S
C707 C708 1.339 . S
C707 H736 0.949 . S
C708 C707 1.339 . S
C708 C709 1.439 . S
C708 H737 0.950 . S
C709 N705 1.383 . S
C709 C708 1.439 . S
C709 C727 1.392 . S
N710 Co694 2.282 . S
N710 C713 1.332 . S
N710 C715 1.332 . S
C711 C712 1.386 . S
C711 C714 1.388 . S
C712 C711 1.386 . S
C712 C713 1.382 . S
C712 H738 0.950 1_655 S
C713 N710 1.332 . S
C713 C712 1.382 . S
C713 H724 0.952 . S
C714 C711 1.388 . S
C714 C715 1.382 . S
C714 H739 0.950 . S
C715 N710 1.332 . S
C715 C714 1.382 . S
C715 H725 0.948 . S
N716 Co694 2.282 . S
N716 C720 1.332 . S
N716 C721 1.332 . S
C717 C718 1.388 . S
C717 C721 1.382 . S
C717 H740 0.950 . S
C718 C717 1.388 . S
C718 C719 1.386 . S
C719 C718 1.386 . S
C719 C720 1.382 . S
C719 H741 0.950 . S
C720 N716 1.332 . S
C720 C719 1.382 . S
C720 H722 0.952 . S
C721 N716 1.332 . S
C721 C717 1.382 . S
C721 H723 0.948 . S
H722 C720 0.952 . S
H723 C721 0.948 . S
H724 C713 0.952 . S
H725 C715 0.948 . S
C726 C692 1.395 . S
C726 C696 1.391 . S
C727 C689 1.389 . S
C727 C709 1.392 . S
C728 C699 1.392 . S
C728 C701 1.389 . S
C729 C704 1.395 . S
C729 C706 1.391 . S
H730 C690 0.951 . S
H731 C691 0.950 . S
H732 C697 0.949 . S
H733 C698 0.950 . S
H734 C702 0.951 . S
H735 C703 0.950 . S
H736 C707 0.949 . S
H737 C708 0.950 . S
H738 C712 0.950 1_455 S
H739 C714 0.950 . S
H740 C717 0.950 . S
H741 C719 0.950 . S
C742 C743 1.443 . S
C742 N746 1.376 . S
C742 C780 1.389 . S
C743 C742 1.443 . S
C743 C744 1.340 . S
C743 H783 0.951 . S
C744 C743 1.340 . S
C744 C745 1.439 . S
C744 H784 0.950 . S
C745 C744 1.439 . S
C745 N746 1.374 . S
C745 C779 1.395 . S
N746 C742 1.376 . S
N746 C745 1.374 . S
N746 Co747 2.008 . S
Co747 N746 2.008 . S
Co747 N748 1.995 . S
Co747 N753 2.008 . S
Co747 N758 1.995 . S
Co747 N763 2.282 . S
Co747 N769 2.282 . S
N748 Co747 1.995 . S
N748 C749 1.376 . S
N748 C752 1.383 . S
C749 N748 1.376 . S
C749 C750 1.446 . S
C749 C779 1.391 . S
C750 C749 1.446 . S
C750 C751 1.339 . S
C750 H785 0.949 . S
C751 C750 1.339 . S
C751 C752 1.439 . S
C751 H786 0.950 . S
C752 N748 1.383 . S
C752 C751 1.439 . S
C752 C781 1.392 . S
N753 Co747 2.008 . S
N753 C754 1.376 . S
N753 C757 1.374 . S
C754 N753 1.376 . S
C754 C755 1.443 . S
C754 C781 1.389 . S
C755 C754 1.443 . S
C755 C756 1.340 . S
C755 H787 0.951 . S
C756 C755 1.340 . S
C756 C757 1.439 . S
C756 H788 0.950 . S
C757 N753 1.374 . S
C757 C756 1.439 . S
C757 C782 1.395 . S
N758 Co747 1.995 . S
N758 C759 1.376 . S
N758 C762 1.383 . S
C759 N758 1.376 . S
C759 C760 1.446 . S
C759 C782 1.391 . S
C760 C759 1.446 . S
C760 C761 1.339 . S
C760 H789 0.949 . S
C761 C760 1.339 . S
C761 C762 1.439 . S
C761 H790 0.950 . S
C762 N758 1.383 . S
C762 C761 1.439 . S
C762 C780 1.392 . S
N763 Co747 2.282 . S
N763 C766 1.332 . S
N763 C768 1.332 . S
C764 C765 1.386 . S
C764 C767 1.388 . S
C765 C764 1.386 . S
C765 C766 1.382 . S
C765 H791 0.950 1_565 S
C766 N763 1.332 . S
C766 C765 1.382 . S
C766 H777 0.952 . S
C767 C764 1.388 . S
C767 C768 1.382 . S
C767 H792 0.950 . S
C768 N763 1.332 . S
C768 C767 1.382 . S
C768 H778 0.948 . S
N769 Co747 2.282 . S
N769 C773 1.332 . S
N769 C774 1.332 . S
C770 C771 1.388 . S
C770 C774 1.382 . S
C770 H793 0.950 . S
C771 C770 1.388 . S
C771 C772 1.386 . S
C772 C771 1.386 . S
C772 C773 1.382 . S
C772 H794 0.950 . S
C773 N769 1.332 . S
C773 C772 1.382 . S
C773 H775 0.952 . S
C774 N769 1.332 . S
C774 C770 1.382 . S
C774 H776 0.948 . S
H775 C773 0.952 . S
H776 C774 0.948 . S
H777 C766 0.952 . S
H778 C768 0.948 . S
C779 C745 1.395 . S
C779 C749 1.391 . S
C780 C742 1.389 . S
C780 C762 1.392 . S
C781 C752 1.392 . S
C781 C754 1.389 . S
C782 C757 1.395 . S
C782 C759 1.391 . S
H783 C743 0.951 . S
H784 C744 0.950 . S
H785 C750 0.949 . S
H786 C751 0.950 . S
H787 C755 0.951 . S
H788 C756 0.950 . S
H789 C760 0.949 . S
H790 C761 0.950 . S
H791 C765 0.950 1_545 S
H792 C767 0.950 . S
H793 C770 0.950 . S
H794 C772 0.950 . S
C795 C796 1.443 . S
C795 N799 1.376 . S
C795 C833 1.389 . S
C796 C795 1.443 . S
C796 C797 1.340 . S
C796 H836 0.951 . S
C797 C796 1.340 . S
C797 C798 1.439 . S
C797 H837 0.950 . S
C798 C797 1.439 . S
C798 N799 1.374 . S
C798 C832 1.395 . S
N799 C795 1.376 . S
N799 C798 1.374 . S
N799 Co800 2.008 . S
Co800 N799 2.008 . S
Co800 N801 1.995 . S
Co800 N806 2.008 . S
Co800 N811 1.995 . S
Co800 N816 2.282 . S
Co800 N822 2.282 . S
N801 Co800 1.995 . S
N801 C802 1.376 . S
N801 C805 1.383 . S
C802 N801 1.376 . S
C802 C803 1.446 . S
C802 C832 1.391 . S
C803 C802 1.446 . S
C803 C804 1.339 . S
C803 H838 0.949 . S
C804 C803 1.339 . S
C804 C805 1.439 . S
C804 H839 0.950 . S
C805 N801 1.383 . S
C805 C804 1.439 . S
C805 C834 1.392 . S
N806 Co800 2.008 . S
N806 C807 1.376 . S
N806 C810 1.374 . S
C807 N806 1.376 . S
C807 C808 1.443 . S
C807 C834 1.389 . S
C808 C807 1.443 . S
C808 C809 1.340 . S
C808 H840 0.951 . S
C809 C808 1.340 . S
C809 C810 1.439 . S
C809 H841 0.950 . S
C810 N806 1.374 . S
C810 C809 1.439 . S
C810 C835 1.395 . S
N811 Co800 1.995 . S
N811 C812 1.376 . S
N811 C815 1.383 . S
C812 N811 1.376 . S
C812 C813 1.446 . S
C812 C835 1.391 . S
C813 C812 1.446 . S
C813 C814 1.339 . S
C813 H842 0.949 . S
C814 C813 1.339 . S
C814 C815 1.439 . S
C814 H843 0.950 . S
C815 N811 1.383 . S
C815 C814 1.439 . S
C815 C833 1.392 . S
N816 Co800 2.282 . S
N816 C819 1.332 . S
N816 C821 1.332 . S
C817 C818 1.386 . S
C817 C820 1.388 . S
C818 C817 1.386 . S
C818 C819 1.382 . S
C818 H844 0.950 . S
C819 N816 1.332 . S
C819 C818 1.382 . S
C819 H830 0.952 . S
C820 C817 1.388 . S
C820 C821 1.382 . S
C820 H845 0.950 . S
C821 N816 1.332 . S
C821 C820 1.382 . S
C821 H831 0.948 . S
N822 Co800 2.282 . S
N822 C826 1.332 . S
N822 C827 1.332 . S
C823 C824 1.388 . S
C823 C827 1.382 . S
C823 H846 0.950 . S
C824 C823 1.388 . S
C824 C825 1.386 . S
C825 C824 1.386 . S
C825 C826 1.382 . S
C825 H847 0.950 . S
C826 N822 1.332 . S
C826 C825 1.382 . S
C826 H828 0.952 . S
C827 N822 1.332 . S
C827 C823 1.382 . S
C827 H829 0.948 . S
H828 C826 0.952 . S
H829 C827 0.948 . S
H830 C819 0.952 . S
H831 C821 0.948 . S
C832 C798 1.395 . S
C832 C802 1.391 . S
C833 C795 1.389 . S
C833 C815 1.392 . S
C834 C805 1.392 . S
C834 C807 1.389 . S
C835 C810 1.395 . S
C835 C812 1.391 . S
H836 C796 0.951 . S
H837 C797 0.950 . S
H838 C803 0.949 . S
H839 C804 0.950 . S
H840 C808 0.951 . S
H841 C809 0.950 . S
H842 C813 0.949 . S
H843 C814 0.950 . S
H844 C818 0.950 . S
H845 C820 0.950 . S
H846 C823 0.950 . S
H847 C825 0.950 . S
C848 C849 1.363 . S
C848 C854 1.379 1_556 S
C848 N856 1.356 . S
C849 C848 1.363 . S
C849 C855 1.363 . S
C850 C851 1.363 . S
C850 C855 1.379 1_554 S
C850 N857 1.356 . S
C851 C850 1.363 . S
C851 C854 1.363 . S
N852 C854 1.356 . S
N852 H864 0.984 . S
N852 H865 0.985 . S
N853 C855 1.356 . S
N853 H858 0.984 . S
N853 H859 0.985 . S
C854 C848 1.379 1_554 S
C854 C851 1.363 . S
C854 N852 1.356 . S
C855 C849 1.363 . S
C855 C850 1.379 1_556 S
C855 N853 1.356 . S
N856 C848 1.356 . S
N856 H862 0.984 . S
N856 H863 0.984 . S
N857 C850 1.356 . S
N857 H860 0.984 . S
N857 H861 0.985 . S
H858 N853 0.984 . S
H859 N853 0.985 . S
H860 N857 0.984 . S
H861 N857 0.985 . S
H862 N856 0.984 . S
H863 N856 0.984 . S
H864 N852 0.984 . S
H865 N852 0.985 . S
C866 C867 1.363 . S
C866 C872 1.379 . S
C866 N874 1.356 . S
C867 C866 1.363 . S
C867 C873 1.363 . S
C868 C869 1.363 . S
C868 C873 1.379 . S
C868 N875 1.356 . S
C869 C868 1.363 . S
C869 C872 1.363 . S
N870 C872 1.356 . S
N870 H882 0.984 . S
N870 H883 0.985 . S
N871 C873 1.356 . S
N871 H876 0.984 . S
N871 H877 0.985 . S
C872 C866 1.379 . S
C872 C869 1.363 . S
C872 N870 1.356 . S
C873 C867 1.363 . S
C873 C868 1.379 . S
C873 N871 1.356 . S
N874 C866 1.356 . S
N874 H880 0.984 . S
N874 H881 0.984 . S
N875 C868 1.356 . S
N875 H878 0.984 . S
N875 H879 0.985 . S
H876 N871 0.984 . S
H877 N871 0.985 . S
H878 N875 0.984 . S
H879 N875 0.985 . S
H880 N874 0.984 . S
H881 N874 0.984 . S
H882 N870 0.984 . S
H883 N870 0.985 . S
C884 C885 1.363 . S
C884 C890 1.379 1_556 S
C884 N892 1.356 . S
C885 C884 1.363 . S
C885 C891 1.363 . S
C886 C887 1.363 . S
C886 C891 1.379 1_554 S
C886 N893 1.356 . S
C887 C886 1.363 . S
C887 C890 1.363 . S
N888 C890 1.356 . S
N888 H900 0.984 . S
N888 H901 0.985 . S
N889 C891 1.356 . S
N889 H894 0.984 . S
N889 H895 0.985 . S
C890 C884 1.379 1_554 S
C890 C887 1.363 . S
C890 N888 1.356 . S
C891 C885 1.363 . S
C891 C886 1.379 1_556 S
C891 N889 1.356 . S
N892 C884 1.356 . S
N892 H898 0.984 . S
N892 H899 0.984 . S
N893 C886 1.356 . S
N893 H896 0.984 . S
N893 H897 0.985 . S
H894 N889 0.984 . S
H895 N889 0.985 . S
H896 N893 0.984 . S
H897 N893 0.985 . S
H898 N892 0.984 . S
H899 N892 0.984 . S
H900 N888 0.984 . S
H901 N888 0.985 . S
C902 C903 1.363 . S
C902 C908 1.379 . S
C902 N910 1.356 . S
C903 C902 1.363 . S
C903 C909 1.363 . S
C904 C905 1.363 . S
C904 C909 1.379 . S
C904 N911 1.356 . S
C905 C904 1.363 . S
C905 C908 1.363 . S
N906 C908 1.356 . S
N906 H918 0.984 . S
N906 H919 0.985 . S
N907 C909 1.356 . S
N907 H912 0.984 . S
N907 H913 0.985 . S
C908 C902 1.379 . S
C908 C905 1.363 . S
C908 N906 1.356 . S
C909 C903 1.363 . S
C909 C904 1.379 . S
C909 N907 1.356 . S
N910 C902 1.356 . S
N910 H916 0.984 . S
N910 H917 0.984 . S
N911 C904 1.356 . S
N911 H914 0.984 . S
N911 H915 0.985 . S
H912 N907 0.984 . S
H913 N907 0.985 . S
H914 N911 0.984 . S
H915 N911 0.985 . S
H916 N910 0.984 . S
H917 N910 0.984 . S
H918 N906 0.984 . S
H919 N906 0.985 . S
C920 C921 1.363 . S
C920 C926 1.379 1_554 S
C920 N928 1.356 . S
C921 C920 1.363 . S
C921 C927 1.363 . S
C922 C923 1.363 . S
C922 C927 1.379 1_556 S
C922 N929 1.356 . S
C923 C922 1.363 . S
C923 C926 1.363 . S
N924 C926 1.356 . S
N924 H936 0.984 . S
N924 H937 0.985 . S
N925 C927 1.356 . S
N925 H930 0.984 . S
N925 H931 0.985 . S
C926 C920 1.379 1_556 S
C926 C923 1.363 . S
C926 N924 1.356 . S
C927 C921 1.363 . S
C927 C922 1.379 1_554 S
C927 N925 1.356 . S
N928 C920 1.356 . S
N928 H934 0.984 . S
N928 H935 0.984 . S
N929 C922 1.356 . S
N929 H932 0.984 . S
N929 H933 0.985 . S
H930 N925 0.984 . S
H931 N925 0.985 . S
H932 N929 0.984 . S
H933 N929 0.985 . S
H934 N928 0.984 . S
H935 N928 0.984 . S
H936 N924 0.984 . S
H937 N924 0.985 . S
C938 C939 1.363 . S
C938 C944 1.379 . S
C938 N946 1.356 . S
C939 C938 1.363 . S
C939 C945 1.363 . S
C940 C941 1.363 . S
C940 C945 1.379 . S
C940 N947 1.356 . S
C941 C940 1.363 . S
C941 C944 1.363 . S
N942 C944 1.356 . S
N942 H954 0.984 . S
N942 H955 0.985 . S
N943 C945 1.356 . S
N943 H948 0.984 . S
N943 H949 0.985 . S
C944 C938 1.379 . S
C944 C941 1.363 . S
C944 N942 1.356 . S
C945 C939 1.363 . S
C945 C940 1.379 . S
C945 N943 1.356 . S
N946 C938 1.356 . S
N946 H952 0.984 . S
N946 H953 0.984 . S
N947 C940 1.356 . S
N947 H950 0.984 . S
N947 H951 0.985 . S
H948 N943 0.984 . S
H949 N943 0.985 . S
H950 N947 0.984 . S
H951 N947 0.985 . S
H952 N946 0.984 . S
H953 N946 0.984 . S
H954 N942 0.984 . S
H955 N942 0.985 . S
C956 C957 1.363 . S
C956 C962 1.379 1_556 S
C956 N964 1.356 . S
C957 C956 1.363 . S
C957 C963 1.363 . S
C958 C959 1.363 . S
C958 C963 1.379 1_554 S
C958 N965 1.356 . S
C959 C958 1.363 . S
C959 C962 1.363 . S
N960 C962 1.356 . S
N960 H972 0.984 . S
N960 H973 0.985 . S
N961 C963 1.356 . S
N961 H966 0.984 . S
N961 H967 0.985 . S
C962 C956 1.379 1_554 S
C962 C959 1.363 . S
C962 N960 1.356 . S
C963 C957 1.363 . S
C963 C958 1.379 1_556 S
C963 N961 1.356 . S
N964 C956 1.356 . S
N964 H970 0.984 . S
N964 H971 0.984 . S
N965 C958 1.356 . S
N965 H968 0.984 . S
N965 H969 0.985 . S
H966 N961 0.984 . S
H967 N961 0.985 . S
H968 N965 0.984 . S
H969 N965 0.985 . S
H970 N964 0.984 . S
H971 N964 0.984 . S
H972 N960 0.984 . S
H973 N960 0.985 . S
C974 C975 1.363 . S
C974 C980 1.379 . S
C974 N982 1.356 . S
C975 C974 1.363 . S
C975 C981 1.363 . S
C976 C977 1.363 . S
C976 C981 1.379 . S
C976 N983 1.356 . S
C977 C976 1.363 . S
C977 C980 1.363 . S
N978 C980 1.356 . S
N978 H990 0.984 . S
N978 H991 0.985 . S
N979 C981 1.356 . S
N979 H984 0.984 . S
N979 H985 0.985 . S
C980 C974 1.379 . S
C980 C977 1.363 . S
C980 N978 1.356 . S
C981 C975 1.363 . S
C981 C976 1.379 . S
C981 N979 1.356 . S
N982 C974 1.356 . S
N982 H988 0.984 . S
N982 H989 0.984 . S
N983 C976 1.356 . S
N983 H986 0.984 . S
N983 H987 0.985 . S
H984 N979 0.984 . S
H985 N979 0.985 . S
H986 N983 0.984 . S
H987 N983 0.985 . S
H988 N982 0.984 . S
H989 N982 0.984 . S
H990 N978 0.984 . S
H991 N978 0.985 . S
C992 C993 1.363 . S
C992 C998 1.379 . S
C992 N1000 1.356 . S
C993 C992 1.363 . S
C993 C999 1.363 . S
C994 C995 1.363 . S
C994 C999 1.379 . S
C994 N1001 1.356 . S
C995 C994 1.363 . S
C995 C998 1.363 . S
N996 C998 1.356 . S
N996 H1008 0.984 . S
N996 H1009 0.985 . S
N997 C999 1.356 . S
N997 H1002 0.984 . S
N997 H1003 0.985 . S
C998 C992 1.379 . S
C998 C995 1.363 . S
C998 N996 1.356 . S
C999 C993 1.363 . S
C999 C994 1.379 . S
C999 N997 1.356 . S
N1000 C992 1.356 . S
N1000 H1006 0.984 . S
N1000 H1007 0.984 . S
N1001 C994 1.356 . S
N1001 H1004 0.984 . S
N1001 H1005 0.985 . S
H1002 N997 0.984 . S
H1003 N997 0.985 . S
H1004 N1001 0.984 . S
H1005 N1001 0.985 . S
H1006 N1000 0.984 . S
H1007 N1000 0.984 . S
H1008 N996 0.984 . S
H1009 N996 0.985 . S
C1010 C1011 1.363 . S
C1010 C1016 1.379 . S
C1010 N1018 1.356 . S
C1011 C1010 1.363 . S
C1011 C1017 1.363 . S
C1012 C1013 1.363 . S
C1012 C1017 1.379 . S
C1012 N1019 1.356 . S
C1013 C1012 1.363 . S
C1013 C1016 1.363 . S
N1014 C1016 1.356 . S
N1014 H1026 0.984 . S
N1014 H1027 0.985 . S
N1015 C1017 1.356 . S
N1015 H1020 0.984 . S
N1015 H1021 0.985 . S
C1016 C1010 1.379 . S
C1016 C1013 1.363 . S
C1016 N1014 1.356 . S
C1017 C1011 1.363 . S
C1017 C1012 1.379 . S
C1017 N1015 1.356 . S
N1018 C1010 1.356 . S
N1018 H1024 0.984 . S
N1018 H1025 0.984 . S
N1019 C1012 1.356 . S
N1019 H1022 0.984 . S
N1019 H1023 0.985 . S
H1020 N1015 0.984 . S
H1021 N1015 0.985 . S
H1022 N1019 0.984 . S
H1023 N1019 0.985 . S
H1024 N1018 0.984 . S
H1025 N1018 0.984 . S
H1026 N1014 0.984 . S
H1027 N1014 0.985 . S
C1028 C1029 1.363 . S
C1028 C1034 1.379 . S
C1028 N1036 1.356 . S
C1029 C1028 1.363 . S
C1029 C1035 1.363 . S
C1030 C1031 1.363 . S
C1030 C1035 1.379 . S
C1030 N1037 1.356 . S
C1031 C1030 1.363 . S
C1031 C1034 1.363 . S
N1032 C1034 1.356 . S
N1032 H1044 0.984 . S
N1032 H1045 0.985 . S
N1033 C1035 1.356 . S
N1033 H1038 0.984 . S
N1033 H1039 0.985 . S
C1034 C1028 1.379 . S
C1034 C1031 1.363 . S
C1034 N1032 1.356 . S
C1035 C1029 1.363 . S
C1035 C1030 1.379 . S
C1035 N1033 1.356 . S
N1036 C1028 1.356 . S
N1036 H1042 0.984 . S
N1036 H1043 0.984 . S
N1037 C1030 1.356 . S
N1037 H1040 0.984 . S
N1037 H1041 0.985 . S
H1038 N1033 0.984 . S
H1039 N1033 0.985 . S
H1040 N1037 0.984 . S
H1041 N1037 0.985 . S
H1042 N1036 0.984 . S
H1043 N1036 0.984 . S
H1044 N1032 0.984 . S
H1045 N1032 0.985 . S
C1046 C1047 1.363 . S
C1046 C1052 1.379 . S
C1046 N1054 1.356 . S
C1047 C1046 1.363 . S
C1047 C1053 1.363 . S
C1048 C1049 1.363 . S
C1048 C1053 1.379 . S
C1048 N1055 1.356 . S
C1049 C1048 1.363 . S
C1049 C1052 1.363 . S
N1050 C1052 1.356 . S
N1050 H1062 0.984 . S
N1050 H1063 0.985 . S
N1051 C1053 1.356 . S
N1051 H1056 0.984 . S
N1051 H1057 0.985 . S
C1052 C1046 1.379 . S
C1052 C1049 1.363 . S
C1052 N1050 1.356 . S
C1053 C1047 1.363 . S
C1053 C1048 1.379 . S
C1053 N1051 1.356 . S
N1054 C1046 1.356 . S
N1054 H1060 0.984 . S
N1054 H1061 0.984 . S
N1055 C1048 1.356 . S
N1055 H1058 0.984 . S
N1055 H1059 0.985 . S
H1056 N1051 0.984 . S
H1057 N1051 0.985 . S
H1058 N1055 0.984 . S
H1059 N1055 0.985 . S
H1060 N1054 0.984 . S
H1061 N1054 0.984 . S
H1062 N1050 0.984 . S
H1063 N1050 0.985 . S
C1064 C1065 1.363 . S
C1064 C1070 1.379 . S
C1064 N1072 1.356 . S
C1065 C1064 1.363 . S
C1065 C1071 1.363 . S
C1066 C1067 1.363 . S
C1066 C1071 1.379 . S
C1066 N1073 1.356 . S
C1067 C1066 1.363 . S
C1067 C1070 1.363 . S
N1068 C1070 1.356 . S
N1068 H1080 0.984 . S
N1068 H1081 0.985 . S
N1069 C1071 1.356 . S
N1069 H1074 0.984 . S
N1069 H1075 0.985 . S
C1070 C1064 1.379 . S
C1070 C1067 1.363 . S
C1070 N1068 1.356 . S
C1071 C1065 1.363 . S
C1071 C1066 1.379 . S
C1071 N1069 1.356 . S
N1072 C1064 1.356 . S
N1072 H1078 0.984 . S
N1072 H1079 0.984 . S
N1073 C1066 1.356 . S
N1073 H1076 0.984 . S
N1073 H1077 0.985 . S
H1074 N1069 0.984 . S
H1075 N1069 0.985 . S
H1076 N1073 0.984 . S
H1077 N1073 0.985 . S
H1078 N1072 0.984 . S
H1079 N1072 0.984 . S
H1080 N1068 0.984 . S
H1081 N1068 0.985 . S
C1082 C1083 1.363 . S
C1082 C1088 1.379 . S
C1082 N1090 1.356 . S
C1083 C1082 1.363 . S
C1083 C1089 1.363 . S
C1084 C1085 1.363 . S
C1084 C1089 1.379 . S
C1084 N1091 1.356 . S
C1085 C1084 1.363 . S
C1085 C1088 1.363 . S
N1086 C1088 1.356 . S
N1086 H1098 0.984 . S
N1086 H1099 0.985 . S
N1087 C1089 1.356 . S
N1087 H1092 0.984 . S
N1087 H1093 0.985 . S
C1088 C1082 1.379 . S
C1088 C1085 1.363 . S
C1088 N1086 1.356 . S
C1089 C1083 1.363 . S
C1089 C1084 1.379 . S
C1089 N1087 1.356 . S
N1090 C1082 1.356 . S
N1090 H1096 0.984 . S
N1090 H1097 0.984 . S
N1091 C1084 1.356 . S
N1091 H1094 0.984 . S
N1091 H1095 0.985 . S
H1092 N1087 0.984 . S
H1093 N1087 0.985 . S
H1094 N1091 0.984 . S
H1095 N1091 0.985 . S
H1096 N1090 0.984 . S
H1097 N1090 0.984 . S
H1098 N1086 0.984 . S
H1099 N1086 0.985 . S
C1100 C1101 1.363 . S
C1100 C1106 1.379 . S
C1100 N1108 1.356 . S
C1101 C1100 1.363 . S
C1101 C1107 1.363 . S
C1102 C1103 1.363 . S
C1102 C1107 1.379 . S
C1102 N1109 1.356 . S
C1103 C1102 1.363 . S
C1103 C1106 1.363 . S
N1104 C1106 1.356 . S
N1104 H1116 0.984 . S
N1104 H1117 0.985 . S
N1105 C1107 1.356 . S
N1105 H1110 0.984 . S
N1105 H1111 0.985 . S
C1106 C1100 1.379 . S
C1106 C1103 1.363 . S
C1106 N1104 1.356 . S
C1107 C1101 1.363 . S
C1107 C1102 1.379 . S
C1107 N1105 1.356 . S
N1108 C1100 1.356 . S
N1108 H1114 0.984 . S
N1108 H1115 0.984 . S
N1109 C1102 1.356 . S
N1109 H1112 0.984 . S
N1109 H1113 0.985 . S
H1110 N1105 0.984 . S
H1111 N1105 0.985 . S
H1112 N1109 0.984 . S
H1113 N1109 0.985 . S
H1114 N1108 0.984 . S
H1115 N1108 0.984 . S
H1116 N1104 0.984 . S
H1117 N1104 0.985 . S
C1118 C1119 1.363 . S
C1118 C1124 1.379 . S
C1118 N1126 1.356 . S
C1119 C1118 1.363 . S
C1119 C1125 1.363 . S
C1120 C1121 1.363 . S
C1120 C1125 1.379 . S
C1120 N1127 1.356 . S
C1121 C1120 1.363 . S
C1121 C1124 1.363 . S
N1122 C1124 1.356 . S
N1122 H1134 0.984 . S
N1122 H1135 0.985 . S
N1123 C1125 1.356 . S
N1123 H1128 0.984 . S
N1123 H1129 0.985 . S
C1124 C1118 1.379 . S
C1124 C1121 1.363 . S
C1124 N1122 1.356 . S
C1125 C1119 1.363 . S
C1125 C1120 1.379 . S
C1125 N1123 1.356 . S
N1126 C1118 1.356 . S
N1126 H1132 0.984 . S
N1126 H1133 0.984 . S
N1127 C1120 1.356 . S
N1127 H1130 0.984 . S
N1127 H1131 0.985 . S
H1128 N1123 0.984 . S
H1129 N1123 0.985 . S
H1130 N1127 0.984 . S
H1131 N1127 0.985 . S
H1132 N1126 0.984 . S
H1133 N1126 0.984 . S
H1134 N1122 0.984 . S
H1135 N1122 0.985 . S
C1136 C1137 1.363 . S
C1136 C1142 1.379 . S
C1136 N1144 1.356 . S
C1137 C1136 1.363 . S
C1137 C1143 1.363 . S
C1138 C1139 1.363 . S
C1138 C1143 1.379 . S
C1138 N1145 1.356 . S
C1139 C1138 1.363 . S
C1139 C1142 1.363 . S
N1140 C1142 1.356 . S
N1140 H1152 0.984 . S
N1140 H1153 0.985 . S
N1141 C1143 1.356 . S
N1141 H1146 0.984 . S
N1141 H1147 0.985 . S
C1142 C1136 1.379 . S
C1142 C1139 1.363 . S
C1142 N1140 1.356 . S
C1143 C1137 1.363 . S
C1143 C1138 1.379 . S
C1143 N1141 1.356 . S
N1144 C1136 1.356 . S
N1144 H1150 0.984 . S
N1144 H1151 0.984 . S
N1145 C1138 1.356 . S
N1145 H1148 0.984 . S
N1145 H1149 0.985 . S
H1146 N1141 0.984 . S
H1147 N1141 0.985 . S
H1148 N1145 0.984 . S
H1149 N1145 0.985 . S
H1150 N1144 0.984 . S
H1151 N1144 0.984 . S
H1152 N1140 0.984 . S
H1153 N1140 0.985 . S
C1154 C1155 1.363 . S
C1154 C1160 1.379 . S
C1154 N1162 1.356 . S
C1155 C1154 1.363 . S
C1155 C1161 1.363 . S
C1156 C1157 1.363 . S
C1156 C1161 1.379 . S
C1156 N1163 1.356 . S
C1157 C1156 1.363 . S
C1157 C1160 1.363 . S
N1158 C1160 1.356 . S
N1158 H1170 0.984 . S
N1158 H1171 0.985 . S
N1159 C1161 1.356 . S
N1159 H1164 0.984 . S
N1159 H1165 0.985 . S
C1160 C1154 1.379 . S
C1160 C1157 1.363 . S
C1160 N1158 1.356 . S
C1161 C1155 1.363 . S
C1161 C1156 1.379 . S
C1161 N1159 1.356 . S
N1162 C1154 1.356 . S
N1162 H1168 0.984 . S
N1162 H1169 0.984 . S
N1163 C1156 1.356 . S
N1163 H1166 0.984 . S
N1163 H1167 0.985 . S
H1164 N1159 0.984 . S
H1165 N1159 0.985 . S
H1166 N1163 0.984 . S
H1167 N1163 0.985 . S
H1168 N1162 0.984 . S
H1169 N1162 0.984 . S
H1170 N1158 0.984 . S
H1171 N1158 0.985 . S
C1172 C1173 1.363 . S
C1172 C1178 1.379 . S
C1172 N1180 1.356 . S
C1173 C1172 1.363 . S
C1173 C1179 1.363 . S
C1174 C1175 1.363 . S
C1174 C1179 1.379 . S
C1174 N1181 1.356 . S
C1175 C1174 1.363 . S
C1175 C1178 1.363 . S
N1176 C1178 1.356 . S
N1176 H1188 0.984 . S
N1176 H1189 0.985 . S
N1177 C1179 1.356 . S
N1177 H1182 0.984 . S
N1177 H1183 0.985 . S
C1178 C1172 1.379 . S
C1178 C1175 1.363 . S
C1178 N1176 1.356 . S
C1179 C1173 1.363 . S
C1179 C1174 1.379 . S
C1179 N1177 1.356 . S
N1180 C1172 1.356 . S
N1180 H1186 0.984 . S
N1180 H1187 0.984 . S
N1181 C1174 1.356 . S
N1181 H1184 0.984 . S
N1181 H1185 0.985 . S
H1182 N1177 0.984 . S
H1183 N1177 0.985 . S
H1184 N1181 0.984 . S
H1185 N1181 0.985 . S
H1186 N1180 0.984 . S
H1187 N1180 0.984 . S
H1188 N1176 0.984 . S
H1189 N1176 0.985 . S
C1190 C1191 1.363 . S
C1190 C1196 1.379 . S
C1190 N1198 1.356 . S
C1191 C1190 1.363 . S
C1191 C1197 1.363 . S
C1192 C1193 1.363 . S
C1192 C1197 1.379 . S
C1192 N1199 1.356 . S
C1193 C1192 1.363 . S
C1193 C1196 1.363 . S
N1194 C1196 1.356 . S
N1194 H1206 0.984 . S
N1194 H1207 0.985 . S
N1195 C1197 1.356 . S
N1195 H1200 0.984 . S
N1195 H1201 0.985 . S
C1196 C1190 1.379 . S
C1196 C1193 1.363 . S
C1196 N1194 1.356 . S
C1197 C1191 1.363 . S
C1197 C1192 1.379 . S
C1197 N1195 1.356 . S
N1198 C1190 1.356 . S
N1198 H1204 0.984 . S
N1198 H1205 0.984 . S
N1199 C1192 1.356 . S
N1199 H1202 0.984 . S
N1199 H1203 0.985 . S
H1200 N1195 0.984 . S
H1201 N1195 0.985 . S
H1202 N1199 0.984 . S
H1203 N1199 0.985 . S
H1204 N1198 0.984 . S
H1205 N1198 0.984 . S
H1206 N1194 0.984 . S
H1207 N1194 0.985 . S
C1208 C1209 1.363 . S
C1208 C1214 1.379 . S
C1208 N1216 1.356 . S
C1209 C1208 1.363 . S
C1209 C1215 1.363 . S
C1210 C1211 1.363 . S
C1210 C1215 1.379 . S
C1210 N1217 1.356 . S
C1211 C1210 1.363 . S
C1211 C1214 1.363 . S
N1212 C1214 1.356 . S
N1212 H1224 0.984 . S
N1212 H1225 0.985 . S
N1213 C1215 1.356 . S
N1213 H1218 0.984 . S
N1213 H1219 0.985 . S
C1214 C1208 1.379 . S
C1214 C1211 1.363 . S
C1214 N1212 1.356 . S
C1215 C1209 1.363 . S
C1215 C1210 1.379 . S
C1215 N1213 1.356 . S
N1216 C1208 1.356 . S
N1216 H1222 0.984 . S
N1216 H1223 0.984 . S
N1217 C1210 1.356 . S
N1217 H1220 0.984 . S
N1217 H1221 0.985 . S
H1218 N1213 0.984 . S
H1219 N1213 0.985 . S
H1220 N1217 0.984 . S
H1221 N1217 0.985 . S
H1222 N1216 0.984 . S
H1223 N1216 0.984 . S
H1224 N1212 0.984 . S
H1225 N1212 0.985 . S
C1226 C1227 1.363 . S
C1226 C1232 1.379 . S
C1226 N1234 1.356 . S
C1227 C1226 1.363 . S
C1227 C1233 1.363 . S
C1228 C1229 1.363 . S
C1228 C1233 1.379 . S
C1228 N1235 1.356 . S
C1229 C1228 1.363 . S
C1229 C1232 1.363 . S
N1230 C1232 1.356 . S
N1230 H1242 0.984 . S
N1230 H1243 0.985 . S
N1231 C1233 1.356 . S
N1231 H1236 0.984 . S
N1231 H1237 0.985 . S
C1232 C1226 1.379 . S
C1232 C1229 1.363 . S
C1232 N1230 1.356 . S
C1233 C1227 1.363 . S
C1233 C1228 1.379 . S
C1233 N1231 1.356 . S
N1234 C1226 1.356 . S
N1234 H1240 0.984 . S
N1234 H1241 0.984 . S
N1235 C1228 1.356 . S
N1235 H1238 0.984 . S
N1235 H1239 0.985 . S
H1236 N1231 0.984 . S
H1237 N1231 0.985 . S
H1238 N1235 0.984 . S
H1239 N1235 0.985 . S
H1240 N1234 0.984 . S
H1241 N1234 0.984 . S
H1242 N1230 0.984 . S
H1243 N1230 0.985 . S
C1244 C1245 1.363 . S
C1244 C1250 1.379 . S
C1244 N1252 1.356 . S
C1245 C1244 1.363 . S
C1245 C1251 1.363 . S
C1246 C1247 1.363 . S
C1246 C1251 1.379 . S
C1246 N1253 1.356 . S
C1247 C1246 1.363 . S
C1247 C1250 1.363 . S
N1248 C1250 1.356 . S
N1248 H1260 0.984 . S
N1248 H1261 0.985 . S
N1249 C1251 1.356 . S
N1249 H1254 0.984 . S
N1249 H1255 0.985 . S
C1250 C1244 1.379 . S
C1250 C1247 1.363 . S
C1250 N1248 1.356 . S
C1251 C1245 1.363 . S
C1251 C1246 1.379 . S
C1251 N1249 1.356 . S
N1252 C1244 1.356 . S
N1252 H1258 0.984 . S
N1252 H1259 0.984 . S
N1253 C1246 1.356 . S
N1253 H1256 0.984 . S
N1253 H1257 0.985 . S
H1254 N1249 0.984 . S
H1255 N1249 0.985 . S
H1256 N1253 0.984 . S
H1257 N1253 0.985 . S
H1258 N1252 0.984 . S
H1259 N1252 0.984 . S
H1260 N1248 0.984 . S
H1261 N1248 0.985 . S
C1262 C1263 1.363 . S
C1262 C1268 1.379 . S
C1262 N1270 1.356 . S
C1263 C1262 1.363 . S
C1263 C1269 1.363 . S
C1264 C1265 1.363 . S
C1264 C1269 1.379 . S
C1264 N1271 1.356 . S
C1265 C1264 1.363 . S
C1265 C1268 1.363 . S
N1266 C1268 1.356 . S
N1266 H1278 0.984 . S
N1266 H1279 0.985 . S
N1267 C1269 1.356 . S
N1267 H1272 0.984 . S
N1267 H1273 0.985 . S
C1268 C1262 1.379 . S
C1268 C1265 1.363 . S
C1268 N1266 1.356 . S
C1269 C1263 1.363 . S
C1269 C1264 1.379 . S
C1269 N1267 1.356 . S
N1270 C1262 1.356 . S
N1270 H1276 0.984 . S
N1270 H1277 0.984 . S
N1271 C1264 1.356 . S
N1271 H1274 0.984 . S
N1271 H1275 0.985 . S
H1272 N1267 0.984 . S
H1273 N1267 0.985 . S
H1274 N1271 0.984 . S
H1275 N1271 0.985 . S
H1276 N1270 0.984 . S
H1277 N1270 0.984 . S
H1278 N1266 0.984 . S
H1279 N1266 0.985 . S
C1280 C1281 1.363 . S
C1280 C1286 1.379 . S
C1280 N1288 1.356 1_565 S
C1281 C1280 1.363 . S
C1281 C1287 1.363 . S
C1282 C1283 1.363 . S
C1282 C1287 1.379 . S
C1282 N1289 1.356 . S
C1283 C1282 1.363 . S
C1283 C1286 1.363 . S
N1284 C1286 1.356 . S
N1284 H1296 0.984 . S
N1284 H1297 0.985 . S
N1285 C1287 1.356 . S
N1285 H1290 0.984 . S
N1285 H1291 0.985 . S
C1286 C1280 1.379 . S
C1286 C1283 1.363 . S
C1286 N1284 1.356 . S
C1287 C1281 1.363 . S
C1287 C1282 1.379 . S
C1287 N1285 1.356 . S
N1288 C1280 1.356 1_545 S
N1288 H1294 0.984 . S
N1288 H1295 0.984 . S
N1289 C1282 1.356 . S
N1289 H1292 0.984 . S
N1289 H1293 0.985 . S
H1290 N1285 0.984 . S
H1291 N1285 0.985 . S
H1292 N1289 0.984 . S
H1293 N1289 0.985 . S
H1294 N1288 0.984 . S
H1295 N1288 0.984 . S
H1296 N1284 0.984 . S
H1297 N1284 0.985 . S
C1298 C1299 1.363 . S
C1298 C1304 1.379 . S
C1298 N1306 1.356 . S
C1299 C1298 1.363 . S
C1299 C1305 1.363 . S
C1300 C1301 1.363 . S
C1300 C1305 1.379 . S
C1300 N1307 1.356 . S
C1301 C1300 1.363 . S
C1301 C1304 1.363 . S
N1302 C1304 1.356 . S
N1302 H1314 0.984 . S
N1302 H1315 0.985 . S
N1303 C1305 1.356 . S
N1303 H1308 0.984 . S
N1303 H1309 0.985 . S
C1304 C1298 1.379 . S
C1304 C1301 1.363 . S
C1304 N1302 1.356 . S
C1305 C1299 1.363 . S
C1305 C1300 1.379 . S
C1305 N1303 1.356 . S
N1306 C1298 1.356 . S
N1306 H1312 0.984 . S
N1306 H1313 0.984 . S
N1307 C1300 1.356 . S
N1307 H1310 0.984 . S
N1307 H1311 0.985 . S
H1308 N1303 0.984 . S
H1309 N1303 0.985 . S
H1310 N1307 0.984 . S
H1311 N1307 0.985 . S
H1312 N1306 0.984 . S
H1313 N1306 0.984 . S
H1314 N1302 0.984 . S
H1315 N1302 0.985 . S
C1316 C1317 1.363 . S
C1316 C1322 1.379 . S
C1316 N1324 1.356 . S
C1317 C1316 1.363 . S
C1317 C1323 1.363 . S
C1318 C1319 1.363 . S
C1318 C1323 1.379 . S
C1318 N1325 1.356 1_455 S
C1319 C1318 1.363 . S
C1319 C1322 1.363 . S
N1320 C1322 1.356 . S
N1320 H1332 0.984 . S
N1320 H1333 0.985 . S
N1321 C1323 1.356 . S
N1321 H1326 0.984 . S
N1321 H1327 0.985 . S
C1322 C1316 1.379 . S
C1322 C1319 1.363 . S
C1322 N1320 1.356 . S
C1323 C1317 1.363 . S
C1323 C1318 1.379 . S
C1323 N1321 1.356 . S
N1324 C1316 1.356 . S
N1324 H1330 0.984 . S
N1324 H1331 0.984 . S
N1325 C1318 1.356 1_655 S
N1325 H1328 0.984 . S
N1325 H1329 0.985 . S
H1326 N1321 0.984 . S
H1327 N1321 0.985 . S
H1328 N1325 0.984 . S
H1329 N1325 0.985 . S
H1330 N1324 0.984 . S
H1331 N1324 0.984 . S
H1332 N1320 0.984 . S
H1333 N1320 0.985 . S
C1334 C1335 1.363 . S
C1334 C1340 1.379 . S
C1334 N1342 1.356 1_545 S
C1335 C1334 1.363 . S
C1335 C1341 1.363 . S
C1336 C1337 1.363 . S
C1336 C1341 1.379 . S
C1336 N1343 1.356 . S
C1337 C1336 1.363 . S
C1337 C1340 1.363 . S
N1338 C1340 1.356 1_455 S
N1338 H1350 0.984 . S
N1338 H1351 0.985 . S
N1339 C1341 1.356 . S
N1339 H1344 0.984 . S
N1339 H1345 0.985 . S
C1340 C1334 1.379 . S
C1340 C1337 1.363 . S
C1340 N1338 1.356 1_655 S
C1341 C1335 1.363 . S
C1341 C1336 1.379 . S
C1341 N1339 1.356 . S
N1342 C1334 1.356 1_565 S
N1342 H1348 0.984 . S
N1342 H1349 0.984 . S
N1343 C1336 1.356 . S
N1343 H1346 0.984 . S
N1343 H1347 0.985 . S
H1344 N1339 0.984 . S
H1345 N1339 0.985 . S
H1346 N1343 0.984 . S
H1347 N1343 0.985 . S
H1348 N1342 0.984 . S
H1349 N1342 0.984 . S
H1350 N1338 0.984 . S
H1351 N1338 0.985 . S
C1352 C1353 1.363 . S
C1352 C1358 1.379 . S
C1352 N1360 1.356 . S
C1353 C1352 1.363 . S
C1353 C1359 1.363 . S
C1354 C1355 1.363 . S
C1354 C1359 1.379 . S
C1354 N1361 1.356 . S
C1355 C1354 1.363 . S
C1355 C1358 1.363 . S
N1356 C1358 1.356 . S
N1356 H1368 0.984 . S
N1356 H1369 0.985 . S
N1357 C1359 1.356 . S
N1357 H1362 0.984 . S
N1357 H1363 0.985 . S
C1358 C1352 1.379 . S
C1358 C1355 1.363 . S
C1358 N1356 1.356 . S
C1359 C1353 1.363 . S
C1359 C1354 1.379 . S
C1359 N1357 1.356 . S
N1360 C1352 1.356 . S
N1360 H1366 0.984 . S
N1360 H1367 0.984 . S
N1361 C1354 1.356 . S
N1361 H1364 0.984 . S
N1361 H1365 0.985 . S
H1362 N1357 0.984 . S
H1363 N1357 0.985 . S
H1364 N1361 0.984 . S
H1365 N1361 0.985 . S
H1366 N1360 0.984 . S
H1367 N1360 0.984 . S
H1368 N1356 0.984 . S
H1369 N1356 0.985 . S
C1370 C1371 1.363 . S
C1370 C1376 1.379 . S
C1370 N1378 1.356 . S
C1371 C1370 1.363 . S
C1371 C1377 1.363 . S
C1372 C1373 1.363 . S
C1372 C1377 1.379 . S
C1372 N1379 1.356 . S
C1373 C1372 1.363 . S
C1373 C1376 1.363 . S
N1374 C1376 1.356 . S
N1374 H1386 0.984 . S
N1374 H1387 0.985 . S
N1375 C1377 1.356 1_455 S
N1375 H1380 0.984 . S
N1375 H1381 0.985 . S
C1376 C1370 1.379 . S
C1376 C1373 1.363 . S
C1376 N1374 1.356 . S
C1377 C1371 1.363 . S
C1377 C1372 1.379 . S
C1377 N1375 1.356 1_655 S
N1378 C1370 1.356 . S
N1378 H1384 0.984 . S
N1378 H1385 0.984 . S
N1379 C1372 1.356 . S
N1379 H1382 0.984 . S
N1379 H1383 0.985 . S
H1380 N1375 0.984 . S
H1381 N1375 0.985 . S
H1382 N1379 0.984 . S
H1383 N1379 0.985 . S
H1384 N1378 0.984 . S
H1385 N1378 0.984 . S
H1386 N1374 0.984 . S
H1387 N1374 0.985 . S
C1388 C1389 1.363 . S
C1388 C1394 1.379 . S
C1388 N1396 1.356 . S
C1389 C1388 1.363 . S
C1389 C1395 1.363 . S
C1390 C1391 1.363 . S
C1390 C1395 1.379 . S
C1390 N1397 1.356 1_565 S
C1391 C1390 1.363 . S
C1391 C1394 1.363 . S
N1392 C1394 1.356 . S
N1392 H1404 0.984 . S
N1392 H1405 0.985 . S
N1393 C1395 1.356 1_655 S
N1393 H1398 0.984 . S
N1393 H1399 0.985 . S
C1394 C1388 1.379 . S
C1394 C1391 1.363 . S
C1394 N1392 1.356 . S
C1395 C1389 1.363 . S
C1395 C1390 1.379 . S
C1395 N1393 1.356 1_455 S
N1396 C1388 1.356 . S
N1396 H1402 0.984 . S
N1396 H1403 0.984 . S
N1397 C1390 1.356 1_545 S
N1397 H1400 0.984 . S
N1397 H1401 0.985 . S
H1398 N1393 0.984 . S
H1399 N1393 0.985 . S
H1400 N1397 0.984 . S
H1401 N1397 0.985 . S
H1402 N1396 0.984 . S
H1403 N1396 0.984 . S
H1404 N1392 0.984 . S
H1405 N1392 0.985 . S
C1406 C1407 1.363 . S
C1406 C1412 1.379 . S
C1406 N1414 1.356 . S
C1407 C1406 1.363 . S
C1407 C1413 1.363 . S
C1408 C1409 1.363 . S
C1408 C1413 1.379 . S
C1408 N1415 1.356 . S
C1409 C1408 1.363 . S
C1409 C1412 1.363 . S
N1410 C1412 1.356 . S
N1410 H1422 0.984 . S
N1410 H1423 0.985 . S
N1411 C1413 1.356 1_565 S
N1411 H1416 0.984 . S
N1411 H1417 0.985 . S
C1412 C1406 1.379 . S
C1412 C1409 1.363 . S
C1412 N1410 1.356 . S
C1413 C1407 1.363 . S
C1413 C1408 1.379 . S
C1413 N1411 1.356 1_545 S
N1414 C1406 1.356 . S
N1414 H1420 0.984 . S
N1414 H1421 0.984 . S
N1415 C1408 1.356 . S
N1415 H1418 0.984 . S
N1415 H1419 0.985 . S
H1416 N1411 0.984 . S
H1417 N1411 0.985 . S
H1418 N1415 0.984 . S
H1419 N1415 0.985 . S
H1420 N1414 0.984 . S
H1421 N1414 0.984 . S
H1422 N1410 0.984 . S
H1423 N1410 0.985 . S
C849 C410 1.802 . S
C851 C39 1.802 . S
C867 C251 1.802 . S
C869 C92 1.802 . S
C885 C304 1.802 . S
C887 C145 1.802 . S
C903 C198 1.802 . S
C905 C357 1.802 . S
C921 C834 1.796 . S
C923 C463 1.796 . S
C939 C675 1.796 . S
C941 C516 1.796 . S
C957 C569 1.796 . S
C959 C728 1.796 . S
C975 C622 1.796 . S
C977 C781 1.796 . S
C993 C135 1.513 . S
C995 C29 1.513 . S
C1011 C82 1.513 . S
C1013 C188 1.513 . S
C1029 C241 1.513 . S
C1031 C347 1.513 . S
C1047 C400 1.513 . S
C1049 C294 1.513 . S
C1065 C453 1.519 . S
C1067 C559 1.519 . S
C1083 C506 1.519 . S
C1085 C612 1.519 . S
C1101 C771 1.519 . S
C1103 C665 1.519 . S
C1119 C718 1.519 . S
C1121 C824 1.519 . S
C1137 C356 1.851 . S
C1139 C38 1.851 . S
C1155 C91 1.851 . S
C1157 C409 1.851 . S
C1173 C144 1.851 . S
C1175 C250 1.851 . S
C1191 C197 1.851 . S
C1193 C303 1.851 . S
C1209 C462 1.860 . S
C1211 C780 1.860 . S
C1227 C515 1.860 . S
C1229 C833 1.860 . S
C1245 C568 1.860 . S
C1247 C674 1.860 . S
C1263 C621 1.860 . S
C1265 C727 1.860 . S
C1281 C22 1.528 1_565 S
C1283 C817 1.526 . S
C1299 C658 1.526 . S
C1301 C75 1.528 . S
C1317 C128 1.528 . S
C1319 C711 1.526 1_455 S
C1335 C764 1.526 1_545 S
C1337 C181 1.528 1_655 S
C1353 C499 1.526 . S
C1355 C234 1.528 . S
C1371 C287 1.528 1_655 S
C1373 C552 1.526 . S
C1389 C605 1.526 1_455 S
C1391 C340 1.528 1_565 S
C1407 C446 1.526 1_545 S
C1409 C393 1.528 . S
