# Generated by pormake.
# Topology lcy-a-x, (5)-cn, num edge types: 1
# Building blocks:
#     Node 0, Type 0, BuildingBlock: XOMCOT_clean_sbu_1, # of connection points: 5
#     Node 1, Type 0, BuildingBlock: XOMCOT_clean_sbu_1, # of connection points: 5
#     Node 2, Type 0, BuildingBlock: XOMCOT_clean_sbu_1, # of connection points: 5
#     Node 3, Type 0, BuildingBlock: XOMCOT_clean_sbu_1, # of connection points: 5
#     Node 4, Type 0, BuildingBlock: XOMCOT_clean_sbu_1, # of connection points: 5
#     Node 5, Type 0, BuildingBlock: XOMCOT_clean_sbu_1, # of connection points: 5
#     Node 6, Type 0, BuildingBlock: XOMCOT_clean_sbu_1, # of connection points: 5
#     Node 7, Type 0, BuildingBlock: XOMCOT_clean_sbu_1, # of connection points: 5
#     Node 8, Type 0, BuildingBlock: XOMCOT_clean_sbu_1, # of connection points: 5
#     Node 9, Type 0, BuildingBlock: XOMCOT_clean_sbu_1, # of connection points: 5
#     Node 10, Type 0, BuildingBlock: XOMCOT_clean_sbu_1, # of connection points: 5
#     Node 11, Type 0, BuildingBlock: XOMCOT_clean_sbu_1, # of connection points: 5
#     Node 12, Type 0, BuildingBlock: XOMCOT_clean_sbu_1, # of connection points: 5
#     Node 13, Type 0, BuildingBlock: XOMCOT_clean_sbu_1, # of connection points: 5
#     Node 14, Type 0, BuildingBlock: XOMCOT_clean_sbu_1, # of connection points: 5
#     Node 15, Type 0, BuildingBlock: XOMCOT_clean_sbu_1, # of connection points: 5
#     Node 16, Type 0, BuildingBlock: XOMCOT_clean_sbu_1, # of connection points: 5
#     Node 17, Type 0, BuildingBlock: XOMCOT_clean_sbu_1, # of connection points: 5
#     Node 18, Type 0, BuildingBlock: XOMCOT_clean_sbu_1, # of connection points: 5
#     Node 19, Type 0, BuildingBlock: XOMCOT_clean_sbu_1, # of connection points: 5
#     Node 20, Type 0, BuildingBlock: XOMCOT_clean_sbu_1, # of connection points: 5
#     Node 21, Type 0, BuildingBlock: XOMCOT_clean_sbu_1, # of connection points: 5
#     Node 22, Type 0, BuildingBlock: XOMCOT_clean_sbu_1, # of connection points: 5
#     Node 23, Type 0, BuildingBlock: XOMCOT_clean_sbu_1, # of connection points: 5
#     Edge 24, Type (0, 0), BuildingBlock: AJUNOK_clean_linker_0, # of connection points: 2
#     Edge 25, Type (0, 0), BuildingBlock: AJUNOK_clean_linker_0, # of connection points: 2
#     Edge 26, Type (0, 0), BuildingBlock: AJUNOK_clean_linker_0, # of connection points: 2
#     Edge 27, Type (0, 0), BuildingBlock: AJUNOK_clean_linker_0, # of connection points: 2
#     Edge 28, Type (0, 0), BuildingBlock: AJUNOK_clean_linker_0, # of connection points: 2
#     Edge 29, Type (0, 0), BuildingBlock: AJUNOK_clean_linker_0, # of connection points: 2
#     Edge 30, Type (0, 0), BuildingBlock: AJUNOK_clean_linker_0, # of connection points: 2
#     Edge 31, Type (0, 0), BuildingBlock: AJUNOK_clean_linker_0, # of connection points: 2
#     Edge 32, Type (0, 0), BuildingBlock: AJUNOK_clean_linker_0, # of connection points: 2
#     Edge 33, Type (0, 0), BuildingBlock: AJUNOK_clean_linker_0, # of connection points: 2
#     Edge 34, Type (0, 0), BuildingBlock: AJUNOK_clean_linker_0, # of connection points: 2
#     Edge 35, Type (0, 0), BuildingBlock: AJUNOK_clean_linker_0, # of connection points: 2
#     Edge 36, Type (0, 0), BuildingBlock: AJUNOK_clean_linker_0, # of connection points: 2
#     Edge 37, Type (0, 0), BuildingBlock: AJUNOK_clean_linker_0, # of connection points: 2
#     Edge 38, Type (0, 0), BuildingBlock: AJUNOK_clean_linker_0, # of connection points: 2
#     Edge 39, Type (0, 0), BuildingBlock: AJUNOK_clean_linker_0, # of connection points: 2
#     Edge 40, Type (0, 0), BuildingBlock: AJUNOK_clean_linker_0, # of connection points: 2
#     Edge 41, Type (0, 0), BuildingBlock: AJUNOK_clean_linker_0, # of connection points: 2
#     Edge 42, Type (0, 0), BuildingBlock: AJUNOK_clean_linker_0, # of connection points: 2
#     Edge 43, Type (0, 0), BuildingBlock: AJUNOK_clean_linker_0, # of connection points: 2
#     Edge 44, Type (0, 0), BuildingBlock: AJUNOK_clean_linker_0, # of connection points: 2
#     Edge 45, Type (0, 0), BuildingBlock: AJUNOK_clean_linker_0, # of connection points: 2
#     Edge 46, Type (0, 0), BuildingBlock: AJUNOK_clean_linker_0, # of connection points: 2
#     Edge 47, Type (0, 0), BuildingBlock: AJUNOK_clean_linker_0, # of connection points: 2
#     Edge 48, Type (0, 0), BuildingBlock: AJUNOK_clean_linker_0, # of connection points: 2
#     Edge 49, Type (0, 0), BuildingBlock: AJUNOK_clean_linker_0, # of connection points: 2
#     Edge 50, Type (0, 0), BuildingBlock: AJUNOK_clean_linker_0, # of connection points: 2
#     Edge 51, Type (0, 0), BuildingBlock: AJUNOK_clean_linker_0, # of connection points: 2
#     Edge 52, Type (0, 0), BuildingBlock: AJUNOK_clean_linker_0, # of connection points: 2
#     Edge 53, Type (0, 0), BuildingBlock: AJUNOK_clean_linker_0, # of connection points: 2
#     Edge 54, Type (0, 0), BuildingBlock: AJUNOK_clean_linker_0, # of connection points: 2
#     Edge 55, Type (0, 0), BuildingBlock: AJUNOK_clean_linker_0, # of connection points: 2
#     Edge 56, Type (0, 0), BuildingBlock: AJUNOK_clean_linker_0, # of connection points: 2
#     Edge 57, Type (0, 0), BuildingBlock: AJUNOK_clean_linker_0, # of connection points: 2
#     Edge 58, Type (0, 0), BuildingBlock: AJUNOK_clean_linker_0, # of connection points: 2
#     Edge 59, Type (0, 0), BuildingBlock: AJUNOK_clean_linker_0, # of connection points: 2
#     Edge 60, Type (0, 0), BuildingBlock: AJUNOK_clean_linker_0, # of connection points: 2
#     Edge 61, Type (0, 0), BuildingBlock: AJUNOK_clean_linker_0, # of connection points: 2
#     Edge 62, Type (0, 0), BuildingBlock: AJUNOK_clean_linker_0, # of connection points: 2
#     Edge 63, Type (0, 0), BuildingBlock: AJUNOK_clean_linker_0, # of connection points: 2
#     Edge 64, Type (0, 0), BuildingBlock: AJUNOK_clean_linker_0, # of connection points: 2
#     Edge 65, Type (0, 0), BuildingBlock: AJUNOK_clean_linker_0, # of connection points: 2
#     Edge 66, Type (0, 0), BuildingBlock: AJUNOK_clean_linker_0, # of connection points: 2
#     Edge 67, Type (0, 0), BuildingBlock: AJUNOK_clean_linker_0, # of connection points: 2
#     Edge 68, Type (0, 0), BuildingBlock: AJUNOK_clean_linker_0, # of connection points: 2
#     Edge 69, Type (0, 0), BuildingBlock: AJUNOK_clean_linker_0, # of connection points: 2
#     Edge 70, Type (0, 0), BuildingBlock: AJUNOK_clean_linker_0, # of connection points: 2
#     Edge 71, Type (0, 0), BuildingBlock: AJUNOK_clean_linker_0, # of connection points: 2
#     Edge 72, Type (0, 0), BuildingBlock: AJUNOK_clean_linker_0, # of connection points: 2
#     Edge 73, Type (0, 0), BuildingBlock: AJUNOK_clean_linker_0, # of connection points: 2
#     Edge 74, Type (0, 0), BuildingBlock: AJUNOK_clean_linker_0, # of connection points: 2
#     Edge 75, Type (0, 0), BuildingBlock: AJUNOK_clean_linker_0, # of connection points: 2
#     Edge 76, Type (0, 0), BuildingBlock: AJUNOK_clean_linker_0, # of connection points: 2
#     Edge 77, Type (0, 0), BuildingBlock: AJUNOK_clean_linker_0, # of connection points: 2
#     Edge 78, Type (0, 0), BuildingBlock: AJUNOK_clean_linker_0, # of connection points: 2
#     Edge 79, Type (0, 0), BuildingBlock: AJUNOK_clean_linker_0, # of connection points: 2
#     Edge 80, Type (0, 0), BuildingBlock: AJUNOK_clean_linker_0, # of connection points: 2
#     Edge 81, Type (0, 0), BuildingBlock: AJUNOK_clean_linker_0, # of connection points: 2
#     Edge 82, Type (0, 0), BuildingBlock: AJUNOK_clean_linker_0, # of connection points: 2
#     Edge 83, Type (0, 0), BuildingBlock: AJUNOK_clean_linker_0, # of connection points: 2
# Relax obj value: 0.894
# Max RMSD: 0.228
# Mean RMSD: 0.228
data_MOF--net-lcy-a-x--node1-XOMCOT_clean_sbu_1--edge1-AJUNOK_clean_linker_0
_symmetry_space_group_name_H-M    P1
_symmetry_Int_Tables_number       1
_symmetry_cell_setting            triclinic
loop_
_symmetry_equiv_pos_as_xyz
'x, y, z'
_cell_length_a     45.23281
_cell_length_b     45.304466
_cell_length_c     45.295192
_cell_angle_alpha  89.77632
_cell_angle_beta   90.063884
_cell_angle_gamma 90.086879
loop_
_atom_site_label
_atom_site_type_symbol
_atom_site_fract_x
_atom_site_fract_y
_atom_site_fract_z
_atom_type_partial_charge
C0 C 0.98713 0.03086 0.79915 0.0
C1 C 0.95994 0.0246 0.81172 0.0
N2 N 0.93911 0.02682 0.79051 0.0
N3 N 0.98317 0.03703 0.77026 0.0
C4 C 0.95379 0.03482 0.76591 0.0
H5 H 0.00827 0.03123 0.81033 0.0
Co6 Co 0.00924 0.04866 0.7407 0.0
C7 C 0.99379 0.00441 0.69456 0.0
O8 O 0.02157 -0.00344 0.69158 0.0
N9 N 0.03429 0.06208 0.71016 0.0
C10 C 0.06409 0.09221 0.68477 0.0
C11 C 0.05828 0.07986 0.71205 0.0
C12 C 0.02549 0.06513 0.68178 0.0
N13 N 0.04335 0.0827 0.66577 0.0
O14 O 0.98511 0.0821 0.7331 0.0
H15 H 0.06887 0.0864 0.73238 0.0
H16 H 0.00425 0.05805 0.67378 0.0
O17 O 0.98652 0.02488 0.7125 0.0
C18 C 0.9936 0.10315 0.74952 0.0
O19 O 0.01525 0.09803 0.76824 0.0
N20 N 0.03422 0.01647 0.75005 0.0
C21 C 0.07246 0.97091 0.76575 0.0
C22 C 0.04236 0.96526 0.76125 0.0
C23 C 0.02349 0.98846 0.75383 0.0
C24 C 0.06307 0.02246 0.75657 0.0
C25 C 0.08278 -0.00011 0.76366 0.0
H26 H 0.00022 0.98384 0.75093 0.0
H27 H 0.07093 0.04481 0.75708 0.0
H28 H 0.94321 0.04033 0.74518 0.0
H29 H 0.95581 0.0191 0.83462 0.0
H30 H 0.08084 0.10861 0.67988 0.0
H31 H 0.03357 0.94308 0.76318 0.0
H32 H 0.10574 0.00512 0.76808 0.0
C33 C 0.33816 0.66802 0.04573 0.0
C34 C 0.33816 0.63822 0.0526 0.0
N35 N 0.3235 0.6237 0.03113 0.0
N36 N 0.3234 0.67205 0.02017 0.0
C37 C 0.31487 0.64478 0.01196 0.0
H38 H 0.34697 0.68563 0.0592 0.0
Co39 Co 0.31021 0.70585 0.00089 0.0
C40 C 0.32949 0.69672 0.9389 0.0
O41 O 0.33443 0.72504 0.93486 0.0
N42 N 0.29537 0.7394 0.98074 0.0
C43 C 0.28322 0.78359 0.96256 0.0
C44 C 0.29877 0.76889 0.98424 0.0
C45 C 0.27651 0.73707 0.95763 0.0
N46 N 0.26942 0.7634 0.94582 0.0
O47 O 0.27154 0.68982 6e-05 0.0
H48 H 0.31151 0.77959 0.00122 0.0
H49 H 0.26916 0.7162 0.94864 0.0
O50 O 0.31969 0.68706 0.96354 0.0
C51 C 0.25831 0.69385 0.02439 0.0
O52 O 0.27278 0.70675 0.04599 0.0
N53 N 0.34797 0.72244 0.00384 0.0
C54 C 0.39713 0.7587 0.00406 0.0
C55 C 0.39725 0.7326 0.98761 0.0
C56 C 0.37254 0.7142 0.98846 0.0
C57 C 0.34975 0.74465 0.02387 0.0
C58 C 0.37396 0.76364 0.02391 0.0
H59 H 0.37293 0.69409 0.9759 0.0
H60 H 0.33118 0.74902 0.03824 0.0
H61 H 0.30044 0.64083 0.99333 0.0
H62 H 0.3472 0.62822 0.07238 0.0
H63 H 0.28214 0.80726 0.95936 0.0
H64 H 0.41559 0.72714 0.97328 0.0
H65 H 0.37404 0.78257 0.03845 0.0
C66 C 0.56849 0.08563 0.28363 0.0
C67 C 0.59428 0.09377 0.29789 0.0
N68 N 0.61743 0.084 0.28193 0.0
N69 N 0.57549 0.07093 0.25878 0.0
C70 C 0.60527 0.06995 0.25867 0.0
H71 H 0.54616 0.08976 0.29105 0.0
Co72 Co 0.5518 0.05191 0.23087 0.0
C73 C 0.57334 0.07827 0.17532 0.0
O74 O 0.5459 0.08158 0.16636 0.0
N75 N 0.52897 0.03039 0.20358 0.0
C76 C 0.4983 -0.00457 0.18709 0.0
C77 C 0.50442 0.01447 0.20994 0.0
C78 C 0.53806 0.01937 0.17745 0.0
N79 N 0.5194 -0.00095 0.16659 0.0
O80 O 0.57345 0.01703 0.23729 0.0
H81 H 0.49295 0.01498 0.23087 0.0
H82 H 0.55952 0.0235 0.16785 0.0
O83 O 0.57912 0.06518 0.19977 0.0
C84 C 0.56072 0.0025 0.25763 0.0
O85 O 0.53886 0.01501 0.272 0.0
N86 N 0.52912 0.08655 0.22509 0.0
C87 C 0.49849 0.13621 0.20568 0.0
C88 C 0.52839 0.13811 0.21371 0.0
C89 C 0.54329 0.11311 0.22305 0.0
C90 C 0.49922 0.08517 0.22103 0.0
C91 C 0.48361 0.1095 0.21038 0.0
H92 H 0.56671 0.11496 0.22721 0.0
H93 H 0.48713 0.06524 0.22539 0.0
H94 H 0.6177 0.05768 0.24245 0.0
H95 H 0.59584 0.10559 0.31855 0.0
H96 H 0.4808 0.97912 0.18632 0.0
H97 H 0.54043 0.15876 0.21289 0.0
H98 H 0.46018 0.10736 0.20595 0.0
C99 C 0.2428 0.29444 0.51111 0.0
C100 C 0.23218 0.31757 0.52791 0.0
N101 N 0.24242 0.34282 0.51599 0.0
N102 N 0.25917 0.30545 0.48866 0.0
C103 C 0.25871 0.33491 0.49257 0.0
H104 H 0.23909 0.27117 0.51511 0.0
Co105 Co 0.28078 0.28691 0.45897 0.0
C106 C 0.25512 0.31327 0.40534 0.0
O107 O 0.25324 0.28656 0.39422 0.0
N108 N 0.3046 0.26935 0.42984 0.0
C109 C 0.34201 0.24383 0.41045 0.0
C110 C 0.32118 0.24466 0.43264 0.0
C111 C 0.31698 0.28373 0.4067 0.0
N112 N 0.33902 0.26843 0.39405 0.0
O113 O 0.31386 0.31024 0.46906 0.0
H114 H 0.32036 0.22968 0.45125 0.0
H115 H 0.31238 0.30645 0.40108 0.0
O116 O 0.26686 0.31691 0.4308 0.0
C117 C 0.32809 0.29865 0.49032 0.0
O118 O 0.31804 0.27391 0.5018 0.0
N119 N 0.24779 0.26249 0.4502 0.0
C120 C 0.19812 0.22665 0.44192 0.0
C121 C 0.1953 0.25735 0.44434 0.0
C122 C 0.22026 0.27479 0.44826 0.0
C123 C 0.25082 0.23255 0.44906 0.0
C124 C 0.2264 0.21427 0.44425 0.0
H125 H 0.21725 0.29832 0.45064 0.0
H126 H 0.27188 0.22235 0.45292 0.0
H127 H 0.27072 0.35039 0.47882 0.0
H128 H 0.21886 0.31599 0.54768 0.0
H129 H 0.35911 0.22739 0.40766 0.0
H130 H 0.17387 0.26793 0.44458 0.0
H131 H 0.22956 0.1906 0.44335 0.0
C132 C 0.47143 0.59033 0.28625 0.0
C133 C 0.44533 0.59247 0.27038 0.0
N134 N 0.4239 0.57871 0.28586 0.0
N135 N 0.46625 0.57508 0.31135 0.0
C136 C 0.43727 0.56822 0.31027 0.0
H137 H 0.49296 0.59809 0.27929 0.0
Co138 Co 0.49196 0.55979 0.33942 0.0
C139 C 0.46046 0.56595 0.3965 0.0
O140 O 0.48525 0.57129 0.41062 0.0
N141 N 0.51741 0.54281 0.36835 0.0
C142 C 0.54779 0.53332 0.40596 0.0
C143 C 0.54192 0.55216 0.38272 0.0
C144 C 0.50983 0.51768 0.38271 0.0
N145 N 0.52712 0.51189 0.40624 0.0
O146 O 0.48026 0.52173 0.32823 0.0
H147 H 0.55386 0.5723 0.37837 0.0
H148 H 0.49091 0.50458 0.37667 0.0
O149 O 0.4605 0.56155 0.36866 0.0
C150 C 0.49907 0.51073 0.31068 0.0
O151 O 0.52059 0.52773 0.30104 0.0
N152 N 0.50499 0.59743 0.34817 0.0
C153 C 0.53431 0.64938 0.361 0.0
C154 C 0.50517 0.64507 0.37062 0.0
C155 C 0.49053 0.619 0.36333 0.0
C156 C 0.5319 0.60273 0.33591 0.0
C157 C 0.54722 0.62845 0.3424 0.0
H158 H 0.46781 0.61631 0.36999 0.0
H159 H 0.5421 0.58607 0.32226 0.0
H160 H 0.42654 0.55381 0.32608 0.0
H161 H 0.44253 0.60245 0.2488 0.0
H162 H 0.56483 0.53636 0.42247 0.0
H163 H 0.49395 0.66157 0.38371 0.0
H164 H 0.56897 0.63188 0.33299 0.0
C165 C 0.72528 0.18061 0.4988 0.0
C166 C 0.72414 0.15099 0.49147 0.0
N167 N 0.74431 0.13677 0.50805 0.0
N168 N 0.74581 0.18453 0.52012 0.0
C169 C 0.75682 0.15738 0.52525 0.0
H170 H 0.71235 0.19811 0.48891 0.0
Co171 Co 0.75968 0.21816 0.53889 0.0
C172 C 0.7454 0.20715 0.602 0.0
O173 O 0.73915 0.23524 0.60555 0.0
N174 N 0.77518 0.25181 0.55803 0.0
C175 C 0.78847 0.29627 0.57443 0.0
C176 C 0.77206 0.28125 0.55373 0.0
C177 C 0.79494 0.2498 0.58034 0.0
N178 N 0.80264 0.27627 0.5912 0.0
O179 O 0.7989 0.20349 0.53634 0.0
H180 H 0.75912 0.29171 0.5367 0.0
H181 H 0.80267 0.22904 0.58941 0.0
O182 O 0.75423 0.19802 0.57682 0.0
C183 C 0.81275 0.21317 0.51395 0.0
O184 O 0.79845 0.23027 0.4953 0.0
N185 N 0.72111 0.23345 0.53982 0.0
C186 C 0.67196 0.26855 0.54797 0.0
C187 C 0.67382 0.24104 0.56209 0.0
C188 C 0.69839 0.22322 0.55689 0.0
C189 C 0.71664 0.25692 0.52157 0.0
C190 C 0.69244 0.27537 0.52576 0.0
H191 H 0.69975 0.20208 0.56786 0.0
H192 H 0.73318 0.26261 0.50528 0.0
H193 H 0.77411 0.15275 0.54116 0.0
H194 H 0.71036 0.14089 0.47476 0.0
H195 H 0.7899 0.31998 0.57694 0.0
H196 H 0.65738 0.23409 0.57804 0.0
H197 H 0.69047 0.29537 0.51273 0.0
C198 C 0.06144 0.53474 0.75534 0.0
C199 C 0.08739 0.52594 0.74191 0.0
N200 N 0.10884 0.52551 0.76255 0.0
N201 N 0.06686 0.54002 0.78413 0.0
C202 C 0.0959 0.53448 0.78768 0.0
H203 H 0.04024 0.53787 0.7447 0.0
Co204 Co 0.04223 0.55499 0.81315 0.0
C205 C 0.05692 0.51985 0.86645 0.0
O206 O 0.02873 0.51879 0.87333 0.0
N207 N 0.01814 0.57102 0.84323 0.0
C208 C 0.98416 0.58297 0.87672 0.0
C209 C 0.98895 0.57 0.84969 0.0
C210 C 0.0302 0.58543 0.86638 0.0
N211 N 0.01028 0.59267 0.88721 0.0
O212 O 0.06758 0.58837 0.81611 0.0
H213 H 0.97201 0.55941 0.83678 0.0
H214 H 0.05367 0.5894 0.86854 0.0
O215 O 0.06511 0.53392 0.84331 0.0
C216 C 0.06097 0.60768 0.7968 0.0
O217 O 0.03862 0.60233 0.77905 0.0
N218 N 0.01687 0.52288 0.80751 0.0
C219 C 0.97847 0.47781 0.79194 0.0
C220 C 0.00592 0.47126 0.80448 0.0
C221 C 0.02515 0.49415 0.81155 0.0
C222 C 0.99112 0.52937 0.79322 0.0
C223 C 0.97109 0.50712 0.78589 0.0
H224 H 0.04709 0.48857 0.81905 0.0
H225 H 0.98622 0.55201 0.78735 0.0
H226 H 0.10779 0.53854 0.80799 0.0
H227 H 0.0904 0.52081 0.71879 0.0
H228 H 0.9633 0.58349 0.88833 0.0
H229 H 0.01274 0.44859 0.80794 0.0
H230 H 0.95053 0.51263 0.7749 0.0
C231 C 0.82074 0.83932 0.06295 0.0
C232 C 0.82235 0.86589 0.04773 0.0
N233 N 0.81175 0.88723 0.06542 0.0
N234 N 0.80954 0.84431 0.09007 0.0
C235 C 0.8047 0.87359 0.09088 0.0
H236 H 0.82627 0.81775 0.05444 0.0
Co237 Co 0.79724 0.81919 0.12014 0.0
C238 C 0.82138 0.84735 0.17387 0.0
O239 O 0.82878 0.82158 0.18506 0.0
N240 N 0.78334 0.79467 0.15104 0.0
C241 C 0.76569 0.75913 0.1805 0.0
C242 C 0.78197 0.76509 0.15539 0.0
C243 C 0.76718 0.80587 0.17341 0.0
N244 N 0.75671 0.785 0.19171 0.0
O245 O 0.75877 0.83534 0.11699 0.0
H246 H 0.79094 0.74852 0.14096 0.0
H247 H 0.76217 0.82911 0.17575 0.0
O248 O 0.8087 0.84895 0.14874 0.0
C249 C 0.74292 0.81794 0.10176 0.0
O250 O 0.75514 0.7938 0.09139 0.0
N251 N 0.83449 0.80211 0.12103 0.0
C252 C 0.88748 0.77179 0.11795 0.0
C253 C 0.88711 0.80141 0.12659 0.0
C254 C 0.8603 0.81647 0.12736 0.0
C255 C 0.83495 0.77421 0.11009 0.0
C256 C 0.86113 0.75829 0.10907 0.0
H257 H 0.86054 0.83976 0.13222 0.0
H258 H 0.81493 0.76458 0.10135 0.0
H259 H 0.79514 0.88468 0.10967 0.0
H260 H 0.82933 0.86903 0.02509 0.0
H261 H 0.7605 0.73759 0.18952 0.0
H262 H 0.90739 0.81295 0.132 0.0
H263 H 0.86096 0.73609 0.10026 0.0
C264 C 0.79831 0.05945 0.05126 0.0
C265 C 0.81309 0.03274 0.05042 0.0
N266 N 0.79296 0.01114 0.04657 0.0
N267 N 0.76909 0.05462 0.04779 0.0
C268 C 0.76682 0.02512 0.04429 0.0
H269 H 0.80793 0.08057 0.05689 0.0
Co270 Co 0.73823 0.07986 0.05904 0.0
C271 C 0.68553 0.0486 0.03549 0.0
O272 O 0.67592 0.07318 0.02342 0.0
N273 N 0.70799 0.10456 0.07304 0.0
C274 C 0.68513 0.14002 0.0984 0.0
C275 C 0.70972 0.13302 0.08185 0.0
C276 C 0.68299 0.09456 0.08588 0.0
N277 N 0.66843 0.11556 0.10073 0.0
O278 O 0.74334 0.06636 0.09845 0.0
H279 H 0.72878 0.14713 0.07871 0.0
H280 H 0.67705 0.07152 0.0875 0.0
O281 O 0.70909 0.04837 0.05119 0.0
C282 C 0.75988 0.08255 0.11432 0.0
O283 O 0.77176 0.10619 0.10227 0.0
N284 N 0.73383 0.09378 0.01945 0.0
C285 C 0.71358 0.10933 0.96349 0.0
C286 C 0.72499 0.08117 0.96891 0.0
C287 C 0.73479 0.07378 -0.00305 0.0
C288 C 0.72746 0.12264 0.01314 0.0
C289 C 0.71649 0.13082 0.98539 0.0
H290 H 0.74068 0.05113 0.00075 0.0
H291 H 0.72974 0.13946 0.02959 0.0
H292 H 0.74612 0.01369 0.04131 0.0
H293 H 0.83634 0.02928 0.0549 0.0
H294 H 0.68078 0.16086 0.10912 0.0
H295 H 0.72528 0.06444 0.95188 0.0
H296 H 0.70963 0.15338 0.98144 0.0
C297 C 0.26917 0.5161 0.23654 0.0
C298 C 0.29275 0.53518 0.23279 0.0
N299 N 0.31091 0.53194 0.2561 0.0
N300 N 0.27297 0.50067 0.26183 0.0
C301 C 0.29858 0.51086 0.27315 0.0
H302 H 0.2505 0.51369 0.2218 0.0
Co303 Co 0.24929 0.4719 0.27921 0.0
C304 C 0.28861 0.41998 0.28463 0.0
O305 O 0.26622 0.40228 0.27914 0.0
N306 N 0.22534 0.44331 0.29804 0.0
C307 C 0.19244 0.40947 0.31208 0.0
C308 C 0.19891 0.43096 0.29148 0.0
C309 C 0.23337 0.43012 0.32364 0.0
N310 N 0.21429 0.409 0.33223 0.0
O311 O 0.25545 0.48955 0.31654 0.0
H312 H 0.18525 0.43624 0.27272 0.0
H313 H 0.25429 0.43424 0.33451 0.0
O314 O 0.2844 0.44783 0.28603 0.0
C315 C 0.23507 0.50247 0.33068 0.0
O316 O 0.20911 0.50584 0.3181 0.0
N317 N 0.24335 0.45468 0.24168 0.0
C318 C 0.23211 0.42698 0.18786 0.0
C319 C 0.26033 0.42626 0.20052 0.0
C320 C 0.26587 0.44191 0.22623 0.0
C321 C 0.21625 0.45742 0.22886 0.0
C322 C 0.21003 0.44352 0.20206 0.0
H323 H 0.2885 0.4437 0.23342 0.0
H324 H 0.19942 0.4706 0.23943 0.0
H325 H 0.30812 0.50287 0.2936 0.0
H326 H 0.296 0.5506 0.21476 0.0
H327 H 0.17381 0.39445 0.31156 0.0
H328 H 0.2783 0.41408 0.19065 0.0
H329 H 0.18831 0.44616 0.19235 0.0
C330 C 0.78672 0.97015 0.53006 0.0
C331 C 0.76965 0.99204 0.51737 0.0
N332 N 0.78207 0.01824 0.52387 0.0
N333 N 0.80953 0.98272 0.54455 0.0
C334 C 0.80582 0.012 0.54072 0.0
H335 H 0.78285 0.94662 0.52882 0.0
Co336 Co 0.83912 0.96376 0.56573 0.0
C337 C 0.89348 -0.00172 0.5563 0.0
O338 O 0.90732 0.97288 0.55484 0.0
N339 N 0.86858 0.94484 0.58885 0.0
C340 C 0.90947 0.92302 0.60565 0.0
C341 C 0.88633 0.92103 0.58576 0.0
C342 C 0.88035 0.95946 0.61202 0.0
N343 N 0.906 0.94785 0.62153 0.0
O344 O 0.82258 0.97937 0.60062 0.0
H345 H 0.88462 0.90467 0.56865 0.0
H346 H 0.87146 0.97993 0.62021 0.0
O347 O 0.86571 -0.00127 0.56227 0.0
C348 C 0.80134 0.96687 0.61401 0.0
O349 O 0.79073 0.942 0.60357 0.0
N350 N 0.85392 0.94883 0.52952 0.0
C351 C 0.86991 0.93166 0.47265 0.0
C352 C 0.86934 0.96136 0.48054 0.0
C353 C 0.86023 0.9694 0.50826 0.0
C354 C 0.85284 0.91964 0.52204 0.0
C355 C 0.86093 0.91044 0.49349 0.0
H356 H 0.85692 0.99265 0.51183 0.0
H357 H 0.84448 0.90361 0.5377 0.0
H358 H 0.82003 0.02855 0.55047 0.0
H359 H 0.7499 0.98898 0.5042 0.0
H360 H 0.92861 0.90873 0.60649 0.0
H361 H 0.87361 0.97873 0.46455 0.0
H362 H 0.85913 0.8874 0.48745 0.0
C363 C 0.28209 0.51652 0.75351 0.0
C364 C 0.2548 0.50644 0.74427 0.0
N365 N 0.23407 0.52314 0.75728 0.0
N366 N 0.27819 0.5395 0.77199 0.0
C367 C 0.24866 0.54271 0.77414 0.0
H368 H 0.30339 0.50769 0.74729 0.0
Co369 Co 0.30686 0.56129 0.79161 0.0
C370 C 0.29116 0.62317 0.77956 0.0
O371 O 0.31945 0.62744 0.77446 0.0
N372 N 0.33551 0.58186 0.81335 0.0
C373 C 0.37404 0.59314 0.84206 0.0
C374 C 0.36347 0.57416 0.82071 0.0
C375 C 0.32917 0.6042 0.83186 0.0
N376 N 0.35226 0.61213 0.84859 0.0
O377 O 0.28871 0.55065 0.82796 0.0
H378 H 0.37474 0.55466 0.81299 0.0
H379 H 0.30727 0.61326 0.83482 0.0
O380 O 0.28218 0.59767 0.78843 0.0
C381 C 0.30041 0.52881 0.84119 0.0
O382 O 0.32325 0.5158 0.82898 0.0
N383 N 0.32469 0.5711 0.75477 0.0
C384 C 0.3469 0.59249 0.70148 0.0
C385 C 0.31647 0.59151 0.7067 0.0
C386 C 0.3059 0.58044 0.733 0.0
C387 C 0.35435 0.56952 0.7492 0.0
C388 C 0.36604 0.58042 0.72262 0.0
H389 H 0.28226 0.58066 0.73619 0.0
H390 H 0.36917 0.55964 0.76489 0.0
H391 H 0.23799 0.55884 0.7881 0.0
H392 H 0.25045 0.48804 0.72971 0.0
H393 H 0.39543 0.59225 0.85275 0.0
H394 H 0.30059 0.59857 0.6902 0.0
H395 H 0.38957 0.57901 0.71847 0.0
C396 C 0.25744 0.46297 0.02859 0.0
C397 C 0.27703 0.48361 0.03953 0.0
N398 N 0.26852 0.51031 0.02969 0.0
N399 N 0.23662 0.47683 0.01228 0.0
C400 C 0.244 0.50563 0.01347 0.0
H401 H 0.25953 0.43931 0.03064 0.0
Co402 Co 0.20806 0.46077 0.98743 0.0
C403 C 0.15267 0.49315 0.00053 0.0
O404 O 0.13729 0.46888 -0.00351 0.0
N405 N 0.17976 0.44527 0.96148 0.0
C406 C 0.14238 0.42174 0.93985 0.0
C407 C 0.16509 0.41929 0.96012 0.0
C408 C 0.16652 0.46241 0.94092 0.0
N409 N 0.14329 0.4491 0.92815 0.0
O410 O 0.22352 0.48395 0.95576 0.0
H411 H 0.16906 0.40043 0.9742 0.0
H412 H 0.17163 0.48556 0.93778 0.0
O413 O 0.18087 0.49285 -0.00204 0.0
C414 C 0.24761 0.47472 0.94476 0.0
O415 O 0.2594 0.45047 0.95552 0.0
N416 N 0.1949 0.4369 0.01887 0.0
C417 C 0.19674 0.40495 0.07129 0.0
C418 C 0.18154 0.43171 0.06975 0.0
C419 C 0.18208 0.44795 0.04379 0.0
C420 C 0.20671 0.40919 0.01909 0.0
C421 C 0.20813 0.39279 0.04531 0.0
H422 H 0.1756 0.47062 0.04556 0.0
H423 H 0.21818 0.40126 -0.00025 0.0
H424 H 0.23281 0.52269 0.00095 0.0
H425 H 0.29714 0.47917 0.05172 0.0
H426 H 0.12561 0.40531 0.93528 0.0
H427 H 0.17356 0.44231 0.08962 0.0
H428 H 0.22081 0.37254 0.04596 0.0
C429 C 0.78742 0.07114 0.31864 0.0
C430 C 0.76112 0.08606 0.32346 0.0
N431 N 0.73917 0.07036 0.31096 0.0
N432 N 0.78165 0.0463 0.3033 0.0
C433 C 0.75216 0.04657 0.29915 0.0
H434 H 0.80937 0.07885 0.32418 0.0
Co435 Co 0.80595 0.01991 0.28334 0.0
C436 C 0.77928 0.96349 0.30462 0.0
O437 O 0.80554 0.95299 0.3113 0.0
N438 N 0.82941 0.99437 0.26094 0.0
C439 C 0.863 0.97886 0.22842 0.0
C440 C 0.85411 0.00207 0.24592 0.0
C441 C 0.82286 0.96722 0.25078 0.0
N442 N 0.84339 0.95691 0.23219 0.0
O443 O 0.78604 0.02971 0.24772 0.0
H444 H 0.86454 0.02354 0.24708 0.0
H445 H 0.80233 0.95576 0.2546 0.0
O446 O 0.77693 0.98861 0.29176 0.0
C447 C 0.79456 0.05297 0.23451 0.0
O448 O 0.81531 0.06909 0.24685 0.0
N449 N 0.82657 0.01017 0.31896 0.0
C450 C 0.8511 0.97632 0.36422 0.0
C451 C 0.82303 0.9891 0.36745 0.0
C452 C 0.81115 0.00601 0.3446 0.0
C453 C 0.85582 0.00266 0.318 0.0
C454 C 0.8682 0.98464 0.33981 0.0
H455 H 0.78829 0.01261 0.34635 0.0
H456 H 0.86934 0.00862 0.29941 0.0
H457 H 0.74058 0.03089 0.28537 0.0
H458 H 0.75863 0.10765 0.33329 0.0
H459 H 0.88184 0.97831 0.21373 0.0
H460 H 0.80956 0.98461 0.38671 0.0
H461 H 0.89031 0.97618 0.33662 0.0
C462 C 0.23313 0.51439 0.53522 0.0
C463 C 0.2217 0.48697 0.54268 0.0
N464 N 0.24113 0.46626 0.53391 0.0
N465 N 0.25956 0.51066 0.52198 0.0
C466 C 0.26354 0.48121 0.52131 0.0
H467 H 0.22271 0.53555 0.53879 0.0
Co468 Co 0.28528 0.53743 0.50406 0.0
C469 C 0.34304 0.51726 0.52823 0.0
O470 O 0.34944 0.54465 0.53518 0.0
N471 N 0.31067 0.56327 0.4836 0.0
C472 C 0.32823 0.59869 0.45398 0.0
C473 C 0.30431 0.58941 0.47052 0.0
C474 C 0.33745 0.55624 0.47266 0.0
N475 N 0.34917 0.57778 0.456 0.0
O476 O 0.27871 0.51827 0.46765 0.0
H477 H 0.28321 0.60051 0.472 0.0
H478 H 0.34749 0.53474 0.47457 0.0
O479 O 0.31917 0.5111 0.51414 0.0
C480 C 0.25624 0.52884 0.45444 0.0
O481 O 0.24056 0.54907 0.46798 0.0
N482 N 0.2908 0.55766 0.54048 0.0
C483 C 0.31848 0.58315 0.58874 0.0
C484 C 0.30795 0.55407 0.5903 0.0
C485 C 0.29426 0.54165 0.5659 0.0
C486 C 0.29531 0.5875 0.54103 0.0
C487 C 0.31037 0.60058 0.56453 0.0
H488 H 0.28981 0.51824 0.56654 0.0
H489 H 0.28914 0.6012 0.52268 0.0
H490 H 0.28211 0.47068 0.51061 0.0
H491 H 0.20083 0.48266 0.55354 0.0
H492 H 0.32983 0.61872 0.44098 0.0
H493 H 0.31203 0.54035 0.60952 0.0
H494 H 0.31674 0.62356 0.56298 0.0
C495 C 0.76593 0.03752 0.80448 0.0
C496 C 0.79275 0.02682 0.81451 0.0
N497 N 0.81355 0.03434 0.79465 0.0
N498 N 0.77027 0.05223 0.77883 0.0
C499 C 0.79944 0.04969 0.77345 0.0
H500 H 0.74477 0.03506 0.81531 0.0
Co501 Co 0.74402 0.07237 0.75435 0.0
C502 C 0.76719 0.13298 0.7512 0.0
O503 O 0.7397 0.14222 0.75278 0.0
N504 N 0.71826 0.09226 0.72797 0.0
C505 C 0.68419 0.11891 0.70427 0.0
C506 C 0.68958 0.10088 0.72823 0.0
C507 C 0.72902 0.10403 0.70266 0.0
N508 N 0.70919 0.12086 0.68843 0.0
O509 O 0.76108 0.05312 0.72149 0.0
H510 H 0.67355 0.09612 0.7451 0.0
H511 H 0.75203 0.10273 0.69622 0.0
O512 O 0.77265 0.10521 0.75086 0.0
C513 C 0.75086 0.02788 0.71481 0.0
O514 O 0.72918 0.01687 0.73069 0.0
N515 N 0.72695 0.0899 0.78793 0.0
C516 C 0.70351 0.10983 0.84131 0.0
C517 C 0.73312 0.11519 0.83385 0.0
C518 C 0.7444 0.10485 0.80746 0.0
C519 C 0.69858 0.08303 0.79537 0.0
C520 C 0.6859 0.09408 0.82121 0.0
H521 H 0.76785 0.10721 0.80383 0.0
H522 H 0.68603 0.0679 0.78189 0.0
H523 H 0.8103 0.05924 0.75437 0.0
H524 H 0.79664 0.01429 0.83453 0.0
H525 H 0.66404 0.131 0.69975 0.0
H526 H 0.74833 0.12552 0.84915 0.0
H527 H 0.66298 0.0891 0.82582 0.0
C528 C 0.08605 0.73708 0.03474 0.0
C529 C 0.08579 0.75827 0.01274 0.0
N530 N 0.07278 0.74658 0.98867 0.0
N531 N 0.07352 0.71218 0.02438 0.0
C532 C 0.06515 0.71893 -0.00338 0.0
H533 H 0.09694 0.73885 0.05592 0.0
Co534 Co 0.07567 0.67485 0.04136 0.0
C535 C 0.03861 0.63757 0.00251 0.0
O536 O 0.02447 0.62689 0.02552 0.0
N537 N 0.07924 0.63689 0.05793 0.0
C538 C 0.08917 0.59689 0.08512 0.0
C539 C 0.07954 0.62586 0.08577 0.0
C540 C 0.08911 0.61441 0.0412 0.0
N541 N 0.09463 0.58997 0.05686 0.0
O542 O 0.11428 0.67094 0.02588 0.0
H543 H 0.07506 0.63821 0.10556 0.0
H544 H 0.09423 0.61639 0.01794 0.0
O545 O 0.05908 0.65678 0.0057 0.0
C546 C 0.13353 0.6763 0.04559 0.0
O547 O 0.12438 0.68255 0.07238 0.0
N548 N 0.03864 0.68093 0.05801 0.0
C549 C 0.98967 0.70544 0.08503 0.0
C550 C 0.98941 0.69988 0.05476 0.0
C551 C 0.01436 0.68814 0.04152 0.0
C552 C 0.03913 0.68636 0.08759 0.0
C553 C 0.01451 0.6981 0.10179 0.0
H554 H 0.01477 0.6872 0.01776 0.0
H555 H 0.05952 0.68413 0.09977 0.0
H556 H 0.05546 0.70326 0.98153 0.0
H557 H 0.09693 0.77941 0.01355 0.0
H558 H 0.09288 0.58248 0.10388 0.0
H559 H 0.97077 0.70639 0.04117 0.0
H560 H 0.01566 0.70345 0.12506 0.0
C561 C 0.54789 0.81735 0.06354 0.0
C562 C 0.54381 0.80171 0.08946 0.0
N563 N 0.55464 0.81808 0.11168 0.0
N564 N 0.56103 0.84342 0.06974 0.0
C565 C 0.56479 0.84309 0.09924 0.0
H566 H 0.54287 0.80957 0.04157 0.0
Co567 Co 0.57615 0.87256 0.04475 0.0
C568 C 0.55146 0.9281 0.06703 0.0
O569 O 0.54676 0.93703 0.0398 0.0
N570 N 0.59246 0.90217 0.02042 0.0
C571 C 0.60573 0.93483 0.98596 0.0
C572 C 0.58954 0.90957 0.99161 0.0
C573 C 0.61086 0.92295 0.03143 0.0
N574 N 0.61904 0.94314 0.0112 0.0
O575 O 0.61264 0.87012 0.06518 0.0
H576 H 0.5759 0.89825 0.97571 0.0
H577 H 0.61745 0.92384 0.05439 0.0
O578 O 0.56251 0.90263 0.07199 0.0
C579 C 0.62712 0.8475 0.05739 0.0
O580 O 0.61621 0.83058 0.03653 0.0
N581 N 0.54059 0.87222 0.02394 0.0
C582 C 0.49031 0.84544 0.00137 0.0
C583 C 0.48822 0.86465 0.02539 0.0
C584 C 0.51376 0.87744 0.03676 0.0
C585 C 0.54251 0.85569 -0.00105 0.0
C586 C 0.51751 0.84222 0.98708 0.0
H587 H 0.51207 0.88792 0.05799 0.0
H588 H 0.56401 0.84983 0.99038 0.0
H589 H 0.57626 0.86024 0.11131 0.0
H590 H 0.53527 0.77947 0.09164 0.0
H591 H 0.60654 0.94676 0.96523 0.0
H592 H 0.46775 0.86676 0.03761 0.0
H593 H 0.51995 0.82702 0.96884 0.0
C594 C 0.52948 0.3092 0.29823 0.0
C595 C 0.54364 0.30077 0.32398 0.0
N596 N 0.52367 0.30126 0.34598 0.0
N597 N 0.501 0.31541 0.3044 0.0
C598 C 0.49826 0.31043 0.33361 0.0
H599 H 0.53966 0.31244 0.27687 0.0
Co600 Co 0.47325 0.33395 0.28061 0.0
C601 C 0.41533 0.31169 0.30165 0.0
O602 O 0.40651 0.3093 0.27411 0.0
N603 N 0.44505 0.35429 0.25727 0.0
C604 C 0.41292 0.37248 0.2246 0.0
C605 C 0.4382 0.35603 0.22816 0.0
C606 C 0.4245 0.37144 0.27038 0.0
N607 N 0.40452 0.38209 0.25127 0.0
O608 O 0.47861 0.36869 0.30221 0.0
H609 H 0.44953 0.34543 0.21026 0.0
H610 H 0.42262 0.37398 0.29407 0.0
O611 O 0.44139 0.32112 0.30744 0.0
C612 C 0.49803 0.38483 0.29 0.0
O613 O 0.51269 0.37416 0.2674 0.0
N614 N 0.46986 0.29981 0.25838 0.0
C615 C 0.46578 0.25032 0.22248 0.0
C616 C 0.45967 0.24849 0.25291 0.0
C617 C 0.46197 0.27339 0.27044 0.0
C618 C 0.47923 0.30131 0.2299 0.0
C619 C 0.47554 0.27743 0.211 0.0
H620 H 0.45817 0.27118 0.29388 0.0
H621 H 0.48947 0.32131 0.22175 0.0
H622 H 0.47876 0.3159 0.34625 0.0
H623 H 0.56696 0.29613 0.32663 0.0
H624 H 0.40074 0.37579 0.20426 0.0
H625 H 0.4542 0.22776 0.26356 0.0
H626 H 0.48083 0.28032 0.18792 0.0
C627 C -0.00452 0.23536 0.51391 0.0
C628 C -0.00198 0.25548 0.53654 0.0
N629 N 0.00981 0.24165 0.56016 0.0
N630 N 0.00544 0.20894 0.52333 0.0
C631 C 0.01541 0.21398 0.55091 0.0
H632 H 0.98368 0.2389 0.49343 0.0
Co633 Co 0.99324 0.17261 0.50828 0.0
C634 C 0.01534 0.12724 0.54968 0.0
O635 O 0.02321 0.1113 0.52683 0.0
N636 N 0.97913 0.13623 0.49373 0.0
C637 C 0.96546 0.09486 0.47106 0.0
C638 C 0.98207 0.12033 0.46869 0.0
C639 C 0.96014 0.12021 0.51036 0.0
N640 N 0.95158 0.09509 0.49732 0.0
O641 O 0.95424 0.18079 0.52187 0.0
H642 H -0.0045 0.12614 0.44992 0.0
H643 H 0.9539 0.12621 0.53258 0.0
O644 O 0.00331 0.15254 0.5458 0.0
C645 C 0.93845 0.18994 0.50045 0.0
O646 O 0.95081 0.19225 0.47429 0.0
N647 N 0.03116 0.16678 0.49299 0.0
C648 C 0.08645 0.17236 0.4662 0.0
C649 C 0.08388 0.16974 0.497 0.0
C650 C 0.05613 0.16704 0.50994 0.0
C651 C 0.03318 0.16938 0.4631 0.0
C652 C 0.06061 0.17074 0.44913 0.0
H653 H 0.05488 0.16747 0.53369 0.0
H654 H 0.01334 0.17207 0.45005 0.0
H655 H 0.02425 0.197 0.56503 0.0
H656 H 0.98854 0.27741 0.53674 0.0
H657 H 0.96412 0.07731 0.45496 0.0
H658 H 0.10295 0.17185 0.51131 0.0
H659 H 0.06129 0.17207 0.4253 0.0
C660 C 0.09878 0.8033 0.82574 0.0
C661 C 0.08295 0.80453 0.85183 0.0
N662 N 0.09494 0.7849 0.87072 0.0
N663 N 0.12065 0.78322 0.82869 0.0
C664 C 0.11755 0.77244 0.85617 0.0
H665 H 0.09441 0.81596 0.80593 0.0
Co666 Co 0.1494 0.77 0.80283 0.0
C667 C 0.205 0.77606 0.83646 0.0
O668 O 0.21771 0.78724 0.81284 0.0
N669 N 0.1784 0.75514 0.77715 0.0
C670 C 0.20704 0.74004 0.74019 0.0
C671 C 0.18655 0.76078 0.74897 0.0
C672 C 0.19406 0.73088 0.78467 0.0
N673 N 0.21159 0.72125 0.76284 0.0
O674 O 0.13721 0.73048 0.8106 0.0
H675 H 0.17779 0.77805 0.73507 0.0
H676 H 0.19251 0.72022 0.80605 0.0
O677 O 0.17783 0.76835 0.8354 0.0
C678 C 0.11879 0.72213 0.79113 0.0
O679 O 0.11119 0.74106 0.77042 0.0
N680 N 0.1586 0.80928 0.7939 0.0
C681 C 0.14571 0.86838 0.7838 0.0
C682 C 0.15974 0.85968 0.80996 0.0
C683 C 0.16574 0.82985 0.81479 0.0
C684 C 0.14667 0.81784 0.7676 0.0
C685 C 0.14063 0.84742 0.76181 0.0
H686 H 0.17235 0.82331 0.83673 0.0
H687 H 0.13811 0.80142 0.75262 0.0
H688 H 0.13151 0.75531 0.86535 0.0
H689 H 0.06369 0.81796 0.85619 0.0
H690 H 0.21694 0.73838 0.71852 0.0
H691 H 0.16322 0.87532 0.82767 0.0
H692 H 0.12885 0.8533 0.74179 0.0
C693 C 0.5166 0.31659 0.51707 0.0
C694 C 0.52635 0.29991 0.49362 0.0
N695 N 0.5261 0.31718 0.4694 0.0
N696 N 0.50996 0.34399 0.50737 0.0
C697 C 0.51601 0.34364 0.47824 0.0
H698 H 0.51332 0.30892 0.53947 0.0
Co699 Co 0.49208 0.37346 0.52929 0.0
C700 C 0.5095 0.42919 0.50143 0.0
O701 O 0.51687 0.43928 0.52757 0.0
N702 N 0.47271 0.40311 0.55108 0.0
C703 C 0.45442 0.43597 0.58261 0.0
C704 C 0.47566 0.41445 0.57846 0.0
C705 C 0.4497 0.4181 0.53931 0.0
N706 N 0.43795 0.438 0.55784 0.0
O707 O 0.45565 0.36347 0.51141 0.0
H708 H 0.49224 0.408 0.59438 0.0
H709 H 0.44157 0.41439 0.51719 0.0
O710 O 0.49985 0.40282 0.49848 0.0
C711 C 0.4416 0.34539 0.52771 0.0
O712 O 0.4539 0.33701 0.55265 0.0
N713 N 0.52824 0.37984 0.54805 0.0
C714 C 0.58107 0.35504 0.56665 0.0
C715 C 0.58046 0.37374 0.54203 0.0
C716 C 0.55364 0.38542 0.53262 0.0
C717 C 0.52928 0.36483 0.57417 0.0
C718 C 0.5556 0.35206 0.5839 0.0
H719 H 0.55306 0.39457 0.51066 0.0
H720 H 0.50889 0.3587 0.58505 0.0
H721 H 0.51139 0.36176 0.46331 0.0
H722 H 0.53199 0.2767 0.49402 0.0
H723 H 0.45198 0.44947 0.60209 0.0
H724 H 0.59952 0.37573 0.52767 0.0
H725 H 0.55525 0.33725 0.60274 0.0
C726 C 0.97346 0.30038 0.71965 0.0
C727 C 0.99228 0.29958 0.69559 0.0
N728 N 0.97951 0.2827 0.67478 0.0
N729 N 0.94906 0.28433 0.7135 0.0
C730 C 0.95334 0.2742 0.68601 0.0
H731 H 0.97787 0.31074 0.74068 0.0
Co732 Co 0.91826 0.27196 0.73745 0.0
C733 C 0.86575 0.28563 0.70118 0.0
O734 O 0.85333 0.29784 0.72433 0.0
N735 N 0.88777 0.25744 0.76157 0.0
C736 C 0.86714 0.23135 0.79811 0.0
C737 C 0.88851 0.25195 0.79096 0.0
C738 C 0.86628 0.23928 0.75148 0.0
N739 N 0.85329 0.22368 0.77306 0.0
O740 O 0.92769 0.23213 0.7286 0.0
H741 H 0.90561 0.25938 0.80583 0.0
H742 H 0.86253 0.23452 0.72841 0.0
O743 O 0.8914 0.27401 0.7036 0.0
C744 C 0.94733 0.22275 0.74635 0.0
O745 O 0.95773 0.24113 0.76623 0.0
N746 N 0.91085 0.31158 0.74733 0.0
C747 C 0.91734 0.37097 0.76175 0.0
C748 C 0.91034 0.36264 0.73288 0.0
C749 C 0.90788 0.33284 0.72597 0.0
C750 C 0.91649 0.31948 0.77578 0.0
C751 C 0.9195 0.34908 0.78356 0.0
H752 H 0.9063 0.327 0.70295 0.0
H753 H 0.92175 0.30294 0.79202 0.0
H754 H 0.93816 0.25943 0.67493 0.0
H755 H 0.01421 0.30907 0.69418 0.0
H756 H 0.86346 0.22131 0.81952 0.0
H757 H 0.90926 0.37888 0.71529 0.0
H758 H 0.92626 0.35451 0.80584 0.0
C759 C 0.57073 0.79797 0.2827 0.0
C760 C 0.55927 0.78908 0.25587 0.0
N761 N 0.57642 0.80028 0.2342 0.0
N762 N 0.5949 0.81476 0.27781 0.0
C763 C 0.5976 0.8158 0.2482 0.0
H764 H 0.56148 0.79326 0.30421 0.0
Co765 Co 0.61917 0.83624 0.30322 0.0
C766 C 0.67991 0.81779 0.28659 0.0
O767 O 0.68951 0.82014 0.31385 0.0
N768 N 0.64396 0.8588 0.32778 0.0
C769 C 0.67149 0.87983 0.36276 0.0
C770 C 0.6498 0.85915 0.3571 0.0
C771 C 0.662 0.87972 0.31644 0.0
N772 N 0.67875 0.89284 0.33706 0.0
O773 O 0.61388 0.86979 0.27889 0.0
H774 H 0.63996 0.84487 0.37348 0.0
H775 H 0.66432 0.88399 0.29303 0.0
O776 O 0.65307 0.82361 0.28014 0.0
C777 C 0.58998 0.88209 0.28678 0.0
O778 O 0.57426 0.8695 0.30774 0.0
N779 N 0.62126 0.80402 0.32827 0.0
C780 C 0.60219 0.75514 0.35973 0.0
C781 C 0.6234 0.75211 0.33739 0.0
C782 C 0.63243 0.77693 0.32154 0.0
C783 C 0.60224 0.80749 0.35128 0.0
C784 C 0.59281 0.78336 0.36774 0.0
H785 H 0.64556 0.7736 0.30204 0.0
H786 H 0.59225 0.82881 0.35512 0.0
H787 H 0.6139 0.82936 0.23712 0.0
H788 H 0.53947 0.77606 0.25255 0.0
H789 H 0.68164 0.88443 0.38391 0.0
H790 H 0.63026 0.7305 0.32988 0.0
H791 H 0.576 0.78637 0.38448 0.0
C792 C 0.11707 0.94095 0.75379 0.0
C793 C 0.09303 0.9466 0.77261 0.0
C794 C 0.13516 0.91621 0.75823 0.0
C795 C 0.13011 0.89688 0.78202 0.0
H796 H 0.12114 0.95505 0.73485 0.0
H797 H 0.15264 0.91169 0.74256 0.0
S798 S 0.07097 0.90294 0.83832 0.0
N799 N 0.06582 0.9317 0.8164 0.0
N800 N 0.09995 0.88536 0.82498 0.0
C801 C 0.10685 0.90299 0.80161 0.0
C802 C 0.08823 0.92784 0.79683 0.0
C803 C 0.47303 0.79349 -0.00045 0.0
C804 C 0.4665 0.82373 -0.00341 0.0
C805 C 0.45048 0.77243 0.00126 0.0
C806 C 0.42068 0.78095 0.00018 0.0
H807 H 0.49569 0.78619 0.0022 0.0
H808 H 0.4564 0.7495 0.00466 0.0
S809 S 0.39215 0.85686 0.98853 0.0
N810 N 0.42843 0.86087 0.98995 0.0
N811 N 0.38581 0.82118 0.99274 0.0
C812 C 0.41389 0.81093 -0.00439 0.0
C813 C 0.43687 0.83236 0.99393 0.0
C814 C 0.44697 0.19955 0.21327 0.0
C815 C 0.46616 0.22267 0.20495 0.0
C816 C 0.45553 0.17018 0.20999 0.0
C817 C 0.48264 0.16331 0.19661 0.0
H818 H 0.42733 0.20408 0.22615 0.0
H819 H 0.44264 0.15341 0.2212 0.0
S820 S 0.53184 0.21482 0.15627 0.0
N821 N 0.50804 0.23621 0.17357 0.0
N822 N 0.52161 0.18069 0.16396 0.0
C823 C 0.49756 0.18578 0.18121 0.0
C824 C 0.48992 0.21577 0.18608 0.0
C825 C 0.14172 0.16985 0.46565 0.0
C826 C 0.11544 0.18097 0.45318 0.0
C827 C 0.16902 0.18327 0.46007 0.0
C828 C 0.17121 0.20785 0.44113 0.0
H829 H 0.14098 0.15189 0.4815 0.0
H830 H 0.18805 0.17564 0.47245 0.0
S831 S 0.11057 0.2408 0.39687 0.0
N832 N 0.09424 0.21555 0.41755 0.0
N833 N 0.14606 0.23865 0.40497 0.0
C834 C 0.14584 0.21661 0.42544 0.0
C835 C 0.11783 0.20366 0.43188 0.0
C836 C 0.53711 0.70404 0.36237 0.0
C837 C 0.55053 0.67669 0.36793 0.0
C838 C 0.55377 0.72996 0.36254 0.0
C839 C 0.58435 0.72931 0.36825 0.0
H840 H 0.51413 0.70524 0.35569 0.0
H841 H 0.54305 0.75027 0.35576 0.0
S842 S 0.6285 0.66401 0.38991 0.0
N843 N 0.59495 0.65087 0.38387 0.0
N844 N 0.62649 0.69991 0.38366 0.0
C845 C 0.59745 0.7025 0.37642 0.0
C846 C 0.58045 0.67607 0.3764 0.0
C847 C 0.59769 0.30296 0.56496 0.0
C848 C 0.60492 0.33297 0.56859 0.0
C849 C 0.61958 0.28198 0.55916 0.0
C850 C 0.64938 0.29038 0.55673 0.0
H851 H 0.57478 0.29592 0.5647 0.0
H852 H 0.61298 0.25935 0.55517 0.0
S853 S 0.68007 0.36539 0.56891 0.0
N854 N 0.64396 0.36953 0.57232 0.0
N855 N 0.68539 0.33001 0.56205 0.0
C856 C 0.65706 0.31998 0.56225 0.0
C857 C 0.63475 0.34131 0.56803 0.0
C858 C 0.95109 0.41244 0.74925 0.0
C859 C 0.9287 0.40099 0.76762 0.0
C860 C 0.96615 0.43828 0.75666 0.0
C861 C 0.95919 0.45359 0.78253 0.0
H862 H 0.95821 0.40049 0.72985 0.0
H863 H 0.98416 0.44572 0.74272 0.0
S864 S 0.90097 0.43462 0.83671 0.0
N865 N 0.89903 0.40815 0.81177 0.0
N866 N 0.92768 0.45702 0.82568 0.0
C867 C 0.93605 0.44337 0.80039 0.0
C868 C 0.92071 0.41693 0.79294 0.0
C869 C 0.9622 0.75228 0.08784 0.0
C870 C 0.96584 0.72309 0.09768 0.0
C871 C 0.93747 0.76861 0.09607 0.0
C872 C 0.91558 0.75608 0.11416 0.0
H873 H 0.97807 0.76212 0.07282 0.0
H874 H 0.9347 0.79057 0.08693 0.0
S875 S 0.91651 0.68136 0.14779 0.0
N876 N 0.94713 0.68294 0.12798 0.0
N877 N 0.90016 0.71371 0.14354 0.0
C878 C 0.91975 0.72739 0.12532 0.0
C879 C 0.9451 0.71085 0.11708 0.0
C880 C 0.71017 0.13993 0.91769 0.0
C881 C 0.7003 0.11572 0.93434 0.0
C882 C 0.70645 0.14037 0.88702 0.0
C883 C 0.69401 0.11599 0.87212 0.0
H884 H 0.72341 0.15707 0.92782 0.0
H885 H 0.71658 0.15823 0.87466 0.0
S886 S 0.6551 0.05293 0.90778 0.0
N887 N 0.66913 0.072 0.93541 0.0
N888 N 0.66476 0.07096 0.87757 0.0
C889 C 0.67967 0.09424 0.88921 0.0
C890 C 0.68237 0.09453 0.92048 0.0
C891 C 0.18988 0.39273 0.12426 0.0
C892 C 0.20915 0.39733 0.1004 0.0
C893 C 0.19841 0.4001 0.15305 0.0
C894 C 0.22621 0.41299 0.15877 0.0
H895 H 0.16718 0.38618 0.12025 0.0
H896 H 0.18235 0.3976 0.17061 0.0
S897 S 0.28581 0.42593 0.10364 0.0
N898 N 0.25843 0.4113 0.0846 0.0
N899 N 0.2739 0.42735 0.138 0.0
C900 C 0.2466 0.41505 0.13531 0.0
C901 C 0.2382 0.4065 0.10629 0.0
C902 C 0.84707 0.91976 0.42531 0.0
C903 C 0.87326 0.92568 0.44082 0.0
C904 C 0.84129 0.93402 0.39845 0.0
C905 C 0.8616 0.95443 0.38641 0.0
H906 H 0.82912 0.90803 0.43603 0.0
H907 H 0.81962 0.93128 0.38861 0.0
S908 S 0.93765 0.96831 0.41388 0.0
N909 N 0.92305 0.94536 0.43824 0.0
N910 N 0.91192 0.97358 0.38852 0.0
C911 C 0.89004 0.95581 0.39893 0.0
C912 C 0.89612 0.94048 0.4258 0.0
C913 C 0.35899 0.57493 0.62487 0.0
C914 C 0.3377 0.59418 0.61273 0.0
C915 C 0.36829 0.57812 0.6541 0.0
C916 C 0.35657 0.60078 0.6715 0.0
H917 H 0.3655 0.55521 0.6131 0.0
H918 H 0.38046 0.56013 0.66419 0.0
S919 S 0.31169 0.66407 0.64594 0.0
N920 N 0.31295 0.64163 0.61731 0.0
N921 N 0.33236 0.64856 0.67174 0.0
C922 C 0.34186 0.62415 0.65721 0.0
C923 C 0.33139 0.6204 0.62784 0.0
C924 C 0.03333 0.13455 0.60141 0.0
C925 C 0.02153 0.11592 0.57961 0.0
C926 C 0.04115 0.12348 0.62933 0.0
C927 C 0.03714 0.09347 0.63644 0.0
H928 H 0.03715 0.15766 0.59671 0.0
H929 H 0.04989 0.1386 0.64561 0.0
S930 S 0.006 0.03589 0.58727 0.0
N931 N 0.00551 0.06632 0.56709 0.0
N932 N 0.02028 0.04546 0.61942 0.0
C933 C 0.0251 0.07473 0.61483 0.0
C934 C 0.01733 0.08596 0.58644 0.0
C935 C 0.22662 0.75234 0.91406 0.0
C936 C 0.2529 0.7681 0.9191 0.0
C937 C 0.21106 0.75533 0.88742 0.0
C938 C 0.22159 0.77377 0.86462 0.0
H939 H 0.21807 0.73761 0.93091 0.0
H940 H 0.1909 0.74272 0.88454 0.0
S941 S 0.28995 0.81929 0.86693 0.0
N942 N 0.28903 0.80247 0.89931 0.0
N943 N 0.26012 0.80811 0.84912 0.0
C944 C 0.24795 0.78965 0.86948 0.0
C945 C 0.26351 0.78684 0.89676 0.0
C946 C 0.53343 0.93338 0.11877 0.0
C947 C 0.54202 0.94661 0.09193 0.0
C948 C 0.52466 0.95061 0.14283 0.0
C949 C 0.52474 0.98153 0.1409 0.0
H950 H 0.53349 0.90958 0.12121 0.0
H951 H 0.51881 0.9398 0.16338 0.0
S952 S 0.5449 0.02686 0.07574 0.0
N953 N 0.54952 0.99245 0.06478 0.0
N954 N 0.53338 0.02472 0.11027 0.0
C955 C 0.53291 -0.00503 0.11419 0.0
C956 C 0.54145 0.97752 0.0896 0.0
C957 C 0.38877 0.27563 0.37259 0.0
C958 C 0.3579 0.27888 0.37069 0.0
C959 C 0.4074 0.28702 0.35052 0.0
C960 C 0.39568 0.30152 0.3256 0.0
H961 H 0.39857 0.26466 0.39148 0.0
H962 H 0.43104 0.28393 0.3527 0.0
S963 S 0.31641 0.31605 0.31048 0.0
N964 N 0.31653 0.29793 0.34219 0.0
N965 N 0.35143 0.31901 0.30061 0.0
C966 C 0.36489 0.3049 0.32349 0.0
C967 C 0.34602 0.29368 0.34608 0.0
C968 C 0.54204 0.45978 0.46948 0.0
C969 C 0.51395 0.4481 0.47551 0.0
C970 C 0.54625 0.47995 0.44631 0.0
C971 C 0.52234 0.48984 0.42895 0.0
H972 H 0.56087 0.45331 0.48282 0.0
H973 H 0.56839 0.48803 0.44217 0.0
S974 S 0.44364 0.4671 0.43846 0.0
N975 N 0.46194 0.44744 0.46315 0.0
N976 N 0.4688 0.48736 0.4215 0.0
C977 C 0.49389 0.47842 0.43536 0.0
C978 C 0.48998 0.45704 0.45822 0.0
C979 C 0.8603 0.2665 0.64979 0.0
C980 C 0.85009 0.28501 0.67249 0.0
C981 C 0.84514 0.26443 0.62292 0.0
C982 C 0.81954 0.28112 0.61757 0.0
H983 H 0.87977 0.25295 0.65299 0.0
H984 H 0.85326 0.24941 0.60625 0.0
S985 S 0.78387 0.33335 0.66916 0.0
N986 N 0.81293 0.32088 0.6874 0.0
N987 N 0.7846 0.31679 0.63678 0.0
C988 C 0.80944 0.30021 0.63967 0.0
C989 C 0.82467 0.30217 0.66718 0.0
C990 C 0.05192 0.61113 0.95673 0.0
C991 C 0.03104 0.62702 0.97296 0.0
C992 C 0.04483 0.5998 0.92893 0.0
C993 C 0.01683 0.60467 0.91599 0.0
H994 H 0.07363 0.60681 0.96589 0.0
H995 H 0.06137 0.5867 0.91784 0.0
S996 S 0.95546 0.64748 0.94935 0.0
N997 N 0.98184 0.64803 0.97458 0.0
N998 N 0.96882 0.62834 0.92142 0.0
C999 C -0.00398 0.62128 0.93198 0.0
C1000 C 0.00309 0.63213 0.96068 0.0
C1001 C 0.74689 0.81221 0.23737 0.0
C1002 C 0.73851 0.7904 0.21699 0.0
C1003 C 0.72811 0.8203 0.26051 0.0
C1004 C 0.7 0.80746 0.26338 0.0
H1005 H 0.76798 0.8233 0.23506 0.0
H1006 H 0.73519 0.83743 0.2756 0.0
S1007 S 0.66832 0.74832 0.21658 0.0
N1008 N 0.70107 0.75513 0.20192 0.0
N1009 N 0.66514 0.77103 0.24486 0.0
C1010 C 0.69153 0.7853 0.24343 0.0
C1011 C 0.711 0.77654 0.22035 0.0
C1012 C 0.62112 0.09039 0.10852 0.0
C1013 C 0.64301 0.1099 0.11885 0.0
C1014 C 0.59846 0.08048 0.12698 0.0
C1015 C 0.59725 0.08932 0.15654 0.0
H1016 H 0.62198 0.08224 0.08608 0.0
H1017 H 0.58223 0.06522 0.11831 0.0
S1018 S 0.64679 0.14284 0.19354 0.0
N1019 N 0.66055 0.13959 0.15994 0.0
N1020 N 0.61777 0.12068 0.19481 0.0
C1021 C 0.61819 0.10964 0.16698 0.0
C1022 C 0.64111 0.12011 0.14803 0.0
C1023 C 0.21713 0.35621 0.34429 0.0
C1024 C 0.22104 0.38572 0.35275 0.0
C1025 C 0.22799 0.33309 0.36167 0.0
C1026 C 0.2431 0.33854 0.38832 0.0
H1027 H 0.20679 0.35098 0.32338 0.0
H1028 H 0.22491 0.31077 0.35375 0.0
S1029 S 0.25662 0.41224 0.42148 0.0
N1030 N 0.23918 0.41939 0.39021 0.0
N1031 N 0.25971 0.37594 0.42318 0.0
C1032 C 0.24614 0.36803 0.39762 0.0
C1033 C 0.2351 0.3916 0.37976 0.0
C1034 C 0.94762 0.94564 0.65702 0.0
C1035 C 0.92776 0.96237 0.63986 0.0
C1036 C 0.96912 0.95939 0.67466 0.0
C1037 C 0.97104 0.9903 0.6762 0.0
H1038 H 0.94642 0.92177 0.65689 0.0
H1039 H 0.98407 0.94577 0.68751 0.0
S1040 S 0.92718 0.04445 0.63332 0.0
N1041 N 0.91422 0.01197 0.62324 0.0
N1042 N 0.95281 0.03731 0.65825 0.0
C1043 C 0.95165 0.00733 0.65917 0.0
C1044 C 0.93046 0.99349 0.6405 0.0
C1045 C 0.33118 0.68202 0.88631 0.0
C1046 C 0.338 0.67573 0.91587 0.0
C1047 C 0.33732 0.66155 0.86417 0.0
C1048 C 0.35111 0.63451 0.87078 0.0
H1049 H 0.32 0.70236 0.88044 0.0
H1050 H 0.33053 0.66645 0.84174 0.0
S1051 S 0.3771 0.60946 0.94419 0.0
N1052 N 0.36151 0.64179 0.95042 0.0
N1053 N 0.3736 0.60354 0.9084 0.0
C1054 C 0.3596 0.6287 0.89997 0.0
C1055 C 0.35281 0.64927 0.92267 0.0
C1056 C 0.1295 0.48457 0.88946 0.0
C1057 C 0.12099 0.46438 0.91146 0.0
C1058 C 0.1087 0.50247 0.87518 0.0
C1059 C 0.07852 0.50122 0.88269 0.0
H1060 H 0.1526 0.48678 0.88365 0.0
H1061 H 0.11648 0.51763 0.85836 0.0
S1062 S 0.04534 0.45354 0.9409 0.0
N1063 N 0.08083 0.44511 0.94135 0.0
N1064 N 0.04145 0.4787 0.91474 0.0
C1065 C 0.06978 0.48132 0.90508 0.0
C1066 C 0.09105 0.46288 0.91938 0.0
C1067 C 0.83581 0.90044 0.17287 0.0
C1068 C 0.82945 0.87471 0.18926 0.0
C1069 C 0.84226 0.92712 0.18703 0.0
C1070 C 0.84201 0.92886 0.21791 0.0
H1071 H 0.83554 0.90004 0.14896 0.0
H1072 H 0.84609 0.94676 0.17386 0.0
S1073 S 0.82762 0.86799 0.27081 0.0
N1074 N 0.82442 0.85255 0.23798 0.0
N1075 N 0.83596 0.90294 0.26449 0.0
C1076 C 0.83645 0.90324 0.23449 0.0
C1077 C 0.83033 0.87604 0.22018 0.0
C1078 C 0.40769 0.58154 0.39762 0.0
C1079 C 0.43223 0.56911 0.41214 0.0
C1080 C 0.38078 0.58546 0.41238 0.0
C1081 C 0.37752 0.57658 0.4419 0.0
H1082 H 0.40944 0.58865 0.37485 0.0
H1083 H 0.36222 0.59479 0.40051 0.0
S1084 S 0.43544 0.54385 0.48998 0.0
N1085 N 0.45189 0.54875 0.4578 0.0
N1086 N 0.40132 0.55601 0.48554 0.0
C1087 C 0.40208 0.56458 0.45677 0.0
C1088 C 0.42946 0.56087 0.44187 0.0
C1089 C 0.73989 0.15494 0.6196 0.0
C1090 C 0.73679 0.18542 0.62501 0.0
C1091 C 0.73018 0.13388 0.64016 0.0
C1092 C 0.71656 0.14251 0.66653 0.0
H1093 H 0.7498 0.1472 0.5993 0.0
H1094 H 0.73329 0.11066 0.63551 0.0
S1095 S 0.7053 0.21892 0.69284 0.0
N1096 N 0.72062 0.22287 0.65999 0.0
N1097 N 0.70215 0.18299 0.69819 0.0
C1098 C 0.71368 0.17268 0.67255 0.0
C1099 C 0.72387 0.1942 0.6519 0.0
C1100 C 0.1515 0.53342 0.03792 0.0
C1101 C 0.13788 0.51839 0.01439 0.0
C1102 C 0.1365 0.55577 0.05313 0.0
C1103 C 0.10776 0.56397 0.04486 0.0
H1104 H 0.17366 0.52761 0.0449 0.0
H1105 H 0.14771 0.5674 0.07075 0.0
S1106 S 0.06307 0.53244 0.98409 0.0
N1107 N 0.09426 0.51353 0.9834 0.0
N1108 N 0.06657 0.55623 0.01144 0.0
C1109 C 0.09411 0.54934 0.02126 0.0
C1110 C 0.10906 0.52634 0.00615 0.0
C1111 C 0.64998 0.00946 0.05038 0.0
C1112 C 0.66967 0.02105 0.02948 0.0
C1113 C 0.63341 0.98406 0.04416 0.0
C1114 C 0.63611 0.9694 0.01686 0.0
H1115 H 0.64702 0.02037 0.07143 0.0
H1116 H 0.61801 0.97613 0.06067 0.0
S1117 S 0.68615 0.99064 0.95556 0.0
N1118 N 0.69169 0.01612 0.98095 0.0
N1119 N 0.66108 0.96794 0.9694 0.0
C1120 C 0.65607 0.98078 -0.00403 0.0
C1121 C 0.67277 0.00672 0.00228 0.0
C1122 C 0.35078 0.3767 0.25057 0.0
C1123 C 0.3759 0.39249 0.25943 0.0
C1124 C 0.32271 0.38483 0.2603 0.0
C1125 C 0.3188 0.40934 0.27889 0.0
H1126 H 0.35298 0.35764 0.2364 0.0
H1127 H 0.30391 0.37229 0.25238 0.0
S1128 S 0.37817 0.45726 0.30889 0.0
N1129 N 0.39576 0.43278 0.28846 0.0
N1130 N 0.34268 0.44888 0.30635 0.0
C1131 C 0.34393 0.4251 0.28821 0.0
C1132 C 0.37259 0.41645 0.27858 0.0
C1133 C 0.94483 0.04229 0.50727 0.0
C1134 C 0.93552 0.07146 0.51129 0.0
C1135 C 0.93146 0.01909 0.52258 0.0
C1136 C 0.90796 0.02404 0.54238 0.0
H1137 H 0.96312 0.0374 0.4927 0.0
H1138 H 0.9395 -0.00301 0.51842 0.0
S1139 S 0.87517 0.09656 0.56073 0.0
N1140 N 0.90121 0.1043 0.53634 0.0
N1141 N 0.87597 0.06037 0.56525 0.0
C1142 C 0.89821 0.05311 0.54652 0.0
C1143 C 0.91203 0.07689 0.53098 0.0
C1144 C 0.2416 0.64711 0.78538 0.0
C1145 C 0.27021 0.64753 0.77339 0.0
C1146 C 0.22227 0.67092 0.78108 0.0
C1147 C 0.23073 0.6959 0.76442 0.0
H1148 H 0.23431 0.62862 0.79876 0.0
H1149 H 0.20058 0.66989 0.7911 0.0
S1150 S 0.30237 0.7069 0.72631 0.0
N1151 N 0.30534 0.67428 0.74236 0.0
N1152 N 0.26911 0.71902 0.73491 0.0
C1153 C 0.25883 0.6961 0.7514 0.0
C1154 C 0.27855 0.67195 0.75578 0.0
C1155 C 0.40744 0.46537 0.52154 0.0
C1156 C 0.4133 0.45724 0.55112 0.0
C1157 C 0.38351 0.48345 0.51399 0.0
C1158 C 0.36467 0.4944 0.53579 0.0
H1159 H 0.42182 0.4583 0.50399 0.0
H1160 H 0.38045 0.48981 0.4911 0.0
S1161 S 0.36868 0.4794 0.61611 0.0
N1162 N 0.39671 0.4608 0.60212 0.0
N1163 N 0.35248 0.49591 0.58785 0.0
C1164 C 0.36983 0.48651 0.56532 0.0
C1165 C 0.39398 0.4677 0.57305 0.0
C1166 C 0.78551 0.18449 0.74695 0.0
C1167 C 0.79102 0.15496 0.75498 0.0
C1168 C 0.80593 0.20679 0.75325 0.0
C1169 C 0.83224 0.20051 0.76837 0.0
H1170 H 0.76514 0.19049 0.73585 0.0
H1171 H 0.80107 0.22924 0.74654 0.0
S1172 S 0.85841 0.12684 0.79247 0.0
N1173 N 0.82571 0.12046 0.77748 0.0
N1174 N 0.86391 0.16281 0.78962 0.0
C1175 C 0.83847 0.17114 0.77602 0.0
C1176 C 0.8179 0.14822 0.76917 0.0
C1177 C 0.73077 0.90714 0.34318 0.0
C1178 C 0.70274 0.91269 0.33115 0.0
C1179 C 0.75535 0.92374 0.33436 0.0
C1180 C 0.7527 0.94662 0.31334 0.0
H1181 H 0.73387 0.88914 0.35866 0.0
H1182 H 0.77661 0.91842 0.34403 0.0
S1183 S 0.68329 0.97097 0.27689 0.0
N1184 N 0.67313 0.94339 0.29857 0.0
N1185 N 0.71931 0.97459 0.28166 0.0
C1186 C 0.72451 0.95292 0.30182 0.0
C1187 C 0.69954 0.93593 0.3108 0.0
C1188 C 0.99351 0.15577 0.76447 0.0
C1189 C 0.98084 0.13316 0.74743 0.0
C1190 C 0.98257 0.18449 0.76354 0.0
C1191 C 0.95841 0.19205 0.74554 0.0
H1192 H 0.0122 0.1514 0.77879 0.0
H1193 H 0.99331 0.20089 0.77722 0.0
S1194 S 0.91701 0.14117 0.69645 0.0
N1195 N 0.9427 0.12022 0.71177 0.0
N1196 N 0.92194 0.17459 0.71008 0.0
C1197 C 0.94547 0.1698 0.72813 0.0
C1198 C 0.95671 0.14029 0.72908 0.0
C1199 C 0.18562 0.67958 0.06237 0.0
C1200 C 0.16545 0.67729 0.03886 0.0
C1201 C 0.21573 0.68382 0.05727 0.0
C1202 C 0.22697 0.68583 0.02846 0.0
H1203 H 0.1781 0.6788 0.08506 0.0
H1204 H 0.2302 0.68614 0.0762 0.0
S1205 S 0.18385 0.67939 0.95902 0.0
N1206 N 0.159 0.67586 0.9855 0.0
N1207 N 0.21594 0.68373 0.9759 0.0
C1208 C 0.20735 0.68225 0.00461 0.0
C1209 C 0.17648 0.678 0.00982 0.0
C1210 C 0.59611 0.96022 0.25758 0.0
C1211 C 0.56755 0.97121 0.26274 0.0
C1212 C 0.60305 0.93073 0.26404 0.0
C1213 C 0.58158 0.91149 0.27575 0.0
H1214 H 0.61339 0.97468 0.24942 0.0
H1215 H 0.62558 0.92333 0.2609 0.0
S1216 S 0.50227 0.92831 0.28795 0.0
N1217 N 0.51683 0.95974 0.27653 0.0
N1218 N 0.52981 0.90447 0.28856 0.0
C1219 C 0.55253 0.92182 0.27916 0.0
C1220 C 0.54553 0.9517 0.27272 0.0
C1221 C 0.39901 0.3433 0.49243 0.0
C1222 C 0.41214 0.3341 0.51911 0.0
C1223 C 0.37146 0.33227 0.48354 0.0
C1224 C 0.35612 0.31155 0.50094 0.0
H1225 H 0.41019 0.35894 0.47812 0.0
H1226 H 0.36245 0.33959 0.46259 0.0
S1227 S 0.37987 0.28169 0.57364 0.0
N1228 N 0.40692 0.30396 0.56349 0.0
N1229 N 0.35529 0.28336 0.54677 0.0
C1230 C 0.36865 0.30267 0.52797 0.0
C1231 C 0.39661 0.31392 0.53705 0.0
C1232 C 0.47619 0.4609 0.31574 0.0
C1233 C 0.49938 0.4787 0.30508 0.0
C1234 C 0.47647 0.43033 0.31178 0.0
C1235 C 0.49992 0.41647 0.29695 0.0
H1236 H 0.45756 0.47061 0.32713 0.0
H1237 H 0.45779 0.41763 0.31977 0.0
S1238 S 0.56695 0.45272 0.26655 0.0
N1239 N 0.54713 0.47998 0.2802 0.0
N1240 N 0.54759 0.42247 0.27288 0.0
C1241 C 0.52355 0.43386 0.28675 0.0
C1242 C 0.52327 0.465 0.29073 0.0
C1243 C 0.8908 0.18541 0.52834 0.0
C1244 C 0.90665 0.19656 0.50404 0.0
C1245 C 0.86035 0.19052 0.53123 0.0
C1246 C 0.8447 0.20715 0.51 0.0
H1247 H 0.90188 0.17231 0.54507 0.0
H1248 H 0.84906 0.18144 0.55029 0.0
S1249 S 0.87636 0.24201 0.44267 0.0
N1250 N 0.90463 0.22551 0.45872 0.0
N1251 N 0.84766 0.23505 0.46403 0.0
C1252 C 0.86042 0.21854 0.48569 0.0
C1253 C 0.89132 0.21329 0.48275 0.0
C1254 C 0.09377 0.64668 0.81853 0.0
C1255 C 0.07736 0.63586 0.79447 0.0
C1256 C 0.10768 0.67439 0.81718 0.0
C1257 C 0.10569 0.69216 0.79169 0.0
H1258 H 0.09524 0.63403 0.83883 0.0
H1259 H 0.11947 0.68219 0.83647 0.0
S1260 S 0.06834 0.67223 0.72141 0.0
N1261 N 0.06202 0.64395 0.74359 0.0
N1262 N 0.08809 0.69574 0.74097 0.0
C1263 C 0.09032 0.68101 0.7671 0.0
C1264 C 0.07617 0.65293 0.76851 0.0
C1265 C 0.67413 0.86167 0.08273 0.0
C1266 C 0.65518 0.83963 0.07178 0.0
C1267 C 0.70221 0.85444 0.09374 0.0
C1268 C 0.71205 0.825 0.09413 0.0
H1269 H 0.66771 0.88468 0.08168 0.0
H1270 H 0.71668 0.87209 0.10087 0.0
S1271 S 0.66826 0.75886 0.07351 0.0
N1272 N 0.64645 0.78704 0.06582 0.0
N1273 N 0.69903 0.77344 0.0866 0.0
C1274 C 0.69243 0.80268 0.08517 0.0
C1275 C 0.66402 0.81002 0.07392 0.0
C1276 C 0.79472 0.08577 0.19026 0.0
C1277 C 0.78332 0.06072 0.20472 0.0
C1278 C 0.78655 0.09274 0.16132 0.0
C1279 C 0.7666 0.07497 0.14547 0.0
H1280 H 0.81059 0.1 0.20114 0.0
H1281 H 0.79645 0.11206 0.1512 0.0
S1282 S 0.72842 0.00807 0.17393 0.0
N1283 N 0.7496 0.01888 0.20157 0.0
N1284 N 0.73422 0.03202 0.14698 0.0
C1285 C 0.7542 0.05032 0.1599 0.0
C1286 C 0.76255 0.04319 0.18955 0.0
C1287 C 0.27108 0.5068 0.40624 0.0
C1288 C 0.24968 0.52122 0.42338 0.0
C1289 C 0.26626 0.50128 0.37624 0.0
C1290 C 0.23976 0.50978 0.36219 0.0
H1291 H 0.29197 0.50013 0.41588 0.0
H1292 H 0.28352 0.49013 0.36405 0.0
S1293 S 0.17613 0.54718 0.39764 0.0
N1294 N 0.20059 0.54318 0.4244 0.0
N1295 N 0.19156 0.53277 0.36803 0.0
C1296 C 0.218 0.52387 0.37919 0.0
C1297 C 0.22295 0.52957 0.40976 0.0
C1298 C 0.80116 0.00718 0.65139 0.0
C1299 C 0.78835 0.98109 0.64038 0.0
C1300 C 0.78896 0.02195 0.67551 0.0
C1301 C 0.76344 0.01126 0.68971 0.0
H1302 H 0.82075 0.0165 0.64123 0.0
H1303 H 0.79967 0.04198 0.68299 0.0
S1304 S 0.72163 0.94348 0.67002 0.0
N1305 N 0.74893 0.94487 0.6459 0.0
N1306 N 0.72597 0.97265 0.69131 0.0
C1307 C 0.75059 0.98496 0.67925 0.0
C1308 C 0.76304 0.96989 0.65459 0.0
C1309 C 0.25793 0.52176 0.87596 0.0
C1310 C 0.2879 0.51719 0.86905 0.0
C1311 C 0.24514 0.50861 0.901 0.0
C1312 C 0.2619 0.49044 0.91991 0.0
H1313 H 0.24401 0.53477 0.86144 0.0
H1314 H 0.22177 0.51194 0.905 0.0
S1315 S 0.34229 0.47533 0.91403 0.0
N1316 N 0.33465 0.49588 0.88484 0.0
N1317 N 0.31069 0.47123 0.93176 0.0
C1318 C 0.29219 0.48693 0.91401 0.0
C1319 C 0.30518 0.50029 0.8886 0.0
C1320 C 0.86193 0.0366 0.81973 0.0
C1321 C 0.84463 0.02815 0.7954 0.0
C1322 C 0.89294 0.03479 0.81868 0.0
C1323 C 0.90746 0.0243 0.79331 0.0
H1324 H 0.85147 0.04609 0.83897 0.0
H1325 H 0.90563 0.04304 0.83717 0.0
S1326 S 0.87135 -0.00509 0.72584 0.0
N1327 N 0.84369 0.00617 0.74671 0.0
N1328 N 0.9017 0.0017 0.74495 0.0
C1329 C 0.89008 0.01388 0.76972 0.0
C1330 C 0.85872 0.0161 0.7707 0.0
C1331 C 0.306 0.57882 0.05738 0.0
C1332 C 0.31373 0.59334 0.03088 0.0
C1333 C 0.29216 0.551 0.05704 0.0
C1334 C 0.28549 0.53705 0.03023 0.0
H1335 H 0.30936 0.5896 0.0784 0.0
H1336 H 0.28549 0.5409 0.07769 0.0
S1337 S 0.30505 0.56309 0.9552 0.0
N1338 N 0.31667 0.58957 0.97734 0.0
N1339 N 0.29031 0.53776 0.97697 0.0
C1340 C 0.29453 0.55041 0.00381 0.0
C1341 C 0.30875 0.57845 0.00407 0.0
C1342 C 0.688 0.08103 0.32637 0.0
C1343 C 0.70959 0.07959 0.30421 0.0
C1344 C 0.65788 0.08389 0.31906 0.0
C1345 C 0.64851 0.08524 0.28934 0.0
H1346 H 0.69432 0.07828 0.34928 0.0
H1347 H 0.64176 0.08344 0.33669 0.0
S1348 S 0.69763 0.08592 0.22359 0.0
N1349 N 0.72033 0.08229 0.25191 0.0
N1350 N 0.66416 0.08794 0.23795 0.0
C1351 C 0.67037 0.08556 0.2672 0.0
C1352 C 0.7008 0.08268 0.2747 0.0
C1353 C 0.26479 0.41791 0.54044 0.0
C1354 C 0.23901 0.43456 0.53538 0.0
C1355 C 0.26518 0.38738 0.53604 0.0
C1356 C 0.23971 0.37233 0.52683 0.0
H1357 H 0.28522 0.42886 0.54648 0.0
H1358 H 0.28585 0.37557 0.53841 0.0
S1359 S 0.16626 0.40492 0.51201 0.0
N1360 N 0.18699 0.43332 0.52182 0.0
N1361 N 0.18782 0.37555 0.51403 0.0
C1362 C 0.21337 0.38821 0.52337 0.0
C1363 C 0.21295 0.41946 0.52764 0.0
C1364 C 0.38792 0.56221 0.24811 0.0
C1365 C 0.39409 0.57186 0.27698 0.0
C1366 C 0.36008 0.55037 0.24085 0.0
C1367 C 0.33778 0.54771 0.26232 0.0
H1368 H 0.40516 0.56232 0.23155 0.0
H1369 H 0.35644 0.54185 0.21884 0.0
S1370 S 0.34119 0.5743 0.33941 0.0
N1371 N 0.37431 0.58149 0.32584 0.0
N1372 N 0.3224 0.55882 0.31231 0.0
C1373 C 0.34311 0.55898 0.2906 0.0
C1374 C 0.37117 0.57118 0.2979 0.0
C1375 C 0.74187 0.05468 0.51802 0.0
C1376 C 0.77196 0.04718 0.5156 0.0
C1377 C 0.73242 0.08395 0.51381 0.0
C1378 C 0.75285 0.10634 0.50704 0.0
H1379 H 0.72586 0.03815 0.52463 0.0
H1380 H 0.70941 0.08943 0.51736 0.0
S1381 S 0.83287 0.09714 0.49293 0.0
N1382 N 0.82127 0.06375 0.5021 0.0
N1383 N 0.8035 0.11868 0.49458 0.0
C1384 C 0.78254 0.09874 0.50271 0.0
C1385 C 0.79212 0.06913 0.50689 0.0
C1386 C 0.15516 0.53359 0.73483 0.0
C1387 C 0.13998 0.52053 0.75866 0.0
C1388 C 0.18619 0.53319 0.73364 0.0
C1389 C 0.20271 0.51951 0.75607 0.0
H1390 H 0.14306 0.54555 0.71798 0.0
H1391 H 0.19741 0.54467 0.71587 0.0
S1392 S 0.17374 0.47914 0.82087 0.0
N1393 N 0.1439 0.49112 0.80351 0.0
N1394 N 0.2022 0.49081 0.8012 0.0
C1395 C 0.18788 0.50511 0.77901 0.0
C1396 C 0.15646 0.50547 0.7803 0.0
C1397 C 0.8227 0.9657 0.03965 0.0
C1398 C 0.79713 0.97974 0.05038 0.0
C1399 C 0.82702 0.93514 0.04358 0.0
C1400 C 0.80597 0.91775 0.05849 0.0
H1401 H 0.83944 0.97844 0.02822 0.0
H1402 H 0.84726 0.9252 0.03568 0.0
S1403 S 0.73503 0.94347 0.0904 0.0
N1404 N 0.75084 0.97359 0.0773 0.0
N1405 N 0.75793 0.9164 0.0824 0.0
C1406 C 0.78002 0.93141 0.06859 0.0
C1407 C 0.77588 0.96235 0.06517 0.0
C1408 C 0.08538 0.74608 0.90701 0.0
C1409 C 0.08513 0.77615 0.89955 0.0
C1410 C 0.08049 0.73672 0.93589 0.0
C1411 C 0.07488 0.75704 0.95865 0.0
H1412 H 0.09035 0.72965 0.89044 0.0
H1413 H 0.08247 0.71336 0.94048 0.0
S1414 S 0.06953 0.8383 0.95003 0.0
N1415 N 0.07745 0.82631 0.91654 0.0
N1416 N 0.06741 0.80863 0.97129 0.0
C1417 C 0.07328 0.7872 0.95127 0.0
C1418 C 0.07842 0.79677 0.92159 0.0
C1419 C 0.542 0.80087 0.19161 0.0
C1420 C 0.57111 0.80006 0.20277 0.0
C1421 C 0.53656 0.80524 0.16135 0.0
C1422 C 0.56004 0.80898 0.14149 0.0
H1423 H 0.52333 0.79966 0.20649 0.0
H1424 H 0.51398 0.80717 0.15361 0.0
S1425 S 0.63996 0.80445 0.15825 0.0
N1426 N 0.62355 0.79994 0.19052 0.0
N1427 N 0.61302 0.8088 0.13401 0.0
C1428 C 0.58906 0.80656 0.15195 0.0
C1429 C 0.59467 0.80191 0.18252 0.0
C1430 C 0.54968 0.3233 0.42095 0.0
C1431 C 0.52958 0.30832 0.4393 0.0
C1432 C 0.54956 0.31886 0.39031 0.0
C1433 C 0.52882 0.29985 0.37719 0.0
H1434 H 0.56462 0.33947 0.4303 0.0
H1435 H 0.56422 0.33193 0.3766 0.0
S1436 S 0.47228 0.25494 0.4158 0.0
N1437 N 0.48947 0.27287 0.44251 0.0
N1438 N 0.48871 0.26507 0.3848 0.0
C1439 C 0.50952 0.28387 0.39549 0.0
C1440 C 0.51001 0.28797 0.42662 0.0
C1441 C 0.00306 0.29116 0.62637 0.0
C1442 C 0.99216 0.27172 0.64797 0.0
C1443 C 0.01019 0.28092 0.59799 0.0
C1444 C 0.00673 0.25095 0.59047 0.0
H1445 H 0.00455 0.31455 0.63098 0.0
H1446 H 0.01747 0.29666 0.58148 0.0
S1447 S 0.98089 0.19106 0.64093 0.0
N1448 N 0.98079 0.22111 0.66134 0.0
N1449 N 0.99226 0.20191 0.60805 0.0
C1450 C -0.00296 0.23116 0.61265 0.0
C1451 C 0.99027 0.24157 0.64141 0.0
loop_
_geom_bond_atom_site_label_1
_geom_bond_atom_site_label_2
_geom_bond_distance
_geom_bond_site_symmetry_2
_ccdc_geom_bond_type
C0 C1 1.351 . S
C0 N3 1.368 . S
C0 H5 0.931 1_655 S
C1 C0 1.351 . S
C1 N2 1.373 . S
C1 H29 0.930 . S
N2 C1 1.373 . S
N2 C4 1.340 . S
N3 C0 1.368 . S
N3 C4 1.321 . S
N3 Co6 2.135 1_655 S
C4 N2 1.340 . S
C4 N3 1.321 . S
C4 H28 0.930 . S
H5 C0 0.931 1_455 S
Co6 N3 2.135 1_455 S
Co6 N9 2.121 . S
Co6 O14 2.055 . S
Co6 O17 2.039 1_455 S
Co6 N20 2.140 . S
C7 O8 1.227 . S
C7 O17 1.265 . S
O8 C7 1.227 . S
N9 Co6 2.121 . S
N9 C11 1.375 . S
N9 C12 1.313 . S
C10 C11 1.338 . S
C10 N13 1.377 . S
C10 H30 0.930 . S
C11 N9 1.375 . S
C11 C10 1.338 . S
C11 H15 0.931 . S
C12 N9 1.313 . S
C12 N13 1.344 . S
C12 H16 0.930 . S
N13 C10 1.377 . S
N13 C12 1.344 . S
O14 Co6 2.055 . S
O14 C18 1.253 . S
H15 C11 0.931 . S
H16 C12 0.930 . S
O17 Co6 2.039 1_655 S
O17 C7 1.265 . S
C18 O14 1.253 . S
C18 O19 1.227 . S
O19 C18 1.227 . S
N20 Co6 2.140 . S
N20 C23 1.346 1_545 S
N20 C24 1.345 . S
C21 C22 1.387 . S
C21 C25 1.391 . S
C22 C21 1.387 . S
C22 C23 1.369 . S
C22 H31 0.929 . S
C23 N20 1.346 1_565 S
C23 C22 1.369 . S
C23 H26 0.928 . S
C24 N20 1.345 . S
C24 C25 1.371 1_545 S
C24 H27 0.931 . S
C25 C21 1.391 . S
C25 C24 1.371 1_565 S
C25 H32 0.930 . S
H26 C23 0.928 . S
H27 C24 0.931 . S
H28 C4 0.930 . S
H29 C1 0.930 . S
H30 C10 0.930 . S
H31 C22 0.929 . S
H32 C25 0.930 . S
C33 C34 1.351 . S
C33 N36 1.368 . S
C33 H38 0.931 . S
C34 C33 1.351 . S
C34 N35 1.373 . S
C34 H62 0.930 . S
N35 C34 1.373 . S
N35 C37 1.340 . S
N36 C33 1.368 . S
N36 C37 1.321 . S
N36 Co39 2.135 1_554 S
C37 N35 1.340 . S
C37 N36 1.321 . S
C37 H61 0.930 1_554 S
H38 C33 0.931 . S
Co39 N36 2.135 1_556 S
Co39 N42 2.121 . S
Co39 O47 2.055 . S
Co39 O50 2.039 . S
Co39 N53 2.140 . S
C40 O41 1.227 . S
C40 O50 1.265 . S
O41 C40 1.227 . S
N42 Co39 2.121 . S
N42 C44 1.375 . S
N42 C45 1.313 . S
C43 C44 1.338 . S
C43 N46 1.377 . S
C43 H63 0.930 . S
C44 N42 1.375 . S
C44 C43 1.338 . S
C44 H48 0.931 . S
C45 N42 1.313 . S
C45 N46 1.344 . S
C45 H49 0.930 . S
N46 C43 1.377 . S
N46 C45 1.344 . S
O47 Co39 2.055 . S
O47 C51 1.253 1_556 S
H48 C44 0.931 . S
H49 C45 0.930 . S
O50 Co39 2.039 . S
O50 C40 1.265 . S
C51 O47 1.253 1_554 S
C51 O52 1.227 . S
O52 C51 1.227 . S
N53 Co39 2.140 . S
N53 C56 1.346 . S
N53 C57 1.345 . S
C54 C55 1.391 . S
C54 C58 1.391 1_554 S
C55 C54 1.391 . S
C55 C56 1.360 1_554 S
C55 H64 0.937 . S
C56 N53 1.346 . S
C56 C55 1.360 1_556 S
C56 H59 0.928 . S
C57 N53 1.345 . S
C57 C58 1.371 . S
C57 H60 0.931 . S
C58 C54 1.391 1_556 S
C58 C57 1.371 . S
C58 H65 0.930 . S
H59 C56 0.928 . S
H60 C57 0.931 . S
H61 C37 0.930 1_556 S
H62 C34 0.930 . S
H63 C43 0.930 . S
H64 C55 0.937 . S
H65 C58 0.930 . S
C66 C67 1.351 . S
C66 N69 1.368 . S
C66 H71 0.931 . S
C67 C66 1.351 . S
C67 N68 1.373 . S
C67 H95 0.930 . S
N68 C67 1.373 . S
N68 C70 1.340 . S
N69 C66 1.368 . S
N69 C70 1.321 . S
N69 Co72 2.135 . S
C70 N68 1.340 . S
C70 N69 1.321 . S
C70 H94 0.930 . S
H71 C66 0.931 . S
Co72 N69 2.135 . S
Co72 N75 2.121 . S
Co72 O80 2.055 1_545 S
Co72 O83 2.039 . S
Co72 N86 2.140 . S
C73 O74 1.227 . S
C73 O83 1.265 . S
O74 C73 1.227 . S
N75 Co72 2.121 . S
N75 C77 1.375 . S
N75 C78 1.313 1_545 S
C76 C77 1.338 . S
C76 N79 1.377 1_545 S
C76 H96 0.930 . S
C77 N75 1.375 . S
C77 C76 1.338 . S
C77 H81 0.931 . S
C78 N75 1.313 1_565 S
C78 N79 1.344 . S
C78 H82 0.930 . S
N79 C76 1.377 1_565 S
N79 C78 1.344 . S
O80 Co72 2.055 1_565 S
O80 C84 1.253 . S
H81 C77 0.931 . S
H82 C78 0.930 . S
O83 Co72 2.039 . S
O83 C73 1.265 . S
C84 O80 1.253 . S
C84 O85 1.227 . S
O85 C84 1.227 . S
N86 Co72 2.140 . S
N86 C89 1.346 . S
N86 C90 1.345 . S
C87 C88 1.387 . S
C87 C91 1.391 . S
C88 C87 1.387 . S
C88 C89 1.369 . S
C88 H97 0.929 . S
C89 N86 1.346 . S
C89 C88 1.369 . S
C89 H92 0.928 . S
C90 N86 1.345 . S
C90 C91 1.371 . S
C90 H93 0.931 . S
C91 C87 1.391 . S
C91 C90 1.371 . S
C91 H98 0.930 . S
H92 C89 0.928 . S
H93 C90 0.931 . S
H94 C70 0.930 . S
H95 C67 0.930 . S
H96 C76 0.930 . S
H97 C88 0.929 . S
H98 C91 0.930 . S
C99 C100 1.351 . S
C99 N102 1.368 . S
C99 H104 0.931 . S
C100 C99 1.351 . S
C100 N101 1.373 . S
C100 H128 0.930 . S
N101 C100 1.373 . S
N101 C103 1.340 . S
N102 C99 1.368 . S
N102 C103 1.321 . S
N102 Co105 2.135 . S
C103 N101 1.340 . S
C103 N102 1.321 . S
C103 H127 0.930 . S
H104 C99 0.931 . S
Co105 N102 2.135 . S
Co105 N108 2.121 . S
Co105 O113 2.055 . S
Co105 O116 2.039 . S
Co105 N119 2.140 . S
C106 O107 1.227 . S
C106 O116 1.265 . S
O107 C106 1.227 . S
N108 Co105 2.121 . S
N108 C110 1.375 . S
N108 C111 1.313 . S
C109 C110 1.338 . S
C109 N112 1.377 . S
C109 H129 0.930 . S
C110 N108 1.375 . S
C110 C109 1.338 . S
C110 H114 0.931 . S
C111 N108 1.313 . S
C111 N112 1.344 . S
C111 H115 0.930 . S
N112 C109 1.377 . S
N112 C111 1.344 . S
O113 Co105 2.055 . S
O113 C117 1.253 . S
H114 C110 0.931 . S
H115 C111 0.930 . S
O116 Co105 2.039 . S
O116 C106 1.265 . S
C117 O113 1.253 . S
C117 O118 1.227 . S
O118 C117 1.227 . S
N119 Co105 2.140 . S
N119 C122 1.346 . S
N119 C123 1.345 . S
C120 C121 1.387 . S
C120 C124 1.391 . S
C121 C120 1.387 . S
C121 C122 1.369 . S
C121 H130 0.929 . S
C122 N119 1.346 . S
C122 C121 1.369 . S
C122 H125 0.928 . S
C123 N119 1.345 . S
C123 C124 1.371 . S
C123 H126 0.931 . S
C124 C120 1.391 . S
C124 C123 1.371 . S
C124 H131 0.930 . S
H125 C122 0.928 . S
H126 C123 0.931 . S
H127 C103 0.930 . S
H128 C100 0.930 . S
H129 C109 0.930 . S
H130 C121 0.929 . S
H131 C124 0.930 . S
C132 C133 1.351 . S
C132 N135 1.368 . S
C132 H137 0.931 . S
C133 C132 1.351 . S
C133 N134 1.373 . S
C133 H161 0.930 . S
N134 C133 1.373 . S
N134 C136 1.340 . S
N135 C132 1.368 . S
N135 C136 1.321 . S
N135 Co138 2.135 . S
C136 N134 1.340 . S
C136 N135 1.321 . S
C136 H160 0.930 . S
H137 C132 0.931 . S
Co138 N135 2.135 . S
Co138 N141 2.121 . S
Co138 O146 2.055 . S
Co138 O149 2.039 . S
Co138 N152 2.140 . S
C139 O140 1.227 . S
C139 O149 1.265 . S
O140 C139 1.227 . S
N141 Co138 2.121 . S
N141 C143 1.375 . S
N141 C144 1.313 . S
C142 C143 1.338 . S
C142 N145 1.377 . S
C142 H162 0.930 . S
C143 N141 1.375 . S
C143 C142 1.338 . S
C143 H147 0.931 . S
C144 N141 1.313 . S
C144 N145 1.344 . S
C144 H148 0.930 . S
N145 C142 1.377 . S
N145 C144 1.344 . S
O146 Co138 2.055 . S
O146 C150 1.253 . S
H147 C143 0.931 . S
H148 C144 0.930 . S
O149 Co138 2.039 . S
O149 C139 1.265 . S
C150 O146 1.253 . S
C150 O151 1.227 . S
O151 C150 1.227 . S
N152 Co138 2.140 . S
N152 C155 1.346 . S
N152 C156 1.345 . S
C153 C154 1.387 . S
C153 C157 1.391 . S
C154 C153 1.387 . S
C154 C155 1.369 . S
C154 H163 0.929 . S
C155 N152 1.346 . S
C155 C154 1.369 . S
C155 H158 0.928 . S
C156 N152 1.345 . S
C156 C157 1.371 . S
C156 H159 0.931 . S
C157 C153 1.391 . S
C157 C156 1.371 . S
C157 H164 0.930 . S
H158 C155 0.928 . S
H159 C156 0.931 . S
H160 C136 0.930 . S
H161 C133 0.930 . S
H162 C142 0.930 . S
H163 C154 0.929 . S
H164 C157 0.930 . S
C165 C166 1.351 . S
C165 N168 1.368 . S
C165 H170 0.931 . S
C166 C165 1.351 . S
C166 N167 1.373 . S
C166 H194 0.930 . S
N167 C166 1.373 . S
N167 C169 1.340 . S
N168 C165 1.368 . S
N168 C169 1.321 . S
N168 Co171 2.135 . S
C169 N167 1.340 . S
C169 N168 1.321 . S
C169 H193 0.930 . S
H170 C165 0.931 . S
Co171 N168 2.135 . S
Co171 N174 2.121 . S
Co171 O179 2.055 . S
Co171 O182 2.039 . S
Co171 N185 2.140 . S
C172 O173 1.227 . S
C172 O182 1.265 . S
O173 C172 1.227 . S
N174 Co171 2.121 . S
N174 C176 1.375 . S
N174 C177 1.313 . S
C175 C176 1.338 . S
C175 N178 1.377 . S
C175 H195 0.930 . S
C176 N174 1.375 . S
C176 C175 1.338 . S
C176 H180 0.931 . S
C177 N174 1.313 . S
C177 N178 1.344 . S
C177 H181 0.930 . S
N178 C175 1.377 . S
N178 C177 1.344 . S
O179 Co171 2.055 . S
O179 C183 1.253 . S
H180 C176 0.931 . S
H181 C177 0.930 . S
O182 Co171 2.039 . S
O182 C172 1.265 . S
C183 O179 1.253 . S
C183 O184 1.227 . S
O184 C183 1.227 . S
N185 Co171 2.140 . S
N185 C188 1.346 . S
N185 C189 1.345 . S
C186 C187 1.387 . S
C186 C190 1.391 . S
C187 C186 1.387 . S
C187 C188 1.369 . S
C187 H196 0.929 . S
C188 N185 1.346 . S
C188 C187 1.369 . S
C188 H191 0.928 . S
C189 N185 1.345 . S
C189 C190 1.371 . S
C189 H192 0.931 . S
C190 C186 1.391 . S
C190 C189 1.371 . S
C190 H197 0.930 . S
H191 C188 0.928 . S
H192 C189 0.931 . S
H193 C169 0.930 . S
H194 C166 0.930 . S
H195 C175 0.930 . S
H196 C187 0.929 . S
H197 C190 0.930 . S
C198 C199 1.351 . S
C198 N201 1.368 . S
C198 H203 0.931 . S
C199 C198 1.351 . S
C199 N200 1.373 . S
C199 H227 0.930 . S
N200 C199 1.373 . S
N200 C202 1.340 . S
N201 C198 1.368 . S
N201 C202 1.321 . S
N201 Co204 2.135 . S
C202 N200 1.340 . S
C202 N201 1.321 . S
C202 H226 0.930 . S
H203 C198 0.931 . S
Co204 N201 2.135 . S
Co204 N207 2.121 . S
Co204 O212 2.055 . S
Co204 O215 2.039 . S
Co204 N218 2.140 . S
C205 O206 1.227 . S
C205 O215 1.265 . S
O206 C205 1.227 . S
N207 Co204 2.121 . S
N207 C209 1.375 . S
N207 C210 1.313 1_455 S
C208 C209 1.338 1_655 S
C208 N211 1.377 . S
C208 H228 0.930 . S
C209 N207 1.375 . S
C209 C208 1.338 1_455 S
C209 H213 0.931 . S
C210 N207 1.313 1_655 S
C210 N211 1.344 . S
C210 H214 0.930 . S
N211 C208 1.377 . S
N211 C210 1.344 . S
O212 Co204 2.055 . S
O212 C216 1.253 . S
H213 C209 0.931 . S
H214 C210 0.930 . S
O215 Co204 2.039 . S
O215 C205 1.265 . S
C216 O212 1.253 . S
C216 O217 1.227 . S
O217 C216 1.227 . S
N218 Co204 2.140 . S
N218 C221 1.346 . S
N218 C222 1.345 1_455 S
C219 C220 1.387 1_655 S
C219 C223 1.391 . S
C220 C219 1.387 1_455 S
C220 C221 1.369 . S
C220 H229 0.929 . S
C221 N218 1.346 . S
C221 C220 1.369 . S
C221 H224 0.928 . S
C222 N218 1.345 1_655 S
C222 C223 1.371 . S
C222 H225 0.931 . S
C223 C219 1.391 . S
C223 C222 1.371 . S
C223 H230 0.930 . S
H224 C221 0.928 . S
H225 C222 0.931 . S
H226 C202 0.930 . S
H227 C199 0.930 . S
H228 C208 0.930 . S
H229 C220 0.929 . S
H230 C223 0.930 . S
C231 C232 1.351 . S
C231 N234 1.368 . S
C231 H236 0.931 . S
C232 C231 1.351 . S
C232 N233 1.373 . S
C232 H260 0.930 1_554 S
N233 C232 1.373 . S
N233 C235 1.340 . S
N234 C231 1.368 . S
N234 C235 1.321 . S
N234 Co237 2.135 . S
C235 N233 1.340 . S
C235 N234 1.321 . S
C235 H259 0.930 . S
H236 C231 0.931 . S
Co237 N234 2.135 . S
Co237 N240 2.121 . S
Co237 O245 2.055 . S
Co237 O248 2.039 . S
Co237 N251 2.140 . S
C238 O239 1.227 . S
C238 O248 1.265 . S
O239 C238 1.227 . S
N240 Co237 2.121 . S
N240 C242 1.375 . S
N240 C243 1.313 . S
C241 C242 1.338 . S
C241 N244 1.377 . S
C241 H261 0.930 . S
C242 N240 1.375 . S
C242 C241 1.338 . S
C242 H246 0.931 . S
C243 N240 1.313 . S
C243 N244 1.344 . S
C243 H247 0.930 . S
N244 C241 1.377 . S
N244 C243 1.344 . S
O245 Co237 2.055 . S
O245 C249 1.253 . S
H246 C242 0.931 . S
H247 C243 0.930 . S
O248 Co237 2.039 . S
O248 C238 1.265 . S
C249 O245 1.253 . S
C249 O250 1.227 . S
O250 C249 1.227 . S
N251 Co237 2.140 . S
N251 C254 1.346 . S
N251 C255 1.345 . S
C252 C253 1.387 . S
C252 C256 1.391 . S
C253 C252 1.387 . S
C253 C254 1.369 . S
C253 H262 0.929 . S
C254 N251 1.346 . S
C254 C253 1.369 . S
C254 H257 0.928 . S
C255 N251 1.345 . S
C255 C256 1.371 . S
C255 H258 0.931 . S
C256 C252 1.391 . S
C256 C255 1.371 . S
C256 H263 0.930 . S
H257 C254 0.928 . S
H258 C255 0.931 . S
H259 C235 0.930 . S
H260 C232 0.930 1_556 S
H261 C241 0.930 . S
H262 C253 0.929 . S
H263 C256 0.930 . S
C264 C265 1.351 . S
C264 N267 1.368 . S
C264 H269 0.931 1_565 S
C265 C264 1.351 . S
C265 N266 1.373 . S
C265 H293 0.930 . S
N266 C265 1.373 . S
N266 C268 1.340 . S
N267 C264 1.368 . S
N267 C268 1.321 . S
N267 Co270 2.135 1_565 S
C268 N266 1.340 . S
C268 N267 1.321 . S
C268 H292 0.930 . S
H269 C264 0.931 1_545 S
Co270 N267 2.135 1_545 S
Co270 N273 2.121 . S
Co270 O278 2.055 . S
Co270 O281 2.039 1_545 S
Co270 N284 2.140 . S
C271 O272 1.227 . S
C271 O281 1.265 . S
O272 C271 1.227 . S
N273 Co270 2.121 . S
N273 C275 1.375 . S
N273 C276 1.313 . S
C274 C275 1.338 . S
C274 N277 1.377 . S
C274 H294 0.930 . S
C275 N273 1.375 . S
C275 C274 1.338 . S
C275 H279 0.931 . S
C276 N273 1.313 . S
C276 N277 1.344 . S
C276 H280 0.930 . S
N277 C274 1.377 . S
N277 C276 1.344 . S
O278 Co270 2.055 . S
O278 C282 1.253 . S
H279 C275 0.931 . S
H280 C276 0.930 . S
O281 Co270 2.039 1_565 S
O281 C271 1.265 . S
C282 O278 1.253 . S
C282 O283 1.227 . S
O283 C282 1.227 . S
N284 Co270 2.140 . S
N284 C287 1.346 1_554 S
N284 C288 1.345 . S
C285 C286 1.387 . S
C285 C289 1.391 . S
C286 C285 1.387 . S
C286 C287 1.369 . S
C286 H295 0.929 . S
C287 N284 1.346 1_556 S
C287 C286 1.369 . S
C287 H290 0.928 . S
C288 N284 1.345 . S
C288 C289 1.371 1_554 S
C288 H291 0.931 . S
C289 C285 1.391 . S
C289 C288 1.371 1_556 S
C289 H296 0.930 . S
H290 C287 0.928 . S
H291 C288 0.931 . S
H292 C268 0.930 . S
H293 C265 0.930 . S
H294 C274 0.930 . S
H295 C286 0.929 . S
H296 C289 0.930 . S
C297 C298 1.351 . S
C297 N300 1.368 . S
C297 H302 0.931 . S
C298 C297 1.351 . S
C298 N299 1.373 . S
C298 H326 0.930 . S
N299 C298 1.373 . S
N299 C301 1.340 . S
N300 C297 1.368 . S
N300 C301 1.321 . S
N300 Co303 2.135 . S
C301 N299 1.340 . S
C301 N300 1.321 . S
C301 H325 0.930 . S
H302 C297 0.931 . S
Co303 N300 2.135 . S
Co303 N306 2.121 . S
Co303 O311 2.055 . S
Co303 O314 2.039 . S
Co303 N317 2.140 . S
C304 O305 1.227 . S
C304 O314 1.265 . S
O305 C304 1.227 . S
N306 Co303 2.121 . S
N306 C308 1.375 . S
N306 C309 1.313 . S
C307 C308 1.338 . S
C307 N310 1.377 . S
C307 H327 0.930 . S
C308 N306 1.375 . S
C308 C307 1.338 . S
C308 H312 0.931 . S
C309 N306 1.313 . S
C309 N310 1.344 . S
C309 H313 0.930 . S
N310 C307 1.377 . S
N310 C309 1.344 . S
O311 Co303 2.055 . S
O311 C315 1.253 . S
H312 C308 0.931 . S
H313 C309 0.930 . S
O314 Co303 2.039 . S
O314 C304 1.265 . S
C315 O311 1.253 . S
C315 O316 1.227 . S
O316 C315 1.227 . S
N317 Co303 2.140 . S
N317 C320 1.346 . S
N317 C321 1.345 . S
C318 C319 1.387 . S
C318 C322 1.391 . S
C319 C318 1.387 . S
C319 C320 1.369 . S
C319 H328 0.929 . S
C320 N317 1.346 . S
C320 C319 1.369 . S
C320 H323 0.928 . S
C321 N317 1.345 . S
C321 C322 1.371 . S
C321 H324 0.931 . S
C322 C318 1.391 . S
C322 C321 1.371 . S
C322 H329 0.930 . S
H323 C320 0.928 . S
H324 C321 0.931 . S
H325 C301 0.930 . S
H326 C298 0.930 . S
H327 C307 0.930 . S
H328 C319 0.929 . S
H329 C322 0.930 . S
C330 C331 1.351 . S
C330 N333 1.368 . S
C330 H335 0.931 . S
C331 C330 1.351 . S
C331 N332 1.373 . S
C331 H359 0.930 . S
N332 C331 1.373 . S
N332 C334 1.340 . S
N333 C330 1.368 . S
N333 C334 1.321 . S
N333 Co336 2.135 . S
C334 N332 1.340 . S
C334 N333 1.321 . S
C334 H358 0.930 . S
H335 C330 0.931 . S
Co336 N333 2.135 . S
Co336 N339 2.121 . S
Co336 O344 2.055 . S
Co336 O347 2.039 . S
Co336 N350 2.140 . S
C337 O338 1.227 . S
C337 O347 1.265 . S
O338 C337 1.227 . S
N339 Co336 2.121 . S
N339 C341 1.375 . S
N339 C342 1.313 1_545 S
C340 C341 1.338 1_565 S
C340 N343 1.377 . S
C340 H360 0.930 . S
C341 N339 1.375 . S
C341 C340 1.338 1_545 S
C341 H345 0.931 . S
C342 N339 1.313 1_565 S
C342 N343 1.344 . S
C342 H346 0.930 . S
N343 C340 1.377 . S
N343 C342 1.344 . S
O344 Co336 2.055 . S
O344 C348 1.253 . S
H345 C341 0.931 . S
H346 C342 0.930 . S
O347 Co336 2.039 . S
O347 C337 1.265 . S
C348 O344 1.253 . S
C348 O349 1.227 . S
O349 C348 1.227 . S
N350 Co336 2.140 . S
N350 C353 1.346 . S
N350 C354 1.345 1_545 S
C351 C352 1.387 1_565 S
C351 C355 1.391 . S
C352 C351 1.387 1_545 S
C352 C353 1.369 . S
C352 H361 0.929 . S
C353 N350 1.346 . S
C353 C352 1.369 . S
C353 H356 0.928 . S
C354 N350 1.345 1_565 S
C354 C355 1.371 . S
C354 H357 0.931 . S
C355 C351 1.391 . S
C355 C354 1.371 . S
C355 H362 0.930 . S
H356 C353 0.928 . S
H357 C354 0.931 . S
H358 C334 0.930 . S
H359 C331 0.930 . S
H360 C340 0.930 . S
H361 C352 0.929 . S
H362 C355 0.930 . S
C363 C364 1.351 . S
C363 N366 1.368 . S
C363 H368 0.931 . S
C364 C363 1.351 . S
C364 N365 1.373 . S
C364 H392 0.930 . S
N365 C364 1.373 . S
N365 C367 1.340 . S
N366 C363 1.368 . S
N366 C367 1.321 . S
N366 Co369 2.135 . S
C367 N365 1.340 . S
C367 N366 1.321 . S
C367 H391 0.930 . S
H368 C363 0.931 . S
Co369 N366 2.135 . S
Co369 N372 2.121 . S
Co369 O377 2.055 . S
Co369 O380 2.039 . S
Co369 N383 2.140 . S
C370 O371 1.227 . S
C370 O380 1.265 . S
O371 C370 1.227 . S
N372 Co369 2.121 . S
N372 C374 1.375 . S
N372 C375 1.313 . S
C373 C374 1.338 . S
C373 N376 1.377 . S
C373 H393 0.930 . S
C374 N372 1.375 . S
C374 C373 1.338 . S
C374 H378 0.931 . S
C375 N372 1.313 . S
C375 N376 1.344 . S
C375 H379 0.930 . S
N376 C373 1.377 . S
N376 C375 1.344 . S
O377 Co369 2.055 . S
O377 C381 1.253 . S
H378 C374 0.931 . S
H379 C375 0.930 . S
O380 Co369 2.039 . S
O380 C370 1.265 . S
C381 O377 1.253 . S
C381 O382 1.227 . S
O382 C381 1.227 . S
N383 Co369 2.140 . S
N383 C386 1.346 . S
N383 C387 1.345 . S
C384 C385 1.387 . S
C384 C388 1.391 . S
C385 C384 1.387 . S
C385 C386 1.369 . S
C385 H394 0.929 . S
C386 N383 1.346 . S
C386 C385 1.369 . S
C386 H389 0.928 . S
C387 N383 1.345 . S
C387 C388 1.371 . S
C387 H390 0.931 . S
C388 C384 1.391 . S
C388 C387 1.371 . S
C388 H395 0.930 . S
H389 C386 0.928 . S
H390 C387 0.931 . S
H391 C367 0.930 . S
H392 C364 0.930 . S
H393 C373 0.930 . S
H394 C385 0.929 . S
H395 C388 0.930 . S
C396 C397 1.351 . S
C396 N399 1.368 . S
C396 H401 0.931 . S
C397 C396 1.351 . S
C397 N398 1.373 . S
C397 H425 0.930 . S
N398 C397 1.373 . S
N398 C400 1.340 . S
N399 C396 1.368 . S
N399 C400 1.321 . S
N399 Co402 2.135 . S
C400 N398 1.340 . S
C400 N399 1.321 . S
C400 H424 0.930 . S
H401 C396 0.931 . S
Co402 N399 2.135 . S
Co402 N405 2.121 . S
Co402 O410 2.055 1_554 S
Co402 O413 2.039 . S
Co402 N416 2.140 . S
C403 O404 1.227 . S
C403 O413 1.265 . S
O404 C403 1.227 . S
N405 Co402 2.121 . S
N405 C407 1.375 . S
N405 C408 1.313 1_554 S
C406 C407 1.338 . S
C406 N409 1.377 1_554 S
C406 H426 0.930 . S
C407 N405 1.375 . S
C407 C406 1.338 . S
C407 H411 0.931 . S
C408 N405 1.313 1_556 S
C408 N409 1.344 . S
C408 H412 0.930 . S
N409 C406 1.377 1_556 S
N409 C408 1.344 . S
O410 Co402 2.055 1_556 S
O410 C414 1.253 . S
H411 C407 0.931 . S
H412 C408 0.930 . S
O413 Co402 2.039 . S
O413 C403 1.265 . S
C414 O410 1.253 . S
C414 O415 1.227 . S
O415 C414 1.227 . S
N416 Co402 2.140 . S
N416 C419 1.346 . S
N416 C420 1.345 . S
C417 C418 1.387 . S
C417 C421 1.391 . S
C418 C417 1.387 . S
C418 C419 1.369 . S
C418 H427 0.929 . S
C419 N416 1.346 . S
C419 C418 1.369 . S
C419 H422 0.928 . S
C420 N416 1.345 . S
C420 C421 1.371 . S
C420 H423 0.931 . S
C421 C417 1.391 . S
C421 C420 1.371 . S
C421 H428 0.930 . S
H422 C419 0.928 . S
H423 C420 0.931 . S
H424 C400 0.930 . S
H425 C397 0.930 . S
H426 C406 0.930 . S
H427 C418 0.929 . S
H428 C421 0.930 . S
C429 C430 1.351 . S
C429 N432 1.368 . S
C429 H434 0.931 . S
C430 C429 1.351 . S
C430 N431 1.373 . S
C430 H458 0.930 . S
N431 C430 1.373 . S
N431 C433 1.340 . S
N432 C429 1.368 . S
N432 C433 1.321 . S
N432 Co435 2.135 1_545 S
C433 N431 1.340 . S
C433 N432 1.321 . S
C433 H457 0.930 1_545 S
H434 C429 0.931 . S
Co435 N432 2.135 1_565 S
Co435 N438 2.121 . S
Co435 O443 2.055 . S
Co435 O446 2.039 . S
Co435 N449 2.140 . S
C436 O437 1.227 . S
C436 O446 1.265 . S
O437 C436 1.227 . S
N438 Co435 2.121 . S
N438 C440 1.375 . S
N438 C441 1.313 . S
C439 C440 1.338 . S
C439 N442 1.377 . S
C439 H459 0.930 . S
C440 N438 1.375 . S
C440 C439 1.338 . S
C440 H444 0.931 . S
C441 N438 1.313 . S
C441 N442 1.344 . S
C441 H445 0.930 . S
N442 C439 1.377 . S
N442 C441 1.344 . S
O443 Co435 2.055 . S
O443 C447 1.253 1_565 S
H444 C440 0.931 . S
H445 C441 0.930 . S
O446 Co435 2.039 . S
O446 C436 1.265 . S
C447 O443 1.253 1_545 S
C447 O448 1.227 . S
O448 C447 1.227 . S
N449 Co435 2.140 . S
N449 C452 1.346 . S
N449 C453 1.345 . S
C450 C451 1.391 . S
C450 C454 1.391 1_545 S
C451 C450 1.391 . S
C451 C452 1.360 1_545 S
C451 H460 0.937 . S
C452 N449 1.346 . S
C452 C451 1.360 1_565 S
C452 H455 0.928 . S
C453 N449 1.345 . S
C453 C454 1.371 . S
C453 H456 0.931 . S
C454 C450 1.391 1_565 S
C454 C453 1.371 . S
C454 H461 0.930 . S
H455 C452 0.928 . S
H456 C453 0.931 . S
H457 C433 0.930 1_565 S
H458 C430 0.930 . S
H459 C439 0.930 . S
H460 C451 0.937 . S
H461 C454 0.930 . S
C462 C463 1.351 . S
C462 N465 1.368 . S
C462 H467 0.931 . S
C463 C462 1.351 . S
C463 N464 1.373 . S
C463 H491 0.930 . S
N464 C463 1.373 . S
N464 C466 1.340 . S
N465 C462 1.368 . S
N465 C466 1.321 . S
N465 Co468 2.135 . S
C466 N464 1.340 . S
C466 N465 1.321 . S
C466 H490 0.930 . S
H467 C462 0.931 . S
Co468 N465 2.135 . S
Co468 N471 2.121 . S
Co468 O476 2.055 . S
Co468 O479 2.039 . S
Co468 N482 2.140 . S
C469 O470 1.227 . S
C469 O479 1.265 . S
O470 C469 1.227 . S
N471 Co468 2.121 . S
N471 C473 1.375 . S
N471 C474 1.313 . S
C472 C473 1.338 . S
C472 N475 1.377 . S
C472 H492 0.930 . S
C473 N471 1.375 . S
C473 C472 1.338 . S
C473 H477 0.931 . S
C474 N471 1.313 . S
C474 N475 1.344 . S
C474 H478 0.930 . S
N475 C472 1.377 . S
N475 C474 1.344 . S
O476 Co468 2.055 . S
O476 C480 1.253 . S
H477 C473 0.931 . S
H478 C474 0.930 . S
O479 Co468 2.039 . S
O479 C469 1.265 . S
C480 O476 1.253 . S
C480 O481 1.227 . S
O481 C480 1.227 . S
N482 Co468 2.140 . S
N482 C485 1.346 . S
N482 C486 1.345 . S
C483 C484 1.387 . S
C483 C487 1.391 . S
C484 C483 1.387 . S
C484 C485 1.369 . S
C484 H493 0.929 . S
C485 N482 1.346 . S
C485 C484 1.369 . S
C485 H488 0.928 . S
C486 N482 1.345 . S
C486 C487 1.371 . S
C486 H489 0.931 . S
C487 C483 1.391 . S
C487 C486 1.371 . S
C487 H494 0.930 . S
H488 C485 0.928 . S
H489 C486 0.931 . S
H490 C466 0.930 . S
H491 C463 0.930 . S
H492 C472 0.930 . S
H493 C484 0.929 . S
H494 C487 0.930 . S
C495 C496 1.351 . S
C495 N498 1.368 . S
C495 H500 0.931 . S
C496 C495 1.351 . S
C496 N497 1.373 . S
C496 H524 0.930 1_545 S
N497 C496 1.373 . S
N497 C499 1.340 . S
N498 C495 1.368 . S
N498 C499 1.321 . S
N498 Co501 2.135 . S
C499 N497 1.340 . S
C499 N498 1.321 . S
C499 H523 0.930 . S
H500 C495 0.931 . S
Co501 N498 2.135 . S
Co501 N504 2.121 . S
Co501 O509 2.055 . S
Co501 O512 2.039 . S
Co501 N515 2.140 . S
C502 O503 1.227 . S
C502 O512 1.265 . S
O503 C502 1.227 . S
N504 Co501 2.121 . S
N504 C506 1.375 . S
N504 C507 1.313 . S
C505 C506 1.338 . S
C505 N508 1.377 . S
C505 H525 0.930 . S
C506 N504 1.375 . S
C506 C505 1.338 . S
C506 H510 0.931 . S
C507 N504 1.313 . S
C507 N508 1.344 . S
C507 H511 0.930 . S
N508 C505 1.377 . S
N508 C507 1.344 . S
O509 Co501 2.055 . S
O509 C513 1.253 . S
H510 C506 0.931 . S
H511 C507 0.930 . S
O512 Co501 2.039 . S
O512 C502 1.265 . S
C513 O509 1.253 . S
C513 O514 1.227 . S
O514 C513 1.227 . S
N515 Co501 2.140 . S
N515 C518 1.346 . S
N515 C519 1.345 . S
C516 C517 1.387 . S
C516 C520 1.391 . S
C517 C516 1.387 . S
C517 C518 1.369 . S
C517 H526 0.929 . S
C518 N515 1.346 . S
C518 C517 1.369 . S
C518 H521 0.928 . S
C519 N515 1.345 . S
C519 C520 1.371 . S
C519 H522 0.931 . S
C520 C516 1.391 . S
C520 C519 1.371 . S
C520 H527 0.930 . S
H521 C518 0.928 . S
H522 C519 0.931 . S
H523 C499 0.930 . S
H524 C496 0.930 1_565 S
H525 C505 0.930 . S
H526 C517 0.929 . S
H527 C520 0.930 . S
C528 C529 1.351 . S
C528 N531 1.368 . S
C528 H533 0.931 1_556 S
C529 C528 1.351 . S
C529 N530 1.373 . S
C529 H557 0.930 . S
N530 C529 1.373 . S
N530 C532 1.340 . S
N531 C528 1.368 . S
N531 C532 1.321 . S
N531 Co534 2.135 1_556 S
C532 N530 1.340 . S
C532 N531 1.321 . S
C532 H556 0.930 . S
H533 C528 0.931 1_554 S
Co534 N531 2.135 1_554 S
Co534 N537 2.121 . S
Co534 O542 2.055 . S
Co534 O545 2.039 1_554 S
Co534 N548 2.140 . S
C535 O536 1.227 . S
C535 O545 1.265 . S
O536 C535 1.227 . S
N537 Co534 2.121 . S
N537 C539 1.375 . S
N537 C540 1.313 . S
C538 C539 1.338 . S
C538 N541 1.377 . S
C538 H558 0.930 . S
C539 N537 1.375 . S
C539 C538 1.338 . S
C539 H543 0.931 . S
C540 N537 1.313 . S
C540 N541 1.344 . S
C540 H544 0.930 . S
N541 C538 1.377 . S
N541 C540 1.344 . S
O542 Co534 2.055 . S
O542 C546 1.253 . S
H543 C539 0.931 . S
H544 C540 0.930 . S
O545 Co534 2.039 1_556 S
O545 C535 1.265 . S
C546 O542 1.253 . S
C546 O547 1.227 . S
O547 C546 1.227 . S
N548 Co534 2.140 . S
N548 C551 1.346 1_455 S
N548 C552 1.345 . S
C549 C550 1.387 . S
C549 C553 1.391 . S
C550 C549 1.387 . S
C550 C551 1.369 . S
C550 H559 0.929 . S
C551 N548 1.346 1_655 S
C551 C550 1.369 . S
C551 H554 0.928 . S
C552 N548 1.345 . S
C552 C553 1.371 1_455 S
C552 H555 0.931 . S
C553 C549 1.391 . S
C553 C552 1.371 1_655 S
C553 H560 0.930 . S
H554 C551 0.928 . S
H555 C552 0.931 . S
H556 C532 0.930 . S
H557 C529 0.930 . S
H558 C538 0.930 . S
H559 C550 0.929 . S
H560 C553 0.930 . S
C561 C562 1.351 . S
C561 N564 1.368 . S
C561 H566 0.931 . S
C562 C561 1.351 . S
C562 N563 1.373 . S
C562 H590 0.930 . S
N563 C562 1.373 . S
N563 C565 1.340 . S
N564 C561 1.368 . S
N564 C565 1.321 . S
N564 Co567 2.135 . S
C565 N563 1.340 . S
C565 N564 1.321 . S
C565 H589 0.930 . S
H566 C561 0.931 . S
Co567 N564 2.135 . S
Co567 N570 2.121 . S
Co567 O575 2.055 . S
Co567 O578 2.039 . S
Co567 N581 2.140 . S
C568 O569 1.227 . S
C568 O578 1.265 . S
O569 C568 1.227 . S
N570 Co567 2.121 . S
N570 C572 1.375 . S
N570 C573 1.313 1_554 S
C571 C572 1.338 1_556 S
C571 N574 1.377 . S
C571 H591 0.930 . S
C572 N570 1.375 . S
C572 C571 1.338 1_554 S
C572 H576 0.931 . S
C573 N570 1.313 1_556 S
C573 N574 1.344 . S
C573 H577 0.930 . S
N574 C571 1.377 . S
N574 C573 1.344 . S
O575 Co567 2.055 . S
O575 C579 1.253 . S
H576 C572 0.931 . S
H577 C573 0.930 . S
O578 Co567 2.039 . S
O578 C568 1.265 . S
C579 O575 1.253 . S
C579 O580 1.227 . S
O580 C579 1.227 . S
N581 Co567 2.140 . S
N581 C584 1.346 . S
N581 C585 1.345 1_554 S
C582 C583 1.387 1_556 S
C582 C586 1.391 . S
C583 C582 1.387 1_554 S
C583 C584 1.369 . S
C583 H592 0.929 . S
C584 N581 1.346 . S
C584 C583 1.369 . S
C584 H587 0.928 . S
C585 N581 1.345 1_556 S
C585 C586 1.371 . S
C585 H588 0.931 . S
C586 C582 1.391 . S
C586 C585 1.371 . S
C586 H593 0.930 . S
H587 C584 0.928 . S
H588 C585 0.931 . S
H589 C565 0.930 . S
H590 C562 0.930 . S
H591 C571 0.930 . S
H592 C583 0.929 . S
H593 C586 0.930 . S
C594 C595 1.351 . S
C594 N597 1.368 . S
C594 H599 0.931 . S
C595 C594 1.351 . S
C595 N596 1.373 . S
C595 H623 0.930 . S
N596 C595 1.373 . S
N596 C598 1.340 . S
N597 C594 1.368 . S
N597 C598 1.321 . S
N597 Co600 2.135 . S
C598 N596 1.340 . S
C598 N597 1.321 . S
C598 H622 0.930 . S
H599 C594 0.931 . S
Co600 N597 2.135 . S
Co600 N603 2.121 . S
Co600 O608 2.055 . S
Co600 O611 2.039 . S
Co600 N614 2.140 . S
C601 O602 1.227 . S
C601 O611 1.265 . S
O602 C601 1.227 . S
N603 Co600 2.121 . S
N603 C605 1.375 . S
N603 C606 1.313 . S
C604 C605 1.338 . S
C604 N607 1.377 . S
C604 H624 0.930 . S
C605 N603 1.375 . S
C605 C604 1.338 . S
C605 H609 0.931 . S
C606 N603 1.313 . S
C606 N607 1.344 . S
C606 H610 0.930 . S
N607 C604 1.377 . S
N607 C606 1.344 . S
O608 Co600 2.055 . S
O608 C612 1.253 . S
H609 C605 0.931 . S
H610 C606 0.930 . S
O611 Co600 2.039 . S
O611 C601 1.265 . S
C612 O608 1.253 . S
C612 O613 1.227 . S
O613 C612 1.227 . S
N614 Co600 2.140 . S
N614 C617 1.346 . S
N614 C618 1.345 . S
C615 C616 1.387 . S
C615 C619 1.391 . S
C616 C615 1.387 . S
C616 C617 1.369 . S
C616 H625 0.929 . S
C617 N614 1.346 . S
C617 C616 1.369 . S
C617 H620 0.928 . S
C618 N614 1.345 . S
C618 C619 1.371 . S
C618 H621 0.931 . S
C619 C615 1.391 . S
C619 C618 1.371 . S
C619 H626 0.930 . S
H620 C617 0.928 . S
H621 C618 0.931 . S
H622 C598 0.930 . S
H623 C595 0.930 . S
H624 C604 0.930 . S
H625 C616 0.929 . S
H626 C619 0.930 . S
C627 C628 1.351 . S
C627 N630 1.368 . S
C627 H632 0.931 . S
C628 C627 1.351 . S
C628 N629 1.373 . S
C628 H656 0.930 . S
N629 C628 1.373 . S
N629 C631 1.340 . S
N630 C627 1.368 . S
N630 C631 1.321 . S
N630 Co633 2.135 . S
C631 N629 1.340 . S
C631 N630 1.321 . S
C631 H655 0.930 . S
H632 C627 0.931 . S
Co633 N630 2.135 . S
Co633 N636 2.121 . S
Co633 O641 2.055 1_455 S
Co633 O644 2.039 . S
Co633 N647 2.140 . S
C634 O635 1.227 . S
C634 O644 1.265 . S
O635 C634 1.227 . S
N636 Co633 2.121 . S
N636 C638 1.375 . S
N636 C639 1.313 1_455 S
C637 C638 1.338 . S
C637 N640 1.377 1_455 S
C637 H657 0.930 . S
C638 N636 1.375 . S
C638 C637 1.338 . S
C638 H642 0.931 . S
C639 N636 1.313 1_655 S
C639 N640 1.344 . S
C639 H643 0.930 . S
N640 C637 1.377 1_655 S
N640 C639 1.344 . S
O641 Co633 2.055 1_655 S
O641 C645 1.253 . S
H642 C638 0.931 . S
H643 C639 0.930 . S
O644 Co633 2.039 . S
O644 C634 1.265 . S
C645 O641 1.253 . S
C645 O646 1.227 . S
O646 C645 1.227 . S
N647 Co633 2.140 . S
N647 C650 1.346 . S
N647 C651 1.345 . S
C648 C649 1.387 . S
C648 C652 1.391 . S
C649 C648 1.387 . S
C649 C650 1.369 . S
C649 H658 0.929 . S
C650 N647 1.346 . S
C650 C649 1.369 . S
C650 H653 0.928 . S
C651 N647 1.345 . S
C651 C652 1.371 . S
C651 H654 0.931 . S
C652 C648 1.391 . S
C652 C651 1.371 . S
C652 H659 0.930 . S
H653 C650 0.928 . S
H654 C651 0.931 . S
H655 C631 0.930 . S
H656 C628 0.930 . S
H657 C637 0.930 . S
H658 C649 0.929 . S
H659 C652 0.930 . S
C660 C661 1.351 . S
C660 N663 1.368 . S
C660 H665 0.931 . S
C661 C660 1.351 . S
C661 N662 1.373 . S
C661 H689 0.930 1_455 S
N662 C661 1.373 . S
N662 C664 1.340 . S
N663 C660 1.368 . S
N663 C664 1.321 . S
N663 Co666 2.135 . S
C664 N662 1.340 . S
C664 N663 1.321 . S
C664 H688 0.930 . S
H665 C660 0.931 . S
Co666 N663 2.135 . S
Co666 N669 2.121 . S
Co666 O674 2.055 . S
Co666 O677 2.039 . S
Co666 N680 2.140 . S
C667 O668 1.227 . S
C667 O677 1.265 . S
O668 C667 1.227 . S
N669 Co666 2.121 . S
N669 C671 1.375 . S
N669 C672 1.313 . S
C670 C671 1.338 . S
C670 N673 1.377 . S
C670 H690 0.930 . S
C671 N669 1.375 . S
C671 C670 1.338 . S
C671 H675 0.931 . S
C672 N669 1.313 . S
C672 N673 1.344 . S
C672 H676 0.930 . S
N673 C670 1.377 . S
N673 C672 1.344 . S
O674 Co666 2.055 . S
O674 C678 1.253 . S
H675 C671 0.931 . S
H676 C672 0.930 . S
O677 Co666 2.039 . S
O677 C667 1.265 . S
C678 O674 1.253 . S
C678 O679 1.227 . S
O679 C678 1.227 . S
N680 Co666 2.140 . S
N680 C683 1.346 . S
N680 C684 1.345 . S
C681 C682 1.387 . S
C681 C685 1.391 . S
C682 C681 1.387 . S
C682 C683 1.369 . S
C682 H691 0.929 . S
C683 N680 1.346 . S
C683 C682 1.369 . S
C683 H686 0.928 . S
C684 N680 1.345 . S
C684 C685 1.371 . S
C684 H687 0.931 . S
C685 C681 1.391 . S
C685 C684 1.371 . S
C685 H692 0.930 . S
H686 C683 0.928 . S
H687 C684 0.931 . S
H688 C664 0.930 . S
H689 C661 0.930 1_655 S
H690 C670 0.930 . S
H691 C682 0.929 . S
H692 C685 0.930 . S
C693 C694 1.351 . S
C693 N696 1.368 . S
C693 H698 0.931 . S
C694 C693 1.351 . S
C694 N695 1.373 . S
C694 H722 0.930 . S
N695 C694 1.373 . S
N695 C697 1.340 . S
N696 C693 1.368 . S
N696 C697 1.321 . S
N696 Co699 2.135 . S
C697 N695 1.340 . S
C697 N696 1.321 . S
C697 H721 0.930 . S
H698 C693 0.931 . S
Co699 N696 2.135 . S
Co699 N702 2.121 . S
Co699 O707 2.055 . S
Co699 O710 2.039 . S
Co699 N713 2.140 . S
C700 O701 1.227 . S
C700 O710 1.265 . S
O701 C700 1.227 . S
N702 Co699 2.121 . S
N702 C704 1.375 . S
N702 C705 1.313 . S
C703 C704 1.338 . S
C703 N706 1.377 . S
C703 H723 0.930 . S
C704 N702 1.375 . S
C704 C703 1.338 . S
C704 H708 0.931 . S
C705 N702 1.313 . S
C705 N706 1.344 . S
C705 H709 0.930 . S
N706 C703 1.377 . S
N706 C705 1.344 . S
O707 Co699 2.055 . S
O707 C711 1.253 . S
H708 C704 0.931 . S
H709 C705 0.930 . S
O710 Co699 2.039 . S
O710 C700 1.265 . S
C711 O707 1.253 . S
C711 O712 1.227 . S
O712 C711 1.227 . S
N713 Co699 2.140 . S
N713 C716 1.346 . S
N713 C717 1.345 . S
C714 C715 1.387 . S
C714 C718 1.391 . S
C715 C714 1.387 . S
C715 C716 1.369 . S
C715 H724 0.929 . S
C716 N713 1.346 . S
C716 C715 1.369 . S
C716 H719 0.928 . S
C717 N713 1.345 . S
C717 C718 1.371 . S
C717 H720 0.931 . S
C718 C714 1.391 . S
C718 C717 1.371 . S
C718 H725 0.930 . S
H719 C716 0.928 . S
H720 C717 0.931 . S
H721 C697 0.930 . S
H722 C694 0.930 . S
H723 C703 0.930 . S
H724 C715 0.929 . S
H725 C718 0.930 . S
C726 C727 1.351 . S
C726 N729 1.368 . S
C726 H731 0.931 . S
C727 C726 1.351 . S
C727 N728 1.373 . S
C727 H755 0.930 . S
N728 C727 1.373 . S
N728 C730 1.340 . S
N729 C726 1.368 . S
N729 C730 1.321 . S
N729 Co732 2.135 1_455 S
C730 N728 1.340 . S
C730 N729 1.321 . S
C730 H754 0.930 1_455 S
H731 C726 0.931 . S
Co732 N729 2.135 1_655 S
Co732 N735 2.121 . S
Co732 O740 2.055 . S
Co732 O743 2.039 . S
Co732 N746 2.140 . S
C733 O734 1.227 . S
C733 O743 1.265 . S
O734 C733 1.227 . S
N735 Co732 2.121 . S
N735 C737 1.375 . S
N735 C738 1.313 . S
C736 C737 1.338 . S
C736 N739 1.377 . S
C736 H756 0.930 . S
C737 N735 1.375 . S
C737 C736 1.338 . S
C737 H741 0.931 . S
C738 N735 1.313 . S
C738 N739 1.344 . S
C738 H742 0.930 . S
N739 C736 1.377 . S
N739 C738 1.344 . S
O740 Co732 2.055 . S
O740 C744 1.253 1_655 S
H741 C737 0.931 . S
H742 C738 0.930 . S
O743 Co732 2.039 . S
O743 C733 1.265 . S
C744 O740 1.253 1_455 S
C744 O745 1.227 . S
O745 C744 1.227 . S
N746 Co732 2.140 . S
N746 C749 1.346 . S
N746 C750 1.345 . S
C747 C748 1.391 . S
C747 C751 1.391 1_455 S
C748 C747 1.391 . S
C748 C749 1.360 1_455 S
C748 H757 0.937 . S
C749 N746 1.346 . S
C749 C748 1.360 1_655 S
C749 H752 0.928 . S
C750 N746 1.345 . S
C750 C751 1.371 . S
C750 H753 0.931 . S
C751 C747 1.391 1_655 S
C751 C750 1.371 . S
C751 H758 0.930 . S
H752 C749 0.928 . S
H753 C750 0.931 . S
H754 C730 0.930 1_655 S
H755 C727 0.930 . S
H756 C736 0.930 . S
H757 C748 0.937 . S
H758 C751 0.930 . S
C759 C760 1.351 . S
C759 N762 1.368 . S
C759 H764 0.931 . S
C760 C759 1.351 . S
C760 N761 1.373 . S
C760 H788 0.930 . S
N761 C760 1.373 . S
N761 C763 1.340 . S
N762 C759 1.368 . S
N762 C763 1.321 . S
N762 Co765 2.135 . S
C763 N761 1.340 . S
C763 N762 1.321 . S
C763 H787 0.930 . S
H764 C759 0.931 . S
Co765 N762 2.135 . S
Co765 N768 2.121 . S
Co765 O773 2.055 . S
Co765 O776 2.039 . S
Co765 N779 2.140 . S
C766 O767 1.227 . S
C766 O776 1.265 . S
O767 C766 1.227 . S
N768 Co765 2.121 . S
N768 C770 1.375 . S
N768 C771 1.313 . S
C769 C770 1.338 . S
C769 N772 1.377 . S
C769 H789 0.930 . S
C770 N768 1.375 . S
C770 C769 1.338 . S
C770 H774 0.931 . S
C771 N768 1.313 . S
C771 N772 1.344 . S
C771 H775 0.930 . S
N772 C769 1.377 . S
N772 C771 1.344 . S
O773 Co765 2.055 . S
O773 C777 1.253 . S
H774 C770 0.931 . S
H775 C771 0.930 . S
O776 Co765 2.039 . S
O776 C766 1.265 . S
C777 O773 1.253 . S
C777 O778 1.227 . S
O778 C777 1.227 . S
N779 Co765 2.140 . S
N779 C782 1.346 . S
N779 C783 1.345 . S
C780 C781 1.387 . S
C780 C784 1.391 . S
C781 C780 1.387 . S
C781 C782 1.369 . S
C781 H790 0.929 . S
C782 N779 1.346 . S
C782 C781 1.369 . S
C782 H785 0.928 . S
C783 N779 1.345 . S
C783 C784 1.371 . S
C783 H786 0.931 . S
C784 C780 1.391 . S
C784 C783 1.371 . S
C784 H791 0.930 . S
H785 C782 0.928 . S
H786 C783 0.931 . S
H787 C763 0.930 . S
H788 C760 0.930 . S
H789 C769 0.930 . S
H790 C781 0.929 . S
H791 C784 0.930 . S
C792 C793 1.369 . S
C792 C794 1.419 . S
C792 H796 0.930 . S
C793 C792 1.369 . S
C793 C802 1.429 . S
C794 C792 1.419 . S
C794 C795 1.363 . S
C794 H797 0.929 . S
C795 C794 1.363 . S
C795 C801 1.428 . S
H796 C792 0.930 . S
H797 C794 0.929 . S
S798 N799 1.613 . S
S798 N800 1.610 . S
N799 S798 1.613 . S
N799 C802 1.350 . S
N800 S798 1.610 . S
N800 C801 1.351 . S
C801 C795 1.428 . S
C801 N800 1.351 . S
C801 C802 1.434 . S
C802 C793 1.429 . S
C802 N799 1.350 . S
C802 C801 1.434 . S
C803 C804 1.369 1_554 S
C803 C805 1.419 . S
C803 H807 0.930 . S
C804 C803 1.369 1_556 S
C804 C813 1.429 . S
C805 C803 1.419 . S
C805 C806 1.363 . S
C805 H808 0.929 . S
C806 C805 1.363 . S
C806 C812 1.428 1_554 S
H807 C803 0.930 . S
H808 C805 0.929 . S
S809 N810 1.613 . S
S809 N811 1.610 . S
N810 S809 1.613 . S
N810 C813 1.350 . S
N811 S809 1.610 . S
N811 C812 1.351 . S
C812 C806 1.428 1_556 S
C812 N811 1.351 . S
C812 C813 1.434 . S
C813 C804 1.429 . S
C813 N810 1.350 . S
C813 C812 1.434 . S
C814 C815 1.369 . S
C814 C816 1.419 . S
C814 H818 0.930 . S
C815 C814 1.369 . S
C815 C824 1.429 . S
C816 C814 1.419 . S
C816 C817 1.363 . S
C816 H819 0.929 . S
C817 C816 1.363 . S
C817 C823 1.428 . S
H818 C814 0.930 . S
H819 C816 0.929 . S
S820 N821 1.613 . S
S820 N822 1.610 . S
N821 S820 1.613 . S
N821 C824 1.350 . S
N822 S820 1.610 . S
N822 C823 1.351 . S
C823 C817 1.428 . S
C823 N822 1.351 . S
C823 C824 1.434 . S
C824 C815 1.429 . S
C824 N821 1.350 . S
C824 C823 1.434 . S
C825 C826 1.369 . S
C825 C827 1.419 . S
C825 H829 0.930 . S
C826 C825 1.369 . S
C826 C835 1.429 . S
C827 C825 1.419 . S
C827 C828 1.363 . S
C827 H830 0.929 . S
C828 C827 1.363 . S
C828 C834 1.428 . S
H829 C825 0.930 . S
H830 C827 0.929 . S
S831 N832 1.613 . S
S831 N833 1.610 . S
N832 S831 1.613 . S
N832 C835 1.350 . S
N833 S831 1.610 . S
N833 C834 1.351 . S
C834 C828 1.428 . S
C834 N833 1.351 . S
C834 C835 1.434 . S
C835 C826 1.429 . S
C835 N832 1.350 . S
C835 C834 1.434 . S
C836 C837 1.369 . S
C836 C838 1.419 . S
C836 H840 0.930 . S
C837 C836 1.369 . S
C837 C846 1.429 . S
C838 C836 1.419 . S
C838 C839 1.363 . S
C838 H841 0.929 . S
C839 C838 1.363 . S
C839 C845 1.428 . S
H840 C836 0.930 . S
H841 C838 0.929 . S
S842 N843 1.613 . S
S842 N844 1.610 . S
N843 S842 1.613 . S
N843 C846 1.350 . S
N844 S842 1.610 . S
N844 C845 1.351 . S
C845 C839 1.428 . S
C845 N844 1.351 . S
C845 C846 1.434 . S
C846 C837 1.429 . S
C846 N843 1.350 . S
C846 C845 1.434 . S
C847 C848 1.369 . S
C847 C849 1.419 . S
C847 H851 0.930 . S
C848 C847 1.369 . S
C848 C857 1.429 . S
C849 C847 1.419 . S
C849 C850 1.363 . S
C849 H852 0.929 . S
C850 C849 1.363 . S
C850 C856 1.428 . S
H851 C847 0.930 . S
H852 C849 0.929 . S
S853 N854 1.613 . S
S853 N855 1.610 . S
N854 S853 1.613 . S
N854 C857 1.350 . S
N855 S853 1.610 . S
N855 C856 1.351 . S
C856 C850 1.428 . S
C856 N855 1.351 . S
C856 C857 1.434 . S
C857 C848 1.429 . S
C857 N854 1.350 . S
C857 C856 1.434 . S
C858 C859 1.369 . S
C858 C860 1.419 . S
C858 H862 0.930 . S
C859 C858 1.369 . S
C859 C868 1.429 1_455 S
C860 C858 1.419 . S
C860 C861 1.363 1_455 S
C860 H863 0.929 . S
C861 C860 1.363 1_655 S
C861 C867 1.428 . S
H862 C858 0.930 . S
H863 C860 0.929 . S
S864 N865 1.613 . S
S864 N866 1.610 . S
N865 S864 1.613 . S
N865 C868 1.350 . S
N866 S864 1.610 . S
N866 C867 1.351 . S
C867 C861 1.428 . S
C867 N866 1.351 . S
C867 C868 1.434 . S
C868 C859 1.429 1_655 S
C868 N865 1.350 . S
C868 C867 1.434 . S
C869 C870 1.369 . S
C869 C871 1.419 . S
C869 H873 0.930 . S
C870 C869 1.369 . S
C870 C879 1.429 . S
C871 C869 1.419 . S
C871 C872 1.363 . S
C871 H874 0.929 . S
C872 C871 1.363 . S
C872 C878 1.428 . S
H873 C869 0.930 . S
H874 C871 0.929 . S
S875 N876 1.613 . S
S875 N877 1.610 . S
N876 S875 1.613 . S
N876 C879 1.350 . S
N877 S875 1.610 . S
N877 C878 1.351 . S
C878 C872 1.428 . S
C878 N877 1.351 . S
C878 C879 1.434 . S
C879 C870 1.429 . S
C879 N876 1.350 . S
C879 C878 1.434 . S
C880 C881 1.369 . S
C880 C882 1.419 . S
C880 H884 0.930 . S
C881 C880 1.369 . S
C881 C890 1.429 . S
C882 C880 1.419 . S
C882 C883 1.363 . S
C882 H885 0.929 . S
C883 C882 1.363 . S
C883 C889 1.428 . S
H884 C880 0.930 . S
H885 C882 0.929 . S
S886 N887 1.613 . S
S886 N888 1.610 . S
N887 S886 1.613 . S
N887 C890 1.350 . S
N888 S886 1.610 . S
N888 C889 1.351 . S
C889 C883 1.428 . S
C889 N888 1.351 . S
C889 C890 1.434 . S
C890 C881 1.429 . S
C890 N887 1.350 . S
C890 C889 1.434 . S
C891 C892 1.369 . S
C891 C893 1.419 . S
C891 H895 0.930 . S
C892 C891 1.369 . S
C892 C901 1.429 . S
C893 C891 1.419 . S
C893 C894 1.363 . S
C893 H896 0.929 . S
C894 C893 1.363 . S
C894 C900 1.428 . S
H895 C891 0.930 . S
H896 C893 0.929 . S
S897 N898 1.613 . S
S897 N899 1.610 . S
N898 S897 1.613 . S
N898 C901 1.350 . S
N899 S897 1.610 . S
N899 C900 1.351 . S
C900 C894 1.428 . S
C900 N899 1.351 . S
C900 C901 1.434 . S
C901 C892 1.429 . S
C901 N898 1.350 . S
C901 C900 1.434 . S
C902 C903 1.369 . S
C902 C904 1.419 . S
C902 H906 0.930 . S
C903 C902 1.369 . S
C903 C912 1.429 1_565 S
C904 C902 1.419 . S
C904 C905 1.363 1_565 S
C904 H907 0.929 . S
C905 C904 1.363 1_545 S
C905 C911 1.428 . S
H906 C902 0.930 . S
H907 C904 0.929 . S
S908 N909 1.613 . S
S908 N910 1.610 . S
N909 S908 1.613 . S
N909 C912 1.350 . S
N910 S908 1.610 . S
N910 C911 1.351 . S
C911 C905 1.428 . S
C911 N910 1.351 . S
C911 C912 1.434 . S
C912 C903 1.429 1_545 S
C912 N909 1.350 . S
C912 C911 1.434 . S
C913 C914 1.369 . S
C913 C915 1.419 . S
C913 H917 0.930 . S
C914 C913 1.369 . S
C914 C923 1.429 . S
C915 C913 1.419 . S
C915 C916 1.363 . S
C915 H918 0.929 . S
C916 C915 1.363 . S
C916 C922 1.428 . S
H917 C913 0.930 . S
H918 C915 0.929 . S
S919 N920 1.613 . S
S919 N921 1.610 . S
N920 S919 1.613 . S
N920 C923 1.350 . S
N921 S919 1.610 . S
N921 C922 1.351 . S
C922 C916 1.428 . S
C922 N921 1.351 . S
C922 C923 1.434 . S
C923 C914 1.429 . S
C923 N920 1.350 . S
C923 C922 1.434 . S
C924 C925 1.369 . S
C924 C926 1.419 . S
C924 H928 0.930 . S
C925 C924 1.369 . S
C925 C934 1.429 . S
C926 C924 1.419 . S
C926 C927 1.363 . S
C926 H929 0.929 . S
C927 C926 1.363 . S
C927 C933 1.428 . S
H928 C924 0.930 . S
H929 C926 0.929 . S
S930 N931 1.613 . S
S930 N932 1.610 . S
N931 S930 1.613 . S
N931 C934 1.350 . S
N932 S930 1.610 . S
N932 C933 1.351 . S
C933 C927 1.428 . S
C933 N932 1.351 . S
C933 C934 1.434 . S
C934 C925 1.429 . S
C934 N931 1.350 . S
C934 C933 1.434 . S
C935 C936 1.369 . S
C935 C937 1.419 . S
C935 H939 0.930 . S
C936 C935 1.369 . S
C936 C945 1.429 . S
C937 C935 1.419 . S
C937 C938 1.363 . S
C937 H940 0.929 . S
C938 C937 1.363 . S
C938 C944 1.428 . S
H939 C935 0.930 . S
H940 C937 0.929 . S
S941 N942 1.613 . S
S941 N943 1.610 . S
N942 S941 1.613 . S
N942 C945 1.350 . S
N943 S941 1.610 . S
N943 C944 1.351 . S
C944 C938 1.428 . S
C944 N943 1.351 . S
C944 C945 1.434 . S
C945 C936 1.429 . S
C945 N942 1.350 . S
C945 C944 1.434 . S
C946 C947 1.369 . S
C946 C948 1.419 . S
C946 H950 0.930 . S
C947 C946 1.369 . S
C947 C956 1.429 . S
C948 C946 1.419 . S
C948 C949 1.363 . S
C948 H951 0.929 . S
C949 C948 1.363 . S
C949 C955 1.428 . S
H950 C946 0.930 . S
H951 C948 0.929 . S
S952 N953 1.613 . S
S952 N954 1.610 . S
N953 S952 1.613 . S
N953 C956 1.350 . S
N954 S952 1.610 . S
N954 C955 1.351 . S
C955 C949 1.428 . S
C955 N954 1.351 . S
C955 C956 1.434 . S
C956 C947 1.429 . S
C956 N953 1.350 . S
C956 C955 1.434 . S
C957 C958 1.369 . S
C957 C959 1.419 . S
C957 H961 0.930 . S
C958 C957 1.369 . S
C958 C967 1.429 . S
C959 C957 1.419 . S
C959 C960 1.363 . S
C959 H962 0.929 . S
C960 C959 1.363 . S
C960 C966 1.428 . S
H961 C957 0.930 . S
H962 C959 0.929 . S
S963 N964 1.613 . S
S963 N965 1.610 . S
N964 S963 1.613 . S
N964 C967 1.350 . S
N965 S963 1.610 . S
N965 C966 1.351 . S
C966 C960 1.428 . S
C966 N965 1.351 . S
C966 C967 1.434 . S
C967 C958 1.429 . S
C967 N964 1.350 . S
C967 C966 1.434 . S
C968 C969 1.369 . S
C968 C970 1.419 . S
C968 H972 0.930 . S
C969 C968 1.369 . S
C969 C978 1.429 . S
C970 C968 1.419 . S
C970 C971 1.363 . S
C970 H973 0.929 . S
C971 C970 1.363 . S
C971 C977 1.428 . S
H972 C968 0.930 . S
H973 C970 0.929 . S
S974 N975 1.613 . S
S974 N976 1.610 . S
N975 S974 1.613 . S
N975 C978 1.350 . S
N976 S974 1.610 . S
N976 C977 1.351 . S
C977 C971 1.428 . S
C977 N976 1.351 . S
C977 C978 1.434 . S
C978 C969 1.429 . S
C978 N975 1.350 . S
C978 C977 1.434 . S
C979 C980 1.369 . S
C979 C981 1.419 . S
C979 H983 0.930 . S
C980 C979 1.369 . S
C980 C989 1.429 . S
C981 C979 1.419 . S
C981 C982 1.363 . S
C981 H984 0.929 . S
C982 C981 1.363 . S
C982 C988 1.428 . S
H983 C979 0.930 . S
H984 C981 0.929 . S
S985 N986 1.613 . S
S985 N987 1.610 . S
N986 S985 1.613 . S
N986 C989 1.350 . S
N987 S985 1.610 . S
N987 C988 1.351 . S
C988 C982 1.428 . S
C988 N987 1.351 . S
C988 C989 1.434 . S
C989 C980 1.429 . S
C989 N986 1.350 . S
C989 C988 1.434 . S
C990 C991 1.369 . S
C990 C992 1.419 . S
C990 H994 0.930 . S
C991 C990 1.369 . S
C991 C1000 1.429 1_455 S
C992 C990 1.419 . S
C992 C993 1.363 1_455 S
C992 H995 0.929 . S
C993 C992 1.363 1_655 S
C993 C999 1.428 . S
H994 C990 0.930 . S
H995 C992 0.929 . S
S996 N997 1.613 . S
S996 N998 1.610 . S
N997 S996 1.613 . S
N997 C1000 1.350 . S
N998 S996 1.610 . S
N998 C999 1.351 . S
C999 C993 1.428 . S
C999 N998 1.351 . S
C999 C1000 1.434 . S
C1000 C991 1.429 1_655 S
C1000 N997 1.350 . S
C1000 C999 1.434 . S
C1001 C1002 1.369 . S
C1001 C1003 1.419 . S
C1001 H1005 0.930 . S
C1002 C1001 1.369 . S
C1002 C1011 1.429 . S
C1003 C1001 1.419 . S
C1003 C1004 1.363 . S
C1003 H1006 0.929 . S
C1004 C1003 1.363 . S
C1004 C1010 1.428 . S
H1005 C1001 0.930 . S
H1006 C1003 0.929 . S
S1007 N1008 1.613 . S
S1007 N1009 1.610 . S
N1008 S1007 1.613 . S
N1008 C1011 1.350 . S
N1009 S1007 1.610 . S
N1009 C1010 1.351 . S
C1010 C1004 1.428 . S
C1010 N1009 1.351 . S
C1010 C1011 1.434 . S
C1011 C1002 1.429 . S
C1011 N1008 1.350 . S
C1011 C1010 1.434 . S
C1012 C1013 1.369 . S
C1012 C1014 1.419 . S
C1012 H1016 0.930 . S
C1013 C1012 1.369 . S
C1013 C1022 1.429 . S
C1014 C1012 1.419 . S
C1014 C1015 1.363 . S
C1014 H1017 0.929 . S
C1015 C1014 1.363 . S
C1015 C1021 1.428 . S
H1016 C1012 0.930 . S
H1017 C1014 0.929 . S
S1018 N1019 1.613 . S
S1018 N1020 1.610 . S
N1019 S1018 1.613 . S
N1019 C1022 1.350 . S
N1020 S1018 1.610 . S
N1020 C1021 1.351 . S
C1021 C1015 1.428 . S
C1021 N1020 1.351 . S
C1021 C1022 1.434 . S
C1022 C1013 1.429 . S
C1022 N1019 1.350 . S
C1022 C1021 1.434 . S
C1023 C1024 1.369 . S
C1023 C1025 1.419 . S
C1023 H1027 0.930 . S
C1024 C1023 1.369 . S
C1024 C1033 1.429 . S
C1025 C1023 1.419 . S
C1025 C1026 1.363 . S
C1025 H1028 0.929 . S
C1026 C1025 1.363 . S
C1026 C1032 1.428 . S
H1027 C1023 0.930 . S
H1028 C1025 0.929 . S
S1029 N1030 1.613 . S
S1029 N1031 1.610 . S
N1030 S1029 1.613 . S
N1030 C1033 1.350 . S
N1031 S1029 1.610 . S
N1031 C1032 1.351 . S
C1032 C1026 1.428 . S
C1032 N1031 1.351 . S
C1032 C1033 1.434 . S
C1033 C1024 1.429 . S
C1033 N1030 1.350 . S
C1033 C1032 1.434 . S
C1034 C1035 1.369 . S
C1034 C1036 1.419 . S
C1034 H1038 0.930 . S
C1035 C1034 1.369 . S
C1035 C1044 1.407 1_565 S
C1036 C1034 1.419 . S
C1036 C1037 1.363 1_565 S
C1036 H1039 0.929 . S
C1037 C1036 1.363 1_545 S
C1037 C1043 1.428 . S
H1038 C1034 0.930 . S
H1039 C1036 0.929 . S
S1040 N1041 1.613 . S
S1040 N1042 1.610 . S
N1041 S1040 1.613 . S
N1041 C1044 1.358 . S
N1042 S1040 1.610 . S
N1042 C1043 1.351 . S
C1043 C1037 1.428 . S
C1043 N1042 1.351 . S
C1043 C1044 1.451 . S
C1044 C1035 1.407 1_545 S
C1044 N1041 1.358 . S
C1044 C1043 1.451 . S
C1045 C1046 1.369 . S
C1045 C1047 1.419 . S
C1045 H1049 0.930 . S
C1046 C1045 1.369 . S
C1046 C1055 1.429 . S
C1047 C1045 1.419 . S
C1047 C1048 1.363 . S
C1047 H1050 0.929 . S
C1048 C1047 1.363 . S
C1048 C1054 1.428 . S
H1049 C1045 0.930 . S
H1050 C1047 0.929 . S
S1051 N1052 1.613 . S
S1051 N1053 1.610 . S
N1052 S1051 1.613 . S
N1052 C1055 1.350 . S
N1053 S1051 1.610 . S
N1053 C1054 1.351 . S
C1054 C1048 1.428 . S
C1054 N1053 1.351 . S
C1054 C1055 1.434 . S
C1055 C1046 1.429 . S
C1055 N1052 1.350 . S
C1055 C1054 1.434 . S
C1056 C1057 1.369 . S
C1056 C1058 1.419 . S
C1056 H1060 0.930 . S
C1057 C1056 1.369 . S
C1057 C1066 1.429 . S
C1058 C1056 1.419 . S
C1058 C1059 1.363 . S
C1058 H1061 0.929 . S
C1059 C1058 1.363 . S
C1059 C1065 1.428 . S
H1060 C1056 0.930 . S
H1061 C1058 0.929 . S
S1062 N1063 1.613 . S
S1062 N1064 1.610 . S
N1063 S1062 1.613 . S
N1063 C1066 1.350 . S
N1064 S1062 1.610 . S
N1064 C1065 1.351 . S
C1065 C1059 1.428 . S
C1065 N1064 1.351 . S
C1065 C1066 1.434 . S
C1066 C1057 1.429 . S
C1066 N1063 1.350 . S
C1066 C1065 1.434 . S
C1067 C1068 1.369 . S
C1067 C1069 1.419 . S
C1067 H1071 0.930 . S
C1068 C1067 1.369 . S
C1068 C1077 1.429 . S
C1069 C1067 1.419 . S
C1069 C1070 1.363 . S
C1069 H1072 0.929 . S
C1070 C1069 1.363 . S
C1070 C1076 1.428 . S
H1071 C1067 0.930 . S
H1072 C1069 0.929 . S
S1073 N1074 1.613 . S
S1073 N1075 1.610 . S
N1074 S1073 1.613 . S
N1074 C1077 1.350 . S
N1075 S1073 1.610 . S
N1075 C1076 1.351 . S
C1076 C1070 1.428 . S
C1076 N1075 1.351 . S
C1076 C1077 1.434 . S
C1077 C1068 1.429 . S
C1077 N1074 1.350 . S
C1077 C1076 1.434 . S
C1078 C1079 1.369 . S
C1078 C1080 1.419 . S
C1078 H1082 0.930 . S
C1079 C1078 1.369 . S
C1079 C1088 1.429 . S
C1080 C1078 1.419 . S
C1080 C1081 1.363 . S
C1080 H1083 0.929 . S
C1081 C1080 1.363 . S
C1081 C1087 1.428 . S
H1082 C1078 0.930 . S
H1083 C1080 0.929 . S
S1084 N1085 1.613 . S
S1084 N1086 1.610 . S
N1085 S1084 1.613 . S
N1085 C1088 1.350 . S
N1086 S1084 1.610 . S
N1086 C1087 1.351 . S
C1087 C1081 1.428 . S
C1087 N1086 1.351 . S
C1087 C1088 1.434 . S
C1088 C1079 1.429 . S
C1088 N1085 1.350 . S
C1088 C1087 1.434 . S
C1089 C1090 1.369 . S
C1089 C1091 1.419 . S
C1089 H1093 0.930 . S
C1090 C1089 1.369 . S
C1090 C1099 1.429 . S
C1091 C1089 1.419 . S
C1091 C1092 1.363 . S
C1091 H1094 0.929 . S
C1092 C1091 1.363 . S
C1092 C1098 1.428 . S
H1093 C1089 0.930 . S
H1094 C1091 0.929 . S
S1095 N1096 1.613 . S
S1095 N1097 1.610 . S
N1096 S1095 1.613 . S
N1096 C1099 1.350 . S
N1097 S1095 1.610 . S
N1097 C1098 1.351 . S
C1098 C1092 1.428 . S
C1098 N1097 1.351 . S
C1098 C1099 1.434 . S
C1099 C1090 1.429 . S
C1099 N1096 1.350 . S
C1099 C1098 1.434 . S
C1100 C1101 1.369 . S
C1100 C1102 1.419 . S
C1100 H1104 0.930 . S
C1101 C1100 1.369 . S
C1101 C1110 1.429 . S
C1102 C1100 1.419 . S
C1102 C1103 1.363 . S
C1102 H1105 0.929 . S
C1103 C1102 1.363 . S
C1103 C1109 1.428 . S
H1104 C1100 0.930 . S
H1105 C1102 0.929 . S
S1106 N1107 1.613 . S
S1106 N1108 1.610 . S
N1107 S1106 1.613 . S
N1107 C1110 1.350 . S
N1108 S1106 1.610 . S
N1108 C1109 1.351 . S
C1109 C1103 1.428 . S
C1109 N1108 1.351 . S
C1109 C1110 1.434 . S
C1110 C1101 1.429 . S
C1110 N1107 1.350 . S
C1110 C1109 1.434 . S
C1111 C1112 1.369 . S
C1111 C1113 1.419 . S
C1111 H1115 0.930 . S
C1112 C1111 1.369 . S
C1112 C1121 1.429 1_554 S
C1113 C1111 1.419 . S
C1113 C1114 1.363 1_554 S
C1113 H1116 0.929 . S
C1114 C1113 1.363 1_556 S
C1114 C1120 1.428 . S
H1115 C1111 0.930 . S
H1116 C1113 0.929 . S
S1117 N1118 1.613 . S
S1117 N1119 1.610 . S
N1118 S1117 1.613 . S
N1118 C1121 1.350 . S
N1119 S1117 1.610 . S
N1119 C1120 1.351 . S
C1120 C1114 1.428 . S
C1120 N1119 1.351 . S
C1120 C1121 1.434 . S
C1121 C1112 1.429 1_556 S
C1121 N1118 1.350 . S
C1121 C1120 1.434 . S
C1122 C1123 1.369 . S
C1122 C1124 1.419 . S
C1122 H1126 0.930 . S
C1123 C1122 1.369 . S
C1123 C1132 1.429 . S
C1124 C1122 1.419 . S
C1124 C1125 1.363 . S
C1124 H1127 0.929 . S
C1125 C1124 1.363 . S
C1125 C1131 1.428 . S
H1126 C1122 0.930 . S
H1127 C1124 0.929 . S
S1128 N1129 1.613 . S
S1128 N1130 1.610 . S
N1129 S1128 1.613 . S
N1129 C1132 1.350 . S
N1130 S1128 1.610 . S
N1130 C1131 1.351 . S
C1131 C1125 1.428 . S
C1131 N1130 1.351 . S
C1131 C1132 1.434 . S
C1132 C1123 1.429 . S
C1132 N1129 1.350 . S
C1132 C1131 1.434 . S
C1133 C1134 1.369 . S
C1133 C1135 1.419 . S
C1133 H1137 0.930 . S
C1134 C1133 1.369 . S
C1134 C1143 1.429 . S
C1135 C1133 1.419 . S
C1135 C1136 1.363 . S
C1135 H1138 0.929 . S
C1136 C1135 1.363 . S
C1136 C1142 1.428 . S
H1137 C1133 0.930 . S
H1138 C1135 0.929 . S
S1139 N1140 1.613 . S
S1139 N1141 1.610 . S
N1140 S1139 1.613 . S
N1140 C1143 1.350 . S
N1141 S1139 1.610 . S
N1141 C1142 1.351 . S
C1142 C1136 1.428 . S
C1142 N1141 1.351 . S
C1142 C1143 1.434 . S
C1143 C1134 1.429 . S
C1143 N1140 1.350 . S
C1143 C1142 1.434 . S
C1144 C1145 1.369 . S
C1144 C1146 1.419 . S
C1144 H1148 0.930 . S
C1145 C1144 1.369 . S
C1145 C1154 1.429 . S
C1146 C1144 1.419 . S
C1146 C1147 1.363 . S
C1146 H1149 0.929 . S
C1147 C1146 1.363 . S
C1147 C1153 1.428 . S
H1148 C1144 0.930 . S
H1149 C1146 0.929 . S
S1150 N1151 1.613 . S
S1150 N1152 1.610 . S
N1151 S1150 1.613 . S
N1151 C1154 1.350 . S
N1152 S1150 1.610 . S
N1152 C1153 1.351 . S
C1153 C1147 1.428 . S
C1153 N1152 1.351 . S
C1153 C1154 1.434 . S
C1154 C1145 1.429 . S
C1154 N1151 1.350 . S
C1154 C1153 1.434 . S
C1155 C1156 1.369 . S
C1155 C1157 1.419 . S
C1155 H1159 0.930 . S
C1156 C1155 1.369 . S
C1156 C1165 1.429 . S
C1157 C1155 1.419 . S
C1157 C1158 1.363 . S
C1157 H1160 0.929 . S
C1158 C1157 1.363 . S
C1158 C1164 1.428 . S
H1159 C1155 0.930 . S
H1160 C1157 0.929 . S
S1161 N1162 1.613 . S
S1161 N1163 1.610 . S
N1162 S1161 1.613 . S
N1162 C1165 1.350 . S
N1163 S1161 1.610 . S
N1163 C1164 1.351 . S
C1164 C1158 1.428 . S
C1164 N1163 1.351 . S
C1164 C1165 1.434 . S
C1165 C1156 1.429 . S
C1165 N1162 1.350 . S
C1165 C1164 1.434 . S
C1166 C1167 1.369 . S
C1166 C1168 1.419 . S
C1166 H1170 0.930 . S
C1167 C1166 1.369 . S
C1167 C1176 1.429 . S
C1168 C1166 1.419 . S
C1168 C1169 1.363 . S
C1168 H1171 0.929 . S
C1169 C1168 1.363 . S
C1169 C1175 1.428 . S
H1170 C1166 0.930 . S
H1171 C1168 0.929 . S
S1172 N1173 1.613 . S
S1172 N1174 1.610 . S
N1173 S1172 1.613 . S
N1173 C1176 1.350 . S
N1174 S1172 1.610 . S
N1174 C1175 1.351 . S
C1175 C1169 1.428 . S
C1175 N1174 1.351 . S
C1175 C1176 1.434 . S
C1176 C1167 1.429 . S
C1176 N1173 1.350 . S
C1176 C1175 1.434 . S
C1177 C1178 1.369 . S
C1177 C1179 1.419 . S
C1177 H1181 0.930 . S
C1178 C1177 1.369 . S
C1178 C1187 1.429 . S
C1179 C1177 1.419 . S
C1179 C1180 1.363 . S
C1179 H1182 0.929 . S
C1180 C1179 1.363 . S
C1180 C1186 1.428 . S
H1181 C1177 0.930 . S
H1182 C1179 0.929 . S
S1183 N1184 1.613 . S
S1183 N1185 1.610 . S
N1184 S1183 1.613 . S
N1184 C1187 1.350 . S
N1185 S1183 1.610 . S
N1185 C1186 1.351 . S
C1186 C1180 1.428 . S
C1186 N1185 1.351 . S
C1186 C1187 1.434 . S
C1187 C1178 1.429 . S
C1187 N1184 1.350 . S
C1187 C1186 1.434 . S
C1188 C1189 1.369 . S
C1188 C1190 1.419 . S
C1188 H1192 0.930 . S
C1189 C1188 1.369 . S
C1189 C1198 1.429 . S
C1190 C1188 1.419 . S
C1190 C1191 1.363 . S
C1190 H1193 0.929 . S
C1191 C1190 1.363 . S
C1191 C1197 1.428 1_455 S
H1192 C1188 0.930 . S
H1193 C1190 0.929 . S
S1194 N1195 1.613 . S
S1194 N1196 1.610 . S
N1195 S1194 1.613 . S
N1195 C1198 1.350 1_655 S
N1196 S1194 1.610 . S
N1196 C1197 1.351 . S
C1197 C1191 1.428 1_655 S
C1197 N1196 1.351 . S
C1197 C1198 1.434 1_655 S
C1198 C1189 1.429 . S
C1198 N1195 1.350 1_455 S
C1198 C1197 1.434 1_455 S
C1199 C1200 1.369 . S
C1199 C1201 1.419 . S
C1199 H1203 0.930 . S
C1200 C1199 1.369 . S
C1200 C1209 1.429 . S
C1201 C1199 1.419 . S
C1201 C1202 1.363 . S
C1201 H1204 0.929 . S
C1202 C1201 1.363 . S
C1202 C1208 1.428 . S
H1203 C1199 0.930 . S
H1204 C1201 0.929 . S
S1205 N1206 1.613 1_556 S
S1205 N1207 1.610 . S
N1206 S1205 1.613 1_554 S
N1206 C1209 1.350 . S
N1207 S1205 1.610 . S
N1207 C1208 1.351 1_556 S
C1208 C1202 1.428 . S
C1208 N1207 1.351 1_554 S
C1208 C1209 1.434 . S
C1209 C1200 1.429 . S
C1209 N1206 1.350 . S
C1209 C1208 1.434 . S
C1210 C1211 1.369 . S
C1210 C1212 1.419 . S
C1210 H1214 0.930 . S
C1211 C1210 1.369 . S
C1211 C1220 1.429 . S
C1212 C1210 1.419 . S
C1212 C1213 1.363 . S
C1212 H1215 0.929 . S
C1213 C1212 1.363 . S
C1213 C1219 1.428 . S
H1214 C1210 0.930 . S
H1215 C1212 0.929 . S
S1216 N1217 1.613 . S
S1216 N1218 1.610 . S
N1217 S1216 1.613 . S
N1217 C1220 1.350 . S
N1218 S1216 1.610 . S
N1218 C1219 1.351 . S
C1219 C1213 1.428 . S
C1219 N1218 1.351 . S
C1219 C1220 1.434 . S
C1220 C1211 1.429 . S
C1220 N1217 1.350 . S
C1220 C1219 1.434 . S
C1221 C1222 1.369 . S
C1221 C1223 1.419 . S
C1221 H1225 0.930 . S
C1222 C1221 1.369 . S
C1222 C1231 1.429 . S
C1223 C1221 1.419 . S
C1223 C1224 1.363 . S
C1223 H1226 0.929 . S
C1224 C1223 1.363 . S
C1224 C1230 1.428 . S
H1225 C1221 0.930 . S
H1226 C1223 0.929 . S
S1227 N1228 1.613 . S
S1227 N1229 1.610 . S
N1228 S1227 1.613 . S
N1228 C1231 1.350 . S
N1229 S1227 1.610 . S
N1229 C1230 1.351 . S
C1230 C1224 1.428 . S
C1230 N1229 1.351 . S
C1230 C1231 1.434 . S
C1231 C1222 1.429 . S
C1231 N1228 1.350 . S
C1231 C1230 1.434 . S
C1232 C1233 1.369 . S
C1232 C1234 1.419 . S
C1232 H1236 0.930 . S
C1233 C1232 1.369 . S
C1233 C1242 1.429 . S
C1234 C1232 1.419 . S
C1234 C1235 1.363 . S
C1234 H1237 0.929 . S
C1235 C1234 1.363 . S
C1235 C1241 1.428 . S
H1236 C1232 0.930 . S
H1237 C1234 0.929 . S
S1238 N1239 1.613 . S
S1238 N1240 1.610 . S
N1239 S1238 1.613 . S
N1239 C1242 1.350 . S
N1240 S1238 1.610 . S
N1240 C1241 1.351 . S
C1241 C1235 1.428 . S
C1241 N1240 1.351 . S
C1241 C1242 1.434 . S
C1242 C1233 1.429 . S
C1242 N1239 1.350 . S
C1242 C1241 1.434 . S
C1243 C1244 1.369 . S
C1243 C1245 1.419 . S
C1243 H1247 0.930 . S
C1244 C1243 1.369 . S
C1244 C1253 1.429 . S
C1245 C1243 1.419 . S
C1245 C1246 1.363 . S
C1245 H1248 0.929 . S
C1246 C1245 1.363 . S
C1246 C1252 1.428 . S
H1247 C1243 0.930 . S
H1248 C1245 0.929 . S
S1249 N1250 1.613 . S
S1249 N1251 1.610 . S
N1250 S1249 1.613 . S
N1250 C1253 1.350 . S
N1251 S1249 1.610 . S
N1251 C1252 1.351 . S
C1252 C1246 1.428 . S
C1252 N1251 1.351 . S
C1252 C1253 1.434 . S
C1253 C1244 1.429 . S
C1253 N1250 1.350 . S
C1253 C1252 1.434 . S
C1254 C1255 1.369 . S
C1254 C1256 1.419 . S
C1254 H1258 0.930 . S
C1255 C1254 1.369 . S
C1255 C1264 1.429 . S
C1256 C1254 1.419 . S
C1256 C1257 1.363 . S
C1256 H1259 0.929 . S
C1257 C1256 1.363 . S
C1257 C1263 1.428 . S
H1258 C1254 0.930 . S
H1259 C1256 0.929 . S
S1260 N1261 1.613 . S
S1260 N1262 1.610 . S
N1261 S1260 1.613 . S
N1261 C1264 1.350 . S
N1262 S1260 1.610 . S
N1262 C1263 1.351 . S
C1263 C1257 1.428 . S
C1263 N1262 1.351 . S
C1263 C1264 1.434 . S
C1264 C1255 1.429 . S
C1264 N1261 1.350 . S
C1264 C1263 1.434 . S
C1265 C1266 1.369 . S
C1265 C1267 1.419 . S
C1265 H1269 0.930 . S
C1266 C1265 1.369 . S
C1266 C1275 1.429 . S
C1267 C1265 1.419 . S
C1267 C1268 1.363 . S
C1267 H1270 0.929 . S
C1268 C1267 1.363 . S
C1268 C1274 1.428 . S
H1269 C1265 0.930 . S
H1270 C1267 0.929 . S
S1271 N1272 1.618 . S
S1271 N1273 1.610 1_556 S
N1272 S1271 1.618 . S
N1272 C1275 1.325 1_556 S
N1273 S1271 1.610 1_554 S
N1273 C1274 1.351 . S
C1274 C1268 1.428 . S
C1274 N1273 1.351 . S
C1274 C1275 1.434 . S
C1275 C1266 1.429 . S
C1275 N1272 1.325 1_554 S
C1275 C1274 1.434 . S
C1276 C1277 1.369 . S
C1276 C1278 1.419 . S
C1276 H1280 0.930 . S
C1277 C1276 1.369 . S
C1277 C1286 1.417 1_545 S
C1278 C1276 1.419 . S
C1278 C1279 1.363 . S
C1278 H1281 0.929 . S
C1279 C1278 1.363 . S
C1279 C1285 1.428 . S
H1280 C1276 0.930 . S
H1281 C1278 0.929 . S
S1282 N1283 1.613 . S
S1282 N1284 1.610 . S
N1283 S1282 1.613 . S
N1283 C1286 1.370 . S
N1284 S1282 1.610 . S
N1284 C1285 1.351 1_565 S
C1285 C1279 1.428 . S
C1285 N1284 1.351 1_545 S
C1285 C1286 1.425 1_545 S
C1286 C1277 1.417 1_565 S
C1286 N1283 1.370 . S
C1286 C1285 1.425 1_565 S
C1287 C1288 1.369 . S
C1287 C1289 1.419 . S
C1287 H1291 0.930 . S
C1288 C1287 1.369 . S
C1288 C1297 1.429 . S
C1289 C1287 1.419 . S
C1289 C1290 1.363 . S
C1289 H1292 0.929 . S
C1290 C1289 1.363 . S
C1290 C1296 1.428 . S
H1291 C1287 0.930 . S
H1292 C1289 0.929 . S
S1293 N1294 1.613 . S
S1293 N1295 1.610 . S
N1294 S1293 1.613 . S
N1294 C1297 1.350 . S
N1295 S1293 1.610 . S
N1295 C1296 1.351 . S
C1296 C1290 1.428 . S
C1296 N1295 1.351 . S
C1296 C1297 1.434 . S
C1297 C1288 1.429 . S
C1297 N1294 1.350 . S
C1297 C1296 1.434 . S
C1298 C1299 1.369 . S
C1298 C1300 1.419 . S
C1298 H1302 0.930 . S
C1299 C1298 1.369 . S
C1299 C1308 1.429 . S
C1300 C1298 1.419 . S
C1300 C1301 1.363 . S
C1300 H1303 0.929 . S
C1301 C1300 1.363 . S
C1301 C1307 1.428 . S
H1302 C1298 0.930 . S
H1303 C1300 0.929 . S
S1304 N1305 1.613 . S
S1304 N1306 1.610 . S
N1305 S1304 1.613 . S
N1305 C1308 1.350 . S
N1306 S1304 1.610 . S
N1306 C1307 1.351 . S
C1307 C1301 1.428 . S
C1307 N1306 1.351 . S
C1307 C1308 1.434 . S
C1308 C1299 1.429 . S
C1308 N1305 1.350 . S
C1308 C1307 1.434 . S
C1309 C1310 1.369 . S
C1309 C1311 1.419 . S
C1309 H1313 0.930 . S
C1310 C1309 1.369 . S
C1310 C1319 1.429 . S
C1311 C1309 1.419 . S
C1311 C1312 1.363 . S
C1311 H1314 0.929 . S
C1312 C1311 1.363 . S
C1312 C1318 1.428 . S
H1313 C1309 0.930 . S
H1314 C1311 0.929 . S
S1315 N1316 1.613 . S
S1315 N1317 1.610 . S
N1316 S1315 1.613 . S
N1316 C1319 1.350 . S
N1317 S1315 1.610 . S
N1317 C1318 1.351 . S
C1318 C1312 1.428 . S
C1318 N1317 1.351 . S
C1318 C1319 1.434 . S
C1319 C1310 1.429 . S
C1319 N1316 1.350 . S
C1319 C1318 1.434 . S
C1320 C1321 1.369 . S
C1320 C1322 1.419 . S
C1320 H1324 0.930 . S
C1321 C1320 1.369 . S
C1321 C1330 1.429 . S
C1322 C1320 1.419 . S
C1322 C1323 1.363 . S
C1322 H1325 0.929 . S
C1323 C1322 1.363 . S
C1323 C1329 1.420 1_545 S
H1324 C1320 0.930 . S
H1325 C1322 0.929 . S
S1326 N1327 1.613 . S
S1326 N1328 1.610 . S
N1327 S1326 1.613 . S
N1327 C1330 1.350 1_565 S
N1328 S1326 1.610 . S
N1328 C1329 1.363 . S
C1329 C1323 1.420 1_565 S
C1329 N1328 1.363 . S
C1329 C1330 1.431 1_565 S
C1330 C1321 1.429 . S
C1330 N1327 1.350 1_545 S
C1330 C1329 1.431 1_545 S
C1331 C1332 1.369 . S
C1331 C1333 1.419 . S
C1331 H1335 0.930 . S
C1332 C1331 1.369 . S
C1332 C1341 1.429 . S
C1333 C1331 1.419 . S
C1333 C1334 1.363 . S
C1333 H1336 0.929 . S
C1334 C1333 1.363 . S
C1334 C1340 1.428 . S
H1335 C1331 0.930 . S
H1336 C1333 0.929 . S
S1337 N1338 1.613 . S
S1337 N1339 1.610 . S
N1338 S1337 1.613 . S
N1338 C1341 1.350 1_556 S
N1339 S1337 1.610 . S
N1339 C1340 1.351 1_556 S
C1340 C1334 1.428 . S
C1340 N1339 1.351 1_554 S
C1340 C1341 1.434 . S
C1341 C1332 1.429 . S
C1341 N1338 1.350 1_554 S
C1341 C1340 1.434 . S
C1342 C1343 1.369 . S
C1342 C1344 1.419 . S
C1342 H1346 0.930 . S
C1343 C1342 1.369 . S
C1343 C1352 1.429 . S
C1344 C1342 1.419 . S
C1344 C1345 1.363 . S
C1344 H1347 0.929 . S
C1345 C1344 1.363 . S
C1345 C1351 1.428 . S
H1346 C1342 0.930 . S
H1347 C1344 0.929 . S
S1348 N1349 1.613 . S
S1348 N1350 1.610 . S
N1349 S1348 1.613 . S
N1349 C1352 1.350 . S
N1350 S1348 1.610 . S
N1350 C1351 1.351 . S
C1351 C1345 1.428 . S
C1351 N1350 1.351 . S
C1351 C1352 1.434 . S
C1352 C1343 1.429 . S
C1352 N1349 1.350 . S
C1352 C1351 1.434 . S
C1353 C1354 1.369 . S
C1353 C1355 1.419 . S
C1353 H1357 0.930 . S
C1354 C1353 1.369 . S
C1354 C1363 1.429 . S
C1355 C1353 1.419 . S
C1355 C1356 1.363 . S
C1355 H1358 0.929 . S
C1356 C1355 1.363 . S
C1356 C1362 1.428 . S
H1357 C1353 0.930 . S
H1358 C1355 0.929 . S
S1359 N1360 1.613 . S
S1359 N1361 1.610 . S
N1360 S1359 1.613 . S
N1360 C1363 1.350 . S
N1361 S1359 1.610 . S
N1361 C1362 1.351 . S
C1362 C1356 1.428 . S
C1362 N1361 1.351 . S
C1362 C1363 1.434 . S
C1363 C1354 1.429 . S
C1363 N1360 1.350 . S
C1363 C1362 1.434 . S
C1364 C1365 1.369 . S
C1364 C1366 1.419 . S
C1364 H1368 0.930 . S
C1365 C1364 1.369 . S
C1365 C1374 1.429 . S
C1366 C1364 1.419 . S
C1366 C1367 1.363 . S
C1366 H1369 0.929 . S
C1367 C1366 1.363 . S
C1367 C1373 1.428 . S
H1368 C1364 0.930 . S
H1369 C1366 0.929 . S
S1370 N1371 1.613 . S
S1370 N1372 1.610 . S
N1371 S1370 1.613 . S
N1371 C1374 1.350 . S
N1372 S1370 1.610 . S
N1372 C1373 1.351 . S
C1373 C1367 1.428 . S
C1373 N1372 1.351 . S
C1373 C1374 1.434 . S
C1374 C1365 1.429 . S
C1374 N1371 1.350 . S
C1374 C1373 1.434 . S
C1375 C1376 1.369 . S
C1375 C1377 1.419 . S
C1375 H1379 0.930 . S
C1376 C1375 1.369 . S
C1376 C1385 1.429 . S
C1377 C1375 1.419 . S
C1377 C1378 1.363 . S
C1377 H1380 0.929 . S
C1378 C1377 1.363 . S
C1378 C1384 1.428 . S
H1379 C1375 0.930 . S
H1380 C1377 0.929 . S
S1381 N1382 1.613 . S
S1381 N1383 1.610 . S
N1382 S1381 1.613 . S
N1382 C1385 1.350 . S
N1383 S1381 1.610 . S
N1383 C1384 1.351 . S
C1384 C1378 1.428 . S
C1384 N1383 1.351 . S
C1384 C1385 1.434 . S
C1385 C1376 1.429 . S
C1385 N1382 1.350 . S
C1385 C1384 1.434 . S
C1386 C1387 1.369 . S
C1386 C1388 1.419 . S
C1386 H1390 0.930 . S
C1387 C1386 1.369 . S
C1387 C1396 1.429 . S
C1388 C1386 1.419 . S
C1388 C1389 1.363 . S
C1388 H1391 0.929 . S
C1389 C1388 1.363 . S
C1389 C1395 1.428 . S
H1390 C1386 0.930 . S
H1391 C1388 0.929 . S
S1392 N1393 1.613 . S
S1392 N1394 1.610 . S
N1393 S1392 1.613 . S
N1393 C1396 1.350 . S
N1394 S1392 1.610 . S
N1394 C1395 1.351 . S
C1395 C1389 1.428 . S
C1395 N1394 1.351 . S
C1395 C1396 1.434 . S
C1396 C1387 1.429 . S
C1396 N1393 1.350 . S
C1396 C1395 1.434 . S
C1397 C1398 1.369 . S
C1397 C1399 1.419 . S
C1397 H1401 0.930 1_554 S
C1398 C1397 1.369 . S
C1398 C1407 1.429 . S
C1399 C1397 1.419 . S
C1399 C1400 1.363 . S
C1399 H1402 0.929 . S
C1400 C1399 1.363 . S
C1400 C1406 1.428 . S
H1401 C1397 0.930 1_556 S
H1402 C1399 0.929 . S
S1403 N1404 1.613 . S
S1403 N1405 1.610 . S
N1404 S1403 1.613 . S
N1404 C1407 1.350 . S
N1405 S1403 1.610 . S
N1405 C1406 1.351 . S
C1406 C1400 1.428 . S
C1406 N1405 1.351 . S
C1406 C1407 1.434 . S
C1407 C1398 1.429 . S
C1407 N1404 1.350 . S
C1407 C1406 1.434 . S
C1408 C1409 1.369 . S
C1408 C1410 1.419 . S
C1408 H1412 0.930 . S
C1409 C1408 1.369 . S
C1409 C1418 1.429 . S
C1410 C1408 1.419 . S
C1410 C1411 1.363 . S
C1410 H1413 0.929 . S
C1411 C1410 1.363 . S
C1411 C1417 1.428 . S
H1412 C1408 0.930 . S
H1413 C1410 0.929 . S
S1414 N1415 1.613 1_655 S
S1414 N1416 1.610 . S
N1415 S1414 1.613 1_455 S
N1415 C1418 1.350 . S
N1416 S1414 1.610 . S
N1416 C1417 1.351 1_655 S
C1417 C1411 1.428 . S
C1417 N1416 1.351 1_455 S
C1417 C1418 1.434 . S
C1418 C1409 1.429 . S
C1418 N1415 1.350 . S
C1418 C1417 1.434 . S
C1419 C1420 1.369 . S
C1419 C1421 1.419 . S
C1419 H1423 0.930 . S
C1420 C1419 1.369 . S
C1420 C1429 1.429 . S
C1421 C1419 1.419 . S
C1421 C1422 1.363 . S
C1421 H1424 0.929 . S
C1422 C1421 1.363 . S
C1422 C1428 1.428 . S
H1423 C1419 0.930 . S
H1424 C1421 0.929 . S
S1425 N1426 1.613 . S
S1425 N1427 1.610 . S
N1426 S1425 1.613 . S
N1426 C1429 1.350 . S
N1427 S1425 1.610 . S
N1427 C1428 1.351 . S
C1428 C1422 1.428 . S
C1428 N1427 1.351 . S
C1428 C1429 1.434 . S
C1429 C1420 1.429 . S
C1429 N1426 1.350 . S
C1429 C1428 1.434 . S
C1430 C1431 1.369 . S
C1430 C1432 1.419 . S
C1430 H1434 0.930 . S
C1431 C1430 1.369 . S
C1431 C1440 1.429 . S
C1432 C1430 1.419 . S
C1432 C1433 1.363 . S
C1432 H1435 0.929 . S
C1433 C1432 1.363 . S
C1433 C1439 1.428 . S
H1434 C1430 0.930 . S
H1435 C1432 0.929 . S
S1436 N1437 1.613 . S
S1436 N1438 1.610 . S
N1437 S1436 1.613 . S
N1437 C1440 1.350 . S
N1438 S1436 1.610 . S
N1438 C1439 1.351 . S
C1439 C1433 1.428 . S
C1439 N1438 1.351 . S
C1439 C1440 1.434 . S
C1440 C1431 1.429 . S
C1440 N1437 1.350 . S
C1440 C1439 1.434 . S
C1441 C1442 1.369 . S
C1441 C1443 1.419 . S
C1441 H1445 0.930 . S
C1442 C1441 1.369 . S
C1442 C1451 1.429 . S
C1443 C1441 1.419 . S
C1443 C1444 1.363 . S
C1443 H1446 0.929 . S
C1444 C1443 1.363 . S
C1444 C1450 1.428 . S
H1445 C1441 0.930 . S
H1446 C1443 0.929 . S
S1447 N1448 1.613 . S
S1447 N1449 1.607 . S
N1448 S1447 1.613 . S
N1448 C1451 1.350 1_655 S
N1449 S1447 1.607 . S
N1449 C1450 1.354 1_655 S
C1450 C1444 1.428 . S
C1450 N1449 1.354 1_455 S
C1450 C1451 1.434 . S
C1451 C1442 1.429 . S
C1451 N1448 1.350 1_455 S
C1451 C1450 1.434 . S
C793 C21 1.268 . S
C795 C681 1.254 . S
C804 C582 1.258 . S
C806 C54 1.265 . S
C815 C615 1.268 . S
C817 C87 1.257 . S
C826 C648 1.269 . S
C828 C120 1.254 . S
C837 C153 1.256 . S
C839 C780 1.266 . S
C848 C714 1.258 . S
C850 C186 1.265 . S
C859 C747 1.254 . S
C861 C219 1.268 . S
C870 C549 1.253 . S
C872 C252 1.268 . S
C881 C285 1.254 . S
C883 C516 1.264 . S
C892 C417 1.257 . S
C894 C318 1.262 . S
C903 C351 1.254 . S
C905 C450 1.265 . S
C914 C483 1.268 . S
C916 C384 1.254 . S
C925 C634 1.864 . S
C927 N13 1.425 . S
C936 N46 1.438 . S
C938 C667 1.859 . S
C947 C568 1.862 . S
C949 N79 1.429 . S
C958 N112 1.427 . S
C960 C601 1.862 . S
C969 C700 1.861 . S
C971 N145 1.431 . S
C980 C733 1.864 . S
C982 N178 1.426 . S
C991 C535 1.858 . S
C993 N211 1.439 . S
C1002 N244 1.435 . S
C1004 C766 1.860 . S
C1013 N277 1.441 . S
C1015 C73 1.858 . S
C1024 N310 1.436 . S
C1026 C106 1.859 . S
C1035 N343 1.425 . S
C1037 C7 1.863 . S
C1046 C40 1.858 . S
C1048 N376 1.437 . S
C1057 N409 1.440 . S
C1059 C205 1.858 . S
C1068 C238 1.864 . S
C1070 N442 1.426 . S
C1079 C139 1.865 . S
C1081 N475 1.425 . S
C1090 C172 1.861 . S
C1092 N508 1.433 . S
C1101 C403 1.864 . S
C1103 N541 1.426 . S
C1112 C271 1.858 . S
C1114 N574 1.439 . S
C1123 N607 1.432 . S
C1125 C304 1.861 . S
C1134 N640 1.431 . S
C1136 C337 1.861 . S
C1145 C370 1.858 . S
C1147 N673 1.438 . S
C1156 N706 1.441 . S
C1158 C469 1.858 . S
C1167 C502 1.857 . S
C1169 N739 1.439 . S
C1178 N772 1.434 . S
C1180 C436 1.860 . S
C1189 C18 1.400 . S
C1191 C744 1.400 . S
C1200 C546 1.401 . S
C1202 C51 1.399 . S
C1211 C84 1.406 . S
C1213 C777 1.401 . S
C1222 C711 1.407 . S
C1224 C117 1.405 . S
C1233 C150 1.407 . S
C1235 C612 1.404 . S
C1244 C645 1.405 . S
C1246 C183 1.406 . S
C1255 C216 1.403 . S
C1257 C678 1.406 . S
C1266 C579 1.405 . S
C1268 C249 1.406 . S
C1277 C447 1.406 . S
C1279 C282 1.401 . S
C1288 C480 1.401 . S
C1290 C315 1.406 . S
C1299 C348 1.404 . S
C1301 C513 1.406 . S
C1310 C381 1.400 . S
C1312 C414 1.405 . S
C1321 N497 0.751 . S
C1323 N2 0.761 . S
C1332 N35 0.746 . S
C1334 N398 0.741 . S
C1343 N431 0.738 . S
C1345 N68 0.751 . S
C1354 N464 0.760 . S
C1356 N101 0.760 . S
C1365 N134 0.759 . S
C1367 N299 0.745 . S
C1376 N332 0.762 . S
C1378 N167 0.749 . S
C1387 N200 0.759 . S
C1389 N365 0.745 . S
C1398 N266 0.739 . S
C1400 N233 0.745 . S
C1409 N662 0.764 . S
C1411 N530 0.755 . S
C1420 N761 0.762 . S
C1422 N563 0.748 . S
C1431 N695 0.748 . S
C1433 N596 0.760 . S
C1442 N728 0.741 . S
C1444 N629 0.743 . S
