# Generated by pormake.
# Topology nov, (5)-cn, num edge types: 1
# Building blocks:
#     Node 0, Type 0, BuildingBlock: BEQFEK_clean_sbu_0, # of connection points: 5
#     Node 1, Type 0, BuildingBlock: BEQFEK_clean_sbu_0, # of connection points: 5
#     Node 2, Type 0, BuildingBlock: BEQFEK_clean_sbu_0, # of connection points: 5
#     Node 3, Type 0, BuildingBlock: BEQFEK_clean_sbu_0, # of connection points: 5
#     Node 4, Type 0, BuildingBlock: BEQFEK_clean_sbu_0, # of connection points: 5
#     Node 5, Type 0, BuildingBlock: BEQFEK_clean_sbu_0, # of connection points: 5
#     Node 6, Type 0, BuildingBlock: BEQFEK_clean_sbu_0, # of connection points: 5
#     Node 7, Type 0, BuildingBlock: BEQFEK_clean_sbu_0, # of connection points: 5
#     Edge 8, Type (0, 0), BuildingBlock: TEMPAE_clean_linker_10, # of connection points: 2
#     Edge 9, Type (0, 0), BuildingBlock: TEMPAE_clean_linker_10, # of connection points: 2
#     Edge 10, Type (0, 0), BuildingBlock: TEMPAE_clean_linker_10, # of connection points: 2
#     Edge 11, Type (0, 0), BuildingBlock: TEMPAE_clean_linker_10, # of connection points: 2
#     Edge 12, Type (0, 0), BuildingBlock: TEMPAE_clean_linker_10, # of connection points: 2
#     Edge 13, Type (0, 0), BuildingBlock: TEMPAE_clean_linker_10, # of connection points: 2
#     Edge 14, Type (0, 0), BuildingBlock: TEMPAE_clean_linker_10, # of connection points: 2
#     Edge 15, Type (0, 0), BuildingBlock: TEMPAE_clean_linker_10, # of connection points: 2
#     Edge 16, Type (0, 0), BuildingBlock: TEMPAE_clean_linker_10, # of connection points: 2
#     Edge 17, Type (0, 0), BuildingBlock: TEMPAE_clean_linker_10, # of connection points: 2
#     Edge 18, Type (0, 0), BuildingBlock: TEMPAE_clean_linker_10, # of connection points: 2
#     Edge 19, Type (0, 0), BuildingBlock: TEMPAE_clean_linker_10, # of connection points: 2
#     Edge 20, Type (0, 0), BuildingBlock: TEMPAE_clean_linker_10, # of connection points: 2
#     Edge 21, Type (0, 0), BuildingBlock: TEMPAE_clean_linker_10, # of connection points: 2
#     Edge 22, Type (0, 0), BuildingBlock: TEMPAE_clean_linker_10, # of connection points: 2
#     Edge 23, Type (0, 0), BuildingBlock: TEMPAE_clean_linker_10, # of connection points: 2
#     Edge 24, Type (0, 0), BuildingBlock: TEMPAE_clean_linker_10, # of connection points: 2
#     Edge 25, Type (0, 0), BuildingBlock: TEMPAE_clean_linker_10, # of connection points: 2
#     Edge 26, Type (0, 0), BuildingBlock: TEMPAE_clean_linker_10, # of connection points: 2
#     Edge 27, Type (0, 0), BuildingBlock: TEMPAE_clean_linker_10, # of connection points: 2
# Relax obj value: 0.074
# Max RMSD: 0.099
# Mean RMSD: 0.099
data_MOF--net-nov--node1-BEQFEK_clean_sbu_0--edge1-TEMPAE_clean_linker_10
_symmetry_space_group_name_H-M    P1
_symmetry_Int_Tables_number       1
_symmetry_cell_setting            triclinic
loop_
_symmetry_equiv_pos_as_xyz
'x, y, z'
_cell_length_a     38.979886
_cell_length_b     41.044088
_cell_length_c     26.092317
_cell_angle_alpha  90.016956
_cell_angle_beta   89.971357
_cell_angle_gamma 89.99098
loop_
_atom_site_label
_atom_site_type_symbol
_atom_site_fract_x
_atom_site_fract_y
_atom_site_fract_z
_atom_type_partial_charge
Co0 Co 0.9641 0.14633 0.18141 0.0
Co1 Co 0.04527 0.14227 0.17922 0.0
C2 C 1.00324 0.09182 0.12857 0.0
O3 O 0.97577 0.10695 0.14034 0.0
O4 O 0.03261 0.10176 0.14316 0.0
C5 C 0.89815 0.12258 0.21612 0.0
O6 O 0.91635 0.09776 0.23262 0.0
C7 C 0.11855 0.12515 0.20128 0.0
C8 C 0.14317 0.17159 0.17957 0.0
C9 C 0.15033 0.14092 0.19907 0.0
N10 N 0.09421 0.14595 0.18452 0.0
N11 N 0.10931 0.17345 0.17116 0.0
C12 C 0.11068 0.09191 0.22158 0.0
H13 H 0.08278 0.08939 0.22922 0.0
H14 H 0.1254 0.08727 0.25724 0.0
H15 H 0.11814 0.07343 0.19261 0.0
C16 C 0.97923 0.15733 0.2917 0.0
N17 N 0.98926 0.14845 0.24426 0.0
N18 N 0.02299 0.14595 0.24354 0.0
C19 C 0.03532 0.15281 0.29058 0.0
C20 C 0.00803 0.15999 0.3227 0.0
C21 C 0.94327 0.16669 0.3055 0.0
H22 H 0.92764 0.14428 0.30957 0.0
H23 H 0.94215 0.1802 0.34228 0.0
H24 H 0.93196 0.18174 0.27451 0.0
O25 O 0.97496 0.18479 0.1386 0.0
O26 O 0.03164 0.17981 0.13626 0.0
H27 H 0.07654 0.16767 0.34158 0.0
H28 H 0.08636 0.13464 0.29876 0.0
C29 C 0.07253 0.15808 0.30229 0.0
H30 H 0.08359 0.17554 0.27442 0.0
H31 H 0.0964 0.19384 0.15718 0.0
O32 O 0.91338 0.14605 0.19379 0.0
C33 C 0.00425 0.19457 0.12344 0.0
Co34 Co 0.58177 0.85129 0.68416 0.0
Co35 Co 0.50135 0.85893 0.68521 0.0
C36 C 0.54357 0.90708 0.63164 0.0
O37 O 0.57034 0.89059 0.64255 0.0
O38 O 0.51398 0.89893 0.64797 0.0
C39 C 0.64697 0.87479 0.718 0.0
O40 O 0.62817 0.89927 0.73428 0.0
C41 C 0.42828 0.87733 0.70479 0.0
C42 C 0.40561 0.82803 0.7091 0.0
C43 C 0.39785 0.86076 0.71431 0.0
N44 N 0.45298 0.85516 0.69522 0.0
N45 N 0.43901 0.82585 0.69704 0.0
C46 C 0.4345 0.91316 0.70908 0.0
H47 H 0.462 0.91806 0.71695 0.0
H48 H 0.41827 0.92384 0.73975 0.0
H49 H 0.42753 0.92494 0.67226 0.0
C50 C 0.56843 0.84138 0.79503 0.0
N51 N 0.55815 0.85067 0.74792 0.0
N52 N 0.52476 0.85551 0.74863 0.0
C53 C 0.51305 0.85035 0.79653 0.0
C54 C 0.54021 0.84114 0.82747 0.0
C55 C 0.60332 0.82805 0.80669 0.0
H56 H 0.61304 0.81387 0.77352 0.0
H57 H 0.62114 0.84863 0.8137 0.0
H58 H 0.603 0.81241 0.84138 0.0
O59 O 0.5691 0.81269 0.64309 0.0
O60 O 0.51293 0.82114 0.64106 0.0
H61 H 0.46358 0.82798 0.79457 0.0
H62 H 0.47287 0.84892 0.85364 0.0
C63 C 0.47598 0.84981 0.81137 0.0
H64 H 0.46307 0.87191 0.79658 0.0
H65 H 0.45261 0.80421 0.69171 0.0
O66 O 0.63234 0.85112 0.69537 0.0
C67 C 0.53922 0.80477 0.62779 0.0
Co68 Co 0.96832 0.855 0.81692 0.0
Co69 Co 0.04875 0.86249 0.8166 0.0
C70 C 0.00657 0.91197 0.8667 0.0
O71 O 0.97984 0.89523 0.85649 0.0
O72 O 0.03621 0.90346 0.85106 0.0
C73 C 0.90334 0.87646 0.77802 0.0
O74 O 0.92235 0.8991 0.75654 0.0
C75 C 0.12207 0.87988 0.79695 0.0
C76 C 0.14429 0.83032 0.7954 0.0
C77 C 0.15236 0.86285 0.78853 0.0
N78 N 0.09713 0.85814 0.80747 0.0
N79 N 0.11084 0.8287 0.80732 0.0
C80 C 0.11621 0.91564 0.79066 0.0
H81 H 0.08877 0.92062 0.78243 0.0
H82 H 0.13259 0.92548 0.75948 0.0
H83 H 0.12325 0.92819 0.82683 0.0
C84 C 0.98247 0.84183 0.7069 0.0
N85 N 0.99232 0.85256 0.75351 0.0
N86 N 0.0257 0.85746 0.7531 0.0
C87 C 0.03784 0.85098 0.70584 0.0
C88 C 0.01101 0.84069 0.67512 0.0
C89 C 0.94786 0.82774 0.6956 0.0
H90 H 0.93709 0.8161 0.73042 0.0
H91 H 0.9304 0.84763 0.68348 0.0
H92 H 0.94915 0.80958 0.66412 0.0
O93 O 0.98058 0.81728 0.86014 0.0
O94 O 0.0367 0.82597 0.86305 0.0
H95 H 0.08777 0.82957 0.70903 0.0
H96 H 0.07829 0.84949 0.6492 0.0
C97 C 0.07499 0.85092 0.6914 0.0
H98 H 0.08736 0.87347 0.70552 0.0
H99 H 0.09701 0.8073 0.81363 0.0
O100 O 0.91774 0.85484 0.80551 0.0
C101 C 0.01031 0.80986 0.87663 0.0
Co102 Co 0.57561 0.1415 0.31329 0.0
Co103 Co 0.49515 0.13389 0.32367 0.0
C104 C 0.54181 0.08404 0.36598 0.0
O105 O 0.56799 0.10078 0.35326 0.0
O106 O 0.51154 0.09296 0.35438 0.0
C107 C 0.64104 0.12096 0.27233 0.0
O108 O 0.62322 0.09577 0.25629 0.0
C109 C 0.42309 0.11276 0.30439 0.0
C110 C 0.39488 0.15236 0.34335 0.0
C111 C 0.39032 0.1238 0.31606 0.0
N112 N 0.44599 0.13401 0.32389 0.0
N113 N 0.42883 0.15747 0.34732 0.0
C114 C 0.4325 0.08163 0.27813 0.0
H115 H 0.46076 0.07963 0.27378 0.0
H116 H 0.4201 0.08037 0.23995 0.0
H117 H 0.42281 0.06077 0.30101 0.0
C118 C 0.55515 0.15436 0.20558 0.0
N119 N 0.54761 0.14388 0.25324 0.0
N120 N 0.51403 0.14116 0.25766 0.0
C121 C 0.49927 0.15007 0.21312 0.0
C122 C 0.5248 0.15835 0.17852 0.0
C123 C 0.59004 0.1655 0.18919 0.0
H124 H 0.60223 0.17968 0.22046 0.0
H125 H 0.60624 0.14387 0.1813 0.0
H126 H 0.58891 0.18063 0.15398 0.0
O127 O 0.56456 0.17865 0.35909 0.0
O128 O 0.5087 0.17023 0.36912 0.0
H129 H 0.45103 0.16981 0.23754 0.0
H130 H 0.45545 0.16652 0.16868 0.0
C131 C 0.46148 0.15476 0.20588 0.0
H132 H 0.44868 0.13072 0.20667 0.0
H133 H 0.44029 0.17714 0.36597 0.0
O134 O 0.62571 0.14362 0.29652 0.0
C135 C 0.53588 0.18614 0.37937 0.0
Co136 Co 0.46752 0.64581 0.18435 0.0
Co137 Co 0.54788 0.63681 0.18355 0.0
C138 C 0.50393 0.58914 0.13164 0.0
O139 O 0.47751 0.60613 0.1426 0.0
O140 O 0.53372 0.59694 0.14742 0.0
C141 C 0.40187 0.62348 0.21881 0.0
O142 O 0.42008 0.5984 0.23429 0.0
C143 C 0.62155 0.61768 0.19881 0.0
C144 C 0.64532 0.66627 0.1904 0.0
C145 C 0.65303 0.6338 0.19904 0.0
N146 N 0.59662 0.63987 0.19056 0.0
N147 N 0.61118 0.66875 0.18552 0.0
C148 C 0.61523 0.58192 0.20443 0.0
H149 H 0.59076 0.57496 0.18584 0.0
H150 H 0.61333 0.57585 0.24576 0.0
H151 H 0.63671 0.56775 0.18757 0.0
C152 C 0.48237 0.6558 0.29485 0.0
N153 N 0.49201 0.64621 0.24757 0.0
N154 N 0.5254 0.64133 0.24739 0.0
C155 C 0.53784 0.64706 0.29468 0.0
C156 C 0.51104 0.65632 0.32637 0.0
C157 C 0.44756 0.66896 0.30748 0.0
H158 H 0.43774 0.68371 0.27503 0.0
H159 H 0.42972 0.6483 0.31371 0.0
H160 H 0.44802 0.68401 0.34283 0.0
O161 O 0.48045 0.6842 0.14271 0.0
O162 O 0.5363 0.67434 0.13937 0.0
H163 H 0.58709 0.66947 0.28775 0.0
H164 H 0.57927 0.65107 0.34951 0.0
C165 C 0.5752 0.64842 0.30761 0.0
H166 H 0.58794 0.62584 0.29423 0.0
H167 H 0.59774 0.69031 0.17877 0.0
O168 O 0.41705 0.64703 0.19668 0.0
C169 C 0.51037 0.6913 0.12661 0.0
Co170 Co 0.08262 0.35229 0.68318 0.0
Co171 Co 1.00173 0.35771 0.67921 0.0
C172 C 0.04534 0.40659 0.62731 0.0
O173 O 0.07246 0.39132 0.64037 0.0
O174 O 0.01564 0.39722 0.64139 0.0
C175 C 0.15272 0.37509 0.69498 0.0
O176 O 0.14076 0.40253 0.67619 0.0
C177 C 0.92805 0.37636 0.69433 0.0
C178 C 0.90433 0.32778 0.68561 0.0
C179 C 0.89659 0.36016 0.69517 0.0
N180 N 0.95294 0.35429 0.6851 0.0
N181 N 0.93841 0.32543 0.67969 0.0
C182 C 0.93447 0.41206 0.7006 0.0
H183 H 0.95874 0.41915 0.68146 0.0
H184 H 0.93691 0.41781 0.74198 0.0
H185 H 0.91283 0.4264 0.6846 0.0
C186 C 0.06645 0.34409 0.79309 0.0
N187 N 0.05685 0.35206 0.74515 0.0
N188 N 0.02325 0.35518 0.74389 0.0
C189 C 0.01051 0.34963 0.79111 0.0
C190 C 0.03745 0.34232 0.82386 0.0
C191 C 0.10222 0.33456 0.80759 0.0
H192 H 0.1107 0.31387 0.78328 0.0
H193 H 0.11974 0.35533 0.80023 0.0
H194 H 0.10403 0.32762 0.84861 0.0
O195 O 0.0715 0.31342 0.6414 0.0
O196 O 0.01494 0.31929 0.63806 0.0
H197 H 0.96275 0.32492 0.78073 0.0
H198 H 0.96834 0.34175 0.84404 0.0
C199 C 0.9731 0.34588 0.80264 0.0
H200 H 0.95927 0.36815 0.79053 0.0
H201 H 0.95185 0.30393 0.67249 0.0
O202 O 0.13254 0.35096 0.70015 0.0
C203 C 0.04214 0.30393 0.62609 0.0
Co204 Co 0.47129 0.35532 0.81239 0.0
Co205 Co 0.55168 0.36132 0.82314 0.0
C206 C 0.50635 0.41167 0.8668 0.0
O207 O 0.47989 0.39559 0.85319 0.0
O208 O 0.53655 0.4023 0.85541 0.0
C209 C 0.39819 0.36547 0.81994 0.0
O210 O 0.40587 0.37694 0.86553 0.0
C211 C 0.62556 0.37956 0.81118 0.0
C212 C 0.64934 0.33188 0.82796 0.0
C213 C 0.65711 0.36366 0.81433 0.0
N214 N 0.60059 0.35786 0.82189 0.0
N215 N 0.61514 0.32956 0.83225 0.0
C216 C 0.61905 0.41474 0.79975 0.0
H217 H 0.59444 0.4227 0.81695 0.0
H218 H 0.61727 0.41816 0.75767 0.0
H219 H 0.64032 0.43007 0.81452 0.0
C220 C 0.49144 0.34361 0.70483 0.0
N221 N 0.4993 0.35314 0.75282 0.0
N222 N 0.53283 0.35569 0.75702 0.0
C223 C 0.54734 0.34779 0.71182 0.0
C224 C 0.52165 0.33985 0.67723 0.0
C225 C 0.45623 0.33333 0.68862 0.0
H226 H 0.44633 0.31474 0.71574 0.0
H227 H 0.4388 0.35467 0.69036 0.0
H228 H 0.45601 0.32323 0.64918 0.0
O229 O 0.48062 0.31746 0.85762 0.0
O230 O 0.53658 0.32507 0.86751 0.0
H231 H 0.59504 0.32418 0.7279 0.0
H232 H 0.59119 0.33874 0.66275 0.0
C233 C 0.58513 0.34416 0.70343 0.0
H234 H 0.59823 0.36702 0.71449 0.0
H235 H 0.60163 0.30844 0.84158 0.0
O236 O 0.42214 0.35476 0.79143 0.0
C237 C 0.50919 0.3095 0.87776 0.0
Co238 Co 0.08012 0.64419 0.31596 0.0
Co239 Co 0.9998 0.63503 0.31816 0.0
C240 C 0.04419 0.58612 0.36574 0.0
O241 O 0.07042 0.60351 0.35541 0.0
O242 O 0.01424 0.59419 0.35103 0.0
C243 C 0.1452 0.62372 0.27604 0.0
O244 O 0.1265 0.6005 0.25552 0.0
C245 C 0.92602 0.61629 0.30308 0.0
C246 C 0.9023 0.66462 0.31488 0.0
C247 C 0.89453 0.6324 0.30422 0.0
N248 N 0.95099 0.63825 0.31243 0.0
N249 N 0.93646 0.66697 0.31955 0.0
C250 C 0.93232 0.5807 0.29509 0.0
H251 H 0.95683 0.57325 0.31309 0.0
H252 H 0.93413 0.5757 0.25339 0.0
H253 H 0.91088 0.5661 0.31113 0.0
C254 C 0.06405 0.65712 0.20644 0.0
N255 N 0.055 0.64629 0.25334 0.0
N256 N 0.0216 0.64143 0.25416 0.0
C257 C 0.00856 0.64844 0.20768 0.0
C258 C 0.03495 0.65853 0.17589 0.0
C259 C 0.09857 0.67093 0.19373 0.0
H260 H 0.10963 0.68323 0.22777 0.0
H261 H 0.11592 0.65079 0.18229 0.0
H262 H 0.09707 0.68847 0.16143 0.0
O263 O 0.06756 0.68158 0.36011 0.0
O264 O 0.01182 0.67122 0.3648 0.0
H265 H 0.95908 0.67008 0.21689 0.0
H266 H 0.96654 0.65313 0.154 0.0
C267 C 0.97106 0.64962 0.19564 0.0
H268 H 0.95876 0.62661 0.208 0.0
H269 H 0.94995 0.68834 0.32748 0.0
O270 O 0.13055 0.64543 0.30312 0.0
C271 C 0.03785 0.688 0.37774 0.0
C272 C 0.02598 0.96627 0.89899 0.0
C273 C 1.00359 0.93968 0.90243 0.0
C274 C 0.0248 0.99149 0.93533 0.0
C275 C 1.00158 0.98934 0.97701 0.0
C276 C 0.97895 0.96249 0.98057 0.0
C277 C 0.97984 0.93825 0.94272 0.0
C278 C 0.04854 0.02031 0.92933 0.0
C279 C 0.95457 0.95881 0.02521 0.0
C280 C 0.0244 0.03827 0.09585 0.0
C281 C 1.00132 0.06431 0.09238 0.0
C282 C 0.02415 0.01318 0.05925 0.0
C283 C 1.00119 0.01498 0.01723 0.0
C284 C 0.97793 0.04136 0.01355 0.0
C285 C 0.97787 0.06542 0.05171 0.0
C286 C 0.04851 0.98485 0.06541 0.0
C287 C 0.95384 0.04468 0.96853 0.0
H288 H 0.04434 0.96735 0.8678 0.0
H289 H 0.96286 0.91742 0.94588 0.0
H290 H 0.03358 0.04331 0.93019 0.0
H291 H 0.06687 0.02115 0.96179 0.0
H292 H 0.06337 0.01932 0.893 0.0
H293 H 0.93887 0.93629 0.02249 0.0
H294 H 0.96927 0.95816 0.06162 0.0
H295 H 0.93705 0.98005 0.02726 0.0
H296 H 0.04252 0.03747 0.12734 0.0
H297 H 0.96039 0.08588 0.04857 0.0
H298 H 0.06697 0.98437 0.03307 0.0
H299 H 0.03407 0.96156 0.06446 0.0
H300 H 0.06318 0.98613 0.10185 0.0
H301 H 0.96879 0.04557 0.93235 0.0
H302 H 0.93773 0.06696 0.97105 0.0
H303 H 0.93671 0.02316 0.96621 0.0
C304 C 0.57037 0.05779 0.44041 0.0
C305 C 0.54612 0.05611 0.40085 0.0
C306 C 0.5715 0.0339 0.47879 0.0
C307 C 0.54862 0.00717 0.47643 0.0
C308 C 0.52521 0.00457 0.4351 0.0
C309 C 0.52378 0.02946 0.39829 0.0
C310 C 0.59609 0.03804 0.52304 0.0
C311 C 0.50124 0.97584 0.43031 0.0
C312 C 0.57021 0.93188 0.55433 0.0
C313 C 0.54648 0.93407 0.5946 0.0
C314 C 0.57111 0.95544 0.51545 0.0
C315 C 0.54851 0.98237 0.51791 0.0
C316 C 0.52534 0.98531 0.55955 0.0
C317 C 0.52416 0.96075 0.59696 0.0
C318 C 0.59539 0.95092 0.47089 0.0
C319 C 0.50161 0.01423 0.56434 0.0
H320 H 0.58727 0.07871 0.44287 0.0
H321 H 0.50503 0.02822 0.36766 0.0
H322 H 0.58144 0.04025 0.55936 0.0
H323 H 0.61282 0.01631 0.52662 0.0
H324 H 0.61258 0.05994 0.51867 0.0
H325 H 0.48677 0.9761 0.39364 0.0
H326 H 0.5159 0.95271 0.43283 0.0
H327 H 0.48257 0.976 0.4624 0.0
H328 H 0.58714 0.91097 0.55203 0.0
H329 H 0.50585 0.96243 0.62815 0.0
H330 H 0.61265 0.97227 0.4674 0.0
H331 H 0.58057 0.94922 0.43468 0.0
H332 H 0.61135 0.92863 0.47484 0.0
H333 H 0.51654 0.03722 0.56216 0.0
H334 H 0.48695 0.014 0.60086 0.0
H335 H 0.48312 0.01437 0.53205 0.0
C336 C 0.52191 0.53464 0.09878 0.0
C337 C 0.50053 0.56195 0.09511 0.0
C338 C 0.52076 0.50996 0.06157 0.0
C339 C 0.49868 0.51341 0.01878 0.0
C340 C 0.47693 0.54092 0.0151 0.0
C341 C 0.4777 0.5646 0.05384 0.0
C342 C 0.54349 0.48042 0.0677 0.0
C343 C 0.45385 0.54597 0.96931 0.0
C344 C 0.5253 0.46562 0.90067 0.0
C345 C 0.5022 0.43952 0.90193 0.0
C346 C 0.52354 0.49057 0.93738 0.0
C347 C 0.49897 0.48859 0.9773 0.0
C348 C 0.47538 0.4624 0.97838 0.0
C349 C 0.47691 0.43845 0.9401 0.0
C350 C 0.54836 0.51874 0.93395 0.0
C351 C 0.44953 0.45889 0.02117 0.0
H352 H 0.53953 0.53261 0.13076 0.0
H353 H 0.46154 0.58601 0.05059 0.0
H354 H 0.528 0.45783 0.06449 0.0
H355 H 0.56289 0.47984 0.0366 0.0
H356 H 0.5571 0.48025 0.1051 0.0
H357 H 0.43826 0.56854 0.97258 0.0
H358 H 0.4696 0.54748 0.93395 0.0
H359 H 0.43626 0.52495 0.96472 0.0
H360 H 0.54483 0.46642 0.87109 0.0
H361 H 0.45936 0.41797 0.94154 0.0
H362 H 0.56614 0.51819 0.96711 0.0
H363 H 0.53424 0.5422 0.93556 0.0
H364 H 0.5638 0.51808 0.89816 0.0
H365 H 0.46315 0.45634 0.0583 0.0
H366 H 0.43258 0.4374 0.01583 0.0
H367 H 0.43332 0.48102 0.02382 0.0
C368 C 0.07271 0.43278 0.55169 0.0
C369 C 0.04814 0.4339 0.5909 0.0
C370 C 0.07357 0.45674 0.51339 0.0
C371 C 0.05006 0.48298 0.51548 0.0
C372 C 0.026 0.48482 0.55611 0.0
C373 C 0.0249 0.45988 0.59285 0.0
C374 C 0.09886 0.45338 0.46983 0.0
C375 C 1.00127 0.51301 0.56056 0.0
C376 C 0.07125 0.55996 0.44152 0.0
C377 C 0.04798 0.55815 0.40068 0.0
C378 C 0.07225 0.53561 0.47918 0.0
C379 C 0.05028 0.50831 0.47482 0.0
C380 C 0.02781 0.50568 0.43234 0.0
C381 C 0.02645 0.53099 0.39624 0.0
C382 C 0.09578 0.53979 0.52469 0.0
C383 C 0.00483 0.47639 0.42547 0.0
H384 H 0.09037 0.41241 0.54976 0.0
H385 H 0.00595 0.46073 0.62326 0.0
H386 H 0.08483 0.4518 0.43291 0.0
H387 H 0.11558 0.4752 0.46781 0.0
H388 H 0.11534 0.43145 0.47384 0.0
H389 H 0.98581 0.5119 0.59631 0.0
H390 H 0.0155 0.53642 0.55985 0.0
H391 H 0.98351 0.51305 0.52737 0.0
H392 H 0.08754 0.58123 0.44539 0.0
H393 H 0.00849 0.52962 0.36459 0.0
H394 H 0.1132 0.51855 0.52817 0.0
H395 H 0.08034 0.54093 0.56041 0.0
H396 H 0.11156 0.56227 0.52197 0.0
H397 H 0.02016 0.45364 0.42778 0.0
H398 H 0.99106 0.47681 0.38821 0.0
H399 H 0.98558 0.47555 0.45675 0.0
C400 C 0.34939 0.10955 0.24629 0.0
C401 C 0.35662 0.11173 0.29873 0.0
C402 C 0.31535 0.10716 0.22892 0.0
C403 C 0.28813 0.10675 0.26499 0.0
C404 C 0.29573 0.10569 0.31804 0.0
C405 C 0.3299 0.10869 0.33427 0.0
C406 C 0.30847 0.10868 0.17207 0.0
C407 C 0.26763 0.10462 0.35781 0.0
C408 C 0.2086 0.15505 0.23087 0.0
C409 C 0.18502 0.13074 0.21697 0.0
C410 C 0.24205 0.1474 0.24602 0.0
C411 C 0.25249 0.11441 0.24812 0.0
C412 C 0.22895 0.08955 0.23463 0.0
C413 C 0.19556 0.09802 0.21863 0.0
C414 C 0.26629 0.17483 0.25972 0.0
C415 C 0.23913 0.05412 0.23674 0.0
H416 H 0.36996 0.11264 0.21876 0.0
H417 H 0.33557 0.11049 0.37486 0.0
H418 H 0.28768 0.09162 0.16109 0.0
H419 H 0.29995 0.13365 0.16182 0.0
H420 H 0.33177 0.10285 0.14928 0.0
H421 H 0.27764 0.09764 0.39613 0.0
H422 H 0.25562 0.12905 0.36102 0.0
H423 H 0.24728 0.08714 0.34652 0.0
H424 H 0.20091 0.18042 0.22996 0.0
H425 H 0.17822 0.07901 0.20645 0.0
H426 H 0.28966 0.17353 0.23551 0.0
H427 H 0.27453 0.17245 0.30022 0.0
H428 H 0.25442 0.19922 0.25459 0.0
H429 H 0.25995 0.04935 0.20874 0.0
H430 H 0.21729 0.03763 0.22808 0.0
H431 H 0.24931 0.04805 0.27528 0.0
C432 C 0.3466 0.85692 0.76985 0.0
C433 C 0.36404 0.87321 0.7306 0.0
C434 C 0.31207 0.86348 0.78019 0.0
C435 C 0.29431 0.88659 0.74988 0.0
C436 C 0.31251 0.90497 0.71275 0.0
C437 C 0.34738 0.89809 0.70356 0.0
C438 C 0.29393 0.8436 0.82071 0.0
C439 C 0.2946 0.92998 0.67995 0.0
C440 C 0.20343 0.8575 0.73294 0.0
C441 C 0.18628 0.87465 0.77159 0.0
C442 C 0.23803 0.86348 0.72223 0.0
C443 C 0.25613 0.88687 0.75157 0.0
C444 C 0.23823 0.90608 0.78799 0.0
C445 C 0.20328 0.89977 0.79754 0.0
C446 C 0.25585 0.84273 0.68246 0.0
C447 C 0.2565 0.9314 0.81974 0.0
H448 H 0.35967 0.83792 0.79115 0.0
H449 H 0.36084 0.91059 0.67299 0.0
H450 H 0.27825 0.85956 0.84578 0.0
H451 H 0.2763 0.82601 0.802 0.0
H452 H 0.3122 0.82972 0.84502 0.0
H453 H 0.31316 0.94679 0.66138 0.0
H454 H 0.27989 0.91737 0.64942 0.0
H455 H 0.27613 0.94446 0.70294 0.0
H456 H 0.19009 0.83831 0.71247 0.0
H457 H 0.19002 0.91294 0.82763 0.0
H458 H 0.27322 0.8252 0.70183 0.0
H459 H 0.27175 0.85807 0.65678 0.0
H460 H 0.23736 0.82872 0.6587 0.0
H461 H 0.27109 0.91912 0.85071 0.0
H462 H 0.23819 0.94874 0.83768 0.0
H463 H 0.27512 0.94527 0.79612 0.0
C464 C 0.84438 0.85653 0.80025 0.0
C465 C 0.86577 0.87564 0.76915 0.0
C466 C 0.8087 0.85591 0.79257 0.0
C467 C 0.79409 0.87444 0.75232 0.0
C468 C 0.81561 0.89345 0.72041 0.0
C469 C 0.85113 0.89401 0.72944 0.0
C470 C 0.78659 0.83566 0.82784 0.0
C471 C 0.8011 0.91319 0.67667 0.0
C472 C 0.70544 0.8509 0.7036 0.0
C473 C 0.68457 0.87447 0.72699 0.0
C474 C 0.74111 0.85061 0.71144 0.0
C475 C 0.75626 0.87424 0.7439 0.0
C476 C 0.73528 0.89788 0.768 0.0
C477 C 0.69975 0.89782 0.75906 0.0
C478 C 0.76264 0.82519 0.68466 0.0
C479 C 0.75038 0.92328 0.8033 0.0
H480 H 0.85548 0.84236 0.83112 0.0
H481 H 0.8675 0.90865 0.705 0.0
H482 H 0.76756 0.85147 0.84739 0.0
H483 H 0.77201 0.81739 0.80534 0.0
H484 H 0.80189 0.82271 0.8574 0.0
H485 H 0.82137 0.92606 0.65461 0.0
H486 H 0.78672 0.89708 0.65013 0.0
H487 H 0.78271 0.93152 0.6916 0.0
H488 H 0.69396 0.83281 0.67868 0.0
H489 H 0.68382 0.91602 0.77751 0.0
H490 H 0.77677 0.81041 0.7133 0.0
H491 H 0.78205 0.83722 0.65996 0.0
H492 H 0.74696 0.80858 0.66056 0.0
H493 H 0.76443 0.91125 0.83506 0.0
H494 H 0.73049 0.93953 0.81994 0.0
H495 H 0.76917 0.93844 0.78208 0.0
C496 C 0.69919 0.14478 0.28992 0.0
C497 C 0.67859 0.12268 0.26279 0.0
C498 C 0.73495 0.1457 0.28265 0.0
C499 C 0.75046 0.12436 0.24679 0.0
C500 C 0.72969 0.10245 0.21856 0.0
C501 C 0.6941 0.1017 0.22718 0.0
C502 C 0.75619 0.1691 0.31403 0.0
C503 C 0.74511 0.07964 0.1794 0.0
C504 C 0.83969 0.14498 0.19639 0.0
C505 C 0.86046 0.12348 0.22442 0.0
C506 C 0.80389 0.1455 0.20317 0.0
C507 C 0.78849 0.12443 0.23951 0.0
C508 C 0.8094 0.10305 0.26848 0.0
C509 C 0.84505 0.10263 0.26028 0.0
C510 C 0.78248 0.1683 0.17095 0.0
C511 C 0.79412 0.08057 0.3082 0.0
H512 H 0.68747 0.16099 0.31766 0.0
H513 H 0.67837 0.08469 0.2058 0.0
H514 H 0.77503 0.15535 0.33745 0.0
H515 H 0.77098 0.18546 0.28841 0.0
H516 H 0.74022 0.18428 0.34002 0.0
H517 H 0.72533 0.06501 0.15918 0.0
H518 H 0.7599 0.09371 0.15058 0.0
H519 H 0.7633 0.06273 0.1984 0.0
H520 H 0.85137 0.16107 0.16846 0.0
H521 H 0.86091 0.08611 0.28238 0.0
H522 H 0.76767 0.18501 0.196 0.0
H523 H 0.76366 0.15411 0.14815 0.0
H524 H 0.79834 0.18311 0.14432 0.0
H525 H 0.77934 0.09489 0.33674 0.0
H526 H 0.81398 0.06619 0.3287 0.0
H527 H 0.77594 0.06343 0.28967 0.0
C528 C 0.85225 0.5969 0.25686 0.0
C529 C 0.85923 0.62048 0.29437 0.0
C530 C 0.81831 0.59048 0.2414 0.0
C531 C 0.79103 0.60868 0.26307 0.0
C532 C 0.79786 0.63086 0.30333 0.0
C533 C 0.83178 0.6363 0.3186 0.0
C534 C 0.81199 0.56596 0.19938 0.0
C535 C 0.76967 0.65097 0.32747 0.0
C536 C 0.71578 0.63787 0.18485 0.0
C537 C 0.6883 0.62159 0.2082 0.0
C538 C 0.74969 0.63202 0.19978 0.0
C539 C 0.75647 0.60897 0.23882 0.0
C540 C 0.72915 0.59038 0.25951 0.0
C541 C 0.69523 0.59718 0.24439 0.0
C542 C 0.77793 0.65255 0.1767 0.0
C543 C 0.73543 0.56496 0.30018 0.0
H544 H 0.87317 0.5849 0.23718 0.0
H545 H 0.83697 0.65431 0.34801 0.0
H546 H 0.78829 0.55178 0.20696 0.0
H547 H 0.8085 0.5789 0.16243 0.0
H548 H 0.83388 0.54882 0.19518 0.0
H549 H 0.77885 0.66508 0.36113 0.0
H550 H 0.75935 0.66836 0.29877 0.0
H551 H 0.74819 0.63514 0.33989 0.0
H552 H 0.71063 0.65652 0.15644 0.0
H553 H 0.67428 0.5848 0.26335 0.0
H554 H 0.79937 0.63693 0.16343 0.0
H555 H 0.78829 0.6693 0.2063 0.0
H556 H 0.76877 0.66738 0.14381 0.0
H557 H 0.75905 0.55084 0.29175 0.0
H558 H 0.71347 0.54784 0.30358 0.0
H559 H 0.73907 0.5771 0.33777 0.0
C560 C 0.83348 0.35519 0.68574 0.0
C561 C 0.86146 0.37205 0.70665 0.0
C562 C 0.79997 0.36092 0.70279 0.0
C563 C 0.79407 0.38454 0.74132 0.0
C564 C 0.82178 0.40357 0.75966 0.0
C565 C 0.85531 0.39678 0.74264 0.0
C566 C 0.7713 0.33982 0.68233 0.0
C567 C 0.81639 0.42961 0.79968 0.0
C568 C 0.6988 0.39758 0.76294 0.0
C569 C 0.69234 0.37503 0.80222 0.0
C570 C 0.73245 0.40337 0.74562 0.0
C571 C 0.75999 0.38547 0.76705 0.0
C572 C 0.7538 0.36427 0.80881 0.0
C573 C 0.72016 0.35955 0.82605 0.0
C574 C 0.73813 0.4269 0.70203 0.0
C575 C 0.7823 0.34444 0.83263 0.0
H576 H 0.83797 0.33624 0.65755 0.0
H577 H 0.87661 0.40956 0.75996 0.0
H578 H 0.76155 0.32383 0.71339 0.0
H579 H 0.74959 0.35511 0.66917 0.0
H580 H 0.77977 0.32419 0.64993 0.0
H581 H 0.83843 0.44675 0.80141 0.0
H582 H 0.79264 0.44365 0.79183 0.0
H583 H 0.8135 0.41807 0.83786 0.0
H584 H 0.67766 0.40921 0.74336 0.0
H585 H 0.71543 0.3423 0.85673 0.0
H586 H 0.74111 0.41312 0.66572 0.0
H587 H 0.76192 0.44124 0.70802 0.0
H588 H 0.71618 0.44394 0.6976 0.0
H589 H 0.7919 0.3264 0.80435 0.0
H590 H 0.77369 0.3311 0.86738 0.0
H591 H 0.80415 0.36034 0.84325 0.0
C592 C 0.33596 0.37895 0.83193 0.0
C593 C 0.36216 0.36571 0.80145 0.0
C594 C 0.30187 0.37998 0.81453 0.0
C595 C 0.2937 0.36744 0.76547 0.0
C596 C 0.31996 0.35381 0.73465 0.0
C597 C 0.35385 0.35313 0.75298 0.0
C598 C 0.27462 0.39473 0.84855 0.0
C599 C 0.31229 0.34016 0.68215 0.0
C600 C 0.20065 0.34516 0.73855 0.0
C601 C 0.18902 0.37268 0.71176 0.0
C602 C 0.23468 0.34303 0.75597 0.0
C603 C 0.25773 0.36896 0.7462 0.0
C604 C 0.24626 0.39664 0.71869 0.0
C605 C 0.21205 0.3982 0.70194 0.0
C606 C 0.24588 0.31317 0.78533 0.0
C607 C 0.27007 0.42474 0.7073 0.0
H608 H 0.34208 0.38875 0.8694 0.0
H609 H 0.37387 0.34281 0.72914 0.0
H610 H 0.26264 0.41587 0.82903 0.0
H611 H 0.25402 0.37666 0.85582 0.0
H612 H 0.28507 0.403 0.88595 0.0
H613 H 0.33551 0.33006 0.66321 0.0
H614 H 0.29276 0.32059 0.68511 0.0
H615 H 0.30139 0.35951 0.65734 0.0
H616 H 0.18303 0.32537 0.74651 0.0
H617 H 0.20336 0.41952 0.68118 0.0
H618 H 0.25451 0.32028 0.82428 0.0
H619 H 0.26803 0.30153 0.76586 0.0
H620 H 0.22499 0.29492 0.78908 0.0
H621 H 0.27952 0.43549 0.74367 0.0
H622 H 0.25738 0.44419 0.68458 0.0
H623 H 0.29281 0.41594 0.68578 0.0
C624 C 0.19756 0.60646 0.22753 0.0
C625 C 0.18277 0.62476 0.26721 0.0
C626 C 0.23314 0.60693 0.21891 0.0
C627 C 0.25455 0.62573 0.25128 0.0
C628 C 0.23977 0.64427 0.29142 0.0
C629 C 0.20403 0.64377 0.29863 0.0
C630 C 0.24783 0.58722 0.17522 0.0
C631 C 0.26175 0.66427 0.32719 0.0
C632 C 0.34853 0.60121 0.25933 0.0
C633 C 0.36427 0.62444 0.22764 0.0
C634 C 0.31294 0.6016 0.26781 0.0
C635 C 0.29247 0.62558 0.24358 0.0
C636 C 0.30818 0.64911 0.21158 0.0
C637 C 0.3439 0.64838 0.20423 0.0
C638 C 0.29723 0.5763 0.30267 0.0
C639 C 0.28721 0.67486 0.18465 0.0
H640 H 0.18128 0.5919 0.20285 0.0
H641 H 0.1928 0.65787 0.32951 0.0
H642 H 0.26272 0.60328 0.14922 0.0
H643 H 0.26579 0.56859 0.19031 0.0
H644 H 0.22761 0.57473 0.15255 0.0
H645 H 0.2463 0.67739 0.35643 0.0
H646 H 0.28036 0.64823 0.34714 0.0
H647 H 0.27681 0.68237 0.30505 0.0
H648 H 0.36406 0.58273 0.2778 0.0
H649 H 0.35582 0.66638 0.17958 0.0
H650 H 0.27853 0.56132 0.28097 0.0
H651 H 0.28296 0.5884 0.33417 0.0
H652 H 0.31679 0.55986 0.31968 0.0
H653 H 0.26794 0.66312 0.15939 0.0
H654 H 0.30331 0.69143 0.16109 0.0
H655 H 0.27293 0.68965 0.21315 0.0
C656 C 0.04047 0.29092 0.8731 0.0
C657 C 0.03425 0.32445 0.8725 0.0
C658 C 0.03457 0.27255 0.9174 0.0
C659 C 0.02243 0.28826 0.96222 0.0
C660 C 0.01669 0.32235 0.962 0.0
C661 C 0.02243 0.34008 0.91675 0.0
C662 C 0.04074 0.23621 0.91592 0.0
C663 C 0.0042 0.33992 0.00926 0.0
C664 C 0.97931 0.23085 0.05597 0.0
C665 C 0.00697 0.2223 0.08752 0.0
C666 C 0.98344 0.25374 0.01646 0.0
C667 C 0.01584 0.26863 0.00897 0.0
C668 C 0.04312 0.26174 0.04299 0.0
C669 C 0.03841 0.23851 0.08166 0.0
C670 C 0.9538 0.26035 0.98072 0.0
C671 C 0.07789 0.27749 0.03676 0.0
H672 H 0.04915 0.27896 0.83835 0.0
H673 H 0.01739 0.36605 0.91569 0.0
H674 H 0.06002 0.22932 0.94523 0.0
H675 H 0.01666 0.22307 0.92523 0.0
H676 H 0.04998 0.22781 0.87786 0.0
H677 H 1.00222 0.36665 0.00324 0.0
H678 H 0.97861 0.33049 0.02051 0.0
H679 H 0.02186 0.33526 0.04177 0.0
H680 H 0.95495 0.21841 0.06034 0.0
H681 H 0.05974 0.23238 0.10646 0.0
H682 H 0.95948 0.24978 0.9425 0.0
H683 H 0.95018 0.28694 0.97543 0.0
H684 H 0.92941 0.24967 0.99498 0.0
H685 H 0.09049 0.26791 0.00172 0.0
H686 H 0.09494 0.27267 0.07001 0.0
H687 H 0.07518 0.30422 0.03194 0.0
C688 C 0.56318 0.75994 0.5729 0.0
C689 C 0.53481 0.77762 0.59088 0.0
C690 C 0.55955 0.73688 0.53349 0.0
C691 C 0.52684 0.73158 0.51142 0.0
C692 C 0.49787 0.74809 0.53118 0.0
C693 C 0.50217 0.77079 0.57077 0.0
C694 C 0.59098 0.71941 0.51373 0.0
C695 C 0.46257 0.7432 0.50856 0.0
C696 C 0.52278 0.70816 0.37119 0.0
C697 C 0.51471 0.67505 0.37408 0.0
C698 C 0.5271 0.72671 0.41574 0.0
C699 C 0.52339 0.7116 0.46422 0.0
C700 C 0.51544 0.67795 0.46721 0.0
C701 C 0.51111 0.65999 0.4218 0.0
C702 C 0.53538 0.76253 0.41086 0.0
C703 C 0.51143 0.66106 0.51822 0.0
H704 H 0.58845 0.76482 0.58845 0.0
H705 H 0.47999 0.78409 0.58459 0.0
H706 H 0.58601 0.69287 0.5106 0.0
H707 H 0.59727 0.72842 0.47475 0.0
H708 H 0.61364 0.72327 0.53881 0.0
H709 H 0.44228 0.75553 0.53134 0.0
H710 H 0.46199 0.7531 0.46899 0.0
H711 H 0.4564 0.71688 0.50608 0.0
H712 H 0.52565 0.7195 0.33389 0.0
H713 H 0.50505 0.63423 0.42348 0.0
H714 H 0.55981 0.76804 0.43086 0.0
H715 H 0.515 0.77725 0.42947 0.0
H716 H 0.53775 0.77038 0.37027 0.0
H717 H 0.53509 0.66415 0.54134 0.0
H718 H 0.50612 0.63461 0.51389 0.0
H719 H 0.49011 0.67233 0.54011 0.0
C720 C 0.04568 0.77985 0.94089 0.0
C721 C 0.01444 0.78339 0.91473 0.0
C722 C 0.04933 0.75713 0.98057 0.0
C723 C 0.02122 0.73709 0.994 0.0
C724 C 0.99013 0.73937 0.96616 0.0
C725 C 0.98701 0.76269 0.92704 0.0
C726 C 0.08277 0.75572 0.00976 0.0
C727 C 0.9598 0.718 0.97893 0.0
C728 C 0.04053 0.66521 0.08125 0.0
C729 C 0.0309 0.67787 0.12885 0.0
C730 C 0.03666 0.68388 0.03649 0.0
C731 C 0.02349 0.71599 0.0401 0.0
C732 C 0.01377 0.72871 0.08844 0.0
C733 C 0.01741 0.70934 0.13225 0.0
C734 C 0.04684 0.66942 0.98552 0.0
C735 C 1.00016 0.76299 0.09407 0.0
H736 H 0.06708 0.79566 0.93167 0.0
H737 H 0.96289 0.76506 0.90672 0.0
H738 H 0.0785 0.76381 0.04985 0.0
H739 H 0.09248 0.73034 0.01131 0.0
H740 H 0.10286 0.77142 0.99236 0.0
H741 H 0.93884 0.72034 0.95032 0.0
H742 H 0.96781 0.69209 0.98098 0.0
H743 H 0.94952 0.72476 0.01714 0.0
H744 H 0.05091 0.64073 0.07913 0.0
H745 H 0.01016 0.71893 0.16946 0.0
H746 H 0.06833 0.68359 0.96877 0.0
H747 H 0.02506 0.67092 0.95825 0.0
H748 H 0.05492 0.64356 0.98897 0.0
H749 H 0.01965 0.7807 0.08048 0.0
H750 H 0.99346 0.76898 0.13438 0.0
H751 H 0.97698 0.76625 0.06998 0.0
C752 C 0.51431 0.33264 0.58286 0.0
C753 C 0.52594 0.3207 0.62992 0.0
C754 C 0.5171 0.31365 0.53824 0.0
C755 C 0.53128 0.28191 0.54143 0.0
C756 C 0.54343 0.27006 0.58904 0.0
C757 C 0.54071 0.2897 0.63271 0.0
C758 C 0.50425 0.32719 0.48803 0.0
C759 C 0.55823 0.2362 0.59424 0.0
C760 C 0.50439 0.21628 0.44788 0.0
C761 C 0.53396 0.21274 0.41766 0.0
C762 C 0.50281 0.23949 0.48716 0.0
C763 C 0.53132 0.26002 0.4961 0.0
C764 C 0.5607 0.25761 0.46439 0.0
C765 C 0.56179 0.23381 0.42571 0.0
C766 C 0.47115 0.241 0.52054 0.0
C767 C 0.59136 0.27949 0.47238 0.0
H768 H 0.50286 0.35669 0.58114 0.0
H769 H 0.54937 0.28053 0.66947 0.0
H770 H 0.52436 0.32493 0.45813 0.0
H771 H 0.48175 0.31293 0.47486 0.0
H772 H 0.49661 0.35319 0.49124 0.0
H773 H 0.56766 0.23119 0.63364 0.0
H774 H 0.53837 0.21785 0.58447 0.0
H775 H 0.57981 0.23286 0.56701 0.0
H776 H 0.48272 0.20015 0.44203 0.0
H777 H 0.58461 0.23144 0.40224 0.0
H778 H 0.46106 0.26625 0.52202 0.0
H779 H 0.47787 0.23389 0.56033 0.0
H780 H 0.45045 0.22462 0.50667 0.0
H781 H 0.58315 0.30535 0.47423 0.0
H782 H 0.6107 0.2768 0.44137 0.0
H783 H 0.60378 0.27358 0.50948 0.0
C784 C 0.54354 0.83616 0.92267 0.0
C785 C 0.53682 0.82212 0.87492 0.0
C786 C 0.53896 0.81804 0.96787 0.0
C787 C 0.5277 0.78527 0.9646 0.0
C788 C 0.52094 0.77119 0.91609 0.0
C789 C 0.52549 0.78989 0.87181 0.0
C790 C 0.54617 0.83385 0.01896 0.0
C791 C 0.50921 0.73626 0.91088 0.0
C792 C 0.54771 0.72313 0.06717 0.0
C793 C 0.51538 0.71836 0.08976 0.0
C794 C 0.55244 0.74602 0.02803 0.0
C795 C 0.52425 0.76492 0.01135 0.0
C796 C 0.49202 0.76164 0.0359 0.0
C797 C 0.4879 0.73823 0.07471 0.0
C798 C 0.58714 0.74857 0.00252 0.0
C799 C 0.46151 0.78176 0.01955 0.0
H800 H 0.55207 0.86127 0.92455 0.0
H801 H 0.52023 0.77935 0.8345 0.0
H802 H 0.52315 0.83229 0.04386 0.0
H803 H 0.56717 0.82066 0.03878 0.0
H804 H 0.55362 0.85985 0.01496 0.0
H805 H 0.50474 0.7292 0.87032 0.0
H806 H 0.52877 0.71966 0.9274 0.0
H807 H 0.48508 0.7325 0.93264 0.0
H808 H 0.56923 0.70809 0.07866 0.0
H809 H 0.46292 0.73495 0.09225 0.0
H810 H 0.5955 0.77437 0.00051 0.0
H811 H 0.58537 0.73939 0.9626 0.0
H812 H 0.60712 0.73431 0.02298 0.0
H813 H 0.46864 0.80787 0.01687 0.0
H814 H 0.43958 0.77924 0.04647 0.0
H815 H 0.45299 0.7739 0.98091 0.0
C816 C 0.06661 0.26777 0.55812 0.0
C817 C 0.03919 0.27619 0.59026 0.0
C818 C 0.06206 0.24538 0.518 0.0
C819 C 0.02948 0.23083 0.51053 0.0
C820 C 1.00249 0.23744 0.54525 0.0
C821 C 0.0076 0.26023 0.58448 0.0
C822 C 0.0914 0.23908 0.48153 0.0
C823 C 0.96759 0.22195 0.53913 0.0
C824 C 0.00441 0.21063 0.37399 0.0
C825 C 0.01061 0.17712 0.37209 0.0
C826 C 0.01027 0.2283 0.41904 0.0
C827 C 0.02246 0.21189 0.4632 0.0
C828 C 0.02815 0.17782 0.46164 0.0
C829 C 0.02242 0.16081 0.41571 0.0
C830 C 0.00416 0.26464 0.41901 0.0
C831 C 0.04074 0.15951 0.50812 0.0
H832 H 0.09105 0.28006 0.5624 0.0
H833 H 0.98643 0.26633 0.60968 0.0
H834 H 0.09479 0.21255 0.47523 0.0
H835 H 0.08553 0.25023 0.4438 0.0
H836 H 0.11597 0.2494 0.49575 0.0
H837 H 0.95088 0.2263 0.57296 0.0
H838 H 0.95472 0.23219 0.5048 0.0
H839 H 0.9701 0.1953 0.53312 0.0
H840 H 0.99586 0.22313 0.33968 0.0
H841 H 0.02757 0.13488 0.41358 0.0
H842 H 0.02836 0.27761 0.42828 0.0
H843 H 0.98515 0.27116 0.44896 0.0
H844 H 0.99462 0.2736 0.38145 0.0
H845 H 0.06659 0.16842 0.51907 0.0
H846 H 0.04222 0.13283 0.50126 0.0
H847 H 0.02346 0.16405 0.54116 0.0
C848 C 0.54136 0.27783 0.94372 0.0
C849 C 0.51086 0.28297 0.91622 0.0
C850 C 0.54297 0.25506 0.98357 0.0
C851 C 0.5135 0.23658 0.99596 0.0
C852 C 0.48308 0.24047 0.96694 0.0
C853 C 0.48203 0.26381 0.92754 0.0
C854 C 0.57581 0.25189 0.01394 0.0
C855 C 0.45134 0.22078 0.97864 0.0
C856 C 0.5291 0.16416 0.08362 0.0
C857 C 0.52034 0.17741 0.13121 0.0
C858 C 0.52573 0.18273 0.03867 0.0
C859 C 0.51395 0.21533 0.04202 0.0
C860 C 0.50484 0.22857 0.09028 0.0
C861 C 0.50806 0.20935 0.13433 0.0
C862 C 0.53537 0.16774 0.98784 0.0
C863 C 0.4927 0.26336 0.09562 0.0
H864 H 0.56386 0.29239 0.93529 0.0
H865 H 0.45846 0.26742 0.90627 0.0
H866 H 0.57134 0.25996 0.05399 0.0
H867 H 0.58412 0.22607 0.01544 0.0
H868 H 0.597 0.26668 0.99751 0.0
H869 H 0.43098 0.22427 0.94937 0.0
H870 H 0.45776 0.19448 0.98084 0.0
H871 H 0.44094 0.22804 0.01655 0.0
H872 H 0.53866 0.13938 0.08169 0.0
H873 H 0.50159 0.21945 0.17152 0.0
H874 H 0.55812 0.18041 0.97188 0.0
H875 H 0.51414 0.17081 0.95994 0.0
H876 H 0.54142 0.14138 0.99131 0.0
H877 H 0.51331 0.28025 0.08318 0.0
H878 H 0.48545 0.26949 0.13566 0.0
H879 H 0.47024 0.26771 0.07047 0.0
C880 C 1.00275 0.71563 0.44479 0.0
C881 C 0.03317 0.71425 0.41604 0.0
C882 C 0.99852 0.73852 0.48408 0.0
C883 C 0.02512 0.76099 0.49441 0.0
C884 C 0.05527 0.76077 0.46407 0.0
C885 C 0.05909 0.73716 0.42547 0.0
C886 C 0.96623 0.73758 0.51613 0.0
C887 C 0.0839 0.78478 0.4735 0.0
C888 C 1.00211 0.83212 0.58132 0.0
C889 C 0.01468 0.821 0.62831 0.0
C890 C 0.00618 0.81326 0.53675 0.0
C891 C 0.02257 0.7825 0.54001 0.0
C892 C 0.03517 0.7713 0.58775 0.0
C893 C 0.03121 0.79083 0.63129 0.0
C894 C 0.99282 0.82608 0.48637 0.0
C895 C 0.05222 0.73842 0.59308 0.0
H896 H 0.98254 0.69804 0.43785 0.0
H897 H 0.08252 0.73645 0.40309 0.0
H898 H 0.97275 0.73059 0.55604 0.0
H899 H 0.9542 0.76204 0.51767 0.0
H900 H 0.9471 0.71994 0.50108 0.0
H901 H 0.10393 0.78369 0.44323 0.0
H902 H 0.07358 0.80995 0.47531 0.0
H903 H 0.09613 0.77959 0.511 0.0
H904 H 0.98939 0.85558 0.57947 0.0
H905 H 0.0407 0.78238 0.66804 0.0
H906 H 0.97225 0.80989 0.47178 0.0
H907 H 0.01365 0.82611 0.45737 0.0
H908 H 0.98239 0.85117 0.48986 0.0
H909 H 0.03407 0.71891 0.58162 0.0
H910 H 0.06093 0.73358 0.63289 0.0
H911 H 0.07472 0.73684 0.56715 0.0
loop_
_geom_bond_atom_site_label_1
_geom_bond_atom_site_label_2
_geom_bond_distance
_geom_bond_site_symmetry_2
_ccdc_geom_bond_type
Co0 O3 1.970 . S
Co0 N17 1.989 . S
Co0 O25 1.967 . S
Co0 O32 1.920 . S
Co1 O4 1.966 . S
Co1 N10 2.022 . S
Co1 N18 1.993 . S
Co1 O26 1.941 . S
C2 O3 1.258 1_455 S
C2 O4 1.263 . S
O3 Co0 1.970 . S
O3 C2 1.258 1_655 S
O4 Co1 1.966 . S
O4 C2 1.263 . S
C5 O6 1.235 . S
C5 O32 1.289 . S
O6 C5 1.235 . S
C7 C9 1.400 . S
C7 N10 1.351 . S
C7 C12 1.501 . S
C8 C9 1.387 . S
C8 N11 1.341 . S
C9 C7 1.400 . S
C9 C8 1.387 . S
N10 Co1 2.022 . S
N10 C7 1.351 . S
N10 N11 1.365 . S
N11 C8 1.341 . S
N11 N10 1.365 . S
N11 H31 0.862 . S
C12 C7 1.501 . S
C12 H13 0.961 . S
C12 H14 0.961 . S
C12 H15 0.960 . S
H13 C12 0.961 . S
H14 C12 0.961 . S
H15 C12 0.960 . S
C16 N17 1.342 . S
C16 C20 1.401 1_655 S
C16 C21 1.499 . S
N17 Co0 1.989 . S
N17 C16 1.342 . S
N17 N18 1.388 1_655 S
N18 Co1 1.993 . S
N18 N17 1.388 1_455 S
N18 C19 1.346 . S
C19 N18 1.346 . S
C19 C20 1.396 . S
C19 C29 1.510 . S
C20 C16 1.401 1_455 S
C20 C19 1.396 . S
C21 C16 1.499 . S
C21 H22 0.959 . S
C21 H23 0.960 . S
C21 H24 0.961 . S
H22 C21 0.959 . S
H23 C21 0.960 . S
H24 C21 0.961 . S
O25 Co0 1.967 . S
O25 C33 1.258 1_655 S
O26 Co1 1.941 . S
O26 C33 1.266 . S
H27 C29 0.959 . S
H28 C29 0.961 . S
C29 C19 1.510 . S
C29 H27 0.959 . S
C29 H28 0.961 . S
C29 H30 0.960 . S
H30 C29 0.960 . S
H31 N11 0.862 . S
O32 Co0 1.920 . S
O32 C5 1.289 . S
C33 O25 1.258 1_455 S
C33 O26 1.266 . S
Co34 O37 1.970 . S
Co34 N51 1.989 . S
Co34 O59 1.967 . S
Co34 O66 1.920 . S
Co35 O38 1.966 . S
Co35 N44 2.022 . S
Co35 N52 1.993 . S
Co35 O60 1.941 . S
C36 O37 1.258 . S
C36 O38 1.263 . S
O37 Co34 1.970 . S
O37 C36 1.258 . S
O38 Co35 1.966 . S
O38 C36 1.263 . S
C39 O40 1.235 . S
C39 O66 1.289 . S
O40 C39 1.235 . S
C41 C43 1.400 . S
C41 N44 1.351 . S
C41 C46 1.501 . S
C42 C43 1.387 . S
C42 N45 1.341 . S
C43 C41 1.400 . S
C43 C42 1.387 . S
N44 Co35 2.022 . S
N44 C41 1.351 . S
N44 N45 1.365 . S
N45 C42 1.341 . S
N45 N44 1.365 . S
N45 H65 0.862 . S
C46 C41 1.501 . S
C46 H47 0.961 . S
C46 H48 0.961 . S
C46 H49 0.960 . S
H47 C46 0.961 . S
H48 C46 0.961 . S
H49 C46 0.960 . S
C50 N51 1.342 . S
C50 C54 1.401 . S
C50 C55 1.499 . S
N51 Co34 1.989 . S
N51 C50 1.342 . S
N51 N52 1.388 . S
N52 Co35 1.993 . S
N52 N51 1.388 . S
N52 C53 1.346 . S
C53 N52 1.346 . S
C53 C54 1.396 . S
C53 C63 1.510 . S
C54 C50 1.401 . S
C54 C53 1.396 . S
C55 C50 1.499 . S
C55 H56 0.959 . S
C55 H57 0.960 . S
C55 H58 0.961 . S
H56 C55 0.959 . S
H57 C55 0.960 . S
H58 C55 0.961 . S
O59 Co34 1.967 . S
O59 C67 1.258 . S
O60 Co35 1.941 . S
O60 C67 1.266 . S
H61 C63 0.959 . S
H62 C63 0.961 . S
C63 C53 1.510 . S
C63 H61 0.959 . S
C63 H62 0.961 . S
C63 H64 0.960 . S
H64 C63 0.960 . S
H65 N45 0.862 . S
O66 Co34 1.920 . S
O66 C39 1.289 . S
C67 O59 1.258 . S
C67 O60 1.266 . S
Co68 O71 1.970 . S
Co68 N85 1.989 . S
Co68 O93 1.967 . S
Co68 O100 1.920 . S
Co69 O72 1.966 . S
Co69 N78 2.022 . S
Co69 N86 1.993 . S
Co69 O94 1.941 . S
C70 O71 1.258 1_455 S
C70 O72 1.263 . S
O71 Co68 1.970 . S
O71 C70 1.258 1_655 S
O72 Co69 1.966 . S
O72 C70 1.263 . S
C73 O74 1.235 . S
C73 O100 1.289 . S
O74 C73 1.235 . S
C75 C77 1.400 . S
C75 N78 1.351 . S
C75 C80 1.501 . S
C76 C77 1.387 . S
C76 N79 1.341 . S
C77 C75 1.400 . S
C77 C76 1.387 . S
N78 Co69 2.022 . S
N78 C75 1.351 . S
N78 N79 1.365 . S
N79 C76 1.341 . S
N79 N78 1.365 . S
N79 H99 0.862 . S
C80 C75 1.501 . S
C80 H81 0.961 . S
C80 H82 0.961 . S
C80 H83 0.960 . S
H81 C80 0.961 . S
H82 C80 0.961 . S
H83 C80 0.960 . S
C84 N85 1.342 . S
C84 C88 1.401 1_655 S
C84 C89 1.499 . S
N85 Co68 1.989 . S
N85 C84 1.342 . S
N85 N86 1.388 1_655 S
N86 Co69 1.993 . S
N86 N85 1.388 1_455 S
N86 C87 1.346 . S
C87 N86 1.346 . S
C87 C88 1.396 . S
C87 C97 1.510 . S
C88 C84 1.401 1_455 S
C88 C87 1.396 . S
C89 C84 1.499 . S
C89 H90 0.959 . S
C89 H91 0.960 . S
C89 H92 0.961 . S
H90 C89 0.959 . S
H91 C89 0.960 . S
H92 C89 0.961 . S
O93 Co68 1.967 . S
O93 C101 1.258 1_655 S
O94 Co69 1.941 . S
O94 C101 1.266 . S
H95 C97 0.959 . S
H96 C97 0.961 . S
C97 C87 1.510 . S
C97 H95 0.959 . S
C97 H96 0.961 . S
C97 H98 0.960 . S
H98 C97 0.960 . S
H99 N79 0.862 . S
O100 Co68 1.920 . S
O100 C73 1.289 . S
C101 O93 1.258 1_455 S
C101 O94 1.266 . S
Co102 O105 1.970 . S
Co102 N119 1.989 . S
Co102 O127 1.967 . S
Co102 O134 1.920 . S
Co103 O106 1.966 . S
Co103 N112 2.022 . S
Co103 N120 1.993 . S
Co103 O128 1.941 . S
C104 O105 1.258 . S
C104 O106 1.263 . S
O105 Co102 1.970 . S
O105 C104 1.258 . S
O106 Co103 1.966 . S
O106 C104 1.263 . S
C107 O108 1.235 . S
C107 O134 1.289 . S
O108 C107 1.235 . S
C109 C111 1.400 . S
C109 N112 1.351 . S
C109 C114 1.501 . S
C110 C111 1.387 . S
C110 N113 1.341 . S
C111 C109 1.400 . S
C111 C110 1.387 . S
N112 Co103 2.022 . S
N112 C109 1.351 . S
N112 N113 1.365 . S
N113 C110 1.341 . S
N113 N112 1.365 . S
N113 H133 0.862 . S
C114 C109 1.501 . S
C114 H115 0.961 . S
C114 H116 0.961 . S
C114 H117 0.960 . S
H115 C114 0.961 . S
H116 C114 0.961 . S
H117 C114 0.960 . S
C118 N119 1.342 . S
C118 C122 1.401 . S
C118 C123 1.499 . S
N119 Co102 1.989 . S
N119 C118 1.342 . S
N119 N120 1.388 . S
N120 Co103 1.993 . S
N120 N119 1.388 . S
N120 C121 1.346 . S
C121 N120 1.346 . S
C121 C122 1.396 . S
C121 C131 1.510 . S
C122 C118 1.401 . S
C122 C121 1.396 . S
C123 C118 1.499 . S
C123 H124 0.959 . S
C123 H125 0.960 . S
C123 H126 0.961 . S
H124 C123 0.959 . S
H125 C123 0.960 . S
H126 C123 0.961 . S
O127 Co102 1.967 . S
O127 C135 1.258 . S
O128 Co103 1.941 . S
O128 C135 1.266 . S
H129 C131 0.959 . S
H130 C131 0.961 . S
C131 C121 1.510 . S
C131 H129 0.959 . S
C131 H130 0.961 . S
C131 H132 0.960 . S
H132 C131 0.960 . S
H133 N113 0.862 . S
O134 Co102 1.920 . S
O134 C107 1.289 . S
C135 O127 1.258 . S
C135 O128 1.266 . S
Co136 O139 1.970 . S
Co136 N153 1.989 . S
Co136 O161 1.967 . S
Co136 O168 1.920 . S
Co137 O140 1.966 . S
Co137 N146 2.022 . S
Co137 N154 1.993 . S
Co137 O162 1.941 . S
C138 O139 1.258 . S
C138 O140 1.263 . S
O139 Co136 1.970 . S
O139 C138 1.258 . S
O140 Co137 1.966 . S
O140 C138 1.263 . S
C141 O142 1.235 . S
C141 O168 1.289 . S
O142 C141 1.235 . S
C143 C145 1.400 . S
C143 N146 1.351 . S
C143 C148 1.501 . S
C144 C145 1.387 . S
C144 N147 1.341 . S
C145 C143 1.400 . S
C145 C144 1.387 . S
N146 Co137 2.022 . S
N146 C143 1.351 . S
N146 N147 1.365 . S
N147 C144 1.341 . S
N147 N146 1.365 . S
N147 H167 0.862 . S
C148 C143 1.501 . S
C148 H149 0.961 . S
C148 H150 0.961 . S
C148 H151 0.960 . S
H149 C148 0.961 . S
H150 C148 0.961 . S
H151 C148 0.960 . S
C152 N153 1.342 . S
C152 C156 1.401 . S
C152 C157 1.499 . S
N153 Co136 1.989 . S
N153 C152 1.342 . S
N153 N154 1.388 . S
N154 Co137 1.993 . S
N154 N153 1.388 . S
N154 C155 1.346 . S
C155 N154 1.346 . S
C155 C156 1.396 . S
C155 C165 1.510 . S
C156 C152 1.401 . S
C156 C155 1.396 . S
C157 C152 1.499 . S
C157 H158 0.959 . S
C157 H159 0.960 . S
C157 H160 0.961 . S
H158 C157 0.959 . S
H159 C157 0.960 . S
H160 C157 0.961 . S
O161 Co136 1.967 . S
O161 C169 1.258 . S
O162 Co137 1.941 . S
O162 C169 1.266 . S
H163 C165 0.959 . S
H164 C165 0.961 . S
C165 C155 1.510 . S
C165 H163 0.959 . S
C165 H164 0.961 . S
C165 H166 0.960 . S
H166 C165 0.960 . S
H167 N147 0.862 . S
O168 Co136 1.920 . S
O168 C141 1.289 . S
C169 O161 1.258 . S
C169 O162 1.266 . S
Co170 O173 1.970 . S
Co170 N187 1.989 . S
Co170 O195 1.967 . S
Co170 O202 1.920 . S
Co171 O174 1.969 . S
Co171 N180 2.022 . S
Co171 N188 1.993 1_655 S
Co171 O196 1.941 . S
C172 O173 1.258 . S
C172 O174 1.254 1_455 S
O173 Co170 1.970 . S
O173 C172 1.258 . S
O174 Co171 1.969 . S
O174 C172 1.254 1_655 S
C175 O176 1.235 . S
C175 O202 1.289 . S
O176 C175 1.235 . S
C177 C179 1.400 . S
C177 N180 1.351 . S
C177 C182 1.501 . S
C178 C179 1.387 . S
C178 N181 1.341 . S
C179 C177 1.400 . S
C179 C178 1.387 . S
N180 Co171 2.022 . S
N180 C177 1.351 . S
N180 N181 1.365 . S
N181 C178 1.341 . S
N181 N180 1.365 . S
N181 H201 0.862 . S
C182 C177 1.501 . S
C182 H183 0.961 . S
C182 H184 0.961 . S
C182 H185 0.960 . S
H183 C182 0.961 . S
H184 C182 0.961 . S
H185 C182 0.960 . S
C186 N187 1.342 . S
C186 C190 1.401 . S
C186 C191 1.499 . S
N187 Co170 1.989 . S
N187 C186 1.342 . S
N187 N188 1.388 . S
N188 Co171 1.993 1_455 S
N188 N187 1.388 . S
N188 C189 1.346 1_455 S
C189 N188 1.346 1_655 S
C189 C190 1.396 1_655 S
C189 C199 1.510 . S
C190 C186 1.401 . S
C190 C189 1.396 1_455 S
C191 C186 1.499 . S
C191 H192 0.959 . S
C191 H193 0.960 . S
C191 H194 0.961 . S
H192 C191 0.959 . S
H193 C191 0.960 . S
H194 C191 0.961 . S
O195 Co170 1.967 . S
O195 C203 1.258 . S
O196 Co171 1.941 . S
O196 C203 1.266 1_655 S
H197 C199 0.959 . S
H198 C199 0.961 . S
C199 C189 1.510 . S
C199 H197 0.959 . S
C199 H198 0.961 . S
C199 H200 0.960 . S
H200 C199 0.960 . S
H201 N181 0.862 . S
O202 Co170 1.920 . S
O202 C175 1.289 . S
C203 O195 1.258 . S
C203 O196 1.266 1_455 S
Co204 O207 1.970 . S
Co204 N221 1.989 . S
Co204 O229 1.967 . S
Co204 O236 1.920 . S
Co205 O208 1.966 . S
Co205 N214 2.022 . S
Co205 N222 1.993 . S
Co205 O230 1.941 . S
C206 O207 1.258 . S
C206 O208 1.263 . S
O207 Co204 1.970 . S
O207 C206 1.258 . S
O208 Co205 1.966 . S
O208 C206 1.263 . S
C209 O210 1.235 . S
C209 O236 1.289 . S
O210 C209 1.235 . S
C211 C213 1.400 . S
C211 N214 1.351 . S
C211 C216 1.501 . S
C212 C213 1.387 . S
C212 N215 1.341 . S
C213 C211 1.400 . S
C213 C212 1.387 . S
N214 Co205 2.022 . S
N214 C211 1.351 . S
N214 N215 1.365 . S
N215 C212 1.341 . S
N215 N214 1.365 . S
N215 H235 0.862 . S
C216 C211 1.501 . S
C216 H217 0.961 . S
C216 H218 0.961 . S
C216 H219 0.960 . S
H217 C216 0.961 . S
H218 C216 0.961 . S
H219 C216 0.960 . S
C220 N221 1.342 . S
C220 C224 1.401 . S
C220 C225 1.499 . S
N221 Co204 1.989 . S
N221 C220 1.342 . S
N221 N222 1.388 . S
N222 Co205 1.993 . S
N222 N221 1.388 . S
N222 C223 1.346 . S
C223 N222 1.346 . S
C223 C224 1.396 . S
C223 C233 1.510 . S
C224 C220 1.401 . S
C224 C223 1.396 . S
C225 C220 1.499 . S
C225 H226 0.959 . S
C225 H227 0.960 . S
C225 H228 0.961 . S
H226 C225 0.959 . S
H227 C225 0.960 . S
H228 C225 0.961 . S
O229 Co204 1.967 . S
O229 C237 1.258 . S
O230 Co205 1.941 . S
O230 C237 1.266 . S
H231 C233 0.959 . S
H232 C233 0.961 . S
C233 C223 1.510 . S
C233 H231 0.959 . S
C233 H232 0.961 . S
C233 H234 0.960 . S
H234 C233 0.960 . S
H235 N215 0.862 . S
O236 Co204 1.920 . S
O236 C209 1.289 . S
C237 O229 1.258 . S
C237 O230 1.266 . S
Co238 O241 1.970 . S
Co238 N255 1.989 . S
Co238 O263 1.967 . S
Co238 O270 1.920 . S
Co239 O242 1.969 . S
Co239 N248 2.022 . S
Co239 N256 1.993 1_655 S
Co239 O264 1.941 . S
C240 O241 1.258 . S
C240 O242 1.253 1_455 S
O241 Co238 1.970 . S
O241 C240 1.258 . S
O242 Co239 1.969 . S
O242 C240 1.253 1_655 S
C243 O244 1.235 . S
C243 O270 1.289 . S
O244 C243 1.235 . S
C245 C247 1.400 . S
C245 N248 1.351 . S
C245 C250 1.501 . S
C246 C247 1.387 . S
C246 N249 1.341 . S
C247 C245 1.400 . S
C247 C246 1.387 . S
N248 Co239 2.022 . S
N248 C245 1.351 . S
N248 N249 1.365 . S
N249 C246 1.341 . S
N249 N248 1.365 . S
N249 H269 0.862 . S
C250 C245 1.501 . S
C250 H251 0.961 . S
C250 H252 0.961 . S
C250 H253 0.960 . S
H251 C250 0.961 . S
H252 C250 0.961 . S
H253 C250 0.960 . S
C254 N255 1.342 . S
C254 C258 1.401 . S
C254 C259 1.499 . S
N255 Co238 1.989 . S
N255 C254 1.342 . S
N255 N256 1.388 . S
N256 Co239 1.993 1_455 S
N256 N255 1.388 . S
N256 C257 1.346 1_455 S
C257 N256 1.346 1_655 S
C257 C258 1.396 1_655 S
C257 C267 1.510 . S
C258 C254 1.401 . S
C258 C257 1.396 1_455 S
C259 C254 1.499 . S
C259 H260 0.959 . S
C259 H261 0.960 . S
C259 H262 0.961 . S
H260 C259 0.959 . S
H261 C259 0.960 . S
H262 C259 0.961 . S
O263 Co238 1.967 . S
O263 C271 1.258 . S
O264 Co239 1.941 . S
O264 C271 1.266 1_655 S
H265 C267 0.959 . S
H266 C267 0.961 . S
C267 C257 1.510 . S
C267 H265 0.959 . S
C267 H266 0.961 . S
C267 H268 0.960 . S
H268 C267 0.960 . S
H269 N249 0.862 . S
O270 Co238 1.920 . S
O270 C243 1.289 . S
C271 O263 1.258 . S
C271 O264 1.266 1_455 S
C272 C273 1.391 . S
C272 C274 1.394 . S
C272 H288 0.931 . S
C273 C272 1.391 . S
C273 C277 1.376 1_455 S
C274 C272 1.394 . S
C274 C275 1.369 . S
C274 C278 1.531 . S
C275 C274 1.369 . S
C275 C276 1.410 1_455 S
C275 C283 1.503 1_566 S
C276 C275 1.410 1_655 S
C276 C277 1.392 . S
C276 C279 1.511 . S
C277 C273 1.376 1_655 S
C277 C276 1.392 . S
C277 H289 0.929 . S
C278 C274 1.531 . S
C278 H290 0.960 1_565 S
C278 H291 0.969 . S
C278 H292 0.960 . S
C279 C276 1.511 . S
C279 H293 0.961 . S
C279 H294 0.961 1_566 S
C279 H295 0.961 1_565 S
C280 C281 1.370 . S
C280 C282 1.363 . S
C280 H296 0.931 . S
C281 C280 1.370 . S
C281 C285 1.408 . S
C282 C280 1.363 . S
C282 C283 1.370 . S
C282 C286 1.524 1_545 S
C283 C275 1.503 1_544 S
C283 C282 1.370 . S
C283 C284 1.403 . S
C284 C283 1.403 . S
C284 C285 1.404 . S
C284 C287 1.539 1_554 S
C285 C281 1.408 . S
C285 C284 1.404 . S
C285 H297 0.930 . S
C286 C282 1.524 1_565 S
C286 H298 0.956 . S
C286 H299 0.961 1_455 S
C286 H300 0.961 . S
C287 C284 1.539 1_556 S
C287 H301 0.958 . S
C287 H302 0.977 . S
C287 H303 0.960 . S
H288 C272 0.931 . S
H289 C277 0.929 . S
H290 C278 0.960 1_545 S
H291 C278 0.969 . S
H292 C278 0.960 . S
H293 C279 0.961 . S
H294 C279 0.961 1_544 S
H295 C279 0.961 1_545 S
H296 C280 0.931 . S
H297 C285 0.930 . S
H298 C286 0.956 . S
H299 C286 0.961 1_655 S
H300 C286 0.961 . S
H301 C287 0.958 . S
H302 C287 0.977 . S
H303 C287 0.960 . S
C304 C305 1.391 . S
C304 C306 1.394 . S
C304 H320 0.931 . S
C305 C304 1.391 . S
C305 C309 1.376 . S
C306 C304 1.394 . S
C306 C307 1.369 . S
C306 C310 1.531 . S
C307 C306 1.369 . S
C307 C308 1.409 1_545 S
C307 C315 1.503 1_545 S
C308 C307 1.409 1_565 S
C308 C309 1.391 1_565 S
C308 C311 1.513 . S
C309 C305 1.376 . S
C309 C308 1.391 1_545 S
C309 H321 0.929 . S
C310 C306 1.531 . S
C310 H322 0.960 . S
C310 H323 0.962 . S
C310 H324 0.960 . S
C311 C308 1.513 . S
C311 H325 0.961 . S
C311 H326 0.961 . S
C311 H327 0.961 . S
C312 C313 1.370 . S
C312 C314 1.363 . S
C312 H328 0.931 . S
C313 C312 1.370 . S
C313 C317 1.408 . S
C314 C312 1.363 . S
C314 C315 1.370 . S
C314 C318 1.524 . S
C315 C307 1.503 1_565 S
C315 C314 1.370 . S
C315 C316 1.403 . S
C316 C315 1.403 . S
C316 C317 1.404 . S
C316 C319 1.539 . S
C317 C313 1.408 . S
C317 C316 1.404 . S
C317 H329 0.930 . S
C318 C314 1.524 . S
C318 H330 0.956 1_565 S
C318 H331 0.961 . S
C318 H332 0.961 . S
C319 C316 1.539 . S
C319 H333 0.958 1_565 S
C319 H334 0.961 . S
C319 H335 0.960 . S
H320 C304 0.931 . S
H321 C309 0.929 . S
H322 C310 0.960 . S
H323 C310 0.962 . S
H324 C310 0.960 . S
H325 C311 0.961 . S
H326 C311 0.961 . S
H327 C311 0.961 . S
H328 C312 0.931 . S
H329 C317 0.930 . S
H330 C318 0.956 1_545 S
H331 C318 0.961 . S
H332 C318 0.961 . S
H333 C319 0.958 1_545 S
H334 C319 0.961 . S
H335 C319 0.960 . S
C336 C337 1.391 . S
C336 C338 1.394 . S
C336 H352 0.931 . S
C337 C336 1.391 . S
C337 C341 1.376 . S
C338 C336 1.394 . S
C338 C339 1.369 . S
C338 C342 1.531 . S
C339 C338 1.369 . S
C339 C340 1.410 . S
C339 C347 1.503 1_554 S
C340 C339 1.410 . S
C340 C341 1.392 . S
C340 C343 1.511 1_554 S
C341 C337 1.376 . S
C341 C340 1.392 . S
C341 H353 0.929 . S
C342 C338 1.531 . S
C342 H354 0.960 . S
C342 H355 0.962 . S
C342 H356 0.960 . S
C343 C340 1.511 1_556 S
C343 H357 0.961 . S
C343 H358 0.961 . S
C343 H359 0.961 . S
C344 C345 1.370 . S
C344 C346 1.363 . S
C344 H360 0.931 . S
C345 C344 1.370 . S
C345 C349 1.408 . S
C346 C344 1.363 . S
C346 C347 1.370 . S
C346 C350 1.524 . S
C347 C339 1.503 1_556 S
C347 C346 1.370 . S
C347 C348 1.403 . S
C348 C347 1.403 . S
C348 C349 1.404 . S
C348 C351 1.539 1_556 S
C349 C345 1.408 . S
C349 C348 1.404 . S
C349 H361 0.930 . S
C350 C346 1.524 . S
C350 H362 0.956 . S
C350 H363 0.961 . S
C350 H364 0.961 . S
C351 C348 1.539 1_554 S
C351 H365 0.958 . S
C351 H366 0.961 . S
C351 H367 0.960 . S
H352 C336 0.931 . S
H353 C341 0.929 . S
H354 C342 0.960 . S
H355 C342 0.962 . S
H356 C342 0.960 . S
H357 C343 0.961 . S
H358 C343 0.961 . S
H359 C343 0.961 . S
H360 C344 0.931 . S
H361 C349 0.930 . S
H362 C350 0.956 . S
H363 C350 0.961 . S
H364 C350 0.961 . S
H365 C351 0.958 . S
H366 C351 0.961 . S
H367 C351 0.960 . S
C368 C369 1.391 . S
C368 C370 1.394 . S
C368 H384 0.931 . S
C369 C368 1.391 . S
C369 C373 1.376 1_455 S
C370 C368 1.394 . S
C370 C371 1.369 . S
C370 C374 1.531 . S
C371 C370 1.369 . S
C371 C372 1.410 1_455 S
C371 C379 1.503 . S
C372 C371 1.410 1_655 S
C372 C373 1.392 . S
C372 C375 1.511 . S
C373 C369 1.376 1_655 S
C373 C372 1.392 . S
C373 H385 0.929 . S
C374 C370 1.531 . S
C374 H386 0.960 . S
C374 H387 0.962 . S
C374 H388 0.960 . S
C375 C372 1.511 . S
C375 H389 0.961 . S
C375 H390 0.961 . S
C375 H391 0.961 . S
C376 C377 1.370 . S
C376 C378 1.363 . S
C376 H392 0.931 . S
C377 C376 1.370 . S
C377 C381 1.408 . S
C378 C376 1.363 . S
C378 C379 1.370 . S
C378 C382 1.524 . S
C379 C371 1.503 . S
C379 C378 1.370 . S
C379 C380 1.403 . S
C380 C379 1.403 . S
C380 C381 1.404 . S
C380 C383 1.539 1_455 S
C381 C377 1.408 . S
C381 C380 1.404 . S
C381 H393 0.930 1_455 S
C382 C378 1.524 . S
C382 H394 0.956 . S
C382 H395 0.961 . S
C382 H396 0.961 . S
C383 C380 1.539 1_655 S
C383 H397 0.958 . S
C383 H398 0.961 . S
C383 H399 0.960 . S
H384 C368 0.931 . S
H385 C373 0.929 . S
H386 C374 0.960 . S
H387 C374 0.962 . S
H388 C374 0.960 . S
H389 C375 0.961 . S
H390 C375 0.961 . S
H391 C375 0.961 . S
H392 C376 0.931 . S
H393 C381 0.930 1_655 S
H394 C382 0.956 . S
H395 C382 0.961 . S
H396 C382 0.961 . S
H397 C383 0.958 . S
H398 C383 0.961 . S
H399 C383 0.960 . S
C400 C401 1.391 . S
C400 C402 1.394 . S
C400 H416 0.931 . S
C401 C400 1.391 . S
C401 C405 1.376 . S
C402 C400 1.394 . S
C402 C403 1.369 . S
C402 C406 1.531 . S
C403 C402 1.369 . S
C403 C404 1.410 . S
C403 C411 1.503 . S
C404 C403 1.410 . S
C404 C405 1.392 . S
C404 C407 1.511 . S
C405 C401 1.376 . S
C405 C404 1.392 . S
C405 H417 0.929 . S
C406 C402 1.531 . S
C406 H418 0.960 . S
C406 H419 0.962 . S
C406 H420 0.960 . S
C407 C404 1.511 . S
C407 H421 0.961 . S
C407 H422 0.961 . S
C407 H423 0.961 . S
C408 C409 1.370 . S
C408 C410 1.363 . S
C408 H424 0.931 . S
C409 C408 1.370 . S
C409 C413 1.408 . S
C410 C408 1.363 . S
C410 C411 1.370 . S
C410 C414 1.524 . S
C411 C403 1.503 . S
C411 C410 1.370 . S
C411 C412 1.403 . S
C412 C411 1.403 . S
C412 C413 1.404 . S
C412 C415 1.539 . S
C413 C409 1.408 . S
C413 C412 1.404 . S
C413 H425 0.930 . S
C414 C410 1.524 . S
C414 H426 0.956 . S
C414 H427 0.961 . S
C414 H428 0.961 . S
C415 C412 1.539 . S
C415 H429 0.958 . S
C415 H430 0.961 . S
C415 H431 0.960 . S
H416 C400 0.931 . S
H417 C405 0.929 . S
H418 C406 0.960 . S
H419 C406 0.962 . S
H420 C406 0.960 . S
H421 C407 0.961 . S
H422 C407 0.961 . S
H423 C407 0.961 . S
H424 C408 0.931 . S
H425 C413 0.930 . S
H426 C414 0.956 . S
H427 C414 0.961 . S
H428 C414 0.961 . S
H429 C415 0.958 . S
H430 C415 0.961 . S
H431 C415 0.960 . S
C432 C433 1.391 . S
C432 C434 1.394 . S
C432 H448 0.931 . S
C433 C432 1.391 . S
C433 C437 1.376 . S
C434 C432 1.394 . S
C434 C435 1.369 . S
C434 C438 1.531 . S
C435 C434 1.369 . S
C435 C436 1.410 . S
C435 C443 1.503 . S
C436 C435 1.410 . S
C436 C437 1.392 . S
C436 C439 1.511 . S
C437 C433 1.376 . S
C437 C436 1.392 . S
C437 H449 0.929 . S
C438 C434 1.531 . S
C438 H450 0.960 . S
C438 H451 0.962 . S
C438 H452 0.960 . S
C439 C436 1.511 . S
C439 H453 0.961 . S
C439 H454 0.961 . S
C439 H455 0.961 . S
C440 C441 1.370 . S
C440 C442 1.363 . S
C440 H456 0.931 . S
C441 C440 1.370 . S
C441 C445 1.408 . S
C442 C440 1.363 . S
C442 C443 1.370 . S
C442 C446 1.524 . S
C443 C435 1.503 . S
C443 C442 1.370 . S
C443 C444 1.403 . S
C444 C443 1.403 . S
C444 C445 1.404 . S
C444 C447 1.539 . S
C445 C441 1.408 . S
C445 C444 1.404 . S
C445 H457 0.930 . S
C446 C442 1.524 . S
C446 H458 0.956 . S
C446 H459 0.961 . S
C446 H460 0.961 . S
C447 C444 1.539 . S
C447 H461 0.958 . S
C447 H462 0.961 . S
C447 H463 0.960 . S
H448 C432 0.931 . S
H449 C437 0.929 . S
H450 C438 0.960 . S
H451 C438 0.962 . S
H452 C438 0.960 . S
H453 C439 0.961 . S
H454 C439 0.961 . S
H455 C439 0.961 . S
H456 C440 0.931 . S
H457 C445 0.930 . S
H458 C446 0.956 . S
H459 C446 0.961 . S
H460 C446 0.961 . S
H461 C447 0.958 . S
H462 C447 0.961 . S
H463 C447 0.960 . S
C464 C465 1.391 . S
C464 C466 1.394 . S
C464 H480 0.931 . S
C465 C464 1.391 . S
C465 C469 1.376 . S
C466 C464 1.394 . S
C466 C467 1.369 . S
C466 C470 1.531 . S
C467 C466 1.369 . S
C467 C468 1.410 . S
C467 C475 1.503 . S
C468 C467 1.410 . S
C468 C469 1.392 . S
C468 C471 1.511 . S
C469 C465 1.376 . S
C469 C468 1.392 . S
C469 H481 0.929 . S
C470 C466 1.531 . S
C470 H482 0.960 . S
C470 H483 0.962 . S
C470 H484 0.960 . S
C471 C468 1.511 . S
C471 H485 0.961 . S
C471 H486 0.961 . S
C471 H487 0.961 . S
C472 C473 1.370 . S
C472 C474 1.363 . S
C472 H488 0.931 . S
C473 C472 1.370 . S
C473 C477 1.408 . S
C474 C472 1.363 . S
C474 C475 1.370 . S
C474 C478 1.524 . S
C475 C467 1.503 . S
C475 C474 1.370 . S
C475 C476 1.403 . S
C476 C475 1.403 . S
C476 C477 1.404 . S
C476 C479 1.539 . S
C477 C473 1.408 . S
C477 C476 1.404 . S
C477 H489 0.930 . S
C478 C474 1.524 . S
C478 H490 0.956 . S
C478 H491 0.961 . S
C478 H492 0.961 . S
C479 C476 1.539 . S
C479 H493 0.958 . S
C479 H494 0.961 . S
C479 H495 0.960 . S
H480 C464 0.931 . S
H481 C469 0.929 . S
H482 C470 0.960 . S
H483 C470 0.962 . S
H484 C470 0.960 . S
H485 C471 0.961 . S
H486 C471 0.961 . S
H487 C471 0.961 . S
H488 C472 0.931 . S
H489 C477 0.930 . S
H490 C478 0.956 . S
H491 C478 0.961 . S
H492 C478 0.961 . S
H493 C479 0.958 . S
H494 C479 0.961 . S
H495 C479 0.960 . S
C496 C497 1.391 . S
C496 C498 1.394 . S
C496 H512 0.931 . S
C497 C496 1.391 . S
C497 C501 1.376 . S
C498 C496 1.394 . S
C498 C499 1.369 . S
C498 C502 1.531 . S
C499 C498 1.369 . S
C499 C500 1.410 . S
C499 C507 1.503 . S
C500 C499 1.410 . S
C500 C501 1.392 . S
C500 C503 1.511 . S
C501 C497 1.376 . S
C501 C500 1.392 . S
C501 H513 0.929 . S
C502 C498 1.531 . S
C502 H514 0.960 . S
C502 H515 0.962 . S
C502 H516 0.960 . S
C503 C500 1.511 . S
C503 H517 0.961 . S
C503 H518 0.961 . S
C503 H519 0.961 . S
C504 C505 1.370 . S
C504 C506 1.363 . S
C504 H520 0.931 . S
C505 C504 1.370 . S
C505 C509 1.408 . S
C506 C504 1.363 . S
C506 C507 1.370 . S
C506 C510 1.524 . S
C507 C499 1.503 . S
C507 C506 1.370 . S
C507 C508 1.403 . S
C508 C507 1.403 . S
C508 C509 1.404 . S
C508 C511 1.539 . S
C509 C505 1.408 . S
C509 C508 1.404 . S
C509 H521 0.930 . S
C510 C506 1.524 . S
C510 H522 0.956 . S
C510 H523 0.961 . S
C510 H524 0.961 . S
C511 C508 1.539 . S
C511 H525 0.958 . S
C511 H526 0.961 . S
C511 H527 0.960 . S
H512 C496 0.931 . S
H513 C501 0.929 . S
H514 C502 0.960 . S
H515 C502 0.962 . S
H516 C502 0.960 . S
H517 C503 0.961 . S
H518 C503 0.961 . S
H519 C503 0.961 . S
H520 C504 0.931 . S
H521 C509 0.930 . S
H522 C510 0.956 . S
H523 C510 0.961 . S
H524 C510 0.961 . S
H525 C511 0.958 . S
H526 C511 0.961 . S
H527 C511 0.960 . S
C528 C529 1.391 . S
C528 C530 1.394 . S
C528 H544 0.931 . S
C529 C528 1.391 . S
C529 C533 1.376 . S
C530 C528 1.394 . S
C530 C531 1.369 . S
C530 C534 1.531 . S
C531 C530 1.369 . S
C531 C532 1.410 . S
C531 C539 1.503 . S
C532 C531 1.410 . S
C532 C533 1.392 . S
C532 C535 1.511 . S
C533 C529 1.376 . S
C533 C532 1.392 . S
C533 H545 0.929 . S
C534 C530 1.531 . S
C534 H546 0.960 . S
C534 H547 0.962 . S
C534 H548 0.960 . S
C535 C532 1.511 . S
C535 H549 0.961 . S
C535 H550 0.961 . S
C535 H551 0.961 . S
C536 C537 1.370 . S
C536 C538 1.363 . S
C536 H552 0.931 . S
C537 C536 1.370 . S
C537 C541 1.408 . S
C538 C536 1.363 . S
C538 C539 1.370 . S
C538 C542 1.524 . S
C539 C531 1.503 . S
C539 C538 1.370 . S
C539 C540 1.403 . S
C540 C539 1.403 . S
C540 C541 1.404 . S
C540 C543 1.539 . S
C541 C537 1.408 . S
C541 C540 1.404 . S
C541 H553 0.930 . S
C542 C538 1.524 . S
C542 H554 0.956 . S
C542 H555 0.961 . S
C542 H556 0.961 . S
C543 C540 1.539 . S
C543 H557 0.958 . S
C543 H558 0.961 . S
C543 H559 0.960 . S
H544 C528 0.931 . S
H545 C533 0.929 . S
H546 C534 0.960 . S
H547 C534 0.962 . S
H548 C534 0.960 . S
H549 C535 0.961 . S
H550 C535 0.961 . S
H551 C535 0.961 . S
H552 C536 0.931 . S
H553 C541 0.930 . S
H554 C542 0.956 . S
H555 C542 0.961 . S
H556 C542 0.961 . S
H557 C543 0.958 . S
H558 C543 0.961 . S
H559 C543 0.960 . S
C560 C561 1.391 . S
C560 C562 1.394 . S
C560 H576 0.931 . S
C561 C560 1.391 . S
C561 C565 1.376 . S
C562 C560 1.394 . S
C562 C563 1.369 . S
C562 C566 1.531 . S
C563 C562 1.369 . S
C563 C564 1.410 . S
C563 C571 1.503 . S
C564 C563 1.410 . S
C564 C565 1.392 . S
C564 C567 1.511 . S
C565 C561 1.376 . S
C565 C564 1.392 . S
C565 H577 0.929 . S
C566 C562 1.531 . S
C566 H578 0.960 . S
C566 H579 0.962 . S
C566 H580 0.960 . S
C567 C564 1.511 . S
C567 H581 0.961 . S
C567 H582 0.961 . S
C567 H583 0.961 . S
C568 C569 1.370 . S
C568 C570 1.363 . S
C568 H584 0.931 . S
C569 C568 1.370 . S
C569 C573 1.408 . S
C570 C568 1.363 . S
C570 C571 1.370 . S
C570 C574 1.524 . S
C571 C563 1.503 . S
C571 C570 1.370 . S
C571 C572 1.403 . S
C572 C571 1.403 . S
C572 C573 1.404 . S
C572 C575 1.539 . S
C573 C569 1.408 . S
C573 C572 1.404 . S
C573 H585 0.930 . S
C574 C570 1.524 . S
C574 H586 0.956 . S
C574 H587 0.961 . S
C574 H588 0.961 . S
C575 C572 1.539 . S
C575 H589 0.958 . S
C575 H590 0.961 . S
C575 H591 0.960 . S
H576 C560 0.931 . S
H577 C565 0.929 . S
H578 C566 0.960 . S
H579 C566 0.962 . S
H580 C566 0.960 . S
H581 C567 0.961 . S
H582 C567 0.961 . S
H583 C567 0.961 . S
H584 C568 0.931 . S
H585 C573 0.930 . S
H586 C574 0.956 . S
H587 C574 0.961 . S
H588 C574 0.961 . S
H589 C575 0.958 . S
H590 C575 0.961 . S
H591 C575 0.960 . S
C592 C593 1.391 . S
C592 C594 1.394 . S
C592 H608 0.931 . S
C593 C592 1.391 . S
C593 C597 1.376 . S
C594 C592 1.394 . S
C594 C595 1.369 . S
C594 C598 1.531 . S
C595 C594 1.369 . S
C595 C596 1.410 . S
C595 C603 1.503 . S
C596 C595 1.410 . S
C596 C597 1.392 . S
C596 C599 1.511 . S
C597 C593 1.376 . S
C597 C596 1.392 . S
C597 H609 0.929 . S
C598 C594 1.531 . S
C598 H610 0.960 . S
C598 H611 0.962 . S
C598 H612 0.960 . S
C599 C596 1.511 . S
C599 H613 0.961 . S
C599 H614 0.961 . S
C599 H615 0.961 . S
C600 C601 1.370 . S
C600 C602 1.363 . S
C600 H616 0.931 . S
C601 C600 1.370 . S
C601 C605 1.408 . S
C602 C600 1.363 . S
C602 C603 1.370 . S
C602 C606 1.524 . S
C603 C595 1.503 . S
C603 C602 1.370 . S
C603 C604 1.403 . S
C604 C603 1.403 . S
C604 C605 1.404 . S
C604 C607 1.539 . S
C605 C601 1.408 . S
C605 C604 1.404 . S
C605 H617 0.930 . S
C606 C602 1.524 . S
C606 H618 0.956 . S
C606 H619 0.961 . S
C606 H620 0.961 . S
C607 C604 1.539 . S
C607 H621 0.958 . S
C607 H622 0.961 . S
C607 H623 0.960 . S
H608 C592 0.931 . S
H609 C597 0.929 . S
H610 C598 0.960 . S
H611 C598 0.962 . S
H612 C598 0.960 . S
H613 C599 0.961 . S
H614 C599 0.961 . S
H615 C599 0.961 . S
H616 C600 0.931 . S
H617 C605 0.930 . S
H618 C606 0.956 . S
H619 C606 0.961 . S
H620 C606 0.961 . S
H621 C607 0.958 . S
H622 C607 0.961 . S
H623 C607 0.960 . S
C624 C625 1.391 . S
C624 C626 1.394 . S
C624 H640 0.931 . S
C625 C624 1.391 . S
C625 C629 1.376 . S
C626 C624 1.394 . S
C626 C627 1.369 . S
C626 C630 1.531 . S
C627 C626 1.369 . S
C627 C628 1.410 . S
C627 C635 1.503 . S
C628 C627 1.410 . S
C628 C629 1.392 . S
C628 C631 1.511 . S
C629 C625 1.376 . S
C629 C628 1.392 . S
C629 H641 0.929 . S
C630 C626 1.531 . S
C630 H642 0.960 . S
C630 H643 0.962 . S
C630 H644 0.960 . S
C631 C628 1.511 . S
C631 H645 0.961 . S
C631 H646 0.961 . S
C631 H647 0.961 . S
C632 C633 1.370 . S
C632 C634 1.363 . S
C632 H648 0.931 . S
C633 C632 1.370 . S
C633 C637 1.408 . S
C634 C632 1.363 . S
C634 C635 1.370 . S
C634 C638 1.524 . S
C635 C627 1.503 . S
C635 C634 1.370 . S
C635 C636 1.403 . S
C636 C635 1.403 . S
C636 C637 1.404 . S
C636 C639 1.539 . S
C637 C633 1.408 . S
C637 C636 1.404 . S
C637 H649 0.930 . S
C638 C634 1.524 . S
C638 H650 0.956 . S
C638 H651 0.961 . S
C638 H652 0.961 . S
C639 C636 1.539 . S
C639 H653 0.958 . S
C639 H654 0.961 . S
C639 H655 0.960 . S
H640 C624 0.931 . S
H641 C629 0.929 . S
H642 C630 0.960 . S
H643 C630 0.962 . S
H644 C630 0.960 . S
H645 C631 0.961 . S
H646 C631 0.961 . S
H647 C631 0.961 . S
H648 C632 0.931 . S
H649 C637 0.930 . S
H650 C638 0.956 . S
H651 C638 0.961 . S
H652 C638 0.961 . S
H653 C639 0.958 . S
H654 C639 0.961 . S
H655 C639 0.960 . S
C656 C657 1.391 . S
C656 C658 1.394 . S
C656 H672 0.931 . S
C657 C656 1.391 . S
C657 C661 1.376 . S
C658 C656 1.394 . S
C658 C659 1.369 . S
C658 C662 1.531 . S
C659 C658 1.369 . S
C659 C660 1.410 . S
C659 C667 1.503 . S
C660 C659 1.410 . S
C660 C661 1.392 . S
C660 C663 1.511 1_556 S
C661 C657 1.376 . S
C661 C660 1.392 . S
C661 H673 0.929 . S
C662 C658 1.531 . S
C662 H674 0.960 . S
C662 H675 0.978 . S
C662 H676 0.960 . S
C663 C660 1.511 1_554 S
C663 H677 0.961 . S
C663 H678 0.961 . S
C663 H679 0.961 . S
C664 C665 1.370 1_655 S
C664 C666 1.363 . S
C664 H680 0.931 . S
C665 C664 1.370 1_455 S
C665 C669 1.408 . S
C666 C664 1.363 . S
C666 C667 1.370 1_654 S
C666 C670 1.524 1_554 S
C667 C659 1.503 . S
C667 C666 1.370 1_456 S
C667 C668 1.403 1_556 S
C668 C667 1.403 1_554 S
C668 C669 1.404 . S
C668 C671 1.539 1_554 S
C669 C665 1.408 . S
C669 C668 1.404 . S
C669 H681 0.930 . S
C670 C666 1.524 1_556 S
C670 H682 0.956 . S
C670 H683 0.961 . S
C670 H684 0.961 . S
C671 C668 1.539 1_556 S
C671 H685 0.958 . S
C671 H686 0.961 1_556 S
C671 H687 0.960 . S
H672 C656 0.931 . S
H673 C661 0.929 . S
H674 C662 0.960 . S
H675 C662 0.978 . S
H676 C662 0.960 . S
H677 C663 0.961 . S
H678 C663 0.961 . S
H679 C663 0.961 . S
H680 C664 0.931 . S
H681 C669 0.930 . S
H682 C670 0.956 . S
H683 C670 0.961 . S
H684 C670 0.961 . S
H685 C671 0.958 . S
H686 C671 0.961 1_554 S
H687 C671 0.960 . S
C688 C689 1.391 . S
C688 C690 1.394 . S
C688 H704 0.931 . S
C689 C688 1.391 . S
C689 C693 1.376 . S
C690 C688 1.394 . S
C690 C691 1.369 . S
C690 C694 1.531 . S
C691 C690 1.369 . S
C691 C692 1.410 . S
C691 C699 1.503 . S
C692 C691 1.410 . S
C692 C693 1.392 . S
C692 C695 1.511 . S
C693 C689 1.376 . S
C693 C692 1.392 . S
C693 H705 0.929 . S
C694 C690 1.531 . S
C694 H706 0.960 . S
C694 H707 0.962 . S
C694 H708 0.960 . S
C695 C692 1.511 . S
C695 H709 0.961 . S
C695 H710 0.961 . S
C695 H711 0.961 . S
C696 C697 1.370 . S
C696 C698 1.363 . S
C696 H712 0.931 . S
C697 C696 1.370 . S
C697 C701 1.408 . S
C698 C696 1.363 . S
C698 C699 1.370 . S
C698 C702 1.524 . S
C699 C691 1.503 . S
C699 C698 1.370 . S
C699 C700 1.403 . S
C700 C699 1.403 . S
C700 C701 1.404 . S
C700 C703 1.539 . S
C701 C697 1.408 . S
C701 C700 1.404 . S
C701 H713 0.930 . S
C702 C698 1.524 . S
C702 H714 0.956 . S
C702 H715 0.961 . S
C702 H716 0.961 . S
C703 C700 1.539 . S
C703 H717 0.958 . S
C703 H718 0.961 . S
C703 H719 0.960 . S
H704 C688 0.931 . S
H705 C693 0.929 . S
H706 C694 0.960 . S
H707 C694 0.962 . S
H708 C694 0.960 . S
H709 C695 0.961 . S
H710 C695 0.961 . S
H711 C695 0.961 . S
H712 C696 0.931 . S
H713 C701 0.930 . S
H714 C702 0.956 . S
H715 C702 0.961 . S
H716 C702 0.961 . S
H717 C703 0.958 . S
H718 C703 0.961 . S
H719 C703 0.960 . S
C720 C721 1.391 . S
C720 C722 1.394 1_556 S
C720 H736 0.931 . S
C721 C720 1.391 . S
C721 C725 1.376 1_455 S
C722 C720 1.394 1_554 S
C722 C723 1.369 . S
C722 C726 1.531 . S
C723 C722 1.369 . S
C723 C724 1.410 1_454 S
C723 C731 1.503 . S
C724 C723 1.410 1_656 S
C724 C725 1.392 . S
C724 C727 1.511 1_556 S
C725 C721 1.376 1_655 S
C725 C724 1.392 . S
C725 H737 0.929 . S
C726 C722 1.531 . S
C726 H738 0.960 . S
C726 H739 0.962 . S
C726 H740 0.960 . S
C727 C724 1.511 1_554 S
C727 H741 0.961 1_554 S
C727 H742 0.961 . S
C727 H743 0.961 . S
C728 C729 1.370 . S
C728 C730 1.363 . S
C728 H744 0.931 . S
C729 C728 1.370 . S
C729 C733 1.408 . S
C730 C728 1.363 . S
C730 C731 1.370 . S
C730 C734 1.524 1_554 S
C731 C723 1.503 . S
C731 C730 1.370 . S
C731 C732 1.403 . S
C732 C731 1.403 . S
C732 C733 1.404 . S
C732 C735 1.539 1_455 S
C733 C729 1.408 . S
C733 C732 1.404 . S
C733 H745 0.930 . S
C734 C730 1.524 1_556 S
C734 H746 0.956 . S
C734 H747 0.961 . S
C734 H748 0.961 . S
C735 C732 1.539 1_655 S
C735 H749 0.958 1_655 S
C735 H750 0.961 . S
C735 H751 0.960 . S
H736 C720 0.931 . S
H737 C725 0.929 . S
H738 C726 0.960 . S
H739 C726 0.962 . S
H740 C726 0.960 . S
H741 C727 0.961 1_556 S
H742 C727 0.961 . S
H743 C727 0.961 . S
H744 C728 0.931 . S
H745 C733 0.930 . S
H746 C734 0.956 . S
H747 C734 0.961 . S
H748 C734 0.961 . S
H749 C735 0.958 1_455 S
H750 C735 0.961 . S
H751 C735 0.960 . S
C752 C753 1.391 . S
C752 C754 1.394 . S
C752 H768 0.931 . S
C753 C752 1.391 . S
C753 C757 1.376 . S
C754 C752 1.394 . S
C754 C755 1.369 . S
C754 C758 1.531 . S
C755 C754 1.369 . S
C755 C756 1.410 . S
C755 C763 1.503 . S
C756 C755 1.410 . S
C756 C757 1.392 . S
C756 C759 1.511 . S
C757 C753 1.376 . S
C757 C756 1.392 . S
C757 H769 0.929 . S
C758 C754 1.531 . S
C758 H770 0.960 . S
C758 H771 0.962 . S
C758 H772 0.960 . S
C759 C756 1.511 . S
C759 H773 0.961 . S
C759 H774 0.961 . S
C759 H775 0.961 . S
C760 C761 1.370 . S
C760 C762 1.363 . S
C760 H776 0.931 . S
C761 C760 1.370 . S
C761 C765 1.408 . S
C762 C760 1.363 . S
C762 C763 1.370 . S
C762 C766 1.524 . S
C763 C755 1.503 . S
C763 C762 1.370 . S
C763 C764 1.403 . S
C764 C763 1.403 . S
C764 C765 1.404 . S
C764 C767 1.539 . S
C765 C761 1.408 . S
C765 C764 1.404 . S
C765 H777 0.930 . S
C766 C762 1.524 . S
C766 H778 0.956 . S
C766 H779 0.961 . S
C766 H780 0.961 . S
C767 C764 1.539 . S
C767 H781 0.958 . S
C767 H782 0.961 . S
C767 H783 0.960 . S
H768 C752 0.931 . S
H769 C757 0.929 . S
H770 C758 0.960 . S
H771 C758 0.962 . S
H772 C758 0.960 . S
H773 C759 0.961 . S
H774 C759 0.961 . S
H775 C759 0.961 . S
H776 C760 0.931 . S
H777 C765 0.930 . S
H778 C766 0.956 . S
H779 C766 0.961 . S
H780 C766 0.961 . S
H781 C767 0.958 . S
H782 C767 0.961 . S
H783 C767 0.960 . S
C784 C785 1.391 . S
C784 C786 1.394 . S
C784 H800 0.931 . S
C785 C784 1.391 . S
C785 C789 1.376 . S
C786 C784 1.394 . S
C786 C787 1.369 . S
C786 C790 1.531 . S
C787 C786 1.369 . S
C787 C788 1.410 . S
C787 C795 1.503 . S
C788 C787 1.410 . S
C788 C789 1.392 . S
C788 C791 1.511 . S
C789 C785 1.376 . S
C789 C788 1.392 . S
C789 H801 0.929 . S
C790 C786 1.531 . S
C790 H802 0.960 1_556 S
C790 H803 0.962 . S
C790 H804 0.960 . S
C791 C788 1.511 . S
C791 H805 0.961 . S
C791 H806 0.961 . S
C791 H807 0.961 . S
C792 C793 1.370 . S
C792 C794 1.363 1_554 S
C792 H808 0.931 . S
C793 C792 1.370 . S
C793 C797 1.408 . S
C794 C792 1.363 1_556 S
C794 C795 1.370 . S
C794 C798 1.524 . S
C795 C787 1.503 . S
C795 C794 1.370 . S
C795 C796 1.403 1_556 S
C796 C795 1.403 1_554 S
C796 C797 1.404 . S
C796 C799 1.539 . S
C797 C793 1.408 . S
C797 C796 1.404 . S
C797 H809 0.930 . S
C798 C794 1.524 . S
C798 H810 0.956 . S
C798 H811 0.961 . S
C798 H812 0.961 . S
C799 C796 1.539 . S
C799 H813 0.958 . S
C799 H814 0.961 . S
C799 H815 0.958 . S
H800 C784 0.931 . S
H801 C789 0.929 . S
H802 C790 0.960 1_554 S
H803 C790 0.962 . S
H804 C790 0.960 . S
H805 C791 0.961 . S
H806 C791 0.961 . S
H807 C791 0.961 . S
H808 C792 0.931 . S
H809 C797 0.930 . S
H810 C798 0.956 . S
H811 C798 0.961 . S
H812 C798 0.961 . S
H813 C799 0.958 . S
H814 C799 0.961 . S
H815 C799 0.958 . S
C816 C817 1.391 . S
C816 C818 1.394 . S
C816 H832 0.931 . S
C817 C816 1.391 . S
C817 C821 1.376 . S
C818 C816 1.394 . S
C818 C819 1.369 . S
C818 C822 1.531 . S
C819 C818 1.369 . S
C819 C820 1.410 . S
C819 C827 1.503 . S
C820 C819 1.410 . S
C820 C821 1.392 . S
C820 C823 1.511 . S
C821 C817 1.376 . S
C821 C820 1.392 . S
C821 H833 0.929 . S
C822 C818 1.531 . S
C822 H834 0.960 . S
C822 H835 0.962 . S
C822 H836 0.960 . S
C823 C820 1.511 . S
C823 H837 0.961 1_455 S
C823 H838 0.960 . S
C823 H839 0.961 . S
C824 C825 1.370 1_655 S
C824 C826 1.363 . S
C824 H840 0.931 . S
C825 C824 1.370 1_455 S
C825 C829 1.408 . S
C826 C824 1.363 . S
C826 C827 1.370 1_655 S
C826 C830 1.524 . S
C827 C819 1.503 . S
C827 C826 1.370 1_455 S
C827 C828 1.403 . S
C828 C827 1.403 . S
C828 C829 1.404 . S
C828 C831 1.539 . S
C829 C825 1.408 . S
C829 C828 1.404 . S
C829 H841 0.930 . S
C830 C826 1.524 . S
C830 H842 0.956 . S
C830 H843 0.961 . S
C830 H844 0.961 . S
C831 C828 1.539 . S
C831 H845 0.958 . S
C831 H846 0.961 . S
C831 H847 0.960 . S
H832 C816 0.931 . S
H833 C821 0.929 . S
H834 C822 0.960 . S
H835 C822 0.962 . S
H836 C822 0.960 . S
H837 C823 0.961 1_655 S
H838 C823 0.960 . S
H839 C823 0.961 . S
H840 C824 0.931 . S
H841 C829 0.930 . S
H842 C830 0.956 . S
H843 C830 0.961 . S
H844 C830 0.961 . S
H845 C831 0.958 . S
H846 C831 0.961 . S
H847 C831 0.960 . S
C848 C849 1.391 . S
C848 C850 1.394 1_556 S
C848 H864 0.931 . S
C849 C848 1.391 . S
C849 C853 1.376 . S
C850 C848 1.394 1_554 S
C850 C851 1.369 . S
C850 C854 1.531 . S
C851 C850 1.369 . S
C851 C852 1.410 1_554 S
C851 C859 1.503 . S
C852 C851 1.410 1_556 S
C852 C853 1.392 . S
C852 C855 1.511 . S
C853 C849 1.376 . S
C853 C852 1.392 . S
C853 H865 0.929 . S
C854 C850 1.531 . S
C854 H866 0.960 . S
C854 H867 0.962 . S
C854 H868 0.960 . S
C855 C852 1.511 . S
C855 H869 0.961 . S
C855 H870 0.961 . S
C855 H871 0.961 . S
C856 C857 1.370 . S
C856 C858 1.363 . S
C856 H872 0.931 . S
C857 C856 1.370 . S
C857 C861 1.408 . S
C858 C856 1.363 . S
C858 C859 1.370 . S
C858 C862 1.524 . S
C859 C851 1.503 . S
C859 C858 1.370 . S
C859 C860 1.403 . S
C860 C859 1.403 . S
C860 C861 1.404 . S
C860 C863 1.539 . S
C861 C857 1.408 . S
C861 C860 1.404 . S
C861 H873 0.930 . S
C862 C858 1.524 . S
C862 H874 0.956 . S
C862 H875 0.961 1_554 S
C862 H876 0.961 . S
C863 C860 1.539 . S
C863 H877 0.958 . S
C863 H878 0.961 . S
C863 H879 0.960 . S
H864 C848 0.931 . S
H865 C853 0.929 . S
H866 C854 0.960 . S
H867 C854 0.962 . S
H868 C854 0.960 . S
H869 C855 0.961 . S
H870 C855 0.961 . S
H871 C855 0.961 . S
H872 C856 0.931 . S
H873 C861 0.930 . S
H874 C862 0.956 . S
H875 C862 0.961 1_556 S
H876 C862 0.961 . S
H877 C863 0.958 . S
H878 C863 0.961 . S
H879 C863 0.960 . S
C880 C881 1.391 . S
C880 C882 1.394 . S
C880 H896 0.931 . S
C881 C880 1.391 . S
C881 C885 1.376 . S
C882 C880 1.394 . S
C882 C883 1.369 . S
C882 C886 1.531 . S
C883 C882 1.369 . S
C883 C884 1.410 . S
C883 C891 1.503 . S
C884 C883 1.410 . S
C884 C885 1.392 . S
C884 C887 1.511 . S
C885 C881 1.376 . S
C885 C884 1.392 . S
C885 H897 0.929 . S
C886 C882 1.531 . S
C886 H898 0.960 . S
C886 H899 0.962 1_455 S
C886 H900 0.960 . S
C887 C884 1.511 . S
C887 H901 0.961 . S
C887 H902 0.961 . S
C887 H903 0.961 . S
C888 C889 1.370 1_655 S
C888 C890 1.363 . S
C888 H904 0.931 . S
C889 C888 1.370 1_455 S
C889 C893 1.408 . S
C890 C888 1.363 . S
C890 C891 1.370 1_655 S
C890 C894 1.524 . S
C891 C883 1.503 . S
C891 C890 1.370 1_455 S
C891 C892 1.403 . S
C892 C891 1.403 . S
C892 C893 1.404 . S
C892 C895 1.539 . S
C893 C889 1.408 . S
C893 C892 1.404 . S
C893 H905 0.930 . S
C894 C890 1.524 . S
C894 H906 0.956 . S
C894 H907 0.961 . S
C894 H908 0.961 . S
C895 C892 1.539 . S
C895 H909 0.958 . S
C895 H910 0.961 . S
C895 H911 0.960 . S
H896 C880 0.931 . S
H897 C885 0.929 . S
H898 C886 0.960 . S
H899 C886 0.962 1_655 S
H900 C886 0.960 . S
H901 C887 0.961 . S
H902 C887 0.961 . S
H903 C887 0.961 . S
H904 C888 0.931 . S
H905 C893 0.930 . S
H906 C894 0.956 . S
H907 C894 0.961 . S
H908 C894 0.961 . S
H909 C895 0.958 . S
H910 C895 0.961 . S
H911 C895 0.960 . S
C273 C70 1.689 . S
C281 C2 1.664 . S
C305 C104 1.670 . S
C313 C36 1.673 . S
C337 C138 1.681 . S
C345 C206 1.666 . S
C369 C172 1.654 . S
C377 C240 1.679 . S
C401 C111 1.188 . S
C409 C9 1.164 . S
C433 C43 1.184 . S
C441 C77 1.155 . S
C465 C73 1.864 . S
C473 C39 1.882 . S
C497 C107 1.892 . S
C505 C5 1.875 . S
C529 C247 1.147 . S
C537 C145 1.157 . S
C561 C179 1.112 . S
C569 C213 1.127 . S
C593 C209 1.862 . S
C601 C175 1.883 . S
C625 C243 1.891 . S
C633 C141 1.879 . S
C657 C190 1.282 . S
C665 C33 1.276 . S
C689 C67 1.272 . S
C697 C156 1.288 . S
C721 C101 1.285 . S
C729 C258 1.278 . S
C753 C224 1.286 . S
C761 C135 1.286 . S
C785 C54 1.287 . S
C793 C169 1.286 . S
C817 C203 1.291 . S
C825 C20 1.285 . S
C849 C237 1.291 . S
C857 C122 1.280 . S
C881 C271 1.293 . S
C889 C88 1.281 . S
