# Generated by pormake.
# Topology qtz-x, (6)-cn, num edge types: 1
# Building blocks:
#     Node 0, Type 0, BuildingBlock: KUMJIN_clean_sbu_1, # of connection points: 6
#     Node 1, Type 0, BuildingBlock: KUMJIN_clean_sbu_1, # of connection points: 6
#     Node 2, Type 0, BuildingBlock: KUMJIN_clean_sbu_1, # of connection points: 6
#     Edge 3, Type (0, 0), BuildingBlock: XUDNAN_clean_linker_2, # of connection points: 2
#     Edge 4, Type (0, 0), BuildingBlock: XUDNAN_clean_linker_2, # of connection points: 2
#     Edge 5, Type (0, 0), BuildingBlock: XUDNAN_clean_linker_2, # of connection points: 2
#     Edge 6, Type (0, 0), BuildingBlock: XUDNAN_clean_linker_2, # of connection points: 2
#     Edge 7, Type (0, 0), BuildingBlock: XUDNAN_clean_linker_2, # of connection points: 2
#     Edge 8, Type (0, 0), BuildingBlock: XUDNAN_clean_linker_2, # of connection points: 2
#     Edge 9, Type (0, 0), BuildingBlock: XUDNAN_clean_linker_2, # of connection points: 2
#     Edge 10, Type (0, 0), BuildingBlock: XUDNAN_clean_linker_2, # of connection points: 2
#     Edge 11, Type (0, 0), BuildingBlock: XUDNAN_clean_linker_2, # of connection points: 2
# Relax obj value: 0.204
# Max RMSD: 0.280
# Mean RMSD: 0.280
data_MOF--net-qtz-x--node1-KUMJIN_clean_sbu_1--edge1-XUDNAN_clean_linker_2
_symmetry_space_group_name_H-M    P1
_symmetry_Int_Tables_number       1
_symmetry_cell_setting            triclinic
loop_
_symmetry_equiv_pos_as_xyz
'x, y, z'
_cell_length_a     14.969364
_cell_length_b     14.995376
_cell_length_c     52.426152
_cell_angle_alpha  89.911276
_cell_angle_beta   90.207767
_cell_angle_gamma 120.01393
loop_
_atom_site_label
_atom_site_type_symbol
_atom_site_fract_x
_atom_site_fract_y
_atom_site_fract_z
_atom_type_partial_charge
Eu0 Eu 0.88841 0.38865 0.14708 0.0
C1 C 0.34709 0.51823 0.16076 0.0
N2 N 0.26063 0.44491 0.17267 0.0
C3 C 0.31148 0.3191 0.16445 0.0
C4 C 0.41626 0.49298 0.14902 0.0
C5 C 0.24597 0.34811 0.17606 0.0
C6 C 0.39568 0.39123 0.15036 0.0
C7 C 0.45836 0.6979 0.14915 0.0
C8 C 0.36788 0.6196 0.16067 0.0
C9 C 0.52644 0.67252 0.13717 0.0
C10 C 0.50476 0.57019 0.13683 0.0
Eu11 Eu 0.1517 0.50296 0.18966 0.0
N12 N 0.29754 0.64111 0.17094 0.0
C13 C 0.47564 0.79878 0.14923 0.0
C14 C 0.31451 0.73925 0.17154 0.0
C15 C 0.40351 0.81952 0.16053 0.0
H16 H 0.18602 0.29328 0.18828 0.0
H17 H 0.41626 0.89721 0.16068 0.0
H18 H 0.83783 0.58191 0.14266 0.0
H19 H 0.63664 0.99485 0.18203 0.0
H20 H 0.25906 0.75532 0.18043 0.0
H21 H 0.54393 0.86097 0.14046 0.0
H22 H 0.78639 0.13287 0.15987 0.0
H23 H 0.29805 0.2416 0.16679 0.0
H24 H 0.59558 0.7313 0.1279 0.0
H25 H 0.55784 0.55177 0.12743 0.0
H26 H 0.71903 0.63259 0.16164 0.0
H27 H 0.44678 0.36869 0.14154 0.0
H28 H 0.50691 0.02952 0.2015 0.0
N29 N 0.76677 0.43532 0.16046 0.0
C30 C 0.68411 0.36376 0.17376 0.0
C31 C 0.70862 0.55693 0.16535 0.0
C32 C 0.6113 0.38733 0.18398 0.0
C33 C 0.77695 0.52884 0.155 0.0
C34 C 0.62622 0.48635 0.18025 0.0
N35 N 0.74685 0.24802 0.16791 0.0
C36 C 0.73307 0.15092 0.16899 0.0
C37 C 0.58576 0.18977 0.19013 0.0
C38 C 0.67322 0.26705 0.17734 0.0
C39 C 0.57356 0.09128 0.19208 0.0
C40 C 0.64691 0.07155 0.18121 0.0
H41 H 0.57321 0.50815 0.18824 0.0
H42 H 0.46932 0.32825 0.20543 0.0
H43 H 0.44536 0.15439 0.21022 0.0
O44 O 0.79445 0.27603 0.11879 0.0
O45 O 0.88519 0.43182 0.18821 0.0
O46 O 0.99692 0.38694 0.20558 0.0
O47 O 0.8553 0.43923 0.11062 0.0
O48 O 0.95355 0.2799 0.15139 0.0
O49 O 0.04807 0.32811 0.18912 0.0
O50 O 0.18745 0.59882 0.2252 0.0
O51 O 0.16116 0.54505 0.14742 0.0
O52 O 0.03183 0.39565 0.1309 0.0
O53 O 0.24942 0.49654 0.21889 0.0
O54 O 0.07352 0.59883 0.18756 0.0
O55 O 0.9956 0.5642 0.14757 0.0
C56 C 0.91793 0.40114 0.20752 0.0
C57 C 0.71993 0.31259 0.08399 0.0
C58 C 0.64698 0.22186 0.04445 0.0
C59 C 0.57022 0.24949 0.04575 0.0
C60 C 0.64437 0.34145 0.08532 0.0
C61 C 0.56869 0.30862 0.06624 0.0
C62 C 0.71929 0.25104 0.06401 0.0
C63 C 0.99788 0.26081 0.17076 0.0
C64 C 0.80341 0.34457 0.10229 0.0
C65 C 0.52609 0.31159 0.19745 0.0
C66 C 0.51269 0.21271 0.20025 0.0
C67 C 0.12104 0.4796 0.12835 0.0
C68 C 0.2995 0.5871 0.25911 0.0
C69 C 0.35745 0.67975 0.29996 0.0
C70 C 0.40904 0.62541 0.30536 0.0
C71 C 0.35136 0.5335 0.2656 0.0
C72 C 0.30157 0.66024 0.2767 0.0
C73 C 0.40535 0.55258 0.28843 0.0
C74 C 0.03183 0.62224 0.16829 0.0
C75 C 0.24381 0.5618 0.23412 0.0
H76 H 0.51621 0.23144 0.03014 0.0
H77 H 0.64467 0.3896 0.10074 0.0
H78 H 0.51123 0.33227 0.06677 0.0
H79 H 0.78033 0.23208 0.06261 0.0
H80 H 0.45035 0.63755 0.32322 0.0
H81 H 0.35022 0.4757 0.25302 0.0
H82 H 0.26024 0.70069 0.27249 0.0
H83 H 0.44393 0.50992 0.29312 0.0
Eu84 Eu 0.76359 0.24878 0.47898 0.0
C85 C 0.45752 0.78417 0.49899 0.0
N86 N 0.45739 0.86197 0.51222 0.0
C87 C 0.27746 0.79079 0.50379 0.0
C88 C 0.36723 0.708 0.48689 0.0
C89 C 0.36837 0.86407 0.51574 0.0
C90 C 0.2778 0.71498 0.48853 0.0
C91 C 0.55152 0.70286 0.48347 0.0
C92 C 0.54967 0.78438 0.49641 0.0
C93 C 0.46133 0.62586 0.47165 0.0
C94 C 0.36987 0.6296 0.47295 0.0
Eu95 Eu 0.61843 0.99708 0.52598 0.0
N96 N 0.63679 0.86292 0.50696 0.0
C97 C 0.64376 0.70071 0.48295 0.0
C98 C 0.72485 0.85695 0.50805 0.0
C99 C 0.73019 0.77698 0.49574 0.0
H100 H 0.3685 0.92437 0.52702 0.0
H101 H 0.80082 0.77378 0.49629 0.0
H102 H 0.01042 0.30996 0.47121 0.0
H103 H 0.62256 0.50503 0.51058 0.0
H104 H 0.7909 0.91201 0.51884 0.0
H105 H 0.64828 0.63918 0.47333 0.0
H106 H 0.614 0.35793 0.4875 0.0
H107 H 0.2073 0.7928 0.50599 0.0
H108 H 0.46164 0.5634 0.46137 0.0
H109 H 0.3015 0.57116 0.46327 0.0
H110 H 0.17931 0.4271 0.49136 0.0
H111 H 0.20834 0.66173 0.47831 0.0
H112 H 0.78195 0.62702 0.5337 0.0
N113 N 0.93288 0.37552 0.49063 0.0
C114 C 0.94218 0.4543 0.50533 0.0
C115 C 0.11315 0.43561 0.49544 0.0
C116 C 0.03664 0.52309 0.51709 0.0
C117 C 0.01774 0.3697 0.48402 0.0
C118 C 0.121 0.50867 0.51317 0.0
N119 N 0.76386 0.39099 0.49901 0.0
C120 C 0.68265 0.40816 0.49822 0.0
C121 C 0.86406 0.54828 0.52286 0.0
C122 C 0.8555 0.4633 0.50925 0.0
C123 C 0.77827 0.56191 0.52378 0.0
C124 C 0.68802 0.49292 0.51086 0.0
H125 H 0.19363 0.55631 0.5229 0.0
H126 H 0.11542 0.65677 0.54164 0.0
H127 H 0.96587 0.68245 0.5455 0.0
O128 O 0.70161 0.29166 0.44657 0.0
O129 O 0.82025 0.25906 0.51935 0.0
O130 O 0.67027 0.15826 0.5403 0.0
O131 O 0.86002 0.32309 0.44582 0.0
O132 O 0.59076 0.18653 0.48657 0.0
O133 O 0.54434 0.09706 0.52526 0.0
O134 O 0.67389 0.95022 0.55969 0.0
O135 O 0.55783 0.98563 0.48502 0.0
O136 O 0.70232 0.08998 0.46184 0.0
O137 O 0.52491 0.93959 0.56027 0.0
O138 O 0.79223 0.07244 0.52046 0.0
O139 O 0.82672 0.13819 0.47942 0.0
C140 C 0.76613 0.23235 0.54023 0.0
C141 C 0.81835 0.4287 0.42015 0.0
C142 C 0.79955 0.48241 0.37801 0.0
C143 C 0.89529 0.57323 0.38064 0.0
C144 C 0.91559 0.51776 0.4227 0.0
C145 C 0.95173 0.59223 0.40335 0.0
C146 C 0.75635 0.41857 0.39921 0.0
C147 C 0.52674 0.14271 0.50594 0.0
C148 C 0.78879 0.33371 0.43434 0.0
C149 C 0.04363 0.60347 0.53226 0.0
C150 C 0.95821 0.61758 0.53462 0.0
C151 C 0.60506 0.01789 0.46288 0.0
C152 C 0.55177 0.83662 0.59073 0.0
C153 C 0.57071 0.76074 0.63046 0.0
C154 C 0.46736 0.68234 0.62827 0.0
C155 C 0.44851 0.75693 0.58909 0.0
C156 C 0.61284 0.83841 0.61164 0.0
C157 C 0.40684 0.68065 0.60779 0.0
C158 C 0.85163 0.10515 0.50013 0.0
C159 C 0.59151 0.92542 0.573 0.0
H160 H 0.93107 0.62325 0.3644 0.0
H161 H 0.96534 0.52693 0.43874 0.0
H162 H 0.02779 0.6596 0.4049 0.0
H163 H 0.68316 0.34752 0.39691 0.0
H164 H 0.43214 0.62457 0.64308 0.0
H165 H 0.39886 0.75516 0.57378 0.0
H166 H 0.69101 0.90204 0.61384 0.0
H167 H 0.32639 0.6214 0.60678 0.0
Eu168 Eu 0.74794 0.36238 0.81292 0.0
C169 C 0.60739 0.69358 0.83759 0.0
N170 N 0.68355 0.68185 0.84834 0.0
C171 C 0.80488 0.86027 0.8409 0.0
C172 C 0.62902 0.78805 0.82644 0.0
C173 C 0.77906 0.76549 0.85193 0.0
C174 C 0.73039 0.87051 0.82727 0.0
C175 C 0.42811 0.6177 0.82465 0.0
C176 C 0.50863 0.60903 0.83628 0.0
C177 C 0.4493 0.7116 0.81356 0.0
C178 C 0.54988 0.79593 0.81405 0.0
Eu179 Eu 0.64025 0.51089 0.85899 0.0
N180 N 0.49286 0.51682 0.84486 0.0
C181 C 0.3297 0.53045 0.82354 0.0
C182 C 0.39608 0.43262 0.84489 0.0
C183 C 0.31329 0.43794 0.83409 0.0
H184 H 0.83538 0.75973 0.86337 0.0
H185 H 0.23719 0.37028 0.8336 0.0
H186 H 0.55594 0.11939 0.81333 0.0
H187 H 0.14466 0.5212 0.84908 0.0
H188 H 0.38203 0.36084 0.85309 0.0
H189 H 0.26615 0.53365 0.81451 0.0
H190 H 0.00588 0.52314 0.82468 0.0
H191 H 0.88209 0.92526 0.84289 0.0
H192 H 0.38903 0.71903 0.80401 0.0
H193 H 0.56587 0.86655 0.80455 0.0
H194 H 0.50729 0.95635 0.8358 0.0
H195 H 0.75114 0.9432 0.81815 0.0
H196 H 0.11357 0.36277 0.87129 0.0
N197 N 0.70418 0.19997 0.83005 0.0
C198 C 0.7781 0.19354 0.84369 0.0
C199 C 0.58369 0.0224 0.83823 0.0
C200 C 0.7562 0.10078 0.85579 0.0
C201 C 0.61042 0.1148 0.82581 0.0
C202 C 0.65639 0.01584 0.85367 0.0
N203 N 0.89148 0.37084 0.83516 0.0
C204 C 0.9884 0.45504 0.83532 0.0
C205 C 0.95327 0.27582 0.85979 0.0
C206 C 0.8744 0.28122 0.84624 0.0
C207 C 0.05094 0.36379 0.86111 0.0
C208 C 0.06869 0.45342 0.84866 0.0
H209 H 0.63546 0.9442 0.86337 0.0
H210 H 0.81886 0.02507 0.87893 0.0
H211 H 0.99238 0.17739 0.88181 0.0
O212 O 0.85527 0.36141 0.78488 0.0
O213 O 0.68106 0.30145 0.85124 0.0
O214 O 0.7495 0.4553 0.87056 0.0
O215 O 0.68787 0.27092 0.77812 0.0
O216 O 0.8541 0.53383 0.81824 0.0
O217 O 0.81684 0.59518 0.85526 0.0
O218 O 0.54035 0.43847 0.89243 0.0
O219 O 0.61672 0.51541 0.81549 0.0
O220 O 0.74502 0.49834 0.79494 0.0
O221 O 0.66769 0.59374 0.89487 0.0
O222 O 0.53168 0.33928 0.85065 0.0
O223 O 0.57913 0.31827 0.81009 0.0
C224 C 0.71522 0.35665 0.87172 0.0
C225 C 0.79853 0.26267 0.74591 0.0
C226 C 0.89023 0.29644 0.70587 0.0
C227 C 0.83833 0.18986 0.70097 0.0
C228 C 0.74609 0.15692 0.74063 0.0
C229 C 0.7666 0.12072 0.71824 0.0
C230 C 0.87044 0.33286 0.72849 0.0
C231 C 0.87793 0.60485 0.83597 0.0
C232 C 0.78035 0.29865 0.77004 0.0
C233 C 0.83396 0.09592 0.86967 0.0
C234 C 0.93261 0.18283 0.8714 0.0
C235 C 0.67342 0.52481 0.79511 0.0
C236 C 0.52685 0.55186 0.92232 0.0
C237 C 0.44187 0.54744 0.96271 0.0
C238 C 0.43128 0.63032 0.954 0.0
C239 C 0.51459 0.63448 0.91423 0.0
C240 C 0.49001 0.50807 0.94673 0.0
C241 C 0.46739 0.67339 0.93002 0.0
C242 C 0.51124 0.2887 0.82878 0.0
C243 C 0.58876 0.52025 0.90669 0.0
H244 H 0.8504 0.16037 0.68323 0.0
H245 H 0.69041 0.10238 0.75398 0.0
H246 H 0.72605 0.03913 0.71411 0.0
H247 H 0.90908 0.41496 0.73225 0.0
H248 H 0.39865 0.66467 0.96631 0.0
H249 H 0.54444 0.67115 0.89597 0.0
H250 H 0.50311 0.44744 0.95368 0.0
H251 H 0.46126 0.73913 0.92392 0.0
H252 H 0.02225 0.75427 0.13216 0.0
H253 H 1.00194 0.69007 0.21341 0.0
H254 H 0.97706 0.83711 0.22177 0.0
H255 H 0.16383 0.02804 0.1373 0.0
H256 H 0.09742 0.05159 0.11174 0.0
H257 H 0.10736 0.93678 0.11154 0.0
H258 H 0.90823 0.82531 0.10813 0.0
H259 H 0.89787 0.94004 0.10852 0.0
H260 H 0.82884 0.83973 0.13165 0.0
H261 H 0.96629 0.99482 0.22242 0.0
H262 H 0.97182 0.15957 0.21523 0.0
H263 H 0.99463 0.12742 0.13363 0.0
C264 C 0.01177 0.77105 0.15164 0.0
C265 C 0.01484 0.71083 0.17214 0.0
C266 C 1.00129 0.7355 0.19739 0.0
C267 C 0.98618 0.81853 0.20236 0.0
C268 C 0.98442 0.87679 0.18191 0.0
C269 C 0.99658 0.85463 0.15702 0.0
C270 C 0.99519 0.93334 0.13886 0.0
C271 C 0.09702 0.99083 0.12399 0.0
C272 C 0.90198 0.88151 0.12072 0.0
C273 C 0.98369 0.00445 0.15759 0.0
C274 C 0.97656 0.96904 0.18227 0.0
C275 C 0.97074 0.02294 0.20318 0.0
C276 C 0.9742 0.11665 0.1989 0.0
C277 C 0.9832 0.15605 0.17392 0.0
C278 C 0.98602 0.09817 0.1529 0.0
H279 H 0.33142 0.01002 0.4881 0.0
H280 H 0.5124 0.29668 0.52903 0.0
H281 H 0.35995 0.31923 0.53158 0.0
H282 H 0.16962 0.05506 0.45185 0.0
H283 H 0.04997 0.9383 0.45837 0.0
H284 H 0.17033 0.93934 0.46105 0.0
H285 H 0.12671 0.87568 0.50809 0.0
H286 H 0.0058 0.87187 0.50481 0.0
H287 H 0.09325 0.94483 0.53024 0.0
H288 H 0.18457 0.3033 0.53245 0.0
H289 H 0.00515 0.26296 0.52644 0.0
H290 H 0.93727 0.99115 0.48307 0.0
C291 C 0.33828 0.07704 0.49769 0.0
C292 C 0.43436 0.15394 0.50755 0.0
C293 C 0.44059 0.23959 0.52041 0.0
C294 C 0.35397 0.25195 0.52234 0.0
C295 C 0.26052 0.1755 0.51224 0.0
C296 C 0.25123 0.08852 0.50065 0.0
C297 C 0.14013 0.01663 0.4924 0.0
C298 C 0.13213 0.98566 0.46421 0.0
C299 C 0.08851 0.92169 0.5099 0.0
C300 C 0.09293 0.08332 0.49761 0.0
C301 C 0.16162 0.17097 0.51084 0.0
C302 C 0.13124 0.2363 0.52152 0.0
C303 C 0.0288 0.21239 0.51811 0.0
C304 C 0.95889 0.127 0.50325 0.0
C305 C 0.9909 0.06037 0.49325 0.0
H306 H 0.98797 0.77172 0.8698 0.0
H307 H 1.00143 0.65848 0.79431 0.0
H308 H 0.16048 0.81851 0.78561 0.0
H309 H 0.07564 0.0358 0.84647 0.0
H310 H 0.14655 0.09663 0.87512 0.0
H311 H 0.03407 0.9699 0.87663 0.0
H312 H 0.14404 0.90172 0.89847 0.0
H313 H 0.2563 0.02823 0.89671 0.0
H314 H 0.25933 0.91954 0.88301 0.0
H315 H 0.30277 0.9933 0.78176 0.0
H316 H 0.44594 0.16983 0.78609 0.0
H317 H 0.3542 0.17934 0.86422 0.0
C318 C 0.02286 0.78132 0.85125 0.0
C319 C 0.97882 0.70206 0.83254 0.0
C320 C 0.03128 0.71699 0.80903 0.0
C321 C 0.12208 0.80841 0.80372 0.0
C322 C 0.16006 0.88616 0.82185 0.0
C323 C 0.11339 0.87435 0.84524 0.0
C324 C 0.17121 0.9734 0.86076 0.0
C325 C 0.10276 0.0217 0.86501 0.0
C326 C 0.21009 0.95452 0.88624 0.0
C327 C 0.25976 0.03973 0.84275 0.0
C328 C 0.24876 0.98806 0.82016 0.0
C329 C 0.31396 0.03416 0.79955 0.0
C330 C 0.39508 0.13509 0.80222 0.0
C331 C 0.41413 0.18811 0.82576 0.0
C332 C 0.34356 0.14035 0.84615 0.0
H333 H 0.26349 0.39163 0.98569 0.0
H334 H 0.56929 0.64798 1.00144 0.0
H335 H 0.52009 0.65069 0.04605 0.0
H336 H 0.11749 0.45497 0.02054 0.0
H337 H 0.03069 0.33375 0.03552 0.0
H338 H 0.09083 0.33562 0.00573 0.0
H339 H 0.16729 0.22994 0.02529 0.0
H340 H 0.10423 0.22443 0.05498 0.0
H341 H 0.24132 0.27322 0.0544 0.0
H342 H 0.42233 0.6669 0.08152 0.0
H343 H 0.30291 0.64895 0.11563 0.0
H344 H 0.07238 0.3545 0.08498 0.0
C345 C 0.32131 0.44448 0.99895 0.0
C346 C 0.42059 0.52 0.99016 0.0
C347 C 0.49356 0.5895 0.00784 0.0
C348 C 0.46597 0.59213 0.03315 0.0
C349 C 0.366 0.52209 0.04084 0.0
C350 C 0.29628 0.44507 0.02493 0.0
C351 C 0.19412 0.37943 0.03889 0.0
C352 C 0.10298 0.37585 0.02429 0.0
C353 C 0.17568 0.27029 0.04367 0.0
C354 C 0.21529 0.43855 0.06395 0.0
C355 C 0.3147 0.52124 0.06424 0.0
C356 C 0.34753 0.59782 0.08271 0.0
C357 C 0.27981 0.58626 0.10238 0.0
C358 C 0.18304 0.49562 0.10479 0.0
C359 C 0.14867 0.422 0.08467 0.0
H360 H 0.75181 0.54911 0.33309 0.0
H361 H 0.79106 0.30569 0.36631 0.0
H362 H 0.77677 0.23074 0.3245 0.0
H363 H 0.57855 0.3692 0.27457 0.0
H364 H 0.6356 0.47916 0.25366 0.0
H365 H 0.60942 0.4941 0.28648 0.0
H366 H 0.80003 0.63536 0.29222 0.0
H367 H 0.82819 0.61968 0.25987 0.0
H368 H 0.90079 0.606 0.28561 0.0
H369 H 0.81784 0.21565 0.28231 0.0
H370 H 0.8928 0.24992 0.23953 0.0
H371 H 0.81939 0.49326 0.22941 0.0
C372 C 0.75183 0.47719 0.33139 0.0
C373 C 0.76947 0.43155 0.35293 0.0
C374 C 0.77356 0.33978 0.35019 0.0
C375 C 0.76535 0.29618 0.32644 0.0
C376 C 0.75184 0.34417 0.30539 0.0
C377 C 0.74188 0.43098 0.30742 0.0
C378 C 0.74383 0.47483 0.28115 0.0
C379 C 0.63542 0.45306 0.27353 0.0
C380 C 0.82306 0.59077 0.27964 0.0
C381 C 0.77451 0.41036 0.26509 0.0
C382 C 0.7735 0.33237 0.27941 0.0
C383 C 0.81408 0.27272 0.27042 0.0
C384 C 0.85768 0.2935 0.24624 0.0
C385 C 0.86002 0.37293 0.23131 0.0
C386 C 0.81529 0.43014 0.24042 0.0
H387 H 0.72339 0.50846 0.74455 0.0
H388 H 0.58425 0.64341 0.79066 0.0
H389 H 0.58653 0.74872 0.75506 0.0
H390 H 0.87115 0.71832 0.70066 0.0
H391 H 0.83247 0.64236 0.67196 0.0
H392 H 0.83864 0.58522 0.70172 0.0
H393 H 0.65054 0.44198 0.69768 0.0
H394 H 0.64003 0.49302 0.66741 0.0
H395 H 0.55076 0.4742 0.69257 0.0
H396 H 0.61076 0.84569 0.71542 0.0
H397 H 0.58487 0.87807 0.67063 0.0
H398 H 0.66707 0.65289 0.64588 0.0
C399 C 0.69522 0.56172 0.74721 0.0
C400 C 0.6619 0.5749 0.77159 0.0
C401 C 0.61863 0.63916 0.77343 0.0
C402 C 0.61893 0.6988 0.75295 0.0
C403 C 0.65745 0.68899 0.72976 0.0
C404 C 0.68872 0.61745 0.72621 0.0
C405 C 0.70544 0.60775 0.69793 0.0
C406 C 0.81868 0.6403 0.69277 0.0
C407 C 0.63235 0.49765 0.68836 0.0
C408 C 0.67762 0.68441 0.68645 0.0
C409 C 0.65549 0.73379 0.70549 0.0
C410 C 0.62706 0.80729 0.70021 0.0
C411 C 0.61336 0.82585 0.67472 0.0
C412 C 0.6243 0.7684 0.6549 0.0
C413 C 0.66018 0.69917 0.66073 0.0
H414 H 0.83272 0.44182 0.91402 0.0
H415 H 0.58534 0.15575 0.88336 0.0
H416 H 0.57285 0.0688 0.92416 0.0
H417 H 0.94986 0.32482 0.95658 0.0
H418 H 0.97524 0.41777 0.98139 0.0
H419 H 0.97918 0.45348 0.94838 0.0
H420 H 0.84274 0.50965 0.95645 0.0
H421 H 0.84419 0.48 0.98949 0.0
H422 H 0.7239 0.42099 0.97215 0.0
H423 H 0.55358 0.0295 0.97003 0.0
H424 H 0.53325 0.04417 0.01645 0.0
H425 H 0.81154 0.34191 0.01698 0.0
C426 C 0.77763 0.36038 0.91584 0.0
C427 C 0.71039 0.30519 0.89577 0.0
C428 C 0.63835 0.19899 0.89862 0.0
C429 C 0.63124 0.14875 0.92162 0.0
C430 C 0.69814 0.20548 0.94132 0.0
C431 C 0.77071 0.30884 0.93854 0.0
C432 C 0.82361 0.35615 0.96342 0.0
C433 C 0.93882 0.38995 0.96237 0.0
C434 C 0.80756 0.4469 0.97078 0.0
C435 C 0.76522 0.2651 0.98096 0.0
C436 C 0.6931 0.1783 0.96791 0.0
C437 C 0.61227 0.09481 0.98052 0.0
C438 C 0.60079 0.10352 0.00678 0.0
C439 C 0.67178 0.19365 0.01985 0.0
C440 C 0.75871 0.27103 0.00722 0.0
H441 H 0.51459 0.87064 0.31394 0.0
H442 H 0.20637 0.63294 0.33445 0.0
H443 H 0.23211 0.70605 0.37784 0.0
H444 H 0.64533 0.88321 0.36466 0.0
H445 H 0.72444 0.02053 0.36915 0.0
H446 H 0.67491 0.96976 0.33801 0.0
H447 H 0.58985 0.08137 0.33466 0.0
H448 H 0.63815 0.13425 0.366 0.0
H449 H 0.50259 0.07471 0.35913 0.0
H450 H 0.30069 0.78684 0.42048 0.0
H451 H 0.40085 0.8776 0.45849 0.0
H452 H 0.67115 0.05764 0.41197 0.0
C453 C 0.45063 0.8381 0.32717 0.0
C454 C 0.35738 0.74745 0.32066 0.0
C455 C 0.27677 0.7041 0.33875 0.0
C456 C 0.29135 0.7446 0.36356 0.0
C457 C 0.38636 0.83012 0.36988 0.0
C458 C 0.46347 0.87891 0.35199 0.0
C459 C 0.55981 0.9666 0.36429 0.0
C460 C 0.65678 0.95937 0.35871 0.0
C461 C 0.5735 0.07043 0.35544 0.0
C462 C 0.53018 0.94949 0.39236 0.0
C463 C 0.4279 0.87383 0.39488 0.0
C464 C 0.38091 0.84581 0.41866 0.0
C465 C 0.43933 0.89621 0.44036 0.0
C466 C 0.54549 0.97064 0.43877 0.0
C467 C 0.59095 0.99899 0.41415 0.0
H468 H 0.8435 0.4213 0.67952 0.0
H469 H 0.06499 0.31771 0.68466 0.0
H470 H 0.08991 0.33551 0.63836 0.0
H471 H 0.70881 0.28071 0.63877 0.0
H472 H 0.6766 0.35756 0.61837 0.0
H473 H 0.71651 0.39723 0.65056 0.0
H474 H 0.86681 0.57409 0.6356 0.0
H475 H 0.82276 0.5365 0.60328 0.0
H476 H 0.9548 0.57834 0.61167 0.0
H477 H 0.01719 0.26699 0.59736 0.0
H478 H 0.90626 0.18845 0.55994 0.0
H479 H 0.74112 0.34925 0.57616 0.0
C480 C 0.90366 0.41149 0.67091 0.0
C481 C 0.95096 0.36645 0.68512 0.0
C482 C 0.02809 0.35202 0.67381 0.0
C483 C 0.04196 0.36127 0.64744 0.0
C484 C 0.97997 0.38767 0.63309 0.0
C485 C 0.91684 0.41945 0.64439 0.0
C486 C 0.84299 0.42292 0.62493 0.0
C487 C 0.72961 0.36082 0.63368 0.0
C488 C 0.87372 0.53462 0.61849 0.0
C489 C 0.86282 0.37261 0.60243 0.0
C490 C 0.94347 0.35474 0.60739 0.0
C491 C 0.96059 0.28867 0.59219 0.0
C492 C 0.89774 0.24466 0.57085 0.0
C493 C 0.8215 0.26962 0.56432 0.0
C494 C 0.80249 0.33308 0.5804 0.0
loop_
_geom_bond_atom_site_label_1
_geom_bond_atom_site_label_2
_geom_bond_distance
_geom_bond_site_symmetry_2
_ccdc_geom_bond_type
Eu0 N29 2.600 . S
Eu0 N35 2.562 . S
Eu0 O44 2.462 . S
Eu0 O45 2.373 . S
Eu0 O47 2.432 . S
Eu0 O48 2.291 . S
Eu0 O52 2.335 1_655 S
Eu0 O55 2.372 . S
Eu0 C64 2.787 . S
C1 N2 1.365 . S
C1 C4 1.405 . S
C1 C8 1.448 . S
N2 C1 1.365 . S
N2 C5 1.319 . S
N2 Eu11 2.600 . S
C3 C5 1.397 . S
C3 C6 1.367 . S
C3 H23 0.931 . S
C4 C1 1.405 . S
C4 C6 1.403 . S
C4 C10 1.439 . S
C5 N2 1.319 . S
C5 C3 1.397 . S
C5 H16 0.930 . S
C6 C3 1.367 . S
C6 C4 1.403 . S
C6 H27 0.929 . S
C7 C8 1.430 . S
C7 C9 1.387 . S
C7 C13 1.404 . S
C8 C1 1.448 . S
C8 C7 1.430 . S
C8 N12 1.351 . S
C9 C7 1.387 . S
C9 C10 1.374 . S
C9 H24 0.931 . S
C10 C4 1.439 . S
C10 C9 1.374 . S
C10 H25 0.931 . S
Eu11 N2 2.600 . S
Eu11 N12 2.562 . S
Eu11 O46 2.335 1_455 S
Eu11 O49 2.372 . S
Eu11 O50 2.462 . S
Eu11 O51 2.373 . S
Eu11 O53 2.432 . S
Eu11 O54 2.291 . S
Eu11 C75 2.787 . S
N12 C8 1.351 . S
N12 Eu11 2.562 . S
N12 C14 1.325 . S
C13 C7 1.404 . S
C13 C15 1.366 . S
C13 H21 0.930 . S
C14 N12 1.325 . S
C14 C15 1.416 . S
C14 H20 0.929 . S
C15 C13 1.366 . S
C15 C14 1.416 . S
C15 H17 0.930 . S
H16 C5 0.930 . S
H17 C15 0.930 . S
H18 C33 0.930 . S
H19 C40 0.922 1_565 S
H20 C14 0.929 . S
H21 C13 0.930 . S
H22 C36 0.929 . S
H23 C3 0.931 . S
H24 C9 0.931 . S
H25 C10 0.931 . S
H26 C31 0.931 . S
H27 C6 0.929 . S
H28 C39 0.930 . S
N29 Eu0 2.600 . S
N29 C30 1.365 . S
N29 C33 1.319 . S
C30 N29 1.365 . S
C30 C32 1.405 . S
C30 C38 1.448 . S
C31 H26 0.931 . S
C31 C33 1.397 . S
C31 C34 1.367 . S
C32 C30 1.405 . S
C32 C34 1.403 . S
C32 C65 1.439 . S
C33 H18 0.930 . S
C33 N29 1.319 . S
C33 C31 1.397 . S
C34 C31 1.367 . S
C34 C32 1.403 . S
C34 H41 0.929 . S
N35 Eu0 2.562 . S
N35 C36 1.325 . S
N35 C38 1.351 . S
C36 H22 0.929 . S
C36 N35 1.325 . S
C36 C40 1.416 . S
C37 C38 1.430 . S
C37 C39 1.404 . S
C37 C66 1.387 . S
C38 C30 1.448 . S
C38 N35 1.351 . S
C38 C37 1.430 . S
C39 H28 0.930 . S
C39 C37 1.404 . S
C39 C40 1.366 . S
C40 H19 0.922 1_545 S
C40 C36 1.416 . S
C40 C39 1.366 . S
H41 C34 0.929 . S
H42 C65 0.931 . S
H43 C66 0.931 . S
O44 Eu0 2.462 . S
O44 C64 1.252 . S
O45 Eu0 2.373 . S
O45 C56 1.249 . S
O46 Eu11 2.335 1_655 S
O46 C56 1.264 . S
O47 Eu0 2.432 . S
O47 C64 1.268 . S
O48 Eu0 2.291 . S
O48 C63 1.255 . S
O49 Eu11 2.372 . S
O49 C63 1.257 1_455 S
O50 Eu11 2.462 . S
O50 C75 1.252 . S
O51 Eu11 2.373 . S
O51 C67 1.249 . S
O52 Eu0 2.335 1_455 S
O52 C67 1.264 . S
O53 Eu11 2.432 . S
O53 C75 1.268 . S
O54 Eu11 2.291 . S
O54 C74 1.255 . S
O55 Eu0 2.372 . S
O55 C74 1.257 1_655 S
C56 O45 1.249 . S
C56 O46 1.264 . S
C57 C60 1.382 . S
C57 C62 1.390 . S
C57 C64 1.506 . S
C58 C59 1.398 . S
C58 C62 1.392 . S
C59 C58 1.398 . S
C59 C61 1.372 . S
C59 H76 0.931 . S
C60 C57 1.382 . S
C60 C61 1.390 . S
C60 H77 0.931 . S
C61 C59 1.372 . S
C61 C60 1.390 . S
C61 H78 0.929 . S
C62 C57 1.390 . S
C62 C58 1.392 . S
C62 H79 0.930 . S
C63 O48 1.255 . S
C63 O49 1.257 1_655 S
C64 Eu0 2.787 . S
C64 O44 1.252 . S
C64 O47 1.268 . S
C64 C57 1.506 . S
C65 C32 1.439 . S
C65 H42 0.931 . S
C65 C66 1.374 . S
C66 C37 1.387 . S
C66 H43 0.931 . S
C66 C65 1.374 . S
C67 O51 1.249 . S
C67 O52 1.264 . S
C68 C71 1.382 . S
C68 C72 1.390 . S
C68 C75 1.506 . S
C69 C70 1.398 . S
C69 C72 1.392 . S
C70 C69 1.398 . S
C70 C73 1.372 . S
C70 H80 0.931 . S
C71 C68 1.382 . S
C71 C73 1.390 . S
C71 H81 0.931 . S
C72 C68 1.390 . S
C72 C69 1.392 . S
C72 H82 0.930 . S
C73 C70 1.372 . S
C73 C71 1.390 . S
C73 H83 0.929 . S
C74 O54 1.255 . S
C74 O55 1.257 1_455 S
C75 Eu11 2.787 . S
C75 O50 1.252 . S
C75 O53 1.268 . S
C75 C68 1.506 . S
H76 C59 0.931 . S
H77 C60 0.931 . S
H78 C61 0.929 . S
H79 C62 0.930 . S
H80 C70 0.931 . S
H81 C71 0.931 . S
H82 C72 0.930 . S
H83 C73 0.929 . S
Eu84 N113 2.600 . S
Eu84 N119 2.562 . S
Eu84 O128 2.462 . S
Eu84 O129 2.373 . S
Eu84 O131 2.432 . S
Eu84 O132 2.291 . S
Eu84 O136 2.335 . S
Eu84 O139 2.372 . S
Eu84 C148 2.787 . S
C85 N86 1.365 . S
C85 C88 1.405 . S
C85 C92 1.448 . S
N86 C85 1.365 . S
N86 C89 1.319 . S
N86 Eu95 2.600 . S
C87 C89 1.397 . S
C87 C90 1.367 . S
C87 H107 0.931 . S
C88 C85 1.405 . S
C88 C90 1.403 . S
C88 C94 1.439 . S
C89 N86 1.319 . S
C89 C87 1.397 . S
C89 H100 0.930 . S
C90 C87 1.367 . S
C90 C88 1.403 . S
C90 H111 0.929 . S
C91 C92 1.430 . S
C91 C93 1.387 . S
C91 C97 1.404 . S
C92 C85 1.448 . S
C92 C91 1.430 . S
C92 N96 1.351 . S
C93 C91 1.387 . S
C93 C94 1.374 . S
C93 H108 0.931 . S
C94 C88 1.439 . S
C94 C93 1.374 . S
C94 H109 0.931 . S
Eu95 N86 2.600 . S
Eu95 N96 2.562 . S
Eu95 O130 2.335 1_565 S
Eu95 O133 2.372 1_565 S
Eu95 O134 2.462 . S
Eu95 O135 2.373 . S
Eu95 O137 2.432 . S
Eu95 O138 2.291 1_565 S
Eu95 C159 2.787 . S
N96 C92 1.351 . S
N96 Eu95 2.562 . S
N96 C98 1.325 . S
C97 C91 1.404 . S
C97 C99 1.366 . S
C97 H105 0.930 . S
C98 N96 1.325 . S
C98 C99 1.416 . S
C98 H104 0.929 . S
C99 C97 1.366 . S
C99 C98 1.416 . S
C99 H101 0.930 . S
H100 C89 0.930 . S
H101 C99 0.930 . S
H102 C117 0.930 . S
H103 C124 0.930 . S
H104 C98 0.929 . S
H105 C97 0.930 . S
H106 C120 0.929 . S
H107 C87 0.931 . S
H108 C93 0.931 . S
H109 C94 0.931 . S
H110 C115 0.931 . S
H111 C90 0.929 . S
H112 C123 0.930 . S
N113 Eu84 2.600 . S
N113 C114 1.365 . S
N113 C117 1.319 1_655 S
C114 N113 1.365 . S
C114 C116 1.405 1_655 S
C114 C122 1.448 . S
C115 H110 0.931 . S
C115 C117 1.397 . S
C115 C118 1.367 . S
C116 C114 1.405 1_455 S
C116 C118 1.403 . S
C116 C149 1.439 . S
C117 H102 0.930 . S
C117 N113 1.319 1_455 S
C117 C115 1.397 . S
C118 C115 1.367 . S
C118 C116 1.403 . S
C118 H125 0.929 . S
N119 Eu84 2.562 . S
N119 C120 1.325 . S
N119 C122 1.351 . S
C120 H106 0.929 . S
C120 N119 1.325 . S
C120 C124 1.416 . S
C121 C122 1.430 . S
C121 C123 1.404 . S
C121 C150 1.387 1_655 S
C122 C114 1.448 . S
C122 N119 1.351 . S
C122 C121 1.430 . S
C123 H112 0.930 . S
C123 C121 1.404 . S
C123 C124 1.366 . S
C124 H103 0.930 . S
C124 C120 1.416 . S
C124 C123 1.366 . S
H125 C118 0.929 . S
H126 C149 0.931 . S
H127 C150 0.931 . S
O128 Eu84 2.462 . S
O128 C148 1.252 . S
O129 Eu84 2.373 . S
O129 C140 1.249 . S
O130 Eu95 2.335 1_545 S
O130 C140 1.264 . S
O131 Eu84 2.432 . S
O131 C148 1.268 . S
O132 Eu84 2.291 . S
O132 C147 1.255 . S
O133 Eu95 2.372 1_545 S
O133 C147 1.257 . S
O134 Eu95 2.462 . S
O134 C159 1.252 . S
O135 Eu95 2.373 . S
O135 C151 1.249 1_565 S
O136 Eu84 2.335 . S
O136 C151 1.264 . S
O137 Eu95 2.432 . S
O137 C159 1.268 . S
O138 Eu95 2.291 1_545 S
O138 C158 1.255 . S
O139 Eu84 2.372 . S
O139 C158 1.257 . S
C140 O129 1.249 . S
C140 O130 1.264 . S
C141 C144 1.382 . S
C141 C146 1.390 . S
C141 C148 1.506 . S
C142 C143 1.398 . S
C142 C146 1.392 . S
C143 C142 1.398 . S
C143 C145 1.372 . S
C143 H160 0.931 . S
C144 C141 1.382 . S
C144 C145 1.390 . S
C144 H161 0.931 . S
C145 C143 1.372 . S
C145 C144 1.390 . S
C145 H162 0.929 . S
C146 C141 1.390 . S
C146 C142 1.392 . S
C146 H163 0.930 . S
C147 O132 1.255 . S
C147 O133 1.257 . S
C148 Eu84 2.787 . S
C148 O128 1.252 . S
C148 O131 1.268 . S
C148 C141 1.506 . S
C149 C116 1.439 . S
C149 H126 0.931 . S
C149 C150 1.374 . S
C150 C121 1.387 1_455 S
C150 H127 0.931 . S
C150 C149 1.374 . S
C151 O135 1.249 1_545 S
C151 O136 1.264 . S
C152 C155 1.382 . S
C152 C156 1.390 . S
C152 C159 1.506 . S
C153 C154 1.398 . S
C153 C156 1.392 . S
C154 C153 1.398 . S
C154 C157 1.372 . S
C154 H164 0.931 . S
C155 C152 1.382 . S
C155 C157 1.390 . S
C155 H165 0.931 . S
C156 C152 1.390 . S
C156 C153 1.392 . S
C156 H166 0.930 . S
C157 C154 1.372 . S
C157 C155 1.390 . S
C157 H167 0.929 . S
C158 O138 1.255 . S
C158 O139 1.257 . S
C159 Eu95 2.787 . S
C159 O134 1.252 . S
C159 O137 1.268 . S
C159 C152 1.506 . S
H160 C143 0.931 . S
H161 C144 0.931 . S
H162 C145 0.929 . S
H163 C146 0.930 . S
H164 C154 0.931 . S
H165 C155 0.931 . S
H166 C156 0.930 . S
H167 C157 0.929 . S
Eu168 N197 2.600 . S
Eu168 N203 2.562 . S
Eu168 O212 2.462 . S
Eu168 O213 2.373 . S
Eu168 O215 2.432 . S
Eu168 O216 2.291 . S
Eu168 O220 2.335 . S
Eu168 O223 2.372 . S
Eu168 C232 2.787 . S
C169 N170 1.365 . S
C169 C172 1.405 . S
C169 C176 1.448 . S
N170 C169 1.365 . S
N170 C173 1.319 . S
N170 Eu179 2.600 . S
C171 C173 1.397 . S
C171 C174 1.367 . S
C171 H191 0.931 . S
C172 C169 1.405 . S
C172 C174 1.403 . S
C172 C178 1.439 . S
C173 N170 1.319 . S
C173 C171 1.397 . S
C173 H184 0.930 . S
C174 C171 1.367 . S
C174 C172 1.403 . S
C174 H195 0.929 . S
C175 C176 1.430 . S
C175 C177 1.387 . S
C175 C181 1.404 . S
C176 C169 1.448 . S
C176 C175 1.430 . S
C176 N180 1.351 . S
C177 C175 1.387 . S
C177 C178 1.374 . S
C177 H192 0.931 . S
C178 C172 1.439 . S
C178 C177 1.374 . S
C178 H193 0.931 . S
Eu179 N170 2.600 . S
Eu179 N180 2.562 . S
Eu179 O214 2.335 . S
Eu179 O217 2.372 . S
Eu179 O218 2.462 . S
Eu179 O219 2.373 . S
Eu179 O221 2.432 . S
Eu179 O222 2.291 . S
Eu179 C243 2.787 . S
N180 C176 1.351 . S
N180 Eu179 2.562 . S
N180 C182 1.325 . S
C181 C175 1.404 . S
C181 C183 1.366 . S
C181 H189 0.930 . S
C182 N180 1.325 . S
C182 C183 1.416 . S
C182 H188 0.929 . S
C183 C181 1.366 . S
C183 C182 1.416 . S
C183 H185 0.930 . S
H184 C173 0.930 . S
H185 C183 0.930 . S
H186 C201 0.930 . S
H187 C208 0.930 . S
H188 C182 0.929 . S
H189 C181 0.930 . S
H190 C204 0.929 . S
H191 C171 0.931 . S
H192 C177 0.931 . S
H193 C178 0.931 . S
H194 C199 0.931 . S
H195 C174 0.929 . S
H196 C207 0.930 . S
N197 Eu168 2.600 . S
N197 C198 1.365 . S
N197 C201 1.319 . S
C198 N197 1.365 . S
C198 C200 1.405 . S
C198 C206 1.448 . S
C199 H194 0.931 . S
C199 C201 1.397 1_565 S
C199 C202 1.367 . S
C200 C198 1.405 . S
C200 C202 1.403 1_545 S
C200 C233 1.439 . S
C201 H186 0.930 . S
C201 N197 1.319 . S
C201 C199 1.397 1_545 S
C202 C199 1.367 . S
C202 C200 1.403 1_565 S
C202 H209 0.929 . S
N203 Eu168 2.562 . S
N203 C204 1.325 . S
N203 C206 1.351 . S
C204 H190 0.929 . S
C204 N203 1.325 . S
C204 C208 1.416 1_655 S
C205 C206 1.430 . S
C205 C207 1.404 1_655 S
C205 C234 1.387 . S
C206 C198 1.448 . S
C206 N203 1.351 . S
C206 C205 1.430 . S
C207 H196 0.930 . S
C207 C205 1.404 1_455 S
C207 C208 1.366 . S
C208 H187 0.930 . S
C208 C204 1.416 1_455 S
C208 C207 1.366 . S
H209 C202 0.929 . S
H210 C233 0.931 1_565 S
H211 C234 0.931 . S
O212 Eu168 2.462 . S
O212 C232 1.252 . S
O213 Eu168 2.373 . S
O213 C224 1.249 . S
O214 Eu179 2.335 . S
O214 C224 1.264 . S
O215 Eu168 2.432 . S
O215 C232 1.268 . S
O216 Eu168 2.291 . S
O216 C231 1.255 . S
O217 Eu179 2.372 . S
O217 C231 1.257 . S
O218 Eu179 2.462 . S
O218 C243 1.252 . S
O219 Eu179 2.373 . S
O219 C235 1.249 . S
O220 Eu168 2.335 . S
O220 C235 1.264 . S
O221 Eu179 2.432 . S
O221 C243 1.268 . S
O222 Eu179 2.291 . S
O222 C242 1.255 . S
O223 Eu168 2.372 . S
O223 C242 1.257 . S
C224 O213 1.249 . S
C224 O214 1.264 . S
C225 C228 1.382 . S
C225 C230 1.390 . S
C225 C232 1.506 . S
C226 C227 1.398 . S
C226 C230 1.392 . S
C227 C226 1.398 . S
C227 C229 1.372 . S
C227 H244 0.931 . S
C228 C225 1.382 . S
C228 C229 1.390 . S
C228 H245 0.931 . S
C229 C227 1.372 . S
C229 C228 1.390 . S
C229 H246 0.929 . S
C230 C225 1.390 . S
C230 C226 1.392 . S
C230 H247 0.930 . S
C231 O216 1.255 . S
C231 O217 1.257 . S
C232 Eu168 2.787 . S
C232 O212 1.252 . S
C232 O215 1.268 . S
C232 C225 1.506 . S
C233 C200 1.439 . S
C233 H210 0.931 1_545 S
C233 C234 1.374 . S
C234 C205 1.387 . S
C234 H211 0.931 . S
C234 C233 1.374 . S
C235 O219 1.249 . S
C235 O220 1.264 . S
C236 C239 1.382 . S
C236 C240 1.390 . S
C236 C243 1.506 . S
C237 C238 1.398 . S
C237 C240 1.392 . S
C238 C237 1.398 . S
C238 C241 1.372 . S
C238 H248 0.931 . S
C239 C236 1.382 . S
C239 C241 1.390 . S
C239 H249 0.931 . S
C240 C236 1.390 . S
C240 C237 1.392 . S
C240 H250 0.930 . S
C241 C238 1.372 . S
C241 C239 1.390 . S
C241 H251 0.929 . S
C242 O222 1.255 . S
C242 O223 1.257 . S
C243 Eu179 2.787 . S
C243 O218 1.252 . S
C243 O221 1.268 . S
C243 C236 1.506 . S
H244 C227 0.931 . S
H245 C228 0.931 . S
H246 C229 0.929 . S
H247 C230 0.930 . S
H248 C238 0.931 . S
H249 C239 0.931 . S
H250 C240 0.930 . S
H251 C241 0.929 . S
H252 C264 0.930 . S
H253 C266 0.930 . S
H254 C267 0.930 . S
H255 C271 0.959 1_545 S
H256 C271 0.959 1_545 S
H257 C271 0.961 . S
H258 C272 0.960 . S
H259 C272 0.961 . S
H260 C272 0.959 . S
H261 C275 0.929 . S
H262 C276 0.931 . S
H263 C278 0.930 . S
C264 H252 0.930 . S
C264 C265 1.399 . S
C264 C269 1.399 . S
C265 C264 1.399 . S
C265 C266 1.376 1_455 S
C266 H253 0.930 . S
C266 C265 1.376 1_655 S
C266 C267 1.388 . S
C267 H254 0.930 . S
C267 C266 1.388 . S
C267 C268 1.390 . S
C268 C267 1.390 . S
C268 C269 1.394 1_655 S
C268 C274 1.465 . S
C269 C264 1.399 . S
C269 C268 1.394 1_455 S
C269 C270 1.516 . S
C270 C269 1.516 . S
C270 C271 1.502 . S
C270 C272 1.561 1_455 S
C270 C273 1.526 1_465 S
C271 H255 0.959 1_565 S
C271 H256 0.959 1_565 S
C271 H257 0.961 . S
C271 C270 1.502 . S
C272 H258 0.960 . S
C272 H259 0.961 . S
C272 H260 0.959 . S
C272 C270 1.561 1_655 S
C273 C270 1.526 1_645 S
C273 C274 1.396 1_545 S
C273 C278 1.390 . S
C274 C268 1.465 . S
C274 C273 1.396 1_565 S
C274 C275 1.399 1_565 S
C275 H261 0.929 . S
C275 C274 1.399 1_545 S
C275 C276 1.385 . S
C276 H262 0.931 . S
C276 C275 1.385 . S
C276 C277 1.389 . S
C277 C276 1.389 . S
C277 C278 1.387 . S
C278 H263 0.930 . S
C278 C273 1.390 . S
C278 C277 1.387 . S
H279 C291 0.930 . S
H280 C293 0.930 . S
H281 C294 0.930 . S
H282 C298 0.959 1_545 S
H283 C298 0.959 . S
H284 C298 0.961 . S
H285 C299 0.960 . S
H286 C299 0.961 . S
H287 C299 0.959 . S
H288 C302 0.929 . S
H289 C303 0.931 . S
H290 C305 0.930 1_565 S
C291 H279 0.930 . S
C291 C292 1.399 . S
C291 C296 1.399 . S
C292 C291 1.399 . S
C292 C293 1.376 . S
C293 H280 0.930 . S
C293 C292 1.376 . S
C293 C294 1.388 . S
C294 H281 0.930 . S
C294 C293 1.388 . S
C294 C295 1.390 . S
C295 C294 1.390 . S
C295 C296 1.394 . S
C295 C301 1.465 . S
C296 C291 1.399 . S
C296 C295 1.394 . S
C296 C297 1.516 . S
C297 C296 1.516 . S
C297 C298 1.502 1_545 S
C297 C299 1.561 1_545 S
C297 C300 1.526 . S
C298 H282 0.959 1_565 S
C298 H283 0.959 . S
C298 H284 0.961 . S
C298 C297 1.502 1_565 S
C299 H285 0.960 . S
C299 H286 0.961 . S
C299 H287 0.959 . S
C299 C297 1.561 1_565 S
C300 C297 1.526 . S
C300 C301 1.396 . S
C300 C305 1.390 1_455 S
C301 C295 1.465 . S
C301 C300 1.396 . S
C301 C302 1.399 . S
C302 H288 0.929 . S
C302 C301 1.399 . S
C302 C303 1.385 . S
C303 H289 0.931 . S
C303 C302 1.385 . S
C303 C304 1.389 1_455 S
C304 C303 1.389 1_655 S
C304 C305 1.387 . S
C305 H290 0.930 1_545 S
C305 C300 1.390 1_655 S
C305 C304 1.387 . S
H306 C318 0.930 1_655 S
H307 C320 0.930 . S
H308 C321 0.930 . S
H309 C325 0.959 . S
H310 C325 0.959 . S
H311 C325 0.961 1_565 S
H312 C326 0.960 . S
H313 C326 0.970 . S
H314 C326 0.959 . S
H315 C329 0.929 1_565 S
H316 C330 0.931 . S
H317 C332 0.930 . S
C318 H306 0.930 1_455 S
C318 C319 1.399 1_455 S
C318 C323 1.399 . S
C319 C318 1.399 1_655 S
C319 C320 1.376 1_655 S
C320 H307 0.930 . S
C320 C319 1.376 1_455 S
C320 C321 1.388 . S
C321 H308 0.930 . S
C321 C320 1.388 . S
C321 C322 1.390 . S
C322 C321 1.390 . S
C322 C323 1.394 . S
C322 C328 1.465 . S
C323 C318 1.399 . S
C323 C322 1.394 . S
C323 C324 1.516 . S
C324 C323 1.516 . S
C324 C325 1.502 1_565 S
C324 C326 1.561 . S
C324 C327 1.526 1_565 S
C325 H309 0.959 . S
C325 H310 0.959 . S
C325 H311 0.961 1_545 S
C325 C324 1.502 1_545 S
C326 H312 0.960 . S
C326 H313 0.970 . S
C326 H314 0.959 . S
C326 C324 1.561 . S
C327 C324 1.526 1_545 S
C327 C328 1.396 1_545 S
C327 C332 1.390 . S
C328 C322 1.465 . S
C328 C327 1.396 1_565 S
C328 C329 1.399 1_565 S
C329 H315 0.929 1_545 S
C329 C328 1.399 1_545 S
C329 C330 1.385 . S
C330 H316 0.931 . S
C330 C329 1.385 . S
C330 C331 1.389 . S
C331 C330 1.389 . S
C331 C332 1.387 . S
C332 H317 0.930 . S
C332 C327 1.390 . S
C332 C331 1.387 . S
H333 C345 0.930 . S
H334 C347 0.930 . S
H335 C348 0.930 . S
H336 C352 0.959 . S
H337 C352 0.959 . S
H338 C352 0.961 . S
H339 C353 0.960 . S
H340 C353 0.961 . S
H341 C353 0.959 . S
H342 C356 0.929 . S
H343 C357 0.931 . S
H344 C359 0.930 . S
C345 H333 0.930 . S
C345 C346 1.399 . S
C345 C350 1.399 1_556 S
C346 C345 1.399 . S
C346 C347 1.376 . S
C347 H334 0.930 . S
C347 C346 1.376 . S
C347 C348 1.388 1_556 S
C348 H335 0.930 . S
C348 C347 1.388 1_554 S
C348 C349 1.390 . S
C349 C348 1.390 . S
C349 C350 1.394 . S
C349 C355 1.465 . S
C350 C345 1.399 1_554 S
C350 C349 1.394 . S
C350 C351 1.516 . S
C351 C350 1.516 . S
C351 C352 1.502 . S
C351 C353 1.561 . S
C351 C354 1.526 . S
C352 H336 0.959 . S
C352 H337 0.959 . S
C352 H338 0.961 . S
C352 C351 1.502 . S
C353 H339 0.960 . S
C353 H340 0.961 . S
C353 H341 0.959 . S
C353 C351 1.561 . S
C354 C351 1.526 . S
C354 C355 1.396 . S
C354 C359 1.390 . S
C355 C349 1.465 . S
C355 C354 1.396 . S
C355 C356 1.399 . S
C356 H342 0.929 . S
C356 C355 1.399 . S
C356 C357 1.385 . S
C357 H343 0.931 . S
C357 C356 1.385 . S
C357 C358 1.389 . S
C358 C357 1.389 . S
C358 C359 1.387 . S
C359 H344 0.930 . S
C359 C354 1.390 . S
C359 C358 1.387 . S
H360 C372 0.930 . S
H361 C374 0.930 . S
H362 C375 0.930 . S
H363 C379 0.959 . S
H364 C379 0.959 . S
H365 C379 0.961 . S
H366 C380 0.960 . S
H367 C380 0.961 . S
H368 C380 0.959 . S
H369 C383 0.929 . S
H370 C384 0.931 . S
H371 C386 0.930 . S
C372 H360 0.930 . S
C372 C373 1.399 . S
C372 C377 1.399 . S
C373 C372 1.399 . S
C373 C374 1.376 . S
C374 H361 0.930 . S
C374 C373 1.376 . S
C374 C375 1.388 . S
C375 H362 0.930 . S
C375 C374 1.388 . S
C375 C376 1.390 . S
C376 C375 1.390 . S
C376 C377 1.394 . S
C376 C382 1.465 . S
C377 C372 1.399 . S
C377 C376 1.394 . S
C377 C378 1.516 . S
C378 C377 1.516 . S
C378 C379 1.502 . S
C378 C380 1.561 . S
C378 C381 1.526 . S
C379 H363 0.959 . S
C379 H364 0.959 . S
C379 H365 0.961 . S
C379 C378 1.502 . S
C380 H366 0.960 . S
C380 H367 0.961 . S
C380 H368 0.959 . S
C380 C378 1.561 . S
C381 C378 1.526 . S
C381 C382 1.396 . S
C381 C386 1.390 . S
C382 C376 1.465 . S
C382 C381 1.396 . S
C382 C383 1.399 . S
C383 H369 0.929 . S
C383 C382 1.399 . S
C383 C384 1.385 . S
C384 H370 0.931 . S
C384 C383 1.385 . S
C384 C385 1.389 . S
C385 C384 1.389 . S
C385 C386 1.387 . S
C386 H371 0.930 . S
C386 C381 1.390 . S
C386 C385 1.387 . S
H387 C399 0.930 . S
H388 C401 0.930 . S
H389 C402 0.930 . S
H390 C406 0.959 . S
H391 C406 0.959 . S
H392 C406 0.961 . S
H393 C407 0.960 . S
H394 C407 0.961 . S
H395 C407 0.959 . S
H396 C410 0.929 . S
H397 C411 0.931 . S
H398 C413 0.930 . S
C399 H387 0.930 . S
C399 C400 1.399 . S
C399 C404 1.399 . S
C400 C399 1.399 . S
C400 C401 1.376 . S
C401 H388 0.930 . S
C401 C400 1.376 . S
C401 C402 1.388 . S
C402 H389 0.930 . S
C402 C401 1.388 . S
C402 C403 1.390 . S
C403 C402 1.390 . S
C403 C404 1.394 . S
C403 C409 1.465 . S
C404 C399 1.399 . S
C404 C403 1.394 . S
C404 C405 1.516 . S
C405 C404 1.516 . S
C405 C406 1.502 . S
C405 C407 1.561 . S
C405 C408 1.526 . S
C406 H390 0.959 . S
C406 H391 0.959 . S
C406 H392 0.961 . S
C406 C405 1.502 . S
C407 H393 0.960 . S
C407 H394 0.961 . S
C407 H395 0.959 . S
C407 C405 1.561 . S
C408 C405 1.526 . S
C408 C409 1.396 . S
C408 C413 1.390 . S
C409 C403 1.465 . S
C409 C408 1.396 . S
C409 C410 1.399 . S
C410 H396 0.929 . S
C410 C409 1.399 . S
C410 C411 1.385 . S
C411 H397 0.931 . S
C411 C410 1.385 . S
C411 C412 1.389 . S
C412 C411 1.389 . S
C412 C413 1.387 . S
C413 H398 0.930 . S
C413 C408 1.390 . S
C413 C412 1.387 . S
H414 C426 0.930 . S
H415 C428 0.930 . S
H416 C429 0.930 . S
H417 C433 0.959 . S
H418 C433 0.959 . S
H419 C433 0.961 . S
H420 C434 0.960 . S
H421 C434 0.956 1_554 S
H422 C434 0.959 . S
H423 C437 0.929 . S
H424 C438 0.931 1_565 S
H425 C440 0.930 . S
C426 H414 0.930 . S
C426 C427 1.399 . S
C426 C431 1.399 . S
C427 C426 1.399 . S
C427 C428 1.376 . S
C428 H415 0.930 . S
C428 C427 1.376 . S
C428 C429 1.388 . S
C429 H416 0.930 . S
C429 C428 1.388 . S
C429 C430 1.390 . S
C430 C429 1.390 . S
C430 C431 1.394 . S
C430 C436 1.465 . S
C431 C426 1.399 . S
C431 C430 1.394 . S
C431 C432 1.516 . S
C432 C431 1.516 . S
C432 C433 1.502 . S
C432 C434 1.561 . S
C432 C435 1.526 . S
C433 H417 0.959 . S
C433 H418 0.959 . S
C433 H419 0.961 . S
C433 C432 1.502 . S
C434 H420 0.960 . S
C434 H421 0.956 1_556 S
C434 H422 0.959 . S
C434 C432 1.561 . S
C435 C432 1.526 . S
C435 C436 1.396 . S
C435 C440 1.390 1_556 S
C436 C430 1.465 . S
C436 C435 1.396 . S
C436 C437 1.399 . S
C437 H423 0.929 . S
C437 C436 1.399 . S
C437 C438 1.385 1_556 S
C438 H424 0.931 1_545 S
C438 C437 1.385 1_554 S
C438 C439 1.389 . S
C439 C438 1.389 . S
C439 C440 1.387 . S
C440 H425 0.930 . S
C440 C435 1.390 1_554 S
C440 C439 1.387 . S
H441 C453 0.930 . S
H442 C455 0.930 . S
H443 C456 0.930 . S
H444 C460 0.959 . S
H445 C460 0.959 1_545 S
H446 C460 0.961 . S
H447 C461 0.960 . S
H448 C461 0.961 . S
H449 C461 0.959 . S
H450 C464 0.929 . S
H451 C465 0.931 . S
H452 C467 0.928 1_545 S
C453 H441 0.930 . S
C453 C454 1.399 . S
C453 C458 1.399 . S
C454 C453 1.399 . S
C454 C455 1.376 . S
C455 H442 0.930 . S
C455 C454 1.376 . S
C455 C456 1.388 . S
C456 H443 0.930 . S
C456 C455 1.388 . S
C456 C457 1.390 . S
C457 C456 1.390 . S
C457 C458 1.394 . S
C457 C463 1.465 . S
C458 C453 1.399 . S
C458 C457 1.394 . S
C458 C459 1.516 . S
C459 C458 1.516 . S
C459 C460 1.502 . S
C459 C461 1.561 1_565 S
C459 C462 1.526 . S
C460 H444 0.959 . S
C460 H445 0.959 1_565 S
C460 H446 0.961 . S
C460 C459 1.502 . S
C461 H447 0.960 . S
C461 H448 0.961 . S
C461 H449 0.959 . S
C461 C459 1.561 1_545 S
C462 C459 1.526 . S
C462 C463 1.396 . S
C462 C467 1.390 . S
C463 C457 1.465 . S
C463 C462 1.396 . S
C463 C464 1.399 . S
C464 H450 0.929 . S
C464 C463 1.399 . S
C464 C465 1.385 . S
C465 H451 0.931 . S
C465 C464 1.385 . S
C465 C466 1.389 . S
C466 C465 1.389 . S
C466 C467 1.388 . S
C467 H452 0.928 1_565 S
C467 C462 1.390 . S
C467 C466 1.388 . S
H468 C480 0.930 . S
H469 C482 0.930 . S
H470 C483 0.930 . S
H471 C487 0.959 . S
H472 C487 0.959 . S
H473 C487 0.961 . S
H474 C488 0.960 . S
H475 C488 0.961 . S
H476 C488 0.959 . S
H477 C491 0.929 . S
H478 C492 0.931 . S
H479 C494 0.930 . S
C480 H468 0.930 . S
C480 C481 1.399 . S
C480 C485 1.399 . S
C481 C480 1.399 . S
C481 C482 1.376 1_655 S
C482 H469 0.930 . S
C482 C481 1.376 1_455 S
C482 C483 1.388 . S
C483 H470 0.930 . S
C483 C482 1.388 . S
C483 C484 1.390 1_455 S
C484 C483 1.390 1_655 S
C484 C485 1.394 . S
C484 C490 1.465 . S
C485 C480 1.399 . S
C485 C484 1.394 . S
C485 C486 1.516 . S
C486 C485 1.516 . S
C486 C487 1.502 . S
C486 C488 1.561 . S
C486 C489 1.526 . S
C487 H471 0.959 . S
C487 H472 0.959 . S
C487 H473 0.961 . S
C487 C486 1.502 . S
C488 H474 0.960 . S
C488 H475 0.961 . S
C488 H476 0.959 . S
C488 C486 1.561 . S
C489 C486 1.526 . S
C489 C490 1.396 . S
C489 C494 1.390 . S
C490 C484 1.465 . S
C490 C489 1.396 . S
C490 C491 1.399 . S
C491 H477 0.929 . S
C491 C490 1.399 . S
C491 C492 1.385 . S
C492 H478 0.931 . S
C492 C491 1.385 . S
C492 C493 1.389 . S
C493 C492 1.389 . S
C493 C494 1.387 . S
C494 H479 0.930 . S
C494 C489 1.390 . S
C494 C493 1.387 . S
C265 C74 1.566 . S
C277 C63 1.515 . S
C292 C147 1.530 . S
C304 C158 1.547 . S
C319 C231 1.572 . S
C331 C242 1.510 . S
C346 C237 1.361 . S
C358 C67 1.588 . S
C373 C142 0.926 . S
C385 C56 1.423 . S
C400 C235 1.586 . S
C412 C153 1.366 . S
C427 C224 1.365 . S
C439 C58 1.101 . S
C454 C69 1.428 . S
C466 C151 1.548 1_565 S
C481 C226 1.101 . S
C493 C140 1.366 . S
