# Generated by pormake.
# Topology ttw, (5)-cn, num edge types: 1
# Building blocks:
#     Node 0, Type 0, BuildingBlock: BEQFEK_clean_sbu_0, # of connection points: 5
#     Node 1, Type 0, BuildingBlock: BEQFEK_clean_sbu_0, # of connection points: 5
#     Node 2, Type 0, BuildingBlock: BEQFEK_clean_sbu_0, # of connection points: 5
#     Node 3, Type 0, BuildingBlock: BEQFEK_clean_sbu_0, # of connection points: 5
#     Node 4, Type 0, BuildingBlock: BEQFEK_clean_sbu_0, # of connection points: 5
#     Node 5, Type 0, BuildingBlock: BEQFEK_clean_sbu_0, # of connection points: 5
#     Edge 6, Type (0, 0), BuildingBlock: AJUNOK_clean_linker_0, # of connection points: 2
#     Edge 7, Type (0, 0), BuildingBlock: AJUNOK_clean_linker_0, # of connection points: 2
#     Edge 8, Type (0, 0), BuildingBlock: AJUNOK_clean_linker_0, # of connection points: 2
#     Edge 9, Type (0, 0), BuildingBlock: AJUNOK_clean_linker_0, # of connection points: 2
#     Edge 10, Type (0, 0), BuildingBlock: AJUNOK_clean_linker_0, # of connection points: 2
#     Edge 11, Type (0, 0), BuildingBlock: AJUNOK_clean_linker_0, # of connection points: 2
#     Edge 12, Type (0, 0), BuildingBlock: AJUNOK_clean_linker_0, # of connection points: 2
#     Edge 13, Type (0, 0), BuildingBlock: AJUNOK_clean_linker_0, # of connection points: 2
#     Edge 14, Type (0, 0), BuildingBlock: AJUNOK_clean_linker_0, # of connection points: 2
#     Edge 15, Type (0, 0), BuildingBlock: AJUNOK_clean_linker_0, # of connection points: 2
#     Edge 16, Type (0, 0), BuildingBlock: AJUNOK_clean_linker_0, # of connection points: 2
#     Edge 17, Type (0, 0), BuildingBlock: AJUNOK_clean_linker_0, # of connection points: 2
#     Edge 18, Type (0, 0), BuildingBlock: AJUNOK_clean_linker_0, # of connection points: 2
#     Edge 19, Type (0, 0), BuildingBlock: AJUNOK_clean_linker_0, # of connection points: 2
#     Edge 20, Type (0, 0), BuildingBlock: AJUNOK_clean_linker_0, # of connection points: 2
# Relax obj value: 0.096
# Max RMSD: 0.173
# Mean RMSD: 0.161
data_MOF--net-ttw--node1-BEQFEK_clean_sbu_0--edge1-AJUNOK_clean_linker_0
_symmetry_space_group_name_H-M    P1
_symmetry_Int_Tables_number       1
_symmetry_cell_setting            triclinic
loop_
_symmetry_equiv_pos_as_xyz
'x, y, z'
_cell_length_a     41.831346
_cell_length_b     43.616751
_cell_length_c     15.642525
_cell_angle_alpha  91.19659
_cell_angle_beta   90.092987
_cell_angle_gamma 125.60557
loop_
_atom_site_label
_atom_site_type_symbol
_atom_site_fract_x
_atom_site_fract_y
_atom_site_fract_z
_atom_type_partial_charge
Co0 Co 0.18417 0.5359 0.98712 0.0
Co1 Co 0.18239 0.53453 0.18715 0.0
C2 C 0.24106 0.52998 0.0916 0.0
O3 O 0.22689 0.53138 0.02075 0.0
O4 O 0.22599 0.52981 0.1626 0.0
C5 C 0.17961 0.51079 0.80899 0.0
O6 O 0.18154 0.48373 0.83711 0.0
C7 C 0.17849 0.51967 0.37441 0.0
C8 C 0.1536 0.55011 0.4181 0.0
C9 C 0.16769 0.53026 0.4471 0.0
N10 N 0.17136 0.5331 0.30573 0.0
N11 N 0.1562 0.55094 0.33263 0.0
C12 C 0.19721 0.49913 0.37101 0.0
H13 H 0.20886 0.50046 0.30677 0.0
H14 H 0.17488 0.46906 0.3854 0.0
H15 H 0.22112 0.51113 0.42001 0.0
C16 C 0.09925 0.47724 0.00863 0.0
N17 N 0.13626 0.50024 0.04001 0.0
N18 N 0.13568 0.49883 0.12396 0.0
C19 C 0.09824 0.4743 0.14853 0.0
C20 C 0.0739 0.4601 0.07648 0.0
C21 C 0.08822 0.47574 0.9168 0.0
H22 H 0.10286 0.50483 0.89368 0.0
H23 H 0.09889 0.4619 0.87805 0.0
H24 H 0.05593 0.45982 0.90738 0.0
O25 O 0.20198 0.58766 0.01737 0.0
O26 O 0.20242 0.58672 0.15835 0.0
H27 H 0.08634 0.49042 0.26759 0.0
H28 H 0.05505 0.44043 0.24394 0.0
C29 C 0.08548 0.46639 0.23954 0.0
H30 H 0.10575 0.46305 0.27698 0.0
H31 H 0.14838 0.56446 0.29243 0.0
O32 O 0.17886 0.53283 0.86182 0.0
C33 C 0.20881 0.60435 0.08969 0.0
Co34 Co 0.4967 0.16843 0.16242 0.0
Co35 Co 0.49727 0.16763 0.96094 0.0
C36 C 0.49127 0.22327 0.05924 0.0
O37 O 0.49278 0.20992 0.12962 0.0
O38 O 0.49126 0.20868 0.9877 0.0
C39 C 0.47504 0.17354 0.33712 0.0
O40 O 0.46364 0.19336 0.30521 0.0
C41 C 0.47872 0.16408 0.77585 0.0
C42 C 0.51683 0.14913 0.7213 0.0
C43 C 0.49078 0.15754 0.69879 0.0
N44 N 0.49719 0.15995 0.84025 0.0
N45 N 0.51988 0.15102 0.80701 0.0
C46 C 0.44874 0.17195 0.78942 0.0
H47 H 0.43191 0.15798 0.84802 0.0
H48 H 0.42835 0.16204 0.73348 0.0
H49 H 0.46396 0.20277 0.79947 0.0
C50 C 0.44215 0.08724 0.12879 0.0
N51 N 0.46105 0.12271 0.10115 0.0
N52 N 0.46041 0.12209 0.017 0.0
C53 C 0.44049 0.08599 0.98851 0.0
C54 C 0.42877 0.06266 0.05824 0.0
C55 C 0.44477 0.07838 0.21946 0.0
H56 H 0.47611 0.09487 0.24012 0.0
H57 H 0.42982 0.08708 0.2613 0.0
H58 H 0.43116 0.04798 0.22788 0.0
O59 O 0.55114 0.18519 0.13943 0.0
O60 O 0.55086 0.1858 0.99792 0.0
H61 H 0.46677 0.08132 0.87663 0.0
H62 H 0.41531 0.04357 0.88685 0.0
C63 C 0.43787 0.07436 0.89665 0.0
H64 H 0.43029 0.08993 0.85622 0.0
H65 H 0.53772 0.14649 0.843 0.0
O66 O 0.48886 0.16053 0.28777 0.0
C67 C 0.56867 0.19122 0.06868 0.0
Co68 Co 0.47814 0.64664 0.98389 0.0
Co69 Co 0.48196 0.65058 0.1836 0.0
C70 C 0.49399 0.7142 0.08638 0.0
O71 O 0.48872 0.69594 0.01679 0.0
O72 O 0.49344 0.70078 0.15863 0.0
C73 C 0.5046 0.67006 0.80959 0.0
O74 O 0.53319 0.70309 0.84207 0.0
C75 C 0.49615 0.66281 0.37373 0.0
C76 C 0.46277 0.60296 0.4091 0.0
C77 C 0.48408 0.63932 0.44324 0.0
N78 N 0.48222 0.64105 0.30182 0.0
N79 N 0.46255 0.60542 0.32385 0.0
C80 C 0.51844 0.70478 0.37602 0.0
H81 H 0.5146 0.71469 0.31503 0.0
H82 H 0.55019 0.71758 0.38564 0.0
H83 H 0.50865 0.71419 0.43003 0.0
C84 C 0.53404 0.62679 0.01039 0.0
N85 N 0.51286 0.63896 0.03957 0.0
N86 N 0.51546 0.64178 0.12355 0.0
C87 C 0.53898 0.63206 0.15034 0.0
C88 C 0.55127 0.62197 0.0798 0.0
C89 C 0.53345 0.61549 0.91909 0.0
H90 H 0.50267 0.59753 0.89445 0.0
H91 H 0.54982 0.64119 0.88023 0.0
H92 H 0.54704 0.60007 0.91162 0.0
O93 O 0.42295 0.60653 0.01048 0.0
O94 O 0.4262 0.61209 0.15124 0.0
H95 H 0.52289 0.60339 0.26863 0.0
H96 H 0.57473 0.63092 0.24798 0.0
C97 C 0.54783 0.63017 0.242 0.0
H98 H 0.552 0.65414 0.27944 0.0
H99 H 0.44828 0.58257 0.2803 0.0
O100 O 0.4809 0.64377 0.85899 0.0
C101 C 0.40639 0.59658 0.0826 0.0
Co102 Co 0.80245 0.35783 0.17398 0.0
Co103 Co 0.80128 0.35803 0.97303 0.0
C104 C 0.73725 0.29188 0.06675 0.0
O105 O 0.75359 0.30849 0.13819 0.0
O106 O 0.7532 0.30716 0.99593 0.0
C107 C 0.79392 0.33187 0.34889 0.0
O108 O 0.76655 0.29813 0.31766 0.0
C109 C 0.80193 0.34414 0.78617 0.0
C110 C 0.83201 0.40247 0.74182 0.0
C111 C 0.81541 0.36579 0.71324 0.0
N112 N 0.81063 0.36725 0.85428 0.0
N113 N 0.82844 0.40197 0.82708 0.0
C114 C 0.78294 0.30277 0.79233 0.0
H115 H 0.78935 0.29648 0.85591 0.0
H116 H 0.79334 0.29279 0.74093 0.0
H117 H 0.75061 0.28738 0.7853 0.0
C118 C 0.88209 0.37785 0.14182 0.0
N119 N 0.84657 0.36746 0.11387 0.0
N120 N 0.84616 0.36724 0.02977 0.0
C121 C 0.88147 0.37745 0.00157 0.0
C122 C 0.90546 0.38474 0.07176 0.0
C123 C 0.89398 0.38287 0.23406 0.0
H124 H 0.87196 0.35703 0.26864 0.0
H125 H 0.92336 0.38856 0.24238 0.0
H126 H 0.89459 0.40676 0.26218 0.0
O127 O 0.79304 0.39677 0.15273 0.0
O128 O 0.79038 0.39429 0.01145 0.0
H129 H 0.92266 0.38993 0.90072 0.0
H130 H 0.8712 0.35868 0.87052 0.0
C131 C 0.89325 0.38393 0.90983 0.0
H132 H 0.89396 0.40824 0.88729 0.0
H133 H 0.83837 0.42546 0.86703 0.0
O134 O 0.8118 0.35961 0.29916 0.0
C135 C 0.78791 0.40752 0.08219 0.0
Co136 Co 0.39709 0.82981 0.18143 0.0
Co137 Co 0.39117 0.8226 0.98022 0.0
C138 C 0.44726 0.81417 0.0771 0.0
O139 O 0.43627 0.81972 0.14828 0.0
O140 O 0.43298 0.81551 0.00622 0.0
C141 C 0.42423 0.84227 0.3593 0.0
O142 O 0.45041 0.83721 0.33115 0.0
C143 C 0.40862 0.83555 0.79498 0.0
C144 C 0.34931 0.81289 0.7435 0.0
C145 C 0.38795 0.83004 0.71967 0.0
N146 N 0.38326 0.82264 0.86009 0.0
N147 N 0.34788 0.8089 0.8286 0.0
C148 C 0.45185 0.85459 0.80614 0.0
H149 H 0.46167 0.86757 0.87132 0.0
H150 H 0.46844 0.87638 0.75732 0.0
H151 H 0.45812 0.83323 0.79847 0.0
C152 C 0.40721 0.90125 0.14341 0.0
N153 N 0.40286 0.86929 0.11824 0.0
N154 N 0.40095 0.86659 0.03415 0.0
C155 C 0.40423 0.89689 0.00313 0.0
C156 C 0.408 0.91963 0.07132 0.0
C157 C 0.41091 0.91393 0.23474 0.0
H158 H 0.38238 0.89456 0.26649 0.0
H159 H 0.43335 0.91245 0.26824 0.0
H160 H 0.41928 0.94317 0.24018 0.0
O161 O 0.34422 0.78225 0.16112 0.0
O162 O 0.34128 0.77757 0.01983 0.0
H163 H 0.37237 0.87896 0.88427 0.0
H164 H 0.40447 0.92938 0.89946 0.0
C165 C 0.40136 0.90273 0.91025 0.0
H166 H 0.42457 0.90313 0.87504 0.0
H167 H 0.32274 0.7972 0.86555 0.0
O168 O 0.40039 0.84106 0.3064 0.0
C169 C 0.326 0.76457 0.09213 0.0
Co170 Co 0.62365 0.45164 0.17438 0.0
Co171 Co 0.62375 0.45199 0.97357 0.0
C172 C 0.68905 0.45905 0.07321 0.0
O173 O 0.67246 0.45713 0.14318 0.0
O174 O 0.67405 0.45825 0.0012 0.0
C175 C 0.6507 0.47863 0.35048 0.0
O176 O 0.68523 0.50443 0.31918 0.0
C177 C 0.63933 0.46889 0.78695 0.0
C178 C 0.57784 0.43613 0.73917 0.0
C179 C 0.61643 0.45867 0.71281 0.0
N180 N 0.61511 0.45322 0.85388 0.0
N181 N 0.5785 0.43386 0.82449 0.0
C182 C 0.68308 0.49081 0.79374 0.0
H183 H 0.69153 0.4815 0.84902 0.0
H184 H 0.69574 0.52111 0.80456 0.0
H185 H 0.69542 0.4875 0.73439 0.0
C186 C 0.61368 0.51283 0.14919 0.0
N187 N 0.61952 0.48735 0.11897 0.0
N188 N 0.61986 0.48779 0.03487 0.0
C189 C 0.61434 0.5137 0.00887 0.0
C190 C 0.61032 0.53049 0.0805 0.0
C191 C 0.61068 0.51945 0.24217 0.0
H192 H 0.58738 0.49243 0.27117 0.0
H193 H 0.63893 0.52983 0.27482 0.0
H194 H 0.60432 0.54061 0.25273 0.0
O195 O 0.57878 0.39935 0.14404 0.0
O196 O 0.58051 0.39981 0.00297 0.0
H197 H 0.58171 0.49268 0.89122 0.0
H198 H 0.60513 0.54219 0.90977 0.0
C199 C 0.60858 0.51907 0.91731 0.0
H200 H 0.63401 0.52511 0.87966 0.0
H201 H 0.55379 0.41855 0.86288 0.0
O202 O 0.62227 0.45567 0.30013 0.0
C203 C 0.56541 0.3824 0.07186 0.0
C204 C 0.0057 0.40487 0.03704 0.0
C205 C 0.03103 0.44104 0.07476 0.0
C206 C 0.96482 0.38656 0.03607 0.0
C207 C 0.9484 0.4041 0.07246 0.0
H208 H 0.01757 0.39064 0.00888 0.0
H209 H 0.94593 0.35853 0.00725 0.0
S210 S 0.00262 0.49992 0.17216 0.0
N211 N 0.03722 0.49452 0.1448 0.0
N212 N 0.96051 0.46024 0.14254 0.0
C213 C 0.97357 0.44054 0.10861 0.0
C214 C 0.01495 0.45903 0.10982 0.0
C215 C 0.44422 0.98606 0.02605 0.0
C216 C 0.41189 0.95538 0.0673 0.0
C217 C 0.44885 0.02043 0.02164 0.0
C218 C 0.4211 0.02507 0.0577 0.0
H219 H 0.46635 0.9836 0.99816 0.0
H220 H 0.47482 0.04381 0.99154 0.0
S221 S 0.33063 0.95278 0.16987 0.0
N222 N 0.35124 0.93122 0.14302 0.0
N223 N 0.3599 0.9961 0.13425 0.0
C224 C 0.38839 0.99445 0.0981 0.0
C225 C 0.38379 0.95948 0.10305 0.0
C226 C 0.56106 0.54272 0.12024 0.0
C227 C 0.59706 0.55532 0.0824 0.0
C228 C 0.54678 0.56481 0.11988 0.0
C229 C 0.56787 0.60004 0.08093 0.0
H230 H 0.54355 0.51532 0.14918 0.0
H231 H 0.5187 0.55399 0.14893 0.0
S232 S 0.66413 0.64629 0.97575 0.0
N233 N 0.65417 0.60574 0.00777 0.0
N234 N 0.62662 0.64698 0.00522 0.0
C235 C 0.60393 0.6131 0.04329 0.0
C236 C 0.61873 0.59078 0.04451 0.0
C237 C 0.16307 0.49125 0.569 0.0
C238 C 0.1734 0.52594 0.53818 0.0
C239 C 0.16588 0.4866 0.65667 0.0
C240 C 0.17877 0.51641 0.71626 0.0
H241 H 0.15149 0.46719 0.52579 0.0
H242 H 0.15685 0.45922 0.67807 0.0
S243 S 0.21288 0.61392 0.66638 0.0
N244 N 0.19959 0.59122 0.57295 0.0
N245 N 0.20462 0.5826 0.73704 0.0
C246 C 0.19021 0.55152 0.68559 0.0
C247 C 0.18751 0.55622 0.59675 0.0
C248 C 0.47294 0.13724 0.46079 0.0
C249 C 0.47423 0.16805 0.43045 0.0
C250 C 0.47618 0.13323 0.54829 0.0
C251 C 0.48098 0.15989 0.60913 0.0
H252 H 0.4702 0.11638 0.41643 0.0
H253 H 0.47599 0.10949 0.56835 0.0
S254 S 0.48741 0.2464 0.56272 0.0
N255 N 0.48038 0.22567 0.46812 0.0
N256 N 0.48789 0.21878 0.6325 0.0
C257 C 0.48159 0.1905 0.57996 0.0
C258 C 0.47782 0.19439 0.49062 0.0
C259 C 0.5299 0.68604 0.65996 0.0
C260 C 0.49877 0.6633 0.71594 0.0
C261 C 0.52497 0.67885 0.57121 0.0
C262 C 0.48867 0.64891 0.5357 0.0
H263 H 0.55851 0.70894 0.68493 0.0
H264 H 0.55004 0.6961 0.53069 0.0
S265 S 0.39682 0.58359 0.6534 0.0
N266 N 0.42962 0.6112 0.72842 0.0
N267 N 0.42048 0.59808 0.56235 0.0
C268 C 0.45708 0.62676 0.59072 0.0
C269 C 0.46206 0.63389 0.68064 0.0
C270 C 0.77771 0.32145 0.58847 0.0
C271 C 0.81237 0.35426 0.62218 0.0
C272 C 0.7726 0.31348 0.50004 0.0
C273 C 0.80175 0.33833 0.44228 0.0
H274 H 0.75354 0.30275 0.62986 0.0
H275 H 0.74488 0.28859 0.47663 0.0
S276 S 0.89976 0.42568 0.49937 0.0
N277 N 0.87773 0.40978 0.59182 0.0
N278 N 0.86786 0.39532 0.4261 0.0
C279 C 0.8372 0.37032 0.4757 0.0
C280 C 0.84253 0.37817 0.56548 0.0
C281 C 0.43599 0.83332 0.51108 0.0
C282 C 0.41917 0.84452 0.45259 0.0
C283 C 0.4274 0.83041 0.59851 0.0
C284 C 0.40189 0.83882 0.63061 0.0
H285 H 0.45454 0.82508 0.48882 0.0
H286 H 0.43922 0.81964 0.64017 0.0
S287 S 0.35467 0.87453 0.507 0.0
N288 N 0.37894 0.86772 0.4351 0.0
N289 N 0.36301 0.86234 0.59906 0.0
C290 C 0.38666 0.85203 0.57378 0.0
C291 C 0.39531 0.85495 0.48494 0.0
C292 C 0.61452 0.43956 0.47569 0.0
C293 C 0.64447 0.47485 0.4438 0.0
C294 C 0.60659 0.43478 0.56297 0.0
C295 C 0.62816 0.46508 0.62215 0.0
H296 H 0.59693 0.41526 0.43286 0.0
H297 H 0.58315 0.40701 0.58425 0.0
S298 S 0.7079 0.56392 0.57112 0.0
N299 N 0.69524 0.54098 0.47785 0.0
N300 N 0.67936 0.53216 0.64235 0.0
C301 C 0.65811 0.50064 0.59143 0.0
C302 C 0.66653 0.50547 0.50213 0.0
C303 C 0.29971 0.54337 0.0128 0.0
C304 C 0.28016 0.53646 0.091 0.0
C305 C 0.34016 0.56014 0.01049 0.0
C306 C 0.36278 0.57058 0.08627 0.0
H307 H 0.28436 0.53833 0.95257 0.0
H308 H 0.3541 0.56718 0.94872 0.0
S309 S 0.32412 0.54971 0.30712 0.0
N310 N 0.28531 0.53491 0.24572 0.0
N311 N 0.36126 0.56613 0.2414 0.0
C312 C 0.34284 0.55977 0.16458 0.0
C313 C 0.30155 0.54273 0.16693 0.0
C314 C 0.63211 0.22292 0.99065 0.0
C315 C 0.61165 0.20919 0.06786 0.0
C316 C 0.67323 0.24689 0.98978 0.0
C317 C 0.69564 0.25816 0.0661 0.0
H318 H 0.61636 0.21713 0.93064 0.0
H319 H 0.68725 0.25873 0.92935 0.0
S320 S 0.65669 0.22226 0.28234 0.0
N321 N 0.61713 0.20292 0.22043 0.0
N322 N 0.69442 0.24775 0.21878 0.0
C323 C 0.6757 0.24114 0.14235 0.0
C324 C 0.63373 0.21677 0.14328 0.0
C325 C 0.48369 0.75658 0.00464 0.0
C326 C 0.4936 0.74808 0.08251 0.0
C327 C 0.47248 0.78119 0.00211 0.0
C328 C 0.47075 0.79844 0.07731 0.0
H329 H 0.48168 0.74205 0.94565 0.0
H330 H 0.46222 0.7843 0.94148 0.0
S331 S 0.5051 0.79446 0.2933 0.0
N332 N 0.50907 0.76525 0.23349 0.0
N333 N 0.4884 0.81178 0.22867 0.0
C334 C 0.48553 0.79405 0.1536 0.0
C335 C 0.49683 0.76881 0.15624 0.0
C336 C 0.75648 0.43469 0.15702 0.0
C337 C 0.77207 0.43044 0.0818 0.0
C338 C 0.7323 0.44716 0.15443 0.0
C339 C 0.72255 0.45579 0.07648 0.0
H340 H 0.76062 0.42582 0.21771 0.0
H341 H 0.71907 0.4475 0.21359 0.0
S342 S 0.76387 0.45845 0.86457 0.0
N343 N 0.78214 0.44272 0.9295 0.0
N344 N 0.73646 0.46582 0.92472 0.0
C345 C 0.74148 0.45566 0.00233 0.0
C346 C 0.76628 0.44309 0.00499 0.0
C347 C 0.24325 0.66609 0.01703 0.0
C348 C 0.23063 0.64605 0.09345 0.0
C349 C 0.27188 0.70509 0.01775 0.0
C350 C 0.28918 0.72575 0.09491 0.0
H351 H 0.23289 0.65135 0.95558 0.0
H352 H 0.28219 0.71863 0.95674 0.0
S353 S 0.2596 0.68811 0.31348 0.0
N354 N 0.23244 0.65084 0.24912 0.0
N355 N 0.28646 0.72421 0.25039 0.0
C356 C 0.27372 0.70677 0.17213 0.0
C357 C 0.2444 0.66692 0.17141 0.0
C358 C 0.51054 0.28198 0.98564 0.0
C359 C 0.49838 0.26093 0.06068 0.0
C360 C 0.52916 0.32104 0.989 0.0
C361 C 0.53638 0.34066 0.06753 0.0
H362 H 0.5086 0.26889 0.92439 0.0
H363 H 0.54049 0.33619 0.93005 0.0
S364 S 0.50029 0.29712 0.27921 0.0
N365 N 0.48738 0.26148 0.21333 0.0
N366 N 0.52254 0.33486 0.21971 0.0
C367 C 0.51994 0.31929 0.1415 0.0
C368 C 0.50088 0.27944 0.13803 0.0
loop_
_geom_bond_atom_site_label_1
_geom_bond_atom_site_label_2
_geom_bond_distance
_geom_bond_site_symmetry_2
_ccdc_geom_bond_type
Co0 O3 1.970 1_556 S
Co0 N17 1.989 1_556 S
Co0 O25 1.967 1_556 S
Co0 O32 1.920 . S
Co1 O4 1.966 . S
Co1 N10 2.022 . S
Co1 N18 1.993 . S
Co1 O26 1.941 . S
C2 O3 1.258 . S
C2 O4 1.263 . S
O3 Co0 1.970 1_554 S
O3 C2 1.258 . S
O4 Co1 1.966 . S
O4 C2 1.263 . S
C5 O6 1.235 . S
C5 O32 1.289 . S
O6 C5 1.235 . S
C7 C9 1.400 . S
C7 N10 1.351 . S
C7 C12 1.501 . S
C8 C9 1.387 . S
C8 N11 1.341 . S
C9 C7 1.400 . S
C9 C8 1.387 . S
N10 Co1 2.022 . S
N10 C7 1.351 . S
N10 N11 1.365 . S
N11 C8 1.341 . S
N11 N10 1.365 . S
N11 H31 0.862 . S
C12 C7 1.501 . S
C12 H13 0.961 . S
C12 H14 0.961 . S
C12 H15 0.960 . S
H13 C12 0.961 . S
H14 C12 0.961 . S
H15 C12 0.960 . S
C16 N17 1.342 . S
C16 C20 1.401 . S
C16 C21 1.499 1_554 S
N17 Co0 1.989 1_554 S
N17 C16 1.342 . S
N17 N18 1.388 . S
N18 Co1 1.993 . S
N18 N17 1.388 . S
N18 C19 1.346 . S
C19 N18 1.346 . S
C19 C20 1.396 . S
C19 C29 1.510 . S
C20 C16 1.401 . S
C20 C19 1.396 . S
C21 C16 1.499 1_556 S
C21 H22 0.959 . S
C21 H23 0.960 . S
C21 H24 0.961 . S
H22 C21 0.959 . S
H23 C21 0.960 . S
H24 C21 0.961 . S
O25 Co0 1.967 1_554 S
O25 C33 1.258 . S
O26 Co1 1.941 . S
O26 C33 1.266 . S
H27 C29 0.959 . S
H28 C29 0.961 . S
C29 C19 1.510 . S
C29 H27 0.959 . S
C29 H28 0.961 . S
C29 H30 0.960 . S
H30 C29 0.960 . S
H31 N11 0.862 . S
O32 Co0 1.920 . S
O32 C5 1.289 . S
C33 O25 1.258 . S
C33 O26 1.266 . S
Co34 O37 1.970 . S
Co34 N51 1.989 . S
Co34 O59 1.967 . S
Co34 O66 1.920 . S
Co35 O38 1.966 1_556 S
Co35 N44 2.022 . S
Co35 N52 1.993 1_556 S
Co35 O60 1.941 1_556 S
C36 O37 1.258 . S
C36 O38 1.263 . S
O37 Co34 1.970 . S
O37 C36 1.258 . S
O38 Co35 1.966 1_554 S
O38 C36 1.263 . S
C39 O40 1.235 . S
C39 O66 1.289 . S
O40 C39 1.235 . S
C41 C43 1.400 . S
C41 N44 1.351 . S
C41 C46 1.501 . S
C42 C43 1.387 . S
C42 N45 1.341 . S
C43 C41 1.400 . S
C43 C42 1.387 . S
N44 Co35 2.022 . S
N44 C41 1.351 . S
N44 N45 1.365 . S
N45 C42 1.341 . S
N45 N44 1.365 . S
N45 H65 0.862 . S
C46 C41 1.501 . S
C46 H47 0.961 . S
C46 H48 0.961 . S
C46 H49 0.960 . S
H47 C46 0.961 . S
H48 C46 0.961 . S
H49 C46 0.960 . S
C50 N51 1.342 . S
C50 C54 1.401 . S
C50 C55 1.499 . S
N51 Co34 1.989 . S
N51 C50 1.342 . S
N51 N52 1.388 . S
N52 Co35 1.993 1_554 S
N52 N51 1.388 . S
N52 C53 1.346 1_554 S
C53 N52 1.346 1_556 S
C53 C54 1.396 1_556 S
C53 C63 1.510 . S
C54 C50 1.401 . S
C54 C53 1.396 1_554 S
C55 C50 1.499 . S
C55 H56 0.959 . S
C55 H57 0.960 . S
C55 H58 0.961 . S
H56 C55 0.959 . S
H57 C55 0.960 . S
H58 C55 0.961 . S
O59 Co34 1.967 . S
O59 C67 1.258 . S
O60 Co35 1.941 1_554 S
O60 C67 1.266 . S
H61 C63 0.959 . S
H62 C63 0.961 . S
C63 C53 1.510 . S
C63 H61 0.959 . S
C63 H62 0.961 . S
C63 H64 0.960 . S
H64 C63 0.960 . S
H65 N45 0.862 . S
O66 Co34 1.920 . S
O66 C39 1.289 . S
C67 O59 1.258 . S
C67 O60 1.266 . S
Co68 O71 1.970 1_556 S
Co68 N85 1.989 1_556 S
Co68 O93 1.967 1_556 S
Co68 O100 1.920 . S
Co69 O72 1.966 . S
Co69 N78 2.022 . S
Co69 N86 1.993 . S
Co69 O94 1.941 . S
C70 O71 1.258 . S
C70 O72 1.263 . S
O71 Co68 1.970 1_554 S
O71 C70 1.258 . S
O72 Co69 1.966 . S
O72 C70 1.263 . S
C73 O74 1.235 . S
C73 O100 1.289 . S
O74 C73 1.235 . S
C75 C77 1.400 . S
C75 N78 1.351 . S
C75 C80 1.501 . S
C76 C77 1.387 . S
C76 N79 1.341 . S
C77 C75 1.400 . S
C77 C76 1.387 . S
N78 Co69 2.022 . S
N78 C75 1.351 . S
N78 N79 1.365 . S
N79 C76 1.341 . S
N79 N78 1.365 . S
N79 H99 0.862 . S
C80 C75 1.501 . S
C80 H81 0.961 . S
C80 H82 0.961 . S
C80 H83 0.960 . S
H81 C80 0.961 . S
H82 C80 0.961 . S
H83 C80 0.960 . S
C84 N85 1.342 . S
C84 C88 1.401 . S
C84 C89 1.499 1_554 S
N85 Co68 1.989 1_554 S
N85 C84 1.342 . S
N85 N86 1.388 . S
N86 Co69 1.993 . S
N86 N85 1.388 . S
N86 C87 1.346 . S
C87 N86 1.346 . S
C87 C88 1.396 . S
C87 C97 1.510 . S
C88 C84 1.401 . S
C88 C87 1.396 . S
C89 C84 1.499 1_556 S
C89 H90 0.959 . S
C89 H91 0.960 . S
C89 H92 0.961 . S
H90 C89 0.959 . S
H91 C89 0.960 . S
H92 C89 0.961 . S
O93 Co68 1.967 1_554 S
O93 C101 1.258 . S
O94 Co69 1.941 . S
O94 C101 1.266 . S
H95 C97 0.959 . S
H96 C97 0.961 . S
C97 C87 1.510 . S
C97 H95 0.959 . S
C97 H96 0.961 . S
C97 H98 0.960 . S
H98 C97 0.960 . S
H99 N79 0.862 . S
O100 Co68 1.920 . S
O100 C73 1.289 . S
C101 O93 1.258 . S
C101 O94 1.266 . S
Co102 O105 1.970 . S
Co102 N119 1.989 . S
Co102 O127 1.967 . S
Co102 O134 1.920 . S
Co103 O106 1.966 1_556 S
Co103 N112 2.022 . S
Co103 N120 1.993 1_556 S
Co103 O128 1.941 1_556 S
C104 O105 1.258 . S
C104 O106 1.263 . S
O105 Co102 1.970 . S
O105 C104 1.258 . S
O106 Co103 1.966 1_554 S
O106 C104 1.263 . S
C107 O108 1.235 . S
C107 O134 1.289 . S
O108 C107 1.235 . S
C109 C111 1.400 . S
C109 N112 1.351 . S
C109 C114 1.501 . S
C110 C111 1.387 . S
C110 N113 1.341 . S
C111 C109 1.400 . S
C111 C110 1.387 . S
N112 Co103 2.022 . S
N112 C109 1.351 . S
N112 N113 1.365 . S
N113 C110 1.341 . S
N113 N112 1.365 . S
N113 H133 0.862 . S
C114 C109 1.501 . S
C114 H115 0.961 . S
C114 H116 0.961 . S
C114 H117 0.960 . S
H115 C114 0.961 . S
H116 C114 0.961 . S
H117 C114 0.960 . S
C118 N119 1.342 . S
C118 C122 1.401 . S
C118 C123 1.499 . S
N119 Co102 1.989 . S
N119 C118 1.342 . S
N119 N120 1.388 . S
N120 Co103 1.993 1_554 S
N120 N119 1.388 . S
N120 C121 1.346 . S
C121 N120 1.346 . S
C121 C122 1.396 . S
C121 C131 1.510 1_554 S
C122 C118 1.401 . S
C122 C121 1.396 . S
C123 C118 1.499 . S
C123 H124 0.959 . S
C123 H125 0.960 . S
C123 H126 0.961 . S
H124 C123 0.959 . S
H125 C123 0.960 . S
H126 C123 0.961 . S
O127 Co102 1.967 . S
O127 C135 1.258 . S
O128 Co103 1.941 1_554 S
O128 C135 1.266 . S
H129 C131 0.959 . S
H130 C131 0.961 . S
C131 C121 1.510 1_556 S
C131 H129 0.959 . S
C131 H130 0.961 . S
C131 H132 0.960 . S
H132 C131 0.960 . S
H133 N113 0.862 . S
O134 Co102 1.920 . S
O134 C107 1.289 . S
C135 O127 1.258 . S
C135 O128 1.266 . S
Co136 O139 1.970 . S
Co136 N153 1.989 . S
Co136 O161 1.967 . S
Co136 O168 1.920 . S
Co137 O140 1.966 . S
Co137 N146 2.022 . S
Co137 N154 1.993 1_556 S
Co137 O162 1.941 . S
C138 O139 1.258 . S
C138 O140 1.263 1_554 S
O139 Co136 1.970 . S
O139 C138 1.258 . S
O140 Co137 1.966 . S
O140 C138 1.263 1_556 S
C141 O142 1.235 . S
C141 O168 1.289 . S
O142 C141 1.235 . S
C143 C145 1.400 . S
C143 N146 1.351 . S
C143 C148 1.501 . S
C144 C145 1.387 . S
C144 N147 1.341 . S
C145 C143 1.400 . S
C145 C144 1.387 . S
N146 Co137 2.022 . S
N146 C143 1.351 . S
N146 N147 1.365 . S
N147 C144 1.341 . S
N147 N146 1.365 . S
N147 H167 0.862 . S
C148 C143 1.501 . S
C148 H149 0.961 . S
C148 H150 0.961 . S
C148 H151 0.960 . S
H149 C148 0.961 . S
H150 C148 0.961 . S
H151 C148 0.960 . S
C152 N153 1.342 . S
C152 C156 1.401 . S
C152 C157 1.499 . S
N153 Co136 1.989 . S
N153 C152 1.342 . S
N153 N154 1.388 . S
N154 Co137 1.993 1_554 S
N154 N153 1.388 . S
N154 C155 1.346 1_554 S
C155 N154 1.346 1_556 S
C155 C156 1.396 1_556 S
C155 C165 1.510 . S
C156 C152 1.401 . S
C156 C155 1.396 1_554 S
C157 C152 1.499 . S
C157 H158 0.959 . S
C157 H159 0.960 . S
C157 H160 0.961 . S
H158 C157 0.959 . S
H159 C157 0.960 . S
H160 C157 0.961 . S
O161 Co136 1.967 . S
O161 C169 1.258 . S
O162 Co137 1.941 . S
O162 C169 1.266 1_556 S
H163 C165 0.959 . S
H164 C165 0.961 . S
C165 C155 1.510 . S
C165 H163 0.959 . S
C165 H164 0.961 . S
C165 H166 0.960 . S
H166 C165 0.960 . S
H167 N147 0.862 . S
O168 Co136 1.920 . S
O168 C141 1.289 . S
C169 O161 1.258 . S
C169 O162 1.266 1_554 S
Co170 O173 1.970 . S
Co170 N187 1.989 . S
Co170 O195 1.967 . S
Co170 O202 1.920 . S
Co171 O174 1.966 1_556 S
Co171 N180 2.022 . S
Co171 N188 1.993 1_556 S
Co171 O196 1.941 1_556 S
C172 O173 1.258 . S
C172 O174 1.263 . S
O173 Co170 1.970 . S
O173 C172 1.258 . S
O174 Co171 1.966 1_554 S
O174 C172 1.263 . S
C175 O176 1.235 . S
C175 O202 1.289 . S
O176 C175 1.235 . S
C177 C179 1.400 . S
C177 N180 1.351 . S
C177 C182 1.501 . S
C178 C179 1.387 . S
C178 N181 1.341 . S
C179 C177 1.400 . S
C179 C178 1.387 . S
N180 Co171 2.022 . S
N180 C177 1.351 . S
N180 N181 1.365 . S
N181 C178 1.341 . S
N181 N180 1.365 . S
N181 H201 0.862 . S
C182 C177 1.501 . S
C182 H183 0.961 . S
C182 H184 0.961 . S
C182 H185 0.960 . S
H183 C182 0.961 . S
H184 C182 0.961 . S
H185 C182 0.960 . S
C186 N187 1.342 . S
C186 C190 1.401 . S
C186 C191 1.499 . S
N187 Co170 1.989 . S
N187 C186 1.342 . S
N187 N188 1.388 . S
N188 Co171 1.993 1_554 S
N188 N187 1.388 . S
N188 C189 1.346 . S
C189 N188 1.346 . S
C189 C190 1.396 . S
C189 C199 1.510 1_554 S
C190 C186 1.401 . S
C190 C189 1.396 . S
C191 C186 1.499 . S
C191 H192 0.959 . S
C191 H193 0.960 . S
C191 H194 0.961 . S
H192 C191 0.959 . S
H193 C191 0.960 . S
H194 C191 0.961 . S
O195 Co170 1.967 . S
O195 C203 1.258 . S
O196 Co171 1.941 1_554 S
O196 C203 1.266 . S
H197 C199 0.959 . S
H198 C199 0.961 . S
C199 C189 1.510 1_556 S
C199 H197 0.959 . S
C199 H198 0.961 . S
C199 H200 0.960 . S
H200 C199 0.960 . S
H201 N181 0.862 . S
O202 Co170 1.920 . S
O202 C175 1.289 . S
C203 O195 1.258 . S
C203 O196 1.266 . S
C204 C205 1.369 . S
C204 C206 1.419 1_455 S
C204 H208 0.930 1_554 S
C205 C204 1.369 . S
C205 C214 1.429 . S
C206 C204 1.419 1_655 S
C206 C207 1.363 . S
C206 H209 0.929 1_554 S
C207 C206 1.363 . S
C207 C213 1.428 . S
H208 C204 0.930 1_556 S
H209 C206 0.929 1_556 S
S210 N211 1.613 . S
S210 N212 1.610 1_455 S
N211 S210 1.613 . S
N211 C214 1.350 . S
N212 S210 1.610 1_655 S
N212 C213 1.351 . S
C213 C207 1.428 . S
C213 N212 1.351 . S
C213 C214 1.434 1_655 S
C214 C205 1.429 . S
C214 N211 1.350 . S
C214 C213 1.434 1_455 S
C215 C216 1.369 . S
C215 C217 1.419 1_565 S
C215 H219 0.930 . S
C216 C215 1.369 . S
C216 C225 1.429 . S
C217 C215 1.419 1_545 S
C217 C218 1.363 . S
C217 H220 0.929 . S
C218 C217 1.363 . S
C218 C224 1.428 1_545 S
H219 C215 0.930 . S
H220 C217 0.929 . S
S221 N222 1.613 . S
S221 N223 1.610 . S
N222 S221 1.613 . S
N222 C225 1.350 . S
N223 S221 1.610 . S
N223 C224 1.351 . S
C224 C218 1.428 1_565 S
C224 N223 1.351 . S
C224 C225 1.434 . S
C225 C216 1.429 . S
C225 N222 1.350 . S
C225 C224 1.434 . S
C226 C227 1.369 . S
C226 C228 1.419 . S
C226 H230 0.930 . S
C227 C226 1.369 . S
C227 C236 1.429 . S
C228 C226 1.419 . S
C228 C229 1.363 . S
C228 H231 0.929 . S
C229 C228 1.363 . S
C229 C235 1.428 . S
H230 C226 0.930 . S
H231 C228 0.929 . S
S232 N233 1.613 . S
S232 N234 1.610 . S
N233 S232 1.613 . S
N233 C236 1.350 . S
N234 S232 1.610 . S
N234 C235 1.351 . S
C235 C229 1.428 . S
C235 N234 1.351 . S
C235 C236 1.434 . S
C236 C227 1.429 . S
C236 N233 1.350 . S
C236 C235 1.434 . S
C237 C238 1.369 . S
C237 C239 1.419 . S
C237 H241 0.930 . S
C238 C237 1.369 . S
C238 C247 1.429 . S
C239 C237 1.419 . S
C239 C240 1.363 . S
C239 H242 0.929 . S
C240 C239 1.363 . S
C240 C246 1.428 . S
H241 C237 0.930 . S
H242 C239 0.929 . S
S243 N244 1.613 . S
S243 N245 1.610 . S
N244 S243 1.613 . S
N244 C247 1.350 . S
N245 S243 1.610 . S
N245 C246 1.351 . S
C246 C240 1.428 . S
C246 N245 1.351 . S
C246 C247 1.434 . S
C247 C238 1.429 . S
C247 N244 1.350 . S
C247 C246 1.434 . S
C248 C249 1.369 . S
C248 C250 1.419 . S
C248 H252 0.930 . S
C249 C248 1.369 . S
C249 C258 1.429 . S
C250 C248 1.419 . S
C250 C251 1.363 . S
C250 H253 0.929 . S
C251 C250 1.363 . S
C251 C257 1.428 . S
H252 C248 0.930 . S
H253 C250 0.929 . S
S254 N255 1.613 . S
S254 N256 1.610 . S
N255 S254 1.613 . S
N255 C258 1.350 . S
N256 S254 1.610 . S
N256 C257 1.351 . S
C257 C251 1.428 . S
C257 N256 1.351 . S
C257 C258 1.434 . S
C258 C249 1.429 . S
C258 N255 1.350 . S
C258 C257 1.434 . S
C259 C260 1.369 . S
C259 C261 1.419 . S
C259 H263 0.930 . S
C260 C259 1.369 . S
C260 C269 1.429 . S
C261 C259 1.419 . S
C261 C262 1.363 . S
C261 H264 0.929 . S
C262 C261 1.363 . S
C262 C268 1.428 . S
H263 C259 0.930 . S
H264 C261 0.929 . S
S265 N266 1.613 . S
S265 N267 1.610 . S
N266 S265 1.613 . S
N266 C269 1.350 . S
N267 S265 1.610 . S
N267 C268 1.351 . S
C268 C262 1.428 . S
C268 N267 1.351 . S
C268 C269 1.434 . S
C269 C260 1.429 . S
C269 N266 1.350 . S
C269 C268 1.434 . S
C270 C271 1.369 . S
C270 C272 1.419 . S
C270 H274 0.930 . S
C271 C270 1.369 . S
C271 C280 1.429 . S
C272 C270 1.419 . S
C272 C273 1.363 . S
C272 H275 0.929 . S
C273 C272 1.363 . S
C273 C279 1.428 . S
H274 C270 0.930 . S
H275 C272 0.929 . S
S276 N277 1.613 . S
S276 N278 1.610 . S
N277 S276 1.613 . S
N277 C280 1.350 . S
N278 S276 1.610 . S
N278 C279 1.351 . S
C279 C273 1.428 . S
C279 N278 1.351 . S
C279 C280 1.434 . S
C280 C271 1.429 . S
C280 N277 1.350 . S
C280 C279 1.434 . S
C281 C282 1.369 . S
C281 C283 1.419 . S
C281 H285 0.930 . S
C282 C281 1.369 . S
C282 C291 1.429 . S
C283 C281 1.419 . S
C283 C284 1.363 . S
C283 H286 0.929 . S
C284 C283 1.363 . S
C284 C290 1.428 . S
H285 C281 0.930 . S
H286 C283 0.929 . S
S287 N288 1.613 . S
S287 N289 1.610 . S
N288 S287 1.613 . S
N288 C291 1.350 . S
N289 S287 1.610 . S
N289 C290 1.351 . S
C290 C284 1.428 . S
C290 N289 1.351 . S
C290 C291 1.434 . S
C291 C282 1.429 . S
C291 N288 1.350 . S
C291 C290 1.434 . S
C292 C293 1.369 . S
C292 C294 1.419 . S
C292 H296 0.930 . S
C293 C292 1.369 . S
C293 C302 1.429 . S
C294 C292 1.419 . S
C294 C295 1.363 . S
C294 H297 0.929 . S
C295 C294 1.363 . S
C295 C301 1.428 . S
H296 C292 0.930 . S
H297 C294 0.929 . S
S298 N299 1.613 . S
S298 N300 1.610 . S
N299 S298 1.613 . S
N299 C302 1.350 . S
N300 S298 1.610 . S
N300 C301 1.351 . S
C301 C295 1.428 . S
C301 N300 1.351 . S
C301 C302 1.434 . S
C302 C293 1.429 . S
C302 N299 1.350 . S
C302 C301 1.434 . S
C303 C304 1.369 . S
C303 C305 1.419 . S
C303 H307 0.930 1_554 S
C304 C303 1.369 . S
C304 C313 1.429 . S
C305 C303 1.419 . S
C305 C306 1.363 . S
C305 H308 0.929 1_554 S
C306 C305 1.363 . S
C306 C312 1.428 . S
H307 C303 0.930 1_556 S
H308 C305 0.929 1_556 S
S309 N310 1.613 . S
S309 N311 1.610 . S
N310 S309 1.613 . S
N310 C313 1.350 . S
N311 S309 1.610 . S
N311 C312 1.351 . S
C312 C306 1.428 . S
C312 N311 1.351 . S
C312 C313 1.434 . S
C313 C304 1.429 . S
C313 N310 1.350 . S
C313 C312 1.434 . S
C314 C315 1.369 . S
C314 C316 1.419 . S
C314 H318 0.930 . S
C315 C314 1.369 . S
C315 C324 1.429 . S
C316 C314 1.419 . S
C316 C317 1.363 . S
C316 H319 0.929 . S
C317 C316 1.363 . S
C317 C323 1.428 . S
H318 C314 0.930 . S
H319 C316 0.929 . S
S320 N321 1.613 . S
S320 N322 1.610 . S
N321 S320 1.613 . S
N321 C324 1.350 . S
N322 S320 1.610 . S
N322 C323 1.351 . S
C323 C317 1.428 . S
C323 N322 1.351 . S
C323 C324 1.434 . S
C324 C315 1.429 . S
C324 N321 1.350 . S
C324 C323 1.434 . S
C325 C326 1.369 . S
C325 C327 1.419 1_554 S
C325 H329 0.930 1_554 S
C326 C325 1.369 . S
C326 C335 1.429 . S
C327 C325 1.419 1_556 S
C327 C328 1.363 1_556 S
C327 H330 0.929 . S
C328 C327 1.363 1_554 S
C328 C334 1.428 . S
H329 C325 0.930 1_556 S
H330 C327 0.929 . S
S331 N332 1.613 . S
S331 N333 1.610 . S
N332 S331 1.613 . S
N332 C335 1.350 . S
N333 S331 1.610 . S
N333 C334 1.351 . S
C334 C328 1.428 . S
C334 N333 1.351 . S
C334 C335 1.434 . S
C335 C326 1.429 . S
C335 N332 1.350 . S
C335 C334 1.434 . S
C336 C337 1.369 . S
C336 C338 1.419 . S
C336 H340 0.930 . S
C337 C336 1.369 . S
C337 C346 1.429 . S
C338 C336 1.419 . S
C338 C339 1.363 . S
C338 H341 0.929 . S
C339 C338 1.363 . S
C339 C345 1.428 . S
H340 C336 0.930 . S
H341 C338 0.929 . S
S342 N343 1.613 . S
S342 N344 1.610 . S
N343 S342 1.613 . S
N343 C346 1.350 . S
N344 S342 1.610 . S
N344 C345 1.351 . S
C345 C339 1.428 . S
C345 N344 1.351 . S
C345 C346 1.434 . S
C346 C337 1.429 . S
C346 N343 1.350 . S
C346 C345 1.434 . S
C347 C348 1.369 . S
C347 C349 1.419 . S
C347 H351 0.930 1_554 S
C348 C347 1.369 . S
C348 C357 1.429 . S
C349 C347 1.419 . S
C349 C350 1.363 . S
C349 H352 0.929 1_554 S
C350 C349 1.363 . S
C350 C356 1.428 . S
H351 C347 0.930 1_556 S
H352 C349 0.929 1_556 S
S353 N354 1.613 . S
S353 N355 1.610 . S
N354 S353 1.613 . S
N354 C357 1.350 . S
N355 S353 1.610 . S
N355 C356 1.351 . S
C356 C350 1.428 . S
C356 N355 1.351 . S
C356 C357 1.434 . S
C357 C348 1.429 . S
C357 N354 1.350 . S
C357 C356 1.434 . S
C358 C359 1.369 . S
C358 C360 1.419 . S
C358 H362 0.930 . S
C359 C358 1.369 . S
C359 C368 1.429 . S
C360 C358 1.419 . S
C360 C361 1.363 . S
C360 H363 0.929 . S
C361 C360 1.363 . S
C361 C367 1.428 . S
H362 C358 0.930 . S
H363 C360 0.929 . S
S364 N365 1.613 . S
S364 N366 1.610 . S
N365 S364 1.613 . S
N365 C368 1.350 . S
N366 S364 1.610 . S
N366 C367 1.351 . S
C367 C361 1.428 . S
C367 N366 1.351 . S
C367 C368 1.434 . S
C368 C359 1.429 . S
C368 N365 1.350 . S
C368 C367 1.434 . S
C205 C20 1.365 . S
C207 C122 1.365 . S
C216 C156 1.515 . S
C218 C54 1.494 . S
C227 C190 1.384 . S
C229 C88 1.383 . S
C238 C9 1.421 . S
C240 C5 1.507 . S
C249 C39 1.515 . S
C251 C43 1.404 . S
C260 C73 1.524 . S
C262 C77 1.389 . S
C271 C111 1.405 . S
C273 C107 1.516 . S
C282 C141 1.500 . S
C284 C145 1.402 . S
C293 C175 1.514 . S
C295 C179 1.412 . S
C304 C2 1.179 . S
C306 C101 1.205 . S
C315 C67 1.260 . S
C317 C104 1.218 . S
C326 C70 1.204 . S
C328 C138 1.222 . S
C337 C135 1.092 . S
C339 C172 1.078 . S
C348 C33 1.066 . S
C350 C169 1.052 . S
C359 C36 1.336 . S
C361 C203 1.434 . S
