# Generated by pormake.
# Topology upa, (4)-cn, num edge types: 1
# Building blocks:
#     Node 0, Type 0, BuildingBlock: QUQFOY_clean_sbu_3, # of connection points: 4
#     Node 1, Type 0, BuildingBlock: QUQFOY_clean_sbu_3, # of connection points: 4
#     Node 2, Type 0, BuildingBlock: QUQFOY_clean_sbu_3, # of connection points: 4
#     Node 3, Type 0, BuildingBlock: QUQFOY_clean_sbu_3, # of connection points: 4
#     Node 4, Type 0, BuildingBlock: QUQFOY_clean_sbu_3, # of connection points: 4
#     Node 5, Type 0, BuildingBlock: QUQFOY_clean_sbu_3, # of connection points: 4
#     Node 6, Type 0, BuildingBlock: QUQFOY_clean_sbu_3, # of connection points: 4
#     Node 7, Type 0, BuildingBlock: QUQFOY_clean_sbu_3, # of connection points: 4
#     Edge 8, Type (0, 0), BuildingBlock: TEMPAE_clean_linker_10, # of connection points: 2
#     Edge 9, Type (0, 0), BuildingBlock: TEMPAE_clean_linker_10, # of connection points: 2
#     Edge 10, Type (0, 0), BuildingBlock: TEMPAE_clean_linker_10, # of connection points: 2
#     Edge 11, Type (0, 0), BuildingBlock: TEMPAE_clean_linker_10, # of connection points: 2
#     Edge 12, Type (0, 0), BuildingBlock: TEMPAE_clean_linker_10, # of connection points: 2
#     Edge 13, Type (0, 0), BuildingBlock: TEMPAE_clean_linker_10, # of connection points: 2
#     Edge 14, Type (0, 0), BuildingBlock: TEMPAE_clean_linker_10, # of connection points: 2
#     Edge 15, Type (0, 0), BuildingBlock: TEMPAE_clean_linker_10, # of connection points: 2
#     Edge 16, Type (0, 0), BuildingBlock: TEMPAE_clean_linker_10, # of connection points: 2
#     Edge 17, Type (0, 0), BuildingBlock: TEMPAE_clean_linker_10, # of connection points: 2
#     Edge 18, Type (0, 0), BuildingBlock: TEMPAE_clean_linker_10, # of connection points: 2
#     Edge 19, Type (0, 0), BuildingBlock: TEMPAE_clean_linker_10, # of connection points: 2
#     Edge 20, Type (0, 0), BuildingBlock: TEMPAE_clean_linker_10, # of connection points: 2
#     Edge 21, Type (0, 0), BuildingBlock: TEMPAE_clean_linker_10, # of connection points: 2
#     Edge 22, Type (0, 0), BuildingBlock: TEMPAE_clean_linker_10, # of connection points: 2
#     Edge 23, Type (0, 0), BuildingBlock: TEMPAE_clean_linker_10, # of connection points: 2
# Relax obj value: 0.208
# Max RMSD: 0.129
# Mean RMSD: 0.129
data_MOF--net-upa--node1-QUQFOY_clean_sbu_3--edge1-TEMPAE_clean_linker_10
_symmetry_space_group_name_H-M    P1
_symmetry_Int_Tables_number       1
_symmetry_cell_setting            triclinic
loop_
_symmetry_equiv_pos_as_xyz
'x, y, z'
_cell_length_a     27.014207
_cell_length_b     26.965345
_cell_length_c     45.850071
_cell_angle_alpha  90.024512
_cell_angle_beta   89.981342
_cell_angle_gamma 90.021997
loop_
_atom_site_label
_atom_site_type_symbol
_atom_site_fract_x
_atom_site_fract_y
_atom_site_fract_z
_atom_type_partial_charge
C0 C 0.0796 0.28505 0.31466 0.0
O1 O 0.07617 0.29683 0.34141 0.0
Cd2 Cd 0.12473 0.26252 0.37992 0.0
O3 O 0.11538 0.25798 0.30576 0.0
Cd4 Cd 0.19038 0.21696 0.32739 0.0
C5 C 0.10504 0.14144 0.35798 0.0
O6 O 0.21044 0.26977 0.36912 0.0
O7 O 0.23576 0.19414 0.37092 0.0
O8 O 0.24962 0.24652 0.29077 0.0
C9 C 0.23487 0.23673 0.38258 0.0
O10 O 0.09799 0.17598 0.37653 0.0
C11 C 0.2675 0.20385 0.2854 0.0
O12 O 0.13537 0.14709 0.33691 0.0
O13 O 0.2474 0.16726 0.29823 0.0
C14 C 0.19722 0.57796 0.81533 0.0
O15 O 0.18501 0.57458 0.84202 0.0
Cd16 Cd 0.21794 0.62364 0.88085 0.0
O17 O 0.22419 0.61392 0.80654 0.0
Cd18 Cd 0.26461 0.68934 0.82816 0.0
C19 C 0.33929 0.60422 0.85992 0.0
O20 O 0.21128 0.70936 0.86964 0.0
O21 O 0.28622 0.73637 0.87128 0.0
O22 O 0.23606 0.74826 0.79107 0.0
C23 C 0.24383 0.73456 0.88305 0.0
O24 O 0.30439 0.59708 0.87819 0.0
C25 C 0.27889 0.76577 0.78583 0.0
O26 O 0.3341 0.63447 0.83876 0.0
O27 O 0.31506 0.74558 0.79896 0.0
C28 C 0.90722 0.69539 0.31439 0.0
O29 O 0.91073 0.68296 0.34103 0.0
Cd30 Cd 0.86376 0.7184 0.37992 0.0
O31 O 0.8719 0.72338 0.30589 0.0
Cd32 Cd 0.79781 0.76525 0.32804 0.0
C33 C 0.88528 0.83912 0.35777 0.0
O34 O 0.77753 0.7134 0.37019 0.0
O35 O 0.7544 0.78978 0.37186 0.0
O36 O 0.73743 0.736 0.292 0.0
C37 C 0.75445 0.74736 0.38373 0.0
O38 O 0.89218 0.80435 0.37617 0.0
C39 C 0.7198 0.7788 0.2867 0.0
O40 O 0.85423 0.83423 0.33701 0.0
O41 O 0.74053 0.8153 0.29928 0.0
C42 C 0.78591 0.41549 0.81649 0.0
O43 O 0.79746 0.41839 0.8433 0.0
Cd44 Cd 0.76406 0.36807 0.88138 0.0
O45 O 0.75937 0.37956 0.80721 0.0
Cd46 Cd 0.71884 0.30356 0.82798 0.0
C47 C 0.64297 0.38732 0.85997 0.0
O48 O 0.77179 0.28268 0.8694 0.0
O49 O 0.69675 0.25589 0.87081 0.0
O50 O 0.74853 0.24547 0.79074 0.0
C51 C 0.73918 0.2572 0.88255 0.0
O52 O 0.67745 0.39412 0.87854 0.0
C53 C 0.70592 0.22788 0.78499 0.0
O54 O 0.6488 0.35774 0.83853 0.0
O55 O 0.66933 0.24767 0.79794 0.0
C56 C 0.57966 0.19779 0.16625 0.0
O57 O 0.57624 0.18604 0.1395 0.0
Cd58 Cd 0.62452 0.22079 0.10095 0.0
O59 O 0.61535 0.22499 0.17515 0.0
Cd60 Cd 0.69025 0.26637 0.15361 0.0
C61 C 0.60453 0.34167 0.12325 0.0
O62 O 0.71028 0.21419 0.1116 0.0
O63 O 0.73554 0.28989 0.1102 0.0
O64 O 0.74962 0.23651 0.19002 0.0
C65 C 0.73454 0.24753 0.09826 0.0
O66 O 0.5975 0.30717 0.10468 0.0
C67 C 0.76741 0.27916 0.19557 0.0
O68 O 0.63498 0.3361 0.14425 0.0
O69 O 0.7472 0.31587 0.18294 0.0
C70 C 0.28929 0.07796 0.6664 0.0
O71 O 0.30167 0.07461 0.63974 0.0
Cd72 Cd 0.26826 0.12323 0.60093 0.0
O73 O 0.26205 0.11376 0.67513 0.0
Cd74 Cd 0.22144 0.18899 0.65347 0.0
C75 C 0.14703 0.10328 0.62208 0.0
O76 O 0.27456 0.20909 0.61193 0.0
O77 O 0.19929 0.23512 0.61013 0.0
O78 O 0.25017 0.24824 0.69037 0.0
C79 C 0.24175 0.23372 0.59842 0.0
O80 O 0.18194 0.09617 0.60382 0.0
C81 C 0.20737 0.26574 0.69568 0.0
O82 O 0.15209 0.13377 0.64315 0.0
O83 O 0.17113 0.24543 0.68266 0.0
C84 C 0.40728 0.78681 0.16807 0.0
O85 O 0.41075 0.79944 0.14147 0.0
Cd86 Cd 0.36334 0.76466 0.10257 0.0
O87 O 0.37185 0.75891 0.17656 0.0
Cd88 Cd 0.29755 0.7175 0.1543 0.0
C89 C 0.38455 0.64365 0.12413 0.0
O90 O 0.27719 0.77017 0.11254 0.0
O91 O 0.25395 0.69385 0.11034 0.0
O92 O 0.23743 0.74627 0.19064 0.0
C93 C 0.25389 0.73655 0.09883 0.0
O94 O 0.39144 0.67855 0.10581 0.0
C95 C 0.21966 0.70343 0.19571 0.0
O96 O 0.35368 0.64848 0.14499 0.0
O97 O 0.24018 0.6671 0.18285 0.0
C98 C 0.69981 0.91549 0.66534 0.0
O99 O 0.68861 0.91846 0.63849 0.0
Cd100 Cd 0.72187 0.86791 0.60043 0.0
O101 O 0.72606 0.87944 0.67471 0.0
Cd102 Cd 0.76653 0.80336 0.65398 0.0
C103 C 0.84294 0.88668 0.62193 0.0
O104 O 0.71365 0.7826 0.61247 0.0
O105 O 0.7884 0.75504 0.61135 0.0
O106 O 0.73678 0.74541 0.69127 0.0
C107 C 0.7461 0.75669 0.59947 0.0
O108 O 0.8086 0.89354 0.60328 0.0
C109 C 0.77939 0.72789 0.69704 0.0
O110 O 0.83682 0.85726 0.6434 0.0
O111 O 0.81598 0.74769 0.68408 0.0
C112 C 0.08375 0.05569 0.34099 0.0
C113 C 0.07488 0.09565 0.35988 0.0
C114 C 0.05325 0.01355 0.34134 0.0
C115 C 0.01272 0.01154 0.36089 0.0
C116 C 0.00401 0.05134 0.38032 0.0
C117 C 0.03531 0.0928 0.37968 0.0
C118 C 0.06397 0.97148 0.32052 0.0
C119 C 0.96103 0.05056 0.4014 0.0
C120 C 0.90656 0.92528 0.34156 0.0
C121 C 0.9162 0.8844 0.35959 0.0
C122 C 0.93737 0.9672 0.34203 0.0
C123 C 0.97901 0.96802 0.36076 0.0
C124 C 0.98866 0.92715 0.37923 0.0
C125 C 0.95702 0.88595 0.37853 0.0
C126 C 0.92565 0.01041 0.32226 0.0
C127 C 0.03289 0.9266 0.39937 0.0
H128 H 0.11429 0.05748 0.32568 0.0
H129 H 0.028 0.12352 0.39431 0.0
H130 H 0.06855 0.93633 0.33279 0.0
H131 H 0.03226 0.96637 0.30544 0.0
H132 H 0.09789 0.9781 0.30738 0.0
H133 H 0.95989 0.08413 0.41544 0.0
H134 H 0.92569 0.04805 0.38915 0.0
H135 H 0.96331 0.01735 0.4156 0.0
H136 H 0.87507 0.92447 0.32693 0.0
H137 H 0.96495 0.85447 0.39245 0.0
H138 H 0.95663 0.01648 0.30677 0.0
H139 H 0.92159 0.04482 0.33532 0.0
H140 H 0.89113 0.00449 0.30956 0.0
H141 H 0.06748 0.92997 0.38646 0.0
H142 H 0.03487 0.89214 0.41259 0.0
H143 H 0.03145 0.95885 0.41438 0.0
C144 C 0.42589 0.5842 0.84431 0.0
C145 C 0.38502 0.57419 0.86224 0.0
C146 C 0.46807 0.55386 0.84498 0.0
C147 C 0.46916 0.5123 0.86383 0.0
C148 C 0.42841 0.50243 0.88231 0.0
C149 C 0.38693 0.53363 0.8814 0.0
C150 C 0.51117 0.56585 0.82522 0.0
C151 C 0.42816 0.45827 0.90258 0.0
C152 C 0.55694 0.40794 0.84358 0.0
C153 C 0.59702 0.41704 0.86227 0.0
C154 C 0.51468 0.43817 0.84422 0.0
C155 C 0.51267 0.47866 0.86385 0.0
C156 C 0.55257 0.48753 0.88313 0.0
C157 C 0.59416 0.45649 0.8822 0.0
C158 C 0.4725 0.42725 0.82357 0.0
C159 C 0.55181 0.53051 0.90426 0.0
H160 H 0.42481 0.61553 0.82952 0.0
H161 H 0.35547 0.52543 0.89526 0.0
H162 H 0.54555 0.56983 0.83824 0.0
H163 H 0.51718 0.53497 0.80962 0.0
H164 H 0.50522 0.60054 0.81263 0.0
H165 H 0.39398 0.45641 0.91602 0.0
H166 H 0.43123 0.42355 0.88971 0.0
H167 H 0.46061 0.45977 0.91736 0.0
H168 H 0.55874 0.37748 0.82819 0.0
H169 H 0.62497 0.46396 0.89669 0.0
H170 H 0.46723 0.45894 0.80847 0.0
H171 H 0.43753 0.42263 0.83597 0.0
H172 H 0.47904 0.39323 0.81045 0.0
H173 H 0.54934 0.56595 0.89206 0.0
H174 H 0.58532 0.5316 0.91829 0.0
H175 H 0.51866 0.52819 0.91848 0.0
C176 C 0.58347 0.42757 0.14006 0.0
C177 C 0.57422 0.38734 0.12144 0.0
C178 C 0.55291 0.46965 0.13976 0.0
C179 C 0.51192 0.47131 0.12055 0.0
C180 C 0.50279 0.43121 0.1014 0.0
C181 C 0.53417 0.38982 0.10198 0.0
C182 C 0.56408 0.51205 0.16026 0.0
C183 C 0.45929 0.43158 0.08071 0.0
C184 C 0.40615 0.55763 0.14041 0.0
C185 C 0.41534 0.59832 0.12214 0.0
C186 C 0.43697 0.51575 0.13986 0.0
C187 C 0.47815 0.51476 0.12076 0.0
C188 C 0.4873 0.55538 0.10201 0.0
C189 C 0.45566 0.59656 0.10283 0.0
C190 C 0.4258 0.4728 0.15994 0.0
C191 C 0.531 0.55572 0.08145 0.0
H192 H 0.61439 0.42606 0.1551 0.0
H193 H 0.52656 0.35889 0.08756 0.0
H194 H 0.56834 0.54703 0.14777 0.0
H195 H 0.53274 0.51734 0.17559 0.0
H196 H 0.59832 0.50569 0.17314 0.0
H197 H 0.45785 0.3978 0.06685 0.0
H198 H 0.42426 0.43419 0.09326 0.0
H199 H 0.46116 0.46458 0.06632 0.0
H200 H 0.37505 0.55859 0.15534 0.0
H201 H 0.46324 0.62787 0.0887 0.0
H202 H 0.45714 0.46705 0.17519 0.0
H203 H 0.42151 0.43818 0.14709 0.0
H204 H 0.39156 0.47881 0.1729 0.0
H205 H 0.56592 0.55265 0.09406 0.0
H206 H 0.53258 0.58996 0.06803 0.0
H207 H 0.52924 0.52322 0.06665 0.0
C208 C 0.06032 0.08332 0.63754 0.0
C209 C 0.10141 0.07303 0.61984 0.0
C210 C 0.01816 0.05292 0.63687 0.0
C211 C 0.01731 0.01101 0.61826 0.0
C212 C 0.05832 0.00079 0.60005 0.0
C213 C 0.09977 0.03206 0.60094 0.0
C214 C 0.97479 0.06528 0.65634 0.0
C215 C 0.05884 0.95625 0.58007 0.0
C216 C 0.92885 0.90724 0.63861 0.0
C217 C 0.88908 0.91615 0.61966 0.0
C218 C 0.97125 0.93732 0.63802 0.0
C219 C 0.97371 0.97745 0.61817 0.0
C220 C 0.93416 0.98609 0.59863 0.0
C221 C 0.89242 0.95521 0.59952 0.0
C222 C 0.01305 0.92665 0.65896 0.0
C223 C 0.93541 0.02868 0.57725 0.0
H224 H 0.0612 0.11496 0.65212 0.0
H225 H 0.13141 0.02364 0.58727 0.0
H226 H 0.94063 0.06916 0.64311 0.0
H227 H 0.96842 0.03463 0.67204 0.0
H228 H 0.98065 0.10013 0.66881 0.0
H229 H 0.09327 0.95404 0.56687 0.0
H230 H 0.0554 0.92177 0.59312 0.0
H231 H 0.02669 0.95754 0.56505 0.0
H232 H 0.92669 0.87707 0.65417 0.0
H233 H 0.86186 0.96253 0.58483 0.0
H234 H 0.01815 0.95856 0.67394 0.0
H235 H 0.04823 0.92179 0.64679 0.0
H236 H 0.00622 0.89284 0.6722 0.0
H237 H 0.93777 0.06433 0.58926 0.0
H238 H 0.90216 0.02958 0.56301 0.0
H239 H 0.96881 0.02603 0.56325 0.0
C240 C 0.25222 0.29029 0.42607 0.0
C241 C 0.24875 0.243 0.41353 0.0
C242 C 0.25903 0.29595 0.45629 0.0
C243 C 0.2608 0.25331 0.47428 0.0
C244 C 0.25973 0.20554 0.46148 0.0
C245 C 0.25445 0.20101 0.43124 0.0
C246 C 0.26187 0.34745 0.46905 0.0
C247 C 0.26055 0.15905 0.47989 0.0
C248 C 0.29492 0.24838 0.55444 0.0
C249 C 0.24791 0.24721 0.56739 0.0
C250 C 0.30012 0.25443 0.52415 0.0
C251 C 0.25725 0.25785 0.5065 0.0
C252 C 0.20989 0.25927 0.51969 0.0
C253 C 0.20588 0.25464 0.55 0.0
C254 C 0.35129 0.25461 0.51093 0.0
C255 C 0.16313 0.26197 0.50167 0.0
H256 H 0.24841 0.32285 0.41239 0.0
H257 H 0.2519 0.16432 0.42169 0.0
H258 H 0.22622 0.35671 0.47974 0.0
H259 H 0.29121 0.34951 0.48595 0.0
H260 H 0.26943 0.37585 0.45208 0.0
H261 H 0.26211 0.1248 0.46644 0.0
H262 H 0.29288 0.15937 0.49477 0.0
H263 H 0.22675 0.15757 0.49363 0.0
H264 H 0.32755 0.24325 0.56787 0.0
H265 H 0.16941 0.25395 0.55985 0.0
H266 H 0.35428 0.28352 0.4938 0.0
H267 H 0.35859 0.21827 0.50044 0.0
H268 H 0.38037 0.2612 0.52762 0.0
H269 H 0.16467 0.29392 0.4865 0.0
H270 H 0.1294 0.26557 0.51538 0.0
H271 H 0.15962 0.22787 0.48825 0.0
C272 C 0.19101 0.74661 0.92746 0.0
C273 C 0.23762 0.7484 0.91404 0.0
C274 C 0.18631 0.75248 0.9578 0.0
C275 C 0.22937 0.7589 0.97501 0.0
C276 C 0.27609 0.76369 0.96132 0.0
C277 C 0.27952 0.75904 0.93098 0.0
C278 C 0.13568 0.74898 0.97155 0.0
C279 C 0.32308 0.76978 0.97884 0.0
C280 C 0.2336 0.78993 0.05572 0.0
C281 C 0.24018 0.74268 0.06786 0.0
C282 C 0.2262 0.79578 0.02557 0.0
C283 C 0.22714 0.75353 0.00722 0.0
C284 C 0.23175 0.70566 0.0196 0.0
C285 C 0.23745 0.70083 0.04979 0.0
C286 C 0.21957 0.84723 0.01325 0.0
C287 C 0.23399 0.65964 0.00081 0.0
H288 H 0.15841 0.73905 0.91441 0.0
H289 H 0.31567 0.76081 0.92076 0.0
H290 H 0.13122 0.71212 0.98196 0.0
H291 H 0.13123 0.77747 0.98883 0.0
H292 H 0.1057 0.75366 0.9552 0.0
H293 H 0.35593 0.77639 0.96478 0.0
H294 H 0.31953 0.80115 -0.00568 0.0
H295 H 0.32973 0.73577 -0.00811 0.0
H296 H 0.23518 0.82233 0.0697 0.0
H297 H 0.24253 0.66418 0.05903 0.0
H298 H 0.18978 0.84758 -0.00341 0.0
H299 H 0.25426 0.85918 0.00238 0.0
H300 H 0.21045 0.87468 0.03051 0.0
H301 H 0.20121 0.65769 0.98631 0.0
H302 H 0.23559 0.62508 0.01396 0.0
H303 H 0.2673 0.66115 0.98666 0.0
C304 C 0.78186 0.73096 0.55178 0.0
C305 C 0.73993 0.74166 0.56868 0.0
C306 C 0.77829 0.72512 0.52151 0.0
C307 C 0.73142 0.72877 0.50789 0.0
C308 C 0.6884 0.73526 0.52512 0.0
C309 C 0.69321 0.74234 0.55536 0.0
C310 C 0.82524 0.71904 0.50394 0.0
C311 C 0.63764 0.73756 0.51147 0.0
C312 C 0.7381 0.78444 0.43243 0.0
C313 C 0.74114 0.74204 0.41482 0.0
C314 C 0.73279 0.78052 0.46269 0.0
C315 C 0.72892 0.73302 0.47563 0.0
C316 C 0.72833 0.69016 0.45777 0.0
C317 C 0.7353 0.69512 0.42752 0.0
C318 C 0.73462 0.82719 0.48095 0.0
C319 C 0.72249 0.63904 0.4707 0.0
H320 H 0.81808 0.73007 0.56192 0.0
H321 H 0.6606 0.74995 0.5684 0.0
H322 H 0.82197 0.68713 0.48882 0.0
H323 H 0.83142 0.7527 0.49049 0.0
H324 H 0.85825 0.71329 0.51799 0.0
H325 H 0.60783 0.73309 0.52796 0.0
H326 H 0.63264 0.77396 0.5006 0.0
H327 H 0.63345 0.70838 0.49457 0.0
H328 H 0.7426 0.82085 0.42276 0.0
H329 H 0.73712 0.66228 0.41391 0.0
H330 H 0.76805 0.82656 0.49502 0.0
H331 H 0.70192 0.82922 0.4955 0.0
H332 H 0.73575 0.86132 0.4674 0.0
H333 H 0.75742 0.62795 0.48159 0.0
H334 H 0.71359 0.61089 0.4538 0.0
H335 H 0.69285 0.63883 0.48747 0.0
C336 C 0.7926 0.24054 0.92612 0.0
C337 C 0.74548 0.2425 0.91336 0.0
C338 C 0.79803 0.23334 0.95631 0.0
C339 C 0.7553 0.2296 0.97406 0.0
C340 C 0.70781 0.22894 0.96103 0.0
C341 C 0.70356 0.23469 0.9308 0.0
C342 C 0.84931 0.23236 0.96933 0.0
C343 C 0.66119 0.22594 0.97918 0.0
C344 C 0.75094 0.19499 0.0542 0.0
C345 C 0.74801 0.24197 0.0672 0.0
C346 C 0.75731 0.1901 0.0239 0.0
C347 C 0.75918 0.23321 0.00631 0.0
C348 C 0.75865 0.28064 0.01955 0.0
C349 C 0.7538 0.28438 0.04985 0.0
C350 C 0.7596 0.13893 0.01064 0.0
C351 C 0.7596 0.32762 0.00158 0.0
H352 H 0.82514 0.24595 0.91265 0.0
H353 H 0.667 0.236 0.92108 0.0
H354 H 0.85703 0.26832 0.98016 0.0
H355 H 0.85221 0.20291 0.98614 0.0
H356 H 0.87818 0.22604 0.95247 0.0
H357 H 0.62733 0.22289 0.96555 0.0
H358 H 0.66269 0.19356 -0.00597 0.0
H359 H 0.65799 0.25967 -0.00706 0.0
H360 H 0.74705 0.1621 0.06759 0.0
H361 H 0.75168 0.32084 0.05975 0.0
H362 H 0.78868 0.13715 -0.00643 0.0
H363 H 0.72372 0.13019 7e-05 0.0
H364 H 0.76721 0.11004 0.02731 0.0
H365 H 0.79182 0.32754 0.9866 0.0
H366 H 0.76146 0.3615 0.01533 0.0
H367 H 0.72571 0.32964 0.98794 0.0
C368 C 0.49346 0.16665 0.17425 0.0
C369 C 0.53721 0.18683 0.18587 0.0
C370 C 0.4496 0.16509 0.19062 0.0
C371 C 0.4495 0.18338 0.21953 0.0
C372 C 0.49423 0.20061 0.2321 0.0
C373 C 0.53751 0.20242 0.21507 0.0
C374 C 0.4027 0.14667 0.17631 0.0
C375 C 0.49584 0.21945 0.2631 0.0
C376 C 0.32969 0.23665 0.24979 0.0
C377 C 0.31214 0.19744 0.26698 0.0
C378 C 0.37403 0.23227 0.23399 0.0
C379 C 0.40192 0.18786 0.23578 0.0
C380 C 0.38418 0.14798 0.25291 0.0
C381 C 0.3393 0.1531 0.26811 0.0
C382 C 0.39122 0.27535 0.21554 0.0
C383 C 0.4131 0.1003 0.25564 0.0
H384 H 0.49263 0.15438 0.15174 0.0
H385 H 0.57106 0.21787 0.22433 0.0
H386 H 0.38422 0.11864 0.19027 0.0
H387 H 0.37651 0.17803 0.1736 0.0
H388 H 0.40975 0.12998 0.15455 0.0
H389 H 0.53429 0.22645 0.27064 0.0
H390 H 0.47465 0.25458 0.26471 0.0
H391 H 0.47814 0.19239 0.27805 0.0
H392 H 0.30889 0.27098 0.24882 0.0
H393 H 0.3262 0.12277 0.28157 0.0
H394 H 0.3965 0.26314 0.19263 0.0
H395 H 0.42753 0.28892 0.22355 0.0
H396 H 0.36458 0.30672 0.21581 0.0
H397 H 0.41919 0.08373 0.23379 0.0
H398 H 0.394 0.07262 0.26962 0.0
H399 H 0.4501 0.10809 0.26509 0.0
C400 C 0.33043 0.83704 0.76851 0.0
C401 C 0.28594 0.81019 0.76726 0.0
C402 C 0.33613 0.88182 0.75321 0.0
C403 C 0.29668 0.89979 0.73588 0.0
C404 C 0.25216 0.87216 0.73394 0.0
C405 C 0.24719 0.82791 0.74983 0.0
C406 C 0.38393 0.91045 0.7561 0.0
C407 C 0.20954 0.88958 0.71526 0.0
C408 C 0.28354 0.03571 0.71515 0.0
C409 C 0.29953 0.0353 0.68603 0.0
C410 C 0.28472 0.99234 0.73216 0.0
C411 C 0.3017 0.94739 0.71965 0.0
C412 C 0.32036 0.94736 0.69082 0.0
C413 C 0.31943 0.99132 0.67448 0.0
C414 C 0.26552 0.99409 0.76306 0.0
C415 C 0.33854 0.90022 0.67658 0.0
H416 H 0.36042 0.82381 0.78214 0.0
H417 H 0.21275 0.80735 0.74876 0.0
H418 H 0.4007 0.91646 0.7343 0.0
H419 H 0.37637 0.94756 0.76556 0.0
H420 H 0.41129 0.89111 0.77015 0.0
H421 H 0.17806 0.86306 0.71538 0.0
H422 H 0.1961 0.92604 0.72319 0.0
H423 H 0.22209 0.89476 0.69241 0.0
H424 H 0.2683 0.06945 0.72435 0.0
H425 H 0.33198 0.9904 0.65203 0.0
H426 H 0.29223 0.97625 0.77814 0.0
H427 H 0.23031 0.97304 0.76451 0.0
H428 H 0.25865 0.03266 0.77057 0.0
H429 H 0.36616 0.8815 0.69066 0.0
H430 H 0.35553 0.90716 0.6549 0.0
H431 H 0.30705 0.87423 0.67371 0.0
C432 C 0.65723 0.74664 0.25112 0.0
C433 C 0.67483 0.78546 0.26862 0.0
C434 C 0.61275 0.75131 0.23551 0.0
C435 C 0.5847 0.79555 0.23785 0.0
C436 C 0.60241 0.83498 0.25536 0.0
C437 C 0.64748 0.82963 0.27033 0.0
C438 C 0.59561 0.70873 0.21663 0.0
C439 C 0.57329 0.88243 0.25873 0.0
C440 C 0.49319 0.81837 0.17655 0.0
C441 C 0.44953 0.79753 0.18789 0.0
C442 C 0.53698 0.81965 0.19297 0.0
C443 C 0.53711 0.80041 0.22166 0.0
C444 C 0.49242 0.78256 0.234 0.0
C445 C 0.44921 0.78103 0.21691 0.0
C446 C 0.58384 0.83874 0.17891 0.0
C447 C 0.49081 0.76276 0.26478 0.0
H448 H 0.67818 0.71244 0.24971 0.0
H449 H 0.66061 0.85963 0.28404 0.0
H450 H 0.55934 0.69484 0.22452 0.0
H451 H 0.59028 0.72159 0.19386 0.0
H452 H 0.62233 0.67741 0.21655 0.0
H453 H 0.59224 0.90964 0.27309 0.0
H454 H 0.56721 0.89979 0.2371 0.0
H455 H 0.53628 0.87414 0.26804 0.0
H456 H 0.49403 0.83136 0.15419 0.0
H457 H 0.41573 0.76506 0.22595 0.0
H458 H 0.61018 0.80758 0.17585 0.0
H459 H 0.60216 0.86639 0.19319 0.0
H460 H 0.57676 0.85607 0.15733 0.0
H461 H 0.51198 0.72757 0.26597 0.0
H462 H 0.45236 0.75553 0.27225 0.0
H463 H 0.50852 0.78933 0.28003 0.0
C464 C 0.73929 0.16575 0.74947 0.0
C465 C 0.69959 0.18374 0.76608 0.0
C466 C 0.73499 0.12161 0.73339 0.0
C467 C 0.69012 0.0944 0.73427 0.0
C468 C 0.64968 0.11271 0.75068 0.0
C469 C 0.65479 0.15734 0.76622 0.0
C470 C 0.77871 0.10379 0.71573 0.0
C471 C 0.60143 0.08457 0.75237 0.0
C472 C 0.67073 0.00275 0.67247 0.0
C473 C 0.68918 0.95858 0.68458 0.0
C474 C 0.66923 0.04684 0.6887 0.0
C475 C 0.68583 0.04678 0.71796 0.0
C476 C 0.70143 0.00173 0.73093 0.0
C477 C 0.70321 0.95821 0.71404 0.0
C478 C 0.65261 0.09409 0.67398 0.0
C479 C 0.71845 -4e-05 0.76227 0.0
H480 H 0.77398 0.18596 0.74924 0.0
H481 H 0.62403 0.17079 0.77918 0.0
H482 H 0.79129 0.06724 0.72399 0.0
H483 H 0.7677 0.09864 0.69261 0.0
H484 H 0.81037 0.13005 0.71658 0.0
H485 H 0.57323 0.10426 0.76568 0.0
H486 H 0.58625 0.07861 0.73017 0.0
H487 H 0.6079 0.04744 0.76206 0.0
H488 H 0.65974 0.00365 0.64975 0.0
H489 H 0.71733 0.92434 0.72366 0.0
H490 H 0.68454 0.11976 0.67188 0.0
H491 H 0.62416 0.11316 0.68733 0.0
H492 H 0.63716 0.08722 0.65189 0.0
H493 H 0.75362 0.02086 0.76455 0.0
H494 H 0.7246 0.96139 0.76995 0.0
H495 H 0.69078 0.01797 0.77668 0.0
C496 C 0.03748 0.2804 0.26584 0.0
C497 C 0.03711 0.29587 0.29507 0.0
C498 C 0.99423 0.28219 0.2488 0.0
C499 C 0.94945 0.29927 0.2614 0.0
C500 C 0.94948 0.31741 0.29034 0.0
C501 C 0.99331 0.31588 0.30671 0.0
C502 C -0.00409 0.26354 0.21777 0.0
C503 C 0.90252 0.33565 0.30467 0.0
C504 C 0.83926 0.32981 0.21292 0.0
C505 C 0.81209 0.28545 0.21396 0.0
C506 C 0.88416 0.33484 0.2281 0.0
C507 C 0.90191 0.29484 0.24511 0.0
C508 C 0.87401 0.2504 0.24681 0.0
C509 C 0.82966 0.24611 0.23102 0.0
C510 C 0.91308 0.38255 0.22547 0.0
C511 C 0.89121 0.2072 0.26514 0.0
H512 H 0.07107 0.26508 0.25657 0.0
H513 H 0.99243 0.32805 0.32924 0.0
H514 H 0.97474 0.22839 0.21609 0.0
H515 H 0.97824 0.29066 0.20287 0.0
H516 H 0.03439 0.25663 0.21023 0.0
H517 H 0.9095 0.35214 0.3265 0.0
H518 H 0.88409 0.36378 0.29079 0.0
H519 H 0.87632 0.30424 0.30726 0.0
H520 H 0.82614 0.36024 0.19956 0.0
H521 H 0.80886 0.21176 0.23192 0.0
H522 H 0.95012 0.37485 0.21603 0.0
H523 H 0.9191 0.39901 0.24736 0.0
H524 H 0.89402 0.41029 0.21153 0.0
H525 H 0.92754 0.19374 0.25711 0.0
H526 H 0.86458 0.17579 0.26478 0.0
H527 H 0.89644 0.21923 0.28809 0.0
C528 C 0.23935 0.32811 0.7315 0.0
C529 C 0.20043 0.31022 0.71424 0.0
C530 C 0.23445 0.37235 0.74743 0.0
C531 C 0.18982 0.3998 0.74569 0.0
C532 C 0.15021 0.38168 0.72852 0.0
C533 C 0.15586 0.33691 0.71318 0.0
C534 C 0.27725 0.38995 0.76593 0.0
C535 C 0.10228 0.41011 0.72585 0.0
C536 C 0.16747 0.49113 0.8073 0.0
C537 C 0.18703 0.53524 0.79571 0.0
C538 C 0.16653 0.44719 0.79091 0.0
C539 C 0.18482 0.44736 0.76201 0.0
C540 C 0.20148 0.49241 0.74947 0.0
C541 C 0.20268 0.53577 0.76652 0.0
C542 C 0.14872 0.39994 0.80517 0.0
C543 C 0.2203 0.49431 0.71849 0.0
H544 H 0.27386 0.30767 0.73243 0.0
H545 H 0.12574 0.32354 0.69968 0.0
H546 H 0.29043 0.42649 0.75798 0.0
H547 H 0.26499 0.39502 0.78884 0.0
H548 H 0.30884 0.36358 0.76563 0.0
H549 H 0.07484 0.3907 0.71188 0.0
H550 H 0.08573 0.41597 0.74773 0.0
H551 H 0.10961 0.4473 0.71643 0.0
H552 H 0.1552 0.49011 0.8298 0.0
H553 H 0.21766 0.56959 0.75729 0.0
H554 H 0.18033 0.37407 0.80785 0.0
H555 H 0.12096 0.38114 0.7912 0.0
H556 H 0.132 0.40675 0.82695 0.0
H557 H 0.25556 0.4734 0.71686 0.0
H558 H 0.22695 0.53292 0.711 0.0
H559 H 0.19345 0.47639 0.7035 0.0
C560 C 0.1473 0.65247 0.21197 0.0
C561 C 0.17474 0.69658 0.21383 0.0
C562 C 0.10224 0.647 0.22696 0.0
C563 C 0.08464 0.68626 0.24463 0.0
C564 C 0.11279 0.73043 0.24714 0.0
C565 C 0.15727 0.73521 0.23151 0.0
C566 C 0.07301 0.59964 0.22342 0.0
C567 C 0.09576 0.77282 0.26619 0.0
C568 C 0.94918 0.70108 0.26555 0.0
C569 C 0.94938 0.68443 0.29455 0.0
C570 C 0.99241 0.69948 0.24846 0.0
C571 C 0.03698 0.68135 0.26077 0.0
C572 C 0.0367 0.66189 0.28941 0.0
C573 C 0.99289 0.66327 0.30583 0.0
C574 C 0.99096 0.71954 0.21775 0.0
C575 C 0.08343 0.64247 0.30343 0.0
H576 H 0.16033 0.62262 0.19811 0.0
H577 H 0.17829 0.76936 0.23304 0.0
H578 H 0.06675 0.58212 0.24499 0.0
H579 H 0.03608 0.60808 0.21407 0.0
H580 H 0.09196 0.5725 0.20901 0.0
H581 H 0.12258 0.80406 0.26642 0.0
H582 H 0.05956 0.7869 0.25834 0.0
H583 H 0.09033 0.7597 0.28891 0.0
H584 H 0.91581 0.71728 0.25655 0.0
H585 H 0.99363 0.65015 0.32816 0.0
H586 H 0.00863 0.69307 0.20242 0.0
H587 H 0.01223 0.7547 0.21668 0.0
H588 H 0.95254 0.72692 0.21027 0.0
H589 H 0.10172 0.61497 0.28903 0.0
H590 H 0.07619 0.62485 0.32491 0.0
H591 H 0.10986 0.67351 0.30668 0.0
C592 C 0.81501 0.50275 0.80937 0.0
C593 C 0.79645 0.45859 0.79726 0.0
C594 C 0.8164 0.54686 0.79317 0.0
C595 C 0.7996 0.54682 0.76396 0.0
C596 C 0.78389 0.50179 0.75099 0.0
C597 C 0.7822 0.45825 0.76784 0.0
C598 C 0.83313 0.5941 0.80791 0.0
C599 C 0.76666 0.50005 0.71969 0.0
C600 C 0.74611 0.66582 0.7326 0.0
C601 C 0.78576 0.68379 0.71594 0.0
C602 C 0.75044 0.62168 0.74866 0.0
C603 C 0.79528 0.59445 0.74769 0.0
C604 C 0.83566 0.61274 0.73123 0.0
C605 C 0.83053 0.65737 0.71572 0.0
C606 C 0.70679 0.60388 0.76639 0.0
C607 C 0.88387 0.58458 0.72944 0.0
H608 H 0.82616 0.50363 0.83206 0.0
H609 H 0.768 0.42439 0.75822 0.0
H610 H 0.86152 0.61318 0.79451 0.0
H611 H 0.80123 0.61976 0.81008 0.0
H612 H 0.8487 0.58722 0.82996 0.0
H613 H 0.76042 0.46149 0.71198 0.0
H614 H 0.7315 0.52097 0.71749 0.0
H615 H 0.79426 0.51806 0.70522 0.0
H616 H 0.71144 0.68604 0.73289 0.0
H617 H 0.86124 0.67081 0.70271 0.0
H618 H 0.71792 0.5987 0.78949 0.0
H619 H 0.69411 0.56735 0.75813 0.0
H620 H 0.67517 0.63017 0.76563 0.0
H621 H 0.89915 0.5786 0.75161 0.0
H622 H 0.91202 0.60426 0.71609 0.0
H623 H 0.87729 0.54746 0.71974 0.0
loop_
_geom_bond_atom_site_label_1
_geom_bond_atom_site_label_2
_geom_bond_distance
_geom_bond_site_symmetry_2
_ccdc_geom_bond_type
C0 O1 1.306 . S
C0 O3 1.160 . S
O1 C0 1.306 . S
O1 Cd2 2.228 . S
Cd2 O1 2.228 . S
Cd2 O6 2.273 . S
Cd2 O10 2.277 . S
O3 C0 1.160 . S
O3 Cd4 2.203 . S
Cd4 O3 2.203 . S
Cd4 O6 2.411 . S
Cd4 O7 2.333 . S
Cd4 O8 2.352 . S
Cd4 O12 2.277 . S
Cd4 O13 2.356 . S
C5 O10 1.209 . S
C5 O12 1.226 . S
O6 Cd2 2.273 . S
O6 Cd4 2.411 . S
O6 C9 1.320 . S
O7 Cd4 2.333 . S
O7 C9 1.214 . S
O8 Cd4 2.352 . S
O8 C11 1.258 . S
C9 O6 1.320 . S
C9 O7 1.214 . S
O10 Cd2 2.277 . S
O10 C5 1.209 . S
C11 O8 1.258 . S
C11 O13 1.282 . S
O12 Cd4 2.277 . S
O12 C5 1.226 . S
O13 Cd4 2.356 . S
O13 C11 1.282 . S
C14 O15 1.306 . S
C14 O17 1.160 . S
O15 C14 1.306 . S
O15 Cd16 2.228 . S
Cd16 O15 2.228 . S
Cd16 O20 2.273 . S
Cd16 O24 2.277 . S
O17 C14 1.160 . S
O17 Cd18 2.203 . S
Cd18 O17 2.203 . S
Cd18 O20 2.411 . S
Cd18 O21 2.333 . S
Cd18 O22 2.352 . S
Cd18 O26 2.277 . S
Cd18 O27 2.356 . S
C19 O24 1.209 . S
C19 O26 1.226 . S
O20 Cd16 2.273 . S
O20 Cd18 2.411 . S
O20 C23 1.320 . S
O21 Cd18 2.333 . S
O21 C23 1.214 . S
O22 Cd18 2.352 . S
O22 C25 1.258 . S
C23 O20 1.320 . S
C23 O21 1.214 . S
O24 Cd16 2.277 . S
O24 C19 1.209 . S
C25 O22 1.258 . S
C25 O27 1.282 . S
O26 Cd18 2.277 . S
O26 C19 1.226 . S
O27 Cd18 2.356 . S
O27 C25 1.282 . S
C28 O29 1.306 . S
C28 O31 1.160 . S
O29 C28 1.306 . S
O29 Cd30 2.228 . S
Cd30 O29 2.228 . S
Cd30 O34 2.273 . S
Cd30 O38 2.277 . S
O31 C28 1.160 . S
O31 Cd32 2.203 . S
Cd32 O31 2.203 . S
Cd32 O34 2.411 . S
Cd32 O35 2.333 . S
Cd32 O36 2.352 . S
Cd32 O40 2.277 . S
Cd32 O41 2.356 . S
C33 O38 1.209 . S
C33 O40 1.226 . S
O34 Cd30 2.273 . S
O34 Cd32 2.411 . S
O34 C37 1.320 . S
O35 Cd32 2.333 . S
O35 C37 1.214 . S
O36 Cd32 2.352 . S
O36 C39 1.258 . S
C37 O34 1.320 . S
C37 O35 1.214 . S
O38 Cd30 2.277 . S
O38 C33 1.209 . S
C39 O36 1.258 . S
C39 O41 1.282 . S
O40 Cd32 2.277 . S
O40 C33 1.226 . S
O41 Cd32 2.356 . S
O41 C39 1.282 . S
C42 O43 1.306 . S
C42 O45 1.160 . S
O43 C42 1.306 . S
O43 Cd44 2.228 . S
Cd44 O43 2.228 . S
Cd44 O48 2.273 . S
Cd44 O52 2.277 . S
O45 C42 1.160 . S
O45 Cd46 2.203 . S
Cd46 O45 2.203 . S
Cd46 O48 2.411 . S
Cd46 O49 2.333 . S
Cd46 O50 2.352 . S
Cd46 O54 2.277 . S
Cd46 O55 2.356 . S
C47 O52 1.209 . S
C47 O54 1.226 . S
O48 Cd44 2.273 . S
O48 Cd46 2.411 . S
O48 C51 1.320 . S
O49 Cd46 2.333 . S
O49 C51 1.214 . S
O50 Cd46 2.352 . S
O50 C53 1.258 . S
C51 O48 1.320 . S
C51 O49 1.214 . S
O52 Cd44 2.277 . S
O52 C47 1.209 . S
C53 O50 1.258 . S
C53 O55 1.282 . S
O54 Cd46 2.277 . S
O54 C47 1.226 . S
O55 Cd46 2.356 . S
O55 C53 1.282 . S
C56 O57 1.306 . S
C56 O59 1.160 . S
O57 C56 1.306 . S
O57 Cd58 2.228 . S
Cd58 O57 2.228 . S
Cd58 O62 2.273 . S
Cd58 O66 2.277 . S
O59 C56 1.160 . S
O59 Cd60 2.203 . S
Cd60 O59 2.203 . S
Cd60 O62 2.411 . S
Cd60 O63 2.333 . S
Cd60 O64 2.352 . S
Cd60 O68 2.277 . S
Cd60 O69 2.356 . S
C61 O66 1.209 . S
C61 O68 1.226 . S
O62 Cd58 2.273 . S
O62 Cd60 2.411 . S
O62 C65 1.320 . S
O63 Cd60 2.333 . S
O63 C65 1.214 . S
O64 Cd60 2.352 . S
O64 C67 1.258 . S
C65 O62 1.320 . S
C65 O63 1.214 . S
O66 Cd58 2.277 . S
O66 C61 1.209 . S
C67 O64 1.258 . S
C67 O69 1.282 . S
O68 Cd60 2.277 . S
O68 C61 1.226 . S
O69 Cd60 2.356 . S
O69 C67 1.282 . S
C70 O71 1.306 . S
C70 O73 1.160 . S
O71 C70 1.306 . S
O71 Cd72 2.228 . S
Cd72 O71 2.228 . S
Cd72 O76 2.273 . S
Cd72 O80 2.277 . S
O73 C70 1.160 . S
O73 Cd74 2.203 . S
Cd74 O73 2.203 . S
Cd74 O76 2.411 . S
Cd74 O77 2.333 . S
Cd74 O78 2.352 . S
Cd74 O82 2.277 . S
Cd74 O83 2.356 . S
C75 O80 1.209 . S
C75 O82 1.226 . S
O76 Cd72 2.273 . S
O76 Cd74 2.411 . S
O76 C79 1.320 . S
O77 Cd74 2.333 . S
O77 C79 1.214 . S
O78 Cd74 2.352 . S
O78 C81 1.258 . S
C79 O76 1.320 . S
C79 O77 1.214 . S
O80 Cd72 2.277 . S
O80 C75 1.209 . S
C81 O78 1.258 . S
C81 O83 1.282 . S
O82 Cd74 2.277 . S
O82 C75 1.226 . S
O83 Cd74 2.356 . S
O83 C81 1.282 . S
C84 O85 1.306 . S
C84 O87 1.160 . S
O85 C84 1.306 . S
O85 Cd86 2.228 . S
Cd86 O85 2.228 . S
Cd86 O90 2.273 . S
Cd86 O94 2.277 . S
O87 C84 1.160 . S
O87 Cd88 2.203 . S
Cd88 O87 2.203 . S
Cd88 O90 2.411 . S
Cd88 O91 2.333 . S
Cd88 O92 2.352 . S
Cd88 O96 2.277 . S
Cd88 O97 2.356 . S
C89 O94 1.209 . S
C89 O96 1.226 . S
O90 Cd86 2.273 . S
O90 Cd88 2.411 . S
O90 C93 1.320 . S
O91 Cd88 2.333 . S
O91 C93 1.214 . S
O92 Cd88 2.352 . S
O92 C95 1.258 . S
C93 O90 1.320 . S
C93 O91 1.214 . S
O94 Cd86 2.277 . S
O94 C89 1.209 . S
C95 O92 1.258 . S
C95 O97 1.282 . S
O96 Cd88 2.277 . S
O96 C89 1.226 . S
O97 Cd88 2.356 . S
O97 C95 1.282 . S
C98 O99 1.306 . S
C98 O101 1.160 . S
O99 C98 1.306 . S
O99 Cd100 2.228 . S
Cd100 O99 2.228 . S
Cd100 O104 2.273 . S
Cd100 O108 2.277 . S
O101 C98 1.160 . S
O101 Cd102 2.203 . S
Cd102 O101 2.203 . S
Cd102 O104 2.411 . S
Cd102 O105 2.333 . S
Cd102 O106 2.352 . S
Cd102 O110 2.277 . S
Cd102 O111 2.356 . S
C103 O108 1.209 . S
C103 O110 1.226 . S
O104 Cd100 2.273 . S
O104 Cd102 2.411 . S
O104 C107 1.320 . S
O105 Cd102 2.333 . S
O105 C107 1.214 . S
O106 Cd102 2.352 . S
O106 C109 1.258 . S
C107 O104 1.320 . S
C107 O105 1.214 . S
O108 Cd100 2.277 . S
O108 C103 1.209 . S
C109 O106 1.258 . S
C109 O111 1.282 . S
O110 Cd102 2.277 . S
O110 C103 1.226 . S
O111 Cd102 2.356 . S
O111 C109 1.282 . S
C112 C113 1.391 . S
C112 C114 1.394 . S
C112 H128 0.931 . S
C113 C112 1.391 . S
C113 C117 1.376 . S
C114 C112 1.394 . S
C114 C115 1.369 . S
C114 C118 1.531 . S
C115 C114 1.369 . S
C115 C116 1.410 . S
C115 C123 1.503 1_445 S
C116 C115 1.410 . S
C116 C117 1.392 . S
C116 C119 1.511 . S
C117 C113 1.376 . S
C117 C116 1.392 . S
C117 H129 0.929 . S
C118 C114 1.531 . S
C118 H130 0.960 1_545 S
C118 H131 0.962 . S
C118 H132 0.960 . S
C119 C116 1.511 . S
C119 H133 0.961 . S
C119 H134 0.961 1_455 S
C119 H135 0.961 1_545 S
C120 C121 1.370 . S
C120 C122 1.363 . S
C120 H136 0.931 . S
C121 C120 1.370 . S
C121 C125 1.408 . S
C122 C120 1.363 . S
C122 C123 1.370 . S
C122 C126 1.524 1_565 S
C123 C115 1.503 1_665 S
C123 C122 1.370 . S
C123 C124 1.403 1_655 S
C124 C123 1.403 1_455 S
C124 C125 1.404 1_455 S
C124 C127 1.539 . S
C125 C121 1.408 . S
C125 C124 1.404 1_655 S
C125 H137 0.930 . S
C126 C122 1.524 1_545 S
C126 H138 0.956 . S
C126 H139 0.961 . S
C126 H140 0.961 . S
C127 C124 1.539 . S
C127 H141 0.958 . S
C127 H142 0.961 . S
C127 H143 0.960 . S
H128 C112 0.931 . S
H129 C117 0.929 . S
H130 C118 0.960 1_565 S
H131 C118 0.962 . S
H132 C118 0.960 . S
H133 C119 0.961 . S
H134 C119 0.961 1_655 S
H135 C119 0.961 1_565 S
H136 C120 0.931 . S
H137 C125 0.930 . S
H138 C126 0.956 . S
H139 C126 0.961 . S
H140 C126 0.961 . S
H141 C127 0.958 . S
H142 C127 0.961 . S
H143 C127 0.960 . S
C144 C145 1.391 . S
C144 C146 1.394 . S
C144 H160 0.931 . S
C145 C144 1.391 . S
C145 C149 1.376 . S
C146 C144 1.394 . S
C146 C147 1.369 . S
C146 C150 1.531 . S
C147 C146 1.369 . S
C147 C148 1.410 . S
C147 C155 1.503 . S
C148 C147 1.410 . S
C148 C149 1.392 . S
C148 C151 1.511 . S
C149 C145 1.376 . S
C149 C148 1.392 . S
C149 H161 0.929 . S
C150 C146 1.531 . S
C150 H162 0.960 . S
C150 H163 0.962 . S
C150 H164 0.960 . S
C151 C148 1.511 . S
C151 H165 0.961 . S
C151 H166 0.961 . S
C151 H167 0.961 . S
C152 C153 1.370 . S
C152 C154 1.363 . S
C152 H168 0.931 . S
C153 C152 1.370 . S
C153 C157 1.408 . S
C154 C152 1.363 . S
C154 C155 1.370 . S
C154 C158 1.524 . S
C155 C147 1.503 . S
C155 C154 1.370 . S
C155 C156 1.403 . S
C156 C155 1.403 . S
C156 C157 1.404 . S
C156 C159 1.539 . S
C157 C153 1.408 . S
C157 C156 1.404 . S
C157 H169 0.930 . S
C158 C154 1.524 . S
C158 H170 0.956 . S
C158 H171 0.961 . S
C158 H172 0.961 . S
C159 C156 1.539 . S
C159 H173 0.958 . S
C159 H174 0.961 . S
C159 H175 0.960 . S
H160 C144 0.931 . S
H161 C149 0.929 . S
H162 C150 0.960 . S
H163 C150 0.962 . S
H164 C150 0.960 . S
H165 C151 0.961 . S
H166 C151 0.961 . S
H167 C151 0.961 . S
H168 C152 0.931 . S
H169 C157 0.930 . S
H170 C158 0.956 . S
H171 C158 0.961 . S
H172 C158 0.961 . S
H173 C159 0.958 . S
H174 C159 0.961 . S
H175 C159 0.960 . S
C176 C177 1.391 . S
C176 C178 1.394 . S
C176 H192 0.931 . S
C177 C176 1.391 . S
C177 C181 1.376 . S
C178 C176 1.394 . S
C178 C179 1.369 . S
C178 C182 1.531 . S
C179 C178 1.369 . S
C179 C180 1.410 . S
C179 C187 1.503 . S
C180 C179 1.410 . S
C180 C181 1.392 . S
C180 C183 1.511 . S
C181 C177 1.376 . S
C181 C180 1.392 . S
C181 H193 0.929 . S
C182 C178 1.531 . S
C182 H194 0.960 . S
C182 H195 0.962 . S
C182 H196 0.960 . S
C183 C180 1.511 . S
C183 H197 0.961 . S
C183 H198 0.961 . S
C183 H199 0.961 . S
C184 C185 1.370 . S
C184 C186 1.363 . S
C184 H200 0.931 . S
C185 C184 1.370 . S
C185 C189 1.408 . S
C186 C184 1.363 . S
C186 C187 1.370 . S
C186 C190 1.524 . S
C187 C179 1.503 . S
C187 C186 1.370 . S
C187 C188 1.403 . S
C188 C187 1.403 . S
C188 C189 1.404 . S
C188 C191 1.539 . S
C189 C185 1.408 . S
C189 C188 1.404 . S
C189 H201 0.930 . S
C190 C186 1.524 . S
C190 H202 0.956 . S
C190 H203 0.961 . S
C190 H204 0.961 . S
C191 C188 1.539 . S
C191 H205 0.958 . S
C191 H206 0.961 . S
C191 H207 0.960 . S
H192 C176 0.931 . S
H193 C181 0.929 . S
H194 C182 0.960 . S
H195 C182 0.962 . S
H196 C182 0.960 . S
H197 C183 0.961 . S
H198 C183 0.961 . S
H199 C183 0.961 . S
H200 C184 0.931 . S
H201 C189 0.930 . S
H202 C190 0.956 . S
H203 C190 0.961 . S
H204 C190 0.961 . S
H205 C191 0.958 . S
H206 C191 0.961 . S
H207 C191 0.960 . S
C208 C209 1.391 . S
C208 C210 1.394 . S
C208 H224 0.931 . S
C209 C208 1.391 . S
C209 C213 1.376 . S
C210 C208 1.394 . S
C210 C211 1.369 . S
C210 C214 1.531 1_455 S
C211 C210 1.369 . S
C211 C212 1.410 1_545 S
C211 C219 1.503 1_445 S
C212 C211 1.410 1_565 S
C212 C213 1.392 1_565 S
C212 C215 1.511 . S
C213 C209 1.376 . S
C213 C212 1.392 1_545 S
C213 H225 0.929 . S
C214 C210 1.531 1_655 S
C214 H226 0.960 . S
C214 H227 0.962 . S
C214 H228 0.960 . S
C215 C212 1.511 . S
C215 H229 0.961 . S
C215 H230 0.961 . S
C215 H231 0.961 . S
C216 C217 1.370 . S
C216 C218 1.363 . S
C216 H232 0.931 . S
C217 C216 1.370 . S
C217 C221 1.408 . S
C218 C216 1.363 . S
C218 C219 1.370 . S
C218 C222 1.524 1_565 S
C219 C211 1.503 1_665 S
C219 C218 1.370 . S
C219 C220 1.403 . S
C220 C219 1.403 . S
C220 C221 1.404 . S
C220 C223 1.539 . S
C221 C217 1.408 . S
C221 C220 1.404 . S
C221 H233 0.930 . S
C222 C218 1.524 1_545 S
C222 H234 0.956 . S
C222 H235 0.961 1_655 S
C222 H236 0.961 . S
C223 C220 1.539 . S
C223 H237 0.958 . S
C223 H238 0.961 . S
C223 H239 0.960 1_655 S
H224 C208 0.931 . S
H225 C213 0.929 . S
H226 C214 0.960 . S
H227 C214 0.962 . S
H228 C214 0.960 . S
H229 C215 0.961 . S
H230 C215 0.961 . S
H231 C215 0.961 . S
H232 C216 0.931 . S
H233 C221 0.930 . S
H234 C222 0.956 . S
H235 C222 0.961 1_455 S
H236 C222 0.961 . S
H237 C223 0.958 . S
H238 C223 0.961 . S
H239 C223 0.960 1_455 S
C240 C241 1.391 . S
C240 C242 1.394 . S
C240 H256 0.931 . S
C241 C240 1.391 . S
C241 C245 1.376 . S
C242 C240 1.394 . S
C242 C243 1.369 . S
C242 C246 1.531 . S
C243 C242 1.369 . S
C243 C244 1.410 . S
C243 C251 1.503 . S
C244 C243 1.410 . S
C244 C245 1.392 . S
C244 C247 1.511 . S
C245 C241 1.376 . S
C245 C244 1.392 . S
C245 H257 0.929 . S
C246 C242 1.531 . S
C246 H258 0.960 . S
C246 H259 0.962 . S
C246 H260 0.960 . S
C247 C244 1.511 . S
C247 H261 0.961 . S
C247 H262 0.961 . S
C247 H263 0.961 . S
C248 C249 1.370 . S
C248 C250 1.363 . S
C248 H264 0.931 . S
C249 C248 1.370 . S
C249 C253 1.408 . S
C250 C248 1.363 . S
C250 C251 1.370 . S
C250 C254 1.524 . S
C251 C243 1.503 . S
C251 C250 1.370 . S
C251 C252 1.403 . S
C252 C251 1.403 . S
C252 C253 1.404 . S
C252 C255 1.539 . S
C253 C249 1.408 . S
C253 C252 1.404 . S
C253 H265 0.930 . S
C254 C250 1.524 . S
C254 H266 0.956 . S
C254 H267 0.961 . S
C254 H268 0.961 . S
C255 C252 1.539 . S
C255 H269 0.958 . S
C255 H270 0.961 . S
C255 H271 0.960 . S
H256 C240 0.931 . S
H257 C245 0.929 . S
H258 C246 0.960 . S
H259 C246 0.962 . S
H260 C246 0.960 . S
H261 C247 0.961 . S
H262 C247 0.961 . S
H263 C247 0.961 . S
H264 C248 0.931 . S
H265 C253 0.930 . S
H266 C254 0.956 . S
H267 C254 0.961 . S
H268 C254 0.961 . S
H269 C255 0.958 . S
H270 C255 0.961 . S
H271 C255 0.960 . S
C272 C273 1.391 . S
C272 C274 1.394 . S
C272 H288 0.931 . S
C273 C272 1.391 . S
C273 C277 1.376 . S
C274 C272 1.394 . S
C274 C275 1.369 . S
C274 C278 1.531 1_556 S
C275 C274 1.369 . S
C275 C276 1.410 . S
C275 C283 1.503 1_556 S
C276 C275 1.410 . S
C276 C277 1.392 . S
C276 C279 1.511 . S
C277 C273 1.376 . S
C277 C276 1.392 . S
C277 H289 0.929 . S
C278 C274 1.531 1_554 S
C278 H290 0.959 . S
C278 H291 0.961 . S
C278 H292 0.961 1_554 S
C279 C276 1.511 . S
C279 H293 0.961 . S
C279 H294 0.961 . S
C279 H295 0.961 . S
C280 C281 1.370 . S
C280 C282 1.363 . S
C280 H296 0.931 . S
C281 C280 1.370 . S
C281 C285 1.408 . S
C282 C280 1.363 . S
C282 C283 1.370 . S
C282 C286 1.524 . S
C283 C275 1.503 1_554 S
C283 C282 1.370 . S
C283 C284 1.403 . S
C284 C283 1.403 . S
C284 C285 1.404 . S
C284 C287 1.539 . S
C285 C281 1.408 . S
C285 C284 1.404 . S
C285 H297 0.930 . S
C286 C282 1.524 . S
C286 H298 0.956 . S
C286 H299 0.951 1_554 S
C286 H300 0.961 . S
C287 C284 1.539 . S
C287 H301 0.958 . S
C287 H302 0.961 . S
C287 H303 0.960 1_554 S
H288 C272 0.931 . S
H289 C277 0.929 . S
H290 C278 0.959 . S
H291 C278 0.961 . S
H292 C278 0.961 1_556 S
H293 C279 0.961 . S
H294 C279 0.961 . S
H295 C279 0.961 . S
H296 C280 0.931 . S
H297 C285 0.930 . S
H298 C286 0.956 . S
H299 C286 0.951 1_556 S
H300 C286 0.961 . S
H301 C287 0.958 . S
H302 C287 0.961 . S
H303 C287 0.960 1_556 S
C304 C305 1.391 . S
C304 C306 1.394 . S
C304 H320 0.931 . S
C305 C304 1.391 . S
C305 C309 1.376 . S
C306 C304 1.394 . S
C306 C307 1.369 . S
C306 C310 1.531 . S
C307 C306 1.369 . S
C307 C308 1.410 . S
C307 C315 1.503 . S
C308 C307 1.410 . S
C308 C309 1.392 . S
C308 C311 1.511 . S
C309 C305 1.376 . S
C309 C308 1.392 . S
C309 H321 0.929 . S
C310 C306 1.531 . S
C310 H322 0.960 . S
C310 H323 0.962 . S
C310 H324 0.960 . S
C311 C308 1.511 . S
C311 H325 0.961 . S
C311 H326 0.961 . S
C311 H327 0.961 . S
C312 C313 1.370 . S
C312 C314 1.363 . S
C312 H328 0.931 . S
C313 C312 1.370 . S
C313 C317 1.408 . S
C314 C312 1.363 . S
C314 C315 1.370 . S
C314 C318 1.524 . S
C315 C307 1.503 . S
C315 C314 1.370 . S
C315 C316 1.403 . S
C316 C315 1.403 . S
C316 C317 1.404 . S
C316 C319 1.539 . S
C317 C313 1.408 . S
C317 C316 1.404 . S
C317 H329 0.930 . S
C318 C314 1.524 . S
C318 H330 0.956 . S
C318 H331 0.961 . S
C318 H332 0.961 . S
C319 C316 1.539 . S
C319 H333 0.958 . S
C319 H334 0.961 . S
C319 H335 0.960 . S
H320 C304 0.931 . S
H321 C309 0.929 . S
H322 C310 0.960 . S
H323 C310 0.962 . S
H324 C310 0.960 . S
H325 C311 0.961 . S
H326 C311 0.961 . S
H327 C311 0.961 . S
H328 C312 0.931 . S
H329 C317 0.930 . S
H330 C318 0.956 . S
H331 C318 0.961 . S
H332 C318 0.961 . S
H333 C319 0.958 . S
H334 C319 0.961 . S
H335 C319 0.960 . S
C336 C337 1.391 . S
C336 C338 1.394 . S
C336 H352 0.931 . S
C337 C336 1.391 . S
C337 C341 1.376 . S
C338 C336 1.394 . S
C338 C339 1.369 . S
C338 C342 1.525 1_556 S
C339 C338 1.369 . S
C339 C340 1.410 . S
C339 C347 1.503 1_556 S
C340 C339 1.410 . S
C340 C341 1.392 . S
C340 C343 1.511 . S
C341 C337 1.376 . S
C341 C340 1.392 . S
C341 H353 0.929 . S
C342 C338 1.525 1_554 S
C342 H354 0.967 . S
C342 H355 0.963 . S
C342 H356 0.958 1_554 S
C343 C340 1.511 . S
C343 H357 0.961 . S
C343 H358 0.961 . S
C343 H359 0.961 . S
C344 C345 1.370 . S
C344 C346 1.363 . S
C344 H360 0.931 . S
C345 C344 1.370 . S
C345 C349 1.408 . S
C346 C344 1.363 . S
C346 C347 1.370 . S
C346 C350 1.524 . S
C347 C339 1.503 1_554 S
C347 C346 1.370 . S
C347 C348 1.403 . S
C348 C347 1.403 . S
C348 C349 1.404 . S
C348 C351 1.539 . S
C349 C345 1.408 . S
C349 C348 1.404 . S
C349 H361 0.930 . S
C350 C346 1.524 . S
C350 H362 0.956 1_554 S
C350 H363 0.961 1_554 S
C350 H364 0.961 . S
C351 C348 1.539 . S
C351 H365 0.958 . S
C351 H366 0.961 . S
C351 H367 0.960 . S
H352 C336 0.931 . S
H353 C341 0.929 . S
H354 C342 0.967 . S
H355 C342 0.963 . S
H356 C342 0.958 1_556 S
H357 C343 0.961 . S
H358 C343 0.961 . S
H359 C343 0.961 . S
H360 C344 0.931 . S
H361 C349 0.930 . S
H362 C350 0.956 1_556 S
H363 C350 0.961 1_556 S
H364 C350 0.961 . S
H365 C351 0.958 . S
H366 C351 0.961 . S
H367 C351 0.960 . S
C368 C369 1.391 . S
C368 C370 1.394 . S
C368 H384 0.931 . S
C369 C368 1.391 . S
C369 C373 1.376 . S
C370 C368 1.394 . S
C370 C371 1.369 . S
C370 C374 1.531 . S
C371 C370 1.369 . S
C371 C372 1.410 . S
C371 C379 1.503 . S
C372 C371 1.410 . S
C372 C373 1.392 . S
C372 C375 1.511 . S
C373 C369 1.376 . S
C373 C372 1.392 . S
C373 H385 0.929 . S
C374 C370 1.531 . S
C374 H386 0.960 . S
C374 H387 0.962 . S
C374 H388 0.960 . S
C375 C372 1.511 . S
C375 H389 0.961 . S
C375 H390 0.961 . S
C375 H391 0.961 . S
C376 C377 1.370 . S
C376 C378 1.363 . S
C376 H392 0.931 . S
C377 C376 1.370 . S
C377 C381 1.408 . S
C378 C376 1.363 . S
C378 C379 1.370 . S
C378 C382 1.524 . S
C379 C371 1.503 . S
C379 C378 1.370 . S
C379 C380 1.403 . S
C380 C379 1.403 . S
C380 C381 1.404 . S
C380 C383 1.539 . S
C381 C377 1.408 . S
C381 C380 1.404 . S
C381 H393 0.930 . S
C382 C378 1.524 . S
C382 H394 0.956 . S
C382 H395 0.961 . S
C382 H396 0.961 . S
C383 C380 1.539 . S
C383 H397 0.958 . S
C383 H398 0.961 . S
C383 H399 0.960 . S
H384 C368 0.931 . S
H385 C373 0.929 . S
H386 C374 0.960 . S
H387 C374 0.962 . S
H388 C374 0.960 . S
H389 C375 0.961 . S
H390 C375 0.961 . S
H391 C375 0.961 . S
H392 C376 0.931 . S
H393 C381 0.930 . S
H394 C382 0.956 . S
H395 C382 0.961 . S
H396 C382 0.961 . S
H397 C383 0.958 . S
H398 C383 0.961 . S
H399 C383 0.960 . S
C400 C401 1.391 . S
C400 C402 1.394 . S
C400 H416 0.931 . S
C401 C400 1.391 . S
C401 C405 1.376 . S
C402 C400 1.394 . S
C402 C403 1.369 . S
C402 C406 1.531 . S
C403 C402 1.369 . S
C403 C404 1.410 . S
C403 C411 1.503 . S
C404 C403 1.410 . S
C404 C405 1.392 . S
C404 C407 1.511 . S
C405 C401 1.376 . S
C405 C404 1.392 . S
C405 H417 0.929 . S
C406 C402 1.531 . S
C406 H418 0.960 . S
C406 H419 0.962 . S
C406 H420 0.960 . S
C407 C404 1.511 . S
C407 H421 0.961 . S
C407 H422 0.961 . S
C407 H423 0.961 . S
C408 C409 1.370 1_565 S
C408 C410 1.363 . S
C408 H424 0.931 1_565 S
C409 C408 1.370 1_545 S
C409 C413 1.408 1_545 S
C410 C408 1.363 . S
C410 C411 1.370 . S
C410 C414 1.524 . S
C411 C403 1.503 . S
C411 C410 1.370 . S
C411 C412 1.403 . S
C412 C411 1.403 . S
C412 C413 1.404 . S
C412 C415 1.539 . S
C413 C409 1.408 1_565 S
C413 C412 1.404 . S
C413 H425 0.930 . S
C414 C410 1.524 . S
C414 H426 0.956 . S
C414 H427 0.961 . S
C414 H428 0.961 . S
C415 C412 1.539 . S
C415 H429 0.958 . S
C415 H430 0.961 . S
C415 H431 0.960 . S
H416 C400 0.931 . S
H417 C405 0.929 . S
H418 C406 0.960 . S
H419 C406 0.962 . S
H420 C406 0.960 . S
H421 C407 0.961 . S
H422 C407 0.961 . S
H423 C407 0.961 . S
H424 C408 0.931 1_545 S
H425 C413 0.930 . S
H426 C414 0.956 . S
H427 C414 0.961 . S
H428 C414 0.961 . S
H429 C415 0.958 . S
H430 C415 0.961 . S
H431 C415 0.960 . S
C432 C433 1.391 . S
C432 C434 1.394 . S
C432 H448 0.931 . S
C433 C432 1.391 . S
C433 C437 1.376 . S
C434 C432 1.394 . S
C434 C435 1.369 . S
C434 C438 1.531 . S
C435 C434 1.369 . S
C435 C436 1.410 . S
C435 C443 1.503 . S
C436 C435 1.410 . S
C436 C437 1.392 . S
C436 C439 1.511 . S
C437 C433 1.376 . S
C437 C436 1.392 . S
C437 H449 0.929 . S
C438 C434 1.531 . S
C438 H450 0.960 . S
C438 H451 0.962 . S
C438 H452 0.960 . S
C439 C436 1.511 . S
C439 H453 0.961 . S
C439 H454 0.961 . S
C439 H455 0.961 . S
C440 C441 1.370 . S
C440 C442 1.363 . S
C440 H456 0.931 . S
C441 C440 1.370 . S
C441 C445 1.408 . S
C442 C440 1.363 . S
C442 C443 1.370 . S
C442 C446 1.524 . S
C443 C435 1.503 . S
C443 C442 1.370 . S
C443 C444 1.403 . S
C444 C443 1.403 . S
C444 C445 1.404 . S
C444 C447 1.539 . S
C445 C441 1.408 . S
C445 C444 1.404 . S
C445 H457 0.930 . S
C446 C442 1.524 . S
C446 H458 0.956 . S
C446 H459 0.961 . S
C446 H460 0.961 . S
C447 C444 1.539 . S
C447 H461 0.958 . S
C447 H462 0.961 . S
C447 H463 0.960 . S
H448 C432 0.931 . S
H449 C437 0.929 . S
H450 C438 0.960 . S
H451 C438 0.962 . S
H452 C438 0.960 . S
H453 C439 0.961 . S
H454 C439 0.961 . S
H455 C439 0.961 . S
H456 C440 0.931 . S
H457 C445 0.930 . S
H458 C446 0.956 . S
H459 C446 0.961 . S
H460 C446 0.961 . S
H461 C447 0.958 . S
H462 C447 0.961 . S
H463 C447 0.960 . S
C464 C465 1.391 . S
C464 C466 1.394 . S
C464 H480 0.931 . S
C465 C464 1.391 . S
C465 C469 1.376 . S
C466 C464 1.394 . S
C466 C467 1.369 . S
C466 C470 1.531 . S
C467 C466 1.369 . S
C467 C468 1.410 . S
C467 C475 1.503 . S
C468 C467 1.410 . S
C468 C469 1.392 . S
C468 C471 1.511 . S
C469 C465 1.376 . S
C469 C468 1.392 . S
C469 H481 0.929 . S
C470 C466 1.531 . S
C470 H482 0.960 . S
C470 H483 0.962 . S
C470 H484 0.960 . S
C471 C468 1.511 . S
C471 H485 0.961 . S
C471 H486 0.961 . S
C471 H487 0.961 . S
C472 C473 1.370 1_545 S
C472 C474 1.363 . S
C472 H488 0.931 . S
C473 C472 1.370 1_565 S
C473 C477 1.408 1_565 S
C474 C472 1.363 . S
C474 C475 1.370 . S
C474 C478 1.524 . S
C475 C467 1.503 . S
C475 C474 1.370 . S
C475 C476 1.403 . S
C476 C475 1.403 . S
C476 C477 1.404 . S
C476 C479 1.539 . S
C477 C473 1.408 1_545 S
C477 C476 1.404 . S
C477 H489 0.930 1_545 S
C478 C474 1.524 . S
C478 H490 0.956 . S
C478 H491 0.961 . S
C478 H492 0.961 . S
C479 C476 1.539 . S
C479 H493 0.958 . S
C479 H494 0.961 . S
C479 H495 0.960 . S
H480 C464 0.931 . S
H481 C469 0.929 . S
H482 C470 0.960 . S
H483 C470 0.962 . S
H484 C470 0.960 . S
H485 C471 0.961 . S
H486 C471 0.961 . S
H487 C471 0.961 . S
H488 C472 0.931 . S
H489 C477 0.930 1_565 S
H490 C478 0.956 . S
H491 C478 0.961 . S
H492 C478 0.961 . S
H493 C479 0.958 . S
H494 C479 0.961 . S
H495 C479 0.960 . S
C496 C497 1.391 . S
C496 C498 1.394 1_455 S
C496 H512 0.931 . S
C497 C496 1.391 . S
C497 C501 1.376 1_455 S
C498 C496 1.394 1_655 S
C498 C499 1.369 . S
C498 C502 1.531 . S
C499 C498 1.369 . S
C499 C500 1.410 . S
C499 C507 1.503 . S
C500 C499 1.410 . S
C500 C501 1.392 . S
C500 C503 1.511 . S
C501 C497 1.376 1_655 S
C501 C500 1.392 . S
C501 H513 0.929 . S
C502 C498 1.531 . S
C502 H514 0.960 . S
C502 H515 0.962 . S
C502 H516 0.960 . S
C503 C500 1.511 . S
C503 H517 0.961 . S
C503 H518 0.961 . S
C503 H519 0.961 . S
C504 C505 1.370 . S
C504 C506 1.363 . S
C504 H520 0.931 . S
C505 C504 1.370 . S
C505 C509 1.408 . S
C506 C504 1.363 . S
C506 C507 1.370 . S
C506 C510 1.524 . S
C507 C499 1.503 . S
C507 C506 1.370 . S
C507 C508 1.403 . S
C508 C507 1.403 . S
C508 C509 1.404 . S
C508 C511 1.539 . S
C509 C505 1.408 . S
C509 C508 1.404 . S
C509 H521 0.930 . S
C510 C506 1.524 . S
C510 H522 0.956 . S
C510 H523 0.961 . S
C510 H524 0.961 . S
C511 C508 1.539 . S
C511 H525 0.958 . S
C511 H526 0.961 . S
C511 H527 0.960 . S
H512 C496 0.931 . S
H513 C501 0.929 . S
H514 C502 0.960 . S
H515 C502 0.962 . S
H516 C502 0.960 . S
H517 C503 0.961 . S
H518 C503 0.961 . S
H519 C503 0.961 . S
H520 C504 0.931 . S
H521 C509 0.930 . S
H522 C510 0.956 . S
H523 C510 0.961 . S
H524 C510 0.961 . S
H525 C511 0.958 . S
H526 C511 0.961 . S
H527 C511 0.960 . S
C528 C529 1.391 . S
C528 C530 1.394 . S
C528 H544 0.931 . S
C529 C528 1.391 . S
C529 C533 1.376 . S
C530 C528 1.394 . S
C530 C531 1.369 . S
C530 C534 1.531 . S
C531 C530 1.369 . S
C531 C532 1.410 . S
C531 C539 1.503 . S
C532 C531 1.410 . S
C532 C533 1.392 . S
C532 C535 1.511 . S
C533 C529 1.376 . S
C533 C532 1.392 . S
C533 H545 0.929 . S
C534 C530 1.531 . S
C534 H546 0.960 . S
C534 H547 0.962 . S
C534 H548 0.960 . S
C535 C532 1.511 . S
C535 H549 0.961 . S
C535 H550 0.961 . S
C535 H551 0.961 . S
C536 C537 1.370 . S
C536 C538 1.363 . S
C536 H552 0.931 . S
C537 C536 1.370 . S
C537 C541 1.408 . S
C538 C536 1.363 . S
C538 C539 1.370 . S
C538 C542 1.524 . S
C539 C531 1.503 . S
C539 C538 1.370 . S
C539 C540 1.403 . S
C540 C539 1.403 . S
C540 C541 1.404 . S
C540 C543 1.539 . S
C541 C537 1.408 . S
C541 C540 1.404 . S
C541 H553 0.930 . S
C542 C538 1.524 . S
C542 H554 0.956 . S
C542 H555 0.961 . S
C542 H556 0.961 . S
C543 C540 1.539 . S
C543 H557 0.958 . S
C543 H558 0.961 . S
C543 H559 0.960 . S
H544 C528 0.931 . S
H545 C533 0.929 . S
H546 C534 0.960 . S
H547 C534 0.962 . S
H548 C534 0.960 . S
H549 C535 0.961 . S
H550 C535 0.961 . S
H551 C535 0.961 . S
H552 C536 0.931 . S
H553 C541 0.930 . S
H554 C542 0.956 . S
H555 C542 0.961 . S
H556 C542 0.961 . S
H557 C543 0.958 . S
H558 C543 0.961 . S
H559 C543 0.960 . S
C560 C561 1.391 . S
C560 C562 1.394 . S
C560 H576 0.931 . S
C561 C560 1.391 . S
C561 C565 1.376 . S
C562 C560 1.394 . S
C562 C563 1.369 . S
C562 C566 1.531 . S
C563 C562 1.369 . S
C563 C564 1.410 . S
C563 C571 1.503 . S
C564 C563 1.410 . S
C564 C565 1.392 . S
C564 C567 1.511 . S
C565 C561 1.376 . S
C565 C564 1.392 . S
C565 H577 0.929 . S
C566 C562 1.531 . S
C566 H578 0.960 . S
C566 H579 0.962 . S
C566 H580 0.960 . S
C567 C564 1.511 . S
C567 H581 0.961 . S
C567 H582 0.961 . S
C567 H583 0.961 . S
C568 C569 1.370 1_455 S
C568 C570 1.363 . S
C568 H584 0.926 1_455 S
C569 C568 1.370 1_655 S
C569 C573 1.408 1_655 S
C570 C568 1.363 . S
C570 C571 1.370 . S
C570 C574 1.524 . S
C571 C563 1.503 . S
C571 C570 1.370 . S
C571 C572 1.403 . S
C572 C571 1.403 . S
C572 C573 1.404 . S
C572 C575 1.539 . S
C573 C569 1.408 1_455 S
C573 C572 1.404 . S
C573 H585 0.930 . S
C574 C570 1.524 . S
C574 H586 0.956 . S
C574 H587 0.961 . S
C574 H588 0.961 . S
C575 C572 1.539 . S
C575 H589 0.958 . S
C575 H590 0.961 . S
C575 H591 0.960 . S
H576 C560 0.931 . S
H577 C565 0.929 . S
H578 C566 0.960 . S
H579 C566 0.962 . S
H580 C566 0.960 . S
H581 C567 0.961 . S
H582 C567 0.961 . S
H583 C567 0.961 . S
H584 C568 0.926 1_655 S
H585 C573 0.930 . S
H586 C574 0.956 . S
H587 C574 0.961 . S
H588 C574 0.961 . S
H589 C575 0.958 . S
H590 C575 0.961 . S
H591 C575 0.960 . S
C592 C593 1.391 . S
C592 C594 1.394 . S
C592 H608 0.931 . S
C593 C592 1.391 . S
C593 C597 1.376 . S
C594 C592 1.394 . S
C594 C595 1.369 . S
C594 C598 1.531 . S
C595 C594 1.369 . S
C595 C596 1.410 . S
C595 C603 1.503 . S
C596 C595 1.410 . S
C596 C597 1.392 . S
C596 C599 1.511 . S
C597 C593 1.376 . S
C597 C596 1.392 . S
C597 H609 0.929 . S
C598 C594 1.531 . S
C598 H610 0.960 . S
C598 H611 0.962 . S
C598 H612 0.960 . S
C599 C596 1.511 . S
C599 H613 0.961 . S
C599 H614 0.961 . S
C599 H615 0.961 . S
C600 C601 1.370 . S
C600 C602 1.363 . S
C600 H616 0.931 . S
C601 C600 1.370 . S
C601 C605 1.408 . S
C602 C600 1.363 . S
C602 C603 1.370 . S
C602 C606 1.524 . S
C603 C595 1.503 . S
C603 C602 1.370 . S
C603 C604 1.403 . S
C604 C603 1.403 . S
C604 C605 1.404 . S
C604 C607 1.539 . S
C605 C601 1.408 . S
C605 C604 1.404 . S
C605 H617 0.930 . S
C606 C602 1.524 . S
C606 H618 0.956 . S
C606 H619 0.961 . S
C606 H620 0.961 . S
C607 C604 1.539 . S
C607 H621 0.958 . S
C607 H622 0.961 . S
C607 H623 0.960 . S
H608 C592 0.931 . S
H609 C597 0.929 . S
H610 C598 0.960 . S
H611 C598 0.962 . S
H612 C598 0.960 . S
H613 C599 0.961 . S
H614 C599 0.961 . S
H615 C599 0.961 . S
H616 C600 0.931 . S
H617 C605 0.930 . S
H618 C606 0.956 . S
H619 C606 0.961 . S
H620 C606 0.961 . S
H621 C607 0.958 . S
H622 C607 0.961 . S
H623 C607 0.960 . S
C113 C5 0.527 . S
C121 C33 0.470 . S
C145 C19 0.489 . S
C153 C47 0.493 . S
C177 C61 0.486 . S
C185 C89 0.494 . S
C209 C75 0.483 . S
C217 C103 0.495 . S
C241 C9 1.400 . S
C249 C79 1.373 . S
C273 C23 1.360 . S
C281 C93 1.383 . S
C305 C107 1.397 . S
C313 C37 1.383 . S
C337 C51 1.383 . S
C345 C65 1.375 . S
C369 C56 1.722 . S
C377 C11 1.734 . S
C401 C25 1.753 . S
C409 C70 1.682 . S
C433 C39 1.763 . S
C441 C84 1.684 . S
C465 C53 1.718 . S
C473 C98 1.709 . S
C497 C0 1.658 . S
C505 C67 1.751 . S
C529 C81 1.739 . S
C537 C14 1.703 . S
C561 C95 1.715 . S
C569 C28 1.707 . S
C593 C42 1.685 . S
C601 C109 1.740 . S
