# Generated by pormake.
# Topology uov, (4)-cn, num edge types: 1
# Building blocks:
#     Node 0, Type 0, BuildingBlock: KUFVIS_clean_sbu_0, # of connection points: 4
#     Node 1, Type 0, BuildingBlock: KUFVIS_clean_sbu_0, # of connection points: 4
#     Node 2, Type 0, BuildingBlock: KUFVIS_clean_sbu_0, # of connection points: 4
#     Node 3, Type 0, BuildingBlock: KUFVIS_clean_sbu_0, # of connection points: 4
#     Node 4, Type 0, BuildingBlock: KUFVIS_clean_sbu_0, # of connection points: 4
#     Node 5, Type 0, BuildingBlock: KUFVIS_clean_sbu_0, # of connection points: 4
#     Node 6, Type 0, BuildingBlock: KUFVIS_clean_sbu_0, # of connection points: 4
#     Node 7, Type 0, BuildingBlock: KUFVIS_clean_sbu_0, # of connection points: 4
#     Edge 8, Type (0, 0), BuildingBlock: OJICUG_clean_linker_0, # of connection points: 2
#     Edge 9, Type (0, 0), BuildingBlock: OJICUG_clean_linker_0, # of connection points: 2
#     Edge 10, Type (0, 0), BuildingBlock: OJICUG_clean_linker_0, # of connection points: 2
#     Edge 11, Type (0, 0), BuildingBlock: OJICUG_clean_linker_0, # of connection points: 2
#     Edge 12, Type (0, 0), BuildingBlock: OJICUG_clean_linker_0, # of connection points: 2
#     Edge 13, Type (0, 0), BuildingBlock: OJICUG_clean_linker_0, # of connection points: 2
#     Edge 14, Type (0, 0), BuildingBlock: OJICUG_clean_linker_0, # of connection points: 2
#     Edge 15, Type (0, 0), BuildingBlock: OJICUG_clean_linker_0, # of connection points: 2
#     Edge 16, Type (0, 0), BuildingBlock: OJICUG_clean_linker_0, # of connection points: 2
#     Edge 17, Type (0, 0), BuildingBlock: OJICUG_clean_linker_0, # of connection points: 2
#     Edge 18, Type (0, 0), BuildingBlock: OJICUG_clean_linker_0, # of connection points: 2
#     Edge 19, Type (0, 0), BuildingBlock: OJICUG_clean_linker_0, # of connection points: 2
#     Edge 20, Type (0, 0), BuildingBlock: OJICUG_clean_linker_0, # of connection points: 2
#     Edge 21, Type (0, 0), BuildingBlock: OJICUG_clean_linker_0, # of connection points: 2
#     Edge 22, Type (0, 0), BuildingBlock: OJICUG_clean_linker_0, # of connection points: 2
#     Edge 23, Type (0, 0), BuildingBlock: OJICUG_clean_linker_0, # of connection points: 2
# Relax obj value: 0.168
# Max RMSD: 0.188
# Mean RMSD: 0.181
data_MOF--net-uov--node1-KUFVIS_clean_sbu_0--edge1-OJICUG_clean_linker_0
_symmetry_space_group_name_H-M    P1
_symmetry_Int_Tables_number       1
_symmetry_cell_setting            triclinic
loop_
_symmetry_equiv_pos_as_xyz
'x, y, z'
_cell_length_a     21.202164
_cell_length_b     22.106545
_cell_length_c     30.583533
_cell_angle_alpha  90.007308
_cell_angle_beta   90.001668
_cell_angle_gamma 91.679225
loop_
_atom_site_label
_atom_site_type_symbol
_atom_site_fract_x
_atom_site_fract_y
_atom_site_fract_z
_atom_type_partial_charge
Mn0 Mn 0.05378 0.2584 0.60119 0.0
Mn1 Mn 0.9359 0.25852 0.67504 0.0
C2 C 0.95135 0.25747 0.57659 0.0
C3 C 0.1249 0.20425 0.56031 0.0
C4 C 0.00924 0.37201 0.64768 0.0
O5 O 0.09747 0.23525 0.65705 0.0
O6 O 0.01621 0.23454 0.70427 0.0
C7 C 0.9282 0.12787 0.6971 0.0
N8 N 0.90039 0.17845 0.68167 0.0
C9 C 0.80036 0.12507 0.67449 0.0
C10 C 0.82794 0.0725 0.69035 0.0
C11 C 0.89214 0.07394 0.70169 0.0
C12 C 0.83847 0.17771 0.67114 0.0
H13 H 0.97747 0.12862 0.70604 0.0
C14 C 0.07424 0.22599 0.69483 0.0
O15 O 0.13587 0.2612 0.56877 0.0
O16 O 0.07381 0.17911 0.57586 0.0
N17 N 0.85557 0.27868 0.65149 0.0
C18 C 0.8369 0.33231 0.63459 0.0
C19 C 0.77435 0.33778 0.62037 0.0
C20 C 0.73166 0.28821 0.62388 0.0
C21 C 0.752 0.23344 0.64117 0.0
C22 C 0.81479 0.23072 0.65502 0.0
H23 H 0.86953 0.37054 0.63183 0.0
O24 O 0.99809 0.27519 0.55193 0.0
O25 O 0.96625 0.23853 0.61581 0.0
O26 O 0.04627 0.34664 0.62084 0.0
O27 O 0.96768 0.34326 0.67037 0.0
C28 C 0.71264 0.18118 0.6446 0.0
C29 C 0.73677 0.12707 0.66133 0.0
H30 H 0.80037 0.03072 0.69372 0.0
H31 H 0.91377 0.03358 0.71398 0.0
H32 H 0.75904 0.38013 0.60684 0.0
H33 H 0.68338 0.29255 0.61316 0.0
H34 H 0.66388 0.18198 0.63408 0.0
H35 H 0.70618 0.08707 0.6635 0.0
Mn36 Mn 0.2481 0.93563 0.41567 0.0
Mn37 Mn 0.32581 0.80634 0.40374 0.0
C38 C 0.20979 0.84948 0.45092 0.0
C39 C 0.23535 0.02622 0.45313 0.0
C40 C 0.23949 0.85648 0.33402 0.0
O41 O 0.33277 0.96416 0.39165 0.0
O42 O 0.38444 0.87692 0.3925 0.0
C43 C 0.41261 0.82132 0.47912 0.0
N44 N 0.36693 0.78842 0.45766 0.0
C45 C 0.36583 0.71161 0.51341 0.0
C46 C 0.4131 0.74448 0.53598 0.0
C47 C 0.43636 0.79972 0.51885 0.0
C48 C 0.3432 0.73593 0.47437 0.0
H49 H 0.43065 0.8638 0.46609 0.0
C50 C 0.38283 0.93437 0.38721 0.0
O51 O 0.21592 0.01961 0.41304 0.0
O52 O 0.264 0.9812 0.47051 0.0
N53 N 0.27637 0.73391 0.41397 0.0
C54 C 0.23495 0.70512 0.38626 0.0
C55 C 0.20884 0.64819 0.39778 0.0
C56 C 0.22644 0.62091 0.43723 0.0
C57 C 0.27123 0.65012 0.46427 0.0
C58 C 0.29601 0.70659 0.4509 0.0
H59 H 0.22179 0.72531 0.35558 0.0
O60 O 0.17388 0.89467 0.44305 0.0
O61 O 0.26797 0.85628 0.43756 0.0
O62 O 0.22134 0.90156 0.35629 0.0
O63 O 0.28175 0.82057 0.34728 0.0
C64 C 0.29336 0.62474 0.50341 0.0
C65 C 0.34056 0.65549 0.52798 0.0
H66 H 0.43186 0.72775 0.56648 0.0
H67 H 0.47266 0.82547 0.53617 0.0
H68 H 0.17526 0.62541 0.37629 0.0
H69 H 0.20611 0.57707 0.44607 0.0
H70 H 0.27485 0.5813 0.5147 0.0
H71 H 0.35751 0.63527 0.55785 0.0
Mn72 Mn 0.94867 0.74532 0.60096 0.0
Mn73 Mn 0.06666 0.74547 0.67473 0.0
C74 C 0.05107 0.74626 0.5763 0.0
C75 C 0.87746 0.79926 0.56001 0.0
C76 C 0.99339 0.63187 0.64755 0.0
O77 O 0.90505 0.76863 0.65681 0.0
O78 O 0.98636 0.76942 0.70399 0.0
C79 C 0.07424 0.87617 0.69669 0.0
N80 N 0.10209 0.8256 0.68127 0.0
C81 C 0.20202 0.8791 0.67392 0.0
C82 C 0.17441 0.93166 0.68976 0.0
C83 C 0.11023 0.93015 0.7012 0.0
C84 C 0.16398 0.8264 0.67067 0.0
H85 H 0.025 0.87538 0.70569 0.0
C86 C 0.92831 0.77795 0.69457 0.0
O87 O 0.86652 0.74234 0.56859 0.0
O88 O 0.92855 0.82449 0.57548 0.0
N89 N 0.14699 0.72536 0.65115 0.0
C90 C 0.16569 0.67173 0.63426 0.0
C91 C 0.22821 0.66632 0.61996 0.0
C92 C 0.27083 0.71596 0.62336 0.0
C93 C 0.25046 0.77073 0.64064 0.0
C94 C 0.18771 0.77338 0.65458 0.0
H95 H 0.1331 0.63345 0.63156 0.0
O96 O 0.00432 0.7284 0.55169 0.0
O97 O 0.03619 0.7653 0.6155 0.0
O98 O 0.95626 0.65715 0.62074 0.0
O99 O 0.03499 0.66069 0.67016 0.0
C100 C 0.28974 0.82305 0.64396 0.0
C101 C 0.26558 0.87716 0.66067 0.0
H102 H 0.20191 0.97349 0.69305 0.0
H103 H 0.08858 0.97051 0.71349 0.0
H104 H 0.24354 0.62397 0.60643 0.0
H105 H 0.31909 0.71166 0.61257 0.0
H106 H 0.33848 0.82231 0.63337 0.0
H107 H 0.29611 0.91721 0.66276 0.0
Mn108 Mn 0.75444 0.06819 0.41576 0.0
Mn109 Mn 0.67673 0.19752 0.40402 0.0
C110 C 0.79268 0.15422 0.45122 0.0
C111 C 0.76711 0.97742 0.453 0.0
C112 C 0.76306 0.14754 0.33424 0.0
O113 O 0.66979 0.03977 0.3916 0.0
O114 O 0.61808 0.12698 0.39273 0.0
C115 C 0.59 0.18247 0.47942 0.0
N116 N 0.63566 0.21538 0.45797 0.0
C117 C 0.63681 0.29213 0.51379 0.0
C118 C 0.58955 0.25924 0.53634 0.0
C119 C 0.56628 0.20402 0.51918 0.0
C120 C 0.65941 0.26785 0.47472 0.0
H121 H 0.57194 0.14 0.46637 0.0
C122 C 0.61971 0.06955 0.38728 0.0
O123 O 0.78662 0.98424 0.41295 0.0
O124 O 0.73844 0.02236 0.47048 0.0
N125 N 0.72621 0.26991 0.41431 0.0
C126 C 0.76764 0.29872 0.38661 0.0
C127 C 0.79378 0.35563 0.39817 0.0
C128 C 0.7762 0.38287 0.43765 0.0
C129 C 0.7314 0.35365 0.46466 0.0
C130 C 0.7066 0.2972 0.45126 0.0
H131 H 0.78078 0.27857 0.35592 0.0
O132 O 0.82861 0.10905 0.44332 0.0
O133 O 0.73454 0.14747 0.43778 0.0
O134 O 0.7813 0.10248 0.35648 0.0
O135 O 0.72073 0.18336 0.34752 0.0
C136 C 0.70929 0.379 0.50383 0.0
C137 C 0.66209 0.34823 0.52838 0.0
H138 H 0.57081 0.27594 0.56686 0.0
H139 H 0.52998 0.17825 0.53649 0.0
H140 H 0.82736 0.37842 0.3767 0.0
H141 H 0.79655 0.42669 0.44651 0.0
H142 H 0.72782 0.42242 0.51515 0.0
H143 H 0.64515 0.36844 0.55827 0.0
Mn144 Mn 0.93776 0.26145 0.09267 0.0
Mn145 Mn 0.05574 0.25678 0.16577 0.0
C146 C 0.04129 0.25563 0.06936 0.0
C147 C 0.86671 0.21046 0.04726 0.0
C148 C 0.98937 0.37195 0.142 0.0
O149 O 0.89115 0.23851 0.14915 0.0
O150 O 0.9747 0.23151 0.19452 0.0
C151 C 0.05453 0.12401 0.17932 0.0
N152 N 0.08606 0.1761 0.16758 0.0
C153 C 0.17906 0.12144 0.14946 0.0
C154 C 0.14798 0.06745 0.16226 0.0
C155 C 0.08538 0.06874 0.17713 0.0
C156 C 0.14622 0.17531 0.15297 0.0
H157 H 0.00596 0.12445 0.18971 0.0
C158 C 0.91533 0.22652 0.18639 0.0
O159 O 0.85747 0.26636 0.05816 0.0
O160 O 0.91355 0.18377 0.06524 0.0
N161 N 0.13618 0.27858 0.14096 0.0
C162 C 0.1576 0.33369 0.12636 0.0
C163 C 0.21844 0.3396 0.10845 0.0
C164 C 0.25654 0.28884 0.10561 0.0
C165 C 0.23349 0.2326 0.12083 0.0
C166 C 0.17277 0.22958 0.13889 0.0
H167 H 0.12832 0.37275 0.12799 0.0
O168 O 0.99868 0.27696 0.04372 0.0
O169 O 0.02164 0.23962 0.10797 0.0
O170 O 0.95192 0.34811 0.11382 0.0
O171 O 0.02861 0.34206 0.16456 0.0
C172 C 0.26783 0.17916 0.11781 0.0
C173 C 0.24064 0.12363 0.13211 0.0
H174 H 0.17134 0.02462 0.16009 0.0
H175 H 0.06074 0.02714 0.18644 0.0
H176 H 0.23576 0.3831 0.09656 0.0
H177 H 0.30316 0.29345 0.0913 0.0
H178 H 0.31484 0.1801 0.10391 0.0
H179 H 0.26713 0.08269 0.12895 0.0
Mn180 Mn 0.25559 0.06183 0.91188 0.0
Mn181 Mn 0.24426 0.95319 0.83491 0.0
C182 C 0.25241 0.96144 0.93204 0.0
C183 C 0.20722 0.12692 0.96025 0.0
C184 C 0.36711 0.01823 0.85792 0.0
O185 O 0.2249 0.10791 0.85893 0.0
O186 O 0.22089 0.03265 0.80914 0.0
C187 C 0.10605 0.95278 0.81984 0.0
N188 N 0.15864 0.92338 0.8325 0.0
C189 C 0.09777 0.83183 0.8465 0.0
C190 C 0.04305 0.86121 0.83376 0.0
C191 C 0.04725 0.92183 0.82015 0.0
C192 C 0.15521 0.86468 0.84492 0.0
H193 H 0.10883 0.99946 0.8095 0.0
C194 C 0.21314 0.08781 0.82062 0.0
O195 O 0.26466 0.13826 0.94709 0.0
O196 O 0.17787 0.07992 0.94406 0.0
N197 N 0.2636 0.87449 0.85634 0.0
C198 C 0.32035 0.85333 0.86935 0.0
C199 C 0.32387 0.79372 0.88479 0.0
C200 C 0.26913 0.75648 0.88665 0.0
C201 C 0.21131 0.77916 0.87294 0.0
C202 C 0.21072 0.83883 0.85761 0.0
H203 H 0.36251 0.88189 0.86841 0.0
O204 O 0.27711 0.00235 0.95777 0.0
O205 O 0.23065 0.98091 0.89493 0.0
O206 O 0.34414 0.05411 0.88609 0.0
O207 O 0.33412 0.97956 0.83611 0.0
C208 C 0.15409 0.7452 0.87459 0.0
C209 C 0.09738 0.77147 0.8613 0.0
H210 H 0.99756 0.83777 0.83459 0.0
H211 H 0.00518 0.94461 0.81006 0.0
H212 H 0.36863 0.77662 0.89548 0.0
H213 H 0.27197 0.71067 0.89891 0.0
H214 H 0.15308 0.69896 0.88635 0.0
H215 H 0.05361 0.74503 0.86296 0.0
Mn216 Mn 0.06441 0.74246 0.09264 0.0
Mn217 Mn 0.94648 0.74729 0.16576 0.0
C218 C 0.96089 0.74833 0.06933 0.0
C219 C 0.13551 0.79342 0.04726 0.0
C220 C 0.01275 0.63204 0.142 0.0
O221 O 0.11105 0.76539 0.14911 0.0
O222 O 0.02755 0.77254 0.19449 0.0
C223 C 0.94777 0.88007 0.17927 0.0
N224 N 0.91621 0.82799 0.16754 0.0
C225 C 0.82325 0.88269 0.1494 0.0
C226 C 0.85436 0.93667 0.16219 0.0
C227 C 0.91696 0.93535 0.17707 0.0
C228 C 0.85605 0.8288 0.15293 0.0
H229 H 0.99634 0.87961 0.18966 0.0
C230 C 0.08692 0.77747 0.18634 0.0
O231 O 0.14471 0.7375 0.05814 0.0
O232 O 0.08867 0.82012 0.06522 0.0
N233 N 0.86601 0.72551 0.14096 0.0
C234 C 0.84455 0.6704 0.12638 0.0
C235 C 0.78371 0.66451 0.10848 0.0
C236 C 0.74565 0.71529 0.10562 0.0
C237 C 0.76874 0.77153 0.12081 0.0
C238 C 0.82946 0.77453 0.13887 0.0
H239 H 0.87381 0.63131 0.12802 0.0
O240 O 0.00349 0.72697 0.04369 0.0
O241 O 0.98056 0.76436 0.10794 0.0
O242 O 0.05019 0.65582 0.11379 0.0
O243 O 0.97356 0.66199 0.16457 0.0
C244 C 0.73443 0.82499 0.11777 0.0
C245 C 0.76166 0.88052 0.13206 0.0
H246 H 0.83102 0.97951 0.16001 0.0
H247 H 0.94162 0.97695 0.18637 0.0
H248 H 0.76636 0.62101 0.0966 0.0
H249 H 0.69902 0.71069 0.09131 0.0
H250 H 0.68741 0.82406 0.10388 0.0
H251 H 0.7352 0.92147 0.12889 0.0
Mn252 Mn 0.74696 0.94212 0.91167 0.0
Mn253 Mn 0.75833 0.05071 0.83469 0.0
C254 C 0.75011 0.04251 0.93182 0.0
C255 C 0.79523 0.87705 0.96008 0.0
C256 C 0.63545 0.98578 0.85772 0.0
O257 O 0.77771 0.896 0.85875 0.0
O258 O 0.78157 0.9712 0.80893 0.0
C259 C 0.89654 0.05089 0.81963 0.0
N260 N 0.84399 0.0804 0.83226 0.0
C261 C 0.90501 0.17189 0.84617 0.0
C262 C 0.95967 0.1424 0.83344 0.0
C263 C 0.95538 0.08176 0.8199 0.0
C264 C 0.84752 0.13912 0.84463 0.0
H265 H 0.89369 0.00419 0.80934 0.0
C266 C 0.78939 0.91606 0.82042 0.0
O267 O 0.73781 0.86572 0.94688 0.0
O268 O 0.82463 0.92403 0.94391 0.0
N269 N 0.73913 0.12947 0.8561 0.0
C270 C 0.68242 0.15074 0.86909 0.0
C271 C 0.67899 0.21038 0.88448 0.0
C272 C 0.73379 0.24756 0.88629 0.0
C273 C 0.79156 0.22478 0.87259 0.0
C274 C 0.79206 0.16506 0.85732 0.0
H275 H 0.64022 0.12223 0.86818 0.0
O276 O 0.72538 1.00161 0.95754 0.0
O277 O 0.77194 0.02304 0.89472 0.0
O278 O 0.65844 0.94984 0.88584 0.0
O279 O 0.66844 0.02447 0.83594 0.0
C280 C 0.84883 0.25867 0.87418 0.0
C281 C 0.9055 0.23229 0.8609 0.0
H282 H 0.00519 0.16579 0.83425 0.0
H283 H 0.99741 0.0589 0.80984 0.0
H284 H 0.63427 0.22757 0.89516 0.0
H285 H 0.73102 0.2934 0.8985 0.0
H286 H 0.84991 0.30493 0.88589 0.0
H287 H 0.9493 0.25868 0.86251 0.0
C288 C 0.99878 0.53353 0.68805 0.0
C289 C 0.9945 0.56521 0.64839 0.0
H290 H 0.00564 0.44658 0.71898 0.0
C291 C 0.9974 0.53317 0.60884 0.0
H292 H 0.99737 0.55748 0.71892 0.0
C293 C 0.00507 0.4706 0.60887 0.0
C294 C 0.00816 0.43867 0.64845 0.0
H295 H 0.99538 0.55678 0.57785 0.0
H296 H 0.00693 0.4469 0.5779 0.0
C297 C 0.00409 0.47046 0.68808 0.0
C298 C 0.50185 0.06523 0.37874 0.0
C299 C 0.55937 0.03519 0.38004 0.0
H300 H 0.40117 0.05721 0.37945 0.0
C301 C 0.55807 0.97152 0.3786 0.0
H302 H 0.50091 0.11417 0.37958 0.0
C303 C 0.50069 0.93871 0.37863 0.0
C304 C 0.44317 0.96874 0.38001 0.0
H305 H 0.60137 0.94673 0.37932 0.0
H306 H 0.50163 0.88976 0.37939 0.0
C307 C 0.44448 0.03242 0.37867 0.0
C308 C 0.99842 0.47027 0.18336 0.0
C309 C 0.99388 0.43849 0.14363 0.0
H310 H 0.00637 0.55781 0.2142 0.0
C311 C 0.99675 0.47066 0.10412 0.0
H312 H 0.99666 0.44617 0.2142 0.0
C313 C 0.00468 0.53338 0.10412 0.0
C314 C 0.00814 0.56551 0.14363 0.0
H315 H 0.99418 0.44709 0.07306 0.0
H316 H 0.00681 0.55697 0.07306 0.0
C317 C 0.00414 0.53372 0.18337 0.0
C318 C 0.46864 0.00677 0.81667 0.0
C319 C 0.43618 0.01313 0.8564 0.0
H320 H 0.55857 0.99419 0.78576 0.0
C321 C 0.46925 0.00801 0.8959 0.0
H322 H 0.44375 0.00973 0.78585 0.0
C323 C 0.53346 0.9962 0.89585 0.0
C324 C 0.56639 0.99095 0.8563 0.0
H325 H 0.44501 0.01148 0.92696 0.0
H326 H 0.55782 0.9928 0.92687 0.0
C327 C 0.5338 0.99724 0.81662 0.0
C328 C 0.22382 0.07564 0.52576 0.0
C329 C 0.21885 0.07903 0.47996 0.0
H330 H 0.19733 0.11366 0.58734 0.0
C331 C 0.19138 0.12988 0.46104 0.0
H332 H 0.24453 0.03699 0.54139 0.0
C333 C 0.16573 0.17455 0.4876 0.0
C334 C 0.16673 0.16841 0.53324 0.0
H335 H 0.18694 0.13366 0.42587 0.0
H336 H 0.14122 0.21148 0.47252 0.0
C337 C 0.19716 0.11956 0.55215 0.0
C338 C 0.18531 0.83974 0.52934 0.0
C339 C 0.19125 0.81124 0.48846 0.0
H340 H 0.13129 0.84434 0.5881 0.0
C341 C 0.16004 0.75552 0.48172 0.0
H342 H 0.20624 0.88448 0.53462 0.0
C343 C 0.12355 0.72878 0.51481 0.0
C344 C 0.11115 0.76074 0.55353 0.0
H345 H 0.15794 0.7356 0.44967 0.0
H346 H 0.09772 0.68697 0.50746 0.0
C347 C 0.14353 0.81602 0.56082 0.0
C348 C 0.77771 0.92724 0.52545 0.0
C349 C 0.78353 0.92444 0.47968 0.0
H350 H 0.80349 0.88874 0.58702 0.0
C351 C 0.81181 0.87405 0.46069 0.0
H352 H 0.75633 0.96551 0.54113 0.0
C353 C 0.83746 0.82934 0.48719 0.0
C354 C 0.8356 0.83493 0.53285 0.0
H355 H 0.81691 0.87072 0.42554 0.0
H356 H 0.86264 0.79285 0.4721 0.0
C357 C 0.80433 0.88325 0.5518 0.0
C358 C 0.81705 0.16405 0.52967 0.0
C359 C 0.8112 0.19248 0.48876 0.0
H360 H 0.87094 0.15953 0.5885 0.0
C361 C 0.84245 0.24818 0.48202 0.0
H362 H 0.79608 0.11933 0.53496 0.0
C363 C 0.87887 0.27496 0.51513 0.0
C364 C 0.89121 0.24305 0.55386 0.0
H365 H 0.84462 0.26805 0.44995 0.0
H366 H 0.90474 0.31675 0.50776 0.0
C367 C 0.85878 0.18781 0.56118 0.0
C368 C 0.73828 0.13034 0.98224 0.0
C369 C 0.77505 0.09838 0.95225 0.0
H370 H 0.73869 0.19331 0.03601 0.0
C371 C 0.84016 0.11058 0.9502 0.0
H372 H 0.68806 0.12052 0.98489 0.0
C373 C 0.86874 0.15094 0.97945 0.0
C374 C 0.83283 0.17983 0.01135 0.0
H375 H 0.86986 0.08508 0.92854 0.0
H376 H 0.91969 0.15682 0.97886 0.0
C377 C 0.76703 0.17165 0.01141 0.0
C378 C 0.17522 0.22629 0.99172 0.0
C379 C 0.176 0.16289 0.99386 0.0
H380 H 0.13046 0.30651 0.01468 0.0
C381 C 0.13951 0.13224 0.02554 0.0
H382 H 0.20271 0.25063 0.96721 0.0
C383 C 0.09972 0.16385 0.05287 0.0
C384 C 0.09542 0.22675 0.04897 0.0
H385 H 0.13951 0.08331 0.02779 0.0
H386 H 0.06899 0.13847 0.07496 0.0
C387 C 0.13415 0.25806 0.01874 0.0
C388 C 0.23527 0.83221 0.01153 0.0
C389 C 0.16947 0.82408 0.01141 0.0
H390 H 0.31433 0.88332 0.98512 0.0
C391 C 0.13363 0.85307 0.97953 0.0
H392 H 0.26355 0.81047 0.03613 0.0
C393 C 0.16229 0.89347 0.95034 0.0
C394 C 0.22741 0.9056 0.95245 0.0
H395 H 0.08268 0.84724 0.97889 0.0
H396 H 0.13263 0.91903 0.9287 0.0
C397 C 0.26411 0.87355 0.98242 0.0
C398 C 0.82707 0.77769 0.99164 0.0
C399 C 0.82637 0.8411 0.99374 0.0
H400 H 0.87171 0.69746 0.01466 0.0
C401 C 0.86283 0.87175 0.02543 0.0
H402 H 0.79959 0.75335 0.96711 0.0
C403 C 0.90255 0.84014 0.0528 0.0
C404 C 0.90679 0.77723 0.04894 0.0
H405 H 0.86289 0.92069 0.02765 0.0
H406 H 0.93327 0.86551 0.0749 0.0
C407 C 0.86806 0.74591 0.0187 0.0
C408 C 0.10654 0.20559 0.77253 0.0
C409 C 0.11466 0.19634 0.72749 0.0
H410 H 0.13301 0.17964 0.83744 0.0
C411 C 0.15885 0.15418 0.71343 0.0
H412 H 0.07271 0.23761 0.78424 0.0
C413 C 0.19216 0.12012 0.74368 0.0
C414 C 0.18342 0.12859 0.78872 0.0
H415 H 0.16566 0.14547 0.67891 0.0
H416 H 0.22401 0.08637 0.73181 0.0
C417 C 0.14131 0.17264 0.80288 0.0
C418 C 0.10394 0.83829 0.25437 0.0
C419 C 0.12857 0.80036 0.22211 0.0
H420 H 0.11992 0.88696 0.31378 0.0
C421 C 0.19207 0.78406 0.22526 0.0
H422 H 0.05535 0.85189 0.25306 0.0
C423 C 0.22918 0.80334 0.26101 0.0
C424 C 0.20398 0.84077 0.2935 0.0
H425 H 0.21239 0.75482 0.20093 0.0
H426 H 0.27723 0.78839 0.26352 0.0
C427 C 0.14128 0.85883 0.28919 0.0
C428 C 0.89622 0.79849 0.7723 0.0
C429 C 0.8879 0.80758 0.72726 0.0
H430 H 0.86989 0.82455 0.83722 0.0
C431 C 0.84351 0.84955 0.71322 0.0
H432 H 0.93021 0.76663 0.784 0.0
C433 C 0.81019 0.8836 0.74349 0.0
C434 C 0.81912 0.87528 0.78852 0.0
H435 H 0.83654 0.85813 0.6787 0.0
H436 H 0.77818 0.91721 0.73162 0.0
C437 C 0.86145 0.83142 0.80266 0.0
C438 C 0.86121 0.14527 0.28933 0.0
C439 C 0.7985 0.16329 0.29369 0.0
H440 H 0.94705 0.1522 0.25312 0.0
C441 C 0.77321 0.20067 0.26121 0.0
H442 H 0.88263 0.11718 0.31391 0.0
C443 C 0.81023 0.21992 0.22541 0.0
C444 C 0.87373 0.20364 0.2222 0.0
H445 H 0.72515 0.21559 0.26375 0.0
H446 H 0.78985 0.24912 0.20109 0.0
C447 C 0.89845 0.16578 0.25447 0.0
loop_
_geom_bond_atom_site_label_1
_geom_bond_atom_site_label_2
_geom_bond_distance
_geom_bond_site_symmetry_2
_ccdc_geom_bond_type
Mn0 O5 2.095 . S
Mn0 O15 2.162 . S
Mn0 O16 2.297 . S
Mn0 O24 2.385 . S
Mn0 O25 2.209 . S
Mn0 O26 2.094 . S
Mn1 O6 2.121 1_655 S
Mn1 N8 2.257 . S
Mn1 N17 2.282 . S
Mn1 O25 2.215 1_655 S
Mn1 O27 2.117 1_655 S
C2 O24 1.234 1_655 S
C2 O25 1.283 1_655 S
C3 O15 1.281 . S
C3 O16 1.236 . S
C4 O26 1.240 . S
C4 O27 1.264 . S
O5 Mn0 2.095 . S
O5 C14 1.250 . S
O6 Mn1 2.121 1_455 S
O6 C14 1.258 . S
C7 N8 1.326 . S
C7 C11 1.460 . S
C7 H13 0.929 . S
N8 Mn1 2.257 . S
N8 C7 1.326 . S
N8 C12 1.362 . S
C9 C10 1.258 . S
C9 C12 1.431 . S
C9 C29 1.449 . S
C10 C9 1.258 . S
C10 C11 1.477 . S
C10 H30 0.931 . S
C11 C7 1.460 . S
C11 C10 1.477 . S
C11 H31 0.930 . S
C12 N8 1.362 . S
C12 C9 1.431 . S
C12 C22 1.476 . S
H13 C7 0.929 . S
C14 O5 1.250 . S
C14 O6 1.258 . S
O15 Mn0 2.162 . S
O15 C3 1.281 . S
O16 Mn0 2.297 . S
O16 C3 1.236 . S
N17 Mn1 2.282 . S
N17 C18 1.328 . S
N17 C22 1.318 . S
C18 N17 1.328 . S
C18 C19 1.457 . S
C18 H23 0.929 . S
C19 C18 1.457 . S
C19 C20 1.291 . S
C19 H32 0.931 . S
C20 C19 1.291 . S
C20 C21 1.373 . S
C20 H33 0.929 . S
C21 C20 1.373 . S
C21 C22 1.396 . S
C21 C28 1.403 . S
C22 C12 1.476 . S
C22 N17 1.318 . S
C22 C21 1.396 . S
H23 C18 0.929 . S
O24 Mn0 2.385 . S
O24 C2 1.234 1_455 S
O25 Mn0 2.209 . S
O25 Mn1 2.215 1_455 S
O25 C2 1.283 1_455 S
O26 Mn0 2.094 . S
O26 C4 1.240 . S
O27 Mn1 2.117 1_455 S
O27 C4 1.264 . S
C28 C21 1.403 . S
C28 C29 1.399 . S
C28 H34 0.929 . S
C29 C9 1.449 . S
C29 C28 1.399 . S
C29 H35 0.930 . S
H30 C10 0.931 . S
H31 C11 0.930 . S
H32 C19 0.931 . S
H33 C20 0.929 . S
H34 C28 0.929 . S
H35 C29 0.930 . S
Mn36 O41 2.095 . S
Mn36 O51 2.162 1_565 S
Mn36 O52 2.297 . S
Mn36 O60 2.385 . S
Mn36 O61 2.209 . S
Mn36 O62 2.094 . S
Mn37 O42 2.121 . S
Mn37 N44 2.257 . S
Mn37 N53 2.282 . S
Mn37 O61 2.215 . S
Mn37 O63 2.117 . S
C38 O60 1.234 . S
C38 O61 1.283 . S
C39 O51 1.281 . S
C39 O52 1.236 1_545 S
C40 O62 1.240 . S
C40 O63 1.264 . S
O41 Mn36 2.095 . S
O41 C50 1.250 . S
O42 Mn37 2.121 . S
O42 C50 1.258 . S
C43 N44 1.326 . S
C43 C47 1.460 . S
C43 H49 0.929 . S
N44 Mn37 2.257 . S
N44 C43 1.326 . S
N44 C48 1.362 . S
C45 C46 1.258 . S
C45 C48 1.431 . S
C45 C65 1.449 . S
C46 C45 1.258 . S
C46 C47 1.477 . S
C46 H66 0.931 . S
C47 C43 1.460 . S
C47 C46 1.477 . S
C47 H67 0.930 . S
C48 N44 1.362 . S
C48 C45 1.431 . S
C48 C58 1.476 . S
H49 C43 0.929 . S
C50 O41 1.250 . S
C50 O42 1.258 . S
O51 Mn36 2.162 1_545 S
O51 C39 1.281 . S
O52 Mn36 2.297 . S
O52 C39 1.236 1_565 S
N53 Mn37 2.282 . S
N53 C54 1.328 . S
N53 C58 1.318 . S
C54 N53 1.328 . S
C54 C55 1.457 . S
C54 H59 0.929 . S
C55 C54 1.457 . S
C55 C56 1.291 . S
C55 H68 0.931 . S
C56 C55 1.291 . S
C56 C57 1.373 . S
C56 H69 0.929 . S
C57 C56 1.373 . S
C57 C58 1.396 . S
C57 C64 1.403 . S
C58 C48 1.476 . S
C58 N53 1.318 . S
C58 C57 1.396 . S
H59 C54 0.929 . S
O60 Mn36 2.385 . S
O60 C38 1.234 . S
O61 Mn36 2.209 . S
O61 Mn37 2.215 . S
O61 C38 1.283 . S
O62 Mn36 2.094 . S
O62 C40 1.240 . S
O63 Mn37 2.117 . S
O63 C40 1.264 . S
C64 C57 1.403 . S
C64 C65 1.399 . S
C64 H70 0.929 . S
C65 C45 1.449 . S
C65 C64 1.399 . S
C65 H71 0.930 . S
H66 C46 0.931 . S
H67 C47 0.930 . S
H68 C55 0.931 . S
H69 C56 0.929 . S
H70 C64 0.929 . S
H71 C65 0.930 . S
Mn72 O77 2.095 . S
Mn72 O87 2.162 . S
Mn72 O88 2.297 . S
Mn72 O96 2.385 . S
Mn72 O97 2.209 . S
Mn72 O98 2.094 . S
Mn73 O78 2.121 1_455 S
Mn73 N80 2.257 . S
Mn73 N89 2.282 . S
Mn73 O97 2.215 1_455 S
Mn73 O99 2.117 1_455 S
C74 O96 1.234 1_455 S
C74 O97 1.283 1_455 S
C75 O87 1.281 . S
C75 O88 1.236 . S
C76 O98 1.240 . S
C76 O99 1.264 . S
O77 Mn72 2.095 . S
O77 C86 1.250 . S
O78 Mn73 2.121 1_655 S
O78 C86 1.258 . S
C79 N80 1.326 . S
C79 C83 1.460 . S
C79 H85 0.929 . S
N80 Mn73 2.257 . S
N80 C79 1.326 . S
N80 C84 1.362 . S
C81 C82 1.258 . S
C81 C84 1.431 . S
C81 C101 1.449 . S
C82 C81 1.258 . S
C82 C83 1.477 . S
C82 H102 0.931 . S
C83 C79 1.460 . S
C83 C82 1.477 . S
C83 H103 0.930 . S
C84 N80 1.362 . S
C84 C81 1.431 . S
C84 C94 1.476 . S
H85 C79 0.929 . S
C86 O77 1.250 . S
C86 O78 1.258 . S
O87 Mn72 2.162 . S
O87 C75 1.281 . S
O88 Mn72 2.297 . S
O88 C75 1.236 . S
N89 Mn73 2.282 . S
N89 C90 1.328 . S
N89 C94 1.318 . S
C90 N89 1.328 . S
C90 C91 1.457 . S
C90 H95 0.929 . S
C91 C90 1.457 . S
C91 C92 1.291 . S
C91 H104 0.931 . S
C92 C91 1.291 . S
C92 C93 1.373 . S
C92 H105 0.929 . S
C93 C92 1.373 . S
C93 C94 1.396 . S
C93 C100 1.403 . S
C94 C84 1.476 . S
C94 N89 1.318 . S
C94 C93 1.396 . S
H95 C90 0.929 . S
O96 Mn72 2.385 . S
O96 C74 1.234 1_655 S
O97 Mn72 2.209 . S
O97 Mn73 2.215 1_655 S
O97 C74 1.283 1_655 S
O98 Mn72 2.094 . S
O98 C76 1.240 . S
O99 Mn73 2.117 1_655 S
O99 C76 1.264 . S
C100 C93 1.403 . S
C100 C101 1.399 . S
C100 H106 0.929 . S
C101 C81 1.449 . S
C101 C100 1.399 . S
C101 H107 0.930 . S
H102 C82 0.931 . S
H103 C83 0.930 . S
H104 C91 0.931 . S
H105 C92 0.929 . S
H106 C100 0.929 . S
H107 C101 0.930 . S
Mn108 O113 2.095 . S
Mn108 O123 2.162 1_545 S
Mn108 O124 2.297 . S
Mn108 O132 2.385 . S
Mn108 O133 2.209 . S
Mn108 O134 2.094 . S
Mn109 O114 2.121 . S
Mn109 N116 2.257 . S
Mn109 N125 2.282 . S
Mn109 O133 2.215 . S
Mn109 O135 2.117 . S
C110 O132 1.234 . S
C110 O133 1.283 . S
C111 O123 1.281 . S
C111 O124 1.236 1_565 S
C112 O134 1.240 . S
C112 O135 1.264 . S
O113 Mn108 2.095 . S
O113 C122 1.250 . S
O114 Mn109 2.121 . S
O114 C122 1.258 . S
C115 N116 1.326 . S
C115 C119 1.460 . S
C115 H121 0.929 . S
N116 Mn109 2.257 . S
N116 C115 1.326 . S
N116 C120 1.362 . S
C117 C118 1.258 . S
C117 C120 1.431 . S
C117 C137 1.449 . S
C118 C117 1.258 . S
C118 C119 1.477 . S
C118 H138 0.931 . S
C119 C115 1.460 . S
C119 C118 1.477 . S
C119 H139 0.930 . S
C120 N116 1.362 . S
C120 C117 1.431 . S
C120 C130 1.476 . S
H121 C115 0.929 . S
C122 O113 1.250 . S
C122 O114 1.258 . S
O123 Mn108 2.162 1_565 S
O123 C111 1.281 . S
O124 Mn108 2.297 . S
O124 C111 1.236 1_545 S
N125 Mn109 2.282 . S
N125 C126 1.328 . S
N125 C130 1.318 . S
C126 N125 1.328 . S
C126 C127 1.457 . S
C126 H131 0.929 . S
C127 C126 1.457 . S
C127 C128 1.291 . S
C127 H140 0.931 . S
C128 C127 1.291 . S
C128 C129 1.373 . S
C128 H141 0.929 . S
C129 C128 1.373 . S
C129 C130 1.396 . S
C129 C136 1.403 . S
C130 C120 1.476 . S
C130 N125 1.318 . S
C130 C129 1.396 . S
H131 C126 0.929 . S
O132 Mn108 2.385 . S
O132 C110 1.234 . S
O133 Mn108 2.209 . S
O133 Mn109 2.215 . S
O133 C110 1.283 . S
O134 Mn108 2.094 . S
O134 C112 1.240 . S
O135 Mn109 2.117 . S
O135 C112 1.264 . S
C136 C129 1.403 . S
C136 C137 1.399 . S
C136 H142 0.929 . S
C137 C117 1.449 . S
C137 C136 1.399 . S
C137 H143 0.930 . S
H138 C118 0.931 . S
H139 C119 0.930 . S
H140 C127 0.931 . S
H141 C128 0.929 . S
H142 C136 0.929 . S
H143 C137 0.930 . S
Mn144 O149 2.095 . S
Mn144 O159 2.162 . S
Mn144 O160 2.297 . S
Mn144 O168 2.385 . S
Mn144 O169 2.209 . S
Mn144 O170 2.094 . S
Mn145 O150 2.121 1_455 S
Mn145 N152 2.257 . S
Mn145 N161 2.282 . S
Mn145 O169 2.215 1_455 S
Mn145 O171 2.117 1_455 S
C146 O168 1.234 1_455 S
C146 O169 1.283 1_455 S
C147 O159 1.281 . S
C147 O160 1.236 . S
C148 O170 1.240 . S
C148 O171 1.264 . S
O149 Mn144 2.095 . S
O149 C158 1.250 . S
O150 Mn145 2.121 1_655 S
O150 C158 1.258 . S
C151 N152 1.326 . S
C151 C155 1.460 . S
C151 H157 0.929 . S
N152 Mn145 2.257 . S
N152 C151 1.326 . S
N152 C156 1.362 . S
C153 C154 1.258 . S
C153 C156 1.431 . S
C153 C173 1.449 . S
C154 C153 1.258 . S
C154 C155 1.477 . S
C154 H174 0.931 . S
C155 C151 1.460 . S
C155 C154 1.477 . S
C155 H175 0.930 . S
C156 N152 1.362 . S
C156 C153 1.431 . S
C156 C166 1.476 . S
H157 C151 0.929 . S
C158 O149 1.250 . S
C158 O150 1.258 . S
O159 Mn144 2.162 . S
O159 C147 1.281 . S
O160 Mn144 2.297 . S
O160 C147 1.236 . S
N161 Mn145 2.282 . S
N161 C162 1.328 . S
N161 C166 1.318 . S
C162 N161 1.328 . S
C162 C163 1.457 . S
C162 H167 0.929 . S
C163 C162 1.457 . S
C163 C164 1.291 . S
C163 H176 0.931 . S
C164 C163 1.291 . S
C164 C165 1.373 . S
C164 H177 0.929 . S
C165 C164 1.373 . S
C165 C166 1.396 . S
C165 C172 1.403 . S
C166 C156 1.476 . S
C166 N161 1.318 . S
C166 C165 1.396 . S
H167 C162 0.929 . S
O168 Mn144 2.385 . S
O168 C146 1.234 1_655 S
O169 Mn144 2.209 . S
O169 Mn145 2.215 1_655 S
O169 C146 1.283 1_655 S
O170 Mn144 2.094 . S
O170 C148 1.240 . S
O171 Mn145 2.117 1_655 S
O171 C148 1.264 . S
C172 C165 1.403 . S
C172 C173 1.399 . S
C172 H178 0.929 . S
C173 C153 1.449 . S
C173 C172 1.399 . S
C173 H179 0.930 . S
H174 C154 0.931 . S
H175 C155 0.930 . S
H176 C163 0.931 . S
H177 C164 0.929 . S
H178 C172 0.929 . S
H179 C173 0.930 . S
Mn180 O185 2.095 . S
Mn180 O195 2.162 . S
Mn180 O196 2.297 . S
Mn180 O204 2.385 . S
Mn180 O205 2.209 . S
Mn180 O206 2.094 . S
Mn181 O186 2.121 1_565 S
Mn181 N188 2.257 . S
Mn181 N197 2.282 . S
Mn181 O205 2.215 1_565 S
Mn181 O207 2.117 1_565 S
C182 O204 1.234 . S
C182 O205 1.283 . S
C183 O195 1.281 . S
C183 O196 1.236 . S
C184 O206 1.240 . S
C184 O207 1.264 . S
O185 Mn180 2.095 . S
O185 C194 1.250 . S
O186 Mn181 2.121 1_545 S
O186 C194 1.258 . S
C187 N188 1.326 . S
C187 C191 1.460 . S
C187 H193 0.929 . S
N188 Mn181 2.257 . S
N188 C187 1.326 . S
N188 C192 1.362 . S
C189 C190 1.258 . S
C189 C192 1.431 . S
C189 C209 1.449 . S
C190 C189 1.258 . S
C190 C191 1.477 . S
C190 H210 0.931 . S
C191 C187 1.460 . S
C191 C190 1.477 . S
C191 H211 0.930 . S
C192 N188 1.362 . S
C192 C189 1.431 . S
C192 C202 1.476 . S
H193 C187 0.929 . S
C194 O185 1.250 . S
C194 O186 1.258 . S
O195 Mn180 2.162 . S
O195 C183 1.281 . S
O196 Mn180 2.297 . S
O196 C183 1.236 . S
N197 Mn181 2.282 . S
N197 C198 1.328 . S
N197 C202 1.318 . S
C198 N197 1.328 . S
C198 C199 1.457 . S
C198 H203 0.929 . S
C199 C198 1.457 . S
C199 C200 1.291 . S
C199 H212 0.931 . S
C200 C199 1.291 . S
C200 C201 1.373 . S
C200 H213 0.929 . S
C201 C200 1.373 . S
C201 C202 1.396 . S
C201 C208 1.403 . S
C202 C192 1.476 . S
C202 N197 1.318 . S
C202 C201 1.396 . S
H203 C198 0.929 . S
O204 Mn180 2.385 . S
O204 C182 1.234 . S
O205 Mn180 2.209 . S
O205 Mn181 2.215 1_545 S
O205 C182 1.283 . S
O206 Mn180 2.094 . S
O206 C184 1.240 . S
O207 Mn181 2.117 1_545 S
O207 C184 1.264 . S
C208 C201 1.403 . S
C208 C209 1.399 . S
C208 H214 0.929 . S
C209 C189 1.449 . S
C209 C208 1.399 . S
C209 H215 0.930 . S
H210 C190 0.931 . S
H211 C191 0.930 . S
H212 C199 0.931 . S
H213 C200 0.929 . S
H214 C208 0.929 . S
H215 C209 0.930 . S
Mn216 O221 2.095 . S
Mn216 O231 2.162 . S
Mn216 O232 2.297 . S
Mn216 O240 2.385 . S
Mn216 O241 2.209 . S
Mn216 O242 2.094 . S
Mn217 O222 2.121 1_655 S
Mn217 N224 2.257 . S
Mn217 N233 2.282 . S
Mn217 O241 2.215 1_655 S
Mn217 O243 2.117 1_655 S
C218 O240 1.234 1_655 S
C218 O241 1.283 1_655 S
C219 O231 1.281 . S
C219 O232 1.236 . S
C220 O242 1.240 . S
C220 O243 1.264 . S
O221 Mn216 2.095 . S
O221 C230 1.250 . S
O222 Mn217 2.121 1_455 S
O222 C230 1.258 . S
C223 N224 1.326 . S
C223 C227 1.460 . S
C223 H229 0.929 . S
N224 Mn217 2.257 . S
N224 C223 1.326 . S
N224 C228 1.362 . S
C225 C226 1.258 . S
C225 C228 1.431 . S
C225 C245 1.449 . S
C226 C225 1.258 . S
C226 C227 1.477 . S
C226 H246 0.931 . S
C227 C223 1.460 . S
C227 C226 1.477 . S
C227 H247 0.930 . S
C228 N224 1.362 . S
C228 C225 1.431 . S
C228 C238 1.476 . S
H229 C223 0.929 . S
C230 O221 1.250 . S
C230 O222 1.258 . S
O231 Mn216 2.162 . S
O231 C219 1.281 . S
O232 Mn216 2.297 . S
O232 C219 1.236 . S
N233 Mn217 2.282 . S
N233 C234 1.328 . S
N233 C238 1.318 . S
C234 N233 1.328 . S
C234 C235 1.457 . S
C234 H239 0.929 . S
C235 C234 1.457 . S
C235 C236 1.291 . S
C235 H248 0.931 . S
C236 C235 1.291 . S
C236 C237 1.373 . S
C236 H249 0.929 . S
C237 C236 1.373 . S
C237 C238 1.396 . S
C237 C244 1.403 . S
C238 C228 1.476 . S
C238 N233 1.318 . S
C238 C237 1.396 . S
H239 C234 0.929 . S
O240 Mn216 2.385 . S
O240 C218 1.234 1_455 S
O241 Mn216 2.209 . S
O241 Mn217 2.215 1_455 S
O241 C218 1.283 1_455 S
O242 Mn216 2.094 . S
O242 C220 1.240 . S
O243 Mn217 2.117 1_455 S
O243 C220 1.264 . S
C244 C237 1.403 . S
C244 C245 1.399 . S
C244 H250 0.929 . S
C245 C225 1.449 . S
C245 C244 1.399 . S
C245 H251 0.930 . S
H246 C226 0.931 . S
H247 C227 0.930 . S
H248 C235 0.931 . S
H249 C236 0.929 . S
H250 C244 0.929 . S
H251 C245 0.930 . S
Mn252 O257 2.095 . S
Mn252 O267 2.162 . S
Mn252 O268 2.297 . S
Mn252 O276 2.385 . S
Mn252 O277 2.209 . S
Mn252 O278 2.094 . S
Mn253 O258 2.121 1_545 S
Mn253 N260 2.257 . S
Mn253 N269 2.282 . S
Mn253 O277 2.215 1_545 S
Mn253 O279 2.117 1_545 S
C254 O276 1.234 . S
C254 O277 1.283 . S
C255 O267 1.281 . S
C255 O268 1.236 . S
C256 O278 1.240 . S
C256 O279 1.264 . S
O257 Mn252 2.095 . S
O257 C266 1.250 . S
O258 Mn253 2.121 1_565 S
O258 C266 1.258 . S
C259 N260 1.326 . S
C259 C263 1.460 . S
C259 H265 0.929 . S
N260 Mn253 2.257 . S
N260 C259 1.326 . S
N260 C264 1.362 . S
C261 C262 1.258 . S
C261 C264 1.431 . S
C261 C281 1.449 . S
C262 C261 1.258 . S
C262 C263 1.477 . S
C262 H282 0.931 . S
C263 C259 1.460 . S
C263 C262 1.477 . S
C263 H283 0.930 . S
C264 N260 1.362 . S
C264 C261 1.431 . S
C264 C274 1.476 . S
H265 C259 0.929 . S
C266 O257 1.250 . S
C266 O258 1.258 . S
O267 Mn252 2.162 . S
O267 C255 1.281 . S
O268 Mn252 2.297 . S
O268 C255 1.236 . S
N269 Mn253 2.282 . S
N269 C270 1.328 . S
N269 C274 1.318 . S
C270 N269 1.328 . S
C270 C271 1.457 . S
C270 H275 0.929 . S
C271 C270 1.457 . S
C271 C272 1.291 . S
C271 H284 0.931 . S
C272 C271 1.291 . S
C272 C273 1.373 . S
C272 H285 0.929 . S
C273 C272 1.373 . S
C273 C274 1.396 . S
C273 C280 1.403 . S
C274 C264 1.476 . S
C274 N269 1.318 . S
C274 C273 1.396 . S
H275 C270 0.929 . S
O276 Mn252 2.385 . S
O276 C254 1.234 . S
O277 Mn252 2.209 . S
O277 Mn253 2.215 1_565 S
O277 C254 1.283 . S
O278 Mn252 2.094 . S
O278 C256 1.240 . S
O279 Mn253 2.117 1_565 S
O279 C256 1.264 . S
C280 C273 1.403 . S
C280 C281 1.399 . S
C280 H286 0.929 . S
C281 C261 1.449 . S
C281 C280 1.399 . S
C281 H287 0.930 . S
H282 C262 0.931 . S
H283 C263 0.930 . S
H284 C271 0.931 . S
H285 C272 0.929 . S
H286 C280 0.929 . S
H287 C281 0.930 . S
C288 C289 1.387 . S
C288 H292 0.950 . S
C288 C297 1.390 1_655 S
C289 C288 1.387 . S
C289 C291 1.387 . S
H290 C297 0.950 . S
C291 C289 1.387 . S
C291 C293 1.390 1_655 S
C291 H295 0.950 . S
H292 C288 0.950 . S
C293 C291 1.390 1_455 S
C293 C294 1.387 . S
C293 H296 0.950 . S
C294 C293 1.387 . S
C294 C297 1.387 . S
H295 C291 0.950 . S
H296 C293 0.950 . S
C297 C288 1.390 1_455 S
C297 H290 0.950 . S
C297 C294 1.387 . S
C298 C299 1.387 . S
C298 H302 0.950 . S
C298 C307 1.390 1_545 S
C299 C298 1.387 . S
C299 C301 1.387 . S
H300 C307 0.950 . S
C301 C299 1.387 . S
C301 C303 1.390 1_545 S
C301 H305 0.950 . S
H302 C298 0.950 . S
C303 C301 1.390 1_565 S
C303 C304 1.387 . S
C303 H306 0.950 . S
C304 C303 1.387 . S
C304 C307 1.387 . S
H305 C301 0.950 . S
H306 C303 0.950 . S
C307 C298 1.390 1_565 S
C307 H300 0.950 . S
C307 C304 1.387 . S
C308 C309 1.387 . S
C308 H312 0.950 . S
C308 C317 1.390 1_655 S
C309 C308 1.387 . S
C309 C311 1.387 . S
H310 C317 0.950 . S
C311 C309 1.387 . S
C311 C313 1.390 1_655 S
C311 H315 0.950 . S
H312 C308 0.950 . S
C313 C311 1.390 1_455 S
C313 C314 1.387 . S
C313 H316 0.950 . S
C314 C313 1.387 . S
C314 C317 1.387 . S
H315 C311 0.950 . S
H316 C313 0.950 . S
C317 C308 1.390 1_455 S
C317 H310 0.950 . S
C317 C314 1.387 . S
C318 C319 1.387 . S
C318 H322 0.950 . S
C318 C327 1.390 1_545 S
C319 C318 1.387 . S
C319 C321 1.387 . S
H320 C327 0.950 . S
C321 C319 1.387 . S
C321 C323 1.390 1_545 S
C321 H325 0.950 . S
H322 C318 0.950 . S
C323 C321 1.390 1_565 S
C323 C324 1.387 . S
C323 H326 0.950 . S
C324 C323 1.387 . S
C324 C327 1.387 . S
H325 C321 0.950 . S
H326 C323 0.950 . S
C327 C318 1.390 1_565 S
C327 H320 0.950 . S
C327 C324 1.387 . S
C328 C329 1.387 . S
C328 H332 0.950 . S
C328 C337 1.390 . S
C329 C328 1.387 . S
C329 C331 1.387 . S
H330 C337 0.950 . S
C331 C329 1.387 . S
C331 C333 1.390 . S
C331 H335 0.950 . S
H332 C328 0.950 . S
C333 C331 1.390 . S
C333 C334 1.387 . S
C333 H336 0.950 . S
C334 C333 1.387 . S
C334 C337 1.387 . S
H335 C331 0.950 . S
H336 C333 0.950 . S
C337 C328 1.390 . S
C337 H330 0.950 . S
C337 C334 1.387 . S
C338 C339 1.387 . S
C338 H342 0.950 . S
C338 C347 1.390 . S
C339 C338 1.387 . S
C339 C341 1.387 . S
H340 C347 0.950 . S
C341 C339 1.387 . S
C341 C343 1.390 . S
C341 H345 0.950 . S
H342 C338 0.950 . S
C343 C341 1.390 . S
C343 C344 1.387 . S
C343 H346 0.950 . S
C344 C343 1.387 . S
C344 C347 1.387 . S
H345 C341 0.950 . S
H346 C343 0.950 . S
C347 C338 1.390 . S
C347 H340 0.950 . S
C347 C344 1.387 . S
C348 C349 1.387 . S
C348 H352 0.950 . S
C348 C357 1.390 . S
C349 C348 1.387 . S
C349 C351 1.387 . S
H350 C357 0.950 . S
C351 C349 1.387 . S
C351 C353 1.390 . S
C351 H355 0.950 . S
H352 C348 0.950 . S
C353 C351 1.390 . S
C353 C354 1.387 . S
C353 H356 0.950 . S
C354 C353 1.387 . S
C354 C357 1.387 . S
H355 C351 0.950 . S
H356 C353 0.950 . S
C357 C348 1.390 . S
C357 H350 0.950 . S
C357 C354 1.387 . S
C358 C359 1.387 . S
C358 H362 0.950 . S
C358 C367 1.390 . S
C359 C358 1.387 . S
C359 C361 1.387 . S
H360 C367 0.950 . S
C361 C359 1.387 . S
C361 C363 1.390 . S
C361 H365 0.950 . S
H362 C358 0.950 . S
C363 C361 1.390 . S
C363 C364 1.387 . S
C363 H366 0.950 . S
C364 C363 1.387 . S
C364 C367 1.387 . S
H365 C361 0.950 . S
H366 C363 0.950 . S
C367 C358 1.390 . S
C367 H360 0.950 . S
C367 C364 1.387 . S
C368 C369 1.387 . S
C368 H372 0.950 . S
C368 C377 1.400 . S
C369 C368 1.387 . S
C369 C371 1.387 . S
H370 C377 0.944 1_554 S
C371 C369 1.387 . S
C371 C373 1.390 . S
C371 H375 0.950 . S
H372 C368 0.950 . S
C373 C371 1.390 . S
C373 C374 1.387 1_556 S
C373 H376 0.950 1_556 S
C374 C373 1.387 1_554 S
C374 C377 1.383 1_554 S
H375 C371 0.950 . S
H376 C373 0.950 1_554 S
C377 C368 1.400 . S
C377 H370 0.944 1_556 S
C377 C374 1.383 1_556 S
C378 C379 1.387 . S
C378 H382 0.950 . S
C378 C387 1.390 1_556 S
C379 C378 1.387 . S
C379 C381 1.387 1_556 S
H380 C387 0.950 . S
C381 C379 1.387 1_554 S
C381 C383 1.390 . S
C381 H385 0.950 1_554 S
H382 C378 0.950 . S
C383 C381 1.390 . S
C383 C384 1.387 . S
C383 H386 0.950 . S
C384 C383 1.387 . S
C384 C387 1.387 . S
H385 C381 0.950 1_556 S
H386 C383 0.950 . S
C387 C378 1.390 1_554 S
C387 H380 0.950 . S
C387 C384 1.387 . S
C388 C389 1.387 1_556 S
C388 H392 0.950 . S
C388 C397 1.390 . S
C389 C388 1.387 1_554 S
C389 C391 1.387 . S
H390 C397 0.950 . S
C391 C389 1.387 . S
C391 C393 1.390 1_554 S
C391 H395 0.950 . S
H392 C388 0.950 . S
C393 C391 1.390 1_556 S
C393 C394 1.387 . S
C393 H396 0.950 . S
C394 C393 1.387 . S
C394 C397 1.387 . S
H395 C391 0.950 . S
H396 C393 0.950 . S
C397 C388 1.390 . S
C397 H390 0.950 . S
C397 C394 1.387 . S
C398 C399 1.387 . S
C398 H402 0.950 . S
C398 C407 1.390 1_556 S
C399 C398 1.387 . S
C399 C401 1.387 . S
H400 C407 0.950 . S
C401 C399 1.387 . S
C401 C403 1.390 1_556 S
C401 H405 0.950 . S
H402 C398 0.950 . S
C403 C401 1.390 1_554 S
C403 C404 1.387 . S
C403 H406 0.950 . S
C404 C403 1.387 . S
C404 C407 1.387 . S
H405 C401 0.950 . S
H406 C403 0.950 . S
C407 C398 1.390 1_554 S
C407 H400 0.950 . S
C407 C404 1.387 . S
C408 C409 1.387 . S
C408 H412 0.950 . S
C408 C417 1.390 . S
C409 C408 1.387 . S
C409 C411 1.387 . S
H410 C417 0.950 . S
C411 C409 1.387 . S
C411 C413 1.390 . S
C411 H415 0.950 . S
H412 C408 0.950 . S
C413 C411 1.390 . S
C413 C414 1.387 . S
C413 H416 0.950 . S
C414 C413 1.387 . S
C414 C417 1.387 . S
H415 C411 0.950 . S
H416 C413 0.950 . S
C417 C408 1.390 . S
C417 H410 0.950 . S
C417 C414 1.387 . S
C418 C419 1.387 . S
C418 H422 0.950 . S
C418 C427 1.390 . S
C419 C418 1.387 . S
C419 C421 1.387 . S
H420 C427 0.950 . S
C421 C419 1.387 . S
C421 C423 1.390 . S
C421 H425 0.950 . S
H422 C418 0.950 . S
C423 C421 1.390 . S
C423 C424 1.387 . S
C423 H426 0.950 . S
C424 C423 1.387 . S
C424 C427 1.387 . S
H425 C421 0.950 . S
H426 C423 0.950 . S
C427 C418 1.390 . S
C427 H420 0.950 . S
C427 C424 1.387 . S
C428 C429 1.387 . S
C428 H432 0.950 . S
C428 C437 1.390 . S
C429 C428 1.387 . S
C429 C431 1.387 . S
H430 C437 0.950 . S
C431 C429 1.387 . S
C431 C433 1.390 . S
C431 H435 0.950 . S
H432 C428 0.950 . S
C433 C431 1.390 . S
C433 C434 1.387 . S
C433 H436 0.950 . S
C434 C433 1.387 . S
C434 C437 1.387 . S
H435 C431 0.950 . S
H436 C433 0.950 . S
C437 C428 1.390 . S
C437 H430 0.950 . S
C437 C434 1.387 . S
C438 C439 1.387 . S
C438 H442 0.950 . S
C438 C447 1.390 . S
C439 C438 1.387 . S
C439 C441 1.387 . S
H440 C447 0.950 . S
C441 C439 1.387 . S
C441 C443 1.390 . S
C441 H445 0.950 . S
H442 C438 0.950 . S
C443 C441 1.390 . S
C443 C444 1.387 . S
C443 H446 0.950 . S
C444 C443 1.387 . S
C444 C447 1.387 . S
H445 C441 0.950 . S
H446 C443 0.950 . S
C447 C438 1.390 . S
C447 H440 0.950 . S
C447 C444 1.387 . S
C289 C76 1.457 . S
C294 C4 1.457 . S
C299 C122 1.709 . S
C304 C50 1.709 . S
C309 C148 1.492 . S
C314 C220 1.492 . S
C319 C184 1.522 . S
C324 C256 1.522 . S
C329 C39 1.155 . S
C334 C3 1.132 . S
C339 C38 1.266 . S
C344 C74 1.322 . S
C349 C111 1.155 . S
C354 C75 1.132 . S
C359 C110 1.266 . S
C364 C2 1.322 . S
C369 C254 1.268 1_545 S
C374 C147 1.258 . S
C379 C183 1.191 . S
C384 C146 1.194 . S
C389 C219 1.258 . S
C394 C182 1.268 1_565 S
C399 C255 1.191 . S
C404 C218 1.194 . S
C409 C14 1.694 . S
C414 C194 1.690 . S
C419 C230 1.650 . S
C424 C40 1.634 . S
C429 C86 1.694 . S
C434 C266 1.689 . S
C439 C112 1.634 . S
C444 C158 1.651 . S
