# Generated by pormake.
# Topology whz, (6)-cn, num edge types: 1
# Building blocks:
#     Node 0, Type 0, BuildingBlock: FUNLAD_clean_sbu_0, # of connection points: 6
#     Node 1, Type 0, BuildingBlock: FUNLAD_clean_sbu_0, # of connection points: 6
#     Node 2, Type 0, BuildingBlock: FUNLAD_clean_sbu_0, # of connection points: 6
#     Node 3, Type 0, BuildingBlock: FUNLAD_clean_sbu_0, # of connection points: 6
#     Node 4, Type 0, BuildingBlock: FUNLAD_clean_sbu_0, # of connection points: 6
#     Node 5, Type 0, BuildingBlock: FUNLAD_clean_sbu_0, # of connection points: 6
#     Node 6, Type 0, BuildingBlock: FUNLAD_clean_sbu_0, # of connection points: 6
#     Node 7, Type 0, BuildingBlock: FUNLAD_clean_sbu_0, # of connection points: 6
#     Node 8, Type 0, BuildingBlock: FUNLAD_clean_sbu_0, # of connection points: 6
#     Node 9, Type 0, BuildingBlock: FUNLAD_clean_sbu_0, # of connection points: 6
#     Node 10, Type 0, BuildingBlock: FUNLAD_clean_sbu_0, # of connection points: 6
#     Node 11, Type 0, BuildingBlock: FUNLAD_clean_sbu_0, # of connection points: 6
#     Node 12, Type 0, BuildingBlock: FUNLAD_clean_sbu_0, # of connection points: 6
#     Node 13, Type 0, BuildingBlock: FUNLAD_clean_sbu_0, # of connection points: 6
#     Node 14, Type 0, BuildingBlock: FUNLAD_clean_sbu_0, # of connection points: 6
#     Node 15, Type 0, BuildingBlock: FUNLAD_clean_sbu_0, # of connection points: 6
#     Edge 16, Type (0, 0), BuildingBlock: OJICUG_clean_linker_0, # of connection points: 2
#     Edge 17, Type (0, 0), BuildingBlock: OJICUG_clean_linker_0, # of connection points: 2
#     Edge 18, Type (0, 0), BuildingBlock: OJICUG_clean_linker_0, # of connection points: 2
#     Edge 19, Type (0, 0), BuildingBlock: OJICUG_clean_linker_0, # of connection points: 2
#     Edge 20, Type (0, 0), BuildingBlock: OJICUG_clean_linker_0, # of connection points: 2
#     Edge 21, Type (0, 0), BuildingBlock: OJICUG_clean_linker_0, # of connection points: 2
#     Edge 22, Type (0, 0), BuildingBlock: OJICUG_clean_linker_0, # of connection points: 2
#     Edge 23, Type (0, 0), BuildingBlock: OJICUG_clean_linker_0, # of connection points: 2
#     Edge 24, Type (0, 0), BuildingBlock: OJICUG_clean_linker_0, # of connection points: 2
#     Edge 25, Type (0, 0), BuildingBlock: OJICUG_clean_linker_0, # of connection points: 2
#     Edge 26, Type (0, 0), BuildingBlock: OJICUG_clean_linker_0, # of connection points: 2
#     Edge 27, Type (0, 0), BuildingBlock: OJICUG_clean_linker_0, # of connection points: 2
#     Edge 28, Type (0, 0), BuildingBlock: OJICUG_clean_linker_0, # of connection points: 2
#     Edge 29, Type (0, 0), BuildingBlock: OJICUG_clean_linker_0, # of connection points: 2
#     Edge 30, Type (0, 0), BuildingBlock: OJICUG_clean_linker_0, # of connection points: 2
#     Edge 31, Type (0, 0), BuildingBlock: OJICUG_clean_linker_0, # of connection points: 2
#     Edge 32, Type (0, 0), BuildingBlock: OJICUG_clean_linker_0, # of connection points: 2
#     Edge 33, Type (0, 0), BuildingBlock: OJICUG_clean_linker_0, # of connection points: 2
#     Edge 34, Type (0, 0), BuildingBlock: OJICUG_clean_linker_0, # of connection points: 2
#     Edge 35, Type (0, 0), BuildingBlock: OJICUG_clean_linker_0, # of connection points: 2
#     Edge 36, Type (0, 0), BuildingBlock: OJICUG_clean_linker_0, # of connection points: 2
#     Edge 37, Type (0, 0), BuildingBlock: OJICUG_clean_linker_0, # of connection points: 2
#     Edge 38, Type (0, 0), BuildingBlock: OJICUG_clean_linker_0, # of connection points: 2
#     Edge 39, Type (0, 0), BuildingBlock: OJICUG_clean_linker_0, # of connection points: 2
#     Edge 40, Type (0, 0), BuildingBlock: OJICUG_clean_linker_0, # of connection points: 2
#     Edge 41, Type (0, 0), BuildingBlock: OJICUG_clean_linker_0, # of connection points: 2
#     Edge 42, Type (0, 0), BuildingBlock: OJICUG_clean_linker_0, # of connection points: 2
#     Edge 43, Type (0, 0), BuildingBlock: OJICUG_clean_linker_0, # of connection points: 2
#     Edge 44, Type (0, 0), BuildingBlock: OJICUG_clean_linker_0, # of connection points: 2
#     Edge 45, Type (0, 0), BuildingBlock: OJICUG_clean_linker_0, # of connection points: 2
#     Edge 46, Type (0, 0), BuildingBlock: OJICUG_clean_linker_0, # of connection points: 2
#     Edge 47, Type (0, 0), BuildingBlock: OJICUG_clean_linker_0, # of connection points: 2
#     Edge 48, Type (0, 0), BuildingBlock: OJICUG_clean_linker_0, # of connection points: 2
#     Edge 49, Type (0, 0), BuildingBlock: OJICUG_clean_linker_0, # of connection points: 2
#     Edge 50, Type (0, 0), BuildingBlock: OJICUG_clean_linker_0, # of connection points: 2
#     Edge 51, Type (0, 0), BuildingBlock: OJICUG_clean_linker_0, # of connection points: 2
#     Edge 52, Type (0, 0), BuildingBlock: OJICUG_clean_linker_0, # of connection points: 2
#     Edge 53, Type (0, 0), BuildingBlock: OJICUG_clean_linker_0, # of connection points: 2
#     Edge 54, Type (0, 0), BuildingBlock: OJICUG_clean_linker_0, # of connection points: 2
#     Edge 55, Type (0, 0), BuildingBlock: OJICUG_clean_linker_0, # of connection points: 2
#     Edge 56, Type (0, 0), BuildingBlock: OJICUG_clean_linker_0, # of connection points: 2
#     Edge 57, Type (0, 0), BuildingBlock: OJICUG_clean_linker_0, # of connection points: 2
#     Edge 58, Type (0, 0), BuildingBlock: OJICUG_clean_linker_0, # of connection points: 2
#     Edge 59, Type (0, 0), BuildingBlock: OJICUG_clean_linker_0, # of connection points: 2
#     Edge 60, Type (0, 0), BuildingBlock: OJICUG_clean_linker_0, # of connection points: 2
#     Edge 61, Type (0, 0), BuildingBlock: OJICUG_clean_linker_0, # of connection points: 2
#     Edge 62, Type (0, 0), BuildingBlock: OJICUG_clean_linker_0, # of connection points: 2
#     Edge 63, Type (0, 0), BuildingBlock: OJICUG_clean_linker_0, # of connection points: 2
# Relax obj value: 0.685
# Max RMSD: 0.297
# Mean RMSD: 0.297
data_MOF--net-whz--node1-FUNLAD_clean_sbu_0--edge1-OJICUG_clean_linker_0
_symmetry_space_group_name_H-M    P1
_symmetry_Int_Tables_number       1
_symmetry_cell_setting            triclinic
loop_
_symmetry_equiv_pos_as_xyz
'x, y, z'
_cell_length_a     29.327488
_cell_length_b     29.282043
_cell_length_c     43.240008
_cell_angle_alpha  90.028819
_cell_angle_beta   90.29982
_cell_angle_gamma 90.087427
loop_
_atom_site_label
_atom_site_type_symbol
_atom_site_fract_x
_atom_site_fract_y
_atom_site_fract_z
_atom_type_partial_charge
C0 C 0.31961 0.13146 0.09984 0.0
N1 N 0.26555 0.25313 0.12872 0.0
C2 C 0.27649 0.27152 0.10084 0.0
C3 C 0.24812 0.30461 0.08758 0.0
C4 C 0.20818 0.31762 0.10313 0.0
C5 C 0.19787 0.2976 0.13153 0.0
C6 C 0.22714 0.26578 0.144 0.0
Zn7 Zn 0.29796 0.20039 0.14906 0.0
C8 C 0.22825 0.12934 0.1654 0.0
N9 N 0.34605 0.07768 0.19374 0.0
C10 C 0.37582 0.04357 0.18655 0.0
C11 C 0.31887 0.07347 0.21915 0.0
C12 C 0.32105 0.03573 0.23839 0.0
C13 C 0.35081 -0.00019 0.23187 0.0
C14 C 0.37892 0.00422 0.20549 0.0
Zn15 Zn 0.32717 0.1361 0.16802 0.0
O16 O 0.30333 0.16975 0.10732 0.0
C17 C 0.39888 0.20581 0.15425 0.0
O18 O 0.33476 0.10484 0.12116 0.0
H19 H 0.29339 0.09863 0.22446 0.0
H20 H 0.3069 0.26047 0.08896 0.0
H21 H 0.39642 0.04626 0.16595 0.0
O22 O 0.36462 0.22853 0.14429 0.0
O23 O 0.39314 0.16579 0.16542 0.0
H24 H 0.21857 0.25099 0.16609 0.0
O25 O 0.31511 0.1724 0.21242 0.0
O26 O 0.29271 0.23427 0.1891 0.0
O27 O 0.26425 0.10744 0.17025 0.0
O28 O 0.23111 0.17002 0.15568 0.0
C29 C 0.30011 0.21318 0.21378 0.0
H30 H 0.25744 0.32028 0.06583 0.0
H31 H 0.16839 0.30792 0.14482 0.0
H32 H 0.29952 0.03548 0.25864 0.0
H33 H 0.40262 0.97748 0.19931 0.0
C34 C 0.6178 0.5816 0.3443 0.0
N35 N 0.49684 0.52009 0.36687 0.0
C36 C 0.46176 0.54081 0.35171 0.0
C37 C 0.42144 0.51642 0.34571 0.0
C38 C 0.418 0.47054 0.35524 0.0
C39 C 0.45576 0.44971 0.36889 0.0
C40 C 0.49434 0.47514 0.37493 0.0
Zn41 Zn 0.55091 0.55295 0.38697 0.0
C42 C 0.62135 0.48518 0.40269 0.0
N43 N 0.66232 0.60032 0.44247 0.0
C44 C 0.69808 0.6283 0.43556 0.0
C45 C 0.66348 0.57486 0.46893 0.0
C46 C 0.69996 0.57685 0.4894 0.0
C47 C 0.73749 0.60477 0.48317 0.0
C48 C 0.73609 0.63128 0.4558 0.0
Zn49 Zn 0.60553 0.58214 0.41476 0.0
O50 O 0.57532 0.57458 0.34594 0.0
C51 C 0.53789 0.65295 0.40019 0.0
O52 O 0.6414 0.58517 0.36941 0.0
H53 H 0.63675 0.55091 0.4742 0.0
H54 H 0.46384 0.57674 0.3461 0.0
H55 H 0.69774 0.64752 0.4142 0.0
O56 O 0.51549 0.61729 0.39199 0.0
O57 O 0.57932 0.64898 0.40907 0.0
H58 H 0.5203 0.45924 0.38887 0.0
O59 O 0.56549 0.57431 0.45648 0.0
O60 O 0.52401 0.52954 0.42768 0.0
O61 O 0.63034 0.51762 0.42067 0.0
O62 O 0.59095 0.49092 0.38216 0.0
C63 C 0.53388 0.54478 0.45403 0.0
H64 H 0.39265 0.53373 0.33522 0.0
H65 H 0.45421 0.41509 0.37767 0.0
H66 H 0.69807 0.55668 0.51033 0.0
H67 H 0.7642 0.65354 0.44986 0.0
C68 C 0.15857 0.87203 0.59056 0.0
N69 N 0.20235 0.74173 0.60923 0.0
C70 C 0.1878 0.70121 0.62095 0.0
C71 C 0.21315 0.66187 0.61621 0.0
C72 C 0.25399 0.66465 0.59965 0.0
C73 C 0.26592 0.70571 0.58522 0.0
C74 C 0.23885 0.74416 0.58996 0.0
Zn75 Zn 0.18226 0.79848 0.632 0.0
C76 C 0.2591 0.8579 0.64647 0.0
N77 N 0.14959 0.9149 0.68831 0.0
C78 C 0.12177 0.95113 0.68241 0.0
C79 C 0.17708 0.91525 0.71387 0.0
C80 C 0.17628 0.95106 0.73501 0.0
C81 C 0.14788 0.98887 0.73008 0.0
C82 C 0.12048 0.98862 0.70298 0.0
Zn83 Zn 0.16042 0.85725 0.66009 0.0
O84 O 0.16349 0.82915 0.59171 0.0
C85 C 0.08209 0.79675 0.64769 0.0
O86 O 0.1565 0.895 0.61582 0.0
H87 H 0.20066 0.88775 0.71815 0.0
H88 H 0.15939 0.70009 0.63674 0.0
H89 H 0.1009 0.95129 0.66171 0.0
O90 O 0.115 0.77313 0.63719 0.0
O91 O 0.08974 0.83717 0.65764 0.0
H92 H 0.24954 0.77668 0.58063 0.0
O93 O 0.1699 0.81665 0.70124 0.0
O94 O 0.20331 0.7664 0.67181 0.0
O95 O 0.22804 0.87487 0.66281 0.0
O96 O 0.24966 0.82596 0.62773 0.0
C97 C 0.1939 0.78073 0.69848 0.0
H98 H 0.20308 0.63056 0.62766 0.0
H99 H 0.29695 0.70854 0.57187 0.0
H100 H 0.19737 0.94804 0.75549 0.0
H101 H 0.09828 0.01698 0.69753 0.0
C102 C 0.87048 0.41947 0.8487 0.0
N103 N -0.00208 0.46832 0.87542 0.0
C104 C 0.01546 0.46046 0.84683 0.0
C105 C 0.04954 0.48932 0.83523 0.0
C106 C 0.06476 0.52646 0.85328 0.0
C107 C 0.04592 0.53326 0.88249 0.0
C108 C 0.01262 0.50406 0.89301 0.0
Zn109 Zn 0.9448 0.43494 0.89521 0.0
C110 C 0.8769 0.50547 0.9164 0.0
N111 N 0.82474 0.38651 0.94345 0.0
C112 C 0.79001 0.35714 0.93648 0.0
C113 C 0.82242 0.41251 0.96965 0.0
C114 C 0.786 0.40959 0.98983 0.0
C115 C 0.74946 0.38031 0.98352 0.0
C116 C 0.75195 0.35332 0.95638 0.0
Zn117 Zn 0.88175 0.40615 0.91661 0.0
O118 O 0.91062 0.4336 0.85371 0.0
C119 C 0.94915 0.33334 0.89755 0.0
O120 O 0.84685 0.40324 0.87111 0.0
H121 H 0.8481 0.43763 0.97496 0.0
H122 H 0.00278 0.43231 0.83302 0.0
H123 H 0.79118 0.33741 0.91534 0.0
O124 O 0.97095 0.36809 0.88742 0.0
O125 O 0.91049 0.33885 0.91071 0.0
H126 H -0.00173 0.51074 0.91548 0.0
O127 O 0.92035 0.41557 0.95988 0.0
O128 O 0.98125 0.43636 0.93521 0.0
O129 O 0.85486 0.46965 0.92176 0.0
O130 O 0.91635 0.50215 0.90481 0.0
C131 C 0.96125 0.43005 0.96037 0.0
H132 H 0.06372 0.48282 0.81258 0.0
H133 H 0.05756 0.56037 0.89767 0.0
H134 H 0.78721 0.43022 0.0106 0.0
H135 H 0.72465 0.33002 0.95033 0.0
C136 C 0.69214 0.77713 0.80712 0.0
N137 N 0.64178 0.90912 0.82295 0.0
C138 C 0.67884 0.91864 0.80495 0.0
C139 C 0.6784 0.953 0.78294 0.0
C140 C 0.63856 0.97751 0.77696 0.0
C141 C 0.60013 0.96777 0.79561 0.0
C142 C 0.60256 0.93342 0.81871 0.0
Zn143 Zn 0.65702 0.85241 0.85213 0.0
C144 C 0.58404 0.78075 0.86118 0.0
N145 N 0.71632 0.73486 0.89078 0.0
C146 C 0.75327 0.72144 0.87414 0.0
C147 C 0.70776 0.71684 0.91918 0.0
C148 C 0.73705 0.68352 0.93152 0.0
C149 C 0.77543 0.66962 0.91446 0.0
C150 C 0.78298 0.68901 0.88544 0.0
Zn151 Zn 0.68282 0.78771 0.87009 0.0
O152 O 0.68311 0.8195 0.80948 0.0
C153 C 0.75374 0.86111 0.85945 0.0
O154 O 0.68663 0.7522 0.83029 0.0
H155 H 0.67872 0.72853 0.9323 0.0
H156 H 0.70965 0.89888 0.80666 0.0
H157 H 0.76056 0.73621 0.85186 0.0
O158 O 0.71788 0.88431 0.85923 0.0
O159 O 0.75047 0.81816 0.86244 0.0
H160 H 0.57286 0.92551 0.83245 0.0
O161 O 0.67705 0.82086 0.91165 0.0
O162 O 0.63782 0.88146 0.89698 0.0
O163 O 0.61648 0.76018 0.87529 0.0
O164 O 0.59184 0.81879 0.8475 0.0
C165 C 0.65586 0.85713 0.91856 0.0
H166 H 0.70947 0.95938 0.77024 0.0
H167 H 0.56815 0.98534 0.79183 0.0
H168 H 0.72988 0.66891 0.95397 0.0
H169 H 0.81107 0.67839 0.87095 0.0
C170 C 0.45513 0.45061 0.55772 0.0
N171 N 0.32552 0.39108 0.57332 0.0
C172 C 0.32102 0.41808 0.54774 0.0
C173 C 0.2825 0.41647 0.52903 0.0
C174 C 0.24589 0.38791 0.53649 0.0
C175 C 0.25066 0.36009 0.5631 0.0
C176 C 0.29087 0.36234 0.58133 0.0
Zn177 Zn 0.38382 0.40949 0.59958 0.0
C178 C 0.4553 0.34027 0.61014 0.0
N179 N 0.49697 0.47237 0.6451 0.0
C180 C 0.50437 0.51555 0.63457 0.0
C181 C 0.52499 0.45317 0.66662 0.0
C182 C 0.56309 0.47746 0.67751 0.0
C183 C 0.57175 0.5217 0.66613 0.0
C184 C 0.5413 0.54075 0.6448 0.0
Zn185 Zn 0.44303 0.4411 0.62406 0.0
O186 O 0.41987 0.42532 0.55629 0.0
C187 C 0.36873 0.50722 0.61193 0.0
O188 O 0.47089 0.46111 0.58378 0.0
H189 H 0.51852 0.4188 0.67466 0.0
H190 H 0.34636 0.44324 0.54203 0.0
H191 H 0.4827 0.53032 0.617 0.0
O192 O 0.35454 0.47177 0.59872 0.0
O193 O 0.40602 0.50557 0.62685 0.0
H194 H 0.29365 0.34219 0.60221 0.0
O195 O 0.4173 0.42204 0.66521 0.0
O196 O 0.35218 0.39765 0.64573 0.0
O197 O 0.47683 0.37537 0.62032 0.0
O198 O 0.41427 0.34443 0.60051 0.0
C199 C 0.37772 0.4061 0.66932 0.0
H200 H 0.28206 0.43777 0.50859 0.0
H201 H 0.22347 0.33741 0.57014 0.0
H202 H 0.58601 0.46151 0.69396 0.0
H203 H 0.54722 0.57397 0.63456 0.0
C204 C 0.7953 0.20694 0.31183 0.0
N205 N 0.84313 0.07369 0.32509 0.0
C206 C 0.80558 0.06503 0.30711 0.0
C207 C 0.80551 0.03152 0.28438 0.0
C208 C 0.84539 0.00752 0.27755 0.0
C209 C 0.88419 0.01651 0.2963 0.0
C210 C 0.88223 0.04964 0.32015 0.0
Zn211 Zn 0.83243 0.13101 0.35446 0.0
C212 C 0.90847 0.19708 0.36189 0.0
N213 N 0.78697 0.2515 0.39925 0.0
C214 C 0.75063 0.24776 0.41855 0.0
C215 C 0.80133 0.29269 0.3885 0.0
C216 C 0.77569 0.33162 0.39424 0.0
C217 C 0.73523 0.32749 0.41096 0.0
C218 C 0.72357 0.28577 0.42446 0.0
Zn219 Zn 0.8076 0.19526 0.37647 0.0
O220 O 0.81151 0.1666 0.31215 0.0
C221 C 0.73346 0.1286 0.36822 0.0
O222 O 0.79285 0.2288 0.33675 0.0
H223 H 0.82991 0.29471 0.37287 0.0
H224 H 0.77517 0.08539 0.30901 0.0
H225 H 0.7401 0.21464 0.42696 0.0
O226 O 0.76813 0.10676 0.35996 0.0
O227 O 0.73806 0.16979 0.37677 0.0
H228 H 0.9124 0.0573 0.3337 0.0
O229 O 0.8208 0.1631 0.41747 0.0
O230 O 0.84695 0.09787 0.39941 0.0
O231 O 0.87606 0.21919 0.37445 0.0
O232 O 0.90079 0.1574 0.35065 0.0
C233 C 0.83548 0.12312 0.42245 0.0
H234 H 0.77417 0.02578 0.27165 0.0
H235 H 0.91629 -0.0004 0.29192 0.0
H236 H 0.78527 0.36375 0.38365 0.0
H237 H 0.69251 0.28207 0.43769 0.0
C238 C 0.03445 0.54856 0.05385 0.0
N239 N 0.16431 0.596 0.07491 0.0
C240 C 0.17582 0.55858 0.05764 0.0
C241 C 0.20964 0.5598 0.03549 0.0
C242 C 0.23067 0.60093 0.02781 0.0
C243 C 0.2191 0.63986 0.04566 0.0
C244 C 0.18584 0.63656 0.06936 0.0
Zn245 Zn 0.10589 0.57963 0.10242 0.0
C246 C 0.03437 0.65352 0.11191 0.0
N247 N 0.98372 0.52079 0.13321 0.0
C248 C 0.97418 0.48529 0.11382 0.0
C249 C 0.95865 0.5279 0.15919 0.0
C250 C 0.92171 0.49886 0.1658 0.0
C251 C 0.91161 0.46265 0.14542 0.0
C252 C 0.93914 0.45559 0.11977 0.0
Zn253 Zn 0.03976 0.55529 0.11797 0.0
O254 O 0.07686 0.55536 0.05788 0.0
C255 C 0.11236 0.48359 0.10751 0.0
O256 O 0.00834 0.5563 0.07603 0.0
H257 H 0.96703 0.55593 0.17452 0.0
H258 H 0.15718 0.5271 0.05914 0.0
H259 H -0.00638 0.47931 0.09317 0.0
O260 O 0.13677 0.51856 0.10945 0.0
O261 O 0.0696 0.48811 0.10902 0.0
H262 H 0.17588 0.66675 0.08205 0.0
O263 O 0.06902 0.55614 0.16145 0.0
O264 O 0.13124 0.59485 0.14903 0.0
O265 O 0.01303 0.62073 0.12492 0.0
O266 O 0.07263 0.64585 0.09857 0.0
C267 C 0.10598 0.57548 0.16954 0.0
H268 H 0.21751 0.52837 0.02348 0.0
H269 H 0.23396 0.67284 0.04057 0.0
H270 H 0.90088 0.50511 0.18596 0.0
H271 H 0.93319 0.42753 0.10387 0.0
C272 C 0.82802 0.63332 0.59651 0.0
N273 N 0.766 0.74966 0.6322 0.0
C274 C 0.77079 0.77084 0.60444 0.0
C275 C 0.7398 0.80477 0.59552 0.0
C276 C 0.70402 0.81701 0.61557 0.0
C277 C 0.69992 0.79395 0.64373 0.0
C278 C 0.73085 0.76018 0.6514 0.0
Zn279 Zn 0.80545 0.69732 0.64778 0.0
C280 C 0.74075 0.619 0.66383 0.0
N281 N 0.8661 0.5778 0.68789 0.0
C282 C 0.88535 0.58752 0.71588 0.0
C283 C 0.85051 0.53477 0.68165 0.0
C284 C 0.84918 0.50144 0.70506 0.0
C285 C 0.86361 0.51271 0.73513 0.0
C286 C 0.88387 0.55562 0.73998 0.0
Zn287 Zn 0.83693 0.63356 0.66505 0.0
O288 O 0.80825 0.66981 0.60455 0.0
C289 C 0.90348 0.71142 0.65103 0.0
O290 O 0.84681 0.608 0.61723 0.0
H291 H 0.83443 0.52766 0.65959 0.0
H292 H 0.79834 0.76128 0.58922 0.0
H293 H 0.89722 0.62179 0.7207 0.0
O294 O 0.86812 0.73156 0.64046 0.0
O295 O 0.89971 0.67163 0.66294 0.0
H296 H 0.72642 0.74239 0.67304 0.0
O297 O 0.81993 0.66189 0.71083 0.0
O298 O 0.80385 0.72717 0.68948 0.0
O299 O 0.77756 0.59752 0.66688 0.0
O300 O 0.74206 0.66103 0.65668 0.0
C301 C 0.80727 0.70329 0.71339 0.0
H302 H 0.74399 0.82132 0.57334 0.0
H303 H 0.67385 0.80265 0.66035 0.0
H304 H 0.83367 0.46856 0.70033 0.0
H305 H 0.89617 0.56534 0.76272 0.0
C306 C 0.11342 0.07936 0.8428 0.0
N307 N 0.99021 0.01747 0.86895 0.0
C308 C 0.96584 0.02934 0.84332 0.0
C309 C 0.92998 0.00116 0.83304 0.0
C310 C 0.92033 0.96038 0.84908 0.0
C311 C 0.94703 0.94878 0.87463 0.0
C312 C 0.98118 0.97784 0.88432 0.0
Zn313 Zn 0.04263 0.05277 0.88946 0.0
C314 C 0.11688 0.98532 0.90511 0.0
N315 N 0.16213 0.10159 0.93966 0.0
C316 C 0.19466 0.13461 0.93653 0.0
C317 C 0.16579 0.07089 0.96339 0.0
C318 C 0.20058 0.07298 0.9851 0.0
C319 C 0.23473 0.10608 0.98292 0.0
C320 C 0.2314 0.13746 0.95796 0.0
Zn321 Zn 0.10567 0.08293 0.91096 0.0
O322 O 0.07483 0.06161 0.8482 0.0
C323 C 0.03289 0.1534 0.89686 0.0
O324 O 0.13778 0.09464 0.8654 0.0
H325 H 0.14236 0.04284 0.96567 0.0
H326 H 0.97346 0.06087 0.83136 0.0
H327 H 0.1927 0.15827 0.91737 0.0
O328 O 0.01206 0.11875 0.88546 0.0
O329 O 0.07225 0.14837 0.90947 0.0
H330 H -0.00055 0.96876 0.90512 0.0
O331 O 0.06936 0.06482 0.95389 0.0
O332 O 0.00833 0.04391 0.9291 0.0
O333 O 0.13741 0.02173 0.91119 0.0
O334 O 0.07623 0.98724 0.89527 0.0
C335 C 0.02951 0.04773 0.95415 0.0
H336 H 0.90945 0.01152 0.81338 0.0
H337 H 0.93984 0.91874 0.88841 0.0
H338 H 0.19957 0.04863 1.00387 0.0
H339 H 0.25686 0.16376 0.95477 0.0
C340 C 0.65767 0.35029 0.09589 0.0
N341 N 0.70835 0.22595 0.12798 0.0
C342 C 0.70101 0.21033 0.0987 0.0
C343 C 0.73057 0.17779 0.08599 0.0
C344 C 0.7678 0.16218 0.10369 0.0
C345 C 0.77308 0.17768 0.13401 0.0
C346 C 0.74343 0.20971 0.14554 0.0
Zn347 Zn 0.67984 0.28273 0.1467 0.0
C348 C 0.75497 0.34968 0.15397 0.0
N349 N 0.64597 0.41025 0.18953 0.0
C350 C 0.60734 0.43553 0.19331 0.0
C351 C 0.68378 0.42013 0.20698 0.0
C352 C 0.68469 0.45589 0.22792 0.0
C353 C 0.64533 0.48112 0.2337 0.0
C354 C 0.60619 0.47112 0.21554 0.0
Zn355 Zn 0.65754 0.35016 0.16318 0.0
O356 O 0.67517 0.31246 0.10375 0.0
C357 C 0.58071 0.28308 0.15532 0.0
O358 O 0.64198 0.3771 0.11685 0.0
H359 H 0.71384 0.39914 0.20616 0.0
H360 H 0.67361 0.22434 0.08484 0.0
H361 H 0.57699 0.42709 0.18017 0.0
O362 O 0.61255 0.25981 0.14297 0.0
O363 O 0.58965 0.32199 0.1676 0.0
H364 H 0.75073 0.22336 0.16818 0.0
O365 O 0.67941 0.32014 0.20767 0.0
O366 O 0.68289 0.25173 0.18853 0.0
O367 O 0.72126 0.37571 0.15594 0.0
O368 O 0.74888 0.30717 0.15139 0.0
C369 C 0.68757 0.27784 0.21131 0.0
H370 H 0.72513 0.16589 0.06254 0.0
H371 H 0.80029 0.16544 0.14888 0.0
H372 H 0.71619 0.46234 0.24033 0.0
H373 H 0.57453 0.48919 0.21924 0.0
C374 C 0.37874 0.90682 0.34349 0.0
N375 N 0.49411 0.96971 0.38021 0.0
C376 C 0.51951 0.96125 0.35465 0.0
C377 C 0.55555 0.99055 0.34707 0.0
C378 C 0.56498 0.02864 0.36603 0.0
C379 C 0.53731 0.03691 0.39158 0.0
C380 C 0.50219 0.00709 0.39824 0.0
Zn381 Zn 0.44091 0.93112 0.39519 0.0
C382 C 0.36264 -0.00347 0.40972 0.0
N383 N 0.32117 0.87228 0.43418 0.0
C384 C 0.27852 0.88734 0.42662 0.0
C385 C 0.32994 0.85476 0.46274 0.0
C386 C 0.2974 0.85793 0.48615 0.0
C387 C 0.25497 0.87821 0.47996 0.0
C388 C 0.2446 0.89045 0.44934 0.0
Zn389 Zn 0.37717 0.90072 0.4123 0.0
O390 O 0.41509 0.92681 0.35172 0.0
C391 C 0.45391 0.8326 0.39997 0.0
O392 O 0.35292 0.8889 0.36415 0.0
H393 H 0.36397 0.84324 0.46848 0.0
H394 H 0.51221 0.93166 0.34046 0.0
H395 H 0.27226 0.90195 0.40403 0.0
O396 O 0.47471 0.86748 0.38926 0.0
O397 O 0.41432 0.83742 0.41171 0.0
H398 H 0.482 0.01369 0.41855 0.0
O399 O 0.40436 0.92072 0.45869 0.0
O400 O 0.46949 0.93499 0.4371 0.0
O401 O 0.34111 0.95978 0.41284 0.0
O402 O 0.40457 -0.00497 0.4027 0.0
C403 C 0.44552 0.93443 0.46097 0.0
H404 H 0.57629 0.98308 0.32706 0.0
H405 H 0.54395 0.06499 0.40729 0.0
H406 H 0.30628 0.84703 0.50936 0.0
H407 H 0.21203 0.90575 0.4436 0.0
C408 C 0.20035 0.2886 0.31547 0.0
N409 N 0.13984 0.41595 0.33183 0.0
C410 C 0.17742 0.43202 0.31666 0.0
C411 C 0.17458 0.46624 0.29455 0.0
C412 C 0.13219 0.483 0.28501 0.0
C413 C 0.09326 0.46637 0.30079 0.0
C414 C 0.0979 0.43296 0.32435 0.0
Zn415 Zn 0.15708 0.35876 0.36017 0.0
C416 C 0.08703 0.28264 0.36419 0.0
N417 N 0.2163 0.23998 0.39929 0.0
C418 C 0.25759 0.23128 0.38628 0.0
C419 C 0.1996 0.2131 0.42227 0.0
C420 C 0.22452 0.17491 0.43221 0.0
C421 C 0.26692 0.16532 0.41851 0.0
C422 C 0.28348 0.19456 0.39569 0.0
Zn423 Zn 0.18426 0.29415 0.37925 0.0
O424 O 0.18696 0.32992 0.31721 0.0
C425 C 0.25217 0.37129 0.37462 0.0
O426 O 0.19704 0.26371 0.33887 0.0
H427 H 0.16664 0.2205 0.4322 0.0
H428 H 0.21051 0.41697 0.32007 0.0
H429 H 0.27022 0.25166 0.3674 0.0
O430 O 0.21603 0.39309 0.37015 0.0
O431 O 0.25005 0.32841 0.37801 0.0
H432 H 0.06787 0.41927 0.33544 0.0
O433 O 0.1708 0.32266 0.4212 0.0
O434 O 0.1342 0.38434 0.40544 0.0
O435 O 0.11934 0.26252 0.37862 0.0
O436 O 0.09374 0.32237 0.35264 0.0
C437 C 0.14944 0.35905 0.42754 0.0
H438 H 0.20601 0.47803 0.28427 0.0
H439 H 0.05939 0.47744 0.29425 0.0
H440 H 0.21047 0.15262 0.44973 0.0
H441 H 0.31506 0.18767 0.38367 0.0
C442 C 0.96216 0.93423 0.0517 0.0
N443 N 0.82733 0.88639 0.06738 0.0
C444 C 0.82534 0.91078 0.04047 0.0
C445 C 0.78748 0.90956 0.02122 0.0
C446 C 0.74915 0.8839 0.02926 0.0
C447 C 0.75141 0.85821 0.05695 0.0
C448 C 0.79094 0.86023 0.0759 0.0
Zn449 Zn 0.88496 0.90592 0.09403 0.0
C450 C 0.95336 0.83424 0.11183 0.0
N451 N -0.00104 0.96909 0.13836 0.0
C452 C 0.01108 0.00757 0.12273 0.0
C453 C 0.01817 0.95866 0.16618 0.0
C454 C 0.05152 0.98755 0.17893 0.0
C455 C 0.06425 0.02739 0.16288 0.0
C456 C 0.04351 0.03698 0.13449 0.0
Zn457 Zn 0.94636 0.9356 0.1176 0.0
O458 O 0.92342 0.91472 0.05122 0.0
C459 C 0.87724 0.00485 0.09723 0.0
O460 O 0.98004 0.9437 0.07729 0.0
H461 H 0.00747 0.92836 0.17848 0.0
H462 H 0.85204 0.93405 0.03411 0.0
H463 H -0.00461 0.01623 0.10089 0.0
O464 O 0.85829 0.9689 0.08812 0.0
O465 O 0.9146 0.00201 0.11194 0.0
H466 H 0.79177 0.84217 0.09771 0.0
O467 O 0.91492 0.92801 0.15923 0.0
O468 O 0.85016 0.90298 0.13946 0.0
O469 O 0.97561 0.86905 0.1216 0.0
O470 O 0.91354 0.83936 0.10005 0.0
C471 C 0.87416 0.91524 0.163 0.0
H472 H 0.78874 0.92898 0.99994 0.0
H473 H 0.72275 0.83761 0.06423 0.0
H474 H 0.06723 0.97885 0.20086 0.0
H475 H 0.05322 0.06632 0.12075 0.0
C476 C 0.29988 0.70841 0.79921 0.0
N477 N 0.3459 0.57467 0.8172 0.0
C478 C 0.32114 0.57272 0.79038 0.0
C479 C 0.32153 0.53469 0.7714 0.0
C480 C 0.34645 0.49593 0.77971 0.0
C481 C 0.37212 0.49795 0.80752 0.0
C482 C 0.37117 0.5378 0.82611 0.0
Zn483 Zn 0.32884 0.63395 0.84253 0.0
C484 C 0.40255 0.70111 0.85823 0.0
N485 N 0.27043 0.74993 0.88562 0.0
C486 C 0.23031 0.76021 0.87127 0.0
C487 C 0.28457 0.77309 0.91123 0.0
C488 C 0.25788 0.80879 0.92286 0.0
C489 C 0.21642 0.81966 0.90805 0.0
C490 C 0.20289 0.7947 0.88208 0.0
Zn491 Zn 0.30149 0.69532 0.86627 0.0
O492 O 0.32169 0.67098 0.79866 0.0
C493 C 0.22992 0.62729 0.84892 0.0
O494 O 0.28938 0.72511 0.82489 0.0
H495 H 0.3163 0.76397 0.92248 0.0
H496 H 0.29844 0.59981 0.78374 0.0
H497 H 0.21903 0.74181 0.851 0.0
O498 O 0.26436 0.60921 0.83706 0.0
O499 O 0.23496 0.66333 0.86477 0.0
H500 H 0.38949 0.53863 0.84788 0.0
O501 O 0.31275 0.66809 0.9086 0.0
O502 O 0.33069 0.60103 0.88914 0.0
O503 O 0.36818 0.72467 0.86687 0.0
O504 O 0.39665 0.66041 0.84812 0.0
C505 C 0.32244 0.62655 0.9127 0.0
H506 H 0.30222 0.53637 0.75004 0.0
H507 H 0.3921 0.46898 0.81513 0.0
H508 H 0.26958 0.82789 0.94284 0.0
H509 H 0.17213 0.80285 0.86926 0.0
C510 C 0.51921 0.04893 0.55717 0.0
N511 N 0.65577 0.09325 0.56922 0.0
C512 C 0.65611 0.06756 0.54286 0.0
C513 C 0.69329 0.0674 0.52299 0.0
C514 C 0.73266 0.09262 0.5301 0.0
C515 C 0.73216 0.11855 0.55778 0.0
C516 C 0.69328 0.11841 0.57701 0.0
Zn517 Zn 0.59741 0.08111 0.59672 0.0
C518 C 0.5361 0.15924 0.60979 0.0
N519 N 0.48146 0.03682 0.64618 0.0
C520 C 0.48637 0.00198 0.66674 0.0
C521 C 0.44041 0.04693 0.63318 0.0
C522 C 0.40396 0.01716 0.63689 0.0
C523 C 0.41004 0.97761 0.65462 0.0
C524 C 0.45052 0.97155 0.67141 0.0
Zn525 Zn 0.53717 0.0583 0.62341 0.0
O526 O 0.55674 0.07063 0.55479 0.0
C527 C 0.59956 0.98219 0.60878 0.0
O528 O 0.50399 0.04036 0.58362 0.0
H529 H 0.43747 0.07477 0.61687 0.0
H530 H 0.62794 0.04543 0.53722 0.0
H531 H 0.51943 -0.00525 0.67678 0.0
O532 O 0.61718 0.01489 0.59426 0.0
O533 O 0.56467 0.98958 0.62533 0.0
H534 H 0.69362 0.13753 0.59843 0.0
O535 O 0.56807 0.07401 0.6642 0.0
O536 O 0.63421 0.085 0.64167 0.0
O537 O 0.51223 0.12624 0.62021 0.0
O538 O 0.57598 0.15135 0.59927 0.0
C539 C 0.61057 0.08019 0.66641 0.0
H540 H 0.6904 0.04764 0.50193 0.0
H541 H 0.76158 0.13834 0.56487 0.0
H542 H 0.37256 0.02311 0.62421 0.0
H543 H 0.45582 0.9415 0.68558 0.0
C544 C 0.26643 0.20554 0.26617 0.0
C545 C 0.28157 0.23354 0.24217 0.0
H546 H 0.22729 0.2007 0.30734 0.0
C547 C 0.27005 0.28036 0.24242 0.0
H548 H 0.27393 0.16931 0.26629 0.0
C549 C 0.24249 0.29846 0.26563 0.0
C550 C 0.22602 0.27005 0.28906 0.0
H551 H 0.28107 0.30279 0.22398 0.0
H552 H 0.23422 0.3345 0.26526 0.0
C553 C 0.23883 0.22355 0.28929 0.0
C554 C 0.51407 0.5014 0.53476 0.0
C555 C 0.47562 0.47291 0.53053 0.0
H556 H 0.5619 0.54741 0.51419 0.0
C557 C 0.45536 0.4701 0.50123 0.0
H558 H 0.53047 0.50467 0.55716 0.0
C559 C 0.47345 0.49505 0.47663 0.0
C560 C 0.51195 0.52341 0.48095 0.0
H561 H 0.42542 0.44909 0.49737 0.0
H562 H 0.45746 0.49176 0.45408 0.0
C563 C 0.53189 0.52653 0.51029 0.0
C564 C 0.24194 0.71887 0.72142 0.0
C565 C 0.2188 0.76076 0.72486 0.0
H566 H 0.28704 0.66966 0.74196 0.0
C567 C 0.22585 0.7865 0.75173 0.0
H568 H 0.2377 0.69858 0.70063 0.0
C569 C 0.25522 0.7707 0.77473 0.0
C570 C 0.27769 0.72839 0.7717 0.0
H571 H 0.20951 0.81934 0.75475 0.0
H572 H 0.25934 0.79129 0.79539 0.0
C573 C 0.27102 0.70272 0.7447 0.0
C574 C 0.95189 0.47645 0.00778 0.0
C575 C 0.98089 0.45338 0.9875 0.0
H576 H 0.94571 0.5268 0.04303 0.0
C577 C 0.028 0.46309 0.98838 0.0
H578 H 0.91538 0.47086 1.00704 0.0
C579 C 0.04562 0.49578 0.00881 0.0
C580 C 0.01634 0.51975 0.02853 0.0
H581 H 0.05105 0.44642 0.97246 0.0
H582 H 0.08206 0.5019 0.00938 0.0
C583 C 0.96931 0.50954 0.02779 0.0
C584 C 0.74664 0.7874 0.7637 0.0
C585 C 0.71991 0.7584 0.78187 0.0
H586 H 0.79793 0.79228 0.729 0.0
C587 C 0.7266 0.71077 0.7799 0.0
H588 H 0.74338 0.82416 0.76545 0.0
C589 C 0.7587 0.69247 0.75968 0.0
C590 C 0.7846 0.72146 0.74097 0.0
H591 H 0.70707 0.68753 0.79415 0.0
H592 H 0.76148 0.65571 0.75754 0.0
C593 C 0.77878 0.76911 0.74356 0.0
C594 C 0.73013 0.28931 0.2611 0.0
C595 C 0.7121 0.25986 0.23859 0.0
H596 H 0.77207 0.29571 0.30149 0.0
C597 C 0.72389 0.21316 0.23951 0.0
H598 H 0.72247 0.32549 0.26068 0.0
C599 C 0.75337 0.19637 0.26217 0.0
C600 C 0.77121 0.22573 0.28473 0.0
H601 H 0.71097 0.18947 0.22231 0.0
H602 H 0.761 0.16018 0.26256 0.0
C603 C 0.75926 0.27235 0.28403 0.0
C604 C 0.02585 0.97519 0.02599 0.0
C605 C 0.98112 0.95753 0.0245 0.0
H606 H 0.07587 0.01915 1.00564 0.0
C607 C 0.95213 0.97166 1.00057 0.0
H608 H 0.0488 0.96539 0.04455 0.0
C609 C 0.96719 0.00353 0.97897 0.0
C610 C 0.01177 0.0216 0.98059 0.0
H611 H 0.91721 0.9597 0.99926 0.0
H612 H 0.94395 0.01357 0.96064 0.0
C613 C 0.04103 0.00694 1.00427 0.0
C614 C 0.43576 0.97676 0.51128 0.0
C615 C 0.46395 0.96011 0.48776 0.0
H616 H 0.43106 0.01948 0.55145 0.0
C617 C 0.50959 0.97555 0.48646 0.0
H618 H 0.40035 0.96637 0.51258 0.0
C619 C 0.52635 0.00749 0.50747 0.0
C620 C 0.49847 0.02393 0.53105 0.0
H621 H 0.53247 0.96377 0.46856 0.0
H622 H 0.56174 0.01782 0.50595 0.0
C623 C 0.45305 0.00806 0.53294 0.0
C624 C 0.28059 0.07084 0.02738 0.0
C625 C 0.27011 0.10908 0.00838 0.0
H626 H 0.30448 0.04731 0.07185 0.0
C627 C 0.28878 0.15139 0.01695 0.0
H628 H 0.26962 0.03684 0.02095 0.0
C629 C 0.31147 0.15645 0.04526 0.0
C630 C 0.31495 0.11985 0.06644 0.0
H631 H 0.28267 0.18171 1.00327 0.0
H632 H 0.32213 0.19051 0.05198 0.0
C633 C 0.30191 0.0763 0.0564 0.0
C634 C 0.6691 0.5334 0.31327 0.0
C635 C 0.638 0.56957 0.31414 0.0
H636 H 0.69352 0.47575 0.28864 0.0
C637 C 0.61373 0.58047 0.28688 0.0
H638 H 0.68702 0.52302 0.33409 0.0
C639 C 0.61737 0.55325 0.26027 0.0
C640 C 0.64525 0.51425 0.26031 0.0
H641 H 0.58873 0.60769 0.28706 0.0
H642 H 0.59681 0.56166 0.24021 0.0
C643 C 0.67223 0.50578 0.28696 0.0
C644 C 0.153 0.87309 0.53341 0.0
C645 C 0.17114 0.89258 0.56063 0.0
H646 H 0.1654 0.85322 0.48632 0.0
C647 C 0.21344 0.91498 0.55903 0.0
H648 H 0.12098 0.85461 0.53416 0.0
C649 C 0.23959 0.91254 0.53205 0.0
C650 C 0.22346 0.88869 0.50591 0.0
H651 H 0.22892 0.92917 0.57973 0.0
H652 H 0.27373 0.92676 0.53228 0.0
C653 C 0.17879 0.87149 0.50618 0.0
C654 C 0.82981 0.49773 0.78745 0.0
C655 C 0.85495 0.48187 0.76197 0.0
H656 H 0.81212 0.48778 0.83507 0.0
C657 C 0.87491 0.43838 0.76373 0.0
H658 H 0.8138 0.53104 0.78665 0.0
C659 C 0.87384 0.41355 0.79155 0.0
C660 C 0.85181 0.43112 0.81788 0.0
H661 H 0.89448 0.42531 0.7445 0.0
H662 H 0.89398 0.38266 0.79338 0.0
C663 C 0.8279 0.47244 0.81498 0.0
C664 C 0.68729 0.84082 1.00091 0.0
C665 C 0.70971 0.88222 1.00697 0.0
H666 H 0.64929 0.80148 0.96808 0.0
C667 C 0.69992 0.91988 0.98746 0.0
H668 H 0.69319 0.8112 0.01535 0.0
C669 C 0.67541 0.91402 0.95973 0.0
C670 C 0.65919 0.87068 0.95154 0.0
H671 H 0.71479 0.95307 0.9921 0.0
H672 H 0.67389 0.94192 0.94332 0.0
C673 C 0.66189 0.83533 0.97367 0.0
C674 C 0.3885 0.43238 0.75275 0.0
C675 C 0.34786 0.45654 0.75742 0.0
H676 H 0.42848 0.39357 0.72113 0.0
C677 C 0.3113 0.44856 0.7365 0.0
H678 H 0.4172 0.43649 0.76833 0.0
C679 C 0.31832 0.4251 0.70861 0.0
C680 C 0.36156 0.40777 0.70177 0.0
H681 H 0.27835 0.46423 0.74015 0.0
H682 H 0.2917 0.42538 0.69115 0.0
C683 C 0.39491 0.40756 0.72546 0.0
C684 C 0.82708 0.1387 0.4785 0.0
C685 C 0.82774 0.10613 0.45443 0.0
H686 H 0.79586 0.16129 0.52023 0.0
C687 C 0.80559 0.06433 0.45935 0.0
H688 H 0.84399 0.17134 0.47555 0.0
C689 C 0.77841 0.05797 0.48574 0.0
C690 C 0.77168 0.09375 0.50737 0.0
H691 H 0.80526 0.03848 0.44142 0.0
H692 H 0.76025 0.02596 0.48789 0.0
C693 C 0.79899 0.13297 0.50432 0.0
C694 C 0.09335 0.54535 0.25327 0.0
C695 C 0.12957 0.51441 0.25733 0.0
H696 H 0.05846 0.59086 0.22227 0.0
C697 C 0.16281 0.51221 0.23367 0.0
H698 H 0.06741 0.549 0.2708 0.0
C699 C 0.15877 0.53806 0.20651 0.0
C700 C 0.12084 0.5661 0.20168 0.0
H701 H 0.19073 0.4882 0.23487 0.0
H702 H 0.18287 0.53237 0.188 0.0
C703 C 0.08884 0.57044 0.22572 0.0
C704 C 0.80888 0.57704 0.55454 0.0
C705 C 0.8229 0.62089 0.56339 0.0
H706 H 0.77263 0.53685 0.52112 0.0
C707 C 0.81855 0.65674 0.54177 0.0
H708 H 0.81169 0.54876 0.57058 0.0
C709 C 0.79459 0.65059 0.51402 0.0
C710 C 0.7749 0.60814 0.50695 0.0
H711 H 0.82942 0.69101 0.54784 0.0
H712 H 0.78782 0.68022 0.49977 0.0
C713 C 0.78554 0.57064 0.52639 0.0
C714 C 0.09604 0.07297 0.78688 0.0
C715 C 0.12945 0.07438 0.81044 0.0
H716 H 0.07459 0.0442 0.74396 0.0
C717 C 0.17275 0.05677 0.80399 0.0
H718 H 0.06225 0.08654 0.79106 0.0
C719 C 0.1804 0.03308 0.77617 0.0
C720 C 0.14451 0.02534 0.75466 0.0
H721 H 0.19925 0.05726 0.82153 0.0
H722 H 0.21372 0.0182 0.77268 0.0
C723 C 0.10317 0.04837 0.75961 0.0
C724 C 0.6683 0.32718 0.04113 0.0
C725 C 0.66344 0.36286 0.06284 0.0
H726 H 0.69979 0.30414 0.99948 0.0
C727 C 0.67716 0.40687 0.05427 0.0
H728 H 0.65749 0.29283 0.04686 0.0
C729 C 0.70066 0.41363 0.02639 0.0
C730 C 0.71198 0.37632 1.00698 0.0
H731 H 0.67387 0.43509 0.0703 0.0
H732 H 0.71304 0.44764 0.02132 0.0
C733 C 0.69263 0.33366 0.01372 0.0
C734 C 0.31658 0.94856 0.27316 0.0
C735 C 0.35429 0.96107 0.25457 0.0
H736 H 0.29431 0.9207 0.31661 0.0
C737 C 0.39685 0.94194 0.26177 0.0
H738 H 0.28264 0.96063 0.26762 0.0
C739 C 0.40282 0.91705 0.28909 0.0
C740 C 0.36673 0.91152 0.31025 0.0
H741 H 0.42665 0.94991 0.24813 0.0
H742 H 0.43712 0.90674 0.29539 0.0
C743 C 0.32284 0.92459 0.30101 0.0
C744 C 0.18314 0.34392 0.5093 0.0
C745 C 0.20565 0.38553 0.51473 0.0
H746 H 0.14365 0.30406 0.47759 0.0
C747 C 0.19427 0.42297 0.4954 0.0
H748 H 0.18991 0.31436 0.5236 0.0
C749 C 0.16847 0.41666 0.46825 0.0
C750 C 0.15234 0.37309 0.46047 0.0
H751 H 0.20859 0.45649 0.49968 0.0
H752 H 0.16597 0.44445 0.4518 0.0
C753 C 0.15619 0.33807 0.48276 0.0
C754 C 0.82221 0.95979 0.19629 0.0
C755 C 0.85508 0.92541 0.19385 0.0
H756 H 0.79519 0.01404 0.22318 0.0
C757 C 0.88117 0.91444 0.22028 0.0
H758 H 0.80298 0.97037 0.17606 0.0
C759 C 0.87667 0.93933 0.24787 0.0
C760 C 0.84643 0.9765 0.24966 0.0
H761 H 0.90772 0.88884 0.21883 0.0
H762 H 0.89833 0.93054 0.26731 0.0
C763 C 0.81828 0.98529 0.2236 0.0
C764 C 0.25236 0.57301 0.97425 0.0
C765 C 0.26093 0.60237 0.99973 0.0
H766 H 0.26751 0.55555 0.92724 0.0
C767 C 0.2975 0.63321 0.99739 0.0
H768 H 0.2239 0.54948 0.9743 0.0
C769 C 0.32249 0.6366 0.96984 0.0
C770 C 0.31193 0.60902 0.94397 0.0
H771 H 0.30583 0.6559 0.01637 0.0
H772 H 0.34788 0.66336 0.9679 0.0
C773 C 0.27785 0.5759 0.94701 0.0
C774 C 0.60621 0.07709 0.72382 0.0
C775 C 0.63039 0.06661 0.69659 0.0
H776 H 0.58958 0.05781 0.77033 0.0
C777 C 0.66098 0.02996 0.69728 0.0
H778 H 0.58149 0.10455 0.72377 0.0
C779 C 0.66413 0.00195 0.72346 0.0
C780 C 0.63761 0.01035 0.75015 0.0
H781 H 0.67869 0.01978 0.67646 0.0
H782 H 0.68531 0.97185 0.72174 0.0
C783 C 0.60986 0.04945 0.75027 0.0
C784 C 0.48368 0.19774 0.15355 0.0
C785 C 0.44515 0.22612 0.15387 0.0
H786 H 0.55648 0.1936 0.15343 0.0
C787 C 0.4514 0.27376 0.15499 0.0
H788 H 0.47997 0.16094 0.15272 0.0
C789 C 0.49542 0.29255 0.15616 0.0
C790 C 0.5339 0.26405 0.15543 0.0
H791 H 0.42229 0.29646 0.15553 0.0
H792 H 0.49935 0.32932 0.15713 0.0
C793 C 0.5275 0.21649 0.15394 0.0
C794 C 0.54318 0.73857 0.39786 0.0
C795 C 0.51622 0.69882 0.39944 0.0
H796 H 0.54473 0.81182 0.39618 0.0
C797 C 0.46857 0.7035 0.40061 0.0
H798 H 0.58 0.73617 0.39678 0.0
C799 C 0.44844 0.74691 0.40086 0.0
C800 C 0.4754 0.78665 0.3992 0.0
H801 H 0.44684 0.67362 0.4019 0.0
H802 H 0.41164 0.74933 0.40218 0.0
C803 C 0.52299 0.78194 0.39738 0.0
C804 C 0.98865 0.70741 0.65065 0.0
C805 C 0.94883 0.73394 0.64987 0.0
H806 H 0.06154 0.70645 0.6502 0.0
C807 C 0.95299 0.78183 0.64862 0.0
H808 H 0.98667 0.67049 0.65159 0.0
C809 C -0.00381 0.80267 0.64851 0.0
C810 C 0.03595 0.77592 0.64884 0.0
H811 H 0.92288 0.8032 0.6482 0.0
H812 H -0.00153 0.83957 0.64767 0.0
C813 C 0.0316 0.72808 0.64979 0.0
C814 C 0.01792 0.28243 0.89539 0.0
C815 C 0.97018 0.28716 0.89582 0.0
H816 H 0.07505 0.23671 0.89601 0.0
C817 C 0.94318 0.24742 0.89592 0.0
H818 H 0.03974 0.31232 0.89554 0.0
C819 C 0.96348 0.204 0.89548 0.0
C820 C 0.01125 0.19934 0.89586 0.0
H821 H 0.90634 0.24988 0.89627 0.0
H822 H 0.94176 0.17405 0.8956 0.0
C823 C 0.03819 0.23909 0.89583 0.0
C824 C 0.49883 0.7882 0.85729 0.0
C825 C 0.5376 0.7604 0.86056 0.0
H826 H 0.42582 0.79135 0.8547 0.0
C827 C 0.53156 0.71289 0.86325 0.0
H828 H 0.50234 0.82491 0.85528 0.0
C829 C 0.4878 0.69357 0.8622 0.0
C830 C 0.449 0.72142 0.85932 0.0
H831 H 0.56076 0.69054 0.86568 0.0
H832 H 0.4843 0.65683 0.86401 0.0
C833 C 0.45501 0.76898 0.85711 0.0
C834 C 0.44939 0.25508 0.60984 0.0
C835 C 0.47695 0.29439 0.61002 0.0
H836 H 0.44642 0.18211 0.61 0.0
C837 C 0.52465 0.28905 0.60991 0.0
H838 H 0.41256 0.25788 0.61003 0.0
C839 C 0.54422 0.24523 0.60927 0.0
C840 C 0.51644 0.206 0.60952 0.0
H841 H 0.54679 0.31869 0.60994 0.0
H842 H 0.581 0.24206 0.60907 0.0
C843 C 0.46884 0.21155 0.60992 0.0
C844 C 0.03732 0.21249 0.36282 0.0
C845 C 0.04158 0.26039 0.36172 0.0
H846 H 0.99192 0.15473 0.3629 0.0
C847 C 0.00184 0.28689 0.35936 0.0
H848 H 0.06735 0.19114 0.36453 0.0
C849 C 0.9588 0.26611 0.3592 0.0
C850 C 0.95445 0.21828 0.36052 0.0
H851 H 0.00394 0.32381 0.35857 0.0
H852 H 0.92878 0.28759 0.35808 0.0
C853 C -0.0058 0.19161 0.36177 0.0
C854 C 0.96652 0.70532 0.11407 0.0
C855 C 0.01408 0.69995 0.11205 0.0
H856 H 0.91009 0.7518 0.11514 0.0
C857 C 0.04163 0.7392 0.11055 0.0
H858 H 0.94435 0.67575 0.11518 0.0
C859 C 0.022 0.78287 0.11137 0.0
C860 C 0.97436 0.78815 0.11284 0.0
H861 H 0.07837 0.73616 0.10912 0.0
H862 H 0.04407 0.81251 0.11016 0.0
C863 C 0.94687 0.74887 0.11403 0.0
C864 C 0.13374 0.35763 0.09747 0.0
C865 C 0.18147 0.35767 0.09389 0.0
H866 H 0.07397 0.39809 0.10533 0.0
C867 C 0.20454 0.39902 0.09009 0.0
H868 H 0.11533 0.3258 0.10025 0.0
C869 C 0.18133 0.43982 0.09363 0.0
C870 C 0.13448 0.43997 0.1006 0.0
H871 H 0.24128 0.4 0.08754 0.0
H872 H 0.20085 0.47119 0.09246 0.0
C873 C 0.11028 0.39873 0.10085 0.0
C874 C 0.29659 0.44324 0.37535 0.0
C875 C 0.29538 0.39571 0.37085 0.0
H876 H 0.33626 0.50437 0.3734 0.0
C877 C 0.33341 0.37353 0.35849 0.0
H878 H 0.26729 0.46121 0.38445 0.0
C879 C 0.37232 0.39857 0.35107 0.0
C880 C 0.37407 0.446 0.35643 0.0
H881 H 0.3327 0.33715 0.35391 0.0
H882 H 0.40152 0.38067 0.34177 0.0
C883 C 0.33562 0.46814 0.36832 0.0
C884 C 0.26896 0.58236 0.5926 0.0
C885 C 0.28543 0.6257 0.60022 0.0
H886 H 0.2822 0.51127 0.59075 0.0
C887 C 0.33015 0.63065 0.61172 0.0
H888 H 0.23454 0.57785 0.58386 0.0
C889 C 0.35778 0.59221 0.61615 0.0
C890 C 0.34088 0.54869 0.60882 0.0
H891 H 0.3431 0.664 0.6182 0.0
H892 H 0.39203 0.59648 0.6252 0.0
C893 C 0.29636 0.54432 0.59676 0.0
C894 C 0.14343 0.53522 0.83325 0.0
C895 C 0.10353 0.55557 0.84424 0.0
H896 H 0.21488 0.54219 0.82632 0.0
C897 C 0.10414 0.60213 0.85254 0.0
H898 H 0.14408 0.49946 0.82684 0.0
C899 C 0.14508 0.62635 0.85331 0.0
C900 C 0.18564 0.60461 0.84498 0.0
H901 H 0.07343 0.61893 0.86044 0.0
H902 H 0.14521 0.66136 0.86143 0.0
C903 C 0.18413 0.55963 0.83347 0.0
C904 C 0.85176 0.63167 0.91672 0.0
C905 C 0.80495 0.63128 0.92407 0.0
H906 H 0.91145 0.59167 0.90779 0.0
C907 C 0.78493 0.59063 0.93426 0.0
H908 H 0.86835 0.66297 0.90953 0.0
C909 C 0.80969 0.55017 0.93359 0.0
C910 C 0.85477 0.54962 0.92247 0.0
H911 H 0.74908 0.58918 0.94009 0.0
H912 H 0.79232 0.51887 0.9399 0.0
C913 C 0.87642 0.59098 0.9156 0.0
C914 C 0.69731 0.5465 0.66927 0.0
C915 C 0.69753 0.59453 0.66847 0.0
H916 H 0.65712 0.48567 0.66936 0.0
C917 C 0.65646 0.61827 0.67197 0.0
H918 H 0.72863 0.52723 0.66703 0.0
C919 C 0.6155 0.59426 0.67431 0.0
C920 C 0.61492 0.54621 0.67249 0.0
H921 H 0.65586 0.65526 0.6722 0.0
H922 H 0.58402 0.61339 0.67598 0.0
C923 C 0.65637 0.52255 0.67112 0.0
C924 C 0.66715 0.36629 0.38939 0.0
C925 C 0.70306 0.36541 0.41099 0.0
H926 H 0.61264 0.40555 0.36953 0.0
C927 C 0.71072 0.40262 0.43044 0.0
H928 H 0.66142 0.33762 0.37399 0.0
C929 C 0.68312 0.44096 0.42805 0.0
C930 C 0.6478 0.44285 0.40582 0.0
H931 H 0.73861 0.40237 0.44698 0.0
H932 H 0.69031 0.46956 0.44322 0.0
C933 C 0.63959 0.40497 0.38675 0.0
C934 C 0.82507 0.38025 0.17815 0.0
C935 C 0.79938 0.3707 0.15145 0.0
H936 H 0.8815 0.41794 0.19733 0.0
C937 C 0.80957 0.39225 0.12358 0.0
H938 H 0.81595 0.36517 0.20015 0.0
C939 C 0.84508 0.42334 0.12224 0.0
C940 C 0.87151 0.43292 0.14871 0.0
H941 H 0.78859 0.38669 0.10318 0.0
H942 H 0.85166 0.44029 0.10044 0.0
C943 C 0.8614 0.41116 0.17674 0.0
C944 C 0.62861 0.85754 0.62037 0.0
C945 C 0.67376 0.85643 0.60917 0.0
H946 H 0.56959 0.89862 0.62967 0.0
C947 C 0.69179 0.89564 0.59529 0.0
H948 H 0.61317 0.82749 0.63049 0.0
C949 C 0.66653 0.93563 0.59422 0.0
C950 C 0.62279 0.93775 0.60743 0.0
H951 H 0.72645 0.89647 0.5868 0.0
H952 H 0.68243 0.96557 0.58422 0.0
C953 C 0.6035 0.89809 0.61985 0.0
C954 C 0.79639 0.93216 0.8474 0.0
C955 C 0.79706 0.88478 0.85314 0.0
H956 H 0.83509 0.99304 0.84059 0.0
C957 C 0.83857 0.86131 0.85169 0.0
H958 H 0.7648 0.95128 0.8476 0.0
C959 C 0.87904 0.88552 0.84689 0.0
C960 C 0.87847 0.93346 0.84367 0.0
H961 H 0.83993 0.82471 0.8552 0.0
H962 H 0.91109 0.86717 0.84756 0.0
C963 C 0.83662 0.9562 0.84265 0.0
C964 C 0.87262 0.08978 0.10146 0.0
C965 C 0.85343 0.04824 0.09208 0.0
H966 H 0.86045 0.1604 0.11056 0.0
C967 C 0.80905 0.04763 0.07939 0.0
H968 H 0.90714 0.0914 0.11044 0.0
C969 C 0.78222 0.08669 0.07985 0.0
C970 C 0.7996 0.12696 0.09268 0.0
H971 H 0.79367 0.01621 0.07114 0.0
H972 H 0.74676 0.08412 0.07289 0.0
C973 C 0.84597 0.12913 0.10135 0.0
C974 C 0.60677 0.10359 0.36879 0.0
C975 C 0.60667 0.05636 0.36226 0.0
H976 H 0.64726 0.16385 0.37636 0.0
C977 C 0.64801 0.03429 0.35655 0.0
H978 H 0.57516 0.12154 0.37306 0.0
C979 C 0.68872 0.05825 0.35852 0.0
C980 C 0.68923 0.10499 0.36627 0.0
H981 H 0.64925 -0.0021 0.3521 0.0
H982 H 0.72 0.03954 0.35459 0.0
C983 C 0.64786 0.12775 0.37089 0.0
C984 C 0.26748 0.08073 0.42194 0.0
C985 C 0.29145 0.12205 0.4237 0.0
H986 H 0.27137 0.00868 0.41554 0.0
C987 C 0.33948 0.12143 0.42379 0.0
H988 H 0.23054 0.08019 0.42143 0.0
C989 C 0.36299 0.0806 0.41943 0.0
C990 C 0.33879 0.03973 0.4155 0.0
H991 H 0.35877 0.15293 0.42549 0.0
H992 H 0.3999 0.08118 0.41849 0.0
C993 C 0.29095 0.0399 0.41796 0.0
C994 C 0.10233 0.10362 0.16675 0.0
C995 C 0.10303 0.05624 0.17257 0.0
H996 H 0.14192 0.16414 0.15906 0.0
C997 C 0.14412 0.03539 0.18103 0.0
H998 H 0.07073 0.12072 0.16086 0.0
C999 C 0.18449 0.06023 0.18024 0.0
C1000 C 0.1845 0.10625 0.17075 0.0
H1001 H 0.14579 -0.00094 0.1856 0.0
H1002 H 0.21602 0.04241 0.18529 0.0
C1003 C 0.14293 0.12842 0.16552 0.0
C1004 C 0.1176 0.90041 0.91004 0.0
C1005 C 0.14087 0.94215 0.91033 0.0
H1006 H 0.12368 0.82772 0.91132 0.0
C1007 C 0.18813 0.94291 0.91619 0.0
H1008 H 0.08102 0.89906 0.90652 0.0
C1009 C 0.21244 0.90245 0.91884 0.0
C1010 C 0.18983 0.86058 0.91584 0.0
H1011 H 0.20689 0.97479 0.91722 0.0
H1012 H 0.24926 0.90409 0.92068 0.0
C1013 C 0.14193 0.85982 0.91316 0.0
C1014 C 0.32646 0.89277 0.62163 0.0
C1015 C 0.30415 0.87868 0.6485 0.0
H1016 H 0.37783 0.93652 0.60276 0.0
C1017 C 0.32013 0.89311 0.67761 0.0
H1018 H 0.3141 0.88242 0.59902 0.0
C1019 C 0.35626 0.92379 0.67979 0.0
C1020 C 0.37609 0.94091 0.65284 0.0
H1021 H 0.30294 0.8826 0.69858 0.0
H1022 H 0.36691 0.93612 0.70233 0.0
C1023 C 0.36216 0.92411 0.6238 0.0
loop_
_geom_bond_atom_site_label_1
_geom_bond_atom_site_label_2
_geom_bond_distance
_geom_bond_site_symmetry_2
_ccdc_geom_bond_type
C0 O16 1.251 . S
C0 O18 1.254 . S
N1 C2 1.333 . S
N1 C6 1.307 . S
N1 Zn7 2.020 . S
C2 N1 1.333 . S
C2 C3 1.379 . S
C2 H20 0.952 . S
C3 C2 1.379 . S
C3 C4 1.390 . S
C3 H30 0.949 . S
C4 C3 1.390 . S
C4 C5 1.357 . S
C5 C4 1.357 . S
C5 C6 1.370 . S
C5 H31 0.950 . S
C6 N1 1.307 . S
C6 C5 1.370 . S
C6 H24 0.948 . S
Zn7 N1 2.020 . S
Zn7 O16 2.039 . S
Zn7 O22 2.034 . S
Zn7 O26 2.025 . S
Zn7 O28 2.024 . S
C8 O27 1.246 . S
C8 O28 1.249 . S
N9 C10 1.307 . S
N9 C11 1.333 . S
N9 Zn15 2.020 . S
C10 N9 1.307 . S
C10 C14 1.370 . S
C10 H21 0.948 . S
C11 N9 1.333 . S
C11 C12 1.379 . S
C11 H19 0.952 . S
C12 C11 1.379 . S
C12 C13 1.390 1_545 S
C12 H32 0.949 . S
C13 C12 1.390 1_565 S
C13 C14 1.357 1_565 S
C14 C10 1.370 . S
C14 C13 1.357 1_545 S
C14 H33 0.950 1_545 S
Zn15 N9 2.020 . S
Zn15 O18 2.025 . S
Zn15 O23 2.024 . S
Zn15 O25 2.039 . S
Zn15 O27 2.034 . S
O16 C0 1.251 . S
O16 Zn7 2.039 . S
C17 O22 1.246 . S
C17 O23 1.249 . S
O18 C0 1.254 . S
O18 Zn15 2.025 . S
H19 C11 0.952 . S
H20 C2 0.952 . S
H21 C10 0.948 . S
O22 Zn7 2.034 . S
O22 C17 1.246 . S
O23 Zn15 2.024 . S
O23 C17 1.249 . S
H24 C6 0.948 . S
O25 Zn15 2.039 . S
O25 C29 1.251 . S
O26 Zn7 2.025 . S
O26 C29 1.254 . S
O27 C8 1.246 . S
O27 Zn15 2.034 . S
O28 Zn7 2.024 . S
O28 C8 1.249 . S
C29 O25 1.251 . S
C29 O26 1.254 . S
H30 C3 0.949 . S
H31 C5 0.950 . S
H32 C12 0.949 . S
H33 C14 0.950 1_565 S
C34 O50 1.251 . S
C34 O52 1.254 . S
N35 C36 1.333 . S
N35 C40 1.307 . S
N35 Zn41 2.020 . S
C36 N35 1.333 . S
C36 C37 1.379 . S
C36 H54 0.952 . S
C37 C36 1.379 . S
C37 C38 1.390 . S
C37 H64 0.949 . S
C38 C37 1.390 . S
C38 C39 1.357 . S
C39 C38 1.357 . S
C39 C40 1.370 . S
C39 H65 0.950 . S
C40 N35 1.307 . S
C40 C39 1.370 . S
C40 H58 0.948 . S
Zn41 N35 2.020 . S
Zn41 O50 2.039 . S
Zn41 O56 2.034 . S
Zn41 O60 2.025 . S
Zn41 O62 2.024 . S
C42 O61 1.246 . S
C42 O62 1.249 . S
N43 C44 1.307 . S
N43 C45 1.333 . S
N43 Zn49 2.020 . S
C44 N43 1.307 . S
C44 C48 1.370 . S
C44 H55 0.948 . S
C45 N43 1.333 . S
C45 C46 1.379 . S
C45 H53 0.952 . S
C46 C45 1.379 . S
C46 C47 1.390 . S
C46 H66 0.949 . S
C47 C46 1.390 . S
C47 C48 1.357 . S
C48 C44 1.370 . S
C48 C47 1.357 . S
C48 H67 0.950 . S
Zn49 N43 2.020 . S
Zn49 O52 2.025 . S
Zn49 O57 2.024 . S
Zn49 O59 2.039 . S
Zn49 O61 2.034 . S
O50 C34 1.251 . S
O50 Zn41 2.039 . S
C51 O56 1.246 . S
C51 O57 1.249 . S
O52 C34 1.254 . S
O52 Zn49 2.025 . S
H53 C45 0.952 . S
H54 C36 0.952 . S
H55 C44 0.948 . S
O56 Zn41 2.034 . S
O56 C51 1.246 . S
O57 Zn49 2.024 . S
O57 C51 1.249 . S
H58 C40 0.948 . S
O59 Zn49 2.039 . S
O59 C63 1.251 . S
O60 Zn41 2.025 . S
O60 C63 1.254 . S
O61 C42 1.246 . S
O61 Zn49 2.034 . S
O62 Zn41 2.024 . S
O62 C42 1.249 . S
C63 O59 1.251 . S
C63 O60 1.254 . S
H64 C37 0.949 . S
H65 C39 0.950 . S
H66 C46 0.949 . S
H67 C48 0.950 . S
C68 O84 1.251 . S
C68 O86 1.254 . S
N69 C70 1.333 . S
N69 C74 1.307 . S
N69 Zn75 2.020 . S
C70 N69 1.333 . S
C70 C71 1.379 . S
C70 H88 0.952 . S
C71 C70 1.379 . S
C71 C72 1.390 . S
C71 H98 0.949 . S
C72 C71 1.390 . S
C72 C73 1.357 . S
C73 C72 1.357 . S
C73 C74 1.370 . S
C73 H99 0.950 . S
C74 N69 1.307 . S
C74 C73 1.370 . S
C74 H92 0.948 . S
Zn75 N69 2.020 . S
Zn75 O84 2.039 . S
Zn75 O90 2.034 . S
Zn75 O94 2.025 . S
Zn75 O96 2.024 . S
C76 O95 1.246 . S
C76 O96 1.249 . S
N77 C78 1.307 . S
N77 C79 1.333 . S
N77 Zn83 2.020 . S
C78 N77 1.307 . S
C78 C82 1.370 . S
C78 H89 0.948 . S
C79 N77 1.333 . S
C79 C80 1.379 . S
C79 H87 0.952 . S
C80 C79 1.379 . S
C80 C81 1.390 1_565 S
C80 H100 0.949 . S
C81 C80 1.390 1_545 S
C81 C82 1.357 1_545 S
C82 C78 1.370 . S
C82 C81 1.357 1_565 S
C82 H101 0.950 1_565 S
Zn83 N77 2.020 . S
Zn83 O86 2.025 . S
Zn83 O91 2.024 . S
Zn83 O93 2.039 . S
Zn83 O95 2.034 . S
O84 C68 1.251 . S
O84 Zn75 2.039 . S
C85 O90 1.246 . S
C85 O91 1.249 . S
O86 C68 1.254 . S
O86 Zn83 2.025 . S
H87 C79 0.952 . S
H88 C70 0.952 . S
H89 C78 0.948 . S
O90 Zn75 2.034 . S
O90 C85 1.246 . S
O91 Zn83 2.024 . S
O91 C85 1.249 . S
H92 C74 0.948 . S
O93 Zn83 2.039 . S
O93 C97 1.251 . S
O94 Zn75 2.025 . S
O94 C97 1.254 . S
O95 C76 1.246 . S
O95 Zn83 2.034 . S
O96 Zn75 2.024 . S
O96 C76 1.249 . S
C97 O93 1.251 . S
C97 O94 1.254 . S
H98 C71 0.949 . S
H99 C73 0.950 . S
H100 C80 0.949 . S
H101 C82 0.950 1_545 S
C102 O118 1.251 . S
C102 O120 1.254 . S
N103 C104 1.333 . S
N103 C108 1.307 . S
N103 Zn109 2.020 1_455 S
C104 N103 1.333 . S
C104 C105 1.379 . S
C104 H122 0.952 . S
C105 C104 1.379 . S
C105 C106 1.390 . S
C105 H132 0.949 . S
C106 C105 1.390 . S
C106 C107 1.357 . S
C107 C106 1.357 . S
C107 C108 1.370 . S
C107 H133 0.950 . S
C108 N103 1.307 . S
C108 C107 1.370 . S
C108 H126 0.948 . S
Zn109 N103 2.020 1_655 S
Zn109 O118 2.039 . S
Zn109 O124 2.034 . S
Zn109 O128 2.025 . S
Zn109 O130 2.024 . S
C110 O129 1.246 . S
C110 O130 1.249 . S
N111 C112 1.307 . S
N111 C113 1.333 . S
N111 Zn117 2.020 . S
C112 N111 1.307 . S
C112 C116 1.370 . S
C112 H123 0.948 . S
C113 N111 1.333 . S
C113 C114 1.379 . S
C113 H121 0.952 . S
C114 C113 1.379 . S
C114 C115 1.390 . S
C114 H134 0.949 . S
C115 C114 1.390 . S
C115 C116 1.357 . S
C116 C112 1.370 . S
C116 C115 1.357 . S
C116 H135 0.950 . S
Zn117 N111 2.020 . S
Zn117 O120 2.025 . S
Zn117 O125 2.024 . S
Zn117 O127 2.039 . S
Zn117 O129 2.034 . S
O118 C102 1.251 . S
O118 Zn109 2.039 . S
C119 O124 1.246 . S
C119 O125 1.249 . S
O120 C102 1.254 . S
O120 Zn117 2.025 . S
H121 C113 0.952 . S
H122 C104 0.952 . S
H123 C112 0.948 . S
O124 Zn109 2.034 . S
O124 C119 1.246 . S
O125 Zn117 2.024 . S
O125 C119 1.249 . S
H126 C108 0.948 . S
O127 Zn117 2.039 . S
O127 C131 1.251 . S
O128 Zn109 2.025 . S
O128 C131 1.254 . S
O129 C110 1.246 . S
O129 Zn117 2.034 . S
O130 Zn109 2.024 . S
O130 C110 1.249 . S
C131 O127 1.251 . S
C131 O128 1.254 . S
H132 C105 0.949 . S
H133 C107 0.950 . S
H134 C114 0.949 . S
H135 C116 0.950 . S
C136 O152 1.251 . S
C136 O154 1.254 . S
N137 C138 1.333 . S
N137 C142 1.307 . S
N137 Zn143 2.020 . S
C138 N137 1.333 . S
C138 C139 1.379 . S
C138 H156 0.952 . S
C139 C138 1.379 . S
C139 C140 1.390 1_565 S
C139 H166 0.949 . S
C140 C139 1.390 1_545 S
C140 C141 1.357 1_545 S
C141 C140 1.357 1_565 S
C141 C142 1.370 . S
C141 H167 0.950 1_565 S
C142 N137 1.307 . S
C142 C141 1.370 . S
C142 H160 0.948 . S
Zn143 N137 2.020 . S
Zn143 O152 2.039 . S
Zn143 O158 2.034 . S
Zn143 O162 2.025 . S
Zn143 O164 2.024 . S
C144 O163 1.246 . S
C144 O164 1.249 . S
N145 C146 1.307 . S
N145 C147 1.333 . S
N145 Zn151 2.020 . S
C146 N145 1.307 . S
C146 C150 1.370 . S
C146 H157 0.948 . S
C147 N145 1.333 . S
C147 C148 1.379 . S
C147 H155 0.952 . S
C148 C147 1.379 . S
C148 C149 1.390 . S
C148 H168 0.949 . S
C149 C148 1.390 . S
C149 C150 1.357 . S
C150 C146 1.370 . S
C150 C149 1.357 . S
C150 H169 0.950 . S
Zn151 N145 2.020 . S
Zn151 O154 2.025 . S
Zn151 O159 2.024 . S
Zn151 O161 2.039 . S
Zn151 O163 2.034 . S
O152 C136 1.251 . S
O152 Zn143 2.039 . S
C153 O158 1.246 . S
C153 O159 1.249 . S
O154 C136 1.254 . S
O154 Zn151 2.025 . S
H155 C147 0.952 . S
H156 C138 0.952 . S
H157 C146 0.948 . S
O158 Zn143 2.034 . S
O158 C153 1.246 . S
O159 Zn151 2.024 . S
O159 C153 1.249 . S
H160 C142 0.948 . S
O161 Zn151 2.039 . S
O161 C165 1.251 . S
O162 Zn143 2.025 . S
O162 C165 1.254 . S
O163 C144 1.246 . S
O163 Zn151 2.034 . S
O164 Zn143 2.024 . S
O164 C144 1.249 . S
C165 O161 1.251 . S
C165 O162 1.254 . S
H166 C139 0.949 . S
H167 C141 0.950 1_545 S
H168 C148 0.949 . S
H169 C150 0.950 . S
C170 O186 1.251 . S
C170 O188 1.254 . S
N171 C172 1.333 . S
N171 C176 1.307 . S
N171 Zn177 2.020 . S
C172 N171 1.333 . S
C172 C173 1.379 . S
C172 H190 0.952 . S
C173 C172 1.379 . S
C173 C174 1.390 . S
C173 H200 0.949 . S
C174 C173 1.390 . S
C174 C175 1.357 . S
C175 C174 1.357 . S
C175 C176 1.370 . S
C175 H201 0.950 . S
C176 N171 1.307 . S
C176 C175 1.370 . S
C176 H194 0.948 . S
Zn177 N171 2.020 . S
Zn177 O186 2.039 . S
Zn177 O192 2.034 . S
Zn177 O196 2.025 . S
Zn177 O198 2.024 . S
C178 O197 1.246 . S
C178 O198 1.249 . S
N179 C180 1.307 . S
N179 C181 1.333 . S
N179 Zn185 2.020 . S
C180 N179 1.307 . S
C180 C184 1.370 . S
C180 H191 0.948 . S
C181 N179 1.333 . S
C181 C182 1.379 . S
C181 H189 0.952 . S
C182 C181 1.379 . S
C182 C183 1.390 . S
C182 H202 0.949 . S
C183 C182 1.390 . S
C183 C184 1.357 . S
C184 C180 1.370 . S
C184 C183 1.357 . S
C184 H203 0.950 . S
Zn185 N179 2.020 . S
Zn185 O188 2.025 . S
Zn185 O193 2.024 . S
Zn185 O195 2.039 . S
Zn185 O197 2.034 . S
O186 C170 1.251 . S
O186 Zn177 2.039 . S
C187 O192 1.246 . S
C187 O193 1.249 . S
O188 C170 1.254 . S
O188 Zn185 2.025 . S
H189 C181 0.952 . S
H190 C172 0.952 . S
H191 C180 0.948 . S
O192 Zn177 2.034 . S
O192 C187 1.246 . S
O193 Zn185 2.024 . S
O193 C187 1.249 . S
H194 C176 0.948 . S
O195 Zn185 2.039 . S
O195 C199 1.251 . S
O196 Zn177 2.025 . S
O196 C199 1.254 . S
O197 C178 1.246 . S
O197 Zn185 2.034 . S
O198 Zn177 2.024 . S
O198 C178 1.249 . S
C199 O195 1.251 . S
C199 O196 1.254 . S
H200 C173 0.949 . S
H201 C175 0.950 . S
H202 C182 0.949 . S
H203 C184 0.950 . S
C204 O220 1.251 . S
C204 O222 1.254 . S
N205 C206 1.333 . S
N205 C210 1.307 . S
N205 Zn211 2.020 . S
C206 N205 1.333 . S
C206 C207 1.379 . S
C206 H224 0.952 . S
C207 C206 1.379 . S
C207 C208 1.390 1_545 S
C207 H234 0.949 . S
C208 C207 1.390 1_565 S
C208 C209 1.357 1_565 S
C209 C208 1.357 1_545 S
C209 C210 1.370 . S
C209 H235 0.950 1_545 S
C210 N205 1.307 . S
C210 C209 1.370 . S
C210 H228 0.948 . S
Zn211 N205 2.020 . S
Zn211 O220 2.039 . S
Zn211 O226 2.034 . S
Zn211 O230 2.025 . S
Zn211 O232 2.024 . S
C212 O231 1.246 . S
C212 O232 1.249 . S
N213 C214 1.307 . S
N213 C215 1.333 . S
N213 Zn219 2.020 . S
C214 N213 1.307 . S
C214 C218 1.370 . S
C214 H225 0.948 . S
C215 N213 1.333 . S
C215 C216 1.379 . S
C215 H223 0.952 . S
C216 C215 1.379 . S
C216 C217 1.390 . S
C216 H236 0.949 . S
C217 C216 1.390 . S
C217 C218 1.357 . S
C218 C214 1.370 . S
C218 C217 1.357 . S
C218 H237 0.950 . S
Zn219 N213 2.020 . S
Zn219 O222 2.025 . S
Zn219 O227 2.024 . S
Zn219 O229 2.039 . S
Zn219 O231 2.034 . S
O220 C204 1.251 . S
O220 Zn211 2.039 . S
C221 O226 1.246 . S
C221 O227 1.249 . S
O222 C204 1.254 . S
O222 Zn219 2.025 . S
H223 C215 0.952 . S
H224 C206 0.952 . S
H225 C214 0.948 . S
O226 Zn211 2.034 . S
O226 C221 1.246 . S
O227 Zn219 2.024 . S
O227 C221 1.249 . S
H228 C210 0.948 . S
O229 Zn219 2.039 . S
O229 C233 1.251 . S
O230 Zn211 2.025 . S
O230 C233 1.254 . S
O231 C212 1.246 . S
O231 Zn219 2.034 . S
O232 Zn211 2.024 . S
O232 C212 1.249 . S
C233 O229 1.251 . S
C233 O230 1.254 . S
H234 C207 0.949 . S
H235 C209 0.950 1_565 S
H236 C216 0.949 . S
H237 C218 0.950 . S
C238 O254 1.251 . S
C238 O256 1.254 . S
N239 C240 1.333 . S
N239 C244 1.307 . S
N239 Zn245 2.020 . S
C240 N239 1.333 . S
C240 C241 1.379 . S
C240 H258 0.952 . S
C241 C240 1.379 . S
C241 C242 1.390 . S
C241 H268 0.949 . S
C242 C241 1.390 . S
C242 C243 1.357 . S
C243 C242 1.357 . S
C243 C244 1.370 . S
C243 H269 0.950 . S
C244 N239 1.307 . S
C244 C243 1.370 . S
C244 H262 0.948 . S
Zn245 N239 2.020 . S
Zn245 O254 2.039 . S
Zn245 O260 2.034 . S
Zn245 O264 2.025 . S
Zn245 O266 2.024 . S
C246 O265 1.246 . S
C246 O266 1.249 . S
N247 C248 1.307 . S
N247 C249 1.333 . S
N247 Zn253 2.020 1_655 S
C248 N247 1.307 . S
C248 C252 1.370 . S
C248 H259 0.948 . S
C249 N247 1.333 . S
C249 C250 1.379 . S
C249 H257 0.952 . S
C250 C249 1.379 . S
C250 C251 1.390 . S
C250 H270 0.949 . S
C251 C250 1.390 . S
C251 C252 1.357 . S
C252 C248 1.370 . S
C252 C251 1.357 . S
C252 H271 0.950 . S
Zn253 N247 2.020 1_455 S
Zn253 O256 2.025 . S
Zn253 O261 2.024 . S
Zn253 O263 2.039 . S
Zn253 O265 2.034 . S
O254 C238 1.251 . S
O254 Zn245 2.039 . S
C255 O260 1.246 . S
C255 O261 1.249 . S
O256 C238 1.254 . S
O256 Zn253 2.025 . S
H257 C249 0.952 . S
H258 C240 0.952 . S
H259 C248 0.948 . S
O260 Zn245 2.034 . S
O260 C255 1.246 . S
O261 Zn253 2.024 . S
O261 C255 1.249 . S
H262 C244 0.948 . S
O263 Zn253 2.039 . S
O263 C267 1.251 . S
O264 Zn245 2.025 . S
O264 C267 1.254 . S
O265 C246 1.246 . S
O265 Zn253 2.034 . S
O266 Zn245 2.024 . S
O266 C246 1.249 . S
C267 O263 1.251 . S
C267 O264 1.254 . S
H268 C241 0.949 . S
H269 C243 0.950 . S
H270 C250 0.949 . S
H271 C252 0.950 . S
C272 O288 1.251 . S
C272 O290 1.254 . S
N273 C274 1.333 . S
N273 C278 1.307 . S
N273 Zn279 2.020 . S
C274 N273 1.333 . S
C274 C275 1.379 . S
C274 H292 0.952 . S
C275 C274 1.379 . S
C275 C276 1.390 . S
C275 H302 0.949 . S
C276 C275 1.390 . S
C276 C277 1.357 . S
C277 C276 1.357 . S
C277 C278 1.370 . S
C277 H303 0.950 . S
C278 N273 1.307 . S
C278 C277 1.370 . S
C278 H296 0.948 . S
Zn279 N273 2.020 . S
Zn279 O288 2.039 . S
Zn279 O294 2.034 . S
Zn279 O298 2.025 . S
Zn279 O300 2.024 . S
C280 O299 1.246 . S
C280 O300 1.249 . S
N281 C282 1.307 . S
N281 C283 1.333 . S
N281 Zn287 2.020 . S
C282 N281 1.307 . S
C282 C286 1.370 . S
C282 H293 0.948 . S
C283 N281 1.333 . S
C283 C284 1.379 . S
C283 H291 0.952 . S
C284 C283 1.379 . S
C284 C285 1.390 . S
C284 H304 0.949 . S
C285 C284 1.390 . S
C285 C286 1.357 . S
C286 C282 1.370 . S
C286 C285 1.357 . S
C286 H305 0.950 . S
Zn287 N281 2.020 . S
Zn287 O290 2.025 . S
Zn287 O295 2.024 . S
Zn287 O297 2.039 . S
Zn287 O299 2.034 . S
O288 C272 1.251 . S
O288 Zn279 2.039 . S
C289 O294 1.246 . S
C289 O295 1.249 . S
O290 C272 1.254 . S
O290 Zn287 2.025 . S
H291 C283 0.952 . S
H292 C274 0.952 . S
H293 C282 0.948 . S
O294 Zn279 2.034 . S
O294 C289 1.246 . S
O295 Zn287 2.024 . S
O295 C289 1.249 . S
H296 C278 0.948 . S
O297 Zn287 2.039 . S
O297 C301 1.251 . S
O298 Zn279 2.025 . S
O298 C301 1.254 . S
O299 C280 1.246 . S
O299 Zn287 2.034 . S
O300 Zn279 2.024 . S
O300 C280 1.249 . S
C301 O297 1.251 . S
C301 O298 1.254 . S
H302 C275 0.949 . S
H303 C277 0.950 . S
H304 C284 0.949 . S
H305 C286 0.950 . S
C306 O322 1.251 . S
C306 O324 1.254 . S
N307 C308 1.333 . S
N307 C312 1.307 1_545 S
N307 Zn313 2.020 1_655 S
C308 N307 1.333 . S
C308 C309 1.379 . S
C308 H326 0.952 . S
C309 C308 1.379 . S
C309 C310 1.390 1_545 S
C309 H336 0.949 . S
C310 C309 1.390 1_565 S
C310 C311 1.357 . S
C311 C310 1.357 . S
C311 C312 1.370 . S
C311 H337 0.950 . S
C312 N307 1.307 1_565 S
C312 C311 1.370 . S
C312 H330 0.948 . S
Zn313 N307 2.020 1_455 S
Zn313 O322 2.039 . S
Zn313 O328 2.034 . S
Zn313 O332 2.025 . S
Zn313 O334 2.024 1_545 S
C314 O333 1.246 1_565 S
C314 O334 1.249 . S
N315 C316 1.307 . S
N315 C317 1.333 . S
N315 Zn321 2.020 . S
C316 N315 1.307 . S
C316 C320 1.370 . S
C316 H327 0.948 . S
C317 N315 1.333 . S
C317 C318 1.379 . S
C317 H325 0.952 . S
C318 C317 1.379 . S
C318 C319 1.390 . S
C318 H338 0.949 . S
C319 C318 1.390 . S
C319 C320 1.357 . S
C320 C316 1.370 . S
C320 C319 1.357 . S
C320 H339 0.950 . S
Zn321 N315 2.020 . S
Zn321 O324 2.025 . S
Zn321 O329 2.024 . S
Zn321 O331 2.039 . S
Zn321 O333 2.034 . S
O322 C306 1.251 . S
O322 Zn313 2.039 . S
C323 O328 1.246 . S
C323 O329 1.249 . S
O324 C306 1.254 . S
O324 Zn321 2.025 . S
H325 C317 0.952 . S
H326 C308 0.952 . S
H327 C316 0.948 . S
O328 Zn313 2.034 . S
O328 C323 1.246 . S
O329 Zn321 2.024 . S
O329 C323 1.249 . S
H330 C312 0.948 . S
O331 Zn321 2.039 . S
O331 C335 1.251 . S
O332 Zn313 2.025 . S
O332 C335 1.254 . S
O333 C314 1.246 1_545 S
O333 Zn321 2.034 . S
O334 Zn313 2.024 1_565 S
O334 C314 1.249 . S
C335 O331 1.251 . S
C335 O332 1.254 . S
H336 C309 0.949 . S
H337 C311 0.950 . S
H338 C318 0.949 . S
H339 C320 0.950 . S
C340 O356 1.251 . S
C340 O358 1.254 . S
N341 C342 1.333 . S
N341 C346 1.307 . S
N341 Zn347 2.020 . S
C342 N341 1.333 . S
C342 C343 1.379 . S
C342 H360 0.952 . S
C343 C342 1.379 . S
C343 C344 1.390 . S
C343 H370 0.949 . S
C344 C343 1.390 . S
C344 C345 1.357 . S
C345 C344 1.357 . S
C345 C346 1.370 . S
C345 H371 0.950 . S
C346 N341 1.307 . S
C346 C345 1.370 . S
C346 H364 0.948 . S
Zn347 N341 2.020 . S
Zn347 O356 2.039 . S
Zn347 O362 2.034 . S
Zn347 O366 2.025 . S
Zn347 O368 2.024 . S
C348 O367 1.246 . S
C348 O368 1.249 . S
N349 C350 1.307 . S
N349 C351 1.333 . S
N349 Zn355 2.020 . S
C350 N349 1.307 . S
C350 C354 1.370 . S
C350 H361 0.948 . S
C351 N349 1.333 . S
C351 C352 1.379 . S
C351 H359 0.952 . S
C352 C351 1.379 . S
C352 C353 1.390 . S
C352 H372 0.949 . S
C353 C352 1.390 . S
C353 C354 1.357 . S
C354 C350 1.370 . S
C354 C353 1.357 . S
C354 H373 0.950 . S
Zn355 N349 2.020 . S
Zn355 O358 2.025 . S
Zn355 O363 2.024 . S
Zn355 O365 2.039 . S
Zn355 O367 2.034 . S
O356 C340 1.251 . S
O356 Zn347 2.039 . S
C357 O362 1.246 . S
C357 O363 1.249 . S
O358 C340 1.254 . S
O358 Zn355 2.025 . S
H359 C351 0.952 . S
H360 C342 0.952 . S
H361 C350 0.948 . S
O362 Zn347 2.034 . S
O362 C357 1.246 . S
O363 Zn355 2.024 . S
O363 C357 1.249 . S
H364 C346 0.948 . S
O365 Zn355 2.039 . S
O365 C369 1.251 . S
O366 Zn347 2.025 . S
O366 C369 1.254 . S
O367 C348 1.246 . S
O367 Zn355 2.034 . S
O368 Zn347 2.024 . S
O368 C348 1.249 . S
C369 O365 1.251 . S
C369 O366 1.254 . S
H370 C343 0.949 . S
H371 C345 0.950 . S
H372 C352 0.949 . S
H373 C354 0.950 . S
C374 O390 1.251 . S
C374 O392 1.254 . S
N375 C376 1.333 . S
N375 C380 1.307 1_565 S
N375 Zn381 2.020 . S
C376 N375 1.333 . S
C376 C377 1.379 . S
C376 H394 0.952 . S
C377 C376 1.379 . S
C377 C378 1.390 1_565 S
C377 H404 0.949 . S
C378 C377 1.390 1_545 S
C378 C379 1.357 . S
C379 C378 1.357 . S
C379 C380 1.370 . S
C379 H405 0.950 . S
C380 N375 1.307 1_545 S
C380 C379 1.370 . S
C380 H398 0.948 . S
Zn381 N375 2.020 . S
Zn381 O390 2.039 . S
Zn381 O396 2.034 . S
Zn381 O400 2.025 . S
Zn381 O402 2.024 1_565 S
C382 O401 1.246 1_545 S
C382 O402 1.249 . S
N383 C384 1.307 . S
N383 C385 1.333 . S
N383 Zn389 2.020 . S
C384 N383 1.307 . S
C384 C388 1.370 . S
C384 H395 0.948 . S
C385 N383 1.333 . S
C385 C386 1.379 . S
C385 H393 0.952 . S
C386 C385 1.379 . S
C386 C387 1.390 . S
C386 H406 0.949 . S
C387 C386 1.390 . S
C387 C388 1.357 . S
C388 C384 1.370 . S
C388 C387 1.357 . S
C388 H407 0.950 . S
Zn389 N383 2.020 . S
Zn389 O392 2.025 . S
Zn389 O397 2.024 . S
Zn389 O399 2.039 . S
Zn389 O401 2.034 . S
O390 C374 1.251 . S
O390 Zn381 2.039 . S
C391 O396 1.246 . S
C391 O397 1.249 . S
O392 C374 1.254 . S
O392 Zn389 2.025 . S
H393 C385 0.952 . S
H394 C376 0.952 . S
H395 C384 0.948 . S
O396 Zn381 2.034 . S
O396 C391 1.246 . S
O397 Zn389 2.024 . S
O397 C391 1.249 . S
H398 C380 0.948 . S
O399 Zn389 2.039 . S
O399 C403 1.251 . S
O400 Zn381 2.025 . S
O400 C403 1.254 . S
O401 C382 1.246 1_565 S
O401 Zn389 2.034 . S
O402 Zn381 2.024 1_545 S
O402 C382 1.249 . S
C403 O399 1.251 . S
C403 O400 1.254 . S
H404 C377 0.949 . S
H405 C379 0.950 . S
H406 C386 0.949 . S
H407 C388 0.950 . S
C408 O424 1.251 . S
C408 O426 1.254 . S
N409 C410 1.333 . S
N409 C414 1.307 . S
N409 Zn415 2.020 . S
C410 N409 1.333 . S
C410 C411 1.379 . S
C410 H428 0.952 . S
C411 C410 1.379 . S
C411 C412 1.390 . S
C411 H438 0.949 . S
C412 C411 1.390 . S
C412 C413 1.357 . S
C413 C412 1.357 . S
C413 C414 1.370 . S
C413 H439 0.950 . S
C414 N409 1.307 . S
C414 C413 1.370 . S
C414 H432 0.948 . S
Zn415 N409 2.020 . S
Zn415 O424 2.039 . S
Zn415 O430 2.034 . S
Zn415 O434 2.025 . S
Zn415 O436 2.024 . S
C416 O435 1.246 . S
C416 O436 1.249 . S
N417 C418 1.307 . S
N417 C419 1.333 . S
N417 Zn423 2.020 . S
C418 N417 1.307 . S
C418 C422 1.370 . S
C418 H429 0.948 . S
C419 N417 1.333 . S
C419 C420 1.379 . S
C419 H427 0.952 . S
C420 C419 1.379 . S
C420 C421 1.390 . S
C420 H440 0.949 . S
C421 C420 1.390 . S
C421 C422 1.357 . S
C422 C418 1.370 . S
C422 C421 1.357 . S
C422 H441 0.950 . S
Zn423 N417 2.020 . S
Zn423 O426 2.025 . S
Zn423 O431 2.024 . S
Zn423 O433 2.039 . S
Zn423 O435 2.034 . S
O424 C408 1.251 . S
O424 Zn415 2.039 . S
C425 O430 1.246 . S
C425 O431 1.249 . S
O426 C408 1.254 . S
O426 Zn423 2.025 . S
H427 C419 0.952 . S
H428 C410 0.952 . S
H429 C418 0.948 . S
O430 Zn415 2.034 . S
O430 C425 1.246 . S
O431 Zn423 2.024 . S
O431 C425 1.249 . S
H432 C414 0.948 . S
O433 Zn423 2.039 . S
O433 C437 1.251 . S
O434 Zn415 2.025 . S
O434 C437 1.254 . S
O435 C416 1.246 . S
O435 Zn423 2.034 . S
O436 Zn415 2.024 . S
O436 C416 1.249 . S
C437 O433 1.251 . S
C437 O434 1.254 . S
H438 C411 0.949 . S
H439 C413 0.950 . S
H440 C420 0.949 . S
H441 C422 0.950 . S
C442 O458 1.251 . S
C442 O460 1.254 . S
N443 C444 1.333 . S
N443 C448 1.307 . S
N443 Zn449 2.020 . S
C444 N443 1.333 . S
C444 C445 1.379 . S
C444 H462 0.952 . S
C445 C444 1.379 . S
C445 C446 1.390 . S
C445 H472 0.949 . S
C446 C445 1.390 . S
C446 C447 1.357 . S
C447 C446 1.357 . S
C447 C448 1.370 . S
C447 H473 0.950 . S
C448 N443 1.307 . S
C448 C447 1.370 . S
C448 H466 0.948 . S
Zn449 N443 2.020 . S
Zn449 O458 2.039 . S
Zn449 O464 2.034 . S
Zn449 O468 2.025 . S
Zn449 O470 2.024 . S
C450 O469 1.246 . S
C450 O470 1.249 . S
N451 C452 1.307 1_565 S
N451 C453 1.333 . S
N451 Zn457 2.020 1_455 S
C452 N451 1.307 1_545 S
C452 C456 1.370 . S
C452 H463 0.948 . S
C453 N451 1.333 . S
C453 C454 1.379 . S
C453 H461 0.952 . S
C454 C453 1.379 . S
C454 C455 1.390 1_565 S
C454 H474 0.949 . S
C455 C454 1.390 1_545 S
C455 C456 1.357 . S
C456 C452 1.370 . S
C456 C455 1.357 . S
C456 H475 0.950 . S
Zn457 N451 2.020 1_655 S
Zn457 O460 2.025 . S
Zn457 O465 2.024 1_565 S
Zn457 O467 2.039 . S
Zn457 O469 2.034 . S
O458 C442 1.251 . S
O458 Zn449 2.039 . S
C459 O464 1.246 1_545 S
C459 O465 1.249 . S
O460 C442 1.254 . S
O460 Zn457 2.025 . S
H461 C453 0.952 . S
H462 C444 0.952 . S
H463 C452 0.948 . S
O464 Zn449 2.034 . S
O464 C459 1.246 1_565 S
O465 Zn457 2.024 1_545 S
O465 C459 1.249 . S
H466 C448 0.948 . S
O467 Zn457 2.039 . S
O467 C471 1.251 . S
O468 Zn449 2.025 . S
O468 C471 1.254 . S
O469 C450 1.246 . S
O469 Zn457 2.034 . S
O470 Zn449 2.024 . S
O470 C450 1.249 . S
C471 O467 1.251 . S
C471 O468 1.254 . S
H472 C445 0.949 . S
H473 C447 0.950 . S
H474 C454 0.949 . S
H475 C456 0.950 . S
C476 O492 1.251 . S
C476 O494 1.254 . S
N477 C478 1.333 . S
N477 C482 1.307 . S
N477 Zn483 2.020 . S
C478 N477 1.333 . S
C478 C479 1.379 . S
C478 H496 0.952 . S
C479 C478 1.379 . S
C479 C480 1.390 . S
C479 H506 0.949 . S
C480 C479 1.390 . S
C480 C481 1.357 . S
C481 C480 1.357 . S
C481 C482 1.370 . S
C481 H507 0.950 . S
C482 N477 1.307 . S
C482 C481 1.370 . S
C482 H500 0.948 . S
Zn483 N477 2.020 . S
Zn483 O492 2.039 . S
Zn483 O498 2.034 . S
Zn483 O502 2.025 . S
Zn483 O504 2.024 . S
C484 O503 1.246 . S
C484 O504 1.249 . S
N485 C486 1.307 . S
N485 C487 1.333 . S
N485 Zn491 2.020 . S
C486 N485 1.307 . S
C486 C490 1.370 . S
C486 H497 0.948 . S
C487 N485 1.333 . S
C487 C488 1.379 . S
C487 H495 0.952 . S
C488 C487 1.379 . S
C488 C489 1.390 . S
C488 H508 0.949 . S
C489 C488 1.390 . S
C489 C490 1.357 . S
C490 C486 1.370 . S
C490 C489 1.357 . S
C490 H509 0.950 . S
Zn491 N485 2.020 . S
Zn491 O494 2.025 . S
Zn491 O499 2.024 . S
Zn491 O501 2.039 . S
Zn491 O503 2.034 . S
O492 C476 1.251 . S
O492 Zn483 2.039 . S
C493 O498 1.246 . S
C493 O499 1.249 . S
O494 C476 1.254 . S
O494 Zn491 2.025 . S
H495 C487 0.952 . S
H496 C478 0.952 . S
H497 C486 0.948 . S
O498 Zn483 2.034 . S
O498 C493 1.246 . S
O499 Zn491 2.024 . S
O499 C493 1.249 . S
H500 C482 0.948 . S
O501 Zn491 2.039 . S
O501 C505 1.251 . S
O502 Zn483 2.025 . S
O502 C505 1.254 . S
O503 C484 1.246 . S
O503 Zn491 2.034 . S
O504 Zn483 2.024 . S
O504 C484 1.249 . S
C505 O501 1.251 . S
C505 O502 1.254 . S
H506 C479 0.949 . S
H507 C481 0.950 . S
H508 C488 0.949 . S
H509 C490 0.950 . S
C510 O526 1.251 . S
C510 O528 1.254 . S
N511 C512 1.333 . S
N511 C516 1.307 . S
N511 Zn517 2.020 . S
C512 N511 1.333 . S
C512 C513 1.379 . S
C512 H530 0.952 . S
C513 C512 1.379 . S
C513 C514 1.390 . S
C513 H540 0.949 . S
C514 C513 1.390 . S
C514 C515 1.357 . S
C515 C514 1.357 . S
C515 C516 1.370 . S
C515 H541 0.950 . S
C516 N511 1.307 . S
C516 C515 1.370 . S
C516 H534 0.948 . S
Zn517 N511 2.020 . S
Zn517 O526 2.039 . S
Zn517 O532 2.034 . S
Zn517 O536 2.025 . S
Zn517 O538 2.024 . S
C518 O537 1.246 . S
C518 O538 1.249 . S
N519 C520 1.307 1_545 S
N519 C521 1.333 . S
N519 Zn525 2.020 . S
C520 N519 1.307 1_565 S
C520 C524 1.370 . S
C520 H531 0.948 . S
C521 N519 1.333 . S
C521 C522 1.379 . S
C521 H529 0.952 . S
C522 C521 1.379 . S
C522 C523 1.390 1_545 S
C522 H542 0.949 . S
C523 C522 1.390 1_565 S
C523 C524 1.357 . S
C524 C520 1.370 . S
C524 C523 1.357 . S
C524 H543 0.950 . S
Zn525 N519 2.020 . S
Zn525 O528 2.025 . S
Zn525 O533 2.024 1_545 S
Zn525 O535 2.039 . S
Zn525 O537 2.034 . S
O526 C510 1.251 . S
O526 Zn517 2.039 . S
C527 O532 1.246 1_565 S
C527 O533 1.249 . S
O528 C510 1.254 . S
O528 Zn525 2.025 . S
H529 C521 0.952 . S
H530 C512 0.952 . S
H531 C520 0.948 . S
O532 Zn517 2.034 . S
O532 C527 1.246 1_545 S
O533 Zn525 2.024 1_565 S
O533 C527 1.249 . S
H534 C516 0.948 . S
O535 Zn525 2.039 . S
O535 C539 1.251 . S
O536 Zn517 2.025 . S
O536 C539 1.254 . S
O537 C518 1.246 . S
O537 Zn525 2.034 . S
O538 Zn517 2.024 . S
O538 C518 1.249 . S
C539 O535 1.251 . S
C539 O536 1.254 . S
H540 C513 0.949 . S
H541 C515 0.950 . S
H542 C522 0.949 . S
H543 C524 0.950 . S
C544 C545 1.387 . S
C544 H548 0.950 . S
C544 C553 1.390 . S
C545 C544 1.387 . S
C545 C547 1.387 . S
H546 C553 0.950 . S
C547 C545 1.387 . S
C547 C549 1.390 . S
C547 H551 0.950 . S
H548 C544 0.950 . S
C549 C547 1.390 . S
C549 C550 1.387 . S
C549 H552 0.950 . S
C550 C549 1.387 . S
C550 C553 1.387 . S
H551 C547 0.950 . S
H552 C549 0.950 . S
C553 C544 1.390 . S
C553 H546 0.950 . S
C553 C550 1.387 . S
C554 C555 1.387 . S
C554 H558 0.950 . S
C554 C563 1.390 . S
C555 C554 1.387 . S
C555 C557 1.387 . S
H556 C563 0.950 . S
C557 C555 1.387 . S
C557 C559 1.390 . S
C557 H561 0.950 . S
H558 C554 0.950 . S
C559 C557 1.390 . S
C559 C560 1.387 . S
C559 H562 0.950 . S
C560 C559 1.387 . S
C560 C563 1.387 . S
H561 C557 0.950 . S
H562 C559 0.950 . S
C563 C554 1.390 . S
C563 H556 0.950 . S
C563 C560 1.387 . S
C564 C565 1.387 . S
C564 H568 0.950 . S
C564 C573 1.390 . S
C565 C564 1.387 . S
C565 C567 1.387 . S
H566 C573 0.950 . S
C567 C565 1.387 . S
C567 C569 1.390 . S
C567 H571 0.950 . S
H568 C564 0.950 . S
C569 C567 1.390 . S
C569 C570 1.387 . S
C569 H572 0.950 . S
C570 C569 1.387 . S
C570 C573 1.387 . S
H571 C567 0.950 . S
H572 C569 0.950 . S
C573 C564 1.390 . S
C573 H566 0.950 . S
C573 C570 1.387 . S
C574 C575 1.387 . S
C574 H578 0.950 . S
C574 C583 1.390 . S
C575 C574 1.387 . S
C575 C577 1.387 1_656 S
H576 C583 0.950 . S
C577 C575 1.387 1_454 S
C577 C579 1.390 . S
C577 H581 0.950 . S
H578 C574 0.950 . S
C579 C577 1.390 . S
C579 C580 1.387 . S
C579 H582 0.950 . S
C580 C579 1.387 . S
C580 C583 1.387 1_454 S
H581 C577 0.950 . S
H582 C579 0.950 . S
C583 C574 1.390 . S
C583 H576 0.950 . S
C583 C580 1.387 1_656 S
C584 C585 1.387 . S
C584 H588 0.950 . S
C584 C593 1.390 . S
C585 C584 1.387 . S
C585 C587 1.387 . S
H586 C593 0.950 . S
C587 C585 1.387 . S
C587 C589 1.390 . S
C587 H591 0.950 . S
H588 C584 0.950 . S
C589 C587 1.390 . S
C589 C590 1.387 . S
C589 H592 0.950 . S
C590 C589 1.387 . S
C590 C593 1.387 . S
H591 C587 0.950 . S
H592 C589 0.950 . S
C593 C584 1.390 . S
C593 H586 0.950 . S
C593 C590 1.387 . S
C594 C595 1.387 . S
C594 H598 0.950 . S
C594 C603 1.390 . S
C595 C594 1.387 . S
C595 C597 1.387 . S
H596 C603 0.950 . S
C597 C595 1.387 . S
C597 C599 1.390 . S
C597 H601 0.950 . S
H598 C594 0.950 . S
C599 C597 1.390 . S
C599 C600 1.387 . S
C599 H602 0.950 . S
C600 C599 1.387 . S
C600 C603 1.387 . S
H601 C597 0.950 . S
H602 C599 0.950 . S
C603 C594 1.390 . S
C603 H596 0.950 . S
C603 C600 1.387 . S
C604 C605 1.387 1_455 S
C604 H608 0.950 . S
C604 C613 1.390 1_565 S
C605 C604 1.387 1_655 S
C605 C607 1.387 1_554 S
H606 C613 0.950 . S
C607 C605 1.387 1_556 S
C607 C609 1.390 1_565 S
C607 H611 0.950 . S
H608 C604 0.950 . S
C609 C607 1.390 1_545 S
C609 C610 1.387 1_655 S
C609 H612 0.950 . S
C610 C609 1.387 1_455 S
C610 C613 1.387 1_556 S
H611 C607 0.950 . S
H612 C609 0.950 . S
C613 C604 1.390 1_545 S
C613 H606 0.950 . S
C613 C610 1.387 1_554 S
C614 C615 1.387 . S
C614 H618 0.950 . S
C614 C623 1.390 . S
C615 C614 1.387 . S
C615 C617 1.387 1_565 S
H616 C623 0.950 . S
C617 C615 1.387 1_545 S
C617 C619 1.390 . S
C617 H621 0.950 . S
H618 C614 0.950 . S
C619 C617 1.390 . S
C619 C620 1.387 . S
C619 H622 0.950 . S
C620 C619 1.387 . S
C620 C623 1.387 1_545 S
H621 C617 0.950 . S
H622 C619 0.950 . S
C623 C614 1.390 . S
C623 H616 0.950 . S
C623 C620 1.387 1_565 S
C624 C625 1.385 1_554 S
C624 H628 0.943 1_554 S
C624 C633 1.400 . S
C625 C624 1.385 1_556 S
C625 C627 1.387 1_556 S
H626 C633 0.950 . S
C627 C625 1.387 1_554 S
C627 C629 1.390 . S
C627 H631 0.950 . S
H628 C624 0.943 1_556 S
C629 C627 1.390 . S
C629 C630 1.387 . S
C629 H632 0.950 . S
C630 C629 1.387 . S
C630 C633 1.387 . S
H631 C627 0.950 . S
H632 C629 0.950 . S
C633 C624 1.400 . S
C633 H626 0.950 . S
C633 C630 1.387 . S
C634 C635 1.387 . S
C634 H638 0.950 . S
C634 C643 1.390 . S
C635 C634 1.387 . S
C635 C637 1.387 . S
H636 C643 0.950 . S
C637 C635 1.387 . S
C637 C639 1.390 . S
C637 H641 0.950 . S
H638 C634 0.950 . S
C639 C637 1.390 . S
C639 C640 1.387 . S
C639 H642 0.950 . S
C640 C639 1.387 . S
C640 C643 1.387 . S
H641 C637 0.950 . S
H642 C639 0.950 . S
C643 C634 1.390 . S
C643 H636 0.950 . S
C643 C640 1.387 . S
C644 C645 1.387 . S
C644 H648 0.950 . S
C644 C653 1.390 . S
C645 C644 1.387 . S
C645 C647 1.387 . S
H646 C653 0.950 . S
C647 C645 1.387 . S
C647 C649 1.390 . S
C647 H651 0.950 . S
H648 C644 0.950 . S
C649 C647 1.390 . S
C649 C650 1.387 . S
C649 H652 0.950 . S
C650 C649 1.387 . S
C650 C653 1.387 . S
H651 C647 0.950 . S
H652 C649 0.950 . S
C653 C644 1.390 . S
C653 H646 0.950 . S
C653 C650 1.387 . S
C654 C655 1.387 . S
C654 H658 0.950 . S
C654 C663 1.390 . S
C655 C654 1.387 . S
C655 C657 1.387 . S
H656 C663 0.950 . S
C657 C655 1.387 . S
C657 C659 1.390 . S
C657 H661 0.950 . S
H658 C654 0.950 . S
C659 C657 1.390 . S
C659 C660 1.387 . S
C659 H662 0.950 . S
C660 C659 1.387 . S
C660 C663 1.387 . S
H661 C657 0.950 . S
H662 C659 0.950 . S
C663 C654 1.390 . S
C663 H656 0.950 . S
C663 C660 1.387 . S
C664 C665 1.387 1_556 S
C664 H668 0.950 . S
C664 C673 1.390 . S
C665 C664 1.387 1_554 S
C665 C667 1.387 1_554 S
H666 C673 0.950 . S
C667 C665 1.387 1_556 S
C667 C669 1.390 . S
C667 H671 0.950 1_556 S
H668 C664 0.950 . S
C669 C667 1.390 . S
C669 C670 1.387 . S
C669 H672 0.950 . S
C670 C669 1.387 . S
C670 C673 1.387 . S
H671 C667 0.950 1_554 S
H672 C669 0.950 . S
C673 C664 1.390 . S
C673 H666 0.950 . S
C673 C670 1.387 . S
C674 C675 1.387 . S
C674 H678 0.950 . S
C674 C683 1.390 . S
C675 C674 1.387 . S
C675 C677 1.387 . S
H676 C683 0.950 . S
C677 C675 1.387 . S
C677 C679 1.390 . S
C677 H681 0.950 . S
H678 C674 0.950 . S
C679 C677 1.390 . S
C679 C680 1.387 . S
C679 H682 0.950 . S
C680 C679 1.387 . S
C680 C683 1.387 . S
H681 C677 0.950 . S
H682 C679 0.950 . S
C683 C674 1.390 . S
C683 H676 0.950 . S
C683 C680 1.387 . S
C684 C685 1.387 . S
C684 H688 0.950 . S
C684 C693 1.390 . S
C685 C684 1.387 . S
C685 C687 1.387 . S
H686 C693 0.950 . S
C687 C685 1.387 . S
C687 C689 1.390 . S
C687 H691 0.950 . S
H688 C684 0.950 . S
C689 C687 1.390 . S
C689 C690 1.387 . S
C689 H692 0.950 . S
C690 C689 1.387 . S
C690 C693 1.387 . S
H691 C687 0.950 . S
H692 C689 0.950 . S
C693 C684 1.390 . S
C693 H686 0.950 . S
C693 C690 1.387 . S
C694 C695 1.387 . S
C694 H698 0.950 . S
C694 C703 1.390 . S
C695 C694 1.387 . S
C695 C697 1.387 . S
H696 C703 0.950 . S
C697 C695 1.387 . S
C697 C699 1.390 . S
C697 H701 0.950 . S
H698 C694 0.950 . S
C699 C697 1.390 . S
C699 C700 1.387 . S
C699 H702 0.950 . S
C700 C699 1.387 . S
C700 C703 1.387 . S
H701 C697 0.950 . S
H702 C699 0.950 . S
C703 C694 1.390 . S
C703 H696 0.950 . S
C703 C700 1.387 . S
C704 C705 1.387 . S
C704 H708 0.950 . S
C704 C713 1.390 . S
C705 C704 1.387 . S
C705 C707 1.387 . S
H706 C713 0.950 . S
C707 C705 1.387 . S
C707 C709 1.390 . S
C707 H711 0.950 . S
H708 C704 0.950 . S
C709 C707 1.390 . S
C709 C710 1.387 . S
C709 H712 0.950 . S
C710 C709 1.387 . S
C710 C713 1.387 . S
H711 C707 0.950 . S
H712 C709 0.950 . S
C713 C704 1.390 . S
C713 H706 0.950 . S
C713 C710 1.387 . S
C714 C715 1.387 . S
C714 H718 0.950 . S
C714 C723 1.390 . S
C715 C714 1.387 . S
C715 C717 1.387 . S
H716 C723 0.950 . S
C717 C715 1.387 . S
C717 C719 1.390 . S
C717 H721 0.950 . S
H718 C714 0.950 . S
C719 C717 1.390 . S
C719 C720 1.387 . S
C719 H722 0.950 . S
C720 C719 1.387 . S
C720 C723 1.387 . S
H721 C717 0.950 . S
H722 C719 0.950 . S
C723 C714 1.390 . S
C723 H716 0.950 . S
C723 C720 1.387 . S
C724 C725 1.387 . S
C724 H728 0.950 . S
C724 C733 1.390 . S
C725 C724 1.387 . S
C725 C727 1.387 . S
H726 C733 0.950 . S
C727 C725 1.387 . S
C727 C729 1.391 . S
C727 H731 0.950 . S
H728 C724 0.950 . S
C729 C727 1.391 . S
C729 C730 1.387 1_554 S
C729 H732 0.949 1_554 S
C730 C729 1.387 1_556 S
C730 C733 1.387 1_556 S
H731 C727 0.950 . S
H732 C729 0.949 1_556 S
C733 C724 1.390 . S
C733 H726 0.950 . S
C733 C730 1.387 1_554 S
C734 C735 1.387 . S
C734 H738 0.950 . S
C734 C743 1.390 . S
C735 C734 1.387 . S
C735 C737 1.387 . S
H736 C743 0.950 . S
C737 C735 1.387 . S
C737 C739 1.390 . S
C737 H741 0.950 1_565 S
H738 C734 0.950 . S
C739 C737 1.390 . S
C739 C740 1.387 . S
C739 H742 0.950 . S
C740 C739 1.387 . S
C740 C743 1.387 . S
H741 C737 0.950 1_545 S
H742 C739 0.950 . S
C743 C734 1.390 . S
C743 H736 0.950 . S
C743 C740 1.387 . S
C744 C745 1.387 . S
C744 H748 0.950 . S
C744 C753 1.390 . S
C745 C744 1.387 . S
C745 C747 1.387 . S
H746 C753 0.950 . S
C747 C745 1.387 . S
C747 C749 1.390 . S
C747 H751 0.950 . S
H748 C744 0.950 . S
C749 C747 1.390 . S
C749 C750 1.387 . S
C749 H752 0.950 . S
C750 C749 1.387 . S
C750 C753 1.387 . S
H751 C747 0.950 . S
H752 C749 0.950 . S
C753 C744 1.390 . S
C753 H746 0.950 . S
C753 C750 1.387 . S
C754 C755 1.387 . S
C754 H758 0.950 1_565 S
C754 C763 1.390 . S
C755 C754 1.387 . S
C755 C757 1.387 . S
H756 C763 0.950 1_545 S
C757 C755 1.387 . S
C757 C759 1.390 . S
C757 H761 0.950 . S
H758 C754 0.950 1_545 S
C759 C757 1.390 . S
C759 C760 1.387 . S
C759 H762 0.950 . S
C760 C759 1.387 . S
C760 C763 1.387 . S
H761 C757 0.950 . S
H762 C759 0.950 . S
C763 C754 1.390 . S
C763 H756 0.950 1_565 S
C763 C760 1.387 . S
C764 C765 1.387 1_556 S
C764 H768 0.950 . S
C764 C773 1.390 . S
C765 C764 1.387 1_554 S
C765 C767 1.387 1_554 S
H766 C773 0.950 . S
C767 C765 1.387 1_556 S
C767 C769 1.390 . S
C767 H771 0.950 1_556 S
H768 C764 0.950 . S
C769 C767 1.390 . S
C769 C770 1.387 . S
C769 H772 0.950 . S
C770 C769 1.387 . S
C770 C773 1.387 . S
H771 C767 0.950 1_554 S
H772 C769 0.950 . S
C773 C764 1.390 . S
C773 H766 0.950 . S
C773 C770 1.387 . S
C774 C775 1.387 . S
C774 H778 0.950 . S
C774 C783 1.390 . S
C775 C774 1.387 . S
C775 C777 1.387 . S
H776 C783 0.950 . S
C777 C775 1.387 . S
C777 C779 1.390 . S
C777 H781 0.950 1_545 S
H778 C774 0.950 . S
C779 C777 1.390 . S
C779 C780 1.387 . S
C779 H782 0.950 1_545 S
C780 C779 1.387 . S
C780 C783 1.387 . S
H781 C777 0.950 1_565 S
H782 C779 0.950 1_565 S
C783 C774 1.390 . S
C783 H776 0.950 . S
C783 C780 1.387 . S
C784 C785 1.387 . S
C784 H788 0.950 . S
C784 C793 1.390 . S
C785 C784 1.387 . S
C785 C787 1.387 . S
H786 C793 0.950 . S
C787 C785 1.387 . S
C787 C789 1.390 . S
C787 H791 0.950 . S
H788 C784 0.950 . S
C789 C787 1.390 . S
C789 C790 1.387 . S
C789 H792 0.950 . S
C790 C789 1.387 . S
C790 C793 1.387 . S
H791 C787 0.950 . S
H792 C789 0.950 . S
C793 C784 1.390 . S
C793 H786 0.950 . S
C793 C790 1.387 . S
C794 C795 1.387 . S
C794 H798 0.950 . S
C794 C803 1.390 . S
C795 C794 1.387 . S
C795 C797 1.387 . S
H796 C803 0.950 . S
C797 C795 1.387 . S
C797 C799 1.390 . S
C797 H801 0.950 . S
H798 C794 0.950 . S
C799 C797 1.390 . S
C799 C800 1.387 . S
C799 H802 0.950 . S
C800 C799 1.387 . S
C800 C803 1.387 . S
H801 C797 0.950 . S
H802 C799 0.950 . S
C803 C794 1.390 . S
C803 H796 0.950 . S
C803 C800 1.387 . S
C804 C805 1.387 . S
C804 H808 0.950 . S
C804 C813 1.390 1_655 S
C805 C804 1.387 . S
C805 C807 1.387 . S
H806 C813 0.950 . S
C807 C805 1.387 . S
C807 C809 1.390 1_655 S
C807 H811 0.950 . S
H808 C804 0.950 . S
C809 C807 1.390 1_455 S
C809 C810 1.387 . S
C809 H812 0.950 . S
C810 C809 1.387 . S
C810 C813 1.387 . S
H811 C807 0.950 . S
H812 C809 0.950 . S
C813 C804 1.390 1_455 S
C813 H806 0.950 . S
C813 C810 1.387 . S
C814 C815 1.387 . S
C814 H818 0.950 . S
C814 C823 1.390 1_655 S
C815 C814 1.387 . S
C815 C817 1.387 . S
H816 C823 0.950 . S
C817 C815 1.387 . S
C817 C819 1.390 1_655 S
C817 H821 0.950 . S
H818 C814 0.950 . S
C819 C817 1.390 1_455 S
C819 C820 1.387 . S
C819 H822 0.950 . S
C820 C819 1.387 . S
C820 C823 1.387 . S
H821 C817 0.950 . S
H822 C819 0.950 . S
C823 C814 1.390 1_455 S
C823 H816 0.950 . S
C823 C820 1.387 . S
C824 C825 1.387 . S
C824 H828 0.950 . S
C824 C833 1.390 . S
C825 C824 1.387 . S
C825 C827 1.387 . S
H826 C833 0.950 . S
C827 C825 1.387 . S
C827 C829 1.390 . S
C827 H831 0.950 . S
H828 C824 0.950 . S
C829 C827 1.390 . S
C829 C830 1.387 . S
C829 H832 0.950 . S
C830 C829 1.387 . S
C830 C833 1.387 . S
H831 C827 0.950 . S
H832 C829 0.950 . S
C833 C824 1.390 . S
C833 H826 0.950 . S
C833 C830 1.387 . S
C834 C835 1.387 . S
C834 H838 0.950 . S
C834 C843 1.390 . S
C835 C834 1.387 . S
C835 C837 1.387 . S
H836 C843 0.950 . S
C837 C835 1.387 . S
C837 C839 1.390 . S
C837 H841 0.950 . S
H838 C834 0.950 . S
C839 C837 1.390 . S
C839 C840 1.387 . S
C839 H842 0.950 . S
C840 C839 1.387 . S
C840 C843 1.387 . S
H841 C837 0.950 . S
H842 C839 0.950 . S
C843 C834 1.390 . S
C843 H836 0.950 . S
C843 C840 1.387 . S
C844 C845 1.387 . S
C844 H848 0.950 . S
C844 C853 1.390 1_455 S
C845 C844 1.387 . S
C845 C847 1.387 . S
H846 C853 0.950 . S
C847 C845 1.387 . S
C847 C849 1.390 1_455 S
C847 H851 0.950 . S
H848 C844 0.950 . S
C849 C847 1.390 1_655 S
C849 C850 1.387 . S
C849 H852 0.950 . S
C850 C849 1.387 . S
C850 C853 1.387 . S
H851 C847 0.950 . S
H852 C849 0.950 . S
C853 C844 1.390 1_655 S
C853 H846 0.950 . S
C853 C850 1.387 . S
C854 C855 1.387 . S
C854 H858 0.950 . S
C854 C863 1.390 1_455 S
C855 C854 1.387 . S
C855 C857 1.387 . S
H856 C863 0.950 . S
C857 C855 1.387 . S
C857 C859 1.390 1_455 S
C857 H861 0.950 . S
H858 C854 0.950 . S
C859 C857 1.390 1_655 S
C859 C860 1.387 . S
C859 H862 0.950 . S
C860 C859 1.387 . S
C860 C863 1.387 . S
H861 C857 0.950 . S
H862 C859 0.950 . S
C863 C854 1.390 1_655 S
C863 H856 0.950 . S
C863 C860 1.387 . S
C864 C865 1.387 . S
C864 H868 0.950 . S
C864 C873 1.390 . S
C865 C864 1.387 . S
C865 C867 1.387 . S
H866 C873 0.950 . S
C867 C865 1.387 . S
C867 C869 1.390 . S
C867 H871 0.950 . S
H868 C864 0.950 . S
C869 C867 1.390 . S
C869 C870 1.387 . S
C869 H872 0.950 . S
C870 C869 1.387 . S
C870 C873 1.387 . S
H871 C867 0.950 . S
H872 C869 0.950 . S
C873 C864 1.390 . S
C873 H866 0.950 . S
C873 C870 1.387 . S
C874 C875 1.387 . S
C874 H878 0.950 . S
C874 C883 1.390 . S
C875 C874 1.387 . S
C875 C877 1.387 . S
H876 C883 0.950 . S
C877 C875 1.387 . S
C877 C879 1.390 . S
C877 H881 0.950 . S
H878 C874 0.950 . S
C879 C877 1.390 . S
C879 C880 1.387 . S
C879 H882 0.950 . S
C880 C879 1.387 . S
C880 C883 1.387 . S
H881 C877 0.950 . S
H882 C879 0.950 . S
C883 C874 1.390 . S
C883 H876 0.950 . S
C883 C880 1.387 . S
C884 C885 1.387 . S
C884 H888 0.950 . S
C884 C893 1.390 . S
C885 C884 1.387 . S
C885 C887 1.387 . S
H886 C893 0.950 . S
C887 C885 1.387 . S
C887 C889 1.390 . S
C887 H891 0.950 . S
H888 C884 0.950 . S
C889 C887 1.390 . S
C889 C890 1.387 . S
C889 H892 0.950 . S
C890 C889 1.387 . S
C890 C893 1.387 . S
H891 C887 0.950 . S
H892 C889 0.950 . S
C893 C884 1.390 . S
C893 H886 0.950 . S
C893 C890 1.387 . S
C894 C895 1.387 . S
C894 H898 0.950 . S
C894 C903 1.390 . S
C895 C894 1.387 . S
C895 C897 1.387 . S
H896 C903 0.950 . S
C897 C895 1.387 . S
C897 C899 1.390 . S
C897 H901 0.950 . S
H898 C894 0.950 . S
C899 C897 1.390 . S
C899 C900 1.387 . S
C899 H902 0.950 . S
C900 C899 1.387 . S
C900 C903 1.387 . S
H901 C897 0.950 . S
H902 C899 0.950 . S
C903 C894 1.390 . S
C903 H896 0.950 . S
C903 C900 1.387 . S
C904 C905 1.387 . S
C904 H908 0.950 . S
C904 C913 1.390 . S
C905 C904 1.387 . S
C905 C907 1.387 . S
H906 C913 0.950 . S
C907 C905 1.387 . S
C907 C909 1.390 . S
C907 H911 0.950 . S
H908 C904 0.950 . S
C909 C907 1.390 . S
C909 C910 1.387 . S
C909 H912 0.950 . S
C910 C909 1.387 . S
C910 C913 1.387 . S
H911 C907 0.950 . S
H912 C909 0.950 . S
C913 C904 1.390 . S
C913 H906 0.950 . S
C913 C910 1.387 . S
C914 C915 1.387 . S
C914 H918 0.950 . S
C914 C923 1.390 . S
C915 C914 1.387 . S
C915 C917 1.387 . S
H916 C923 0.950 . S
C917 C915 1.387 . S
C917 C919 1.390 . S
C917 H921 0.950 . S
H918 C914 0.950 . S
C919 C917 1.390 . S
C919 C920 1.387 . S
C919 H922 0.950 . S
C920 C919 1.387 . S
C920 C923 1.387 . S
H921 C917 0.950 . S
H922 C919 0.950 . S
C923 C914 1.390 . S
C923 H916 0.950 . S
C923 C920 1.387 . S
C924 C925 1.387 . S
C924 H928 0.950 . S
C924 C933 1.390 . S
C925 C924 1.387 . S
C925 C927 1.387 . S
H926 C933 0.950 . S
C927 C925 1.387 . S
C927 C929 1.390 . S
C927 H931 0.950 . S
H928 C924 0.950 . S
C929 C927 1.390 . S
C929 C930 1.387 . S
C929 H932 0.950 . S
C930 C929 1.387 . S
C930 C933 1.387 . S
H931 C927 0.950 . S
H932 C929 0.950 . S
C933 C924 1.390 . S
C933 H926 0.950 . S
C933 C930 1.387 . S
C934 C935 1.387 . S
C934 H938 0.950 . S
C934 C943 1.390 . S
C935 C934 1.387 . S
C935 C937 1.387 . S
H936 C943 0.950 . S
C937 C935 1.387 . S
C937 C939 1.390 . S
C937 H941 0.950 . S
H938 C934 0.950 . S
C939 C937 1.390 . S
C939 C940 1.387 . S
C939 H942 0.950 . S
C940 C939 1.387 . S
C940 C943 1.387 . S
H941 C937 0.950 . S
H942 C939 0.950 . S
C943 C934 1.390 . S
C943 H936 0.950 . S
C943 C940 1.387 . S
C944 C945 1.387 . S
C944 H948 0.950 . S
C944 C953 1.390 . S
C945 C944 1.387 . S
C945 C947 1.387 . S
H946 C953 0.950 . S
C947 C945 1.387 . S
C947 C949 1.390 . S
C947 H951 0.950 . S
H948 C944 0.950 . S
C949 C947 1.390 . S
C949 C950 1.387 . S
C949 H952 0.950 . S
C950 C949 1.387 . S
C950 C953 1.387 . S
H951 C947 0.950 . S
H952 C949 0.950 . S
C953 C944 1.390 . S
C953 H946 0.950 . S
C953 C950 1.387 . S
C954 C955 1.387 . S
C954 H958 0.950 . S
C954 C963 1.390 . S
C955 C954 1.387 . S
C955 C957 1.387 . S
H956 C963 0.950 . S
C957 C955 1.387 . S
C957 C959 1.390 . S
C957 H961 0.950 . S
H958 C954 0.950 . S
C959 C957 1.390 . S
C959 C960 1.387 . S
C959 H962 0.950 . S
C960 C959 1.387 . S
C960 C963 1.387 . S
H961 C957 0.950 . S
H962 C959 0.950 . S
C963 C954 1.390 . S
C963 H956 0.950 . S
C963 C960 1.387 . S
C964 C965 1.387 . S
C964 H968 0.950 . S
C964 C973 1.390 . S
C965 C964 1.387 . S
C965 C967 1.387 . S
H966 C973 0.950 . S
C967 C965 1.387 . S
C967 C969 1.390 . S
C967 H971 0.950 . S
H968 C964 0.950 . S
C969 C967 1.390 . S
C969 C970 1.387 . S
C969 H972 0.950 . S
C970 C969 1.387 . S
C970 C973 1.387 . S
H971 C967 0.950 . S
H972 C969 0.950 . S
C973 C964 1.390 . S
C973 H966 0.950 . S
C973 C970 1.387 . S
C974 C975 1.387 . S
C974 H978 0.950 . S
C974 C983 1.390 . S
C975 C974 1.387 . S
C975 C977 1.387 . S
H976 C983 0.950 . S
C977 C975 1.387 . S
C977 C979 1.390 . S
C977 H981 0.950 . S
H978 C974 0.950 . S
C979 C977 1.390 . S
C979 C980 1.387 . S
C979 H982 0.950 . S
C980 C979 1.387 . S
C980 C983 1.387 . S
H981 C977 0.950 . S
H982 C979 0.950 . S
C983 C974 1.390 . S
C983 H976 0.950 . S
C983 C980 1.387 . S
C984 C985 1.387 . S
C984 H988 0.950 . S
C984 C993 1.390 . S
C985 C984 1.387 . S
C985 C987 1.387 . S
H986 C993 0.950 . S
C987 C985 1.387 . S
C987 C989 1.390 . S
C987 H991 0.950 . S
H988 C984 0.950 . S
C989 C987 1.390 . S
C989 C990 1.387 . S
C989 H992 0.950 . S
C990 C989 1.387 . S
C990 C993 1.387 . S
H991 C987 0.950 . S
H992 C989 0.950 . S
C993 C984 1.390 . S
C993 H986 0.950 . S
C993 C990 1.387 . S
C994 C995 1.387 . S
C994 H998 0.950 . S
C994 C1003 1.390 . S
C995 C994 1.387 . S
C995 C997 1.387 . S
H996 C1003 0.950 . S
C997 C995 1.387 . S
C997 C999 1.390 . S
C997 H1001 0.950 . S
H998 C994 0.950 . S
C999 C997 1.390 . S
C999 C1000 1.387 . S
C999 H1002 0.950 . S
C1000 C999 1.387 . S
C1000 C1003 1.387 . S
H1001 C997 0.950 . S
H1002 C999 0.950 . S
C1003 C994 1.390 . S
C1003 H996 0.950 . S
C1003 C1000 1.387 . S
C1004 C1005 1.387 . S
C1004 H1008 0.950 . S
C1004 C1013 1.390 . S
C1005 C1004 1.387 . S
C1005 C1007 1.387 . S
H1006 C1013 0.950 . S
C1007 C1005 1.387 . S
C1007 C1009 1.390 . S
C1007 H1011 0.950 . S
H1008 C1004 0.950 . S
C1009 C1007 1.390 . S
C1009 C1010 1.387 . S
C1009 H1012 0.950 . S
C1010 C1009 1.387 . S
C1010 C1013 1.387 . S
H1011 C1007 0.950 . S
H1012 C1009 0.950 . S
C1013 C1004 1.390 . S
C1013 H1006 0.950 . S
C1013 C1010 1.387 . S
C1014 C1015 1.387 . S
C1014 H1018 0.950 . S
C1014 C1023 1.390 . S
C1015 C1014 1.387 . S
C1015 C1017 1.387 . S
H1016 C1023 0.950 . S
C1017 C1015 1.387 . S
C1017 C1019 1.390 . S
C1017 H1021 0.950 . S
H1018 C1014 0.950 . S
C1019 C1017 1.390 . S
C1019 C1020 1.387 . S
C1019 H1022 0.950 . S
C1020 C1019 1.387 . S
C1020 C1023 1.387 . S
H1021 C1017 0.950 . S
H1022 C1019 0.950 . S
C1023 C1014 1.390 . S
C1023 H1016 0.950 . S
C1023 C1020 1.387 . S
C545 C29 1.763 . S
C550 C408 1.763 . S
C555 C170 1.763 . S
C560 C63 1.763 . S
C565 C97 1.766 . S
C570 C476 1.766 . S
C575 C131 1.764 . S
C580 C238 1.764 . S
C585 C136 1.766 . S
C590 C301 1.766 . S
C595 C369 1.763 . S
C600 C204 1.763 . S
C605 C442 1.763 . S
C610 C335 1.763 . S
C615 C403 1.764 . S
C620 C510 1.764 . S
C625 C319 1.755 . S
C630 C0 1.840 . S
C635 C34 1.841 . S
C640 C353 1.757 . S
C645 C68 1.839 . S
C650 C387 1.758 . S
C655 C285 1.758 . S
C660 C102 1.841 . S
C665 C446 1.755 . S
C670 C165 1.841 . S
C675 C480 1.754 . S
C680 C199 1.839 . S
C685 C233 1.841 . S
C690 C514 1.755 . S
C695 C412 1.757 . S
C700 C267 1.841 . S
C705 C272 1.840 . S
C710 C47 1.755 . S
C715 C306 1.839 . S
C720 C81 1.757 . S
C725 C340 1.839 . S
C730 C115 1.758 . S
C735 C13 1.754 . S
C740 C374 1.839 . S
C745 C174 1.755 . S
C750 C437 1.841 . S
C755 C471 1.838 . S
C760 C208 1.755 . S
C765 C242 1.756 . S
C770 C505 1.838 . S
C775 C539 1.841 . S
C780 C140 1.758 . S
C785 C17 1.814 . S
C790 C357 1.814 . S
C795 C51 1.814 . S
C800 C391 1.814 . S
C805 C289 1.814 . S
C810 C85 1.814 . S
C815 C119 1.814 . S
C820 C323 1.814 . S
C825 C144 1.813 . S
C830 C484 1.813 . S
C835 C178 1.814 . S
C840 C518 1.814 . S
C845 C416 1.814 . S
C850 C212 1.814 . S
C855 C246 1.814 . S
C860 C450 1.814 . S
C865 C4 1.278 . S
C870 C255 1.375 . S
C875 C425 1.374 . S
C880 C38 1.276 . S
C885 C72 1.277 . S
C890 C187 1.375 . S
C895 C106 1.275 . S
C900 C493 1.373 . S
C905 C149 1.276 . S
C910 C110 1.374 . S
C915 C280 1.375 . S
C920 C183 1.279 . S
C925 C217 1.277 . S
C930 C42 1.375 . S
C935 C348 1.374 . S
C940 C251 1.277 . S
C945 C276 1.277 . S
C950 C527 1.375 . S
C955 C153 1.373 . S
C960 C310 1.275 . S
C965 C459 1.374 . S
C970 C344 1.278 . S
C975 C378 1.279 . S
C980 C221 1.375 . S
C985 C421 1.277 . S
C990 C382 1.375 . S
C995 C455 1.275 . S
C1000 C8 1.373 . S
C1005 C314 1.374 . S
C1010 C489 1.277 . S
C1015 C76 1.375 . S
C1020 C523 1.277 . S
