# Generated by pormake.
# Topology unr, (4)-cn, num edge types: 1
# Building blocks:
#     Node 0, Type 0, BuildingBlock: QUQFOY_clean_sbu_3, # of connection points: 4
#     Node 1, Type 0, BuildingBlock: QUQFOY_clean_sbu_3, # of connection points: 4
#     Node 2, Type 0, BuildingBlock: QUQFOY_clean_sbu_3, # of connection points: 4
#     Node 3, Type 0, BuildingBlock: QUQFOY_clean_sbu_3, # of connection points: 4
#     Node 4, Type 0, BuildingBlock: QUQFOY_clean_sbu_3, # of connection points: 4
#     Node 5, Type 0, BuildingBlock: QUQFOY_clean_sbu_3, # of connection points: 4
#     Node 6, Type 0, BuildingBlock: QUQFOY_clean_sbu_3, # of connection points: 4
#     Node 7, Type 0, BuildingBlock: QUQFOY_clean_sbu_3, # of connection points: 4
#     Node 8, Type 0, BuildingBlock: QUQFOY_clean_sbu_3, # of connection points: 4
#     Node 9, Type 0, BuildingBlock: QUQFOY_clean_sbu_3, # of connection points: 4
#     Node 10, Type 0, BuildingBlock: QUQFOY_clean_sbu_3, # of connection points: 4
#     Node 11, Type 0, BuildingBlock: QUQFOY_clean_sbu_3, # of connection points: 4
#     Node 12, Type 0, BuildingBlock: QUQFOY_clean_sbu_3, # of connection points: 4
#     Node 13, Type 0, BuildingBlock: QUQFOY_clean_sbu_3, # of connection points: 4
#     Node 14, Type 0, BuildingBlock: QUQFOY_clean_sbu_3, # of connection points: 4
#     Node 15, Type 0, BuildingBlock: QUQFOY_clean_sbu_3, # of connection points: 4
#     Node 16, Type 0, BuildingBlock: QUQFOY_clean_sbu_3, # of connection points: 4
#     Node 17, Type 0, BuildingBlock: QUQFOY_clean_sbu_3, # of connection points: 4
#     Node 18, Type 0, BuildingBlock: QUQFOY_clean_sbu_3, # of connection points: 4
#     Node 19, Type 0, BuildingBlock: QUQFOY_clean_sbu_3, # of connection points: 4
#     Node 20, Type 0, BuildingBlock: QUQFOY_clean_sbu_3, # of connection points: 4
#     Node 21, Type 0, BuildingBlock: QUQFOY_clean_sbu_3, # of connection points: 4
#     Node 22, Type 0, BuildingBlock: QUQFOY_clean_sbu_3, # of connection points: 4
#     Node 23, Type 0, BuildingBlock: QUQFOY_clean_sbu_3, # of connection points: 4
#     Node 24, Type 0, BuildingBlock: QUQFOY_clean_sbu_3, # of connection points: 4
#     Node 25, Type 0, BuildingBlock: QUQFOY_clean_sbu_3, # of connection points: 4
#     Node 26, Type 0, BuildingBlock: QUQFOY_clean_sbu_3, # of connection points: 4
#     Node 27, Type 0, BuildingBlock: QUQFOY_clean_sbu_3, # of connection points: 4
#     Node 28, Type 0, BuildingBlock: QUQFOY_clean_sbu_3, # of connection points: 4
#     Node 29, Type 0, BuildingBlock: QUQFOY_clean_sbu_3, # of connection points: 4
#     Node 30, Type 0, BuildingBlock: QUQFOY_clean_sbu_3, # of connection points: 4
#     Node 31, Type 0, BuildingBlock: QUQFOY_clean_sbu_3, # of connection points: 4
#     Node 32, Type 0, BuildingBlock: QUQFOY_clean_sbu_3, # of connection points: 4
#     Node 33, Type 0, BuildingBlock: QUQFOY_clean_sbu_3, # of connection points: 4
#     Node 34, Type 0, BuildingBlock: QUQFOY_clean_sbu_3, # of connection points: 4
#     Node 35, Type 0, BuildingBlock: QUQFOY_clean_sbu_3, # of connection points: 4
#     Edge 36, Type (0, 0), None
#     Edge 37, Type (0, 0), None
#     Edge 38, Type (0, 0), None
#     Edge 39, Type (0, 0), None
#     Edge 40, Type (0, 0), None
#     Edge 41, Type (0, 0), None
#     Edge 42, Type (0, 0), None
#     Edge 43, Type (0, 0), None
#     Edge 44, Type (0, 0), None
#     Edge 45, Type (0, 0), None
#     Edge 46, Type (0, 0), None
#     Edge 47, Type (0, 0), None
#     Edge 48, Type (0, 0), None
#     Edge 49, Type (0, 0), None
#     Edge 50, Type (0, 0), None
#     Edge 51, Type (0, 0), None
#     Edge 52, Type (0, 0), None
#     Edge 53, Type (0, 0), None
#     Edge 54, Type (0, 0), None
#     Edge 55, Type (0, 0), None
#     Edge 56, Type (0, 0), None
#     Edge 57, Type (0, 0), None
#     Edge 58, Type (0, 0), None
#     Edge 59, Type (0, 0), None
#     Edge 60, Type (0, 0), None
#     Edge 61, Type (0, 0), None
#     Edge 62, Type (0, 0), None
#     Edge 63, Type (0, 0), None
#     Edge 64, Type (0, 0), None
#     Edge 65, Type (0, 0), None
#     Edge 66, Type (0, 0), None
#     Edge 67, Type (0, 0), None
#     Edge 68, Type (0, 0), None
#     Edge 69, Type (0, 0), None
#     Edge 70, Type (0, 0), None
#     Edge 71, Type (0, 0), None
#     Edge 72, Type (0, 0), None
#     Edge 73, Type (0, 0), None
#     Edge 74, Type (0, 0), None
#     Edge 75, Type (0, 0), None
#     Edge 76, Type (0, 0), None
#     Edge 77, Type (0, 0), None
#     Edge 78, Type (0, 0), None
#     Edge 79, Type (0, 0), None
#     Edge 80, Type (0, 0), None
#     Edge 81, Type (0, 0), None
#     Edge 82, Type (0, 0), None
#     Edge 83, Type (0, 0), None
#     Edge 84, Type (0, 0), None
#     Edge 85, Type (0, 0), None
#     Edge 86, Type (0, 0), None
#     Edge 87, Type (0, 0), None
#     Edge 88, Type (0, 0), None
#     Edge 89, Type (0, 0), None
#     Edge 90, Type (0, 0), None
#     Edge 91, Type (0, 0), None
#     Edge 92, Type (0, 0), None
#     Edge 93, Type (0, 0), None
#     Edge 94, Type (0, 0), None
#     Edge 95, Type (0, 0), None
#     Edge 96, Type (0, 0), None
#     Edge 97, Type (0, 0), None
#     Edge 98, Type (0, 0), None
#     Edge 99, Type (0, 0), None
#     Edge 100, Type (0, 0), None
#     Edge 101, Type (0, 0), None
#     Edge 102, Type (0, 0), None
#     Edge 103, Type (0, 0), None
#     Edge 104, Type (0, 0), None
#     Edge 105, Type (0, 0), None
#     Edge 106, Type (0, 0), None
#     Edge 107, Type (0, 0), None
# Relax obj value: 0.359
# Max RMSD: 0.182
# Mean RMSD: 0.179
data_MOF--net-unr--node1-QUQFOY_clean_sbu_3--edge1-none
_symmetry_space_group_name_H-M    P1
_symmetry_Int_Tables_number       1
_symmetry_cell_setting            triclinic
loop_
_symmetry_equiv_pos_as_xyz
'x, y, z'
_cell_length_a     25.475171
_cell_length_b     25.478174
_cell_length_c     55.167315
_cell_angle_alpha  89.917999
_cell_angle_beta   90.061428
_cell_angle_gamma 120.02845
loop_
_atom_site_label
_atom_site_type_symbol
_atom_site_fract_x
_atom_site_fract_y
_atom_site_fract_z
_atom_type_partial_charge
C0 C 0.02015 0.04325 0.15951 0.0
O1 O -0.02893 0.01032 0.1485 0.0
Cd2 Cd 0.00321 0.00622 0.11069 0.0
O3 O 0.07044 0.06048 0.14843 0.0
Cd4 Cd 0.08273 0.03117 0.10342 0.0
C5 C 0.02552 0.10607 0.08998 0.0
O6 O 0.02827 0.925 0.11312 0.0
O7 O 0.0322 0.94114 0.07506 0.0
O8 O 0.18089 0.03432 0.10826 0.0
C9 C 0.017 0.90263 0.09204 0.0
O10 O 0.05699 0.11846 0.10901 0.0
C11 C 0.2088 0.07765 0.09344 0.0
O12 O 0.03309 0.07228 0.07543 0.0
O13 O 0.17901 0.10014 0.08407 0.0
C14 C 0.81978 -0.04962 0.15979 0.0
O15 O 0.85231 0.93394 0.1487 0.0
Cd16 Cd 0.85819 -0.02846 0.11101 0.0
O17 O 0.80342 -0.01561 0.14888 0.0
Cd18 Cd 0.83325 0.02764 0.10412 0.0
C19 C 0.75893 0.89626 0.08954 0.0
O20 O -0.061 0.07795 0.11424 0.0
O21 O -0.07604 0.06893 0.07605 0.0
O22 O 0.83074 0.12295 0.1091 0.0
C23 C -0.03805 0.09066 0.09326 0.0
O24 O 0.74604 0.914 0.10879 0.0
C25 C 0.78668 0.10734 0.09464 0.0
O26 O 0.79304 0.93862 0.07538 0.0
O27 O 0.76364 0.05491 0.08542 0.0
C28 C 0.91322 0.84331 0.15855 0.0
O29 O -0.07088 0.89242 0.1476 0.0
Cd30 Cd 0.89154 0.86043 0.10994 0.0
O31 O 0.87973 0.79311 0.14748 0.0
Cd32 Cd 0.83712 0.78173 0.10267 0.0
C33 C -0.03118 0.83908 0.08866 0.0
O34 O 0.78544 0.83553 0.11317 0.0
O35 O 0.79743 0.83359 0.075 0.0
O36 O 0.7418 0.6837 0.10723 0.0
C37 C 0.77429 0.84793 0.09229 0.0
O38 O -0.04963 0.80719 0.10761 0.0
C39 C 0.75717 0.65588 0.09243 0.0
O40 O -0.07293 0.83179 0.07433 0.0
O41 O 0.80958 0.68567 0.08313 0.0
C42 C 0.0156 0.04776 0.18574 0.0
O43 O -0.01746 -0.0013 0.19675 0.0
Cd44 Cd -0.02153 0.031 0.23452 0.0
O45 O 0.0329 0.09803 0.19683 0.0
Cd46 Cd 0.00316 0.10977 0.24183 0.0
C47 C 0.0781 0.05255 0.25516 0.0
O48 O 0.89711 0.05579 0.23198 0.0
O49 O 0.91276 0.05838 0.27004 0.0
O50 O 0.00615 0.20784 0.23704 0.0
C51 C 0.87446 0.04379 0.25302 0.0
O52 O 0.09071 0.08438 0.23622 0.0
C53 C 0.04931 0.2357 0.25194 0.0
O54 O 0.04427 0.05996 0.26975 0.0
O55 O 0.07175 0.20593 0.26134 0.0
C56 C 0.81539 0.94099 0.186 0.0
O57 O 0.86459 -0.04278 0.19693 0.0
Cd58 Cd 0.8333 0.91951 0.23462 0.0
O59 O 0.76523 0.90714 0.19706 0.0
Cd60 Cd 0.7534 0.86412 0.2418 0.0
C61 C 0.81084 -0.00444 0.25618 0.0
O62 O 0.8079 0.81328 0.23117 0.0
O63 O 0.80444 0.82347 0.2694 0.0
O64 O 0.65544 0.76877 0.23711 0.0
C65 C 0.8195 0.80116 0.25203 0.0
O66 O 0.77931 -0.02243 0.23714 0.0
C67 C 0.6274 0.7842 0.25179 0.0
O68 O 0.80323 -0.04653 0.27038 0.0
O69 O 0.65706 0.8366 0.26106 0.0
C70 C -0.07728 0.84775 0.18476 0.0
O71 O 0.90646 0.8804 0.19587 0.0
Cd72 Cd -0.05619 0.88548 0.23357 0.0
O73 O -0.04356 0.83102 0.19568 0.0
Cd74 Cd -0.00059 0.86046 0.24052 0.0
C75 C 0.86789 0.78591 0.25483 0.0
O76 O 0.05025 -0.03354 0.23066 0.0
O77 O 0.04035 -0.04932 0.2688 0.0
O78 O 0.09458 0.85762 0.23556 0.0
C79 C 0.06255 -0.011 0.25171 0.0
O80 O 0.88587 0.77329 0.23559 0.0
C81 C 0.07896 0.81373 0.25008 0.0
O82 O 0.91 0.81994 0.26909 0.0
O83 O 0.02648 0.79079 0.25932 0.0
C84 C 0.81924 -0.04941 0.7326 0.0
O85 O 0.85008 0.93793 0.71816 0.0
Cd86 Cd 0.82006 0.84697 0.69444 0.0
O87 O 0.76552 0.91038 0.73814 0.0
Cd88 Cd 0.71861 0.79958 0.73144 0.0
C89 C 0.8481 0.8001 0.73717 0.0
O90 O 0.71527 0.79996 0.68713 0.0
O91 O 0.69949 0.71628 0.70289 0.0
O92 O 0.62879 0.80594 0.73663 0.0
C93 C 0.70122 0.74524 0.68386 0.0
O94 O 0.82256 0.76947 0.7185 0.0
C95 C 0.60387 0.76376 0.75219 0.0
O96 O 0.81804 0.81875 0.7493 0.0
O97 O 0.63326 0.73805 0.75913 0.0
C98 C 0.91254 0.84363 0.73328 0.0
O99 O -0.07478 0.8866 0.7185 0.0
Cd100 Cd 0.01637 -0.0527 0.69479 0.0
O101 O -0.04723 0.83046 0.73919 0.0
Cd102 Cd 0.06363 0.89401 0.73243 0.0
C103 C 0.06316 0.02306 0.73731 0.0
O104 O 0.0634 0.88938 0.68815 0.0
O105 O 0.14709 -0.04243 0.70379 0.0
O106 O 0.05658 0.79769 0.73804 0.0
C107 C 0.11819 0.92995 0.68483 0.0
O108 O 0.09381 0.02766 0.7187 0.0
C109 C 0.09902 0.81504 0.75347 0.0
O110 O 0.04453 -0.0253 0.74973 0.0
O111 O 0.12513 0.87032 0.76022 0.0
C112 C 0.01966 0.04384 0.73311 0.0
O113 O -0.02344 0.01298 0.71848 0.0
Cd114 Cd 0.9163 0.04299 0.69418 0.0
O115 O 0.03306 0.09757 0.73852 0.0
Cd116 Cd -0.03058 0.14444 0.73115 0.0
C117 C 0.8401 0.01502 0.73642 0.0
O118 O -0.02569 0.14777 0.68687 0.0
O119 O 0.90608 0.16368 0.70213 0.0
O120 O 0.06557 0.23422 0.73646 0.0
C121 C -0.06619 0.16195 0.6833 0.0
O122 O 0.8355 0.04049 0.71759 0.0
C123 C 0.0482 0.25925 0.75182 0.0
O124 O 0.88851 0.04499 0.74877 0.0
O125 O -0.0071 0.2299 0.75865 0.0
C126 C -0.0768 0.84742 0.61207 0.0
O127 O 0.91047 0.87821 0.62651 0.0
Cd128 Cd 0.81933 0.84819 0.65014 0.0
O129 O 0.88299 0.79373 0.60651 0.0
Cd130 Cd 0.77216 0.74683 0.61315 0.0
C131 C 0.7728 0.87635 0.60735 0.0
O132 O 0.77221 0.74339 0.65746 0.0
O133 O 0.6886 0.72764 0.6416 0.0
O134 O 0.77863 0.65706 0.6081 0.0
C135 C 0.71744 0.7293 0.66065 0.0
O136 O 0.742 0.85077 0.626 0.0
C137 C 0.73656 0.63211 0.59249 0.0
O138 O 0.79151 0.84629 0.59526 0.0
O139 O 0.7109 0.66148 0.58546 0.0
C140 C 0.01662 0.04789 0.61166 0.0
O141 O -0.01436 0.00467 0.62624 0.0
Cd142 Cd 0.0155 0.94427 0.65053 0.0
O143 O 0.07039 0.06129 0.60629 0.0
Cd144 Cd 0.11712 -0.0025 0.61365 0.0
C145 C -0.01236 0.86827 0.60828 0.0
O146 O 0.12025 0.00214 0.65793 0.0
O147 O 0.13615 0.93394 0.64263 0.0
O148 O 0.20696 0.09362 0.60835 0.0
C149 C 0.13433 -0.03843 0.66147 0.0
O150 O 0.01302 0.86353 0.6271 0.0
C151 C 0.23201 0.07625 0.59298 0.0
O152 O 0.01769 0.91677 0.59597 0.0
O153 O 0.20266 0.021 0.58615 0.0
C154 C 0.81634 0.94076 0.61128 0.0
O155 O 0.85927 -0.04666 0.62606 0.0
Cd156 Cd -0.08022 0.04426 0.64989 0.0
O157 O 0.80316 -0.01898 0.60542 0.0
Cd158 Cd 0.86674 0.09179 0.61228 0.0
C159 C -0.00411 0.09144 0.60748 0.0
O160 O 0.86179 0.09121 0.65655 0.0
O161 O -0.06989 0.17505 0.641 0.0
O162 O 0.77048 0.08488 0.60664 0.0
C163 C 0.90235 0.14597 0.65991 0.0
O164 O 0.00043 0.12192 0.62613 0.0
C165 C 0.78789 0.12735 0.59125 0.0
O166 O -0.05242 0.07282 0.59503 0.0
O167 O 0.84324 0.1535 0.5845 0.0
C168 C 0.68696 0.37657 0.49274 0.0
O169 O 0.63793 0.34353 0.48172 0.0
Cd170 Cd 0.67023 0.33928 0.44395 0.0
O171 O 0.73729 0.39379 0.48168 0.0
Cd172 Cd 0.74965 0.3642 0.43674 0.0
C173 C 0.69244 0.43897 0.42314 0.0
O174 O 0.6953 0.25809 0.44654 0.0
O175 O 0.69922 0.274 0.40846 0.0
O176 O 0.84781 0.36741 0.44167 0.0
C177 C 0.68404 0.2356 0.42548 0.0
O178 O 0.72395 0.45151 0.44216 0.0
C179 C 0.87577 0.41077 0.42686 0.0
O180 O 0.7 0.40508 0.40864 0.0
O181 O 0.846 0.43322 0.41746 0.0
C182 C 0.48665 0.28371 0.49309 0.0
O183 O 0.51919 0.26717 0.48205 0.0
Cd184 Cd 0.52515 0.30446 0.44429 0.0
O185 O 0.47032 0.31765 0.48209 0.0
Cd186 Cd 0.50018 0.36063 0.43729 0.0
C187 C 0.4259 0.22915 0.42284 0.0
O188 O 0.60594 0.41093 0.4474 0.0
O189 O 0.59086 0.40175 0.40921 0.0
O190 O 0.49773 0.456 0.44216 0.0
C191 C 0.62887 0.42355 0.42642 0.0
O192 O 0.413 0.24697 0.44206 0.0
C193 C 0.45371 0.44037 0.42768 0.0
O194 O 0.45998 0.27145 0.40864 0.0
O195 O 0.43065 0.3879 0.4185 0.0
C196 C 0.58016 0.17663 0.49199 0.0
O197 O 0.59607 0.22567 0.48098 0.0
Cd198 Cd 0.55852 0.19344 0.44334 0.0
O199 O 0.54669 0.12636 0.48097 0.0
Cd200 Cd 0.50415 0.11473 0.43613 0.0
C201 C 0.63587 0.17202 0.42215 0.0
O202 O 0.45242 0.16853 0.44654 0.0
O203 O 0.46448 0.16648 0.40838 0.0
O204 O 0.40886 0.01668 0.44072 0.0
C205 C 0.44129 0.18086 0.42564 0.0
O206 O 0.61741 0.14025 0.44113 0.0
C207 C 0.42422 -0.01115 0.42593 0.0
O208 O 0.59413 0.16464 0.4078 0.0
O209 O 0.47664 0.01865 0.41663 0.0
C210 C 0.68236 0.38127 0.51894 0.0
O211 O 0.64928 0.3323 0.53001 0.0
Cd212 Cd 0.64526 0.36495 0.56772 0.0
O213 O 0.69969 0.43164 0.52997 0.0
Cd214 Cd 0.66998 0.44375 0.57492 0.0
C215 C 0.74491 0.38664 0.5884 0.0
O216 O 0.5639 0.38973 0.56509 0.0
O217 O 0.57961 0.3927 0.60315 0.0
O218 O 0.6731 0.54186 0.57 0.0
C219 C 0.54129 0.37795 0.58613 0.0
O220 O 0.7575 0.41834 0.56942 0.0
C221 C 0.71631 0.56977 0.58488 0.0
O222 O 0.71104 0.3941 0.60295 0.0
O223 O 0.73871 0.54001 0.59431 0.0
C224 C 0.48221 0.27449 0.51931 0.0
O225 O 0.53139 0.29075 0.53026 0.0
Cd226 Cd 0.49994 0.25329 0.56797 0.0
O227 O 0.43203 0.24077 0.53038 0.0
Cd228 Cd 0.42032 0.19813 0.57519 0.0
C229 C 0.47768 0.32972 0.58935 0.0
O230 O 0.47469 0.14708 0.56468 0.0
O231 O 0.47164 0.15793 0.60288 0.0
O232 O 0.32233 0.10276 0.57057 0.0
C233 C 0.48651 0.13532 0.58557 0.0
O234 O 0.44611 0.31153 0.57032 0.0
C235 C 0.29438 0.11817 0.5853 0.0
O236 O 0.47013 0.2878 0.60363 0.0
O237 O 0.32407 0.17058 0.59456 0.0
C238 C 0.58959 0.18125 0.5182 0.0
O239 O 0.57322 0.2139 0.52924 0.0
Cd240 Cd 0.61051 0.21945 0.56698 0.0
O241 O 0.62339 0.16472 0.52918 0.0
Cd242 Cd 0.66638 0.19448 0.574 0.0
C243 C 0.5349 0.12006 0.58839 0.0
O244 O 0.71697 0.30037 0.56401 0.0
O245 O 0.70742 0.28491 0.60217 0.0
O246 O 0.76164 0.19181 0.56909 0.0
C247 C 0.72943 0.32308 0.58502 0.0
O248 O 0.5528 0.10728 0.56916 0.0
C249 C 0.74602 0.14788 0.58359 0.0
O250 O 0.57706 0.15419 0.60261 0.0
O251 O 0.69352 0.12488 0.59282 0.0
C252 C 0.48637 0.2847 0.06582 0.0
O253 O 0.51716 0.27188 0.05142 0.0
Cd254 Cd 0.48713 0.18059 0.02793 0.0
O255 O 0.4327 0.24453 0.07144 0.0
Cd256 Cd 0.3858 0.13364 0.06497 0.0
C257 C 0.51536 0.13438 0.07082 0.0
O258 O 0.38231 0.13342 0.02064 0.0
O259 O 0.36671 0.04999 0.03659 0.0
O260 O 0.29597 0.14 0.07012 0.0
C261 C 0.36833 0.07867 0.0175 0.0
O262 O 0.48979 0.10348 0.0522 0.0
C263 C 0.27112 0.09797 0.08575 0.0
O264 O 0.48529 0.15314 0.08287 0.0
O265 O 0.30057 0.07235 0.09274 0.0
C266 C 0.57977 0.1779 0.06687 0.0
O267 O 0.59238 0.22066 0.05199 0.0
Cd268 Cd 0.68345 0.28121 0.02822 0.0
O269 O 0.62005 0.16484 0.07285 0.0
Cd270 Cd 0.73087 0.22827 0.066 0.0
C271 C 0.73041 0.35736 0.07065 0.0
O272 O 0.73046 0.22322 0.02174 0.0
O273 O 0.81423 0.29153 0.03729 0.0
O274 O 0.7237 0.13194 0.07168 0.0
C275 C 0.78526 0.26372 0.01837 0.0
O276 O 0.76098 0.36174 0.05204 0.0
C277 C 0.76626 0.14934 0.08705 0.0
O278 O 0.71185 0.30914 0.08316 0.0
O279 O 0.79246 0.20464 0.09377 0.0
C280 C 0.68687 0.37807 0.06638 0.0
O281 O 0.6437 0.34701 0.0518 0.0
Cd282 Cd 0.58352 0.3768 0.02734 0.0
O283 O 0.70032 0.43188 0.07165 0.0
Cd284 Cd 0.6366 0.4786 0.06413 0.0
C285 C 0.50724 0.34917 0.06951 0.0
O286 O 0.64149 0.48151 0.01986 0.0
O287 O 0.57326 0.49755 0.03501 0.0
O288 O 0.7327 0.56851 0.06938 0.0
C289 C 0.60097 0.49563 0.01621 0.0
O290 O 0.50263 0.37445 0.05063 0.0
C291 C 0.71529 0.59355 0.08473 0.0
O292 O 0.55568 0.37927 0.08185 0.0
O293 O 0.66 0.56418 0.09156 0.0
C294 C 0.59016 0.18016 -0.05435 0.0
O295 O 0.57743 0.21111 -0.04 0.0
Cd296 Cd 0.48633 0.18121 -0.01636 0.0
O297 O 0.54997 0.12639 -0.05981 0.0
Cd298 Cd 0.43914 0.07958 -0.05318 0.0
C299 C 0.43975 0.20906 -0.0592 0.0
O300 O 0.43923 0.07647 -0.00885 0.0
O301 O 0.35562 0.06063 -0.02474 0.0
O302 O 0.44547 -0.01031 -0.0582 0.0
C303 C 0.38448 0.06246 -0.00567 0.0
O304 O 0.40896 0.18365 -0.04052 0.0
C305 C 0.40347 -0.0352 -0.07383 0.0
O306 O 0.45848 0.17891 -0.07121 0.0
O307 O 0.37785 -0.00579 0.91914 0.0
C308 C 0.68349 0.38065 -0.05518 0.0
O309 O 0.65252 0.33759 -0.04053 0.0
Cd310 Cd 0.68244 0.27753 -0.01605 0.0
O311 O 0.73726 0.39403 -0.06051 0.0
Cd312 Cd 0.78405 0.33039 -0.05296 0.0
C313 C 0.65461 0.20101 -0.05812 0.0
O314 O 0.7872 0.33556 -0.00869 0.0
O315 O 0.80321 0.26725 -0.02381 0.0
O316 O 0.87385 0.42649 -0.05832 0.0
C317 C 0.80135 0.29507 -0.00504 0.0
O318 O 0.68003 0.19654 -0.03926 0.0
C319 C 0.89896 0.40901 -0.07362 0.0
O320 O 0.68462 0.24936 -0.07053 0.0
O321 O 0.86966 0.35371 0.91961 0.0
C322 C 0.48327 0.27351 -0.05537 0.0
O323 O 0.5262 0.28627 -0.04056 0.0
Cd324 Cd 0.58689 0.37753 -0.01694 0.0
O325 O 0.4701 0.3137 -0.06135 0.0
Cd326 Cd 0.53365 0.42457 -0.05469 0.0
C327 C 0.66275 0.42416 -0.05947 0.0
O328 O 0.5289 0.42453 -0.01042 0.0
O329 O 0.59716 0.50817 -0.02613 0.0
O330 O 0.43734 0.41752 -0.06034 0.0
C331 C 0.56946 0.47934 -0.00716 0.0
O332 O 0.66736 0.45487 -0.04088 0.0
C333 C 0.45468 0.4599 0.92423 0.0
O334 O 0.6144 0.4054 -0.0719 0.0
O335 O 0.51 0.48601 0.91745 0.0
C336 C 0.35338 0.70962 0.82606 0.0
O337 O 0.30418 0.67666 0.81513 0.0
Cd338 Cd 0.33575 0.67209 0.77726 0.0
O339 O 0.40355 0.72667 0.8149 0.0
Cd340 Cd 0.41552 0.69704 0.76991 0.0
C341 C 0.35814 0.77174 0.7564 0.0
O342 O 0.36097 0.59098 0.77974 0.0
O343 O 0.36489 0.60681 0.74166 0.0
O344 O 0.51362 0.70005 0.77468 0.0
C345 C 0.34968 0.56844 0.75869 0.0
O346 O 0.38969 0.78431 0.77541 0.0
C347 C 0.54153 0.74341 0.75987 0.0
O348 O 0.3657 0.73788 0.74189 0.0
O349 O 0.51178 0.76597 0.75054 0.0
C350 C 0.15295 0.61661 0.82646 0.0
O351 O 0.18544 0.60017 0.81534 0.0
Cd352 Cd 0.19087 0.6375 0.77763 0.0
O353 O 0.13641 0.65047 0.81554 0.0
Cd354 Cd 0.16592 0.69334 0.77071 0.0
C355 C 0.09143 0.5618 0.75636 0.0
O356 O 0.27176 0.74392 0.78071 0.0
O357 O 0.25646 0.73423 0.74254 0.0
O358 O 0.16335 0.78864 0.77562 0.0
C359 C 0.29457 0.75629 0.75971 0.0
O360 O 0.0787 0.57974 0.77559 0.0
C361 C 0.1194 0.77305 0.76111 0.0
O362 O 0.12541 0.60401 0.74212 0.0
O363 O 0.09639 0.7206 0.7519 0.0
C364 C 0.24642 0.50964 0.82532 0.0
O365 O 0.26218 0.55866 0.81432 0.0
Cd366 Cd 0.2243 0.52633 0.77672 0.0
O367 O 0.21289 0.45934 0.81432 0.0
Cd368 Cd 0.16991 0.44756 0.76956 0.0
C369 C 0.30147 0.50487 0.75539 0.0
O370 O 0.11821 0.50136 0.78006 0.0
O371 O 0.12984 0.49902 0.74187 0.0
O372 O 0.07469 0.34948 0.77426 0.0
C373 C 0.10683 0.51352 0.75916 0.0
O374 O 0.28316 0.47311 0.77437 0.0
C375 C 0.09006 0.32161 0.75949 0.0
O376 O 0.25963 0.4975 0.7411 0.0
O377 O 0.14244 0.3514 0.75016 0.0
C378 C 0.3491 0.71429 0.85229 0.0
O379 O 0.31614 0.6653 0.86335 0.0
Cd380 Cd 0.31236 0.69782 0.90111 0.0
O381 O 0.36649 0.76463 0.86334 0.0
Cd382 Cd 0.33708 0.77658 0.90837 0.0
C383 C 0.41214 0.71942 0.92164 0.0
O384 O 0.23097 0.72259 0.89862 0.0
O385 O 0.24682 0.72521 -0.06334 0.0
O386 O 0.34012 0.87468 0.90359 0.0
C387 C 0.20844 0.71061 0.91967 0.0
O388 O 0.4246 0.75114 0.90267 0.0
C389 C 0.38327 0.90252 0.9185 0.0
O390 O 0.3784 0.7269 -0.06374 0.0
O391 O 0.40571 0.87273 -0.07212 0.0
C392 C 0.14881 0.60741 0.85269 0.0
O393 O 0.19813 0.62378 0.86354 0.0
Cd394 Cd 0.16733 0.58639 0.90131 0.0
O395 O 0.09876 0.5736 0.86383 0.0
Cd396 Cd 0.08728 0.53086 0.90861 0.0
C397 C 0.14483 0.66239 0.92289 0.0
O398 O 0.14186 0.48011 0.89798 0.0
O399 O 0.13845 0.49036 -0.0638 0.0
O400 O -0.01066 0.43543 0.90403 0.0
C401 C 0.1535 0.46803 0.91884 0.0
O402 O 0.11322 0.64433 0.90386 0.0
C403 C -0.03865 0.4509 0.91872 0.0
O404 O 0.13728 0.62035 -0.0629 0.0
O405 O -0.00898 0.50336 -0.07206 0.0
C406 C 0.25619 0.51428 0.85151 0.0
O407 O 0.24009 0.54704 0.86263 0.0
Cd408 Cd 0.27776 0.55223 0.90028 0.0
O409 O 0.28995 0.49755 0.86239 0.0
Cd410 Cd 0.33328 0.52725 0.90716 0.0
C411 C 0.2019 0.45279 0.92163 0.0
O412 O 0.38415 0.6332 0.89721 0.0
O413 O 0.37448 0.61763 -0.06464 0.0
O414 O 0.42839 0.52435 0.9021 0.0
C415 C 0.39659 0.65585 0.91824 0.0
O416 O 0.21978 0.44005 0.90239 0.0
C417 C 0.4128 0.48044 0.91661 0.0
O418 O 0.24408 0.48693 -0.06416 0.0
O419 O 0.36038 0.45755 -0.0741 0.0
C420 C 0.15341 0.61779 0.39932 0.0
O421 O 0.18409 0.605 0.38485 0.0
Cd422 Cd 0.15397 0.51376 0.36131 0.0
O423 O 0.09977 0.57761 0.40499 0.0
Cd424 Cd 0.05278 0.46674 0.39845 0.0
C425 C 0.18231 0.46738 0.40413 0.0
O426 O 0.04912 0.46666 0.35414 0.0
O427 O 0.03349 0.38315 0.37003 0.0
O428 O -0.03696 0.47323 0.40363 0.0
C429 C 0.03504 0.4119 0.35096 0.0
O430 O 0.15663 0.43655 0.38551 0.0
C431 C -0.06187 0.43113 0.41922 0.0
O432 O 0.15232 0.48612 0.41626 0.0
O433 O -0.03248 0.40544 0.42621 0.0
C434 C 0.24671 0.51089 0.40014 0.0
O435 O 0.25923 0.55372 0.3853 0.0
Cd436 Cd 0.3501 0.61415 0.3614 0.0
O437 O 0.287 0.49776 0.40601 0.0
Cd438 Cd 0.39776 0.56123 0.39904 0.0
C439 C 0.39739 0.69038 0.40376 0.0
O440 O 0.39705 0.55615 0.35478 0.0
O441 O 0.48093 0.62445 0.37025 0.0
O442 O 0.39072 0.46493 0.40469 0.0
C443 C 0.45182 0.59666 0.35136 0.0
O444 O 0.42784 0.69476 0.38511 0.0
C445 C 0.4333 0.48236 0.42006 0.0
O446 O 0.37888 0.64215 0.41626 0.0
O447 O 0.45949 0.53766 0.42677 0.0
C448 C 0.35386 0.71113 0.39958 0.0
O449 O 0.3106 0.68012 0.38503 0.0
Cd450 Cd 0.25019 0.70997 0.36075 0.0
O451 O 0.36732 0.76492 0.40491 0.0
Cd452 Cd 0.30355 0.81167 0.39756 0.0
C453 C 0.17429 0.68225 0.40305 0.0
O454 O 0.3081 0.81469 0.35327 0.0
O455 O 0.23995 0.83064 0.36857 0.0
O456 O 0.39968 0.90155 0.40281 0.0
C457 C 0.26753 0.82878 0.34972 0.0
O458 O 0.16951 0.70755 0.38422 0.0
C459 C 0.38233 0.92654 0.41821 0.0
O460 O 0.22282 0.71233 0.41533 0.0
O461 O 0.32706 0.89715 0.42506 0.0
C462 C 0.25628 0.51344 0.27882 0.0
O463 O 0.24367 0.5444 0.29321 0.0
Cd464 Cd 0.15279 0.51451 0.31701 0.0
O465 O 0.21606 0.45966 0.27339 0.0
Cd466 Cd 0.1053 0.41283 0.28018 0.0
C467 C 0.1058 0.54231 0.27429 0.0
O468 O 0.10578 0.40978 0.32449 0.0
O469 O 0.022 0.39383 0.30874 0.0
O470 O 0.11165 0.32298 0.27517 0.0
C471 C 0.05103 0.3957 0.32776 0.0
O472 O 0.07517 0.51689 0.293 0.0
C473 C 0.06953 0.29801 0.25958 0.0
O474 O 0.12444 0.51217 0.26222 0.0
O475 O 0.04386 0.32738 0.25257 0.0
C476 C 0.3496 0.71386 0.27814 0.0
O477 O 0.31876 0.67081 0.29281 0.0
Cd478 Cd 0.34876 0.61059 0.31713 0.0
O479 O 0.4033 0.72719 0.2727 0.0
Cd480 Cd 0.45017 0.66356 0.28011 0.0
C481 C 0.3207 0.53427 0.27496 0.0
O482 O 0.45356 0.66856 0.32438 0.0
O483 O 0.46944 0.60027 0.30915 0.0
O484 O 0.53989 0.7597 0.27475 0.0
C485 C 0.46773 0.62805 0.32796 0.0
O486 O 0.34623 0.52972 0.29377 0.0
C487 C 0.565 0.74229 0.25942 0.0
O488 O 0.35065 0.58264 0.26257 0.0
O489 O 0.53571 0.68701 0.25263 0.0
C490 C 0.14934 0.60676 0.2781 0.0
O491 O 0.1924 0.61952 0.29284 0.0
Cd492 Cd 0.25316 0.71074 0.31647 0.0
O493 O 0.13611 0.64695 0.27219 0.0
Cd494 Cd 0.19977 0.75782 0.27884 0.0
C495 C 0.32884 0.75738 0.27392 0.0
O496 O 0.19523 0.75777 0.32313 0.0
O497 O 0.26345 0.8414 0.3074 0.0
O498 O 0.10349 0.75089 0.27321 0.0
C499 C 0.23585 0.81255 0.32638 0.0
O500 O 0.33357 0.78808 0.29252 0.0
C501 C 0.12084 0.79323 0.25775 0.0
O502 O 0.2804 0.73861 0.26154 0.0
O503 O 0.17616 0.81929 0.25097 0.0
loop_
_geom_bond_atom_site_label_1
_geom_bond_atom_site_label_2
_geom_bond_distance
_geom_bond_site_symmetry_2
_ccdc_geom_bond_type
C0 O1 1.306 . S
C0 O3 1.160 . S
O1 C0 1.306 . S
O1 Cd2 2.228 . S
Cd2 O1 2.228 . S
Cd2 O6 2.273 . S
Cd2 O10 2.277 . S
O3 C0 1.160 . S
O3 Cd4 2.203 . S
Cd4 O3 2.203 . S
Cd4 O6 2.411 . S
Cd4 O7 2.333 . S
Cd4 O8 2.352 . S
Cd4 O12 2.277 . S
Cd4 O13 2.356 . S
C5 O10 1.209 . S
C5 O12 1.226 . S
O6 Cd2 2.273 . S
O6 Cd4 2.411 . S
O6 C9 1.320 . S
O7 Cd4 2.333 . S
O7 C9 1.214 . S
O8 Cd4 2.352 . S
O8 C11 1.258 . S
C9 O6 1.320 . S
C9 O7 1.214 . S
O10 Cd2 2.277 . S
O10 C5 1.209 . S
C11 O8 1.258 . S
C11 O13 1.282 . S
O12 Cd4 2.277 . S
O12 C5 1.226 . S
O13 Cd4 2.356 . S
O13 C11 1.282 . S
C14 O15 1.306 . S
C14 O17 1.160 . S
O15 C14 1.306 . S
O15 Cd16 2.228 . S
Cd16 O15 2.228 . S
Cd16 O20 2.273 1_565 S
Cd16 O24 2.277 . S
O17 C14 1.160 . S
O17 Cd18 2.203 1_565 S
Cd18 O17 2.203 1_545 S
Cd18 O20 2.411 . S
Cd18 O21 2.333 . S
Cd18 O22 2.352 . S
Cd18 O26 2.277 1_545 S
Cd18 O27 2.356 . S
C19 O24 1.209 . S
C19 O26 1.226 . S
O20 Cd16 2.273 1_545 S
O20 Cd18 2.411 . S
O20 C23 1.320 . S
O21 Cd18 2.333 . S
O21 C23 1.214 . S
O22 Cd18 2.352 . S
O22 C25 1.258 . S
C23 O20 1.320 . S
C23 O21 1.214 . S
O24 Cd16 2.277 . S
O24 C19 1.209 . S
C25 O22 1.258 . S
C25 O27 1.282 . S
O26 Cd18 2.277 1_565 S
O26 C19 1.226 . S
O27 Cd18 2.356 . S
O27 C25 1.282 . S
C28 O29 1.306 . S
C28 O31 1.160 . S
O29 C28 1.306 . S
O29 Cd30 2.228 . S
Cd30 O29 2.228 . S
Cd30 O34 2.273 1_455 S
Cd30 O38 2.277 . S
O31 C28 1.160 . S
O31 Cd32 2.203 1_455 S
Cd32 O31 2.203 1_655 S
Cd32 O34 2.411 . S
Cd32 O35 2.333 . S
Cd32 O36 2.352 . S
Cd32 O40 2.277 1_655 S
Cd32 O41 2.356 . S
C33 O38 1.209 . S
C33 O40 1.226 . S
O34 Cd30 2.273 1_655 S
O34 Cd32 2.411 . S
O34 C37 1.320 . S
O35 Cd32 2.333 . S
O35 C37 1.214 . S
O36 Cd32 2.352 . S
O36 C39 1.258 . S
C37 O34 1.320 . S
C37 O35 1.214 . S
O38 Cd30 2.277 . S
O38 C33 1.209 . S
C39 O36 1.258 . S
C39 O41 1.282 . S
O40 Cd32 2.277 1_455 S
O40 C33 1.226 . S
O41 Cd32 2.356 . S
O41 C39 1.282 . S
C42 O43 1.306 . S
C42 O45 1.160 . S
O43 C42 1.306 . S
O43 Cd44 2.228 . S
Cd44 O43 2.228 . S
Cd44 O48 2.273 . S
Cd44 O52 2.277 . S
O45 C42 1.160 . S
O45 Cd46 2.203 . S
Cd46 O45 2.203 . S
Cd46 O48 2.411 . S
Cd46 O49 2.333 . S
Cd46 O50 2.352 . S
Cd46 O54 2.277 . S
Cd46 O55 2.356 . S
C47 O52 1.209 . S
C47 O54 1.226 . S
O48 Cd44 2.273 . S
O48 Cd46 2.411 . S
O48 C51 1.320 . S
O49 Cd46 2.333 . S
O49 C51 1.214 . S
O50 Cd46 2.352 . S
O50 C53 1.258 . S
C51 O48 1.320 . S
C51 O49 1.214 . S
O52 Cd44 2.277 . S
O52 C47 1.209 . S
C53 O50 1.258 . S
C53 O55 1.282 . S
O54 Cd46 2.277 . S
O54 C47 1.226 . S
O55 Cd46 2.356 . S
O55 C53 1.282 . S
C56 O57 1.306 . S
C56 O59 1.160 . S
O57 C56 1.306 . S
O57 Cd58 2.228 . S
Cd58 O57 2.228 . S
Cd58 O62 2.273 1_545 S
Cd58 O66 2.277 . S
O59 C56 1.160 . S
O59 Cd60 2.203 1_545 S
Cd60 O59 2.203 1_565 S
Cd60 O62 2.411 . S
Cd60 O63 2.333 . S
Cd60 O64 2.352 . S
Cd60 O68 2.277 1_565 S
Cd60 O69 2.356 . S
C61 O66 1.209 . S
C61 O68 1.226 . S
O62 Cd58 2.273 1_565 S
O62 Cd60 2.411 . S
O62 C65 1.320 . S
O63 Cd60 2.333 . S
O63 C65 1.214 . S
O64 Cd60 2.352 . S
O64 C67 1.258 . S
C65 O62 1.320 . S
C65 O63 1.214 . S
O66 Cd58 2.277 . S
O66 C61 1.209 . S
C67 O64 1.258 . S
C67 O69 1.282 . S
O68 Cd60 2.277 1_545 S
O68 C61 1.226 . S
O69 Cd60 2.356 . S
O69 C67 1.282 . S
C70 O71 1.306 . S
C70 O73 1.160 . S
O71 C70 1.306 . S
O71 Cd72 2.228 . S
Cd72 O71 2.228 . S
Cd72 O76 2.273 1_655 S
Cd72 O80 2.277 . S
O73 C70 1.160 . S
O73 Cd74 2.203 1_655 S
Cd74 O73 2.203 1_455 S
Cd74 O76 2.411 . S
Cd74 O77 2.333 . S
Cd74 O78 2.352 . S
Cd74 O82 2.277 1_455 S
Cd74 O83 2.356 . S
C75 O80 1.209 . S
C75 O82 1.226 . S
O76 Cd72 2.273 1_455 S
O76 Cd74 2.411 . S
O76 C79 1.320 . S
O77 Cd74 2.333 . S
O77 C79 1.214 . S
O78 Cd74 2.352 . S
O78 C81 1.258 . S
C79 O76 1.320 . S
C79 O77 1.214 . S
O80 Cd72 2.277 . S
O80 C75 1.209 . S
C81 O78 1.258 . S
C81 O83 1.282 . S
O82 Cd74 2.277 1_655 S
O82 C75 1.226 . S
O83 Cd74 2.356 . S
O83 C81 1.282 . S
C84 O85 1.306 . S
C84 O87 1.160 . S
O85 C84 1.306 . S
O85 Cd86 2.228 . S
Cd86 O85 2.228 . S
Cd86 O90 2.273 . S
Cd86 O94 2.277 . S
O87 C84 1.160 . S
O87 Cd88 2.203 . S
Cd88 O87 2.203 . S
Cd88 O90 2.411 . S
Cd88 O91 2.333 . S
Cd88 O92 2.352 . S
Cd88 O96 2.277 . S
Cd88 O97 2.356 . S
C89 O94 1.209 . S
C89 O96 1.226 . S
O90 Cd86 2.273 . S
O90 Cd88 2.411 . S
O90 C93 1.320 . S
O91 Cd88 2.333 . S
O91 C93 1.214 . S
O92 Cd88 2.352 . S
O92 C95 1.258 . S
C93 O90 1.320 . S
C93 O91 1.214 . S
O94 Cd86 2.277 . S
O94 C89 1.209 . S
C95 O92 1.258 . S
C95 O97 1.282 . S
O96 Cd88 2.277 . S
O96 C89 1.226 . S
O97 Cd88 2.356 . S
O97 C95 1.282 . S
C98 O99 1.306 . S
C98 O101 1.160 . S
O99 C98 1.306 . S
O99 Cd100 2.228 1_565 S
Cd100 O99 2.228 1_545 S
Cd100 O104 2.273 1_545 S
Cd100 O108 2.277 . S
O101 C98 1.160 . S
O101 Cd102 2.203 . S
Cd102 O101 2.203 . S
Cd102 O104 2.411 . S
Cd102 O105 2.333 1_565 S
Cd102 O106 2.352 . S
Cd102 O110 2.277 1_565 S
Cd102 O111 2.356 . S
C103 O108 1.209 . S
C103 O110 1.226 . S
O104 Cd100 2.273 1_565 S
O104 Cd102 2.411 . S
O104 C107 1.320 1_565 S
O105 Cd102 2.333 1_545 S
O105 C107 1.214 . S
O106 Cd102 2.352 . S
O106 C109 1.258 . S
C107 O104 1.320 1_545 S
C107 O105 1.214 . S
O108 Cd100 2.277 . S
O108 C103 1.209 . S
C109 O106 1.258 . S
C109 O111 1.282 . S
O110 Cd102 2.277 1_545 S
O110 C103 1.226 . S
O111 Cd102 2.356 . S
O111 C109 1.282 . S
C112 O113 1.306 . S
C112 O115 1.160 . S
O113 C112 1.306 . S
O113 Cd114 2.228 1_455 S
Cd114 O113 2.228 1_655 S
Cd114 O118 2.273 1_655 S
Cd114 O122 2.277 . S
O115 C112 1.160 . S
O115 Cd116 2.203 . S
Cd116 O115 2.203 . S
Cd116 O118 2.411 . S
Cd116 O119 2.333 1_455 S
Cd116 O120 2.352 . S
Cd116 O124 2.277 1_455 S
Cd116 O125 2.356 . S
C117 O122 1.209 . S
C117 O124 1.226 . S
O118 Cd114 2.273 1_455 S
O118 Cd116 2.411 . S
O118 C121 1.320 1_455 S
O119 Cd116 2.333 1_655 S
O119 C121 1.214 . S
O120 Cd116 2.352 . S
O120 C123 1.258 . S
C121 O118 1.320 1_655 S
C121 O119 1.214 . S
O122 Cd114 2.277 . S
O122 C117 1.209 . S
C123 O120 1.258 . S
C123 O125 1.282 . S
O124 Cd116 2.277 1_655 S
O124 C117 1.226 . S
O125 Cd116 2.356 . S
O125 C123 1.282 . S
C126 O127 1.306 . S
C126 O129 1.160 . S
O127 C126 1.306 . S
O127 Cd128 2.228 . S
Cd128 O127 2.228 . S
Cd128 O132 2.273 . S
Cd128 O136 2.277 . S
O129 C126 1.160 . S
O129 Cd130 2.203 . S
Cd130 O129 2.203 . S
Cd130 O132 2.411 . S
Cd130 O133 2.333 . S
Cd130 O134 2.352 . S
Cd130 O138 2.277 . S
Cd130 O139 2.356 . S
C131 O136 1.209 . S
C131 O138 1.226 . S
O132 Cd128 2.273 . S
O132 Cd130 2.411 . S
O132 C135 1.320 . S
O133 Cd130 2.333 . S
O133 C135 1.214 . S
O134 Cd130 2.352 . S
O134 C137 1.258 . S
C135 O132 1.320 . S
C135 O133 1.214 . S
O136 Cd128 2.277 . S
O136 C131 1.209 . S
C137 O134 1.258 . S
C137 O139 1.282 . S
O138 Cd130 2.277 . S
O138 C131 1.226 . S
O139 Cd130 2.356 . S
O139 C137 1.282 . S
C140 O141 1.306 . S
C140 O143 1.160 . S
O141 C140 1.306 . S
O141 Cd142 2.228 1_545 S
Cd142 O141 2.228 1_565 S
Cd142 O146 2.273 1_565 S
Cd142 O150 2.277 . S
O143 C140 1.160 . S
O143 Cd144 2.203 . S
Cd144 O143 2.203 . S
Cd144 O146 2.411 . S
Cd144 O147 2.333 1_545 S
Cd144 O148 2.352 . S
Cd144 O152 2.277 1_545 S
Cd144 O153 2.356 . S
C145 O150 1.209 . S
C145 O152 1.226 . S
O146 Cd142 2.273 1_545 S
O146 Cd144 2.411 . S
O146 C149 1.320 1_545 S
O147 Cd144 2.333 1_565 S
O147 C149 1.214 . S
O148 Cd144 2.352 . S
O148 C151 1.258 . S
C149 O146 1.320 1_565 S
C149 O147 1.214 . S
O150 Cd142 2.277 . S
O150 C145 1.209 . S
C151 O148 1.258 . S
C151 O153 1.282 . S
O152 Cd144 2.277 1_565 S
O152 C145 1.226 . S
O153 Cd144 2.356 . S
O153 C151 1.282 . S
C154 O155 1.306 . S
C154 O157 1.160 . S
O155 C154 1.306 . S
O155 Cd156 2.228 1_655 S
Cd156 O155 2.228 1_455 S
Cd156 O160 2.273 1_455 S
Cd156 O164 2.277 . S
O157 C154 1.160 . S
O157 Cd158 2.203 . S
Cd158 O157 2.203 . S
Cd158 O160 2.411 . S
Cd158 O161 2.333 1_655 S
Cd158 O162 2.352 . S
Cd158 O166 2.277 1_655 S
Cd158 O167 2.356 . S
C159 O164 1.209 . S
C159 O166 1.226 . S
O160 Cd156 2.273 1_655 S
O160 Cd158 2.411 . S
O160 C163 1.320 1_655 S
O161 Cd158 2.333 1_455 S
O161 C163 1.214 . S
O162 Cd158 2.352 . S
O162 C165 1.258 . S
C163 O160 1.320 1_455 S
C163 O161 1.214 . S
O164 Cd156 2.277 . S
O164 C159 1.209 . S
C165 O162 1.258 . S
C165 O167 1.282 . S
O166 Cd158 2.277 1_455 S
O166 C159 1.226 . S
O167 Cd158 2.356 . S
O167 C165 1.282 . S
C168 O169 1.306 . S
C168 O171 1.160 . S
O169 C168 1.306 . S
O169 Cd170 2.228 . S
Cd170 O169 2.228 . S
Cd170 O174 2.273 . S
Cd170 O178 2.277 . S
O171 C168 1.160 . S
O171 Cd172 2.203 . S
Cd172 O171 2.203 . S
Cd172 O174 2.411 . S
Cd172 O175 2.333 . S
Cd172 O176 2.352 . S
Cd172 O180 2.277 . S
Cd172 O181 2.356 . S
C173 O178 1.209 . S
C173 O180 1.226 . S
O174 Cd170 2.273 . S
O174 Cd172 2.411 . S
O174 C177 1.320 . S
O175 Cd172 2.333 . S
O175 C177 1.214 . S
O176 Cd172 2.352 . S
O176 C179 1.258 . S
C177 O174 1.320 . S
C177 O175 1.214 . S
O178 Cd170 2.277 . S
O178 C173 1.209 . S
C179 O176 1.258 . S
C179 O181 1.282 . S
O180 Cd172 2.277 . S
O180 C173 1.226 . S
O181 Cd172 2.356 . S
O181 C179 1.282 . S
C182 O183 1.306 . S
C182 O185 1.160 . S
O183 C182 1.306 . S
O183 Cd184 2.228 . S
Cd184 O183 2.228 . S
Cd184 O188 2.273 . S
Cd184 O192 2.277 . S
O185 C182 1.160 . S
O185 Cd186 2.203 . S
Cd186 O185 2.203 . S
Cd186 O188 2.411 . S
Cd186 O189 2.333 . S
Cd186 O190 2.352 . S
Cd186 O194 2.277 . S
Cd186 O195 2.356 . S
C187 O192 1.209 . S
C187 O194 1.226 . S
O188 Cd184 2.273 . S
O188 Cd186 2.411 . S
O188 C191 1.320 . S
O189 Cd186 2.333 . S
O189 C191 1.214 . S
O190 Cd186 2.352 . S
O190 C193 1.258 . S
C191 O188 1.320 . S
C191 O189 1.214 . S
O192 Cd184 2.277 . S
O192 C187 1.209 . S
C193 O190 1.258 . S
C193 O195 1.282 . S
O194 Cd186 2.277 . S
O194 C187 1.226 . S
O195 Cd186 2.356 . S
O195 C193 1.282 . S
C196 O197 1.306 . S
C196 O199 1.160 . S
O197 C196 1.306 . S
O197 Cd198 2.228 . S
Cd198 O197 2.228 . S
Cd198 O202 2.273 . S
Cd198 O206 2.277 . S
O199 C196 1.160 . S
O199 Cd200 2.203 . S
Cd200 O199 2.203 . S
Cd200 O202 2.411 . S
Cd200 O203 2.333 . S
Cd200 O204 2.352 . S
Cd200 O208 2.277 . S
Cd200 O209 2.356 . S
C201 O206 1.209 . S
C201 O208 1.226 . S
O202 Cd198 2.273 . S
O202 Cd200 2.411 . S
O202 C205 1.320 . S
O203 Cd200 2.333 . S
O203 C205 1.214 . S
O204 Cd200 2.352 . S
O204 C207 1.258 . S
C205 O202 1.320 . S
C205 O203 1.214 . S
O206 Cd198 2.277 . S
O206 C201 1.209 . S
C207 O204 1.258 . S
C207 O209 1.282 . S
O208 Cd200 2.277 . S
O208 C201 1.226 . S
O209 Cd200 2.356 . S
O209 C207 1.282 . S
C210 O211 1.306 . S
C210 O213 1.160 . S
O211 C210 1.306 . S
O211 Cd212 2.228 . S
Cd212 O211 2.228 . S
Cd212 O216 2.273 . S
Cd212 O220 2.277 . S
O213 C210 1.160 . S
O213 Cd214 2.203 . S
Cd214 O213 2.203 . S
Cd214 O216 2.411 . S
Cd214 O217 2.333 . S
Cd214 O218 2.352 . S
Cd214 O222 2.277 . S
Cd214 O223 2.356 . S
C215 O220 1.209 . S
C215 O222 1.226 . S
O216 Cd212 2.273 . S
O216 Cd214 2.411 . S
O216 C219 1.320 . S
O217 Cd214 2.333 . S
O217 C219 1.214 . S
O218 Cd214 2.352 . S
O218 C221 1.258 . S
C219 O216 1.320 . S
C219 O217 1.214 . S
O220 Cd212 2.277 . S
O220 C215 1.209 . S
C221 O218 1.258 . S
C221 O223 1.282 . S
O222 Cd214 2.277 . S
O222 C215 1.226 . S
O223 Cd214 2.356 . S
O223 C221 1.282 . S
C224 O225 1.306 . S
C224 O227 1.160 . S
O225 C224 1.306 . S
O225 Cd226 2.228 . S
Cd226 O225 2.228 . S
Cd226 O230 2.273 . S
Cd226 O234 2.277 . S
O227 C224 1.160 . S
O227 Cd228 2.203 . S
Cd228 O227 2.203 . S
Cd228 O230 2.411 . S
Cd228 O231 2.333 . S
Cd228 O232 2.352 . S
Cd228 O236 2.277 . S
Cd228 O237 2.356 . S
C229 O234 1.209 . S
C229 O236 1.226 . S
O230 Cd226 2.273 . S
O230 Cd228 2.411 . S
O230 C233 1.320 . S
O231 Cd228 2.333 . S
O231 C233 1.214 . S
O232 Cd228 2.352 . S
O232 C235 1.258 . S
C233 O230 1.320 . S
C233 O231 1.214 . S
O234 Cd226 2.277 . S
O234 C229 1.209 . S
C235 O232 1.258 . S
C235 O237 1.282 . S
O236 Cd228 2.277 . S
O236 C229 1.226 . S
O237 Cd228 2.356 . S
O237 C235 1.282 . S
C238 O239 1.306 . S
C238 O241 1.160 . S
O239 C238 1.306 . S
O239 Cd240 2.228 . S
Cd240 O239 2.228 . S
Cd240 O244 2.273 . S
Cd240 O248 2.277 . S
O241 C238 1.160 . S
O241 Cd242 2.203 . S
Cd242 O241 2.203 . S
Cd242 O244 2.411 . S
Cd242 O245 2.333 . S
Cd242 O246 2.352 . S
Cd242 O250 2.277 . S
Cd242 O251 2.356 . S
C243 O248 1.209 . S
C243 O250 1.226 . S
O244 Cd240 2.273 . S
O244 Cd242 2.411 . S
O244 C247 1.320 . S
O245 Cd242 2.333 . S
O245 C247 1.214 . S
O246 Cd242 2.352 . S
O246 C249 1.258 . S
C247 O244 1.320 . S
C247 O245 1.214 . S
O248 Cd240 2.277 . S
O248 C243 1.209 . S
C249 O246 1.258 . S
C249 O251 1.282 . S
O250 Cd242 2.277 . S
O250 C243 1.226 . S
O251 Cd242 2.356 . S
O251 C249 1.282 . S
C252 O253 1.306 . S
C252 O255 1.160 . S
O253 C252 1.306 . S
O253 Cd254 2.228 . S
Cd254 O253 2.228 . S
Cd254 O258 2.273 . S
Cd254 O262 2.277 . S
O255 C252 1.160 . S
O255 Cd256 2.203 . S
Cd256 O255 2.203 . S
Cd256 O258 2.411 . S
Cd256 O259 2.333 . S
Cd256 O260 2.352 . S
Cd256 O264 2.277 . S
Cd256 O265 2.356 . S
C257 O262 1.209 . S
C257 O264 1.226 . S
O258 Cd254 2.273 . S
O258 Cd256 2.411 . S
O258 C261 1.320 . S
O259 Cd256 2.333 . S
O259 C261 1.214 . S
O260 Cd256 2.352 . S
O260 C263 1.258 . S
C261 O258 1.320 . S
C261 O259 1.214 . S
O262 Cd254 2.277 . S
O262 C257 1.209 . S
C263 O260 1.258 . S
C263 O265 1.282 . S
O264 Cd256 2.277 . S
O264 C257 1.226 . S
O265 Cd256 2.356 . S
O265 C263 1.282 . S
C266 O267 1.306 . S
C266 O269 1.160 . S
O267 C266 1.306 . S
O267 Cd268 2.228 . S
Cd268 O267 2.228 . S
Cd268 O272 2.273 . S
Cd268 O276 2.277 . S
O269 C266 1.160 . S
O269 Cd270 2.203 . S
Cd270 O269 2.203 . S
Cd270 O272 2.411 . S
Cd270 O273 2.333 . S
Cd270 O274 2.352 . S
Cd270 O278 2.277 . S
Cd270 O279 2.356 . S
C271 O276 1.209 . S
C271 O278 1.226 . S
O272 Cd268 2.273 . S
O272 Cd270 2.411 . S
O272 C275 1.320 . S
O273 Cd270 2.333 . S
O273 C275 1.214 . S
O274 Cd270 2.352 . S
O274 C277 1.258 . S
C275 O272 1.320 . S
C275 O273 1.214 . S
O276 Cd268 2.277 . S
O276 C271 1.209 . S
C277 O274 1.258 . S
C277 O279 1.282 . S
O278 Cd270 2.277 . S
O278 C271 1.226 . S
O279 Cd270 2.356 . S
O279 C277 1.282 . S
C280 O281 1.306 . S
C280 O283 1.160 . S
O281 C280 1.306 . S
O281 Cd282 2.228 . S
Cd282 O281 2.228 . S
Cd282 O286 2.273 . S
Cd282 O290 2.277 . S
O283 C280 1.160 . S
O283 Cd284 2.203 . S
Cd284 O283 2.203 . S
Cd284 O286 2.411 . S
Cd284 O287 2.333 . S
Cd284 O288 2.352 . S
Cd284 O292 2.277 . S
Cd284 O293 2.356 . S
C285 O290 1.209 . S
C285 O292 1.226 . S
O286 Cd282 2.273 . S
O286 Cd284 2.411 . S
O286 C289 1.320 . S
O287 Cd284 2.333 . S
O287 C289 1.214 . S
O288 Cd284 2.352 . S
O288 C291 1.258 . S
C289 O286 1.320 . S
C289 O287 1.214 . S
O290 Cd282 2.277 . S
O290 C285 1.209 . S
C291 O288 1.258 . S
C291 O293 1.282 . S
O292 Cd284 2.277 . S
O292 C285 1.226 . S
O293 Cd284 2.356 . S
O293 C291 1.282 . S
C294 O295 1.306 1_556 S
C294 O297 1.160 . S
O295 C294 1.306 1_554 S
O295 Cd296 2.228 . S
Cd296 O295 2.228 . S
Cd296 O300 2.273 . S
Cd296 O304 2.277 . S
O297 C294 1.160 . S
O297 Cd298 2.203 1_556 S
Cd298 O297 2.203 1_554 S
Cd298 O300 2.411 . S
Cd298 O301 2.333 . S
Cd298 O302 2.352 . S
Cd298 O306 2.277 1_554 S
Cd298 O307 2.356 1_554 S
C299 O304 1.209 1_556 S
C299 O306 1.226 . S
O300 Cd296 2.273 . S
O300 Cd298 2.411 . S
O300 C303 1.320 . S
O301 Cd298 2.333 . S
O301 C303 1.214 . S
O302 Cd298 2.352 . S
O302 C305 1.258 1_554 S
C303 O300 1.320 . S
C303 O301 1.214 . S
O304 Cd296 2.277 . S
O304 C299 1.209 1_554 S
C305 O302 1.258 1_556 S
C305 O307 1.282 . S
O306 Cd298 2.277 1_556 S
O306 C299 1.226 . S
O307 Cd298 2.356 1_556 S
O307 C305 1.282 . S
C308 O309 1.306 1_556 S
C308 O311 1.160 . S
O309 C308 1.306 1_554 S
O309 Cd310 2.228 . S
Cd310 O309 2.228 . S
Cd310 O314 2.273 . S
Cd310 O318 2.277 . S
O311 C308 1.160 . S
O311 Cd312 2.203 1_556 S
Cd312 O311 2.203 1_554 S
Cd312 O314 2.411 . S
Cd312 O315 2.333 . S
Cd312 O316 2.352 . S
Cd312 O320 2.277 1_554 S
Cd312 O321 2.356 1_554 S
C313 O318 1.209 1_556 S
C313 O320 1.226 . S
O314 Cd310 2.273 . S
O314 Cd312 2.411 . S
O314 C317 1.320 . S
O315 Cd312 2.333 . S
O315 C317 1.214 . S
O316 Cd312 2.352 . S
O316 C319 1.258 1_554 S
C317 O314 1.320 . S
C317 O315 1.214 . S
O318 Cd310 2.277 . S
O318 C313 1.209 1_554 S
C319 O316 1.258 1_556 S
C319 O321 1.282 . S
O320 Cd312 2.277 1_556 S
O320 C313 1.226 . S
O321 Cd312 2.356 1_556 S
O321 C319 1.282 . S
C322 O323 1.306 1_556 S
C322 O325 1.160 . S
O323 C322 1.306 1_554 S
O323 Cd324 2.228 . S
Cd324 O323 2.228 . S
Cd324 O328 2.273 . S
Cd324 O332 2.277 . S
O325 C322 1.160 . S
O325 Cd326 2.203 1_556 S
Cd326 O325 2.203 1_554 S
Cd326 O328 2.411 . S
Cd326 O329 2.333 . S
Cd326 O330 2.352 . S
Cd326 O334 2.277 1_554 S
Cd326 O335 2.356 1_554 S
C327 O332 1.209 1_556 S
C327 O334 1.226 . S
O328 Cd324 2.273 . S
O328 Cd326 2.411 . S
O328 C331 1.320 . S
O329 Cd326 2.333 . S
O329 C331 1.214 . S
O330 Cd326 2.352 . S
O330 C333 1.258 1_554 S
C331 O328 1.320 . S
C331 O329 1.214 . S
O332 Cd324 2.277 . S
O332 C327 1.209 1_554 S
C333 O330 1.258 1_556 S
C333 O335 1.282 . S
O334 Cd326 2.277 1_556 S
O334 C327 1.226 . S
O335 Cd326 2.356 1_556 S
O335 C333 1.282 . S
C336 O337 1.306 . S
C336 O339 1.160 . S
O337 C336 1.306 . S
O337 Cd338 2.228 . S
Cd338 O337 2.228 . S
Cd338 O342 2.273 . S
Cd338 O346 2.277 . S
O339 C336 1.160 . S
O339 Cd340 2.203 . S
Cd340 O339 2.203 . S
Cd340 O342 2.411 . S
Cd340 O343 2.333 . S
Cd340 O344 2.352 . S
Cd340 O348 2.277 . S
Cd340 O349 2.356 . S
C341 O346 1.209 . S
C341 O348 1.226 . S
O342 Cd338 2.273 . S
O342 Cd340 2.411 . S
O342 C345 1.320 . S
O343 Cd340 2.333 . S
O343 C345 1.214 . S
O344 Cd340 2.352 . S
O344 C347 1.258 . S
C345 O342 1.320 . S
C345 O343 1.214 . S
O346 Cd338 2.277 . S
O346 C341 1.209 . S
C347 O344 1.258 . S
C347 O349 1.282 . S
O348 Cd340 2.277 . S
O348 C341 1.226 . S
O349 Cd340 2.356 . S
O349 C347 1.282 . S
C350 O351 1.306 . S
C350 O353 1.160 . S
O351 C350 1.306 . S
O351 Cd352 2.228 . S
Cd352 O351 2.228 . S
Cd352 O356 2.273 . S
Cd352 O360 2.277 . S
O353 C350 1.160 . S
O353 Cd354 2.203 . S
Cd354 O353 2.203 . S
Cd354 O356 2.411 . S
Cd354 O357 2.333 . S
Cd354 O358 2.352 . S
Cd354 O362 2.277 . S
Cd354 O363 2.356 . S
C355 O360 1.209 . S
C355 O362 1.226 . S
O356 Cd352 2.273 . S
O356 Cd354 2.411 . S
O356 C359 1.320 . S
O357 Cd354 2.333 . S
O357 C359 1.214 . S
O358 Cd354 2.352 . S
O358 C361 1.258 . S
C359 O356 1.320 . S
C359 O357 1.214 . S
O360 Cd352 2.277 . S
O360 C355 1.209 . S
C361 O358 1.258 . S
C361 O363 1.282 . S
O362 Cd354 2.277 . S
O362 C355 1.226 . S
O363 Cd354 2.356 . S
O363 C361 1.282 . S
C364 O365 1.306 . S
C364 O367 1.160 . S
O365 C364 1.306 . S
O365 Cd366 2.228 . S
Cd366 O365 2.228 . S
Cd366 O370 2.273 . S
Cd366 O374 2.277 . S
O367 C364 1.160 . S
O367 Cd368 2.203 . S
Cd368 O367 2.203 . S
Cd368 O370 2.411 . S
Cd368 O371 2.333 . S
Cd368 O372 2.352 . S
Cd368 O376 2.277 . S
Cd368 O377 2.356 . S
C369 O374 1.209 . S
C369 O376 1.226 . S
O370 Cd366 2.273 . S
O370 Cd368 2.411 . S
O370 C373 1.320 . S
O371 Cd368 2.333 . S
O371 C373 1.214 . S
O372 Cd368 2.352 . S
O372 C375 1.258 . S
C373 O370 1.320 . S
C373 O371 1.214 . S
O374 Cd366 2.277 . S
O374 C369 1.209 . S
C375 O372 1.258 . S
C375 O377 1.282 . S
O376 Cd368 2.277 . S
O376 C369 1.226 . S
O377 Cd368 2.356 . S
O377 C375 1.282 . S
C378 O379 1.306 . S
C378 O381 1.160 . S
O379 C378 1.306 . S
O379 Cd380 2.228 . S
Cd380 O379 2.228 . S
Cd380 O384 2.273 . S
Cd380 O388 2.277 . S
O381 C378 1.160 . S
O381 Cd382 2.203 . S
Cd382 O381 2.203 . S
Cd382 O384 2.411 . S
Cd382 O385 2.333 1_556 S
Cd382 O386 2.352 . S
Cd382 O390 2.277 1_556 S
Cd382 O391 2.356 1_556 S
C383 O388 1.209 1_554 S
C383 O390 1.226 . S
O384 Cd380 2.273 . S
O384 Cd382 2.411 . S
O384 C387 1.320 1_556 S
O385 Cd382 2.333 1_554 S
O385 C387 1.214 . S
O386 Cd382 2.352 . S
O386 C389 1.258 1_556 S
C387 O384 1.320 1_554 S
C387 O385 1.214 . S
O388 Cd380 2.277 . S
O388 C383 1.209 1_556 S
C389 O386 1.258 1_554 S
C389 O391 1.282 . S
O390 Cd382 2.277 1_554 S
O390 C383 1.226 . S
O391 Cd382 2.356 1_554 S
O391 C389 1.282 . S
C392 O393 1.306 . S
C392 O395 1.160 . S
O393 C392 1.306 . S
O393 Cd394 2.228 . S
Cd394 O393 2.228 . S
Cd394 O398 2.273 . S
Cd394 O402 2.277 . S
O395 C392 1.160 . S
O395 Cd396 2.203 . S
Cd396 O395 2.203 . S
Cd396 O398 2.411 . S
Cd396 O399 2.333 1_556 S
Cd396 O400 2.352 . S
Cd396 O404 2.277 1_556 S
Cd396 O405 2.356 1_556 S
C397 O402 1.209 1_554 S
C397 O404 1.226 . S
O398 Cd394 2.273 . S
O398 Cd396 2.411 . S
O398 C401 1.320 1_556 S
O399 Cd396 2.333 1_554 S
O399 C401 1.214 . S
O400 Cd396 2.352 . S
O400 C403 1.258 1_556 S
C401 O398 1.320 1_554 S
C401 O399 1.214 . S
O402 Cd394 2.277 . S
O402 C397 1.209 1_556 S
C403 O400 1.258 1_554 S
C403 O405 1.282 . S
O404 Cd396 2.277 1_554 S
O404 C397 1.226 . S
O405 Cd396 2.356 1_554 S
O405 C403 1.282 . S
C406 O407 1.306 . S
C406 O409 1.160 . S
O407 C406 1.306 . S
O407 Cd408 2.228 . S
Cd408 O407 2.228 . S
Cd408 O412 2.273 . S
Cd408 O416 2.277 . S
O409 C406 1.160 . S
O409 Cd410 2.203 . S
Cd410 O409 2.203 . S
Cd410 O412 2.411 . S
Cd410 O413 2.333 1_556 S
Cd410 O414 2.352 . S
Cd410 O418 2.277 1_556 S
Cd410 O419 2.356 1_556 S
C411 O416 1.209 1_554 S
C411 O418 1.226 . S
O412 Cd408 2.273 . S
O412 Cd410 2.411 . S
O412 C415 1.320 1_556 S
O413 Cd410 2.333 1_554 S
O413 C415 1.214 . S
O414 Cd410 2.352 . S
O414 C417 1.258 1_556 S
C415 O412 1.320 1_554 S
C415 O413 1.214 . S
O416 Cd408 2.277 . S
O416 C411 1.209 1_556 S
C417 O414 1.258 1_554 S
C417 O419 1.282 . S
O418 Cd410 2.277 1_554 S
O418 C411 1.226 . S
O419 Cd410 2.356 1_554 S
O419 C417 1.282 . S
C420 O421 1.306 . S
C420 O423 1.160 . S
O421 C420 1.306 . S
O421 Cd422 2.228 . S
Cd422 O421 2.228 . S
Cd422 O426 2.273 . S
Cd422 O430 2.277 . S
O423 C420 1.160 . S
O423 Cd424 2.203 . S
Cd424 O423 2.203 . S
Cd424 O426 2.411 . S
Cd424 O427 2.333 . S
Cd424 O428 2.352 . S
Cd424 O432 2.277 . S
Cd424 O433 2.356 . S
C425 O430 1.209 . S
C425 O432 1.226 . S
O426 Cd422 2.273 . S
O426 Cd424 2.411 . S
O426 C429 1.320 . S
O427 Cd424 2.333 . S
O427 C429 1.214 . S
O428 Cd424 2.352 . S
O428 C431 1.258 . S
C429 O426 1.320 . S
C429 O427 1.214 . S
O430 Cd422 2.277 . S
O430 C425 1.209 . S
C431 O428 1.258 . S
C431 O433 1.282 . S
O432 Cd424 2.277 . S
O432 C425 1.226 . S
O433 Cd424 2.356 . S
O433 C431 1.282 . S
C434 O435 1.306 . S
C434 O437 1.160 . S
O435 C434 1.306 . S
O435 Cd436 2.228 . S
Cd436 O435 2.228 . S
Cd436 O440 2.273 . S
Cd436 O444 2.277 . S
O437 C434 1.160 . S
O437 Cd438 2.203 . S
Cd438 O437 2.203 . S
Cd438 O440 2.411 . S
Cd438 O441 2.333 . S
Cd438 O442 2.352 . S
Cd438 O446 2.277 . S
Cd438 O447 2.356 . S
C439 O444 1.209 . S
C439 O446 1.226 . S
O440 Cd436 2.273 . S
O440 Cd438 2.411 . S
O440 C443 1.320 . S
O441 Cd438 2.333 . S
O441 C443 1.214 . S
O442 Cd438 2.352 . S
O442 C445 1.258 . S
C443 O440 1.320 . S
C443 O441 1.214 . S
O444 Cd436 2.277 . S
O444 C439 1.209 . S
C445 O442 1.258 . S
C445 O447 1.282 . S
O446 Cd438 2.277 . S
O446 C439 1.226 . S
O447 Cd438 2.356 . S
O447 C445 1.282 . S
C448 O449 1.306 . S
C448 O451 1.160 . S
O449 C448 1.306 . S
O449 Cd450 2.228 . S
Cd450 O449 2.228 . S
Cd450 O454 2.273 . S
Cd450 O458 2.277 . S
O451 C448 1.160 . S
O451 Cd452 2.203 . S
Cd452 O451 2.203 . S
Cd452 O454 2.411 . S
Cd452 O455 2.333 . S
Cd452 O456 2.352 . S
Cd452 O460 2.277 . S
Cd452 O461 2.356 . S
C453 O458 1.209 . S
C453 O460 1.226 . S
O454 Cd450 2.273 . S
O454 Cd452 2.411 . S
O454 C457 1.320 . S
O455 Cd452 2.333 . S
O455 C457 1.214 . S
O456 Cd452 2.352 . S
O456 C459 1.258 . S
C457 O454 1.320 . S
C457 O455 1.214 . S
O458 Cd450 2.277 . S
O458 C453 1.209 . S
C459 O456 1.258 . S
C459 O461 1.282 . S
O460 Cd452 2.277 . S
O460 C453 1.226 . S
O461 Cd452 2.356 . S
O461 C459 1.282 . S
C462 O463 1.306 . S
C462 O465 1.160 . S
O463 C462 1.306 . S
O463 Cd464 2.228 . S
Cd464 O463 2.228 . S
Cd464 O468 2.273 . S
Cd464 O472 2.277 . S
O465 C462 1.160 . S
O465 Cd466 2.203 . S
Cd466 O465 2.203 . S
Cd466 O468 2.411 . S
Cd466 O469 2.333 . S
Cd466 O470 2.352 . S
Cd466 O474 2.277 . S
Cd466 O475 2.356 . S
C467 O472 1.209 . S
C467 O474 1.226 . S
O468 Cd464 2.273 . S
O468 Cd466 2.411 . S
O468 C471 1.320 . S
O469 Cd466 2.333 . S
O469 C471 1.214 . S
O470 Cd466 2.352 . S
O470 C473 1.258 . S
C471 O468 1.320 . S
C471 O469 1.214 . S
O472 Cd464 2.277 . S
O472 C467 1.209 . S
C473 O470 1.258 . S
C473 O475 1.282 . S
O474 Cd466 2.277 . S
O474 C467 1.226 . S
O475 Cd466 2.356 . S
O475 C473 1.282 . S
C476 O477 1.306 . S
C476 O479 1.160 . S
O477 C476 1.306 . S
O477 Cd478 2.228 . S
Cd478 O477 2.228 . S
Cd478 O482 2.273 . S
Cd478 O486 2.277 . S
O479 C476 1.160 . S
O479 Cd480 2.203 . S
Cd480 O479 2.203 . S
Cd480 O482 2.411 . S
Cd480 O483 2.333 . S
Cd480 O484 2.352 . S
Cd480 O488 2.277 . S
Cd480 O489 2.356 . S
C481 O486 1.209 . S
C481 O488 1.226 . S
O482 Cd478 2.273 . S
O482 Cd480 2.411 . S
O482 C485 1.320 . S
O483 Cd480 2.333 . S
O483 C485 1.214 . S
O484 Cd480 2.352 . S
O484 C487 1.258 . S
C485 O482 1.320 . S
C485 O483 1.214 . S
O486 Cd478 2.277 . S
O486 C481 1.209 . S
C487 O484 1.258 . S
C487 O489 1.282 . S
O488 Cd480 2.277 . S
O488 C481 1.226 . S
O489 Cd480 2.356 . S
O489 C487 1.282 . S
C490 O491 1.306 . S
C490 O493 1.160 . S
O491 C490 1.306 . S
O491 Cd492 2.228 . S
Cd492 O491 2.228 . S
Cd492 O496 2.273 . S
Cd492 O500 2.277 . S
O493 C490 1.160 . S
O493 Cd494 2.203 . S
Cd494 O493 2.203 . S
Cd494 O496 2.411 . S
Cd494 O497 2.333 . S
Cd494 O498 2.352 . S
Cd494 O502 2.277 . S
Cd494 O503 2.356 . S
C495 O500 1.209 . S
C495 O502 1.226 . S
O496 Cd492 2.273 . S
O496 Cd494 2.411 . S
O496 C499 1.320 . S
O497 Cd494 2.333 . S
O497 C499 1.214 . S
O498 Cd494 2.352 . S
O498 C501 1.258 . S
C499 O496 1.320 . S
C499 O497 1.214 . S
O500 Cd492 2.277 . S
O500 C495 1.209 . S
C501 O498 1.258 . S
C501 O503 1.282 . S
O502 Cd494 2.277 . S
O502 C495 1.226 . S
O503 Cd494 2.356 . S
O503 C501 1.282 . S
C5 C23 1.769 1_455 S
C19 C37 1.769 . S
C9 C33 1.769 1_545 S
C47 C79 1.769 1_545 S
C61 C51 1.769 1_655 S
C65 C75 1.769 . S
C89 C98 1.810 1_655 S
C112 C103 1.810 . S
C84 C117 1.810 1_565 S
C154 C131 1.809 1_545 S
C145 C126 1.810 1_455 S
C159 C140 1.809 . S
C191 C173 1.769 . S
C187 C205 1.769 . S
C201 C177 1.769 . S
C215 C247 1.769 . S
C229 C219 1.769 . S
C243 C233 1.769 . S
C266 C257 1.809 . S
C271 C280 1.810 . S
C252 C285 1.810 . S
C322 C299 1.809 . S
C313 C294 1.810 . S
C308 C327 1.810 . S
C359 C341 1.769 . S
C355 C373 1.769 . S
C369 C345 1.769 . S
C415 C383 1.769 . S
C397 C387 1.769 . S
C401 C411 1.769 . S
C425 C434 1.810 . S
C439 C448 1.810 . S
C453 C420 1.809 . S
C490 C467 1.810 . S
C462 C481 1.810 . S
C495 C476 1.809 . S
C42 C0 1.951 . S
C14 C56 1.951 1_565 S
C70 C28 1.951 1_655 S
C135 C93 2.040 . S
C107 C149 2.040 1_545 S
C163 C121 2.040 1_455 S
C168 C210 1.951 . S
C182 C224 1.951 . S
C196 C238 1.951 . S
C303 C261 2.040 . S
C317 C275 2.040 . S
C289 C331 2.040 . S
C378 C336 1.951 . S
C392 C350 1.951 . S
C364 C406 1.951 . S
C429 C471 2.040 . S
C485 C443 2.040 . S
C457 C499 2.040 . S
C11 C263 2.830 . S
C25 C277 2.830 . S
C39 C291 2.830 . S
C473 C53 2.830 . S
C487 C67 2.829 . S
C81 C501 2.829 . S
C95 C347 2.830 . S
C361 C109 2.830 . S
C375 C123 2.830 . S
C221 C137 2.830 . S
C235 C151 2.830 . S
C249 C165 2.829 . S
C431 C179 2.829 1_455 S
C193 C445 2.830 . S
C207 C459 2.830 1_545 S
C305 C389 2.829 1_546 S
C319 C403 2.830 1_656 S
C417 C333 2.830 1_554 S
