# Generated by pormake.
# Topology und, (4)-cn, num edge types: 1
# Building blocks:
#     Node 0, Type 0, BuildingBlock: TATPOV_clean_sbu_0, # of connection points: 4
#     Node 1, Type 0, BuildingBlock: TATPOV_clean_sbu_0, # of connection points: 4
#     Node 2, Type 0, BuildingBlock: TATPOV_clean_sbu_0, # of connection points: 4
#     Node 3, Type 0, BuildingBlock: TATPOV_clean_sbu_0, # of connection points: 4
#     Node 4, Type 0, BuildingBlock: TATPOV_clean_sbu_0, # of connection points: 4
#     Node 5, Type 0, BuildingBlock: TATPOV_clean_sbu_0, # of connection points: 4
#     Node 6, Type 0, BuildingBlock: TATPOV_clean_sbu_0, # of connection points: 4
#     Node 7, Type 0, BuildingBlock: TATPOV_clean_sbu_0, # of connection points: 4
#     Node 8, Type 0, BuildingBlock: TATPOV_clean_sbu_0, # of connection points: 4
#     Node 9, Type 0, BuildingBlock: TATPOV_clean_sbu_0, # of connection points: 4
#     Node 10, Type 0, BuildingBlock: TATPOV_clean_sbu_0, # of connection points: 4
#     Node 11, Type 0, BuildingBlock: TATPOV_clean_sbu_0, # of connection points: 4
#     Node 12, Type 0, BuildingBlock: TATPOV_clean_sbu_0, # of connection points: 4
#     Node 13, Type 0, BuildingBlock: TATPOV_clean_sbu_0, # of connection points: 4
#     Node 14, Type 0, BuildingBlock: TATPOV_clean_sbu_0, # of connection points: 4
#     Node 15, Type 0, BuildingBlock: TATPOV_clean_sbu_0, # of connection points: 4
#     Edge 16, Type (0, 0), BuildingBlock: AJUNOK_clean_linker_0, # of connection points: 2
#     Edge 17, Type (0, 0), BuildingBlock: AJUNOK_clean_linker_0, # of connection points: 2
#     Edge 18, Type (0, 0), BuildingBlock: AJUNOK_clean_linker_0, # of connection points: 2
#     Edge 19, Type (0, 0), BuildingBlock: AJUNOK_clean_linker_0, # of connection points: 2
#     Edge 20, Type (0, 0), BuildingBlock: AJUNOK_clean_linker_0, # of connection points: 2
#     Edge 21, Type (0, 0), BuildingBlock: AJUNOK_clean_linker_0, # of connection points: 2
#     Edge 22, Type (0, 0), BuildingBlock: AJUNOK_clean_linker_0, # of connection points: 2
#     Edge 23, Type (0, 0), BuildingBlock: AJUNOK_clean_linker_0, # of connection points: 2
#     Edge 24, Type (0, 0), BuildingBlock: AJUNOK_clean_linker_0, # of connection points: 2
#     Edge 25, Type (0, 0), BuildingBlock: AJUNOK_clean_linker_0, # of connection points: 2
#     Edge 26, Type (0, 0), BuildingBlock: AJUNOK_clean_linker_0, # of connection points: 2
#     Edge 27, Type (0, 0), BuildingBlock: AJUNOK_clean_linker_0, # of connection points: 2
#     Edge 28, Type (0, 0), BuildingBlock: AJUNOK_clean_linker_0, # of connection points: 2
#     Edge 29, Type (0, 0), BuildingBlock: AJUNOK_clean_linker_0, # of connection points: 2
#     Edge 30, Type (0, 0), BuildingBlock: AJUNOK_clean_linker_0, # of connection points: 2
#     Edge 31, Type (0, 0), BuildingBlock: AJUNOK_clean_linker_0, # of connection points: 2
#     Edge 32, Type (0, 0), BuildingBlock: AJUNOK_clean_linker_0, # of connection points: 2
#     Edge 33, Type (0, 0), BuildingBlock: AJUNOK_clean_linker_0, # of connection points: 2
#     Edge 34, Type (0, 0), BuildingBlock: AJUNOK_clean_linker_0, # of connection points: 2
#     Edge 35, Type (0, 0), BuildingBlock: AJUNOK_clean_linker_0, # of connection points: 2
#     Edge 36, Type (0, 0), BuildingBlock: AJUNOK_clean_linker_0, # of connection points: 2
#     Edge 37, Type (0, 0), BuildingBlock: AJUNOK_clean_linker_0, # of connection points: 2
#     Edge 38, Type (0, 0), BuildingBlock: AJUNOK_clean_linker_0, # of connection points: 2
#     Edge 39, Type (0, 0), BuildingBlock: AJUNOK_clean_linker_0, # of connection points: 2
#     Edge 40, Type (0, 0), BuildingBlock: AJUNOK_clean_linker_0, # of connection points: 2
#     Edge 41, Type (0, 0), BuildingBlock: AJUNOK_clean_linker_0, # of connection points: 2
#     Edge 42, Type (0, 0), BuildingBlock: AJUNOK_clean_linker_0, # of connection points: 2
#     Edge 43, Type (0, 0), BuildingBlock: AJUNOK_clean_linker_0, # of connection points: 2
#     Edge 44, Type (0, 0), BuildingBlock: AJUNOK_clean_linker_0, # of connection points: 2
#     Edge 45, Type (0, 0), BuildingBlock: AJUNOK_clean_linker_0, # of connection points: 2
#     Edge 46, Type (0, 0), BuildingBlock: AJUNOK_clean_linker_0, # of connection points: 2
#     Edge 47, Type (0, 0), BuildingBlock: AJUNOK_clean_linker_0, # of connection points: 2
# Relax obj value: 0.104
# Max RMSD: 0.158
# Mean RMSD: 0.158
data_MOF--net-und--node1-TATPOV_clean_sbu_0--edge1-AJUNOK_clean_linker_0
_symmetry_space_group_name_H-M    P1
_symmetry_Int_Tables_number       1
_symmetry_cell_setting            triclinic
loop_
_symmetry_equiv_pos_as_xyz
'x, y, z'
_cell_length_a     44.375616
_cell_length_b     44.454707
_cell_length_c     15.506627
_cell_angle_alpha  89.960057
_cell_angle_beta   89.882414
_cell_angle_gamma 91.972168
loop_
_atom_site_label
_atom_site_type_symbol
_atom_site_fract_x
_atom_site_fract_y
_atom_site_fract_z
_atom_type_partial_charge
Zn0 Zn 0.28217 0.31578 0.87197 0.0
Zn1 Zn 0.23844 0.3468 0.89054 0.0
O2 O 0.23005 0.30951 0.97099 0.0
O3 O 0.26658 0.27997 0.93466 0.0
O4 O 0.20505 0.3756 0.92104 0.0
O5 O 0.31338 0.34239 0.92292 0.0
O6 O 0.27755 0.37446 0.90428 0.0
C7 C 0.24244 0.284 0.97551 0.0
C8 C 0.25179 0.32092 0.71549 0.0
O9 O 0.23225 0.33246 0.76494 0.0
O10 O 0.27759 0.31547 0.74481 0.0
C11 C 0.20283 0.38311 5e-05 0.0
O12 O 0.22119 0.37113 0.0558 0.0
C13 C 0.30513 0.36925 0.92005 0.0
Zn14 Zn 0.95457 0.95419 0.33374 0.0
Zn15 Zn 0.9266 1.00387 0.3369 0.0
O16 O 0.95893 0.00639 0.2407 0.0
O17 O 0.97886 0.96214 0.22758 0.0
O18 O 0.9008 0.03979 0.30993 0.0
O19 O 0.91879 0.92666 0.34083 0.0
O20 O 0.89447 0.96878 0.3514 0.0
C21 C 0.97798 0.98945 0.20524 0.0
C22 C 0.96881 0.9929 0.4809 0.0
O23 O 0.94993 0.01091 0.44924 0.0
O24 O 0.97349 0.96805 0.44418 0.0
C25 C 0.87542 0.04283 0.34656 0.0
O26 O 0.86745 0.02401 0.40858 0.0
C27 C 0.89457 0.94011 0.35338 0.0
Zn28 Zn 0.2048 0.68076 0.5904 0.0
Zn29 Zn 0.25734 0.65912 0.58181 0.0
O30 O 0.25058 0.68283 0.69343 0.0
O31 O 0.20381 0.69568 0.7117 0.0
O32 O 0.29354 0.63424 0.61196 0.0
O33 O 0.18173 0.64452 0.54701 0.0
O34 O 0.22738 0.63017 0.51673 0.0
C35 C 0.23082 0.69622 0.73742 0.0
C36 C 0.24989 0.71184 0.47495 0.0
O37 O 0.26849 0.69208 0.49764 0.0
O38 O 0.22299 0.71066 0.50324 0.0
C39 C 0.31839 0.64586 0.63903 0.0
O40 O 0.32206 0.67531 0.64016 0.0
C41 C 0.19887 0.62667 0.50882 0.0
Zn42 Zn 0.59233 0.0968 0.62411 0.0
Zn43 Zn 0.59934 0.03783 0.6151 0.0
O44 O 0.5917 0.05674 0.49658 0.0
O45 O 0.58869 0.10594 0.4983 0.0
O46 O 0.61484 0.99606 0.58517 0.0
O47 O 0.6297 0.10397 0.69581 0.0
O48 O 0.62903 0.05462 0.70761 0.0
C49 C 0.58736 0.08139 0.45729 0.0
C50 C 0.54288 0.05703 0.69576 0.0
O51 O 0.55822 0.03465 0.67227 0.0
O52 O 0.55318 0.08371 0.68409 0.0
C53 C 0.60787 0.9827 0.51484 0.0
O54 O 0.58797 0.99478 0.46398 0.0
C55 C 0.63931 0.08046 0.73084 0.0
Zn56 Zn 0.67693 0.67985 0.87569 0.0
Zn57 Zn 0.73643 0.6732 0.86922 0.0
O58 O 0.71883 0.68086 0.74971 0.0
O59 O 0.66958 0.68396 0.74854 0.0
O60 O 0.77824 0.65791 0.84016 0.0
O61 O 0.66996 0.6418 0.94554 0.0
O62 O 0.71933 0.64281 0.95915 0.0
C63 C 0.69451 0.6853 0.70894 0.0
C64 C 0.71614 0.72913 0.95026 0.0
O65 O 0.73882 0.71411 0.92721 0.0
O66 O 0.68948 0.71872 0.93787 0.0
C67 C 0.79332 0.66766 0.77526 0.0
O68 O 0.78309 0.69042 0.73139 0.0
C69 C 0.69342 0.63214 0.9809 0.0
Zn70 Zn 0.09487 0.06571 0.85161 0.0
Zn71 Zn 0.11311 0.01208 0.83644 0.0
O72 O 0.08935 0.01795 0.94868 0.0
O73 O 0.07908 0.06505 0.9725 0.0
O74 O 0.13759 0.97516 0.86159 0.0
O75 O 0.13271 0.0878 0.8124 0.0
O76 O 0.14285 0.04176 0.7738 0.0
C77 C 0.07685 0.03771 -0.00524 0.0
C78 C 0.06164 0.02398 0.72974 0.0
O79 O 0.07986 1.00368 0.75121 0.0
O80 O 0.06454 0.0503 0.76112 0.0
C81 C 0.12674 0.95163 0.89878 0.0
O82 O 0.09772 0.94974 0.91573 0.0
C83 C 0.14883 0.06998 0.77052 0.0
Zn84 Zn 0.80147 0.31118 0.63005 0.0
Zn85 Zn 0.754 0.3404 0.61891 0.0
O86 O 0.74869 0.30507 0.53126 0.0
O87 O 0.79084 0.28088 0.54068 0.0
O88 O 0.72106 0.36929 0.58727 0.0
O89 O 0.83196 0.34384 0.61385 0.0
O90 O 0.79132 0.37047 0.62151 0.0
C91 C 0.76458 0.28276 0.51043 0.0
C92 C 0.76388 0.30598 0.78115 0.0
O93 O 0.7457 0.32194 0.73856 0.0
O94 O 0.78942 0.30027 0.74991 0.0
C95 C 0.69466 0.36277 0.55951 0.0
O96 O 0.68561 0.33438 0.55439 0.0
C97 C 0.81999 0.36913 0.61895 0.0
Zn98 Zn 0.46678 1.00272 0.11519 0.0
Zn99 Zn 0.43472 0.04494 0.13475 0.0
O100 O 0.47304 0.05533 0.21025 0.0
O101 O 0.5034 0.02008 0.1698 0.0
O102 O 0.40338 0.07513 0.1707 0.0
O103 O 0.44283 0.9701 0.17104 0.0
O104 O 0.4096 1.00431 0.14686 0.0
C105 C 0.49925 0.04413 0.21049 0.0
C106 C 0.457 0.03216 0.95737 0.0
O107 O 0.44631 0.05197 0.00744 0.0
O108 O 0.46378 0.00688 -0.01224 0.0
C109 C 0.40677 0.10357 0.17778 0.0
O110 O 0.43295 0.11648 0.15793 0.0
C111 C 0.41562 0.97709 0.16412 0.0
Zn112 Zn 0.7693 0.8078 0.36031 0.0
Zn113 Zn 0.72592 0.83838 0.38497 0.0
O114 O 0.71798 0.79946 0.46001 0.0
O115 O 0.75354 0.7703 0.41452 0.0
O116 O 0.69377 0.86713 0.42597 0.0
O117 O 0.80077 0.83272 0.41749 0.0
O118 O 0.76541 0.86532 0.39933 0.0
C119 C 0.72998 0.77368 0.45853 0.0
C120 C 0.73874 0.81742 0.20522 0.0
O121 O 0.71878 0.82687 0.25718 0.0
O122 O 0.7646 0.81158 0.23339 0.0
C123 C 0.67926 0.88499 0.3786 0.0
O124 O 0.68329 0.88418 0.29468 0.0
C125 C 0.79279 0.85968 0.41631 0.0
Zn126 Zn 0.46465 0.47115 0.8894 0.0
Zn127 Zn 0.43611 0.51857 0.87144 0.0
O128 O 0.47244 0.52193 0.78569 0.0
O129 O 0.49622 0.47983 0.80174 0.0
O130 O 0.40748 0.55099 0.83375 0.0
O131 O 0.43188 0.4408 0.87442 0.0
O132 O 0.40559 0.48171 0.87779 0.0
C133 C 0.49477 0.50559 0.76801 0.0
C134 C 0.46847 0.51045 0.03714 0.0
O135 O 0.45343 0.52848 -0.00868 0.0
O136 O 0.47416 0.48457 0.0088 0.0
C137 C 0.41345 0.57346 0.78495 0.0
O138 O 0.44147 0.57924 0.76113 0.0
C139 C 0.40667 0.45307 0.87807 0.0
Zn140 Zn 0.6895 0.17629 0.1379 0.0
Zn141 Zn 0.74619 0.1603 0.1252 0.0
O142 O 0.73614 0.17881 0.24133 0.0
O143 O 0.68851 0.1876 0.26385 0.0
O144 O 0.78486 0.13844 0.1518 0.0
O145 O 0.67245 0.13769 0.08516 0.0
O146 O 0.71994 0.13053 0.0536 0.0
C147 C 0.71553 0.18863 0.28973 0.0
C148 C 0.73234 0.21464 0.03032 0.0
O149 O 0.75321 0.19678 0.04992 0.0
O150 O 0.70558 0.20974 0.05742 0.0
C151 C 0.78212 0.1208 0.21645 0.0
O152 O 0.75573 0.11839 0.2549 0.0
C153 C 0.6921 0.1234 0.04421 0.0
Zn154 Zn 0.0833 0.59434 0.11834 0.0
Zn155 Zn 0.09443 0.53577 0.1104 0.0
O156 O 0.08283 0.55269 -0.00717 0.0
O157 O 0.07837 0.60171 -0.00847 0.0
O158 O 0.11098 0.49493 0.07743 0.0
O159 O 0.12069 0.60378 0.18785 0.0
O160 O 0.12629 0.55481 0.19294 0.0
C161 C 0.07666 0.57672 0.95271 0.0
C162 C 0.03762 0.55226 0.19694 0.0
O163 O 0.05467 0.53092 0.17538 0.0
O164 O 0.04545 0.57944 0.18118 0.0
C165 C 0.1281 0.47996 0.12583 0.0
O166 O 0.1334 0.4897 0.20451 0.0
C167 C 0.13432 0.58132 0.21635 0.0
Zn168 Zn 0.18519 0.18392 0.38103 0.0
Zn169 Zn 0.24386 0.17491 0.37977 0.0
O170 O 0.22872 0.18657 0.26005 0.0
O171 O 0.17954 0.19011 0.25431 0.0
O172 O 0.28538 0.1585 0.35434 0.0
O173 O 0.17498 0.14546 0.4451 0.0
O174 O 0.22407 0.14327 0.46179 0.0
C175 C 0.20503 0.19261 0.21802 0.0
C176 C 0.22505 0.23036 0.46588 0.0
O177 O 0.24725 0.2144 0.44453 0.0
O178 O 0.19825 0.22155 0.4483 0.0
C179 C 0.30429 0.17098 0.3025 0.0
O180 O 0.29797 0.197 0.26796 0.0
C181 C 0.19745 0.13358 0.47964 0.0
Zn182 Zn 0.60059 0.57953 0.39241 0.0
Zn183 Zn 0.61455 0.52263 0.37416 0.0
O184 O 0.59882 0.53131 0.4946 0.0
O185 O 0.59101 0.57891 0.51946 0.0
O186 O 0.63494 0.48272 0.39177 0.0
O187 O 0.63914 0.59599 0.3376 0.0
O188 O 0.64427 0.54871 0.30106 0.0
C189 C 0.58996 0.55184 0.54473 0.0
C190 C 0.55945 0.53971 0.28635 0.0
O191 O 0.57664 0.51807 0.30372 0.0
O192 O 0.56563 0.56613 0.31369 0.0
C193 C 0.62207 0.46056 0.43085 0.0
O194 O 0.5936 0.46236 0.45302 0.0
C195 C 0.65222 0.57639 0.29328 0.0
Zn196 Zn 0.31949 0.81627 0.07149 0.0
Zn197 Zn 0.27029 0.84451 0.08049 0.0
O198 O 0.2659 0.8123 -0.0155 0.0
O199 O 0.30961 0.79138 0.96836 0.0
O200 O 0.23531 0.87179 0.05667 0.0
O201 O 0.34777 0.8515 0.07179 0.0
O202 O 0.30608 0.87582 0.09187 0.0
C203 C 0.28212 0.79284 0.94816 0.0
C204 C 0.28306 0.80331 0.22485 0.0
O205 O 0.2643 0.82162 0.19399 0.0
O206 O 0.30736 0.79842 0.18518 0.0
C207 C 0.20893 0.86292 0.03389 0.0
O208 O 0.20218 0.83393 0.03274 0.0
C209 C 0.33478 0.87571 0.08789 0.0
Zn210 Zn 0.95645 0.49605 0.60892 0.0
Zn211 Zn 0.92371 0.53864 0.62559 0.0
O212 O 0.96113 0.54909 0.70385 0.0
O213 O 0.99192 0.5134 0.66969 0.0
O214 O 0.89288 0.56965 0.66006 0.0
O215 O 0.93125 0.4637 0.66087 0.0
O216 O 0.89807 0.49833 0.64039 0.0
C217 C 0.98715 0.5377 0.70865 0.0
C218 C 0.94866 0.52546 0.45018 0.0
O219 O 0.93675 0.54508 0.49858 0.0
O220 O 0.9558 0.50048 0.48165 0.0
C221 C 0.89245 0.59745 0.6405 0.0
O222 O 0.91376 0.609 0.59035 0.0
C223 C 0.90407 0.47103 0.65685 0.0
C224 C 0.24587 0.23244 0.0376 0.0
C225 C 0.22936 0.25877 0.02769 0.0
C226 C 0.23596 0.20921 0.09253 0.0
C227 C 0.20902 0.21115 0.13943 0.0
H228 H 0.26744 0.2302 0.00585 0.0
H229 H 0.25055 0.19047 0.10267 0.0
S230 S 0.15495 0.27298 0.12619 0.0
N231 N 0.18287 0.28372 0.06142 0.0
N232 N 0.1641 0.23991 0.16486 0.0
C233 C 0.1909 0.23607 0.12444 0.0
C234 C 0.20118 0.25998 0.06887 0.0
C235 C 1.00541 0.97924 0.59409 0.0
C236 C 0.98865 1.0016 0.55371 0.0
C237 C 0.02877 0.9867 0.65112 0.0
C238 C 0.03626 0.01686 0.67069 0.0
H239 H 1.00114 0.95565 0.57943 0.0
H240 H 0.04126 0.96863 0.67919 0.0
S241 S 0.99788 0.08398 0.5871 0.0
N242 N 0.98005 0.05511 0.54071 0.0
N243 N 0.02387 0.06936 0.64886 0.0
C244 C 0.01878 0.03949 0.63391 0.0
C245 C 0.99493 0.03181 0.57545 0.0
C246 C 0.27186 0.71907 0.82762 0.0
C247 C 0.24142 0.71865 0.80232 0.0
C248 C 0.28486 0.74351 0.87232 0.0
C249 C 0.268 0.76865 0.89431 0.0
H250 H 0.28619 0.70076 0.81029 0.0
H251 H 0.30842 0.74252 0.8898 0.0
S252 S 0.1869 0.7784 0.84674 0.0
N253 N 0.19433 0.74526 0.80537 0.0
N254 N 0.21883 0.7912 0.88967 0.0
C255 C 0.23728 0.76825 0.8716 0.0
C256 C 0.22395 0.74323 0.82606 0.0
C257 C 0.48045 0.01679 0.81979 0.0
C258 C 0.46912 0.04002 0.87111 0.0
C259 C 0.50285 0.02272 0.75808 0.0
C260 C 0.51434 0.05215 0.74435 0.0
H261 H 0.47413 0.99347 0.83301 0.0
H262 H 0.5126 1.00383 0.72542 0.0
S263 S 0.48531 0.12178 0.84266 0.0
N264 N 0.46608 0.09408 0.89068 0.0
N265 N 0.50768 0.10552 0.7729 0.0
C266 C 0.49991 0.07601 0.78586 0.0
C267 C 0.47724 0.06987 0.84945 0.0
C268 C 0.24491 0.77697 0.31855 0.0
C269 C 0.27527 0.78397 0.29945 0.0
C270 C 0.23701 0.75381 0.37627 0.0
C271 C 0.25918 0.73681 0.41685 0.0
H272 H 0.22708 0.78835 0.28551 0.0
H273 H 0.21326 0.74864 0.38696 0.0
S274 S 0.342 0.74942 0.39842 0.0
N275 N 0.32772 0.77446 0.33284 0.0
N276 N 0.31278 0.73079 0.44091 0.0
C277 C 0.28964 0.74473 0.40199 0.0
C278 C 0.29769 0.76841 0.3436 0.0
C279 C 0.52001 0.08294 0.31403 0.0
C280 C 0.52472 0.0582 0.25977 0.0
C281 C 0.54257 0.09342 0.37086 0.0
C282 C 0.57046 0.07933 0.37585 0.0
H283 H 0.49822 0.09316 0.31647 0.0
H284 H 0.53699 0.11071 0.41687 0.0
S285 S 0.59674 0.01846 0.23481 0.0
N286 N 0.5617 0.02361 0.20397 0.0
N287 N 0.60338 0.04291 0.31312 0.0
C288 C 0.57657 0.05676 0.31612 0.0
C289 C 0.55385 0.04625 0.25757 0.0
C290 C 0.25973 0.27062 0.52453 0.0
C291 C 0.23025 0.25865 0.5148 0.0
C292 C 0.26601 0.29417 0.58201 0.0
C293 C 0.24312 0.3063 0.63317 0.0
H294 H 0.27841 0.26073 0.49099 0.0
H295 H 0.28941 0.30111 0.5917 0.0
S296 S 0.16121 0.28781 0.61695 0.0
N297 N 0.17708 0.26456 0.54894 0.0
N298 N 0.18916 0.30847 0.65857 0.0
C299 C 0.21312 0.29708 0.61645 0.0
C300 C 0.20662 0.27318 0.55721 0.0
C301 C 0.0513 0.99659 0.07964 0.0
C302 C 0.05373 0.02737 0.0585 0.0
C303 C 0.02628 0.98451 0.12429 0.0
C304 C 1.00254 1.00266 0.1504 0.0
H305 H 0.0685 0.98136 0.05944 0.0
H306 H 0.02574 0.96064 0.13865 0.0
S307 S 0.99823 0.08505 0.11428 0.0
N308 N 0.03045 0.07606 0.06941 0.0
N309 N 0.98349 0.05337 0.15394 0.0
C310 C 1.00491 0.03366 0.13148 0.0
C311 C 0.03051 0.04602 0.08593 0.0
C312 C 0.6811 0.72831 0.61647 0.0
C313 C 0.69727 0.70184 0.62673 0.0
C314 C 0.69104 0.75099 0.55916 0.0
C315 C 0.7173 0.74785 0.50946 0.0
H316 H 0.66229 0.73283 0.65862 0.0
H317 H 0.67892 0.77172 0.55727 0.0
S318 S 0.76378 0.67975 0.50021 0.0
N319 N 0.73792 0.67174 0.57412 0.0
N320 N 0.75642 0.71373 0.46473 0.0
C321 C 0.73176 0.72002 0.5128 0.0
C322 C 0.72173 0.69715 0.5717 0.0
C323 C 0.72193 0.25877 0.4258 0.0
C324 C 0.75134 0.25733 0.45921 0.0
C325 C 0.70899 0.2349 0.37779 0.0
C326 C 0.72499 0.2087 0.36136 0.0
H327 H 0.70901 0.27876 0.43493 0.0
H328 H 0.68708 0.23785 0.34893 0.0
S329 S 0.8009 0.19163 0.44378 0.0
N330 N 0.79483 0.22589 0.47927 0.0
N331 N 0.77035 0.18134 0.3894 0.0
C332 C 0.75356 0.20616 0.39885 0.0
C333 C 0.76682 0.23041 0.44733 0.0
C334 C 0.76907 0.25181 0.96569 0.0
C335 C 0.73909 0.24135 0.97589 0.0
C336 C 0.77649 0.27525 0.90869 0.0
C337 C 0.75426 0.2889 0.8587 0.0
H338 H 0.78715 0.24126 3e-05 0.0
H339 H 0.80012 0.28147 0.9 0.0
S340 S 0.67187 0.27241 0.86959 0.0
N341 N 0.6865 0.24862 0.93836 0.0
N342 N 0.70068 0.29242 0.82978 0.0
C343 C 0.72393 0.2803 0.87313 0.0
C344 C 0.71629 0.25647 0.93181 0.0
C345 C 0.69662 0.76802 0.05 0.0
C346 C 0.72034 0.75766 -0.00154 0.0
C347 C 0.70157 0.79114 0.11008 0.0
C348 C 0.73041 0.80463 0.12047 0.0
H349 H 0.67462 0.75667 0.04903 0.0
H350 H 0.68352 0.79614 0.15443 0.0
S351 S 0.79748 0.79201 -0.01643 0.0
N352 N 0.77179 0.76717 0.94873 0.0
N353 N 0.78106 0.81088 0.06128 0.0
C354 C 0.75307 0.79743 0.061 0.0
C355 C 0.74812 0.77372 0.00038 0.0
C356 C 0.51954 0.50492 0.22767 0.0
C357 C 0.53223 0.53419 0.23339 0.0
C358 C 0.49606 0.49821 0.17039 0.0
C359 C 0.48469 0.52039 0.11557 0.0
H360 H 0.52851 0.48678 0.26546 0.0
H361 H 0.48817 0.47494 0.16484 0.0
S362 S 0.50726 0.60145 0.11442 0.0
N363 N 0.52928 0.58643 0.18732 0.0
N364 N 0.48542 0.5735 0.07783 0.0
C365 C 0.49533 0.55028 0.12595 0.0
C366 C 0.51916 0.55722 0.18509 0.0
C367 C 0.99678 0.56935 0.2944 0.0
C368 C 0.00945 0.5461 0.2459 0.0
C369 C 0.97351 0.56327 0.3536 0.0
C370 C 0.96214 0.53372 0.36608 0.0
H371 H 1.00631 0.59209 0.29148 0.0
H372 H 0.96661 0.58128 0.39552 0.0
S373 S 0.98149 0.46661 0.23772 0.0
N374 N 1.00459 0.4937 0.20158 0.0
N375 N 0.96058 0.48227 0.31236 0.0
C376 C 0.97181 0.51111 0.30986 0.0
C377 C 0.99569 0.51724 0.25019 0.0
C378 C 0.06225 0.5474 0.82274 0.0
C379 C 0.05874 0.5733 0.87292 0.0
C380 C 0.03947 0.53698 0.76715 0.0
C381 C 0.01205 0.5519 0.75981 0.0
H382 H 0.08186 0.53382 0.83111 0.0
H383 H 0.04292 0.5161 0.73312 0.0
S384 S 0.99377 0.62377 0.86616 0.0
N385 N 0.02746 0.616 0.90337 0.0
N386 N 0.9845 0.5963 0.7986 0.0
C387 C 0.00934 0.57936 0.80366 0.0
C388 C 0.03278 0.59016 0.85998 0.0
C389 C 0.52092 0.54776 0.68655 0.0
C390 C 0.52062 0.51779 0.7161 0.0
C391 C 0.5452 0.55989 0.63831 0.0
C392 C 0.5701 0.54249 0.6174 0.0
H393 H 0.50199 0.56187 0.69916 0.0
H394 H 0.54348 0.58245 0.61273 0.0
S395 S 0.58244 0.46411 0.68791 0.0
N396 N 0.549 0.47189 0.72719 0.0
N397 N 0.59446 0.49488 0.63715 0.0
C398 C 0.57099 0.51317 0.65104 0.0
C399 C 0.54628 0.50074 0.69981 0.0
C400 C 0.16269 0.43721 0.14801 0.0
C401 C 0.14452 0.45363 0.09194 0.0
C402 C 0.18068 0.41412 0.11771 0.0
C403 C 0.18149 0.40628 0.0297 0.0
H404 H 0.16356 0.44255 0.21613 0.0
H405 H 0.19453 0.40272 0.16402 0.0
S406 S 0.13682 0.44099 0.85593 0.0
N407 N 0.12742 0.45938 0.94391 0.0
N408 N 0.16128 0.41603 0.88706 0.0
C409 C 0.16272 0.42183 0.97301 0.0
C410 C 0.14426 0.44541 0.00403 0.0
C411 C 0.81353 0.91011 0.3683 0.0
C412 C 0.81659 0.88375 0.41767 0.0
C413 C 0.83865 0.92925 0.35011 0.0
C414 C 0.86747 0.9223 0.37997 0.0
H415 H 0.79211 0.91496 0.33896 0.0
H416 H 0.83579 0.94861 0.30881 0.0
S417 S 0.8861 0.85967 0.52667 0.0
N418 N 0.84972 0.85458 0.50728 0.0
N419 N 0.89676 0.8901 0.47211 0.0
C420 C 0.87025 0.89746 0.4351 0.0
C421 C 0.84481 0.87831 0.45435 0.0
C422 C 0.37223 0.63788 0.68041 0.0
C423 C 0.34223 0.62665 0.67479 0.0
C424 C 0.39502 0.62061 0.71619 0.0
C425 C 0.38869 0.5916 0.74956 0.0
H426 H 0.37825 0.66018 0.65638 0.0
H427 H 0.41778 0.63021 0.71825 0.0
S428 S 0.31366 0.5518 0.75169 0.0
N429 N 0.30743 0.58455 0.70598 0.0
N430 N 0.35 0.55238 0.77437 0.0
C431 C 0.35871 0.58016 0.74496 0.0
C432 C 0.3356 0.59756 0.70722 0.0
C433 C 0.69747 0.10953 0.8898 0.0
C434 C 0.68247 0.10491 0.96925 0.0
C435 C 0.6844 0.09966 0.81203 0.0
C436 C 0.65653 0.08381 0.81153 0.0
H437 H 0.71816 0.12316 0.88672 0.0
H438 H 0.69537 0.10581 0.75175 0.0
S439 S 0.60995 0.06266 0.00238 0.0
N440 N 0.63936 0.08155 0.04287 0.0
N441 N 0.61553 0.06163 0.89703 0.0
C442 C 0.64257 0.07681 0.89088 0.0
C443 C 0.65538 0.08767 0.96979 0.0
C444 C 0.1393 0.58725 0.37371 0.0
C445 C 0.15344 0.58565 0.29284 0.0
C446 C 0.15512 0.59781 0.44627 0.0
C447 C 0.1857 0.60701 0.44051 0.0
H448 H 0.11534 0.58209 0.37976 0.0
H449 H 0.1428 0.60062 0.50597 0.0
S450 S 0.23364 0.60367 0.2442 0.0
N451 N 0.19997 0.59144 0.21165 0.0
N452 N 0.23021 0.61094 0.34819 0.0
C453 C 0.20068 0.60309 0.3611 0.0
C454 C 0.18436 0.59263 0.28694 0.0
C455 C 0.62277 0.94734 0.39735 0.0
C456 C 0.62447 0.95597 0.48471 0.0
C457 C 0.64004 0.92407 0.36444 0.0
C458 C 0.65958 0.90802 0.41746 0.0
H459 H 0.60856 0.95918 0.35295 0.0
H460 H 0.63827 0.91892 0.29634 0.0
S461 S 0.67096 0.92023 0.65246 0.0
N462 N 0.64642 0.94557 0.62469 0.0
N463 N 0.67856 0.90163 0.56333 0.0
C464 C 0.66075 0.91567 0.50574 0.0
C465 C 0.64335 0.93965 0.53913 0.0
C466 C 0.38274 0.40565 0.93254 0.0
C467 C 0.37934 0.43386 0.89354 0.0
C468 C 0.35807 0.38605 0.94676 0.0
C469 C 0.32884 0.39352 0.9215 0.0
H470 H 0.40478 0.39836 0.95182 0.0
H471 H 0.36228 0.36429 0.97496 0.0
S472 S 0.30729 0.46598 0.82392 0.0
N473 N 0.34421 0.46959 0.83632 0.0
N474 N 0.29749 0.43218 0.86111 0.0
C475 C 0.32474 0.42235 0.88647 0.0
C476 C 0.35008 0.44262 0.87278 0.0
C477 C 0.80326 0.08582 0.3253 0.0
C478 C 0.80749 0.10284 0.24928 0.0
C479 C 0.82567 0.06739 0.35708 0.0
C480 C 0.85352 0.065 0.31455 0.0
H481 H 0.7822 0.08635 0.36062 0.0
H482 H 0.82076 0.0545 0.41503 0.0
S483 S 0.87693 0.10603 0.11512 0.0
N484 N 0.84236 0.11704 0.13386 0.0
N485 N 0.88459 0.08234 0.19353 0.0
C486 C 0.85853 0.08255 0.23966 0.0
C487 C 0.83555 0.10143 0.2071 0.0
C488 C 0.8266 0.62295 0.77798 0.0
C489 C 0.82003 0.6513 0.74343 0.0
C490 C 0.85001 0.6059 0.74451 0.0
C491 C 0.86816 0.61649 0.67544 0.0
H492 H 0.81316 0.61345 0.83032 0.0
H493 H 0.8538 0.58412 0.77313 0.0
S494 S 0.86105 0.68971 0.56295 0.0
N495 N 0.83421 0.68946 0.63679 0.0
N496 N 0.87818 0.65759 0.57463 0.0
C497 C 0.86226 0.64507 0.64132 0.0
C498 C 0.83825 0.66237 0.67502 0.0
C499 C 0.17692 0.0859 0.5453 0.0
C500 C 0.19217 0.11385 0.55472 0.0
C501 C 0.16576 0.0701 0.61765 0.0
C502 C 0.16851 0.08235 0.70123 0.0
H503 H 0.17233 0.07694 0.48153 0.0
H504 H 0.15266 0.04941 0.60717 0.0
S505 S 0.20832 0.15403 0.75971 0.0
N506 N 0.21163 0.15209 0.65372 0.0
N507 N 0.1893 0.12311 0.78932 0.0
C508 C 0.18504 0.10957 0.71155 0.0
C509 C 0.19719 0.12518 0.63823 0.0
C510 C 0.68883 0.41483 0.50068 0.0
C511 C 0.67543 0.38709 0.5267 0.0
C512 C 0.67152 0.43801 0.46756 0.0
C513 C 0.63995 0.43471 0.46032 0.0
H514 H 0.71302 0.41866 0.50515 0.0
H515 H 0.68301 0.45894 0.4491 0.0
S516 S 0.59366 0.3666 0.51963 0.0
N517 N 0.62857 0.35759 0.54218 0.0
N518 N 0.59598 0.40132 0.4817 0.0
C519 C 0.62621 0.40711 0.48616 0.0
C520 C 0.64393 0.38329 0.51875 0.0
C521 C 0.40111 0.92269 0.16971 0.0
C522 C 0.39226 0.95251 0.15817 0.0
C523 C 0.38223 0.89832 0.14674 0.0
C524 C 0.35338 0.90254 0.11253 0.0
H525 H 0.4234 0.91793 0.19339 0.0
H526 H 0.39054 0.87588 0.15543 0.0
S527 S 0.31764 0.97579 0.07872 0.0
N528 N 0.35155 0.98489 0.11627 0.0
N529 N 0.31562 0.93863 0.07501 0.0
C530 C 0.3433 0.93208 0.1056 0.0
C531 C 0.36281 0.95715 0.12812 0.0
C532 C 0.86904 0.39261 0.66308 0.0
C533 C 0.83967 0.39629 0.63194 0.0
C534 C 0.8888 0.41721 0.67618 0.0
C535 C 0.88032 0.44673 0.65769 0.0
H536 H 0.87707 0.37042 0.67739 0.0
H537 H 0.91133 0.41278 0.69854 0.0
S538 S 0.80508 0.46892 0.58048 0.0
N539 N 0.80218 0.43187 0.58814 0.0
N540 N 0.83975 0.47846 0.61103 0.0
C541 C 0.85056 0.451 0.62972 0.0
C542 C 0.83018 0.42572 0.61712 0.0
C543 C 0.33254 0.12337 0.28471 0.0
C544 C 0.33149 0.15478 0.27424 0.0
C545 C 0.35684 0.10715 0.25319 0.0
C546 C 0.38145 0.12163 0.21083 0.0
H547 H 0.3141 0.11099 0.31588 0.0
H548 H 0.35628 0.08298 0.26235 0.0
S549 S 0.39044 0.2038 0.16984 0.0
N550 N 0.35769 0.19991 0.22005 0.0
N551 N 0.40348 0.16956 0.16206 0.0
C552 C 0.38102 0.15315 0.20149 0.0
C553 C 0.35605 0.16965 0.23274 0.0
C554 C 0.66298 0.57318 0.13633 0.0
C555 C 0.66992 0.58633 0.21693 0.0
C556 C 0.67234 0.58708 0.05905 0.0
C557 C 0.68993 0.61391 0.05993 0.0
H558 H 0.64805 0.55342 0.13255 0.0
H559 H 0.66456 0.5776 -0.00163 0.0
S560 S 0.71709 0.65549 0.25362 0.0
N561 N 0.69707 0.62655 0.29276 0.0
N562 N 0.71604 0.65184 0.1476 0.0
C563 C 0.69911 0.62592 0.13997 0.0
C564 C 0.68877 0.61232 0.21857 0.0
C565 C 0.1975 0.91436 0.97847 0.0
C566 C 0.18721 0.88504 0.00086 0.0
C567 C 0.17797 0.93538 0.94374 0.0
C568 C 0.14715 0.9282 0.93095 0.0
H569 H 0.22098 0.92116 -0.01311 0.0
H570 H 0.1871 0.95764 0.92812 0.0
S571 S 0.10865 0.85452 0.97809 0.0
N572 N 0.14402 0.84986 0.00652 0.0
N573 N 0.10729 0.88948 0.94268 0.0
C574 C 0.13649 0.899 0.9531 0.0
C575 C 0.15648 0.87743 -0.01243 0.0
loop_
_geom_bond_atom_site_label_1
_geom_bond_atom_site_label_2
_geom_bond_distance
_geom_bond_site_symmetry_2
_ccdc_geom_bond_type
Zn0 O3 2.031 1_556 S
Zn0 O5 2.049 . S
Zn0 O10 2.067 . S
Zn1 O2 1.962 . S
Zn1 O4 1.986 . S
Zn1 O6 1.996 . S
Zn1 O9 1.943 1_554 S
O2 Zn1 1.962 . S
O2 C7 1.254 . S
O3 Zn0 2.031 1_554 S
O3 C7 1.269 . S
O4 Zn1 1.986 . S
O4 C11 1.262 . S
O5 Zn0 2.049 . S
O5 C13 1.260 . S
O6 Zn1 1.996 . S
O6 C13 1.257 1_554 S
C7 O2 1.254 . S
C7 O3 1.269 . S
C8 O9 1.249 . S
C8 O10 1.270 . S
O9 Zn1 1.943 1_556 S
O9 C8 1.249 . S
O10 Zn0 2.067 . S
O10 C8 1.270 . S
C11 O4 1.262 . S
C11 O12 1.232 . S
O12 C11 1.232 . S
C13 O5 1.260 . S
C13 O6 1.257 1_556 S
Zn14 O17 2.031 . S
Zn14 O19 2.049 . S
Zn14 O24 2.067 . S
Zn15 O16 1.962 . S
Zn15 O18 1.986 . S
Zn15 O20 1.996 1_545 S
Zn15 O23 1.943 . S
O16 Zn15 1.962 . S
O16 C21 1.254 . S
O17 Zn14 2.031 . S
O17 C21 1.269 1_565 S
O18 Zn15 1.986 . S
O18 C25 1.262 . S
O19 Zn14 2.049 . S
O19 C27 1.260 . S
O20 Zn15 1.996 1_565 S
O20 C27 1.257 . S
C21 O16 1.254 . S
C21 O17 1.269 1_545 S
C22 O23 1.249 . S
C22 O24 1.270 1_545 S
O23 Zn15 1.943 . S
O23 C22 1.249 . S
O24 Zn14 2.067 . S
O24 C22 1.270 1_565 S
C25 O18 1.262 . S
C25 O26 1.232 . S
O26 C25 1.232 . S
C27 O19 1.260 . S
C27 O20 1.257 . S
Zn28 O31 2.031 . S
Zn28 O33 2.049 . S
Zn28 O38 2.067 . S
Zn29 O30 1.962 . S
Zn29 O32 1.986 . S
Zn29 O34 1.996 . S
Zn29 O37 1.943 . S
O30 Zn29 1.962 . S
O30 C35 1.254 . S
O31 Zn28 2.031 . S
O31 C35 1.269 . S
O32 Zn29 1.986 . S
O32 C39 1.262 . S
O33 Zn28 2.049 . S
O33 C41 1.260 . S
O34 Zn29 1.996 . S
O34 C41 1.257 . S
C35 O30 1.254 . S
C35 O31 1.269 . S
C36 O37 1.249 . S
C36 O38 1.270 . S
O37 Zn29 1.943 . S
O37 C36 1.249 . S
O38 Zn28 2.067 . S
O38 C36 1.270 . S
C39 O32 1.262 . S
C39 O40 1.232 . S
O40 C39 1.232 . S
C41 O33 1.260 . S
C41 O34 1.257 . S
Zn42 O45 2.031 . S
Zn42 O47 2.049 . S
Zn42 O52 2.067 . S
Zn43 O44 1.962 . S
Zn43 O46 1.986 1_545 S
Zn43 O48 1.996 . S
Zn43 O51 1.943 1_545 S
O44 Zn43 1.962 . S
O44 C49 1.254 . S
O45 Zn42 2.031 . S
O45 C49 1.269 . S
O46 Zn43 1.986 1_565 S
O46 C53 1.262 . S
O47 Zn42 2.049 . S
O47 C55 1.260 . S
O48 Zn43 1.996 . S
O48 C55 1.257 . S
C49 O44 1.254 . S
C49 O45 1.269 . S
C50 O51 1.249 1_545 S
C50 O52 1.270 . S
O51 Zn43 1.943 1_565 S
O51 C50 1.249 1_565 S
O52 Zn42 2.067 . S
O52 C50 1.270 . S
C53 O46 1.262 . S
C53 O54 1.232 . S
O54 C53 1.232 . S
C55 O47 1.260 . S
C55 O48 1.257 . S
Zn56 O59 2.031 1_554 S
Zn56 O61 2.049 . S
Zn56 O66 2.067 . S
Zn57 O58 1.962 . S
Zn57 O60 1.986 . S
Zn57 O62 1.996 1_556 S
Zn57 O65 1.943 1_556 S
O58 Zn57 1.962 . S
O58 C63 1.254 . S
O59 Zn56 2.031 1_556 S
O59 C63 1.269 . S
O60 Zn57 1.986 . S
O60 C67 1.262 . S
O61 Zn56 2.049 . S
O61 C69 1.260 . S
O62 Zn57 1.996 1_554 S
O62 C69 1.257 . S
C63 O58 1.254 . S
C63 O59 1.269 . S
C64 O65 1.249 . S
C64 O66 1.270 . S
O65 Zn57 1.943 1_554 S
O65 C64 1.249 . S
O66 Zn56 2.067 . S
O66 C64 1.270 . S
C67 O60 1.262 . S
C67 O68 1.232 . S
O68 C67 1.232 . S
C69 O61 1.260 . S
C69 O62 1.257 . S
Zn70 O73 2.031 . S
Zn70 O75 2.049 . S
Zn70 O80 2.067 . S
Zn71 O72 1.962 . S
Zn71 O74 1.986 1_545 S
Zn71 O76 1.996 . S
Zn71 O79 1.943 1_545 S
O72 Zn71 1.962 . S
O72 C77 1.254 . S
O73 Zn70 2.031 . S
O73 C77 1.269 . S
O74 Zn71 1.986 1_565 S
O74 C81 1.262 . S
O75 Zn70 2.049 . S
O75 C83 1.260 . S
O76 Zn71 1.996 . S
O76 C83 1.257 . S
C77 O72 1.254 . S
C77 O73 1.269 . S
C78 O79 1.249 1_545 S
C78 O80 1.270 . S
O79 Zn71 1.943 1_565 S
O79 C78 1.249 1_565 S
O80 Zn70 2.067 . S
O80 C78 1.270 . S
C81 O74 1.262 . S
C81 O82 1.232 . S
O82 C81 1.232 . S
C83 O75 1.260 . S
C83 O76 1.257 . S
Zn84 O87 2.031 . S
Zn84 O89 2.049 . S
Zn84 O94 2.067 . S
Zn85 O86 1.962 . S
Zn85 O88 1.986 . S
Zn85 O90 1.996 . S
Zn85 O93 1.943 . S
O86 Zn85 1.962 . S
O86 C91 1.254 . S
O87 Zn84 2.031 . S
O87 C91 1.269 . S
O88 Zn85 1.986 . S
O88 C95 1.262 . S
O89 Zn84 2.049 . S
O89 C97 1.260 . S
O90 Zn85 1.996 . S
O90 C97 1.257 . S
C91 O86 1.254 . S
C91 O87 1.269 . S
C92 O93 1.249 . S
C92 O94 1.270 . S
O93 Zn85 1.943 . S
O93 C92 1.249 . S
O94 Zn84 2.067 . S
O94 C92 1.270 . S
C95 O88 1.262 . S
C95 O96 1.232 . S
O96 C95 1.232 . S
C97 O89 1.260 . S
C97 O90 1.257 . S
Zn98 O101 2.031 . S
Zn98 O103 2.049 . S
Zn98 O108 2.067 . S
Zn99 O100 1.962 . S
Zn99 O102 1.986 . S
Zn99 O104 1.996 1_545 S
Zn99 O107 1.943 . S
O100 Zn99 1.962 . S
O100 C105 1.254 . S
O101 Zn98 2.031 . S
O101 C105 1.269 1_565 S
O102 Zn99 1.986 . S
O102 C109 1.262 . S
O103 Zn98 2.049 . S
O103 C111 1.260 . S
O104 Zn99 1.996 1_565 S
O104 C111 1.257 . S
C105 O100 1.254 . S
C105 O101 1.269 1_545 S
C106 O107 1.249 . S
C106 O108 1.270 1_545 S
O107 Zn99 1.943 . S
O107 C106 1.249 . S
O108 Zn98 2.067 . S
O108 C106 1.270 1_565 S
C109 O102 1.262 . S
C109 O110 1.232 . S
O110 C109 1.232 . S
C111 O103 1.260 . S
C111 O104 1.257 . S
Zn112 O115 2.031 . S
Zn112 O117 2.049 . S
Zn112 O122 2.067 . S
Zn113 O114 1.962 . S
Zn113 O116 1.986 . S
Zn113 O118 1.996 . S
Zn113 O121 1.943 . S
O114 Zn113 1.962 . S
O114 C119 1.254 . S
O115 Zn112 2.031 . S
O115 C119 1.269 . S
O116 Zn113 1.986 . S
O116 C123 1.262 . S
O117 Zn112 2.049 . S
O117 C125 1.260 . S
O118 Zn113 1.996 . S
O118 C125 1.257 . S
C119 O114 1.254 . S
C119 O115 1.269 . S
C120 O121 1.249 . S
C120 O122 1.270 . S
O121 Zn113 1.943 . S
O121 C120 1.249 . S
O122 Zn112 2.067 . S
O122 C120 1.270 . S
C123 O116 1.262 . S
C123 O124 1.232 . S
O124 C123 1.232 . S
C125 O117 1.260 . S
C125 O118 1.257 . S
Zn126 O129 2.031 . S
Zn126 O131 2.049 . S
Zn126 O136 2.067 . S
Zn127 O128 1.962 . S
Zn127 O130 1.986 . S
Zn127 O132 1.996 . S
Zn127 O135 1.943 . S
O128 Zn127 1.962 . S
O128 C133 1.254 . S
O129 Zn126 2.031 . S
O129 C133 1.269 . S
O130 Zn127 1.986 . S
O130 C137 1.262 . S
O131 Zn126 2.049 . S
O131 C139 1.260 . S
O132 Zn127 1.996 . S
O132 C139 1.257 . S
C133 O128 1.254 . S
C133 O129 1.269 . S
C134 O135 1.249 . S
C134 O136 1.270 . S
O135 Zn127 1.943 . S
O135 C134 1.249 . S
O136 Zn126 2.067 . S
O136 C134 1.270 . S
C137 O130 1.262 . S
C137 O138 1.232 . S
O138 C137 1.232 . S
C139 O131 1.260 . S
C139 O132 1.257 . S
Zn140 O143 2.031 1_556 S
Zn140 O145 2.049 . S
Zn140 O150 2.067 . S
Zn141 O142 1.962 . S
Zn141 O144 1.986 . S
Zn141 O146 1.996 . S
Zn141 O149 1.943 1_554 S
O142 Zn141 1.962 . S
O142 C147 1.254 . S
O143 Zn140 2.031 1_554 S
O143 C147 1.269 . S
O144 Zn141 1.986 . S
O144 C151 1.262 . S
O145 Zn140 2.049 . S
O145 C153 1.260 . S
O146 Zn141 1.996 . S
O146 C153 1.257 1_554 S
C147 O142 1.254 . S
C147 O143 1.269 . S
C148 O149 1.249 . S
C148 O150 1.270 . S
O149 Zn141 1.943 1_556 S
O149 C148 1.249 . S
O150 Zn140 2.067 . S
O150 C148 1.270 . S
C151 O144 1.262 . S
C151 O152 1.232 . S
O152 C151 1.232 . S
C153 O145 1.260 . S
C153 O146 1.257 1_556 S
Zn154 O157 2.031 . S
Zn154 O159 2.049 . S
Zn154 O164 2.067 . S
Zn155 O156 1.962 . S
Zn155 O158 1.986 . S
Zn155 O160 1.996 . S
Zn155 O163 1.943 . S
O156 Zn155 1.962 . S
O156 C161 1.254 . S
O157 Zn154 2.031 . S
O157 C161 1.269 . S
O158 Zn155 1.986 . S
O158 C165 1.262 . S
O159 Zn154 2.049 . S
O159 C167 1.260 . S
O160 Zn155 1.996 . S
O160 C167 1.257 . S
C161 O156 1.254 . S
C161 O157 1.269 . S
C162 O163 1.249 . S
C162 O164 1.270 . S
O163 Zn155 1.943 . S
O163 C162 1.249 . S
O164 Zn154 2.067 . S
O164 C162 1.270 . S
C165 O158 1.262 . S
C165 O166 1.232 . S
O166 C165 1.232 . S
C167 O159 1.260 . S
C167 O160 1.257 . S
Zn168 O171 2.031 . S
Zn168 O173 2.049 . S
Zn168 O178 2.067 . S
Zn169 O170 1.962 . S
Zn169 O172 1.986 . S
Zn169 O174 1.996 . S
Zn169 O177 1.943 . S
O170 Zn169 1.962 . S
O170 C175 1.254 . S
O171 Zn168 2.031 . S
O171 C175 1.269 . S
O172 Zn169 1.986 . S
O172 C179 1.262 . S
O173 Zn168 2.049 . S
O173 C181 1.260 . S
O174 Zn169 1.996 . S
O174 C181 1.257 . S
C175 O170 1.254 . S
C175 O171 1.269 . S
C176 O177 1.249 . S
C176 O178 1.270 . S
O177 Zn169 1.943 . S
O177 C176 1.249 . S
O178 Zn168 2.067 . S
O178 C176 1.270 . S
C179 O172 1.262 . S
C179 O180 1.232 . S
O180 C179 1.232 . S
C181 O173 1.260 . S
C181 O174 1.257 . S
Zn182 O185 2.031 . S
Zn182 O187 2.049 . S
Zn182 O192 2.067 . S
Zn183 O184 1.962 . S
Zn183 O186 1.986 . S
Zn183 O188 1.996 . S
Zn183 O191 1.943 . S
O184 Zn183 1.962 . S
O184 C189 1.254 . S
O185 Zn182 2.031 . S
O185 C189 1.269 . S
O186 Zn183 1.986 . S
O186 C193 1.262 . S
O187 Zn182 2.049 . S
O187 C195 1.260 . S
O188 Zn183 1.996 . S
O188 C195 1.257 . S
C189 O184 1.254 . S
C189 O185 1.269 . S
C190 O191 1.249 . S
C190 O192 1.270 . S
O191 Zn183 1.943 . S
O191 C190 1.249 . S
O192 Zn182 2.067 . S
O192 C190 1.270 . S
C193 O186 1.262 . S
C193 O194 1.232 . S
O194 C193 1.232 . S
C195 O187 1.260 . S
C195 O188 1.257 . S
Zn196 O199 2.031 1_554 S
Zn196 O201 2.049 . S
Zn196 O206 2.067 . S
Zn197 O198 1.962 . S
Zn197 O200 1.986 . S
Zn197 O202 1.996 1_556 S
Zn197 O205 1.943 1_556 S
O198 Zn197 1.962 . S
O198 C203 1.254 . S
O199 Zn196 2.031 1_556 S
O199 C203 1.269 . S
O200 Zn197 1.986 . S
O200 C207 1.262 . S
O201 Zn196 2.049 . S
O201 C209 1.260 . S
O202 Zn197 1.996 1_554 S
O202 C209 1.257 . S
C203 O198 1.254 . S
C203 O199 1.269 . S
C204 O205 1.249 . S
C204 O206 1.270 . S
O205 Zn197 1.943 1_554 S
O205 C204 1.249 . S
O206 Zn196 2.067 . S
O206 C204 1.270 . S
C207 O200 1.262 . S
C207 O208 1.232 . S
O208 C207 1.232 . S
C209 O201 1.260 . S
C209 O202 1.257 . S
Zn210 O213 2.031 . S
Zn210 O215 2.049 . S
Zn210 O220 2.067 . S
Zn211 O212 1.962 . S
Zn211 O214 1.986 . S
Zn211 O216 1.996 . S
Zn211 O219 1.943 . S
O212 Zn211 1.962 . S
O212 C217 1.254 . S
O213 Zn210 2.031 . S
O213 C217 1.269 . S
O214 Zn211 1.986 . S
O214 C221 1.262 . S
O215 Zn210 2.049 . S
O215 C223 1.260 . S
O216 Zn211 1.996 . S
O216 C223 1.257 . S
C217 O212 1.254 . S
C217 O213 1.269 . S
C218 O219 1.249 . S
C218 O220 1.270 . S
O219 Zn211 1.943 . S
O219 C218 1.249 . S
O220 Zn210 2.067 . S
O220 C218 1.270 . S
C221 O214 1.262 . S
C221 O222 1.232 . S
O222 C221 1.232 . S
C223 O215 1.260 . S
C223 O216 1.257 . S
C224 C225 1.369 . S
C224 C226 1.419 . S
C224 H228 0.930 . S
C225 C224 1.369 . S
C225 C234 1.429 . S
C226 C224 1.419 . S
C226 C227 1.363 . S
C226 H229 0.929 . S
C227 C226 1.363 . S
C227 C233 1.428 . S
H228 C224 0.930 . S
H229 C226 0.929 . S
S230 N231 1.613 . S
S230 N232 1.610 . S
N231 S230 1.613 . S
N231 C234 1.350 . S
N232 S230 1.610 . S
N232 C233 1.351 . S
C233 C227 1.428 . S
C233 N232 1.351 . S
C233 C234 1.434 . S
C234 C225 1.429 . S
C234 N231 1.350 . S
C234 C233 1.434 . S
C235 C236 1.369 1_565 S
C235 C237 1.419 . S
C235 H239 0.930 . S
C236 C235 1.369 1_545 S
C236 C245 1.429 1_655 S
C237 C235 1.419 . S
C237 C238 1.363 1_665 S
C237 H240 0.929 . S
C238 C237 1.363 1_445 S
C238 C244 1.428 . S
H239 C235 0.930 . S
H240 C237 0.929 . S
S241 N242 1.613 . S
S241 N243 1.610 . S
N242 S241 1.613 . S
N242 C245 1.350 . S
N243 S241 1.610 . S
N243 C244 1.351 . S
C244 C238 1.428 . S
C244 N243 1.351 . S
C244 C245 1.434 . S
C245 C236 1.429 1_455 S
C245 N242 1.350 . S
C245 C244 1.434 . S
C246 C247 1.369 . S
C246 C248 1.419 . S
C246 H250 0.930 . S
C247 C246 1.369 . S
C247 C256 1.429 . S
C248 C246 1.419 . S
C248 C249 1.363 . S
C248 H251 0.929 . S
C249 C248 1.363 . S
C249 C255 1.428 . S
H250 C246 0.930 . S
H251 C248 0.929 . S
S252 N253 1.613 . S
S252 N254 1.610 . S
N253 S252 1.613 . S
N253 C256 1.350 . S
N254 S252 1.610 . S
N254 C255 1.351 . S
C255 C249 1.428 . S
C255 N254 1.351 . S
C255 C256 1.434 . S
C256 C247 1.429 . S
C256 N253 1.350 . S
C256 C255 1.434 . S
C257 C258 1.369 1_556 S
C257 C259 1.419 . S
C257 H261 0.930 . S
C258 C257 1.369 1_554 S
C258 C267 1.429 . S
C259 C257 1.419 . S
C259 C260 1.363 . S
C259 H262 0.929 . S
C260 C259 1.363 . S
C260 C266 1.423 1_546 S
H261 C257 0.930 . S
H262 C259 0.929 . S
S263 N264 1.613 1_565 S
S263 N265 1.610 . S
N264 S263 1.613 1_545 S
N264 C267 1.350 . S
N265 S263 1.610 . S
N265 C266 1.366 . S
C266 C260 1.423 1_564 S
C266 N265 1.366 . S
C266 C267 1.424 1_565 S
C267 C258 1.429 . S
C267 N264 1.350 . S
C267 C266 1.424 1_545 S
C268 C269 1.369 . S
C268 C270 1.419 . S
C268 H272 0.930 . S
C269 C268 1.369 . S
C269 C278 1.429 . S
C270 C268 1.419 . S
C270 C271 1.363 . S
C270 H273 0.929 . S
C271 C270 1.363 . S
C271 C277 1.428 . S
H272 C268 0.930 . S
H273 C270 0.929 . S
S274 N275 1.613 . S
S274 N276 1.610 . S
N275 S274 1.613 . S
N275 C278 1.350 . S
N276 S274 1.610 . S
N276 C277 1.351 . S
C277 C271 1.428 . S
C277 N276 1.351 . S
C277 C278 1.434 . S
C278 C269 1.429 . S
C278 N275 1.350 . S
C278 C277 1.434 . S
C279 C280 1.369 . S
C279 C281 1.419 . S
C279 H283 0.930 . S
C280 C279 1.369 . S
C280 C289 1.429 1_545 S
C281 C279 1.419 . S
C281 C282 1.363 . S
C281 H284 0.929 . S
C282 C281 1.363 . S
C282 C288 1.411 1_545 S
H283 C279 0.930 . S
H284 C281 0.929 . S
S285 N286 1.613 . S
S285 N287 1.610 . S
N286 S285 1.613 . S
N286 C289 1.350 . S
N287 S285 1.610 . S
N287 C288 1.366 . S
C288 C282 1.411 1_565 S
C288 N287 1.366 . S
C288 C289 1.439 . S
C289 C280 1.429 1_565 S
C289 N286 1.350 . S
C289 C288 1.439 . S
C290 C291 1.369 . S
C290 C292 1.419 . S
C290 H294 0.930 . S
C291 C290 1.369 . S
C291 C300 1.429 . S
C292 C290 1.419 . S
C292 C293 1.363 . S
C292 H295 0.929 . S
C293 C292 1.363 . S
C293 C299 1.428 . S
H294 C290 0.930 . S
H295 C292 0.929 . S
S296 N297 1.613 . S
S296 N298 1.610 . S
N297 S296 1.613 . S
N297 C300 1.350 . S
N298 S296 1.610 . S
N298 C299 1.351 . S
C299 C293 1.428 . S
C299 N298 1.351 . S
C299 C300 1.434 . S
C300 C291 1.429 . S
C300 N297 1.350 . S
C300 C299 1.434 . S
C301 C302 1.369 1_554 S
C301 C303 1.419 . S
C301 H305 0.930 . S
C302 C301 1.369 1_556 S
C302 C311 1.429 1_455 S
C303 C301 1.419 . S
C303 C304 1.363 1_455 S
C303 H306 0.929 . S
C304 C303 1.363 1_655 S
C304 C310 1.428 1_544 S
H305 C301 0.930 . S
H306 C303 0.929 . S
S307 N308 1.625 . S
S307 N309 1.610 . S
N308 S307 1.625 . S
N308 C311 1.343 1_565 S
N309 S307 1.610 . S
N309 C310 1.351 . S
C310 C304 1.428 1_566 S
C310 N309 1.351 . S
C310 C311 1.434 1_565 S
C311 C302 1.429 1_655 S
C311 N308 1.343 1_545 S
C311 C310 1.434 1_545 S
C312 C313 1.369 . S
C312 C314 1.419 . S
C312 H316 0.930 . S
C313 C312 1.369 . S
C313 C322 1.429 . S
C314 C312 1.419 . S
C314 C315 1.363 . S
C314 H317 0.929 . S
C315 C314 1.363 . S
C315 C321 1.428 . S
H316 C312 0.930 . S
H317 C314 0.929 . S
S318 N319 1.613 . S
S318 N320 1.610 . S
N319 S318 1.613 . S
N319 C322 1.350 . S
N320 S318 1.610 . S
N320 C321 1.351 . S
C321 C315 1.428 . S
C321 N320 1.351 . S
C321 C322 1.434 . S
C322 C313 1.429 . S
C322 N319 1.350 . S
C322 C321 1.434 . S
C323 C324 1.369 . S
C323 C325 1.419 . S
C323 H327 0.930 . S
C324 C323 1.369 . S
C324 C333 1.429 . S
C325 C323 1.419 . S
C325 C326 1.363 . S
C325 H328 0.929 . S
C326 C325 1.363 . S
C326 C332 1.428 . S
H327 C323 0.930 . S
H328 C325 0.929 . S
S329 N330 1.613 . S
S329 N331 1.610 . S
N330 S329 1.613 . S
N330 C333 1.350 . S
N331 S329 1.610 . S
N331 C332 1.351 . S
C332 C326 1.428 . S
C332 N331 1.351 . S
C332 C333 1.434 . S
C333 C324 1.429 . S
C333 N330 1.350 . S
C333 C332 1.434 . S
C334 C335 1.369 . S
C334 C336 1.419 . S
C334 H338 0.930 . S
C335 C334 1.369 . S
C335 C344 1.429 . S
C336 C334 1.419 . S
C336 C337 1.363 . S
C336 H339 0.929 . S
C337 C336 1.363 . S
C337 C343 1.428 . S
H338 C334 0.930 . S
H339 C336 0.929 . S
S340 N341 1.613 . S
S340 N342 1.610 . S
N341 S340 1.613 . S
N341 C344 1.350 . S
N342 S340 1.610 . S
N342 C343 1.351 . S
C343 C337 1.428 . S
C343 N342 1.351 . S
C343 C344 1.434 . S
C344 C335 1.429 . S
C344 N341 1.350 . S
C344 C343 1.434 . S
C345 C346 1.369 . S
C345 C347 1.419 . S
C345 H349 0.930 . S
C346 C345 1.369 . S
C346 C355 1.429 . S
C347 C345 1.419 . S
C347 C348 1.363 . S
C347 H350 0.929 . S
C348 C347 1.363 . S
C348 C354 1.428 . S
H349 C345 0.930 . S
H350 C347 0.929 . S
S351 N352 1.613 . S
S351 N353 1.610 . S
N352 S351 1.613 . S
N352 C355 1.350 . S
N353 S351 1.610 . S
N353 C354 1.351 . S
C354 C348 1.428 . S
C354 N353 1.351 . S
C354 C355 1.434 . S
C355 C346 1.429 . S
C355 N352 1.350 . S
C355 C354 1.434 . S
C356 C357 1.369 . S
C356 C358 1.419 . S
C356 H360 0.930 . S
C357 C356 1.369 . S
C357 C366 1.429 1_554 S
C358 C356 1.419 . S
C358 C359 1.363 1_554 S
C358 H361 0.929 . S
C359 C358 1.363 1_556 S
C359 C365 1.428 . S
H360 C356 0.930 . S
H361 C358 0.929 . S
S362 N363 1.613 . S
S362 N364 1.610 . S
N363 S362 1.613 . S
N363 C366 1.350 . S
N364 S362 1.610 . S
N364 C365 1.351 . S
C365 C359 1.428 . S
C365 N364 1.351 . S
C365 C366 1.434 . S
C366 C357 1.429 1_556 S
C366 N363 1.350 . S
C366 C365 1.434 . S
C367 C368 1.369 . S
C367 C369 1.419 . S
C367 H371 0.930 . S
C368 C367 1.369 . S
C368 C377 1.429 1_455 S
C369 C367 1.419 . S
C369 C370 1.363 1_455 S
C369 H372 0.929 . S
C370 C369 1.363 1_655 S
C370 C376 1.428 . S
H371 C367 0.930 . S
H372 C369 0.929 . S
S373 N374 1.613 . S
S373 N375 1.610 . S
N374 S373 1.613 . S
N374 C377 1.350 . S
N375 S373 1.610 . S
N375 C376 1.351 . S
C376 C370 1.428 . S
C376 N375 1.351 . S
C376 C377 1.434 . S
C377 C368 1.429 1_655 S
C377 N374 1.350 . S
C377 C376 1.434 . S
C378 C379 1.369 1_556 S
C378 C380 1.419 . S
C378 H382 0.930 . S
C379 C378 1.369 1_554 S
C379 C388 1.429 1_455 S
C380 C378 1.419 . S
C380 C381 1.363 1_455 S
C380 H383 0.929 . S
C381 C380 1.363 1_655 S
C381 C387 1.428 1_556 S
H382 C378 0.930 . S
H383 C380 0.929 . S
S384 N385 1.613 . S
S384 N386 1.610 . S
N385 S384 1.613 . S
N385 C388 1.350 . S
N386 S384 1.610 . S
N386 C387 1.351 . S
C387 C381 1.428 1_554 S
C387 N386 1.351 . S
C387 C388 1.434 . S
C388 C379 1.429 1_655 S
C388 N385 1.350 . S
C388 C387 1.434 . S
C389 C390 1.369 . S
C389 C391 1.419 . S
C389 H393 0.930 . S
C390 C389 1.369 . S
C390 C399 1.429 . S
C391 C389 1.419 . S
C391 C392 1.363 . S
C391 H394 0.929 . S
C392 C391 1.363 . S
C392 C398 1.428 . S
H393 C389 0.930 . S
H394 C391 0.929 . S
S395 N396 1.613 . S
S395 N397 1.610 . S
N396 S395 1.613 . S
N396 C399 1.350 . S
N397 S395 1.610 . S
N397 C398 1.351 . S
C398 C392 1.428 . S
C398 N397 1.351 . S
C398 C399 1.434 . S
C399 C390 1.429 . S
C399 N396 1.350 . S
C399 C398 1.434 . S
C400 C401 1.369 . S
C400 C402 1.419 . S
C400 H404 0.930 . S
C401 C400 1.369 . S
C401 C410 1.429 . S
C402 C400 1.419 . S
C402 C403 1.363 . S
C402 H405 0.929 . S
C403 C402 1.363 . S
C403 C409 1.428 . S
H404 C400 0.930 . S
H405 C402 0.929 . S
S406 N407 1.613 1_556 S
S406 N408 1.610 . S
N407 S406 1.613 1_554 S
N407 C410 1.350 . S
N408 S406 1.610 . S
N408 C409 1.351 1_556 S
C409 C403 1.428 . S
C409 N408 1.351 1_554 S
C409 C410 1.434 . S
C410 C401 1.429 . S
C410 N407 1.350 . S
C410 C409 1.434 . S
C411 C412 1.369 . S
C411 C413 1.419 . S
C411 H415 0.930 . S
C412 C411 1.369 . S
C412 C421 1.429 . S
C413 C411 1.419 . S
C413 C414 1.363 . S
C413 H416 0.929 . S
C414 C413 1.363 . S
C414 C420 1.428 . S
H415 C411 0.930 . S
H416 C413 0.929 . S
S417 N418 1.613 . S
S417 N419 1.610 . S
N418 S417 1.613 . S
N418 C421 1.350 . S
N419 S417 1.610 . S
N419 C420 1.351 . S
C420 C414 1.428 . S
C420 N419 1.351 . S
C420 C421 1.434 . S
C421 C412 1.429 . S
C421 N418 1.350 . S
C421 C420 1.434 . S
C422 C423 1.369 . S
C422 C424 1.419 . S
C422 H426 0.930 . S
C423 C422 1.369 . S
C423 C432 1.429 . S
C424 C422 1.419 . S
C424 C425 1.363 . S
C424 H427 0.929 . S
C425 C424 1.363 . S
C425 C431 1.428 . S
H426 C422 0.930 . S
H427 C424 0.929 . S
S428 N429 1.613 . S
S428 N430 1.610 . S
N429 S428 1.613 . S
N429 C432 1.350 . S
N430 S428 1.610 . S
N430 C431 1.351 . S
C431 C425 1.428 . S
C431 N430 1.351 . S
C431 C432 1.434 . S
C432 C423 1.429 . S
C432 N429 1.350 . S
C432 C431 1.434 . S
C433 C434 1.369 . S
C433 C435 1.419 . S
C433 H437 0.930 . S
C434 C433 1.369 . S
C434 C443 1.429 . S
C435 C433 1.419 . S
C435 C436 1.363 . S
C435 H438 0.929 . S
C436 C435 1.363 . S
C436 C442 1.428 . S
H437 C433 0.930 . S
H438 C435 0.929 . S
S439 N440 1.613 . S
S439 N441 1.610 1_554 S
N440 S439 1.613 . S
N440 C443 1.350 1_554 S
N441 S439 1.610 1_556 S
N441 C442 1.351 . S
C442 C436 1.428 . S
C442 N441 1.351 . S
C442 C443 1.434 . S
C443 C434 1.429 . S
C443 N440 1.350 1_556 S
C443 C442 1.434 . S
C444 C445 1.369 . S
C444 C446 1.419 . S
C444 H448 0.930 . S
C445 C444 1.369 . S
C445 C454 1.429 . S
C446 C444 1.419 . S
C446 C447 1.363 . S
C446 H449 0.929 . S
C447 C446 1.363 . S
C447 C453 1.428 . S
H448 C444 0.930 . S
H449 C446 0.929 . S
S450 N451 1.613 . S
S450 N452 1.610 . S
N451 S450 1.613 . S
N451 C454 1.350 . S
N452 S450 1.610 . S
N452 C453 1.351 . S
C453 C447 1.428 . S
C453 N452 1.351 . S
C453 C454 1.434 . S
C454 C445 1.429 . S
C454 N451 1.350 . S
C454 C453 1.434 . S
C455 C456 1.369 . S
C455 C457 1.419 . S
C455 H459 0.930 . S
C456 C455 1.369 . S
C456 C465 1.429 . S
C457 C455 1.419 . S
C457 C458 1.363 . S
C457 H460 0.929 . S
C458 C457 1.363 . S
C458 C464 1.428 . S
H459 C455 0.930 . S
H460 C457 0.929 . S
S461 N462 1.613 . S
S461 N463 1.610 . S
N462 S461 1.613 . S
N462 C465 1.350 . S
N463 S461 1.610 . S
N463 C464 1.351 . S
C464 C458 1.428 . S
C464 N463 1.351 . S
C464 C465 1.434 . S
C465 C456 1.429 . S
C465 N462 1.350 . S
C465 C464 1.434 . S
C466 C467 1.369 . S
C466 C468 1.419 . S
C466 H470 0.930 . S
C467 C466 1.369 . S
C467 C476 1.429 . S
C468 C466 1.419 . S
C468 C469 1.363 . S
C468 H471 0.929 1_556 S
C469 C468 1.363 . S
C469 C475 1.428 . S
H470 C466 0.930 . S
H471 C468 0.929 1_554 S
S472 N473 1.613 . S
S472 N474 1.610 . S
N473 S472 1.613 . S
N473 C476 1.350 . S
N474 S472 1.610 . S
N474 C475 1.351 . S
C475 C469 1.428 . S
C475 N474 1.351 . S
C475 C476 1.434 . S
C476 C467 1.429 . S
C476 N473 1.350 . S
C476 C475 1.434 . S
C477 C478 1.369 . S
C477 C479 1.419 . S
C477 H481 0.930 . S
C478 C477 1.369 . S
C478 C487 1.429 . S
C479 C477 1.419 . S
C479 C480 1.363 . S
C479 H482 0.929 . S
C480 C479 1.363 . S
C480 C486 1.428 . S
H481 C477 0.930 . S
H482 C479 0.929 . S
S483 N484 1.613 . S
S483 N485 1.610 1_556 S
N484 S483 1.613 . S
N484 C487 1.350 1_556 S
N485 S483 1.610 1_554 S
N485 C486 1.351 . S
C486 C480 1.428 . S
C486 N485 1.351 . S
C486 C487 1.434 . S
C487 C478 1.429 . S
C487 N484 1.350 1_554 S
C487 C486 1.434 . S
C488 C489 1.369 . S
C488 C490 1.419 . S
C488 H492 0.930 1_556 S
C489 C488 1.369 . S
C489 C498 1.429 . S
C490 C488 1.419 . S
C490 C491 1.363 . S
C490 H493 0.929 . S
C491 C490 1.363 . S
C491 C497 1.428 . S
H492 C488 0.930 1_554 S
H493 C490 0.929 . S
S494 N495 1.613 . S
S494 N496 1.610 . S
N495 S494 1.613 . S
N495 C498 1.350 . S
N496 S494 1.610 . S
N496 C497 1.351 . S
C497 C491 1.428 . S
C497 N496 1.351 . S
C497 C498 1.434 . S
C498 C489 1.429 . S
C498 N495 1.350 . S
C498 C497 1.434 . S
C499 C500 1.369 . S
C499 C501 1.419 . S
C499 H503 0.930 . S
C500 C499 1.369 . S
C500 C509 1.429 . S
C501 C499 1.419 . S
C501 C502 1.363 . S
C501 H504 0.929 . S
C502 C501 1.363 . S
C502 C508 1.428 . S
H503 C499 0.930 . S
H504 C501 0.929 . S
S505 N506 1.613 . S
S505 N507 1.610 . S
N506 S505 1.613 . S
N506 C509 1.350 . S
N507 S505 1.610 . S
N507 C508 1.351 . S
C508 C502 1.428 . S
C508 N507 1.351 . S
C508 C509 1.434 . S
C509 C500 1.429 . S
C509 N506 1.350 . S
C509 C508 1.434 . S
C510 C511 1.369 . S
C510 C512 1.419 . S
C510 H514 0.930 . S
C511 C510 1.369 . S
C511 C520 1.429 . S
C512 C510 1.419 . S
C512 C513 1.363 . S
C512 H515 0.929 . S
C513 C512 1.363 . S
C513 C519 1.428 . S
H514 C510 0.930 . S
H515 C512 0.929 . S
S516 N517 1.613 . S
S516 N518 1.610 . S
N517 S516 1.613 . S
N517 C520 1.350 . S
N518 S516 1.610 . S
N518 C519 1.351 . S
C519 C513 1.428 . S
C519 N518 1.351 . S
C519 C520 1.434 . S
C520 C511 1.429 . S
C520 N517 1.350 . S
C520 C519 1.434 . S
C521 C522 1.369 . S
C521 C523 1.419 . S
C521 H525 0.930 . S
C522 C521 1.369 . S
C522 C531 1.429 . S
C523 C521 1.419 . S
C523 C524 1.363 . S
C523 H526 0.929 . S
C524 C523 1.363 . S
C524 C530 1.428 . S
H525 C521 0.930 . S
H526 C523 0.929 . S
S527 N528 1.613 . S
S527 N529 1.610 . S
N528 S527 1.613 . S
N528 C531 1.350 . S
N529 S527 1.610 . S
N529 C530 1.351 . S
C530 C524 1.428 . S
C530 N529 1.351 . S
C530 C531 1.434 . S
C531 C522 1.429 . S
C531 N528 1.350 . S
C531 C530 1.434 . S
C532 C533 1.369 . S
C532 C534 1.419 . S
C532 H536 0.930 . S
C533 C532 1.369 . S
C533 C542 1.429 . S
C534 C532 1.419 . S
C534 C535 1.363 . S
C534 H537 0.929 . S
C535 C534 1.363 . S
C535 C541 1.428 . S
H536 C532 0.930 . S
H537 C534 0.929 . S
S538 N539 1.613 . S
S538 N540 1.610 . S
N539 S538 1.613 . S
N539 C542 1.350 . S
N540 S538 1.610 . S
N540 C541 1.351 . S
C541 C535 1.428 . S
C541 N540 1.351 . S
C541 C542 1.434 . S
C542 C533 1.429 . S
C542 N539 1.350 . S
C542 C541 1.434 . S
C543 C544 1.369 . S
C543 C545 1.419 . S
C543 H547 0.930 . S
C544 C543 1.369 . S
C544 C553 1.429 . S
C545 C543 1.419 . S
C545 C546 1.363 . S
C545 H548 0.929 . S
C546 C545 1.363 . S
C546 C552 1.428 . S
H547 C543 0.930 . S
H548 C545 0.929 . S
S549 N550 1.613 . S
S549 N551 1.610 . S
N550 S549 1.613 . S
N550 C553 1.350 . S
N551 S549 1.610 . S
N551 C552 1.351 . S
C552 C546 1.428 . S
C552 N551 1.351 . S
C552 C553 1.434 . S
C553 C544 1.429 . S
C553 N550 1.350 . S
C553 C552 1.434 . S
C554 C555 1.369 . S
C554 C556 1.419 . S
C554 H558 0.930 . S
C555 C554 1.369 . S
C555 C564 1.429 . S
C556 C554 1.419 . S
C556 C557 1.363 . S
C556 H559 0.929 . S
C557 C556 1.363 . S
C557 C563 1.428 . S
H558 C554 0.930 . S
H559 C556 0.929 . S
S560 N561 1.613 . S
S560 N562 1.610 . S
N561 S560 1.613 . S
N561 C564 1.350 . S
N562 S560 1.610 . S
N562 C563 1.351 . S
C563 C557 1.428 . S
C563 N562 1.351 . S
C563 C564 1.434 . S
C564 C555 1.429 . S
C564 N561 1.350 . S
C564 C563 1.434 . S
C565 C566 1.369 . S
C565 C567 1.419 . S
C565 H569 0.930 1_556 S
C566 C565 1.369 . S
C566 C575 1.429 . S
C567 C565 1.419 . S
C567 C568 1.363 . S
C567 H570 0.929 . S
C568 C567 1.363 . S
C568 C574 1.428 . S
H569 C565 0.930 1_554 S
H570 C567 0.929 . S
S571 N572 1.613 . S
S571 N573 1.610 . S
N572 S571 1.613 . S
N572 C575 1.350 . S
N573 S571 1.610 . S
N573 C574 1.351 . S
C574 C568 1.428 . S
C574 N573 1.351 . S
C574 C575 1.434 . S
C575 C566 1.429 . S
C575 N572 1.350 . S
C575 C574 1.434 . S
C225 C7 1.181 . S
C227 C175 1.184 . S
C236 C22 1.339 . S
C238 C78 1.332 . S
C247 C35 1.181 . S
C249 C203 1.183 . S
C258 C106 1.335 . S
C260 C50 1.335 . S
C269 C204 1.328 . S
C271 C36 1.340 . S
C280 C105 1.183 . S
C282 C49 1.182 . S
C291 C176 1.334 . S
C293 C8 1.336 . S
C302 C77 1.182 . S
C304 C21 1.183 . S
C313 C63 1.183 . S
C315 C119 1.182 . S
C324 C91 1.182 . S
C326 C147 1.183 . S
C335 C148 1.338 . S
C337 C92 1.333 . S
C346 C64 1.335 . S
C348 C120 1.335 . S
C357 C190 1.329 . S
C359 C134 1.339 . S
C368 C162 1.333 . S
C370 C218 1.336 . S
C379 C161 1.181 . S
C381 C217 1.184 . S
C390 C133 1.183 . S
C392 C189 1.182 . S
C401 C165 1.509 . S
C403 C11 1.517 . S
C412 C125 1.430 . S
C414 C27 1.428 . S
C423 C39 1.511 . S
C425 C137 1.515 . S
C434 C153 1.424 . S
C436 C55 1.422 . S
C445 C167 1.427 . S
C447 C41 1.425 . S
C456 C53 1.516 . S
C458 C123 1.511 . S
C467 C139 1.428 . S
C469 C13 1.425 . S
C478 C151 1.516 . S
C480 C25 1.511 . S
C489 C67 1.509 . S
C491 C221 1.517 . S
C500 C181 1.421 . S
C502 C83 1.423 . S
C511 C95 1.517 . S
C513 C193 1.512 . S
C522 C111 1.420 . S
C524 C209 1.422 . S
C533 C97 1.430 . S
C535 C223 1.428 . S
C544 C179 1.509 . S
C546 C109 1.517 . S
C555 C195 1.428 . S
C557 C69 1.426 . S
C566 C207 1.509 . S
C568 C81 1.517 . S
