# Generated by pormake.
# Topology wjg, (4)-cn, num edge types: 1
# Building blocks:
#     Node 0, Type 0, BuildingBlock: CEKHIL_clean_sbu_0, # of connection points: 4
#     Node 1, Type 0, BuildingBlock: CEKHIL_clean_sbu_0, # of connection points: 4
#     Node 2, Type 0, BuildingBlock: CEKHIL_clean_sbu_0, # of connection points: 4
#     Node 3, Type 0, BuildingBlock: CEKHIL_clean_sbu_0, # of connection points: 4
#     Node 4, Type 0, BuildingBlock: CEKHIL_clean_sbu_0, # of connection points: 4
#     Node 5, Type 0, BuildingBlock: CEKHIL_clean_sbu_0, # of connection points: 4
#     Node 6, Type 0, BuildingBlock: CEKHIL_clean_sbu_0, # of connection points: 4
#     Node 7, Type 0, BuildingBlock: CEKHIL_clean_sbu_0, # of connection points: 4
#     Node 8, Type 0, BuildingBlock: CEKHIL_clean_sbu_0, # of connection points: 4
#     Node 9, Type 0, BuildingBlock: CEKHIL_clean_sbu_0, # of connection points: 4
#     Node 10, Type 0, BuildingBlock: CEKHIL_clean_sbu_0, # of connection points: 4
#     Node 11, Type 0, BuildingBlock: CEKHIL_clean_sbu_0, # of connection points: 4
#     Edge 12, Type (0, 0), BuildingBlock: XUDNAN_clean_linker_2, # of connection points: 2
#     Edge 13, Type (0, 0), BuildingBlock: XUDNAN_clean_linker_2, # of connection points: 2
#     Edge 14, Type (0, 0), BuildingBlock: XUDNAN_clean_linker_2, # of connection points: 2
#     Edge 15, Type (0, 0), BuildingBlock: XUDNAN_clean_linker_2, # of connection points: 2
#     Edge 16, Type (0, 0), BuildingBlock: XUDNAN_clean_linker_2, # of connection points: 2
#     Edge 17, Type (0, 0), BuildingBlock: XUDNAN_clean_linker_2, # of connection points: 2
#     Edge 18, Type (0, 0), BuildingBlock: XUDNAN_clean_linker_2, # of connection points: 2
#     Edge 19, Type (0, 0), BuildingBlock: XUDNAN_clean_linker_2, # of connection points: 2
#     Edge 20, Type (0, 0), BuildingBlock: XUDNAN_clean_linker_2, # of connection points: 2
#     Edge 21, Type (0, 0), BuildingBlock: XUDNAN_clean_linker_2, # of connection points: 2
#     Edge 22, Type (0, 0), BuildingBlock: XUDNAN_clean_linker_2, # of connection points: 2
#     Edge 23, Type (0, 0), BuildingBlock: XUDNAN_clean_linker_2, # of connection points: 2
#     Edge 24, Type (0, 0), BuildingBlock: XUDNAN_clean_linker_2, # of connection points: 2
#     Edge 25, Type (0, 0), BuildingBlock: XUDNAN_clean_linker_2, # of connection points: 2
#     Edge 26, Type (0, 0), BuildingBlock: XUDNAN_clean_linker_2, # of connection points: 2
#     Edge 27, Type (0, 0), BuildingBlock: XUDNAN_clean_linker_2, # of connection points: 2
#     Edge 28, Type (0, 0), BuildingBlock: XUDNAN_clean_linker_2, # of connection points: 2
#     Edge 29, Type (0, 0), BuildingBlock: XUDNAN_clean_linker_2, # of connection points: 2
#     Edge 30, Type (0, 0), BuildingBlock: XUDNAN_clean_linker_2, # of connection points: 2
#     Edge 31, Type (0, 0), BuildingBlock: XUDNAN_clean_linker_2, # of connection points: 2
#     Edge 32, Type (0, 0), BuildingBlock: XUDNAN_clean_linker_2, # of connection points: 2
#     Edge 33, Type (0, 0), BuildingBlock: XUDNAN_clean_linker_2, # of connection points: 2
#     Edge 34, Type (0, 0), BuildingBlock: XUDNAN_clean_linker_2, # of connection points: 2
#     Edge 35, Type (0, 0), BuildingBlock: XUDNAN_clean_linker_2, # of connection points: 2
# Relax obj value: 0.333
# Max RMSD: 0.121
# Mean RMSD: 0.111
data_MOF--net-wjg--node1-CEKHIL_clean_sbu_0--edge1-XUDNAN_clean_linker_2
_symmetry_space_group_name_H-M    P1
_symmetry_Int_Tables_number       1
_symmetry_cell_setting            triclinic
loop_
_symmetry_equiv_pos_as_xyz
'x, y, z'
_cell_length_a     30.725382
_cell_length_b     30.596953
_cell_length_c     40.172794
_cell_angle_alpha  90.014262
_cell_angle_beta   90.023317
_cell_angle_gamma 120.16451
loop_
_atom_site_label
_atom_site_type_symbol
_atom_site_fract_x
_atom_site_fract_y
_atom_site_fract_z
_atom_type_partial_charge
Co0 Co 0.12887 0.40514 0.32284 0.0
O1 O 0.11953 0.39668 0.27571 0.0
O2 O 0.05934 0.35337 0.31244 0.0
C3 C 0.17079 0.49008 0.31943 0.0
O4 O 0.12897 0.40578 0.37424 0.0
Co5 Co 0.23974 0.46363 0.3492 0.0
O6 O 0.20658 0.46542 0.39093 0.0
C7 C 0.18772 0.3526 0.33661 0.0
C8 C 0.0735 0.36254 0.28136 0.0
C9 C 0.1611 0.43222 0.39727 0.0
O10 O 0.14836 0.35172 0.32503 0.0
O11 O 0.22744 0.39291 0.34608 0.0
O12 O 0.12197 0.46569 0.32092 0.0
O13 O 0.19166 0.46272 0.31841 0.0
Co14 Co 0.77343 0.13328 0.64286 0.0
O15 O 0.76336 0.11916 0.59614 0.0
O16 O 0.71731 0.0648 0.63522 0.0
C17 C 0.78055 0.21006 0.63994 0.0
O18 O 0.77581 0.13879 0.69414 0.0
Co19 Co 0.87754 0.22596 0.66287 0.0
O20 O 0.84537 0.21286 0.70746 0.0
C21 C 0.86994 0.12987 0.64321 0.0
C22 C 0.7264 0.07492 0.60355 0.0
C23 C 0.80493 0.17267 0.71567 0.0
O24 O 0.82177 0.10715 0.64512 0.0
O25 O 0.89787 0.17808 0.64397 0.0
O26 O 0.73625 0.16981 0.64084 0.0
O27 O 0.81752 0.20189 0.63684 0.0
Co28 Co 0.5933 0.76958 0.96577 0.0
O29 O 0.59199 0.74601 0.92157 0.0
O30 O 0.60102 0.71006 0.96675 0.0
C31 C 0.5266 0.78038 0.96107 0.0
O32 O 0.59546 0.7868 0.01551 0.0
Co33 Co 0.61555 0.88103 0.97042 0.0
O34 O 0.59564 0.86093 0.0175 0.0
C35 C 0.69863 0.86126 0.95981 0.0
C36 C 0.59807 0.71069 0.93434 0.0
C37 C 0.59332 0.82242 0.03156 0.0
O38 O 0.66842 0.81386 0.96414 0.0
O39 O 0.68377 0.89341 0.95693 0.0
O40 O 0.52009 0.73571 0.96677 0.0
O41 O 0.57189 0.81434 0.95321 0.0
Co42 Co 0.84783 0.58454 0.32942 0.0
O43 O 0.85321 0.58376 0.28213 0.0
O44 O 0.91867 0.624 0.31559 0.0
C45 C 0.79419 0.50073 0.33125 0.0
O46 O 0.85242 0.59055 0.3807 0.0
Co47 Co 0.74151 0.54675 0.36047 0.0
O48 O 0.77435 0.53705 0.39976 0.0
C49 C 0.80368 0.65277 0.33638 0.0
C50 C 0.90139 0.61019 0.28539 0.0
C51 C 0.82128 0.56614 0.40464 0.0
O52 O 0.83985 0.64588 0.3271 0.0
O53 O 0.76216 0.61819 0.34883 0.0
O54 O 0.84234 0.51784 0.33139 0.0
O55 O 0.78073 0.53421 0.32887 0.0
Co56 Co 0.23075 0.8554 0.65659 0.0
O57 O 0.22998 0.86984 0.61036 0.0
O58 O 0.27765 0.92695 0.64774 0.0
C59 C 0.23877 0.78722 0.64809 0.0
O60 O 0.23862 0.84932 0.70715 0.0
Co61 Co 0.14008 0.75201 0.67989 0.0
O62 O 0.18063 0.76892 0.72123 0.0
C63 C 0.1267 0.83983 0.66831 0.0
C64 C 0.26416 0.91583 0.61664 0.0
C65 C 0.21774 0.8124 0.72832 0.0
O66 O 0.17435 0.86908 0.66537 0.0
O67 O 0.10538 0.79166 0.67074 0.0
O68 O 0.27795 0.83214 0.64785 0.0
O69 O 0.19594 0.78541 0.64983 0.0
Co70 Co 0.40468 0.24086 0.97612 0.0
O71 O 0.40091 0.26463 0.93319 0.0
O72 O 0.37487 0.28441 0.97914 0.0
C73 C 0.4842 0.25737 0.97096 0.0
O74 O 0.4054 0.21881 0.02468 0.0
Co75 Co 0.41435 0.14446 0.97023 0.0
O76 O 0.42536 0.15733 0.01882 0.0
C77 C 0.31693 0.1365 0.95838 0.0
C78 C 0.37995 0.28751 0.94678 0.0
C79 C 0.41697 0.18665 0.03696 0.0
O80 O 0.33555 0.18144 0.96977 0.0
O81 O 0.34355 0.11576 0.95298 0.0
O82 O 0.47527 0.2928 0.98002 0.0
O83 O 0.44522 0.21584 0.96138 0.0
Co84 Co 0.55692 0.85292 0.34266 0.0
O85 O 0.5532 0.84292 0.38984 0.0
O86 O 0.59887 0.91728 0.366 0.0
C87 C 0.47311 0.80486 0.33528 0.0
O88 O 0.56793 0.87384 0.29309 0.0
Co89 Co 0.51857 0.7588 0.29611 0.0
O90 O 0.51012 0.80497 0.26585 0.0
C91 C 0.62342 0.81091 0.32171 0.0
C92 C 0.58327 0.89088 0.39341 0.0
C93 C 0.54373 0.85146 0.26615 0.0
O94 O 0.61569 0.84126 0.33954 0.0
O95 O 0.58992 0.77579 0.30346 0.0
O96 O 0.4925 0.85195 0.34377 0.0
O97 O 0.50404 0.78806 0.33384 0.0
Co98 Co 0.76141 0.57858 0.71625 0.0
O99 O 0.74398 0.56887 0.76231 0.0
O100 O 0.70315 0.58685 0.72439 0.0
C101 C 0.77139 0.51099 0.71096 0.0
O102 O 0.77165 0.58933 0.66565 0.0
Co103 Co 0.87063 0.60086 0.70049 0.0
O104 O 0.84432 0.59009 0.65424 0.0
C105 C 0.8549 0.68041 0.72864 0.0
C106 C 0.70779 0.57727 0.75546 0.0
C107 C 0.80444 0.5899 0.64511 0.0
O108 O 0.8074 0.65328 0.72343 0.0
O109 O 0.88559 0.66399 0.72505 0.0
O110 O 0.7266 0.50527 0.70926 0.0
O111 O 0.80642 0.55524 0.7199 0.0
Co112 Co 0.16092 0.7828 0.0424 0.0
O113 O 0.14411 0.77822 0.08863 0.0
O114 O 0.09498 0.72355 0.05044 0.0
C115 C 0.23985 0.79765 0.04872 0.0
O116 O 0.1702 0.77868 0.99184 0.0
Co117 Co 0.24667 0.88966 0.02017 0.0
O118 O 0.23744 0.85407 0.9771 0.0
C119 C 0.14733 0.87305 0.03627 0.0
C120 C 0.10239 0.73753 0.08162 0.0
C121 C 0.2026 0.80919 0.97023 0.0
O122 O 0.12914 0.82525 0.03356 0.0
O123 O 0.19458 0.90404 0.03906 0.0
O124 O 0.20206 0.75176 0.05048 0.0
O125 O 0.22784 0.83239 0.04853 0.0
Co126 Co 0.403 0.1242 0.35359 0.0
O127 O 0.41072 0.12238 0.40047 0.0
O128 O 0.36688 0.05393 0.36988 0.0
C129 C 0.48482 0.17935 0.34421 0.0
O130 O 0.39158 0.11843 0.30279 0.0
Co131 Co 0.42853 0.23218 0.32931 0.0
O132 O 0.41505 0.198 0.28551 0.0
C133 C 0.33551 0.16772 0.36543 0.0
C134 C 0.38396 0.0739 0.39916 0.0
C135 C 0.39891 0.15127 0.27975 0.0
O136 O 0.34068 0.12924 0.3601 0.0
O137 O 0.37016 0.21322 0.35969 0.0
O138 O 0.46984 0.13156 0.34678 0.0
O139 O 0.45131 0.1914 0.35097 0.0
Co140 Co 0.23405 0.40233 0.70657 0.0
O141 O 0.25197 0.41233 0.75251 0.0
O142 O 0.28021 0.37742 0.71668 0.0
C143 C 0.24589 0.47972 0.69768 0.0
O144 O 0.22121 0.38949 0.65613 0.0
Co145 Co 0.13657 0.40606 0.69057 0.0
O146 O 0.16308 0.41231 0.64469 0.0
C147 C 0.12801 0.31326 0.71807 0.0
C148 C 0.27977 0.39264 0.747 0.0
C149 C 0.19485 0.39948 0.6355 0.0
O150 O 0.17581 0.33307 0.71576 0.0
O151 O 0.10482 0.33732 0.71188 0.0
O152 O 0.28378 0.47212 0.69712 0.0
O153 O 0.20401 0.4422 0.70826 0.0
Co154 Co 0.85223 0.23241 0.02749 0.0
O155 O 0.8709 0.25681 0.07199 0.0
O156 O 0.92554 0.26865 0.03221 0.0
C157 C 0.79381 0.25513 0.02114 0.0
O158 O 0.84125 0.21062 0.97806 0.0
Co159 Co 0.74165 0.14236 0.02287 0.0
O160 O 0.75863 0.1509 0.97468 0.0
C161 C 0.82017 0.12361 0.04703 0.0
C162 C 0.91715 0.27439 0.06335 0.0
C163 C 0.80177 0.17861 0.96135 0.0
O164 O 0.85264 0.16899 0.03898 0.0
O165 O 0.77267 0.10645 0.04624 0.0
O166 O 0.84108 0.28827 0.01668 0.0
O167 O 0.78507 0.2127 0.03369 0.0
H168 H 0.25538 0.54045 0.28436 0.0
H169 H 0.15719 0.56293 0.35052 0.0
H170 H 0.22059 0.65469 0.35356 0.0
H171 H 0.36134 0.61048 0.326 0.0
H172 H 0.40236 0.6356 0.29043 0.0
H173 H 0.34492 0.57625 0.28718 0.0
H174 H 0.31696 0.61015 0.23724 0.0
H175 H 0.37478 0.66995 0.24027 0.0
H176 H 0.31511 0.66784 0.24166 0.0
H177 H 0.30241 0.7404 0.35708 0.0
H178 H 0.39207 0.80805 0.36159 0.0
H179 H 0.43347 0.7249 0.29387 0.0
C180 C 0.24655 0.56504 0.29866 0.0
C181 C 0.20187 0.54524 0.3172 0.0
C182 C 0.1913 0.57797 0.33586 0.0
C183 C 0.22702 0.62996 0.33764 0.0
C184 C 0.27213 0.6481 0.32001 0.0
C185 C 0.28135 0.61637 0.30046 0.0
C186 C 0.33451 0.64231 0.28745 0.0
C187 C 0.36238 0.61453 0.29846 0.0
C188 C 0.33536 0.6479 0.24939 0.0
C189 C 0.35514 0.69276 0.30441 0.0
C190 C 0.31865 0.6964 0.32235 0.0
C191 C 0.33089 0.7383 0.34248 0.0
C192 C 0.38178 0.77651 0.3449 0.0
C193 C 0.41939 0.77153 0.32793 0.0
C194 C 0.40548 0.72996 0.30681 0.0
H195 H 0.70924 0.23696 0.65168 0.0
H196 H 0.87058 0.29769 0.64419 0.0
H197 H 0.8854 0.38172 0.66045 0.0
H198 H 0.70996 0.34963 0.61955 0.0
H199 H 0.66095 0.34254 0.6475 0.0
H200 H 0.6629 0.2876 0.63351 0.0
H201 H 0.66375 0.26179 0.69489 0.0
H202 H 0.66228 0.31686 0.70904 0.0
H203 H 0.7119 0.30593 0.7227 0.0
H204 H 0.88321 0.45692 0.68137 0.0
H205 H 0.86397 0.52108 0.70212 0.0
H206 H 0.70402 0.41288 0.69429 0.0
C207 C 0.74763 0.26811 0.65306 0.0
C208 C 0.78878 0.26088 0.64683 0.0
C209 C 0.8385 0.30241 0.64897 0.0
C210 C 0.84733 0.35027 0.65817 0.0
C211 C 0.80602 0.35596 0.66478 0.0
C212 C 0.75714 0.31627 0.66199 0.0
C213 C 0.71957 0.33252 0.67115 0.0
C214 C 0.6864 0.3278 0.64113 0.0
C215 C 0.6875 0.30249 0.70123 0.0
C216 C 0.75508 0.38729 0.68007 0.0
C217 C 0.80474 0.39994 0.67623 0.0
C218 C 0.84448 0.44774 0.68411 0.0
C219 C 0.83315 0.48385 0.69597 0.0
C220 C 0.78252 0.47197 0.69958 0.0
C221 C 0.74306 0.42305 0.69154 0.0
H222 H 0.43524 0.71779 0.98893 0.0
H223 H 0.53287 0.87281 0.95706 0.0
H224 H 0.47247 0.89604 0.97994 0.0
H225 H 0.31821 0.71096 0.97031 0.0
H226 H 0.28674 0.67249 0.00613 0.0
H227 H 0.33806 0.66917 0.98721 0.0
H228 H 0.384 0.69041 0.04428 0.0
H229 H 0.3332 0.6948 0.06323 0.0
H230 H 0.39671 0.74733 0.0658 0.0
H231 H 0.40133 0.90191 0.00688 0.0
H232 H 0.32152 0.88841 0.03096 0.0
H233 H 0.27169 0.72939 0.0447 0.0
C234 C 0.44378 0.75655 0.98644 0.0
C235 C 0.48861 0.79354 0.97122 0.0
C236 C 0.49858 0.84389 0.96862 0.0
C237 C 0.46471 0.85748 0.9817 0.0
C238 C 0.42132 0.82021 0.99727 0.0
C239 C 0.41063 0.77072 0.9994 0.0
C240 C 0.3612 0.73758 0.01684 0.0
C241 C 0.32386 0.69506 0.99374 0.0
C242 C 0.36929 0.71629 0.04947 0.0
C243 C 0.34508 0.77592 0.02358 0.0
C244 C 0.38051 0.82353 0.01256 0.0
C245 C 0.37331 0.86481 0.0156 0.0
C246 C 0.32795 0.85679 0.02938 0.0
C247 C 0.29041 0.8078 0.03949 0.0
C248 C 0.29975 0.76728 0.03724 0.0
H249 H 0.51623 0.27431 0.32366 0.0
H250 H 0.57012 0.17181 0.34846 0.0
H251 H 0.65826 0.24262 0.34376 0.0
H252 H 0.61819 0.35505 0.26517 0.0
H253 H 0.61783 0.4108 0.27928 0.0
H254 H 0.56053 0.35039 0.27978 0.0
H255 H 0.54996 0.36216 0.34266 0.0
H256 H 0.6075 0.42204 0.34254 0.0
H257 H 0.59987 0.37331 0.37116 0.0
H258 H 0.74044 0.32845 0.34264 0.0
H259 H 0.80743 0.41906 0.34272 0.0
H260 H 0.69516 0.46096 0.31992 0.0
C261 C 0.54649 0.26639 0.3274 0.0
C262 C 0.53675 0.21797 0.33645 0.0
C263 C 0.57719 0.20892 0.34123 0.0
C264 C 0.62719 0.24882 0.33869 0.0
C265 C 0.63549 0.29688 0.33094 0.0
C266 C 0.59601 0.30538 0.32492 0.0
C267 C 0.61379 0.36047 0.31943 0.0
C268 C 0.60189 0.36971 0.28379 0.0
C269 C 0.59146 0.38064 0.34551 0.0
C270 C 0.66941 0.38218 0.32447 0.0
C271 C 0.68174 0.34529 0.33067 0.0
C272 C 0.73121 0.35755 0.3374 0.0
C273 C 0.76887 0.4089 0.33758 0.0
C274 C 0.75624 0.44675 0.33152 0.0
C275 C 0.70599 0.4329 0.32479 0.0
H276 H 0.17082 0.69121 0.66925 0.0
H277 H 0.31993 0.78289 0.62691 0.0
H278 H 0.33416 0.71076 0.63053 0.0
H279 H 0.20572 0.63168 0.72853 0.0
H280 H 0.14929 0.57066 0.72594 0.0
H281 H 0.1472 0.62686 0.71578 0.0
H282 H 0.11041 0.58998 0.65763 0.0
H283 H 0.11205 0.5334 0.66771 0.0
H284 H 0.14337 0.56894 0.63087 0.0
H285 H 0.33622 0.63365 0.64335 0.0
H286 H 0.32609 0.55391 0.66491 0.0
H287 H 0.17605 0.5107 0.7 0.0
C288 C 0.20588 0.69554 0.66003 0.0
C289 C 0.24422 0.74229 0.64764 0.0
C290 C 0.29013 0.74721 0.63648 0.0
C291 C 0.29848 0.70647 0.63827 0.0
C292 C 0.26052 0.66118 0.65131 0.0
C293 C 0.21506 0.65521 0.66195 0.0
C294 C 0.18254 0.60368 0.67758 0.0
C295 C 0.17051 0.60854 0.71412 0.0
C296 C 0.13422 0.57214 0.65722 0.0
C297 C 0.21754 0.58243 0.67489 0.0
C298 C 0.26199 0.61613 0.65925 0.0
C299 C 0.30138 0.60658 0.65528 0.0
C300 C 0.29534 0.56132 0.66779 0.0
C301 C 0.25032 0.52633 0.68413 0.0
C302 C 0.21071 0.53676 0.68742 0.0
H303 H 0.69318 0.1863 0.01571 0.0
H304 H 0.80362 0.34528 1.003 0.0
H305 H 0.73625 0.36182 0.98547 0.0
H306 H 0.61596 0.1767 0.94438 0.0
H307 H 0.5576 0.13392 0.96488 0.0
H308 H 0.61456 0.13414 0.97594 0.0
H309 H 0.60211 0.14986 0.03775 0.0
H310 H 0.54506 0.14944 0.02686 0.0
H311 H 0.59473 0.20305 0.04834 0.0
H312 H 0.65748 0.36226 0.97318 0.0
H313 H 0.57111 0.34627 0.96507 0.0
H314 H 0.5118 0.18614 0.98211 0.0
C315 C 0.70313 0.22454 0.00918 0.0
C316 C 0.75345 0.26462 0.01077 0.0
C317 C 0.76521 0.31411 1.0019 0.0
C318 C 0.72729 0.32384 0.99188 0.0
C319 C 0.67806 0.28352 0.99052 0.0
C320 C 0.66582 0.23481 0.99873 0.0
C321 C 0.60978 0.19846 0.99543 0.0
C322 C 0.59885 0.15844 0.96855 0.0
C323 C 0.58657 0.17377 0.0291 0.0
C324 C 0.59239 0.23458 0.9846 0.0
C325 C 0.63248 0.28345 0.98203 0.0
C326 C 0.62582 0.3241 0.97461 0.0
C327 C 0.57674 0.31467 0.97012 0.0
C328 C 0.5352 0.26498 0.97268 0.0
C329 C 0.54311 0.22431 0.97943 0.0
H330 H 0.22587 0.3317 0.39013 0.0
H331 H 0.14422 0.26557 0.29883 0.0
H332 H 0.15066 0.18908 0.30919 0.0
H333 H 0.31474 0.30631 0.38065 0.0
H334 H 0.32082 0.292 0.42339 0.0
H335 H 0.2949 0.33138 0.41429 0.0
H336 H 0.21474 0.2707 0.44777 0.0
H337 H 0.24061 0.23044 0.45647 0.0
H338 H 0.17965 0.20456 0.43711 0.0
H339 H 0.18536 0.13325 0.32116 0.0
H340 H 0.25158 0.11122 0.32879 0.0
H341 H 0.31022 0.21266 0.41279 0.0
C342 C 0.20832 0.30045 0.37276 0.0
C343 C 0.18548 0.30441 0.34346 0.0
C344 C 0.16215 0.26299 0.32138 0.0
C345 C 0.16513 0.2193 0.32734 0.0
C346 C 0.19009 0.21738 0.35597 0.0
C347 C 0.2107 0.25689 0.37856 0.0
C348 C 0.24335 0.25061 0.40397 0.0
C349 C 0.29655 0.2978 0.40557 0.0
C350 C 0.21805 0.23833 0.43836 0.0
C351 C 0.24368 0.20518 0.38954 0.0
C352 C 0.21029 0.18453 0.3631 0.0
C353 C 0.21029 0.14786 0.34242 0.0
C354 C 0.24787 0.13524 0.34704 0.0
C355 C 0.28531 0.16029 0.37156 0.0
C356 C 0.28089 0.19243 0.39452 0.0
H357 H 0.94723 0.12994 0.61105 0.0
H358 H 0.85249 0.07232 0.69756 0.0
H359 H 0.9251 0.08959 0.73166 0.0
H360 H 0.05889 0.10349 0.65472 0.0
H361 H 0.10437 0.15812 0.63183 0.0
H362 H 0.04638 0.11222 0.61215 0.0
H363 H 0.02872 0.18365 0.59691 0.0
H364 H 0.0855 0.22883 0.61662 0.0
H365 H 0.02672 0.22343 0.62948 0.0
H366 H -0.00269 0.16063 0.75616 0.0
H367 H 0.06329 0.24928 0.76581 0.0
H368 H 0.1226 0.25574 0.66756 0.0
C369 C 0.94179 0.11646 0.63645 0.0
C370 C 0.89556 0.10194 0.65212 0.0
C371 C 0.88807 0.08417 0.6852 0.0
C372 C 0.9296 0.09442 0.70495 0.0
C373 C 0.97736 0.11933 0.69048 0.0
C374 C 0.98342 0.12598 0.65617 0.0
C375 C 0.0382 0.16196 0.64755 0.0
C376 C 0.06344 0.13216 0.63591 0.0
C377 C 0.04502 0.20184 0.62121 0.0
C378 C 0.0579 0.18492 0.68152 0.0
C379 C 0.02317 0.15818 0.70635 0.0
C380 C 0.02627 0.18008 0.7376 0.0
C381 C 0.06353 0.23064 0.74294 0.0
C382 C 0.09817 0.258 0.71757 0.0
C383 C 0.09725 0.23401 0.68754 0.0
H384 H 0.86886 0.11317 0.99665 0.0
H385 H 0.80381 0.04876 0.09194 0.0
H386 H 0.8093 0.97307 0.07853 0.0
H387 H 0.79053 0.02804 0.95649 0.0
H388 H 0.82554 0.02287 0.92209 0.0
H389 H 0.85073 0.08072 0.94438 0.0
H390 H 0.93157 0.07769 0.95659 0.0
H391 H 0.90611 0.0189 0.93399 0.0
H392 H 0.92787 0.02294 0.97616 0.0
H393 H 0.79315 0.89721 0.05033 0.0
H394 H 0.72973 0.83307 0.01398 0.0
H395 H 0.78304 0.93808 0.93192 0.0
C396 C 0.85898 0.08414 0.01532 0.0
C397 C 0.83724 0.08673 0.0455 0.0
C398 C 0.82176 0.04766 0.06901 0.0
C399 C 0.82526 0.00474 0.0615 0.0
C400 C 0.84195 0.0005 0.02978 0.0
C401 C 0.85817 0.03953 0.00679 0.0
C402 C 0.8554 0.02048 0.97156 0.0
C403 C 0.82883 0.03902 0.94734 0.0
C404 C 0.90838 0.03589 0.95885 0.0
C405 C 0.82546 0.96403 0.97774 0.0
C406 C 0.82468 0.95361 0.0115 0.0
C407 C 0.79395 0.90501 0.024 0.0
C408 C 0.75791 0.86839 1.00293 0.0
C409 C 0.75111 0.88185 0.97052 0.0
C410 C 0.78841 0.92776 0.9567 0.0
H411 H 0.67263 0.80064 0.37418 0.0
H412 H 0.68318 0.8286 0.26826 0.0
H413 H 0.75658 0.81649 0.26502 0.0
H414 H 0.816 0.84524 0.38931 0.0
H415 H 0.79763 0.79385 0.41821 0.0
H416 H 0.76137 0.82526 0.41526 0.0
H417 H 0.68084 0.73908 0.40427 0.0
H418 H 0.71658 0.70779 0.40717 0.0
H419 H 0.68014 0.70029 0.3702 0.0
H420 H 0.80928 0.77797 0.26948 0.0
H421 H 0.82995 0.71092 0.28033 0.0
H422 H 0.78368 0.70312 0.38281 0.0
C423 C 0.69256 0.80699 0.35084 0.0
C424 C 0.6735 0.81634 0.32162 0.0
C425 C 0.69822 0.82213 0.29095 0.0
C426 C 0.74012 0.81571 0.28898 0.0
C427 C 0.75652 0.80319 0.31791 0.0
C428 C 0.73367 0.79927 0.34845 0.0
C429 C 0.74985 0.7739 0.37396 0.0
C430 C 0.78321 0.81184 0.40076 0.0
C431 C 0.70415 0.72753 0.38974 0.0
C432 C 0.78034 0.75893 0.3521 0.0
C433 C 0.78625 0.77863 0.32033 0.0
C434 C 0.80643 0.76367 0.2945 0.0
C435 C 0.81814 0.72563 0.30078 0.0
C436 C 0.80842 0.70256 0.33238 0.0
C437 C 0.79203 0.72123 0.35864 0.0
H438 H 0.05065 0.83466 0.63186 0.0
H439 H 0.13097 0.88943 0.72437 0.0
H440 H 0.05708 0.88639 0.74985 0.0
H441 H 0.95185 0.88932 0.65627 0.0
H442 H 0.90432 0.83663 0.63289 0.0
H443 H 0.96791 0.87183 0.61731 0.0
H444 H 0.97057 0.78918 0.61256 0.0
H445 H 0.90784 0.75484 0.62756 0.0
H446 H 0.95663 0.7492 0.64877 0.0
H447 H 0.97519 0.83096 0.77075 0.0
H448 H 0.90277 0.74614 0.77982 0.0
H449 H 0.86381 0.73542 0.67603 0.0
C450 C 0.0532 0.84988 0.65656 0.0
C451 C 0.09554 0.86212 0.67629 0.0
C452 C 0.09872 0.88062 0.70883 0.0
C453 C 0.05668 0.879 0.72348 0.0
C454 C 0.01241 0.86016 0.70485 0.0
C455 C 0.01141 0.84937 0.67113 0.0
C456 C 0.95771 0.82065 0.65845 0.0
C457 C 0.9447 0.85677 0.64018 0.0
C458 C 0.94773 0.77576 0.63565 0.0
C459 C 0.92978 0.80427 0.69134 0.0
C460 C 0.96145 0.8305 0.71782 0.0
C461 C 0.94928 0.81205 0.75044 0.0
C462 C 0.90783 0.76368 0.75562 0.0
C463 C 0.87787 0.73544 0.72854 0.0
C464 C 0.88579 0.75803 0.69698 0.0
H465 H 0.25965 0.05138 0.92196 0.0
H466 H 0.25009 0.14966 0.9952 0.0
H467 H 0.16602 0.08265 0.011 0.0
H468 H 0.10516 0.96391 0.91139 0.0
H469 H 0.1134 0.91013 0.90559 0.0
H470 H 0.15776 0.9704 0.88756 0.0
H471 H 0.23072 0.96722 0.9166 0.0
H472 H 0.18839 0.90819 0.93505 0.0
H473 H 0.22977 0.96028 0.96132 0.0
H474 H 0.11938 0.00398 0.03904 0.0
H475 H 0.11278 0.92971 0.06707 0.0
H476 H 0.12654 0.87066 0.9729 0.0
C477 C 0.23812 0.05918 0.93986 0.0
C478 C 0.26154 0.1047 0.95793 0.0
C479 C 0.23306 0.11471 0.98114 0.0
C480 C 0.1848 0.07671 0.99019 0.0
C481 C 0.16484 0.02943 0.97505 0.0
C482 C 0.18933 0.02138 0.94877 0.0
C483 C 0.16574 0.96553 0.94134 0.0
C484 C 0.1336 0.9517 0.90959 0.0
C485 C 0.20604 0.94949 0.93852 0.0
C486 C 0.13238 0.94353 0.97175 0.0
C487 C 0.1306 0.98098 0.99029 0.0
C488 C 0.11781 0.97376 0.02414 0.0
C489 C 0.11348 0.93104 0.04012 0.0
C490 C 0.11893 0.89494 0.02175 0.0
C491 C 0.12106 0.89785 0.98683 0.0
H492 H 0.93623 0.3454 0.11044 0.0
H493 H 0.97789 0.2363 0.0783 0.0
H494 H 0.01704 0.2422 0.13333 0.0
H495 H 0.05283 0.4234 0.16154 0.0
H496 H 0.0181 0.4372 0.19181 0.0
H497 H -0.00134 0.42741 0.14885 0.0
H498 H 0.90976 0.35787 0.16743 0.0
H499 H 0.92949 0.36582 0.21027 0.0
H500 H 0.90276 0.3045 0.19092 0.0
H501 H 0.04203 0.25252 0.19431 0.0
H502 H 0.06906 0.28106 0.25222 0.0
H503 H 0.01419 0.38611 0.24383 0.0
C504 C 0.95568 0.32456 0.11455 0.0
C505 C 0.95521 0.29128 0.08997 0.0
C506 C 0.97941 0.26323 0.09645 0.0
C507 C 0.00087 0.2657 0.12784 0.0
C508 C -0.00158 0.29703 0.15218 0.0
C509 C 0.9781 0.3274 0.14546 0.0
C510 C 0.98035 0.35801 0.17581 0.0
C511 C 0.01453 0.41487 0.16911 0.0
C512 C 0.92743 0.34578 0.18673 0.0
C513 C 0.0037 0.33902 0.20103 0.0
C514 C 0.01335 0.30345 0.18699 0.0
C515 C 0.03478 0.28044 0.20545 0.0
C516 C 0.04917 0.29616 0.23849 0.0
C517 C 0.04199 0.33435 0.25275 0.0
C518 C 0.01821 0.35539 0.23392 0.0
H519 H 0.73986 0.09209 0.53664 0.0
H520 H 0.6467 0.9772 0.60877 0.0
H521 H 0.59914 0.91888 0.56248 0.0
H522 H 0.64186 0.06449 0.47671 0.0
H523 H 0.68229 0.07651 0.44126 0.0
H524 H 0.70835 0.10908 0.47994 0.0
H525 H 0.77147 0.07642 0.48036 0.0
H526 H 0.74569 0.04378 0.44168 0.0
H527 H 0.74817 0.00945 0.4774 0.0
H528 H 0.56332 0.8732 0.50847 0.0
H529 H 0.54086 0.84217 0.45113 0.0
H530 H 0.65719 0.98741 0.41342 0.0
C531 C 0.70939 0.05468 0.54285 0.0
C532 C 0.69697 0.03913 0.57645 0.0
C533 C 0.65686 0.98989 0.58331 0.0
C534 C 0.62968 0.95662 0.55716 0.0
C535 C 0.64307 0.97329 0.52437 0.0
C536 C 0.68196 0.02119 0.51715 0.0
C537 C 0.68918 0.02976 0.47981 0.0
C538 C 0.67985 0.07249 0.46879 0.0
C539 C 0.74175 0.04047 0.4692 0.0
C540 C 0.64835 0.97894 0.46695 0.0
C541 C 0.62226 0.94706 0.49317 0.0
C542 C 0.58342 0.89789 0.48783 0.0
C543 C 0.57105 0.88065 0.45501 0.0
C544 C 0.59724 0.91232 0.42757 0.0
C545 C 0.63628 0.96236 0.43374 0.0
H546 H 0.59756 0.71127 0.8667 0.0
H547 H 0.61313 0.63172 0.95115 0.0
H548 H 0.62979 0.57875 0.91234 0.0
H549 H 0.54077 0.60278 0.80778 0.0
H550 H 0.57528 0.64245 0.77309 0.0
H551 H 0.55675 0.66809 0.80706 0.0
H552 H 0.64963 0.73861 0.81529 0.0
H553 H 0.66838 0.71333 0.78142 0.0
H554 H 0.69715 0.72138 0.82178 0.0
H555 H 0.65414 0.54201 0.86502 0.0
H556 H 0.68924 0.52738 0.81397 0.0
H557 H 0.65922 0.63228 0.76016 0.0
C558 C 0.60335 0.68197 0.87716 0.0
C559 C 0.60373 0.67536 0.91202 0.0
C560 C 0.61232 0.63717 0.92457 0.0
C561 C 0.62158 0.60684 0.90268 0.0
C562 C 0.62178 0.6151 0.86843 0.0
C563 C 0.61283 0.65176 0.85578 0.0
C564 C 0.62017 0.65684 0.81835 0.0
C565 C 0.57026 0.64162 0.80052 0.0
C566 C 0.66128 0.71071 0.80867 0.0
C567 C 0.63687 0.61876 0.81191 0.0
C568 C 0.63643 0.59433 0.84106 0.0
C569 C 0.65388 0.56032 0.84203 0.0
C570 C 0.67382 0.55235 0.81286 0.0
C571 C 0.6766 0.57849 0.78305 0.0
C572 C 0.65643 0.61093 0.78234 0.0
H573 H 0.10065 0.77159 0.14403 0.0
H574 H 0.02419 0.63908 0.08076 0.0
H575 H 0.96929 0.59082 0.12813 0.0
H576 H 0.09881 0.70818 0.21977 0.0
H577 H 0.08695 0.74879 0.2461 0.0
H578 H 0.12077 0.77267 0.20758 0.0
H579 H 0.05638 0.79851 0.18826 0.0
H580 H 0.02278 0.77538 0.22689 0.0
H581 H 0.99026 0.75189 0.18786 0.0
H582 H 0.9232 0.55771 0.18187 0.0
H583 H 0.88266 0.54297 0.23676 0.0
H584 H 0.98862 0.69736 0.26575 0.0
C585 C 0.07236 0.73236 0.14008 0.0
C586 C 0.06673 0.70887 0.10872 0.0
C587 C 0.02897 0.65775 0.1045 0.0
C588 C -0.00205 0.63006 0.13132 0.0
C589 C 0.00511 0.65425 0.16203 0.0
C590 C 0.04095 0.70441 0.16644 0.0
C591 C 0.03955 0.72209 0.20156 0.0
C592 C 0.08949 0.73892 0.21982 0.0
C593 C 0.02645 0.76447 0.20111 0.0
C594 C -0.00281 0.6739 0.21641 0.0
C595 C 0.97821 0.63524 0.19312 0.0
C596 C 0.93783 0.58762 0.20026 0.0
C597 C 0.91516 0.57966 0.23155 0.0
C598 C 0.93279 0.61894 0.25553 0.0
C599 C 0.97511 0.66643 0.24815 0.0
H600 H 0.29522 0.99491 0.42477 0.0
H601 H 0.45399 0.09338 0.44554 0.0
H602 H 0.44016 0.06669 0.5042 0.0
H603 H 0.24994 0.01715 0.49871 0.0
H604 H 0.19945 0.95327 0.50523 0.0
H605 H 0.22154 0.97539 0.46369 0.0
H606 H 0.23934 0.90205 0.45419 0.0
H607 H 0.2158 0.87879 0.49533 0.0
H608 H 0.27793 0.89219 0.48359 0.0
H609 H 0.40816 0.0376 0.56199 0.0
H610 H 0.3618 0.99408 0.61329 0.0
H611 H 0.22449 0.91266 0.55554 0.0
C612 C 0.32721 0.00909 0.44142 0.0
C613 C 0.37578 0.04576 0.43058 0.0
C614 C 0.41655 0.06486 0.45335 0.0
C615 C 0.40906 0.0503 0.4868 0.0
C616 C 0.36047 0.01622 0.49726 0.0
C617 C 0.32038 0.9947 0.47519 0.0
C618 C 0.27191 0.9595 0.49336 0.0
C619 C 0.23346 0.97742 0.49004 0.0
C620 C 0.24996 0.90489 0.48088 0.0
C621 C 0.29109 0.96533 0.52887 0.0
C622 C 0.34219 -0.00132 0.53064 0.0
C623 C 0.36814 0.01094 0.56092 0.0
C624 C 0.34149 0.98665 0.59 0.0
C625 C 0.28969 0.95026 0.58839 0.0
C626 C 0.26415 0.94049 0.55751 0.0
H627 H 0.32245 0.24441 0.89323 0.0
H628 H 0.39736 0.38512 0.94827 0.0
H629 H 0.38369 0.42892 0.90068 0.0
H630 H 0.37474 0.29306 0.81631 0.0
H631 H 0.31927 0.25296 0.79214 0.0
H632 H 0.32887 0.2315 0.83171 0.0
H633 H 0.24287 0.21647 0.8531 0.0
H634 H 0.23204 0.23597 0.81314 0.0
H635 H 0.22873 0.26686 0.85047 0.0
H636 H 0.36756 0.45747 0.84499 0.0
H637 H 0.33957 0.46713 0.78919 0.0
H638 H 0.27805 0.3074 0.77014 0.0
C639 C 0.33442 0.28417 0.89567 0.0
C640 C 0.36015 0.31148 0.92446 0.0
C641 C 0.37639 0.36351 0.92672 0.0
C642 C 0.36942 0.38862 0.89963 0.0
C643 C 0.34611 0.36086 0.87083 0.0
C644 C 0.32787 0.3095 0.86905 0.0
C645 C 0.30547 0.28827 0.83516 0.0
C646 C 0.3338 0.26509 0.81782 0.0
C647 C 0.24892 0.24963 0.83815 0.0
C648 C 0.31447 0.33587 0.8177 0.0
C649 C 0.33806 0.37734 0.83869 0.0
C650 C 0.34918 0.42528 0.82844 0.0
C651 C 0.33368 0.43049 0.7966 0.0
C652 C 0.30786 0.38822 0.77522 0.0
C653 C 0.29927 0.34056 0.78557 0.0
H654 H 0.19528 0.49336 0.452 0.0
H655 H 0.10835 0.33616 0.42227 0.0
H656 H 0.11419 0.31003 0.4797 0.0
H657 H 0.27999 0.48231 0.50399 0.0
H658 H 0.28318 0.5261 0.53525 0.0
H659 H 0.26859 0.53275 0.4928 0.0
H660 H 0.1855 0.5281 0.51118 0.0
H661 H 0.20091 0.52354 0.55381 0.0
H662 H 0.14153 0.47602 0.53666 0.0
H663 H 0.1373 0.30186 0.54002 0.0
H664 H 0.15985 0.31223 0.60002 0.0
H665 H 0.22959 0.47447 0.58979 0.0
C666 C 0.1759 0.4534 0.45787 0.0
C667 C 0.15062 0.41679 0.43273 0.0
C668 C 0.12672 0.36487 0.44126 0.0
C669 C 0.13066 0.34972 0.47372 0.0
C670 C 0.15814 0.38693 0.49747 0.0
C671 C 0.17903 0.43771 0.49012 0.0
C672 C 0.20652 0.47042 0.51992 0.0
C673 C 0.26291 0.50492 0.51252 0.0
C674 C 0.18215 0.50132 0.53106 0.0
C675 C 0.19821 0.43026 0.54523 0.0
C676 C 0.17091 0.38229 0.53177 0.0
C677 C 0.15862 0.33929 0.55072 0.0
C678 C 0.17229 0.34547 0.58462 0.0
C679 C 0.19764 0.39415 0.59919 0.0
C680 C 0.21163 0.43695 0.57897 0.0
H681 H 0.84961 0.24798 0.90981 0.0
H682 H 0.7571 0.08786 0.93105 0.0
H683 H 0.74601 0.06907 0.87111 0.0
H684 H 0.77852 0.24963 0.84066 0.0
H685 H 0.83165 0.29375 0.81609 0.0
H686 H 0.836 0.29543 0.86084 0.0
H687 H 0.91443 0.28487 0.85781 0.0
H688 H 0.91086 0.28413 0.81303 0.0
H689 H 0.91102 0.23267 0.83475 0.0
H690 H 0.73871 0.06729 0.80886 0.0
H691 H 0.74537 0.08247 0.74807 0.0
H692 H 0.84314 0.24307 0.76607 0.0
C693 C 0.8282 0.20898 0.90174 0.0
C694 C 0.80435 0.16939 0.92522 0.0
C695 C 0.77569 0.11885 0.91358 0.0
C696 C 0.76896 0.10771 0.87952 0.0
C697 C 0.79115 0.14747 0.85699 0.0
C698 C 0.8209 0.19704 0.86747 0.0
C699 C 0.83965 0.23246 0.83771 0.0
C700 C 0.82029 0.27003 0.83891 0.0
C701 C 0.89742 0.26016 0.83571 0.0
C702 C 0.81559 0.19506 0.80919 0.0
C703 C 0.78744 0.14628 0.82089 0.0
C704 C 0.76099 0.10536 0.79933 0.0
C705 C 0.76458 0.11435 0.76481 0.0
C706 C 0.79472 0.16383 0.75208 0.0
C707 C 0.81985 0.20466 0.77484 0.0
H708 H 0.49251 0.84508 0.20935 0.0
H709 H 0.64202 0.89532 0.24785 0.0
H710 H 0.67111 0.89155 0.19113 0.0
H711 H 0.48605 0.75663 0.15632 0.0
H712 H 0.45375 0.76716 0.12256 0.0
H713 H 0.44609 0.78288 0.16448 0.0
H714 H 0.47605 0.87537 0.14749 0.0
H715 H 0.48146 0.85933 0.10512 0.0
H716 H 0.5347 0.91119 0.12544 0.0
H717 H 0.67911 0.86619 0.13211 0.0
H718 H 0.67106 0.84156 0.0726 0.0
H719 H 0.51732 0.81103 0.07218 0.0
C720 C 0.53209 0.85822 0.20547 0.0
C721 C 0.56527 0.87153 0.23294 0.0
C722 C 0.61636 0.88659 0.22712 0.0
C723 C 0.63295 0.88357 0.19501 0.0
C724 C 0.59822 0.86647 0.1689 0.0
C725 C 0.5493 0.85597 0.17355 0.0
C726 C 0.51874 0.83615 0.14178 0.0
C727 C 0.4735 0.78254 0.1466 0.0
C728 C 0.50176 0.8727 0.1292 0.0
C729 C 0.55756 0.83562 0.11881 0.0
C730 C 0.60305 0.85273 0.13497 0.0
C731 C 0.64386 0.8534 0.11915 0.0
C732 C 0.63872 0.83848 0.08558 0.0
C733 C 0.59325 0.8233 0.06822 0.0
C734 C 0.55211 0.82144 0.08519 0.0
H735 H 0.79268 0.50219 0.45769 0.0
H736 H 0.87698 0.66073 0.43095 0.0
H737 H 0.87591 0.68402 0.48989 0.0
H738 H 0.71256 0.50967 0.515 0.0
H739 H 0.71213 0.46493 0.54437 0.0
H740 H 0.72365 0.46014 0.50095 0.0
H741 H 0.80836 0.46512 0.51492 0.0
H742 H 0.7961 0.46782 0.55849 0.0
H743 H 0.85393 0.51641 0.54028 0.0
H744 H 0.85571 0.68924 0.55072 0.0
H745 H 0.83596 0.67668 0.611 0.0
H746 H 0.76897 0.51507 0.59843 0.0
C747 C 0.81271 0.54181 0.46452 0.0
C748 C 0.83569 0.57973 0.43988 0.0
C749 C 0.8604 0.63116 0.44955 0.0
C750 C 0.85915 0.64467 0.48289 0.0
C751 C 0.8337 0.60625 0.50625 0.0
C752 C 0.81245 0.55587 0.49768 0.0
C753 C 0.78738 0.5218 0.52742 0.0
C754 C 0.73057 0.4871 0.52156 0.0
C755 C 0.81299 0.49099 0.53578 0.0
C756 C 0.79725 0.56078 0.55406 0.0
C757 C 0.82322 0.60927 0.54122 0.0
C758 C 0.83576 0.65146 0.56101 0.0
C759 C 0.8238 0.64402 0.59507 0.0
C760 C 0.80002 0.59498 0.60902 0.0
C761 C 0.78582 0.55283 0.58812 0.0
H762 H 0.15568 0.82556 0.91831 0.0
H763 H 0.25154 0.76443 0.9433 0.0
H764 H 0.27071 0.7632 0.88343 0.0
H765 H 0.10793 0.76029 0.8381 0.0
H766 H 0.10991 0.81471 0.81923 0.0
H767 H 0.09952 0.80424 0.86334 0.0
H768 H 0.17459 0.89354 0.87341 0.0
H769 H 0.18784 0.90404 0.82964 0.0
H770 H 0.23612 0.91023 0.85803 0.0
H771 H 0.28291 0.77356 0.82041 0.0
H772 H 0.27997 0.78636 0.75964 0.0
H773 H 0.18151 0.84705 0.77669 0.0
C774 C 0.17954 0.81062 0.91099 0.0
C775 C 0.20112 0.7938 0.93523 0.0
C776 C 0.23325 0.77571 0.92493 0.0
C777 C 0.24493 0.77569 0.89105 0.0
C778 C 0.2248 0.7947 0.86783 0.0
C779 C 0.19223 0.81123 0.87736 0.0
C780 C 0.17743 0.83193 0.84784 0.0
C781 C 0.12031 0.80092 0.84176 0.0
C782 C 0.19511 0.8883 0.85252 0.0
C783 C 0.20653 0.82436 0.82017 0.0
C784 C 0.2338 0.80298 0.83215 0.0
C785 C 0.26216 0.79085 0.8109 0.0
C786 C 0.26099 0.79896 0.77649 0.0
C787 C 0.23238 0.81975 0.76373 0.0
C788 C 0.20554 0.83329 0.78599 0.0
H789 H 0.35445 0.17913 0.23224 0.0
H790 H 0.43457 0.09763 0.24662 0.0
H791 H 0.44742 0.09856 0.18567 0.0
H792 H 0.29374 0.11691 0.15072 0.0
H793 H 0.29913 0.17452 0.13485 0.0
H794 H 0.29076 0.16126 0.17884 0.0
H795 H 0.37114 0.24716 0.19033 0.0
H796 H 0.38077 0.26008 0.14641 0.0
H797 H 0.4298 0.26064 0.1714 0.0
H798 H 0.46356 0.12089 0.12546 0.0
H799 H 0.46773 0.14653 0.06733 0.0
H800 H 0.3728 0.21046 0.08991 0.0
C801 C 0.37293 0.15969 0.22235 0.0
C802 C 0.39297 0.13759 0.24404 0.0
C803 C 0.41791 0.11355 0.23042 0.0
C804 C 0.42592 0.11458 0.19588 0.0
C805 C 0.40793 0.13901 0.1754 0.0
C806 C 0.38054 0.15973 0.18794 0.0
C807 C 0.36655 0.1849 0.16056 0.0
C808 C 0.30913 0.15777 0.15597 0.0
C809 C 0.38838 0.24155 0.16762 0.0
C810 C 0.39194 0.1767 0.13072 0.0
C811 C 0.41574 0.15036 0.1401 0.0
C812 C 0.44393 0.14027 0.1177 0.0
C813 C 0.44614 0.15533 0.0846 0.0
C814 C 0.41982 0.17989 0.07358 0.0
C815 C 0.39321 0.19171 0.09731 0.0
loop_
_geom_bond_atom_site_label_1
_geom_bond_atom_site_label_2
_geom_bond_distance
_geom_bond_site_symmetry_2
_ccdc_geom_bond_type
Co0 O1 2.216 . S
Co0 O2 2.091 . S
Co0 O4 2.004 . S
Co0 O10 2.021 . S
Co0 O12 2.137 . S
Co0 O13 2.244 . S
O1 Co0 2.216 . S
O1 C8 1.247 . S
O2 Co0 2.091 . S
O2 C8 1.261 . S
C3 O12 1.247 . S
C3 O13 1.272 . S
O4 Co0 2.004 . S
O4 C9 1.259 . S
Co5 O6 2.061 . S
Co5 O11 2.052 . S
Co5 O13 2.135 . S
O6 Co5 2.061 . S
O6 C9 1.235 . S
C7 O10 1.238 . S
C7 O11 1.241 . S
C8 O1 1.247 . S
C8 O2 1.261 . S
C9 O4 1.259 . S
C9 O6 1.235 . S
O10 Co0 2.021 . S
O10 C7 1.238 . S
O11 Co5 2.052 . S
O11 C7 1.241 . S
O12 Co0 2.137 . S
O12 C3 1.247 . S
O13 Co0 2.244 . S
O13 C3 1.272 . S
O13 Co5 2.135 . S
Co14 O15 2.216 . S
Co14 O16 2.091 . S
Co14 O18 2.004 . S
Co14 O24 2.021 . S
Co14 O26 2.137 . S
Co14 O27 2.244 . S
O15 Co14 2.216 . S
O15 C22 1.247 . S
O16 Co14 2.091 . S
O16 C22 1.261 . S
C17 O26 1.247 . S
C17 O27 1.272 . S
O18 Co14 2.004 . S
O18 C23 1.259 . S
Co19 O20 2.061 . S
Co19 O25 2.052 . S
Co19 O27 2.135 . S
O20 Co19 2.061 . S
O20 C23 1.235 . S
C21 O24 1.238 . S
C21 O25 1.241 . S
C22 O15 1.247 . S
C22 O16 1.261 . S
C23 O18 1.259 . S
C23 O20 1.235 . S
O24 Co14 2.021 . S
O24 C21 1.238 . S
O25 Co19 2.052 . S
O25 C21 1.241 . S
O26 Co14 2.137 . S
O26 C17 1.247 . S
O27 Co14 2.244 . S
O27 C17 1.272 . S
O27 Co19 2.135 . S
Co28 O29 2.216 . S
Co28 O30 2.091 . S
Co28 O32 2.004 1_556 S
Co28 O38 2.021 . S
Co28 O40 2.137 . S
Co28 O41 2.244 . S
O29 Co28 2.216 . S
O29 C36 1.247 . S
O30 Co28 2.091 . S
O30 C36 1.261 . S
C31 O40 1.247 . S
C31 O41 1.271 . S
O32 Co28 2.004 1_554 S
O32 C37 1.259 . S
Co33 O34 2.061 . S
Co33 O39 2.052 . S
Co33 O41 2.135 1_554 S
O34 Co33 2.061 . S
O34 C37 1.235 . S
C35 O38 1.238 . S
C35 O39 1.241 1_556 S
C36 O29 1.247 . S
C36 O30 1.261 . S
C37 O32 1.259 . S
C37 O34 1.235 . S
O38 Co28 2.021 . S
O38 C35 1.238 . S
O39 Co33 2.052 . S
O39 C35 1.241 1_554 S
O40 Co28 2.137 . S
O40 C31 1.247 . S
O41 Co28 2.244 . S
O41 C31 1.271 . S
O41 Co33 2.135 1_556 S
Co42 O43 2.216 . S
Co42 O44 2.091 . S
Co42 O46 2.004 . S
Co42 O52 2.021 . S
Co42 O54 2.137 . S
Co42 O55 2.244 . S
O43 Co42 2.216 . S
O43 C50 1.247 . S
O44 Co42 2.091 . S
O44 C50 1.261 . S
C45 O54 1.247 . S
C45 O55 1.272 . S
O46 Co42 2.004 . S
O46 C51 1.259 . S
Co47 O48 2.061 . S
Co47 O53 2.052 . S
Co47 O55 2.135 . S
O48 Co47 2.061 . S
O48 C51 1.235 . S
C49 O52 1.238 . S
C49 O53 1.241 . S
C50 O43 1.247 . S
C50 O44 1.261 . S
C51 O46 1.259 . S
C51 O48 1.235 . S
O52 Co42 2.021 . S
O52 C49 1.238 . S
O53 Co47 2.052 . S
O53 C49 1.241 . S
O54 Co42 2.137 . S
O54 C45 1.247 . S
O55 Co42 2.244 . S
O55 C45 1.272 . S
O55 Co47 2.135 . S
Co56 O57 2.216 . S
Co56 O58 2.091 . S
Co56 O60 2.004 . S
Co56 O66 2.021 . S
Co56 O68 2.137 . S
Co56 O69 2.244 . S
O57 Co56 2.216 . S
O57 C64 1.247 . S
O58 Co56 2.091 . S
O58 C64 1.261 . S
C59 O68 1.247 . S
C59 O69 1.272 . S
O60 Co56 2.004 . S
O60 C65 1.259 . S
Co61 O62 2.061 . S
Co61 O67 2.052 . S
Co61 O69 2.135 . S
O62 Co61 2.061 . S
O62 C65 1.235 . S
C63 O66 1.238 . S
C63 O67 1.241 . S
C64 O57 1.247 . S
C64 O58 1.261 . S
C65 O60 1.259 . S
C65 O62 1.235 . S
O66 Co56 2.021 . S
O66 C63 1.238 . S
O67 Co61 2.052 . S
O67 C63 1.241 . S
O68 Co56 2.137 . S
O68 C59 1.247 . S
O69 Co56 2.244 . S
O69 C59 1.272 . S
O69 Co61 2.135 . S
Co70 O71 2.216 . S
Co70 O72 2.091 . S
Co70 O74 2.004 1_556 S
Co70 O80 2.021 . S
Co70 O82 2.137 . S
Co70 O83 2.244 . S
O71 Co70 2.216 . S
O71 C78 1.247 . S
O72 Co70 2.091 . S
O72 C78 1.261 . S
C73 O82 1.247 . S
C73 O83 1.271 . S
O74 Co70 2.004 1_554 S
O74 C79 1.259 . S
Co75 O76 2.061 . S
Co75 O81 2.052 . S
Co75 O83 2.135 1_554 S
O76 Co75 2.061 . S
O76 C79 1.235 . S
C77 O80 1.238 . S
C77 O81 1.241 1_556 S
C78 O71 1.247 . S
C78 O72 1.261 . S
C79 O74 1.259 . S
C79 O76 1.235 . S
O80 Co70 2.021 . S
O80 C77 1.238 . S
O81 Co75 2.052 . S
O81 C77 1.241 1_554 S
O82 Co70 2.137 . S
O82 C73 1.247 . S
O83 Co70 2.244 . S
O83 C73 1.271 . S
O83 Co75 2.135 1_556 S
Co84 O85 2.216 . S
Co84 O86 2.091 . S
Co84 O88 2.004 . S
Co84 O94 2.021 . S
Co84 O96 2.137 . S
Co84 O97 2.244 . S
O85 Co84 2.216 . S
O85 C92 1.247 . S
O86 Co84 2.091 . S
O86 C92 1.261 . S
C87 O96 1.247 . S
C87 O97 1.272 . S
O88 Co84 2.004 . S
O88 C93 1.259 . S
Co89 O90 2.061 . S
Co89 O95 2.052 . S
Co89 O97 2.135 . S
O90 Co89 2.061 . S
O90 C93 1.235 . S
C91 O94 1.238 . S
C91 O95 1.241 . S
C92 O85 1.247 . S
C92 O86 1.261 . S
C93 O88 1.259 . S
C93 O90 1.235 . S
O94 Co84 2.021 . S
O94 C91 1.238 . S
O95 Co89 2.052 . S
O95 C91 1.241 . S
O96 Co84 2.137 . S
O96 C87 1.247 . S
O97 Co84 2.244 . S
O97 C87 1.272 . S
O97 Co89 2.135 . S
Co98 O99 2.216 . S
Co98 O100 2.091 . S
Co98 O102 2.004 . S
Co98 O108 2.021 . S
Co98 O110 2.137 . S
Co98 O111 2.244 . S
O99 Co98 2.216 . S
O99 C106 1.247 . S
O100 Co98 2.091 . S
O100 C106 1.261 . S
C101 O110 1.247 . S
C101 O111 1.272 . S
O102 Co98 2.004 . S
O102 C107 1.259 . S
Co103 O104 2.061 . S
Co103 O109 2.052 . S
Co103 O111 2.135 . S
O104 Co103 2.061 . S
O104 C107 1.235 . S
C105 O108 1.238 . S
C105 O109 1.241 . S
C106 O99 1.247 . S
C106 O100 1.261 . S
C107 O102 1.259 . S
C107 O104 1.235 . S
O108 Co98 2.021 . S
O108 C105 1.238 . S
O109 Co103 2.052 . S
O109 C105 1.241 . S
O110 Co98 2.137 . S
O110 C101 1.247 . S
O111 Co98 2.244 . S
O111 C101 1.272 . S
O111 Co103 2.135 . S
Co112 O113 2.216 . S
Co112 O114 2.091 . S
Co112 O116 2.004 1_554 S
Co112 O122 2.021 . S
Co112 O124 2.137 . S
Co112 O125 2.244 . S
O113 Co112 2.216 . S
O113 C120 1.247 . S
O114 Co112 2.091 . S
O114 C120 1.261 . S
C115 O124 1.247 . S
C115 O125 1.271 . S
O116 Co112 2.004 1_556 S
O116 C121 1.259 . S
Co117 O118 2.061 . S
Co117 O123 2.052 . S
Co117 O125 2.135 1_556 S
O118 Co117 2.061 . S
O118 C121 1.235 . S
C119 O122 1.238 . S
C119 O123 1.241 1_554 S
C120 O113 1.247 . S
C120 O114 1.261 . S
C121 O116 1.259 . S
C121 O118 1.235 . S
O122 Co112 2.021 . S
O122 C119 1.238 . S
O123 Co117 2.052 . S
O123 C119 1.241 1_556 S
O124 Co112 2.137 . S
O124 C115 1.247 . S
O125 Co112 2.244 . S
O125 C115 1.271 . S
O125 Co117 2.135 1_554 S
Co126 O127 2.216 . S
Co126 O128 2.091 . S
Co126 O130 2.004 . S
Co126 O136 2.021 . S
Co126 O138 2.137 . S
Co126 O139 2.244 . S
O127 Co126 2.216 . S
O127 C134 1.247 . S
O128 Co126 2.091 . S
O128 C134 1.261 . S
C129 O138 1.247 . S
C129 O139 1.272 . S
O130 Co126 2.004 . S
O130 C135 1.259 . S
Co131 O132 2.061 . S
Co131 O137 2.052 . S
Co131 O139 2.135 . S
O132 Co131 2.061 . S
O132 C135 1.235 . S
C133 O136 1.238 . S
C133 O137 1.241 . S
C134 O127 1.247 . S
C134 O128 1.261 . S
C135 O130 1.259 . S
C135 O132 1.235 . S
O136 Co126 2.021 . S
O136 C133 1.238 . S
O137 Co131 2.052 . S
O137 C133 1.241 . S
O138 Co126 2.137 . S
O138 C129 1.247 . S
O139 Co126 2.244 . S
O139 C129 1.272 . S
O139 Co131 2.135 . S
Co140 O141 2.216 . S
Co140 O142 2.091 . S
Co140 O144 2.004 . S
Co140 O150 2.021 . S
Co140 O152 2.137 . S
Co140 O153 2.244 . S
O141 Co140 2.216 . S
O141 C148 1.247 . S
O142 Co140 2.091 . S
O142 C148 1.261 . S
C143 O152 1.247 . S
C143 O153 1.272 . S
O144 Co140 2.004 . S
O144 C149 1.259 . S
Co145 O146 2.061 . S
Co145 O151 2.052 . S
Co145 O153 2.135 . S
O146 Co145 2.061 . S
O146 C149 1.235 . S
C147 O150 1.238 . S
C147 O151 1.241 . S
C148 O141 1.247 . S
C148 O142 1.261 . S
C149 O144 1.259 . S
C149 O146 1.235 . S
O150 Co140 2.021 . S
O150 C147 1.238 . S
O151 Co145 2.052 . S
O151 C147 1.241 . S
O152 Co140 2.137 . S
O152 C143 1.247 . S
O153 Co140 2.244 . S
O153 C143 1.272 . S
O153 Co145 2.135 . S
Co154 O155 2.216 . S
Co154 O156 2.091 . S
Co154 O158 2.004 1_554 S
Co154 O164 2.021 . S
Co154 O166 2.137 . S
Co154 O167 2.244 . S
O155 Co154 2.216 . S
O155 C162 1.247 . S
O156 Co154 2.091 . S
O156 C162 1.261 . S
C157 O166 1.247 . S
C157 O167 1.271 . S
O158 Co154 2.004 1_556 S
O158 C163 1.259 . S
Co159 O160 2.061 . S
Co159 O165 2.052 . S
Co159 O167 2.135 1_556 S
O160 Co159 2.061 . S
O160 C163 1.235 . S
C161 O164 1.238 . S
C161 O165 1.241 1_554 S
C162 O155 1.247 . S
C162 O156 1.261 . S
C163 O158 1.259 . S
C163 O160 1.235 . S
O164 Co154 2.021 . S
O164 C161 1.238 . S
O165 Co159 2.052 . S
O165 C161 1.241 1_556 S
O166 Co154 2.137 . S
O166 C157 1.247 . S
O167 Co154 2.244 . S
O167 C157 1.271 . S
O167 Co159 2.135 1_554 S
H168 C180 0.930 . S
H169 C182 0.930 . S
H170 C183 0.930 . S
H171 C187 0.959 . S
H172 C187 0.959 . S
H173 C187 0.961 . S
H174 C188 0.960 . S
H175 C188 0.961 . S
H176 C188 0.959 . S
H177 C191 0.929 . S
H178 C192 0.931 . S
H179 C194 0.930 . S
C180 H168 0.930 . S
C180 C181 1.399 . S
C180 C185 1.399 . S
C181 C180 1.399 . S
C181 C182 1.376 . S
C182 H169 0.930 . S
C182 C181 1.376 . S
C182 C183 1.388 . S
C183 H170 0.930 . S
C183 C182 1.388 . S
C183 C184 1.390 . S
C184 C183 1.390 . S
C184 C185 1.394 . S
C184 C190 1.465 . S
C185 C180 1.399 . S
C185 C184 1.394 . S
C185 C186 1.516 . S
C186 C185 1.516 . S
C186 C187 1.502 . S
C186 C188 1.561 . S
C186 C189 1.526 . S
C187 H171 0.959 . S
C187 H172 0.959 . S
C187 H173 0.961 . S
C187 C186 1.502 . S
C188 H174 0.960 . S
C188 H175 0.961 . S
C188 H176 0.959 . S
C188 C186 1.561 . S
C189 C186 1.526 . S
C189 C190 1.396 . S
C189 C194 1.390 . S
C190 C184 1.465 . S
C190 C189 1.396 . S
C190 C191 1.399 . S
C191 H177 0.929 . S
C191 C190 1.399 . S
C191 C192 1.385 . S
C192 H178 0.931 . S
C192 C191 1.385 . S
C192 C193 1.389 . S
C193 C192 1.389 . S
C193 C194 1.387 . S
C194 H179 0.930 . S
C194 C189 1.390 . S
C194 C193 1.387 . S
H195 C207 0.930 . S
H196 C209 0.930 . S
H197 C210 0.930 . S
H198 C214 0.959 . S
H199 C214 0.959 . S
H200 C214 0.961 . S
H201 C215 0.960 . S
H202 C215 0.961 . S
H203 C215 0.959 . S
H204 C218 0.929 . S
H205 C219 0.931 . S
H206 C221 0.930 . S
C207 H195 0.930 . S
C207 C208 1.399 . S
C207 C212 1.399 . S
C208 C207 1.399 . S
C208 C209 1.376 . S
C209 H196 0.930 . S
C209 C208 1.376 . S
C209 C210 1.388 . S
C210 H197 0.930 . S
C210 C209 1.388 . S
C210 C211 1.390 . S
C211 C210 1.390 . S
C211 C212 1.394 . S
C211 C217 1.465 . S
C212 C207 1.399 . S
C212 C211 1.394 . S
C212 C213 1.516 . S
C213 C212 1.516 . S
C213 C214 1.502 . S
C213 C215 1.561 . S
C213 C216 1.526 . S
C214 H198 0.959 . S
C214 H199 0.959 . S
C214 H200 0.961 . S
C214 C213 1.502 . S
C215 H201 0.960 . S
C215 H202 0.961 . S
C215 H203 0.959 . S
C215 C213 1.561 . S
C216 C213 1.526 . S
C216 C217 1.396 . S
C216 C221 1.390 . S
C217 C211 1.465 . S
C217 C216 1.396 . S
C217 C218 1.399 . S
C218 H204 0.929 . S
C218 C217 1.399 . S
C218 C219 1.385 . S
C219 H205 0.931 . S
C219 C218 1.385 . S
C219 C220 1.389 . S
C220 C219 1.389 . S
C220 C221 1.387 . S
C221 H206 0.930 . S
C221 C216 1.390 . S
C221 C220 1.387 . S
H222 C234 0.930 . S
H223 C236 0.930 . S
H224 C237 0.930 . S
H225 C241 0.959 1_556 S
H226 C241 0.959 . S
H227 C241 0.961 . S
H228 C242 0.960 . S
H229 C242 0.961 . S
H230 C242 0.959 . S
H231 C245 0.929 . S
H232 C246 0.931 . S
H233 C248 0.930 . S
C234 H222 0.930 . S
C234 C235 1.399 1_554 S
C234 C239 1.399 . S
C235 C234 1.399 1_556 S
C235 C236 1.376 . S
C236 H223 0.930 . S
C236 C235 1.376 . S
C236 C237 1.388 . S
C237 H224 0.930 . S
C237 C236 1.388 . S
C237 C238 1.390 . S
C238 C237 1.390 . S
C238 C239 1.394 1_556 S
C238 C244 1.465 . S
C239 C234 1.399 . S
C239 C238 1.394 1_554 S
C239 C240 1.516 . S
C240 C239 1.516 . S
C240 C241 1.502 . S
C240 C242 1.561 . S
C240 C243 1.526 . S
C241 H225 0.959 1_554 S
C241 H226 0.959 . S
C241 H227 0.961 . S
C241 C240 1.502 . S
C242 H228 0.960 . S
C242 H229 0.961 . S
C242 H230 0.959 . S
C242 C240 1.561 . S
C243 C240 1.526 . S
C243 C244 1.396 1_554 S
C243 C248 1.390 . S
C244 C238 1.465 . S
C244 C243 1.396 1_556 S
C244 C245 1.399 . S
C245 H231 0.929 . S
C245 C244 1.399 . S
C245 C246 1.385 . S
C246 H232 0.931 . S
C246 C245 1.385 . S
C246 C247 1.389 1_556 S
C247 C246 1.389 1_554 S
C247 C248 1.387 . S
C248 H233 0.930 . S
C248 C243 1.390 . S
C248 C247 1.387 . S
H249 C261 0.930 . S
H250 C263 0.930 . S
H251 C264 0.930 . S
H252 C268 0.959 . S
H253 C268 0.959 . S
H254 C268 0.961 . S
H255 C269 0.960 . S
H256 C269 0.961 . S
H257 C269 0.959 . S
H258 C272 0.929 . S
H259 C273 0.931 . S
H260 C275 0.930 . S
C261 H249 0.930 . S
C261 C262 1.399 . S
C261 C266 1.399 . S
C262 C261 1.399 . S
C262 C263 1.376 . S
C263 H250 0.930 . S
C263 C262 1.376 . S
C263 C264 1.388 . S
C264 H251 0.930 . S
C264 C263 1.388 . S
C264 C265 1.390 . S
C265 C264 1.390 . S
C265 C266 1.394 . S
C265 C271 1.465 . S
C266 C261 1.399 . S
C266 C265 1.394 . S
C266 C267 1.516 . S
C267 C266 1.516 . S
C267 C268 1.502 . S
C267 C269 1.561 . S
C267 C270 1.526 . S
C268 H252 0.959 . S
C268 H253 0.959 . S
C268 H254 0.961 . S
C268 C267 1.502 . S
C269 H255 0.960 . S
C269 H256 0.961 . S
C269 H257 0.959 . S
C269 C267 1.561 . S
C270 C267 1.526 . S
C270 C271 1.396 . S
C270 C275 1.390 . S
C271 C265 1.465 . S
C271 C270 1.396 . S
C271 C272 1.399 . S
C272 H258 0.929 . S
C272 C271 1.399 . S
C272 C273 1.385 . S
C273 H259 0.931 . S
C273 C272 1.385 . S
C273 C274 1.389 . S
C274 C273 1.389 . S
C274 C275 1.387 . S
C275 H260 0.930 . S
C275 C270 1.390 . S
C275 C274 1.387 . S
H276 C288 0.930 . S
H277 C290 0.930 . S
H278 C291 0.930 . S
H279 C295 0.959 . S
H280 C295 0.959 . S
H281 C295 0.961 . S
H282 C296 0.960 . S
H283 C296 0.961 . S
H284 C296 0.959 . S
H285 C299 0.929 . S
H286 C300 0.931 . S
H287 C302 0.930 . S
C288 H276 0.930 . S
C288 C289 1.399 . S
C288 C293 1.399 . S
C289 C288 1.399 . S
C289 C290 1.376 . S
C290 H277 0.930 . S
C290 C289 1.376 . S
C290 C291 1.388 . S
C291 H278 0.930 . S
C291 C290 1.388 . S
C291 C292 1.390 . S
C292 C291 1.390 . S
C292 C293 1.394 . S
C292 C298 1.465 . S
C293 C288 1.399 . S
C293 C292 1.394 . S
C293 C294 1.516 . S
C294 C293 1.516 . S
C294 C295 1.502 . S
C294 C296 1.561 . S
C294 C297 1.526 . S
C295 H279 0.959 . S
C295 H280 0.959 . S
C295 H281 0.961 . S
C295 C294 1.502 . S
C296 H282 0.960 . S
C296 H283 0.961 . S
C296 H284 0.959 . S
C296 C294 1.561 . S
C297 C294 1.526 . S
C297 C298 1.396 . S
C297 C302 1.390 . S
C298 C292 1.465 . S
C298 C297 1.396 . S
C298 C299 1.399 . S
C299 H285 0.929 . S
C299 C298 1.399 . S
C299 C300 1.385 . S
C300 H286 0.931 . S
C300 C299 1.385 . S
C300 C301 1.389 . S
C301 C300 1.389 . S
C301 C302 1.387 . S
C302 H287 0.930 . S
C302 C297 1.390 . S
C302 C301 1.387 . S
H303 C315 0.930 . S
H304 C317 0.930 . S
H305 C318 0.930 . S
H306 C322 0.959 . S
H307 C322 0.959 . S
H308 C322 0.961 . S
H309 C323 0.960 . S
H310 C323 0.961 . S
H311 C323 0.959 . S
H312 C326 0.929 . S
H313 C327 0.931 . S
H314 C329 0.930 . S
C315 H303 0.930 . S
C315 C316 1.399 1_556 S
C315 C320 1.399 . S
C316 C315 1.399 1_554 S
C316 C317 1.376 . S
C317 H304 0.930 . S
C317 C316 1.376 . S
C317 C318 1.388 . S
C318 H305 0.930 . S
C318 C317 1.388 . S
C318 C319 1.390 . S
C319 C318 1.390 . S
C319 C320 1.394 1_554 S
C319 C325 1.465 . S
C320 C315 1.399 . S
C320 C319 1.394 1_556 S
C320 C321 1.516 . S
C321 C320 1.516 . S
C321 C322 1.502 . S
C321 C323 1.561 . S
C321 C324 1.526 . S
C322 H306 0.959 . S
C322 H307 0.959 . S
C322 H308 0.961 . S
C322 C321 1.502 . S
C323 H309 0.960 . S
C323 H310 0.961 . S
C323 H311 0.959 . S
C323 C321 1.561 . S
C324 C321 1.526 . S
C324 C325 1.396 1_556 S
C324 C329 1.390 . S
C325 C319 1.465 . S
C325 C324 1.396 1_554 S
C325 C326 1.399 . S
C326 H312 0.929 . S
C326 C325 1.399 . S
C326 C327 1.385 . S
C327 H313 0.931 . S
C327 C326 1.385 . S
C327 C328 1.389 1_554 S
C328 C327 1.389 1_556 S
C328 C329 1.387 . S
C329 H314 0.930 . S
C329 C324 1.390 . S
C329 C328 1.387 . S
H330 C342 0.930 . S
H331 C344 0.930 . S
H332 C345 0.930 . S
H333 C349 0.959 . S
H334 C349 0.959 . S
H335 C349 0.961 . S
H336 C350 0.960 . S
H337 C350 0.961 . S
H338 C350 0.959 . S
H339 C353 0.929 . S
H340 C354 0.931 . S
H341 C356 0.930 . S
C342 H330 0.930 . S
C342 C343 1.399 . S
C342 C347 1.399 . S
C343 C342 1.399 . S
C343 C344 1.376 . S
C344 H331 0.930 . S
C344 C343 1.376 . S
C344 C345 1.388 . S
C345 H332 0.930 . S
C345 C344 1.388 . S
C345 C346 1.390 . S
C346 C345 1.390 . S
C346 C347 1.394 . S
C346 C352 1.465 . S
C347 C342 1.399 . S
C347 C346 1.394 . S
C347 C348 1.516 . S
C348 C347 1.516 . S
C348 C349 1.502 . S
C348 C350 1.561 . S
C348 C351 1.526 . S
C349 H333 0.959 . S
C349 H334 0.959 . S
C349 H335 0.961 . S
C349 C348 1.502 . S
C350 H336 0.960 . S
C350 H337 0.961 . S
C350 H338 0.959 . S
C350 C348 1.561 . S
C351 C348 1.526 . S
C351 C352 1.396 . S
C351 C356 1.390 . S
C352 C346 1.465 . S
C352 C351 1.396 . S
C352 C353 1.399 . S
C353 H339 0.929 . S
C353 C352 1.399 . S
C353 C354 1.385 . S
C354 H340 0.931 . S
C354 C353 1.385 . S
C354 C355 1.389 . S
C355 C354 1.389 . S
C355 C356 1.387 . S
C356 H341 0.930 . S
C356 C351 1.390 . S
C356 C355 1.387 . S
H357 C369 0.930 . S
H358 C371 0.930 . S
H359 C372 0.930 . S
H360 C376 0.959 . S
H361 C376 0.959 . S
H362 C376 0.961 1_655 S
H363 C377 0.960 1_655 S
H364 C377 0.961 . S
H365 C377 0.959 . S
H366 C380 0.929 . S
H367 C381 0.931 . S
H368 C383 0.930 . S
C369 H357 0.930 . S
C369 C370 1.399 . S
C369 C374 1.399 . S
C370 C369 1.399 . S
C370 C371 1.376 . S
C371 H358 0.930 . S
C371 C370 1.376 . S
C371 C372 1.388 . S
C372 H359 0.930 . S
C372 C371 1.388 . S
C372 C373 1.390 . S
C373 C372 1.390 . S
C373 C374 1.394 . S
C373 C379 1.465 1_655 S
C374 C369 1.399 . S
C374 C373 1.394 . S
C374 C375 1.516 1_655 S
C375 C374 1.516 1_455 S
C375 C376 1.502 . S
C375 C377 1.561 . S
C375 C378 1.526 . S
C376 H360 0.959 . S
C376 H361 0.959 . S
C376 H362 0.961 1_455 S
C376 C375 1.502 . S
C377 H363 0.960 1_455 S
C377 H364 0.961 . S
C377 H365 0.959 . S
C377 C375 1.561 . S
C378 C375 1.526 . S
C378 C379 1.396 . S
C378 C383 1.390 . S
C379 C373 1.465 1_455 S
C379 C378 1.396 . S
C379 C380 1.399 . S
C380 H366 0.929 . S
C380 C379 1.399 . S
C380 C381 1.385 . S
C381 H367 0.931 . S
C381 C380 1.385 . S
C381 C382 1.389 . S
C382 C381 1.389 . S
C382 C383 1.387 . S
C383 H368 0.930 . S
C383 C378 1.390 . S
C383 C382 1.387 . S
H384 C396 0.930 . S
H385 C398 0.930 . S
H386 C399 0.930 . S
H387 C403 0.959 . S
H388 C403 0.959 1_565 S
H389 C403 0.961 . S
H390 C404 0.960 . S
H391 C404 0.961 1_565 S
H392 C404 0.959 . S
H393 C407 0.929 . S
H394 C408 0.931 . S
H395 C410 0.930 . S
C396 H384 0.930 . S
C396 C397 1.399 1_556 S
C396 C401 1.399 . S
C397 C396 1.399 1_554 S
C397 C398 1.376 . S
C398 H385 0.930 . S
C398 C397 1.376 . S
C398 C399 1.388 . S
C399 H386 0.930 . S
C399 C398 1.388 . S
C399 C400 1.390 . S
C400 C399 1.390 . S
C400 C401 1.394 1_554 S
C400 C406 1.465 1_545 S
C401 C396 1.399 . S
C401 C400 1.394 1_556 S
C401 C402 1.516 . S
C402 C401 1.516 . S
C402 C403 1.502 . S
C402 C404 1.561 . S
C402 C405 1.526 1_545 S
C403 H387 0.959 . S
C403 H388 0.959 1_545 S
C403 H389 0.961 . S
C403 C402 1.502 . S
C404 H390 0.960 . S
C404 H391 0.961 1_545 S
C404 H392 0.959 . S
C404 C402 1.561 . S
C405 C402 1.526 1_565 S
C405 C406 1.396 1_556 S
C405 C410 1.390 . S
C406 C400 1.465 1_565 S
C406 C405 1.396 1_554 S
C406 C407 1.399 . S
C407 H393 0.929 . S
C407 C406 1.399 . S
C407 C408 1.385 . S
C408 H394 0.931 . S
C408 C407 1.385 . S
C408 C409 1.389 1_554 S
C409 C408 1.389 1_556 S
C409 C410 1.387 . S
C410 H395 0.930 . S
C410 C405 1.390 . S
C410 C409 1.387 . S
H411 C423 0.930 . S
H412 C425 0.930 . S
H413 C426 0.930 . S
H414 C430 0.959 . S
H415 C430 0.959 . S
H416 C430 0.961 . S
H417 C431 0.960 . S
H418 C431 0.961 . S
H419 C431 0.959 . S
H420 C434 0.929 . S
H421 C435 0.931 . S
H422 C437 0.930 . S
C423 H411 0.930 . S
C423 C424 1.399 . S
C423 C428 1.399 . S
C424 C423 1.399 . S
C424 C425 1.376 . S
C425 H412 0.930 . S
C425 C424 1.376 . S
C425 C426 1.388 . S
C426 H413 0.930 . S
C426 C425 1.388 . S
C426 C427 1.390 . S
C427 C426 1.390 . S
C427 C428 1.394 . S
C427 C433 1.465 . S
C428 C423 1.399 . S
C428 C427 1.394 . S
C428 C429 1.516 . S
C429 C428 1.516 . S
C429 C430 1.502 . S
C429 C431 1.561 . S
C429 C432 1.526 . S
C430 H414 0.959 . S
C430 H415 0.959 . S
C430 H416 0.961 . S
C430 C429 1.502 . S
C431 H417 0.960 . S
C431 H418 0.961 . S
C431 H419 0.959 . S
C431 C429 1.561 . S
C432 C429 1.526 . S
C432 C433 1.396 . S
C432 C437 1.390 . S
C433 C427 1.465 . S
C433 C432 1.396 . S
C433 C434 1.399 . S
C434 H420 0.929 . S
C434 C433 1.399 . S
C434 C435 1.385 . S
C435 H421 0.931 . S
C435 C434 1.385 . S
C435 C436 1.389 . S
C436 C435 1.389 . S
C436 C437 1.387 . S
C437 H422 0.930 . S
C437 C432 1.390 . S
C437 C436 1.387 . S
H438 C450 0.930 . S
H439 C452 0.930 . S
H440 C453 0.930 . S
H441 C457 0.959 . S
H442 C457 0.959 . S
H443 C457 0.961 1_455 S
H444 C458 0.960 1_455 S
H445 C458 0.961 . S
H446 C458 0.959 . S
H447 C461 0.929 . S
H448 C462 0.931 . S
H449 C464 0.930 . S
C450 H438 0.930 . S
C450 C451 1.399 . S
C450 C455 1.399 . S
C451 C450 1.399 . S
C451 C452 1.376 . S
C452 H439 0.930 . S
C452 C451 1.376 . S
C452 C453 1.388 . S
C453 H440 0.930 . S
C453 C452 1.388 . S
C453 C454 1.390 . S
C454 C453 1.390 . S
C454 C455 1.394 . S
C454 C460 1.465 1_455 S
C455 C450 1.399 . S
C455 C454 1.394 . S
C455 C456 1.516 1_455 S
C456 C455 1.516 1_655 S
C456 C457 1.502 . S
C456 C458 1.561 . S
C456 C459 1.526 . S
C457 H441 0.959 . S
C457 H442 0.959 . S
C457 H443 0.961 1_655 S
C457 C456 1.502 . S
C458 H444 0.960 1_655 S
C458 H445 0.961 . S
C458 H446 0.959 . S
C458 C456 1.561 . S
C459 C456 1.526 . S
C459 C460 1.396 . S
C459 C464 1.390 . S
C460 C454 1.465 1_655 S
C460 C459 1.396 . S
C460 C461 1.399 . S
C461 H447 0.929 . S
C461 C460 1.399 . S
C461 C462 1.385 . S
C462 H448 0.931 . S
C462 C461 1.385 . S
C462 C463 1.389 . S
C463 C462 1.389 . S
C463 C464 1.387 . S
C464 H449 0.930 . S
C464 C459 1.390 . S
C464 C463 1.387 . S
H465 C477 0.930 . S
H466 C479 0.930 . S
H467 C480 0.930 . S
H468 C484 0.959 . S
H469 C484 0.959 . S
H470 C484 0.961 1_545 S
H471 C485 0.960 1_545 S
H472 C485 0.961 . S
H473 C485 0.959 . S
H474 C488 0.929 . S
H475 C489 0.931 . S
H476 C491 0.930 . S
C477 H465 0.930 . S
C477 C478 1.399 . S
C477 C482 1.399 . S
C478 C477 1.399 . S
C478 C479 1.376 1_556 S
C479 H466 0.930 . S
C479 C478 1.376 1_554 S
C479 C480 1.388 . S
C480 H467 0.930 . S
C480 C479 1.388 . S
C480 C481 1.390 . S
C481 C480 1.390 . S
C481 C482 1.394 1_554 S
C481 C487 1.465 1_545 S
C482 C477 1.399 . S
C482 C481 1.394 1_556 S
C482 C483 1.516 1_545 S
C483 C482 1.516 1_565 S
C483 C484 1.502 . S
C483 C485 1.561 . S
C483 C486 1.526 . S
C484 H468 0.959 . S
C484 H469 0.959 . S
C484 H470 0.961 1_565 S
C484 C483 1.502 . S
C485 H471 0.960 1_565 S
C485 H472 0.961 . S
C485 H473 0.959 . S
C485 C483 1.561 . S
C486 C483 1.526 . S
C486 C487 1.396 1_556 S
C486 C491 1.390 . S
C487 C481 1.465 1_565 S
C487 C486 1.396 1_554 S
C487 C488 1.399 . S
C488 H474 0.929 . S
C488 C487 1.399 . S
C488 C489 1.385 . S
C489 H475 0.931 . S
C489 C488 1.385 . S
C489 C490 1.389 . S
C490 C489 1.389 . S
C490 C491 1.387 1_554 S
C491 H476 0.930 . S
C491 C486 1.390 . S
C491 C490 1.387 1_556 S
H492 C504 0.930 . S
H493 C506 0.930 . S
H494 C507 0.930 . S
H495 C511 0.959 . S
H496 C511 0.959 . S
H497 C511 0.961 . S
H498 C512 0.960 . S
H499 C512 0.961 . S
H500 C512 0.959 . S
H501 C515 0.929 . S
H502 C516 0.931 . S
H503 C518 0.930 . S
C504 H492 0.930 . S
C504 C505 1.399 . S
C504 C509 1.399 . S
C505 C504 1.399 . S
C505 C506 1.376 . S
C506 H493 0.930 . S
C506 C505 1.376 . S
C506 C507 1.388 . S
C507 H494 0.930 . S
C507 C506 1.388 . S
C507 C508 1.390 . S
C508 C507 1.390 . S
C508 C509 1.394 . S
C508 C514 1.465 . S
C509 C504 1.399 . S
C509 C508 1.394 . S
C509 C510 1.516 1_655 S
C510 C509 1.516 1_455 S
C510 C511 1.502 . S
C510 C512 1.561 1_455 S
C510 C513 1.526 . S
C511 H495 0.959 . S
C511 H496 0.959 . S
C511 H497 0.961 . S
C511 C510 1.502 . S
C512 H498 0.960 . S
C512 H499 0.961 . S
C512 H500 0.959 . S
C512 C510 1.561 1_655 S
C513 C510 1.526 . S
C513 C514 1.396 1_455 S
C513 C518 1.390 . S
C514 C508 1.465 . S
C514 C513 1.396 1_655 S
C514 C515 1.399 . S
C515 H501 0.929 . S
C515 C514 1.399 . S
C515 C516 1.385 1_655 S
C516 H502 0.931 . S
C516 C515 1.385 1_455 S
C516 C517 1.389 . S
C517 C516 1.389 . S
C517 C518 1.387 . S
C518 H503 0.930 . S
C518 C513 1.390 . S
C518 C517 1.387 . S
H519 C531 0.930 . S
H520 C533 0.930 . S
H521 C534 0.930 . S
H522 C538 0.959 . S
H523 C538 0.959 . S
H524 C538 0.961 . S
H525 C539 0.960 . S
H526 C539 0.961 . S
H527 C539 0.959 . S
H528 C542 0.929 . S
H529 C543 0.931 . S
H530 C545 0.930 . S
C531 H519 0.930 . S
C531 C532 1.399 . S
C531 C536 1.399 . S
C532 C531 1.399 . S
C532 C533 1.376 . S
C533 H520 0.930 . S
C533 C532 1.376 . S
C533 C534 1.388 1_545 S
C534 H521 0.930 . S
C534 C533 1.388 1_565 S
C534 C535 1.390 . S
C535 C534 1.390 . S
C535 C536 1.394 1_565 S
C535 C541 1.465 . S
C536 C531 1.399 . S
C536 C535 1.394 1_545 S
C536 C537 1.516 . S
C537 C536 1.516 . S
C537 C538 1.502 . S
C537 C539 1.561 1_545 S
C537 C540 1.526 1_545 S
C538 H522 0.959 . S
C538 H523 0.959 . S
C538 H524 0.961 . S
C538 C537 1.502 . S
C539 H525 0.960 . S
C539 H526 0.961 . S
C539 H527 0.959 . S
C539 C537 1.561 1_565 S
C540 C537 1.526 1_565 S
C540 C541 1.396 . S
C540 C545 1.390 . S
C541 C535 1.465 . S
C541 C540 1.396 . S
C541 C542 1.399 . S
C542 H528 0.929 . S
C542 C541 1.399 . S
C542 C543 1.385 . S
C543 H529 0.931 . S
C543 C542 1.385 . S
C543 C544 1.389 . S
C544 C543 1.389 . S
C544 C545 1.387 . S
C545 H530 0.930 . S
C545 C540 1.390 . S
C545 C544 1.387 . S
H546 C558 0.930 . S
H547 C560 0.930 . S
H548 C561 0.930 . S
H549 C565 0.959 . S
H550 C565 0.959 . S
H551 C565 0.961 . S
H552 C566 0.960 . S
H553 C566 0.961 . S
H554 C566 0.959 . S
H555 C569 0.929 . S
H556 C570 0.931 . S
H557 C572 0.930 . S
C558 H546 0.930 . S
C558 C559 1.399 . S
C558 C563 1.399 . S
C559 C558 1.399 . S
C559 C560 1.376 . S
C560 H547 0.930 . S
C560 C559 1.376 . S
C560 C561 1.388 . S
C561 H548 0.930 . S
C561 C560 1.388 . S
C561 C562 1.390 . S
C562 C561 1.390 . S
C562 C563 1.394 . S
C562 C568 1.465 . S
C563 C558 1.399 . S
C563 C562 1.394 . S
C563 C564 1.516 . S
C564 C563 1.516 . S
C564 C565 1.502 . S
C564 C566 1.561 . S
C564 C567 1.526 . S
C565 H549 0.959 . S
C565 H550 0.959 . S
C565 H551 0.961 . S
C565 C564 1.502 . S
C566 H552 0.960 . S
C566 H553 0.961 . S
C566 H554 0.959 . S
C566 C564 1.561 . S
C567 C564 1.526 . S
C567 C568 1.396 . S
C567 C572 1.390 . S
C568 C562 1.465 . S
C568 C567 1.396 . S
C568 C569 1.399 . S
C569 H555 0.929 . S
C569 C568 1.399 . S
C569 C570 1.385 . S
C570 H556 0.931 . S
C570 C569 1.385 . S
C570 C571 1.389 . S
C571 C570 1.389 . S
C571 C572 1.387 . S
C572 H557 0.930 . S
C572 C567 1.390 . S
C572 C571 1.387 . S
H573 C585 0.930 . S
H574 C587 0.930 . S
H575 C588 0.930 . S
H576 C592 0.959 . S
H577 C592 0.959 . S
H578 C592 0.961 . S
H579 C593 0.960 1_455 S
H580 C593 0.961 . S
H581 C593 0.959 . S
H582 C596 0.929 . S
H583 C597 0.931 . S
H584 C599 0.930 . S
C585 H573 0.930 . S
C585 C586 1.399 . S
C585 C590 1.399 . S
C586 C585 1.399 . S
C586 C587 1.376 . S
C587 H574 0.930 . S
C587 C586 1.376 . S
C587 C588 1.388 1_455 S
C588 H575 0.930 . S
C588 C587 1.388 1_655 S
C588 C589 1.390 . S
C589 C588 1.390 . S
C589 C590 1.394 1_655 S
C589 C595 1.465 . S
C590 C585 1.399 . S
C590 C589 1.394 1_455 S
C590 C591 1.516 . S
C591 C590 1.516 . S
C591 C592 1.502 . S
C591 C593 1.561 1_455 S
C591 C594 1.526 1_455 S
C592 H576 0.959 . S
C592 H577 0.959 . S
C592 H578 0.961 . S
C592 C591 1.502 . S
C593 H579 0.960 1_655 S
C593 H580 0.961 . S
C593 H581 0.959 . S
C593 C591 1.561 1_655 S
C594 C591 1.526 1_655 S
C594 C595 1.396 . S
C594 C599 1.390 . S
C595 C589 1.465 . S
C595 C594 1.396 . S
C595 C596 1.399 . S
C596 H582 0.929 . S
C596 C595 1.399 . S
C596 C597 1.385 . S
C597 H583 0.931 . S
C597 C596 1.385 . S
C597 C598 1.389 . S
C598 C597 1.389 . S
C598 C599 1.387 . S
C599 H584 0.930 . S
C599 C594 1.390 . S
C599 C598 1.387 . S
H600 C612 0.930 . S
H601 C614 0.930 . S
H602 C615 0.930 . S
H603 C619 0.959 . S
H604 C619 0.959 . S
H605 C619 0.961 . S
H606 C620 0.960 . S
H607 C620 0.961 . S
H608 C620 0.959 . S
H609 C623 0.929 . S
H610 C624 0.931 . S
H611 C626 0.930 . S
C612 H600 0.930 . S
C612 C613 1.399 1_565 S
C612 C617 1.399 . S
C613 C612 1.399 1_545 S
C613 C614 1.376 . S
C614 H601 0.930 . S
C614 C613 1.376 . S
C614 C615 1.388 . S
C615 H602 0.930 . S
C615 C614 1.388 . S
C615 C616 1.390 . S
C616 C615 1.390 . S
C616 C617 1.394 1_545 S
C616 C622 1.465 . S
C617 C612 1.399 . S
C617 C616 1.394 1_565 S
C617 C618 1.516 . S
C618 C617 1.516 . S
C618 C619 1.502 . S
C618 C620 1.561 . S
C618 C621 1.526 . S
C619 H603 0.959 . S
C619 H604 0.959 . S
C619 H605 0.961 . S
C619 C618 1.502 . S
C620 H606 0.960 . S
C620 H607 0.961 . S
C620 H608 0.959 . S
C620 C618 1.561 . S
C621 C618 1.526 . S
C621 C622 1.396 1_565 S
C621 C626 1.390 . S
C622 C616 1.465 . S
C622 C621 1.396 1_545 S
C622 C623 1.399 . S
C623 H609 0.929 . S
C623 C622 1.399 . S
C623 C624 1.385 . S
C624 H610 0.931 . S
C624 C623 1.385 . S
C624 C625 1.389 1_545 S
C625 C624 1.389 1_565 S
C625 C626 1.387 . S
C626 H611 0.930 . S
C626 C621 1.390 . S
C626 C625 1.387 . S
H627 C639 0.930 . S
H628 C641 0.930 . S
H629 C642 0.930 . S
H630 C646 0.959 . S
H631 C646 0.959 . S
H632 C646 0.961 . S
H633 C647 0.960 . S
H634 C647 0.961 . S
H635 C647 0.959 . S
H636 C650 0.929 . S
H637 C651 0.931 . S
H638 C653 0.930 . S
C639 H627 0.930 . S
C639 C640 1.399 . S
C639 C644 1.399 . S
C640 C639 1.399 . S
C640 C641 1.376 . S
C641 H628 0.930 . S
C641 C640 1.376 . S
C641 C642 1.388 . S
C642 H629 0.930 . S
C642 C641 1.388 . S
C642 C643 1.390 . S
C643 C642 1.390 . S
C643 C644 1.394 . S
C643 C649 1.465 . S
C644 C639 1.399 . S
C644 C643 1.394 . S
C644 C645 1.516 . S
C645 C644 1.516 . S
C645 C646 1.502 . S
C645 C647 1.561 . S
C645 C648 1.526 . S
C646 H630 0.959 . S
C646 H631 0.959 . S
C646 H632 0.961 . S
C646 C645 1.502 . S
C647 H633 0.960 . S
C647 H634 0.961 . S
C647 H635 0.959 . S
C647 C645 1.561 . S
C648 C645 1.526 . S
C648 C649 1.396 . S
C648 C653 1.390 . S
C649 C643 1.465 . S
C649 C648 1.396 . S
C649 C650 1.399 . S
C650 H636 0.929 . S
C650 C649 1.399 . S
C650 C651 1.385 . S
C651 H637 0.931 . S
C651 C650 1.385 . S
C651 C652 1.389 . S
C652 C651 1.389 . S
C652 C653 1.387 . S
C653 H638 0.930 . S
C653 C648 1.390 . S
C653 C652 1.387 . S
H654 C666 0.930 . S
H655 C668 0.930 . S
H656 C669 0.930 . S
H657 C673 0.959 . S
H658 C673 0.959 . S
H659 C673 0.961 . S
H660 C674 0.960 . S
H661 C674 0.961 . S
H662 C674 0.959 . S
H663 C677 0.929 . S
H664 C678 0.931 . S
H665 C680 0.930 . S
C666 H654 0.930 . S
C666 C667 1.399 . S
C666 C671 1.399 . S
C667 C666 1.399 . S
C667 C668 1.376 . S
C668 H655 0.930 . S
C668 C667 1.376 . S
C668 C669 1.388 . S
C669 H656 0.930 . S
C669 C668 1.388 . S
C669 C670 1.390 . S
C670 C669 1.390 . S
C670 C671 1.394 . S
C670 C676 1.465 . S
C671 C666 1.399 . S
C671 C670 1.394 . S
C671 C672 1.516 . S
C672 C671 1.516 . S
C672 C673 1.502 . S
C672 C674 1.561 . S
C672 C675 1.526 . S
C673 H657 0.959 . S
C673 H658 0.959 . S
C673 H659 0.961 . S
C673 C672 1.502 . S
C674 H660 0.960 . S
C674 H661 0.961 . S
C674 H662 0.959 . S
C674 C672 1.561 . S
C675 C672 1.526 . S
C675 C676 1.396 . S
C675 C680 1.390 . S
C676 C670 1.465 . S
C676 C675 1.396 . S
C676 C677 1.399 . S
C677 H663 0.929 . S
C677 C676 1.399 . S
C677 C678 1.385 . S
C678 H664 0.931 . S
C678 C677 1.385 . S
C678 C679 1.389 . S
C679 C678 1.389 . S
C679 C680 1.387 . S
C680 H665 0.930 . S
C680 C675 1.390 . S
C680 C679 1.387 . S
H681 C693 0.930 . S
H682 C695 0.930 . S
H683 C696 0.930 . S
H684 C700 0.959 . S
H685 C700 0.959 . S
H686 C700 0.961 . S
H687 C701 0.960 . S
H688 C701 0.961 . S
H689 C701 0.959 . S
H690 C704 0.929 . S
H691 C705 0.931 . S
H692 C707 0.930 . S
C693 H681 0.930 . S
C693 C694 1.399 . S
C693 C698 1.399 . S
C694 C693 1.399 . S
C694 C695 1.376 . S
C695 H682 0.930 . S
C695 C694 1.376 . S
C695 C696 1.388 . S
C696 H683 0.930 . S
C696 C695 1.388 . S
C696 C697 1.390 . S
C697 C696 1.390 . S
C697 C698 1.394 . S
C697 C703 1.465 . S
C698 C693 1.399 . S
C698 C697 1.394 . S
C698 C699 1.516 . S
C699 C698 1.516 . S
C699 C700 1.502 . S
C699 C701 1.561 . S
C699 C702 1.526 . S
C700 H684 0.959 . S
C700 H685 0.959 . S
C700 H686 0.961 . S
C700 C699 1.502 . S
C701 H687 0.960 . S
C701 H688 0.961 . S
C701 H689 0.959 . S
C701 C699 1.561 . S
C702 C699 1.526 . S
C702 C703 1.396 . S
C702 C707 1.390 . S
C703 C697 1.465 . S
C703 C702 1.396 . S
C703 C704 1.399 . S
C704 H690 0.929 . S
C704 C703 1.399 . S
C704 C705 1.385 . S
C705 H691 0.931 . S
C705 C704 1.385 . S
C705 C706 1.389 . S
C706 C705 1.389 . S
C706 C707 1.387 . S
C707 H692 0.930 . S
C707 C702 1.390 . S
C707 C706 1.387 . S
H708 C720 0.930 . S
H709 C722 0.930 . S
H710 C723 0.930 . S
H711 C727 0.959 . S
H712 C727 0.959 . S
H713 C727 0.961 . S
H714 C728 0.960 . S
H715 C728 0.961 . S
H716 C728 0.959 . S
H717 C731 0.929 . S
H718 C732 0.931 . S
H719 C734 0.930 . S
C720 H708 0.930 . S
C720 C721 1.399 . S
C720 C725 1.399 . S
C721 C720 1.399 . S
C721 C722 1.376 . S
C722 H709 0.930 . S
C722 C721 1.376 . S
C722 C723 1.388 . S
C723 H710 0.930 . S
C723 C722 1.388 . S
C723 C724 1.390 . S
C724 C723 1.390 . S
C724 C725 1.394 . S
C724 C730 1.465 . S
C725 C720 1.399 . S
C725 C724 1.394 . S
C725 C726 1.516 . S
C726 C725 1.516 . S
C726 C727 1.502 . S
C726 C728 1.561 . S
C726 C729 1.526 . S
C727 H711 0.959 . S
C727 H712 0.959 . S
C727 H713 0.961 . S
C727 C726 1.502 . S
C728 H714 0.960 . S
C728 H715 0.961 . S
C728 H716 0.959 . S
C728 C726 1.561 . S
C729 C726 1.526 . S
C729 C730 1.396 . S
C729 C734 1.390 . S
C730 C724 1.465 . S
C730 C729 1.396 . S
C730 C731 1.399 . S
C731 H717 0.929 . S
C731 C730 1.399 . S
C731 C732 1.385 . S
C732 H718 0.931 . S
C732 C731 1.385 . S
C732 C733 1.389 . S
C733 C732 1.389 . S
C733 C734 1.387 . S
C734 H719 0.930 . S
C734 C729 1.390 . S
C734 C733 1.387 . S
H735 C747 0.930 . S
H736 C749 0.930 . S
H737 C750 0.930 . S
H738 C754 0.959 . S
H739 C754 0.959 . S
H740 C754 0.961 . S
H741 C755 0.960 . S
H742 C755 0.961 . S
H743 C755 0.959 . S
H744 C758 0.929 . S
H745 C759 0.931 . S
H746 C761 0.930 . S
C747 H735 0.930 . S
C747 C748 1.399 . S
C747 C752 1.399 . S
C748 C747 1.399 . S
C748 C749 1.376 . S
C749 H736 0.930 . S
C749 C748 1.376 . S
C749 C750 1.388 . S
C750 H737 0.930 . S
C750 C749 1.388 . S
C750 C751 1.390 . S
C751 C750 1.390 . S
C751 C752 1.394 . S
C751 C757 1.465 . S
C752 C747 1.399 . S
C752 C751 1.394 . S
C752 C753 1.516 . S
C753 C752 1.516 . S
C753 C754 1.502 . S
C753 C755 1.561 . S
C753 C756 1.526 . S
C754 H738 0.959 . S
C754 H739 0.959 . S
C754 H740 0.961 . S
C754 C753 1.502 . S
C755 H741 0.960 . S
C755 H742 0.961 . S
C755 H743 0.959 . S
C755 C753 1.561 . S
C756 C753 1.526 . S
C756 C757 1.396 . S
C756 C761 1.390 . S
C757 C751 1.465 . S
C757 C756 1.396 . S
C757 C758 1.399 . S
C758 H744 0.929 . S
C758 C757 1.399 . S
C758 C759 1.385 . S
C759 H745 0.931 . S
C759 C758 1.385 . S
C759 C760 1.389 . S
C760 C759 1.389 . S
C760 C761 1.387 . S
C761 H746 0.930 . S
C761 C756 1.390 . S
C761 C760 1.387 . S
H762 C774 0.930 . S
H763 C776 0.930 . S
H764 C777 0.930 . S
H765 C781 0.959 . S
H766 C781 0.959 . S
H767 C781 0.961 . S
H768 C782 0.960 . S
H769 C782 0.961 . S
H770 C782 0.959 . S
H771 C785 0.929 . S
H772 C786 0.931 . S
H773 C788 0.930 . S
C774 H762 0.930 . S
C774 C775 1.399 . S
C774 C779 1.399 . S
C775 C774 1.399 . S
C775 C776 1.376 . S
C776 H763 0.930 . S
C776 C775 1.376 . S
C776 C777 1.388 . S
C777 H764 0.930 . S
C777 C776 1.388 . S
C777 C778 1.390 . S
C778 C777 1.390 . S
C778 C779 1.394 . S
C778 C784 1.465 . S
C779 C774 1.399 . S
C779 C778 1.394 . S
C779 C780 1.516 . S
C780 C779 1.516 . S
C780 C781 1.502 . S
C780 C782 1.561 . S
C780 C783 1.526 . S
C781 H765 0.959 . S
C781 H766 0.959 . S
C781 H767 0.961 . S
C781 C780 1.502 . S
C782 H768 0.960 . S
C782 H769 0.961 . S
C782 H770 0.959 . S
C782 C780 1.561 . S
C783 C780 1.526 . S
C783 C784 1.396 . S
C783 C788 1.390 . S
C784 C778 1.465 . S
C784 C783 1.396 . S
C784 C785 1.399 . S
C785 H771 0.929 . S
C785 C784 1.399 . S
C785 C786 1.385 . S
C786 H772 0.931 . S
C786 C785 1.385 . S
C786 C787 1.389 . S
C787 C786 1.389 . S
C787 C788 1.387 . S
C788 H773 0.930 . S
C788 C783 1.390 . S
C788 C787 1.387 . S
H789 C801 0.930 . S
H790 C803 0.930 . S
H791 C804 0.930 . S
H792 C808 0.959 . S
H793 C808 0.959 . S
H794 C808 0.961 . S
H795 C809 0.960 . S
H796 C809 0.961 . S
H797 C809 0.959 . S
H798 C812 0.929 . S
H799 C813 0.931 . S
H800 C815 0.930 . S
C801 H789 0.930 . S
C801 C802 1.399 . S
C801 C806 1.399 . S
C802 C801 1.399 . S
C802 C803 1.376 . S
C803 H790 0.930 . S
C803 C802 1.376 . S
C803 C804 1.388 . S
C804 H791 0.930 . S
C804 C803 1.388 . S
C804 C805 1.390 . S
C805 C804 1.390 . S
C805 C806 1.394 . S
C805 C811 1.465 . S
C806 C801 1.399 . S
C806 C805 1.394 . S
C806 C807 1.516 . S
C807 C806 1.516 . S
C807 C808 1.502 . S
C807 C809 1.561 . S
C807 C810 1.526 . S
C808 H792 0.959 . S
C808 H793 0.959 . S
C808 H794 0.961 . S
C808 C807 1.502 . S
C809 H795 0.960 . S
C809 H796 0.961 . S
C809 H797 0.959 . S
C809 C807 1.561 . S
C810 C807 1.526 . S
C810 C811 1.396 . S
C810 C815 1.390 . S
C811 C805 1.465 . S
C811 C810 1.396 . S
C811 C812 1.399 . S
C812 H798 0.929 . S
C812 C811 1.399 . S
C812 C813 1.385 . S
C813 H799 0.931 . S
C813 C812 1.385 . S
C813 C814 1.389 . S
C814 C813 1.389 . S
C814 C815 1.387 . S
C815 H800 0.930 . S
C815 C810 1.390 . S
C815 C814 1.387 . S
C181 C3 1.583 . S
C193 C87 1.588 . S
C208 C17 1.562 . S
C220 C101 1.558 . S
C235 C31 1.472 . S
C247 C115 1.471 . S
C262 C129 1.571 . S
C274 C45 1.565 . S
C289 C59 1.583 . S
C301 C143 1.578 . S
C316 C157 1.495 . S
C328 C73 1.482 . S
C343 C7 1.103 . S
C355 C133 1.052 . S
C370 C21 0.969 . S
C382 C147 1.017 . S
C397 C161 1.062 . S
C409 C35 0.976 . S
C424 C91 0.975 . S
C436 C49 1.046 . S
C451 C63 0.982 . S
C463 C105 0.984 . S
C478 C77 0.910 . S
C490 C119 0.983 . S
C505 C162 1.701 . S
C517 C8 1.718 . S
C532 C22 1.904 . S
C544 C92 1.881 . S
C559 C36 1.727 . S
C571 C106 1.690 . S
C586 C120 1.735 . S
C598 C50 1.702 . S
C613 C134 1.878 . S
C625 C64 1.905 . S
C640 C78 1.736 . S
C652 C148 1.700 . S
C667 C9 1.023 . S
C679 C149 0.919 . S
C694 C163 1.007 . S
C706 C23 1.155 . S
C721 C93 1.017 . S
C733 C37 1.151 . S
C748 C51 0.968 . S
C760 C107 0.986 . S
C775 C121 1.052 . S
C787 C65 1.029 . S
C802 C135 0.994 . S
C814 C79 1.094 . S
