# Generated by pormake.
# Topology vba, (4)-cn, num edge types: 1
# Building blocks:
#     Node 0, Type 0, BuildingBlock: QUQFOY_clean_sbu_1, # of connection points: 4
#     Node 1, Type 0, BuildingBlock: QUQFOY_clean_sbu_1, # of connection points: 4
#     Node 2, Type 0, BuildingBlock: QUQFOY_clean_sbu_1, # of connection points: 4
#     Node 3, Type 0, BuildingBlock: QUQFOY_clean_sbu_1, # of connection points: 4
#     Node 4, Type 0, BuildingBlock: QUQFOY_clean_sbu_1, # of connection points: 4
#     Node 5, Type 0, BuildingBlock: QUQFOY_clean_sbu_1, # of connection points: 4
#     Node 6, Type 0, BuildingBlock: QUQFOY_clean_sbu_1, # of connection points: 4
#     Node 7, Type 0, BuildingBlock: QUQFOY_clean_sbu_1, # of connection points: 4
#     Node 8, Type 0, BuildingBlock: QUQFOY_clean_sbu_1, # of connection points: 4
#     Node 9, Type 0, BuildingBlock: QUQFOY_clean_sbu_1, # of connection points: 4
#     Node 10, Type 0, BuildingBlock: QUQFOY_clean_sbu_1, # of connection points: 4
#     Node 11, Type 0, BuildingBlock: QUQFOY_clean_sbu_1, # of connection points: 4
#     Node 12, Type 0, BuildingBlock: QUQFOY_clean_sbu_1, # of connection points: 4
#     Node 13, Type 0, BuildingBlock: QUQFOY_clean_sbu_1, # of connection points: 4
#     Node 14, Type 0, BuildingBlock: QUQFOY_clean_sbu_1, # of connection points: 4
#     Node 15, Type 0, BuildingBlock: QUQFOY_clean_sbu_1, # of connection points: 4
#     Node 16, Type 0, BuildingBlock: QUQFOY_clean_sbu_1, # of connection points: 4
#     Node 17, Type 0, BuildingBlock: QUQFOY_clean_sbu_1, # of connection points: 4
#     Node 18, Type 0, BuildingBlock: QUQFOY_clean_sbu_1, # of connection points: 4
#     Node 19, Type 0, BuildingBlock: QUQFOY_clean_sbu_1, # of connection points: 4
#     Node 20, Type 0, BuildingBlock: QUQFOY_clean_sbu_1, # of connection points: 4
#     Node 21, Type 0, BuildingBlock: QUQFOY_clean_sbu_1, # of connection points: 4
#     Node 22, Type 0, BuildingBlock: QUQFOY_clean_sbu_1, # of connection points: 4
#     Node 23, Type 0, BuildingBlock: QUQFOY_clean_sbu_1, # of connection points: 4
#     Node 24, Type 0, BuildingBlock: QUQFOY_clean_sbu_1, # of connection points: 4
#     Node 25, Type 0, BuildingBlock: QUQFOY_clean_sbu_1, # of connection points: 4
#     Node 26, Type 0, BuildingBlock: QUQFOY_clean_sbu_1, # of connection points: 4
#     Node 27, Type 0, BuildingBlock: QUQFOY_clean_sbu_1, # of connection points: 4
#     Node 28, Type 0, BuildingBlock: QUQFOY_clean_sbu_1, # of connection points: 4
#     Node 29, Type 0, BuildingBlock: QUQFOY_clean_sbu_1, # of connection points: 4
#     Node 30, Type 0, BuildingBlock: QUQFOY_clean_sbu_1, # of connection points: 4
#     Node 31, Type 0, BuildingBlock: QUQFOY_clean_sbu_1, # of connection points: 4
#     Edge 32, Type (0, 0), None
#     Edge 33, Type (0, 0), None
#     Edge 34, Type (0, 0), None
#     Edge 35, Type (0, 0), None
#     Edge 36, Type (0, 0), None
#     Edge 37, Type (0, 0), None
#     Edge 38, Type (0, 0), None
#     Edge 39, Type (0, 0), None
#     Edge 40, Type (0, 0), None
#     Edge 41, Type (0, 0), None
#     Edge 42, Type (0, 0), None
#     Edge 43, Type (0, 0), None
#     Edge 44, Type (0, 0), None
#     Edge 45, Type (0, 0), None
#     Edge 46, Type (0, 0), None
#     Edge 47, Type (0, 0), None
#     Edge 48, Type (0, 0), None
#     Edge 49, Type (0, 0), None
#     Edge 50, Type (0, 0), None
#     Edge 51, Type (0, 0), None
#     Edge 52, Type (0, 0), None
#     Edge 53, Type (0, 0), None
#     Edge 54, Type (0, 0), None
#     Edge 55, Type (0, 0), None
#     Edge 56, Type (0, 0), None
#     Edge 57, Type (0, 0), None
#     Edge 58, Type (0, 0), None
#     Edge 59, Type (0, 0), None
#     Edge 60, Type (0, 0), None
#     Edge 61, Type (0, 0), None
#     Edge 62, Type (0, 0), None
#     Edge 63, Type (0, 0), None
#     Edge 64, Type (0, 0), None
#     Edge 65, Type (0, 0), None
#     Edge 66, Type (0, 0), None
#     Edge 67, Type (0, 0), None
#     Edge 68, Type (0, 0), None
#     Edge 69, Type (0, 0), None
#     Edge 70, Type (0, 0), None
#     Edge 71, Type (0, 0), None
#     Edge 72, Type (0, 0), None
#     Edge 73, Type (0, 0), None
#     Edge 74, Type (0, 0), None
#     Edge 75, Type (0, 0), None
#     Edge 76, Type (0, 0), None
#     Edge 77, Type (0, 0), None
#     Edge 78, Type (0, 0), None
#     Edge 79, Type (0, 0), None
#     Edge 80, Type (0, 0), None
#     Edge 81, Type (0, 0), None
#     Edge 82, Type (0, 0), None
#     Edge 83, Type (0, 0), None
#     Edge 84, Type (0, 0), None
#     Edge 85, Type (0, 0), None
#     Edge 86, Type (0, 0), None
#     Edge 87, Type (0, 0), None
#     Edge 88, Type (0, 0), None
#     Edge 89, Type (0, 0), None
#     Edge 90, Type (0, 0), None
#     Edge 91, Type (0, 0), None
#     Edge 92, Type (0, 0), None
#     Edge 93, Type (0, 0), None
#     Edge 94, Type (0, 0), None
#     Edge 95, Type (0, 0), None
# Relax obj value: 0.141
# Max RMSD: 0.363
# Mean RMSD: 0.350
data_MOF--net-vba--node1-QUQFOY_clean_sbu_1--edge1-none
_symmetry_space_group_name_H-M    P1
_symmetry_Int_Tables_number       1
_symmetry_cell_setting            triclinic
loop_
_symmetry_equiv_pos_as_xyz
'x, y, z'
_cell_length_a     8.9414178
_cell_length_b     46.205075
_cell_length_c     24.673302
_cell_angle_alpha  90.00317
_cell_angle_beta   89.997396
_cell_angle_gamma 89.926761
loop_
_atom_site_label
_atom_site_type_symbol
_atom_site_fract_x
_atom_site_fract_y
_atom_site_fract_z
_atom_type_partial_charge
O0 O 0.47672 0.09756 0.97171 0.0
Cd1 Cd 0.42945 0.08643 0.04539 0.0
Cd2 Cd 0.16267 0.07576 0.04385 0.0
O3 O 0.2621 0.07398 0.96084 0.0
O4 O 0.58886 0.05672 0.06364 0.0
O5 O 0.36576 0.04401 1.03335 0.0
C6 C 0.50132 0.03713 0.04308 0.0
C7 C 0.16506 0.05407 0.13314 0.0
C8 C 0.3842 0.08496 0.94138 0.0
C9 C 0.1719 0.13201 0.07331 0.0
O10 O 0.07746 0.11482 0.05317 0.0
O11 O 0.30918 0.12381 0.07944 0.0
O12 O 0.06039 0.04835 0.09838 0.0
O13 O 0.2747 0.06938 0.11616 0.0
O14 O 0.82707 0.19738 0.97172 0.0
Cd15 Cd 0.87434 0.2085 0.04541 0.0
Cd16 Cd 0.14116 0.21916 0.04386 0.0
O17 O 0.04174 0.22093 0.96085 0.0
O18 O 0.71499 0.23823 0.06365 0.0
O19 O 0.93815 0.25092 1.03337 0.0
C20 C 0.8026 0.25781 0.04309 0.0
C21 C 0.13882 0.24085 0.13315 0.0
C22 C 0.91962 0.20997 0.94139 0.0
C23 C 0.13185 0.16292 0.07331 0.0
O24 O 0.22634 0.18009 0.05318 0.0
O25 O 0.99457 0.17111 0.07944 0.0
O26 O 0.24349 0.24656 0.09837 0.0
O27 O 0.02915 0.22554 0.11618 0.0
O28 O 0.48126 0.19754 0.35317 0.0
Cd29 Cd 0.43124 0.20837 0.27956 0.0
Cd30 Cd 0.16432 0.21914 0.2815 0.0
O31 O 0.26546 0.2208 0.36431 0.0
O32 O 0.58863 0.23815 0.25975 0.0
O33 O 0.36697 0.25081 0.29158 0.0
C34 C 0.50157 0.25776 0.28062 0.0
C35 C 0.16655 0.24076 0.19213 0.0
C36 C 0.38838 0.21002 0.38361 0.0
C37 C 0.17233 0.1629 0.25249 0.0
O38 O 0.078 0.18021 0.27245 0.0
O39 O 0.30973 0.17095 0.24633 0.0
O40 O 0.06242 0.24672 0.227 0.0
O41 O 0.27563 0.22521 0.20896 0.0
O42 O 0.82285 0.09742 0.35319 0.0
Cd43 Cd 0.87283 0.08658 0.27958 0.0
Cd44 Cd 0.13976 0.0758 0.28149 0.0
O45 O 0.03866 0.07416 0.36431 0.0
O46 O 0.71542 0.0568 0.25979 0.0
O47 O 0.93708 0.04414 0.2916 0.0
C48 C 0.80248 0.03719 0.28065 0.0
C49 C 0.13738 0.05416 0.19213 0.0
C50 C 0.91575 0.08494 0.38362 0.0
C51 C 0.13179 0.13203 0.25247 0.0
O52 O 0.22615 0.11472 0.27241 0.0
O53 O 0.99437 0.12399 0.24634 0.0
O54 O 0.24152 0.0482 0.22698 0.0
O55 O 0.02836 0.06973 0.20897 0.0
O56 O 0.57729 0.94739 0.10147 0.0
Cd57 Cd 0.62455 0.95851 1.02779 0.0
Cd58 Cd 0.89133 0.96919 1.02933 0.0
O59 O 0.7919 0.97096 0.11235 0.0
O60 O 0.46514 0.98823 1.00954 0.0
O61 O 0.68824 1.00094 0.03983 0.0
C62 C 0.55268 1.00781 1.0301 0.0
C63 C 0.88894 0.99088 0.94005 0.0
C64 C 0.6698 0.95999 0.13181 0.0
C65 C 0.8821 0.91294 0.99988 0.0
O66 O 0.97654 0.93012 1.02002 0.0
O67 O 0.74482 0.92113 0.99374 0.0
O68 O 0.99361 0.9966 0.97481 0.0
O69 O 0.7793 0.97556 0.95702 0.0
O70 O 0.22693 0.84757 0.10146 0.0
Cd71 Cd 0.17966 0.83644 1.02777 0.0
Cd72 Cd 0.91284 0.82579 1.02932 0.0
O73 O 1.01226 0.82401 0.11233 0.0
O74 O 0.33901 0.80671 1.00954 0.0
O75 O 0.11585 0.79402 0.03982 0.0
C76 C 0.2514 0.78714 1.0301 0.0
C77 C 0.91518 0.80409 0.94004 0.0
C78 C 0.13438 0.83498 0.13179 0.0
C79 C 0.92215 0.88203 0.99987 0.0
O80 O 0.82766 0.86485 1.02001 0.0
O81 O 0.05943 0.87383 0.99374 0.0
O82 O 0.81051 0.79838 0.97481 0.0
O83 O 1.02485 0.8194 0.957 0.0
O84 O 0.57274 0.8474 0.72002 0.0
Cd85 Cd 0.62276 0.83657 0.79362 0.0
Cd86 Cd 0.88968 0.8258 0.79168 0.0
O87 O 0.78854 0.82414 0.70887 0.0
O88 O 0.46537 0.8068 0.81344 0.0
O89 O 0.68703 0.79413 0.78161 0.0
C90 C 0.55243 0.78718 0.79257 0.0
C91 C 0.88745 0.80418 0.88105 0.0
C92 C 0.66562 0.83492 0.68957 0.0
C93 C 0.88167 0.88204 0.8207 0.0
O94 O 0.976 0.86473 0.80074 0.0
O95 O 0.74427 0.87399 0.82686 0.0
O96 O 0.99158 0.79823 0.84618 0.0
O97 O 0.77837 0.81973 0.86422 0.0
O98 O 0.23115 0.94753 0.72 0.0
Cd99 Cd 0.18117 0.95837 0.7936 0.0
Cd100 Cd 0.91424 0.96914 0.7917 0.0
O101 O 1.01535 0.97079 0.70887 0.0
O102 O 0.33859 0.98814 0.8134 0.0
O103 O 0.11692 1.0008 0.78158 0.0
C104 C 0.25153 1.00775 0.79253 0.0
C105 C 0.91662 0.99078 0.88106 0.0
C106 C 0.13825 0.96 0.68956 0.0
C107 C 0.92221 0.91291 0.82071 0.0
O108 O 0.82785 0.93022 0.80077 0.0
O109 O 0.05964 0.92095 0.82684 0.0
O110 O 0.81249 0.99674 0.8462 0.0
O111 O 1.02564 0.97521 0.86422 0.0
O112 O 0.47688 0.59756 0.47174 0.0
Cd113 Cd 0.42956 0.58644 0.54542 0.0
Cd114 Cd 0.16277 0.57578 0.54386 0.0
O115 O 0.26222 0.574 0.46085 0.0
O116 O 0.58892 0.55671 0.56366 0.0
O117 O 0.3658 0.54402 0.53336 0.0
C118 C 0.50135 0.53713 0.54309 0.0
C119 C 0.16506 0.55408 0.63314 0.0
C120 C 0.38434 0.58497 0.4414 0.0
C121 C 0.17206 0.63202 0.57332 0.0
O122 O 0.0776 0.61485 0.55318 0.0
O123 O 0.30933 0.62382 0.57945 0.0
O124 O 0.0604 0.54837 0.59836 0.0
O125 O 0.27474 0.56939 0.61618 0.0
O126 O 0.82729 0.69739 0.47172 0.0
Cd127 Cd 0.87453 0.70851 0.54541 0.0
Cd128 Cd 0.14133 0.71918 0.54386 0.0
O129 O 0.04191 0.72096 0.46085 0.0
O130 O 0.71511 0.73823 0.56365 0.0
O131 O 0.93825 0.75093 0.53338 0.0
C132 C 0.80269 0.75781 0.54309 0.0
C133 C 0.13899 0.74087 0.63315 0.0
C134 C 0.91981 0.70999 0.44139 0.0
C135 C 0.13203 0.66294 0.57332 0.0
O136 O 0.2265 0.68011 0.55317 0.0
O137 O 0.99475 0.67113 0.57946 0.0
O138 O 0.24367 0.74658 0.59839 0.0
O139 O 0.02932 0.72556 0.61618 0.0
O140 O 0.48121 0.69752 0.85319 0.0
Cd141 Cd 0.43125 0.70836 0.77958 0.0
Cd142 Cd 0.16434 0.71914 0.7815 0.0
O143 O 0.26543 0.72079 0.86432 0.0
O144 O 0.58869 0.73812 0.75979 0.0
O145 O 0.36703 0.75079 0.7916 0.0
C146 C 0.50164 0.75774 0.78066 0.0
C147 C 0.16669 0.74077 0.69214 0.0
C148 C 0.38832 0.71 0.88363 0.0
C149 C 0.17227 0.6629 0.75249 0.0
O150 O 0.07794 0.68021 0.77243 0.0
O151 O 0.30969 0.67094 0.74635 0.0
O152 O 0.06256 0.74673 0.72701 0.0
O153 O 0.27572 0.7252 0.70897 0.0
O154 O 0.82271 0.59741 0.85318 0.0
Cd155 Cd 0.8727 0.58658 0.77957 0.0
Cd156 Cd 0.13963 0.5758 0.78149 0.0
O157 O 0.0385 0.57414 0.86431 0.0
O158 O 0.71528 0.55681 0.75976 0.0
O159 O 0.93694 0.54414 0.79157 0.0
C160 C 0.80233 0.53719 0.78062 0.0
C161 C 0.13734 0.55417 0.69212 0.0
C162 C 0.91559 0.58493 0.88361 0.0
C163 C 0.13169 0.63203 0.75248 0.0
O164 O 0.22602 0.61472 0.77244 0.0
O165 O 0.99427 0.62399 0.74634 0.0
O166 O 0.24145 0.54821 0.72699 0.0
O167 O 0.02829 0.56974 0.70896 0.0
O168 O 0.57712 0.44738 0.60145 0.0
Cd169 Cd 0.62444 0.45851 0.52777 0.0
Cd170 Cd 0.89124 0.46916 0.52933 0.0
O171 O 0.79178 0.47094 0.61233 0.0
O172 O 0.46508 0.48823 0.50953 0.0
O173 O 0.6882 0.50093 0.53982 0.0
C174 C 0.55265 0.50781 0.5301 0.0
C175 C 0.88894 0.49086 0.44005 0.0
C176 C 0.66966 0.45997 0.63179 0.0
C177 C 0.88194 0.41292 0.49987 0.0
O178 O 0.9764 0.4301 0.52001 0.0
O179 O 0.74467 0.42112 0.49373 0.0
O180 O 0.9936 0.49657 0.47482 0.0
O181 O 0.77926 0.47555 0.45701 0.0
O182 O 0.22671 0.34756 0.60146 0.0
Cd183 Cd 0.17948 0.33643 0.52777 0.0
Cd184 Cd 0.91267 0.32576 0.52932 0.0
O185 O 1.01209 0.32398 0.61233 0.0
O186 O 0.33889 0.30671 0.50954 0.0
O187 O 0.11575 0.29401 0.5398 0.0
C188 C 0.25132 0.28713 0.53009 0.0
C189 C 0.91501 0.30407 0.44003 0.0
C190 C 0.13419 0.33496 0.63179 0.0
C191 C 0.92197 0.38201 0.49986 0.0
O192 O 0.8275 0.36483 0.52001 0.0
O193 O 0.05925 0.37381 0.49372 0.0
O194 O 0.81033 0.29836 0.4748 0.0
O195 O 1.02468 0.31938 0.45701 0.0
O196 O 0.57279 0.34742 0.21999 0.0
Cd197 Cd 0.62275 0.33659 0.2936 0.0
Cd198 Cd 0.88966 0.3258 0.29168 0.0
O199 O 0.78857 0.32416 0.20886 0.0
O200 O 0.46531 0.30682 0.3134 0.0
O201 O 0.68697 0.29415 0.28158 0.0
C202 C 0.55236 0.2872 0.29253 0.0
C203 C 0.88731 0.30417 0.38104 0.0
C204 C 0.66568 0.33494 0.18955 0.0
C205 C 0.88173 0.38204 0.3207 0.0
O206 O 0.97606 0.36473 0.30075 0.0
O207 O 0.74431 0.374 0.32684 0.0
O208 O 0.99144 0.29821 0.34618 0.0
O209 O 0.77828 0.31974 0.36421 0.0
O210 O 0.23129 0.44753 0.22 0.0
Cd211 Cd 0.1813 0.45836 0.29362 0.0
Cd212 Cd 0.91437 0.46915 0.29169 0.0
O213 O 1.01551 0.4708 0.20888 0.0
O214 O 0.33872 0.48813 0.31343 0.0
O215 O 0.11706 0.5008 0.28161 0.0
C216 C 0.25167 0.50775 0.29256 0.0
C217 C 0.91667 0.49077 0.38106 0.0
C218 C 0.13841 0.46001 0.18957 0.0
C219 C 0.92231 0.41291 0.3207 0.0
O220 O 0.82798 0.43022 0.30075 0.0
O221 O 0.05973 0.42095 0.32685 0.0
O222 O 0.81255 0.49673 0.34619 0.0
O223 O 1.02571 0.47521 0.36422 0.0
O224 O 0.97691 0.09756 0.47173 0.0
Cd225 Cd 0.92957 0.08644 0.54541 0.0
Cd226 Cd 0.66277 0.07578 0.54385 0.0
O227 O 0.76225 0.074 0.46084 0.0
O228 O 0.08892 0.05671 0.56366 0.0
O229 O 0.8658 0.04402 0.53336 0.0
C230 C 1.00135 0.03713 0.54309 0.0
C231 C 0.66506 0.05408 0.63313 0.0
C232 C 0.88438 0.08497 0.44139 0.0
C233 C 0.67205 0.13203 0.5733 0.0
O234 O 0.57759 0.11485 0.55317 0.0
O235 O 0.80932 0.12383 0.57944 0.0
O236 O 0.56041 0.04837 0.59835 0.0
O237 O 0.77474 0.06939 0.61617 0.0
O238 O 0.32725 0.19739 0.47172 0.0
Cd239 Cd 0.37449 0.20851 0.5454 0.0
Cd240 Cd 0.64129 0.21918 0.54385 0.0
O241 O 0.54186 0.22096 0.46084 0.0
O242 O 0.21508 0.23823 0.56364 0.0
O243 O 0.43821 0.25093 0.53337 0.0
C244 C 0.30265 0.25781 0.54308 0.0
C245 C 0.63894 0.24087 0.63314 0.0
C246 C 0.41976 0.20999 0.44138 0.0
C247 C 0.63201 0.16294 0.57331 0.0
O248 O 0.72647 0.18011 0.55316 0.0
O249 O 0.49473 0.17113 0.57945 0.0
O250 O 0.74362 0.24658 0.59838 0.0
O251 O 0.52928 0.22556 0.61617 0.0
O252 O 0.98117 0.19752 0.85318 0.0
Cd253 Cd 0.9312 0.20836 0.77957 0.0
Cd254 Cd 0.66429 0.21914 0.78149 0.0
O255 O 0.76537 0.22079 0.86431 0.0
O256 O 0.08863 0.23813 0.75978 0.0
O257 O 0.86697 0.2508 0.7916 0.0
C258 C 1.00158 0.25774 0.78065 0.0
C259 C 0.66664 0.24077 0.69213 0.0
C260 C 0.88827 0.21 0.88362 0.0
C261 C 0.67222 0.1629 0.75248 0.0
O262 O 0.57789 0.18022 0.77242 0.0
O263 O 0.80964 0.17095 0.74633 0.0
O264 O 0.56251 0.24673 0.72699 0.0
O265 O 0.77567 0.22521 0.70896 0.0
O266 O 0.3227 0.09741 0.85317 0.0
Cd267 Cd 0.37268 0.08658 0.77956 0.0
Cd268 Cd 0.63961 0.0758 0.78148 0.0
O269 O 0.53848 0.07414 0.8643 0.0
O270 O 0.21525 0.05681 0.75975 0.0
O271 O 0.43692 0.04414 0.79156 0.0
C272 C 0.30231 0.0372 0.78061 0.0
C273 C 0.63733 0.05418 0.69212 0.0
C274 C 0.41557 0.08493 0.8836 0.0
C275 C 0.63165 0.13203 0.75247 0.0
O276 O 0.72598 0.11472 0.77243 0.0
O277 O 0.49423 0.12399 0.74632 0.0
O278 O 0.74144 0.04821 0.72698 0.0
O279 O 0.52828 0.06974 0.70895 0.0
O280 O 0.0771 0.94738 0.60145 0.0
Cd281 Cd 0.12443 0.9585 0.52777 0.0
Cd282 Cd 0.39123 0.96916 0.52934 0.0
O283 O 0.29176 0.97094 0.61234 0.0
O284 O 0.96508 0.98823 0.50953 0.0
O285 O 0.1882 1.00093 0.53983 0.0
C286 C 0.05265 1.00781 0.5301 0.0
C287 C 0.38894 0.99086 0.44005 0.0
C288 C 0.16963 0.95997 0.63179 0.0
C289 C 0.38195 0.91292 0.49988 0.0
O290 O 0.47641 0.9301 0.52002 0.0
O291 O 0.24468 0.92112 0.49374 0.0
O292 O 0.49359 0.99657 0.47483 0.0
O293 O 0.27926 0.97555 0.45702 0.0
O294 O 0.72675 0.84756 0.60147 0.0
Cd295 Cd 0.67951 0.83643 0.52778 0.0
Cd296 Cd 0.41271 0.82576 0.52934 0.0
O297 O 0.51214 0.82398 0.61234 0.0
O298 O 0.83892 0.80671 0.50954 0.0
O299 O 0.61579 0.79401 0.53981 0.0
C300 C 0.75135 0.78713 0.5301 0.0
C301 C 0.41506 0.80407 0.44004 0.0
C302 C 0.63424 0.83496 0.6318 0.0
C303 C 0.42199 0.88201 0.49988 0.0
O304 O 0.32753 0.86483 0.52002 0.0
O305 O 0.55927 0.87381 0.49374 0.0
O306 O 0.31038 0.79836 0.47481 0.0
O307 O 0.52472 0.81938 0.45702 0.0
O308 O 0.07284 0.84742 0.22 0.0
Cd309 Cd 0.1228 0.83658 0.29361 0.0
Cd310 Cd 0.38971 0.8258 0.29169 0.0
O311 O 0.28863 0.82416 0.20887 0.0
O312 O 0.96537 0.80681 0.31341 0.0
O313 O 0.18703 0.79415 0.28159 0.0
C314 C 0.05242 0.7872 0.29254 0.0
C315 C 0.38736 0.80417 0.38105 0.0
C316 C 0.16573 0.83494 0.18957 0.0
C317 C 0.38178 0.88204 0.32071 0.0
O318 O 0.47611 0.86473 0.30076 0.0
O319 O 0.24436 0.874 0.32685 0.0
O320 O 0.49149 0.79821 0.34619 0.0
O321 O 0.27833 0.81974 0.36422 0.0
O322 O 0.7313 0.94753 0.22001 0.0
Cd323 Cd 0.68132 0.95836 0.29363 0.0
Cd324 Cd 0.41439 0.96914 0.2917 0.0
O325 O 0.51552 0.9708 0.20889 0.0
O326 O 0.83875 0.98813 0.31343 0.0
O327 O 0.61708 1.0008 0.28163 0.0
C328 C 0.75169 1.00775 0.29257 0.0
C329 C 0.41667 0.99077 0.38107 0.0
C330 C 0.63843 0.96002 0.18958 0.0
C331 C 0.42235 0.91291 0.32071 0.0
O332 O 0.32802 0.93022 0.30076 0.0
O333 O 0.55977 0.92095 0.32686 0.0
O334 O 0.31256 0.99673 0.3462 0.0
O335 O 0.52572 0.97521 0.36423 0.0
O336 O 0.97674 0.59756 0.97172 0.0
Cd337 Cd 0.92947 0.58643 0.0454 0.0
Cd338 Cd 0.66269 0.57576 0.04386 0.0
O339 O 0.76212 0.57398 0.96084 0.0
O340 O 0.08888 0.55672 0.06365 0.0
O341 O 0.86577 0.54401 1.03336 0.0
C342 C 1.00133 0.53713 0.04309 0.0
C343 C 0.66506 0.55407 0.13315 0.0
C344 C 0.88422 0.58496 0.94139 0.0
C345 C 0.67194 0.63201 0.07332 0.0
O346 O 0.57749 0.61483 0.05318 0.0
O347 O 0.80922 0.62381 0.07945 0.0
O348 O 0.56038 0.54835 0.09838 0.0
O349 O 0.77471 0.56938 0.11617 0.0
O350 O 0.32712 0.69738 0.97174 0.0
Cd351 Cd 0.37441 0.7085 0.04542 0.0
Cd352 Cd 0.64123 0.71916 0.04387 0.0
O353 O 0.5418 0.72093 0.96086 0.0
O354 O 0.21507 0.73824 0.06366 0.0
O355 O 0.43822 0.75092 1.03337 0.0
C356 C 0.30268 0.75781 0.04309 0.0
C357 C 0.6389 0.74086 0.13316 0.0
C358 C 0.41967 0.70997 0.9414 0.0
C359 C 0.63191 0.66292 0.07332 0.0
O360 O 0.7264 0.68009 0.05319 0.0
O361 O 0.49462 0.67111 0.07945 0.0
O362 O 0.74357 0.74657 0.09838 0.0
O363 O 0.52922 0.72555 0.11619 0.0
O364 O 0.98131 0.69754 0.35318 0.0
Cd365 Cd 0.93129 0.70837 0.27957 0.0
Cd366 Cd 0.66437 0.71914 0.28151 0.0
O367 O 0.76551 0.7208 0.36432 0.0
O368 O 0.08868 0.73814 0.25975 0.0
O369 O 0.86703 0.75081 0.29158 0.0
C370 C 1.00163 0.75775 0.28063 0.0
C371 C 0.66662 0.74076 0.19214 0.0
C372 C 0.88843 0.71002 0.38362 0.0
C373 C 0.67236 0.6629 0.2525 0.0
O374 O 0.57803 0.68021 0.27246 0.0
O375 O 0.80976 0.67095 0.24634 0.0
O376 O 0.5625 0.74672 0.22701 0.0
O377 O 0.77569 0.72521 0.20897 0.0
O378 O 0.32283 0.59742 0.35319 0.0
Cd379 Cd 0.37281 0.58658 0.27958 0.0
Cd380 Cd 0.63974 0.5758 0.2815 0.0
O381 O 0.53863 0.57415 0.36432 0.0
O382 O 0.2154 0.55681 0.25978 0.0
O383 O 0.43706 0.54414 0.2916 0.0
C384 C 0.30246 0.53719 0.28065 0.0
C385 C 0.63737 0.55417 0.19213 0.0
C386 C 0.41572 0.58494 0.38363 0.0
C387 C 0.6318 0.63203 0.25248 0.0
O388 O 0.72615 0.61472 0.27243 0.0
O389 O 0.49437 0.62399 0.24635 0.0
O390 O 0.7415 0.5482 0.22699 0.0
O391 O 0.52836 0.56973 0.20897 0.0
O392 O 0.07727 0.44739 0.10146 0.0
Cd393 Cd 0.12453 0.45851 1.02778 0.0
Cd394 Cd 0.39131 0.46918 1.02933 0.0
O395 O 0.29188 0.47096 0.11234 0.0
O396 O 0.96512 0.48823 1.00954 0.0
O397 O 0.18823 0.50094 0.03982 0.0
C398 C 0.05267 0.50781 1.0301 0.0
C399 C 0.38894 0.49087 0.94004 0.0
C400 C 0.16978 0.45999 0.1318 0.0
C401 C 0.38206 0.41293 0.99987 0.0
O402 O 0.47651 0.43011 1.02001 0.0
O403 O 0.24478 0.42113 0.99373 0.0
O404 O 0.49362 0.49659 0.9748 0.0
O405 O 0.27929 0.47556 0.95701 0.0
O406 O 0.72688 0.34756 0.10145 0.0
Cd407 Cd 0.67959 0.33644 1.02776 0.0
Cd408 Cd 0.41278 0.32578 1.02932 0.0
O409 O 0.5122 0.32401 0.11233 0.0
O410 O 0.83893 0.3067 1.00952 0.0
O411 O 0.61578 0.29402 0.03981 0.0
C412 C 0.75133 0.28713 1.03009 0.0
C413 C 0.4151 0.30409 0.94003 0.0
C414 C 0.63433 0.33497 0.13178 0.0
C415 C 0.42209 0.38202 0.99986 0.0
O416 O 0.32761 0.36485 1.02 0.0
O417 O 0.55938 0.37383 0.99373 0.0
O418 O 0.31044 0.29838 0.9748 0.0
O419 O 0.52478 0.31939 0.95699 0.0
O420 O 0.07269 0.3474 0.72001 0.0
Cd421 Cd 0.12271 0.33657 0.79361 0.0
Cd422 Cd 0.38963 0.3258 0.79167 0.0
O423 O 0.28849 0.32414 0.70886 0.0
O424 O 0.96532 0.3068 0.81343 0.0
O425 O 0.18697 0.29414 0.7816 0.0
C426 C 0.05237 0.28719 0.79256 0.0
C427 C 0.38738 0.30418 0.88104 0.0
C428 C 0.16557 0.33492 0.68956 0.0
C429 C 0.38164 0.38204 0.82069 0.0
O430 O 0.47597 0.36473 0.80073 0.0
O431 O 0.24424 0.37399 0.82684 0.0
O432 O 0.4915 0.29822 0.84617 0.0
O433 O 0.27831 0.31974 0.86421 0.0
O434 O 0.73118 0.44753 0.71999 0.0
Cd435 Cd 0.68119 0.45836 0.7936 0.0
Cd436 Cd 0.41426 0.46914 0.79169 0.0
O437 O 0.51537 0.47079 0.70887 0.0
O438 O 0.8386 0.48814 0.8134 0.0
O439 O 0.61694 0.5008 0.78158 0.0
C440 C 0.75154 0.50775 0.79253 0.0
C441 C 0.41663 0.49078 0.88105 0.0
C442 C 0.63828 0.46 0.68956 0.0
C443 C 0.4222 0.41291 0.8207 0.0
O444 O 0.32785 0.43022 0.80076 0.0
O445 O 0.55963 0.42095 0.82683 0.0
O446 O 0.3125 0.49674 0.84619 0.0
O447 O 0.52564 0.47521 0.86421 0.0
loop_
_geom_bond_atom_site_label_1
_geom_bond_atom_site_label_2
_geom_bond_distance
_geom_bond_site_symmetry_2
_ccdc_geom_bond_type
O0 Cd1 2.223 . S
O0 C8 1.315 . S
Cd1 O0 2.223 . S
Cd1 O4 2.297 . S
Cd1 O5 2.439 1_556 S
Cd1 O11 2.240 1_556 S
Cd2 O3 2.240 . S
Cd2 O10 2.223 . S
Cd2 O12 2.297 1_556 S
Cd2 O13 2.439 1_556 S
O3 Cd2 2.240 . S
O3 C8 1.279 . S
O4 Cd1 2.297 . S
O4 C6 1.251 . S
O5 Cd1 2.439 1_554 S
O5 C6 1.205 1_554 S
C6 O4 1.251 . S
C6 O5 1.205 1_556 S
C7 O12 1.247 . S
C7 O13 1.208 . S
C8 O0 1.315 . S
C8 O3 1.279 . S
C9 O10 1.315 . S
C9 O11 1.279 1_556 S
O10 Cd2 2.223 . S
O10 C9 1.315 . S
O11 Cd1 2.240 1_554 S
O11 C9 1.279 1_554 S
O12 Cd2 2.297 1_554 S
O12 C7 1.247 . S
O13 Cd2 2.439 1_554 S
O13 C7 1.208 . S
O14 Cd15 2.223 . S
O14 C22 1.315 . S
Cd15 O14 2.223 . S
Cd15 O18 2.297 . S
Cd15 O19 2.439 1_556 S
Cd15 O25 2.240 1_556 S
Cd16 O17 2.240 1_455 S
Cd16 O24 2.223 . S
Cd16 O26 2.297 1_556 S
Cd16 O27 2.439 1_556 S
O17 Cd16 2.240 1_655 S
O17 C22 1.279 . S
O18 Cd15 2.297 . S
O18 C20 1.251 . S
O19 Cd15 2.439 1_554 S
O19 C20 1.205 1_554 S
C20 O18 1.251 . S
C20 O19 1.205 1_556 S
C21 O26 1.247 . S
C21 O27 1.208 . S
C22 O14 1.315 . S
C22 O17 1.279 . S
C23 O24 1.315 1_655 S
C23 O25 1.279 1_556 S
O24 Cd16 2.223 . S
O24 C23 1.315 1_455 S
O25 Cd15 2.240 1_554 S
O25 C23 1.279 1_554 S
O26 Cd16 2.297 1_554 S
O26 C21 1.247 . S
O27 Cd16 2.439 1_554 S
O27 C21 1.208 . S
O28 Cd29 2.223 . S
O28 C36 1.315 . S
Cd29 O28 2.223 . S
Cd29 O32 2.297 . S
Cd29 O33 2.439 . S
Cd29 O39 2.240 . S
Cd30 O31 2.240 . S
Cd30 O38 2.223 . S
Cd30 O40 2.297 1_455 S
Cd30 O41 2.439 . S
O31 Cd30 2.240 . S
O31 C36 1.279 . S
O32 Cd29 2.297 . S
O32 C34 1.247 . S
O33 Cd29 2.439 . S
O33 C34 1.208 . S
C34 O32 1.247 . S
C34 O33 1.208 . S
C35 O40 1.247 1_455 S
C35 O41 1.208 . S
C36 O28 1.315 . S
C36 O31 1.279 . S
C37 O38 1.315 . S
C37 O39 1.279 . S
O38 Cd30 2.223 . S
O38 C37 1.315 . S
O39 Cd29 2.240 . S
O39 C37 1.279 . S
O40 Cd30 2.297 1_655 S
O40 C35 1.247 1_655 S
O41 Cd30 2.439 . S
O41 C35 1.208 . S
O42 Cd43 2.223 . S
O42 C50 1.315 . S
Cd43 O42 2.223 . S
Cd43 O46 2.297 . S
Cd43 O47 2.439 . S
Cd43 O53 2.240 . S
Cd44 O45 2.240 1_455 S
Cd44 O52 2.223 . S
Cd44 O54 2.297 . S
Cd44 O55 2.439 . S
O45 Cd44 2.240 1_655 S
O45 C50 1.279 . S
O46 Cd43 2.297 . S
O46 C48 1.247 . S
O47 Cd43 2.439 . S
O47 C48 1.208 . S
C48 O46 1.247 . S
C48 O47 1.208 . S
C49 O54 1.247 . S
C49 O55 1.208 . S
C50 O42 1.315 . S
C50 O45 1.279 . S
C51 O52 1.315 1_655 S
C51 O53 1.279 . S
O52 Cd44 2.223 . S
O52 C51 1.315 1_455 S
O53 Cd43 2.240 . S
O53 C51 1.279 . S
O54 Cd44 2.297 . S
O54 C49 1.247 . S
O55 Cd44 2.439 . S
O55 C49 1.208 . S
O56 Cd57 2.223 . S
O56 C64 1.315 . S
Cd57 O56 2.223 . S
Cd57 O60 2.297 . S
Cd57 O61 2.439 1_554 S
Cd57 O67 2.240 1_554 S
Cd58 O59 2.240 . S
Cd58 O66 2.223 . S
Cd58 O68 2.297 1_554 S
Cd58 O69 2.439 1_554 S
O59 Cd58 2.240 . S
O59 C64 1.279 . S
O60 Cd57 2.297 . S
O60 C62 1.251 . S
O61 Cd57 2.439 1_556 S
O61 C62 1.205 1_556 S
C62 O60 1.251 . S
C62 O61 1.205 1_554 S
C63 O68 1.247 . S
C63 O69 1.208 . S
C64 O56 1.315 . S
C64 O59 1.279 . S
C65 O66 1.315 . S
C65 O67 1.279 1_554 S
O66 Cd58 2.223 . S
O66 C65 1.315 . S
O67 Cd57 2.240 1_556 S
O67 C65 1.279 1_556 S
O68 Cd58 2.297 1_556 S
O68 C63 1.247 . S
O69 Cd58 2.439 1_556 S
O69 C63 1.208 . S
O70 Cd71 2.223 . S
O70 C78 1.315 . S
Cd71 O70 2.223 . S
Cd71 O74 2.297 . S
Cd71 O75 2.439 1_554 S
Cd71 O81 2.240 1_554 S
Cd72 O73 2.240 1_655 S
Cd72 O80 2.223 . S
Cd72 O82 2.297 1_554 S
Cd72 O83 2.439 1_554 S
O73 Cd72 2.240 1_455 S
O73 C78 1.279 . S
O74 Cd71 2.297 . S
O74 C76 1.251 . S
O75 Cd71 2.439 1_556 S
O75 C76 1.205 1_556 S
C76 O74 1.251 . S
C76 O75 1.205 1_554 S
C77 O82 1.247 . S
C77 O83 1.208 . S
C78 O70 1.315 . S
C78 O73 1.279 . S
C79 O80 1.315 1_455 S
C79 O81 1.279 1_554 S
O80 Cd72 2.223 . S
O80 C79 1.315 1_655 S
O81 Cd71 2.240 1_556 S
O81 C79 1.279 1_556 S
O82 Cd72 2.297 1_556 S
O82 C77 1.247 . S
O83 Cd72 2.439 1_556 S
O83 C77 1.208 . S
O84 Cd85 2.223 . S
O84 C92 1.315 . S
Cd85 O84 2.223 . S
Cd85 O88 2.297 . S
Cd85 O89 2.439 . S
Cd85 O95 2.240 . S
Cd86 O87 2.240 . S
Cd86 O94 2.223 . S
Cd86 O96 2.297 1_655 S
Cd86 O97 2.439 . S
O87 Cd86 2.240 . S
O87 C92 1.279 . S
O88 Cd85 2.297 . S
O88 C90 1.247 . S
O89 Cd85 2.439 . S
O89 C90 1.208 . S
C90 O88 1.247 . S
C90 O89 1.208 . S
C91 O96 1.247 1_655 S
C91 O97 1.208 . S
C92 O84 1.315 . S
C92 O87 1.279 . S
C93 O94 1.315 . S
C93 O95 1.279 . S
O94 Cd86 2.223 . S
O94 C93 1.315 . S
O95 Cd85 2.240 . S
O95 C93 1.279 . S
O96 Cd86 2.297 1_455 S
O96 C91 1.247 1_455 S
O97 Cd86 2.439 . S
O97 C91 1.208 . S
O98 Cd99 2.223 . S
O98 C106 1.315 . S
Cd99 O98 2.223 . S
Cd99 O102 2.297 . S
Cd99 O103 2.439 . S
Cd99 O109 2.240 . S
Cd100 O101 2.240 1_655 S
Cd100 O108 2.223 . S
Cd100 O110 2.297 . S
Cd100 O111 2.439 . S
O101 Cd100 2.240 1_455 S
O101 C106 1.279 . S
O102 Cd99 2.297 . S
O102 C104 1.247 . S
O103 Cd99 2.439 . S
O103 C104 1.208 . S
C104 O102 1.247 . S
C104 O103 1.208 . S
C105 O110 1.247 . S
C105 O111 1.208 . S
C106 O98 1.315 . S
C106 O101 1.279 . S
C107 O108 1.315 1_455 S
C107 O109 1.279 . S
O108 Cd100 2.223 . S
O108 C107 1.315 1_655 S
O109 Cd99 2.240 . S
O109 C107 1.279 . S
O110 Cd100 2.297 . S
O110 C105 1.247 . S
O111 Cd100 2.439 . S
O111 C105 1.208 . S
O112 Cd113 2.223 . S
O112 C120 1.315 . S
Cd113 O112 2.223 . S
Cd113 O116 2.297 . S
Cd113 O117 2.439 . S
Cd113 O123 2.240 . S
Cd114 O115 2.240 . S
Cd114 O122 2.223 . S
Cd114 O124 2.297 1_455 S
Cd114 O125 2.439 . S
O115 Cd114 2.240 . S
O115 C120 1.279 . S
O116 Cd113 2.297 . S
O116 C118 1.247 . S
O117 Cd113 2.439 . S
O117 C118 1.208 . S
C118 O116 1.247 . S
C118 O117 1.208 . S
C119 O124 1.247 1_455 S
C119 O125 1.208 . S
C120 O112 1.315 . S
C120 O115 1.279 . S
C121 O122 1.315 . S
C121 O123 1.279 . S
O122 Cd114 2.223 . S
O122 C121 1.315 . S
O123 Cd113 2.240 . S
O123 C121 1.279 . S
O124 Cd114 2.297 1_655 S
O124 C119 1.247 1_655 S
O125 Cd114 2.439 . S
O125 C119 1.208 . S
O126 Cd127 2.223 . S
O126 C134 1.315 . S
Cd127 O126 2.223 . S
Cd127 O130 2.297 . S
Cd127 O131 2.439 . S
Cd127 O137 2.240 . S
Cd128 O129 2.240 1_455 S
Cd128 O136 2.223 . S
Cd128 O138 2.297 . S
Cd128 O139 2.439 . S
O129 Cd128 2.240 1_655 S
O129 C134 1.279 . S
O130 Cd127 2.297 . S
O130 C132 1.247 . S
O131 Cd127 2.439 . S
O131 C132 1.208 . S
C132 O130 1.247 . S
C132 O131 1.208 . S
C133 O138 1.247 . S
C133 O139 1.208 . S
C134 O126 1.315 . S
C134 O129 1.279 . S
C135 O136 1.315 1_655 S
C135 O137 1.279 . S
O136 Cd128 2.223 . S
O136 C135 1.315 1_455 S
O137 Cd127 2.240 . S
O137 C135 1.279 . S
O138 Cd128 2.297 . S
O138 C133 1.247 . S
O139 Cd128 2.439 . S
O139 C133 1.208 . S
O140 Cd141 2.223 . S
O140 C148 1.315 . S
Cd141 O140 2.223 . S
Cd141 O144 2.297 . S
Cd141 O145 2.439 . S
Cd141 O151 2.240 . S
Cd142 O143 2.240 . S
Cd142 O150 2.223 . S
Cd142 O152 2.297 1_455 S
Cd142 O153 2.439 . S
O143 Cd142 2.240 . S
O143 C148 1.279 . S
O144 Cd141 2.297 . S
O144 C146 1.247 . S
O145 Cd141 2.439 . S
O145 C146 1.208 . S
C146 O144 1.247 . S
C146 O145 1.208 . S
C147 O152 1.247 1_455 S
C147 O153 1.208 . S
C148 O140 1.315 . S
C148 O143 1.279 . S
C149 O150 1.315 . S
C149 O151 1.279 . S
O150 Cd142 2.223 . S
O150 C149 1.315 . S
O151 Cd141 2.240 . S
O151 C149 1.279 . S
O152 Cd142 2.297 1_655 S
O152 C147 1.247 1_655 S
O153 Cd142 2.439 . S
O153 C147 1.208 . S
O154 Cd155 2.223 . S
O154 C162 1.315 . S
Cd155 O154 2.223 . S
Cd155 O158 2.297 . S
Cd155 O159 2.439 . S
Cd155 O165 2.240 . S
Cd156 O157 2.240 1_455 S
Cd156 O164 2.223 . S
Cd156 O166 2.297 . S
Cd156 O167 2.439 . S
O157 Cd156 2.240 1_655 S
O157 C162 1.279 . S
O158 Cd155 2.297 . S
O158 C160 1.247 . S
O159 Cd155 2.439 . S
O159 C160 1.208 . S
C160 O158 1.247 . S
C160 O159 1.208 . S
C161 O166 1.247 . S
C161 O167 1.208 . S
C162 O154 1.315 . S
C162 O157 1.279 . S
C163 O164 1.315 1_655 S
C163 O165 1.279 . S
O164 Cd156 2.223 . S
O164 C163 1.315 1_455 S
O165 Cd155 2.240 . S
O165 C163 1.279 . S
O166 Cd156 2.297 . S
O166 C161 1.247 . S
O167 Cd156 2.439 . S
O167 C161 1.208 . S
O168 Cd169 2.223 . S
O168 C176 1.315 . S
Cd169 O168 2.223 . S
Cd169 O172 2.297 . S
Cd169 O173 2.439 . S
Cd169 O179 2.240 . S
Cd170 O171 2.240 . S
Cd170 O178 2.223 . S
Cd170 O180 2.297 1_655 S
Cd170 O181 2.439 . S
O171 Cd170 2.240 . S
O171 C176 1.279 . S
O172 Cd169 2.297 . S
O172 C174 1.247 . S
O173 Cd169 2.439 . S
O173 C174 1.208 . S
C174 O172 1.247 . S
C174 O173 1.208 . S
C175 O180 1.247 1_655 S
C175 O181 1.208 . S
C176 O168 1.315 . S
C176 O171 1.279 . S
C177 O178 1.315 . S
C177 O179 1.279 . S
O178 Cd170 2.223 . S
O178 C177 1.315 . S
O179 Cd169 2.240 . S
O179 C177 1.279 . S
O180 Cd170 2.297 1_455 S
O180 C175 1.247 1_455 S
O181 Cd170 2.439 . S
O181 C175 1.208 . S
O182 Cd183 2.223 . S
O182 C190 1.315 . S
Cd183 O182 2.223 . S
Cd183 O186 2.297 . S
Cd183 O187 2.439 . S
Cd183 O193 2.240 . S
Cd184 O185 2.240 1_655 S
Cd184 O192 2.223 . S
Cd184 O194 2.297 . S
Cd184 O195 2.439 . S
O185 Cd184 2.240 1_455 S
O185 C190 1.279 . S
O186 Cd183 2.297 . S
O186 C188 1.247 . S
O187 Cd183 2.439 . S
O187 C188 1.208 . S
C188 O186 1.247 . S
C188 O187 1.208 . S
C189 O194 1.247 . S
C189 O195 1.208 . S
C190 O182 1.315 . S
C190 O185 1.279 . S
C191 O192 1.315 1_455 S
C191 O193 1.279 . S
O192 Cd184 2.223 . S
O192 C191 1.315 1_655 S
O193 Cd183 2.240 . S
O193 C191 1.279 . S
O194 Cd184 2.297 . S
O194 C189 1.247 . S
O195 Cd184 2.439 . S
O195 C189 1.208 . S
O196 Cd197 2.223 . S
O196 C204 1.315 . S
Cd197 O196 2.223 . S
Cd197 O200 2.297 . S
Cd197 O201 2.439 . S
Cd197 O207 2.240 . S
Cd198 O199 2.240 . S
Cd198 O206 2.223 . S
Cd198 O208 2.297 1_655 S
Cd198 O209 2.439 . S
O199 Cd198 2.240 . S
O199 C204 1.279 . S
O200 Cd197 2.297 . S
O200 C202 1.247 . S
O201 Cd197 2.439 . S
O201 C202 1.208 . S
C202 O200 1.247 . S
C202 O201 1.208 . S
C203 O208 1.247 1_655 S
C203 O209 1.208 . S
C204 O196 1.315 . S
C204 O199 1.279 . S
C205 O206 1.315 . S
C205 O207 1.279 . S
O206 Cd198 2.223 . S
O206 C205 1.315 . S
O207 Cd197 2.240 . S
O207 C205 1.279 . S
O208 Cd198 2.297 1_455 S
O208 C203 1.247 1_455 S
O209 Cd198 2.439 . S
O209 C203 1.208 . S
O210 Cd211 2.223 . S
O210 C218 1.315 . S
Cd211 O210 2.223 . S
Cd211 O214 2.297 . S
Cd211 O215 2.439 . S
Cd211 O221 2.240 . S
Cd212 O213 2.240 1_655 S
Cd212 O220 2.223 . S
Cd212 O222 2.297 . S
Cd212 O223 2.439 . S
O213 Cd212 2.240 1_455 S
O213 C218 1.279 . S
O214 Cd211 2.297 . S
O214 C216 1.247 . S
O215 Cd211 2.439 . S
O215 C216 1.208 . S
C216 O214 1.247 . S
C216 O215 1.208 . S
C217 O222 1.247 . S
C217 O223 1.208 . S
C218 O210 1.315 . S
C218 O213 1.279 . S
C219 O220 1.315 1_455 S
C219 O221 1.279 . S
O220 Cd212 2.223 . S
O220 C219 1.315 1_655 S
O221 Cd211 2.240 . S
O221 C219 1.279 . S
O222 Cd212 2.297 . S
O222 C217 1.247 . S
O223 Cd212 2.439 . S
O223 C217 1.208 . S
O224 Cd225 2.223 1_655 S
O224 C232 1.315 . S
Cd225 O224 2.223 1_455 S
Cd225 O228 2.297 . S
Cd225 O229 2.439 . S
Cd225 O235 2.240 1_455 S
Cd226 O227 2.240 . S
Cd226 O234 2.223 . S
Cd226 O236 2.297 . S
Cd226 O237 2.439 . S
O227 Cd226 2.240 . S
O227 C232 1.279 . S
O228 Cd225 2.297 . S
O228 C230 1.247 . S
O229 Cd225 2.439 . S
O229 C230 1.208 . S
C230 O228 1.247 . S
C230 O229 1.208 . S
C231 O236 1.247 . S
C231 O237 1.208 . S
C232 O224 1.315 . S
C232 O227 1.279 . S
C233 O234 1.315 . S
C233 O235 1.279 . S
O234 Cd226 2.223 . S
O234 C233 1.315 . S
O235 Cd225 2.240 1_655 S
O235 C233 1.279 . S
O236 Cd226 2.297 . S
O236 C231 1.247 . S
O237 Cd226 2.439 . S
O237 C231 1.208 . S
O238 Cd239 2.223 . S
O238 C246 1.315 . S
Cd239 O238 2.223 . S
Cd239 O242 2.297 . S
Cd239 O243 2.439 . S
Cd239 O249 2.240 . S
Cd240 O241 2.240 . S
Cd240 O248 2.223 . S
Cd240 O250 2.297 . S
Cd240 O251 2.439 . S
O241 Cd240 2.240 . S
O241 C246 1.279 . S
O242 Cd239 2.297 . S
O242 C244 1.247 . S
O243 Cd239 2.439 . S
O243 C244 1.208 . S
C244 O242 1.247 . S
C244 O243 1.208 . S
C245 O250 1.247 . S
C245 O251 1.208 . S
C246 O238 1.315 . S
C246 O241 1.279 . S
C247 O248 1.315 . S
C247 O249 1.279 . S
O248 Cd240 2.223 . S
O248 C247 1.315 . S
O249 Cd239 2.240 . S
O249 C247 1.279 . S
O250 Cd240 2.297 . S
O250 C245 1.247 . S
O251 Cd240 2.439 . S
O251 C245 1.208 . S
O252 Cd253 2.223 1_655 S
O252 C260 1.315 . S
Cd253 O252 2.223 1_455 S
Cd253 O256 2.297 . S
Cd253 O257 2.439 . S
Cd253 O263 2.240 1_455 S
Cd254 O255 2.240 . S
Cd254 O262 2.223 . S
Cd254 O264 2.297 . S
Cd254 O265 2.439 . S
O255 Cd254 2.240 . S
O255 C260 1.279 . S
O256 Cd253 2.297 . S
O256 C258 1.247 . S
O257 Cd253 2.439 . S
O257 C258 1.208 . S
C258 O256 1.247 . S
C258 O257 1.208 . S
C259 O264 1.247 . S
C259 O265 1.208 . S
C260 O252 1.315 . S
C260 O255 1.279 . S
C261 O262 1.315 . S
C261 O263 1.279 . S
O262 Cd254 2.223 . S
O262 C261 1.315 . S
O263 Cd253 2.240 1_655 S
O263 C261 1.279 . S
O264 Cd254 2.297 . S
O264 C259 1.247 . S
O265 Cd254 2.439 . S
O265 C259 1.208 . S
O266 Cd267 2.223 . S
O266 C274 1.315 . S
Cd267 O266 2.223 . S
Cd267 O270 2.297 . S
Cd267 O271 2.439 . S
Cd267 O277 2.240 . S
Cd268 O269 2.240 . S
Cd268 O276 2.223 . S
Cd268 O278 2.297 . S
Cd268 O279 2.439 . S
O269 Cd268 2.240 . S
O269 C274 1.279 . S
O270 Cd267 2.297 . S
O270 C272 1.247 . S
O271 Cd267 2.439 . S
O271 C272 1.208 . S
C272 O270 1.247 . S
C272 O271 1.208 . S
C273 O278 1.247 . S
C273 O279 1.208 . S
C274 O266 1.315 . S
C274 O269 1.279 . S
C275 O276 1.315 . S
C275 O277 1.279 . S
O276 Cd268 2.223 . S
O276 C275 1.315 . S
O277 Cd267 2.240 . S
O277 C275 1.279 . S
O278 Cd268 2.297 . S
O278 C273 1.247 . S
O279 Cd268 2.439 . S
O279 C273 1.208 . S
O280 Cd281 2.223 1_455 S
O280 C288 1.315 . S
Cd281 O280 2.223 1_655 S
Cd281 O284 2.297 . S
Cd281 O285 2.439 . S
Cd281 O291 2.240 1_655 S
Cd282 O283 2.240 . S
Cd282 O290 2.223 . S
Cd282 O292 2.297 . S
Cd282 O293 2.439 . S
O283 Cd282 2.240 . S
O283 C288 1.279 . S
O284 Cd281 2.297 . S
O284 C286 1.247 . S
O285 Cd281 2.439 . S
O285 C286 1.208 . S
C286 O284 1.247 . S
C286 O285 1.208 . S
C287 O292 1.247 . S
C287 O293 1.208 . S
C288 O280 1.315 . S
C288 O283 1.279 . S
C289 O290 1.315 . S
C289 O291 1.279 . S
O290 Cd282 2.223 . S
O290 C289 1.315 . S
O291 Cd281 2.240 1_455 S
O291 C289 1.279 . S
O292 Cd282 2.297 . S
O292 C287 1.247 . S
O293 Cd282 2.439 . S
O293 C287 1.208 . S
O294 Cd295 2.223 . S
O294 C302 1.315 . S
Cd295 O294 2.223 . S
Cd295 O298 2.297 . S
Cd295 O299 2.439 . S
Cd295 O305 2.240 . S
Cd296 O297 2.240 . S
Cd296 O304 2.223 . S
Cd296 O306 2.297 . S
Cd296 O307 2.439 . S
O297 Cd296 2.240 . S
O297 C302 1.279 . S
O298 Cd295 2.297 . S
O298 C300 1.247 . S
O299 Cd295 2.439 . S
O299 C300 1.208 . S
C300 O298 1.247 . S
C300 O299 1.208 . S
C301 O306 1.247 . S
C301 O307 1.208 . S
C302 O294 1.315 . S
C302 O297 1.279 . S
C303 O304 1.315 . S
C303 O305 1.279 . S
O304 Cd296 2.223 . S
O304 C303 1.315 . S
O305 Cd295 2.240 . S
O305 C303 1.279 . S
O306 Cd296 2.297 . S
O306 C301 1.247 . S
O307 Cd296 2.439 . S
O307 C301 1.208 . S
O308 Cd309 2.223 1_455 S
O308 C316 1.315 . S
Cd309 O308 2.223 1_655 S
Cd309 O312 2.297 . S
Cd309 O313 2.439 . S
Cd309 O319 2.240 1_655 S
Cd310 O311 2.240 . S
Cd310 O318 2.223 . S
Cd310 O320 2.297 . S
Cd310 O321 2.439 . S
O311 Cd310 2.240 . S
O311 C316 1.279 . S
O312 Cd309 2.297 . S
O312 C314 1.247 . S
O313 Cd309 2.439 . S
O313 C314 1.208 . S
C314 O312 1.247 . S
C314 O313 1.208 . S
C315 O320 1.247 . S
C315 O321 1.208 . S
C316 O308 1.315 . S
C316 O311 1.279 . S
C317 O318 1.315 . S
C317 O319 1.279 . S
O318 Cd310 2.223 . S
O318 C317 1.315 . S
O319 Cd309 2.240 1_455 S
O319 C317 1.279 . S
O320 Cd310 2.297 . S
O320 C315 1.247 . S
O321 Cd310 2.439 . S
O321 C315 1.208 . S
O322 Cd323 2.223 . S
O322 C330 1.315 . S
Cd323 O322 2.223 . S
Cd323 O326 2.297 . S
Cd323 O327 2.439 . S
Cd323 O333 2.240 . S
Cd324 O325 2.240 . S
Cd324 O332 2.223 . S
Cd324 O334 2.297 . S
Cd324 O335 2.439 . S
O325 Cd324 2.240 . S
O325 C330 1.279 . S
O326 Cd323 2.297 . S
O326 C328 1.247 . S
O327 Cd323 2.439 . S
O327 C328 1.208 . S
C328 O326 1.247 . S
C328 O327 1.208 . S
C329 O334 1.247 . S
C329 O335 1.208 . S
C330 O322 1.315 . S
C330 O325 1.279 . S
C331 O332 1.315 . S
C331 O333 1.279 . S
O332 Cd324 2.223 . S
O332 C331 1.315 . S
O333 Cd323 2.240 . S
O333 C331 1.279 . S
O334 Cd324 2.297 . S
O334 C329 1.247 . S
O335 Cd324 2.439 . S
O335 C329 1.208 . S
O336 Cd337 2.223 1_655 S
O336 C344 1.315 . S
Cd337 O336 2.223 1_455 S
Cd337 O340 2.297 . S
Cd337 O341 2.439 1_556 S
Cd337 O347 2.240 1_456 S
Cd338 O339 2.240 . S
Cd338 O346 2.223 . S
Cd338 O348 2.297 1_556 S
Cd338 O349 2.439 1_556 S
O339 Cd338 2.240 . S
O339 C344 1.279 . S
O340 Cd337 2.297 . S
O340 C342 1.251 . S
O341 Cd337 2.439 1_554 S
O341 C342 1.206 1_554 S
C342 O340 1.251 . S
C342 O341 1.206 1_556 S
C343 O348 1.247 . S
C343 O349 1.208 . S
C344 O336 1.315 . S
C344 O339 1.279 . S
C345 O346 1.315 . S
C345 O347 1.279 1_556 S
O346 Cd338 2.223 . S
O346 C345 1.315 . S
O347 Cd337 2.240 1_654 S
O347 C345 1.279 1_554 S
O348 Cd338 2.297 1_554 S
O348 C343 1.247 . S
O349 Cd338 2.439 1_554 S
O349 C343 1.208 . S
O350 Cd351 2.223 . S
O350 C358 1.315 . S
Cd351 O350 2.223 . S
Cd351 O354 2.297 . S
Cd351 O355 2.439 1_556 S
Cd351 O361 2.240 1_556 S
Cd352 O353 2.240 . S
Cd352 O360 2.223 . S
Cd352 O362 2.297 1_556 S
Cd352 O363 2.439 1_556 S
O353 Cd352 2.240 . S
O353 C358 1.279 . S
O354 Cd351 2.297 . S
O354 C356 1.251 . S
O355 Cd351 2.439 1_554 S
O355 C356 1.205 1_554 S
C356 O354 1.251 . S
C356 O355 1.205 1_556 S
C357 O362 1.247 . S
C357 O363 1.208 . S
C358 O350 1.315 . S
C358 O353 1.279 . S
C359 O360 1.315 . S
C359 O361 1.279 1_556 S
O360 Cd352 2.223 . S
O360 C359 1.315 . S
O361 Cd351 2.240 1_554 S
O361 C359 1.279 1_554 S
O362 Cd352 2.297 1_554 S
O362 C357 1.247 . S
O363 Cd352 2.439 1_554 S
O363 C357 1.208 . S
O364 Cd365 2.223 1_655 S
O364 C372 1.315 . S
Cd365 O364 2.223 1_455 S
Cd365 O368 2.297 . S
Cd365 O369 2.439 1_455 S
Cd365 O375 2.240 1_455 S
Cd366 O367 2.240 . S
Cd366 O374 2.223 . S
Cd366 O376 2.297 . S
Cd366 O377 2.439 . S
O367 Cd366 2.240 . S
O367 C372 1.279 . S
O368 Cd365 2.297 . S
O368 C370 1.247 . S
O369 Cd365 2.439 1_655 S
O369 C370 1.208 1_655 S
C370 O368 1.247 . S
C370 O369 1.208 1_455 S
C371 O376 1.247 . S
C371 O377 1.208 . S
C372 O364 1.315 . S
C372 O367 1.279 . S
C373 O374 1.315 . S
C373 O375 1.279 . S
O374 Cd366 2.223 . S
O374 C373 1.315 . S
O375 Cd365 2.240 1_655 S
O375 C373 1.279 . S
O376 Cd366 2.297 . S
O376 C371 1.247 . S
O377 Cd366 2.439 . S
O377 C371 1.208 . S
O378 Cd379 2.223 . S
O378 C386 1.315 . S
Cd379 O378 2.223 . S
Cd379 O382 2.297 . S
Cd379 O383 2.439 . S
Cd379 O389 2.240 . S
Cd380 O381 2.240 . S
Cd380 O388 2.223 . S
Cd380 O390 2.297 . S
Cd380 O391 2.439 . S
O381 Cd380 2.240 . S
O381 C386 1.279 . S
O382 Cd379 2.297 . S
O382 C384 1.247 . S
O383 Cd379 2.439 . S
O383 C384 1.208 . S
C384 O382 1.247 . S
C384 O383 1.208 . S
C385 O390 1.247 . S
C385 O391 1.208 . S
C386 O378 1.315 . S
C386 O381 1.279 . S
C387 O388 1.315 . S
C387 O389 1.279 . S
O388 Cd380 2.223 . S
O388 C387 1.315 . S
O389 Cd379 2.240 . S
O389 C387 1.279 . S
O390 Cd380 2.297 . S
O390 C385 1.247 . S
O391 Cd380 2.439 . S
O391 C385 1.208 . S
O392 Cd393 2.223 1_455 S
O392 C400 1.315 . S
Cd393 O392 2.223 1_655 S
Cd393 O396 2.297 . S
Cd393 O397 2.439 1_554 S
Cd393 O403 2.240 1_654 S
Cd394 O395 2.240 . S
Cd394 O402 2.223 . S
Cd394 O404 2.297 1_554 S
Cd394 O405 2.439 1_554 S
O395 Cd394 2.240 . S
O395 C400 1.279 . S
O396 Cd393 2.297 . S
O396 C398 1.251 . S
O397 Cd393 2.439 1_556 S
O397 C398 1.206 1_556 S
C398 O396 1.251 . S
C398 O397 1.206 1_554 S
C399 O404 1.247 . S
C399 O405 1.208 . S
C400 O392 1.315 . S
C400 O395 1.279 . S
C401 O402 1.315 . S
C401 O403 1.279 1_554 S
O402 Cd394 2.223 . S
O402 C401 1.315 . S
O403 Cd393 2.240 1_456 S
O403 C401 1.279 1_556 S
O404 Cd394 2.297 1_556 S
O404 C399 1.247 . S
O405 Cd394 2.439 1_556 S
O405 C399 1.208 . S
O406 Cd407 2.223 . S
O406 C414 1.315 . S
Cd407 O406 2.223 . S
Cd407 O410 2.297 . S
Cd407 O411 2.439 1_554 S
Cd407 O417 2.240 1_554 S
Cd408 O409 2.240 . S
Cd408 O416 2.223 . S
Cd408 O418 2.297 1_554 S
Cd408 O419 2.439 1_554 S
O409 Cd408 2.240 . S
O409 C414 1.279 . S
O410 Cd407 2.297 . S
O410 C412 1.251 . S
O411 Cd407 2.439 1_556 S
O411 C412 1.205 1_556 S
C412 O410 1.251 . S
C412 O411 1.205 1_554 S
C413 O418 1.247 . S
C413 O419 1.208 . S
C414 O406 1.315 . S
C414 O409 1.279 . S
C415 O416 1.315 . S
C415 O417 1.279 1_554 S
O416 Cd408 2.223 . S
O416 C415 1.315 . S
O417 Cd407 2.240 1_556 S
O417 C415 1.279 1_556 S
O418 Cd408 2.297 1_556 S
O418 C413 1.247 . S
O419 Cd408 2.439 1_556 S
O419 C413 1.208 . S
O420 Cd421 2.223 1_455 S
O420 C428 1.315 . S
Cd421 O420 2.223 1_655 S
Cd421 O424 2.297 . S
Cd421 O425 2.439 1_655 S
Cd421 O431 2.240 1_655 S
Cd422 O423 2.240 . S
Cd422 O430 2.223 . S
Cd422 O432 2.297 . S
Cd422 O433 2.439 . S
O423 Cd422 2.240 . S
O423 C428 1.279 . S
O424 Cd421 2.297 . S
O424 C426 1.247 . S
O425 Cd421 2.439 1_455 S
O425 C426 1.208 1_455 S
C426 O424 1.247 . S
C426 O425 1.208 1_655 S
C427 O432 1.247 . S
C427 O433 1.208 . S
C428 O420 1.315 . S
C428 O423 1.279 . S
C429 O430 1.315 . S
C429 O431 1.279 . S
O430 Cd422 2.223 . S
O430 C429 1.315 . S
O431 Cd421 2.240 1_455 S
O431 C429 1.279 . S
O432 Cd422 2.297 . S
O432 C427 1.247 . S
O433 Cd422 2.439 . S
O433 C427 1.208 . S
O434 Cd435 2.223 . S
O434 C442 1.315 . S
Cd435 O434 2.223 . S
Cd435 O438 2.297 . S
Cd435 O439 2.439 . S
Cd435 O445 2.240 . S
Cd436 O437 2.240 . S
Cd436 O444 2.223 . S
Cd436 O446 2.297 . S
Cd436 O447 2.439 . S
O437 Cd436 2.240 . S
O437 C442 1.279 . S
O438 Cd435 2.297 . S
O438 C440 1.247 . S
O439 Cd435 2.439 . S
O439 C440 1.208 . S
C440 O438 1.247 . S
C440 O439 1.208 . S
C441 O446 1.247 . S
C441 O447 1.208 . S
C442 O434 1.315 . S
C442 O437 1.279 . S
C443 O444 1.315 . S
C443 O445 1.279 . S
O444 Cd436 2.223 . S
O444 C443 1.315 . S
O445 Cd435 2.240 . S
O445 C443 1.279 . S
O446 Cd436 2.297 . S
O446 C441 1.247 . S
O447 Cd436 2.439 . S
O447 C441 1.208 . S
C7 C49 2.152 . S
C35 C21 2.152 . S
C105 C63 2.152 . S
C91 C77 2.152 . S
C119 C161 2.233 . S
C133 C147 2.232 . S
C217 C175 2.233 . S
C203 C189 2.232 . S
C231 C273 2.232 . S
C245 C259 2.233 . S
C287 C329 2.232 . S
C301 C315 2.233 . S
C343 C385 2.152 . S
C371 C357 2.152 . S
C441 C399 2.152 . S
C427 C413 2.152 . S
C6 C62 4.289 1_546 S
C412 C20 4.287 1_554 S
C34 C202 3.979 . S
C328 C48 3.979 1_565 S
C356 C76 4.287 1_556 S
C90 C146 3.979 . S
C104 C272 3.979 1_565 S
C174 C118 4.026 . S
C300 C132 4.026 . S
C160 C440 3.981 . S
C188 C244 4.026 . S
C216 C384 3.981 . S
C286 C230 4.026 1_665 S
C258 C426 3.980 1_455 S
C314 C370 3.980 1_655 S
C398 C342 4.286 1_654 S
C8 C274 1.464 . S
C22 C260 1.463 . S
C246 C36 1.393 . S
C232 C50 1.393 . S
C64 C330 1.464 . S
C78 C316 1.463 . S
C92 C302 1.393 . S
C288 C106 1.393 . S
C120 C386 1.393 . S
C372 C134 1.393 . S
C358 C148 1.463 . S
C162 C344 1.463 . S
C176 C442 1.393 . S
C190 C428 1.393 . S
C414 C204 1.463 . S
C218 C400 1.463 . S
C23 C9 3.114 1_655 S
C37 C51 2.658 1_455 S
C79 C65 3.114 1_455 S
C93 C107 2.658 1_655 S
C135 C121 2.807 1_655 S
C149 C163 2.799 1_455 S
C177 C191 2.807 1_655 S
C205 C219 2.799 1_655 S
C233 C247 2.806 . S
C275 C261 2.798 . S
C289 C303 2.806 . S
C331 C317 2.798 . S
C359 C345 3.112 . S
C373 C387 2.660 . S
C401 C415 3.112 . S
C443 C429 2.660 . S
