# Generated by pormake.
# Topology uni, (4)-cn, num edge types: 1
# Building blocks:
#     Node 0, Type 0, BuildingBlock: KUFVIS_clean_sbu_0, # of connection points: 4
#     Node 1, Type 0, BuildingBlock: KUFVIS_clean_sbu_0, # of connection points: 4
#     Node 2, Type 0, BuildingBlock: KUFVIS_clean_sbu_0, # of connection points: 4
#     Node 3, Type 0, BuildingBlock: KUFVIS_clean_sbu_0, # of connection points: 4
#     Node 4, Type 0, BuildingBlock: KUFVIS_clean_sbu_0, # of connection points: 4
#     Node 5, Type 0, BuildingBlock: KUFVIS_clean_sbu_0, # of connection points: 4
#     Edge 6, Type (0, 0), BuildingBlock: KIFKEQ_clean_linker_1, # of connection points: 2
#     Edge 7, Type (0, 0), BuildingBlock: KIFKEQ_clean_linker_1, # of connection points: 2
#     Edge 8, Type (0, 0), BuildingBlock: KIFKEQ_clean_linker_1, # of connection points: 2
#     Edge 9, Type (0, 0), BuildingBlock: KIFKEQ_clean_linker_1, # of connection points: 2
#     Edge 10, Type (0, 0), BuildingBlock: KIFKEQ_clean_linker_1, # of connection points: 2
#     Edge 11, Type (0, 0), BuildingBlock: KIFKEQ_clean_linker_1, # of connection points: 2
#     Edge 12, Type (0, 0), BuildingBlock: KIFKEQ_clean_linker_1, # of connection points: 2
#     Edge 13, Type (0, 0), BuildingBlock: KIFKEQ_clean_linker_1, # of connection points: 2
#     Edge 14, Type (0, 0), BuildingBlock: KIFKEQ_clean_linker_1, # of connection points: 2
#     Edge 15, Type (0, 0), BuildingBlock: KIFKEQ_clean_linker_1, # of connection points: 2
#     Edge 16, Type (0, 0), BuildingBlock: KIFKEQ_clean_linker_1, # of connection points: 2
#     Edge 17, Type (0, 0), BuildingBlock: KIFKEQ_clean_linker_1, # of connection points: 2
# Relax obj value: 0.055
# Max RMSD: 0.074
# Mean RMSD: 0.074
data_MOF--net-uni--node1-KUFVIS_clean_sbu_0--edge1-KIFKEQ_clean_linker_1
_symmetry_space_group_name_H-M    P1
_symmetry_Int_Tables_number       1
_symmetry_cell_setting            triclinic
loop_
_symmetry_equiv_pos_as_xyz
'x, y, z'
_cell_length_a     38.522115
_cell_length_b     38.573238
_cell_length_c     23.349167
_cell_angle_alpha  90.028642
_cell_angle_beta   90.012444
_cell_angle_gamma 120.21541
loop_
_atom_site_label
_atom_site_type_symbol
_atom_site_fract_x
_atom_site_fract_y
_atom_site_fract_z
_atom_type_partial_charge
Mn0 Mn 0.66341 0.03643 0.06624 0.0
Mn1 Mn 0.65943 0.11912 0.10266 0.0
C2 C 0.61676 0.03231 0.13318 0.0
C3 C 0.68652 0.99134 0.07836 0.0
C4 C 0.62642 0.07441 0.99081 0.0
O5 O 0.71784 0.08183 0.03858 0.0
O6 O 0.71272 0.13463 0.06899 0.0
C7 C 0.7201 0.14944 0.1955 0.0
N8 N 0.68223 0.13755 0.17687 0.0
C9 C 0.66445 0.1538 0.26768 0.0
C10 C 0.70343 0.16669 0.28763 0.0
C11 C 0.73128 0.16425 0.25149 0.0
C12 C 0.65502 0.13921 0.21155 0.0
H13 H 0.74156 0.14757 0.16788 0.0
C14 C 0.73225 0.11953 0.04555 0.0
O15 O 0.67206 0.99477 0.02989 0.0
O16 O 0.68954 0.01566 0.11908 0.0
N17 N 0.60986 0.1086 0.1366 0.0
C18 C 0.57258 0.09151 0.11262 0.0
C19 C 0.54064 0.08956 0.14424 0.0
C20 C 0.54747 0.10565 0.19982 0.0
C21 C 0.58613 0.12322 0.22348 0.0
C22 C 0.61671 0.12404 0.19011 0.0
H23 H 0.56722 0.07922 0.06987 0.0
O24 O 0.61065 1.00078 0.10485 0.0
O25 O 0.64977 0.06537 0.12126 0.0
O26 O 0.63528 0.04726 1.00015 0.0
O27 O 0.63427 0.10271 0.02611 0.0
C28 C 0.59542 0.13944 0.27916 0.0
C29 C 0.63445 0.15438 0.30146 0.0
H30 H 0.71216 0.17813 0.33079 0.0
H31 H 0.76132 0.17384 0.26673 0.0
H32 H 0.51085 0.07578 0.12577 0.0
H33 H 0.52275 0.10405 0.22412 0.0
H34 H 0.57253 0.13984 0.30564 0.0
H35 H 0.64094 0.16586 0.34486 0.0
Mn36 Mn 0.6684 0.66305 0.23081 0.0
Mn37 Mn 0.58064 0.65863 0.26203 0.0
C38 C 0.62428 0.61662 0.29623 0.0
C39 C 0.73659 0.68696 0.24778 0.0
C40 C 0.59313 0.6231 0.15407 0.0
O41 O 0.67836 0.71713 0.20179 0.0
O42 O 0.61775 0.70975 0.22214 0.0
C43 C 0.61326 0.72419 0.34768 0.0
N44 N 0.58702 0.68527 0.33363 0.0
C45 C 0.55893 0.67118 0.42859 0.0
C46 C 0.58547 0.71118 0.44396 0.0
C47 C 0.61281 0.73777 0.40334 0.0
C48 C 0.56076 0.65939 0.37247 0.0
H49 H 0.63443 0.7447 0.3167 0.0
C50 C 0.65335 0.72965 0.20146 0.0
O51 O 0.72035 0.67218 0.19838 0.0
O52 O 0.71363 0.68948 0.28618 0.0
N53 N 0.54176 0.61114 0.30095 0.0
C54 C 0.51867 0.57337 0.27961 0.0
C55 C 0.48964 0.54315 0.31474 0.0
C56 C 0.4845 0.55211 0.37131 0.0
C57 C 0.50837 0.59125 0.3922 0.0
C58 C 0.53643 0.62026 0.35494 0.0
H59 H 0.52258 0.56627 0.23626 0.0
O60 O 0.65041 0.61054 0.26998 0.0
O61 O 0.62461 0.64955 0.28334 0.0
O62 O 0.63007 0.63459 0.16331 0.0
O63 O 0.57139 0.62962 0.18878 0.0
C64 C 0.50567 0.60255 0.44868 0.0
C65 C 0.53105 0.64245 0.46693 0.0
H66 H 0.58529 0.72175 0.48689 0.0
H67 H 0.63351 0.76864 0.41495 0.0
H68 H 0.47137 0.51299 0.29832 0.0
H69 H 0.46218 0.52869 0.39833 0.0
H70 H 0.48446 0.58069 0.47859 0.0
H71 H 0.52897 0.65069 0.51062 0.0
Mn72 Mn 0.04794 0.66866 0.39875 0.0
Mn73 Mn 0.96358 0.58046 0.42515 0.0
C74 C 0.04951 0.62345 0.46285 0.0
C75 C 0.0913 0.73664 0.41828 0.0
C76 C 1.01238 0.59794 0.31594 0.0
O77 O 1.0032 0.67773 0.36817 0.0
O78 O 0.949 0.62021 0.39789 0.0
C79 C 0.93151 0.60429 0.52332 0.0
N80 N 0.9438 0.57978 0.5004 0.0
C81 C 0.92742 0.54093 0.58705 0.0
C82 C 0.91406 0.56541 0.61133 0.0
C83 C 0.91632 0.59736 0.57941 0.0
C84 C 0.94218 0.54924 0.53094 0.0
H85 H 0.93345 0.62901 0.49904 0.0
C86 C 0.96527 0.65521 0.37521 0.0
O87 O 0.09088 0.7213 0.36862 0.0
O88 O 0.06509 0.71291 0.45555 0.0
N89 N 0.97365 0.53959 0.45255 0.0
C90 C 0.99118 0.52123 0.42484 0.0
C91 C 0.99345 0.48999 0.4521 0.0
C92 C 0.97733 0.47769 0.50725 0.0
C93 C 0.95926 0.4969 0.53476 0.0
C94 C 0.95793 0.52788 0.50553 0.0
H95 H 1.00347 0.53044 0.38237 0.0
O96 O 0.08231 0.65086 0.43894 0.0
O97 O 1.01689 0.62348 0.44878 0.0
O98 O 0.04098 0.63232 0.33078 0.0
O99 O 0.98131 0.577 0.34675 0.0
C100 C 0.94313 0.48698 0.59043 0.0
C101 C 0.92744 0.50913 0.61671 0.0
H102 H 0.90248 0.56026 0.65466 0.0
H103 H 0.90643 0.61662 0.59804 0.0
H104 H 1.00756 0.47539 0.43064 0.0
H105 H 0.9793 0.4537 0.52824 0.0
H106 H 0.94337 0.46287 0.61386 0.0
H107 H 0.91601 0.50183 0.66006 0.0
Mn108 Mn 0.42416 0.04734 0.56563 0.0
Mn109 Mn 0.42548 0.96353 0.60315 0.0
C110 C 0.4704 0.05083 0.63236 0.0
C111 C 0.40111 0.09251 0.577 0.0
C112 C 0.45836 1.00695 0.4904 0.0
O113 O 0.36972 1.00209 0.53706 0.0
O114 O 0.37143 0.94875 0.57351 0.0
C115 C 0.36896 0.9381 0.7009 0.0
N116 N 0.40586 0.94854 0.67961 0.0
C117 C 0.42831 0.93966 0.77176 0.0
C118 C 0.39038 0.92834 0.79451 0.0
C119 C 0.36063 0.9277 0.75895 0.0
C120 C 0.43481 0.94959 0.71355 0.0
H121 H 0.34615 0.93794 0.67386 0.0
C122 C 0.35338 0.96452 0.54761 0.0
O123 O 0.41606 0.08922 0.52888 0.0
O124 O 0.39767 0.06808 0.61776 0.0
N125 N 0.47603 0.97381 0.6333 0.0
C126 C 0.5116 0.98721 0.60538 0.0
C127 C 0.54476 0.99043 0.6352 0.0
C128 C 0.54098 0.97965 0.69328 0.0
C129 C 0.504 0.96564 0.721 0.0
C130 C 0.47189 0.96267 0.68892 0.0
H131 H 0.51472 0.99548 0.56072 0.0
O132 O 0.47671 0.08275 0.60502 0.0
O133 O 0.43716 0.01812 0.62021 0.0
O134 O 0.45311 0.03633 0.50132 0.0
O135 O 0.44734 0.97705 0.52401 0.0
C136 C 0.49791 0.95505 0.77939 0.0
C137 C 0.46013 0.94221 0.80481 0.0
H138 H 0.3839 0.92049 0.83932 0.0
H139 H 0.33139 0.91932 0.7763 0.0
H140 H 0.57321 1.0013 0.61352 0.0
H141 H 0.56671 0.98246 0.71622 0.0
H142 H 0.52223 0.95718 0.80534 0.0
H143 H 0.456 0.93472 0.84994 0.0
Mn144 Mn 0.41639 0.41945 0.7305 0.0
Mn145 Mn 0.50418 0.42393 0.7618 0.0
C146 C 0.46048 0.46585 0.7961 0.0
C147 C 0.34821 0.39563 0.74735 0.0
C148 C 0.49176 0.45962 0.65405 0.0
O149 O 0.40646 0.36539 0.70124 0.0
O150 O 0.46718 0.37298 0.72139 0.0
C151 C 0.47137 0.35804 0.84681 0.0
N152 N 0.49764 0.39702 0.83315 0.0
C153 C 0.52551 0.41075 0.92828 0.0
C154 C 0.49893 0.37069 0.94325 0.0
C155 C 0.47169 0.34426 0.90236 0.0
C156 C 0.52381 0.42275 0.87227 0.0
H157 H 0.45027 0.33766 0.81562 0.0
C158 C 0.4316 0.35302 0.70062 0.0
O159 O 0.36447 0.41039 0.69799 0.0
O160 O 0.37112 0.39301 0.78574 0.0
N161 N 0.54299 0.47126 0.80119 0.0
C162 C 0.5662 0.50909 0.78017 0.0
C163 C 0.59519 0.53916 0.81559 0.0
C164 C 0.60018 0.53 0.87211 0.0
C165 C 0.57621 0.4908 0.89265 0.0
C166 C 0.54819 0.46194 0.85512 0.0
H167 H 0.56242 0.51633 0.73686 0.0
O168 O 0.43436 0.47193 0.76983 0.0
O169 O 0.46016 0.43292 0.78314 0.0
O170 O 0.45477 0.44796 0.66314 0.0
O171 O 0.51354 0.4532 0.68882 0.0
C172 C 0.57877 0.47929 0.94904 0.0
C173 C 0.55333 0.43933 0.96691 0.0
H174 H 0.49901 0.35996 0.98609 0.0
H175 H 0.45095 0.31335 0.91367 0.0
H176 H 0.61356 0.56936 0.79943 0.0
H177 H 0.62249 0.5533 0.89934 0.0
H178 H 0.59995 0.50102 0.97916 0.0
H179 H 0.55531 0.43093 0.01053 0.0
Mn180 Mn 0.03831 0.41646 0.8985 0.0
Mn181 Mn 0.12293 0.50447 0.92506 0.0
C182 C 0.03699 0.46185 0.96259 0.0
C183 C 0.99468 0.34855 0.918 0.0
C184 C 0.07414 0.4872 0.81582 0.0
O185 O 0.08286 0.40708 0.86802 0.0
O186 O 0.13724 0.46453 0.89763 0.0
C187 C 0.15483 0.48033 0.02309 0.0
N188 N 0.14269 0.50498 1.00029 0.0
C189 C 0.15922 0.54376 0.08712 0.0
C190 C 0.17243 0.51912 0.11126 0.0
C191 C 0.17001 0.48714 0.0792 0.0
C192 C 0.14447 0.53556 0.03097 0.0
H193 H 0.15277 0.45559 0.9987 0.0
C194 C 0.12082 0.4295 0.87498 0.0
O195 O 0.99521 0.36387 0.8683 0.0
O196 O 1.02093 0.37224 0.9553 0.0
N197 N 0.11313 0.5455 0.95264 0.0
C198 C 0.09576 0.56403 0.92503 0.0
C199 C 0.09366 0.59534 0.95243 0.0
C200 C 0.10979 0.60752 1.00763 0.0
C201 C 0.12771 0.58813 0.03504 0.0
C202 C 0.12888 0.55709 1.00566 0.0
H203 H 0.08344 0.55491 0.88252 0.0
O204 O 1.00413 0.43453 0.93859 0.0
O205 O 0.06952 0.46162 0.94861 0.0
O206 O 0.04549 0.45283 0.83054 0.0
O207 O 0.10521 0.50807 0.84671 0.0
C208 C 0.14383 0.59792 0.09075 0.0
C209 C 0.15936 0.5756 0.11692 0.0
H210 H 0.184 0.52417 0.15462 0.0
H211 H 0.17979 0.46776 0.09773 0.0
H212 H 0.07967 0.61007 0.93105 0.0
H213 H 0.10796 0.63157 0.02873 0.0
H214 H 0.14372 0.62207 0.11429 0.0
H215 H 0.1708 0.58281 0.1603 0.0
H216 H 0.53511 0.98985 0.14426 0.0
H217 H 0.64447 0.06184 0.23909 0.0
H218 H 0.49569 0.98157 0.23124 0.0
H219 H 0.60546 0.05457 0.32536 0.0
H220 H 0.51948 0.07348 0.44184 0.0
H221 H 0.5576 0.07786 0.35636 0.0
H222 H 0.48497 0.94989 0.33248 0.0
H223 H 0.44755 0.94513 0.42023 0.0
C224 C 0.55059 1.00411 0.18365 0.0
C225 C 0.59265 0.02787 0.18467 0.0
C226 C 0.52815 0.99922 0.23336 0.0
C227 C 0.5475 0.0178 0.28492 0.0
C228 C 0.58967 0.0405 0.28606 0.0
C229 C 0.61198 0.04497 0.23665 0.0
C230 C 0.51149 0.04626 0.41827 0.0
C231 C 0.48041 1.00898 0.43749 0.0
C232 C 0.53338 0.04881 0.36929 0.0
C233 C 0.52402 1.01437 0.33725 0.0
C234 C 0.49259 0.97701 0.35603 0.0
C235 C 0.47135 0.97426 0.40626 0.0
H236 H 0.5759 0.53548 0.30424 0.0
H237 H 0.62868 0.64452 0.40363 0.0
H238 H 0.54257 0.49648 0.39083 0.0
H239 H 0.59634 0.60571 0.49019 0.0
H240 H 0.57154 0.51131 0.63429 0.0
H241 H 0.60296 0.54892 0.54708 0.0
H242 H 0.48708 0.49533 0.46478 0.0
H243 H 0.4551 0.45847 0.55283 0.0
C244 C 0.58021 0.55095 0.34464 0.0
C245 C 0.60371 0.5929 0.34738 0.0
C246 C 0.56119 0.52879 0.39392 0.0
C247 C 0.56677 0.54822 0.44691 0.0
C248 C 0.59155 0.59008 0.44981 0.0
C249 C 0.60976 0.61223 0.40042 0.0
C250 C 0.55262 0.5076 0.59782 0.0
C251 C 0.51073 0.48206 0.60071 0.0
C252 C 0.57067 0.52921 0.54795 0.0
C253 C 0.54739 0.52501 0.49942 0.0
C254 C 0.50564 0.49903 0.50171 0.0
C255 C 0.48739 0.47811 0.55213 0.0
H256 H 1.00555 0.47654 0.766 0.0
H257 H 0.13427 0.5382 0.74387 0.0
H258 H 0.99939 0.50884 0.67983 0.0
H259 H 0.12783 0.56941 0.65613 0.0
H260 H 0.08971 0.58228 0.47028 0.0
H261 H 0.09591 0.54773 0.55472 0.0
H262 H 1.02236 0.58186 0.6517 0.0
H263 H 1.01728 0.61715 0.56797 0.0
C264 C 0.03244 0.49647 0.74212 0.0
C265 C 0.07038 0.50477 0.76152 0.0
C266 C 0.02889 0.515 0.69284 0.0
C267 C 0.06305 0.54131 0.66095 0.0
C268 C 0.10095 0.54893 0.67959 0.0
C269 C 0.10464 0.53124 0.72984 0.0
C270 C 0.07475 0.58206 0.50967 0.0
C271 C 0.05168 0.60087 0.51227 0.0
C272 C 0.07838 0.56251 0.55788 0.0
C273 C 0.0592 0.56173 0.60952 0.0
C274 C 0.03682 0.58131 0.6122 0.0
C275 C 0.03364 0.60121 0.56427 0.0
H276 H 0.62536 0.03727 0.89023 0.0
H277 H 0.57949 0.10754 0.96921 0.0
H278 H 0.58916 0.03338 0.802 0.0
H279 H 0.54257 0.10252 0.88155 0.0
H280 H 0.44356 0.0319 0.741 0.0
H281 H 0.48287 0.03948 0.82743 0.0
H282 H 0.59065 0.08709 0.72531 0.0
H283 H 0.55119 0.08037 0.63878 0.0
C284 C 0.60753 0.0518 0.88885 0.0
C285 C 0.60522 0.07262 0.93686 0.0
C286 C 0.58702 0.04969 0.83829 0.0
C287 C 0.56308 0.06756 0.8352 0.0
C288 C 0.56072 0.08835 0.88303 0.0
C289 C 0.58195 0.09127 0.9331 0.0
C290 C 0.47564 0.04385 0.73719 0.0
C291 C 0.49438 0.05457 0.68345 0.0
C292 C 0.4981 0.04846 0.7865 0.0
C293 C 0.53968 0.06365 0.78283 0.0
C294 C 0.55855 0.07496 0.72907 0.0
C295 C 0.53613 0.07117 0.6798 0.0
H296 H 0.6298 0.62409 0.05293 0.0
H297 H 0.51333 0.57163 0.13406 0.0
H298 H 0.59779 0.5872 0.96483 0.0
H299 H 0.48189 0.53394 0.04681 0.0
H300 H 0.45618 0.43805 0.90351 0.0
H301 H 0.48855 0.47695 0.99008 0.0
H302 H 0.54223 0.58608 0.89072 0.0
H303 H 0.50885 0.547 0.80412 0.0
C304 C 0.59749 0.60453 0.05215 0.0
C305 C 0.57415 0.60069 0.10066 0.0
C306 C 0.57924 0.58359 1.0017 0.0
C307 C 0.53748 0.55767 0.99932 0.0
C308 C 0.51419 0.55359 0.04777 0.0
C309 C 0.53224 0.57524 0.09765 0.0
C310 C 0.47508 0.47034 0.9003 0.0
C311 C 0.48109 0.48962 0.84726 0.0
C312 C 0.49332 0.49254 0.9497 0.0
C313 C 0.51808 0.5344 0.9468 0.0
C314 C 0.52362 0.55377 0.89381 0.0
C315 C 0.50457 0.53156 0.84453 0.0
H316 H 0.06919 0.46807 0.06776 0.0
H317 H 0.997 0.50322 0.97001 0.0
H318 H 0.06418 0.50343 0.15154 0.0
H319 H 0.99085 0.53779 0.05452 0.0
H320 H 0.95229 0.54691 0.24384 0.0
H321 H 0.95879 0.51583 0.15596 0.0
H322 H 0.08725 0.57664 0.17972 0.0
H323 H 0.08103 0.60881 0.26606 0.0
C324 C 0.0529 0.4841 0.06406 0.0
C325 C 0.03491 0.4845 0.01202 0.0
C326 C 0.04977 0.50403 0.11201 0.0
C327 C 0.02745 0.52368 0.10933 0.0
C328 C 1.00833 0.52297 0.05767 0.0
C329 C 1.01193 0.5034 0.00942 0.0
C330 C 0.98194 0.55395 0.2298 0.0
C331 C 1.01618 0.58044 0.26156 0.0
C332 C 0.98566 0.53634 0.17947 0.0
C333 C 0.02358 0.54406 0.16082 0.0
C334 C 0.05773 0.5704 0.19277 0.0
C335 C 0.05415 0.58886 0.24214 0.0
H336 H 0.60557 0.75014 0.14331 0.0
H337 H 0.72749 0.79826 0.20267 0.0
H338 H 0.62231 0.81598 0.10717 0.0
H339 H 0.74414 0.86501 0.16724 0.0
H340 H 0.71774 0.97639 0.17457 0.0
H341 H 0.71699 0.91415 0.1981 0.0
H342 H 0.6694 0.86723 0.03044 0.0
H343 H 0.67051 0.92931 1.0065 0.0
C344 C 0.63607 0.77482 0.14826 0.0
C345 C 0.66522 0.76913 0.17586 0.0
C346 C 0.64571 0.81244 0.12724 0.0
C347 C 0.68454 0.84551 0.13426 0.0
C348 C 0.71399 0.83991 0.16127 0.0
C349 C 0.70454 0.80183 0.18124 0.0
C350 C 0.70811 0.95321 0.14222 0.0
C351 C 0.69376 0.95762 0.0889 0.0
C352 C 0.70783 0.91767 0.15565 0.0
C353 C 0.69278 0.88582 0.11624 0.0
C354 C 0.68087 0.89125 0.06172 0.0
C355 C 0.68161 0.92687 0.04804 0.0
H356 H 0.89312 0.63499 0.42185 0.0
H357 H 0.97458 0.707 0.28737 0.0
H358 H 0.84443 0.65292 0.38931 0.0
H359 H 0.92476 0.72457 0.25379 0.0
H360 H 0.79058 0.6799 0.17915 0.0
H361 H 0.85221 0.68157 0.20973 0.0
H362 H 0.83653 0.71442 0.38041 0.0
H363 H 0.7752 0.71285 0.3502 0.0
C364 C 0.90083 0.65502 0.38557 0.0
C365 C 0.93776 0.66954 0.35717 0.0
C366 C 0.87295 0.6655 0.36714 0.0
C367 C 0.88086 0.6903 0.31919 0.0
C368 C 0.91797 0.70542 0.29094 0.0
C369 C 0.94646 0.69553 0.31027 0.0
C370 C 0.80083 0.68846 0.22283 0.0
C371 C 0.77767 0.69568 0.26245 0.0
C372 C 0.83622 0.68958 0.24022 0.0
C373 C 0.84886 0.69767 0.29759 0.0
C374 C 0.82722 0.70766 0.33607 0.0
C375 C 0.79211 0.70682 0.31867 0.0
H376 H 0.10432 0.77312 0.52263 0.0
H377 H 0.15198 0.79224 0.35075 0.0
H378 H 0.16438 0.83413 0.5541 0.0
H379 H 0.2122 0.8533 0.3825 0.0
H380 H 0.31071 0.97338 0.45957 0.0
H381 H 0.24277 0.92385 0.42681 0.0
H382 H 0.2337 0.84412 0.56313 0.0
H383 H 0.3008 0.89272 0.59519 0.0
C384 C 0.12717 0.79078 0.49125 0.0
C385 C 0.1236 0.7775 0.43434 0.0
C386 C 0.16165 0.82567 0.50936 0.0
C387 C 0.19322 0.8482 0.47093 0.0
C388 C 0.18832 0.83666 0.41305 0.0
C389 C 0.15388 0.80156 0.39495 0.0
C390 C 0.29389 0.94546 0.48284 0.0
C391 C 0.31125 0.93693 0.5298 0.0
C392 C 0.25514 0.91711 0.46398 0.0
C393 C 0.23283 0.8802 0.4926 0.0
C394 C 0.2498 0.87246 0.54064 0.0
C395 C 0.2885 0.90029 0.55874 0.0
H396 H 0.35775 0.284 0.70145 0.0
H397 H 0.4797 0.3334 0.64167 0.0
H398 H 0.34173 0.21754 0.66546 0.0
H399 H 0.46361 0.26785 0.60506 0.0
H400 H 0.41736 0.1546 0.50518 0.0
H401 H 0.41764 0.21635 0.5288 0.0
H402 H 0.36891 0.16891 0.69572 0.0
H403 H 0.3689 0.10701 0.67246 0.0
C404 C 0.38083 0.28078 0.67979 0.0
C405 C 0.41999 0.31374 0.6745 0.0
C406 C 0.37174 0.24285 0.65949 0.0
C407 C 0.4014 0.23767 0.63226 0.0
C408 C 0.44004 0.27103 0.62526 0.0
C409 C 0.44931 0.3085 0.64657 0.0
C410 C 0.40584 0.15687 0.54647 0.0
C411 C 0.39356 0.12607 0.58722 0.0
C412 C 0.40611 0.1923 0.55997 0.0
C413 C 0.39364 0.1975 0.61423 0.0
C414 C 0.37849 0.16558 0.65347 0.0
C415 C 0.37865 0.13023 0.6402 0.0
H416 H 0.11099 0.37728 0.78741 0.0
H417 H 0.19312 0.44969 0.92119 0.0
H418 H 0.16045 0.35924 0.75379 0.0
H419 H 0.24145 0.43128 0.88863 0.0
H420 H 0.30976 0.37025 0.8499 0.0
H421 H 0.24876 0.36933 0.88017 0.0
H422 H 0.23299 0.40178 0.70932 0.0
H423 H 0.29431 0.40283 0.67869 0.0
C424 C 0.13918 0.38875 0.81014 0.0
C425 C 0.14817 0.41497 0.85687 0.0
C426 C 0.16747 0.37859 0.79079 0.0
C427 C 0.20466 0.39366 0.81885 0.0
C428 C 0.21287 0.41873 0.86661 0.0
C429 C 0.18518 0.42948 0.88506 0.0
C430 C 0.29289 0.37633 0.81834 0.0
C431 C 0.30723 0.38719 0.76206 0.0
C432 C 0.25797 0.37586 0.83578 0.0
C433 C 0.23641 0.38593 0.79726 0.0
C434 C 0.24893 0.39372 0.73984 0.0
C435 C 0.28413 0.39448 0.72241 0.0
H436 H 0.93534 0.29203 0.84947 0.0
H437 H 0.97986 0.31329 0.02331 0.0
H438 H 0.87475 0.23101 0.88057 0.0
H439 H 0.91934 0.25252 0.05412 0.0
H440 H 0.78174 0.19413 0.08788 0.0
H441 H 0.84884 0.24321 0.05645 0.0
H442 H 0.84509 0.16014 0.9293 0.0
H443 H 0.77725 0.10995 0.96172 0.0
C444 C 0.93267 0.28321 0.89401 0.0
C445 C 0.9622 0.3078 0.93405 0.0
C446 C 0.89804 0.24816 0.91172 0.0
C447 C 0.89217 0.23731 0.96985 0.0
C448 C 0.92293 0.26043 0.00913 0.0
C449 C 0.95765 0.29518 0.99139 0.0
C450 C 0.79516 0.18594 0.05357 0.0
C451 C 0.77402 0.14806 0.02724 0.0
C452 C 0.83383 0.21407 0.03585 0.0
C453 C 0.85232 0.20543 0.99069 0.0
C454 C 0.8315 0.1675 0.96432 0.0
C455 C 0.79282 0.13883 0.98295 0.0
loop_
_geom_bond_atom_site_label_1
_geom_bond_atom_site_label_2
_geom_bond_distance
_geom_bond_site_symmetry_2
_ccdc_geom_bond_type
Mn0 O5 2.095 . S
Mn0 O15 2.162 1_545 S
Mn0 O16 2.297 1_545 S
Mn0 O24 2.385 1_545 S
Mn0 O25 2.209 . S
Mn0 O26 2.094 1_554 S
Mn1 O6 2.121 . S
Mn1 N8 2.257 . S
Mn1 N17 2.282 . S
Mn1 O25 2.215 . S
Mn1 O27 2.128 . S
C2 O24 1.234 1_545 S
C2 O25 1.283 . S
C3 O15 1.281 . S
C3 O16 1.236 . S
C4 O26 1.240 . S
C4 O27 1.257 1_556 S
O5 Mn0 2.095 . S
O5 C14 1.250 . S
O6 Mn1 2.121 . S
O6 C14 1.258 . S
C7 N8 1.326 . S
C7 C11 1.460 . S
C7 H13 0.929 . S
N8 Mn1 2.257 . S
N8 C7 1.326 . S
N8 C12 1.362 . S
C9 C10 1.258 . S
C9 C12 1.431 . S
C9 C29 1.449 . S
C10 C9 1.258 . S
C10 C11 1.477 . S
C10 H30 0.931 . S
C11 C7 1.460 . S
C11 C10 1.477 . S
C11 H31 0.930 . S
C12 N8 1.362 . S
C12 C9 1.431 . S
C12 C22 1.476 . S
H13 C7 0.929 . S
C14 O5 1.250 . S
C14 O6 1.258 . S
O15 Mn0 2.162 1_565 S
O15 C3 1.281 . S
O16 Mn0 2.297 1_565 S
O16 C3 1.236 . S
N17 Mn1 2.282 . S
N17 C18 1.328 . S
N17 C22 1.318 . S
C18 N17 1.328 . S
C18 C19 1.457 . S
C18 H23 0.929 . S
C19 C18 1.457 . S
C19 C20 1.291 . S
C19 H32 0.931 . S
C20 C19 1.291 . S
C20 C21 1.373 . S
C20 H33 0.929 . S
C21 C20 1.373 . S
C21 C22 1.396 . S
C21 C28 1.403 . S
C22 C12 1.476 . S
C22 N17 1.318 . S
C22 C21 1.396 . S
H23 C18 0.929 . S
O24 Mn0 2.385 1_565 S
O24 C2 1.234 1_565 S
O25 Mn0 2.209 . S
O25 Mn1 2.215 . S
O25 C2 1.283 . S
O26 Mn0 2.094 1_556 S
O26 C4 1.240 . S
O27 Mn1 2.128 . S
O27 C4 1.257 1_554 S
C28 C21 1.403 . S
C28 C29 1.399 . S
C28 H34 0.929 . S
C29 C9 1.449 . S
C29 C28 1.399 . S
C29 H35 0.930 . S
H30 C10 0.931 . S
H31 C11 0.930 . S
H32 C19 0.931 . S
H33 C20 0.929 . S
H34 C28 0.929 . S
H35 C29 0.930 . S
Mn36 O41 2.095 . S
Mn36 O51 2.162 . S
Mn36 O52 2.297 . S
Mn36 O60 2.385 . S
Mn36 O61 2.209 . S
Mn36 O62 2.094 . S
Mn37 O42 2.121 . S
Mn37 N44 2.257 . S
Mn37 N53 2.282 . S
Mn37 O61 2.215 . S
Mn37 O63 2.117 . S
C38 O60 1.234 . S
C38 O61 1.283 . S
C39 O51 1.281 . S
C39 O52 1.236 . S
C40 O62 1.240 . S
C40 O63 1.264 . S
O41 Mn36 2.095 . S
O41 C50 1.250 . S
O42 Mn37 2.121 . S
O42 C50 1.258 . S
C43 N44 1.326 . S
C43 C47 1.460 . S
C43 H49 0.929 . S
N44 Mn37 2.257 . S
N44 C43 1.326 . S
N44 C48 1.362 . S
C45 C46 1.258 . S
C45 C48 1.431 . S
C45 C65 1.449 . S
C46 C45 1.258 . S
C46 C47 1.477 . S
C46 H66 0.931 . S
C47 C43 1.460 . S
C47 C46 1.477 . S
C47 H67 0.930 . S
C48 N44 1.362 . S
C48 C45 1.431 . S
C48 C58 1.476 . S
H49 C43 0.929 . S
C50 O41 1.250 . S
C50 O42 1.258 . S
O51 Mn36 2.162 . S
O51 C39 1.281 . S
O52 Mn36 2.297 . S
O52 C39 1.236 . S
N53 Mn37 2.282 . S
N53 C54 1.328 . S
N53 C58 1.318 . S
C54 N53 1.328 . S
C54 C55 1.457 . S
C54 H59 0.929 . S
C55 C54 1.457 . S
C55 C56 1.291 . S
C55 H68 0.931 . S
C56 C55 1.291 . S
C56 C57 1.373 . S
C56 H69 0.929 . S
C57 C56 1.373 . S
C57 C58 1.396 . S
C57 C64 1.403 . S
C58 C48 1.476 . S
C58 N53 1.318 . S
C58 C57 1.396 . S
H59 C54 0.929 . S
O60 Mn36 2.385 . S
O60 C38 1.234 . S
O61 Mn36 2.209 . S
O61 Mn37 2.215 . S
O61 C38 1.283 . S
O62 Mn36 2.094 . S
O62 C40 1.240 . S
O63 Mn37 2.117 . S
O63 C40 1.264 . S
C64 C57 1.403 . S
C64 C65 1.399 . S
C64 H70 0.929 . S
C65 C45 1.449 . S
C65 C64 1.399 . S
C65 H71 0.930 . S
H66 C46 0.931 . S
H67 C47 0.930 . S
H68 C55 0.931 . S
H69 C56 0.929 . S
H70 C64 0.929 . S
H71 C65 0.930 . S
Mn72 O77 2.095 1_455 S
Mn72 O87 2.162 . S
Mn72 O88 2.297 . S
Mn72 O96 2.385 . S
Mn72 O97 2.203 1_455 S
Mn72 O98 2.094 . S
Mn73 O78 2.121 . S
Mn73 N80 2.257 . S
Mn73 N89 2.282 . S
Mn73 O97 2.225 . S
Mn73 O99 2.117 . S
C74 O96 1.234 . S
C74 O97 1.265 1_455 S
C75 O87 1.281 . S
C75 O88 1.236 . S
C76 O98 1.240 . S
C76 O99 1.264 1_455 S
O77 Mn72 2.095 1_655 S
O77 C86 1.250 . S
O78 Mn73 2.121 . S
O78 C86 1.258 . S
C79 N80 1.326 . S
C79 C83 1.460 . S
C79 H85 0.929 . S
N80 Mn73 2.257 . S
N80 C79 1.326 . S
N80 C84 1.362 . S
C81 C82 1.258 . S
C81 C84 1.431 . S
C81 C101 1.449 . S
C82 C81 1.258 . S
C82 C83 1.477 . S
C82 H102 0.931 . S
C83 C79 1.460 . S
C83 C82 1.477 . S
C83 H103 0.930 . S
C84 N80 1.362 . S
C84 C81 1.431 . S
C84 C94 1.476 . S
H85 C79 0.929 . S
C86 O77 1.250 . S
C86 O78 1.258 . S
O87 Mn72 2.162 . S
O87 C75 1.281 . S
O88 Mn72 2.297 . S
O88 C75 1.236 . S
N89 Mn73 2.282 . S
N89 C90 1.328 . S
N89 C94 1.318 . S
C90 N89 1.328 . S
C90 C91 1.457 . S
C90 H95 0.929 . S
C91 C90 1.457 . S
C91 C92 1.291 . S
C91 H104 0.931 1_655 S
C92 C91 1.291 . S
C92 C93 1.373 . S
C92 H105 0.929 . S
C93 C92 1.373 . S
C93 C94 1.396 . S
C93 C100 1.403 . S
C94 C84 1.476 . S
C94 N89 1.318 . S
C94 C93 1.396 . S
H95 C90 0.929 . S
O96 Mn72 2.385 . S
O96 C74 1.234 . S
O97 Mn72 2.203 1_655 S
O97 Mn73 2.225 . S
O97 C74 1.265 1_655 S
O98 Mn72 2.094 . S
O98 C76 1.240 . S
O99 Mn73 2.117 . S
O99 C76 1.264 1_655 S
C100 C93 1.403 . S
C100 C101 1.399 . S
C100 H106 0.929 . S
C101 C81 1.449 . S
C101 C100 1.399 . S
C101 H107 0.930 . S
H102 C82 0.931 . S
H103 C83 0.930 . S
H104 C91 0.931 1_455 S
H105 C92 0.929 . S
H106 C100 0.929 . S
H107 C101 0.930 . S
Mn108 O113 2.095 1_545 S
Mn108 O123 2.162 . S
Mn108 O124 2.297 . S
Mn108 O132 2.385 . S
Mn108 O133 2.209 . S
Mn108 O134 2.094 . S
Mn109 O114 2.121 . S
Mn109 N116 2.257 . S
Mn109 N125 2.282 . S
Mn109 O133 2.215 1_565 S
Mn109 O135 2.117 . S
C110 O132 1.234 . S
C110 O133 1.283 . S
C111 O123 1.281 . S
C111 O124 1.236 . S
C112 O134 1.240 . S
C112 O135 1.264 1_545 S
O113 Mn108 2.095 1_565 S
O113 C122 1.250 . S
O114 Mn109 2.121 . S
O114 C122 1.258 . S
C115 N116 1.326 . S
C115 C119 1.460 . S
C115 H121 0.929 . S
N116 Mn109 2.257 . S
N116 C115 1.326 . S
N116 C120 1.362 . S
C117 C118 1.258 . S
C117 C120 1.431 . S
C117 C137 1.449 . S
C118 C117 1.258 . S
C118 C119 1.477 . S
C118 H138 0.931 . S
C119 C115 1.460 . S
C119 C118 1.477 . S
C119 H139 0.930 . S
C120 N116 1.362 . S
C120 C117 1.431 . S
C120 C130 1.476 . S
H121 C115 0.929 . S
C122 O113 1.250 . S
C122 O114 1.258 . S
O123 Mn108 2.162 . S
O123 C111 1.281 . S
O124 Mn108 2.297 . S
O124 C111 1.236 . S
N125 Mn109 2.282 . S
N125 C126 1.328 . S
N125 C130 1.318 . S
C126 N125 1.328 . S
C126 C127 1.457 . S
C126 H131 0.929 1_565 S
C127 C126 1.457 . S
C127 C128 1.291 . S
C127 H140 0.931 1_565 S
C128 C127 1.291 . S
C128 C129 1.373 . S
C128 H141 0.929 . S
C129 C128 1.373 . S
C129 C130 1.396 . S
C129 C136 1.403 . S
C130 C120 1.476 . S
C130 N125 1.318 . S
C130 C129 1.396 . S
H131 C126 0.929 1_545 S
O132 Mn108 2.385 . S
O132 C110 1.234 . S
O133 Mn108 2.209 . S
O133 Mn109 2.215 1_545 S
O133 C110 1.283 . S
O134 Mn108 2.094 . S
O134 C112 1.240 . S
O135 Mn109 2.117 . S
O135 C112 1.264 1_565 S
C136 C129 1.403 . S
C136 C137 1.399 . S
C136 H142 0.929 . S
C137 C117 1.449 . S
C137 C136 1.399 . S
C137 H143 0.930 . S
H138 C118 0.931 . S
H139 C119 0.930 . S
H140 C127 0.931 1_545 S
H141 C128 0.929 . S
H142 C136 0.929 . S
H143 C137 0.930 . S
Mn144 O149 2.095 . S
Mn144 O159 2.162 . S
Mn144 O160 2.297 . S
Mn144 O168 2.385 . S
Mn144 O169 2.209 . S
Mn144 O170 2.094 . S
Mn145 O150 2.121 . S
Mn145 N152 2.257 . S
Mn145 N161 2.282 . S
Mn145 O169 2.215 . S
Mn145 O171 2.117 . S
C146 O168 1.234 . S
C146 O169 1.283 . S
C147 O159 1.281 . S
C147 O160 1.236 . S
C148 O170 1.240 . S
C148 O171 1.264 . S
O149 Mn144 2.095 . S
O149 C158 1.250 . S
O150 Mn145 2.121 . S
O150 C158 1.258 . S
C151 N152 1.326 . S
C151 C155 1.460 . S
C151 H157 0.929 . S
N152 Mn145 2.257 . S
N152 C151 1.326 . S
N152 C156 1.362 . S
C153 C154 1.258 . S
C153 C156 1.431 . S
C153 C173 1.449 . S
C154 C153 1.258 . S
C154 C155 1.477 . S
C154 H174 0.931 . S
C155 C151 1.460 . S
C155 C154 1.477 . S
C155 H175 0.930 . S
C156 N152 1.362 . S
C156 C153 1.431 . S
C156 C166 1.476 . S
H157 C151 0.929 . S
C158 O149 1.250 . S
C158 O150 1.258 . S
O159 Mn144 2.162 . S
O159 C147 1.281 . S
O160 Mn144 2.297 . S
O160 C147 1.236 . S
N161 Mn145 2.282 . S
N161 C162 1.328 . S
N161 C166 1.318 . S
C162 N161 1.328 . S
C162 C163 1.457 . S
C162 H167 0.929 . S
C163 C162 1.457 . S
C163 C164 1.291 . S
C163 H176 0.931 . S
C164 C163 1.291 . S
C164 C165 1.373 . S
C164 H177 0.929 . S
C165 C164 1.373 . S
C165 C166 1.396 . S
C165 C172 1.403 . S
C166 C156 1.476 . S
C166 N161 1.318 . S
C166 C165 1.396 . S
H167 C162 0.929 . S
O168 Mn144 2.385 . S
O168 C146 1.234 . S
O169 Mn144 2.209 . S
O169 Mn145 2.215 . S
O169 C146 1.283 . S
O170 Mn144 2.094 . S
O170 C148 1.240 . S
O171 Mn145 2.117 . S
O171 C148 1.264 . S
C172 C165 1.403 . S
C172 C173 1.399 . S
C172 H178 0.929 . S
C173 C153 1.449 . S
C173 C172 1.399 . S
C173 H179 0.930 . S
H174 C154 0.931 . S
H175 C155 0.930 . S
H176 C163 0.931 . S
H177 C164 0.929 . S
H178 C172 0.929 . S
H179 C173 0.930 . S
Mn180 O185 2.095 . S
Mn180 O195 2.162 1_455 S
Mn180 O196 2.297 1_455 S
Mn180 O204 2.385 1_455 S
Mn180 O205 2.209 . S
Mn180 O206 2.094 1_455 S
Mn181 O186 2.121 . S
Mn181 N188 2.257 . S
Mn181 N197 2.282 . S
Mn181 O205 2.215 . S
Mn181 O207 2.117 . S
C182 O204 1.234 1_455 S
C182 O205 1.283 . S
C183 O195 1.281 . S
C183 O196 1.236 . S
C184 O206 1.240 1_455 S
C184 O207 1.264 . S
O185 Mn180 2.095 . S
O185 C194 1.250 . S
O186 Mn181 2.121 . S
O186 C194 1.258 . S
C187 N188 1.326 . S
C187 C191 1.460 1_556 S
C187 H193 0.929 . S
N188 Mn181 2.257 . S
N188 C187 1.326 . S
N188 C192 1.362 1_556 S
C189 C190 1.258 . S
C189 C192 1.431 . S
C189 C209 1.449 . S
C190 C189 1.258 . S
C190 C191 1.477 . S
C190 H210 0.931 . S
C191 C187 1.460 1_554 S
C191 C190 1.477 . S
C191 H211 0.930 . S
C192 N188 1.362 1_554 S
C192 C189 1.431 . S
C192 C202 1.476 1_554 S
H193 C187 0.929 . S
C194 O185 1.250 . S
C194 O186 1.258 . S
O195 Mn180 2.162 1_655 S
O195 C183 1.281 . S
O196 Mn180 2.297 1_655 S
O196 C183 1.236 . S
N197 Mn181 2.282 . S
N197 C198 1.328 . S
N197 C202 1.318 . S
C198 N197 1.328 . S
C198 C199 1.457 . S
C198 H203 0.929 . S
C199 C198 1.457 . S
C199 C200 1.291 . S
C199 H212 0.931 . S
C200 C199 1.291 . S
C200 C201 1.373 1_556 S
C200 H213 0.929 1_556 S
C201 C200 1.373 1_554 S
C201 C202 1.396 1_554 S
C201 C208 1.403 . S
C202 C192 1.476 1_556 S
C202 N197 1.318 . S
C202 C201 1.396 1_556 S
H203 C198 0.929 . S
O204 Mn180 2.385 1_655 S
O204 C182 1.234 1_655 S
O205 Mn180 2.209 . S
O205 Mn181 2.215 . S
O205 C182 1.283 . S
O206 Mn180 2.094 1_655 S
O206 C184 1.240 1_655 S
O207 Mn181 2.117 . S
O207 C184 1.264 . S
C208 C201 1.403 . S
C208 C209 1.399 . S
C208 H214 0.929 . S
C209 C189 1.449 . S
C209 C208 1.399 . S
C209 H215 0.930 . S
H210 C190 0.931 . S
H211 C191 0.930 . S
H212 C199 0.931 . S
H213 C200 0.929 1_554 S
H214 C208 0.929 . S
H215 C209 0.930 . S
H216 C224 0.958 . S
H217 C229 0.950 . S
H218 C226 0.950 . S
H219 C228 0.950 . S
H220 C230 0.950 . S
H221 C232 0.950 . S
H222 C234 0.950 1_565 S
H223 C235 0.950 1_565 S
C224 H216 0.958 . S
C224 C225 1.384 1_565 S
C224 C226 1.384 . S
C225 C224 1.384 1_545 S
C225 C229 1.393 . S
C226 H218 0.950 . S
C226 C224 1.384 . S
C226 C227 1.401 1_565 S
C227 C226 1.401 1_545 S
C227 C228 1.398 . S
C227 C233 1.491 . S
C228 H219 0.950 . S
C228 C227 1.398 . S
C228 C229 1.391 . S
C229 H217 0.950 . S
C229 C225 1.393 . S
C229 C228 1.391 . S
C230 H220 0.950 . S
C230 C231 1.386 . S
C230 C232 1.391 . S
C231 C230 1.386 . S
C231 C235 1.393 . S
C232 H221 0.950 . S
C232 C230 1.391 . S
C232 C233 1.400 . S
C233 C227 1.491 . S
C233 C232 1.400 . S
C233 C234 1.398 . S
C234 H222 0.950 1_545 S
C234 C233 1.398 . S
C234 C235 1.391 . S
C235 H223 0.950 1_545 S
C235 C231 1.393 . S
C235 C234 1.391 . S
H236 C244 0.950 . S
H237 C249 0.950 . S
H238 C246 0.950 . S
H239 C248 0.950 . S
H240 C250 0.950 . S
H241 C252 0.950 . S
H242 C254 0.950 . S
H243 C255 0.950 . S
C244 H236 0.950 . S
C244 C245 1.386 . S
C244 C246 1.391 . S
C245 C244 1.386 . S
C245 C249 1.393 . S
C246 H238 0.950 . S
C246 C244 1.391 . S
C246 C247 1.400 . S
C247 C246 1.400 . S
C247 C248 1.398 . S
C247 C253 1.491 . S
C248 H239 0.950 . S
C248 C247 1.398 . S
C248 C249 1.391 . S
C249 H237 0.950 . S
C249 C245 1.393 . S
C249 C248 1.391 . S
C250 H240 0.950 . S
C250 C251 1.386 . S
C250 C252 1.391 . S
C251 C250 1.386 . S
C251 C255 1.393 . S
C252 H241 0.950 . S
C252 C250 1.391 . S
C252 C253 1.400 . S
C253 C247 1.491 . S
C253 C252 1.400 . S
C253 C254 1.398 . S
C254 H242 0.950 . S
C254 C253 1.398 . S
C254 C255 1.391 . S
C255 H243 0.950 . S
C255 C251 1.393 . S
C255 C254 1.391 . S
H256 C264 0.950 . S
H257 C269 0.950 . S
H258 C266 0.950 . S
H259 C268 0.950 . S
H260 C270 0.950 . S
H261 C272 0.950 . S
H262 C274 0.950 . S
H263 C275 0.950 . S
C264 H256 0.950 . S
C264 C265 1.386 1_655 S
C264 C266 1.391 . S
C265 C264 1.386 1_455 S
C265 C269 1.393 . S
C266 H258 0.950 . S
C266 C264 1.391 . S
C266 C267 1.400 1_655 S
C267 C266 1.400 1_455 S
C267 C268 1.398 . S
C267 C273 1.491 . S
C268 H259 0.950 . S
C268 C267 1.398 . S
C268 C269 1.391 . S
C269 H257 0.950 . S
C269 C265 1.393 . S
C269 C268 1.391 . S
C270 H260 0.950 . S
C270 C271 1.386 . S
C270 C272 1.391 . S
C271 C270 1.386 . S
C271 C275 1.393 1_455 S
C272 H261 0.950 . S
C272 C270 1.391 . S
C272 C273 1.400 . S
C273 C267 1.491 . S
C273 C272 1.400 . S
C273 C274 1.398 1_455 S
C274 H262 0.950 . S
C274 C273 1.398 1_655 S
C274 C275 1.391 . S
C275 H263 0.950 . S
C275 C271 1.393 1_655 S
C275 C274 1.391 . S
H276 C284 0.950 1_565 S
H277 C289 0.950 . S
H278 C286 0.950 1_565 S
H279 C288 0.950 . S
H280 C290 0.950 . S
H281 C292 0.950 . S
H282 C294 0.950 1_565 S
H283 C295 0.950 1_565 S
C284 H276 0.950 1_545 S
C284 C285 1.386 . S
C284 C286 1.391 . S
C285 C284 1.386 . S
C285 C289 1.393 . S
C286 H278 0.950 1_545 S
C286 C284 1.391 . S
C286 C287 1.400 . S
C287 C286 1.400 . S
C287 C288 1.398 . S
C287 C293 1.491 . S
C288 H279 0.950 . S
C288 C287 1.398 . S
C288 C289 1.391 . S
C289 H277 0.950 . S
C289 C285 1.393 . S
C289 C288 1.391 . S
C290 H280 0.950 . S
C290 C291 1.386 . S
C290 C292 1.391 . S
C291 C290 1.386 . S
C291 C295 1.393 . S
C292 H281 0.950 . S
C292 C290 1.391 . S
C292 C293 1.400 . S
C293 C287 1.491 . S
C293 C292 1.400 . S
C293 C294 1.398 . S
C294 H282 0.950 1_545 S
C294 C293 1.398 . S
C294 C295 1.391 . S
C295 H283 0.950 1_545 S
C295 C291 1.393 . S
C295 C294 1.391 . S
H296 C304 0.950 . S
H297 C309 0.950 . S
H298 C306 0.950 . S
H299 C308 0.950 . S
H300 C310 0.950 . S
H301 C312 0.950 . S
H302 C314 0.950 . S
H303 C315 0.950 . S
C304 H296 0.950 . S
C304 C305 1.386 . S
C304 C306 1.391 1_554 S
C305 C304 1.386 . S
C305 C309 1.393 . S
C306 H298 0.950 . S
C306 C304 1.391 1_556 S
C306 C307 1.400 . S
C307 C306 1.400 . S
C307 C308 1.398 1_556 S
C307 C313 1.491 . S
C308 H299 0.950 . S
C308 C307 1.398 1_554 S
C308 C309 1.391 . S
C309 H297 0.950 . S
C309 C305 1.393 . S
C309 C308 1.391 . S
C310 H300 0.950 . S
C310 C311 1.386 . S
C310 C312 1.391 . S
C311 C310 1.386 . S
C311 C315 1.393 . S
C312 H301 0.950 . S
C312 C310 1.391 . S
C312 C313 1.400 . S
C313 C307 1.491 . S
C313 C312 1.400 . S
C313 C314 1.398 . S
C314 H302 0.950 . S
C314 C313 1.398 . S
C314 C315 1.391 . S
C315 H303 0.950 . S
C315 C311 1.393 . S
C315 C314 1.391 . S
H316 C324 0.950 . S
H317 C329 0.950 . S
H318 C326 0.950 . S
H319 C328 0.950 . S
H320 C330 0.950 . S
H321 C332 0.950 . S
H322 C334 0.950 . S
H323 C335 0.950 . S
C324 H316 0.950 . S
C324 C325 1.386 . S
C324 C326 1.391 . S
C325 C324 1.386 . S
C325 C329 1.393 1_455 S
C326 H318 0.950 . S
C326 C324 1.391 . S
C326 C327 1.400 . S
C327 C326 1.400 . S
C327 C328 1.398 1_455 S
C327 C333 1.491 . S
C328 H319 0.950 . S
C328 C327 1.398 1_655 S
C328 C329 1.391 . S
C329 H317 0.950 . S
C329 C325 1.393 1_655 S
C329 C328 1.391 . S
C330 H320 0.950 . S
C330 C331 1.386 1_655 S
C330 C332 1.391 . S
C331 C330 1.386 1_455 S
C331 C335 1.393 . S
C332 H321 0.950 . S
C332 C330 1.391 . S
C332 C333 1.400 1_655 S
C333 C327 1.491 . S
C333 C332 1.400 1_455 S
C333 C334 1.398 . S
C334 H322 0.950 . S
C334 C333 1.398 . S
C334 C335 1.391 . S
C335 H323 0.950 . S
C335 C331 1.393 . S
C335 C334 1.391 . S
H336 C344 0.950 . S
H337 C349 0.950 . S
H338 C346 0.950 . S
H339 C348 0.950 . S
H340 C350 0.950 . S
H341 C352 0.950 . S
H342 C354 0.950 . S
H343 C355 0.950 . S
C344 H336 0.950 . S
C344 C345 1.386 . S
C344 C346 1.391 . S
C345 C344 1.386 . S
C345 C349 1.393 . S
C346 H338 0.950 . S
C346 C344 1.391 . S
C346 C347 1.400 . S
C347 C346 1.400 . S
C347 C348 1.398 . S
C347 C353 1.491 . S
C348 H339 0.950 . S
C348 C347 1.398 . S
C348 C349 1.391 . S
C349 H337 0.950 . S
C349 C345 1.393 . S
C349 C348 1.391 . S
C350 H340 0.950 . S
C350 C351 1.386 . S
C350 C352 1.391 . S
C351 C350 1.386 . S
C351 C355 1.393 . S
C352 H341 0.950 . S
C352 C350 1.391 . S
C352 C353 1.400 . S
C353 C347 1.491 . S
C353 C352 1.400 . S
C353 C354 1.398 . S
C354 H342 0.950 . S
C354 C353 1.398 . S
C354 C355 1.391 . S
C355 H343 0.950 . S
C355 C351 1.393 . S
C355 C354 1.391 . S
H356 C364 0.950 . S
H357 C369 0.950 . S
H358 C366 0.950 . S
H359 C368 0.950 . S
H360 C370 0.950 . S
H361 C372 0.950 . S
H362 C374 0.950 . S
H363 C375 0.950 . S
C364 H356 0.950 . S
C364 C365 1.386 . S
C364 C366 1.391 . S
C365 C364 1.386 . S
C365 C369 1.393 . S
C366 H358 0.950 . S
C366 C364 1.391 . S
C366 C367 1.400 . S
C367 C366 1.400 . S
C367 C368 1.398 . S
C367 C373 1.491 . S
C368 H359 0.950 . S
C368 C367 1.398 . S
C368 C369 1.391 . S
C369 H357 0.950 . S
C369 C365 1.393 . S
C369 C368 1.391 . S
C370 H360 0.950 . S
C370 C371 1.386 . S
C370 C372 1.391 . S
C371 C370 1.386 . S
C371 C375 1.393 . S
C372 H361 0.950 . S
C372 C370 1.391 . S
C372 C373 1.400 . S
C373 C367 1.491 . S
C373 C372 1.400 . S
C373 C374 1.398 . S
C374 H362 0.950 . S
C374 C373 1.398 . S
C374 C375 1.391 . S
C375 H363 0.950 . S
C375 C371 1.393 . S
C375 C374 1.391 . S
H376 C384 0.950 . S
H377 C389 0.950 . S
H378 C386 0.950 . S
H379 C388 0.950 . S
H380 C390 0.950 . S
H381 C392 0.950 . S
H382 C394 0.950 . S
H383 C395 0.950 . S
C384 H376 0.950 . S
C384 C385 1.386 . S
C384 C386 1.391 . S
C385 C384 1.386 . S
C385 C389 1.393 . S
C386 H378 0.950 . S
C386 C384 1.391 . S
C386 C387 1.400 . S
C387 C386 1.400 . S
C387 C388 1.398 . S
C387 C393 1.491 . S
C388 H379 0.950 . S
C388 C387 1.398 . S
C388 C389 1.391 . S
C389 H377 0.950 . S
C389 C385 1.393 . S
C389 C388 1.391 . S
C390 H380 0.950 . S
C390 C391 1.386 . S
C390 C392 1.391 . S
C391 C390 1.386 . S
C391 C395 1.393 . S
C392 H381 0.950 . S
C392 C390 1.391 . S
C392 C393 1.400 . S
C393 C387 1.491 . S
C393 C392 1.400 . S
C393 C394 1.398 . S
C394 H382 0.950 . S
C394 C393 1.398 . S
C394 C395 1.391 . S
C395 H383 0.950 . S
C395 C391 1.393 . S
C395 C394 1.391 . S
H396 C404 0.950 . S
H397 C409 0.950 . S
H398 C406 0.950 . S
H399 C408 0.950 . S
H400 C410 0.950 . S
H401 C412 0.950 . S
H402 C414 0.950 . S
H403 C415 0.950 . S
C404 H396 0.950 . S
C404 C405 1.386 . S
C404 C406 1.391 . S
C405 C404 1.386 . S
C405 C409 1.393 . S
C406 H398 0.950 . S
C406 C404 1.391 . S
C406 C407 1.400 . S
C407 C406 1.400 . S
C407 C408 1.398 . S
C407 C413 1.491 . S
C408 H399 0.950 . S
C408 C407 1.398 . S
C408 C409 1.391 . S
C409 H397 0.950 . S
C409 C405 1.393 . S
C409 C408 1.391 . S
C410 H400 0.950 . S
C410 C411 1.386 . S
C410 C412 1.391 . S
C411 C410 1.386 . S
C411 C415 1.393 . S
C412 H401 0.950 . S
C412 C410 1.391 . S
C412 C413 1.400 . S
C413 C407 1.491 . S
C413 C412 1.400 . S
C413 C414 1.398 . S
C414 H402 0.950 . S
C414 C413 1.398 . S
C414 C415 1.391 . S
C415 H403 0.950 . S
C415 C411 1.393 . S
C415 C414 1.391 . S
H416 C424 0.950 . S
H417 C429 0.950 . S
H418 C426 0.950 . S
H419 C428 0.950 . S
H420 C430 0.950 . S
H421 C432 0.950 . S
H422 C434 0.950 . S
H423 C435 0.950 . S
C424 H416 0.950 . S
C424 C425 1.386 . S
C424 C426 1.391 . S
C425 C424 1.386 . S
C425 C429 1.393 . S
C426 H418 0.950 . S
C426 C424 1.391 . S
C426 C427 1.400 . S
C427 C426 1.400 . S
C427 C428 1.398 . S
C427 C433 1.491 . S
C428 H419 0.950 . S
C428 C427 1.398 . S
C428 C429 1.391 . S
C429 H417 0.950 . S
C429 C425 1.393 . S
C429 C428 1.391 . S
C430 H420 0.950 . S
C430 C431 1.386 . S
C430 C432 1.391 . S
C431 C430 1.386 . S
C431 C435 1.393 . S
C432 H421 0.950 . S
C432 C430 1.391 . S
C432 C433 1.400 . S
C433 C427 1.491 . S
C433 C432 1.400 . S
C433 C434 1.398 . S
C434 H422 0.950 . S
C434 C433 1.398 . S
C434 C435 1.391 . S
C435 H423 0.950 . S
C435 C431 1.393 . S
C435 C434 1.391 . S
H436 C444 0.950 . S
H437 C449 0.950 . S
H438 C446 0.950 . S
H439 C448 0.950 . S
H440 C450 0.950 . S
H441 C452 0.950 . S
H442 C454 0.950 . S
H443 C455 0.950 1_556 S
C444 H436 0.950 . S
C444 C445 1.386 . S
C444 C446 1.391 . S
C445 C444 1.386 . S
C445 C449 1.393 . S
C446 H438 0.950 . S
C446 C444 1.391 . S
C446 C447 1.400 . S
C447 C446 1.400 . S
C447 C448 1.398 . S
C447 C453 1.491 . S
C448 H439 0.950 . S
C448 C447 1.398 . S
C448 C449 1.391 . S
C449 H437 0.950 . S
C449 C445 1.393 . S
C449 C448 1.391 . S
C450 H440 0.950 . S
C450 C451 1.386 . S
C450 C452 1.391 . S
C451 C450 1.386 . S
C451 C455 1.393 . S
C452 H441 0.950 . S
C452 C450 1.391 . S
C452 C453 1.400 1_554 S
C453 C447 1.491 . S
C453 C452 1.400 1_556 S
C453 C454 1.398 . S
C454 H442 0.950 . S
C454 C453 1.398 . S
C454 C455 1.391 1_556 S
C455 H443 0.950 1_554 S
C455 C451 1.393 . S
C455 C454 1.391 1_554 S
C225 C2 1.590 . S
C231 C112 1.600 . S
C245 C38 1.586 . S
C251 C148 1.598 . S
C265 C184 1.591 . S
C271 C74 1.585 . S
C285 C4 1.595 . S
C291 C110 1.583 . S
C305 C40 1.595 . S
C311 C146 1.583 . S
C325 C182 1.584 1_554 S
C331 C76 1.592 . S
C345 C50 1.295 . S
C351 C3 1.375 . S
C365 C86 1.314 . S
C371 C39 1.373 . S
C385 C75 1.371 . S
C391 C122 1.319 . S
C405 C158 1.322 . S
C411 C111 1.370 . S
C425 C194 1.291 . S
C431 C147 1.376 . S
C445 C183 1.373 . S
C451 C14 1.299 . S
