# Generated by pormake.
# Topology vba, (4)-cn, num edge types: 1
# Building blocks:
#     Node 0, Type 0, BuildingBlock: NAWXER_clean_sbu_0, # of connection points: 4
#     Node 1, Type 0, BuildingBlock: NAWXER_clean_sbu_0, # of connection points: 4
#     Node 2, Type 0, BuildingBlock: NAWXER_clean_sbu_0, # of connection points: 4
#     Node 3, Type 0, BuildingBlock: NAWXER_clean_sbu_0, # of connection points: 4
#     Node 4, Type 0, BuildingBlock: NAWXER_clean_sbu_0, # of connection points: 4
#     Node 5, Type 0, BuildingBlock: NAWXER_clean_sbu_0, # of connection points: 4
#     Node 6, Type 0, BuildingBlock: NAWXER_clean_sbu_0, # of connection points: 4
#     Node 7, Type 0, BuildingBlock: NAWXER_clean_sbu_0, # of connection points: 4
#     Node 8, Type 0, BuildingBlock: NAWXER_clean_sbu_0, # of connection points: 4
#     Node 9, Type 0, BuildingBlock: NAWXER_clean_sbu_0, # of connection points: 4
#     Node 10, Type 0, BuildingBlock: NAWXER_clean_sbu_0, # of connection points: 4
#     Node 11, Type 0, BuildingBlock: NAWXER_clean_sbu_0, # of connection points: 4
#     Node 12, Type 0, BuildingBlock: NAWXER_clean_sbu_0, # of connection points: 4
#     Node 13, Type 0, BuildingBlock: NAWXER_clean_sbu_0, # of connection points: 4
#     Node 14, Type 0, BuildingBlock: NAWXER_clean_sbu_0, # of connection points: 4
#     Node 15, Type 0, BuildingBlock: NAWXER_clean_sbu_0, # of connection points: 4
#     Node 16, Type 0, BuildingBlock: NAWXER_clean_sbu_0, # of connection points: 4
#     Node 17, Type 0, BuildingBlock: NAWXER_clean_sbu_0, # of connection points: 4
#     Node 18, Type 0, BuildingBlock: NAWXER_clean_sbu_0, # of connection points: 4
#     Node 19, Type 0, BuildingBlock: NAWXER_clean_sbu_0, # of connection points: 4
#     Node 20, Type 0, BuildingBlock: NAWXER_clean_sbu_0, # of connection points: 4
#     Node 21, Type 0, BuildingBlock: NAWXER_clean_sbu_0, # of connection points: 4
#     Node 22, Type 0, BuildingBlock: NAWXER_clean_sbu_0, # of connection points: 4
#     Node 23, Type 0, BuildingBlock: NAWXER_clean_sbu_0, # of connection points: 4
#     Node 24, Type 0, BuildingBlock: NAWXER_clean_sbu_0, # of connection points: 4
#     Node 25, Type 0, BuildingBlock: NAWXER_clean_sbu_0, # of connection points: 4
#     Node 26, Type 0, BuildingBlock: NAWXER_clean_sbu_0, # of connection points: 4
#     Node 27, Type 0, BuildingBlock: NAWXER_clean_sbu_0, # of connection points: 4
#     Node 28, Type 0, BuildingBlock: NAWXER_clean_sbu_0, # of connection points: 4
#     Node 29, Type 0, BuildingBlock: NAWXER_clean_sbu_0, # of connection points: 4
#     Node 30, Type 0, BuildingBlock: NAWXER_clean_sbu_0, # of connection points: 4
#     Node 31, Type 0, BuildingBlock: NAWXER_clean_sbu_0, # of connection points: 4
#     Edge 32, Type (0, 0), BuildingBlock: ZUJKAS_clean_linker_0, # of connection points: 2
#     Edge 33, Type (0, 0), BuildingBlock: ZUJKAS_clean_linker_0, # of connection points: 2
#     Edge 34, Type (0, 0), BuildingBlock: ZUJKAS_clean_linker_0, # of connection points: 2
#     Edge 35, Type (0, 0), BuildingBlock: ZUJKAS_clean_linker_0, # of connection points: 2
#     Edge 36, Type (0, 0), BuildingBlock: ZUJKAS_clean_linker_0, # of connection points: 2
#     Edge 37, Type (0, 0), BuildingBlock: ZUJKAS_clean_linker_0, # of connection points: 2
#     Edge 38, Type (0, 0), BuildingBlock: ZUJKAS_clean_linker_0, # of connection points: 2
#     Edge 39, Type (0, 0), BuildingBlock: ZUJKAS_clean_linker_0, # of connection points: 2
#     Edge 40, Type (0, 0), BuildingBlock: ZUJKAS_clean_linker_0, # of connection points: 2
#     Edge 41, Type (0, 0), BuildingBlock: ZUJKAS_clean_linker_0, # of connection points: 2
#     Edge 42, Type (0, 0), BuildingBlock: ZUJKAS_clean_linker_0, # of connection points: 2
#     Edge 43, Type (0, 0), BuildingBlock: ZUJKAS_clean_linker_0, # of connection points: 2
#     Edge 44, Type (0, 0), BuildingBlock: ZUJKAS_clean_linker_0, # of connection points: 2
#     Edge 45, Type (0, 0), BuildingBlock: ZUJKAS_clean_linker_0, # of connection points: 2
#     Edge 46, Type (0, 0), BuildingBlock: ZUJKAS_clean_linker_0, # of connection points: 2
#     Edge 47, Type (0, 0), BuildingBlock: ZUJKAS_clean_linker_0, # of connection points: 2
#     Edge 48, Type (0, 0), BuildingBlock: ZUJKAS_clean_linker_0, # of connection points: 2
#     Edge 49, Type (0, 0), BuildingBlock: ZUJKAS_clean_linker_0, # of connection points: 2
#     Edge 50, Type (0, 0), BuildingBlock: ZUJKAS_clean_linker_0, # of connection points: 2
#     Edge 51, Type (0, 0), BuildingBlock: ZUJKAS_clean_linker_0, # of connection points: 2
#     Edge 52, Type (0, 0), BuildingBlock: ZUJKAS_clean_linker_0, # of connection points: 2
#     Edge 53, Type (0, 0), BuildingBlock: ZUJKAS_clean_linker_0, # of connection points: 2
#     Edge 54, Type (0, 0), BuildingBlock: ZUJKAS_clean_linker_0, # of connection points: 2
#     Edge 55, Type (0, 0), BuildingBlock: ZUJKAS_clean_linker_0, # of connection points: 2
#     Edge 56, Type (0, 0), BuildingBlock: ZUJKAS_clean_linker_0, # of connection points: 2
#     Edge 57, Type (0, 0), BuildingBlock: ZUJKAS_clean_linker_0, # of connection points: 2
#     Edge 58, Type (0, 0), BuildingBlock: ZUJKAS_clean_linker_0, # of connection points: 2
#     Edge 59, Type (0, 0), BuildingBlock: ZUJKAS_clean_linker_0, # of connection points: 2
#     Edge 60, Type (0, 0), BuildingBlock: ZUJKAS_clean_linker_0, # of connection points: 2
#     Edge 61, Type (0, 0), BuildingBlock: ZUJKAS_clean_linker_0, # of connection points: 2
#     Edge 62, Type (0, 0), BuildingBlock: ZUJKAS_clean_linker_0, # of connection points: 2
#     Edge 63, Type (0, 0), BuildingBlock: ZUJKAS_clean_linker_0, # of connection points: 2
#     Edge 64, Type (0, 0), BuildingBlock: ZUJKAS_clean_linker_0, # of connection points: 2
#     Edge 65, Type (0, 0), BuildingBlock: ZUJKAS_clean_linker_0, # of connection points: 2
#     Edge 66, Type (0, 0), BuildingBlock: ZUJKAS_clean_linker_0, # of connection points: 2
#     Edge 67, Type (0, 0), BuildingBlock: ZUJKAS_clean_linker_0, # of connection points: 2
#     Edge 68, Type (0, 0), BuildingBlock: ZUJKAS_clean_linker_0, # of connection points: 2
#     Edge 69, Type (0, 0), BuildingBlock: ZUJKAS_clean_linker_0, # of connection points: 2
#     Edge 70, Type (0, 0), BuildingBlock: ZUJKAS_clean_linker_0, # of connection points: 2
#     Edge 71, Type (0, 0), BuildingBlock: ZUJKAS_clean_linker_0, # of connection points: 2
#     Edge 72, Type (0, 0), BuildingBlock: ZUJKAS_clean_linker_0, # of connection points: 2
#     Edge 73, Type (0, 0), BuildingBlock: ZUJKAS_clean_linker_0, # of connection points: 2
#     Edge 74, Type (0, 0), BuildingBlock: ZUJKAS_clean_linker_0, # of connection points: 2
#     Edge 75, Type (0, 0), BuildingBlock: ZUJKAS_clean_linker_0, # of connection points: 2
#     Edge 76, Type (0, 0), BuildingBlock: ZUJKAS_clean_linker_0, # of connection points: 2
#     Edge 77, Type (0, 0), BuildingBlock: ZUJKAS_clean_linker_0, # of connection points: 2
#     Edge 78, Type (0, 0), BuildingBlock: ZUJKAS_clean_linker_0, # of connection points: 2
#     Edge 79, Type (0, 0), BuildingBlock: ZUJKAS_clean_linker_0, # of connection points: 2
#     Edge 80, Type (0, 0), BuildingBlock: ZUJKAS_clean_linker_0, # of connection points: 2
#     Edge 81, Type (0, 0), BuildingBlock: ZUJKAS_clean_linker_0, # of connection points: 2
#     Edge 82, Type (0, 0), BuildingBlock: ZUJKAS_clean_linker_0, # of connection points: 2
#     Edge 83, Type (0, 0), BuildingBlock: ZUJKAS_clean_linker_0, # of connection points: 2
#     Edge 84, Type (0, 0), BuildingBlock: ZUJKAS_clean_linker_0, # of connection points: 2
#     Edge 85, Type (0, 0), BuildingBlock: ZUJKAS_clean_linker_0, # of connection points: 2
#     Edge 86, Type (0, 0), BuildingBlock: ZUJKAS_clean_linker_0, # of connection points: 2
#     Edge 87, Type (0, 0), BuildingBlock: ZUJKAS_clean_linker_0, # of connection points: 2
#     Edge 88, Type (0, 0), BuildingBlock: ZUJKAS_clean_linker_0, # of connection points: 2
#     Edge 89, Type (0, 0), BuildingBlock: ZUJKAS_clean_linker_0, # of connection points: 2
#     Edge 90, Type (0, 0), BuildingBlock: ZUJKAS_clean_linker_0, # of connection points: 2
#     Edge 91, Type (0, 0), BuildingBlock: ZUJKAS_clean_linker_0, # of connection points: 2
#     Edge 92, Type (0, 0), BuildingBlock: ZUJKAS_clean_linker_0, # of connection points: 2
#     Edge 93, Type (0, 0), BuildingBlock: ZUJKAS_clean_linker_0, # of connection points: 2
#     Edge 94, Type (0, 0), BuildingBlock: ZUJKAS_clean_linker_0, # of connection points: 2
#     Edge 95, Type (0, 0), BuildingBlock: ZUJKAS_clean_linker_0, # of connection points: 2
# Relax obj value: 0.002
# Max RMSD: 0.073
# Mean RMSD: 0.072
data_MOF--net-vba--node1-NAWXER_clean_sbu_0--edge1-ZUJKAS_clean_linker_0
_symmetry_space_group_name_H-M    P1
_symmetry_Int_Tables_number       1
_symmetry_cell_setting            triclinic
loop_
_symmetry_equiv_pos_as_xyz
'x, y, z'
_cell_length_a     21.855319
_cell_length_b     139.42169
_cell_length_c     73.63459
_cell_angle_alpha  89.947426
_cell_angle_beta   90.071877
_cell_angle_gamma 90.014207
loop_
_atom_site_label
_atom_site_type_symbol
_atom_site_fract_x
_atom_site_fract_y
_atom_site_fract_z
_atom_type_partial_charge
C0 C 0.35404 0.0518 0.01604 0.0
C1 C 0.253 0.08324 0.01477 0.0
O2 O 0.29751 0.05165 0.01152 0.0
Zn3 Zn 0.22271 0.06101 1.00719 0.0
O4 O 0.37996 0.05978 0.01948 0.0
Zn5 Zn 0.30784 0.06784 0.01535 0.0
O6 O 0.24925 0.06356 0.03692 0.0
O7 O 0.16655 0.05646 0.02603 0.0
O8 O 0.30924 0.08172 0.01831 0.0
O9 O 0.21824 0.07618 0.01054 0.0
O10 O 0.20776 0.05922 0.9811 0.0
O11 O 0.29587 0.06626 0.98699 0.0
C12 C 0.19791 0.05935 0.03956 0.0
C13 C 0.25759 0.06291 0.97547 0.0
C14 C 0.89103 0.20947 0.01399 0.0
C15 C 0.98319 0.17736 0.01495 0.0
O16 O 0.94769 0.20917 0.00964 0.0
Zn17 Zn 0.01989 0.19916 1.00609 0.0
O18 O 0.86282 0.20173 0.01784 0.0
Zn19 Zn 0.93271 0.19317 0.01453 0.0
O20 O 0.99126 0.19773 0.03594 0.0
O21 O 0.07761 0.20344 0.02472 0.0
O22 O 0.9276 0.17934 0.0185 0.0
O23 O 0.01979 0.18409 0.01027 0.0
O24 O 0.03566 0.20045 0.97996 0.0
O25 O 0.94533 0.19419 0.98609 0.0
C26 C 0.04409 0.2015 0.0384 0.0
C27 C 0.98475 0.19707 0.97446 0.0
C28 C 0.20915 0.2021 0.22634 0.0
C29 C 0.26787 0.19765 0.29035 0.0
O30 O 0.26191 0.19834 0.22891 0.0
Zn31 Zn 0.31982 0.19365 0.25034 0.0
O32 O 0.17492 0.20393 0.23991 0.0
Zn33 Zn 0.23233 0.19963 0.25869 0.0
O34 O 0.30477 0.20965 0.25522 0.0
O35 O 0.38982 0.20224 0.24712 0.0
O36 O 0.21668 0.20094 0.28487 0.0
O37 O 0.30716 0.19478 0.2787 0.0
O38 O 0.3245 0.17979 0.24649 0.0
O39 O 0.23228 0.18458 0.25455 0.0
C40 C 0.36152 0.20998 0.25096 0.0
C41 C 0.26881 0.17783 0.24996 0.0
C42 C 0.99798 0.0837 0.25288 0.0
C43 C 0.8971 0.05227 0.24859 0.0
O44 O 0.03182 0.07659 0.25746 0.0
Zn45 Zn 0.02633 0.06139 0.26027 0.0
O46 O 0.94244 0.08222 0.24843 0.0
Zn47 Zn 0.94293 0.0683 0.25091 0.0
O48 O 0.94866 0.06627 0.27933 0.0
O49 O 0.03582 0.05928 0.28653 0.0
O50 O 0.8717 0.0603 0.24515 0.0
O51 O 0.95261 0.05206 0.25411 0.0
O52 O 0.08602 0.05696 0.24233 0.0
O53 O 0.00566 0.0642 0.23025 0.0
C54 C 0.98452 0.06277 0.29137 0.0
C55 C 0.05732 0.05999 0.22838 0.0
C56 C 0.73085 0.94782 0.03951 0.0
C57 C 0.79165 0.95178 0.97564 0.0
O58 O 0.78215 0.9511 0.03411 0.0
Zn59 Zn 0.7675 0.9495 0.00794 0.0
O60 O 0.69218 0.94476 0.02781 0.0
Zn61 Zn 0.68079 0.94331 0.99944 0.0
O62 O 0.67715 0.92942 0.99599 0.0
O63 O 0.76867 0.93441 1.00438 0.0
O64 O 0.73904 0.94795 0.9781 0.0
O65 O 0.82536 0.95373 0.98928 0.0
O66 O 0.69441 0.95936 1.0038 0.0
O67 O 0.61022 0.95168 0.99567 0.0
C68 C 0.73271 0.92756 0.99983 0.0
C69 C 0.6378 0.95951 0.9993 0.0
C70 C 0.9538 0.80948 0.97816 0.0
C71 C 0.00218 0.81307 0.04307 0.0
O72 O 0.91927 0.8069 0.99122 0.0
Zn73 Zn 0.97267 0.81127 0.01092 0.0
O74 O 0.00489 0.81359 0.98162 0.0
Zn75 Zn 0.05912 0.81806 1.00406 0.0
O76 O 0.13185 0.80998 1.00112 0.0
O77 O 0.048 0.80189 0.00776 0.0
O78 O 0.04222 0.81655 0.03225 0.0
O79 O 0.95386 0.80923 0.03667 0.0
O80 O 0.96889 0.82644 0.0077 0.0
O81 O 0.06077 0.83196 1.00093 0.0
C82 C 0.10525 0.80201 1.00418 0.0
C83 C 0.0042 0.8335 1.00387 0.0
C84 C 0.7908 0.80992 0.78946 0.0
C85 C 0.72845 0.81171 0.72526 0.0
O86 O 0.82368 0.80729 0.77607 0.0
Zn87 Zn 0.76596 0.81105 0.75692 0.0
O88 O 0.7384 0.81372 0.7865 0.0
Zn89 Zn 0.67927 0.81752 0.76475 0.0
O90 O 0.60899 0.80924 0.76967 0.0
O91 O 0.69305 0.80136 0.76223 0.0
O92 O 0.6898 0.81507 0.73662 0.0
O93 O 0.78033 0.80878 0.7309 0.0
O94 O 0.76731 0.82622 0.75903 0.0
O95 O 0.67573 0.8315 0.7666 0.0
C96 C 0.6366 0.80132 0.76686 0.0
C97 C 0.73148 0.83321 0.76278 0.0
C98 C 0.10243 0.95888 0.76194 0.0
C99 C 0.00174 0.92738 0.76218 0.0
O100 O 0.12891 0.95091 0.76517 0.0
Zn101 Zn 0.05624 0.94285 0.76209 0.0
O102 O 0.04531 0.95899 0.75811 0.0
Zn103 Zn 0.97018 0.94953 0.75469 0.0
O104 O 0.91552 0.95394 0.7739 0.0
O105 O 0.0011 0.94751 0.78423 0.0
O106 O 0.96642 0.93439 0.75808 0.0
O107 O 0.05808 0.92898 0.7654 0.0
O108 O 0.04074 0.94428 0.73376 0.0
O109 O 0.95228 0.95149 0.7289 0.0
C110 C 0.9496 0.95159 0.78723 0.0
C111 C 0.00101 0.94769 0.72273 0.0
C112 C 0.20441 0.55935 0.5386 0.0
C113 C 0.26392 0.56327 0.4746 0.0
O114 O 0.25685 0.5632 0.536 0.0
Zn115 Zn 0.31471 0.56781 0.51462 0.0
O116 O 0.17052 0.55732 0.52504 0.0
Zn117 Zn 0.22813 0.56148 0.50619 0.0
O118 O 0.30139 0.55171 0.51044 0.0
O119 O 0.38557 0.55944 0.51836 0.0
O120 O 0.21333 0.55978 0.4801 0.0
O121 O 0.30263 0.56642 0.48621 0.0
O122 O 0.31736 0.58173 0.51816 0.0
O123 O 0.22672 0.57659 0.50925 0.0
C124 C 0.35801 0.55158 0.51491 0.0
C125 C 0.26207 0.58351 0.51383 0.0
C126 C 0.98307 0.67708 0.51287 0.0
C127 C 0.88435 0.70873 0.51609 0.0
O128 O 0.0173 0.68413 0.50827 0.0
Zn129 Zn 0.01386 0.69929 0.50565 0.0
O130 O 0.92788 0.67866 0.51753 0.0
Zn131 Zn 0.92907 0.69261 0.51465 0.0
O132 O 0.93713 0.69447 0.48623 0.0
O133 O 0.02515 0.70132 0.47944 0.0
O134 O 0.85807 0.70078 0.51959 0.0
O135 O 0.94035 0.7088 0.51103 0.0
O136 O 0.07309 0.70344 0.5241 0.0
O137 O 0.98994 0.69684 0.53562 0.0
C138 C 0.97394 0.69786 0.47434 0.0
C139 C 0.04216 0.70082 0.53791 0.0
C140 C 0.25359 0.69778 0.79116 0.0
C141 C 0.20812 0.70139 0.72602 0.0
O142 O 0.29373 0.6942 0.7805 0.0
Zn143 Zn 0.31151 0.69259 0.75241 0.0
O144 O 0.20574 0.70167 0.78455 0.0
Zn145 Zn 0.22517 0.6995 0.75885 0.0
O146 O 0.22047 0.68434 0.75576 0.0
O147 O 0.31231 0.67869 0.7494 0.0
O148 O 0.17285 0.70393 0.73892 0.0
O149 O 0.25881 0.6972 0.7297 0.0
O150 O 0.38506 0.70052 0.74977 0.0
O151 O 0.30123 0.70877 0.75572 0.0
C152 C 0.25553 0.67724 0.75213 0.0
C153 C 0.35866 0.70855 0.75241 0.0
C154 C 0.98138 0.58336 0.74969 0.0
C155 C 0.88579 0.55143 0.74988 0.0
O156 O 0.01683 0.57651 0.7545 0.0
Zn157 Zn 0.01525 0.56146 0.7585 0.0
O158 O 0.92579 0.58156 0.74578 0.0
Zn159 Zn 0.92884 0.56767 0.7496 0.0
O160 O 0.93973 0.56646 0.77807 0.0
O161 O 0.02928 0.56007 0.78472 0.0
O162 O 0.85831 0.55923 0.7459 0.0
O163 O 0.94224 0.55164 0.75452 0.0
O164 O 0.07335 0.55708 0.74009 0.0
O165 O 0.98773 0.56291 0.72852 0.0
C166 C 0.97811 0.56347 0.78992 0.0
C167 C 0.04028 0.55902 0.7263 0.0
C168 C 0.78454 0.45087 0.47513 0.0
C169 C 0.72891 0.44676 0.53938 0.0
O170 O 0.81852 0.4531 0.48857 0.0
Zn171 Zn 0.7625 0.44874 0.50759 0.0
O172 O 0.73257 0.4469 0.47798 0.0
Zn173 Zn 0.67564 0.44232 0.49968 0.0
O174 O 0.60437 0.45066 0.49632 0.0
O175 O 0.68876 0.45844 0.50383 0.0
O176 O 0.68954 0.44364 0.52795 0.0
O177 O 0.77903 0.45031 0.53364 0.0
O178 O 0.76467 0.43364 0.50387 0.0
O179 O 0.67291 0.42841 0.49623 0.0
C180 C 0.63189 0.45853 0.49967 0.0
C181 C 0.72906 0.4267 0.49958 0.0
C182 C 0.01133 0.31246 0.54062 0.0
C183 C 0.94536 0.30912 0.47702 0.0
O184 O 0.96056 0.30891 0.53539 0.0
Zn185 Zn 0.97323 0.31068 0.50918 0.0
O186 O 0.0488 0.31574 0.52881 0.0
Zn187 Zn 0.05826 0.31732 0.5004 0.0
O188 O 0.06049 0.33122 0.49742 0.0
O189 O 0.96977 0.32587 0.50585 0.0
O190 O 0.99728 0.31321 0.47929 0.0
O191 O 0.91498 0.30626 0.49076 0.0
O192 O 0.04667 0.30113 0.50433 0.0
O193 O 0.12919 0.30906 0.49578 0.0
C194 C 0.00473 0.33287 0.50136 0.0
C195 C 0.10278 0.30114 0.49941 0.0
C196 C 0.74986 0.33375 0.26314 0.0
C197 C 0.64804 0.30232 0.26548 0.0
O198 O 0.69389 0.33227 0.26707 0.0
Zn199 Zn 0.69451 0.31835 0.26437 0.0
O200 O 0.78408 0.32664 0.25885 0.0
Zn201 Zn 0.77891 0.31146 0.25581 0.0
O202 O 0.79185 0.30951 0.22969 0.0
O203 O 0.70429 0.31662 0.23597 0.0
O204 O 0.70422 0.30215 0.26065 0.0
O205 O 0.62245 0.31031 0.269 0.0
O206 O 0.75449 0.3141 0.28566 0.0
O207 O 0.83615 0.3069 0.27438 0.0
C208 C 0.74162 0.31318 0.2243 0.0
C209 C 0.80582 0.30985 0.28805 0.0
C210 C 0.96033 0.45147 0.28811 0.0
C211 C 0.02488 0.44858 0.22439 0.0
O212 O 0.92809 0.45385 0.27439 0.0
Zn213 Zn 0.98684 0.44986 0.25585 0.0
O214 O 0.01308 0.44768 0.2857 0.0
Zn215 Zn 0.0733 0.44361 0.26442 0.0
O216 O 0.14316 0.45204 0.26901 0.0
O217 O 0.05906 0.45973 0.26084 0.0
O218 O 0.06323 0.44543 0.23609 0.0
O219 O 0.97315 0.4517 0.22971 0.0
O220 O 0.98585 0.43471 0.25901 0.0
O221 O 0.07746 0.42968 0.26725 0.0
C222 C 0.11537 0.45989 0.26564 0.0
C223 C 0.02188 0.42784 0.26338 0.0
C224 C 0.7124 0.05985 0.54022 0.0
C225 C 0.76606 0.06366 0.47571 0.0
O226 O 0.76464 0.0637 0.53721 0.0
Zn227 Zn 0.82086 0.06819 0.51522 0.0
O228 O 0.67767 0.05771 0.5269 0.0
Zn229 Zn 0.73351 0.06188 0.50767 0.0
O230 O 0.80686 0.05207 0.51136 0.0
O231 O 0.89187 0.05979 0.51845 0.0
O232 O 0.71605 0.06019 0.4817 0.0
O233 O 0.80602 0.06679 0.48695 0.0
O234 O 0.82453 0.0821 0.51854 0.0
O235 O 0.73225 0.07699 0.51117 0.0
C236 C 0.8639 0.05194 0.51532 0.0
C237 C 0.76841 0.08388 0.5153 0.0
C238 C 0.49199 0.17764 0.51418 0.0
C239 C 0.389 0.20899 0.51614 0.0
O240 O 0.526 0.18478 0.50992 0.0
Zn241 Zn 0.52042 0.19996 0.50681 0.0
O242 O 0.43587 0.17905 0.51799 0.0
Zn243 Zn 0.43595 0.19298 0.51519 0.0
O244 O 0.44645 0.19472 0.48684 0.0
O245 O 0.53388 0.2019 0.48069 0.0
O246 O 0.3635 0.20097 0.51957 0.0
O247 O 0.44533 0.2092 0.51147 0.0
O248 O 0.57701 0.20454 0.52554 0.0
O249 O 0.49507 0.19732 0.53661 0.0
C250 C 0.4839 0.19818 0.47522 0.0
C251 C 0.54622 0.2016 0.53914 0.0
C252 C 0.69428 0.20042 0.72689 0.0
C253 C 0.76613 0.19687 0.78986 0.0
O254 O 0.74703 0.19655 0.72863 0.0
Zn255 Zn 0.8102 0.19245 0.74907 0.0
O256 O 0.66454 0.20296 0.74096 0.0
Zn257 Zn 0.7253 0.19866 0.75883 0.0
O258 O 0.7969 0.20852 0.7537 0.0
O259 O 0.87946 0.20098 0.74406 0.0
O260 O 0.7146 0.2003 0.78502 0.0
O261 O 0.80317 0.19376 0.77775 0.0
O262 O 0.8141 0.17864 0.74523 0.0
O263 O 0.72451 0.18345 0.75574 0.0
C264 C 0.85244 0.20876 0.74826 0.0
C265 C 0.75997 0.17669 0.75044 0.0
C266 C 0.38423 0.05166 0.74955 0.0
C267 C 0.47319 0.08399 0.75053 0.0
O268 O 0.4401 0.05206 0.75476 0.0
Zn269 Zn 0.5109 0.06226 0.75941 0.0
O270 O 0.35614 0.05936 0.7453 0.0
Zn271 Zn 0.42482 0.06802 0.74965 0.0
O272 O 0.48639 0.0635 0.72915 0.0
O273 O 0.57216 0.05827 0.74151 0.0
O274 O 0.41957 0.08181 0.74519 0.0
O275 O 0.50941 0.07739 0.75608 0.0
O276 O 0.52294 0.06079 0.78557 0.0
O277 O 0.43298 0.06692 0.7784 0.0
C278 C 0.54003 0.05994 0.72742 0.0
C279 C 0.47101 0.06402 0.79047 0.0
C280 C 0.29579 0.95122 0.47726 0.0
C281 C 0.242 0.94824 0.54183 0.0
O282 O 0.32912 0.9539 0.49054 0.0
Zn283 Zn 0.27372 0.94979 0.50986 0.0
O284 O 0.24416 0.9472 0.4804 0.0
Zn285 Zn 0.18768 0.94303 0.50259 0.0
O286 O 0.1155 0.95115 0.49888 0.0
O287 O 0.19931 0.95925 0.50559 0.0
O288 O 0.20261 0.94471 0.53083 0.0
O289 O 0.29073 0.95204 0.53565 0.0
O290 O 0.27702 0.93457 0.50727 0.0
O291 O 0.18544 0.92911 0.49996 0.0
C292 C 0.14233 0.95914 0.5016 0.0
C293 C 0.24164 0.92752 0.50344 0.0
C294 C 0.45031 0.80971 0.47653 0.0
C295 C 0.51495 0.812 0.54038 0.0
O296 O 0.41934 0.80682 0.49013 0.0
Zn297 Zn 0.47723 0.81098 0.5088 0.0
O298 O 0.5024 0.81372 0.47904 0.0
Zn299 Zn 0.56282 0.81755 0.50057 0.0
O300 O 0.63355 0.80933 0.49566 0.0
O301 O 0.55044 0.80137 0.50368 0.0
O302 O 0.5532 0.81537 0.52889 0.0
O303 O 0.46349 0.80886 0.53483 0.0
O304 O 0.47458 0.82619 0.50616 0.0
O305 O 0.56601 0.83149 0.49839 0.0
C306 C 0.6067 0.80139 0.49889 0.0
C307 C 0.5102 0.83318 0.50217 0.0
C308 C 0.30628 0.80971 0.28782 0.0
C309 C 0.24863 0.81287 0.22352 0.0
O310 O 0.33759 0.80667 0.27441 0.0
Zn311 Zn 0.28223 0.8112 0.25536 0.0
O312 O 0.25539 0.81401 0.28497 0.0
Zn313 Zn 0.19768 0.81825 0.26306 0.0
O314 O 0.12467 0.81034 0.26717 0.0
O315 O 0.20672 0.80202 0.25973 0.0
O316 O 0.21043 0.81651 0.23472 0.0
O317 O 0.29737 0.80896 0.22947 0.0
O318 O 0.28794 0.82643 0.25818 0.0
O319 O 0.19717 0.83214 0.26568 0.0
C320 C 0.15009 0.80228 0.26404 0.0
C321 C 0.25347 0.83357 0.26216 0.0
C322 C 0.62 0.95968 0.26493 0.0
C323 C 0.5247 0.92773 0.26379 0.0
O324 O 0.64779 0.95181 0.26802 0.0
Zn325 Zn 0.57687 0.94342 0.26445 0.0
O326 O 0.56307 0.95958 0.26084 0.0
Zn327 Zn 0.48981 0.94983 0.2568 0.0
O328 O 0.43358 0.95387 0.27601 0.0
O329 O 0.51957 0.94759 0.28637 0.0
O330 O 0.48863 0.93466 0.25979 0.0
O331 O 0.58066 0.92949 0.26731 0.0
O332 O 0.56265 0.94501 0.23621 0.0
O333 O 0.473 0.95169 0.23083 0.0
C334 C 0.46735 0.95144 0.28937 0.0
C335 C 0.52309 0.94821 0.22492 0.0
C336 C 0.76539 0.56388 0.97487 0.0
C337 C 0.70954 0.55955 0.03903 0.0
O338 O 0.80472 0.56699 0.98633 0.0
Zn339 Zn 0.81825 0.56828 0.01466 0.0
O340 O 0.71515 0.56036 0.98058 0.0
Zn341 Zn 0.73145 0.56192 1.00664 0.0
O342 O 0.72935 0.57699 0.01038 0.0
O343 O 0.82094 0.58218 0.01827 0.0
O344 O 0.67513 0.55755 0.02557 0.0
O345 O 0.76167 0.56349 0.03631 0.0
O346 O 0.88964 0.55998 0.01793 0.0
O347 O 0.80526 0.5522 0.01038 0.0
C348 C 0.76493 0.58391 0.01478 0.0
C349 C 0.86213 0.55212 0.01456 0.0
C350 C 0.39794 0.70984 0.01181 0.0
C351 C 0.4959 0.67812 0.0121 0.0
O352 O 0.45475 0.7098 0.00763 0.0
Zn353 Zn 0.52872 0.70017 1.00394 0.0
O354 O 0.37091 0.70196 0.01532 0.0
Zn355 Zn 0.44249 0.6937 0.01189 0.0
O356 O 0.49947 0.69835 0.03365 0.0
O357 O 0.585 0.70456 0.02286 0.0
O358 O 0.43987 0.67984 0.01553 0.0
O359 O 0.53145 0.68504 0.00766 0.0
O360 O 0.54468 0.70194 0.97796 0.0
O361 O 0.45588 0.69499 0.98347 0.0
C362 C 0.55145 0.70235 0.03638 0.0
C363 C 0.49504 0.69826 0.97214 0.0
C364 C 0.7575 0.69806 0.28956 0.0
C365 C 0.70495 0.70293 0.22519 0.0
O366 O 0.79764 0.69513 0.27822 0.0
Zn367 Zn 0.81285 0.69418 0.2499 0.0
O368 O 0.70742 0.70158 0.2837 0.0
Zn369 Zn 0.72533 0.70033 0.25767 0.0
O370 O 0.72427 0.68528 0.25332 0.0
O371 O 0.81668 0.68033 0.24582 0.0
O372 O 0.66984 0.7048 0.23853 0.0
O373 O 0.75718 0.69906 0.22808 0.0
O374 O 0.88387 0.70262 0.24734 0.0
O375 O 0.79889 0.71019 0.25491 0.0
C376 C 0.76057 0.67847 0.24887 0.0
C377 C 0.85601 0.71041 0.25108 0.0
C378 C 0.48931 0.58438 0.25024 0.0
C379 C 0.38992 0.55274 0.24925 0.0
O380 O 0.52385 0.57741 0.25505 0.0
Zn381 Zn 0.52004 0.56233 0.25879 0.0
O382 O 0.43361 0.58274 0.24621 0.0
Zn383 Zn 0.43488 0.56884 0.2498 0.0
O384 O 0.44427 0.56739 0.27826 0.0
O385 O 0.53277 0.56068 0.28501 0.0
O386 O 0.36343 0.56065 0.24557 0.0
O387 O 0.44619 0.55272 0.25411 0.0
O388 O 0.57847 0.55787 0.24056 0.0
O389 O 0.49426 0.56407 0.2288 0.0
C390 C 0.48183 0.56419 0.29015 0.0
C391 C 0.5464 0.56003 0.22668 0.0
C392 C 0.23336 0.44783 0.03918 0.0
C393 C 0.28795 0.45132 0.97479 0.0
O394 O 0.28317 0.45137 0.0332 0.0
Zn395 Zn 0.2664 0.44941 1.00734 0.0
O396 O 0.19378 0.44454 0.02797 0.0
Zn397 Zn 0.17953 0.44297 0.99965 0.0
O398 O 0.17664 0.42906 0.99643 0.0
O399 O 0.26789 0.43425 1.00468 0.0
O400 O 0.23579 0.44745 0.97777 0.0
O401 O 0.3226 0.45347 0.98811 0.0
O402 O 0.19268 0.4591 1.00329 0.0
O403 O 0.10816 0.45125 0.99615 0.0
C404 C 0.2322 0.42731 1.00047 0.0
C405 C 0.13575 0.45915 0.99919 0.0
C406 C 0.51785 0.31341 0.04024 0.0
C407 C 0.4542 0.30911 0.97665 0.0
O408 O 0.46705 0.30984 0.03508 0.0
Zn409 Zn 0.47956 0.31156 0.00888 0.0
O410 O 0.55512 0.3167 0.02837 0.0
Zn411 Zn 0.56447 0.31818 0.99988 0.0
O412 O 0.56464 0.33208 0.99615 0.0
O413 O 0.47535 0.32664 1.00553 0.0
O414 O 0.5061 0.3132 0.97889 0.0
O415 O 0.42146 0.30705 0.99042 0.0
O416 O 0.55427 0.3021 1.00438 0.0
O417 O 0.63645 0.31014 0.99576 0.0
C418 C 0.50933 0.33366 1.00065 0.0
C419 C 0.61053 0.30219 0.99956 0.0
C420 C 0.2901 0.30854 0.78891 0.0
C421 C 0.23122 0.31343 0.72506 0.0
O422 O 0.32347 0.30657 0.77523 0.0
Zn423 Zn 0.26652 0.31117 0.75664 0.0
O424 O 0.23784 0.3125 0.7865 0.0
Zn425 Zn 0.18005 0.3174 0.76518 0.0
O426 O 0.10895 0.30902 0.76835 0.0
O427 O 0.19288 0.30139 0.75999 0.0
O428 O 0.19234 0.31639 0.73675 0.0
O429 O 0.2819 0.30993 0.73048 0.0
O430 O 0.26871 0.32619 0.76112 0.0
O431 O 0.17717 0.33124 0.76931 0.0
C432 C 0.13618 0.30122 0.7643 0.0
C433 C 0.23312 0.33303 0.7659 0.0
C434 C 0.50602 0.42695 0.76471 0.0
C435 C 0.60375 0.45872 0.76385 0.0
O436 O 0.56167 0.4287 0.76864 0.0
Zn437 Zn 0.55974 0.44256 0.76435 0.0
O438 O 0.47117 0.43381 0.75957 0.0
Zn439 Zn 0.47399 0.44881 0.75505 0.0
O440 O 0.46092 0.45005 0.72879 0.0
O441 O 0.54998 0.4436 0.73583 0.0
O442 O 0.54746 0.45856 0.75903 0.0
O443 O 0.63067 0.45092 0.76808 0.0
O444 O 0.50049 0.44761 0.7851 0.0
O445 O 0.41551 0.45344 0.77311 0.0
C446 C 0.51213 0.44657 0.72381 0.0
C447 C 0.44811 0.45159 0.78704 0.0
H448 H 0.12141 0.04544 0.05355 0.0
H449 H 0.09807 0.04263 0.08582 0.0
H450 H 0.20503 0.0675 0.10031 0.0
H451 H 0.2297 0.07012 0.06852 0.0
H452 H 0.23372 0.05242 0.12139 0.0
H453 H 0.98093 0.05694 0.11843 0.0
H454 H 0.01209 0.0478 0.10397 0.0
H455 H 0.02998 0.06018 0.09973 0.0
C456 C 0.13918 0.05034 0.06366 0.0
C457 C 0.1774 0.05798 0.05853 0.0
C458 C 0.12587 0.04874 0.08207 0.0
C459 C 0.14969 0.05487 0.09552 0.0
C460 C 0.18655 0.06262 0.09025 0.0
H461 H 0.03752 0.07161 0.19969 0.0
H462 H 0.06338 0.06881 0.16801 0.0
C463 C 0.20041 0.06413 0.07203 0.0
C464 C 0.13758 0.05337 0.11518 0.0
H465 H 0.02461 0.05422 0.14708 0.0
C466 C 0.18794 0.05271 0.12703 0.0
C467 C 0.07785 0.05375 0.1225 0.0
C468 C 0.02203 0.05478 0.11056 0.0
C469 C 0.18049 0.05296 0.14598 0.0
C470 C 0.12086 0.05361 0.15329 0.0
C471 C 0.07033 0.05373 0.14144 0.0
C472 C 0.10971 0.05534 0.17293 0.0
C473 C 0.23666 0.05309 0.15792 0.0
C474 C 0.12854 0.04881 0.18641 0.0
C475 C 0.11467 0.0505 0.20476 0.0
C476 C 0.08081 0.05865 0.20974 0.0
C477 C 0.06342 0.06524 0.19625 0.0
C478 C 0.07791 0.06362 0.1781 0.0
H479 H 0.279 0.05453 0.15004 0.0
H480 H 0.23238 0.05863 0.16867 0.0
H481 H 0.24177 0.04601 0.16463 0.0
H482 H 0.15234 0.04229 0.18273 0.0
H483 H 0.12789 0.04525 0.21487 0.0
H484 H 0.28396 0.20474 0.19754 0.0
H485 H 0.25623 0.2067 0.16577 0.0
H486 H 0.06495 0.20594 0.18009 0.0
H487 H 0.0927 0.20418 0.21232 0.0
H488 H 0.19458 0.19373 0.14597 0.0
H489 H 0.07068 0.22846 0.14504 0.0
H490 H 0.11701 0.22468 0.16406 0.0
H491 H 0.04114 0.21995 0.1611 0.0
C492 C 0.23587 0.2051 0.19402 0.0
C493 C 0.19042 0.20424 0.20744 0.0
C494 C 0.22015 0.20624 0.17582 0.0
C495 C 0.1586 0.20652 0.17051 0.0
C496 C 0.11282 0.20592 0.1839 0.0
H497 H 0.97311 0.20153 0.06861 0.0
H498 H 0.00462 0.20355 0.10006 0.0
C499 C 0.12863 0.20488 0.20229 0.0
C500 C 0.14336 0.20667 0.15085 0.0
H501 H 0.06655 0.21912 0.11798 0.0
C502 C 0.16702 0.19933 0.13983 0.0
C503 C 0.10746 0.21399 0.14285 0.0
C504 C 0.08302 0.22227 0.15382 0.0
C505 C 0.15478 0.19899 0.12114 0.0
C506 C 0.11841 0.20624 0.11318 0.0
C507 C 0.0949 0.21361 0.12413 0.0
C508 C 0.10012 0.20581 0.09381 0.0
C509 C 0.17917 0.1907 0.11014 0.0
C510 C 0.14338 0.2066 0.07977 0.0
C511 C 0.12549 0.20545 0.06159 0.0
C512 C 0.06413 0.20345 0.05727 0.0
C513 C 0.02091 0.20297 0.07141 0.0
C514 C 0.03869 0.20417 0.08945 0.0
H515 H 0.1973 0.18486 0.11889 0.0
H516 H 0.14282 0.18771 0.10125 0.0
H517 H 0.21687 0.19327 0.10131 0.0
H518 H 0.19102 0.20798 0.08289 0.0
H519 H 0.15975 0.2059 0.05101 0.0
H520 H 0.02287 0.95088 0.81701 0.0
H521 H 0.99414 0.95278 0.84874 0.0
H522 H 0.80772 0.95842 0.8328 0.0
H523 H 0.83616 0.95651 0.80069 0.0
H524 H 0.93492 0.96875 0.86741 0.0
H525 H 0.80113 0.93476 0.86808 0.0
H526 H 0.85566 0.93753 0.85045 0.0
H527 H 0.78224 0.94329 0.85062 0.0
C528 C 0.97568 0.95256 0.82016 0.0
C529 C 0.93157 0.95344 0.8063 0.0
C530 C 0.95951 0.95369 0.83834 0.0
C531 C 0.89884 0.95565 0.84311 0.0
C532 C 0.85478 0.95682 0.82935 0.0
H533 H 0.71714 0.95454 0.94679 0.0
H534 H 0.74509 0.95651 0.91506 0.0
C535 C 0.87107 0.95575 0.81104 0.0
C536 C 0.88188 0.95599 0.86256 0.0
H537 H 0.80572 0.94349 0.89531 0.0
C538 C 0.90637 0.96327 0.87355 0.0
C539 C 0.84525 0.94877 0.87049 0.0
C540 C 0.81976 0.94059 0.8594 0.0
C541 C 0.8943 0.96361 0.8923 0.0
C542 C 0.85796 0.95634 0.90026 0.0
C543 C 0.83357 0.94906 0.8892 0.0
C544 C 0.8427 0.95619 0.91991 0.0
C545 C 0.91956 0.97182 0.90331 0.0
C546 C 0.88841 0.95553 0.93334 0.0
C547 C 0.87245 0.95448 0.9517 0.0
C548 C 0.81061 0.95391 0.95678 0.0
C549 C 0.76526 0.95484 0.94332 0.0
C550 C 0.78112 0.95599 0.92514 0.0
H551 H 0.93234 0.978 0.89457 0.0
H552 H 0.88587 0.97428 0.91358 0.0
H553 H 0.9613 0.9694 0.91057 0.0
H554 H 0.93628 0.95548 0.92958 0.0
H555 H 0.90829 0.95373 0.96178 0.0
H556 H 0.89906 0.80232 0.80275 0.0
H557 H 0.92906 0.80069 0.83486 0.0
H558 H 0.7565 0.81288 0.85124 0.0
H559 H 0.7266 0.81461 0.81969 0.0
H560 H 0.85938 0.82159 0.86716 0.0
H561 H 0.86225 0.78185 0.87443 0.0
H562 H 0.90511 0.78682 0.8558 0.0
H563 H 0.82329 0.78783 0.85596 0.0
C564 C 0.86755 0.80461 0.81322 0.0
C565 C 0.81058 0.80862 0.80859 0.0
C566 C 0.88453 0.80361 0.83154 0.0
C567 C 0.84466 0.80659 0.84541 0.0
C568 C 0.78785 0.81052 0.84077 0.0
H569 H 0.84564 0.8024 0.96397 0.0
H570 H 0.81833 0.80098 0.93161 0.0
C571 C 0.77095 0.81151 0.82264 0.0
C572 C 0.86241 0.8062 0.86483 0.0
H573 H 0.89096 0.79095 0.90023 0.0
C574 C 0.86642 0.81489 0.87437 0.0
C575 C 0.8707 0.79745 0.87423 0.0
C576 C 0.86477 0.78793 0.86469 0.0
C577 C 0.87885 0.81507 0.89304 0.0
C578 C 0.88803 0.80634 0.9024 0.0
C579 C 0.88371 0.79763 0.89296 0.0
C580 C 0.90534 0.80628 0.92183 0.0
C581 C 0.88178 0.82461 0.90269 0.0
C582 C 0.96339 0.80955 0.9269 0.0
C583 C 0.97892 0.81038 0.94517 0.0
C584 C 0.93671 0.80795 0.95887 0.0
C585 C 0.87903 0.80436 0.95377 0.0
C586 C 0.86347 0.80353 0.93533 0.0
H587 H 0.8617 0.83048 0.89441 0.0
H588 H 0.85729 0.82425 0.91588 0.0
H589 H 0.9303 0.82642 0.90553 0.0
H590 H 0.99637 0.81165 0.91666 0.0
H591 H 0.024 0.81309 0.94852 0.0
H592 H 0.08817 0.55689 0.55258 0.0
H593 H 0.06076 0.55521 0.58489 0.0
H594 H 0.25207 0.55525 0.59928 0.0
H595 H 0.27952 0.55709 0.56748 0.0
H596 H 0.09347 0.54152 0.61215 0.0
H597 H 0.18368 0.5777 0.62849 0.0
H598 H 0.17012 0.57378 0.60548 0.0
H599 H 0.23833 0.57014 0.61732 0.0
C600 C 0.12419 0.55646 0.56267 0.0
C601 C 0.18588 0.5573 0.55753 0.0
C602 C 0.10856 0.55551 0.58108 0.0
C603 C 0.15445 0.55534 0.59449 0.0
C604 C 0.21593 0.55563 0.58922 0.0
H605 H 0.15719 0.55596 0.71345 0.0
H606 H 0.18774 0.55389 0.6815 0.0
C607 C 0.23147 0.55666 0.57099 0.0
C608 C 0.13893 0.55518 0.61409 0.0
H609 H 0.15815 0.56774 0.6535 0.0
C610 C 0.10733 0.54726 0.62119 0.0
C611 C 0.15731 0.56268 0.62587 0.0
C612 C 0.18872 0.5716 0.6189 0.0
C613 C 0.09431 0.5466 0.63985 0.0
C614 C 0.11299 0.55407 0.65159 0.0
C615 C 0.14474 0.56196 0.64449 0.0
C616 C 0.09522 0.55432 0.67099 0.0
C617 C 0.0611 0.53787 0.64688 0.0
C618 C 0.03338 0.55524 0.67557 0.0
C619 C 0.01606 0.5565 0.69361 0.0
C620 C 0.06022 0.55687 0.70753 0.0
C621 C 0.1222 0.55567 0.70303 0.0
C622 C 0.13963 0.5545 0.68483 0.0
H623 H 0.06476 0.53173 0.63733 0.0
H624 H 0.07935 0.53565 0.66032 0.0
H625 H 0.01188 0.53961 0.64853 0.0
H626 H 0.9985 0.5553 0.66511 0.0
H627 H 0.96784 0.55735 0.6966 0.0
H628 H 0.14876 0.70954 0.54985 0.0
H629 H 0.18305 0.71132 0.5816 0.0
H630 H 0.01956 0.69707 0.60006 0.0
H631 H 0.98509 0.69527 0.5689 0.0
H632 H 0.10327 0.71976 0.61471 0.0
H633 H 0.17906 0.68174 0.61948 0.0
H634 H 0.17506 0.68812 0.59814 0.0
H635 H 0.1063 0.68387 0.60874 0.0
C636 C 0.12016 0.70682 0.5607 0.0
C637 C 0.06438 0.70221 0.55678 0.0
C638 C 0.13964 0.70787 0.57878 0.0
C639 C 0.10372 0.7043 0.59308 0.0
C640 C 0.04789 0.69985 0.58919 0.0
H641 H 0.09869 0.7075 0.7111 0.0
H642 H 0.07449 0.70919 0.67861 0.0
C643 C 0.02842 0.69882 0.5713 0.0
C644 C 0.12458 0.70475 0.61217 0.0
H645 H 0.17175 0.6904 0.64699 0.0
C646 C 0.119 0.71339 0.62178 0.0
C647 C 0.14469 0.69641 0.62128 0.0
C648 C 0.15214 0.687 0.61142 0.0
C649 C 0.1321 0.71384 0.64049 0.0
C650 C 0.15047 0.70541 0.64971 0.0
C651 C 0.1572 0.69684 0.63993 0.0
C652 C 0.16519 0.70529 0.66939 0.0
C653 C 0.12658 0.72332 0.6502 0.0
C654 C 0.22385 0.7025 0.67494 0.0
C655 C 0.23748 0.70145 0.69332 0.0
C656 C 0.1927 0.70314 0.70667 0.0
C657 C 0.13416 0.70616 0.70116 0.0
C658 C 0.12044 0.70719 0.68262 0.0
H659 H 0.12558 0.72945 0.64054 0.0
H660 H 0.08344 0.72341 0.65812 0.0
H661 H 0.1652 0.72435 0.65982 0.0
H662 H 0.25903 0.70099 0.66499 0.0
H663 H 0.28324 0.69919 0.69701 0.0
H664 H 0.02384 0.44781 0.31906 0.0
H665 H 0.98993 0.44948 0.35032 0.0
H666 H 0.81549 0.46012 0.33189 0.0
H667 H 0.8491 0.45846 0.3001 0.0
H668 H 0.90241 0.47007 0.3657 0.0
H669 H 0.82933 0.43179 0.36892 0.0
H670 H 0.8983 0.43477 0.35673 0.0
H671 H 0.82572 0.43864 0.34809 0.0
C672 C 0.97824 0.45056 0.32151 0.0
C673 C 0.93895 0.45294 0.307 0.0
C674 C 0.95918 0.45154 0.33944 0.0
C675 C 0.90049 0.45493 0.34333 0.0
C676 C 0.86119 0.45752 0.32904 0.0
H677 H 0.71275 0.44936 0.44522 0.0
H678 H 0.74132 0.45135 0.4136 0.0
C679 C 0.88032 0.45654 0.31094 0.0
C680 C 0.87996 0.45515 0.36241 0.0
H681 H 0.83032 0.44045 0.39634 0.0
C682 C 0.88603 0.46365 0.37243 0.0
C683 C 0.85929 0.44671 0.37105 0.0
C684 C 0.85239 0.43743 0.36073 0.0
C685 C 0.87202 0.4639 0.39107 0.0
C686 C 0.85234 0.4554 0.3998 0.0
C687 C 0.84577 0.44694 0.38964 0.0
C688 C 0.83537 0.45512 0.41927 0.0
C689 C 0.87763 0.47324 0.40124 0.0
C690 C 0.87884 0.45666 0.43306 0.0
C691 C 0.8626 0.45552 0.45138 0.0
C692 C 0.80282 0.45274 0.45608 0.0
C693 C 0.75941 0.45142 0.44216 0.0
C694 C 0.77553 0.45258 0.42401 0.0
H695 H 0.88104 0.47947 0.39187 0.0
H696 H 0.83777 0.4743 0.41035 0.0
H697 H 0.9195 0.47306 0.40977 0.0
H698 H 0.92561 0.45848 0.42965 0.0
H699 H 0.89704 0.45658 0.46178 0.0
H700 H 0.77905 0.32092 0.31701 0.0
H701 H 0.80374 0.31807 0.34877 0.0
H702 H 0.90233 0.29243 0.334 0.0
H703 H 0.87907 0.29546 0.30178 0.0
H704 H 0.77003 0.30317 0.36957 0.0
H705 H 0.02399 0.3056 0.36696 0.0
H706 H 0.9762 0.30931 0.34825 0.0
H707 H 0.98993 0.29678 0.35231 0.0
C708 C 0.80665 0.31473 0.32046 0.0
C709 C 0.82725 0.30842 0.30691 0.0
C710 C 0.82049 0.31308 0.33865 0.0
C711 C 0.85487 0.30504 0.34383 0.0
C712 C 0.87651 0.29877 0.33032 0.0
H713 H 0.87141 0.29486 0.46314 0.0
H714 H 0.84729 0.29208 0.43089 0.0
C715 C 0.86327 0.3005 0.31194 0.0
C716 C 0.86639 0.30335 0.36348 0.0
H717 H 0.97932 0.30304 0.39551 0.0
C718 C 0.81582 0.30304 0.37526 0.0
C719 C 0.92612 0.30318 0.37086 0.0
C720 C 0.98228 0.30381 0.35901 0.0
C721 C 0.82323 0.3031 0.39422 0.0
C722 C 0.88297 0.30321 0.4016 0.0
C723 C 0.93353 0.30297 0.38981 0.0
C724 C 0.89456 0.30477 0.42127 0.0
C725 C 0.76712 0.30365 0.4061 0.0
C726 C 0.929 0.31278 0.42658 0.0
C727 C 0.94331 0.31428 0.44478 0.0
C728 C 0.92312 0.30785 0.45821 0.0
C729 C 0.8869 0.29997 0.45308 0.0
C730 C 0.87319 0.29839 0.43467 0.0
H731 H 0.72536 0.30547 0.39819 0.0
H732 H 0.75957 0.29659 0.41269 0.0
H733 H 0.7732 0.30909 0.41694 0.0
H734 H 0.94552 0.31785 0.41656 0.0
H735 H 0.97101 0.32045 0.44832 0.0
H736 H 0.59724 0.05668 0.55441 0.0
H737 H 0.57034 0.05516 0.58676 0.0
H738 H 0.76123 0.0571 0.60117 0.0
H739 H 0.78816 0.05879 0.56929 0.0
H740 H 0.60694 0.04207 0.61421 0.0
H741 H 0.68531 0.07899 0.63001 0.0
H742 H 0.67381 0.07484 0.60705 0.0
H743 H 0.74261 0.07178 0.61918 0.0
C744 C 0.63333 0.05672 0.5645 0.0
C745 C 0.69466 0.05802 0.55932 0.0
C746 C 0.61798 0.05586 0.58294 0.0
C747 C 0.66376 0.05625 0.59637 0.0
C748 C 0.72507 0.05705 0.59109 0.0
H749 H 0.65884 0.05765 0.71552 0.0
H750 H 0.69273 0.0556 0.68385 0.0
C751 C 0.74032 0.05799 0.57282 0.0
C752 C 0.64806 0.05607 0.61596 0.0
H753 H 0.66142 0.06903 0.65514 0.0
C754 C 0.61864 0.04797 0.62316 0.0
C755 C 0.66363 0.06377 0.62764 0.0
C756 C 0.69256 0.07288 0.62058 0.0
C757 C 0.60487 0.04733 0.64176 0.0
C758 C 0.62052 0.05503 0.65339 0.0
C759 C 0.65032 0.06309 0.64623 0.0
C760 C 0.60111 0.0553 0.67265 0.0
C761 C 0.57395 0.03842 0.64887 0.0
C762 C 0.53869 0.05581 0.67676 0.0
C763 C 0.51947 0.05706 0.69463 0.0
C764 C 0.56225 0.05783 0.70886 0.0
C765 C 0.6249 0.05705 0.70485 0.0
C766 C 0.64422 0.05589 0.68681 0.0
H767 H 0.58022 0.03224 0.63954 0.0
H768 H 0.5919 0.03645 0.66249 0.0
H769 H 0.52413 0.03979 0.65016 0.0
H770 H 0.50473 0.05555 0.66603 0.0
H771 H 0.47081 0.05758 0.69724 0.0
H772 H 0.51542 0.19093 0.56838 0.0
H773 H 0.53942 0.19388 0.60011 0.0
H774 H 0.64567 0.21871 0.58501 0.0
H775 H 0.62289 0.2156 0.55276 0.0
H776 H 0.70222 0.20854 0.61087 0.0
H777 H 0.46311 0.21373 0.6322 0.0
H778 H 0.47058 0.20248 0.62068 0.0
H779 H 0.48522 0.2135 0.60859 0.0
C780 C 0.544 0.19703 0.57174 0.0
C781 C 0.56679 0.2031 0.55808 0.0
C782 C 0.55715 0.19877 0.58995 0.0
C783 C 0.59239 0.20672 0.59503 0.0
C784 C 0.61743 0.21262 0.5814 0.0
H785 H 0.61765 0.21469 0.71431 0.0
H786 H 0.59289 0.21816 0.68229 0.0
C787 C 0.60476 0.21081 0.56301 0.0
C788 C 0.6045 0.2085 0.61461 0.0
H789 H 0.53349 0.2085 0.65593 0.0
C790 C 0.66531 0.20873 0.62069 0.0
C791 C 0.55648 0.20904 0.6275 0.0
C792 C 0.49025 0.20979 0.62186 0.0
C793 C 0.67926 0.2087 0.63931 0.0
C794 C 0.63115 0.20813 0.65216 0.0
C795 C 0.57041 0.20871 0.64611 0.0
C796 C 0.6431 0.20602 0.67163 0.0
C797 C 0.74559 0.20909 0.64498 0.0
C798 C 0.67697 0.19783 0.67627 0.0
C799 C 0.69122 0.1959 0.69434 0.0
C800 C 0.67088 0.20199 0.70828 0.0
C801 C 0.63378 0.20988 0.70382 0.0
C802 C 0.62004 0.21189 0.68556 0.0
H803 H 0.77349 0.21304 0.63481 0.0
H804 H 0.75123 0.21261 0.6584 0.0
H805 H 0.76392 0.20168 0.64586 0.0
H806 H 0.69316 0.19298 0.66586 0.0
H807 H 0.71913 0.18968 0.69737 0.0
H808 H 0.23146 0.94635 0.44705 0.0
H809 H 0.26191 0.94786 0.41544 0.0
H810 H 0.43274 0.96066 0.43184 0.0
H811 H 0.40255 0.95918 0.46394 0.0
H812 H 0.35902 0.96981 0.39994 0.0
H813 H 0.40641 0.93072 0.39426 0.0
H814 H 0.33506 0.93396 0.40476 0.0
H815 H 0.40584 0.93693 0.41579 0.0
C816 C 0.27555 0.94952 0.44407 0.0
C817 C 0.31485 0.95257 0.45811 0.0
C818 C 0.29273 0.95039 0.42594 0.0
C819 C 0.34956 0.95431 0.42136 0.0
C820 C 0.38858 0.95761 0.43519 0.0
H821 H 0.53503 0.94793 0.31958 0.0
H822 H 0.50518 0.94953 0.35117 0.0
C823 C 0.3714 0.95673 0.45348 0.0
C824 C 0.36855 0.95449 0.40209 0.0
H825 H 0.40609 0.93967 0.367 0.0
C826 C 0.36971 0.96325 0.3927 0.0
C827 C 0.38227 0.9459 0.39278 0.0
C828 C 0.38287 0.93633 0.40238 0.0
C829 C 0.38376 0.96361 0.37407 0.0
C830 C 0.39639 0.95499 0.3647 0.0
C831 C 0.39578 0.94626 0.37419 0.0
C832 C 0.41435 0.95482 0.3453 0.0
C833 C 0.38594 0.97319 0.36458 0.0
C834 C 0.37306 0.95732 0.33142 0.0
C835 C 0.38998 0.95639 0.31311 0.0
C836 C 0.44833 0.95291 0.3085 0.0
C837 C 0.48957 0.95058 0.32254 0.0
C838 C 0.47271 0.95151 0.34068 0.0
H839 H 0.38572 0.97926 0.37435 0.0
H840 H 0.42746 0.97373 0.35596 0.0
H841 H 0.34539 0.97391 0.3556 0.0
H842 H 0.3274 0.95977 0.33474 0.0
H843 H 0.35721 0.95824 0.30264 0.0
H844 H 0.37275 0.79589 0.46285 0.0
H845 H 0.34914 0.79294 0.43062 0.0
H846 H 0.45523 0.81783 0.41572 0.0
H847 H 0.48028 0.82058 0.44747 0.0
H848 H 0.29243 0.80303 0.40486 0.0
H849 H 0.53191 0.7981 0.38355 0.0
H850 H 0.50981 0.79836 0.40715 0.0
H851 H 0.5236 0.80937 0.39494 0.0
C852 C 0.39062 0.80073 0.45265 0.0
C853 C 0.42894 0.80839 0.45764 0.0
C854 C 0.37746 0.79902 0.43426 0.0
C855 C 0.40224 0.80497 0.42068 0.0
C856 C 0.43767 0.8129 0.42583 0.0
H857 H 0.2744 0.82046 0.31683 0.0
H858 H 0.29816 0.81768 0.34866 0.0
C859 C 0.45142 0.81453 0.44404 0.0
C860 C 0.39014 0.8032 0.4011 0.0
H861 H 0.46106 0.80291 0.35977 0.0
C862 C 0.32933 0.80282 0.39503 0.0
C863 C 0.43816 0.80263 0.38821 0.0
C864 C 0.50447 0.80202 0.39384 0.0
C865 C 0.31531 0.80262 0.37641 0.0
C866 C 0.36334 0.80312 0.36352 0.0
C867 C 0.42414 0.80276 0.3696 0.0
C868 C 0.35134 0.80483 0.3439 0.0
C869 C 0.249 0.802 0.3708 0.0
C870 C 0.37651 0.79888 0.33041 0.0
C871 C 0.36407 0.8006 0.31198 0.0
C872 C 0.32609 0.80827 0.30684 0.0
C873 C 0.30299 0.81439 0.32036 0.0
C874 C 0.31601 0.81275 0.33862 0.0
H875 H 0.22157 0.7981 0.38114 0.0
H876 H 0.22988 0.80934 0.36963 0.0
H877 H 0.24362 0.79831 0.35754 0.0
H878 H 0.40476 0.7928 0.33416 0.0
H879 H 0.38245 0.79577 0.30185 0.0
H880 H 0.78596 0.55707 0.06755 0.0
H881 H 0.75989 0.5549 0.09938 0.0
H882 H 0.56792 0.55516 0.08567 0.0
H883 H 0.59402 0.55711 0.05339 0.0
H884 H 0.69832 0.56756 0.11956 0.0
H885 H 0.577 0.53261 0.12042 0.0
H886 H 0.6219 0.53657 0.10126 0.0
H887 H 0.54569 0.54109 0.10458 0.0
C888 C 0.73808 0.55656 0.07123 0.0
C889 C 0.69193 0.55733 0.05797 0.0
C890 C 0.72331 0.5553 0.08946 0.0
C891 C 0.66204 0.55481 0.09495 0.0
C892 C 0.6156 0.55533 0.08172 0.0
H893 H 0.47659 0.55997 0.19622 0.0
H894 H 0.50909 0.55778 0.16493 0.0
C895 C 0.63047 0.55649 0.0633 0.0
C896 C 0.64764 0.55456 0.11465 0.0
H897 H 0.57181 0.54198 0.14748 0.0
C898 C 0.67119 0.5619 0.12569 0.0
C899 C 0.61233 0.54717 0.12263 0.0
C900 C 0.58821 0.53886 0.11166 0.0
C901 C 0.65916 0.56221 0.14439 0.0
C902 C 0.62308 0.55492 0.15231 0.0
C903 C 0.59993 0.54751 0.14135 0.0
C904 C 0.6042 0.55539 0.1716 0.0
C905 C 0.68329 0.57051 0.15542 0.0
C906 C 0.64693 0.55459 0.18582 0.0
C907 C 0.62844 0.55584 0.20391 0.0
C908 C 0.56708 0.55797 0.20794 0.0
C909 C 0.5244 0.55845 0.19363 0.0
C910 C 0.54273 0.55715 0.17569 0.0
H911 H 0.70203 0.57632 0.14672 0.0
H912 H 0.64656 0.57355 0.16409 0.0
H913 H 0.72042 0.56793 0.16449 0.0
H914 H 0.6946 0.55315 0.18289 0.0
H915 H 0.66227 0.55539 0.21463 0.0
H916 H 0.78195 0.7056 0.1969 0.0
H917 H 0.75658 0.70761 0.16496 0.0
H918 H 0.56428 0.70687 0.17804 0.0
H919 H 0.58966 0.70509 0.21042 0.0
H920 H 0.69704 0.69475 0.14465 0.0
H921 H 0.57168 0.72933 0.14311 0.0
H922 H 0.61639 0.72555 0.16246 0.0
H923 H 0.54086 0.72078 0.15889 0.0
C924 C 0.73414 0.70598 0.19306 0.0
C925 C 0.68771 0.70513 0.20619 0.0
C926 C 0.71976 0.70714 0.17476 0.0
C927 C 0.65861 0.70745 0.16906 0.0
C928 C 0.61186 0.70685 0.18215 0.0
H929 H 0.47925 0.70195 0.06633 0.0
H930 H 0.50907 0.70401 0.09793 0.0
C931 C 0.62633 0.70579 0.20063 0.0
C932 C 0.64473 0.70761 0.1493 0.0
H933 H 0.56884 0.71994 0.11606 0.0
C934 C 0.66949 0.70032 0.13838 0.0
C935 C 0.60883 0.71488 0.14112 0.0
C936 C 0.58334 0.72313 0.15195 0.0
C937 C 0.65828 0.69996 0.11963 0.0
C938 C 0.62178 0.70714 0.11151 0.0
C939 C 0.59725 0.71448 0.12234 0.0
C940 C 0.60443 0.70667 0.09207 0.0
C941 C 0.68388 0.69173 0.10873 0.0
C942 C 0.64817 0.70766 0.0782 0.0
C943 C 0.63124 0.7065 0.05994 0.0
C944 C 0.5704 0.70427 0.05536 0.0
C945 C 0.52668 0.70357 0.06934 0.0
C946 C 0.54348 0.70479 0.08745 0.0
H947 H 0.70255 0.68595 0.11754 0.0
H948 H 0.64803 0.68862 0.0998 0.0
H949 H 0.72138 0.6944 0.09993 0.0
H950 H 0.69544 0.70921 0.08152 0.0
H951 H 0.66587 0.70712 0.0495 0.0
H952 H 0.33071 0.45427 0.79973 0.0
H953 H 0.29975 0.45645 0.83162 0.0
H954 H 0.48924 0.45623 0.84799 0.0
H955 H 0.52026 0.45408 0.81654 0.0
H956 H 0.33301 0.44285 0.8597 0.0
H957 H 0.41723 0.47945 0.87558 0.0
H958 H 0.40347 0.4754 0.85262 0.0
H959 H 0.47202 0.47189 0.86438 0.0
C960 C 0.36561 0.45487 0.81012 0.0
C961 C 0.42781 0.45395 0.80566 0.0
C962 C 0.34796 0.4561 0.82829 0.0
C963 C 0.39234 0.45662 0.8421 0.0
C964 C 0.45435 0.45603 0.83753 0.0
H965 H 0.40298 0.45435 0.96038 0.0
H966 H 0.42885 0.45608 0.92797 0.0
C967 C 0.4719 0.4547 0.81953 0.0
C968 C 0.3746 0.4568 0.86149 0.0
H969 H 0.39169 0.46949 0.90086 0.0
C970 C 0.34505 0.44872 0.86867 0.0
C971 C 0.39155 0.4644 0.87318 0.0
C972 C 0.4224 0.47332 0.86606 0.0
C973 C 0.3331 0.44793 0.88731 0.0
C974 C 0.34981 0.45555 0.89904 0.0
C975 C 0.37912 0.46366 0.89185 0.0
C976 C 0.33497 0.45529 0.91866 0.0
C977 C 0.30425 0.43882 0.89436 0.0
C978 C 0.27379 0.45461 0.92411 0.0
C979 C 0.25914 0.45354 0.94239 0.0
C980 C 0.3053 0.45328 0.95573 0.0
C981 C 0.36655 0.45448 0.9504 0.0
C982 C 0.3813 0.45546 0.93194 0.0
H983 H 0.31065 0.43275 0.88477 0.0
H984 H 0.32376 0.43677 0.90774 0.0
H985 H 0.25434 0.43996 0.89606 0.0
H986 H 0.23726 0.45472 0.91416 0.0
H987 H 0.21135 0.45283 0.94605 0.0
H988 H 0.21828 0.30809 0.81891 0.0
H989 H 0.24929 0.30612 0.85043 0.0
H990 H 0.43653 0.30223 0.83361 0.0
H991 H 0.40574 0.30426 0.80167 0.0
H992 H 0.31299 0.29086 0.86884 0.0
H993 H 0.43884 0.32559 0.86901 0.0
H994 H 0.38515 0.32242 0.85136 0.0
H995 H 0.46001 0.31713 0.85169 0.0
C996 C 0.26614 0.30677 0.82181 0.0
C997 C 0.30976 0.30645 0.80776 0.0
C998 C 0.28364 0.30559 0.83988 0.0
C999 C 0.34517 0.30413 0.84436 0.0
C1000 C 0.3888 0.30345 0.8304 0.0
H1001 H 0.52867 0.30641 0.94787 0.0
H1002 H 0.50069 0.30411 0.91622 0.0
C1003 C 0.37119 0.30458 0.81219 0.0
C1004 C 0.3632 0.30388 0.86376 0.0
H1005 H 0.43719 0.31686 0.89629 0.0
C1006 C 0.34051 0.2965 0.87488 0.0
C1007 C 0.3984 0.31131 0.87157 0.0
C1008 C 0.42176 0.31962 0.86039 0.0
C1009 C 0.35288 0.29629 0.89362 0.0
C1010 C 0.38773 0.30378 0.90145 0.0
C1011 C 0.41046 0.31113 0.89027 0.0
C1012 C 0.40313 0.30408 0.92109 0.0
C1013 C 0.32942 0.288 0.9048 0.0
C1014 C 0.35747 0.30464 0.93452 0.0
C1015 C 0.37346 0.30589 0.95285 0.0
C1016 C 0.43525 0.30675 0.95788 0.0
C1017 C 0.48057 0.3059 0.94443 0.0
C1018 C 0.46471 0.30456 0.92629 0.0
H1019 H 0.31755 0.28174 0.89617 0.0
H1020 H 0.36382 0.28573 0.91504 0.0
H1021 H 0.28745 0.29026 0.91209 0.0
H1022 H 0.30956 0.30446 0.93078 0.0
H1023 H 0.33764 0.30656 0.96292 0.0
H1024 H 0.47875 0.0486 0.01593 0.0
H1025 H 0.5305 0.03297 0.01357 0.0
H1026 H 0.35555 0.01867 0.01453 0.0
H1027 H 0.30409 0.03404 0.01713 0.0
H1028 H 0.44318 0.00986 0.0364 0.0
H1029 H 0.52964 0.01681 0.96657 0.0
H1030 H 0.55078 0.02549 0.98349 0.0
H1031 H 0.47189 0.02419 0.9771 0.0
C1032 C 0.45157 0.04211 0.01586 0.0
C1033 C 0.38738 0.04257 0.01653 0.0
C1034 C 0.48105 0.0332 0.01436 0.0
C1035 C 0.44665 0.02469 0.01356 0.0
C1036 C 0.3829 0.02515 0.01501 0.0
H1037 H 0.5138 0.96324 0.99947 0.0
H1038 H 0.46474 0.97906 1.00219 0.0
C1039 C 0.3536 0.03397 0.01644 0.0
C1040 C 0.47595 0.01523 0.01077 0.0
H1041 H 0.55497 1.0019 0.97979 0.0
C1042 C 0.46776 0.00811 0.02405 0.0
C1043 C 0.50736 0.01296 0.99455 0.0
C1044 C 0.51519 0.02022 0.97951 0.0
C1045 C 0.49086 0.99881 0.02165 0.0
C1046 C 0.52203 0.99653 1.0054 0.0
C1047 C 0.5305 1.00366 0.99216 0.0
C1048 C 0.54995 0.98699 1.00244 0.0
C1049 C 0.48287 0.99154 0.03667 0.0
C1050 C 0.61361 0.98628 1.00101 0.0
C1051 C 0.64143 0.97734 0.99939 0.0
C1052 C 0.60619 0.96889 0.99907 0.0
C1053 C 0.5421 0.96961 0.99972 0.0
C1054 C 0.51414 0.97862 1.00142 0.0
H1055 H 0.46906 0.99496 0.04965 0.0
H1056 H 0.44673 0.98635 0.03274 0.0
H1057 H 0.5259 0.98748 0.03894 0.0
H1058 H 0.64201 0.99264 1.00165 0.0
H1059 H 0.69092 0.97706 0.99873 0.0
H1060 H 0.55979 0.28447 0.99973 0.0
H1061 H 0.61097 0.26906 1.00173 0.0
H1062 H 0.78648 0.28317 0.99986 0.0
H1063 H 0.73505 0.29886 0.9981 0.0
H1064 H 0.69385 0.26019 0.97847 0.0
H1065 H 0.79378 0.26695 0.04681 0.0
H1066 H 0.73445 0.27441 0.03723 0.0
H1067 H 0.81203 0.27563 0.02957 0.0
C1068 C 0.60935 0.28436 0.99969 0.0
C1069 C 0.64343 0.29292 0.99896 0.0
C1070 C 0.63848 0.27551 1.00078 0.0
C1071 C 0.70238 0.27498 1.00123 0.0
C1072 C 0.73697 0.28346 0.99984 0.0
H1073 H 0.94557 0.22692 0.01283 0.0
H1074 H 0.89754 0.24258 0.01011 0.0
C1075 C 0.70764 0.29239 0.9987 0.0
C1076 C 0.73169 0.26549 1.00354 0.0
H1077 H 0.81542 0.25201 0.03326 0.0
C1078 C 0.72058 0.25839 0.99041 0.0
C1079 C 0.76593 0.26316 0.01924 0.0
C1080 C 0.77701 0.27039 0.03413 0.0
C1081 C 0.74344 0.24905 0.99247 0.0
C1082 C 0.77742 0.24672 0.00821 0.0
C1083 C 0.78885 0.25382 0.02129 0.0
C1084 C 0.805 0.23712 0.0108 0.0
C1085 C 0.73213 0.2418 0.97763 0.0
C1086 C 0.7687 0.22884 0.01251 0.0
C1087 C 0.79614 0.21978 0.0141 0.0
C1088 C 0.86021 0.21892 0.01395 0.0
C1089 C 0.89606 0.22729 0.01281 0.0
C1090 C 0.86876 0.23628 0.0113 0.0
H1091 H 0.71618 0.24525 0.96487 0.0
H1092 H 0.77436 0.23766 0.97471 0.0
H1093 H 0.69638 0.23668 0.98214 0.0
H1094 H 0.71927 0.22938 0.01245 0.0
H1095 H 0.76738 0.21347 0.015 0.0
H1096 H 0.48517 0.21403 0.2497 0.0
H1097 H 0.53327 0.22992 0.2527 0.0
H1098 H 0.35499 0.24306 0.2555 0.0
H1099 H 0.30698 0.22742 0.25269 0.0
H1100 H 0.51819 0.24689 0.23101 0.0
H1101 H 0.44015 0.25261 0.30189 0.0
H1102 H 0.43956 0.24096 0.29117 0.0
H1103 H 0.38002 0.24949 0.28634 0.0
C1104 C 0.45639 0.22032 0.25085 0.0
C1105 C 0.39233 0.21944 0.25117 0.0
C1106 C 0.48383 0.22937 0.25261 0.0
C1107 C 0.44755 0.23762 0.25476 0.0
C1108 C 0.38378 0.23677 0.25435 0.0
H1109 H 0.52324 0.29909 0.26622 0.0
H1110 H 0.47142 0.28344 0.26379 0.0
C1111 C 0.35649 0.22779 0.25265 0.0
C1112 C 0.47564 0.24719 0.25733 0.0
H1113 H 0.48302 0.2661 0.28678 0.0
C1114 C 0.51086 0.25107 0.24323 0.0
C1115 C 0.46542 0.25266 0.27325 0.0
C1116 C 0.42968 0.2487 0.28911 0.0
C1117 C 0.53563 0.26033 0.24453 0.0
C1118 C 0.52558 0.26578 0.26047 0.0
C1119 C 0.49013 0.26193 0.27454 0.0
C1120 C 0.55534 0.2752 0.26319 0.0
C1121 C 0.57187 0.26427 0.22876 0.0
C1122 C 0.61916 0.27566 0.26432 0.0
C1123 C 0.6485 0.28449 0.26573 0.0
C1124 C 0.61469 0.29308 0.26615 0.0
C1125 C 0.55044 0.2926 0.2659 0.0
C1126 C 0.52091 0.28369 0.26445 0.0
H1127 H 0.56197 0.26033 0.21598 0.0
H1128 H 0.56189 0.272 0.22663 0.0
H1129 H 0.62145 0.26352 0.23172 0.0
H1130 H 0.64643 0.26918 0.26379 0.0
H1131 H 0.69805 0.28456 0.26617 0.0
H1132 H 0.74361 0.9635 0.26252 0.0
H1133 H 0.79171 0.97942 0.25992 0.0
H1134 H 0.61478 0.99281 0.26515 0.0
H1135 H 0.56695 0.97715 0.26791 0.0
H1136 H 0.76241 0.99326 0.23237 0.0
H1137 H 0.72051 0.0078 0.30134 0.0
H1138 H 0.71665 0.99514 0.2963 0.0
H1139 H 0.65358 1.00287 0.2907 0.0
C1140 C 0.71531 0.96986 0.26346 0.0
C1141 C 0.65155 0.96907 0.26538 0.0
C1142 C 0.7427 0.97893 0.26189 0.0
C1143 C 0.70677 0.98729 0.26253 0.0
C1144 C 0.64347 0.98648 0.26493 0.0
H1145 H 0.77292 0.04885 0.25006 0.0
H1146 H 0.72277 0.03304 0.25162 0.0
C1147 C 0.6162 0.97749 0.26638 0.0
C1148 C 0.73405 0.99688 0.2595 0.0
H1149 H 0.75015 0.01904 0.27864 0.0
C1150 C 0.76026 0.99888 0.24253 0.0
C1151 C 0.73026 1.00423 0.27269 0.0
C1152 C 0.70422 1.0024 0.29134 0.0
C1153 C 0.78218 0.00808 0.2383 0.0
C1154 C 0.77856 0.01542 0.25151 0.0
C1155 C 0.75219 0.01343 0.26846 0.0
C1156 C 0.80676 0.02496 0.24863 0.0
C1157 C 0.80824 0.0099 0.21965 0.0
C1158 C 0.87016 0.02562 0.24628 0.0
C1159 C 0.89856 0.03455 0.24543 0.0
C1160 C 0.86426 0.04304 0.24698 0.0
C1161 C 0.80036 0.04242 0.24869 0.0
C1162 C 0.77183 0.03342 0.24967 0.0
H1163 H 0.79113 1.00459 0.2096 0.0
H1164 H 0.79671 0.01722 0.2148 0.0
H1165 H 0.85881 0.00926 0.22024 0.0
H1166 H 0.89812 0.01921 0.24577 0.0
H1167 H 0.94789 0.03477 0.24405 0.0
H1168 H 0.27413 0.71348 0.01524 0.0
H1169 H 0.22364 0.72926 0.01374 0.0
H1170 H 0.3993 0.74296 0.00771 0.0
H1171 H 0.44962 0.72747 0.00906 0.0
H1172 H 0.2439 0.74608 0.03607 0.0
H1173 H 0.30067 0.75277 0.9637 0.0
H1174 H 0.30443 0.74099 0.97385 0.0
H1175 H 0.36513 0.74947 0.97751 0.0
C1176 C 0.30183 0.71987 0.01365 0.0
C1177 C 0.36578 0.71919 0.01208 0.0
C1178 C 0.27302 0.72885 0.01277 0.0
C1179 C 0.30781 0.73723 0.01021 0.0
C1180 C 0.37156 0.73657 0.00923 0.0
H1181 H 0.22962 0.79866 1.00131 0.0
H1182 H 0.28153 0.783 1.00303 0.0
C1183 C 0.4002 0.72767 0.01009 0.0
C1184 C 0.27836 0.74675 0.00874 0.0
H1185 H 0.26259 0.76605 0.98048 0.0
C1186 C 0.24751 0.75043 0.02389 0.0
C1187 C 0.28387 0.75243 0.99287 0.0
C1188 C 0.31485 0.7487 0.97599 0.0
C1189 C 0.22268 0.75971 0.02368 0.0
C1190 C 0.22812 0.76538 0.00781 0.0
C1191 C 0.25906 0.76171 0.99267 0.0
C1192 C 0.19796 0.77484 1.00626 0.0
C1193 C 0.1915 0.76343 0.04054 0.0
C1194 C 0.13413 0.77535 1.007 0.0
C1195 C 0.10469 0.78418 1.00599 0.0
C1196 C 0.13838 0.79274 1.00411 0.0
C1197 C 0.20247 0.79221 1.00281 0.0
C1198 C 0.23208 0.78329 1.00383 0.0
H1199 H 0.20566 0.75937 0.05284 0.0
H1200 H 0.20173 0.77115 0.04266 0.0
H1201 H 0.14124 0.76263 0.03898 0.0
H1202 H 0.10694 0.7689 0.00844 0.0
H1203 H 0.05522 0.78427 1.00683 0.0
H1204 H 0.68998 0.78393 0.77074 0.0
H1205 H 0.64218 0.76821 0.7687 0.0
H1206 H 0.46487 0.78153 0.76369 0.0
H1207 H 0.51289 0.79747 0.76552 0.0
H1208 H 0.55106 0.75925 0.78948 0.0
H1209 H 0.48021 0.7647 0.71763 0.0
H1210 H 0.53421 0.77248 0.72891 0.0
H1211 H 0.45379 0.7736 0.73342 0.0
C1212 C 0.64069 0.78356 0.76933 0.0
C1213 C 0.60519 0.79195 0.76807 0.0
C1214 C 0.61349 0.77455 0.76822 0.0
C1215 C 0.55024 0.77371 0.76573 0.0
C1216 C 0.51401 0.78205 0.76531 0.0
H1217 H 0.3092 0.72626 0.74946 0.0
H1218 H 0.36001 0.74168 0.7522 0.0
C1219 C 0.54133 0.79113 0.7665 0.0
C1220 C 0.52339 0.76408 0.76293 0.0
H1221 H 0.45196 0.75005 0.7314 0.0
C1222 C 0.52934 0.75722 0.77679 0.0
C1223 C 0.49594 0.76145 0.74627 0.0
C1224 C 0.49097 0.7684 0.73061 0.0
C1225 C 0.50714 0.74784 0.7746 0.0
C1226 C 0.47932 0.74523 0.75798 0.0
C1227 C 0.47378 0.75207 0.74407 0.0
C1228 C 0.45069 0.73571 0.75531 0.0
C1229 C 0.51206 0.74089 0.79025 0.0
C1230 C 0.48518 0.72719 0.7557 0.0
C1231 C 0.45605 0.71825 0.75412 0.0
C1232 C 0.39214 0.71777 0.75219 0.0
C1233 C 0.35845 0.72635 0.75114 0.0
C1234 C 0.38739 0.7352 0.75265 0.0
H1235 H 0.52393 0.74455 0.80318 0.0
H1236 H 0.46838 0.73694 0.79214 0.0
H1237 H 0.54837 0.73556 0.78727 0.0
H1238 H 0.53436 0.72745 0.75743 0.0
H1239 H 0.48316 0.71177 0.75493 0.0
H1240 H 0.05237 0.97664 0.76031 0.0
H1241 H 0.10415 0.99199 0.75825 0.0
H1242 H 0.27903 0.9778 0.76197 0.0
H1243 H 0.22704 0.96216 0.76378 0.0
H1244 H 0.18394 1.00082 0.7823 0.0
H1245 H 0.29302 0.99404 0.71529 0.0
H1246 H 0.23254 0.98656 0.72415 0.0
H1247 H 0.30907 0.98538 0.73276 0.0
C1248 C 0.10192 0.97671 0.76071 0.0
C1249 C 0.13565 0.96814 0.76205 0.0
C1250 C 0.1314 0.98554 0.75957 0.0
C1251 C 0.19532 0.98603 0.75969 0.0
C1252 C 0.22953 0.97754 0.76153 0.0
H1253 H 0.43946 0.03428 0.75147 0.0
H1254 H 0.39177 0.01856 0.75343 0.0
C1255 C 0.19986 0.96863 0.7627 0.0
C1256 C 0.22507 0.99552 0.75772 0.0
H1257 H 0.31304 0.00898 0.72912 0.0
C1258 C 0.21229 1.00261 0.7707 0.0
C1259 C 0.26154 0.99783 0.74248 0.0
C1260 C 0.27463 0.9906 0.72776 0.0
C1261 C 0.23547 0.01195 0.76894 0.0
C1262 C 0.27158 0.01428 0.75364 0.0
C1263 C 0.28482 0.00718 0.74074 0.0
C1264 C 0.29921 0.0239 0.75138 0.0
C1265 C 0.22214 0.0192 0.78362 0.0
C1266 C 0.26284 0.03214 0.74914 0.0
C1267 C 0.29007 0.04123 0.74799 0.0
C1268 C 0.35399 0.04217 0.7491 0.0
C1269 C 0.39003 0.03384 0.75074 0.0
C1270 C 0.36293 0.02482 0.75182 0.0
H1271 H 0.20452 0.01575 0.79617 0.0
H1272 H 0.26392 0.02336 0.78706 0.0
H1273 H 0.18699 0.02432 0.77866 0.0
H1274 H 0.21348 0.03154 0.74849 0.0
H1275 H 0.26118 0.0475 0.74668 0.0
H1276 H 0.50791 0.46233 0.50069 0.0
H1277 H 0.45934 0.47824 0.5027 0.0
H1278 H 0.63686 0.49167 0.5001 0.0
H1279 H 0.68516 0.47604 0.49794 0.0
H1280 H 0.48354 0.49214 0.5305 0.0
H1281 H 0.53776 0.50658 0.46219 0.0
H1282 H 0.54077 0.49392 0.46739 0.0
H1283 H 0.60283 0.50168 0.47385 0.0
C1284 C 0.5363 0.46869 0.50025 0.0
C1285 C 0.60031 0.46792 0.4992 0.0
C1286 C 0.50863 0.47776 0.50146 0.0
C1287 C 0.54458 0.48613 0.50133 0.0
C1288 C 0.6082 0.48533 0.4999 0.0
H1289 H 0.48186 0.54771 0.5141 0.0
H1290 H 0.53002 0.53176 0.51224 0.0
C1291 C 0.63572 0.47635 0.4988 0.0
C1292 C 0.51683 0.49572 0.50384 0.0
H1293 H 0.50536 0.51791 0.48442 0.0
C1294 C 0.48772 0.49775 0.52037 0.0
C1295 C 0.52322 0.50306 0.49069 0.0
C1296 C 0.55236 0.5012 0.47246 0.0
C1297 C 0.46564 0.50698 0.52422 0.0
C1298 C 0.47209 0.51432 0.51108 0.0
C1299 C 0.50116 0.51229 0.49455 0.0
C1300 C 0.44457 0.52393 0.5136 0.0
C1301 C 0.43647 0.50884 0.54244 0.0
C1302 C 0.38096 0.52477 0.51502 0.0
C1303 C 0.35367 0.53377 0.51603 0.0
C1304 C 0.38931 0.54218 0.51558 0.0
C1305 C 0.45331 0.54136 0.51459 0.0
C1306 C 0.48074 0.53228 0.51345 0.0
H1307 H 0.4509 0.50345 0.55271 0.0
H1308 H 0.44822 0.51611 0.54753 0.0
H1309 H 0.386 0.5084 0.54103 0.0
H1310 H 0.35214 0.51845 0.51483 0.0
H1311 H 0.30423 0.53412 0.51685 0.0
H1312 H 0.55469 0.78384 0.49599 0.0
H1313 H 0.60369 0.76826 0.49886 0.0
H1314 H 0.78006 0.78197 0.50291 0.0
H1315 H 0.73079 0.79779 0.50025 0.0
H1316 H 0.69426 0.75917 0.4785 0.0
H1317 H 0.76817 0.76572 0.54972 0.0
H1318 H 0.71345 0.7733 0.53824 0.0
H1319 H 0.79362 0.7744 0.53332 0.0
C1320 C 0.60403 0.78358 0.49736 0.0
C1321 C 0.63888 0.79207 0.4981 0.0
C1322 C 0.63192 0.77465 0.49896 0.0
C1323 C 0.69526 0.77396 0.50143 0.0
C1324 C 0.73085 0.78238 0.50134 0.0
H1325 H 0.93588 0.72631 0.51893 0.0
H1326 H 0.88639 0.74186 0.51617 0.0
C1327 C 0.70282 0.79139 0.49965 0.0
C1328 C 0.72285 0.76441 0.50466 0.0
H1329 H 0.79565 0.75086 0.53673 0.0
C1330 C 0.71649 0.75734 0.49122 0.0
C1331 C 0.75112 0.76203 0.52136 0.0
C1332 C 0.7567 0.76922 0.53659 0.0
C1333 C 0.73873 0.748 0.49388 0.0
C1334 C 0.76706 0.74563 0.51057 0.0
C1335 C 0.77338 0.75269 0.52402 0.0
C1336 C 0.79493 0.73609 0.51376 0.0
C1337 C 0.73317 0.74081 0.47866 0.0
C1338 C 0.75957 0.72765 0.5139 0.0
C1339 C 0.7879 0.71866 0.51553 0.0
C1340 C 0.85189 0.71802 0.51696 0.0
C1341 C 0.88651 0.72653 0.51765 0.0
C1342 C 0.85833 0.73545 0.51612 0.0
H1343 H 0.72136 0.7443 0.46553 0.0
H1344 H 0.77655 0.73677 0.47694 0.0
H1345 H 0.69651 0.73559 0.48198 0.0
H1346 H 0.71033 0.72802 0.51241 0.0
H1347 H 0.76011 0.71223 0.51497 0.0
H1348 H 0.76196 0.54754 0.74785 0.0
H1349 H 0.713 0.53168 0.75046 0.0
H1350 H 0.89053 0.51835 0.75419 0.0
H1351 H 0.93936 0.53394 0.7517 0.0
H1352 H 0.73078 0.5145 0.72857 0.0
H1353 H 0.80061 0.50913 0.80039 0.0
H1354 H 0.80123 0.52075 0.78954 0.0
H1355 H 0.86208 0.51237 0.78542 0.0
C1356 C 0.79038 0.54121 0.7491 0.0
C1357 C 0.85445 0.54202 0.74979 0.0
C1358 C 0.76245 0.53218 0.75064 0.0
C1359 C 0.7983 0.5239 0.75294 0.0
C1360 C 0.86209 0.52468 0.75289 0.0
H1361 H 0.72774 0.46249 0.76598 0.0
H1362 H 0.77739 0.4783 0.7633 0.0
C1363 C 0.88985 0.53362 0.75139 0.0
C1364 C 0.76987 0.51435 0.75539 0.0
H1365 H 0.76034 0.49553 0.78501 0.0
C1366 C 0.73676 0.51037 0.74094 0.0
C1367 C 0.77847 0.50897 0.7715 0.0
C1368 C 0.81208 0.51304 0.78767 0.0
C1369 C 0.71271 0.50106 0.74207 0.0
C1370 C 0.72121 0.49568 0.75819 0.0
C1371 C 0.75439 0.49965 0.77264 0.0
C1372 C 0.69243 0.48616 0.76068 0.0
C1373 C 0.67914 0.49699 0.72589 0.0
C1374 C 0.62861 0.48545 0.76068 0.0
C1375 C 0.60047 0.47653 0.76221 0.0
C1376 C 0.63551 0.4681 0.7639 0.0
C1377 C 0.6996 0.46884 0.76465 0.0
C1378 C 0.72791 0.47785 0.76307 0.0
H1379 H 0.69092 0.50086 0.71317 0.0
H1380 H 0.6897 0.48926 0.72409 0.0
H1381 H 0.62913 0.49771 0.72808 0.0
H1382 H 0.60043 0.4918 0.75931 0.0
H1383 H 0.55095 0.47627 0.76186 0.0
H1384 H 0.0511 0.28351 0.4978 0.0
H1385 H 0.10094 0.26799 0.50056 0.0
H1386 H 0.27719 0.28187 0.5024 0.0
H1387 H 0.22711 0.29764 0.49983 0.0
H1388 H 0.18955 0.25892 0.47925 0.0
H1389 H 0.27146 0.26578 0.5496 0.0
H1390 H 0.21493 0.27324 0.53862 0.0
H1391 H 0.29437 0.27444 0.53284 0.0
C1392 C 0.10057 0.28331 0.49868 0.0
C1393 C 0.1352 0.29183 0.4988 0.0
C1394 C 0.12894 0.27441 0.50022 0.0
C1395 C 0.19256 0.27379 0.502 0.0
C1396 C 0.22782 0.28223 0.50135 0.0
H1397 H 0.43854 0.22675 0.51809 0.0
H1398 H 0.38714 0.24213 0.51535 0.0
C1399 C 0.1993 0.29121 0.49973 0.0
C1400 C 0.22089 0.26427 0.50505 0.0
H1401 H 0.29823 0.25092 0.53647 0.0
C1402 C 0.21337 0.25716 0.49174 0.0
C1403 C 0.25123 0.26198 0.52146 0.0
C1404 C 0.2582 0.26921 0.53655 0.0
C1405 C 0.23655 0.24785 0.49425 0.0
C1406 C 0.26702 0.24557 0.51065 0.0
C1407 C 0.27436 0.25268 0.52397 0.0
C1408 C 0.29618 0.2361 0.51361 0.0
C1409 C 0.22972 0.24063 0.47913 0.0
C1410 C 0.26183 0.22756 0.51406 0.0
C1411 C 0.29129 0.21865 0.51565 0.0
C1412 C 0.35543 0.2182 0.51675 0.0
C1413 C 0.38909 0.22681 0.51706 0.0
C1414 C 0.35981 0.23564 0.51555 0.0
H1415 H 0.21626 0.24407 0.46611 0.0
H1416 H 0.27312 0.23664 0.47702 0.0
H1417 H 0.19376 0.23536 0.48284 0.0
H1418 H 0.21245 0.22779 0.51291 0.0
H1419 H 0.2642 0.21215 0.5154 0.0
H1420 H 0.23895 0.46385 0.26454 0.0
H1421 H 0.28655 0.47983 0.26244 0.0
H1422 H 0.10852 0.49301 0.26604 0.0
H1423 H 0.06115 0.47728 0.26829 0.0
H1424 H 0.2595 0.4935 0.23458 0.0
H1425 H 0.20968 0.50828 0.30289 0.0
H1426 H 0.20678 0.49559 0.29801 0.0
H1427 H 0.14409 0.50325 0.29169 0.0
C1428 C 0.21027 0.47017 0.26524 0.0
C1429 C 0.14637 0.46931 0.26653 0.0
C1430 C 0.23738 0.47927 0.26396 0.0
C1431 C 0.201 0.48759 0.26427 0.0
C1432 C 0.13752 0.48671 0.26609 0.0
H1433 H 0.26578 0.54915 0.25039 0.0
H1434 H 0.21625 0.53331 0.25249 0.0
C1435 C 0.11053 0.47768 0.26725 0.0
C1436 C 0.22812 0.4972 0.26137 0.0
H1437 H 0.2413 0.51946 0.2803 0.0
C1438 C 0.25604 0.49916 0.24462 0.0
C1439 C 0.22261 0.5046 0.2744 0.0
C1440 C 0.19465 0.50283 0.29283 0.0
C1441 C 0.27804 0.50836 0.24047 0.0
C1442 C 0.27275 0.51575 0.25352 0.0
C1443 C 0.24464 0.51381 0.27025 0.0
C1444 C 0.30089 0.5253 0.25073 0.0
C1445 C 0.30601 0.51013 0.22204 0.0
C1446 C 0.36449 0.526 0.24898 0.0
C1447 C 0.39254 0.53494 0.24783 0.0
C1448 C 0.3577 0.54342 0.24848 0.0
C1449 C 0.29369 0.54274 0.24974 0.0
C1450 C 0.26549 0.53372 0.25102 0.0
H1451 H 0.29039 0.50474 0.21193 0.0
H1452 H 0.2945 0.5174 0.21694 0.0
H1453 H 0.35654 0.50958 0.22313 0.0
H1454 H 0.39275 0.51961 0.24905 0.0
H1455 H 0.44197 0.53519 0.24681 0.0
H1456 H 0.01806 0.96265 0.50302 0.0
H1457 H 0.96799 0.97846 0.50447 0.0
H1458 H 0.14389 0.99228 0.50013 0.0
H1459 H 0.19365 0.97674 0.49849 0.0
H1460 H 0.99198 0.99268 0.53139 0.0
H1461 H 0.04125 0.00657 0.46238 0.0
H1462 H 0.04623 0.99399 0.46804 0.0
H1463 H 0.10764 1.00201 0.47386 0.0
C1464 C 0.04574 0.96907 0.50205 0.0
C1465 C 0.10975 0.96844 0.50067 0.0
C1466 C 0.01722 0.97808 0.50295 0.0
C1467 C 0.05227 0.98653 0.50219 0.0
C1468 C 0.11587 0.98587 0.5004 0.0
H1469 H 0.9877 0.04806 0.514 0.0
H1470 H 0.03589 0.03213 0.51209 0.0
C1471 C 0.14424 0.97695 0.4996 0.0
C1472 C 0.02375 0.99609 0.50449 0.0
H1473 H 0.00984 0.01809 0.48445 0.0
C1474 C 0.99526 0.99821 0.52107 0.0
C1475 C 0.02891 1.00332 0.49108 0.0
C1476 C 0.05717 1.00136 0.47277 0.0
C1477 C 0.97274 0.00743 0.52473 0.0
C1478 C 0.97816 0.01468 0.51136 0.0
C1479 C 0.00646 0.01255 0.49476 0.0
C1480 C 0.95056 0.02429 0.51378 0.0
C1481 C 0.9443 0.00941 0.54302 0.0
C1482 C 0.88699 0.02511 0.51538 0.0
C1483 C 0.85966 0.03411 0.51642 0.0
C1484 C 0.89523 0.04253 0.51581 0.0
C1485 C 0.95919 0.04172 0.5146 0.0
C1486 C 0.98665 0.03264 0.51344 0.0
H1487 H 0.95903 1.00407 0.55335 0.0
H1488 H 0.95632 0.0167 0.54791 0.0
H1489 H 0.89376 0.00897 0.54178 0.0
H1490 H 0.85824 0.01878 0.51535 0.0
H1491 H 0.81026 0.03446 0.5174 0.0
H1492 H 0.97611 0.21267 0.74601 0.0
H1493 H 0.02495 0.22854 0.7485 0.0
H1494 H 0.84729 0.24186 0.75163 0.0
H1495 H 0.79856 0.22624 0.74927 0.0
H1496 H 0.008 0.24587 0.72672 0.0
H1497 H 0.93579 0.25078 0.79839 0.0
H1498 H 0.93557 0.23922 0.78733 0.0
H1499 H 0.87491 0.24764 0.7831 0.0
C1500 C 0.94763 0.219 0.74705 0.0
C1501 C 0.88357 0.21818 0.74768 0.0
C1502 C 0.97549 0.22804 0.74853 0.0
C1503 C 0.93957 0.23632 0.75068 0.0
C1504 C 0.87577 0.23554 0.75043 0.0
H1505 H 0.01203 0.29754 0.76582 0.0
H1506 H 0.96189 0.28181 0.76237 0.0
C1507 C 0.84808 0.22658 0.74901 0.0
C1508 C 0.96798 0.24585 0.75339 0.0
H1509 H 0.97743 0.26442 0.78353 0.0
C1510 C 0.00175 0.2499 0.73917 0.0
C1511 C 0.9591 0.25111 0.76961 0.0
C1512 C 0.92482 0.24695 0.78556 0.0
C1513 C 0.02624 0.25918 0.74062 0.0
C1514 C 0.01747 0.26444 0.75686 0.0
C1515 C 0.98359 0.26039 0.77107 0.0
C1516 C 0.04661 0.2739 0.75971 0.0
C1517 C 0.06056 0.26334 0.72468 0.0
C1518 C 0.11047 0.27456 0.75995 0.0
C1519 C 0.1389 0.28342 0.76193 0.0
C1520 C 0.10414 0.29187 0.76385 0.0
C1521 C 0.03999 0.29117 0.76433 0.0
C1522 C 0.01139 0.28222 0.76231 0.0
H1523 H 0.04894 0.25959 0.71181 0.0
H1524 H 0.05053 0.2711 0.72305 0.0
H1525 H 0.11045 0.26252 0.72703 0.0
H1526 H 0.13844 0.26819 0.75843 0.0
H1527 H 0.18844 0.28365 0.76174 0.0
H1528 H 0.19887 0.78443 0.26423 0.0
H1529 H 0.14608 0.76914 0.26216 0.0
H1530 H 0.97208 0.78369 0.26303 0.0
H1531 H 0.02508 0.79926 0.26514 0.0
H1532 H 0.98437 0.76643 0.28626 0.0
H1533 H 0.05756 0.76021 0.21505 0.0
H1534 H 0.11836 0.76339 0.23034 0.0
H1535 H 0.05893 0.77192 0.22549 0.0
C1536 C 0.1493 0.78444 0.26403 0.0
C1537 C 0.11612 0.7931 0.26462 0.0
C1538 C 0.11928 0.77567 0.26279 0.0
C1539 C 0.05539 0.77531 0.26204 0.0
C1540 C 0.02162 0.78386 0.26341 0.0
H1541 H 0.80308 0.72795 0.25376 0.0
H1542 H 0.85251 0.74348 0.25641 0.0
C1543 C 0.05183 0.79272 0.26467 0.0
C1544 C 0.02482 0.76592 0.25967 0.0
H1545 H 0.01403 0.74691 0.2306 0.0
C1546 C 0.99027 0.76219 0.27405 0.0
C1547 C 0.03333 0.76039 0.24377 0.0
C1548 C 0.06862 0.76419 0.2277 0.0
C1549 C 0.96492 0.75295 0.2731 0.0
C1550 C 0.97356 0.7474 0.2572 0.0
C1551 C 0.00792 0.75116 0.2428 0.0
C1552 C 0.94456 0.73787 0.25495 0.0
C1553 C 0.93023 0.74912 0.28926 0.0
C1554 C 0.98001 0.72956 0.25252 0.0
C1555 C 0.95174 0.72056 0.25085 0.0
C1556 C 0.88765 0.7198 0.25155 0.0
C1557 C 0.8526 0.72822 0.25341 0.0
C1558 C 0.88072 0.73714 0.25502 0.0
H1559 H 0.94216 0.75305 0.30191 0.0
H1560 H 0.88042 0.75002 0.28687 0.0
H1561 H 0.93957 0.74137 0.29135 0.0
H1562 H 0.02948 0.73001 0.25223 0.0
H1563 H 0.97993 0.71422 0.24939 0.0
H1564 H 0.01193 0.46294 1.0008 0.0
H1565 H 0.96351 0.47886 1.00263 0.0
H1566 H 0.14072 0.49227 0.99828 0.0
H1567 H 0.18886 0.47661 0.99628 0.0
H1568 H 0.99015 0.49284 0.02991 0.0
H1569 H 0.03832 0.50703 0.96101 0.0
H1570 H 0.042 0.4944 0.96637 0.0
H1571 H 0.10446 0.50221 0.97224 0.0
C1572 C 0.04024 0.4693 0.99991 0.0
C1573 C 0.10415 0.46852 0.99845 0.0
C1574 C 0.01267 0.47837 1.00102 0.0
C1575 C 0.04859 0.48673 1.00038 0.0
C1576 C 0.11206 0.48593 0.99847 0.0
H1577 H 0.986 0.54833 0.01303 0.0
H1578 H 0.03446 0.53241 0.01098 0.0
C1579 C 0.1395 0.47694 0.99747 0.0
C1580 C 0.02108 0.49634 1.00296 0.0
H1581 H 0.00781 0.51844 0.98333 0.0
C1582 C 0.99342 0.49842 0.01967 0.0
C1583 C 0.02633 0.50362 0.98967 0.0
C1584 C 0.0539 0.5017 0.97125 0.0
C1585 C 0.97161 0.50765 0.02357 0.0
C1586 C 0.97687 0.51494 0.01028 0.0
C1587 C 0.00454 0.51286 0.99356 0.0
C1588 C 0.94931 0.52454 0.01287 0.0
C1589 C 0.94395 0.50958 0.04197 0.0
C1590 C 0.88578 0.52533 0.01464 0.0
C1591 C 0.85833 0.53431 0.01576 0.0
C1592 C 0.89372 0.54274 0.01506 0.0
C1593 C 0.95766 0.54197 0.01371 0.0
C1594 C 0.98526 0.5329 0.01247 0.0
H1595 H 0.95919 0.50422 0.0522 0.0
H1596 H 0.95611 0.51686 0.04689 0.0
H1597 H 0.89337 0.50913 0.04093 0.0
H1598 H 0.85713 0.51899 0.01466 0.0
H1599 H 0.80894 0.53463 0.01686 0.0
H1600 H 0.19679 0.05493 0.94614 0.0
H1601 H 0.23072 0.05485 0.91428 0.0
H1602 H 0.39127 0.07103 0.92919 0.0
H1603 H 0.3577 0.07132 0.96057 0.0
H1604 H 0.33597 0.07821 0.89903 0.0
H1605 H 0.37062 0.03886 0.89272 0.0
H1606 H 0.29543 0.04249 0.8998 0.0
H1607 H 0.35991 0.0447 0.91436 0.0
C1608 C 0.2391 0.05851 0.94257 0.0
C1609 C 0.2745 0.0631 0.95595 0.0
C1610 C 0.25873 0.05838 0.92441 0.0
C1611 C 0.31408 0.06281 0.91942 0.0
C1612 C 0.34861 0.06753 0.93271 0.0
H1613 H 0.53245 0.05706 0.82051 0.0
H1614 H 0.49572 0.05678 0.85208 0.0
C1615 C 0.32917 0.06768 0.95071 0.0
C1616 C 0.3365 0.06278 0.90038 0.0
H1617 H 0.38755 0.0482 0.86632 0.0
C1618 C 0.34708 0.07164 0.89187 0.0
C1619 C 0.35211 0.05421 0.89118 0.0
C1620 C 0.34453 0.04451 0.89999 0.0
C1621 C 0.37247 0.07218 0.87441 0.0
C1622 C 0.38661 0.06362 0.86502 0.0
C1623 C 0.37654 0.05475 0.87354 0.0
C1624 C 0.40962 0.06377 0.84607 0.0
C1625 C 0.38495 0.08194 0.86631 0.0
C1626 C 0.37332 0.06773 0.83228 0.0
C1627 C 0.39416 0.06795 0.81441 0.0
C1628 C 0.45173 0.06413 0.8098 0.0
C1629 C 0.48815 0.06012 0.82362 0.0
C1630 C 0.4671 0.05991 0.84162 0.0
H1631 H 0.38819 0.08756 0.87695 0.0
H1632 H 0.42807 0.08193 0.85835 0.0
H1633 H 0.34685 0.0839 0.85705 0.0
H1634 H 0.32841 0.07059 0.83533 0.0
H1635 H 0.36454 0.07104 0.80415 0.0
H1636 H 0.04603 0.20477 0.94499 0.0
H1637 H 0.01129 0.20494 0.91319 0.0
H1638 H 0.84967 0.18911 0.92838 0.0
H1639 H 0.88405 0.18874 0.95972 0.0
H1640 H 0.90281 0.18194 0.89795 0.0
H1641 H 0.87227 0.22141 0.89229 0.0
H1642 H 0.94736 0.21755 0.89909 0.0
H1643 H 0.88328 0.21543 0.91381 0.0
C1644 C 0.00337 0.20127 0.94149 0.0
C1645 C 0.9678 0.19678 0.95494 0.0
C1646 C 0.98326 0.20146 0.92336 0.0
C1647 C 0.92731 0.19718 0.91847 0.0
C1648 C 0.89277 0.19251 0.93182 0.0
H1649 H 0.70641 0.20397 0.82004 0.0
H1650 H 0.74403 0.20405 0.85156 0.0
C1651 C 0.91266 0.19231 0.94979 0.0
C1652 C 0.90411 0.19736 0.89951 0.0
H1653 H 0.85351 0.21225 0.86578 0.0
C1654 C 0.89219 0.18857 0.8909 0.0
C1655 C 0.88912 0.20601 0.89047 0.0
C1656 C 0.89807 0.21565 0.8994 0.0
C1657 C 0.86613 0.18819 0.8735 0.0
C1658 C 0.85266 0.19684 0.86426 0.0
C1659 C 0.86401 0.20564 0.87289 0.0
C1660 C 0.82917 0.19684 0.84534 0.0
C1661 C 0.85226 0.17851 0.8653 0.0
C1662 C 0.8647 0.19285 0.83147 0.0
C1663 C 0.84337 0.19274 0.81362 0.0
C1664 C 0.78606 0.19672 0.80914 0.0
C1665 C 0.75048 0.20079 0.82305 0.0
C1666 C 0.77203 0.20088 0.84102 0.0
H1667 H 0.84862 0.17285 0.87587 0.0
H1668 H 0.80894 0.17868 0.8574 0.0
H1669 H 0.88988 0.17648 0.85595 0.0
H1670 H 0.90938 0.18986 0.83442 0.0
H1671 H 0.87237 0.1896 0.8033 0.0
H1672 H 0.38227 0.19001 0.4607 0.0
H1673 H 0.34747 0.1903 0.42942 0.0
H1674 H 0.50773 0.20637 0.41395 0.0
H1675 H 0.54311 0.20626 0.44573 0.0
H1676 H 0.39543 0.21359 0.39929 0.0
H1677 H 0.41825 0.17448 0.38778 0.0
H1678 H 0.37452 0.17734 0.40766 0.0
H1679 H 0.45425 0.18051 0.40667 0.0
C1680 C 0.41068 0.19358 0.45073 0.0
C1681 C 0.46588 0.19807 0.45577 0.0
C1682 C 0.3906 0.1937 0.43278 0.0
C1683 C 0.42533 0.19823 0.41931 0.0
C1684 C 0.4804 0.20279 0.42417 0.0
H1685 H 0.37176 0.19019 0.30479 0.0
H1686 H 0.40722 0.19087 0.33596 0.0
C1687 C 0.50071 0.20268 0.44228 0.0
C1688 C 0.40299 0.19821 0.40028 0.0
H1689 H 0.35908 0.18316 0.36613 0.0
C1690 C 0.3879 0.20695 0.39194 0.0
C1691 C 0.39337 0.18954 0.39072 0.0
C1692 C 0.41148 0.17994 0.39858 0.0
C1693 C 0.36256 0.20725 0.37437 0.0
C1694 C 0.35109 0.19854 0.36507 0.0
C1695 C 0.36696 0.18982 0.37337 0.0
C1696 C 0.32743 0.19828 0.34615 0.0
C1697 C 0.34948 0.21686 0.36578 0.0
C1698 C 0.26996 0.2021 0.34144 0.0
C1699 C 0.24923 0.20176 0.32338 0.0
C1700 C 0.28561 0.19754 0.30982 0.0
C1701 C 0.34237 0.19354 0.31479 0.0
C1702 C 0.36293 0.19391 0.33267 0.0
H1703 H 0.37352 0.22278 0.37293 0.0
H1704 H 0.36344 0.21691 0.35128 0.0
H1705 H 0.2996 0.21829 0.36641 0.0
H1706 H 0.24116 0.20533 0.35171 0.0
H1707 H 0.20533 0.2049 0.32001 0.0
H1708 H 0.86115 0.07291 0.45978 0.0
H1709 H 0.89365 0.07228 0.42829 0.0
H1710 H 0.74027 0.05408 0.4153 0.0
H1711 H 0.7073 0.05455 0.44727 0.0
H1712 H 0.8558 0.04762 0.40126 0.0
H1713 H 0.81416 0.08587 0.38497 0.0
H1714 H 0.85925 0.08419 0.40511 0.0
H1715 H 0.78123 0.08008 0.40459 0.0
C1716 C 0.83374 0.06881 0.45029 0.0
C1717 C 0.78136 0.06379 0.45609 0.0
C1718 C 0.85243 0.0685 0.43222 0.0
C1719 C 0.8191 0.06323 0.41941 0.0
C1720 C 0.76649 0.05823 0.42501 0.0
H1721 H 0.87388 0.06853 0.30404 0.0
H1722 H 0.83527 0.06797 0.33488 0.0
C1723 C 0.7475 0.05855 0.44322 0.0
C1724 C 0.84077 0.06287 0.40033 0.0
H1725 H 0.87733 0.07721 0.36437 0.0
C1726 C 0.86002 0.05406 0.39309 0.0
C1727 C 0.84608 0.07128 0.38971 0.0
C1728 C 0.82355 0.08088 0.3964 0.0
C1729 C 0.88554 0.05348 0.37559 0.0
C1730 C 0.89284 0.06196 0.36522 0.0
C1731 C 0.87256 0.07073 0.3724 0.0
C1732 C 0.91762 0.0619 0.34643 0.0
C1733 C 0.90353 0.04379 0.36824 0.0
C1734 C 0.9773 0.05871 0.34257 0.0
C1735 C -0.00014 0.05898 0.32472 0.0
C1736 C 0.9632 0.06253 0.31051 0.0
C1737 C 0.90373 0.06577 0.31457 0.0
C1738 C 0.88133 0.06545 0.33226 0.0
H1739 H 0.88181 0.03785 0.37598 0.0
H1740 H 0.89057 0.0431 0.35371 0.0
H1741 H 0.95389 0.04294 0.3693 0.0
H1742 H 0.00663 0.05611 0.35337 0.0
H1743 H 0.04583 0.05645 0.32206 0.0
H1744 H 0.6233 0.94153 0.05353 0.0
H1745 H 0.58797 0.94227 0.08467 0.0
H1746 H 0.75961 0.95486 0.10109 0.0
H1747 H 0.79545 0.95436 0.06942 0.0
H1748 H 0.63355 0.93362 0.11431 0.0
H1749 H 0.63466 0.97317 0.12348 0.0
H1750 H 0.64211 0.96758 0.10148 0.0
H1751 H 0.70662 0.96812 0.1166 0.0
C1752 C 0.65394 0.94448 0.06366 0.0
C1753 C 0.7124 0.94791 0.0589 0.0
C1754 C 0.63343 0.9449 0.08153 0.0
C1755 C 0.67066 0.94874 0.09519 0.0
C1756 C 0.72956 0.95204 0.09067 0.0
H1757 H 0.62019 0.93935 0.20934 0.0
H1758 H 0.65218 0.93974 0.1778 0.0
C1759 C 0.75023 0.95167 0.07262 0.0
C1760 C 0.64743 0.94891 0.11414 0.0
H1761 H 0.61036 0.96375 0.14939 0.0
C1762 C 0.62848 0.94022 0.12195 0.0
C1763 C 0.63969 0.95755 0.12399 0.0
C1764 C 0.65627 0.96715 0.11595 0.0
C1765 C 0.60275 0.93988 0.13937 0.0
C1766 C 0.59691 0.94846 0.14947 0.0
C1767 C 0.61496 0.95719 0.14161 0.0
C1768 C 0.57594 0.94835 0.16861 0.0
C1769 C 0.58148 0.93035 0.14676 0.0
C1770 C 0.52263 0.95321 0.17403 0.0
C1771 C 0.50392 0.95303 0.19227 0.0
C1772 C 0.53873 0.94807 0.20533 0.0
C1773 C 0.59199 0.94323 0.19971 0.0
C1774 C 0.61042 0.94341 0.18162 0.0
H1775 H 0.57239 0.92512 0.13569 0.0
H1776 H 0.61773 0.9273 0.15561 0.0
H1777 H 0.53926 0.93117 0.15498 0.0
H1778 H 0.49553 0.95711 0.16416 0.0
H1779 H 0.463 0.95689 0.19618 0.0
H1780 H 0.96847 0.79986 0.06898 0.0
H1781 H 0.00959 0.79857 0.09998 0.0
H1782 H 0.11001 0.8249 0.09213 0.0
H1783 H 0.07071 0.82605 0.06122 0.0
H1784 H 0.18292 0.81086 0.10481 0.0
H1785 H 0.97137 0.81287 0.14642 0.0
H1786 H 0.97147 0.80359 0.12951 0.0
H1787 H 0.97245 0.81596 0.12262 0.0
C1788 C 0.99812 0.80547 0.07408 0.0
C1789 C 0.01635 0.81305 0.06271 0.0
C1790 C 0.02171 0.80473 0.09177 0.0
C1791 C 0.06292 0.81165 0.09842 0.0
C1792 C 0.0787 0.81944 0.08729 0.0
H1793 H 0.17514 0.8255 0.20609 0.0
H1794 H 0.13439 0.82439 0.17537 0.0
C1795 C 0.05589 0.82011 0.06965 0.0
C1796 C 0.09263 0.81067 0.11651 0.0
H1797 H 0.06405 0.81018 0.16207 0.0
C1798 C 0.15693 0.81067 0.11735 0.0
C1799 C 0.05872 0.81045 0.13285 0.0
C1800 C 0.98971 0.8108 0.13291 0.0
C1801 C 0.18823 0.81074 0.13403 0.0
C1802 C 0.15433 0.81058 0.15037 0.0
C1803 C 0.09004 0.81029 0.14953 0.0
C1804 C 0.18394 0.81146 0.16849 0.0
C1805 C 0.25715 0.81142 0.13398 0.0
C1806 C 0.22678 0.80469 0.17478 0.0
C1807 C 0.25114 0.8054 0.19238 0.0
C1808 C 0.23212 0.81281 0.20402 0.0
C1809 C 0.1906 0.81969 0.19747 0.0
C1810 C 0.16698 0.81904 0.17992 0.0
H1811 H 0.27504 0.81376 0.12057 0.0
H1812 H 0.27345 0.81653 0.14449 0.0
H1813 H 0.27678 0.80426 0.13704 0.0
H1814 H 0.23985 0.79868 0.16633 0.0
H1815 H 0.28239 0.79992 0.19717 0.0
H1816 H 0.61267 0.81243 0.71226 0.0
H1817 H 0.57801 0.81146 0.68101 0.0
H1818 H 0.76471 0.80843 0.66296 0.0
H1819 H 0.80011 0.80911 0.69468 0.0
H1820 H 0.6009 0.82339 0.65389 0.0
H1821 H 0.68236 0.78698 0.6354 0.0
H1822 H 0.68144 0.79121 0.65855 0.0
H1823 H 0.74169 0.79482 0.64339 0.0
C1824 C 0.64669 0.81152 0.70171 0.0
C1825 C 0.70936 0.81089 0.70599 0.0
C1826 C 0.6266 0.81095 0.6838 0.0
C1827 C 0.66851 0.80979 0.66959 0.0
C1828 C 0.73132 0.80912 0.67372 0.0
H1829 H 0.62871 0.81505 0.55409 0.0
H1830 H 0.66249 0.81406 0.58553 0.0
C1831 C 0.75159 0.80958 0.69182 0.0
C1832 C 0.64557 0.80972 0.65056 0.0
H1833 H 0.64054 0.79647 0.61154 0.0
C1834 C 0.60931 0.81746 0.6447 0.0
C1835 C 0.65623 0.80197 0.63856 0.0
C1836 C 0.69205 0.79323 0.64431 0.0
C1837 C 0.58409 0.81771 0.62717 0.0
C1838 C 0.59541 0.81004 0.61517 0.0
C1839 C 0.63167 0.8023 0.62091 0.0
C1840 C 0.5736 0.8103 0.59614 0.0
C1841 C 0.54645 0.82625 0.62139 0.0
C1842 C 0.51212 0.80847 0.59171 0.0
C1843 C 0.49233 0.80898 0.57358 0.0
C1844 C 0.53376 0.81142 0.55973 0.0
C1845 C 0.59528 0.81322 0.56437 0.0
C1846 C 0.61495 0.81262 0.58235 0.0
H1847 H 0.54548 0.83196 0.63191 0.0
H1848 H 0.56509 0.82932 0.60861 0.0
H1849 H 0.49877 0.82393 0.61861 0.0
H1850 H 0.4796 0.80667 0.60226 0.0
H1851 H 0.44479 0.80754 0.57045 0.0
H1852 H 0.27576 0.9613 0.56798 0.0
H1853 H 0.23484 0.96242 0.599 0.0
H1854 H 0.13301 0.93628 0.59053 0.0
H1855 H 0.17204 0.93531 0.55962 0.0
H1856 H 0.06108 0.9502 0.60379 0.0
H1857 H 0.27388 0.9477 0.64489 0.0
H1858 H 0.2735 0.95716 0.62832 0.0
H1859 H 0.27205 0.94487 0.621 0.0
C1860 C 0.24573 0.9557 0.57294 0.0
C1861 C 0.22708 0.94822 0.56141 0.0
C1862 C 0.22229 0.95635 0.59064 0.0
C1863 C 0.18086 0.94942 0.59713 0.0
C1864 C 0.1645 0.94175 0.58582 0.0
H1865 H 0.07291 0.93501 0.70499 0.0
H1866 H 0.11196 0.93615 0.67408 0.0
C1867 C 0.18712 0.94118 0.56817 0.0
C1868 C 0.15175 0.95025 0.61531 0.0
H1869 H 0.1818 0.95035 0.6608 0.0
C1870 C 0.08747 0.95026 0.61628 0.0
C1871 C 0.18619 0.95031 0.63157 0.0
C1872 C 0.25519 0.94993 0.63149 0.0
C1873 C 0.05671 0.95005 0.63301 0.0
C1874 C 0.09115 0.95007 0.64928 0.0
C1875 C 0.1554 0.95035 0.64832 0.0
C1876 C 0.06213 0.94911 0.66745 0.0
C1877 C 0.98779 0.94938 0.63308 0.0
C1878 C 0.01961 0.95587 0.67391 0.0
C1879 C 0.99618 0.95512 0.6916 0.0
C1880 C 0.01588 0.9477 0.70315 0.0
C1881 C 0.05695 0.94082 0.69642 0.0
C1882 C 0.0796 0.94149 0.67878 0.0
H1883 H 0.96951 0.94709 0.61968 0.0
H1884 H 0.97173 0.94424 0.64357 0.0
H1885 H 0.9683 0.95653 0.63624 0.0
H1886 H 0.0062 0.9619 0.66554 0.0
H1887 H 0.96531 0.9606 0.69653 0.0
H1888 H 0.36556 0.57136 0.45997 0.0
H1889 H 0.39917 0.57117 0.42859 0.0
H1890 H 0.23695 0.55554 0.41325 0.0
H1891 H 0.20274 0.55554 0.44512 0.0
H1892 H 0.34828 0.5481 0.39841 0.0
H1893 H 0.32882 0.58728 0.38714 0.0
H1894 H 0.37261 0.58428 0.40698 0.0
H1895 H 0.29259 0.58128 0.40602 0.0
C1896 C 0.33647 0.56791 0.45 0.0
C1897 C 0.2811 0.5635 0.45511 0.0
C1898 C 0.35585 0.56785 0.432 0.0
C1899 C 0.32025 0.56347 0.41855 0.0
C1900 C 0.26494 0.55901 0.42346 0.0
H1901 H 0.37724 0.5717 0.30399 0.0
H1902 H 0.33988 0.57098 0.33496 0.0
C1903 C 0.24531 0.55906 0.44162 0.0
C1904 C 0.34212 0.56349 0.39949 0.0
H1905 H 0.38736 0.57854 0.36547 0.0
C1906 C 0.35636 0.55474 0.39111 0.0
C1907 C 0.35243 0.57217 0.38999 0.0
C1908 C 0.33528 0.58178 0.39791 0.0
C1909 C 0.3817 0.55444 0.37356 0.0
C1910 C 0.39404 0.56314 0.36433 0.0
C1911 C 0.37881 0.57187 0.37265 0.0
C1912 C 0.41855 0.5634 0.34553 0.0
C1913 C 0.39401 0.54482 0.36493 0.0
C1914 C 0.47598 0.55948 0.34112 0.0
C1915 C 0.49778 0.55985 0.3232 0.0
C1916 C 0.46256 0.56419 0.30947 0.0
C1917 C 0.40576 0.56827 0.31413 0.0
C1918 C 0.38412 0.56787 0.33189 0.0
H1919 H 0.36906 0.53894 0.37194 0.0
H1920 H 0.38057 0.54485 0.35039 0.0
H1921 H 0.44369 0.54324 0.36575 0.0
H1922 H 0.50395 0.55617 0.35153 0.0
H1923 H 0.54169 0.55666 0.32007 0.0
H1924 H 0.85315 0.68875 0.30513 0.0
H1925 H 0.88598 0.68908 0.33662 0.0
H1926 H 0.73152 0.70686 0.35037 0.0
H1927 H 0.69827 0.70671 0.31839 0.0
H1928 H 0.84581 0.71341 0.36467 0.0
H1929 H 0.80921 0.67486 0.37942 0.0
H1930 H 0.8542 0.67689 0.35941 0.0
H1931 H 0.77568 0.68075 0.35996 0.0
C1932 C 0.82555 0.69269 0.31479 0.0
C1933 C 0.7728 0.69769 0.30919 0.0
C1934 C 0.84443 0.69283 0.33286 0.0
C1935 C 0.81091 0.6979 0.34588 0.0
C1936 C 0.7579 0.70287 0.3405 0.0
H1937 H 0.8651 0.69163 0.46103 0.0
H1938 H 0.82754 0.69227 0.43006 0.0
C1939 C 0.73874 0.70272 0.32228 0.0
C1940 C 0.83284 0.69811 0.36497 0.0
H1941 H 0.87154 0.68349 0.40037 0.0
C1942 C 0.85096 0.7069 0.37257 0.0
C1943 C 0.83939 0.6896 0.37525 0.0
C1944 C 0.81806 0.68 0.36818 0.0
C1945 C 0.87645 0.70737 0.39011 0.0
C1946 C 0.88494 0.6988 0.40014 0.0
C1947 C 0.86589 0.69005 0.39259 0.0
C1948 C 0.90931 0.69874 0.41899 0.0
C1949 C 0.89305 0.71703 0.39787 0.0
C1950 C 0.96838 0.70212 0.42317 0.0
C1951 C 0.99034 0.70181 0.44111 0.0
C1952 C 0.95366 0.69804 0.45508 0.0
C1953 C 0.89491 0.69458 0.45069 0.0
C1954 C 0.87312 0.69494 0.43293 0.0
H1955 H 0.87074 0.72298 0.3903 0.0
H1956 H 0.87972 0.71752 0.41239 0.0
H1957 H 0.94332 0.71805 0.39698 0.0
H1958 H 0.99764 0.70492 0.41255 0.0
H1959 H 0.03575 0.70451 0.44401 0.0
H1960 H 0.53272 0.71071 0.94535 0.0
H1961 H 0.4898 0.71212 0.91455 0.0
H1962 H 0.3771 0.68725 0.92436 0.0
H1963 H 0.41824 0.68598 0.95504 0.0
H1964 H 0.48536 0.70056 0.88516 0.0
H1965 H 0.24973 0.70662 0.90959 0.0
H1966 H 0.31515 0.70697 0.92455 0.0
H1967 H 0.28053 0.69568 0.91854 0.0
C1968 C 0.49943 0.70548 0.94079 0.0
C1969 C 0.4784 0.6983 0.95265 0.0
C1970 C 0.47461 0.70633 0.92327 0.0
C1971 C 0.42864 0.69998 0.91736 0.0
C1972 C 0.41074 0.69245 0.92882 0.0
H1973 H 0.32045 0.68477 0.80986 0.0
H1974 H 0.36022 0.68618 0.84068 0.0
C1975 C 0.43485 0.69167 0.9463 0.0
C1976 C 0.3992 0.7011 0.89926 0.0
H1977 H 0.25951 0.70181 0.87831 0.0
C1978 C 0.43604 0.70095 0.88368 0.0
C1979 C 0.33484 0.70187 0.89726 0.0
C1980 C 0.29286 0.7029 0.9134 0.0
C1981 C 0.41016 0.70102 0.8662 0.0
C1982 C 0.34561 0.70096 0.86425 0.0
C1983 C 0.30889 0.70166 0.87979 0.0
C1984 C 0.31574 0.69973 0.84624 0.0
C1985 C 0.45242 0.70113 0.85001 0.0
C1986 C 0.27383 0.70653 0.83952 0.0
C1987 C 0.24972 0.70562 0.82192 0.0
C1988 C 0.26748 0.69791 0.81082 0.0
C1989 C 0.30645 0.69085 0.81803 0.0
C1990 C 0.32979 0.6917 0.83558 0.0
H1991 H 0.49738 0.70437 0.85348 0.0
H1992 H 0.4609 0.69365 0.84551 0.0
H1993 H 0.4322 0.70519 0.83849 0.0
H1994 H 0.26164 0.71272 0.84762 0.0
H1995 H 0.22005 0.71119 0.81667 0.0
H1996 H 0.03993 0.55646 0.81996 0.0
H1997 H 0.00339 0.55625 0.85156 0.0
H1998 H 0.83702 0.57038 0.83489 0.0
H1999 H 0.87314 0.57083 0.80379 0.0
H2000 H 0.8848 0.57846 0.86486 0.0
H2001 H 0.87112 0.53891 0.87318 0.0
H2002 H 0.94501 0.54335 0.86656 0.0
H2003 H 0.88119 0.54457 0.85132 0.0
C2004 C 0.99577 0.55956 0.82309 0.0
C2005 C 0.95955 0.56363 0.8093 0.0
C2006 C 0.97466 0.55935 0.8411 0.0
C2007 C 0.91695 0.56316 0.84553 0.0
C2008 C 0.8815 0.56736 0.83181 0.0
H2009 H 0.70436 0.55576 0.94576 0.0
H2010 H 0.73786 0.55559 0.91383 0.0
C2011 C 0.90244 0.5676 0.81397 0.0
C2012 C 0.89312 0.56307 0.86441 0.0
H2013 H 0.84958 0.54834 0.89922 0.0
C2014 C 0.87711 0.57187 0.87236 0.0
C2015 C 0.88191 0.55446 0.87404 0.0
C2016 C 0.89511 0.54477 0.86583 0.0
C2017 C 0.85097 0.57231 0.88972 0.0
C2018 C 0.84172 0.56373 0.89961 0.0
C2019 C 0.85682 0.55491 0.89161 0.0
C2020 C 0.82002 0.56388 0.91869 0.0
C2021 C 0.83284 0.58197 0.89722 0.0
C2022 C 0.85513 0.56855 0.93191 0.0
C2023 C 0.83612 0.5687 0.94995 0.0
C2024 C 0.78165 0.56411 0.95532 0.0
C2025 C 0.74622 0.55943 0.94205 0.0
C2026 C 0.76547 0.55928 0.92386 0.0
H2027 H 0.82552 0.58731 0.88621 0.0
H2028 H 0.79038 0.58146 0.90543 0.0
H2029 H 0.87006 0.58469 0.90609 0.0
H2030 H 0.89788 0.57199 0.92831 0.0
H2031 H 0.86488 0.57235 0.95974 0.0
H2032 H 0.79003 0.45485 0.56851 0.0
H2033 H 0.75682 0.4549 0.60048 0.0
H2034 H 0.59712 0.43844 0.58595 0.0
H2035 H 0.62982 0.43819 0.5545 0.0
H2036 H 0.64508 0.46202 0.61525 0.0
H2037 H 0.67012 0.42305 0.62782 0.0
H2038 H 0.70503 0.42897 0.60865 0.0
H2039 H 0.62548 0.42565 0.60796 0.0
C2040 C 0.7483 0.45115 0.57222 0.0
C2041 C 0.71286 0.44648 0.55894 0.0
C2042 C 0.72923 0.45123 0.59043 0.0
C2043 C 0.67487 0.44657 0.59559 0.0
C2044 C 0.63975 0.44192 0.58235 0.0
H2045 H 0.45189 0.45366 0.69357 0.0
H2046 H 0.49006 0.45394 0.66216 0.0
C2047 C 0.65858 0.44183 0.5643 0.0
C2048 C 0.65325 0.44664 0.61467 0.0
H2049 H 0.60958 0.43175 0.64911 0.0
C2050 C 0.63783 0.45542 0.62276 0.0
C2051 C 0.64404 0.43802 0.62444 0.0
C2052 C 0.66259 0.4284 0.61685 0.0
C2053 C 0.61228 0.4558 0.64027 0.0
C2054 C 0.60088 0.44714 0.64975 0.0
C2055 C 0.61739 0.43838 0.64173 0.0
C2056 C 0.57602 0.44696 0.6685 0.0
C2057 C 0.5987 0.46545 0.64858 0.0
C2058 C 0.6106 0.44268 0.68232 0.0
C2059 C 0.5887 0.44238 0.70005 0.0
C2060 C 0.5315 0.44638 0.70451 0.0
C2061 C 0.4961 0.45053 0.6906 0.0
C2062 C 0.51815 0.45078 0.6727 0.0
H2063 H 0.62325 0.47133 0.64146 0.0
H2064 H 0.54889 0.4669 0.64759 0.0
H2065 H 0.61171 0.46558 0.66316 0.0
H2066 H 0.65517 0.43964 0.67941 0.0
H2067 H 0.61737 0.4391 0.71034 0.0
H2068 H 0.95047 0.30521 0.57058 0.0
H2069 H 0.98646 0.30527 0.6023 0.0
H2070 H 0.15147 0.31978 0.58577 0.0
H2071 H 0.11614 0.31991 0.55454 0.0
H2072 H 0.0962 0.29739 0.61725 0.0
H2073 H 0.08694 0.33679 0.62658 0.0
H2074 H 0.04869 0.33078 0.60806 0.0
H2075 H 0.12938 0.33327 0.60684 0.0
C2076 C 0.9941 0.30848 0.57378 0.0
C2077 C 0.03007 0.31262 0.56 0.0
C2078 C 0.01472 0.30847 0.59186 0.0
C2079 C 0.07128 0.31265 0.5964 0.0
C2080 C 0.1072 0.31669 0.58265 0.0
H2081 H 0.29086 0.3055 0.69554 0.0
H2082 H 0.25426 0.30508 0.66393 0.0
C2083 C 0.08681 0.31672 0.56473 0.0
C2084 C 0.09393 0.31279 0.6154 0.0
H2085 H 0.14359 0.32798 0.64863 0.0
C2086 C 0.10615 0.30406 0.62421 0.0
C2087 C 0.10667 0.32152 0.62445 0.0
C2088 C 0.09171 0.33112 0.61608 0.0
C2089 C 0.13169 0.30384 0.64175 0.0
C2090 C 0.14636 0.31257 0.65054 0.0
C2091 C 0.13328 0.32128 0.64179 0.0
C2092 C 0.17073 0.31292 0.66937 0.0
C2093 C 0.14161 0.29426 0.65087 0.0
C2094 C 0.1372 0.31775 0.68273 0.0
C2095 C 0.15824 0.31811 0.70057 0.0
C2096 C 0.21352 0.31365 0.70559 0.0
C2097 C 0.24813 0.309 0.69212 0.0
C2098 C 0.22692 0.30867 0.67412 0.0
H2099 H 0.11528 0.28845 0.64411 0.0
H2100 H 0.19087 0.29238 0.6502 0.0
H2101 H 0.1281 0.29456 0.66539 0.0
H2102 H 0.09397 0.32113 0.6794 0.0
H2103 H 0.13032 0.32179 0.71051 0.0
H2104 H 0.62331 0.32072 0.05398 0.0
H2105 H 0.66088 0.32004 0.08494 0.0
H2106 H 0.49571 0.30563 0.10173 0.0
H2107 H 0.45774 0.30606 0.07026 0.0
H2108 H 0.61444 0.32785 0.11521 0.0
H2109 H 0.62899 0.28826 0.12263 0.0
H2110 H 0.61774 0.29405 0.10093 0.0
H2111 H 0.5547 0.2927 0.11638 0.0
C2112 C 0.59458 0.31738 0.06416 0.0
C2113 C 0.53737 0.31341 0.05956 0.0
C2114 C 0.61636 0.317 0.08192 0.0
C2115 C 0.58167 0.31266 0.09563 0.0
C2116 C 0.52389 0.30883 0.09127 0.0
H2117 H 0.63979 0.32134 0.20986 0.0
H2118 H 0.60434 0.32095 0.17863 0.0
C2119 C 0.50195 0.30917 0.07334 0.0
C2120 C 0.60629 0.31246 0.11444 0.0
H2121 H 0.65148 0.29755 0.14882 0.0
C2122 C 0.62252 0.32122 0.12254 0.0
C2123 C 0.61798 0.3038 0.12387 0.0
C2124 C 0.60453 0.29415 0.11549 0.0
C2125 C 0.6494 0.32157 0.13983 0.0
C2126 C 0.65917 0.31293 0.14951 0.0
C2127 C 0.6438 0.30415 0.14137 0.0
C2128 C 0.68194 0.31298 0.1685 0.0
C2129 C 0.66777 0.33119 0.14748 0.0
C2130 C 0.73708 0.30844 0.17333 0.0
C2131 C 0.75775 0.30861 0.1914 0.0
C2132 C 0.72321 0.31325 0.20489 0.0
C2133 C 0.66796 0.31774 0.19988 0.0
C2134 C 0.64752 0.31756 0.18197 0.0
H2135 H 0.67431 0.3366 0.13656 0.0
H2136 H 0.63105 0.33383 0.15659 0.0
H2137 H 0.71074 0.33065 0.15547 0.0
H2138 H 0.76416 0.30482 0.16311 0.0
H2139 H 0.80019 0.30502 0.19482 0.0
H2140 H 0.13678 0.44414 0.21091 0.0
H2141 H 0.17167 0.44477 0.17971 0.0
H2142 H 0.9929 0.45418 0.16239 0.0
H2143 H 0.95728 0.45377 0.19409 0.0
H2144 H 0.13008 0.43451 0.15118 0.0
H2145 H 0.10659 0.47357 0.13771 0.0
H2146 H 0.10308 0.46857 0.16032 0.0
H2147 H 0.03813 0.46771 0.14543 0.0
C2148 C 0.10448 0.44637 0.20057 0.0
C2149 C 0.04396 0.44889 0.20506 0.0
C2150 C 0.12476 0.44674 0.18268 0.0
C2151 C 0.08524 0.44961 0.16872 0.0
C2152 C 0.02456 0.45211 0.17301 0.0
H2153 H 0.14058 0.43812 0.05533 0.0
H2154 H 0.10792 0.43879 0.08683 0.0
C2155 C 0.00411 0.4518 0.19109 0.0
C2156 C 0.108 0.44955 0.14973 0.0
H2157 H 0.13677 0.46379 0.11291 0.0
C2158 C 0.13152 0.44092 0.14283 0.0
C2159 C 0.11084 0.45795 0.13896 0.0
C2160 C 0.08886 0.46751 0.14598 0.0
C2161 C 0.15724 0.44043 0.12542 0.0
C2162 C 0.15852 0.44876 0.11445 0.0
C2163 C 0.1357 0.45742 0.12138 0.0
C2164 C 0.18001 0.4484 0.09539 0.0
C2165 C 0.18342 0.43102 0.11898 0.0
C2166 C 0.23133 0.45368 0.08966 0.0
C2167 C 0.25046 0.45331 0.07148 0.0
C2168 C 0.21796 0.44776 0.05878 0.0
C2169 C 0.16685 0.44247 0.06471 0.0
C2170 C 0.14807 0.44281 0.08276 0.0
H2171 H 0.19431 0.42616 0.13052 0.0
H2172 H 0.14931 0.42735 0.11022 0.0
H2173 H 0.22562 0.43216 0.11088 0.0
H2174 H 0.25646 0.45806 0.09924 0.0
H2175 H 0.28964 0.45753 0.06731 0.0
H2176 H 0.10239 0.17185 0.01381 0.0
H2177 H 0.14408 0.15568 0.01513 0.0
H2178 H 0.96205 0.14412 0.02051 0.0
H2179 H 0.91929 0.16043 0.01921 0.0
H2180 H 0.12684 0.14126 0.04377 0.0
H2181 H 0.04201 0.13008 0.97566 0.0
H2182 H 0.04803 0.14252 0.98221 0.0
H2183 H 0.98718 0.13525 0.99101 0.0
C2184 C 0.0709 0.1659 0.01527 0.0
C2185 C 0.00731 0.16744 0.01629 0.0
C2186 C 0.095 0.15665 0.01608 0.0
C2187 C 0.05618 0.14872 0.01777 0.0
C2188 C 0.99269 0.15018 0.01903 0.0
H2189 H 0.13233 0.08792 0.01323 0.0
H2190 H 0.08596 0.10375 0.01491 0.0
C2191 C 0.96838 0.15948 0.01835 0.0
C2192 C 0.08291 0.13896 0.01797 0.0
H2193 H 0.09834 0.11872 0.99237 0.0
C2194 C 0.12048 0.13629 0.03259 0.0
C2195 C 0.07468 0.13256 1.00332 0.0
C2196 C 0.03615 0.13521 0.98705 0.0
C2197 C 0.14962 0.12731 0.03306 0.0
C2198 C 0.14217 0.12095 0.01826 0.0
C2199 C 0.10424 0.12362 1.00368 0.0
C2200 C 0.17169 0.11135 0.01777 0.0
C2201 C 0.187 0.12467 0.04956 0.0
C2202 C 0.23565 0.11032 0.01874 0.0
C2203 C 0.2626 0.10121 0.01792 0.0
C2204 C 0.226 0.09298 0.01585 0.0
C2205 C 0.16206 0.09408 0.01476 0.0
C2206 C 0.13532 0.10314 0.01572 0.0
H2207 H 0.17447 0.12909 0.06153 0.0
H2208 H 0.18094 0.11698 0.05311 0.0
H2209 H 0.23615 0.12592 0.04663 0.0
H2210 H 0.26479 0.11658 0.0199 0.0
H2211 H 0.31194 0.10061 0.01869 0.0
H2212 H 0.3325 0.16077 0.24796 0.0
H2213 H 0.28912 0.14447 0.24718 0.0
H2214 H 0.10703 0.15631 0.24834 0.0
H2215 H 0.14934 0.17246 0.2492 0.0
H2216 H 0.20061 0.13675 0.2749 0.0
H2217 H 0.10867 0.13698 0.20449 0.0
H2218 H 0.1695 0.14488 0.21179 0.0
H2219 H 0.09173 0.14739 0.21798 0.0
C2220 C 0.28327 0.15988 0.2479 0.0
C2221 C 0.24446 0.16792 0.24867 0.0
C2222 C 0.2586 0.15059 0.24748 0.0
C2223 C 0.19488 0.14922 0.24751 0.0
C2224 C 0.15626 0.15722 0.24807 0.0
H2225 H 0.94071 0.10106 0.24706 0.0
H2226 H 0.98854 0.11701 0.2462 0.0
C2227 C 0.1807 0.16646 0.24867 0.0
C2228 C 0.16795 0.13947 0.24782 0.0
H2229 H 0.07712 0.12419 0.22355 0.0
C2230 C 0.17413 0.13394 0.26363 0.0
C2231 C 0.13261 0.13592 0.2332 0.0
C2232 C 0.12539 0.14155 0.21582 0.0
C2233 C 0.14484 0.12501 0.26535 0.0
C2234 C 0.10974 0.12141 0.25066 0.0
C2235 C 0.10384 0.12695 0.23482 0.0
C2236 C 0.0803 0.1118 0.2513 0.0
C2237 C 0.15031 0.11967 0.28312 0.0
C2238 C 0.116 0.10359 0.25418 0.0
C2239 C 0.08887 0.09454 0.25483 0.0
C2240 C 0.02536 0.09344 0.25235 0.0
C2241 C 0.98964 0.10166 0.24912 0.0
C2242 C 0.01693 0.11077 0.24859 0.0
H2243 H 0.16194 0.12458 0.2945 0.0
H2244 H 0.10716 0.11586 0.2865 0.0
H2245 H 0.1875 0.11429 0.28205 0.0
H2246 H 0.16513 0.10417 0.25579 0.0
H2247 H 0.11806 0.08838 0.25711 0.0
H2248 H 0.8835 0.83823 1.00444 0.0
H2249 H 0.83752 0.85407 1.0023 0.0
H2250 H 0.01689 0.86684 0.9987 0.0
H2251 H 0.06369 0.85085 1.00039 0.0
H2252 H 0.84806 0.8691 0.02479 0.0
H2253 H 0.93042 0.87932 0.9562 0.0
H2254 H 0.93598 0.86722 0.96479 0.0
H2255 H 0.99066 0.87615 0.97168 0.0
C2256 C 0.91345 0.84438 1.00312 0.0
C2257 C 0.97744 0.84326 1.00255 0.0
C2258 C 0.88692 0.85345 1.0019 0.0
C2259 C 0.92357 0.86165 1.0001 0.0
C2260 C 0.98758 0.8606 0.99966 0.0
H2261 H 0.85212 0.92222 1.00207 0.0
H2262 H 0.89474 0.90609 1.00159 0.0
C2263 C 0.01431 0.85147 1.00075 0.0
C2264 C 0.89419 0.87126 0.99927 0.0
H2265 H 0.88089 0.8915 0.97335 0.0
C2266 C 0.85495 0.87396 0.01348 0.0
C2267 C 0.90292 0.87759 0.98446 0.0
C2268 C 0.94179 0.87491 0.96832 0.0
C2269 C 0.82525 0.88289 0.01346 0.0
C2270 C 0.83466 0.88926 0.99879 0.0
C2271 C 0.87363 0.88656 0.98454 0.0
C2272 C 0.80743 0.89899 0.99855 0.0
C2273 C 0.78523 0.88558 0.02935 0.0
C2274 C 0.74397 0.90036 0.99679 0.0
C2275 C 0.71914 0.90964 0.99699 0.0
C2276 C 0.75749 0.91767 0.99905 0.0
C2277 C 0.82106 0.91621 1.00058 0.0
C2278 C 0.84569 0.90699 1.00025 0.0
H2279 H 0.79054 0.88052 0.04091 0.0
H2280 H 0.79616 0.89294 0.0341 0.0
H2281 H 0.73659 0.8855 0.02501 0.0
H2282 H 0.71375 0.89425 0.99528 0.0
H2283 H 0.67008 0.91051 0.99573 0.0
H2284 H 0.67037 0.8504 0.76682 0.0
H2285 H 0.71529 0.86658 0.76677 0.0
H2286 H 0.8949 0.85435 0.7598 0.0
H2287 H 0.85091 0.83835 0.75943 0.0
H2288 H 0.80203 0.87465 0.78955 0.0
H2289 H 0.88998 0.87377 0.71906 0.0
H2290 H 0.83572 0.86509 0.72749 0.0
H2291 H 0.91604 0.86379 0.73236 0.0
C2292 C 0.71935 0.85119 0.76517 0.0
C2293 C 0.75686 0.84308 0.76294 0.0
C2294 C 0.74496 0.86042 0.76516 0.0
C2295 C 0.80834 0.86168 0.76288 0.0
C2296 C 0.84576 0.85358 0.76105 0.0
H2297 H 0.0621 0.91007 0.76475 0.0
H2298 H 0.01586 0.89399 0.76578 0.0
C2299 C 0.82037 0.84441 0.76095 0.0
C2300 C 0.83619 0.87139 0.76284 0.0
H2301 H 0.92819 0.88629 0.73804 0.0
C2302 C 0.82919 0.87722 0.77824 0.0
C2303 C 0.87182 0.87474 0.74807 0.0
C2304 C 0.87839 0.86906 0.73074 0.0
C2305 C 0.85786 0.88623 0.7794 0.0
C2306 C 0.89415 0.88948 0.76475 0.0
C2307 C 0.90096 0.8837 0.74934 0.0
C2308 C 0.92253 0.89913 0.76473 0.0
C2309 C 0.84992 0.89215 0.79636 0.0
C2310 C 0.88533 0.90728 0.76365 0.0
C2311 C 0.91141 0.91641 0.76292 0.0
C2312 C 0.9754 0.91759 0.76329 0.0
C2313 C 0.01273 0.9094 0.76449 0.0
C2314 C 0.98643 0.90023 0.76507 0.0
H2315 H 0.83185 0.88781 0.80784 0.0
H2316 H 0.89409 0.89542 0.80052 0.0
H2317 H 0.81712 0.89805 0.79359 0.0
H2318 H 0.83599 0.90658 0.76313 0.0
H2319 H 0.88117 0.92254 0.76203 0.0
H2320 H 0.93224 0.66026 0.52575 0.0
H2321 H 0.98053 0.64433 0.52671 0.0
H2322 H 0.14254 0.65597 0.50163 0.0
H2323 H 0.09509 0.67173 0.50046 0.0
H2324 H 0.10181 0.63892 0.48574 0.0
H2325 H 0.12165 0.63572 0.56079 0.0
H2326 H 0.04639 0.63839 0.55227 0.0
H2327 H 0.10676 0.647 0.54955 0.0
C2328 C 0.97806 0.6594 0.52041 0.0
C2329 C 0.00976 0.66729 0.51308 0.0
C2330 C 0.00577 0.65033 0.5211 0.0
C2331 C 0.06549 0.64901 0.51447 0.0
C2332 C 0.09661 0.65683 0.50691 0.0
H2333 H 0.31564 0.60016 0.52651 0.0
H2334 H 0.2703 0.61633 0.52685 0.0
C2335 C 0.06924 0.66585 0.50627 0.0
C2336 C 0.09573 0.63948 0.5149 0.0
H2337 H 0.15187 0.62222 0.54341 0.0
C2338 C 0.11273 0.63527 0.49835 0.0
C2339 C 0.11088 0.63481 0.53138 0.0
C2340 C 0.09604 0.63922 0.54955 0.0
C2341 C 0.14352 0.62644 0.49781 0.0
C2342 C 0.15722 0.62165 0.51425 0.0
C2343 C 0.14122 0.62592 0.53083 0.0
C2344 C 0.18512 0.61196 0.51434 0.0
C2345 C 0.16149 0.62232 0.47964 0.0
C2346 C 0.15203 0.60419 0.50736 0.0
C2347 C 0.17752 0.59503 0.50718 0.0
C2348 C 0.23685 0.59339 0.514 0.0
C2349 C 0.27003 0.60119 0.52108 0.0
C2350 C 0.24415 0.61041 0.52134 0.0
H2351 H 0.16131 0.62787 0.46879 0.0
H2352 H 0.20769 0.61903 0.48031 0.0
H2353 H 0.12834 0.61665 0.47578 0.0
H2354 H 0.10617 0.60522 0.5021 0.0
H2355 H 0.15042 0.58922 0.50164 0.0
H2356 H 0.31446 0.65982 0.74934 0.0
H2357 H 0.26694 0.64385 0.74771 0.0
H2358 H 0.08807 0.65678 0.75044 0.0
H2359 H 0.13453 0.67263 0.75211 0.0
H2360 H 0.17973 0.63591 0.77471 0.0
H2361 H 0.08151 0.63862 0.70521 0.0
H2362 H 0.14382 0.64612 0.71288 0.0
H2363 H 0.06693 0.64862 0.72 0.0
C2364 C 0.26504 0.65925 0.7495 0.0
C2365 C 0.22838 0.66751 0.75086 0.0
C2366 C 0.238 0.65014 0.74857 0.0
C2367 C 0.17401 0.64917 0.74872 0.0
C2368 C 0.13748 0.65738 0.75002 0.0
H2369 H 0.92008 0.60057 0.74582 0.0
H2370 H 0.96519 0.61675 0.7458 0.0
C2371 C 0.16429 0.66645 0.75109 0.0
C2372 C 0.14491 0.63957 0.74827 0.0
H2373 H 0.0514 0.62521 0.72287 0.0
C2374 C 0.15201 0.63353 0.76334 0.0
C2375 C 0.10798 0.63658 0.73353 0.0
C2376 C 0.09975 0.64277 0.7169 0.0
C2377 C 0.12263 0.62458 0.76417 0.0
C2378 C 0.08644 0.6215 0.7493 0.0
C2379 C 0.07902 0.62759 0.73426 0.0
C2380 C 0.05854 0.61179 0.74879 0.0
C2381 C 0.12965 0.61861 0.78115 0.0
C2382 C 0.09608 0.60368 0.75001 0.0
C2383 C 0.07062 0.59452 0.75013 0.0
C2384 C 0.00689 0.59321 0.74879 0.0
C2385 C 0.96925 0.60134 0.74695 0.0
C2386 C 0.99495 0.61057 0.74694 0.0
H2387 H 0.14203 0.6231 0.79306 0.0
H2388 H 0.08689 0.61464 0.78431 0.0
H2389 H 0.1669 0.61331 0.77911 0.0
H2390 H 0.14533 0.60443 0.75091 0.0
H2391 H 0.10122 0.58843 0.75129 0.0
H2392 H 0.84935 0.42182 0.49951 0.0
H2393 H 0.89437 0.40589 0.49848 0.0
H2394 H 0.71417 0.3933 0.49666 0.0
H2395 H 0.66829 0.40939 0.49722 0.0
H2396 H 0.88394 0.3916 0.52258 0.0
H2397 H 0.79839 0.37942 0.45545 0.0
H2398 H 0.79358 0.39176 0.46269 0.0
H2399 H 0.73911 0.38309 0.4708 0.0
C2400 C 0.819 0.41569 0.49878 0.0
C2401 C 0.75505 0.41689 0.49845 0.0
C2402 C 0.84498 0.40656 0.4982 0.0
C2403 C 0.80784 0.39838 0.4973 0.0
C2404 C 0.74386 0.39952 0.49695 0.0
H2405 H 0.88478 0.33784 0.50437 0.0
H2406 H 0.83971 0.3538 0.50306 0.0
C2407 C 0.71765 0.40871 0.49738 0.0
C2408 C 0.83682 0.38873 0.49744 0.0
H2409 H 0.84975 0.36782 0.47356 0.0
C2410 C 0.87667 0.38643 0.5118 0.0
C2411 C 0.82753 0.38199 0.48335 0.0
C2412 C 0.7878 0.3842 0.4671 0.0
C2413 C 0.90675 0.37754 0.51258 0.0
C2414 C 0.89708 0.37079 0.49857 0.0
C2415 C 0.85721 0.37305 0.48423 0.0
C2416 C 0.92569 0.36115 0.49904 0.0
C2417 C 0.94767 0.37533 0.52856 0.0
C2418 C 0.98921 0.35998 0.49706 0.0
C2419 C 0.01544 0.3508 0.49773 0.0
C2420 C 0.97846 0.34267 0.50048 0.0
C2421 C 0.91482 0.34393 0.50234 0.0
C2422 C 0.88878 0.35305 0.50154 0.0
H2423 H 0.94214 0.38062 0.53971 0.0
H2424 H 0.93785 0.36805 0.53396 0.0
H2425 H 0.99612 0.37546 0.52409 0.0
H2426 H 0.0184 0.36616 0.49494 0.0
H2427 H 0.06449 0.35008 0.4962 0.0
H2428 H 0.6917 0.35117 0.26724 0.0
H2429 H 0.73925 0.36715 0.26752 0.0
H2430 H 0.91715 0.3542 0.26132 0.0
H2431 H 0.87046 0.33837 0.26061 0.0
H2432 H 0.82517 0.37494 0.29054 0.0
H2433 H 0.91808 0.37359 0.2206 0.0
H2434 H 0.86234 0.36508 0.2288 0.0
H2435 H 0.94209 0.36362 0.23426 0.0
C2436 C 0.74089 0.35175 0.26585 0.0
C2437 C 0.77711 0.34349 0.2637 0.0
C2438 C 0.76801 0.36087 0.26603 0.0
C2439 C 0.83168 0.36188 0.26404 0.0
C2440 C 0.86785 0.35363 0.26234 0.0
H2441 H 0.08433 0.41073 0.26684 0.0
H2442 H 0.04006 0.39449 0.26786 0.0
C2443 C 0.84093 0.34456 0.26204 0.0
C2444 C 0.8609 0.37151 0.26409 0.0
H2445 H 0.95464 0.38623 0.23947 0.0
C2446 C 0.85317 0.37743 0.27933 0.0
C2447 C 0.89764 0.37475 0.24947 0.0
C2448 C 0.90511 0.36897 0.23228 0.0
C2449 C 0.88183 0.38643 0.28043 0.0
C2450 C 0.9189 0.38961 0.2659 0.0
C2451 C 0.9268 0.3837 0.25069 0.0
C2452 C 0.94627 0.39933 0.26569 0.0
C2453 C 0.87271 0.39248 0.29719 0.0
C2454 C 0.90822 0.40735 0.26393 0.0
C2455 C 0.93317 0.41655 0.26319 0.0
C2456 C 0.9969 0.41795 0.26424 0.0
C2457 C 0.03513 0.40989 0.26605 0.0
C2458 C 0.00996 0.40063 0.26662 0.0
H2459 H 0.8541 0.38823 0.30868 0.0
H2460 H 0.91652 0.39583 0.30148 0.0
H2461 H 0.83988 0.39833 0.29408 0.0
H2462 H 0.85905 0.40648 0.26295 0.0
H2463 H 0.90222 0.42257 0.26183 0.0
H2464 H 0.83042 0.10109 0.51775 0.0
H2465 H 0.78551 0.11727 0.51879 0.0
H2466 H 0.6046 0.10502 0.51645 0.0
H2467 H 0.6484 0.08898 0.51535 0.0
H2468 H 0.69848 0.12523 0.4913 0.0
H2469 H 0.60171 0.12372 0.56099 0.0
H2470 H 0.66308 0.11596 0.55361 0.0
H2471 H 0.5857 0.11352 0.54682 0.0
C2472 C 0.78112 0.10186 0.51757 0.0
C2473 C 0.74309 0.09374 0.51645 0.0
C2474 C 0.75556 0.11109 0.51815 0.0
C2475 C 0.69173 0.11231 0.51791 0.0
C2476 C 0.65389 0.10423 0.51691 0.0
H2477 H 0.43472 0.16016 0.51876 0.0
H2478 H 0.48304 0.14424 0.51932 0.0
C2479 C 0.6792 0.09506 0.51617 0.0
C2480 C 0.66392 0.12201 0.51795 0.0
H2481 H 0.57028 0.13673 0.54242 0.0
C2482 C 0.67094 0.12781 0.50253 0.0
C2483 C 0.62724 0.12525 0.53251 0.0
C2484 C 0.61915 0.11934 0.54951 0.0
C2485 C 0.64126 0.13671 0.50113 0.0
C2486 C 0.60484 0.14001 0.51576 0.0
C2487 C 0.59801 0.1342 0.53121 0.0
C2488 C 0.57513 0.1496 0.5155 0.0
C2489 C 0.64783 0.14237 0.48375 0.0
C2490 C 0.61085 0.15788 0.51351 0.0
C2491 C 0.58349 0.16692 0.51305 0.0
C2492 C 0.51967 0.16792 0.51484 0.0
C2493 C 0.4839 0.15963 0.51727 0.0
C2494 C 0.51146 0.15055 0.5176 0.0
H2495 H 0.66073 0.13769 0.47217 0.0
H2496 H 0.60471 0.14617 0.48027 0.0
H2497 H 0.68453 0.1478 0.48547 0.0
H2498 H 0.66015 0.15737 0.51238 0.0
H2499 H 0.61271 0.17313 0.5114 0.0
H2500 H 0.44305 0.09837 0.7266 0.0
H2501 H 0.49295 0.11411 0.72379 0.0
H2502 H 0.60318 0.10782 0.77098 0.0
H2503 H 0.55585 0.09204 0.77326 0.0
H2504 H 0.50201 0.12942 0.74402 0.0
H2505 H 0.73484 0.11478 0.73626 0.0
H2506 H 0.66778 0.10725 0.73563 0.0
H2507 H 0.70163 0.11062 0.75705 0.0
C2508 C 0.47768 0.10041 0.7364 0.0
C2509 C 0.49613 0.09396 0.75001 0.0
C2510 C 0.50637 0.10937 0.73475 0.0
C2511 C 0.55344 0.11204 0.7468 0.0
C2512 C 0.56897 0.1058 0.76104 0.0
H2513 H 0.67328 0.16906 0.77238 0.0
H2514 H 0.62491 0.15335 0.77012 0.0
C2515 C 0.54134 0.09681 0.76247 0.0
C2516 C 0.58601 0.12136 0.74479 0.0
H2517 H 0.72866 0.1314 0.74504 0.0
C2518 C 0.55157 0.12984 0.74401 0.0
C2519 C 0.65076 0.12195 0.74424 0.0
C2520 C 0.69078 0.11315 0.74311 0.0
C2521 C 0.57998 0.13888 0.74361 0.0
C2522 C 0.64466 0.13948 0.74474 0.0
C2523 C 0.67913 0.13099 0.74459 0.0
C2524 C 0.67717 0.14881 0.74668 0.0
C2525 C 0.54012 0.14767 0.74181 0.0
C2526 C 0.72578 0.15129 0.73506 0.0
C2527 C 0.75502 0.1602 0.73672 0.0
C2528 C 0.73562 0.1668 0.74991 0.0
C2529 C 0.68861 0.16416 0.76191 0.0
C2530 C 0.66038 0.15522 0.76049 0.0
H2531 H 0.49677 0.14598 0.73458 0.0
H2532 H 0.52787 0.15031 0.75554 0.0
H2533 H 0.56386 0.1535 0.73434 0.0
H2534 H 0.74017 0.14642 0.72444 0.0
H2535 H 0.79103 0.16207 0.72726 0.0
H2536 H 0.18136 0.91023 0.49999 0.0
H2537 H 0.22719 0.89413 0.49974 0.0
H2538 H 0.40683 0.90665 0.50474 0.0
H2539 H 0.36189 0.9226 0.50541 0.0
H2540 H 0.31092 0.88603 0.47635 0.0
H2541 H 0.40834 0.88743 0.5458 0.0
H2542 H 0.35283 0.89602 0.53776 0.0
H2543 H 0.43236 0.89731 0.53192 0.0
C2544 C 0.23057 0.90953 0.50112 0.0
C2545 C 0.26781 0.9177 0.50292 0.0
C2546 C 0.2567 0.90034 0.50097 0.0
C2547 C 0.32039 0.89918 0.50263 0.0
C2548 C 0.35753 0.90734 0.50398 0.0
H2549 H 0.57165 0.85038 0.49893 0.0
H2550 H 0.52669 0.86655 0.49831 0.0
C2551 C 0.33161 0.91648 0.50425 0.0
C2552 C 0.34862 0.88948 0.50257 0.0
H2553 H 0.44321 0.8747 0.52683 0.0
C2554 C 0.33948 0.88353 0.48744 0.0
C2555 C 0.38608 0.88623 0.51704 0.0
C2556 C 0.39505 0.89204 0.53413 0.0
C2557 C 0.36761 0.87449 0.48626 0.0
C2558 C 0.40555 0.87131 0.50062 0.0
C2559 C 0.41468 0.87723 0.51575 0.0
C2560 C 0.43319 0.86161 0.50066 0.0
C2561 C 0.35719 0.86843 0.46958 0.0
C2562 C 0.39554 0.85353 0.5024 0.0
C2563 C 0.42091 0.84436 0.5029 0.0
C2564 C 0.48465 0.84303 0.50164 0.0
C2565 C 0.52245 0.85115 0.49988 0.0
C2566 C 0.49688 0.86038 0.49954 0.0
H2567 H 0.33796 0.87269 0.45816 0.0
H2568 H 0.4006 0.86505 0.46507 0.0
H2569 H 0.32438 0.86261 0.47287 0.0
H2570 H 0.34638 0.85434 0.50353 0.0
H2571 H 0.39028 0.83829 0.50424 0.0
H2572 H 0.58677 0.91055 0.26687 0.0
H2573 H 0.54243 0.89433 0.2666 0.0
H2574 H 0.3616 0.90648 0.26218 0.0
H2575 H 0.40499 0.92253 0.26206 0.0
H2576 H 0.45849 0.8857 0.28964 0.0
H2577 H 0.36294 0.88788 0.22005 0.0
H2578 H 0.41789 0.89643 0.22859 0.0
H2579 H 0.3381 0.89757 0.23423 0.0
C2580 C 0.53762 0.90975 0.26579 0.0
C2581 C 0.49958 0.91784 0.26427 0.0
C2582 C 0.51235 0.90049 0.26564 0.0
C2583 C 0.44877 0.8992 0.26394 0.0
C2584 C 0.41084 0.90728 0.26296 0.0
H2585 H 0.19483 0.85097 0.2656 0.0
H2586 H 0.24226 0.86695 0.26666 0.0
C2587 C 0.43588 0.91648 0.263 0.0
C2588 C 0.42131 0.88945 0.26349 0.0
H2589 H 0.32697 0.87498 0.23853 0.0
C2590 C 0.43019 0.88332 0.2784 0.0
C2591 C 0.38425 0.88636 0.24881 0.0
C2592 C 0.37568 0.89236 0.23194 0.0
C2593 C 0.40183 0.87428 0.27921 0.0
C2594 C 0.36397 0.87129 0.2647 0.0
C2595 C 0.35544 0.87736 0.24974 0.0
C2596 C 0.33503 0.86168 0.26442 0.0
C2597 C 0.41165 0.86805 0.29571 0.0
C2598 C 0.37148 0.85348 0.2626 0.0
C2599 C 0.34468 0.8444 0.26185 0.0
C2600 C 0.28072 0.84331 0.26294 0.0
C2601 C 0.24416 0.85156 0.26477 0.0
C2602 C 0.27115 0.86068 0.26537 0.0
H2603 H 0.43136 0.87215 0.30725 0.0
H2604 H 0.36788 0.86474 0.30012 0.0
H2605 H 0.44379 0.86217 0.29223 0.0
H2606 H 0.42077 0.85411 0.26159 0.0
H2607 H 0.37435 0.83822 0.26045 0.0
H2608 H 0.43489 0.66094 0.0162 0.0
H2609 H 0.4804 0.64483 0.01801 0.0
H2610 H 0.66056 0.65712 0.01302 0.0
H2611 H 0.61611 0.67311 0.01114 0.0
H2612 H 0.56414 0.63636 0.9904 0.0
H2613 H 0.66912 0.63937 0.05896 0.0
H2614 H 0.60679 0.64695 0.05158 0.0
H2615 H 0.68321 0.64923 0.04376 0.0
C2616 C 0.48417 0.6602 0.01558 0.0
C2617 C 0.52178 0.66831 0.01351 0.0
C2618 C 0.51006 0.65101 0.01661 0.0
C2619 C 0.57386 0.64982 0.01588 0.0
C2620 C 0.61132 0.6579 0.01388 0.0
H2621 H 0.82606 0.60116 0.01787 0.0
H2622 H 0.78063 0.61731 0.01797 0.0
C2623 C 0.58564 0.66703 0.0127 0.0
C2624 C 0.60179 0.64015 0.01643 0.0
H2625 H 0.69689 0.62582 0.04139 0.0
C2626 C 0.59277 0.63401 1.0016 0.0
C2627 C 0.63988 0.63719 0.03093 0.0
C2628 C 0.65017 0.64348 0.04731 0.0
C2629 C 0.62154 0.62502 1.00075 0.0
C2630 C 0.6591 0.62199 0.01537 0.0
C2631 C 0.66823 0.62815 0.03019 0.0
C2632 C 0.68715 0.61229 0.0158 0.0
C2633 C 0.61258 0.61896 0.98398 0.0
C2634 C 0.64969 0.60415 0.01501 0.0
C2635 C 0.67534 0.595 0.01484 0.0
C2636 C 0.7392 0.59374 0.0157 0.0
C2637 C 0.77679 0.60189 0.01711 0.0
C2638 C 0.7509 0.6111 0.01716 0.0
H2639 H 0.599 0.62338 0.97209 0.0
H2640 H 0.65492 0.61496 0.98051 0.0
H2641 H 0.5755 0.61368 0.9865 0.0
H2642 H 0.60036 0.60486 0.01449 0.0
H2643 H 0.64482 0.58889 0.01401 0.0
H2644 H 0.82304 0.66132 0.24658 0.0
H2645 H 0.77851 0.64511 0.24527 0.0
H2646 H 0.59725 0.65727 0.24635 0.0
H2647 H 0.6407 0.67333 0.24772 0.0
H2648 H 0.69083 0.63726 0.27239 0.0
H2649 H 0.59629 0.6383 0.20232 0.0
H2650 H 0.65705 0.64616 0.20978 0.0
H2651 H 0.57934 0.64855 0.21624 0.0
C2652 C 0.77375 0.66052 0.24639 0.0
C2653 C 0.7355 0.66862 0.24728 0.0
C2654 C 0.74841 0.65128 0.24566 0.0
C2655 C 0.6846 0.65002 0.2455 0.0
C2656 C 0.64655 0.65809 0.24619 0.0
H2657 H 0.43043 0.60168 0.24495 0.0
H2658 H 0.47732 0.61771 0.24405 0.0
C2659 C 0.67163 0.66727 0.24709 0.0
C2660 C 0.65704 0.64031 0.24555 0.0
H2661 H 0.56486 0.62533 0.22102 0.0
C2662 C 0.66377 0.6346 0.26111 0.0
C2663 C 0.62093 0.63695 0.23093 0.0
C2664 C 0.61315 0.64276 0.21379 0.0
C2665 C 0.63446 0.62567 0.26257 0.0
C2666 C 0.59872 0.62224 0.24787 0.0
C2667 C 0.59207 0.62797 0.23229 0.0
C2668 C 0.56983 0.61259 0.24818 0.0
C2669 C 0.64073 0.62011 0.28008 0.0
C2670 C 0.60628 0.60441 0.25042 0.0
C2671 C 0.57975 0.59532 0.25107 0.0
C2672 C 0.51604 0.59416 0.24924 0.0
C2673 C 0.47954 0.60234 0.2465 0.0
C2674 C 0.50628 0.61149 0.24597 0.0
H2675 H 0.65289 0.62487 0.29162 0.0
H2676 H 0.59774 0.61626 0.28346 0.0
H2677 H 0.67786 0.61474 0.27862 0.0
H2678 H 0.65551 0.60505 0.25163 0.0
H2679 H 0.60952 0.58919 0.25294 0.0
H2680 H 0.1783 0.41069 0.98786 0.0
H2681 H 0.22354 0.39452 0.98735 0.0
H2682 H 0.38803 0.40556 0.01202 0.0
H2683 H 0.34385 0.42157 0.01263 0.0
H2684 H 0.34235 0.3888 0.97052 0.0
H2685 H 0.33269 0.38272 0.04504 0.0
H2686 H 0.28599 0.39158 0.03368 0.0
H2687 H 0.36529 0.394 0.0382 0.0
C2688 C 0.22395 0.40965 0.99325 0.0
C2689 C 0.2573 0.41743 1.00033 0.0
C2690 C 0.24978 0.40043 0.99288 0.0
C2691 C 0.30891 0.39886 0.99979 0.0
C2692 C 0.34212 0.40661 1.00681 0.0
H2693 H 0.56091 0.35048 0.98804 0.0
H2694 H 0.51306 0.36644 0.98714 0.0
C2695 C 0.31668 0.41577 1.00709 0.0
C2696 C 0.33677 0.38918 0.99969 0.0
H2697 H 0.39136 0.37169 0.02784 0.0
C2698 C 0.3528 0.38501 0.98302 0.0
C2699 C 0.35023 0.38428 0.01603 0.0
C2700 C 0.33229 0.38831 0.03428 0.0
C2701 C 0.38287 0.3761 0.98229 0.0
C2702 C 0.39763 0.37132 0.99867 0.0
C2703 C 0.38068 0.37543 0.01531 0.0
C2704 C 0.42736 0.36176 0.9989 0.0
C2705 C 0.39783 0.3718 0.96404 0.0
C2706 C 0.39554 0.35391 1.0061 0.0
C2707 C 0.42261 0.34487 1.00669 0.0
C2708 C 0.48249 0.34344 1.00019 0.0
C2709 C 0.51476 0.35133 0.99313 0.0
C2710 C 0.48734 0.36043 0.99249 0.0
H2711 H 0.37288 0.37544 0.95283 0.0
H2712 H 0.44763 0.37254 0.96147 0.0
H2713 H 0.38638 0.36404 0.96381 0.0
H2714 H 0.34937 0.35478 0.01119 0.0
H2715 H 0.39631 0.33898 0.01228 0.0
H2716 H 0.56583 0.40969 0.76963 0.0
H2717 H 0.51938 0.39362 0.77068 0.0
H2718 H 0.3403 0.40621 0.76468 0.0
H2719 H 0.38578 0.42209 0.76323 0.0
H2720 H 0.43306 0.38574 0.79409 0.0
H2721 H 0.34139 0.38676 0.72393 0.0
H2722 H 0.39705 0.39529 0.73207 0.0
H2723 H 0.3172 0.3968 0.73731 0.0
C2724 C 0.51661 0.409 0.7685 0.0
C2725 C 0.47968 0.41717 0.76611 0.0
C2726 C 0.49013 0.39983 0.76911 0.0
C2727 C 0.42644 0.3987 0.76733 0.0
C2728 C 0.38961 0.40687 0.76554 0.0
H2729 H 0.17188 0.35025 0.76901 0.0
H2730 H 0.21748 0.36638 0.77052 0.0
C2731 C 0.41585 0.41597 0.76481 0.0
C2732 C 0.39778 0.38904 0.7675 0.0
H2733 H 0.30403 0.37426 0.74302 0.0
C2734 C 0.4052 0.3832 0.78288 0.0
C2735 C 0.36125 0.38574 0.75286 0.0
C2736 C 0.35418 0.39143 0.73554 0.0
C2737 C 0.37619 0.37423 0.78415 0.0
C2738 C 0.33915 0.37101 0.76962 0.0
C2739 C 0.33179 0.37682 0.75424 0.0
C2740 C 0.31105 0.36133 0.76957 0.0
C2741 C 0.38474 0.36828 0.80109 0.0
C2742 C 0.34856 0.35322 0.7684 0.0
C2743 C 0.32285 0.34409 0.76738 0.0
C2744 C 0.2589 0.34284 0.76754 0.0
C2745 C 0.22122 0.35098 0.76891 0.0
C2746 C 0.24717 0.36017 0.76976 0.0
H2747 H 0.40273 0.37263 0.81256 0.0
H2748 H 0.34087 0.36493 0.80527 0.0
H2749 H 0.41792 0.36245 0.79828 0.0
H2750 H 0.39788 0.35397 0.76797 0.0
H2751 H 0.35336 0.33799 0.76639 0.0
loop_
_geom_bond_atom_site_label_1
_geom_bond_atom_site_label_2
_geom_bond_distance
_geom_bond_site_symmetry_2
_ccdc_geom_bond_type
C0 O2 1.247 1_554 S
C0 O4 1.258 . S
C1 O8 1.252 . S
C1 O9 1.252 1_554 S
O2 C0 1.247 1_556 S
O2 Zn3 2.028 . S
Zn3 O2 2.028 . S
Zn3 O7 2.035 1_556 S
Zn3 O9 2.035 . S
Zn3 O10 2.028 . S
O4 C0 1.258 . S
O4 Zn5 2.035 . S
Zn5 O4 2.035 . S
Zn5 O6 2.028 . S
Zn5 O8 2.028 . S
Zn5 O11 2.035 1_554 S
O6 Zn5 2.028 . S
O6 C12 1.247 . S
O7 Zn3 2.035 1_554 S
O7 C12 1.258 . S
O8 C1 1.252 . S
O8 Zn5 2.028 . S
O9 C1 1.252 1_556 S
O9 Zn3 2.035 . S
O10 Zn3 2.028 . S
O10 C13 1.247 . S
O11 Zn5 2.035 1_556 S
O11 C13 1.258 . S
C12 O6 1.247 . S
C12 O7 1.258 . S
C13 O10 1.247 . S
C13 O11 1.258 . S
C14 O16 1.247 1_554 S
C14 O18 1.258 . S
C15 O22 1.252 1_455 S
C15 O23 1.252 1_554 S
O16 C14 1.247 1_556 S
O16 Zn17 2.028 1_655 S
Zn17 O16 2.028 1_455 S
Zn17 O21 2.035 1_556 S
Zn17 O23 2.035 . S
Zn17 O24 2.028 . S
O18 C14 1.258 . S
O18 Zn19 2.035 . S
Zn19 O18 2.035 . S
Zn19 O20 2.028 . S
Zn19 O22 2.028 . S
Zn19 O25 2.035 1_554 S
O20 Zn19 2.028 . S
O20 C26 1.247 1_655 S
O21 Zn17 2.035 1_554 S
O21 C26 1.258 . S
O22 C15 1.252 1_655 S
O22 Zn19 2.028 . S
O23 C15 1.252 1_556 S
O23 Zn17 2.035 . S
O24 Zn17 2.028 . S
O24 C27 1.247 1_455 S
O25 Zn19 2.035 1_556 S
O25 C27 1.258 . S
C26 O20 1.247 1_455 S
C26 O21 1.258 . S
C27 O24 1.247 1_655 S
C27 O25 1.258 . S
C28 O30 1.247 . S
C28 O32 1.258 . S
C29 O36 1.247 . S
C29 O37 1.258 . S
O30 C28 1.247 . S
O30 Zn31 2.028 . S
Zn31 O30 2.028 . S
Zn31 O35 2.035 . S
Zn31 O37 2.035 . S
Zn31 O38 2.028 . S
O32 C28 1.258 . S
O32 Zn33 2.035 . S
Zn33 O32 2.035 . S
Zn33 O34 2.028 . S
Zn33 O36 2.028 . S
Zn33 O39 2.035 . S
O34 Zn33 2.028 . S
O34 C40 1.247 . S
O35 Zn31 2.035 . S
O35 C40 1.258 . S
O36 C29 1.247 . S
O36 Zn33 2.028 . S
O37 C29 1.258 . S
O37 Zn31 2.035 . S
O38 Zn31 2.028 . S
O38 C41 1.247 . S
O39 Zn33 2.035 . S
O39 C41 1.258 . S
C40 O34 1.247 . S
C40 O35 1.258 . S
C41 O38 1.247 . S
C41 O39 1.258 . S
C42 O44 1.247 . S
C42 O46 1.258 1_455 S
C43 O50 1.247 . S
C43 O51 1.258 . S
O44 C42 1.247 . S
O44 Zn45 2.028 . S
Zn45 O44 2.028 . S
Zn45 O49 2.035 . S
Zn45 O51 2.035 1_455 S
Zn45 O52 2.028 . S
O46 C42 1.258 1_655 S
O46 Zn47 2.035 . S
Zn47 O46 2.035 . S
Zn47 O48 2.028 . S
Zn47 O50 2.028 . S
Zn47 O53 2.035 . S
O48 Zn47 2.028 . S
O48 C54 1.247 . S
O49 Zn45 2.035 . S
O49 C54 1.258 1_455 S
O50 C43 1.247 . S
O50 Zn47 2.028 . S
O51 C43 1.258 . S
O51 Zn45 2.035 1_655 S
O52 Zn45 2.028 . S
O52 C55 1.247 . S
O53 Zn47 2.035 . S
O53 C55 1.258 1_655 S
C54 O48 1.247 . S
C54 O49 1.258 1_655 S
C55 O52 1.247 . S
C55 O53 1.258 1_455 S
C56 O58 1.247 . S
C56 O60 1.258 . S
C57 O64 1.247 . S
C57 O65 1.258 . S
O58 C56 1.247 . S
O58 Zn59 2.028 . S
Zn59 O58 2.028 . S
Zn59 O63 2.035 . S
Zn59 O65 2.035 1_554 S
Zn59 O66 2.028 . S
O60 C56 1.258 . S
O60 Zn61 2.035 1_554 S
Zn61 O60 2.035 1_556 S
Zn61 O62 2.028 . S
Zn61 O64 2.028 . S
Zn61 O67 2.035 . S
O62 Zn61 2.028 . S
O62 C68 1.252 . S
O63 Zn59 2.035 . S
O63 C68 1.252 1_554 S
O64 C57 1.247 . S
O64 Zn61 2.028 . S
O65 C57 1.258 . S
O65 Zn59 2.035 1_556 S
O66 Zn59 2.028 . S
O66 C69 1.247 1_554 S
O67 Zn61 2.035 . S
O67 C69 1.258 . S
C68 O62 1.252 . S
C68 O63 1.252 1_556 S
C69 O66 1.247 1_556 S
C69 O67 1.258 . S
C70 O72 1.247 . S
C70 O74 1.258 1_655 S
C71 O78 1.247 . S
C71 O79 1.258 1_455 S
O72 C70 1.247 . S
O72 Zn73 2.028 1_556 S
Zn73 O72 2.028 1_554 S
Zn73 O77 2.035 1_655 S
Zn73 O79 2.035 . S
Zn73 O80 2.028 . S
O74 C70 1.258 1_455 S
O74 Zn75 2.035 . S
Zn75 O74 2.035 . S
Zn75 O76 2.028 . S
Zn75 O78 2.028 1_556 S
Zn75 O81 2.035 . S
O76 Zn75 2.028 . S
O76 C82 1.247 . S
O77 Zn73 2.035 1_455 S
O77 C82 1.258 1_554 S
O78 C71 1.247 . S
O78 Zn75 2.028 1_554 S
O79 C71 1.258 1_655 S
O79 Zn73 2.035 . S
O80 Zn73 2.028 . S
O80 C83 1.240 1_554 S
O81 Zn75 2.035 . S
O81 C83 1.263 1_455 S
C82 O76 1.247 . S
C82 O77 1.258 1_556 S
C83 O80 1.240 1_556 S
C83 O81 1.263 1_655 S
C84 O86 1.247 . S
C84 O88 1.258 . S
C85 O92 1.247 . S
C85 O93 1.258 . S
O86 C84 1.247 . S
O86 Zn87 2.028 . S
Zn87 O86 2.028 . S
Zn87 O91 2.035 . S
Zn87 O93 2.035 . S
Zn87 O94 2.028 . S
O88 C84 1.258 . S
O88 Zn89 2.035 . S
Zn89 O88 2.035 . S
Zn89 O90 2.028 . S
Zn89 O92 2.028 . S
Zn89 O95 2.035 . S
O90 Zn89 2.028 . S
O90 C96 1.247 . S
O91 Zn87 2.035 . S
O91 C96 1.258 . S
O92 C85 1.247 . S
O92 Zn89 2.028 . S
O93 C85 1.258 . S
O93 Zn87 2.035 . S
O94 Zn87 2.028 . S
O94 C97 1.247 . S
O95 Zn89 2.035 . S
O95 C97 1.258 . S
C96 O90 1.247 . S
C96 O91 1.258 . S
C97 O94 1.247 . S
C97 O95 1.258 . S
C98 O100 1.247 . S
C98 O102 1.258 . S
C99 O106 1.247 . S
C99 O107 1.258 1_655 S
O100 C98 1.247 . S
O100 Zn101 2.028 . S
Zn101 O100 2.028 . S
Zn101 O105 2.035 . S
Zn101 O107 2.035 . S
Zn101 O108 2.028 . S
O102 C98 1.258 . S
O102 Zn103 2.035 1_455 S
Zn103 O102 2.035 1_655 S
Zn103 O104 2.028 . S
Zn103 O106 2.028 . S
Zn103 O109 2.035 . S
O104 Zn103 2.028 . S
O104 C110 1.247 . S
O105 Zn101 2.035 . S
O105 C110 1.258 1_455 S
O106 C99 1.247 . S
O106 Zn103 2.028 . S
O107 C99 1.258 1_455 S
O107 Zn101 2.035 . S
O108 Zn101 2.028 . S
O108 C111 1.247 . S
O109 Zn103 2.035 . S
O109 C111 1.258 1_655 S
C110 O104 1.247 . S
C110 O105 1.258 1_655 S
C111 O108 1.247 . S
C111 O109 1.258 1_455 S
C112 O114 1.247 . S
C112 O116 1.258 . S
C113 O120 1.247 . S
C113 O121 1.258 . S
O114 C112 1.247 . S
O114 Zn115 2.028 . S
Zn115 O114 2.028 . S
Zn115 O119 2.035 . S
Zn115 O121 2.035 . S
Zn115 O122 2.028 . S
O116 C112 1.258 . S
O116 Zn117 2.035 . S
Zn117 O116 2.035 . S
Zn117 O118 2.028 . S
Zn117 O120 2.028 . S
Zn117 O123 2.035 . S
O118 Zn117 2.028 . S
O118 C124 1.247 . S
O119 Zn115 2.035 . S
O119 C124 1.258 . S
O120 C113 1.247 . S
O120 Zn117 2.028 . S
O121 C113 1.258 . S
O121 Zn115 2.035 . S
O122 Zn115 2.028 . S
O122 C125 1.247 . S
O123 Zn117 2.035 . S
O123 C125 1.258 . S
C124 O118 1.247 . S
C124 O119 1.258 . S
C125 O122 1.247 . S
C125 O123 1.258 . S
C126 O128 1.247 . S
C126 O130 1.258 1_455 S
C127 O134 1.247 . S
C127 O135 1.258 . S
O128 C126 1.247 . S
O128 Zn129 2.028 . S
Zn129 O128 2.028 . S
Zn129 O133 2.035 . S
Zn129 O135 2.035 1_455 S
Zn129 O136 2.028 . S
O130 C126 1.258 1_655 S
O130 Zn131 2.035 . S
Zn131 O130 2.035 . S
Zn131 O132 2.028 . S
Zn131 O134 2.028 . S
Zn131 O137 2.035 . S
O132 Zn131 2.028 . S
O132 C138 1.247 . S
O133 Zn129 2.035 . S
O133 C138 1.258 1_455 S
O134 C127 1.247 . S
O134 Zn131 2.028 . S
O135 C127 1.258 . S
O135 Zn129 2.035 1_655 S
O136 Zn129 2.028 . S
O136 C139 1.247 . S
O137 Zn131 2.035 . S
O137 C139 1.258 1_655 S
C138 O132 1.247 . S
C138 O133 1.258 1_655 S
C139 O136 1.247 . S
C139 O137 1.258 1_455 S
C140 O142 1.247 . S
C140 O144 1.258 . S
C141 O148 1.247 . S
C141 O149 1.258 . S
O142 C140 1.247 . S
O142 Zn143 2.028 . S
Zn143 O142 2.028 . S
Zn143 O147 2.035 . S
Zn143 O149 2.035 . S
Zn143 O150 2.028 . S
O144 C140 1.258 . S
O144 Zn145 2.035 . S
Zn145 O144 2.035 . S
Zn145 O146 2.028 . S
Zn145 O148 2.028 . S
Zn145 O151 2.035 . S
O146 Zn145 2.028 . S
O146 C152 1.247 . S
O147 Zn143 2.035 . S
O147 C152 1.258 . S
O148 C141 1.247 . S
O148 Zn145 2.028 . S
O149 C141 1.258 . S
O149 Zn143 2.035 . S
O150 Zn143 2.028 . S
O150 C153 1.247 . S
O151 Zn145 2.035 . S
O151 C153 1.258 . S
C152 O146 1.247 . S
C152 O147 1.258 . S
C153 O150 1.247 . S
C153 O151 1.258 . S
C154 O156 1.247 . S
C154 O158 1.258 1_455 S
C155 O162 1.247 . S
C155 O163 1.258 . S
O156 C154 1.247 . S
O156 Zn157 2.028 . S
Zn157 O156 2.028 . S
Zn157 O161 2.035 . S
Zn157 O163 2.035 1_455 S
Zn157 O164 2.028 . S
O158 C154 1.258 1_655 S
O158 Zn159 2.035 . S
Zn159 O158 2.035 . S
Zn159 O160 2.028 . S
Zn159 O162 2.028 . S
Zn159 O165 2.035 . S
O160 Zn159 2.028 . S
O160 C166 1.247 . S
O161 Zn157 2.035 . S
O161 C166 1.258 1_455 S
O162 C155 1.247 . S
O162 Zn159 2.028 . S
O163 C155 1.258 . S
O163 Zn157 2.035 1_655 S
O164 Zn157 2.028 . S
O164 C167 1.247 . S
O165 Zn159 2.035 . S
O165 C167 1.258 1_655 S
C166 O160 1.247 . S
C166 O161 1.258 1_655 S
C167 O164 1.247 . S
C167 O165 1.258 1_455 S
C168 O170 1.247 . S
C168 O172 1.258 . S
C169 O176 1.247 . S
C169 O177 1.258 . S
O170 C168 1.247 . S
O170 Zn171 2.028 . S
Zn171 O170 2.028 . S
Zn171 O175 2.035 . S
Zn171 O177 2.035 . S
Zn171 O178 2.028 . S
O172 C168 1.258 . S
O172 Zn173 2.035 . S
Zn173 O172 2.035 . S
Zn173 O174 2.028 . S
Zn173 O176 2.028 . S
Zn173 O179 2.035 . S
O174 Zn173 2.028 . S
O174 C180 1.247 . S
O175 Zn171 2.035 . S
O175 C180 1.258 . S
O176 C169 1.247 . S
O176 Zn173 2.028 . S
O177 C169 1.258 . S
O177 Zn171 2.035 . S
O178 Zn171 2.028 . S
O178 C181 1.247 . S
O179 Zn173 2.035 . S
O179 C181 1.258 . S
C180 O174 1.247 . S
C180 O175 1.258 . S
C181 O178 1.247 . S
C181 O179 1.258 . S
C182 O184 1.247 1_455 S
C182 O186 1.258 . S
C183 O190 1.247 1_655 S
C183 O191 1.258 . S
O184 C182 1.247 1_655 S
O184 Zn185 2.028 . S
Zn185 O184 2.028 . S
Zn185 O189 2.035 . S
Zn185 O191 2.035 . S
Zn185 O192 2.028 1_655 S
O186 C182 1.258 . S
O186 Zn187 2.035 . S
Zn187 O186 2.035 . S
Zn187 O188 2.028 . S
Zn187 O190 2.028 . S
Zn187 O193 2.035 . S
O188 Zn187 2.028 . S
O188 C194 1.247 1_455 S
O189 Zn185 2.035 . S
O189 C194 1.258 . S
O190 C183 1.247 1_455 S
O190 Zn187 2.028 . S
O191 C183 1.258 . S
O191 Zn185 2.035 . S
O192 Zn185 2.028 1_455 S
O192 C195 1.247 . S
O193 Zn187 2.035 . S
O193 C195 1.258 . S
C194 O188 1.247 1_655 S
C194 O189 1.258 . S
C195 O192 1.247 . S
C195 O193 1.258 . S
C196 O198 1.247 . S
C196 O200 1.258 . S
C197 O204 1.247 . S
C197 O205 1.258 . S
O198 C196 1.247 . S
O198 Zn199 2.028 . S
Zn199 O198 2.028 . S
Zn199 O203 2.035 . S
Zn199 O205 2.035 . S
Zn199 O206 2.028 . S
O200 C196 1.258 . S
O200 Zn201 2.035 . S
Zn201 O200 2.035 . S
Zn201 O202 2.028 . S
Zn201 O204 2.028 . S
Zn201 O207 2.035 . S
O202 Zn201 2.028 . S
O202 C208 1.247 . S
O203 Zn199 2.035 . S
O203 C208 1.258 . S
O204 C197 1.247 . S
O204 Zn201 2.028 . S
O205 C197 1.258 . S
O205 Zn199 2.035 . S
O206 Zn199 2.028 . S
O206 C209 1.247 . S
O207 Zn201 2.035 . S
O207 C209 1.258 . S
C208 O202 1.247 . S
C208 O203 1.258 . S
C209 O206 1.247 . S
C209 O207 1.258 . S
C210 O212 1.247 . S
C210 O214 1.258 1_655 S
C211 O218 1.247 . S
C211 O219 1.258 1_455 S
O212 C210 1.247 . S
O212 Zn213 2.028 . S
Zn213 O212 2.028 . S
Zn213 O217 2.035 1_655 S
Zn213 O219 2.035 . S
Zn213 O220 2.028 . S
O214 C210 1.258 1_455 S
O214 Zn215 2.035 . S
Zn215 O214 2.035 . S
Zn215 O216 2.028 . S
Zn215 O218 2.028 . S
Zn215 O221 2.035 . S
O216 Zn215 2.028 . S
O216 C222 1.247 . S
O217 Zn213 2.035 1_455 S
O217 C222 1.258 . S
O218 C211 1.247 . S
O218 Zn215 2.028 . S
O219 C211 1.258 1_655 S
O219 Zn213 2.035 . S
O220 Zn213 2.028 . S
O220 C223 1.247 . S
O221 Zn215 2.035 . S
O221 C223 1.258 1_455 S
C222 O216 1.247 . S
C222 O217 1.258 . S
C223 O220 1.247 . S
C223 O221 1.258 1_655 S
C224 O226 1.247 . S
C224 O228 1.258 . S
C225 O232 1.247 . S
C225 O233 1.258 . S
O226 C224 1.247 . S
O226 Zn227 2.028 . S
Zn227 O226 2.028 . S
Zn227 O231 2.035 . S
Zn227 O233 2.035 . S
Zn227 O234 2.028 . S
O228 C224 1.258 . S
O228 Zn229 2.035 . S
Zn229 O228 2.035 . S
Zn229 O230 2.028 . S
Zn229 O232 2.028 . S
Zn229 O235 2.035 . S
O230 Zn229 2.028 . S
O230 C236 1.247 . S
O231 Zn227 2.035 . S
O231 C236 1.258 . S
O232 C225 1.247 . S
O232 Zn229 2.028 . S
O233 C225 1.258 . S
O233 Zn227 2.035 . S
O234 Zn227 2.028 . S
O234 C237 1.247 . S
O235 Zn229 2.035 . S
O235 C237 1.258 . S
C236 O230 1.247 . S
C236 O231 1.258 . S
C237 O234 1.247 . S
C237 O235 1.258 . S
C238 O240 1.247 . S
C238 O242 1.258 . S
C239 O246 1.247 . S
C239 O247 1.258 . S
O240 C238 1.247 . S
O240 Zn241 2.028 . S
Zn241 O240 2.028 . S
Zn241 O245 2.035 . S
Zn241 O247 2.035 . S
Zn241 O248 2.028 . S
O242 C238 1.258 . S
O242 Zn243 2.035 . S
Zn243 O242 2.035 . S
Zn243 O244 2.028 . S
Zn243 O246 2.028 . S
Zn243 O249 2.035 . S
O244 Zn243 2.028 . S
O244 C250 1.247 . S
O245 Zn241 2.035 . S
O245 C250 1.258 . S
O246 C239 1.247 . S
O246 Zn243 2.028 . S
O247 C239 1.258 . S
O247 Zn241 2.035 . S
O248 Zn241 2.028 . S
O248 C251 1.247 . S
O249 Zn243 2.035 . S
O249 C251 1.258 . S
C250 O244 1.247 . S
C250 O245 1.258 . S
C251 O248 1.247 . S
C251 O249 1.258 . S
C252 O254 1.247 . S
C252 O256 1.258 . S
C253 O260 1.247 . S
C253 O261 1.258 . S
O254 C252 1.247 . S
O254 Zn255 2.028 . S
Zn255 O254 2.028 . S
Zn255 O259 2.035 . S
Zn255 O261 2.035 . S
Zn255 O262 2.028 . S
O256 C252 1.258 . S
O256 Zn257 2.035 . S
Zn257 O256 2.035 . S
Zn257 O258 2.028 . S
Zn257 O260 2.028 . S
Zn257 O263 2.035 . S
O258 Zn257 2.028 . S
O258 C264 1.247 . S
O259 Zn255 2.035 . S
O259 C264 1.258 . S
O260 C253 1.247 . S
O260 Zn257 2.028 . S
O261 C253 1.258 . S
O261 Zn255 2.035 . S
O262 Zn255 2.028 . S
O262 C265 1.247 . S
O263 Zn257 2.035 . S
O263 C265 1.258 . S
C264 O258 1.247 . S
C264 O259 1.258 . S
C265 O262 1.247 . S
C265 O263 1.258 . S
C266 O268 1.247 . S
C266 O270 1.258 . S
C267 O274 1.247 . S
C267 O275 1.258 . S
O268 C266 1.247 . S
O268 Zn269 2.028 . S
Zn269 O268 2.028 . S
Zn269 O273 2.035 . S
Zn269 O275 2.035 . S
Zn269 O276 2.028 . S
O270 C266 1.258 . S
O270 Zn271 2.035 . S
Zn271 O270 2.035 . S
Zn271 O272 2.028 . S
Zn271 O274 2.028 . S
Zn271 O277 2.035 . S
O272 Zn271 2.028 . S
O272 C278 1.247 . S
O273 Zn269 2.035 . S
O273 C278 1.258 . S
O274 C267 1.247 . S
O274 Zn271 2.028 . S
O275 C267 1.258 . S
O275 Zn269 2.035 . S
O276 Zn269 2.028 . S
O276 C279 1.247 . S
O277 Zn271 2.035 . S
O277 C279 1.258 . S
C278 O272 1.247 . S
C278 O273 1.258 . S
C279 O276 1.247 . S
C279 O277 1.258 . S
C280 O282 1.247 . S
C280 O284 1.258 . S
C281 O288 1.247 . S
C281 O289 1.258 . S
O282 C280 1.247 . S
O282 Zn283 2.028 . S
Zn283 O282 2.028 . S
Zn283 O287 2.035 . S
Zn283 O289 2.035 . S
Zn283 O290 2.028 . S
O284 C280 1.258 . S
O284 Zn285 2.035 . S
Zn285 O284 2.035 . S
Zn285 O286 2.028 . S
Zn285 O288 2.028 . S
Zn285 O291 2.035 . S
O286 Zn285 2.028 . S
O286 C292 1.247 . S
O287 Zn283 2.035 . S
O287 C292 1.258 . S
O288 C281 1.247 . S
O288 Zn285 2.028 . S
O289 C281 1.258 . S
O289 Zn283 2.035 . S
O290 Zn283 2.028 . S
O290 C293 1.247 . S
O291 Zn285 2.035 . S
O291 C293 1.258 . S
C292 O286 1.247 . S
C292 O287 1.258 . S
C293 O290 1.247 . S
C293 O291 1.258 . S
C294 O296 1.247 . S
C294 O298 1.258 . S
C295 O302 1.247 . S
C295 O303 1.258 . S
O296 C294 1.247 . S
O296 Zn297 2.028 . S
Zn297 O296 2.028 . S
Zn297 O301 2.035 . S
Zn297 O303 2.035 . S
Zn297 O304 2.028 . S
O298 C294 1.258 . S
O298 Zn299 2.035 . S
Zn299 O298 2.035 . S
Zn299 O300 2.028 . S
Zn299 O302 2.028 . S
Zn299 O305 2.035 . S
O300 Zn299 2.028 . S
O300 C306 1.247 . S
O301 Zn297 2.035 . S
O301 C306 1.258 . S
O302 C295 1.247 . S
O302 Zn299 2.028 . S
O303 C295 1.258 . S
O303 Zn297 2.035 . S
O304 Zn297 2.028 . S
O304 C307 1.247 . S
O305 Zn299 2.035 . S
O305 C307 1.258 . S
C306 O300 1.247 . S
C306 O301 1.258 . S
C307 O304 1.247 . S
C307 O305 1.258 . S
C308 O310 1.247 . S
C308 O312 1.258 . S
C309 O316 1.247 . S
C309 O317 1.258 . S
O310 C308 1.247 . S
O310 Zn311 2.028 . S
Zn311 O310 2.028 . S
Zn311 O315 2.035 . S
Zn311 O317 2.035 . S
Zn311 O318 2.028 . S
O312 C308 1.258 . S
O312 Zn313 2.035 . S
Zn313 O312 2.035 . S
Zn313 O314 2.028 . S
Zn313 O316 2.028 . S
Zn313 O319 2.035 . S
O314 Zn313 2.028 . S
O314 C320 1.247 . S
O315 Zn311 2.035 . S
O315 C320 1.258 . S
O316 C309 1.247 . S
O316 Zn313 2.028 . S
O317 C309 1.258 . S
O317 Zn311 2.035 . S
O318 Zn311 2.028 . S
O318 C321 1.247 . S
O319 Zn313 2.035 . S
O319 C321 1.258 . S
C320 O314 1.247 . S
C320 O315 1.258 . S
C321 O318 1.247 . S
C321 O319 1.258 . S
C322 O324 1.247 . S
C322 O326 1.258 . S
C323 O330 1.247 . S
C323 O331 1.258 . S
O324 C322 1.247 . S
O324 Zn325 2.028 . S
Zn325 O324 2.028 . S
Zn325 O329 2.035 . S
Zn325 O331 2.035 . S
Zn325 O332 2.028 . S
O326 C322 1.258 . S
O326 Zn327 2.035 . S
Zn327 O326 2.035 . S
Zn327 O328 2.028 . S
Zn327 O330 2.028 . S
Zn327 O333 2.035 . S
O328 Zn327 2.028 . S
O328 C334 1.247 . S
O329 Zn325 2.035 . S
O329 C334 1.258 . S
O330 C323 1.247 . S
O330 Zn327 2.028 . S
O331 C323 1.258 . S
O331 Zn325 2.035 . S
O332 Zn325 2.028 . S
O332 C335 1.247 . S
O333 Zn327 2.035 . S
O333 C335 1.258 . S
C334 O328 1.247 . S
C334 O329 1.258 . S
C335 O332 1.247 . S
C335 O333 1.258 . S
C336 O338 1.247 . S
C336 O340 1.258 . S
C337 O344 1.247 . S
C337 O345 1.258 . S
O338 C336 1.247 . S
O338 Zn339 2.028 1_556 S
Zn339 O338 2.028 1_554 S
Zn339 O343 2.035 . S
Zn339 O345 2.035 . S
Zn339 O346 2.028 . S
O340 C336 1.258 . S
O340 Zn341 2.035 . S
Zn341 O340 2.035 . S
Zn341 O342 2.028 . S
Zn341 O344 2.028 1_556 S
Zn341 O347 2.035 . S
O342 Zn341 2.028 . S
O342 C348 1.241 1_556 S
O343 Zn339 2.035 . S
O343 C348 1.263 . S
O344 C337 1.247 . S
O344 Zn341 2.028 1_554 S
O345 C337 1.258 . S
O345 Zn339 2.035 . S
O346 Zn339 2.028 . S
O346 C349 1.247 . S
O347 Zn341 2.035 . S
O347 C349 1.258 1_556 S
C348 O342 1.241 1_554 S
C348 O343 1.263 . S
C349 O346 1.247 . S
C349 O347 1.258 1_554 S
C350 O352 1.247 1_554 S
C350 O354 1.258 . S
C351 O358 1.251 . S
C351 O359 1.252 1_554 S
O352 C350 1.247 1_556 S
O352 Zn353 2.028 . S
Zn353 O352 2.028 . S
Zn353 O357 2.035 1_556 S
Zn353 O359 2.035 . S
Zn353 O360 2.028 . S
O354 C350 1.258 . S
O354 Zn355 2.035 . S
Zn355 O354 2.035 . S
Zn355 O356 2.028 . S
Zn355 O358 2.028 . S
Zn355 O361 2.035 1_554 S
O356 Zn355 2.028 . S
O356 C362 1.247 . S
O357 Zn353 2.035 1_554 S
O357 C362 1.258 . S
O358 C351 1.251 . S
O358 Zn355 2.028 . S
O359 C351 1.252 1_556 S
O359 Zn353 2.035 . S
O360 Zn353 2.028 . S
O360 C363 1.247 . S
O361 Zn355 2.035 1_556 S
O361 C363 1.258 . S
C362 O356 1.247 . S
C362 O357 1.258 . S
C363 O360 1.247 . S
C363 O361 1.258 . S
C364 O366 1.247 . S
C364 O368 1.258 . S
C365 O372 1.247 . S
C365 O373 1.258 . S
O366 C364 1.247 . S
O366 Zn367 2.028 . S
Zn367 O366 2.028 . S
Zn367 O371 2.035 . S
Zn367 O373 2.035 . S
Zn367 O374 2.028 . S
O368 C364 1.258 . S
O368 Zn369 2.035 . S
Zn369 O368 2.035 . S
Zn369 O370 2.028 . S
Zn369 O372 2.028 . S
Zn369 O375 2.035 . S
O370 Zn369 2.028 . S
O370 C376 1.247 . S
O371 Zn367 2.035 . S
O371 C376 1.258 . S
O372 C365 1.247 . S
O372 Zn369 2.028 . S
O373 C365 1.258 . S
O373 Zn367 2.035 . S
O374 Zn367 2.028 . S
O374 C377 1.247 . S
O375 Zn369 2.035 . S
O375 C377 1.258 . S
C376 O370 1.247 . S
C376 O371 1.258 . S
C377 O374 1.247 . S
C377 O375 1.258 . S
C378 O380 1.247 . S
C378 O382 1.258 . S
C379 O386 1.247 . S
C379 O387 1.258 . S
O380 C378 1.247 . S
O380 Zn381 2.028 . S
Zn381 O380 2.028 . S
Zn381 O385 2.035 . S
Zn381 O387 2.035 . S
Zn381 O388 2.028 . S
O382 C378 1.258 . S
O382 Zn383 2.035 . S
Zn383 O382 2.035 . S
Zn383 O384 2.028 . S
Zn383 O386 2.028 . S
Zn383 O389 2.035 . S
O384 Zn383 2.028 . S
O384 C390 1.247 . S
O385 Zn381 2.035 . S
O385 C390 1.258 . S
O386 C379 1.247 . S
O386 Zn383 2.028 . S
O387 C379 1.258 . S
O387 Zn381 2.035 . S
O388 Zn381 2.028 . S
O388 C391 1.247 . S
O389 Zn383 2.035 . S
O389 C391 1.258 . S
C390 O384 1.247 . S
C390 O385 1.258 . S
C391 O388 1.247 . S
C391 O389 1.258 . S
C392 O394 1.247 . S
C392 O396 1.258 . S
C393 O400 1.247 . S
C393 O401 1.258 . S
O394 C392 1.247 . S
O394 Zn395 2.028 . S
Zn395 O394 2.028 . S
Zn395 O399 2.035 . S
Zn395 O401 2.035 1_554 S
Zn395 O402 2.028 . S
O396 C392 1.258 . S
O396 Zn397 2.035 1_554 S
Zn397 O396 2.035 1_556 S
Zn397 O398 2.028 . S
Zn397 O400 2.028 . S
Zn397 O403 2.035 . S
O398 Zn397 2.028 . S
O398 C404 1.252 . S
O399 Zn395 2.035 . S
O399 C404 1.252 1_554 S
O400 C393 1.247 . S
O400 Zn397 2.028 . S
O401 C393 1.258 . S
O401 Zn395 2.035 1_556 S
O402 Zn395 2.028 . S
O402 C405 1.247 1_554 S
O403 Zn397 2.035 . S
O403 C405 1.258 . S
C404 O398 1.252 . S
C404 O399 1.252 1_556 S
C405 O402 1.247 1_556 S
C405 O403 1.258 . S
C406 O408 1.247 . S
C406 O410 1.258 . S
C407 O414 1.247 . S
C407 O415 1.258 . S
O408 C406 1.247 . S
O408 Zn409 2.028 . S
Zn409 O408 2.028 . S
Zn409 O413 2.035 . S
Zn409 O415 2.035 1_554 S
Zn409 O416 2.028 . S
O410 C406 1.258 . S
O410 Zn411 2.035 1_554 S
Zn411 O410 2.035 1_556 S
Zn411 O412 2.028 . S
Zn411 O414 2.028 . S
Zn411 O417 2.035 . S
O412 Zn411 2.028 . S
O412 C418 1.251 . S
O413 Zn409 2.035 . S
O413 C418 1.252 1_554 S
O414 C407 1.247 . S
O414 Zn411 2.028 . S
O415 C407 1.258 . S
O415 Zn409 2.035 1_556 S
O416 Zn409 2.028 . S
O416 C419 1.247 1_554 S
O417 Zn411 2.035 . S
O417 C419 1.258 . S
C418 O412 1.251 . S
C418 O413 1.252 1_556 S
C419 O416 1.247 1_556 S
C419 O417 1.258 . S
C420 O422 1.247 . S
C420 O424 1.258 . S
C421 O428 1.247 . S
C421 O429 1.258 . S
O422 C420 1.247 . S
O422 Zn423 2.028 . S
Zn423 O422 2.028 . S
Zn423 O427 2.035 . S
Zn423 O429 2.035 . S
Zn423 O430 2.028 . S
O424 C420 1.258 . S
O424 Zn425 2.035 . S
Zn425 O424 2.035 . S
Zn425 O426 2.028 . S
Zn425 O428 2.028 . S
Zn425 O431 2.035 . S
O426 Zn425 2.028 . S
O426 C432 1.247 . S
O427 Zn423 2.035 . S
O427 C432 1.258 . S
O428 C421 1.247 . S
O428 Zn425 2.028 . S
O429 C421 1.258 . S
O429 Zn423 2.035 . S
O430 Zn423 2.028 . S
O430 C433 1.247 . S
O431 Zn425 2.035 . S
O431 C433 1.258 . S
C432 O426 1.247 . S
C432 O427 1.258 . S
C433 O430 1.247 . S
C433 O431 1.258 . S
C434 O436 1.247 . S
C434 O438 1.258 . S
C435 O442 1.247 . S
C435 O443 1.258 . S
O436 C434 1.247 . S
O436 Zn437 2.028 . S
Zn437 O436 2.028 . S
Zn437 O441 2.035 . S
Zn437 O443 2.035 . S
Zn437 O444 2.028 . S
O438 C434 1.258 . S
O438 Zn439 2.035 . S
Zn439 O438 2.035 . S
Zn439 O440 2.028 . S
Zn439 O442 2.028 . S
Zn439 O445 2.035 . S
O440 Zn439 2.028 . S
O440 C446 1.247 . S
O441 Zn437 2.035 . S
O441 C446 1.258 . S
O442 C435 1.247 . S
O442 Zn439 2.028 . S
O443 C435 1.258 . S
O443 Zn437 2.035 . S
O444 Zn437 2.028 . S
O444 C447 1.247 . S
O445 Zn439 2.035 . S
O445 C447 1.258 . S
C446 O440 1.247 . S
C446 O441 1.258 . S
C447 O444 1.247 . S
C447 O445 1.258 . S
H448 C456 0.929 . S
H449 C458 0.930 . S
H450 C460 0.930 . S
H451 C463 0.929 . S
H452 C466 0.930 . S
H453 C468 0.952 1_655 S
H454 C468 0.960 . S
H455 C468 0.960 . S
C456 H448 0.929 . S
C456 C457 1.377 . S
C456 C458 1.384 . S
C457 C456 1.377 . S
C457 C463 1.390 . S
C458 H449 0.930 . S
C458 C456 1.384 . S
C458 C459 1.372 . S
C459 C458 1.372 . S
C459 C460 1.400 . S
C459 C464 1.490 . S
C460 H450 0.930 . S
C460 C459 1.400 . S
C460 C463 1.386 . S
H461 C477 0.930 . S
H462 C478 0.931 . S
C463 H451 0.929 . S
C463 C457 1.390 . S
C463 C460 1.386 . S
C464 C459 1.490 . S
C464 C466 1.395 . S
C464 C467 1.403 . S
H465 C471 0.930 . S
C466 H452 0.930 . S
C466 C464 1.395 . S
C466 C469 1.403 . S
C467 C464 1.403 . S
C467 C468 1.524 . S
C467 C471 1.400 . S
C468 H453 0.952 1_455 S
C468 H454 0.960 . S
C468 H455 0.960 . S
C468 C467 1.524 . S
C469 C466 1.403 . S
C469 C470 1.392 . S
C469 C473 1.495 . S
C470 C469 1.392 . S
C470 C471 1.385 . S
C470 C472 1.478 . S
C471 H465 0.930 . S
C471 C467 1.400 . S
C471 C470 1.385 . S
C472 C470 1.478 . S
C472 C474 1.381 . S
C472 C478 1.383 . S
C473 C469 1.495 . S
C473 H479 0.959 . S
C473 H480 0.961 . S
C473 H481 0.960 . S
C474 C472 1.381 . S
C474 C475 1.394 . S
C474 H482 0.930 . S
C475 C474 1.394 . S
C475 C476 1.383 . S
C475 H483 0.929 . S
C476 C475 1.383 . S
C476 C477 1.377 . S
C477 H461 0.930 . S
C477 C476 1.377 . S
C477 C478 1.379 . S
C478 H462 0.931 . S
C478 C472 1.383 . S
C478 C477 1.379 . S
H479 C473 0.959 . S
H480 C473 0.961 . S
H481 C473 0.960 . S
H482 C474 0.930 . S
H483 C475 0.929 . S
H484 C492 0.929 . S
H485 C494 0.930 . S
H486 C496 0.930 . S
H487 C499 0.929 . S
H488 C502 0.930 . S
H489 C504 0.960 1_655 S
H490 C504 0.960 . S
H491 C504 0.960 . S
C492 H484 0.929 . S
C492 C493 1.377 . S
C492 C494 1.384 . S
C493 C492 1.377 . S
C493 C499 1.390 . S
C494 H485 0.930 . S
C494 C492 1.384 . S
C494 C495 1.372 . S
C495 C494 1.372 . S
C495 C496 1.400 . S
C495 C500 1.490 . S
C496 H486 0.930 . S
C496 C495 1.400 . S
C496 C499 1.386 . S
H497 C513 0.930 . S
H498 C514 0.931 . S
C499 H487 0.929 . S
C499 C493 1.390 . S
C499 C496 1.386 . S
C500 C495 1.490 . S
C500 C502 1.395 . S
C500 C503 1.403 . S
H501 C507 0.930 . S
C502 H488 0.930 . S
C502 C500 1.395 . S
C502 C505 1.403 . S
C503 C500 1.403 . S
C503 C504 1.524 . S
C503 C507 1.400 . S
C504 H489 0.960 1_455 S
C504 H490 0.960 . S
C504 H491 0.960 . S
C504 C503 1.524 . S
C505 C502 1.403 . S
C505 C506 1.392 . S
C505 C509 1.495 . S
C506 C505 1.392 . S
C506 C507 1.385 . S
C506 C508 1.478 . S
C507 H501 0.930 . S
C507 C503 1.400 . S
C507 C506 1.385 . S
C508 C506 1.478 . S
C508 C510 1.381 . S
C508 C514 1.383 . S
C509 C505 1.495 . S
C509 H515 0.959 . S
C509 H516 0.961 . S
C509 H517 0.960 . S
C510 C508 1.381 . S
C510 C511 1.394 . S
C510 H518 0.930 . S
C511 C510 1.394 . S
C511 C512 1.383 . S
C511 H519 0.929 . S
C512 C511 1.383 . S
C512 C513 1.377 . S
C513 H497 0.930 . S
C513 C512 1.377 . S
C513 C514 1.379 . S
C514 H498 0.931 . S
C514 C508 1.383 . S
C514 C513 1.379 . S
H515 C509 0.959 . S
H516 C509 0.961 . S
H517 C509 0.960 . S
H518 C510 0.930 . S
H519 C511 0.929 . S
H520 C528 0.929 . S
H521 C530 0.930 1_455 S
H522 C532 0.930 . S
H523 C535 0.929 . S
H524 C538 0.930 . S
H525 C540 0.960 . S
H526 C540 0.960 . S
H527 C540 0.960 . S
C528 H520 0.929 . S
C528 C529 1.377 1_455 S
C528 C530 1.384 1_455 S
C529 C528 1.377 1_655 S
C529 C535 1.390 . S
C530 H521 0.930 1_655 S
C530 C528 1.384 1_655 S
C530 C531 1.372 . S
C531 C530 1.372 . S
C531 C532 1.400 . S
C531 C536 1.490 . S
C532 H522 0.930 . S
C532 C531 1.400 . S
C532 C535 1.386 . S
H533 C549 0.930 . S
H534 C550 0.931 . S
C535 H523 0.929 . S
C535 C529 1.390 . S
C535 C532 1.386 . S
C536 C531 1.490 . S
C536 C538 1.395 . S
C536 C539 1.403 . S
H537 C543 0.930 . S
C538 H524 0.930 . S
C538 C536 1.395 . S
C538 C541 1.403 . S
C539 C536 1.403 . S
C539 C540 1.524 . S
C539 C543 1.400 . S
C540 H525 0.960 . S
C540 H526 0.960 . S
C540 H527 0.960 . S
C540 C539 1.524 . S
C541 C538 1.403 . S
C541 C542 1.392 . S
C541 C545 1.495 . S
C542 C541 1.392 . S
C542 C543 1.385 . S
C542 C544 1.478 . S
C543 H537 0.930 . S
C543 C539 1.400 . S
C543 C542 1.385 . S
C544 C542 1.478 . S
C544 C546 1.381 . S
C544 C550 1.383 . S
C545 C541 1.495 . S
C545 H551 0.959 . S
C545 H552 0.961 . S
C545 H553 0.960 . S
C546 C544 1.381 . S
C546 C547 1.394 . S
C546 H554 0.930 . S
C547 C546 1.394 . S
C547 C548 1.383 . S
C547 H555 0.929 . S
C548 C547 1.383 . S
C548 C549 1.377 . S
C549 H533 0.930 . S
C549 C548 1.377 . S
C549 C550 1.379 . S
C550 H534 0.931 . S
C550 C544 1.383 . S
C550 C549 1.379 . S
H551 C545 0.959 . S
H552 C545 0.961 . S
H553 C545 0.960 . S
H554 C546 0.930 . S
H555 C547 0.929 . S
H556 C564 0.929 . S
H557 C566 0.930 . S
H558 C568 0.930 . S
H559 C571 0.929 . S
H560 C574 0.930 . S
H561 C576 0.960 . S
H562 C576 0.960 . S
H563 C576 0.960 . S
C564 H556 0.929 . S
C564 C565 1.377 . S
C564 C566 1.384 . S
C565 C564 1.377 . S
C565 C571 1.390 . S
C566 H557 0.930 . S
C566 C564 1.384 . S
C566 C567 1.372 . S
C567 C566 1.372 . S
C567 C568 1.400 . S
C567 C572 1.490 . S
C568 H558 0.930 . S
C568 C567 1.400 . S
C568 C571 1.386 . S
H569 C585 0.930 . S
H570 C586 0.931 . S
C571 H559 0.929 . S
C571 C565 1.390 . S
C571 C568 1.386 . S
C572 C567 1.490 . S
C572 C574 1.395 . S
C572 C575 1.403 . S
H573 C579 0.930 . S
C574 H560 0.930 . S
C574 C572 1.395 . S
C574 C577 1.403 . S
C575 C572 1.403 . S
C575 C576 1.524 . S
C575 C579 1.400 . S
C576 H561 0.960 . S
C576 H562 0.960 . S
C576 H563 0.960 . S
C576 C575 1.524 . S
C577 C574 1.403 . S
C577 C578 1.392 . S
C577 C581 1.495 . S
C578 C577 1.392 . S
C578 C579 1.385 . S
C578 C580 1.478 . S
C579 H573 0.930 . S
C579 C575 1.400 . S
C579 C578 1.385 . S
C580 C578 1.478 . S
C580 C582 1.381 . S
C580 C586 1.383 . S
C581 C577 1.495 . S
C581 H587 0.959 . S
C581 H588 0.961 . S
C581 H589 0.960 . S
C582 C580 1.381 . S
C582 C583 1.394 . S
C582 H590 0.930 . S
C583 C582 1.394 . S
C583 C584 1.383 . S
C583 H591 0.936 . S
C584 C583 1.383 . S
C584 C585 1.377 . S
C585 H569 0.930 . S
C585 C584 1.377 . S
C585 C586 1.379 . S
C586 H570 0.931 . S
C586 C580 1.383 . S
C586 C585 1.379 . S
H587 C581 0.959 . S
H588 C581 0.961 . S
H589 C581 0.960 . S
H590 C582 0.930 . S
H591 C583 0.936 . S
H592 C600 0.929 . S
H593 C602 0.930 . S
H594 C604 0.930 . S
H595 C607 0.929 . S
H596 C610 0.930 . S
H597 C612 0.960 . S
H598 C612 0.960 . S
H599 C612 0.960 . S
C600 H592 0.929 . S
C600 C601 1.377 . S
C600 C602 1.384 . S
C601 C600 1.377 . S
C601 C607 1.390 . S
C602 H593 0.930 . S
C602 C600 1.384 . S
C602 C603 1.372 . S
C603 C602 1.372 . S
C603 C604 1.400 . S
C603 C608 1.490 . S
C604 H594 0.930 . S
C604 C603 1.400 . S
C604 C607 1.386 . S
H605 C621 0.930 . S
H606 C622 0.931 . S
C607 H595 0.929 . S
C607 C601 1.390 . S
C607 C604 1.386 . S
C608 C603 1.490 . S
C608 C610 1.395 . S
C608 C611 1.403 . S
H609 C615 0.930 . S
C610 H596 0.930 . S
C610 C608 1.395 . S
C610 C613 1.403 . S
C611 C608 1.403 . S
C611 C612 1.524 . S
C611 C615 1.400 . S
C612 H597 0.960 . S
C612 H598 0.960 . S
C612 H599 0.960 . S
C612 C611 1.524 . S
C613 C610 1.403 . S
C613 C614 1.392 . S
C613 C617 1.495 . S
C614 C613 1.392 . S
C614 C615 1.385 . S
C614 C616 1.478 . S
C615 H609 0.930 . S
C615 C611 1.400 . S
C615 C614 1.385 . S
C616 C614 1.478 . S
C616 C618 1.381 . S
C616 C622 1.383 . S
C617 C613 1.495 . S
C617 H623 0.959 1_455 S
C617 H624 0.961 . S
C617 H625 0.960 1_455 S
C618 C616 1.381 . S
C618 C619 1.390 1_455 S
C618 H626 0.930 1_455 S
C619 C618 1.390 1_655 S
C619 C620 1.376 1_655 S
C619 H627 0.941 . S
C620 C619 1.376 1_455 S
C620 C621 1.377 . S
C621 H605 0.930 . S
C621 C620 1.377 . S
C621 C622 1.379 . S
C622 H606 0.931 . S
C622 C616 1.383 . S
C622 C621 1.379 . S
H623 C617 0.959 1_655 S
H624 C617 0.961 . S
H625 C617 0.960 1_655 S
H626 C618 0.930 1_655 S
H627 C619 0.941 . S
H628 C636 0.929 . S
H629 C638 0.930 . S
H630 C640 0.930 . S
H631 C643 0.929 1_655 S
H632 C646 0.930 . S
H633 C648 0.960 . S
H634 C648 0.960 . S
H635 C648 0.960 . S
C636 H628 0.929 . S
C636 C637 1.377 . S
C636 C638 1.384 . S
C637 C636 1.377 . S
C637 C643 1.390 . S
C638 H629 0.930 . S
C638 C636 1.384 . S
C638 C639 1.372 . S
C639 C638 1.372 . S
C639 C640 1.400 . S
C639 C644 1.490 . S
C640 H630 0.930 . S
C640 C639 1.400 . S
C640 C643 1.386 . S
H641 C657 0.930 . S
H642 C658 0.931 . S
C643 H631 0.929 1_455 S
C643 C637 1.390 . S
C643 C640 1.386 . S
C644 C639 1.490 . S
C644 C646 1.395 . S
C644 C647 1.403 . S
H645 C651 0.930 . S
C646 H632 0.930 . S
C646 C644 1.395 . S
C646 C649 1.403 . S
C647 C644 1.403 . S
C647 C648 1.524 . S
C647 C651 1.400 . S
C648 H633 0.960 . S
C648 H634 0.960 . S
C648 H635 0.960 . S
C648 C647 1.524 . S
C649 C646 1.403 . S
C649 C650 1.392 . S
C649 C653 1.495 . S
C650 C649 1.392 . S
C650 C651 1.385 . S
C650 C652 1.478 . S
C651 H645 0.930 . S
C651 C647 1.400 . S
C651 C650 1.385 . S
C652 C650 1.478 . S
C652 C654 1.381 . S
C652 C658 1.383 . S
C653 C649 1.495 . S
C653 H659 0.959 . S
C653 H660 0.961 . S
C653 H661 0.960 . S
C654 C652 1.381 . S
C654 C655 1.394 . S
C654 H662 0.930 . S
C655 C654 1.394 . S
C655 C656 1.383 . S
C655 H663 0.929 . S
C656 C655 1.383 . S
C656 C657 1.377 . S
C657 H641 0.930 . S
C657 C656 1.377 . S
C657 C658 1.379 . S
C658 H642 0.931 . S
C658 C652 1.383 . S
C658 C657 1.379 . S
H659 C653 0.959 . S
H660 C653 0.961 . S
H661 C653 0.960 . S
H662 C654 0.930 . S
H663 C655 0.929 . S
H664 C672 0.929 1_455 S
H665 C674 0.930 . S
H666 C676 0.930 . S
H667 C679 0.929 . S
H668 C682 0.930 . S
H669 C684 0.960 . S
H670 C684 0.960 . S
H671 C684 0.960 . S
C672 H664 0.929 1_655 S
C672 C673 1.377 . S
C672 C674 1.384 . S
C673 C672 1.377 . S
C673 C679 1.390 . S
C674 H665 0.930 . S
C674 C672 1.384 . S
C674 C675 1.372 . S
C675 C674 1.372 . S
C675 C676 1.400 . S
C675 C680 1.490 . S
C676 H666 0.930 . S
C676 C675 1.400 . S
C676 C679 1.386 . S
H677 C693 0.930 . S
H678 C694 0.931 . S
C679 H667 0.929 . S
C679 C673 1.390 . S
C679 C676 1.386 . S
C680 C675 1.490 . S
C680 C682 1.395 . S
C680 C683 1.403 . S
H681 C687 0.930 . S
C682 H668 0.930 . S
C682 C680 1.395 . S
C682 C685 1.403 . S
C683 C680 1.403 . S
C683 C684 1.524 . S
C683 C687 1.400 . S
C684 H669 0.960 . S
C684 H670 0.960 . S
C684 H671 0.960 . S
C684 C683 1.524 . S
C685 C682 1.403 . S
C685 C686 1.392 . S
C685 C689 1.495 . S
C686 C685 1.392 . S
C686 C687 1.385 . S
C686 C688 1.478 . S
C687 H681 0.930 . S
C687 C683 1.400 . S
C687 C686 1.385 . S
C688 C686 1.478 . S
C688 C690 1.381 . S
C688 C694 1.383 . S
C689 C685 1.495 . S
C689 H695 0.959 . S
C689 H696 0.961 . S
C689 H697 0.960 . S
C690 C688 1.381 . S
C690 C691 1.394 . S
C690 H698 0.930 . S
C691 C690 1.394 . S
C691 C692 1.383 . S
C691 H699 0.929 . S
C692 C691 1.383 . S
C692 C693 1.377 . S
C693 H677 0.930 . S
C693 C692 1.377 . S
C693 C694 1.379 . S
C694 H678 0.931 . S
C694 C688 1.383 . S
C694 C693 1.379 . S
H695 C689 0.959 . S
H696 C689 0.961 . S
H697 C689 0.960 . S
H698 C690 0.930 . S
H699 C691 0.929 . S
H700 C708 0.929 . S
H701 C710 0.930 . S
H702 C712 0.930 . S
H703 C715 0.929 . S
H704 C718 0.930 . S
H705 C720 0.960 . S
H706 C720 0.960 . S
H707 C720 0.960 . S
C708 H700 0.929 . S
C708 C709 1.377 . S
C708 C710 1.384 . S
C709 C708 1.377 . S
C709 C715 1.390 . S
C710 H701 0.930 . S
C710 C708 1.384 . S
C710 C711 1.372 . S
C711 C710 1.372 . S
C711 C712 1.400 . S
C711 C716 1.490 . S
C712 H702 0.930 . S
C712 C711 1.400 . S
C712 C715 1.386 . S
H713 C729 0.930 . S
H714 C730 0.931 . S
C715 H703 0.929 . S
C715 C709 1.390 . S
C715 C712 1.386 . S
C716 C711 1.490 . S
C716 C718 1.395 . S
C716 C719 1.403 . S
H717 C723 0.930 . S
C718 H704 0.930 . S
C718 C716 1.395 . S
C718 C721 1.403 . S
C719 C716 1.403 . S
C719 C720 1.524 . S
C719 C723 1.400 . S
C720 H705 0.960 . S
C720 H706 0.960 . S
C720 H707 0.960 . S
C720 C719 1.524 . S
C721 C718 1.403 . S
C721 C722 1.392 . S
C721 C725 1.495 . S
C722 C721 1.392 . S
C722 C723 1.385 . S
C722 C724 1.478 . S
C723 H717 0.930 . S
C723 C719 1.400 . S
C723 C722 1.385 . S
C724 C722 1.478 . S
C724 C726 1.381 . S
C724 C730 1.383 . S
C725 C721 1.495 . S
C725 H731 0.959 . S
C725 H732 0.961 . S
C725 H733 0.960 . S
C726 C724 1.381 . S
C726 C727 1.394 . S
C726 H734 0.930 . S
C727 C726 1.394 . S
C727 C728 1.383 . S
C727 H735 0.929 . S
C728 C727 1.383 . S
C728 C729 1.377 . S
C729 H713 0.930 . S
C729 C728 1.377 . S
C729 C730 1.379 . S
C730 H714 0.931 . S
C730 C724 1.383 . S
C730 C729 1.379 . S
H731 C725 0.959 . S
H732 C725 0.961 . S
H733 C725 0.960 . S
H734 C726 0.930 . S
H735 C727 0.929 . S
H736 C744 0.929 . S
H737 C746 0.930 . S
H738 C748 0.930 . S
H739 C751 0.929 . S
H740 C754 0.930 . S
H741 C756 0.960 . S
H742 C756 0.960 . S
H743 C756 0.960 . S
C744 H736 0.929 . S
C744 C745 1.377 . S
C744 C746 1.384 . S
C745 C744 1.377 . S
C745 C751 1.390 . S
C746 H737 0.930 . S
C746 C744 1.384 . S
C746 C747 1.372 . S
C747 C746 1.372 . S
C747 C748 1.400 . S
C747 C752 1.490 . S
C748 H738 0.930 . S
C748 C747 1.400 . S
C748 C751 1.386 . S
H749 C765 0.930 . S
H750 C766 0.931 . S
C751 H739 0.929 . S
C751 C745 1.390 . S
C751 C748 1.386 . S
C752 C747 1.490 . S
C752 C754 1.395 . S
C752 C755 1.403 . S
H753 C759 0.930 . S
C754 H740 0.930 . S
C754 C752 1.395 . S
C754 C757 1.403 . S
C755 C752 1.403 . S
C755 C756 1.524 . S
C755 C759 1.400 . S
C756 H741 0.960 . S
C756 H742 0.960 . S
C756 H743 0.960 . S
C756 C755 1.524 . S
C757 C754 1.403 . S
C757 C758 1.392 . S
C757 C761 1.495 . S
C758 C757 1.392 . S
C758 C759 1.385 . S
C758 C760 1.478 . S
C759 H753 0.930 . S
C759 C755 1.400 . S
C759 C758 1.385 . S
C760 C758 1.478 . S
C760 C762 1.381 . S
C760 C766 1.383 . S
C761 C757 1.495 . S
C761 H767 0.959 . S
C761 H768 0.961 . S
C761 H769 0.960 . S
C762 C760 1.381 . S
C762 C763 1.394 . S
C762 H770 0.930 . S
C763 C762 1.394 . S
C763 C764 1.383 . S
C763 H771 0.929 . S
C764 C763 1.383 . S
C764 C765 1.377 . S
C765 H749 0.930 . S
C765 C764 1.377 . S
C765 C766 1.379 . S
C766 H750 0.931 . S
C766 C760 1.383 . S
C766 C765 1.379 . S
H767 C761 0.959 . S
H768 C761 0.961 . S
H769 C761 0.960 . S
H770 C762 0.930 . S
H771 C763 0.929 . S
H772 C780 0.929 . S
H773 C782 0.930 . S
H774 C784 0.930 . S
H775 C787 0.929 . S
H776 C790 0.930 . S
H777 C792 0.960 . S
H778 C792 0.960 . S
H779 C792 0.960 . S
C780 H772 0.929 . S
C780 C781 1.377 . S
C780 C782 1.384 . S
C781 C780 1.377 . S
C781 C787 1.390 . S
C782 H773 0.930 . S
C782 C780 1.384 . S
C782 C783 1.372 . S
C783 C782 1.372 . S
C783 C784 1.400 . S
C783 C788 1.490 . S
C784 H774 0.930 . S
C784 C783 1.400 . S
C784 C787 1.386 . S
H785 C801 0.930 . S
H786 C802 0.931 . S
C787 H775 0.929 . S
C787 C781 1.390 . S
C787 C784 1.386 . S
C788 C783 1.490 . S
C788 C790 1.395 . S
C788 C791 1.403 . S
H789 C795 0.930 . S
C790 H776 0.930 . S
C790 C788 1.395 . S
C790 C793 1.403 . S
C791 C788 1.403 . S
C791 C792 1.524 . S
C791 C795 1.400 . S
C792 H777 0.960 . S
C792 H778 0.960 . S
C792 H779 0.960 . S
C792 C791 1.524 . S
C793 C790 1.403 . S
C793 C794 1.392 . S
C793 C797 1.495 . S
C794 C793 1.392 . S
C794 C795 1.385 . S
C794 C796 1.478 . S
C795 H789 0.930 . S
C795 C791 1.400 . S
C795 C794 1.385 . S
C796 C794 1.478 . S
C796 C798 1.381 . S
C796 C802 1.383 . S
C797 C793 1.495 . S
C797 H803 0.959 . S
C797 H804 0.961 . S
C797 H805 0.960 . S
C798 C796 1.381 . S
C798 C799 1.394 . S
C798 H806 0.930 . S
C799 C798 1.394 . S
C799 C800 1.383 . S
C799 H807 0.929 . S
C800 C799 1.383 . S
C800 C801 1.377 . S
C801 H785 0.930 . S
C801 C800 1.377 . S
C801 C802 1.379 . S
C802 H786 0.931 . S
C802 C796 1.383 . S
C802 C801 1.379 . S
H803 C797 0.959 . S
H804 C797 0.961 . S
H805 C797 0.960 . S
H806 C798 0.930 . S
H807 C799 0.929 . S
H808 C816 0.929 . S
H809 C818 0.930 . S
H810 C820 0.930 . S
H811 C823 0.929 . S
H812 C826 0.930 . S
H813 C828 0.960 . S
H814 C828 0.960 . S
H815 C828 0.960 . S
C816 H808 0.929 . S
C816 C817 1.377 . S
C816 C818 1.384 . S
C817 C816 1.377 . S
C817 C823 1.390 . S
C818 H809 0.930 . S
C818 C816 1.384 . S
C818 C819 1.372 . S
C819 C818 1.372 . S
C819 C820 1.400 . S
C819 C824 1.490 . S
C820 H810 0.930 . S
C820 C819 1.400 . S
C820 C823 1.386 . S
H821 C837 0.930 . S
H822 C838 0.931 . S
C823 H811 0.929 . S
C823 C817 1.390 . S
C823 C820 1.386 . S
C824 C819 1.490 . S
C824 C826 1.395 . S
C824 C827 1.403 . S
H825 C831 0.930 . S
C826 H812 0.930 . S
C826 C824 1.395 . S
C826 C829 1.403 . S
C827 C824 1.403 . S
C827 C828 1.524 . S
C827 C831 1.400 . S
C828 H813 0.960 . S
C828 H814 0.960 . S
C828 H815 0.960 . S
C828 C827 1.524 . S
C829 C826 1.403 . S
C829 C830 1.392 . S
C829 C833 1.495 . S
C830 C829 1.392 . S
C830 C831 1.385 . S
C830 C832 1.478 . S
C831 H825 0.930 . S
C831 C827 1.400 . S
C831 C830 1.385 . S
C832 C830 1.478 . S
C832 C834 1.381 . S
C832 C838 1.383 . S
C833 C829 1.495 . S
C833 H839 0.959 . S
C833 H840 0.961 . S
C833 H841 0.960 . S
C834 C832 1.381 . S
C834 C835 1.394 . S
C834 H842 0.930 . S
C835 C834 1.394 . S
C835 C836 1.383 . S
C835 H843 0.929 . S
C836 C835 1.383 . S
C836 C837 1.377 . S
C837 H821 0.930 . S
C837 C836 1.377 . S
C837 C838 1.379 . S
C838 H822 0.931 . S
C838 C832 1.383 . S
C838 C837 1.379 . S
H839 C833 0.959 . S
H840 C833 0.961 . S
H841 C833 0.960 . S
H842 C834 0.930 . S
H843 C835 0.929 . S
H844 C852 0.929 . S
H845 C854 0.930 . S
H846 C856 0.930 . S
H847 C859 0.929 . S
H848 C862 0.930 . S
H849 C864 0.960 . S
H850 C864 0.960 . S
H851 C864 0.960 . S
C852 H844 0.929 . S
C852 C853 1.377 . S
C852 C854 1.384 . S
C853 C852 1.377 . S
C853 C859 1.390 . S
C854 H845 0.930 . S
C854 C852 1.384 . S
C854 C855 1.372 . S
C855 C854 1.372 . S
C855 C856 1.400 . S
C855 C860 1.490 . S
C856 H846 0.930 . S
C856 C855 1.400 . S
C856 C859 1.386 . S
H857 C873 0.930 . S
H858 C874 0.931 . S
C859 H847 0.929 . S
C859 C853 1.390 . S
C859 C856 1.386 . S
C860 C855 1.490 . S
C860 C862 1.395 . S
C860 C863 1.403 . S
H861 C867 0.930 . S
C862 H848 0.930 . S
C862 C860 1.395 . S
C862 C865 1.403 . S
C863 C860 1.403 . S
C863 C864 1.524 . S
C863 C867 1.400 . S
C864 H849 0.960 . S
C864 H850 0.960 . S
C864 H851 0.960 . S
C864 C863 1.524 . S
C865 C862 1.403 . S
C865 C866 1.392 . S
C865 C869 1.495 . S
C866 C865 1.392 . S
C866 C867 1.385 . S
C866 C868 1.478 . S
C867 H861 0.930 . S
C867 C863 1.400 . S
C867 C866 1.385 . S
C868 C866 1.478 . S
C868 C870 1.381 . S
C868 C874 1.383 . S
C869 C865 1.495 . S
C869 H875 0.959 . S
C869 H876 0.961 . S
C869 H877 0.960 . S
C870 C868 1.381 . S
C870 C871 1.394 . S
C870 H878 0.930 . S
C871 C870 1.394 . S
C871 C872 1.383 . S
C871 H879 0.929 . S
C872 C871 1.383 . S
C872 C873 1.377 . S
C873 H857 0.930 . S
C873 C872 1.377 . S
C873 C874 1.379 . S
C874 H858 0.931 . S
C874 C868 1.383 . S
C874 C873 1.379 . S
H875 C869 0.959 . S
H876 C869 0.961 . S
H877 C869 0.960 . S
H878 C870 0.930 . S
H879 C871 0.929 . S
H880 C888 0.929 . S
H881 C890 0.930 . S
H882 C892 0.930 . S
H883 C895 0.929 . S
H884 C898 0.930 . S
H885 C900 0.960 . S
H886 C900 0.960 . S
H887 C900 0.960 . S
C888 H880 0.929 . S
C888 C889 1.377 . S
C888 C890 1.384 . S
C889 C888 1.377 . S
C889 C895 1.390 . S
C890 H881 0.930 . S
C890 C888 1.384 . S
C890 C891 1.372 . S
C891 C890 1.372 . S
C891 C892 1.400 . S
C891 C896 1.490 . S
C892 H882 0.930 . S
C892 C891 1.400 . S
C892 C895 1.386 . S
H893 C909 0.930 . S
H894 C910 0.931 . S
C895 H883 0.929 . S
C895 C889 1.390 . S
C895 C892 1.386 . S
C896 C891 1.490 . S
C896 C898 1.395 . S
C896 C899 1.403 . S
H897 C903 0.930 . S
C898 H884 0.930 . S
C898 C896 1.395 . S
C898 C901 1.403 . S
C899 C896 1.403 . S
C899 C900 1.524 . S
C899 C903 1.400 . S
C900 H885 0.960 . S
C900 H886 0.960 . S
C900 H887 0.960 . S
C900 C899 1.524 . S
C901 C898 1.403 . S
C901 C902 1.392 . S
C901 C905 1.495 . S
C902 C901 1.392 . S
C902 C903 1.385 . S
C902 C904 1.478 . S
C903 H897 0.930 . S
C903 C899 1.400 . S
C903 C902 1.385 . S
C904 C902 1.478 . S
C904 C906 1.381 . S
C904 C910 1.383 . S
C905 C901 1.495 . S
C905 H911 0.959 . S
C905 H912 0.961 . S
C905 H913 0.960 . S
C906 C904 1.381 . S
C906 C907 1.394 . S
C906 H914 0.930 . S
C907 C906 1.394 . S
C907 C908 1.383 . S
C907 H915 0.929 . S
C908 C907 1.383 . S
C908 C909 1.377 . S
C909 H893 0.930 . S
C909 C908 1.377 . S
C909 C910 1.379 . S
C910 H894 0.931 . S
C910 C904 1.383 . S
C910 C909 1.379 . S
H911 C905 0.959 . S
H912 C905 0.961 . S
H913 C905 0.960 . S
H914 C906 0.930 . S
H915 C907 0.929 . S
H916 C924 0.929 . S
H917 C926 0.930 . S
H918 C928 0.930 . S
H919 C931 0.929 . S
H920 C934 0.930 . S
H921 C936 0.960 . S
H922 C936 0.960 . S
H923 C936 0.960 . S
C924 H916 0.929 . S
C924 C925 1.377 . S
C924 C926 1.384 . S
C925 C924 1.377 . S
C925 C931 1.390 . S
C926 H917 0.930 . S
C926 C924 1.384 . S
C926 C927 1.372 . S
C927 C926 1.372 . S
C927 C928 1.400 . S
C927 C932 1.490 . S
C928 H918 0.930 . S
C928 C927 1.400 . S
C928 C931 1.386 . S
H929 C945 0.930 . S
H930 C946 0.931 . S
C931 H919 0.929 . S
C931 C925 1.390 . S
C931 C928 1.386 . S
C932 C927 1.490 . S
C932 C934 1.395 . S
C932 C935 1.403 . S
H933 C939 0.930 . S
C934 H920 0.930 . S
C934 C932 1.395 . S
C934 C937 1.403 . S
C935 C932 1.403 . S
C935 C936 1.524 . S
C935 C939 1.400 . S
C936 H921 0.960 . S
C936 H922 0.960 . S
C936 H923 0.960 . S
C936 C935 1.524 . S
C937 C934 1.403 . S
C937 C938 1.392 . S
C937 C941 1.495 . S
C938 C937 1.392 . S
C938 C939 1.385 . S
C938 C940 1.478 . S
C939 H933 0.930 . S
C939 C935 1.400 . S
C939 C938 1.385 . S
C940 C938 1.478 . S
C940 C942 1.381 . S
C940 C946 1.383 . S
C941 C937 1.495 . S
C941 H947 0.959 . S
C941 H948 0.961 . S
C941 H949 0.960 . S
C942 C940 1.381 . S
C942 C943 1.394 . S
C942 H950 0.930 . S
C943 C942 1.394 . S
C943 C944 1.383 . S
C943 H951 0.929 . S
C944 C943 1.383 . S
C944 C945 1.377 . S
C945 H929 0.930 . S
C945 C944 1.377 . S
C945 C946 1.379 . S
C946 H930 0.931 . S
C946 C940 1.383 . S
C946 C945 1.379 . S
H947 C941 0.959 . S
H948 C941 0.961 . S
H949 C941 0.960 . S
H950 C942 0.930 . S
H951 C943 0.929 . S
H952 C960 0.929 . S
H953 C962 0.930 . S
H954 C964 0.930 . S
H955 C967 0.929 . S
H956 C970 0.930 . S
H957 C972 0.960 . S
H958 C972 0.960 . S
H959 C972 0.960 . S
C960 H952 0.929 . S
C960 C961 1.377 . S
C960 C962 1.384 . S
C961 C960 1.377 . S
C961 C967 1.390 . S
C962 H953 0.930 . S
C962 C960 1.384 . S
C962 C963 1.372 . S
C963 C962 1.372 . S
C963 C964 1.400 . S
C963 C968 1.490 . S
C964 H954 0.930 . S
C964 C963 1.400 . S
C964 C967 1.386 . S
H965 C981 0.930 . S
H966 C982 0.931 . S
C967 H955 0.929 . S
C967 C961 1.390 . S
C967 C964 1.386 . S
C968 C963 1.490 . S
C968 C970 1.395 . S
C968 C971 1.403 . S
H969 C975 0.930 . S
C970 H956 0.930 . S
C970 C968 1.395 . S
C970 C973 1.403 . S
C971 C968 1.403 . S
C971 C972 1.524 . S
C971 C975 1.400 . S
C972 H957 0.960 . S
C972 H958 0.960 . S
C972 H959 0.960 . S
C972 C971 1.524 . S
C973 C970 1.403 . S
C973 C974 1.392 . S
C973 C977 1.495 . S
C974 C973 1.392 . S
C974 C975 1.385 . S
C974 C976 1.478 . S
C975 H969 0.930 . S
C975 C971 1.400 . S
C975 C974 1.385 . S
C976 C974 1.478 . S
C976 C978 1.381 . S
C976 C982 1.383 . S
C977 C973 1.495 . S
C977 H983 0.959 . S
C977 H984 0.961 . S
C977 H985 0.960 . S
C978 C976 1.381 . S
C978 C979 1.394 . S
C978 H986 0.930 . S
C979 C978 1.394 . S
C979 C980 1.383 . S
C979 H987 0.929 . S
C980 C979 1.383 . S
C980 C981 1.377 . S
C981 H965 0.930 . S
C981 C980 1.377 . S
C981 C982 1.379 . S
C982 H966 0.931 . S
C982 C976 1.383 . S
C982 C981 1.379 . S
H983 C977 0.959 . S
H984 C977 0.961 . S
H985 C977 0.960 . S
H986 C978 0.930 . S
H987 C979 0.929 . S
H988 C996 0.929 . S
H989 C998 0.930 . S
H990 C1000 0.930 . S
H991 C1003 0.929 . S
H992 C1006 0.930 . S
H993 C1008 0.960 . S
H994 C1008 0.960 . S
H995 C1008 0.960 . S
C996 H988 0.929 . S
C996 C997 1.377 . S
C996 C998 1.384 . S
C997 C996 1.377 . S
C997 C1003 1.390 . S
C998 H989 0.930 . S
C998 C996 1.384 . S
C998 C999 1.372 . S
C999 C998 1.372 . S
C999 C1000 1.400 . S
C999 C1004 1.490 . S
C1000 H990 0.930 . S
C1000 C999 1.400 . S
C1000 C1003 1.386 . S
H1001 C1017 0.930 . S
H1002 C1018 0.931 . S
C1003 H991 0.929 . S
C1003 C997 1.390 . S
C1003 C1000 1.386 . S
C1004 C999 1.490 . S
C1004 C1006 1.395 . S
C1004 C1007 1.403 . S
H1005 C1011 0.930 . S
C1006 H992 0.930 . S
C1006 C1004 1.395 . S
C1006 C1009 1.403 . S
C1007 C1004 1.403 . S
C1007 C1008 1.524 . S
C1007 C1011 1.400 . S
C1008 H993 0.960 . S
C1008 H994 0.960 . S
C1008 H995 0.960 . S
C1008 C1007 1.524 . S
C1009 C1006 1.403 . S
C1009 C1010 1.392 . S
C1009 C1013 1.495 . S
C1010 C1009 1.392 . S
C1010 C1011 1.385 . S
C1010 C1012 1.478 . S
C1011 H1005 0.930 . S
C1011 C1007 1.400 . S
C1011 C1010 1.385 . S
C1012 C1010 1.478 . S
C1012 C1014 1.381 . S
C1012 C1018 1.383 . S
C1013 C1009 1.495 . S
C1013 H1019 0.959 . S
C1013 H1020 0.961 . S
C1013 H1021 0.960 . S
C1014 C1012 1.381 . S
C1014 C1015 1.394 . S
C1014 H1022 0.930 . S
C1015 C1014 1.394 . S
C1015 C1016 1.383 . S
C1015 H1023 0.929 . S
C1016 C1015 1.383 . S
C1016 C1017 1.377 . S
C1017 H1001 0.930 . S
C1017 C1016 1.377 . S
C1017 C1018 1.379 . S
C1018 H1002 0.931 . S
C1018 C1012 1.383 . S
C1018 C1017 1.379 . S
H1019 C1013 0.959 . S
H1020 C1013 0.961 . S
H1021 C1013 0.960 . S
H1022 C1014 0.930 . S
H1023 C1015 0.929 . S
H1024 C1032 0.929 . S
H1025 C1034 0.930 . S
H1026 C1036 0.930 . S
H1027 C1039 0.929 . S
H1028 C1042 0.929 1_545 S
H1029 C1044 0.960 . S
H1030 C1044 0.960 . S
H1031 C1044 0.960 . S
C1032 H1024 0.929 . S
C1032 C1033 1.415 . S
C1032 C1034 1.384 . S
C1033 C1032 1.415 . S
C1033 C1039 1.353 1_554 S
C1034 H1025 0.930 . S
C1034 C1032 1.384 . S
C1034 C1035 1.372 . S
C1035 C1034 1.372 . S
C1035 C1036 1.400 1_554 S
C1035 C1040 1.490 . S
C1036 H1026 0.930 . S
C1036 C1035 1.400 1_556 S
C1036 C1039 1.386 . S
H1037 C1053 0.930 . S
H1038 C1054 0.931 . S
C1039 H1027 0.929 . S
C1039 C1033 1.353 1_556 S
C1039 C1036 1.386 . S
C1040 C1035 1.490 . S
C1040 C1042 1.393 1_545 S
C1040 C1043 1.403 1_554 S
H1041 C1047 0.930 . S
C1042 H1028 0.929 1_565 S
C1042 C1040 1.393 1_565 S
C1042 C1045 1.405 . S
C1043 C1040 1.403 1_556 S
C1043 C1044 1.524 . S
C1043 C1047 1.400 1_545 S
C1044 H1029 0.960 . S
C1044 H1030 0.960 . S
C1044 H1031 0.960 . S
C1044 C1043 1.524 . S
C1045 C1042 1.405 . S
C1045 C1046 1.392 . S
C1045 C1049 1.495 . S
C1046 C1045 1.392 . S
C1046 C1047 1.385 1_554 S
C1046 C1048 1.478 . S
C1047 H1041 0.930 . S
C1047 C1043 1.400 1_565 S
C1047 C1046 1.385 1_556 S
C1048 C1046 1.478 . S
C1048 C1050 1.381 . S
C1048 C1054 1.383 1_554 S
C1049 C1045 1.495 . S
C1049 H1055 0.959 . S
C1049 H1056 0.961 . S
C1049 H1057 0.960 . S
C1050 C1048 1.381 . S
C1050 C1051 1.394 . S
C1050 H1058 0.930 . S
C1051 C1050 1.394 . S
C1051 C1052 1.378 . S
C1051 H1059 0.929 . S
C1052 C1051 1.378 . S
C1052 C1053 1.381 1_554 S
C1053 H1037 0.930 . S
C1053 C1052 1.381 1_556 S
C1053 C1054 1.379 . S
C1054 H1038 0.931 . S
C1054 C1048 1.383 1_556 S
C1054 C1053 1.379 . S
H1055 C1049 0.959 . S
H1056 C1049 0.961 . S
H1057 C1049 0.960 . S
H1058 C1050 0.930 . S
H1059 C1051 0.929 . S
H1060 C1068 0.929 . S
H1061 C1070 0.930 . S
H1062 C1072 0.930 . S
H1063 C1075 0.929 . S
H1064 C1078 0.930 . S
H1065 C1080 0.960 . S
H1066 C1080 0.960 . S
H1067 C1080 0.973 . S
C1068 H1060 0.929 . S
C1068 C1069 1.373 1_554 S
C1068 C1070 1.384 . S
C1069 C1068 1.373 1_556 S
C1069 C1075 1.394 . S
C1070 H1061 0.930 . S
C1070 C1068 1.384 . S
C1070 C1071 1.396 . S
C1071 C1070 1.396 . S
C1071 C1072 1.376 1_554 S
C1071 C1076 1.490 . S
C1072 H1062 0.930 . S
C1072 C1071 1.376 1_556 S
C1072 C1075 1.386 . S
H1073 C1089 0.930 . S
H1074 C1090 0.931 . S
C1075 H1063 0.929 . S
C1075 C1069 1.394 . S
C1075 C1072 1.386 . S
C1076 C1071 1.490 . S
C1076 C1078 1.388 1_554 S
C1076 C1079 1.411 . S
H1077 C1083 0.930 . S
C1078 H1064 0.930 . S
C1078 C1076 1.388 1_556 S
C1078 C1081 1.403 . S
C1079 C1076 1.411 . S
C1079 C1080 1.524 . S
C1079 C1083 1.400 . S
C1080 H1065 0.960 . S
C1080 H1066 0.960 . S
C1080 H1067 0.973 . S
C1080 C1079 1.524 . S
C1081 C1078 1.403 . S
C1081 C1082 1.394 . S
C1081 C1085 1.495 . S
C1082 C1081 1.394 . S
C1082 C1083 1.383 1_556 S
C1082 C1084 1.477 . S
C1083 H1077 0.930 . S
C1083 C1079 1.400 . S
C1083 C1082 1.383 1_554 S
C1084 C1082 1.477 . S
C1084 C1086 1.357 1_556 S
C1084 C1090 1.407 . S
C1085 C1081 1.495 . S
C1085 H1091 0.959 . S
C1085 H1092 0.961 . S
C1085 H1093 0.960 1_556 S
C1086 C1084 1.357 1_554 S
C1086 C1087 1.394 . S
C1086 H1094 0.930 . S
C1087 C1086 1.394 . S
C1087 C1088 1.381 . S
C1087 H1095 0.929 . S
C1088 C1087 1.381 . S
C1088 C1089 1.379 1_554 S
C1089 H1073 0.930 . S
C1089 C1088 1.379 1_556 S
C1089 C1090 1.379 . S
C1090 H1074 0.931 . S
C1090 C1084 1.407 . S
C1090 C1089 1.379 . S
H1091 C1085 0.959 . S
H1092 C1085 0.961 . S
H1093 C1085 0.960 1_554 S
H1094 C1086 0.930 . S
H1095 C1087 0.929 . S
H1096 C1104 0.929 . S
H1097 C1106 0.930 . S
H1098 C1108 0.930 . S
H1099 C1111 0.929 . S
H1100 C1114 0.930 . S
H1101 C1116 0.960 . S
H1102 C1116 0.960 . S
H1103 C1116 0.960 . S
C1104 H1096 0.929 . S
C1104 C1105 1.377 . S
C1104 C1106 1.384 . S
C1105 C1104 1.377 . S
C1105 C1111 1.390 . S
C1106 H1097 0.930 . S
C1106 C1104 1.384 . S
C1106 C1107 1.372 . S
C1107 C1106 1.372 . S
C1107 C1108 1.400 . S
C1107 C1112 1.490 . S
C1108 H1098 0.930 . S
C1108 C1107 1.400 . S
C1108 C1111 1.386 . S
H1109 C1125 0.930 . S
H1110 C1126 0.931 . S
C1111 H1099 0.929 . S
C1111 C1105 1.390 . S
C1111 C1108 1.386 . S
C1112 C1107 1.490 . S
C1112 C1114 1.395 . S
C1112 C1115 1.403 . S
H1113 C1119 0.930 . S
C1114 H1100 0.930 . S
C1114 C1112 1.395 . S
C1114 C1117 1.403 . S
C1115 C1112 1.403 . S
C1115 C1116 1.524 . S
C1115 C1119 1.400 . S
C1116 H1101 0.960 . S
C1116 H1102 0.960 . S
C1116 H1103 0.960 . S
C1116 C1115 1.524 . S
C1117 C1114 1.403 . S
C1117 C1118 1.392 . S
C1117 C1121 1.495 . S
C1118 C1117 1.392 . S
C1118 C1119 1.385 . S
C1118 C1120 1.478 . S
C1119 H1113 0.930 . S
C1119 C1115 1.400 . S
C1119 C1118 1.385 . S
C1120 C1118 1.478 . S
C1120 C1122 1.381 . S
C1120 C1126 1.383 . S
C1121 C1117 1.495 . S
C1121 H1127 0.959 . S
C1121 H1128 0.961 . S
C1121 H1129 0.960 . S
C1122 C1120 1.381 . S
C1122 C1123 1.394 . S
C1122 H1130 0.930 . S
C1123 C1122 1.394 . S
C1123 C1124 1.383 . S
C1123 H1131 0.929 . S
C1124 C1123 1.383 . S
C1124 C1125 1.377 . S
C1125 H1109 0.930 . S
C1125 C1124 1.377 . S
C1125 C1126 1.379 . S
C1126 H1110 0.931 . S
C1126 C1120 1.383 . S
C1126 C1125 1.379 . S
H1127 C1121 0.959 . S
H1128 C1121 0.961 . S
H1129 C1121 0.960 . S
H1130 C1122 0.930 . S
H1131 C1123 0.929 . S
H1132 C1140 0.929 . S
H1133 C1142 0.930 . S
H1134 C1144 0.930 . S
H1135 C1147 0.929 . S
H1136 C1150 0.930 . S
H1137 C1152 0.960 . S
H1138 C1152 0.932 1_565 S
H1139 C1152 0.962 . S
C1140 H1132 0.929 . S
C1140 C1141 1.377 . S
C1140 C1142 1.384 . S
C1141 C1140 1.377 . S
C1141 C1147 1.390 . S
C1142 H1133 0.930 . S
C1142 C1140 1.384 . S
C1142 C1143 1.372 . S
C1143 C1142 1.372 . S
C1143 C1144 1.400 . S
C1143 C1148 1.490 . S
C1144 H1134 0.930 . S
C1144 C1143 1.400 . S
C1144 C1147 1.386 . S
H1145 C1161 0.930 . S
H1146 C1162 0.931 . S
C1147 H1135 0.929 . S
C1147 C1141 1.390 . S
C1147 C1144 1.386 . S
C1148 C1143 1.490 . S
C1148 C1150 1.395 . S
C1148 C1151 1.327 1_565 S
H1149 C1155 0.930 . S
C1150 H1136 0.930 . S
C1150 C1148 1.395 . S
C1150 C1153 1.403 . S
C1151 C1148 1.327 1_545 S
C1151 C1152 1.540 . S
C1151 C1155 1.465 . S
C1152 H1137 0.960 . S
C1152 H1138 0.932 1_545 S
C1152 H1139 0.962 . S
C1152 C1151 1.540 . S
C1153 C1150 1.403 . S
C1153 C1154 1.392 1_565 S
C1153 C1157 1.495 . S
C1154 C1153 1.392 1_545 S
C1154 C1155 1.385 . S
C1154 C1156 1.478 . S
C1155 H1149 0.930 . S
C1155 C1151 1.465 . S
C1155 C1154 1.385 . S
C1156 C1154 1.478 . S
C1156 C1158 1.381 . S
C1156 C1162 1.383 . S
C1157 C1153 1.495 . S
C1157 H1163 0.959 . S
C1157 H1164 0.978 . S
C1157 H1165 0.960 . S
C1158 C1156 1.381 . S
C1158 C1159 1.394 . S
C1158 H1166 0.930 . S
C1159 C1158 1.394 . S
C1159 C1160 1.383 . S
C1159 H1167 0.929 . S
C1160 C1159 1.383 . S
C1160 C1161 1.377 . S
C1161 H1145 0.930 . S
C1161 C1160 1.377 . S
C1161 C1162 1.379 . S
C1162 H1146 0.931 . S
C1162 C1156 1.383 . S
C1162 C1161 1.379 . S
H1163 C1157 0.959 . S
H1164 C1157 0.978 . S
H1165 C1157 0.960 . S
H1166 C1158 0.930 . S
H1167 C1159 0.929 . S
H1168 C1176 0.929 . S
H1169 C1178 0.930 . S
H1170 C1180 0.930 . S
H1171 C1183 0.929 . S
H1172 C1186 0.930 . S
H1173 C1188 0.960 . S
H1174 C1188 0.960 . S
H1175 C1188 0.960 . S
C1176 H1168 0.929 . S
C1176 C1177 1.388 . S
C1176 C1178 1.384 . S
C1177 C1176 1.388 . S
C1177 C1183 1.380 1_554 S
C1178 H1169 0.930 . S
C1178 C1176 1.384 . S
C1178 C1179 1.391 . S
C1179 C1178 1.391 . S
C1179 C1180 1.381 1_554 S
C1179 C1184 1.492 . S
C1180 H1170 0.930 . S
C1180 C1179 1.381 1_556 S
C1180 C1183 1.386 . S
H1181 C1197 0.930 . S
H1182 C1198 0.931 . S
C1183 H1171 0.929 . S
C1183 C1177 1.380 1_556 S
C1183 C1180 1.386 . S
C1184 C1179 1.492 . S
C1184 C1186 1.395 . S
C1184 C1187 1.403 1_554 S
H1185 C1191 0.930 . S
C1186 H1172 0.930 . S
C1186 C1184 1.395 . S
C1186 C1189 1.403 . S
C1187 C1184 1.403 1_556 S
C1187 C1188 1.524 . S
C1187 C1191 1.400 . S
C1188 H1173 0.960 . S
C1188 H1174 0.960 . S
C1188 H1175 0.960 . S
C1188 C1187 1.524 . S
C1189 C1186 1.403 . S
C1189 C1190 1.392 . S
C1189 C1193 1.495 . S
C1190 C1189 1.392 . S
C1190 C1191 1.385 1_554 S
C1190 C1192 1.478 . S
C1191 H1185 0.930 . S
C1191 C1187 1.400 . S
C1191 C1190 1.385 1_556 S
C1192 C1190 1.478 . S
C1192 C1194 1.381 . S
C1192 C1198 1.383 1_554 S
C1193 C1189 1.495 . S
C1193 H1199 0.959 . S
C1193 H1200 0.961 . S
C1193 H1201 0.960 . S
C1194 C1192 1.381 . S
C1194 C1195 1.394 . S
C1194 H1202 0.930 . S
C1195 C1194 1.394 . S
C1195 C1196 1.408 . S
C1195 H1203 0.929 . S
C1196 C1195 1.408 . S
C1196 C1197 1.358 1_554 S
C1197 H1181 0.930 . S
C1197 C1196 1.358 1_556 S
C1197 C1198 1.379 . S
C1198 H1182 0.931 . S
C1198 C1192 1.383 1_556 S
C1198 C1197 1.379 . S
H1199 C1193 0.959 . S
H1200 C1193 0.961 . S
H1201 C1193 0.960 . S
H1202 C1194 0.930 . S
H1203 C1195 0.929 . S
H1204 C1212 0.929 . S
H1205 C1214 0.930 . S
H1206 C1216 0.930 . S
H1207 C1219 0.929 . S
H1208 C1222 0.930 . S
H1209 C1224 0.960 . S
H1210 C1224 0.960 . S
H1211 C1224 0.960 . S
C1212 H1204 0.929 . S
C1212 C1213 1.377 . S
C1212 C1214 1.384 . S
C1213 C1212 1.377 . S
C1213 C1219 1.390 . S
C1214 H1205 0.930 . S
C1214 C1212 1.384 . S
C1214 C1215 1.372 . S
C1215 C1214 1.372 . S
C1215 C1216 1.400 . S
C1215 C1220 1.490 . S
C1216 H1206 0.930 . S
C1216 C1215 1.400 . S
C1216 C1219 1.386 . S
H1217 C1233 0.930 . S
H1218 C1234 0.931 . S
C1219 H1207 0.929 . S
C1219 C1213 1.390 . S
C1219 C1216 1.386 . S
C1220 C1215 1.490 . S
C1220 C1222 1.395 . S
C1220 C1223 1.403 . S
H1221 C1227 0.930 . S
C1222 H1208 0.930 . S
C1222 C1220 1.395 . S
C1222 C1225 1.403 . S
C1223 C1220 1.403 . S
C1223 C1224 1.524 . S
C1223 C1227 1.400 . S
C1224 H1209 0.960 . S
C1224 H1210 0.960 . S
C1224 H1211 0.960 . S
C1224 C1223 1.524 . S
C1225 C1222 1.403 . S
C1225 C1226 1.392 . S
C1225 C1229 1.495 . S
C1226 C1225 1.392 . S
C1226 C1227 1.385 . S
C1226 C1228 1.478 . S
C1227 H1221 0.930 . S
C1227 C1223 1.400 . S
C1227 C1226 1.385 . S
C1228 C1226 1.478 . S
C1228 C1230 1.381 . S
C1228 C1234 1.383 . S
C1229 C1225 1.495 . S
C1229 H1235 0.959 . S
C1229 H1236 0.961 . S
C1229 H1237 0.960 . S
C1230 C1228 1.381 . S
C1230 C1231 1.394 . S
C1230 H1238 0.930 . S
C1231 C1230 1.394 . S
C1231 C1232 1.383 . S
C1231 H1239 0.929 . S
C1232 C1231 1.383 . S
C1232 C1233 1.377 . S
C1233 H1217 0.930 . S
C1233 C1232 1.377 . S
C1233 C1234 1.379 . S
C1234 H1218 0.931 . S
C1234 C1228 1.383 . S
C1234 C1233 1.379 . S
H1235 C1229 0.959 . S
H1236 C1229 0.961 . S
H1237 C1229 0.960 . S
H1238 C1230 0.930 . S
H1239 C1231 0.929 . S
H1240 C1248 0.929 . S
H1241 C1250 0.930 . S
H1242 C1252 0.930 . S
H1243 C1255 0.929 . S
H1244 C1258 0.928 1_565 S
H1245 C1260 0.960 . S
H1246 C1260 0.960 . S
H1247 C1260 0.960 . S
C1248 H1240 0.929 . S
C1248 C1249 1.377 . S
C1248 C1250 1.384 . S
C1249 C1248 1.377 . S
C1249 C1255 1.390 . S
C1250 H1241 0.930 . S
C1250 C1248 1.384 . S
C1250 C1251 1.372 . S
C1251 C1250 1.372 . S
C1251 C1252 1.400 . S
C1251 C1256 1.490 . S
C1252 H1242 0.930 . S
C1252 C1251 1.400 . S
C1252 C1255 1.386 . S
H1253 C1269 0.930 . S
H1254 C1270 0.931 . S
C1255 H1243 0.929 . S
C1255 C1249 1.390 . S
C1255 C1252 1.386 . S
C1256 C1251 1.490 . S
C1256 C1258 1.399 1_565 S
C1256 C1259 1.403 . S
H1257 C1263 0.930 . S
C1258 H1244 0.928 1_545 S
C1258 C1256 1.399 1_545 S
C1258 C1261 1.399 . S
C1259 C1256 1.403 . S
C1259 C1260 1.524 . S
C1259 C1263 1.400 1_565 S
C1260 H1245 0.960 . S
C1260 H1246 0.960 . S
C1260 H1247 0.960 . S
C1260 C1259 1.524 . S
C1261 C1258 1.399 . S
C1261 C1262 1.392 . S
C1261 C1265 1.495 . S
C1262 C1261 1.392 . S
C1262 C1263 1.385 . S
C1262 C1264 1.478 . S
C1263 H1257 0.930 . S
C1263 C1259 1.400 1_545 S
C1263 C1262 1.385 . S
C1264 C1262 1.478 . S
C1264 C1266 1.381 . S
C1264 C1270 1.383 . S
C1265 C1261 1.495 . S
C1265 H1271 0.959 . S
C1265 H1272 0.961 . S
C1265 H1273 0.960 . S
C1266 C1264 1.381 . S
C1266 C1267 1.394 . S
C1266 H1274 0.930 . S
C1267 C1266 1.394 . S
C1267 C1268 1.383 . S
C1267 H1275 0.929 . S
C1268 C1267 1.383 . S
C1268 C1269 1.377 . S
C1269 H1253 0.930 . S
C1269 C1268 1.377 . S
C1269 C1270 1.379 . S
C1270 H1254 0.931 . S
C1270 C1264 1.383 . S
C1270 C1269 1.379 . S
H1271 C1265 0.959 . S
H1272 C1265 0.961 . S
H1273 C1265 0.960 . S
H1274 C1266 0.930 . S
H1275 C1267 0.929 . S
H1276 C1284 0.929 . S
H1277 C1286 0.930 . S
H1278 C1288 0.930 . S
H1279 C1291 0.929 . S
H1280 C1294 0.930 . S
H1281 C1296 0.960 . S
H1282 C1296 0.960 . S
H1283 C1296 0.960 . S
C1284 H1276 0.929 . S
C1284 C1285 1.377 . S
C1284 C1286 1.384 . S
C1285 C1284 1.377 . S
C1285 C1291 1.390 . S
C1286 H1277 0.930 . S
C1286 C1284 1.384 . S
C1286 C1287 1.372 . S
C1287 C1286 1.372 . S
C1287 C1288 1.400 . S
C1287 C1292 1.490 . S
C1288 H1278 0.930 . S
C1288 C1287 1.400 . S
C1288 C1291 1.386 . S
H1289 C1305 0.930 . S
H1290 C1306 0.931 . S
C1291 H1279 0.929 . S
C1291 C1285 1.390 . S
C1291 C1288 1.386 . S
C1292 C1287 1.490 . S
C1292 C1294 1.395 . S
C1292 C1295 1.403 . S
H1293 C1299 0.930 . S
C1294 H1280 0.930 . S
C1294 C1292 1.395 . S
C1294 C1297 1.403 . S
C1295 C1292 1.403 . S
C1295 C1296 1.524 . S
C1295 C1299 1.400 . S
C1296 H1281 0.960 . S
C1296 H1282 0.960 . S
C1296 H1283 0.960 . S
C1296 C1295 1.524 . S
C1297 C1294 1.403 . S
C1297 C1298 1.392 . S
C1297 C1301 1.495 . S
C1298 C1297 1.392 . S
C1298 C1299 1.385 . S
C1298 C1300 1.478 . S
C1299 H1293 0.930 . S
C1299 C1295 1.400 . S
C1299 C1298 1.385 . S
C1300 C1298 1.478 . S
C1300 C1302 1.381 . S
C1300 C1306 1.383 . S
C1301 C1297 1.495 . S
C1301 H1307 0.959 . S
C1301 H1308 0.961 . S
C1301 H1309 0.960 . S
C1302 C1300 1.381 . S
C1302 C1303 1.394 . S
C1302 H1310 0.930 . S
C1303 C1302 1.394 . S
C1303 C1304 1.383 . S
C1303 H1311 0.929 . S
C1304 C1303 1.383 . S
C1304 C1305 1.377 . S
C1305 H1289 0.930 . S
C1305 C1304 1.377 . S
C1305 C1306 1.379 . S
C1306 H1290 0.931 . S
C1306 C1300 1.383 . S
C1306 C1305 1.379 . S
H1307 C1301 0.959 . S
H1308 C1301 0.961 . S
H1309 C1301 0.960 . S
H1310 C1302 0.930 . S
H1311 C1303 0.929 . S
H1312 C1320 0.929 . S
H1313 C1322 0.930 . S
H1314 C1324 0.930 . S
H1315 C1327 0.929 . S
H1316 C1330 0.930 . S
H1317 C1332 0.960 . S
H1318 C1332 0.960 . S
H1319 C1332 0.960 . S
C1320 H1312 0.929 . S
C1320 C1321 1.377 . S
C1320 C1322 1.384 . S
C1321 C1320 1.377 . S
C1321 C1327 1.390 . S
C1322 H1313 0.930 . S
C1322 C1320 1.384 . S
C1322 C1323 1.372 . S
C1323 C1322 1.372 . S
C1323 C1324 1.400 . S
C1323 C1328 1.490 . S
C1324 H1314 0.930 . S
C1324 C1323 1.400 . S
C1324 C1327 1.386 . S
H1325 C1341 0.930 . S
H1326 C1342 0.931 . S
C1327 H1315 0.929 . S
C1327 C1321 1.390 . S
C1327 C1324 1.386 . S
C1328 C1323 1.490 . S
C1328 C1330 1.395 . S
C1328 C1331 1.403 . S
H1329 C1335 0.930 . S
C1330 H1316 0.930 . S
C1330 C1328 1.395 . S
C1330 C1333 1.403 . S
C1331 C1328 1.403 . S
C1331 C1332 1.524 . S
C1331 C1335 1.400 . S
C1332 H1317 0.960 . S
C1332 H1318 0.960 . S
C1332 H1319 0.960 . S
C1332 C1331 1.524 . S
C1333 C1330 1.403 . S
C1333 C1334 1.392 . S
C1333 C1337 1.495 . S
C1334 C1333 1.392 . S
C1334 C1335 1.385 . S
C1334 C1336 1.478 . S
C1335 H1329 0.930 . S
C1335 C1331 1.400 . S
C1335 C1334 1.385 . S
C1336 C1334 1.478 . S
C1336 C1338 1.381 . S
C1336 C1342 1.383 . S
C1337 C1333 1.495 . S
C1337 H1343 0.959 . S
C1337 H1344 0.961 . S
C1337 H1345 0.960 . S
C1338 C1336 1.381 . S
C1338 C1339 1.394 . S
C1338 H1346 0.930 . S
C1339 C1338 1.394 . S
C1339 C1340 1.383 . S
C1339 H1347 0.929 . S
C1340 C1339 1.383 . S
C1340 C1341 1.377 . S
C1341 H1325 0.930 . S
C1341 C1340 1.377 . S
C1341 C1342 1.379 . S
C1342 H1326 0.931 . S
C1342 C1336 1.383 . S
C1342 C1341 1.379 . S
H1343 C1337 0.959 . S
H1344 C1337 0.961 . S
H1345 C1337 0.960 . S
H1346 C1338 0.930 . S
H1347 C1339 0.929 . S
H1348 C1356 0.929 . S
H1349 C1358 0.930 . S
H1350 C1360 0.930 . S
H1351 C1363 0.929 . S
H1352 C1366 0.930 . S
H1353 C1368 0.960 . S
H1354 C1368 0.960 . S
H1355 C1368 0.960 . S
C1356 H1348 0.929 . S
C1356 C1357 1.377 . S
C1356 C1358 1.384 . S
C1357 C1356 1.377 . S
C1357 C1363 1.390 . S
C1358 H1349 0.930 . S
C1358 C1356 1.384 . S
C1358 C1359 1.372 . S
C1359 C1358 1.372 . S
C1359 C1360 1.400 . S
C1359 C1364 1.490 . S
C1360 H1350 0.930 . S
C1360 C1359 1.400 . S
C1360 C1363 1.386 . S
H1361 C1377 0.930 . S
H1362 C1378 0.931 . S
C1363 H1351 0.929 . S
C1363 C1357 1.390 . S
C1363 C1360 1.386 . S
C1364 C1359 1.490 . S
C1364 C1366 1.395 . S
C1364 C1367 1.403 . S
H1365 C1371 0.930 . S
C1366 H1352 0.930 . S
C1366 C1364 1.395 . S
C1366 C1369 1.403 . S
C1367 C1364 1.403 . S
C1367 C1368 1.524 . S
C1367 C1371 1.400 . S
C1368 H1353 0.960 . S
C1368 H1354 0.960 . S
C1368 H1355 0.960 . S
C1368 C1367 1.524 . S
C1369 C1366 1.403 . S
C1369 C1370 1.392 . S
C1369 C1373 1.495 . S
C1370 C1369 1.392 . S
C1370 C1371 1.385 . S
C1370 C1372 1.478 . S
C1371 H1365 0.930 . S
C1371 C1367 1.400 . S
C1371 C1370 1.385 . S
C1372 C1370 1.478 . S
C1372 C1374 1.381 . S
C1372 C1378 1.383 . S
C1373 C1369 1.495 . S
C1373 H1379 0.959 . S
C1373 H1380 0.961 . S
C1373 H1381 0.960 . S
C1374 C1372 1.381 . S
C1374 C1375 1.394 . S
C1374 H1382 0.930 . S
C1375 C1374 1.394 . S
C1375 C1376 1.383 . S
C1375 H1383 0.929 . S
C1376 C1375 1.383 . S
C1376 C1377 1.377 . S
C1377 H1361 0.930 . S
C1377 C1376 1.377 . S
C1377 C1378 1.379 . S
C1378 H1362 0.931 . S
C1378 C1372 1.383 . S
C1378 C1377 1.379 . S
H1379 C1373 0.959 . S
H1380 C1373 0.961 . S
H1381 C1373 0.960 . S
H1382 C1374 0.930 . S
H1383 C1375 0.929 . S
H1384 C1392 0.929 . S
H1385 C1394 0.930 . S
H1386 C1396 0.930 . S
H1387 C1399 0.929 . S
H1388 C1402 0.930 . S
H1389 C1404 0.960 . S
H1390 C1404 0.960 . S
H1391 C1404 0.960 . S
C1392 H1384 0.929 . S
C1392 C1393 1.377 . S
C1392 C1394 1.384 . S
C1393 C1392 1.377 . S
C1393 C1399 1.390 . S
C1394 H1385 0.930 . S
C1394 C1392 1.384 . S
C1394 C1395 1.372 . S
C1395 C1394 1.372 . S
C1395 C1396 1.400 . S
C1395 C1400 1.490 . S
C1396 H1386 0.930 . S
C1396 C1395 1.400 . S
C1396 C1399 1.386 . S
H1397 C1413 0.930 . S
H1398 C1414 0.931 . S
C1399 H1387 0.929 . S
C1399 C1393 1.390 . S
C1399 C1396 1.386 . S
C1400 C1395 1.490 . S
C1400 C1402 1.395 . S
C1400 C1403 1.403 . S
H1401 C1407 0.930 . S
C1402 H1388 0.930 . S
C1402 C1400 1.395 . S
C1402 C1405 1.403 . S
C1403 C1400 1.403 . S
C1403 C1404 1.524 . S
C1403 C1407 1.400 . S
C1404 H1389 0.960 . S
C1404 H1390 0.960 . S
C1404 H1391 0.960 . S
C1404 C1403 1.524 . S
C1405 C1402 1.403 . S
C1405 C1406 1.392 . S
C1405 C1409 1.495 . S
C1406 C1405 1.392 . S
C1406 C1407 1.385 . S
C1406 C1408 1.478 . S
C1407 H1401 0.930 . S
C1407 C1403 1.400 . S
C1407 C1406 1.385 . S
C1408 C1406 1.478 . S
C1408 C1410 1.381 . S
C1408 C1414 1.383 . S
C1409 C1405 1.495 . S
C1409 H1415 0.959 . S
C1409 H1416 0.961 . S
C1409 H1417 0.960 . S
C1410 C1408 1.381 . S
C1410 C1411 1.394 . S
C1410 H1418 0.930 . S
C1411 C1410 1.394 . S
C1411 C1412 1.383 . S
C1411 H1419 0.929 . S
C1412 C1411 1.383 . S
C1412 C1413 1.377 . S
C1413 H1397 0.930 . S
C1413 C1412 1.377 . S
C1413 C1414 1.379 . S
C1414 H1398 0.931 . S
C1414 C1408 1.383 . S
C1414 C1413 1.379 . S
H1415 C1409 0.959 . S
H1416 C1409 0.961 . S
H1417 C1409 0.960 . S
H1418 C1410 0.930 . S
H1419 C1411 0.929 . S
H1420 C1428 0.929 . S
H1421 C1430 0.930 . S
H1422 C1432 0.930 . S
H1423 C1435 0.929 . S
H1424 C1438 0.930 . S
H1425 C1440 0.960 . S
H1426 C1440 0.960 . S
H1427 C1440 0.960 . S
C1428 H1420 0.929 . S
C1428 C1429 1.377 . S
C1428 C1430 1.384 . S
C1429 C1428 1.377 . S
C1429 C1435 1.390 . S
C1430 H1421 0.930 . S
C1430 C1428 1.384 . S
C1430 C1431 1.372 . S
C1431 C1430 1.372 . S
C1431 C1432 1.400 . S
C1431 C1436 1.490 . S
C1432 H1422 0.930 . S
C1432 C1431 1.400 . S
C1432 C1435 1.386 . S
H1433 C1449 0.930 . S
H1434 C1450 0.931 . S
C1435 H1423 0.929 . S
C1435 C1429 1.390 . S
C1435 C1432 1.386 . S
C1436 C1431 1.490 . S
C1436 C1438 1.395 . S
C1436 C1439 1.403 . S
H1437 C1443 0.930 . S
C1438 H1424 0.930 . S
C1438 C1436 1.395 . S
C1438 C1441 1.403 . S
C1439 C1436 1.403 . S
C1439 C1440 1.524 . S
C1439 C1443 1.400 . S
C1440 H1425 0.960 . S
C1440 H1426 0.960 . S
C1440 H1427 0.960 . S
C1440 C1439 1.524 . S
C1441 C1438 1.403 . S
C1441 C1442 1.392 . S
C1441 C1445 1.495 . S
C1442 C1441 1.392 . S
C1442 C1443 1.385 . S
C1442 C1444 1.478 . S
C1443 H1437 0.930 . S
C1443 C1439 1.400 . S
C1443 C1442 1.385 . S
C1444 C1442 1.478 . S
C1444 C1446 1.381 . S
C1444 C1450 1.383 . S
C1445 C1441 1.495 . S
C1445 H1451 0.959 . S
C1445 H1452 0.961 . S
C1445 H1453 0.960 . S
C1446 C1444 1.381 . S
C1446 C1447 1.394 . S
C1446 H1454 0.930 . S
C1447 C1446 1.394 . S
C1447 C1448 1.383 . S
C1447 H1455 0.929 . S
C1448 C1447 1.383 . S
C1448 C1449 1.377 . S
C1449 H1433 0.930 . S
C1449 C1448 1.377 . S
C1449 C1450 1.379 . S
C1450 H1434 0.931 . S
C1450 C1444 1.383 . S
C1450 C1449 1.379 . S
H1451 C1445 0.959 . S
H1452 C1445 0.961 . S
H1453 C1445 0.960 . S
H1454 C1446 0.930 . S
H1455 C1447 0.929 . S
H1456 C1464 0.929 . S
H1457 C1466 0.930 . S
H1458 C1468 0.930 . S
H1459 C1471 0.929 . S
H1460 C1474 0.930 . S
H1461 C1476 0.929 1_545 S
H1462 C1476 0.986 . S
H1463 C1476 0.966 . S
C1464 H1456 0.929 . S
C1464 C1465 1.377 . S
C1464 C1466 1.384 . S
C1465 C1464 1.377 . S
C1465 C1471 1.390 . S
C1466 H1457 0.930 . S
C1466 C1464 1.384 . S
C1466 C1467 1.372 . S
C1467 C1466 1.372 . S
C1467 C1468 1.400 . S
C1467 C1472 1.490 . S
C1468 H1458 0.930 . S
C1468 C1467 1.400 . S
C1468 C1471 1.386 . S
H1469 C1485 0.930 . S
H1470 C1486 0.931 . S
C1471 H1459 0.929 . S
C1471 C1465 1.390 . S
C1471 C1468 1.386 . S
C1472 C1467 1.490 . S
C1472 C1474 1.395 1_455 S
C1472 C1475 1.462 . S
H1473 C1479 0.930 . S
C1474 H1460 0.930 . S
C1474 C1472 1.395 1_655 S
C1474 C1477 1.448 . S
C1475 C1472 1.462 . S
C1475 C1476 1.523 . S
C1475 C1479 1.342 1_565 S
C1476 H1461 0.929 1_565 S
C1476 H1462 0.986 . S
C1476 H1463 0.966 . S
C1476 C1475 1.523 . S
C1477 C1474 1.448 . S
C1477 C1478 1.349 1_565 S
C1477 C1481 1.495 . S
C1478 C1477 1.349 1_545 S
C1478 C1479 1.385 1_655 S
C1478 C1480 1.478 . S
C1479 H1473 0.930 . S
C1479 C1475 1.342 1_545 S
C1479 C1478 1.385 1_455 S
C1480 C1478 1.478 . S
C1480 C1482 1.381 . S
C1480 C1486 1.383 . S
C1481 C1477 1.495 . S
C1481 H1487 1.039 . S
C1481 H1488 0.898 1_565 S
C1481 H1489 0.951 1_565 S
C1482 C1480 1.381 . S
C1482 C1483 1.394 . S
C1482 H1490 0.930 . S
C1483 C1482 1.394 . S
C1483 C1484 1.383 . S
C1483 H1491 0.929 . S
C1484 C1483 1.383 . S
C1484 C1485 1.377 . S
C1485 H1469 0.930 . S
C1485 C1484 1.377 . S
C1485 C1486 1.379 . S
C1486 H1470 0.931 . S
C1486 C1480 1.383 . S
C1486 C1485 1.379 . S
H1487 C1481 1.039 . S
H1488 C1481 0.898 1_545 S
H1489 C1481 0.951 1_545 S
H1490 C1482 0.930 . S
H1491 C1483 0.929 . S
H1492 C1500 0.929 . S
H1493 C1502 0.930 . S
H1494 C1504 0.930 . S
H1495 C1507 0.929 . S
H1496 C1510 0.930 . S
H1497 C1512 0.960 . S
H1498 C1512 0.960 . S
H1499 C1512 0.960 . S
C1500 H1492 0.929 . S
C1500 C1501 1.377 . S
C1500 C1502 1.384 . S
C1501 C1500 1.377 . S
C1501 C1507 1.390 . S
C1502 H1493 0.930 . S
C1502 C1500 1.384 . S
C1502 C1503 1.372 . S
C1503 C1502 1.372 . S
C1503 C1504 1.400 . S
C1503 C1508 1.490 . S
C1504 H1494 0.930 . S
C1504 C1503 1.400 . S
C1504 C1507 1.386 . S
H1505 C1521 0.930 . S
H1506 C1522 0.931 . S
C1507 H1495 0.929 . S
C1507 C1501 1.390 . S
C1507 C1504 1.386 . S
C1508 C1503 1.490 . S
C1508 C1510 1.395 1_655 S
C1508 C1511 1.403 . S
H1509 C1515 0.930 . S
C1510 H1496 0.930 . S
C1510 C1508 1.395 1_455 S
C1510 C1513 1.403 . S
C1511 C1508 1.403 . S
C1511 C1512 1.524 . S
C1511 C1515 1.400 . S
C1512 H1497 0.960 . S
C1512 H1498 0.960 . S
C1512 H1499 0.960 . S
C1512 C1511 1.524 . S
C1513 C1510 1.403 . S
C1513 C1514 1.392 . S
C1513 C1517 1.495 . S
C1514 C1513 1.392 . S
C1514 C1515 1.385 1_455 S
C1514 C1516 1.478 . S
C1515 H1509 0.930 . S
C1515 C1511 1.400 . S
C1515 C1514 1.385 1_655 S
C1516 C1514 1.478 . S
C1516 C1518 1.381 . S
C1516 C1522 1.383 . S
C1517 C1513 1.495 . S
C1517 H1523 0.959 . S
C1517 H1524 0.961 . S
C1517 H1525 0.960 . S
C1518 C1516 1.381 . S
C1518 C1519 1.394 . S
C1518 H1526 0.930 . S
C1519 C1518 1.394 . S
C1519 C1520 1.383 . S
C1519 H1527 0.929 . S
C1520 C1519 1.383 . S
C1520 C1521 1.377 . S
C1521 H1505 0.930 . S
C1521 C1520 1.377 . S
C1521 C1522 1.379 . S
C1522 H1506 0.931 . S
C1522 C1516 1.383 . S
C1522 C1521 1.379 . S
H1523 C1517 0.959 . S
H1524 C1517 0.961 . S
H1525 C1517 0.960 . S
H1526 C1518 0.930 . S
H1527 C1519 0.929 . S
H1528 C1536 0.929 . S
H1529 C1538 0.930 . S
H1530 C1540 0.930 . S
H1531 C1543 0.929 . S
H1532 C1546 0.930 . S
H1533 C1548 0.960 . S
H1534 C1548 0.960 . S
H1535 C1548 0.960 . S
C1536 H1528 0.929 . S
C1536 C1537 1.377 . S
C1536 C1538 1.384 . S
C1537 C1536 1.377 . S
C1537 C1543 1.390 . S
C1538 H1529 0.930 . S
C1538 C1536 1.384 . S
C1538 C1539 1.372 . S
C1539 C1538 1.372 . S
C1539 C1540 1.400 . S
C1539 C1544 1.490 . S
C1540 H1530 0.930 . S
C1540 C1539 1.400 . S
C1540 C1543 1.386 . S
H1541 C1557 0.930 . S
H1542 C1558 0.931 . S
C1543 H1531 0.929 . S
C1543 C1537 1.390 . S
C1543 C1540 1.386 . S
C1544 C1539 1.490 . S
C1544 C1546 1.395 1_455 S
C1544 C1547 1.403 . S
H1545 C1551 0.930 . S
C1546 H1532 0.930 . S
C1546 C1544 1.395 1_655 S
C1546 C1549 1.403 . S
C1547 C1544 1.403 . S
C1547 C1548 1.524 . S
C1547 C1551 1.400 . S
C1548 H1533 0.960 . S
C1548 H1534 0.960 . S
C1548 H1535 0.960 . S
C1548 C1547 1.524 . S
C1549 C1546 1.403 . S
C1549 C1550 1.392 . S
C1549 C1553 1.495 . S
C1550 C1549 1.392 . S
C1550 C1551 1.385 1_655 S
C1550 C1552 1.478 . S
C1551 H1545 0.930 . S
C1551 C1547 1.400 . S
C1551 C1550 1.385 1_455 S
C1552 C1550 1.478 . S
C1552 C1554 1.381 . S
C1552 C1558 1.383 . S
C1553 C1549 1.495 . S
C1553 H1559 0.959 . S
C1553 H1560 0.961 . S
C1553 H1561 0.960 . S
C1554 C1552 1.381 . S
C1554 C1555 1.394 . S
C1554 H1562 0.930 . S
C1555 C1554 1.394 . S
C1555 C1556 1.383 . S
C1555 H1563 0.929 . S
C1556 C1555 1.383 . S
C1556 C1557 1.377 . S
C1557 H1541 0.930 . S
C1557 C1556 1.377 . S
C1557 C1558 1.379 . S
C1558 H1542 0.931 . S
C1558 C1552 1.383 . S
C1558 C1557 1.379 . S
H1559 C1553 0.959 . S
H1560 C1553 0.961 . S
H1561 C1553 0.960 . S
H1562 C1554 0.930 . S
H1563 C1555 0.929 . S
H1564 C1572 0.929 . S
H1565 C1574 0.930 . S
H1566 C1576 0.930 . S
H1567 C1579 0.929 . S
H1568 C1582 0.930 . S
H1569 C1584 0.960 . S
H1570 C1584 0.960 . S
H1571 C1584 0.960 . S
C1572 H1564 0.929 . S
C1572 C1573 1.405 . S
C1572 C1574 1.384 . S
C1573 C1572 1.405 . S
C1573 C1579 1.363 1_556 S
C1574 H1565 0.930 . S
C1574 C1572 1.384 . S
C1574 C1575 1.372 . S
C1575 C1574 1.372 . S
C1575 C1576 1.400 1_556 S
C1575 C1580 1.491 . S
C1576 H1566 0.930 . S
C1576 C1575 1.400 1_554 S
C1576 C1579 1.386 . S
H1577 C1593 0.930 . S
H1578 C1594 0.931 . S
C1579 H1567 0.929 . S
C1579 C1573 1.363 1_554 S
C1579 C1576 1.386 . S
C1580 C1575 1.491 . S
C1580 C1582 1.382 1_456 S
C1580 C1583 1.416 . S
H1581 C1587 0.930 . S
C1582 H1568 0.930 . S
C1582 C1580 1.382 1_654 S
C1582 C1585 1.403 . S
C1583 C1580 1.416 . S
C1583 C1584 1.524 . S
C1583 C1587 1.400 . S
C1584 H1569 0.960 . S
C1584 H1570 0.960 . S
C1584 H1571 0.960 . S
C1584 C1583 1.524 . S
C1585 C1582 1.403 . S
C1585 C1586 1.411 . S
C1585 C1589 1.495 . S
C1586 C1585 1.411 . S
C1586 C1587 1.366 1_654 S
C1586 C1588 1.481 . S
C1587 H1581 0.930 . S
C1587 C1583 1.400 . S
C1587 C1586 1.366 1_456 S
C1588 C1586 1.481 . S
C1588 C1590 1.381 1_554 S
C1588 C1594 1.383 . S
C1589 C1585 1.495 . S
C1589 H1595 0.959 . S
C1589 H1596 0.961 . S
C1589 H1597 0.960 . S
C1590 C1588 1.381 1_556 S
C1590 C1591 1.394 . S
C1590 H1598 0.930 . S
C1591 C1590 1.394 . S
C1591 C1592 1.383 1_556 S
C1591 H1599 0.929 . S
C1592 C1591 1.383 1_554 S
C1592 C1593 1.377 . S
C1593 H1577 0.930 . S
C1593 C1592 1.377 . S
C1593 C1594 1.379 . S
C1594 H1578 0.931 . S
C1594 C1588 1.383 . S
C1594 C1593 1.379 . S
H1595 C1589 0.959 . S
H1596 C1589 0.961 . S
H1597 C1589 0.960 . S
H1598 C1590 0.930 . S
H1599 C1591 0.929 . S
H1600 C1608 0.929 . S
H1601 C1610 0.930 . S
H1602 C1612 0.930 . S
H1603 C1615 0.929 . S
H1604 C1618 0.930 . S
H1605 C1620 0.960 . S
H1606 C1620 0.960 . S
H1607 C1620 0.960 . S
C1608 H1600 0.929 . S
C1608 C1609 1.377 . S
C1608 C1610 1.384 . S
C1609 C1608 1.377 . S
C1609 C1615 1.390 . S
C1610 H1601 0.930 . S
C1610 C1608 1.384 . S
C1610 C1611 1.372 . S
C1611 C1610 1.372 . S
C1611 C1612 1.400 . S
C1611 C1616 1.490 . S
C1612 H1602 0.930 . S
C1612 C1611 1.400 . S
C1612 C1615 1.386 . S
H1613 C1629 0.930 . S
H1614 C1630 0.931 . S
C1615 H1603 0.929 . S
C1615 C1609 1.390 . S
C1615 C1612 1.386 . S
C1616 C1611 1.490 . S
C1616 C1618 1.395 . S
C1616 C1619 1.403 . S
H1617 C1623 0.930 . S
C1618 H1604 0.930 . S
C1618 C1616 1.395 . S
C1618 C1621 1.403 . S
C1619 C1616 1.403 . S
C1619 C1620 1.524 . S
C1619 C1623 1.400 . S
C1620 H1605 0.960 . S
C1620 H1606 0.960 . S
C1620 H1607 0.960 . S
C1620 C1619 1.524 . S
C1621 C1618 1.403 . S
C1621 C1622 1.392 . S
C1621 C1625 1.495 . S
C1622 C1621 1.392 . S
C1622 C1623 1.385 . S
C1622 C1624 1.478 . S
C1623 H1617 0.930 . S
C1623 C1619 1.400 . S
C1623 C1622 1.385 . S
C1624 C1622 1.478 . S
C1624 C1626 1.381 . S
C1624 C1630 1.383 . S
C1625 C1621 1.495 . S
C1625 H1631 0.959 . S
C1625 H1632 0.961 . S
C1625 H1633 0.960 . S
C1626 C1624 1.381 . S
C1626 C1627 1.394 . S
C1626 H1634 0.930 . S
C1627 C1626 1.394 . S
C1627 C1628 1.383 . S
C1627 H1635 0.929 . S
C1628 C1627 1.383 . S
C1628 C1629 1.377 . S
C1629 H1613 0.930 . S
C1629 C1628 1.377 . S
C1629 C1630 1.379 . S
C1630 H1614 0.931 . S
C1630 C1624 1.383 . S
C1630 C1629 1.379 . S
H1631 C1625 0.959 . S
H1632 C1625 0.961 . S
H1633 C1625 0.960 . S
H1634 C1626 0.930 . S
H1635 C1627 0.929 . S
H1636 C1644 0.929 . S
H1637 C1646 0.930 . S
H1638 C1648 0.930 . S
H1639 C1651 0.929 . S
H1640 C1654 0.930 . S
H1641 C1656 0.960 . S
H1642 C1656 0.960 . S
H1643 C1656 0.960 . S
C1644 H1636 0.929 . S
C1644 C1645 1.377 . S
C1644 C1646 1.384 . S
C1645 C1644 1.377 . S
C1645 C1651 1.390 . S
C1646 H1637 0.930 . S
C1646 C1644 1.384 . S
C1646 C1647 1.372 . S
C1647 C1646 1.372 . S
C1647 C1648 1.400 . S
C1647 C1652 1.490 . S
C1648 H1638 0.930 . S
C1648 C1647 1.400 . S
C1648 C1651 1.386 . S
H1649 C1665 0.930 . S
H1650 C1666 0.931 . S
C1651 H1639 0.929 . S
C1651 C1645 1.390 . S
C1651 C1648 1.386 . S
C1652 C1647 1.490 . S
C1652 C1654 1.395 . S
C1652 C1655 1.403 . S
H1653 C1659 0.930 . S
C1654 H1640 0.930 . S
C1654 C1652 1.395 . S
C1654 C1657 1.403 . S
C1655 C1652 1.403 . S
C1655 C1656 1.524 . S
C1655 C1659 1.400 . S
C1656 H1641 0.960 . S
C1656 H1642 0.960 . S
C1656 H1643 0.960 . S
C1656 C1655 1.524 . S
C1657 C1654 1.403 . S
C1657 C1658 1.392 . S
C1657 C1661 1.495 . S
C1658 C1657 1.392 . S
C1658 C1659 1.385 . S
C1658 C1660 1.478 . S
C1659 H1653 0.930 . S
C1659 C1655 1.400 . S
C1659 C1658 1.385 . S
C1660 C1658 1.478 . S
C1660 C1662 1.381 . S
C1660 C1666 1.383 . S
C1661 C1657 1.495 . S
C1661 H1667 0.959 . S
C1661 H1668 0.961 . S
C1661 H1669 0.960 . S
C1662 C1660 1.381 . S
C1662 C1663 1.394 . S
C1662 H1670 0.930 . S
C1663 C1662 1.394 . S
C1663 C1664 1.383 . S
C1663 H1671 0.929 . S
C1664 C1663 1.383 . S
C1664 C1665 1.377 . S
C1665 H1649 0.930 . S
C1665 C1664 1.377 . S
C1665 C1666 1.379 . S
C1666 H1650 0.931 . S
C1666 C1660 1.383 . S
C1666 C1665 1.379 . S
H1667 C1661 0.959 . S
H1668 C1661 0.961 . S
H1669 C1661 0.960 . S
H1670 C1662 0.930 . S
H1671 C1663 0.929 . S
H1672 C1680 0.929 . S
H1673 C1682 0.930 . S
H1674 C1684 0.930 . S
H1675 C1687 0.929 . S
H1676 C1690 0.930 . S
H1677 C1692 0.960 . S
H1678 C1692 0.960 . S
H1679 C1692 0.960 . S
C1680 H1672 0.929 . S
C1680 C1681 1.377 . S
C1680 C1682 1.384 . S
C1681 C1680 1.377 . S
C1681 C1687 1.390 . S
C1682 H1673 0.930 . S
C1682 C1680 1.384 . S
C1682 C1683 1.372 . S
C1683 C1682 1.372 . S
C1683 C1684 1.400 . S
C1683 C1688 1.490 . S
C1684 H1674 0.930 . S
C1684 C1683 1.400 . S
C1684 C1687 1.386 . S
H1685 C1701 0.930 . S
H1686 C1702 0.931 . S
C1687 H1675 0.929 . S
C1687 C1681 1.390 . S
C1687 C1684 1.386 . S
C1688 C1683 1.490 . S
C1688 C1690 1.395 . S
C1688 C1691 1.403 . S
H1689 C1695 0.930 . S
C1690 H1676 0.930 . S
C1690 C1688 1.395 . S
C1690 C1693 1.403 . S
C1691 C1688 1.403 . S
C1691 C1692 1.524 . S
C1691 C1695 1.400 . S
C1692 H1677 0.960 . S
C1692 H1678 0.960 . S
C1692 H1679 0.960 . S
C1692 C1691 1.524 . S
C1693 C1690 1.403 . S
C1693 C1694 1.392 . S
C1693 C1697 1.495 . S
C1694 C1693 1.392 . S
C1694 C1695 1.385 . S
C1694 C1696 1.478 . S
C1695 H1689 0.930 . S
C1695 C1691 1.400 . S
C1695 C1694 1.385 . S
C1696 C1694 1.478 . S
C1696 C1698 1.381 . S
C1696 C1702 1.383 . S
C1697 C1693 1.495 . S
C1697 H1703 0.959 . S
C1697 H1704 0.961 . S
C1697 H1705 0.960 . S
C1698 C1696 1.381 . S
C1698 C1699 1.394 . S
C1698 H1706 0.930 . S
C1699 C1698 1.394 . S
C1699 C1700 1.383 . S
C1699 H1707 0.929 . S
C1700 C1699 1.383 . S
C1700 C1701 1.377 . S
C1701 H1685 0.930 . S
C1701 C1700 1.377 . S
C1701 C1702 1.379 . S
C1702 H1686 0.931 . S
C1702 C1696 1.383 . S
C1702 C1701 1.379 . S
H1703 C1697 0.959 . S
H1704 C1697 0.961 . S
H1705 C1697 0.960 . S
H1706 C1698 0.930 . S
H1707 C1699 0.929 . S
H1708 C1716 0.929 . S
H1709 C1718 0.930 . S
H1710 C1720 0.930 . S
H1711 C1723 0.929 . S
H1712 C1726 0.930 . S
H1713 C1728 0.960 . S
H1714 C1728 0.960 . S
H1715 C1728 0.960 . S
C1716 H1708 0.929 . S
C1716 C1717 1.377 . S
C1716 C1718 1.384 . S
C1717 C1716 1.377 . S
C1717 C1723 1.390 . S
C1718 H1709 0.930 . S
C1718 C1716 1.384 . S
C1718 C1719 1.372 . S
C1719 C1718 1.372 . S
C1719 C1720 1.400 . S
C1719 C1724 1.490 . S
C1720 H1710 0.930 . S
C1720 C1719 1.400 . S
C1720 C1723 1.386 . S
H1721 C1737 0.930 . S
H1722 C1738 0.931 . S
C1723 H1711 0.929 . S
C1723 C1717 1.390 . S
C1723 C1720 1.386 . S
C1724 C1719 1.490 . S
C1724 C1726 1.395 . S
C1724 C1727 1.403 . S
H1725 C1731 0.930 . S
C1726 H1712 0.930 . S
C1726 C1724 1.395 . S
C1726 C1729 1.403 . S
C1727 C1724 1.403 . S
C1727 C1728 1.524 . S
C1727 C1731 1.400 . S
C1728 H1713 0.960 . S
C1728 H1714 0.960 . S
C1728 H1715 0.960 . S
C1728 C1727 1.524 . S
C1729 C1726 1.403 . S
C1729 C1730 1.392 . S
C1729 C1733 1.495 1_655 S
C1730 C1729 1.392 . S
C1730 C1731 1.385 . S
C1730 C1732 1.478 . S
C1731 H1725 0.930 . S
C1731 C1727 1.400 . S
C1731 C1730 1.385 . S
C1732 C1730 1.478 . S
C1732 C1734 1.381 . S
C1732 C1738 1.383 . S
C1733 C1729 1.495 1_455 S
C1733 H1739 0.959 . S
C1733 H1740 0.961 . S
C1733 H1741 0.960 . S
C1734 C1732 1.381 . S
C1734 C1735 1.394 . S
C1734 H1742 0.930 . S
C1735 C1734 1.394 . S
C1735 C1736 1.383 . S
C1735 H1743 0.929 . S
C1736 C1735 1.383 . S
C1736 C1737 1.377 . S
C1737 H1721 0.930 . S
C1737 C1736 1.377 . S
C1737 C1738 1.379 . S
C1738 H1722 0.931 . S
C1738 C1732 1.383 . S
C1738 C1737 1.379 . S
H1739 C1733 0.959 . S
H1740 C1733 0.961 . S
H1741 C1733 0.960 . S
H1742 C1734 0.930 . S
H1743 C1735 0.929 . S
H1744 C1752 0.929 . S
H1745 C1754 0.930 . S
H1746 C1756 0.930 . S
H1747 C1759 0.929 . S
H1748 C1762 0.930 . S
H1749 C1764 0.960 . S
H1750 C1764 0.960 . S
H1751 C1764 0.960 . S
C1752 H1744 0.929 . S
C1752 C1753 1.377 . S
C1752 C1754 1.384 . S
C1753 C1752 1.377 . S
C1753 C1759 1.390 . S
C1754 H1745 0.930 . S
C1754 C1752 1.384 . S
C1754 C1755 1.372 . S
C1755 C1754 1.372 . S
C1755 C1756 1.400 . S
C1755 C1760 1.490 . S
C1756 H1746 0.930 . S
C1756 C1755 1.400 . S
C1756 C1759 1.386 . S
H1757 C1773 0.930 . S
H1758 C1774 0.931 . S
C1759 H1747 0.929 . S
C1759 C1753 1.390 . S
C1759 C1756 1.386 . S
C1760 C1755 1.490 . S
C1760 C1762 1.395 . S
C1760 C1763 1.403 . S
H1761 C1767 0.930 . S
C1762 H1748 0.930 . S
C1762 C1760 1.395 . S
C1762 C1765 1.403 . S
C1763 C1760 1.403 . S
C1763 C1764 1.524 . S
C1763 C1767 1.400 . S
C1764 H1749 0.960 . S
C1764 H1750 0.960 . S
C1764 H1751 0.960 . S
C1764 C1763 1.524 . S
C1765 C1762 1.403 . S
C1765 C1766 1.392 . S
C1765 C1769 1.495 . S
C1766 C1765 1.392 . S
C1766 C1767 1.385 . S
C1766 C1768 1.478 . S
C1767 H1761 0.930 . S
C1767 C1763 1.400 . S
C1767 C1766 1.385 . S
C1768 C1766 1.478 . S
C1768 C1770 1.381 . S
C1768 C1774 1.383 . S
C1769 C1765 1.495 . S
C1769 H1775 0.959 . S
C1769 H1776 0.961 . S
C1769 H1777 0.960 . S
C1770 C1768 1.381 . S
C1770 C1771 1.394 . S
C1770 H1778 0.930 . S
C1771 C1770 1.394 . S
C1771 C1772 1.383 . S
C1771 H1779 0.929 . S
C1772 C1771 1.383 . S
C1772 C1773 1.377 . S
C1773 H1757 0.930 . S
C1773 C1772 1.377 . S
C1773 C1774 1.379 . S
C1774 H1758 0.931 . S
C1774 C1768 1.383 . S
C1774 C1773 1.379 . S
H1775 C1769 0.959 . S
H1776 C1769 0.961 . S
H1777 C1769 0.960 . S
H1778 C1770 0.930 . S
H1779 C1771 0.929 . S
H1780 C1788 0.929 . S
H1781 C1790 0.930 . S
H1782 C1792 0.930 . S
H1783 C1795 0.929 . S
H1784 C1798 0.930 . S
H1785 C1800 0.960 . S
H1786 C1800 0.960 1_655 S
H1787 C1800 0.960 . S
C1788 H1780 0.929 . S
C1788 C1789 1.377 . S
C1788 C1790 1.384 . S
C1789 C1788 1.377 . S
C1789 C1795 1.390 . S
C1790 H1781 0.930 . S
C1790 C1788 1.384 . S
C1790 C1791 1.372 . S
C1791 C1790 1.372 . S
C1791 C1792 1.400 . S
C1791 C1796 1.490 . S
C1792 H1782 0.930 . S
C1792 C1791 1.400 . S
C1792 C1795 1.386 . S
H1793 C1809 0.930 . S
H1794 C1810 0.931 . S
C1795 H1783 0.929 . S
C1795 C1789 1.390 . S
C1795 C1792 1.386 . S
C1796 C1791 1.490 . S
C1796 C1798 1.395 . S
C1796 C1799 1.403 . S
H1797 C1803 0.930 . S
C1798 H1784 0.930 . S
C1798 C1796 1.395 . S
C1798 C1801 1.403 . S
C1799 C1796 1.403 . S
C1799 C1800 1.524 . S
C1799 C1803 1.400 . S
C1800 H1785 0.960 . S
C1800 H1786 0.960 1_455 S
C1800 H1787 0.960 . S
C1800 C1799 1.524 . S
C1801 C1798 1.403 . S
C1801 C1802 1.392 . S
C1801 C1805 1.495 . S
C1802 C1801 1.392 . S
C1802 C1803 1.385 . S
C1802 C1804 1.478 . S
C1803 H1797 0.930 . S
C1803 C1799 1.400 . S
C1803 C1802 1.385 . S
C1804 C1802 1.478 . S
C1804 C1806 1.381 . S
C1804 C1810 1.383 . S
C1805 C1801 1.495 . S
C1805 H1811 0.959 . S
C1805 H1812 0.961 . S
C1805 H1813 0.960 . S
C1806 C1804 1.381 . S
C1806 C1807 1.394 . S
C1806 H1814 0.930 . S
C1807 C1806 1.394 . S
C1807 C1808 1.383 . S
C1807 H1815 0.929 . S
C1808 C1807 1.383 . S
C1808 C1809 1.377 . S
C1809 H1793 0.930 . S
C1809 C1808 1.377 . S
C1809 C1810 1.379 . S
C1810 H1794 0.931 . S
C1810 C1804 1.383 . S
C1810 C1809 1.379 . S
H1811 C1805 0.959 . S
H1812 C1805 0.961 . S
H1813 C1805 0.960 . S
H1814 C1806 0.930 . S
H1815 C1807 0.929 . S
H1816 C1824 0.929 . S
H1817 C1826 0.930 . S
H1818 C1828 0.930 . S
H1819 C1831 0.929 . S
H1820 C1834 0.930 . S
H1821 C1836 0.960 . S
H1822 C1836 0.960 . S
H1823 C1836 0.960 . S
C1824 H1816 0.929 . S
C1824 C1825 1.377 . S
C1824 C1826 1.384 . S
C1825 C1824 1.377 . S
C1825 C1831 1.390 . S
C1826 H1817 0.930 . S
C1826 C1824 1.384 . S
C1826 C1827 1.372 . S
C1827 C1826 1.372 . S
C1827 C1828 1.400 . S
C1827 C1832 1.490 . S
C1828 H1818 0.930 . S
C1828 C1827 1.400 . S
C1828 C1831 1.386 . S
H1829 C1845 0.930 . S
H1830 C1846 0.931 . S
C1831 H1819 0.929 . S
C1831 C1825 1.390 . S
C1831 C1828 1.386 . S
C1832 C1827 1.490 . S
C1832 C1834 1.395 . S
C1832 C1835 1.403 . S
H1833 C1839 0.930 . S
C1834 H1820 0.930 . S
C1834 C1832 1.395 . S
C1834 C1837 1.403 . S
C1835 C1832 1.403 . S
C1835 C1836 1.524 . S
C1835 C1839 1.400 . S
C1836 H1821 0.960 . S
C1836 H1822 0.960 . S
C1836 H1823 0.960 . S
C1836 C1835 1.524 . S
C1837 C1834 1.403 . S
C1837 C1838 1.392 . S
C1837 C1841 1.495 . S
C1838 C1837 1.392 . S
C1838 C1839 1.385 . S
C1838 C1840 1.478 . S
C1839 H1833 0.930 . S
C1839 C1835 1.400 . S
C1839 C1838 1.385 . S
C1840 C1838 1.478 . S
C1840 C1842 1.381 . S
C1840 C1846 1.383 . S
C1841 C1837 1.495 . S
C1841 H1847 0.959 . S
C1841 H1848 0.961 . S
C1841 H1849 0.960 . S
C1842 C1840 1.381 . S
C1842 C1843 1.394 . S
C1842 H1850 0.930 . S
C1843 C1842 1.394 . S
C1843 C1844 1.383 . S
C1843 H1851 0.929 . S
C1844 C1843 1.383 . S
C1844 C1845 1.377 . S
C1845 H1829 0.930 . S
C1845 C1844 1.377 . S
C1845 C1846 1.379 . S
C1846 H1830 0.931 . S
C1846 C1840 1.383 . S
C1846 C1845 1.379 . S
H1847 C1841 0.959 . S
H1848 C1841 0.961 . S
H1849 C1841 0.960 . S
H1850 C1842 0.930 . S
H1851 C1843 0.929 . S
H1852 C1860 0.929 . S
H1853 C1862 0.930 . S
H1854 C1864 0.930 . S
H1855 C1867 0.929 . S
H1856 C1870 0.930 . S
H1857 C1872 0.960 . S
H1858 C1872 0.960 . S
H1859 C1872 0.960 . S
C1860 H1852 0.929 . S
C1860 C1861 1.377 . S
C1860 C1862 1.384 . S
C1861 C1860 1.377 . S
C1861 C1867 1.390 . S
C1862 H1853 0.930 . S
C1862 C1860 1.384 . S
C1862 C1863 1.372 . S
C1863 C1862 1.372 . S
C1863 C1864 1.400 . S
C1863 C1868 1.490 . S
C1864 H1854 0.930 . S
C1864 C1863 1.400 . S
C1864 C1867 1.386 . S
H1865 C1881 0.930 . S
H1866 C1882 0.931 . S
C1867 H1855 0.929 . S
C1867 C1861 1.390 . S
C1867 C1864 1.386 . S
C1868 C1863 1.490 . S
C1868 C1870 1.395 . S
C1868 C1871 1.403 . S
H1869 C1875 0.930 . S
C1870 H1856 0.930 . S
C1870 C1868 1.395 . S
C1870 C1873 1.403 . S
C1871 C1868 1.403 . S
C1871 C1872 1.524 . S
C1871 C1875 1.400 . S
C1872 H1857 0.960 . S
C1872 H1858 0.960 . S
C1872 H1859 0.960 . S
C1872 C1871 1.524 . S
C1873 C1870 1.403 . S
C1873 C1874 1.392 . S
C1873 C1877 1.495 1_455 S
C1874 C1873 1.392 . S
C1874 C1875 1.385 . S
C1874 C1876 1.478 . S
C1875 H1869 0.930 . S
C1875 C1871 1.400 . S
C1875 C1874 1.385 . S
C1876 C1874 1.478 . S
C1876 C1878 1.381 . S
C1876 C1882 1.383 . S
C1877 C1873 1.495 1_655 S
C1877 H1883 0.959 . S
C1877 H1884 0.961 . S
C1877 H1885 0.960 . S
C1878 C1876 1.381 . S
C1878 C1879 1.394 . S
C1878 H1886 0.930 . S
C1879 C1878 1.394 . S
C1879 C1880 1.383 . S
C1879 H1887 0.929 . S
C1880 C1879 1.383 . S
C1880 C1881 1.377 . S
C1881 H1865 0.930 . S
C1881 C1880 1.377 . S
C1881 C1882 1.379 . S
C1882 H1866 0.931 . S
C1882 C1876 1.383 . S
C1882 C1881 1.379 . S
H1883 C1877 0.959 . S
H1884 C1877 0.961 . S
H1885 C1877 0.960 . S
H1886 C1878 0.930 . S
H1887 C1879 0.929 . S
H1888 C1896 0.929 . S
H1889 C1898 0.930 . S
H1890 C1900 0.930 . S
H1891 C1903 0.929 . S
H1892 C1906 0.930 . S
H1893 C1908 0.960 . S
H1894 C1908 0.960 . S
H1895 C1908 0.960 . S
C1896 H1888 0.929 . S
C1896 C1897 1.377 . S
C1896 C1898 1.384 . S
C1897 C1896 1.377 . S
C1897 C1903 1.390 . S
C1898 H1889 0.930 . S
C1898 C1896 1.384 . S
C1898 C1899 1.372 . S
C1899 C1898 1.372 . S
C1899 C1900 1.400 . S
C1899 C1904 1.490 . S
C1900 H1890 0.930 . S
C1900 C1899 1.400 . S
C1900 C1903 1.386 . S
H1901 C1917 0.930 . S
H1902 C1918 0.931 . S
C1903 H1891 0.929 . S
C1903 C1897 1.390 . S
C1903 C1900 1.386 . S
C1904 C1899 1.490 . S
C1904 C1906 1.395 . S
C1904 C1907 1.403 . S
H1905 C1911 0.930 . S
C1906 H1892 0.930 . S
C1906 C1904 1.395 . S
C1906 C1909 1.403 . S
C1907 C1904 1.403 . S
C1907 C1908 1.524 . S
C1907 C1911 1.400 . S
C1908 H1893 0.960 . S
C1908 H1894 0.960 . S
C1908 H1895 0.960 . S
C1908 C1907 1.524 . S
C1909 C1906 1.403 . S
C1909 C1910 1.392 . S
C1909 C1913 1.495 . S
C1910 C1909 1.392 . S
C1910 C1911 1.385 . S
C1910 C1912 1.478 . S
C1911 H1905 0.930 . S
C1911 C1907 1.400 . S
C1911 C1910 1.385 . S
C1912 C1910 1.478 . S
C1912 C1914 1.381 . S
C1912 C1918 1.383 . S
C1913 C1909 1.495 . S
C1913 H1919 0.959 . S
C1913 H1920 0.961 . S
C1913 H1921 0.960 . S
C1914 C1912 1.381 . S
C1914 C1915 1.394 . S
C1914 H1922 0.930 . S
C1915 C1914 1.394 . S
C1915 C1916 1.383 . S
C1915 H1923 0.929 . S
C1916 C1915 1.383 . S
C1916 C1917 1.377 . S
C1917 H1901 0.930 . S
C1917 C1916 1.377 . S
C1917 C1918 1.379 . S
C1918 H1902 0.931 . S
C1918 C1912 1.383 . S
C1918 C1917 1.379 . S
H1919 C1913 0.959 . S
H1920 C1913 0.961 . S
H1921 C1913 0.960 . S
H1922 C1914 0.930 . S
H1923 C1915 0.929 . S
H1924 C1932 0.929 . S
H1925 C1934 0.930 . S
H1926 C1936 0.930 . S
H1927 C1939 0.929 . S
H1928 C1942 0.930 . S
H1929 C1944 0.960 . S
H1930 C1944 0.960 . S
H1931 C1944 0.960 . S
C1932 H1924 0.929 . S
C1932 C1933 1.377 . S
C1932 C1934 1.384 . S
C1933 C1932 1.377 . S
C1933 C1939 1.390 . S
C1934 H1925 0.930 . S
C1934 C1932 1.384 . S
C1934 C1935 1.372 . S
C1935 C1934 1.372 . S
C1935 C1936 1.400 . S
C1935 C1940 1.490 . S
C1936 H1926 0.930 . S
C1936 C1935 1.400 . S
C1936 C1939 1.386 . S
H1937 C1953 0.930 . S
H1938 C1954 0.931 . S
C1939 H1927 0.929 . S
C1939 C1933 1.390 . S
C1939 C1936 1.386 . S
C1940 C1935 1.490 . S
C1940 C1942 1.395 . S
C1940 C1943 1.403 . S
H1941 C1947 0.930 . S
C1942 H1928 0.930 . S
C1942 C1940 1.395 . S
C1942 C1945 1.403 . S
C1943 C1940 1.403 . S
C1943 C1944 1.524 . S
C1943 C1947 1.400 . S
C1944 H1929 0.960 . S
C1944 H1930 0.960 . S
C1944 H1931 0.960 . S
C1944 C1943 1.524 . S
C1945 C1942 1.403 . S
C1945 C1946 1.392 . S
C1945 C1949 1.495 . S
C1946 C1945 1.392 . S
C1946 C1947 1.385 . S
C1946 C1948 1.478 . S
C1947 H1941 0.930 . S
C1947 C1943 1.400 . S
C1947 C1946 1.385 . S
C1948 C1946 1.478 . S
C1948 C1950 1.381 . S
C1948 C1954 1.383 . S
C1949 C1945 1.495 . S
C1949 H1955 0.959 . S
C1949 H1956 0.961 . S
C1949 H1957 0.960 1_655 S
C1950 C1948 1.381 . S
C1950 C1951 1.394 . S
C1950 H1958 0.942 . S
C1951 C1950 1.394 . S
C1951 C1952 1.383 . S
C1951 H1959 0.929 1_655 S
C1952 C1951 1.383 . S
C1952 C1953 1.377 . S
C1953 H1937 0.930 . S
C1953 C1952 1.377 . S
C1953 C1954 1.379 . S
C1954 H1938 0.931 . S
C1954 C1948 1.383 . S
C1954 C1953 1.379 . S
H1955 C1949 0.959 . S
H1956 C1949 0.961 . S
H1957 C1949 0.960 1_455 S
H1958 C1950 0.942 . S
H1959 C1951 0.929 1_455 S
H1960 C1968 0.929 . S
H1961 C1970 0.930 . S
H1962 C1972 0.930 . S
H1963 C1975 0.929 . S
H1964 C1978 0.930 . S
H1965 C1980 0.960 . S
H1966 C1980 0.960 . S
H1967 C1980 0.960 . S
C1968 H1960 0.929 . S
C1968 C1969 1.377 . S
C1968 C1970 1.384 . S
C1969 C1968 1.377 . S
C1969 C1975 1.390 . S
C1970 H1961 0.930 . S
C1970 C1968 1.384 . S
C1970 C1971 1.372 . S
C1971 C1970 1.372 . S
C1971 C1972 1.400 . S
C1971 C1976 1.490 . S
C1972 H1962 0.930 . S
C1972 C1971 1.400 . S
C1972 C1975 1.386 . S
H1973 C1989 0.930 . S
H1974 C1990 0.931 . S
C1975 H1963 0.929 . S
C1975 C1969 1.390 . S
C1975 C1972 1.386 . S
C1976 C1971 1.490 . S
C1976 C1978 1.395 . S
C1976 C1979 1.403 . S
H1977 C1983 0.930 . S
C1978 H1964 0.930 . S
C1978 C1976 1.395 . S
C1978 C1981 1.403 . S
C1979 C1976 1.403 . S
C1979 C1980 1.524 . S
C1979 C1983 1.400 . S
C1980 H1965 0.960 . S
C1980 H1966 0.960 . S
C1980 H1967 0.960 . S
C1980 C1979 1.524 . S
C1981 C1978 1.403 . S
C1981 C1982 1.392 . S
C1981 C1985 1.495 . S
C1982 C1981 1.392 . S
C1982 C1983 1.385 . S
C1982 C1984 1.478 . S
C1983 H1977 0.930 . S
C1983 C1979 1.400 . S
C1983 C1982 1.385 . S
C1984 C1982 1.478 . S
C1984 C1986 1.381 . S
C1984 C1990 1.383 . S
C1985 C1981 1.495 . S
C1985 H1991 0.959 . S
C1985 H1992 0.961 . S
C1985 H1993 0.960 . S
C1986 C1984 1.381 . S
C1986 C1987 1.394 . S
C1986 H1994 0.930 . S
C1987 C1986 1.394 . S
C1987 C1988 1.383 . S
C1987 H1995 0.929 . S
C1988 C1987 1.383 . S
C1988 C1989 1.377 . S
C1989 H1973 0.930 . S
C1989 C1988 1.377 . S
C1989 C1990 1.379 . S
C1990 H1974 0.931 . S
C1990 C1984 1.383 . S
C1990 C1989 1.379 . S
H1991 C1985 0.959 . S
H1992 C1985 0.961 . S
H1993 C1985 0.960 . S
H1994 C1986 0.930 . S
H1995 C1987 0.929 . S
H1996 C2004 0.929 . S
H1997 C2006 0.930 . S
H1998 C2008 0.930 . S
H1999 C2011 0.929 . S
H2000 C2014 0.930 . S
H2001 C2016 0.960 . S
H2002 C2016 0.960 . S
H2003 C2016 0.960 . S
C2004 H1996 0.929 . S
C2004 C2005 1.377 . S
C2004 C2006 1.384 . S
C2005 C2004 1.377 . S
C2005 C2011 1.390 . S
C2006 H1997 0.930 . S
C2006 C2004 1.384 . S
C2006 C2007 1.372 . S
C2007 C2006 1.372 . S
C2007 C2008 1.400 . S
C2007 C2012 1.490 . S
C2008 H1998 0.930 . S
C2008 C2007 1.400 . S
C2008 C2011 1.386 . S
H2009 C2025 0.930 . S
H2010 C2026 0.931 . S
C2011 H1999 0.929 . S
C2011 C2005 1.390 . S
C2011 C2008 1.386 . S
C2012 C2007 1.490 . S
C2012 C2014 1.395 . S
C2012 C2015 1.403 . S
H2013 C2019 0.930 . S
C2014 H2000 0.930 . S
C2014 C2012 1.395 . S
C2014 C2017 1.403 . S
C2015 C2012 1.403 . S
C2015 C2016 1.524 . S
C2015 C2019 1.400 . S
C2016 H2001 0.960 . S
C2016 H2002 0.960 . S
C2016 H2003 0.960 . S
C2016 C2015 1.524 . S
C2017 C2014 1.403 . S
C2017 C2018 1.392 . S
C2017 C2021 1.495 . S
C2018 C2017 1.392 . S
C2018 C2019 1.385 . S
C2018 C2020 1.478 . S
C2019 H2013 0.930 . S
C2019 C2015 1.400 . S
C2019 C2018 1.385 . S
C2020 C2018 1.478 . S
C2020 C2022 1.381 . S
C2020 C2026 1.383 . S
C2021 C2017 1.495 . S
C2021 H2027 0.959 . S
C2021 H2028 0.961 . S
C2021 H2029 0.960 . S
C2022 C2020 1.381 . S
C2022 C2023 1.394 . S
C2022 H2030 0.930 . S
C2023 C2022 1.394 . S
C2023 C2024 1.383 . S
C2023 H2031 0.929 . S
C2024 C2023 1.383 . S
C2024 C2025 1.377 . S
C2025 H2009 0.930 . S
C2025 C2024 1.377 . S
C2025 C2026 1.379 . S
C2026 H2010 0.931 . S
C2026 C2020 1.383 . S
C2026 C2025 1.379 . S
H2027 C2021 0.959 . S
H2028 C2021 0.961 . S
H2029 C2021 0.960 . S
H2030 C2022 0.930 . S
H2031 C2023 0.929 . S
H2032 C2040 0.929 . S
H2033 C2042 0.930 . S
H2034 C2044 0.930 . S
H2035 C2047 0.929 . S
H2036 C2050 0.930 . S
H2037 C2052 0.960 . S
H2038 C2052 0.960 . S
H2039 C2052 0.960 . S
C2040 H2032 0.929 . S
C2040 C2041 1.377 . S
C2040 C2042 1.384 . S
C2041 C2040 1.377 . S
C2041 C2047 1.390 . S
C2042 H2033 0.930 . S
C2042 C2040 1.384 . S
C2042 C2043 1.372 . S
C2043 C2042 1.372 . S
C2043 C2044 1.400 . S
C2043 C2048 1.490 . S
C2044 H2034 0.930 . S
C2044 C2043 1.400 . S
C2044 C2047 1.386 . S
H2045 C2061 0.930 . S
H2046 C2062 0.931 . S
C2047 H2035 0.929 . S
C2047 C2041 1.390 . S
C2047 C2044 1.386 . S
C2048 C2043 1.490 . S
C2048 C2050 1.395 . S
C2048 C2051 1.403 . S
H2049 C2055 0.930 . S
C2050 H2036 0.930 . S
C2050 C2048 1.395 . S
C2050 C2053 1.403 . S
C2051 C2048 1.403 . S
C2051 C2052 1.524 . S
C2051 C2055 1.400 . S
C2052 H2037 0.960 . S
C2052 H2038 0.960 . S
C2052 H2039 0.960 . S
C2052 C2051 1.524 . S
C2053 C2050 1.403 . S
C2053 C2054 1.392 . S
C2053 C2057 1.495 . S
C2054 C2053 1.392 . S
C2054 C2055 1.385 . S
C2054 C2056 1.478 . S
C2055 H2049 0.930 . S
C2055 C2051 1.400 . S
C2055 C2054 1.385 . S
C2056 C2054 1.478 . S
C2056 C2058 1.381 . S
C2056 C2062 1.383 . S
C2057 C2053 1.495 . S
C2057 H2063 0.959 . S
C2057 H2064 0.961 . S
C2057 H2065 0.960 . S
C2058 C2056 1.381 . S
C2058 C2059 1.394 . S
C2058 H2066 0.930 . S
C2059 C2058 1.394 . S
C2059 C2060 1.383 . S
C2059 H2067 0.929 . S
C2060 C2059 1.383 . S
C2060 C2061 1.377 . S
C2061 H2045 0.930 . S
C2061 C2060 1.377 . S
C2061 C2062 1.379 . S
C2062 H2046 0.931 . S
C2062 C2056 1.383 . S
C2062 C2061 1.379 . S
H2063 C2057 0.959 . S
H2064 C2057 0.961 . S
H2065 C2057 0.960 . S
H2066 C2058 0.930 . S
H2067 C2059 0.929 . S
H2068 C2076 0.929 1_655 S
H2069 C2078 0.930 . S
H2070 C2080 0.930 . S
H2071 C2083 0.929 . S
H2072 C2086 0.930 . S
H2073 C2088 0.960 . S
H2074 C2088 0.960 . S
H2075 C2088 0.960 . S
C2076 H2068 0.929 1_455 S
C2076 C2077 1.377 . S
C2076 C2078 1.384 . S
C2077 C2076 1.377 . S
C2077 C2083 1.390 . S
C2078 H2069 0.930 . S
C2078 C2076 1.384 . S
C2078 C2079 1.372 . S
C2079 C2078 1.372 . S
C2079 C2080 1.400 . S
C2079 C2084 1.490 . S
C2080 H2070 0.930 . S
C2080 C2079 1.400 . S
C2080 C2083 1.386 . S
H2081 C2097 0.930 . S
H2082 C2098 0.931 . S
C2083 H2071 0.929 . S
C2083 C2077 1.390 . S
C2083 C2080 1.386 . S
C2084 C2079 1.490 . S
C2084 C2086 1.395 . S
C2084 C2087 1.403 . S
H2085 C2091 0.930 . S
C2086 H2072 0.930 . S
C2086 C2084 1.395 . S
C2086 C2089 1.403 . S
C2087 C2084 1.403 . S
C2087 C2088 1.524 . S
C2087 C2091 1.400 . S
C2088 H2073 0.960 . S
C2088 H2074 0.960 . S
C2088 H2075 0.960 . S
C2088 C2087 1.524 . S
C2089 C2086 1.403 . S
C2089 C2090 1.392 . S
C2089 C2093 1.495 . S
C2090 C2089 1.392 . S
C2090 C2091 1.385 . S
C2090 C2092 1.478 . S
C2091 H2085 0.930 . S
C2091 C2087 1.400 . S
C2091 C2090 1.385 . S
C2092 C2090 1.478 . S
C2092 C2094 1.381 . S
C2092 C2098 1.383 . S
C2093 C2089 1.495 . S
C2093 H2099 0.959 . S
C2093 H2100 0.961 . S
C2093 H2101 0.960 . S
C2094 C2092 1.381 . S
C2094 C2095 1.394 . S
C2094 H2102 0.930 . S
C2095 C2094 1.394 . S
C2095 C2096 1.383 . S
C2095 H2103 0.929 . S
C2096 C2095 1.383 . S
C2096 C2097 1.377 . S
C2097 H2081 0.930 . S
C2097 C2096 1.377 . S
C2097 C2098 1.379 . S
C2098 H2082 0.931 . S
C2098 C2092 1.383 . S
C2098 C2097 1.379 . S
H2099 C2093 0.959 . S
H2100 C2093 0.961 . S
H2101 C2093 0.960 . S
H2102 C2094 0.930 . S
H2103 C2095 0.929 . S
H2104 C2112 0.929 . S
H2105 C2114 0.930 . S
H2106 C2116 0.930 . S
H2107 C2119 0.929 . S
H2108 C2122 0.930 . S
H2109 C2124 0.960 . S
H2110 C2124 0.960 . S
H2111 C2124 0.960 . S
C2112 H2104 0.929 . S
C2112 C2113 1.377 . S
C2112 C2114 1.384 . S
C2113 C2112 1.377 . S
C2113 C2119 1.390 . S
C2114 H2105 0.930 . S
C2114 C2112 1.384 . S
C2114 C2115 1.372 . S
C2115 C2114 1.372 . S
C2115 C2116 1.400 . S
C2115 C2120 1.490 . S
C2116 H2106 0.930 . S
C2116 C2115 1.400 . S
C2116 C2119 1.386 . S
H2117 C2133 0.930 . S
H2118 C2134 0.931 . S
C2119 H2107 0.929 . S
C2119 C2113 1.390 . S
C2119 C2116 1.386 . S
C2120 C2115 1.490 . S
C2120 C2122 1.395 . S
C2120 C2123 1.403 . S
H2121 C2127 0.930 . S
C2122 H2108 0.930 . S
C2122 C2120 1.395 . S
C2122 C2125 1.403 . S
C2123 C2120 1.403 . S
C2123 C2124 1.524 . S
C2123 C2127 1.400 . S
C2124 H2109 0.960 . S
C2124 H2110 0.960 . S
C2124 H2111 0.960 . S
C2124 C2123 1.524 . S
C2125 C2122 1.403 . S
C2125 C2126 1.392 . S
C2125 C2129 1.495 . S
C2126 C2125 1.392 . S
C2126 C2127 1.385 . S
C2126 C2128 1.478 . S
C2127 H2121 0.930 . S
C2127 C2123 1.400 . S
C2127 C2126 1.385 . S
C2128 C2126 1.478 . S
C2128 C2130 1.381 . S
C2128 C2134 1.383 . S
C2129 C2125 1.495 . S
C2129 H2135 0.959 . S
C2129 H2136 0.961 . S
C2129 H2137 0.960 . S
C2130 C2128 1.381 . S
C2130 C2131 1.394 . S
C2130 H2138 0.930 . S
C2131 C2130 1.394 . S
C2131 C2132 1.383 . S
C2131 H2139 0.929 . S
C2132 C2131 1.383 . S
C2132 C2133 1.377 . S
C2133 H2117 0.930 . S
C2133 C2132 1.377 . S
C2133 C2134 1.379 . S
C2134 H2118 0.931 . S
C2134 C2128 1.383 . S
C2134 C2133 1.379 . S
H2135 C2129 0.959 . S
H2136 C2129 0.961 . S
H2137 C2129 0.960 . S
H2138 C2130 0.930 . S
H2139 C2131 0.929 . S
H2140 C2148 0.929 . S
H2141 C2150 0.930 . S
H2142 C2152 0.930 . S
H2143 C2155 0.929 1_655 S
H2144 C2158 0.930 . S
H2145 C2160 0.960 . S
H2146 C2160 0.960 . S
H2147 C2160 0.960 1_655 S
C2148 H2140 0.929 . S
C2148 C2149 1.377 . S
C2148 C2150 1.384 . S
C2149 C2148 1.377 . S
C2149 C2155 1.390 . S
C2150 H2141 0.930 . S
C2150 C2148 1.384 . S
C2150 C2151 1.372 . S
C2151 C2150 1.372 . S
C2151 C2152 1.400 . S
C2151 C2156 1.490 . S
C2152 H2142 0.930 . S
C2152 C2151 1.400 . S
C2152 C2155 1.386 . S
H2153 C2169 0.930 . S
H2154 C2170 0.931 . S
C2155 H2143 0.929 1_455 S
C2155 C2149 1.390 . S
C2155 C2152 1.386 . S
C2156 C2151 1.490 . S
C2156 C2158 1.395 . S
C2156 C2159 1.403 . S
H2157 C2163 0.930 . S
C2158 H2144 0.930 . S
C2158 C2156 1.395 . S
C2158 C2161 1.403 . S
C2159 C2156 1.403 . S
C2159 C2160 1.524 . S
C2159 C2163 1.400 . S
C2160 H2145 0.960 . S
C2160 H2146 0.960 . S
C2160 H2147 0.960 1_455 S
C2160 C2159 1.524 . S
C2161 C2158 1.403 . S
C2161 C2162 1.392 . S
C2161 C2165 1.495 . S
C2162 C2161 1.392 . S
C2162 C2163 1.385 . S
C2162 C2164 1.478 . S
C2163 H2157 0.930 . S
C2163 C2159 1.400 . S
C2163 C2162 1.385 . S
C2164 C2162 1.478 . S
C2164 C2166 1.381 . S
C2164 C2170 1.383 . S
C2165 C2161 1.495 . S
C2165 H2171 0.959 . S
C2165 H2172 0.961 . S
C2165 H2173 0.960 . S
C2166 C2164 1.381 . S
C2166 C2167 1.394 . S
C2166 H2174 0.930 . S
C2167 C2166 1.394 . S
C2167 C2168 1.383 . S
C2167 H2175 0.929 . S
C2168 C2167 1.383 . S
C2168 C2169 1.377 . S
C2169 H2153 0.930 . S
C2169 C2168 1.377 . S
C2169 C2170 1.379 . S
C2170 H2154 0.931 . S
C2170 C2164 1.383 . S
C2170 C2169 1.379 . S
H2171 C2165 0.959 . S
H2172 C2165 0.961 . S
H2173 C2165 0.960 . S
H2174 C2166 0.930 . S
H2175 C2167 0.929 . S
H2176 C2184 0.929 . S
H2177 C2186 0.930 . S
H2178 C2188 0.930 . S
H2179 C2191 0.929 1_655 S
H2180 C2194 0.930 . S
H2181 C2196 0.960 1_655 S
H2182 C2196 0.960 . S
H2183 C2196 0.960 1_654 S
C2184 H2176 0.929 . S
C2184 C2185 1.377 1_556 S
C2184 C2186 1.384 . S
C2185 C2184 1.377 1_554 S
C2185 C2191 1.390 . S
C2186 H2177 0.930 . S
C2186 C2184 1.384 . S
C2186 C2187 1.351 1_556 S
C2187 C2186 1.351 1_554 S
C2187 C2188 1.421 . S
C2187 C2192 1.490 . S
C2188 H2178 0.930 . S
C2188 C2187 1.421 . S
C2188 C2191 1.386 . S
H2189 C2205 0.930 . S
H2190 C2206 0.931 . S
C2191 H2179 0.929 1_455 S
C2191 C2185 1.390 . S
C2191 C2188 1.386 . S
C2192 C2187 1.490 . S
C2192 C2194 1.403 . S
C2192 C2195 1.395 1_554 S
H2193 C2199 0.930 . S
C2194 H2180 0.930 . S
C2194 C2192 1.403 . S
C2194 C2197 1.403 . S
C2195 C2192 1.395 1_556 S
C2195 C2196 1.524 . S
C2195 C2199 1.400 . S
C2196 H2181 0.960 1_455 S
C2196 H2182 0.960 . S
C2196 H2183 0.960 1_456 S
C2196 C2195 1.524 . S
C2197 C2194 1.403 . S
C2197 C2198 1.392 . S
C2197 C2201 1.495 . S
C2198 C2197 1.392 . S
C2198 C2199 1.385 1_554 S
C2198 C2200 1.478 . S
C2199 H2193 0.930 . S
C2199 C2195 1.400 . S
C2199 C2198 1.385 1_556 S
C2200 C2198 1.478 . S
C2200 C2202 1.381 1_554 S
C2200 C2206 1.383 . S
C2201 C2197 1.495 . S
C2201 H2207 0.959 . S
C2201 H2208 0.961 . S
C2201 H2209 0.912 1_554 S
C2202 C2200 1.381 1_556 S
C2202 C2203 1.394 . S
C2202 H2210 0.930 . S
C2203 C2202 1.394 . S
C2203 C2204 1.383 1_556 S
C2203 H2211 0.929 . S
C2204 C2203 1.383 1_554 S
C2204 C2205 1.377 . S
C2205 H2189 0.930 . S
C2205 C2204 1.377 . S
C2205 C2206 1.379 . S
C2206 H2190 0.931 . S
C2206 C2200 1.383 . S
C2206 C2205 1.379 . S
H2207 C2201 0.959 . S
H2208 C2201 0.961 . S
H2209 C2201 0.912 1_556 S
H2210 C2202 0.930 . S
H2211 C2203 0.929 . S
H2212 C2220 0.929 . S
H2213 C2222 0.930 . S
H2214 C2224 0.930 . S
H2215 C2227 0.929 . S
H2216 C2230 0.930 . S
H2217 C2232 0.960 . S
H2218 C2232 0.960 . S
H2219 C2232 0.960 . S
C2220 H2212 0.929 . S
C2220 C2221 1.377 . S
C2220 C2222 1.384 . S
C2221 C2220 1.377 . S
C2221 C2227 1.390 . S
C2222 H2213 0.930 . S
C2222 C2220 1.384 . S
C2222 C2223 1.372 . S
C2223 C2222 1.372 . S
C2223 C2224 1.400 . S
C2223 C2228 1.490 . S
C2224 H2214 0.930 . S
C2224 C2223 1.400 . S
C2224 C2227 1.386 . S
H2225 C2241 0.930 1_655 S
H2226 C2242 0.931 . S
C2227 H2215 0.929 . S
C2227 C2221 1.390 . S
C2227 C2224 1.386 . S
C2228 C2223 1.490 . S
C2228 C2230 1.395 . S
C2228 C2231 1.403 . S
H2229 C2235 0.930 . S
C2230 H2216 0.930 . S
C2230 C2228 1.395 . S
C2230 C2233 1.403 . S
C2231 C2228 1.403 . S
C2231 C2232 1.524 . S
C2231 C2235 1.400 . S
C2232 H2217 0.960 . S
C2232 H2218 0.960 . S
C2232 H2219 0.960 . S
C2232 C2231 1.524 . S
C2233 C2230 1.403 . S
C2233 C2234 1.392 . S
C2233 C2237 1.495 . S
C2234 C2233 1.392 . S
C2234 C2235 1.385 . S
C2234 C2236 1.478 . S
C2235 H2229 0.930 . S
C2235 C2231 1.400 . S
C2235 C2234 1.385 . S
C2236 C2234 1.478 . S
C2236 C2238 1.381 . S
C2236 C2242 1.383 . S
C2237 C2233 1.495 . S
C2237 H2243 0.959 . S
C2237 H2244 0.961 . S
C2237 H2245 0.960 . S
C2238 C2236 1.381 . S
C2238 C2239 1.394 . S
C2238 H2246 0.930 . S
C2239 C2238 1.394 . S
C2239 C2240 1.383 . S
C2239 H2247 0.929 . S
C2240 C2239 1.383 . S
C2240 C2241 1.377 . S
C2241 H2225 0.930 1_455 S
C2241 C2240 1.377 . S
C2241 C2242 1.379 . S
C2242 H2226 0.931 . S
C2242 C2236 1.383 . S
C2242 C2241 1.379 . S
H2243 C2237 0.959 . S
H2244 C2237 0.961 . S
H2245 C2237 0.960 . S
H2246 C2238 0.930 . S
H2247 C2239 0.929 . S
H2248 C2256 0.929 . S
H2249 C2258 0.930 . S
H2250 C2260 0.930 . S
H2251 C2263 0.929 1_455 S
H2252 C2266 0.930 . S
H2253 C2268 0.960 1_455 S
H2254 C2268 0.960 . S
H2255 C2268 0.960 1_455 S
C2256 H2248 0.929 . S
C2256 C2257 1.377 . S
C2256 C2258 1.384 . S
C2257 C2256 1.377 . S
C2257 C2263 1.390 1_556 S
C2258 H2249 0.930 . S
C2258 C2256 1.384 . S
C2258 C2259 1.372 . S
C2259 C2258 1.372 . S
C2259 C2260 1.400 1_556 S
C2259 C2264 1.490 . S
C2260 H2250 0.930 . S
C2260 C2259 1.400 1_554 S
C2260 C2263 1.386 . S
H2261 C2277 0.930 . S
H2262 C2278 0.931 . S
C2263 H2251 0.929 1_655 S
C2263 C2257 1.390 1_554 S
C2263 C2260 1.386 . S
C2264 C2259 1.490 . S
C2264 C2266 1.395 1_556 S
C2264 C2267 1.403 . S
H2265 C2271 0.930 . S
C2266 H2252 0.930 . S
C2266 C2264 1.395 1_554 S
C2266 C2269 1.403 . S
C2267 C2264 1.403 . S
C2267 C2268 1.524 . S
C2267 C2271 1.400 . S
C2268 H2253 0.960 1_655 S
C2268 H2254 0.960 . S
C2268 H2255 0.960 1_655 S
C2268 C2267 1.524 . S
C2269 C2266 1.403 . S
C2269 C2270 1.380 1_554 S
C2269 C2273 1.495 . S
C2270 C2269 1.380 1_556 S
C2270 C2271 1.401 . S
C2270 C2272 1.477 . S
C2271 H2265 0.930 . S
C2271 C2267 1.400 . S
C2271 C2270 1.401 . S
C2272 C2270 1.477 . S
C2272 C2274 1.396 . S
C2272 C2278 1.368 1_556 S
C2273 C2269 1.495 . S
C2273 H2279 0.959 . S
C2273 H2280 0.961 . S
C2273 H2281 0.936 1_554 S
C2274 C2272 1.396 . S
C2274 C2275 1.394 . S
C2274 H2282 0.930 . S
C2275 C2274 1.394 . S
C2275 C2276 1.424 . S
C2275 H2283 0.929 . S
C2276 C2275 1.424 . S
C2276 C2277 1.337 1_556 S
C2277 H2261 0.930 . S
C2277 C2276 1.337 1_554 S
C2277 C2278 1.379 . S
C2278 H2262 0.931 . S
C2278 C2272 1.368 1_554 S
C2278 C2277 1.379 . S
H2279 C2273 0.959 . S
H2280 C2273 0.961 . S
H2281 C2273 0.936 1_556 S
H2282 C2274 0.930 . S
H2283 C2275 0.929 . S
H2284 C2292 0.929 . S
H2285 C2294 0.930 . S
H2286 C2296 0.930 . S
H2287 C2299 0.929 . S
H2288 C2302 0.930 . S
H2289 C2304 0.960 . S
H2290 C2304 0.960 . S
H2291 C2304 0.960 . S
C2292 H2284 0.929 . S
C2292 C2293 1.377 . S
C2292 C2294 1.384 . S
C2293 C2292 1.377 . S
C2293 C2299 1.390 . S
C2294 H2285 0.930 . S
C2294 C2292 1.384 . S
C2294 C2295 1.372 . S
C2295 C2294 1.372 . S
C2295 C2296 1.400 . S
C2295 C2300 1.490 . S
C2296 H2286 0.930 . S
C2296 C2295 1.400 . S
C2296 C2299 1.386 . S
H2297 C2313 0.930 1_455 S
H2298 C2314 0.931 . S
C2299 H2287 0.929 . S
C2299 C2293 1.390 . S
C2299 C2296 1.386 . S
C2300 C2295 1.490 . S
C2300 C2302 1.395 . S
C2300 C2303 1.403 . S
H2301 C2307 0.930 . S
C2302 H2288 0.930 . S
C2302 C2300 1.395 . S
C2302 C2305 1.403 . S
C2303 C2300 1.403 . S
C2303 C2304 1.524 . S
C2303 C2307 1.400 . S
C2304 H2289 0.960 . S
C2304 H2290 0.960 . S
C2304 H2291 0.960 . S
C2304 C2303 1.524 . S
C2305 C2302 1.403 . S
C2305 C2306 1.392 . S
C2305 C2309 1.495 . S
C2306 C2305 1.392 . S
C2306 C2307 1.385 . S
C2306 C2308 1.478 . S
C2307 H2301 0.930 . S
C2307 C2303 1.400 . S
C2307 C2306 1.385 . S
C2308 C2306 1.478 . S
C2308 C2310 1.381 . S
C2308 C2314 1.383 . S
C2309 C2305 1.495 . S
C2309 H2315 0.959 . S
C2309 H2316 0.961 . S
C2309 H2317 0.960 . S
C2310 C2308 1.381 . S
C2310 C2311 1.394 . S
C2310 H2318 0.930 . S
C2311 C2310 1.394 . S
C2311 C2312 1.383 . S
C2311 H2319 0.929 . S
C2312 C2311 1.383 . S
C2312 C2313 1.377 . S
C2313 H2297 0.930 1_655 S
C2313 C2312 1.377 . S
C2313 C2314 1.379 . S
C2314 H2298 0.931 . S
C2314 C2308 1.383 . S
C2314 C2313 1.379 . S
H2315 C2309 0.959 . S
H2316 C2309 0.961 . S
H2317 C2309 0.960 . S
H2318 C2310 0.930 . S
H2319 C2311 0.929 . S
H2320 C2328 0.929 . S
H2321 C2330 0.930 . S
H2322 C2332 0.930 . S
H2323 C2335 0.929 . S
H2324 C2338 0.930 . S
H2325 C2340 0.960 . S
H2326 C2340 0.960 . S
H2327 C2340 0.960 . S
C2328 H2320 0.929 . S
C2328 C2329 1.377 . S
C2328 C2330 1.384 . S
C2329 C2328 1.377 . S
C2329 C2335 1.390 . S
C2330 H2321 0.930 . S
C2330 C2328 1.384 . S
C2330 C2331 1.372 . S
C2331 C2330 1.372 . S
C2331 C2332 1.400 . S
C2331 C2336 1.490 . S
C2332 H2322 0.930 . S
C2332 C2331 1.400 . S
C2332 C2335 1.386 . S
H2333 C2349 0.930 . S
H2334 C2350 0.931 . S
C2335 H2323 0.929 . S
C2335 C2329 1.390 . S
C2335 C2332 1.386 . S
C2336 C2331 1.490 . S
C2336 C2338 1.395 . S
C2336 C2339 1.403 . S
H2337 C2343 0.930 . S
C2338 H2324 0.930 . S
C2338 C2336 1.395 . S
C2338 C2341 1.403 . S
C2339 C2336 1.403 . S
C2339 C2340 1.524 . S
C2339 C2343 1.400 . S
C2340 H2325 0.960 . S
C2340 H2326 0.960 . S
C2340 H2327 0.960 . S
C2340 C2339 1.524 . S
C2341 C2338 1.403 . S
C2341 C2342 1.392 . S
C2341 C2345 1.495 . S
C2342 C2341 1.392 . S
C2342 C2343 1.385 . S
C2342 C2344 1.478 . S
C2343 H2337 0.930 . S
C2343 C2339 1.400 . S
C2343 C2342 1.385 . S
C2344 C2342 1.478 . S
C2344 C2346 1.381 . S
C2344 C2350 1.383 . S
C2345 C2341 1.495 . S
C2345 H2351 0.959 . S
C2345 H2352 0.961 . S
C2345 H2353 0.960 . S
C2346 C2344 1.381 . S
C2346 C2347 1.394 . S
C2346 H2354 0.930 . S
C2347 C2346 1.394 . S
C2347 C2348 1.383 . S
C2347 H2355 0.929 . S
C2348 C2347 1.383 . S
C2348 C2349 1.377 . S
C2349 H2333 0.930 . S
C2349 C2348 1.377 . S
C2349 C2350 1.379 . S
C2350 H2334 0.931 . S
C2350 C2344 1.383 . S
C2350 C2349 1.379 . S
H2351 C2345 0.959 . S
H2352 C2345 0.961 . S
H2353 C2345 0.960 . S
H2354 C2346 0.930 . S
H2355 C2347 0.929 . S
H2356 C2364 0.929 . S
H2357 C2366 0.930 . S
H2358 C2368 0.930 . S
H2359 C2371 0.929 . S
H2360 C2374 0.930 . S
H2361 C2376 0.960 1_655 S
H2362 C2376 0.960 . S
H2363 C2376 0.960 . S
C2364 H2356 0.929 . S
C2364 C2365 1.377 . S
C2364 C2366 1.384 . S
C2365 C2364 1.377 . S
C2365 C2371 1.390 . S
C2366 H2357 0.930 . S
C2366 C2364 1.384 . S
C2366 C2367 1.372 . S
C2367 C2366 1.372 . S
C2367 C2368 1.400 . S
C2367 C2372 1.490 . S
C2368 H2358 0.930 . S
C2368 C2367 1.400 . S
C2368 C2371 1.386 . S
H2369 C2385 0.930 . S
H2370 C2386 0.931 . S
C2371 H2359 0.929 . S
C2371 C2365 1.390 . S
C2371 C2368 1.386 . S
C2372 C2367 1.490 . S
C2372 C2374 1.395 . S
C2372 C2375 1.403 . S
H2373 C2379 0.930 . S
C2374 H2360 0.930 . S
C2374 C2372 1.395 . S
C2374 C2377 1.403 . S
C2375 C2372 1.403 . S
C2375 C2376 1.524 . S
C2375 C2379 1.400 . S
C2376 H2361 0.960 1_455 S
C2376 H2362 0.960 . S
C2376 H2363 0.960 . S
C2376 C2375 1.524 . S
C2377 C2374 1.403 . S
C2377 C2378 1.392 . S
C2377 C2381 1.495 . S
C2378 C2377 1.392 . S
C2378 C2379 1.385 . S
C2378 C2380 1.478 . S
C2379 H2373 0.930 . S
C2379 C2375 1.400 . S
C2379 C2378 1.385 . S
C2380 C2378 1.478 . S
C2380 C2382 1.381 . S
C2380 C2386 1.383 . S
C2381 C2377 1.495 . S
C2381 H2387 0.959 . S
C2381 H2388 0.961 . S
C2381 H2389 0.960 . S
C2382 C2380 1.381 . S
C2382 C2383 1.394 . S
C2382 H2390 0.930 . S
C2383 C2382 1.394 . S
C2383 C2384 1.383 . S
C2383 H2391 0.929 . S
C2384 C2383 1.383 . S
C2384 C2385 1.377 . S
C2385 H2369 0.930 . S
C2385 C2384 1.377 . S
C2385 C2386 1.379 . S
C2386 H2370 0.931 . S
C2386 C2380 1.383 . S
C2386 C2385 1.379 . S
H2387 C2381 0.959 . S
H2388 C2381 0.961 . S
H2389 C2381 0.960 . S
H2390 C2382 0.930 . S
H2391 C2383 0.929 . S
H2392 C2400 0.929 . S
H2393 C2402 0.930 . S
H2394 C2404 0.930 . S
H2395 C2407 0.929 . S
H2396 C2410 0.930 . S
H2397 C2412 0.960 . S
H2398 C2412 0.960 . S
H2399 C2412 0.960 . S
C2400 H2392 0.929 . S
C2400 C2401 1.377 . S
C2400 C2402 1.384 . S
C2401 C2400 1.377 . S
C2401 C2407 1.390 . S
C2402 H2393 0.930 . S
C2402 C2400 1.384 . S
C2402 C2403 1.372 . S
C2403 C2402 1.372 . S
C2403 C2404 1.400 . S
C2403 C2408 1.490 . S
C2404 H2394 0.930 . S
C2404 C2403 1.400 . S
C2404 C2407 1.386 . S
H2405 C2421 0.930 . S
H2406 C2422 0.931 . S
C2407 H2395 0.929 . S
C2407 C2401 1.390 . S
C2407 C2404 1.386 . S
C2408 C2403 1.490 . S
C2408 C2410 1.395 . S
C2408 C2411 1.403 . S
H2409 C2415 0.930 . S
C2410 H2396 0.930 . S
C2410 C2408 1.395 . S
C2410 C2413 1.403 . S
C2411 C2408 1.403 . S
C2411 C2412 1.524 . S
C2411 C2415 1.400 . S
C2412 H2397 0.960 . S
C2412 H2398 0.960 . S
C2412 H2399 0.960 . S
C2412 C2411 1.524 . S
C2413 C2410 1.403 . S
C2413 C2414 1.392 . S
C2413 C2417 1.495 . S
C2414 C2413 1.392 . S
C2414 C2415 1.385 . S
C2414 C2416 1.478 . S
C2415 H2409 0.930 . S
C2415 C2411 1.400 . S
C2415 C2414 1.385 . S
C2416 C2414 1.478 . S
C2416 C2418 1.381 . S
C2416 C2422 1.383 . S
C2417 C2413 1.495 . S
C2417 H2423 0.959 . S
C2417 H2424 0.961 . S
C2417 H2425 0.960 . S
C2418 C2416 1.381 . S
C2418 C2419 1.394 . S
C2418 H2426 0.930 1_655 S
C2419 C2418 1.394 . S
C2419 C2420 1.383 . S
C2419 H2427 0.929 1_655 S
C2420 C2419 1.383 . S
C2420 C2421 1.377 . S
C2421 H2405 0.930 . S
C2421 C2420 1.377 . S
C2421 C2422 1.379 . S
C2422 H2406 0.931 . S
C2422 C2416 1.383 . S
C2422 C2421 1.379 . S
H2423 C2417 0.959 . S
H2424 C2417 0.961 . S
H2425 C2417 0.960 . S
H2426 C2418 0.930 1_455 S
H2427 C2419 0.929 1_455 S
H2428 C2436 0.929 . S
H2429 C2438 0.930 . S
H2430 C2440 0.930 . S
H2431 C2443 0.929 . S
H2432 C2446 0.930 . S
H2433 C2448 0.960 1_455 S
H2434 C2448 0.960 . S
H2435 C2448 0.960 . S
C2436 H2428 0.929 . S
C2436 C2437 1.377 . S
C2436 C2438 1.384 . S
C2437 C2436 1.377 . S
C2437 C2443 1.390 . S
C2438 H2429 0.930 . S
C2438 C2436 1.384 . S
C2438 C2439 1.372 . S
C2439 C2438 1.372 . S
C2439 C2440 1.400 . S
C2439 C2444 1.490 . S
C2440 H2430 0.930 . S
C2440 C2439 1.400 . S
C2440 C2443 1.386 . S
H2441 C2457 0.930 . S
H2442 C2458 0.931 . S
C2443 H2431 0.929 . S
C2443 C2437 1.390 . S
C2443 C2440 1.386 . S
C2444 C2439 1.490 . S
C2444 C2446 1.395 . S
C2444 C2447 1.403 . S
H2445 C2451 0.930 . S
C2446 H2432 0.930 . S
C2446 C2444 1.395 . S
C2446 C2449 1.403 . S
C2447 C2444 1.403 . S
C2447 C2448 1.524 . S
C2447 C2451 1.400 . S
C2448 H2433 0.960 1_655 S
C2448 H2434 0.960 . S
C2448 H2435 0.960 . S
C2448 C2447 1.524 . S
C2449 C2446 1.403 . S
C2449 C2450 1.392 . S
C2449 C2453 1.495 . S
C2450 C2449 1.392 . S
C2450 C2451 1.385 . S
C2450 C2452 1.478 . S
C2451 H2445 0.930 . S
C2451 C2447 1.400 . S
C2451 C2450 1.385 . S
C2452 C2450 1.478 . S
C2452 C2454 1.381 . S
C2452 C2458 1.383 . S
C2453 C2449 1.495 . S
C2453 H2459 0.959 . S
C2453 H2460 0.961 . S
C2453 H2461 0.960 . S
C2454 C2452 1.381 . S
C2454 C2455 1.394 . S
C2454 H2462 0.930 . S
C2455 C2454 1.394 . S
C2455 C2456 1.383 . S
C2455 H2463 0.929 . S
C2456 C2455 1.383 . S
C2456 C2457 1.377 . S
C2457 H2441 0.930 . S
C2457 C2456 1.377 . S
C2457 C2458 1.379 . S
C2458 H2442 0.931 . S
C2458 C2452 1.383 . S
C2458 C2457 1.379 . S
H2459 C2453 0.959 . S
H2460 C2453 0.961 . S
H2461 C2453 0.960 . S
H2462 C2454 0.930 . S
H2463 C2455 0.929 . S
H2464 C2472 0.929 . S
H2465 C2474 0.930 . S
H2466 C2476 0.930 . S
H2467 C2479 0.929 . S
H2468 C2482 0.930 . S
H2469 C2484 0.960 . S
H2470 C2484 0.960 . S
H2471 C2484 0.960 . S
C2472 H2464 0.929 . S
C2472 C2473 1.377 . S
C2472 C2474 1.384 . S
C2473 C2472 1.377 . S
C2473 C2479 1.390 . S
C2474 H2465 0.930 . S
C2474 C2472 1.384 . S
C2474 C2475 1.372 . S
C2475 C2474 1.372 . S
C2475 C2476 1.400 . S
C2475 C2480 1.490 . S
C2476 H2466 0.930 . S
C2476 C2475 1.400 . S
C2476 C2479 1.386 . S
H2477 C2493 0.930 . S
H2478 C2494 0.931 . S
C2479 H2467 0.929 . S
C2479 C2473 1.390 . S
C2479 C2476 1.386 . S
C2480 C2475 1.490 . S
C2480 C2482 1.395 . S
C2480 C2483 1.403 . S
H2481 C2487 0.930 . S
C2482 H2468 0.930 . S
C2482 C2480 1.395 . S
C2482 C2485 1.403 . S
C2483 C2480 1.403 . S
C2483 C2484 1.524 . S
C2483 C2487 1.400 . S
C2484 H2469 0.960 . S
C2484 H2470 0.960 . S
C2484 H2471 0.960 . S
C2484 C2483 1.524 . S
C2485 C2482 1.403 . S
C2485 C2486 1.392 . S
C2485 C2489 1.495 . S
C2486 C2485 1.392 . S
C2486 C2487 1.385 . S
C2486 C2488 1.478 . S
C2487 H2481 0.930 . S
C2487 C2483 1.400 . S
C2487 C2486 1.385 . S
C2488 C2486 1.478 . S
C2488 C2490 1.381 . S
C2488 C2494 1.383 . S
C2489 C2485 1.495 . S
C2489 H2495 0.959 . S
C2489 H2496 0.961 . S
C2489 H2497 0.960 . S
C2490 C2488 1.381 . S
C2490 C2491 1.394 . S
C2490 H2498 0.930 . S
C2491 C2490 1.394 . S
C2491 C2492 1.383 . S
C2491 H2499 0.929 . S
C2492 C2491 1.383 . S
C2492 C2493 1.377 . S
C2493 H2477 0.930 . S
C2493 C2492 1.377 . S
C2493 C2494 1.379 . S
C2494 H2478 0.931 . S
C2494 C2488 1.383 . S
C2494 C2493 1.379 . S
H2495 C2489 0.959 . S
H2496 C2489 0.961 . S
H2497 C2489 0.960 . S
H2498 C2490 0.930 . S
H2499 C2491 0.929 . S
H2500 C2508 0.929 . S
H2501 C2510 0.930 . S
H2502 C2512 0.930 . S
H2503 C2515 0.929 . S
H2504 C2518 0.930 . S
H2505 C2520 0.960 . S
H2506 C2520 0.960 . S
H2507 C2520 0.960 . S
C2508 H2500 0.929 . S
C2508 C2509 1.377 . S
C2508 C2510 1.384 . S
C2509 C2508 1.377 . S
C2509 C2515 1.390 . S
C2510 H2501 0.930 . S
C2510 C2508 1.384 . S
C2510 C2511 1.372 . S
C2511 C2510 1.372 . S
C2511 C2512 1.400 . S
C2511 C2516 1.490 . S
C2512 H2502 0.930 . S
C2512 C2511 1.400 . S
C2512 C2515 1.386 . S
H2513 C2529 0.930 . S
H2514 C2530 0.931 . S
C2515 H2503 0.929 . S
C2515 C2509 1.390 . S
C2515 C2512 1.386 . S
C2516 C2511 1.490 . S
C2516 C2518 1.395 . S
C2516 C2519 1.403 . S
H2517 C2523 0.930 . S
C2518 H2504 0.930 . S
C2518 C2516 1.395 . S
C2518 C2521 1.403 . S
C2519 C2516 1.403 . S
C2519 C2520 1.524 . S
C2519 C2523 1.400 . S
C2520 H2505 0.960 . S
C2520 H2506 0.960 . S
C2520 H2507 0.960 . S
C2520 C2519 1.524 . S
C2521 C2518 1.403 . S
C2521 C2522 1.392 . S
C2521 C2525 1.495 . S
C2522 C2521 1.392 . S
C2522 C2523 1.385 . S
C2522 C2524 1.478 . S
C2523 H2517 0.930 . S
C2523 C2519 1.400 . S
C2523 C2522 1.385 . S
C2524 C2522 1.478 . S
C2524 C2526 1.381 . S
C2524 C2530 1.383 . S
C2525 C2521 1.495 . S
C2525 H2531 0.959 . S
C2525 H2532 0.961 . S
C2525 H2533 0.960 . S
C2526 C2524 1.381 . S
C2526 C2527 1.394 . S
C2526 H2534 0.930 . S
C2527 C2526 1.394 . S
C2527 C2528 1.383 . S
C2527 H2535 0.929 . S
C2528 C2527 1.383 . S
C2528 C2529 1.377 . S
C2529 H2513 0.930 . S
C2529 C2528 1.377 . S
C2529 C2530 1.379 . S
C2530 H2514 0.931 . S
C2530 C2524 1.383 . S
C2530 C2529 1.379 . S
H2531 C2525 0.959 . S
H2532 C2525 0.961 . S
H2533 C2525 0.960 . S
H2534 C2526 0.930 . S
H2535 C2527 0.929 . S
H2536 C2544 0.929 . S
H2537 C2546 0.930 . S
H2538 C2548 0.930 . S
H2539 C2551 0.929 . S
H2540 C2554 0.930 . S
H2541 C2556 0.960 . S
H2542 C2556 0.960 . S
H2543 C2556 0.960 . S
C2544 H2536 0.929 . S
C2544 C2545 1.377 . S
C2544 C2546 1.384 . S
C2545 C2544 1.377 . S
C2545 C2551 1.390 . S
C2546 H2537 0.930 . S
C2546 C2544 1.384 . S
C2546 C2547 1.372 . S
C2547 C2546 1.372 . S
C2547 C2548 1.400 . S
C2547 C2552 1.490 . S
C2548 H2538 0.930 . S
C2548 C2547 1.400 . S
C2548 C2551 1.386 . S
H2549 C2565 0.930 . S
H2550 C2566 0.931 . S
C2551 H2539 0.929 . S
C2551 C2545 1.390 . S
C2551 C2548 1.386 . S
C2552 C2547 1.490 . S
C2552 C2554 1.395 . S
C2552 C2555 1.403 . S
H2553 C2559 0.930 . S
C2554 H2540 0.930 . S
C2554 C2552 1.395 . S
C2554 C2557 1.403 . S
C2555 C2552 1.403 . S
C2555 C2556 1.524 . S
C2555 C2559 1.400 . S
C2556 H2541 0.960 . S
C2556 H2542 0.960 . S
C2556 H2543 0.960 . S
C2556 C2555 1.524 . S
C2557 C2554 1.403 . S
C2557 C2558 1.392 . S
C2557 C2561 1.495 . S
C2558 C2557 1.392 . S
C2558 C2559 1.385 . S
C2558 C2560 1.478 . S
C2559 H2553 0.930 . S
C2559 C2555 1.400 . S
C2559 C2558 1.385 . S
C2560 C2558 1.478 . S
C2560 C2562 1.381 . S
C2560 C2566 1.383 . S
C2561 C2557 1.495 . S
C2561 H2567 0.959 . S
C2561 H2568 0.961 . S
C2561 H2569 0.960 . S
C2562 C2560 1.381 . S
C2562 C2563 1.394 . S
C2562 H2570 0.930 . S
C2563 C2562 1.394 . S
C2563 C2564 1.383 . S
C2563 H2571 0.929 . S
C2564 C2563 1.383 . S
C2564 C2565 1.377 . S
C2565 H2549 0.930 . S
C2565 C2564 1.377 . S
C2565 C2566 1.379 . S
C2566 H2550 0.931 . S
C2566 C2560 1.383 . S
C2566 C2565 1.379 . S
H2567 C2561 0.959 . S
H2568 C2561 0.961 . S
H2569 C2561 0.960 . S
H2570 C2562 0.930 . S
H2571 C2563 0.929 . S
H2572 C2580 0.929 . S
H2573 C2582 0.930 . S
H2574 C2584 0.930 . S
H2575 C2587 0.929 . S
H2576 C2590 0.930 . S
H2577 C2592 0.960 . S
H2578 C2592 0.960 . S
H2579 C2592 0.960 . S
C2580 H2572 0.929 . S
C2580 C2581 1.377 . S
C2580 C2582 1.384 . S
C2581 C2580 1.377 . S
C2581 C2587 1.390 . S
C2582 H2573 0.930 . S
C2582 C2580 1.384 . S
C2582 C2583 1.372 . S
C2583 C2582 1.372 . S
C2583 C2584 1.400 . S
C2583 C2588 1.490 . S
C2584 H2574 0.930 . S
C2584 C2583 1.400 . S
C2584 C2587 1.386 . S
H2585 C2601 0.930 . S
H2586 C2602 0.931 . S
C2587 H2575 0.929 . S
C2587 C2581 1.390 . S
C2587 C2584 1.386 . S
C2588 C2583 1.490 . S
C2588 C2590 1.395 . S
C2588 C2591 1.403 . S
H2589 C2595 0.930 . S
C2590 H2576 0.930 . S
C2590 C2588 1.395 . S
C2590 C2593 1.403 . S
C2591 C2588 1.403 . S
C2591 C2592 1.524 . S
C2591 C2595 1.400 . S
C2592 H2577 0.960 . S
C2592 H2578 0.960 . S
C2592 H2579 0.960 . S
C2592 C2591 1.524 . S
C2593 C2590 1.403 . S
C2593 C2594 1.392 . S
C2593 C2597 1.495 . S
C2594 C2593 1.392 . S
C2594 C2595 1.385 . S
C2594 C2596 1.478 . S
C2595 H2589 0.930 . S
C2595 C2591 1.400 . S
C2595 C2594 1.385 . S
C2596 C2594 1.478 . S
C2596 C2598 1.381 . S
C2596 C2602 1.383 . S
C2597 C2593 1.495 . S
C2597 H2603 0.959 . S
C2597 H2604 0.961 . S
C2597 H2605 0.960 . S
C2598 C2596 1.381 . S
C2598 C2599 1.394 . S
C2598 H2606 0.930 . S
C2599 C2598 1.394 . S
C2599 C2600 1.383 . S
C2599 H2607 0.929 . S
C2600 C2599 1.383 . S
C2600 C2601 1.377 . S
C2601 H2585 0.930 . S
C2601 C2600 1.377 . S
C2601 C2602 1.379 . S
C2602 H2586 0.931 . S
C2602 C2596 1.383 . S
C2602 C2601 1.379 . S
H2603 C2597 0.959 . S
H2604 C2597 0.961 . S
H2605 C2597 0.960 . S
H2606 C2598 0.930 . S
H2607 C2599 0.929 . S
H2608 C2616 0.929 . S
H2609 C2618 0.930 . S
H2610 C2620 0.930 . S
H2611 C2623 0.929 . S
H2612 C2626 0.930 . S
H2613 C2628 0.960 . S
H2614 C2628 0.960 . S
H2615 C2628 0.960 . S
C2616 H2608 0.929 . S
C2616 C2617 1.377 . S
C2616 C2618 1.384 . S
C2617 C2616 1.377 . S
C2617 C2623 1.390 1_554 S
C2618 H2609 0.930 . S
C2618 C2616 1.384 . S
C2618 C2619 1.372 . S
C2619 C2618 1.372 . S
C2619 C2620 1.400 1_554 S
C2619 C2624 1.490 . S
C2620 H2610 0.930 . S
C2620 C2619 1.400 1_556 S
C2620 C2623 1.386 . S
H2621 C2637 0.930 . S
H2622 C2638 0.931 . S
C2623 H2611 0.929 . S
C2623 C2617 1.390 1_556 S
C2623 C2620 1.386 . S
C2624 C2619 1.490 . S
C2624 C2626 1.395 1_554 S
C2624 C2627 1.403 . S
H2625 C2631 0.930 . S
C2626 H2612 0.930 . S
C2626 C2624 1.395 1_556 S
C2626 C2629 1.403 . S
C2627 C2624 1.403 . S
C2627 C2628 1.524 . S
C2627 C2631 1.400 . S
C2628 H2613 0.960 . S
C2628 H2614 0.960 . S
C2628 H2615 0.960 . S
C2628 C2627 1.524 . S
C2629 C2626 1.403 . S
C2629 C2630 1.392 1_556 S
C2629 C2633 1.495 . S
C2630 C2629 1.392 1_554 S
C2630 C2631 1.385 . S
C2630 C2632 1.479 . S
C2631 H2625 0.930 . S
C2631 C2627 1.400 . S
C2631 C2630 1.385 . S
C2632 C2630 1.479 . S
C2632 C2634 1.407 . S
C2632 C2638 1.357 1_554 S
C2633 C2629 1.495 . S
C2633 H2639 0.959 . S
C2633 H2640 0.961 . S
C2633 H2641 0.960 1_556 S
C2634 C2632 1.407 . S
C2634 C2635 1.394 . S
C2634 H2642 0.930 . S
C2635 C2634 1.394 . S
C2635 C2636 1.429 . S
C2635 H2643 0.929 . S
C2636 C2635 1.429 . S
C2636 C2637 1.332 1_554 S
C2637 H2621 0.930 . S
C2637 C2636 1.332 1_556 S
C2637 C2638 1.379 . S
C2638 H2622 0.931 . S
C2638 C2632 1.357 1_556 S
C2638 C2637 1.379 . S
H2639 C2633 0.959 . S
H2640 C2633 0.961 . S
H2641 C2633 0.960 1_554 S
H2642 C2634 0.930 . S
H2643 C2635 0.929 . S
H2644 C2652 0.929 . S
H2645 C2654 0.930 . S
H2646 C2656 0.930 . S
H2647 C2659 0.929 . S
H2648 C2662 0.930 . S
H2649 C2664 0.960 . S
H2650 C2664 0.960 . S
H2651 C2664 0.960 . S
C2652 H2644 0.929 . S
C2652 C2653 1.377 . S
C2652 C2654 1.384 . S
C2653 C2652 1.377 . S
C2653 C2659 1.390 . S
C2654 H2645 0.930 . S
C2654 C2652 1.384 . S
C2654 C2655 1.372 . S
C2655 C2654 1.372 . S
C2655 C2656 1.400 . S
C2655 C2660 1.490 . S
C2656 H2646 0.930 . S
C2656 C2655 1.400 . S
C2656 C2659 1.386 . S
H2657 C2673 0.930 . S
H2658 C2674 0.931 . S
C2659 H2647 0.929 . S
C2659 C2653 1.390 . S
C2659 C2656 1.386 . S
C2660 C2655 1.490 . S
C2660 C2662 1.395 . S
C2660 C2663 1.403 . S
H2661 C2667 0.930 . S
C2662 H2648 0.930 . S
C2662 C2660 1.395 . S
C2662 C2665 1.403 . S
C2663 C2660 1.403 . S
C2663 C2664 1.524 . S
C2663 C2667 1.400 . S
C2664 H2649 0.960 . S
C2664 H2650 0.960 . S
C2664 H2651 0.960 . S
C2664 C2663 1.524 . S
C2665 C2662 1.403 . S
C2665 C2666 1.392 . S
C2665 C2669 1.495 . S
C2666 C2665 1.392 . S
C2666 C2667 1.385 . S
C2666 C2668 1.478 . S
C2667 H2661 0.930 . S
C2667 C2663 1.400 . S
C2667 C2666 1.385 . S
C2668 C2666 1.478 . S
C2668 C2670 1.381 . S
C2668 C2674 1.383 . S
C2669 C2665 1.495 . S
C2669 H2675 0.959 . S
C2669 H2676 0.961 . S
C2669 H2677 0.960 . S
C2670 C2668 1.381 . S
C2670 C2671 1.394 . S
C2670 H2678 0.930 . S
C2671 C2670 1.394 . S
C2671 C2672 1.383 . S
C2671 H2679 0.929 . S
C2672 C2671 1.383 . S
C2672 C2673 1.377 . S
C2673 H2657 0.930 . S
C2673 C2672 1.377 . S
C2673 C2674 1.379 . S
C2674 H2658 0.931 . S
C2674 C2668 1.383 . S
C2674 C2673 1.379 . S
H2675 C2669 0.959 . S
H2676 C2669 0.961 . S
H2677 C2669 0.960 . S
H2678 C2670 0.930 . S
H2679 C2671 0.929 . S
H2680 C2688 0.929 . S
H2681 C2690 0.930 . S
H2682 C2692 0.930 . S
H2683 C2695 0.929 . S
H2684 C2698 0.930 . S
H2685 C2700 0.960 . S
H2686 C2700 0.960 . S
H2687 C2700 0.960 . S
C2688 H2680 0.929 . S
C2688 C2689 1.377 . S
C2688 C2690 1.384 . S
C2689 C2688 1.377 . S
C2689 C2695 1.390 1_556 S
C2690 H2681 0.930 . S
C2690 C2688 1.384 . S
C2690 C2691 1.372 . S
C2691 C2690 1.372 . S
C2691 C2692 1.400 1_556 S
C2691 C2696 1.490 . S
C2692 H2682 0.930 . S
C2692 C2691 1.400 1_554 S
C2692 C2695 1.386 . S
H2693 C2709 0.930 . S
H2694 C2710 0.931 . S
C2695 H2683 0.929 . S
C2695 C2689 1.390 1_554 S
C2695 C2692 1.386 . S
C2696 C2691 1.490 . S
C2696 C2698 1.395 . S
C2696 C2699 1.403 1_556 S
H2697 C2703 0.930 . S
C2698 H2684 0.930 . S
C2698 C2696 1.395 . S
C2698 C2701 1.403 . S
C2699 C2696 1.403 1_554 S
C2699 C2700 1.524 . S
C2699 C2703 1.400 . S
C2700 H2685 0.960 . S
C2700 H2686 0.960 . S
C2700 H2687 0.960 . S
C2700 C2699 1.524 . S
C2701 C2698 1.403 . S
C2701 C2702 1.392 . S
C2701 C2705 1.495 . S
C2702 C2701 1.392 . S
C2702 C2703 1.385 1_556 S
C2702 C2704 1.478 . S
C2703 H2697 0.930 . S
C2703 C2699 1.400 . S
C2703 C2702 1.385 1_554 S
C2704 C2702 1.478 . S
C2704 C2706 1.381 . S
C2704 C2710 1.383 1_556 S
C2705 C2701 1.495 . S
C2705 H2711 0.959 . S
C2705 H2712 0.961 . S
C2705 H2713 0.960 . S
C2706 C2704 1.381 . S
C2706 C2707 1.394 . S
C2706 H2714 0.930 . S
C2707 C2706 1.394 . S
C2707 C2708 1.383 . S
C2707 H2715 0.929 . S
C2708 C2707 1.383 . S
C2708 C2709 1.377 1_556 S
C2709 H2693 0.930 . S
C2709 C2708 1.377 1_554 S
C2709 C2710 1.379 . S
C2710 H2694 0.931 . S
C2710 C2704 1.383 1_554 S
C2710 C2709 1.379 . S
H2711 C2705 0.959 . S
H2712 C2705 0.961 . S
H2713 C2705 0.960 . S
H2714 C2706 0.930 . S
H2715 C2707 0.929 . S
H2716 C2724 0.929 . S
H2717 C2726 0.930 . S
H2718 C2728 0.930 . S
H2719 C2731 0.929 . S
H2720 C2734 0.930 . S
H2721 C2736 0.960 . S
H2722 C2736 0.960 . S
H2723 C2736 0.960 . S
C2724 H2716 0.929 . S
C2724 C2725 1.377 . S
C2724 C2726 1.384 . S
C2725 C2724 1.377 . S
C2725 C2731 1.390 . S
C2726 H2717 0.930 . S
C2726 C2724 1.384 . S
C2726 C2727 1.372 . S
C2727 C2726 1.372 . S
C2727 C2728 1.400 . S
C2727 C2732 1.490 . S
C2728 H2718 0.930 . S
C2728 C2727 1.400 . S
C2728 C2731 1.386 . S
H2729 C2745 0.930 . S
H2730 C2746 0.931 . S
C2731 H2719 0.929 . S
C2731 C2725 1.390 . S
C2731 C2728 1.386 . S
C2732 C2727 1.490 . S
C2732 C2734 1.395 . S
C2732 C2735 1.403 . S
H2733 C2739 0.930 . S
C2734 H2720 0.930 . S
C2734 C2732 1.395 . S
C2734 C2737 1.403 . S
C2735 C2732 1.403 . S
C2735 C2736 1.524 . S
C2735 C2739 1.400 . S
C2736 H2721 0.960 . S
C2736 H2722 0.960 . S
C2736 H2723 0.960 . S
C2736 C2735 1.524 . S
C2737 C2734 1.403 . S
C2737 C2738 1.392 . S
C2737 C2741 1.495 . S
C2738 C2737 1.392 . S
C2738 C2739 1.385 . S
C2738 C2740 1.478 . S
C2739 H2733 0.930 . S
C2739 C2735 1.400 . S
C2739 C2738 1.385 . S
C2740 C2738 1.478 . S
C2740 C2742 1.381 . S
C2740 C2746 1.383 . S
C2741 C2737 1.495 . S
C2741 H2747 0.959 . S
C2741 H2748 0.961 . S
C2741 H2749 0.960 . S
C2742 C2740 1.381 . S
C2742 C2743 1.394 . S
C2742 H2750 0.930 . S
C2743 C2742 1.394 . S
C2743 C2744 1.383 . S
C2743 H2751 0.929 . S
C2744 C2743 1.383 . S
C2744 C2745 1.377 . S
C2745 H2729 0.930 . S
C2745 C2744 1.377 . S
C2745 C2746 1.379 . S
C2746 H2730 0.931 . S
C2746 C2740 1.383 . S
C2746 C2745 1.379 . S
H2747 C2741 0.959 . S
H2748 C2741 0.961 . S
H2749 C2741 0.960 . S
H2750 C2742 0.930 . S
H2751 C2743 0.929 . S
C457 C12 1.555 . S
C476 C55 1.550 . S
C493 C28 1.554 . S
C512 C26 1.551 . S
C529 C110 1.556 . S
C548 C57 1.548 . S
C565 C84 1.554 . S
C584 C70 1.553 . S
C601 C112 1.556 . S
C620 C167 1.550 . S
C637 C139 1.554 . S
C656 C141 1.546 . S
C673 C210 1.555 . S
C692 C168 1.547 . S
C709 C209 1.555 . S
C728 C183 1.553 . S
C745 C224 1.555 . S
C764 C278 1.550 . S
C781 C251 1.555 . S
C800 C252 1.554 . S
C817 C280 1.554 . S
C836 C334 1.547 . S
C853 C294 1.554 . S
C872 C308 1.551 . S
C889 C337 1.553 . S
C908 C391 1.550 . S
C925 C365 1.554 . S
C944 C362 1.551 . S
C961 C447 1.554 . S
C980 C393 1.555 . S
C997 C420 1.556 . S
C1016 C407 1.548 . S
C1033 C0 1.563 . S
C1052 C69 1.556 1_554 S
C1069 C419 1.565 . S
C1088 C14 1.555 . S
C1105 C40 1.564 . S
C1124 C197 1.565 . S
C1141 C322 1.563 . S
C1160 C43 1.565 . S
C1177 C350 1.564 . S
C1196 C82 1.558 1_554 S
C1213 C96 1.565 . S
C1232 C153 1.560 . S
C1249 C98 1.564 . S
C1268 C266 1.558 . S
C1285 C180 1.561 . S
C1304 C124 1.563 . S
C1321 C306 1.564 . S
C1340 C127 1.559 . S
C1357 C155 1.563 . S
C1376 C435 1.567 . S
C1393 C195 1.563 . S
C1412 C239 1.552 . S
C1429 C222 1.561 . S
C1448 C379 1.560 . S
C1465 C292 1.561 . S
C1484 C236 1.561 . S
C1501 C264 1.564 . S
C1520 C432 1.567 . S
C1537 C320 1.563 . S
C1556 C377 1.567 . S
C1573 C405 1.566 . S
C1592 C349 1.564 . S
C1609 C13 1.460 . S
C1628 C279 1.451 . S
C1645 C27 1.460 . S
C1664 C253 1.452 . S
C1681 C250 1.462 . S
C1700 C29 1.460 . S
C1717 C225 1.461 . S
C1736 C54 1.456 . S
C1753 C56 1.462 . S
C1772 C335 1.451 . S
C1789 C71 1.461 . S
C1808 C309 1.456 . S
C1825 C85 1.463 . S
C1844 C295 1.452 . S
C1861 C281 1.462 . S
C1880 C111 1.455 . S
C1897 C113 1.463 . S
C1916 C390 1.465 . S
C1933 C364 1.461 . S
C1952 C138 1.459 . S
C1969 C363 1.463 . S
C1988 C140 1.465 . S
C2005 C166 1.460 . S
C2024 C336 1.452 . S
C2041 C169 1.460 . S
C2060 C446 1.464 . S
C2077 C182 1.460 . S
C2096 C421 1.463 . S
C2113 C406 1.463 . S
C2132 C208 1.451 . S
C2149 C211 1.463 . S
C2168 C392 1.451 . S
C2185 C15 1.553 . S
C2204 C1 1.545 . S
C2221 C41 1.554 . S
C2240 C42 1.555 . S
C2257 C83 1.557 . S
C2276 C68 1.539 . S
C2293 C97 1.553 . S
C2312 C99 1.561 . S
C2329 C126 1.552 . S
C2348 C125 1.541 . S
C2365 C152 1.556 . S
C2384 C154 1.559 . S
C2401 C181 1.556 . S
C2420 C194 1.542 . S
C2437 C196 1.553 . S
C2456 C223 1.560 . S
C2473 C237 1.554 . S
C2492 C238 1.554 . S
C2509 C267 1.556 . S
C2528 C265 1.560 . S
C2545 C293 1.552 . S
C2564 C307 1.560 . S
C2581 C323 1.555 . S
C2600 C321 1.559 . S
C2617 C351 1.556 . S
C2636 C348 1.557 . S
C2653 C376 1.553 . S
C2672 C378 1.547 . S
C2689 C404 1.553 . S
C2708 C418 1.554 . S
C2725 C434 1.551 . S
C2744 C433 1.556 . S
