# Generated by pormake.
# Topology lhb, (8)-cn, num edge types: 1
# Building blocks:
#     Node 0, Type 0, BuildingBlock: AJUNOK_clean_sbu_0, # of connection points: 8
#     Node 1, Type 0, BuildingBlock: AJUNOK_clean_sbu_0, # of connection points: 8
#     Node 2, Type 0, BuildingBlock: AJUNOK_clean_sbu_0, # of connection points: 8
#     Node 3, Type 0, BuildingBlock: AJUNOK_clean_sbu_0, # of connection points: 8
#     Node 4, Type 0, BuildingBlock: AJUNOK_clean_sbu_0, # of connection points: 8
#     Node 5, Type 0, BuildingBlock: AJUNOK_clean_sbu_0, # of connection points: 8
#     Node 6, Type 0, BuildingBlock: AJUNOK_clean_sbu_0, # of connection points: 8
#     Node 7, Type 0, BuildingBlock: AJUNOK_clean_sbu_0, # of connection points: 8
#     Edge 8, Type (0, 0), BuildingBlock: ZUJKAS_clean_linker_0, # of connection points: 2
#     Edge 9, Type (0, 0), BuildingBlock: ZUJKAS_clean_linker_0, # of connection points: 2
#     Edge 10, Type (0, 0), BuildingBlock: ZUJKAS_clean_linker_0, # of connection points: 2
#     Edge 11, Type (0, 0), BuildingBlock: ZUJKAS_clean_linker_0, # of connection points: 2
#     Edge 12, Type (0, 0), BuildingBlock: ZUJKAS_clean_linker_0, # of connection points: 2
#     Edge 13, Type (0, 0), BuildingBlock: ZUJKAS_clean_linker_0, # of connection points: 2
#     Edge 14, Type (0, 0), BuildingBlock: ZUJKAS_clean_linker_0, # of connection points: 2
#     Edge 15, Type (0, 0), BuildingBlock: ZUJKAS_clean_linker_0, # of connection points: 2
#     Edge 16, Type (0, 0), BuildingBlock: ZUJKAS_clean_linker_0, # of connection points: 2
#     Edge 17, Type (0, 0), BuildingBlock: ZUJKAS_clean_linker_0, # of connection points: 2
#     Edge 18, Type (0, 0), BuildingBlock: ZUJKAS_clean_linker_0, # of connection points: 2
#     Edge 19, Type (0, 0), BuildingBlock: ZUJKAS_clean_linker_0, # of connection points: 2
#     Edge 20, Type (0, 0), BuildingBlock: ZUJKAS_clean_linker_0, # of connection points: 2
#     Edge 21, Type (0, 0), BuildingBlock: ZUJKAS_clean_linker_0, # of connection points: 2
#     Edge 22, Type (0, 0), BuildingBlock: ZUJKAS_clean_linker_0, # of connection points: 2
#     Edge 23, Type (0, 0), BuildingBlock: ZUJKAS_clean_linker_0, # of connection points: 2
#     Edge 24, Type (0, 0), BuildingBlock: ZUJKAS_clean_linker_0, # of connection points: 2
#     Edge 25, Type (0, 0), BuildingBlock: ZUJKAS_clean_linker_0, # of connection points: 2
#     Edge 26, Type (0, 0), BuildingBlock: ZUJKAS_clean_linker_0, # of connection points: 2
#     Edge 27, Type (0, 0), BuildingBlock: ZUJKAS_clean_linker_0, # of connection points: 2
#     Edge 28, Type (0, 0), BuildingBlock: ZUJKAS_clean_linker_0, # of connection points: 2
#     Edge 29, Type (0, 0), BuildingBlock: ZUJKAS_clean_linker_0, # of connection points: 2
#     Edge 30, Type (0, 0), BuildingBlock: ZUJKAS_clean_linker_0, # of connection points: 2
#     Edge 31, Type (0, 0), BuildingBlock: ZUJKAS_clean_linker_0, # of connection points: 2
#     Edge 32, Type (0, 0), BuildingBlock: ZUJKAS_clean_linker_0, # of connection points: 2
#     Edge 33, Type (0, 0), BuildingBlock: ZUJKAS_clean_linker_0, # of connection points: 2
#     Edge 34, Type (0, 0), BuildingBlock: ZUJKAS_clean_linker_0, # of connection points: 2
#     Edge 35, Type (0, 0), BuildingBlock: ZUJKAS_clean_linker_0, # of connection points: 2
#     Edge 36, Type (0, 0), BuildingBlock: ZUJKAS_clean_linker_0, # of connection points: 2
#     Edge 37, Type (0, 0), BuildingBlock: ZUJKAS_clean_linker_0, # of connection points: 2
#     Edge 38, Type (0, 0), BuildingBlock: ZUJKAS_clean_linker_0, # of connection points: 2
#     Edge 39, Type (0, 0), BuildingBlock: ZUJKAS_clean_linker_0, # of connection points: 2
# Relax obj value: 0.086
# Max RMSD: 0.172
# Mean RMSD: 0.172
data_MOF--net-lhb--node1-AJUNOK_clean_sbu_0--edge1-ZUJKAS_clean_linker_0
_symmetry_space_group_name_H-M    P1
_symmetry_Int_Tables_number       1
_symmetry_cell_setting            triclinic
loop_
_symmetry_equiv_pos_as_xyz
'x, y, z'
_cell_length_a     41.108238
_cell_length_b     16.694281
_cell_length_c     93.192766
_cell_angle_alpha  90.026038
_cell_angle_beta   89.963423
_cell_angle_gamma 89.945076
loop_
_atom_site_label
_atom_site_type_symbol
_atom_site_fract_x
_atom_site_fract_y
_atom_site_fract_z
_atom_type_partial_charge
Cd0 Cd 0.0304 0.97183 0.01427 0.0
Cd1 Cd 0.92244 0.04136 0.01149 0.0
C2 C 0.05 0.88288 0.9853 0.0
N3 N 0.03287 0.94918 0.98921 0.0
C4 C 0.02902 0.99001 0.9646 0.0
C5 C 0.0478 0.92355 0.96036 0.0
C6 C 0.05758 0.86861 0.97091 0.0
C7 C 0.02146 0.00124 0.97915 0.0
H8 H 0.0587 0.84209 0.99345 0.0
H9 H 0.00719 0.05249 0.9824 0.0
C10 C 0.98185 0.14045 0.01529 0.0
C11 C 0.92482 0.05421 0.04561 0.0
C12 C 0.91873 0.03346 0.05987 0.0
C13 C 0.9118 0.95347 0.06336 0.0
C14 C 0.91218 0.89562 0.05244 0.0
C15 C 0.91777 0.91924 0.03829 0.0
N16 N 0.92385 -0.00258 0.03517 0.0
H17 H 0.92862 0.11628 0.04275 0.0
H18 H 0.91552 0.87582 0.02974 0.0
C19 C 0.93083 0.13096 0.98113 0.0
N20 N 0.9289 0.05625 0.98685 0.0
C21 C 0.92196 -0.00129 0.96357 0.0
C22 C 0.92214 0.07554 0.9574 0.0
C23 C 0.92767 0.142 0.96634 0.0
C24 C 0.92529 0.99043 0.97841 0.0
H25 H 0.93295 0.18243 0.98811 0.0
H26 H 0.92321 0.93186 0.98328 0.0
C27 C 0.97151 0.85279 1.00856 0.0
C28 C 0.09659 -5e-05 0.01261 0.0
N29 N 0.03364 0.97948 0.03926 0.0
C30 C 0.03921 0.91616 0.04811 0.0
C31 C 0.04824 0.92932 0.06244 0.0
C32 C 0.05186 0.00828 0.06755 0.0
C33 C 0.0443 0.07182 0.05827 0.0
C34 C 0.0355 0.056 0.04413 0.0
C35 C 0.85416 0.04527 0.01163 0.0
O36 O 0.98712 0.06612 0.01429 0.0
O37 O 0.95253 0.16345 0.01532 0.0
O38 O 0.95491 0.91684 0.00956 0.0
O39 O 0.001 0.85049 0.01263 0.0
O40 O 0.07604 0.05691 0.01179 0.0
O41 O 0.08612 0.92912 0.01461 0.0
O42 O 0.87046 -0.00598 1.00461 0.0
O43 O 0.86974 0.09847 0.01848 0.0
H44 H 0.03839 0.85586 0.04387 0.0
H45 H 0.03192 0.10513 0.03679 0.0
H46 H 0.02055 0.03311 0.95676 0.0
H47 H 0.07214 0.81673 0.96815 0.0
H48 H 0.91852 0.07973 0.06802 0.0
H49 H 0.90633 0.83363 0.0547 0.0
H50 H 0.91812 0.94578 0.95707 0.0
H51 H 0.92756 0.20238 0.9621 0.0
H52 H 0.05404 0.87848 0.06918 0.0
H53 H 0.04619 0.13355 0.06175 0.0
Cd54 Cd 0.30757 0.26633 0.25878 0.0
Cd55 Cd 0.19368 0.2336 0.26169 0.0
C56 C 0.3142 0.3357 0.22839 0.0
N57 N 0.29804 0.27302 0.23434 0.0
C58 C 0.28818 0.21655 0.21118 0.0
C59 C 0.30644 0.27858 0.20495 0.0
C60 C 0.31869 0.33971 0.21366 0.0
C61 C 0.28457 0.21434 0.22614 0.0
H62 H 0.32558 0.37993 0.23521 0.0
H63 H 0.273 0.1636 0.23123 0.0
C64 C 0.24876 0.10925 0.26807 0.0
C65 C 0.18277 0.20987 0.2947 0.0
C66 C 0.17487 0.22662 0.30893 0.0
C67 C 0.17773 0.30527 0.31416 0.0
C68 C 0.19082 0.36416 0.30503 0.0
C69 C 0.1988 0.34443 0.29086 0.0
N70 N 0.19378 0.26876 0.28591 0.0
H71 H 0.17863 0.15048 0.29044 0.0
H72 H 0.20759 0.39041 0.28371 0.0
C73 C 0.20112 0.15125 0.23086 0.0
N74 N 0.19239 0.2226 0.23674 0.0
C75 C 0.17154 0.26792 0.21419 0.0
C76 C 0.1789 0.1933 0.20798 0.0
C77 C 0.19472 0.13541 0.21642 0.0
C78 C 0.17836 0.28119 0.22871 0.0
H79 H 0.21175 0.10526 0.23755 0.0
H80 H 0.17089 0.33659 0.23376 0.0
C81 C 0.25188 0.38209 0.25465 0.0
C82 C 0.37032 0.2322 0.24955 0.0
N83 N 0.3175 0.25521 0.28342 0.0
C84 C 0.34767 0.22962 0.28726 0.0
C85 C 0.35474 0.21198 0.30151 0.0
C86 C 0.33043 0.21944 0.31201 0.0
C87 C 0.29949 0.24704 0.30781 0.0
C88 C 0.29349 0.26444 0.29333 0.0
C89 C 0.12665 0.24046 0.2636 0.0
O90 O 0.26448 0.17099 0.2643 0.0
O91 O 0.21794 0.1104 0.26764 0.0
O92 O 0.24135 0.31499 0.25881 0.0
O93 O 0.28213 0.39549 0.25584 0.0
O94 O 0.34736 0.18123 0.24895 0.0
O95 O 0.36462 0.29947 0.2555 0.0
O96 O 0.14412 0.30335 0.26333 0.0
O97 O 0.1404 0.17258 0.26229 0.0
H98 H 0.3662 0.22073 0.27922 0.0
H99 H 0.26947 0.28299 0.28995 0.0
H100 H 0.27874 0.16806 0.20468 0.0
H101 H 0.33298 0.3881 0.20916 0.0
H102 H 0.16567 0.17875 0.31563 0.0
H103 H 0.19336 0.42567 0.30853 0.0
H104 H 0.15899 0.31387 0.20814 0.0
H105 H 0.20117 0.07747 0.21202 0.0
H106 H 0.37905 0.19217 0.30425 0.0
H107 H 0.27992 0.25285 0.31552 0.0
Cd108 Cd 0.68548 0.71348 0.26164 0.0
Cd109 Cd 0.79643 0.76592 0.26025 0.0
C110 C 0.67089 0.63258 0.23106 0.0
N111 N 0.68324 0.70159 0.23655 0.0
C112 C 0.68398 0.76121 0.2132 0.0
C113 C 0.67022 0.69157 0.20724 0.0
C114 C 0.66421 0.62619 0.21638 0.0
C115 C 0.69014 0.76511 0.22794 0.0
H116 H 0.66504 0.58351 0.23818 0.0
H117 H 0.69941 0.81981 0.23256 0.0
C118 C 0.73903 0.88015 0.25649 0.0
C119 C 0.80189 0.81878 0.29455 0.0
C120 C 0.80988 0.80558 0.309 0.0
C121 C 0.82006 0.72895 0.31343 0.0
C122 C 0.82194 0.66749 0.3032 0.0
C123 C 0.81426 0.68357 0.28896 0.0
N124 N 0.80439 0.75785 0.28492 0.0
H125 H 0.79431 0.87758 0.29099 0.0
H126 H 0.81691 0.63709 0.28097 0.0
C127 C 0.80743 0.85239 0.23058 0.0
N128 N 0.79274 0.78546 0.23572 0.0
C129 C 0.78595 0.7341 0.212 0.0
C130 C 0.80192 0.80174 0.20641 0.0
C131 C 0.81202 0.86215 0.21589 0.0
C132 C 0.78155 0.72714 0.22683 0.0
H133 H 0.81702 0.89642 0.23796 0.0
H134 H 0.77068 0.67367 0.23129 0.0
C135 C 0.74252 0.60453 0.26725 0.0
C136 C 0.6192 0.73645 0.26476 0.0
N137 N 0.68776 0.7363 0.28638 0.0
C138 C 0.66926 0.68611 0.29443 0.0
C139 C 0.66235 0.70444 0.30872 0.0
C140 C 0.6743 0.77572 0.31478 0.0
C141 C 0.695 0.82399 0.30643 0.0
C142 C 0.70148 0.80297 0.29218 0.0
C143 C 0.8591 0.71644 0.25408 0.0
O144 O 0.7287 0.81051 0.25907 0.0
O145 O 0.76932 0.89347 0.25778 0.0
O146 O 0.75214 0.67285 0.26331 0.0
O147 O 0.71223 0.59016 0.267 0.0
O148 O 0.6394 0.79409 0.26481 0.0
O149 O 0.62975 0.66601 0.26243 0.0
O150 O 0.83438 0.67272 0.25164 0.0
O151 O 0.8547 0.78457 0.25995 0.0
H152 H 0.65845 0.63381 0.28952 0.0
H153 H 0.71604 0.84227 0.28562 0.0
H154 H 0.68946 0.81274 0.20657 0.0
H155 H 0.65322 0.5717 0.21237 0.0
H156 H 0.8082 0.85451 0.3166 0.0
H157 H 0.83028 0.60809 0.3061 0.0
H158 H 0.77775 0.68633 0.20502 0.0
H159 H 0.82496 0.91445 0.21207 0.0
H160 H 0.64696 0.66427 0.31481 0.0
H161 H 0.70471 0.87964 0.31058 0.0
Cd162 Cd 0.05565 0.48202 0.51134 0.0
Cd163 Cd 0.94121 0.49332 0.50772 0.0
C164 C 0.05156 0.3868 0.48096 0.0
N165 N 0.05043 0.46137 0.4868 0.0
C166 C 0.0564 0.52162 0.46371 0.0
C167 C 0.05951 0.44554 0.45742 0.0
C168 C 0.0559 0.37744 0.46616 0.0
C169 C 0.05192 0.52817 0.4785 0.0
H170 H 0.05099 0.33477 0.48787 0.0
H171 H 0.05148 0.58666 0.4835 0.0
C172 C 0.99198 0.63188 0.50598 0.0
C173 C 0.89877 0.49011 0.53698 0.0
C174 C 0.89054 0.47296 0.55115 0.0
C175 C 0.91496 0.454 0.56111 0.0
C176 C 0.94759 0.45753 0.55657 0.0
C177 C 0.95479 0.47574 0.54224 0.0
N178 N 0.9304 0.48937 0.53266 0.0
H179 H 0.87954 0.50163 0.52943 0.0
H180 H 0.9798 0.47588 0.53866 0.0
C181 C 0.93476 0.58497 0.47804 0.0
N182 N 0.94749 0.51537 0.48313 0.0
C183 C 0.95451 0.46597 0.45921 0.0
C184 C 0.94111 0.53719 0.45376 0.0
C185 C 0.93192 0.59777 0.46335 0.0
C186 C 0.95773 0.45645 0.47409 0.0
H187 H 0.92512 0.62909 0.48539 0.0
H188 H 0.96677 0.40063 0.47844 0.0
C189 C 0.00375 0.36207 0.51823 0.0
C190 C 0.12236 0.5061 0.50875 0.0
N191 N 0.05732 0.51437 0.53592 0.0
C192 C 0.07005 0.45615 0.54442 0.0
C193 C 0.07715 0.47153 0.55881 0.0
C194 C 0.07207 0.54859 0.56454 0.0
C195 C 0.05765 0.60669 0.5556 0.0
C196 C 0.05009 0.5879 0.54134 0.0
C197 C 0.88023 0.43296 0.50035 0.0
O198 O 0.00865 0.56959 0.50844 0.0
O199 O 0.96121 0.6278 0.50703 0.0
O200 O 0.99146 0.42072 0.51154 0.0
O201 O 0.03443 0.35518 0.51832 0.0
O202 O 0.10194 0.56178 0.50632 0.0
O203 O 0.11164 0.43777 0.51241 0.0
O204 O 0.90564 0.38943 0.50023 0.0
O205 O 0.88342 0.5065 0.50366 0.0
H206 H 0.07565 0.39811 0.53989 0.0
H207 H 0.03939 0.63293 0.53456 0.0
H208 H 0.05867 0.57559 0.45735 0.0
H209 H 0.05845 0.31771 0.46176 0.0
H210 H 0.86511 0.47341 0.5542 0.0
H211 H 0.96731 0.44336 0.56385 0.0
H212 H 0.96155 0.41772 0.45208 0.0
H213 H 0.9208 0.65265 0.45954 0.0
H214 H 0.08711 0.4235 0.56524 0.0
H215 H 0.05328 0.66713 0.55932 0.0
Cd216 Cd 0.19188 0.71559 0.76391 0.0
Cd217 Cd 0.30397 0.77066 0.76153 0.0
C218 C 0.17628 0.63834 0.7338 0.0
N219 N 0.19207 0.7041 0.73883 0.0
C220 C 0.19788 0.755 0.71495 0.0
C221 C 0.18101 0.68827 0.70951 0.0
C222 C 0.17073 0.62882 0.71914 0.0
C223 C 0.20337 0.76154 0.72976 0.0
H224 H 0.16711 0.59425 0.74128 0.0
H225 H 0.2158 0.81338 0.73401 0.0
C226 C 0.24609 0.87863 0.76793 0.0
C227 C 0.32567 0.78625 0.79406 0.0
C228 C 0.33457 0.76504 0.80799 0.0
C229 C 0.32669 0.68868 0.81326 0.0
C230 C 0.30901 0.63627 0.80443 0.0
C231 C 0.30085 0.65975 0.7905 0.0
N232 N 0.30959 0.73333 0.78556 0.0
H233 H 0.33247 0.84421 0.78985 0.0
H234 H 0.28853 0.61811 0.78355 0.0
C235 C 0.30945 0.86455 0.73189 0.0
N236 N 0.29866 0.79322 0.73701 0.0
C237 C 0.29633 0.73915 0.71328 0.0
C238 C 0.30916 0.81076 0.7077 0.0
C239 C 0.31483 0.87478 0.7172 0.0
C240 C 0.29149 0.73145 0.72806 0.0
H241 H 0.31588 0.91178 0.73932 0.0
H242 H 0.2838 0.67475 0.73244 0.0
C243 C 0.24923 0.60098 0.75804 0.0
C244 C 0.12612 0.74507 0.76044 0.0
N245 N 0.1861 0.73615 0.78873 0.0
C246 C 0.18951 0.67755 0.79875 0.0
C247 C 0.18129 0.69259 0.81312 0.0
C248 C 0.16939 0.76854 0.81719 0.0
C249 C 0.16679 0.82794 0.80657 0.0
C250 C 0.17517 0.81028 0.79239 0.0
C251 C 0.37112 0.75747 0.75803 0.0
O252 O 0.23697 0.80748 0.76572 0.0
O253 O 0.27633 0.89351 0.76744 0.0
O254 O 0.26159 0.66872 0.7607 0.0
O255 O 0.21936 0.58951 0.76093 0.0
O256 O 0.14781 0.79461 0.75643 0.0
O257 O 0.13506 0.68035 0.76652 0.0
O258 O 0.3516 0.70227 0.75428 0.0
O259 O 0.35932 0.82092 0.76349 0.0
H260 H 0.19773 0.61864 0.79553 0.0
H261 H 0.17186 0.8551 0.78414 0.0
H262 H 0.2064 0.80188 0.70786 0.0
H263 H 0.15732 0.57696 0.71544 0.0
H264 H 0.34782 0.80765 0.81452 0.0
H265 H 0.30269 0.57661 0.80803 0.0
H266 H 0.29118 0.68855 0.70637 0.0
H267 H 0.32519 0.93064 0.71349 0.0
H268 H 0.18393 0.64507 0.82094 0.0
H269 H 0.1572 0.88676 0.80905 0.0
Cd270 Cd 0.68594 0.22217 0.76025 0.0
Cd271 Cd 0.798 0.27567 0.75987 0.0
C272 C 0.68935 0.12385 0.73049 0.0
N273 N 0.68895 0.19988 0.73569 0.0
C274 C 0.67949 0.25281 0.71225 0.0
C275 C 0.67804 0.17474 0.70663 0.0
C276 C 0.68405 0.10984 0.71589 0.0
C277 C 0.68486 0.26402 0.72691 0.0
H278 H 0.69195 0.07391 0.73779 0.0
H279 H 0.68405 0.32369 0.73141 0.0
C280 C 0.73978 0.38513 0.75397 0.0
C281 C 0.79652 0.32518 0.79411 0.0
C282 C 0.80292 0.31332 0.80873 0.0
C283 C 0.8129 0.23735 0.81356 0.0
C284 C 0.81583 0.17487 0.80359 0.0
C285 C 0.80982 0.18973 0.78913 0.0
N286 N 0.80034 0.26363 0.78469 0.0
H287 H 0.7896 0.38381 0.79022 0.0
H288 H 0.81389 0.14297 0.78131 0.0
C289 C 0.81515 0.3456 0.73007 0.0
N290 N 0.79905 0.28017 0.73498 0.0
C291 C 0.79572 0.2266 0.71122 0.0
C292 C 0.81349 0.29246 0.70595 0.0
C293 C 0.82244 0.35328 0.71557 0.0
C294 C 0.78882 0.22139 0.72594 0.0
H295 H 0.82332 0.39077 0.73756 0.0
H296 H 0.77649 0.16934 0.7302 0.0
C297 C 0.74327 0.11092 0.76679 0.0
C298 C 0.61863 0.23743 0.75949 0.0
N299 N 0.68577 0.25778 0.78458 0.0
C300 C 0.66867 0.20731 0.79318 0.0
C301 C 0.6618 0.22832 0.80736 0.0
C302 C 0.67245 0.30236 0.81271 0.0
C303 C 0.69138 0.35173 0.80381 0.0
C304 C 0.69802 0.32784 0.78972 0.0
C305 C 0.86467 0.25311 0.75845 0.0
O306 O 0.72978 0.31626 0.75737 0.0
O307 O 0.76985 0.40018 0.75551 0.0
O308 O 0.75473 0.1782 0.76312 0.0
O309 O 0.71272 0.10058 0.76624 0.0
O310 O 0.63745 0.29499 0.7562 0.0
O311 O 0.63119 0.17069 0.763 0.0
O312 O 0.84459 0.20024 0.75416 0.0
O313 O 0.8536 0.31779 0.76381 0.0
H314 H 0.65921 0.15196 0.78884 0.0
H315 H 0.71202 0.36663 0.78284 0.0
H316 H 0.6754 0.30461 0.7055 0.0
H317 H 0.68274 0.04863 0.71209 0.0
H318 H 0.80052 0.36298 0.81614 0.0
H319 H 0.82409 0.11597 0.80684 0.0
H320 H 0.78844 0.17822 0.70418 0.0
H321 H 0.83553 0.40586 0.71198 0.0
H322 H 0.64698 0.1887 0.81383 0.0
H323 H 0.70043 0.40881 0.80762 0.0
Cd324 Cd 0.54721 0.96614 0.51221 0.0
Cd325 Cd 0.43605 0.03414 0.51132 0.0
C326 C 0.57672 0.91106 0.48315 0.0
N327 N 0.55685 0.97111 0.48761 0.0
C328 C 0.55341 0.0225 0.46368 0.0
C329 C 0.57443 0.96148 0.45883 0.0
C330 C 0.58579 0.90499 0.46881 0.0
C331 C 0.5449 0.02634 0.47826 0.0
H332 H 0.58555 0.86762 0.49082 0.0
H333 H 0.52901 0.07339 0.48211 0.0
C334 C 0.49583 0.13952 0.51622 0.0
C335 C 0.41235 0.04489 0.54351 0.0
C336 C 0.40566 0.02548 0.55774 0.0
C337 C 0.42239 0.9622 0.56439 0.0
C338 C 0.44621 0.92098 0.55642 0.0
C339 C 0.45194 0.94214 0.54209 0.0
N340 N 0.43464 0.00241 0.53588 0.0
H341 H 0.39896 0.09271 0.53841 0.0
H342 H 0.46961 0.90906 0.5359 0.0
C343 C 0.44373 0.11986 0.48068 0.0
N344 N 0.43976 0.04622 0.48661 0.0
C345 C 0.42774 0.98918 0.4637 0.0
C346 C 0.42997 0.06533 0.45736 0.0
C347 C 0.43906 0.13076 0.46598 0.0
C348 C 0.43263 0.98103 0.47846 0.0
H349 H 0.44887 0.17084 0.48747 0.0
H350 H 0.42893 0.92354 0.48355 0.0
C351 C 0.48664 0.86386 0.50602 0.0
C352 C 0.61258 0.97575 0.51897 0.0
N353 N 0.54178 0.97854 0.53695 0.0
C354 C 0.53744 0.91625 0.54615 0.0
C355 C 0.5423 0.92742 0.56091 0.0
C356 C 0.55167 0.00323 0.56607 0.0
C357 C 0.55488 0.0665 0.55631 0.0
C358 C 0.55027 0.05241 0.54176 0.0
C359 C 0.36867 0.02454 0.51 0.0
O360 O 0.5053 0.06897 0.51355 0.0
O361 O 0.46556 0.15449 0.51588 0.0
O362 O 0.47805 0.93469 0.50881 0.0
O363 O 0.51653 0.84591 0.50728 0.0
O364 O 0.59635 0.03579 0.51453 0.0
O365 O 0.59887 0.90742 0.51932 0.0
O366 O 0.38705 0.96408 0.50817 0.0
O367 O 0.38171 0.09241 0.51224 0.0
H368 H 0.5319 0.85733 0.54199 0.0
H369 H 0.55577 0.09916 0.53417 0.0
H370 H 0.5441 0.06738 0.45637 0.0
H371 H 0.60134 0.8558 0.46556 0.0
H372 H 0.38672 0.05828 0.56329 0.0
H373 H 0.46005 0.8725 0.56114 0.0
H374 H 0.42043 0.93735 0.45751 0.0
H375 H 0.44143 0.19029 0.46148 0.0
H376 H 0.53984 0.87702 0.56814 0.0
H377 H 0.56304 0.12512 0.55976 0.0
Cd378 Cd 0.55819 0.55084 1.00689 0.0
Cd379 Cd 0.44755 0.44866 1.00884 0.0
C380 C 0.54415 0.46927 0.97745 0.0
N381 N 0.54753 0.54525 0.9824 0.0
C382 C 0.55627 0.59365 0.95854 0.0
C383 C 0.55477 0.51471 0.95324 0.0
C384 C 0.54715 0.45275 0.96286 0.0
C385 C 0.55266 0.60766 0.9733 0.0
H386 H 0.5411 0.4206 0.98498 0.0
H387 H 0.55651 0.66714 0.97758 0.0
C388 C 0.47587 0.61781 0.01254 0.0
C389 C 0.43456 0.48952 0.04242 0.0
C390 C 0.4255 0.47617 0.05664 0.0
C391 C 0.41892 0.39792 0.06124 0.0
C392 C 0.42171 0.33455 0.05144 0.0
C393 C 0.43006 0.3509 0.03722 0.0
N394 N 0.43642 0.42733 0.03303 0.0
H395 H 0.43957 0.54957 0.03885 0.0
H396 H 0.43159 0.30261 0.02951 0.0
C397 C 0.42468 0.54332 0.98119 0.0
N398 N 0.44745 0.48827 0.985 0.0
C399 C 0.45906 0.45982 0.96038 0.0
C400 C 0.43481 0.51419 0.95619 0.0
C401 C 0.41793 0.55728 0.96676 0.0
C402 C 0.46459 0.44659 0.975 0.0
H403 H 0.41042 0.57301 0.98937 0.0
H404 H 0.48118 0.40002 0.97838 0.0
C405 C 0.53013 0.38275 0.01679 0.0
C406 C 0.62339 0.54502 0.99954 0.0
N407 N 0.56526 0.61467 0.02926 0.0
C408 C 0.59572 0.63968 0.03284 0.0
C409 C 0.60352 0.65657 0.04712 0.0
C410 C 0.57962 0.64874 0.05776 0.0
C411 C 0.54805 0.62648 0.05375 0.0
C412 C 0.54153 0.60796 0.03939 0.0
C413 C 0.3947 0.35366 1.00137 0.0
O414 O 0.49842 0.57143 1.00821 0.0
O415 O 0.44702 0.59091 0.01279 0.0
O416 O 0.50506 0.41988 0.01253 0.0
O417 O 0.5576 0.41492 0.01512 0.0
O418 O 0.60685 0.60907 0.99758 0.0
O419 O 0.60913 0.4846 1.00498 0.0
O420 O 0.42351 0.32708 0.99949 0.0
O421 O 0.39135 0.42237 1.00708 0.0
H422 H 0.61466 0.64136 0.02481 0.0
H423 H 0.51815 0.58319 0.03654 0.0
H424 H 0.5625 0.64321 0.95158 0.0
H425 H 0.54507 0.39127 0.95927 0.0
H426 H 0.42357 0.52637 0.06397 0.0
H427 H 0.41662 0.27347 0.05465 0.0
H428 H 0.47214 0.42467 0.95249 0.0
H429 H 0.39895 0.59939 0.96389 0.0
H430 H 0.62828 0.67228 0.04993 0.0
H431 H 0.52925 0.61837 0.06177 0.0
H432 H 0.03948 0.93019 0.09302 0.0
H433 H 0.06199 0.9609 0.11681 0.0
H434 H 0.11722 0.15543 0.09869 0.0
H435 H 0.0957 0.12429 0.07494 0.0
H436 H 0.13482 0.97624 0.12409 0.0
H437 H 0.06125 0.25176 0.13324 0.0
H438 H 0.04851 0.17357 0.12106 0.0
H439 H 0.08059 0.24065 0.11601 0.0
C440 C 0.05658 0.97912 0.09409 0.0
C441 C 0.06541 0.02534 0.08207 0.0
C442 C 0.0693 -0.00322 0.10768 0.0
C443 C 0.09089 0.0611 0.1095 0.0
C444 C 0.10015 0.10644 0.09754 0.0
H445 H 0.18169 0.28726 0.18378 0.0
H446 H 0.1617 0.25451 0.15968 0.0
C447 C 0.08763 0.0887 0.08398 0.0
C448 C 0.10419 0.0807 0.12385 0.0
H449 H 0.10135 0.22109 0.15048 0.0
C450 C 0.12744 0.02949 0.12992 0.0
C451 C 0.09485 0.15089 0.13127 0.0
C452 C 0.06979 0.20747 0.12517 0.0
C453 C 0.1419 0.04702 0.14322 0.0
C454 C 0.13205 0.11645 0.15085 0.0
C455 C 0.10888 0.16787 0.14468 0.0
C456 C 0.14489 0.13581 0.16537 0.0
C457 C 0.1682 -0.00798 0.14876 0.0
C458 C 0.14174 0.08057 0.17664 0.0
C459 C 0.15331 0.09892 0.19034 0.0
C460 C 0.16788 0.17349 0.19318 0.0
C461 C 0.17059 0.22934 0.18195 0.0
C462 C 0.15922 0.21063 0.16817 0.0
H463 H 0.18011 0.95858 0.13988 0.0
H464 H 0.18714 0.02577 0.15471 0.0
H465 H 0.15722 0.94743 0.15613 0.0
H466 H 0.12985 0.02355 0.17489 0.0
H467 H 0.15006 0.05532 0.19883 0.0
H468 H 0.93395 0.82956 0.07988 0.0
H469 H 0.91496 0.79082 0.10392 0.0
H470 H 0.84719 0.98813 0.10376 0.0
H471 H 0.86605 0.02715 0.07984 0.0
H472 H 0.91355 0.8941 0.12975 0.0
H473 H 0.79202 0.78207 0.11315 0.0
H474 H 0.82551 0.79285 0.10073 0.0
H475 H 0.80267 0.87925 0.10629 0.0
C476 C 0.91502 0.86451 0.08501 0.0
C477 C 0.90155 0.93149 0.07807 0.0
C478 C 0.90424 0.84243 0.09869 0.0
C479 C 0.87946 0.88614 0.10548 0.0
C480 C 0.86611 0.95322 0.0986 0.0
H481 H 0.79676 0.93239 0.18894 0.0
H482 H 0.81643 0.9458 0.16425 0.0
C483 C 0.87711 0.97586 0.08503 0.0
C484 C 0.86789 0.86315 0.11991 0.0
H485 H 0.80041 0.80152 0.13822 0.0
C486 C 0.88897 0.87291 0.13161 0.0
C487 C 0.83583 0.83532 0.12223 0.0
C488 C 0.8127 0.82099 0.10994 0.0
C489 C 0.87834 0.85836 0.14568 0.0
C490 C 0.84598 0.8332 0.14801 0.0
C491 C 0.82519 0.8211 0.13631 0.0
C492 C 0.83292 0.82316 0.16262 0.0
C493 C 0.90131 0.87185 0.15806 0.0
C494 C 0.8353 0.74928 0.16967 0.0
C495 C 0.82408 0.74136 0.18377 0.0
C496 C 0.81041 0.80737 0.19099 0.0
C497 C 0.80738 0.88071 0.18369 0.0
C498 C 0.81853 0.88847 0.16961 0.0
H499 H 0.92607 0.88912 0.15441 0.0
H500 H 0.89159 0.91995 0.16509 0.0
H501 H 0.90311 0.81651 0.16461 0.0
H502 H 0.84642 0.69838 0.16437 0.0
H503 H 0.82718 0.68447 0.18918 0.0
H504 H 0.1062 0.53077 0.44331 0.0
H505 H 0.12487 0.51403 0.41859 0.0
H506 H 0.05551 0.32353 0.41243 0.0
H507 H 0.03622 0.34085 0.43717 0.0
H508 H 0.15109 0.37037 0.40664 0.0
H509 H 0.04081 0.47378 0.37756 0.0
H510 H 0.04801 0.49666 0.39624 0.0
H511 H 0.03388 0.39904 0.3911 0.0
C512 C 0.09444 0.48632 0.43663 0.0
C513 C 0.06948 0.43759 0.44216 0.0
C514 C 0.10533 0.47647 0.42254 0.0
C515 C 0.09133 0.41822 0.41365 0.0
C516 C 0.06629 0.36969 0.41907 0.0
H517 H 0.12346 0.24713 0.3276 0.0
H518 H 0.10389 0.27711 0.35169 0.0
C519 C 0.05547 0.37922 0.43321 0.0
C520 C 0.10395 0.40611 0.39891 0.0
H521 H 0.08268 0.41504 0.36355 0.0
C522 C 0.13625 0.38051 0.39719 0.0
C523 C 0.08446 0.41937 0.38665 0.0
C524 C 0.04993 0.44937 0.3879 0.0
C525 C 0.14937 0.36567 0.38353 0.0
C526 C 0.12987 0.37878 0.37124 0.0
C527 C 0.09763 0.40518 0.37297 0.0
C528 C 0.14198 0.36224 0.35652 0.0
C529 C 0.18362 0.33351 0.38245 0.0
C530 C 0.16972 0.40096 0.35111 0.0
C531 C 0.18147 0.38264 0.33739 0.0
C532 C 0.16544 0.32593 0.32874 0.0
C533 C 0.13704 0.28931 0.33408 0.0
C534 C 0.12554 0.3071 0.3478 0.0
H535 H 0.19194 0.30701 0.39275 0.0
H536 H 0.18553 0.28718 0.37393 0.0
H537 H 0.20039 0.38324 0.37971 0.0
H538 H 0.18237 0.44522 0.3575 0.0
H539 H 0.20334 0.4121 0.33365 0.0
H540 H 0.80238 0.60296 0.33034 0.0
H541 H 0.82306 0.56898 0.35421 0.0
H542 H 0.88273 0.78142 0.35384 0.0
H543 H 0.86152 0.81653 0.3301 0.0
H544 H 0.88475 0.53601 0.36198 0.0
H545 H 0.84082 0.79912 0.39269 0.0
H546 H 0.82662 0.77682 0.37482 0.0
H547 H 0.86509 0.82612 0.37745 0.0
C548 C 0.8196 0.64291 0.33545 0.0
C549 C 0.83018 0.71272 0.32843 0.0
C550 C 0.83143 0.62337 0.34907 0.0
C551 C 0.85414 0.6731 0.35592 0.0
C552 C 0.86459 0.74319 0.34895 0.0
H553 H 0.95969 0.65877 0.4362 0.0
H554 H 0.94024 0.68619 0.41185 0.0
C555 C 0.85248 0.76322 0.33539 0.0
C556 C 0.8679 0.64967 0.37005 0.0
H557 H 0.87898 0.71458 0.40443 0.0
C558 C 0.88337 0.57487 0.37129 0.0
C559 C 0.86606 0.70033 0.3822 0.0
C560 C 0.84848 0.77971 0.38179 0.0
C561 C 0.89776 0.5502 0.38424 0.0
C562 C 0.89618 0.60124 0.39635 0.0
C563 C 0.88044 0.67569 0.39512 0.0
C564 C 0.91061 0.57929 0.41043 0.0
C565 C 0.91519 0.47062 0.38467 0.0
C566 C 0.90095 0.50933 0.41766 0.0
C567 C 0.91263 0.49283 0.43145 0.0
C568 C 0.93359 0.5469 0.43835 0.0
C569 C 0.94374 0.61596 0.43103 0.0
C570 C 0.93249 0.63178 0.41718 0.0
H571 H 0.92263 0.45075 0.37377 0.0
H572 H 0.93715 0.47343 0.39158 0.0
H573 H 0.89854 0.42456 0.38911 0.0
H574 H 0.8834 0.46903 0.41289 0.0
H575 H 0.90389 0.44013 0.43703 0.0
H576 H 0.12372 0.48558 0.57965 0.0
H577 H 0.14058 0.51523 0.60403 0.0
H578 H 0.0651 0.69375 0.60741 0.0
H579 H 0.04581 0.65893 0.58351 0.0
H580 H 0.1646 0.64184 0.6157 0.0
H581 H 0.0483 0.5782 0.64361 0.0
H582 H 0.05463 0.55351 0.62499 0.0
H583 H 0.04423 0.65431 0.63018 0.0
C584 C 0.10988 0.52947 0.58564 0.0
C585 C 0.08283 0.5685 0.57949 0.0
C586 C 0.11999 0.54731 0.5996 0.0
C587 C 0.10378 0.60566 0.60777 0.0
C588 C 0.07745 0.64668 0.60156 0.0
H589 H 0.15495 0.80357 0.69206 0.0
H590 H 0.13674 0.78839 0.66709 0.0
C591 C 0.0668 0.62757 0.5877 0.0
C592 C 0.11505 0.62409 0.62262 0.0
H593 H 0.09017 0.63725 0.65761 0.0
C594 C 0.14824 0.64065 0.62483 0.0
C595 C 0.09383 0.62244 0.63464 0.0
C596 C 0.05836 0.60037 0.63328 0.0
C597 C 0.1607 0.65515 0.63863 0.0
C598 C 0.13946 0.65398 0.65052 0.0
C599 C 0.10628 0.63872 0.64839 0.0
C600 C 0.15162 0.66453 0.66536 0.0
C601 C 0.19655 0.67101 0.64052 0.0
C602 C 0.16615 0.60001 0.67255 0.0
C603 C 0.17645 0.60837 0.68677 0.0
C604 C 0.1726 0.68165 0.69404 0.0
C605 C 0.15863 0.74675 0.68668 0.0
C606 C 0.14802 0.73805 0.67248 0.0
H607 H 0.20931 0.6782 0.63008 0.0
H608 H 0.20025 0.7259 0.64705 0.0
H609 H 0.2078 0.62027 0.6464 0.0
H610 H 0.16908 0.54279 0.66721 0.0
H611 H 0.18725 0.5573 0.69213 0.0
H612 H 0.87234 0.34173 0.69567 0.0
H613 H 0.88858 0.36096 0.67077 0.0
H614 H 0.79588 0.26945 0.65664 0.0
H615 H 0.77877 0.25336 0.6817 0.0
H616 H 0.89542 0.2577 0.64858 0.0
H617 H 0.80005 0.48296 0.63604 0.0
H618 H 0.80867 0.45094 0.65413 0.0
H619 H 0.78457 0.38906 0.64246 0.0
C620 C 0.85518 0.32651 0.68729 0.0
C621 C 0.82396 0.29753 0.69069 0.0
C622 C 0.86465 0.33687 0.67304 0.0
C623 C 0.84323 0.31824 0.66183 0.0
C624 C 0.81253 0.28607 0.66513 0.0
H625 H 0.86353 0.36053 0.56941 0.0
H626 H 0.84686 0.3252 0.59373 0.0
C627 C 0.80292 0.27601 0.67945 0.0
C628 C 0.85323 0.33365 0.64677 0.0
H629 H 0.83377 0.44161 0.61684 0.0
C630 C 0.88193 0.29789 0.64164 0.0
C631 C 0.83571 0.38656 0.63775 0.0
C632 C 0.80571 0.43025 0.64288 0.0
C633 C 0.89347 0.31322 0.62772 0.0
C634 C 0.87594 0.36596 0.61875 0.0
C635 C 0.8471 0.40111 0.62378 0.0
C636 C 0.88705 0.3855 0.60404 0.0
C637 C 0.92412 0.27238 0.62263 0.0
C638 C 0.91522 0.43128 0.60179 0.0
C639 C 0.92465 0.45278 0.58787 0.0
C640 C 0.906 0.4289 0.57595 0.0
C641 C 0.87811 0.38165 0.57831 0.0
C642 C 0.86863 0.36076 0.59221 0.0
H643 H 0.93145 0.2225 0.62983 0.0
H644 H 0.92082 0.24852 0.6116 0.0
H645 H 0.94422 0.31666 0.62231 0.0
H646 H 0.92954 0.45175 0.61083 0.0
H647 H 0.94604 0.48976 0.58649 0.0
H648 H 0.17778 0.90622 0.83297 0.0
H649 H 0.15772 0.93548 0.85714 0.0
H650 H 0.11571 0.69939 0.85957 0.0
H651 H 0.13554 0.6697 0.8354 0.0
H652 H 0.09463 0.93748 0.86751 0.0
H653 H 0.1676 0.71048 0.89661 0.0
H654 H 0.17613 0.73869 0.8783 0.0
H655 H 0.14385 0.6694 0.88224 0.0
C656 C 0.16427 0.8604 0.83863 0.0
C657 C 0.15851 0.78528 0.83221 0.0
C658 C 0.15288 0.87723 0.85248 0.0
C659 C 0.13561 0.81929 0.8603 0.0
C660 C 0.12967 0.74444 0.85392 0.0
H661 H 0.04518 0.78708 0.94418 0.0
H662 H 0.06581 0.76636 0.91981 0.0
C663 C 0.1411 0.72748 0.84008 0.0
C664 C 0.12316 0.83773 0.87498 0.0
H665 H 0.12549 0.77435 0.90983 0.0
C666 C 0.10149 0.90212 0.87679 0.0
C667 C 0.13214 0.79176 0.8871 0.0
C668 C 0.15644 0.7242 0.88604 0.0
C669 C 0.08775 0.92011 0.89027 0.0
C670 C 0.09646 0.8735 0.90239 0.0
C671 C 0.11855 0.8099 0.90058 0.0
C672 C 0.08264 0.88822 0.91701 0.0
C673 C 0.06324 0.98726 0.89122 0.0
C674 C 0.08509 0.96365 0.92366 0.0
C675 C 0.07277 0.9759 0.93753 0.0
C676 C 0.0584 0.91252 0.94519 0.0
C677 C 0.05612 0.83707 0.93856 0.0
C678 C 0.06797 0.82518 0.92463 0.0
H679 H 0.05209 0.00025 0.88061 0.0
H680 H 0.04353 0.97288 0.89895 0.0
H681 H 0.07567 0.04254 0.8949 0.0
H682 H 0.09717 0.01275 0.91827 0.0
H683 H 0.07549 0.03428 0.94247 0.0
H684 H 0.85444 0.32608 0.8299 0.0
H685 H 0.87436 0.29533 0.85405 0.0
H686 H 0.81213 0.08745 0.85555 0.0
H687 H 0.79314 0.11645 0.83121 0.0
H688 H 0.84542 0.28541 0.8792 0.0
H689 H 0.89659 0.98673 0.86629 0.0
H690 H 0.8826 0.05467 0.85257 0.0
H691 H 0.85403 -0.00642 0.86232 0.0
C692 C 0.84488 0.2742 0.83545 0.0
C693 C 0.82235 0.22348 0.8287 0.0
C694 C 0.85637 0.2564 0.84921 0.0
C695 C 0.84539 0.1879 0.85651 0.0
C696 C 0.82185 0.13904 0.84998 0.0
H697 H 0.87513 -0.00179 0.94194 0.0
H698 H 0.85789 0.02509 0.91731 0.0
C699 C 0.81074 0.15609 0.83614 0.0
C700 C 0.85813 0.16876 0.87104 0.0
H701 H 0.89371 0.02118 0.89106 0.0
C702 C 0.85621 0.22783 0.88174 0.0
C703 C 0.87224 0.09352 0.87439 0.0
C704 C 0.87681 0.02883 0.86324 0.0
C705 C 0.86742 0.21338 0.89573 0.0
C706 C 0.88117 0.13802 0.89909 0.0
C707 C 0.88313 0.07888 0.88843 0.0
C708 C 0.89313 0.11903 0.91369 0.0
C709 C 0.86379 0.27831 0.90689 0.0
C710 C 0.91926 0.16152 0.91968 0.0
C711 C 0.92937 0.14594 0.93373 0.0
C712 C 0.91363 0.08721 0.94203 0.0
C713 C 0.88812 0.04303 0.9358 0.0
C714 C 0.87805 0.05867 0.92176 0.0
H715 H 0.84629 0.32534 0.90348 0.0
H716 H 0.85549 0.25288 0.91728 0.0
H717 H 0.88774 0.30727 0.90867 0.0
H718 H 0.93166 0.20723 0.91351 0.0
H719 H 0.94937 0.18021 0.93813 0.0
H720 H 0.63051 0.25365 0.69169 0.0
H721 H 0.61022 0.22407 0.66764 0.0
H722 H 0.68031 0.03323 0.66349 0.0
H723 H 0.70122 0.06313 0.68751 0.0
H724 H 0.64417 0.21788 0.64052 0.0
H725 H 0.59092 0.92456 0.65621 0.0
H726 H 0.60265 -0.00073 0.66923 0.0
H727 H 0.63308 0.93871 0.66063 0.0
C728 C 0.64208 0.2063 0.68559 0.0
C729 C 0.66751 0.16063 0.69156 0.0
C730 C 0.63026 0.18917 0.67187 0.0
C731 C 0.64344 0.12574 0.6639 0.0
C732 C 0.66942 0.08149 0.66961 0.0
H733 H 0.59229 0.91032 0.58213 0.0
H734 H 0.61477 0.94126 0.60582 0.0
C735 C 0.68132 0.09865 0.68332 0.0
C736 C 0.62956 0.1053 0.6497 0.0
H737 H 0.58798 0.95958 0.63174 0.0
C738 C 0.63186 0.16148 0.63856 0.0
C739 C 0.61358 0.03163 0.64723 0.0
C740 C 0.60959 0.97013 0.65896 0.0
C741 C 0.61903 0.14541 0.6249 0.0
C742 C 0.60265 0.07198 0.62246 0.0
C743 C 0.60047 0.01581 0.63362 0.0
C744 C 0.5878 0.05183 0.60839 0.0
C745 C 0.62391 0.2065 0.61316 0.0
C746 C 0.56436 0.10223 0.60218 0.0
C747 C 0.55158 0.08474 0.58865 0.0
C748 C 0.56155 0.01572 0.58119 0.0
C749 C 0.58385 0.96335 0.58771 0.0
C750 C 0.59689 0.98133 0.60119 0.0
H751 H 0.64482 0.24656 0.61549 0.0
H752 H 0.62812 0.17714 0.60262 0.0
H753 H 0.60182 0.24446 0.61231 0.0
H754 H 0.55619 0.15561 0.60772 0.0
H755 H 0.53425 0.12583 0.58389 0.0
H756 H 0.41866 0.81031 0.57578 0.0
H757 H 0.40004 0.77223 0.59984 0.0
H758 H 0.38708 0.02114 0.61067 0.0
H759 H 0.40665 0.06011 0.58696 0.0
H760 H 0.42537 0.83675 0.62918 0.0
H761 H 0.29562 0.89943 0.61654 0.0
H762 H 0.32541 0.87693 0.60284 0.0
H763 H 0.32466 0.97408 0.61108 0.0
C764 C 0.41247 0.85709 0.58336 0.0
C765 C 0.4139 0.93838 0.57934 0.0
C766 C 0.40161 0.8351 0.59706 0.0
C767 C 0.39178 0.89393 0.6069 0.0
C768 C 0.39414 0.97491 0.60312 0.0
H769 H 0.30385 0.94055 0.68978 0.0
H770 H 0.32457 0.95384 0.66533 0.0
C771 C 0.4052 -0.00304 0.58953 0.0
C772 C 0.37848 0.87155 0.6211 0.0
H773 H 0.30865 0.8759 0.6409 0.0
C774 C 0.39982 0.84434 0.63176 0.0
C775 C 0.34517 0.88187 0.62434 0.0
C776 C 0.3212 0.90914 0.61311 0.0
C777 C 0.3889 0.83022 0.64583 0.0
C778 C 0.35558 0.84196 0.64918 0.0
C779 C 0.33416 0.86712 0.63835 0.0
C780 C 0.34263 0.83225 0.66397 0.0
C781 C 0.41342 0.80624 0.65709 0.0
C782 C 0.34529 0.759 0.67125 0.0
C783 C 0.33381 0.75149 0.68533 0.0
C784 C 0.31904 0.81687 0.69235 0.0
C785 C 0.31551 0.88936 0.68482 0.0
C786 C 0.32718 0.89692 0.67079 0.0
H787 H 0.43871 0.81999 0.65369 0.0
H788 H 0.40855 0.83722 0.66742 0.0
H789 H 0.41177 0.74072 0.65895 0.0
H790 H 0.35643 0.70771 0.6661 0.0
H791 H 0.33732 0.69499 0.69081 0.0
H792 H 0.54201 0.59966 0.92845 0.0
H793 H 0.56068 0.56854 0.90402 0.0
H794 H 0.60832 0.35581 0.91967 0.0
H795 H 0.59078 0.38705 0.94398 0.0
H796 H 0.62911 0.54259 0.89501 0.0
H797 H 0.55011 0.2779 0.88567 0.0
H798 H 0.54133 0.35206 0.89926 0.0
H799 H 0.57209 0.27752 0.90233 0.0
C800 C 0.55648 0.54632 0.92669 0.0
C801 C 0.56447 0.4954 0.9382 0.0
C802 C 0.56702 0.52852 0.91273 0.0
C803 C 0.58545 0.45926 0.91004 0.0
C804 C 0.59354 0.40865 0.92148 0.0
H805 H 0.67319 0.2171 0.83775 0.0
H806 H 0.65286 0.25933 0.86127 0.0
C807 C 0.58326 0.42651 0.93538 0.0
C808 C 0.59729 0.44041 0.8954 0.0
H809 H 0.59265 0.29966 0.86892 0.0
C810 C 0.62096 0.48999 0.8892 0.0
C811 C 0.58683 0.37125 0.88798 0.0
C812 C 0.561 0.31679 0.89406 0.0
C813 C 0.63519 0.47096 0.87591 0.0
C814 C 0.62476 0.40158 0.86845 0.0
C815 C 0.60072 0.35269 0.87462 0.0
C816 C 0.63853 0.37796 0.85431 0.0
C817 C 0.66209 0.5238 0.87027 0.0
C818 C 0.63727 0.43046 0.84255 0.0
C819 C 0.64925 0.40674 0.82915 0.0
C820 C 0.66216 0.32949 0.82719 0.0
C821 C 0.66334 0.27693 0.83895 0.0
C822 C 0.65172 0.30102 0.85238 0.0
H823 H 0.67378 0.55862 0.87902 0.0
H824 H 0.68109 0.48807 0.86471 0.0
H825 H 0.65174 0.56718 0.86249 0.0
H826 H 0.62636 0.4892 0.84363 0.0
H827 H 0.6474 0.44791 0.82021 0.0
H828 H 0.37422 0.49663 0.94525 0.0
H829 H 0.35684 0.51378 0.92037 0.0
H830 H 0.45567 0.56888 0.90816 0.0
H831 H 0.47332 0.54812 0.93305 0.0
H832 H 0.358 0.64391 0.90506 0.0
H833 H 0.43258 0.41587 0.877 0.0
H834 H 0.42905 0.419 0.89629 0.0
H835 H 0.45687 0.48477 0.88713 0.0
C836 C 0.39224 0.5117 0.9372 0.0
C837 C 0.42504 0.52152 0.941 0.0
C838 C 0.38233 0.52135 0.923 0.0
C839 C 0.40495 0.54176 0.91233 0.0
C840 C 0.43787 0.55104 0.9161 0.0
H841 H 0.38651 0.71181 0.82526 0.0
H842 H 0.40477 0.67249 0.84924 0.0
C843 C 0.44792 0.53989 0.93032 0.0
C844 C 0.39347 0.55848 0.89752 0.0
H845 H 0.40561 0.5122 0.86219 0.0
C846 C 0.36824 0.61445 0.89571 0.0
C847 C 0.4068 0.52006 0.8853 0.0
C848 C 0.43258 0.456 0.88651 0.0
C849 C 0.35639 0.63411 0.88206 0.0
C850 C 0.3701 0.59677 0.86987 0.0
C851 C 0.39524 0.54071 0.87161 0.0
C852 C 0.35919 0.61718 0.85521 0.0
C853 C 0.32974 0.69594 0.88074 0.0
C854 C 0.32763 0.5981 0.85061 0.0
C855 C 0.31706 0.6208 0.83695 0.0
C856 C 0.33789 0.66308 0.82768 0.0
C857 C 0.3697 0.68064 0.83226 0.0
C858 C 0.38027 0.65764 0.84588 0.0
H859 H 0.32619 0.73006 0.89086 0.0
H860 H 0.33525 0.73882 0.87196 0.0
H861 H 0.30652 0.66551 0.87809 0.0
H862 H 0.31114 0.56614 0.85764 0.0
H863 H 0.29242 0.60657 0.83373 0.0
H864 H 0.56606 0.77006 0.07648 0.0
H865 H 0.58208 0.77917 0.10187 0.0
H866 H 0.62728 0.54624 0.09887 0.0
H867 H 0.61265 0.53929 0.07342 0.0
H868 H 0.5671 0.693 0.12452 0.0
H869 H 0.70009 0.66686 0.11647 0.0
H870 H 0.67239 0.68076 0.10169 0.0
H871 H 0.67875 0.58256 0.10922 0.0
C872 C 0.57969 0.72144 0.0813 0.0
C873 C 0.58858 0.65455 0.07307 0.0
C874 C 0.58877 0.72642 0.09577 0.0
C875 C 0.60665 0.66427 0.10226 0.0
C876 C 0.61458 0.59629 0.09406 0.0
H877 H 0.67591 0.56483 0.18857 0.0
H878 H 0.65899 0.55868 0.16342 0.0
C879 C 0.60599 0.59197 0.07956 0.0
C880 C 0.61626 0.66958 0.11766 0.0
H881 H 0.68104 0.65339 0.1405 0.0
C882 C 0.59207 0.68498 0.12798 0.0
C883 C 0.64888 0.65909 0.12226 0.0
C884 C 0.67653 0.64723 0.11181 0.0
C885 C 0.59944 0.6886 0.1427 0.0
C886 C 0.63193 0.67703 0.14727 0.0
C887 C 0.65612 0.66178 0.13699 0.0
C888 C 0.64148 0.68082 0.16264 0.0
C889 C 0.57224 0.70314 0.15327 0.0
C890 C 0.63761 0.75181 0.17054 0.0
C891 C 0.64713 0.75546 0.18494 0.0
C892 C 0.66092 0.68824 0.19177 0.0
C893 C 0.66503 0.61743 0.18375 0.0
C894 C 0.65552 0.6139 0.16934 0.0
H895 H 0.54802 0.69064 0.14848 0.0
H896 H 0.57526 0.66543 0.16299 0.0
H897 H 0.57262 0.76687 0.15665 0.0
H898 H 0.62738 0.80467 0.16553 0.0
H899 H 0.64321 0.81071 0.19079 0.0
H900 H 0.36739 0.26398 0.19461 0.0
H901 H 0.38528 0.27814 0.16964 0.0
H902 H 0.28556 0.30682 0.15624 0.0
H903 H 0.26744 0.29177 0.18134 0.0
H904 H 0.34854 0.18375 0.14118 0.0
H905 H 0.35552 0.5163 0.146 0.0
H906 H 0.36363 0.45268 0.16126 0.0
H907 H 0.32299 0.46139 0.15453 0.0
C908 C 0.34931 0.27203 0.18627 0.0
C909 C 0.3161 0.2767 0.18975 0.0
C910 C 0.35952 0.28017 0.17209 0.0
C911 C 0.3367 0.29376 0.16122 0.0
C912 C 0.3034 0.29613 0.16457 0.0
H913 H 0.36719 0.46516 0.07473 0.0
H914 H 0.34707 0.43656 0.09891 0.0
C915 C 0.2931 0.28725 0.1788 0.0
C916 C 0.34806 0.30901 0.14649 0.0
H917 H 0.37222 0.45924 0.12417 0.0
C918 C 0.35358 0.24384 0.13735 0.0
C919 C 0.35461 0.3875 0.14171 0.0
C920 C 0.34899 0.45895 0.15131 0.0
C921 C 0.36526 0.25521 0.12334 0.0
C922 C 0.37241 0.3339 0.11856 0.0
C923 C 0.36681 0.39901 0.12781 0.0
C924 C 0.38492 0.35061 0.10392 0.0
C925 C 0.36905 0.18288 0.11376 0.0
C926 C 0.41316 0.31279 0.09875 0.0
C927 C 0.42422 0.32785 0.08483 0.0
C928 C 0.40781 0.38285 0.07604 0.0
C929 C 0.38025 0.42265 0.08136 0.0
C930 C 0.36878 0.40629 0.09515 0.0
H931 H 0.35349 0.13242 0.1174 0.0
H932 H 0.36274 0.19719 0.10247 0.0
H933 H 0.39469 0.16216 0.11412 0.0
H934 H 0.4267 0.27179 0.10548 0.0
H935 H 0.44579 0.29731 0.08096 0.0
H936 H 0.53747 0.98626 0.4346 0.0
H937 H 0.55362 0.96339 0.40956 0.0
H938 H 0.65003 0.89803 0.42343 0.0
H939 H 0.63456 0.92256 0.44834 0.0
H940 H 0.61102 0.0303 0.39291 0.0
H941 H 0.61211 0.69976 0.40042 0.0
H942 H 0.59073 0.76656 0.41242 0.0
H943 H 0.63415 0.75696 0.41356 0.0
C944 C 0.56227 0.96842 0.43231 0.0
C945 C 0.58457 0.9552 0.44352 0.0
C946 C 0.57139 0.95502 0.41801 0.0
C947 C 0.60285 0.9279 0.41472 0.0
C948 C 0.62549 0.91777 0.42579 0.0
H949 H 0.71001 0.85321 0.33559 0.0
H950 H 0.69166 0.89597 0.35942 0.0
C951 C 0.61651 0.93147 0.44003 0.0
C952 C 0.61194 0.90728 0.39979 0.0
H953 H 0.63253 0.74908 0.37837 0.0
C954 C 0.61563 0.9689 0.38968 0.0
C955 C 0.61774 0.827 0.39565 0.0
C956 C 0.61328 0.75846 0.40602 0.0
C957 C 0.62567 0.95224 0.37557 0.0
C958 C 0.63209 0.87214 0.37154 0.0
C959 C 0.6278 0.81049 0.38157 0.0
C960 C 0.64276 0.85058 0.35688 0.0
C961 C 0.62919 0.01992 0.36498 0.0
C962 C 0.62131 0.81087 0.34764 0.0
C963 C 0.63154 0.7871 0.33399 0.0
C964 C 0.66366 0.8015 0.32937 0.0
C965 C 0.68506 0.84173 0.3387 0.0
C966 C 0.67467 0.86612 0.35233 0.0
H967 H 0.61957 0.07735 0.36927 0.0
H968 H 0.6553 0.02805 0.36231 0.0
H969 H 0.6162 0.00527 0.35486 0.0
H970 H 0.59658 0.79843 0.35098 0.0
H971 H 0.61409 0.75812 0.32701 0.0
H972 H 0.39276 0.18627 0.44654 0.0
H973 H 0.37484 0.20538 0.42183 0.0
H974 H 0.42627 0.99146 0.40912 0.0
H975 H 0.44429 0.97168 0.43394 0.0
H976 H 0.41142 0.22797 0.39782 0.0
H977 H 0.33652 0.95301 0.3922 0.0
H978 H 0.35096 0.98836 0.40936 0.0
H979 H 0.37787 0.93509 0.39749 0.0
C980 C 0.40055 0.14361 0.43848 0.0
C981 C 0.42012 0.07767 0.44219 0.0
C982 C 0.39007 0.15431 0.42438 0.0
C983 C 0.3988 0.09926 0.41367 0.0
C984 C 0.4186 0.03367 0.41727 0.0
H985 H 0.36604 0.09204 0.32177 0.0
H986 H 0.38199 0.06267 0.34647 0.0
C987 C 0.42901 0.02267 0.43144 0.0
C988 C 0.38798 0.11278 0.39869 0.0
H989 H 0.344 0.03139 0.37122 0.0
C990 C 0.39657 0.18511 0.39202 0.0
C991 C 0.3687 0.05662 0.39114 0.0
C992 C 0.35769 0.97919 0.39793 0.0
C993 C 0.38662 0.2027 0.37798 0.0
C994 C 0.36714 0.14693 0.37048 0.0
C995 C 0.3588 0.07417 0.37706 0.0
C996 C 0.35578 0.16266 0.35566 0.0
C997 C 0.39758 0.2802 0.3712 0.0
C998 C 0.3351 0.22757 0.3527 0.0
C999 C 0.32615 0.24506 0.33856 0.0
C1000 C 0.33766 0.19772 0.32715 0.0
C1001 C 0.35732 0.13081 0.33027 0.0
C1002 C 0.36627 0.11348 0.34438 0.0
H1003 H 0.4184 0.30722 0.37705 0.0
H1004 H 0.4048 0.27065 0.35984 0.0
H1005 H 0.37717 0.32374 0.37139 0.0
H1006 H 0.32628 0.2654 0.36131 0.0
H1007 H 0.31103 0.29699 0.33654 0.0
H1008 H 0.97949 0.82334 0.98063 0.0
H1009 H 0.99287 0.68871 0.97222 0.0
H1010 H 0.95178 0.58957 0.01089 0.0
H1011 H 0.94013 0.72452 0.01967 0.0
H1012 H 0.03314 0.61826 1.00156 0.0
H1013 H 0.94924 0.42465 0.97016 0.0
H1014 H 0.95006 0.53261 0.96826 0.0
H1015 H 0.93125 0.48801 0.98368 0.0
C1016 C 0.97133 0.77236 0.98687 0.0
C1017 C 0.95934 0.78328 1.00085 0.0
C1018 C 0.9791 0.69562 0.98206 0.0
C1019 C 0.97369 0.62996 0.99106 0.0
C1020 C 0.95601 0.64008 1.00383 0.0
H1021 H 0.98954 0.26888 0.03256 0.0
H1022 H 0.01237 0.39473 0.02419 0.0
C1023 C 0.9491 0.71699 1.00881 0.0
C1024 C -0.00529 0.5592 0.98989 0.0
H1025 H 0.98993 0.35905 0.98417 0.0
C1026 C 0.02444 0.56166 0.99731 0.0
C1027 C 0.98338 0.48657 0.98416 0.0
C1028 C 0.9518 0.4823 0.97601 0.0
C1029 C 0.04095 0.49102 1.00081 0.0
C1030 C 0.02751 0.41726 0.99656 0.0
C1031 C 0.00031 0.41606 0.98738 0.0
C1032 C 0.03335 0.34391 1.00489 0.0
C1033 C 0.07055 0.495 0.01031 0.0
C1034 C 0.04111 0.27266 0.99771 0.0
C1035 C 0.02875 0.20014 1.00276 0.0
C1036 C 0.00791 0.19978 0.01468 0.0
C1037 C 0.00528 0.26843 0.02322 0.0
C1038 C 0.01857 0.34027 0.01846 0.0
H1039 H 0.08384 0.55229 1.00877 0.0
H1040 H 0.06276 0.4917 0.0217 0.0
H1041 H 0.08728 0.44412 1.00814 0.0
H1042 H 0.0526 0.27442 0.98725 0.0
H1043 H 0.03153 0.14735 0.99619 0.0
H1044 H 0.1879 0.41041 0.2611 0.0
H1045 H 0.16245 0.54206 0.25905 0.0
H1046 H 0.24057 0.61836 0.23133 0.0
H1047 H 0.26657 0.48931 0.23402 0.0
H1048 H 0.21508 0.61091 0.27322 0.0
H1049 H 0.17977 0.80884 0.22876 0.0
H1050 H 0.17047 0.70286 0.22872 0.0
H1051 H 0.2094 0.73839 0.22244 0.0
C1052 C 0.19889 0.4546 0.25421 0.0
C1053 C 0.23032 0.44339 0.24875 0.0
C1054 C 0.18385 0.52906 0.25267 0.0
C1055 C 0.20076 0.59128 0.2458 0.0
C1056 C 0.22759 0.57209 0.23713 0.0
H1057 H 0.29334 0.02437 0.25297 0.0
H1058 H 0.28553 0.8799 0.25088 0.0
C1059 C 0.24302 0.49884 0.23898 0.0
C1060 C 0.20319 0.66898 0.25315 0.0
H1061 H 0.22229 0.86148 0.24505 0.0
C1062 C 0.21572 0.66654 0.26721 0.0
C1063 C 0.20425 0.74105 0.24535 0.0
C1064 C 0.18991 0.74791 0.23052 0.0
C1065 C 0.23312 0.73095 0.27291 0.0
C1066 C 0.23663 0.8008 0.26456 0.0
C1067 C 0.22088 0.80636 0.25118 0.0
C1068 C 0.2546 0.87153 0.26966 0.0
C1069 C 0.24927 0.7211 0.28735 0.0
C1070 C 0.24377 0.91121 0.28201 0.0
C1071 C 0.24952 -0.00726 0.2835 0.0
C1072 C 0.26443 0.0348 0.27226 0.0
C1073 C 0.28133 -0.00731 0.26163 0.0
C1074 C 0.27633 0.91043 0.26031 0.0
H1075 H 0.25432 0.65707 0.28974 0.0
H1076 H 0.27249 0.75481 0.28797 0.0
H1077 H 0.23268 0.74383 0.29582 0.0
H1078 H 0.22703 0.88274 0.28938 0.0
H1079 H 0.23678 0.02484 0.29193 0.0
H1080 H 0.6851 0.93102 0.27094 0.0
H1081 H 0.6707 0.0727 0.27194 0.0
H1082 H 0.72887 0.1161 0.2342 0.0
H1083 H 0.74417 0.97606 0.23355 0.0
H1084 H 0.73633 0.11487 0.277 0.0
H1085 H 0.68086 0.32829 0.23884 0.0
H1086 H 0.66632 0.22666 0.24084 0.0
H1087 H 0.70104 0.24784 0.22968 0.0
C1088 C 0.69322 0.97015 0.26241 0.0
C1089 C 0.7172 0.94532 0.2527 0.0
C1090 C 0.68453 0.05089 0.26284 0.0
C1091 C 0.70021 0.10504 0.25361 0.0
C1092 C 0.71712 0.07554 0.24165 0.0
H1093 H 0.79137 0.53818 0.2518 0.0
H1094 H 0.7982 0.39325 0.25227 0.0
C1095 C 0.72634 -0.00442 0.24139 0.0
C1096 C 0.71305 0.17967 0.25971 0.0
H1097 H 0.7302 0.37178 0.25067 0.0
C1098 C 0.73442 0.17181 0.27145 0.0
C1099 C 0.71126 0.25264 0.25223 0.0
C1100 C 0.68838 0.26454 0.23977 0.0
C1101 C 0.7552 0.23409 0.27547 0.0
C1102 C 0.75421 0.30608 0.26766 0.0
C1103 C 0.73186 0.31507 0.25631 0.0
C1104 C 0.77199 0.37801 0.27222 0.0
C1105 C 0.77846 0.22172 0.28778 0.0
C1106 C 0.76025 0.41687 0.2845 0.0
C1107 C 0.75648 0.49955 0.28425 0.0
C1108 C 0.76476 0.5419 0.27181 0.0
C1109 C 0.78437 0.50568 0.26138 0.0
C1110 C 0.7883 0.42276 0.26166 0.0
H1111 H 0.78388 0.15716 0.28945 0.0
H1112 H 0.80167 0.25421 0.28598 0.0
H1113 H 0.76722 0.24504 0.29777 0.0
H1114 H 0.74808 0.3835 0.2929 0.0
H1115 H 0.74191 0.52767 0.29255 0.0
H1116 H 0.96664 0.74719 0.4892 0.0
H1117 H 0.97798 0.88855 0.49204 0.0
H1118 H 0.06182 0.83212 0.51801 0.0
H1119 H 0.05219 0.68892 0.51388 0.0
H1120 H 0.00109 0.88046 0.53277 0.0
H1121 H 0.03541 0.09176 0.48959 0.0
H1122 H 0.0096 0.01234 0.48337 0.0
H1123 H 0.04957 0.98913 0.49005 0.0
C1124 C 0.98849 0.76484 0.49487 0.0
C1125 C 0.00702 0.70858 0.50246 0.0
C1126 C -0.00477 0.84568 0.49634 0.0
C1127 C 0.01991 0.87007 0.50571 0.0
C1128 C 0.04221 0.81371 0.51098 0.0
H1129 H 0.01853 0.29586 0.54387 0.0
H1130 H 0.00516 0.15782 0.54927 0.0
C1131 C 0.03621 0.73226 0.50895 0.0
C1132 C 0.0142 0.94475 0.51351 0.0
H1133 H -0.0024 0.14019 0.50724 0.0
C1134 C 0.0009 0.93807 0.52739 0.0
C1135 C 0.01357 0.01851 0.5063 0.0
C1136 C 0.02808 0.02864 0.49154 0.0
C1137 C 0.98497 0.00282 0.53387 0.0
C1138 C 0.98275 0.07542 0.52629 0.0
C1139 C -0.00205 0.08311 0.5128 0.0
C1140 C 0.96885 0.14864 0.53258 0.0
C1141 C 0.96987 -0.0072 0.54851 0.0
C1142 C 0.94785 0.19286 0.52369 0.0
C1143 C 0.95648 0.27103 0.52006 0.0
C1144 C 0.98414 0.30491 0.52632 0.0
C1145 C -0.00201 0.26864 0.53845 0.0
C1146 C 0.98978 0.19009 0.5418 0.0
H1147 H 0.96705 0.92865 0.55142 0.0
H1148 H 0.98572 0.02162 0.55664 0.0
H1149 H 0.9457 0.02243 0.54897 0.0
H1150 H 0.93048 0.162 0.51692 0.0
H1151 H 0.94538 0.29823 0.51079 0.0
H1152 H 0.24723 -0.00139 0.78725 0.0
H1153 H 0.23176 0.13427 0.78092 0.0
H1154 H 0.18008 0.04529 0.74392 0.0
H1155 H 0.19475 0.90865 0.7506 0.0
H1156 H 0.24285 0.10917 0.73851 0.0
H1157 H 0.17065 0.31984 0.77138 0.0
H1158 H 0.19412 0.25358 0.78242 0.0
H1159 H 0.16256 0.2133 0.77112 0.0
C1160 C 0.23057 0.00767 0.77838 0.0
C1161 C 0.22307 0.94464 0.76906 0.0
C1162 C 0.22153 0.08527 0.77478 0.0
C1163 C 0.20562 0.09958 0.76171 0.0
C1164 C 0.19261 0.03507 0.75398 0.0
H1165 H 0.24003 0.5555 0.73081 0.0
H1166 H 0.24201 0.41504 0.72402 0.0
C1167 C 0.20109 0.95705 0.75779 0.0
C1168 C 0.21412 0.17382 0.75416 0.0
H1169 H 0.22025 0.37324 0.76059 0.0
C1170 C 0.23709 0.16755 0.74296 0.0
C1171 C 0.20688 0.24917 0.76011 0.0
C1172 C 0.18195 0.2594 0.77185 0.0
C1173 C 0.25516 0.23418 0.73851 0.0
C1174 C 0.24976 0.30777 0.74539 0.0
C1175 C 0.2248 0.31545 0.75562 0.0
C1176 C 0.2695 0.3792 0.74268 0.0
C1177 C 0.28117 0.22508 0.72723 0.0
C1178 C 0.28875 0.40621 0.75416 0.0
C1179 C 0.28705 0.48645 0.75826 0.0
C1180 C 0.26712 0.53863 0.75049 0.0
C1181 C 0.25501 0.51506 0.73707 0.0
C1182 C 0.25649 0.43491 0.73306 0.0
H1183 H 0.28154 0.16394 0.72252 0.0
H1184 H 0.27719 0.26945 0.71854 0.0
H1185 H 0.30532 0.23776 0.73206 0.0
H1186 H 0.29944 0.36356 0.76155 0.0
H1187 H 0.29693 0.50394 0.76856 0.0
H1188 H 0.68056 0.42692 0.76525 0.0
H1189 H 0.6636 0.56695 0.76627 0.0
H1190 H 0.7307 0.62303 0.73213 0.0
H1191 H 0.74909 0.48532 0.73181 0.0
H1192 H 0.72685 0.61664 0.77492 0.0
H1193 H 0.67734 0.82898 0.7351 0.0
H1194 H 0.66368 0.72617 0.73628 0.0
H1195 H 0.70022 0.75079 0.72657 0.0
C1196 C 0.69055 0.46859 0.75755 0.0
C1197 C 0.71774 0.44824 0.74923 0.0
C1198 C 0.68031 0.54829 0.75791 0.0
C1199 C 0.69725 0.60569 0.74982 0.0
C1200 C 0.71788 0.58 0.73874 0.0
H1201 H 0.79105 0.03741 0.75174 0.0
H1202 H 0.79174 0.89138 0.75142 0.0
C1203 C 0.72884 0.50134 0.73869 0.0
C1204 C 0.70684 0.68093 0.75681 0.0
H1205 H 0.72449 0.87406 0.74861 0.0
C1206 C 0.72563 0.67374 0.76939 0.0
C1207 C 0.70581 0.75435 0.74944 0.0
C1208 C 0.68539 0.76569 0.73616 0.0
C1209 C 0.74537 0.73649 0.77416 0.0
C1210 C 0.74571 0.80842 0.7663 0.0
C1211 C 0.72523 0.81737 0.75429 0.0
C1212 C 0.76391 0.87946 0.77103 0.0
C1213 C 0.76655 0.72412 0.78719 0.0
C1214 C 0.75274 0.91922 0.78332 0.0
C1215 C 0.75287 0.00245 0.78359 0.0
C1216 C 0.76358 0.04462 0.77147 0.0
C1217 C 0.78213 0.00525 0.76105 0.0
C1218 C 0.78235 0.92175 0.76084 0.0
H1219 H 0.77143 0.65953 0.78912 0.0
H1220 H 0.79012 0.75595 0.78608 0.0
H1221 H 0.75384 0.74819 0.79678 0.0
H1222 H 0.73875 0.88776 0.7914 0.0
H1223 H 0.73905 0.03275 0.79189 0.0
H1224 H 0.48635 0.76987 0.48262 0.0
H1225 H 0.47286 0.62903 0.48437 0.0
H1226 H 0.42289 0.67344 0.5243 0.0
H1227 H 0.43529 0.8157 0.5222 0.0
H1228 H 0.49111 0.63345 0.526 0.0
H1229 H 0.42507 0.41597 0.49184 0.0
H1230 H 0.44126 0.49916 0.48194 0.0
H1231 H 0.41015 0.51629 0.49518 0.0
C1232 C 0.47029 0.75046 0.49117 0.0
C1233 C 0.46317 0.80148 0.50266 0.0
C1234 C 0.46227 0.66983 0.49213 0.0
C1235 C 0.44839 0.64079 0.50485 0.0
C1236 C 0.43429 0.69501 0.51455 0.0
H1237 H 0.49852 0.21525 0.54161 0.0
H1238 H 0.50346 0.35993 0.5421 0.0
C1239 C 0.4417 0.77627 0.51342 0.0
C1240 C 0.46279 0.5668 0.51051 0.0
H1241 H 0.47597 0.37216 0.50179 0.0
C1242 C 0.48732 0.5756 0.52096 0.0
C1243 C 0.45838 0.49265 0.50365 0.0
C1244 C 0.43208 0.48011 0.49261 0.0
C1245 C 0.50852 0.51269 0.52425 0.0
C1246 C 0.50483 0.43951 0.51698 0.0
C1247 C 0.47946 0.42974 0.50698 0.0
C1248 C 0.5237 0.36782 0.52072 0.0
C1249 C 0.53518 0.52529 0.53512 0.0
C1250 C 0.53831 0.32459 0.50948 0.0
C1251 C 0.53526 0.24144 0.50917 0.0
C1252 C 0.51806 0.20337 0.52017 0.0
C1253 C 0.51135 0.2447 0.53292 0.0
C1254 C 0.51438 0.32758 0.53324 0.0
H1255 H 0.53939 0.58989 0.53732 0.0
H1256 H 0.52826 0.49586 0.54535 0.0
H1257 H 0.55828 0.49778 0.53137 0.0
H1258 H 0.54619 0.35521 0.49984 0.0
H1259 H 0.54095 0.20981 0.49932 0.0
H1260 H 0.44143 0.68664 0.03398 0.0
H1261 H 0.45316 0.81084 0.04653 0.0
H1262 H 0.53656 0.84885 0.01921 0.0
H1263 H 0.52637 0.72008 1.00729 0.0
H1264 H 0.5479 0.89744 0.04686 0.0
H1265 H 0.42835 0.01572 0.02785 0.0
H1266 H 0.42663 0.92975 0.03932 0.0
H1267 H 0.4442 0.92128 0.02169 0.0
C1268 C 0.46248 0.72093 0.03072 0.0
C1269 C 0.48289 0.69442 0.01957 0.0
C1270 C 0.46906 0.79199 0.0379 0.0
C1271 C 0.49523 0.83969 0.0336 0.0
C1272 C 0.51617 0.8126 0.02267 0.0
H1273 H 0.56325 0.2475 0.01135 0.0
H1274 H 0.55829 0.11988 0.02388 0.0
C1275 C 0.51017 0.73989 0.01576 0.0
C1276 C 0.49916 0.92113 0.03941 0.0
H1277 H 0.46446 0.10593 0.03769 0.0
C1278 C 0.52946 0.94296 0.04513 0.0
C1279 C 0.47466 0.97997 0.03755 0.0
C1280 C 0.44171 0.96094 0.0312 0.0
C1281 C 0.53714 0.02355 0.04748 0.0
C1282 C 0.51394 0.08267 0.04396 0.0
C1283 C 0.48225 0.06005 0.04025 0.0
C1284 C 0.52379 0.16376 0.03968 0.0
C1285 C 0.57078 0.04513 0.05259 0.0
C1286 C 0.50626 0.23082 0.04447 0.0
C1287 C 0.5087 0.30318 0.03708 0.0
C1288 C 0.52806 0.30825 0.02476 0.0
C1289 C 0.54745 0.2434 0.02064 0.0
C1290 C 0.54517 0.17131 0.028 0.0
H1291 H 0.57985 -0.00013 0.06036 0.0
H1292 H 0.58771 0.0454 0.04331 0.0
H1293 H 0.57121 0.10519 0.05772 0.0
H1294 H 0.48954 0.22597 0.05342 0.0
H1295 H 0.49549 0.355 0.04091 0.0
H1296 H 0.33374 0.37263 0.01157 0.0
H1297 H 0.28578 0.2945 1.0056 0.0
H1298 H 0.34188 0.15527 0.97536 0.0
H1299 H 0.39074 0.23241 0.9817 0.0
H1300 H 0.25336 0.26556 0.97968 0.0
H1301 H 0.30661 0.98633 1.00295 0.0
H1302 H 0.32569 0.08235 1.00572 0.0
H1303 H 0.32729 0.03542 0.9884 0.0
C1304 C 0.33591 0.32556 1.00362 0.0
C1305 C 0.36594 0.30737 0.99726 0.0
C1306 C 0.30846 0.28139 1.00014 0.0
C1307 C 0.31047 0.21881 0.99014 0.0
C1308 C 0.34011 0.20252 0.98328 0.0
H1309 H 0.13792 0.90946 0.99674 0.0
H1310 H 0.19161 0.95127 0.98786 0.0
C1311 C 0.36788 0.24624 0.98693 0.0
C1312 C 0.28169 0.16779 0.98816 0.0
H1313 H 0.25001 -0.00641 1.00109 0.0
C1314 C 0.25267 0.20506 0.98392 0.0
C1315 C 0.28106 0.08856 0.99353 0.0
C1316 C 0.31172 0.04543 0.99796 0.0
C1317 C 0.22266 0.16847 0.98639 0.0
C1318 C 0.22192 0.09337 0.99336 0.0
C1319 C 0.25093 0.05196 0.99601 0.0
C1320 C 0.19168 0.06282 0.9997 0.0
C1321 C 0.19197 0.21287 0.98236 0.0
C1322 C 0.17522 0.10978 0.00987 0.0
C1323 C 0.1447 0.08681 0.01474 0.0
C1324 C 0.13085 0.0154 0.00984 0.0
C1325 C 0.14849 0.96473 1.00066 0.0
C1326 C 0.17886 0.98865 0.99553 0.0
H1327 H 0.19618 0.25312 0.97306 0.0
H1328 H 0.17192 0.17087 0.9797 0.0
H1329 H 0.18414 0.25073 0.99153 0.0
H1330 H 0.18544 0.16584 0.0136 0.0
H1331 H 0.13147 0.12601 0.02196 0.0
H1332 H 0.80562 0.03379 0.99226 0.0
H1333 H 0.76577 0.92638 0.99429 0.0
H1334 H 0.78965 0.8989 0.03908 0.0
H1335 H 0.82823 0.00917 0.03721 0.0
H1336 H 0.80413 0.78826 1.00177 0.0
H1337 H 0.69426 0.81946 0.03656 0.0
H1338 H 0.71228 0.90467 0.02765 0.0
H1339 H 0.73218 0.86055 0.04282 0.0
C1340 C 0.80034 0.00928 1.00277 0.0
C1341 C 0.82011 0.02807 0.01452 0.0
C1342 C 0.77796 0.94719 1.0039 0.0
C1343 C 0.77565 0.9036 0.01673 0.0
C1344 C 0.79113 0.93195 0.02911 0.0
H1345 H 0.66663 0.47179 0.017 0.0
H1346 H 0.72071 0.52513 0.02193 0.0
C1347 C 0.81298 -0.00444 0.02805 0.0
C1348 C 0.76464 0.82003 0.016 0.0
H1349 H 0.70265 0.69615 0.02517 0.0
C1350 C 0.78212 0.76756 1.00703 0.0
C1351 C 0.73682 0.79281 0.02331 0.0
C1352 C 0.71759 0.84702 0.03311 0.0
C1353 C 0.7705 0.69075 1.00403 0.0
C1354 C 0.74101 0.66634 0.01026 0.0
C1355 C 0.72551 0.71541 0.02047 0.0
C1356 C 0.72087 0.6043 1.00359 0.0
C1357 C 0.78841 0.6384 0.99347 0.0
C1358 C 0.70472 0.62601 0.99091 0.0
C1359 C 0.67337 0.59823 0.98839 0.0
C1360 C 0.65876 0.54653 0.99829 0.0
C1361 C 0.67749 0.51248 0.00932 0.0
C1362 C 0.7085 0.54229 0.0121 0.0
H1363 H 0.81468 0.65385 0.99303 0.0
H1364 H 0.78577 0.57412 0.99631 0.0
H1365 H 0.77797 0.64746 0.98261 0.0
H1366 H 0.71401 0.67395 0.98422 0.0
H1367 H 0.65936 0.62408 0.9797 0.0
H1368 H 0.08118 0.19802 0.24412 0.0
H1369 H 0.02831 0.26522 0.242 0.0
H1370 H 0.04187 0.3716 0.28375 0.0
H1371 H 0.09483 0.30608 0.28575 0.0
H1372 H 0.96821 0.32815 0.26827 0.0
H1373 H 0.06168 0.52686 0.2432 0.0
H1374 H 0.0634 0.4199 0.24058 0.0
H1375 H 0.07222 0.46144 0.25787 0.0
C1376 C 0.07186 0.23193 0.25315 0.0
C1377 C 0.09168 0.24845 0.265 0.0
C1378 C 0.04181 0.27011 0.25194 0.0
C1379 C 0.03182 0.32375 0.26266 0.0
C1380 C 0.04944 0.33011 0.27545 0.0
H1381 H 0.91391 0.74121 0.26979 0.0
H1382 H 0.9614 0.65204 0.26983 0.0
C1383 C 0.07957 0.29301 0.27656 0.0
C1384 C 0.00936 0.38842 0.25902 0.0
H1385 H 0.00848 0.5773 0.24503 0.0
C1386 C 0.97676 0.3823 0.26307 0.0
C1387 C 0.02121 0.45906 0.25245 0.0
C1388 C 0.05653 0.46793 0.24825 0.0
C1389 C 0.95538 0.44608 0.26068 0.0
C1390 C 0.96721 0.51653 0.25405 0.0
C1391 C -0.00019 0.52266 0.25003 0.0
C1392 C 0.94544 0.58404 0.25136 0.0
C1393 C 0.92036 0.43861 0.26541 0.0
C1394 C 0.92248 0.57774 0.24037 0.0
C1395 C 0.89545 0.62761 0.24041 0.0
C1396 C 0.89149 0.68432 0.25138 0.0
C1397 C 0.91662 0.69754 0.26127 0.0
C1398 C 0.94359 0.64685 0.26131 0.0
H1399 H 0.91614 0.38409 0.27198 0.0
H1400 H 0.91301 0.492 0.27175 0.0
H1401 H 0.90441 0.4357 0.25582 0.0
H1402 H 0.92393 0.52964 0.23258 0.0
H1403 H 0.87641 0.61753 0.23258 0.0
H1404 H 0.33596 0.01921 0.53485 0.0
H1405 H 0.29172 0.92362 0.53867 0.0
H1406 H 0.28072 0.89818 0.49287 0.0
H1407 H 0.32571 0.9913 0.48907 0.0
H1408 H 0.22536 0.87732 0.52752 0.0
H1409 H 0.32918 0.69147 0.50908 0.0
H1410 H 0.33368 0.79444 0.51467 0.0
H1411 H 0.31917 0.77134 0.49695 0.0
C1412 C 0.32259 -0.00286 0.52563 0.0
C1413 C 0.33404 0.01122 0.51168 0.0
C1414 C 0.2976 0.94211 0.52783 0.0
C1415 C 0.28398 0.9026 0.51603 0.0
C1416 C 0.29153 0.92768 0.50207 0.0
H1417 H 0.15669 0.58091 0.48817 0.0
H1418 H 0.20642 0.65718 0.49241 0.0
C1419 C 0.31688 0.98142 0.49988 0.0
C1420 C 0.26804 0.82491 0.51804 0.0
H1421 H 0.27658 0.62817 0.50889 0.0
C1422 C 0.23668 0.82241 0.52379 0.0
C1423 C 0.28358 0.75341 0.51353 0.0
C1424 C 0.31841 0.75241 0.50836 0.0
C1425 C 0.21915 0.75061 0.5239 0.0
C1426 C 0.23356 0.68085 0.51804 0.0
C1427 C 0.26582 0.68208 0.51334 0.0
C1428 C 0.21305 0.61288 0.51403 0.0
C1429 C 0.18449 0.75069 0.52927 0.0
C1430 C 0.20233 0.55835 0.52442 0.0
C1431 C 0.1743 0.51343 0.52187 0.0
C1432 C 0.1569 0.52472 0.50908 0.0
C1433 C 0.16996 0.57182 0.49809 0.0
C1434 C 0.19826 0.6151 0.5005 0.0
H1435 H 0.17736 0.80932 0.53397 0.0
H1436 H 0.16768 0.73658 0.5203 0.0
H1437 H 0.18139 0.70359 0.53757 0.0
H1438 H 0.21359 0.55658 0.53492 0.0
H1439 H 0.16425 0.47759 0.53049 0.0
H1440 H 0.86553 0.29393 0.48692 0.0
H1441 H 0.81778 0.21149 0.49176 0.0
H1442 H 0.77592 0.40313 0.51681 0.0
H1443 H 0.82335 0.48668 0.51174 0.0
H1444 H 0.80822 0.17761 0.52143 0.0
H1445 H 0.69726 0.30436 0.49563 0.0
H1446 H 0.73774 0.32485 0.48903 0.0
H1447 H 0.72315 0.37402 0.50491 0.0
C1448 C 0.84555 0.31951 0.49298 0.0
C1449 C 0.84818 0.39575 0.49919 0.0
C1450 C 0.81842 0.27245 0.49576 0.0
C1451 C 0.79378 0.30118 0.50478 0.0
C1452 C 0.79473 0.3804 0.50974 0.0
H1453 H 0.62999 0.06881 0.54097 0.0
H1454 H 0.68223 0.1375 0.54263 0.0
C1455 C 0.82178 0.42797 0.50683 0.0
C1456 C 0.77026 0.24435 0.51078 0.0
H1457 H 0.69 0.1965 0.51161 0.0
C1458 C 0.78232 0.18149 0.5193 0.0
C1459 C 0.73666 0.251 0.50811 0.0
C1460 C 0.72279 0.31679 0.49885 0.0
C1461 C 0.76146 0.12339 0.52496 0.0
C1462 C 0.72805 0.12906 0.522 0.0
C1463 C 0.71586 0.1932 0.51386 0.0
C1464 C 0.70496 0.06632 0.52604 0.0
C1465 C 0.775 0.05619 0.53395 0.0
C1466 C 0.70175 -0.00041 0.51698 0.0
C1467 C 0.67189 0.96033 0.516 0.0
C1468 C 0.64554 0.98834 0.52409 0.0
C1469 C 0.65029 0.04689 0.53465 0.0
C1470 C 0.68006 0.08579 0.53566 0.0
H1471 H 0.80093 0.06609 0.5368 0.0
H1472 H 0.76056 0.04973 0.54396 0.0
H1473 H 0.77301 -0.00093 0.52792 0.0
H1474 H 0.72081 0.98462 0.50939 0.0
H1475 H 0.66837 0.91551 0.50773 0.0
H1476 H 0.89924 0.20453 0.7356 0.0
H1477 H 0.94954 0.12665 0.73686 0.0
H1478 H 0.95646 0.17639 0.78218 0.0
H1479 H 0.90639 0.25642 0.78086 0.0
H1480 H 0.02027 0.14454 0.75548 0.0
H1481 H 0.92321 0.92517 0.77007 0.0
H1482 H 0.91416 0.00985 0.75873 0.0
H1483 H 0.92277 0.02529 0.77737 0.0
C1484 C 0.91252 0.20222 0.74564 0.0
C1485 C 0.89926 0.23517 0.75817 0.0
C1486 C 0.94111 0.15802 0.74635 0.0
C1487 C 0.95611 0.14547 0.75964 0.0
C1488 C 0.94503 0.18619 0.77185 0.0
H1489 H 0.08196 0.75141 0.78189 0.0
H1490 H 0.03481 0.84151 0.78192 0.0
C1491 C 0.91662 0.23178 0.77109 0.0
C1492 C 0.9778 0.07652 0.76113 0.0
H1493 H 0.97572 0.87409 0.76604 0.0
C1494 C 0.01078 0.08552 0.75794 0.0
C1495 C 0.96491 0.0001 0.76435 0.0
C1496 C 0.92933 0.98875 0.76784 0.0
C1497 C 0.03141 0.01889 0.75767 0.0
C1498 C 0.01822 0.94179 0.76024 0.0
C1499 C 0.98541 0.93328 0.76387 0.0
C1500 C 0.0387 0.86997 0.75933 0.0
C1501 C 0.06715 0.03154 0.75463 0.0
C1502 C 0.05424 0.85149 0.74636 0.0
C1503 C 0.08122 0.80131 0.74638 0.0
C1504 C 0.09211 0.76785 0.75929 0.0
C1505 C 0.07362 0.77664 0.77183 0.0
C1506 C 0.04693 0.82826 0.77187 0.0
H1507 H 0.07457 0.09463 0.75653 0.0
H1508 H 0.08242 -0.00816 0.76142 0.0
H1509 H 0.07217 0.01707 0.74322 0.0
H1510 H 0.04756 0.88209 0.73654 0.0
H1511 H 0.09531 0.7946 0.73661 0.0
H1512 H 0.58592 0.24526 0.78436 0.0
H1513 H 0.53757 0.3289 0.78803 0.0
H1514 H 0.5269 0.35304 0.74219 0.0
H1515 H 0.57583 0.27226 0.73855 0.0
H1516 H 0.55097 0.48882 0.77332 0.0
H1517 H 0.43098 0.35349 0.76046 0.0
H1518 H 0.46448 0.29616 0.76777 0.0
H1519 H 0.46432 0.32336 0.74914 0.0
C1520 C 0.57204 0.26471 0.77511 0.0
C1521 C 0.58413 0.2531 0.7612 0.0
C1522 C 0.54463 0.31252 0.77722 0.0
C1523 C 0.52899 0.34686 0.76537 0.0
C1524 C 0.53861 0.32608 0.75142 0.0
H1525 H 0.40737 0.70398 0.73594 0.0
H1526 H 0.45491 0.61796 0.73896 0.0
C1527 C 0.56642 0.28001 0.74933 0.0
C1528 C 0.5091 0.41893 0.76722 0.0
H1529 H 0.43504 0.49569 0.75883 0.0
C1530 C 0.52538 0.49065 0.77049 0.0
C1531 C 0.47606 0.42016 0.76336 0.0
C1532 C 0.45774 0.34416 0.76008 0.0
C1533 C 0.50975 0.56479 0.76908 0.0
C1534 C 0.47714 0.56616 0.76449 0.0
C1535 C 0.46037 0.49403 0.76209 0.0
C1536 C 0.45944 0.64099 0.76173 0.0
C1537 C 0.52851 0.64097 0.7717 0.0
C1538 C 0.44858 0.68777 0.77327 0.0
C1539 C 0.42192 0.73855 0.77145 0.0
C1540 C 0.40585 0.74072 0.75818 0.0
C1541 C 0.41961 0.7028 0.74623 0.0
C1542 C 0.44659 0.65355 0.74798 0.0
H1543 H 0.55489 0.62954 0.77331 0.0
H1544 H 0.5254 0.68269 0.76253 0.0
H1545 H 0.51885 0.67111 0.78143 0.0
H1546 H 0.45811 0.67821 0.78397 0.0
H1547 H 0.41131 0.76699 0.78081 0.0
H1548 H 0.59291 0.83424 0.28436 0.0
H1549 H 0.54224 0.90657 0.28109 0.0
H1550 H 0.51783 0.75304 0.24538 0.0
H1551 H 0.56911 0.68019 0.24868 0.0
H1552 H 0.53297 0.90701 0.23767 0.0
H1553 H 0.44449 0.91344 0.28225 0.0
H1554 H 0.48514 0.92395 0.2889 0.0
H1555 H 0.47331 0.83257 0.28002 0.0
C1556 C 0.57585 0.81333 0.27632 0.0
C1557 C 0.58479 0.75367 0.26652 0.0
C1558 C 0.54676 0.85413 0.27453 0.0
C1559 C 0.52659 0.83558 0.26288 0.0
C1560 C 0.53328 0.76794 0.25441 0.0
H1561 H 0.38562 0.13468 0.22752 0.0
H1562 H 0.43401 0.05085 0.22682 0.0
C1563 C 0.56243 0.72646 0.2563 0.0
C1564 C 0.50539 0.89921 0.25736 0.0
H1565 H 0.44882 0.03492 0.26811 0.0
C1566 C 0.51402 0.93415 0.24416 0.0
C1567 C 0.48135 0.93511 0.26602 0.0
C1568 C 0.47037 0.89869 0.28002 0.0
C1569 C 0.49993 0.00608 0.23963 0.0
C1570 C 0.47677 0.04321 0.24855 0.0
C1571 C 0.46747 0.00714 0.26153 0.0
C1572 C 0.45829 0.11385 0.24404 0.0
C1573 C 0.51032 0.04285 0.22558 0.0
C1574 C 0.45756 0.18125 0.25305 0.0
C1575 C 0.42979 0.22916 0.2535 0.0
C1576 C 0.40291 0.20863 0.24504 0.0
C1577 C 0.40605 0.15004 0.23434 0.0
C1578 C 0.43382 0.10275 0.23381 0.0
H1579 H 0.53362 0.01712 0.22166 0.0
H1580 H 0.49134 0.03127 0.21738 0.0
H1581 H 0.51304 0.10876 0.22667 0.0
H1582 H 0.47645 0.19038 0.26099 0.0
H1583 H 0.42784 0.27481 0.26173 0.0
loop_
_geom_bond_atom_site_label_1
_geom_bond_atom_site_label_2
_geom_bond_distance
_geom_bond_site_symmetry_2
_ccdc_geom_bond_type
Cd0 N3 2.334 1_554 S
Cd0 N29 2.304 . S
Cd0 O36 2.270 . S
Cd0 O39 2.273 1_545 S
Cd0 O40 2.415 1_554 S
Cd0 O41 2.330 1_545 S
Cd1 N16 2.304 . S
Cd1 N20 2.334 1_554 S
Cd1 O37 2.273 1_565 S
Cd1 O38 2.270 . S
Cd1 O42 2.415 1_554 S
Cd1 O43 2.330 1_565 S
C2 N3 1.332 1_565 S
C2 C6 1.381 . S
C2 H8 0.931 . S
N3 Cd0 2.334 1_556 S
N3 C2 1.332 1_545 S
N3 C7 1.328 . S
C4 C5 1.396 . S
C4 C7 1.378 . S
C4 H46 0.931 . S
C5 C4 1.396 . S
C5 C6 1.382 1_545 S
C6 C2 1.381 . S
C6 C5 1.382 1_565 S
C6 H47 0.930 . S
C7 N3 1.328 . S
C7 C4 1.378 . S
C7 H9 0.930 . S
H8 C2 0.931 . S
H9 C7 0.930 . S
C10 O36 1.242 1_655 S
C10 O37 1.253 . S
C11 C12 1.379 . S
C11 N16 1.337 1_545 S
C11 H17 0.929 . S
C12 C11 1.379 . S
C12 C13 1.380 1_545 S
C12 H48 0.929 . S
C13 C12 1.380 1_565 S
C13 C14 1.399 . S
C14 C13 1.399 . S
C14 C15 1.376 . S
C14 H49 0.931 . S
C15 C14 1.376 . S
C15 N16 1.338 . S
C15 H18 0.930 . S
N16 Cd1 2.304 . S
N16 C11 1.337 1_565 S
N16 C15 1.338 . S
H17 C11 0.929 . S
H18 C15 0.930 . S
C19 N20 1.332 1_545 S
C19 C23 1.381 . S
C19 H25 0.931 . S
N20 Cd1 2.334 1_556 S
N20 C19 1.332 1_565 S
N20 C24 1.328 . S
C21 C22 1.396 . S
C21 C24 1.378 . S
C21 H50 0.931 . S
C22 C21 1.396 . S
C22 C23 1.382 1_565 S
C23 C19 1.381 . S
C23 C22 1.382 1_545 S
C23 H51 0.930 . S
C24 N20 1.328 . S
C24 C21 1.378 . S
C24 H26 0.930 . S
H25 C19 0.931 . S
H26 C24 0.930 . S
C27 O38 1.242 1_455 S
C27 O39 1.253 . S
C28 O40 1.235 1_554 S
C28 O41 1.236 1_545 S
N29 Cd0 2.304 . S
N29 C30 1.337 1_545 S
N29 C34 1.338 . S
C30 N29 1.337 1_565 S
C30 C31 1.379 . S
C30 H44 0.929 . S
C31 C30 1.379 . S
C31 C32 1.380 1_565 S
C31 H52 0.929 . S
C32 C31 1.380 1_545 S
C32 C33 1.399 . S
C33 C32 1.399 . S
C33 C34 1.376 . S
C33 H53 0.931 . S
C34 N29 1.338 . S
C34 C33 1.376 . S
C34 H45 0.930 . S
C35 O42 1.235 1_554 S
C35 O43 1.236 1_565 S
O36 Cd0 2.270 . S
O36 C10 1.242 1_455 S
O37 Cd1 2.273 1_545 S
O37 C10 1.253 . S
O38 Cd1 2.270 . S
O38 C27 1.242 1_655 S
O39 Cd0 2.273 1_565 S
O39 C27 1.253 . S
O40 Cd0 2.415 1_556 S
O40 C28 1.235 1_556 S
O41 Cd0 2.330 1_565 S
O41 C28 1.236 1_565 S
O42 Cd1 2.415 1_556 S
O42 C35 1.235 1_556 S
O43 Cd1 2.330 1_545 S
O43 C35 1.236 1_545 S
H44 C30 0.929 . S
H45 C34 0.930 . S
H46 C4 0.931 . S
H47 C6 0.930 . S
H48 C12 0.929 . S
H49 C14 0.931 . S
H50 C21 0.931 . S
H51 C23 0.930 . S
H52 C31 0.929 . S
H53 C33 0.931 . S
Cd54 N57 2.334 . S
Cd54 N83 2.304 . S
Cd54 O90 2.268 . S
Cd54 O93 2.273 . S
Cd54 O94 2.417 . S
Cd54 O95 2.330 . S
Cd55 N70 2.304 . S
Cd55 N74 2.334 . S
Cd55 O91 2.273 . S
Cd55 O92 2.268 . S
Cd55 O96 2.417 . S
Cd55 O97 2.330 . S
C56 N57 1.332 . S
C56 C60 1.381 . S
C56 H62 0.931 . S
N57 Cd54 2.334 . S
N57 C56 1.332 . S
N57 C61 1.328 . S
C58 C59 1.396 . S
C58 C61 1.378 . S
C58 H100 0.931 . S
C59 C58 1.396 . S
C59 C60 1.382 . S
C60 C56 1.381 . S
C60 C59 1.382 . S
C60 H101 0.930 . S
C61 N57 1.328 . S
C61 C58 1.378 . S
C61 H63 0.930 . S
H62 C56 0.931 . S
H63 C61 0.930 . S
C64 O90 1.238 . S
C64 O91 1.253 . S
C65 C66 1.379 . S
C65 N70 1.337 . S
C65 H71 0.929 . S
C66 C65 1.379 . S
C66 C67 1.380 . S
C66 H102 0.929 . S
C67 C66 1.380 . S
C67 C68 1.399 . S
C68 C67 1.399 . S
C68 C69 1.376 . S
C68 H103 0.931 . S
C69 C68 1.376 . S
C69 N70 1.338 . S
C69 H72 0.930 . S
N70 Cd55 2.304 . S
N70 C65 1.337 . S
N70 C69 1.338 . S
H71 C65 0.929 . S
H72 C69 0.930 . S
C73 N74 1.332 . S
C73 C77 1.381 . S
C73 H79 0.931 . S
N74 Cd55 2.334 . S
N74 C73 1.332 . S
N74 C78 1.328 . S
C75 C76 1.396 . S
C75 C78 1.378 . S
C75 H104 0.931 . S
C76 C75 1.396 . S
C76 C77 1.382 . S
C77 C73 1.381 . S
C77 C76 1.382 . S
C77 H105 0.930 . S
C78 N74 1.328 . S
C78 C75 1.378 . S
C78 H80 0.930 . S
H79 C73 0.931 . S
H80 C78 0.930 . S
C81 O92 1.238 . S
C81 O93 1.253 . S
C82 O94 1.239 . S
C82 O95 1.230 . S
N83 Cd54 2.304 . S
N83 C84 1.337 . S
N83 C88 1.338 . S
C84 N83 1.337 . S
C84 C85 1.379 . S
C84 H98 0.929 . S
C85 C84 1.379 . S
C85 C86 1.380 . S
C85 H106 0.929 . S
C86 C85 1.380 . S
C86 C87 1.399 . S
C87 C86 1.399 . S
C87 C88 1.376 . S
C87 H107 0.931 . S
C88 N83 1.338 . S
C88 C87 1.376 . S
C88 H99 0.930 . S
C89 O96 1.239 . S
C89 O97 1.230 . S
O90 Cd54 2.268 . S
O90 C64 1.238 . S
O91 Cd55 2.273 . S
O91 C64 1.253 . S
O92 Cd55 2.268 . S
O92 C81 1.238 . S
O93 Cd54 2.273 . S
O93 C81 1.253 . S
O94 Cd54 2.417 . S
O94 C82 1.239 . S
O95 Cd54 2.330 . S
O95 C82 1.230 . S
O96 Cd55 2.417 . S
O96 C89 1.239 . S
O97 Cd55 2.330 . S
O97 C89 1.230 . S
H98 C84 0.929 . S
H99 C88 0.930 . S
H100 C58 0.931 . S
H101 C60 0.930 . S
H102 C66 0.929 . S
H103 C68 0.931 . S
H104 C75 0.931 . S
H105 C77 0.930 . S
H106 C85 0.929 . S
H107 C87 0.931 . S
Cd108 N111 2.334 . S
Cd108 N137 2.304 . S
Cd108 O144 2.268 . S
Cd108 O147 2.273 . S
Cd108 O148 2.417 . S
Cd108 O149 2.330 . S
Cd109 N124 2.304 . S
Cd109 N128 2.334 . S
Cd109 O145 2.273 . S
Cd109 O146 2.268 . S
Cd109 O150 2.417 . S
Cd109 O151 2.330 . S
C110 N111 1.332 . S
C110 C114 1.381 . S
C110 H116 0.931 . S
N111 Cd108 2.334 . S
N111 C110 1.332 . S
N111 C115 1.328 . S
C112 C113 1.396 . S
C112 C115 1.378 . S
C112 H154 0.931 . S
C113 C112 1.396 . S
C113 C114 1.382 . S
C114 C110 1.381 . S
C114 C113 1.382 . S
C114 H155 0.930 . S
C115 N111 1.328 . S
C115 C112 1.378 . S
C115 H117 0.930 . S
H116 C110 0.931 . S
H117 C115 0.930 . S
C118 O144 1.238 . S
C118 O145 1.253 . S
C119 C120 1.379 . S
C119 N124 1.337 . S
C119 H125 0.929 . S
C120 C119 1.379 . S
C120 C121 1.380 . S
C120 H156 0.929 . S
C121 C120 1.380 . S
C121 C122 1.399 . S
C122 C121 1.399 . S
C122 C123 1.376 . S
C122 H157 0.931 . S
C123 C122 1.376 . S
C123 N124 1.338 . S
C123 H126 0.930 . S
N124 Cd109 2.304 . S
N124 C119 1.337 . S
N124 C123 1.338 . S
H125 C119 0.929 . S
H126 C123 0.930 . S
C127 N128 1.332 . S
C127 C131 1.381 . S
C127 H133 0.931 . S
N128 Cd109 2.334 . S
N128 C127 1.332 . S
N128 C132 1.328 . S
C129 C130 1.396 . S
C129 C132 1.378 . S
C129 H158 0.931 . S
C130 C129 1.396 . S
C130 C131 1.382 . S
C131 C127 1.381 . S
C131 C130 1.382 . S
C131 H159 0.930 . S
C132 N128 1.328 . S
C132 C129 1.378 . S
C132 H134 0.930 . S
H133 C127 0.931 . S
H134 C132 0.930 . S
C135 O146 1.238 . S
C135 O147 1.253 . S
C136 O148 1.239 . S
C136 O149 1.230 . S
N137 Cd108 2.304 . S
N137 C138 1.337 . S
N137 C142 1.338 . S
C138 N137 1.337 . S
C138 C139 1.379 . S
C138 H152 0.929 . S
C139 C138 1.379 . S
C139 C140 1.380 . S
C139 H160 0.929 . S
C140 C139 1.380 . S
C140 C141 1.399 . S
C141 C140 1.399 . S
C141 C142 1.376 . S
C141 H161 0.931 . S
C142 N137 1.338 . S
C142 C141 1.376 . S
C142 H153 0.930 . S
C143 O150 1.239 . S
C143 O151 1.230 . S
O144 Cd108 2.268 . S
O144 C118 1.238 . S
O145 Cd109 2.273 . S
O145 C118 1.253 . S
O146 Cd109 2.268 . S
O146 C135 1.238 . S
O147 Cd108 2.273 . S
O147 C135 1.253 . S
O148 Cd108 2.417 . S
O148 C136 1.239 . S
O149 Cd108 2.330 . S
O149 C136 1.230 . S
O150 Cd109 2.417 . S
O150 C143 1.239 . S
O151 Cd109 2.330 . S
O151 C143 1.230 . S
H152 C138 0.929 . S
H153 C142 0.930 . S
H154 C112 0.931 . S
H155 C114 0.930 . S
H156 C120 0.929 . S
H157 C122 0.931 . S
H158 C129 0.931 . S
H159 C131 0.930 . S
H160 C139 0.929 . S
H161 C141 0.931 . S
Cd162 N165 2.334 . S
Cd162 N191 2.304 . S
Cd162 O198 2.268 . S
Cd162 O201 2.273 . S
Cd162 O202 2.417 . S
Cd162 O203 2.330 . S
Cd163 N178 2.304 . S
Cd163 N182 2.334 . S
Cd163 O199 2.273 . S
Cd163 O200 2.268 . S
Cd163 O204 2.417 . S
Cd163 O205 2.330 . S
C164 N165 1.332 . S
C164 C168 1.381 . S
C164 H170 0.931 . S
N165 Cd162 2.334 . S
N165 C164 1.332 . S
N165 C169 1.328 . S
C166 C167 1.396 . S
C166 C169 1.378 . S
C166 H208 0.931 . S
C167 C166 1.396 . S
C167 C168 1.382 . S
C168 C164 1.381 . S
C168 C167 1.382 . S
C168 H209 0.930 . S
C169 N165 1.328 . S
C169 C166 1.378 . S
C169 H171 0.930 . S
H170 C164 0.931 . S
H171 C169 0.930 . S
C172 O198 1.238 1_655 S
C172 O199 1.253 . S
C173 C174 1.379 . S
C173 N178 1.337 . S
C173 H179 0.929 . S
C174 C173 1.379 . S
C174 C175 1.380 . S
C174 H210 0.929 . S
C175 C174 1.380 . S
C175 C176 1.399 . S
C176 C175 1.399 . S
C176 C177 1.376 . S
C176 H211 0.931 . S
C177 C176 1.376 . S
C177 N178 1.338 . S
C177 H180 0.930 . S
N178 Cd163 2.304 . S
N178 C173 1.337 . S
N178 C177 1.338 . S
H179 C173 0.929 . S
H180 C177 0.930 . S
C181 N182 1.332 . S
C181 C185 1.381 . S
C181 H187 0.931 . S
N182 Cd163 2.334 . S
N182 C181 1.332 . S
N182 C186 1.328 . S
C183 C184 1.396 . S
C183 C186 1.378 . S
C183 H212 0.931 . S
C184 C183 1.396 . S
C184 C185 1.382 . S
C185 C181 1.381 . S
C185 C184 1.382 . S
C185 H213 0.930 . S
C186 N182 1.328 . S
C186 C183 1.378 . S
C186 H188 0.930 . S
H187 C181 0.931 . S
H188 C186 0.930 . S
C189 O200 1.238 1_455 S
C189 O201 1.253 . S
C190 O202 1.239 . S
C190 O203 1.230 . S
N191 Cd162 2.304 . S
N191 C192 1.337 . S
N191 C196 1.338 . S
C192 N191 1.337 . S
C192 C193 1.379 . S
C192 H206 0.929 . S
C193 C192 1.379 . S
C193 C194 1.380 . S
C193 H214 0.929 . S
C194 C193 1.380 . S
C194 C195 1.399 . S
C195 C194 1.399 . S
C195 C196 1.376 . S
C195 H215 0.931 . S
C196 N191 1.338 . S
C196 C195 1.376 . S
C196 H207 0.930 . S
C197 O204 1.239 . S
C197 O205 1.230 . S
O198 Cd162 2.268 . S
O198 C172 1.238 1_455 S
O199 Cd163 2.273 . S
O199 C172 1.253 . S
O200 Cd163 2.268 . S
O200 C189 1.238 1_655 S
O201 Cd162 2.273 . S
O201 C189 1.253 . S
O202 Cd162 2.417 . S
O202 C190 1.239 . S
O203 Cd162 2.330 . S
O203 C190 1.230 . S
O204 Cd163 2.417 . S
O204 C197 1.239 . S
O205 Cd163 2.330 . S
O205 C197 1.230 . S
H206 C192 0.929 . S
H207 C196 0.930 . S
H208 C166 0.931 . S
H209 C168 0.930 . S
H210 C174 0.929 . S
H211 C176 0.931 . S
H212 C183 0.931 . S
H213 C185 0.930 . S
H214 C193 0.929 . S
H215 C195 0.931 . S
Cd216 N219 2.334 . S
Cd216 N245 2.304 . S
Cd216 O252 2.268 . S
Cd216 O255 2.273 . S
Cd216 O256 2.417 . S
Cd216 O257 2.330 . S
Cd217 N232 2.304 . S
Cd217 N236 2.334 . S
Cd217 O253 2.273 . S
Cd217 O254 2.268 . S
Cd217 O258 2.417 . S
Cd217 O259 2.330 . S
C218 N219 1.332 . S
C218 C222 1.381 . S
C218 H224 0.931 . S
N219 Cd216 2.334 . S
N219 C218 1.332 . S
N219 C223 1.328 . S
C220 C221 1.396 . S
C220 C223 1.378 . S
C220 H262 0.931 . S
C221 C220 1.396 . S
C221 C222 1.382 . S
C222 C218 1.381 . S
C222 C221 1.382 . S
C222 H263 0.930 . S
C223 N219 1.328 . S
C223 C220 1.378 . S
C223 H225 0.930 . S
H224 C218 0.931 . S
H225 C223 0.930 . S
C226 O252 1.238 . S
C226 O253 1.253 . S
C227 C228 1.379 . S
C227 N232 1.337 . S
C227 H233 0.929 . S
C228 C227 1.379 . S
C228 C229 1.380 . S
C228 H264 0.929 . S
C229 C228 1.380 . S
C229 C230 1.399 . S
C230 C229 1.399 . S
C230 C231 1.376 . S
C230 H265 0.931 . S
C231 C230 1.376 . S
C231 N232 1.338 . S
C231 H234 0.930 . S
N232 Cd217 2.304 . S
N232 C227 1.337 . S
N232 C231 1.338 . S
H233 C227 0.929 . S
H234 C231 0.930 . S
C235 N236 1.332 . S
C235 C239 1.381 . S
C235 H241 0.931 . S
N236 Cd217 2.334 . S
N236 C235 1.332 . S
N236 C240 1.328 . S
C237 C238 1.396 . S
C237 C240 1.378 . S
C237 H266 0.931 . S
C238 C237 1.396 . S
C238 C239 1.382 . S
C239 C235 1.381 . S
C239 C238 1.382 . S
C239 H267 0.930 . S
C240 N236 1.328 . S
C240 C237 1.378 . S
C240 H242 0.930 . S
H241 C235 0.931 . S
H242 C240 0.930 . S
C243 O254 1.238 . S
C243 O255 1.253 . S
C244 O256 1.239 . S
C244 O257 1.230 . S
N245 Cd216 2.304 . S
N245 C246 1.337 . S
N245 C250 1.338 . S
C246 N245 1.337 . S
C246 C247 1.379 . S
C246 H260 0.929 . S
C247 C246 1.379 . S
C247 C248 1.380 . S
C247 H268 0.929 . S
C248 C247 1.380 . S
C248 C249 1.399 . S
C249 C248 1.399 . S
C249 C250 1.376 . S
C249 H269 0.931 . S
C250 N245 1.338 . S
C250 C249 1.376 . S
C250 H261 0.930 . S
C251 O258 1.239 . S
C251 O259 1.230 . S
O252 Cd216 2.268 . S
O252 C226 1.238 . S
O253 Cd217 2.273 . S
O253 C226 1.253 . S
O254 Cd217 2.268 . S
O254 C243 1.238 . S
O255 Cd216 2.273 . S
O255 C243 1.253 . S
O256 Cd216 2.417 . S
O256 C244 1.239 . S
O257 Cd216 2.330 . S
O257 C244 1.230 . S
O258 Cd217 2.417 . S
O258 C251 1.239 . S
O259 Cd217 2.330 . S
O259 C251 1.230 . S
H260 C246 0.929 . S
H261 C250 0.930 . S
H262 C220 0.931 . S
H263 C222 0.930 . S
H264 C228 0.929 . S
H265 C230 0.931 . S
H266 C237 0.931 . S
H267 C239 0.930 . S
H268 C247 0.929 . S
H269 C249 0.931 . S
Cd270 N273 2.334 . S
Cd270 N299 2.304 . S
Cd270 O306 2.268 . S
Cd270 O309 2.273 . S
Cd270 O310 2.417 . S
Cd270 O311 2.330 . S
Cd271 N286 2.304 . S
Cd271 N290 2.334 . S
Cd271 O307 2.273 . S
Cd271 O308 2.268 . S
Cd271 O312 2.417 . S
Cd271 O313 2.330 . S
C272 N273 1.332 . S
C272 C276 1.381 . S
C272 H278 0.931 . S
N273 Cd270 2.334 . S
N273 C272 1.332 . S
N273 C277 1.328 . S
C274 C275 1.396 . S
C274 C277 1.378 . S
C274 H316 0.931 . S
C275 C274 1.396 . S
C275 C276 1.382 . S
C276 C272 1.381 . S
C276 C275 1.382 . S
C276 H317 0.930 . S
C277 N273 1.328 . S
C277 C274 1.378 . S
C277 H279 0.930 . S
H278 C272 0.931 . S
H279 C277 0.930 . S
C280 O306 1.238 . S
C280 O307 1.253 . S
C281 C282 1.379 . S
C281 N286 1.337 . S
C281 H287 0.929 . S
C282 C281 1.379 . S
C282 C283 1.380 . S
C282 H318 0.929 . S
C283 C282 1.380 . S
C283 C284 1.399 . S
C284 C283 1.399 . S
C284 C285 1.376 . S
C284 H319 0.931 . S
C285 C284 1.376 . S
C285 N286 1.338 . S
C285 H288 0.930 . S
N286 Cd271 2.304 . S
N286 C281 1.337 . S
N286 C285 1.338 . S
H287 C281 0.929 . S
H288 C285 0.930 . S
C289 N290 1.332 . S
C289 C293 1.381 . S
C289 H295 0.931 . S
N290 Cd271 2.334 . S
N290 C289 1.332 . S
N290 C294 1.328 . S
C291 C292 1.396 . S
C291 C294 1.378 . S
C291 H320 0.931 . S
C292 C291 1.396 . S
C292 C293 1.382 . S
C293 C289 1.381 . S
C293 C292 1.382 . S
C293 H321 0.930 . S
C294 N290 1.328 . S
C294 C291 1.378 . S
C294 H296 0.930 . S
H295 C289 0.931 . S
H296 C294 0.930 . S
C297 O308 1.238 . S
C297 O309 1.253 . S
C298 O310 1.239 . S
C298 O311 1.230 . S
N299 Cd270 2.304 . S
N299 C300 1.337 . S
N299 C304 1.338 . S
C300 N299 1.337 . S
C300 C301 1.379 . S
C300 H314 0.929 . S
C301 C300 1.379 . S
C301 C302 1.380 . S
C301 H322 0.929 . S
C302 C301 1.380 . S
C302 C303 1.399 . S
C303 C302 1.399 . S
C303 C304 1.376 . S
C303 H323 0.931 . S
C304 N299 1.338 . S
C304 C303 1.376 . S
C304 H315 0.930 . S
C305 O312 1.239 . S
C305 O313 1.230 . S
O306 Cd270 2.268 . S
O306 C280 1.238 . S
O307 Cd271 2.273 . S
O307 C280 1.253 . S
O308 Cd271 2.268 . S
O308 C297 1.238 . S
O309 Cd270 2.273 . S
O309 C297 1.253 . S
O310 Cd270 2.417 . S
O310 C298 1.239 . S
O311 Cd270 2.330 . S
O311 C298 1.230 . S
O312 Cd271 2.417 . S
O312 C305 1.239 . S
O313 Cd271 2.330 . S
O313 C305 1.230 . S
H314 C300 0.929 . S
H315 C304 0.930 . S
H316 C274 0.931 . S
H317 C276 0.930 . S
H318 C282 0.929 . S
H319 C284 0.931 . S
H320 C291 0.931 . S
H321 C293 0.930 . S
H322 C301 0.929 . S
H323 C303 0.931 . S
Cd324 N327 2.334 . S
Cd324 N353 2.304 . S
Cd324 O360 2.268 . S
Cd324 O363 2.273 1_545 S
Cd324 O364 2.417 . S
Cd324 O365 2.330 1_545 S
Cd325 N340 2.304 . S
Cd325 N344 2.334 . S
Cd325 O361 2.273 1_565 S
Cd325 O362 2.268 . S
Cd325 O366 2.417 . S
Cd325 O367 2.330 1_565 S
C326 N327 1.332 1_565 S
C326 C330 1.381 . S
C326 H332 0.931 . S
N327 Cd324 2.334 . S
N327 C326 1.332 1_545 S
N327 C331 1.328 . S
C328 C329 1.396 . S
C328 C331 1.378 . S
C328 H370 0.931 . S
C329 C328 1.396 . S
C329 C330 1.382 1_545 S
C330 C326 1.381 . S
C330 C329 1.382 1_565 S
C330 H371 0.930 . S
C331 N327 1.328 . S
C331 C328 1.378 . S
C331 H333 0.930 . S
H332 C326 0.931 . S
H333 C331 0.930 . S
C334 O360 1.238 . S
C334 O361 1.253 . S
C335 C336 1.379 . S
C335 N340 1.337 1_545 S
C335 H341 0.929 . S
C336 C335 1.379 . S
C336 C337 1.380 1_545 S
C336 H372 0.929 . S
C337 C336 1.380 1_565 S
C337 C338 1.399 . S
C338 C337 1.399 . S
C338 C339 1.376 . S
C338 H373 0.931 . S
C339 C338 1.376 . S
C339 N340 1.338 . S
C339 H342 0.930 . S
N340 Cd325 2.304 . S
N340 C335 1.337 1_565 S
N340 C339 1.338 . S
H341 C335 0.929 . S
H342 C339 0.930 . S
C343 N344 1.332 1_545 S
C343 C347 1.381 . S
C343 H349 0.931 . S
N344 Cd325 2.334 . S
N344 C343 1.332 1_565 S
N344 C348 1.328 . S
C345 C346 1.396 . S
C345 C348 1.378 . S
C345 H374 0.931 . S
C346 C345 1.396 . S
C346 C347 1.382 1_565 S
C347 C343 1.381 . S
C347 C346 1.382 1_545 S
C347 H375 0.930 . S
C348 N344 1.328 . S
C348 C345 1.378 . S
C348 H350 0.930 . S
H349 C343 0.931 . S
H350 C348 0.930 . S
C351 O362 1.238 . S
C351 O363 1.253 . S
C352 O364 1.239 . S
C352 O365 1.230 1_545 S
N353 Cd324 2.304 . S
N353 C354 1.337 1_545 S
N353 C358 1.338 . S
C354 N353 1.337 1_565 S
C354 C355 1.379 . S
C354 H368 0.929 . S
C355 C354 1.379 . S
C355 C356 1.380 1_565 S
C355 H376 0.929 . S
C356 C355 1.380 1_545 S
C356 C357 1.399 . S
C357 C356 1.399 . S
C357 C358 1.376 . S
C357 H377 0.931 . S
C358 N353 1.338 . S
C358 C357 1.376 . S
C358 H369 0.930 . S
C359 O366 1.239 . S
C359 O367 1.230 1_565 S
O360 Cd324 2.268 . S
O360 C334 1.238 . S
O361 Cd325 2.273 1_545 S
O361 C334 1.253 . S
O362 Cd325 2.268 . S
O362 C351 1.238 . S
O363 Cd324 2.273 1_565 S
O363 C351 1.253 . S
O364 Cd324 2.417 . S
O364 C352 1.239 . S
O365 Cd324 2.330 1_565 S
O365 C352 1.230 1_565 S
O366 Cd325 2.417 . S
O366 C359 1.239 . S
O367 Cd325 2.330 1_545 S
O367 C359 1.230 1_545 S
H368 C354 0.929 . S
H369 C358 0.930 . S
H370 C328 0.931 . S
H371 C330 0.930 . S
H372 C336 0.929 . S
H373 C338 0.931 . S
H374 C345 0.931 . S
H375 C347 0.930 . S
H376 C355 0.929 . S
H377 C357 0.931 . S
Cd378 N381 2.334 1_554 S
Cd378 N407 2.304 . S
Cd378 O414 2.270 . S
Cd378 O417 2.273 . S
Cd378 O418 2.415 1_554 S
Cd378 O419 2.330 . S
Cd379 N394 2.304 . S
Cd379 N398 2.334 1_554 S
Cd379 O415 2.273 . S
Cd379 O416 2.270 . S
Cd379 O420 2.415 1_554 S
Cd379 O421 2.330 . S
C380 N381 1.332 . S
C380 C384 1.381 . S
C380 H386 0.931 . S
N381 Cd378 2.334 1_556 S
N381 C380 1.332 . S
N381 C385 1.328 . S
C382 C383 1.396 . S
C382 C385 1.378 . S
C382 H424 0.931 . S
C383 C382 1.396 . S
C383 C384 1.382 . S
C384 C380 1.381 . S
C384 C383 1.382 . S
C384 H425 0.930 . S
C385 N381 1.328 . S
C385 C382 1.378 . S
C385 H387 0.930 . S
H386 C380 0.931 . S
H387 C385 0.930 . S
C388 O414 1.242 . S
C388 O415 1.253 . S
C389 C390 1.379 . S
C389 N394 1.337 . S
C389 H395 0.929 . S
C390 C389 1.379 . S
C390 C391 1.380 . S
C390 H426 0.929 . S
C391 C390 1.380 . S
C391 C392 1.399 . S
C392 C391 1.399 . S
C392 C393 1.376 . S
C392 H427 0.931 . S
C393 C392 1.376 . S
C393 N394 1.338 . S
C393 H396 0.930 . S
N394 Cd379 2.304 . S
N394 C389 1.337 . S
N394 C393 1.338 . S
H395 C389 0.929 . S
H396 C393 0.930 . S
C397 N398 1.332 . S
C397 C401 1.381 . S
C397 H403 0.931 . S
N398 Cd379 2.334 1_556 S
N398 C397 1.332 . S
N398 C402 1.328 . S
C399 C400 1.396 . S
C399 C402 1.378 . S
C399 H428 0.931 . S
C400 C399 1.396 . S
C400 C401 1.382 . S
C401 C397 1.381 . S
C401 C400 1.382 . S
C401 H429 0.930 . S
C402 N398 1.328 . S
C402 C399 1.378 . S
C402 H404 0.930 . S
H403 C397 0.931 . S
H404 C402 0.930 . S
C405 O416 1.242 . S
C405 O417 1.253 . S
C406 O418 1.235 1_554 S
C406 O419 1.236 . S
N407 Cd378 2.304 . S
N407 C408 1.337 . S
N407 C412 1.338 . S
C408 N407 1.337 . S
C408 C409 1.379 . S
C408 H422 0.929 . S
C409 C408 1.379 . S
C409 C410 1.380 . S
C409 H430 0.929 . S
C410 C409 1.380 . S
C410 C411 1.399 . S
C411 C410 1.399 . S
C411 C412 1.376 . S
C411 H431 0.931 . S
C412 N407 1.338 . S
C412 C411 1.376 . S
C412 H423 0.930 . S
C413 O420 1.235 1_554 S
C413 O421 1.236 . S
O414 Cd378 2.270 . S
O414 C388 1.242 . S
O415 Cd379 2.273 . S
O415 C388 1.253 . S
O416 Cd379 2.270 . S
O416 C405 1.242 . S
O417 Cd378 2.273 . S
O417 C405 1.253 . S
O418 Cd378 2.415 1_556 S
O418 C406 1.235 1_556 S
O419 Cd378 2.330 . S
O419 C406 1.236 . S
O420 Cd379 2.415 1_556 S
O420 C413 1.235 1_556 S
O421 Cd379 2.330 . S
O421 C413 1.236 . S
H422 C408 0.929 . S
H423 C412 0.930 . S
H424 C382 0.931 . S
H425 C384 0.930 . S
H426 C390 0.929 . S
H427 C392 0.931 . S
H428 C399 0.931 . S
H429 C401 0.930 . S
H430 C409 0.929 . S
H431 C411 0.931 . S
H432 C440 0.929 . S
H433 C442 0.930 1_565 S
H434 C444 0.930 . S
H435 C447 0.929 . S
H436 C450 0.930 . S
H437 C452 0.960 . S
H438 C452 0.960 . S
H439 C452 0.960 . S
C440 H432 0.929 . S
C440 C441 1.377 1_565 S
C440 C442 1.384 1_565 S
C441 C440 1.377 1_545 S
C441 C447 1.390 . S
C442 H433 0.930 1_545 S
C442 C440 1.384 1_545 S
C442 C443 1.372 . S
C443 C442 1.372 . S
C443 C444 1.400 . S
C443 C448 1.490 . S
C444 H434 0.930 . S
C444 C443 1.400 . S
C444 C447 1.386 . S
H445 C461 0.930 . S
H446 C462 0.931 . S
C447 H435 0.929 . S
C447 C441 1.390 . S
C447 C444 1.386 . S
C448 C443 1.490 . S
C448 C450 1.395 . S
C448 C451 1.403 . S
H449 C455 0.930 . S
C450 H436 0.930 . S
C450 C448 1.395 . S
C450 C453 1.403 . S
C451 C448 1.403 . S
C451 C452 1.524 . S
C451 C455 1.400 . S
C452 H437 0.960 . S
C452 H438 0.960 . S
C452 H439 0.960 . S
C452 C451 1.524 . S
C453 C450 1.403 . S
C453 C454 1.392 . S
C453 C457 1.495 . S
C454 C453 1.392 . S
C454 C455 1.385 . S
C454 C456 1.478 . S
C455 H449 0.930 . S
C455 C451 1.400 . S
C455 C454 1.385 . S
C456 C454 1.478 . S
C456 C458 1.381 . S
C456 C462 1.383 . S
C457 C453 1.495 . S
C457 H463 0.959 1_545 S
C457 H464 0.961 . S
C457 H465 0.960 1_545 S
C458 C456 1.381 . S
C458 C459 1.394 . S
C458 H466 0.930 . S
C459 C458 1.394 . S
C459 C460 1.383 . S
C459 H467 0.929 . S
C460 C459 1.383 . S
C460 C461 1.377 . S
C461 H445 0.930 . S
C461 C460 1.377 . S
C461 C462 1.379 . S
C462 H446 0.931 . S
C462 C456 1.383 . S
C462 C461 1.379 . S
H463 C457 0.959 1_565 S
H464 C457 0.961 . S
H465 C457 0.960 1_565 S
H466 C458 0.930 . S
H467 C459 0.929 . S
H468 C476 0.929 . S
H469 C478 0.930 . S
H470 C480 0.930 1_545 S
H471 C483 0.929 . S
H472 C486 0.930 . S
H473 C488 0.960 . S
H474 C488 0.960 . S
H475 C488 0.960 . S
C476 H468 0.929 . S
C476 C477 1.377 . S
C476 C478 1.384 . S
C477 C476 1.377 . S
C477 C483 1.390 1_565 S
C478 H469 0.930 . S
C478 C476 1.384 . S
C478 C479 1.372 . S
C479 C478 1.372 . S
C479 C480 1.400 . S
C479 C484 1.490 . S
C480 H470 0.930 1_565 S
C480 C479 1.400 . S
C480 C483 1.386 1_565 S
H481 C497 0.930 . S
H482 C498 0.931 . S
C483 H471 0.929 . S
C483 C477 1.390 1_545 S
C483 C480 1.386 1_545 S
C484 C479 1.490 . S
C484 C486 1.395 . S
C484 C487 1.403 . S
H485 C491 0.930 . S
C486 H472 0.930 . S
C486 C484 1.395 . S
C486 C489 1.403 . S
C487 C484 1.403 . S
C487 C488 1.524 . S
C487 C491 1.400 . S
C488 H473 0.960 . S
C488 H474 0.960 . S
C488 H475 0.960 . S
C488 C487 1.524 . S
C489 C486 1.403 . S
C489 C490 1.392 . S
C489 C493 1.495 . S
C490 C489 1.392 . S
C490 C491 1.385 . S
C490 C492 1.478 . S
C491 H485 0.930 . S
C491 C487 1.400 . S
C491 C490 1.385 . S
C492 C490 1.478 . S
C492 C494 1.381 . S
C492 C498 1.383 . S
C493 C489 1.495 . S
C493 H499 0.959 . S
C493 H500 0.961 . S
C493 H501 0.960 . S
C494 C492 1.381 . S
C494 C495 1.394 . S
C494 H502 0.930 . S
C495 C494 1.394 . S
C495 C496 1.383 . S
C495 H503 0.929 . S
C496 C495 1.383 . S
C496 C497 1.377 . S
C497 H481 0.930 . S
C497 C496 1.377 . S
C497 C498 1.379 . S
C498 H482 0.931 . S
C498 C492 1.383 . S
C498 C497 1.379 . S
H499 C493 0.959 . S
H500 C493 0.961 . S
H501 C493 0.960 . S
H502 C494 0.930 . S
H503 C495 0.929 . S
H504 C512 0.929 . S
H505 C514 0.930 . S
H506 C516 0.930 . S
H507 C519 0.929 . S
H508 C522 0.930 . S
H509 C524 0.960 . S
H510 C524 0.960 . S
H511 C524 0.960 . S
C512 H504 0.929 . S
C512 C513 1.377 . S
C512 C514 1.384 . S
C513 C512 1.377 . S
C513 C519 1.390 . S
C514 H505 0.930 . S
C514 C512 1.384 . S
C514 C515 1.372 . S
C515 C514 1.372 . S
C515 C516 1.400 . S
C515 C520 1.490 . S
C516 H506 0.930 . S
C516 C515 1.400 . S
C516 C519 1.386 . S
H517 C533 0.930 . S
H518 C534 0.931 . S
C519 H507 0.929 . S
C519 C513 1.390 . S
C519 C516 1.386 . S
C520 C515 1.490 . S
C520 C522 1.395 . S
C520 C523 1.403 . S
H521 C527 0.930 . S
C522 H508 0.930 . S
C522 C520 1.395 . S
C522 C525 1.403 . S
C523 C520 1.403 . S
C523 C524 1.524 . S
C523 C527 1.400 . S
C524 H509 0.960 . S
C524 H510 0.960 . S
C524 H511 0.960 . S
C524 C523 1.524 . S
C525 C522 1.403 . S
C525 C526 1.392 . S
C525 C529 1.495 . S
C526 C525 1.392 . S
C526 C527 1.385 . S
C526 C528 1.478 . S
C527 H521 0.930 . S
C527 C523 1.400 . S
C527 C526 1.385 . S
C528 C526 1.478 . S
C528 C530 1.381 . S
C528 C534 1.383 . S
C529 C525 1.495 . S
C529 H535 0.959 . S
C529 H536 0.961 . S
C529 H537 0.960 . S
C530 C528 1.381 . S
C530 C531 1.394 . S
C530 H538 0.930 . S
C531 C530 1.394 . S
C531 C532 1.383 . S
C531 H539 0.929 . S
C532 C531 1.383 . S
C532 C533 1.377 . S
C533 H517 0.930 . S
C533 C532 1.377 . S
C533 C534 1.379 . S
C534 H518 0.931 . S
C534 C528 1.383 . S
C534 C533 1.379 . S
H535 C529 0.959 . S
H536 C529 0.961 . S
H537 C529 0.960 . S
H538 C530 0.930 . S
H539 C531 0.929 . S
H540 C548 0.929 . S
H541 C550 0.930 . S
H542 C552 0.930 . S
H543 C555 0.929 . S
H544 C558 0.930 . S
H545 C560 0.960 . S
H546 C560 0.960 . S
H547 C560 0.960 . S
C548 H540 0.929 . S
C548 C549 1.377 . S
C548 C550 1.384 . S
C549 C548 1.377 . S
C549 C555 1.390 . S
C550 H541 0.930 . S
C550 C548 1.384 . S
C550 C551 1.372 . S
C551 C550 1.372 . S
C551 C552 1.400 . S
C551 C556 1.490 . S
C552 H542 0.930 . S
C552 C551 1.400 . S
C552 C555 1.386 . S
H553 C569 0.930 . S
H554 C570 0.931 . S
C555 H543 0.929 . S
C555 C549 1.390 . S
C555 C552 1.386 . S
C556 C551 1.490 . S
C556 C558 1.395 . S
C556 C559 1.403 . S
H557 C563 0.930 . S
C558 H544 0.930 . S
C558 C556 1.395 . S
C558 C561 1.403 . S
C559 C556 1.403 . S
C559 C560 1.524 . S
C559 C563 1.400 . S
C560 H545 0.960 . S
C560 H546 0.960 . S
C560 H547 0.960 . S
C560 C559 1.524 . S
C561 C558 1.403 . S
C561 C562 1.392 . S
C561 C565 1.495 . S
C562 C561 1.392 . S
C562 C563 1.385 . S
C562 C564 1.478 . S
C563 H557 0.930 . S
C563 C559 1.400 . S
C563 C562 1.385 . S
C564 C562 1.478 . S
C564 C566 1.381 . S
C564 C570 1.383 . S
C565 C561 1.495 . S
C565 H571 0.959 . S
C565 H572 0.961 . S
C565 H573 0.960 . S
C566 C564 1.381 . S
C566 C567 1.394 . S
C566 H574 0.930 . S
C567 C566 1.394 . S
C567 C568 1.383 . S
C567 H575 0.929 . S
C568 C567 1.383 . S
C568 C569 1.377 . S
C569 H553 0.930 . S
C569 C568 1.377 . S
C569 C570 1.379 . S
C570 H554 0.931 . S
C570 C564 1.383 . S
C570 C569 1.379 . S
H571 C565 0.959 . S
H572 C565 0.961 . S
H573 C565 0.960 . S
H574 C566 0.930 . S
H575 C567 0.929 . S
H576 C584 0.929 . S
H577 C586 0.930 . S
H578 C588 0.930 . S
H579 C591 0.929 . S
H580 C594 0.930 . S
H581 C596 0.960 . S
H582 C596 0.960 . S
H583 C596 0.960 . S
C584 H576 0.929 . S
C584 C585 1.377 . S
C584 C586 1.384 . S
C585 C584 1.377 . S
C585 C591 1.390 . S
C586 H577 0.930 . S
C586 C584 1.384 . S
C586 C587 1.372 . S
C587 C586 1.372 . S
C587 C588 1.400 . S
C587 C592 1.490 . S
C588 H578 0.930 . S
C588 C587 1.400 . S
C588 C591 1.386 . S
H589 C605 0.930 . S
H590 C606 0.931 . S
C591 H579 0.929 . S
C591 C585 1.390 . S
C591 C588 1.386 . S
C592 C587 1.490 . S
C592 C594 1.395 . S
C592 C595 1.403 . S
H593 C599 0.930 . S
C594 H580 0.930 . S
C594 C592 1.395 . S
C594 C597 1.403 . S
C595 C592 1.403 . S
C595 C596 1.524 . S
C595 C599 1.400 . S
C596 H581 0.960 . S
C596 H582 0.960 . S
C596 H583 0.960 . S
C596 C595 1.524 . S
C597 C594 1.403 . S
C597 C598 1.392 . S
C597 C601 1.495 . S
C598 C597 1.392 . S
C598 C599 1.385 . S
C598 C600 1.478 . S
C599 H593 0.930 . S
C599 C595 1.400 . S
C599 C598 1.385 . S
C600 C598 1.478 . S
C600 C602 1.381 . S
C600 C606 1.383 . S
C601 C597 1.495 . S
C601 H607 0.959 . S
C601 H608 0.961 . S
C601 H609 0.960 . S
C602 C600 1.381 . S
C602 C603 1.394 . S
C602 H610 0.930 . S
C603 C602 1.394 . S
C603 C604 1.383 . S
C603 H611 0.929 . S
C604 C603 1.383 . S
C604 C605 1.377 . S
C605 H589 0.930 . S
C605 C604 1.377 . S
C605 C606 1.379 . S
C606 H590 0.931 . S
C606 C600 1.383 . S
C606 C605 1.379 . S
H607 C601 0.959 . S
H608 C601 0.961 . S
H609 C601 0.960 . S
H610 C602 0.930 . S
H611 C603 0.929 . S
H612 C620 0.929 . S
H613 C622 0.930 . S
H614 C624 0.930 . S
H615 C627 0.929 . S
H616 C630 0.930 . S
H617 C632 0.960 . S
H618 C632 0.960 . S
H619 C632 0.960 . S
C620 H612 0.929 . S
C620 C621 1.377 . S
C620 C622 1.384 . S
C621 C620 1.377 . S
C621 C627 1.390 . S
C622 H613 0.930 . S
C622 C620 1.384 . S
C622 C623 1.372 . S
C623 C622 1.372 . S
C623 C624 1.400 . S
C623 C628 1.490 . S
C624 H614 0.930 . S
C624 C623 1.400 . S
C624 C627 1.386 . S
H625 C641 0.930 . S
H626 C642 0.931 . S
C627 H615 0.929 . S
C627 C621 1.390 . S
C627 C624 1.386 . S
C628 C623 1.490 . S
C628 C630 1.395 . S
C628 C631 1.403 . S
H629 C635 0.930 . S
C630 H616 0.930 . S
C630 C628 1.395 . S
C630 C633 1.403 . S
C631 C628 1.403 . S
C631 C632 1.524 . S
C631 C635 1.400 . S
C632 H617 0.960 . S
C632 H618 0.960 . S
C632 H619 0.960 . S
C632 C631 1.524 . S
C633 C630 1.403 . S
C633 C634 1.392 . S
C633 C637 1.495 . S
C634 C633 1.392 . S
C634 C635 1.385 . S
C634 C636 1.478 . S
C635 H629 0.930 . S
C635 C631 1.400 . S
C635 C634 1.385 . S
C636 C634 1.478 . S
C636 C638 1.381 . S
C636 C642 1.383 . S
C637 C633 1.495 . S
C637 H643 0.959 . S
C637 H644 0.961 . S
C637 H645 0.960 . S
C638 C636 1.381 . S
C638 C639 1.394 . S
C638 H646 0.930 . S
C639 C638 1.394 . S
C639 C640 1.383 . S
C639 H647 0.929 . S
C640 C639 1.383 . S
C640 C641 1.377 . S
C641 H625 0.930 . S
C641 C640 1.377 . S
C641 C642 1.379 . S
C642 H626 0.931 . S
C642 C636 1.383 . S
C642 C641 1.379 . S
H643 C637 0.959 . S
H644 C637 0.961 . S
H645 C637 0.960 . S
H646 C638 0.930 . S
H647 C639 0.929 . S
H648 C656 0.929 . S
H649 C658 0.930 . S
H650 C660 0.930 . S
H651 C663 0.929 . S
H652 C666 0.930 . S
H653 C668 0.960 . S
H654 C668 0.960 . S
H655 C668 0.960 . S
C656 H648 0.929 . S
C656 C657 1.377 . S
C656 C658 1.384 . S
C657 C656 1.377 . S
C657 C663 1.390 . S
C658 H649 0.930 . S
C658 C656 1.384 . S
C658 C659 1.372 . S
C659 C658 1.372 . S
C659 C660 1.400 . S
C659 C664 1.490 . S
C660 H650 0.930 . S
C660 C659 1.400 . S
C660 C663 1.386 . S
H661 C677 0.930 . S
H662 C678 0.931 . S
C663 H651 0.929 . S
C663 C657 1.390 . S
C663 C660 1.386 . S
C664 C659 1.490 . S
C664 C666 1.395 . S
C664 C667 1.403 . S
H665 C671 0.930 . S
C666 H652 0.930 . S
C666 C664 1.395 . S
C666 C669 1.403 . S
C667 C664 1.403 . S
C667 C668 1.524 . S
C667 C671 1.400 . S
C668 H653 0.960 . S
C668 H654 0.960 . S
C668 H655 0.960 . S
C668 C667 1.524 . S
C669 C666 1.403 . S
C669 C670 1.392 . S
C669 C673 1.495 1_565 S
C670 C669 1.392 . S
C670 C671 1.385 . S
C670 C672 1.478 . S
C671 H665 0.930 . S
C671 C667 1.400 . S
C671 C670 1.385 . S
C672 C670 1.478 . S
C672 C674 1.381 1_565 S
C672 C678 1.383 . S
C673 C669 1.495 1_545 S
C673 H679 0.959 . S
C673 H680 0.961 . S
C673 H681 0.960 . S
C674 C672 1.381 1_545 S
C674 C675 1.394 . S
C674 H682 0.930 . S
C675 C674 1.394 . S
C675 C676 1.383 1_545 S
C675 H683 0.929 . S
C676 C675 1.383 1_565 S
C676 C677 1.377 . S
C677 H661 0.930 . S
C677 C676 1.377 . S
C677 C678 1.379 . S
C678 H662 0.931 . S
C678 C672 1.383 . S
C678 C677 1.379 . S
H679 C673 0.959 . S
H680 C673 0.961 . S
H681 C673 0.960 . S
H682 C674 0.930 . S
H683 C675 0.929 . S
H684 C692 0.929 . S
H685 C694 0.930 . S
H686 C696 0.930 . S
H687 C699 0.929 . S
H688 C702 0.930 . S
H689 C704 0.960 . S
H690 C704 0.960 1_545 S
H691 C704 0.960 . S
C692 H684 0.929 . S
C692 C693 1.377 . S
C692 C694 1.384 . S
C693 C692 1.377 . S
C693 C699 1.390 . S
C694 H685 0.930 . S
C694 C692 1.384 . S
C694 C695 1.372 . S
C695 C694 1.372 . S
C695 C696 1.400 . S
C695 C700 1.490 . S
C696 H686 0.930 . S
C696 C695 1.400 . S
C696 C699 1.386 . S
H697 C713 0.930 1_565 S
H698 C714 0.931 . S
C699 H687 0.929 . S
C699 C693 1.390 . S
C699 C696 1.386 . S
C700 C695 1.490 . S
C700 C702 1.395 . S
C700 C703 1.403 . S
H701 C707 0.930 1_565 S
C702 H688 0.930 . S
C702 C700 1.395 . S
C702 C705 1.403 . S
C703 C700 1.403 . S
C703 C704 1.524 1_545 S
C703 C707 1.400 . S
C704 H689 0.960 . S
C704 H690 0.960 1_565 S
C704 H691 0.960 . S
C704 C703 1.524 1_565 S
C705 C702 1.403 . S
C705 C706 1.392 . S
C705 C709 1.495 . S
C706 C705 1.392 . S
C706 C707 1.385 . S
C706 C708 1.478 . S
C707 H701 0.930 1_545 S
C707 C703 1.400 . S
C707 C706 1.385 . S
C708 C706 1.478 . S
C708 C710 1.381 . S
C708 C714 1.383 . S
C709 C705 1.495 . S
C709 H715 0.959 . S
C709 H716 0.961 . S
C709 H717 0.960 . S
C710 C708 1.381 . S
C710 C711 1.394 . S
C710 H718 0.930 . S
C711 C710 1.394 . S
C711 C712 1.383 . S
C711 H719 0.929 . S
C712 C711 1.383 . S
C712 C713 1.377 . S
C713 H697 0.930 1_545 S
C713 C712 1.377 . S
C713 C714 1.379 . S
C714 H698 0.931 . S
C714 C708 1.383 . S
C714 C713 1.379 . S
H715 C709 0.959 . S
H716 C709 0.961 . S
H717 C709 0.960 . S
H718 C710 0.930 . S
H719 C711 0.929 . S
H720 C728 0.929 . S
H721 C730 0.930 . S
H722 C732 0.930 . S
H723 C735 0.929 . S
H724 C738 0.930 . S
H725 C740 0.960 1_565 S
H726 C740 0.960 . S
H727 C740 0.960 . S
C728 H720 0.929 . S
C728 C729 1.377 . S
C728 C730 1.384 . S
C729 C728 1.377 . S
C729 C735 1.390 . S
C730 H721 0.930 . S
C730 C728 1.384 . S
C730 C731 1.372 . S
C731 C730 1.372 . S
C731 C732 1.400 . S
C731 C736 1.490 . S
C732 H722 0.930 . S
C732 C731 1.400 . S
C732 C735 1.386 . S
H733 C749 0.930 1_565 S
H734 C750 0.931 . S
C735 H723 0.929 . S
C735 C729 1.390 . S
C735 C732 1.386 . S
C736 C731 1.490 . S
C736 C738 1.395 . S
C736 C739 1.403 . S
H737 C743 0.930 . S
C738 H724 0.930 . S
C738 C736 1.395 . S
C738 C741 1.403 . S
C739 C736 1.403 . S
C739 C740 1.524 . S
C739 C743 1.400 . S
C740 H725 0.960 1_545 S
C740 H726 0.960 . S
C740 H727 0.960 . S
C740 C739 1.524 . S
C741 C738 1.403 . S
C741 C742 1.392 . S
C741 C745 1.495 . S
C742 C741 1.392 . S
C742 C743 1.385 . S
C742 C744 1.478 . S
C743 H737 0.930 . S
C743 C739 1.400 . S
C743 C742 1.385 . S
C744 C742 1.478 . S
C744 C746 1.381 . S
C744 C750 1.383 . S
C745 C741 1.495 . S
C745 H751 0.959 . S
C745 H752 0.961 . S
C745 H753 0.960 . S
C746 C744 1.381 . S
C746 C747 1.394 . S
C746 H754 0.930 . S
C747 C746 1.394 . S
C747 C748 1.383 . S
C747 H755 0.929 . S
C748 C747 1.383 . S
C748 C749 1.377 . S
C749 H733 0.930 1_545 S
C749 C748 1.377 . S
C749 C750 1.379 . S
C750 H734 0.931 . S
C750 C744 1.383 . S
C750 C749 1.379 . S
H751 C745 0.959 . S
H752 C745 0.961 . S
H753 C745 0.960 . S
H754 C746 0.930 . S
H755 C747 0.929 . S
H756 C764 0.929 . S
H757 C766 0.930 . S
H758 C768 0.930 1_545 S
H759 C771 0.929 . S
H760 C774 0.930 . S
H761 C776 0.960 . S
H762 C776 0.960 . S
H763 C776 0.960 . S
C764 H756 0.929 . S
C764 C765 1.377 . S
C764 C766 1.384 . S
C765 C764 1.377 . S
C765 C771 1.390 1_565 S
C766 H757 0.930 . S
C766 C764 1.384 . S
C766 C767 1.372 . S
C767 C766 1.372 . S
C767 C768 1.400 . S
C767 C772 1.490 . S
C768 H758 0.930 1_565 S
C768 C767 1.400 . S
C768 C771 1.386 1_565 S
H769 C785 0.930 . S
H770 C786 0.931 . S
C771 H759 0.929 . S
C771 C765 1.390 1_545 S
C771 C768 1.386 1_545 S
C772 C767 1.490 . S
C772 C774 1.395 . S
C772 C775 1.403 . S
H773 C779 0.930 . S
C774 H760 0.930 . S
C774 C772 1.395 . S
C774 C777 1.403 . S
C775 C772 1.403 . S
C775 C776 1.524 . S
C775 C779 1.400 . S
C776 H761 0.960 . S
C776 H762 0.960 . S
C776 H763 0.960 . S
C776 C775 1.524 . S
C777 C774 1.403 . S
C777 C778 1.392 . S
C777 C781 1.495 . S
C778 C777 1.392 . S
C778 C779 1.385 . S
C778 C780 1.478 . S
C779 H773 0.930 . S
C779 C775 1.400 . S
C779 C778 1.385 . S
C780 C778 1.478 . S
C780 C782 1.381 . S
C780 C786 1.383 . S
C781 C777 1.495 . S
C781 H787 0.959 . S
C781 H788 0.961 . S
C781 H789 0.960 . S
C782 C780 1.381 . S
C782 C783 1.394 . S
C782 H790 0.930 . S
C783 C782 1.394 . S
C783 C784 1.383 . S
C783 H791 0.929 . S
C784 C783 1.383 . S
C784 C785 1.377 . S
C785 H769 0.930 . S
C785 C784 1.377 . S
C785 C786 1.379 . S
C786 H770 0.931 . S
C786 C780 1.383 . S
C786 C785 1.379 . S
H787 C781 0.959 . S
H788 C781 0.961 . S
H789 C781 0.960 . S
H790 C782 0.930 . S
H791 C783 0.929 . S
H792 C800 0.929 . S
H793 C802 0.930 . S
H794 C804 0.930 . S
H795 C807 0.929 . S
H796 C810 0.930 . S
H797 C812 0.960 . S
H798 C812 0.960 . S
H799 C812 0.960 . S
C800 H792 0.929 . S
C800 C801 1.377 . S
C800 C802 1.384 . S
C801 C800 1.377 . S
C801 C807 1.390 . S
C802 H793 0.930 . S
C802 C800 1.384 . S
C802 C803 1.372 . S
C803 C802 1.372 . S
C803 C804 1.400 . S
C803 C808 1.490 . S
C804 H794 0.930 . S
C804 C803 1.400 . S
C804 C807 1.386 . S
H805 C821 0.930 . S
H806 C822 0.931 . S
C807 H795 0.929 . S
C807 C801 1.390 . S
C807 C804 1.386 . S
C808 C803 1.490 . S
C808 C810 1.395 . S
C808 C811 1.403 . S
H809 C815 0.930 . S
C810 H796 0.930 . S
C810 C808 1.395 . S
C810 C813 1.403 . S
C811 C808 1.403 . S
C811 C812 1.524 . S
C811 C815 1.400 . S
C812 H797 0.960 . S
C812 H798 0.960 . S
C812 H799 0.960 . S
C812 C811 1.524 . S
C813 C810 1.403 . S
C813 C814 1.392 . S
C813 C817 1.495 . S
C814 C813 1.392 . S
C814 C815 1.385 . S
C814 C816 1.478 . S
C815 H809 0.930 . S
C815 C811 1.400 . S
C815 C814 1.385 . S
C816 C814 1.478 . S
C816 C818 1.381 . S
C816 C822 1.383 . S
C817 C813 1.495 . S
C817 H823 0.959 . S
C817 H824 0.961 . S
C817 H825 0.960 . S
C818 C816 1.381 . S
C818 C819 1.394 . S
C818 H826 0.930 . S
C819 C818 1.394 . S
C819 C820 1.383 . S
C819 H827 0.929 . S
C820 C819 1.383 . S
C820 C821 1.377 . S
C821 H805 0.930 . S
C821 C820 1.377 . S
C821 C822 1.379 . S
C822 H806 0.931 . S
C822 C816 1.383 . S
C822 C821 1.379 . S
H823 C817 0.959 . S
H824 C817 0.961 . S
H825 C817 0.960 . S
H826 C818 0.930 . S
H827 C819 0.929 . S
H828 C836 0.929 . S
H829 C838 0.930 . S
H830 C840 0.930 . S
H831 C843 0.929 . S
H832 C846 0.930 . S
H833 C848 0.960 . S
H834 C848 0.960 . S
H835 C848 0.960 . S
C836 H828 0.929 . S
C836 C837 1.377 . S
C836 C838 1.384 . S
C837 C836 1.377 . S
C837 C843 1.390 . S
C838 H829 0.930 . S
C838 C836 1.384 . S
C838 C839 1.372 . S
C839 C838 1.372 . S
C839 C840 1.400 . S
C839 C844 1.490 . S
C840 H830 0.930 . S
C840 C839 1.400 . S
C840 C843 1.386 . S
H841 C857 0.930 . S
H842 C858 0.931 . S
C843 H831 0.929 . S
C843 C837 1.390 . S
C843 C840 1.386 . S
C844 C839 1.490 . S
C844 C846 1.395 . S
C844 C847 1.403 . S
H845 C851 0.930 . S
C846 H832 0.930 . S
C846 C844 1.395 . S
C846 C849 1.403 . S
C847 C844 1.403 . S
C847 C848 1.524 . S
C847 C851 1.400 . S
C848 H833 0.960 . S
C848 H834 0.960 . S
C848 H835 0.960 . S
C848 C847 1.524 . S
C849 C846 1.403 . S
C849 C850 1.392 . S
C849 C853 1.495 . S
C850 C849 1.392 . S
C850 C851 1.385 . S
C850 C852 1.478 . S
C851 H845 0.930 . S
C851 C847 1.400 . S
C851 C850 1.385 . S
C852 C850 1.478 . S
C852 C854 1.381 . S
C852 C858 1.383 . S
C853 C849 1.495 . S
C853 H859 0.959 . S
C853 H860 0.961 . S
C853 H861 0.960 . S
C854 C852 1.381 . S
C854 C855 1.394 . S
C854 H862 0.930 . S
C855 C854 1.394 . S
C855 C856 1.383 . S
C855 H863 0.929 . S
C856 C855 1.383 . S
C856 C857 1.377 . S
C857 H841 0.930 . S
C857 C856 1.377 . S
C857 C858 1.379 . S
C858 H842 0.931 . S
C858 C852 1.383 . S
C858 C857 1.379 . S
H859 C853 0.959 . S
H860 C853 0.961 . S
H861 C853 0.960 . S
H862 C854 0.930 . S
H863 C855 0.929 . S
H864 C872 0.929 . S
H865 C874 0.930 . S
H866 C876 0.930 . S
H867 C879 0.929 . S
H868 C882 0.930 . S
H869 C884 0.960 . S
H870 C884 0.960 . S
H871 C884 0.960 . S
C872 H864 0.929 . S
C872 C873 1.377 . S
C872 C874 1.384 . S
C873 C872 1.377 . S
C873 C879 1.390 . S
C874 H865 0.930 . S
C874 C872 1.384 . S
C874 C875 1.372 . S
C875 C874 1.372 . S
C875 C876 1.400 . S
C875 C880 1.490 . S
C876 H866 0.930 . S
C876 C875 1.400 . S
C876 C879 1.386 . S
H877 C893 0.930 . S
H878 C894 0.931 . S
C879 H867 0.929 . S
C879 C873 1.390 . S
C879 C876 1.386 . S
C880 C875 1.490 . S
C880 C882 1.395 . S
C880 C883 1.403 . S
H881 C887 0.930 . S
C882 H868 0.930 . S
C882 C880 1.395 . S
C882 C885 1.403 . S
C883 C880 1.403 . S
C883 C884 1.524 . S
C883 C887 1.400 . S
C884 H869 0.960 . S
C884 H870 0.960 . S
C884 H871 0.960 . S
C884 C883 1.524 . S
C885 C882 1.403 . S
C885 C886 1.392 . S
C885 C889 1.495 . S
C886 C885 1.392 . S
C886 C887 1.385 . S
C886 C888 1.478 . S
C887 H881 0.930 . S
C887 C883 1.400 . S
C887 C886 1.385 . S
C888 C886 1.478 . S
C888 C890 1.381 . S
C888 C894 1.383 . S
C889 C885 1.495 . S
C889 H895 0.959 . S
C889 H896 0.961 . S
C889 H897 0.960 . S
C890 C888 1.381 . S
C890 C891 1.394 . S
C890 H898 0.930 . S
C891 C890 1.394 . S
C891 C892 1.383 . S
C891 H899 0.929 . S
C892 C891 1.383 . S
C892 C893 1.377 . S
C893 H877 0.930 . S
C893 C892 1.377 . S
C893 C894 1.379 . S
C894 H878 0.931 . S
C894 C888 1.383 . S
C894 C893 1.379 . S
H895 C889 0.959 . S
H896 C889 0.961 . S
H897 C889 0.960 . S
H898 C890 0.930 . S
H899 C891 0.929 . S
H900 C908 0.929 . S
H901 C910 0.930 . S
H902 C912 0.930 . S
H903 C915 0.929 . S
H904 C918 0.930 . S
H905 C920 0.960 . S
H906 C920 0.960 . S
H907 C920 0.960 . S
C908 H900 0.929 . S
C908 C909 1.377 . S
C908 C910 1.384 . S
C909 C908 1.377 . S
C909 C915 1.390 . S
C910 H901 0.930 . S
C910 C908 1.384 . S
C910 C911 1.372 . S
C911 C910 1.372 . S
C911 C912 1.400 . S
C911 C916 1.490 . S
C912 H902 0.930 . S
C912 C911 1.400 . S
C912 C915 1.386 . S
H913 C929 0.930 . S
H914 C930 0.931 . S
C915 H903 0.929 . S
C915 C909 1.390 . S
C915 C912 1.386 . S
C916 C911 1.490 . S
C916 C918 1.395 . S
C916 C919 1.403 . S
H917 C923 0.930 . S
C918 H904 0.930 . S
C918 C916 1.395 . S
C918 C921 1.403 . S
C919 C916 1.403 . S
C919 C920 1.524 . S
C919 C923 1.400 . S
C920 H905 0.960 . S
C920 H906 0.960 . S
C920 H907 0.960 . S
C920 C919 1.524 . S
C921 C918 1.403 . S
C921 C922 1.392 . S
C921 C925 1.495 . S
C922 C921 1.392 . S
C922 C923 1.385 . S
C922 C924 1.478 . S
C923 H917 0.930 . S
C923 C919 1.400 . S
C923 C922 1.385 . S
C924 C922 1.478 . S
C924 C926 1.381 . S
C924 C930 1.383 . S
C925 C921 1.495 . S
C925 H931 0.959 . S
C925 H932 0.961 . S
C925 H933 0.960 . S
C926 C924 1.381 . S
C926 C927 1.394 . S
C926 H934 0.930 . S
C927 C926 1.394 . S
C927 C928 1.383 . S
C927 H935 0.929 . S
C928 C927 1.383 . S
C928 C929 1.377 . S
C929 H913 0.930 . S
C929 C928 1.377 . S
C929 C930 1.379 . S
C930 H914 0.931 . S
C930 C924 1.383 . S
C930 C929 1.379 . S
H931 C925 0.959 . S
H932 C925 0.961 . S
H933 C925 0.960 . S
H934 C926 0.930 . S
H935 C927 0.929 . S
H936 C944 0.929 1_545 S
H937 C946 0.930 . S
H938 C948 0.930 . S
H939 C951 0.929 . S
H940 C954 0.930 1_545 S
H941 C956 0.960 . S
H942 C956 0.960 . S
H943 C956 0.960 . S
C944 H936 0.929 1_565 S
C944 C945 1.377 . S
C944 C946 1.384 . S
C945 C944 1.377 . S
C945 C951 1.390 . S
C946 H937 0.930 . S
C946 C944 1.384 . S
C946 C947 1.372 . S
C947 C946 1.372 . S
C947 C948 1.400 . S
C947 C952 1.490 . S
C948 H938 0.930 . S
C948 C947 1.400 . S
C948 C951 1.386 . S
H949 C965 0.930 . S
H950 C966 0.931 . S
C951 H939 0.929 . S
C951 C945 1.390 . S
C951 C948 1.386 . S
C952 C947 1.490 . S
C952 C954 1.395 . S
C952 C955 1.403 . S
H953 C959 0.930 . S
C954 H940 0.930 1_565 S
C954 C952 1.395 . S
C954 C957 1.403 . S
C955 C952 1.403 . S
C955 C956 1.524 . S
C955 C959 1.400 . S
C956 H941 0.960 . S
C956 H942 0.960 . S
C956 H943 0.960 . S
C956 C955 1.524 . S
C957 C954 1.403 . S
C957 C958 1.392 . S
C957 C961 1.495 1_565 S
C958 C957 1.392 . S
C958 C959 1.385 . S
C958 C960 1.478 . S
C959 H953 0.930 . S
C959 C955 1.400 . S
C959 C958 1.385 . S
C960 C958 1.478 . S
C960 C962 1.381 . S
C960 C966 1.383 . S
C961 C957 1.495 1_545 S
C961 H967 0.959 . S
C961 H968 0.961 . S
C961 H969 0.960 . S
C962 C960 1.381 . S
C962 C963 1.394 . S
C962 H970 0.930 . S
C963 C962 1.394 . S
C963 C964 1.383 . S
C963 H971 0.929 . S
C964 C963 1.383 . S
C964 C965 1.377 . S
C965 H949 0.930 . S
C965 C964 1.377 . S
C965 C966 1.379 . S
C966 H950 0.931 . S
C966 C960 1.383 . S
C966 C965 1.379 . S
H967 C961 0.959 . S
H968 C961 0.961 . S
H969 C961 0.960 . S
H970 C962 0.930 . S
H971 C963 0.929 . S
H972 C980 0.929 . S
H973 C982 0.930 . S
H974 C984 0.930 1_565 S
H975 C987 0.929 . S
H976 C990 0.930 . S
H977 C992 0.960 . S
H978 C992 0.960 . S
H979 C992 0.960 . S
C980 H972 0.929 . S
C980 C981 1.377 . S
C980 C982 1.384 . S
C981 C980 1.377 . S
C981 C987 1.390 1_545 S
C982 H973 0.930 . S
C982 C980 1.384 . S
C982 C983 1.372 . S
C983 C982 1.372 . S
C983 C984 1.400 . S
C983 C988 1.490 . S
C984 H974 0.930 1_545 S
C984 C983 1.400 . S
C984 C987 1.386 1_545 S
H985 C1001 0.930 . S
H986 C1002 0.931 . S
C987 H975 0.929 . S
C987 C981 1.390 1_565 S
C987 C984 1.386 1_565 S
C988 C983 1.490 . S
C988 C990 1.395 . S
C988 C991 1.403 . S
H989 C995 0.930 . S
C990 H976 0.930 . S
C990 C988 1.395 . S
C990 C993 1.403 . S
C991 C988 1.403 . S
C991 C992 1.524 1_545 S
C991 C995 1.400 . S
C992 H977 0.960 . S
C992 H978 0.960 . S
C992 H979 0.960 . S
C992 C991 1.524 1_565 S
C993 C990 1.403 . S
C993 C994 1.392 . S
C993 C997 1.495 . S
C994 C993 1.392 . S
C994 C995 1.385 . S
C994 C996 1.478 . S
C995 H989 0.930 . S
C995 C991 1.400 . S
C995 C994 1.385 . S
C996 C994 1.478 . S
C996 C998 1.381 . S
C996 C1002 1.383 . S
C997 C993 1.495 . S
C997 H1003 0.959 . S
C997 H1004 0.961 . S
C997 H1005 0.960 . S
C998 C996 1.381 . S
C998 C999 1.394 . S
C998 H1006 0.930 . S
C999 C998 1.394 . S
C999 C1000 1.383 . S
C999 H1007 0.929 . S
C1000 C999 1.383 . S
C1000 C1001 1.377 . S
C1001 H985 0.930 . S
C1001 C1000 1.377 . S
C1001 C1002 1.379 . S
C1002 H986 0.931 . S
C1002 C996 1.383 . S
C1002 C1001 1.379 . S
H1003 C997 0.959 . S
H1004 C997 0.961 . S
H1005 C997 0.960 . S
H1006 C998 0.930 . S
H1007 C999 0.929 . S
H1008 C1016 0.929 . S
H1009 C1018 0.930 . S
H1010 C1020 0.930 . S
H1011 C1023 0.929 . S
H1012 C1026 0.930 . S
H1013 C1028 0.960 . S
H1014 C1028 0.960 . S
H1015 C1028 0.960 . S
C1016 H1008 0.929 . S
C1016 C1017 1.337 1_556 S
C1016 C1018 1.384 . S
C1017 C1016 1.337 1_554 S
C1017 C1023 1.432 1_455 S
C1018 H1009 0.930 . S
C1018 C1016 1.384 . S
C1018 C1019 1.349 1_556 S
C1019 C1018 1.349 1_554 S
C1019 C1020 1.424 1_455 S
C1019 C1024 1.490 . S
C1020 H1010 0.930 . S
C1020 C1019 1.424 1_655 S
C1020 C1023 1.386 . S
H1021 C1037 0.930 . S
H1022 C1038 0.931 . S
C1023 H1011 0.929 . S
C1023 C1017 1.432 1_655 S
C1023 C1020 1.386 . S
C1024 C1019 1.490 . S
C1024 C1026 1.422 . S
C1024 C1027 1.379 1_454 S
H1025 C1031 0.930 . S
C1026 H1012 0.930 . S
C1026 C1024 1.422 . S
C1026 C1029 1.403 . S
C1027 C1024 1.379 1_656 S
C1027 C1028 1.524 . S
C1027 C1031 1.400 . S
C1028 H1013 0.960 . S
C1028 H1014 0.960 . S
C1028 H1015 0.960 . S
C1028 C1027 1.524 . S
C1029 C1026 1.403 . S
C1029 C1030 1.392 . S
C1029 C1033 1.495 . S
C1030 C1029 1.392 . S
C1030 C1031 1.385 1_454 S
C1030 C1032 1.475 1_455 S
C1031 H1025 0.930 . S
C1031 C1027 1.400 . S
C1031 C1030 1.385 1_656 S
C1032 C1030 1.475 1_655 S
C1032 C1034 1.366 1_654 S
C1032 C1038 1.403 . S
C1033 C1029 1.495 . S
C1033 H1039 0.959 . S
C1033 H1040 0.961 . S
C1033 H1041 0.960 . S
C1034 C1032 1.366 1_456 S
C1034 C1035 1.394 . S
C1034 H1042 0.930 . S
C1035 C1034 1.394 . S
C1035 C1036 1.383 1_456 S
C1035 H1043 0.929 . S
C1036 C1035 1.383 1_654 S
C1036 C1037 1.377 . S
C1037 H1021 0.930 . S
C1037 C1036 1.377 . S
C1037 C1038 1.379 . S
C1038 H1022 0.931 . S
C1038 C1032 1.403 . S
C1038 C1037 1.379 . S
H1039 C1033 0.959 . S
H1040 C1033 0.961 . S
H1041 C1033 0.960 . S
H1042 C1034 0.930 . S
H1043 C1035 0.929 . S
H1044 C1052 0.929 . S
H1045 C1054 0.930 . S
H1046 C1056 0.930 . S
H1047 C1059 0.929 . S
H1048 C1062 0.930 . S
H1049 C1064 0.960 . S
H1050 C1064 0.960 . S
H1051 C1064 0.960 . S
C1052 H1044 0.929 . S
C1052 C1053 1.377 . S
C1052 C1054 1.384 . S
C1053 C1052 1.377 . S
C1053 C1059 1.390 . S
C1054 H1045 0.930 . S
C1054 C1052 1.384 . S
C1054 C1055 1.372 . S
C1055 C1054 1.372 . S
C1055 C1056 1.400 . S
C1055 C1060 1.490 . S
C1056 H1046 0.930 . S
C1056 C1055 1.400 . S
C1056 C1059 1.386 . S
H1057 C1073 0.930 . S
H1058 C1074 0.931 . S
C1059 H1047 0.929 . S
C1059 C1053 1.390 . S
C1059 C1056 1.386 . S
C1060 C1055 1.490 . S
C1060 C1062 1.395 . S
C1060 C1063 1.403 . S
H1061 C1067 0.930 . S
C1062 H1048 0.930 . S
C1062 C1060 1.395 . S
C1062 C1065 1.403 . S
C1063 C1060 1.403 . S
C1063 C1064 1.524 . S
C1063 C1067 1.400 . S
C1064 H1049 0.960 . S
C1064 H1050 0.960 . S
C1064 H1051 0.960 . S
C1064 C1063 1.524 . S
C1065 C1062 1.403 . S
C1065 C1066 1.392 . S
C1065 C1069 1.495 . S
C1066 C1065 1.392 . S
C1066 C1067 1.385 . S
C1066 C1068 1.478 . S
C1067 H1061 0.930 . S
C1067 C1063 1.400 . S
C1067 C1066 1.385 . S
C1068 C1066 1.478 . S
C1068 C1070 1.381 . S
C1068 C1074 1.383 . S
C1069 C1065 1.495 . S
C1069 H1075 0.959 . S
C1069 H1076 0.961 . S
C1069 H1077 0.960 . S
C1070 C1068 1.381 . S
C1070 C1071 1.394 1_565 S
C1070 H1078 0.930 . S
C1071 C1070 1.394 1_545 S
C1071 C1072 1.383 . S
C1071 H1079 0.929 . S
C1072 C1071 1.383 . S
C1072 C1073 1.377 . S
C1073 H1057 0.930 . S
C1073 C1072 1.377 . S
C1073 C1074 1.379 1_545 S
C1074 H1058 0.931 . S
C1074 C1068 1.383 . S
C1074 C1073 1.379 1_565 S
H1075 C1069 0.959 . S
H1076 C1069 0.961 . S
H1077 C1069 0.960 . S
H1078 C1070 0.930 . S
H1079 C1071 0.929 . S
H1080 C1088 0.929 . S
H1081 C1090 0.930 . S
H1082 C1092 0.930 . S
H1083 C1095 0.929 . S
H1084 C1098 0.930 . S
H1085 C1100 0.960 . S
H1086 C1100 0.960 . S
H1087 C1100 0.960 . S
C1088 H1080 0.929 . S
C1088 C1089 1.377 . S
C1088 C1090 1.384 1_565 S
C1089 C1088 1.377 . S
C1089 C1095 1.390 . S
C1090 H1081 0.930 . S
C1090 C1088 1.384 1_545 S
C1090 C1091 1.372 . S
C1091 C1090 1.372 . S
C1091 C1092 1.400 . S
C1091 C1096 1.490 . S
C1092 H1082 0.930 . S
C1092 C1091 1.400 . S
C1092 C1095 1.386 1_545 S
H1093 C1109 0.930 . S
H1094 C1110 0.931 . S
C1095 H1083 0.929 . S
C1095 C1089 1.390 . S
C1095 C1092 1.386 1_565 S
C1096 C1091 1.490 . S
C1096 C1098 1.395 . S
C1096 C1099 1.403 . S
H1097 C1103 0.930 . S
C1098 H1084 0.930 . S
C1098 C1096 1.395 . S
C1098 C1101 1.403 . S
C1099 C1096 1.403 . S
C1099 C1100 1.524 . S
C1099 C1103 1.400 . S
C1100 H1085 0.960 . S
C1100 H1086 0.960 . S
C1100 H1087 0.960 . S
C1100 C1099 1.524 . S
C1101 C1098 1.403 . S
C1101 C1102 1.392 . S
C1101 C1105 1.495 . S
C1102 C1101 1.392 . S
C1102 C1103 1.385 . S
C1102 C1104 1.478 . S
C1103 H1097 0.930 . S
C1103 C1099 1.400 . S
C1103 C1102 1.385 . S
C1104 C1102 1.478 . S
C1104 C1106 1.381 . S
C1104 C1110 1.383 . S
C1105 C1101 1.495 . S
C1105 H1111 0.959 . S
C1105 H1112 0.961 . S
C1105 H1113 0.960 . S
C1106 C1104 1.381 . S
C1106 C1107 1.394 . S
C1106 H1114 0.930 . S
C1107 C1106 1.394 . S
C1107 C1108 1.383 . S
C1107 H1115 0.929 . S
C1108 C1107 1.383 . S
C1108 C1109 1.377 . S
C1109 H1093 0.930 . S
C1109 C1108 1.377 . S
C1109 C1110 1.379 . S
C1110 H1094 0.931 . S
C1110 C1104 1.383 . S
C1110 C1109 1.379 . S
H1111 C1105 0.959 . S
H1112 C1105 0.961 . S
H1113 C1105 0.960 . S
H1114 C1106 0.930 . S
H1115 C1107 0.929 . S
H1116 C1124 0.929 . S
H1117 C1126 0.930 . S
H1118 C1128 0.930 . S
H1119 C1131 0.929 . S
H1120 C1134 0.930 . S
H1121 C1136 0.960 . S
H1122 C1136 0.960 1_655 S
H1123 C1136 0.960 . S
C1124 H1116 0.929 . S
C1124 C1125 1.377 . S
C1124 C1126 1.384 . S
C1125 C1124 1.377 . S
C1125 C1131 1.390 1_655 S
C1126 H1117 0.930 . S
C1126 C1124 1.384 . S
C1126 C1127 1.372 . S
C1127 C1126 1.372 . S
C1127 C1128 1.400 1_655 S
C1127 C1132 1.490 . S
C1128 H1118 0.930 . S
C1128 C1127 1.400 1_455 S
C1128 C1131 1.386 . S
H1129 C1145 0.930 . S
H1130 C1146 0.931 . S
C1131 H1119 0.929 . S
C1131 C1125 1.390 1_455 S
C1131 C1128 1.386 . S
C1132 C1127 1.490 . S
C1132 C1134 1.395 . S
C1132 C1135 1.403 1_655 S
H1133 C1139 0.930 . S
C1134 H1120 0.930 . S
C1134 C1132 1.395 . S
C1134 C1137 1.403 1_565 S
C1135 C1132 1.403 1_455 S
C1135 C1136 1.524 . S
C1135 C1139 1.400 1_565 S
C1136 H1121 0.960 . S
C1136 H1122 0.960 1_455 S
C1136 H1123 0.960 . S
C1136 C1135 1.524 . S
C1137 C1134 1.403 1_545 S
C1137 C1138 1.387 1_655 S
C1137 C1141 1.495 . S
C1138 C1137 1.387 1_455 S
C1138 C1139 1.389 . S
C1138 C1140 1.479 . S
C1139 H1133 0.930 . S
C1139 C1135 1.400 1_545 S
C1139 C1138 1.389 . S
C1140 C1138 1.479 . S
C1140 C1142 1.381 1_455 S
C1140 C1146 1.383 . S
C1141 C1137 1.495 . S
C1141 H1147 0.959 . S
C1141 H1148 0.961 . S
C1141 H1149 0.960 . S
C1142 C1140 1.381 1_655 S
C1142 C1143 1.394 . S
C1142 H1150 0.930 . S
C1143 C1142 1.394 . S
C1143 C1144 1.383 1_655 S
C1143 H1151 0.929 . S
C1144 C1143 1.383 1_455 S
C1144 C1145 1.377 . S
C1145 H1129 0.930 . S
C1145 C1144 1.377 . S
C1145 C1146 1.379 . S
C1146 H1130 0.931 . S
C1146 C1140 1.383 . S
C1146 C1145 1.379 . S
H1147 C1141 0.959 . S
H1148 C1141 0.961 . S
H1149 C1141 0.960 . S
H1150 C1142 0.930 . S
H1151 C1143 0.929 . S
H1152 C1160 0.929 . S
H1153 C1162 0.930 . S
H1154 C1164 0.930 . S
H1155 C1167 0.929 . S
H1156 C1170 0.930 . S
H1157 C1172 0.960 . S
H1158 C1172 0.960 . S
H1159 C1172 0.960 . S
C1160 H1152 0.929 . S
C1160 C1161 1.377 . S
C1160 C1162 1.384 1_565 S
C1161 C1160 1.377 . S
C1161 C1167 1.390 . S
C1162 H1153 0.930 . S
C1162 C1160 1.384 1_545 S
C1162 C1163 1.372 . S
C1163 C1162 1.372 . S
C1163 C1164 1.400 . S
C1163 C1168 1.490 . S
C1164 H1154 0.930 . S
C1164 C1163 1.400 . S
C1164 C1167 1.386 1_545 S
H1165 C1181 0.930 . S
H1166 C1182 0.931 . S
C1167 H1155 0.929 . S
C1167 C1161 1.390 . S
C1167 C1164 1.386 1_565 S
C1168 C1163 1.490 . S
C1168 C1170 1.395 . S
C1168 C1171 1.403 . S
H1169 C1175 0.930 . S
C1170 H1156 0.930 . S
C1170 C1168 1.395 . S
C1170 C1173 1.403 . S
C1171 C1168 1.403 . S
C1171 C1172 1.524 . S
C1171 C1175 1.400 . S
C1172 H1157 0.960 . S
C1172 H1158 0.960 . S
C1172 H1159 0.960 . S
C1172 C1171 1.524 . S
C1173 C1170 1.403 . S
C1173 C1174 1.392 . S
C1173 C1177 1.495 . S
C1174 C1173 1.392 . S
C1174 C1175 1.385 . S
C1174 C1176 1.478 . S
C1175 H1169 0.930 . S
C1175 C1171 1.400 . S
C1175 C1174 1.385 . S
C1176 C1174 1.478 . S
C1176 C1178 1.381 . S
C1176 C1182 1.383 . S
C1177 C1173 1.495 . S
C1177 H1183 0.959 . S
C1177 H1184 0.961 . S
C1177 H1185 0.960 . S
C1178 C1176 1.381 . S
C1178 C1179 1.394 . S
C1178 H1186 0.930 . S
C1179 C1178 1.394 . S
C1179 C1180 1.383 . S
C1179 H1187 0.929 . S
C1180 C1179 1.383 . S
C1180 C1181 1.377 . S
C1181 H1165 0.930 . S
C1181 C1180 1.377 . S
C1181 C1182 1.379 . S
C1182 H1166 0.931 . S
C1182 C1176 1.383 . S
C1182 C1181 1.379 . S
H1183 C1177 0.959 . S
H1184 C1177 0.961 . S
H1185 C1177 0.960 . S
H1186 C1178 0.930 . S
H1187 C1179 0.929 . S
H1188 C1196 0.929 . S
H1189 C1198 0.930 . S
H1190 C1200 0.930 . S
H1191 C1203 0.929 . S
H1192 C1206 0.930 . S
H1193 C1208 0.960 . S
H1194 C1208 0.960 . S
H1195 C1208 0.960 . S
C1196 H1188 0.929 . S
C1196 C1197 1.377 . S
C1196 C1198 1.384 . S
C1197 C1196 1.377 . S
C1197 C1203 1.390 . S
C1198 H1189 0.930 . S
C1198 C1196 1.384 . S
C1198 C1199 1.372 . S
C1199 C1198 1.372 . S
C1199 C1200 1.400 . S
C1199 C1204 1.490 . S
C1200 H1190 0.930 . S
C1200 C1199 1.400 . S
C1200 C1203 1.386 . S
H1201 C1217 0.930 . S
H1202 C1218 0.931 . S
C1203 H1191 0.929 . S
C1203 C1197 1.390 . S
C1203 C1200 1.386 . S
C1204 C1199 1.490 . S
C1204 C1206 1.395 . S
C1204 C1207 1.403 . S
H1205 C1211 0.930 . S
C1206 H1192 0.930 . S
C1206 C1204 1.395 . S
C1206 C1209 1.403 . S
C1207 C1204 1.403 . S
C1207 C1208 1.524 . S
C1207 C1211 1.400 . S
C1208 H1193 0.960 . S
C1208 H1194 0.960 . S
C1208 H1195 0.960 . S
C1208 C1207 1.524 . S
C1209 C1206 1.403 . S
C1209 C1210 1.392 . S
C1209 C1213 1.495 . S
C1210 C1209 1.392 . S
C1210 C1211 1.385 . S
C1210 C1212 1.478 . S
C1211 H1205 0.930 . S
C1211 C1207 1.400 . S
C1211 C1210 1.385 . S
C1212 C1210 1.478 . S
C1212 C1214 1.381 . S
C1212 C1218 1.383 . S
C1213 C1209 1.495 . S
C1213 H1219 0.959 . S
C1213 H1220 0.961 . S
C1213 H1221 0.960 . S
C1214 C1212 1.381 . S
C1214 C1215 1.394 1_565 S
C1214 H1222 0.930 . S
C1215 C1214 1.394 1_545 S
C1215 C1216 1.383 . S
C1215 H1223 0.929 . S
C1216 C1215 1.383 . S
C1216 C1217 1.377 . S
C1217 H1201 0.930 . S
C1217 C1216 1.377 . S
C1217 C1218 1.379 1_545 S
C1218 H1202 0.931 . S
C1218 C1212 1.383 . S
C1218 C1217 1.379 1_565 S
H1219 C1213 0.959 . S
H1220 C1213 0.961 . S
H1221 C1213 0.960 . S
H1222 C1214 0.930 . S
H1223 C1215 0.929 . S
H1224 C1232 0.929 . S
H1225 C1234 0.930 . S
H1226 C1236 0.930 . S
H1227 C1239 0.929 . S
H1228 C1242 0.930 . S
H1229 C1244 0.960 . S
H1230 C1244 0.960 . S
H1231 C1244 0.960 . S
C1232 H1224 0.929 . S
C1232 C1233 1.377 . S
C1232 C1234 1.384 . S
C1233 C1232 1.377 . S
C1233 C1239 1.390 . S
C1234 H1225 0.930 . S
C1234 C1232 1.384 . S
C1234 C1235 1.372 . S
C1235 C1234 1.372 . S
C1235 C1236 1.400 . S
C1235 C1240 1.490 . S
C1236 H1226 0.930 . S
C1236 C1235 1.400 . S
C1236 C1239 1.386 . S
H1237 C1253 0.930 . S
H1238 C1254 0.931 . S
C1239 H1227 0.929 . S
C1239 C1233 1.390 . S
C1239 C1236 1.386 . S
C1240 C1235 1.490 . S
C1240 C1242 1.395 . S
C1240 C1243 1.403 . S
H1241 C1247 0.930 . S
C1242 H1228 0.930 . S
C1242 C1240 1.395 . S
C1242 C1245 1.403 . S
C1243 C1240 1.403 . S
C1243 C1244 1.524 . S
C1243 C1247 1.400 . S
C1244 H1229 0.960 . S
C1244 H1230 0.960 . S
C1244 H1231 0.960 . S
C1244 C1243 1.524 . S
C1245 C1242 1.403 . S
C1245 C1246 1.392 . S
C1245 C1249 1.495 . S
C1246 C1245 1.392 . S
C1246 C1247 1.385 . S
C1246 C1248 1.478 . S
C1247 H1241 0.930 . S
C1247 C1243 1.400 . S
C1247 C1246 1.385 . S
C1248 C1246 1.478 . S
C1248 C1250 1.381 . S
C1248 C1254 1.383 . S
C1249 C1245 1.495 . S
C1249 H1255 0.959 . S
C1249 H1256 0.961 . S
C1249 H1257 0.960 . S
C1250 C1248 1.381 . S
C1250 C1251 1.394 . S
C1250 H1258 0.930 . S
C1251 C1250 1.394 . S
C1251 C1252 1.383 . S
C1251 H1259 0.929 . S
C1252 C1251 1.383 . S
C1252 C1253 1.377 . S
C1253 H1237 0.930 . S
C1253 C1252 1.377 . S
C1253 C1254 1.379 . S
C1254 H1238 0.931 . S
C1254 C1248 1.383 . S
C1254 C1253 1.379 . S
H1255 C1249 0.959 . S
H1256 C1249 0.961 . S
H1257 C1249 0.960 . S
H1258 C1250 0.930 . S
H1259 C1251 0.929 . S
H1260 C1268 0.929 . S
H1261 C1270 0.930 . S
H1262 C1272 0.930 . S
H1263 C1275 0.929 . S
H1264 C1278 0.930 . S
H1265 C1280 0.960 . S
H1266 C1280 0.960 . S
H1267 C1280 0.960 . S
C1268 H1260 0.929 . S
C1268 C1269 1.377 . S
C1268 C1270 1.384 . S
C1269 C1268 1.377 . S
C1269 C1275 1.390 1_554 S
C1270 H1261 0.930 . S
C1270 C1268 1.384 . S
C1270 C1271 1.372 . S
C1271 C1270 1.372 . S
C1271 C1272 1.400 1_554 S
C1271 C1276 1.490 . S
C1272 H1262 0.930 . S
C1272 C1271 1.400 1_556 S
C1272 C1275 1.386 . S
H1273 C1289 0.930 . S
H1274 C1290 0.931 . S
C1275 H1263 0.929 . S
C1275 C1269 1.390 1_556 S
C1275 C1272 1.386 . S
C1276 C1271 1.490 . S
C1276 C1278 1.395 . S
C1276 C1279 1.403 1_554 S
H1277 C1283 0.930 . S
C1278 H1264 0.930 . S
C1278 C1276 1.395 . S
C1278 C1281 1.403 1_565 S
C1279 C1276 1.403 1_556 S
C1279 C1280 1.524 . S
C1279 C1283 1.400 1_565 S
C1280 H1265 0.960 . S
C1280 H1266 0.960 . S
C1280 H1267 0.960 . S
C1280 C1279 1.524 . S
C1281 C1278 1.403 1_545 S
C1281 C1282 1.392 . S
C1281 C1285 1.495 . S
C1282 C1281 1.392 . S
C1282 C1283 1.385 1_554 S
C1282 C1284 1.478 . S
C1283 H1277 0.930 . S
C1283 C1279 1.400 1_545 S
C1283 C1282 1.385 1_556 S
C1284 C1282 1.478 . S
C1284 C1286 1.381 . S
C1284 C1290 1.383 1_554 S
C1285 C1281 1.495 . S
C1285 H1291 0.959 . S
C1285 H1292 0.961 . S
C1285 H1293 0.960 . S
C1286 C1284 1.381 . S
C1286 C1287 1.394 . S
C1286 H1294 0.930 . S
C1287 C1286 1.394 . S
C1287 C1288 1.383 . S
C1287 H1295 0.929 . S
C1288 C1287 1.383 . S
C1288 C1289 1.377 1_554 S
C1289 H1273 0.930 . S
C1289 C1288 1.377 1_556 S
C1289 C1290 1.379 . S
C1290 H1274 0.931 . S
C1290 C1284 1.383 1_556 S
C1290 C1289 1.379 . S
H1291 C1285 0.959 . S
H1292 C1285 0.961 . S
H1293 C1285 0.960 . S
H1294 C1286 0.930 . S
H1295 C1287 0.929 . S
H1296 C1304 0.929 . S
H1297 C1306 0.930 . S
H1298 C1308 0.930 . S
H1299 C1311 0.929 . S
H1300 C1314 0.930 . S
H1301 C1316 0.960 . S
H1302 C1316 0.960 . S
H1303 C1316 0.960 1_556 S
C1304 H1296 0.929 . S
C1304 C1305 1.377 . S
C1304 C1306 1.384 . S
C1305 C1304 1.377 . S
C1305 C1311 1.390 1_554 S
C1306 H1297 0.930 . S
C1306 C1304 1.384 . S
C1306 C1307 1.372 . S
C1307 C1306 1.372 . S
C1307 C1308 1.400 1_554 S
C1307 C1312 1.490 . S
C1308 H1298 0.930 . S
C1308 C1307 1.400 1_556 S
C1308 C1311 1.386 . S
H1309 C1325 0.930 . S
H1310 C1326 0.931 . S
C1311 H1299 0.929 . S
C1311 C1305 1.390 1_556 S
C1311 C1308 1.386 . S
C1312 C1307 1.490 . S
C1312 C1314 1.395 . S
C1312 C1315 1.403 . S
H1313 C1319 0.930 . S
C1314 H1300 0.930 . S
C1314 C1312 1.395 . S
C1314 C1317 1.403 . S
C1315 C1312 1.403 . S
C1315 C1316 1.524 . S
C1315 C1319 1.400 . S
C1316 H1301 0.960 . S
C1316 H1302 0.960 . S
C1316 H1303 0.960 1_554 S
C1316 C1315 1.524 . S
C1317 C1314 1.403 . S
C1317 C1318 1.392 . S
C1317 C1321 1.499 . S
C1318 C1317 1.392 . S
C1318 C1319 1.385 . S
C1318 C1320 1.481 . S
C1319 H1313 0.930 . S
C1319 C1315 1.400 . S
C1319 C1318 1.385 . S
C1320 C1318 1.481 . S
C1320 C1322 1.439 . S
C1320 C1326 1.326 1_554 S
C1321 C1317 1.499 . S
C1321 H1327 0.959 . S
C1321 H1328 0.900 1_554 S
C1321 H1329 1.020 . S
C1322 C1320 1.439 . S
C1322 C1323 1.394 . S
C1322 H1330 0.930 . S
C1323 C1322 1.394 . S
C1323 C1324 1.433 . S
C1323 H1331 0.929 . S
C1324 C1323 1.433 . S
C1324 C1325 1.328 1_554 S
C1325 H1309 0.930 . S
C1325 C1324 1.328 1_556 S
C1325 C1326 1.379 . S
C1326 H1310 0.931 . S
C1326 C1320 1.326 1_556 S
C1326 C1325 1.379 . S
H1327 C1321 0.959 . S
H1328 C1321 0.900 1_556 S
H1329 C1321 1.020 . S
H1330 C1322 0.930 . S
H1331 C1323 0.929 . S
H1332 C1340 0.929 . S
H1333 C1342 0.930 . S
H1334 C1344 0.930 . S
H1335 C1347 0.929 . S
H1336 C1350 0.930 . S
H1337 C1352 0.960 . S
H1338 C1352 0.960 . S
H1339 C1352 0.960 . S
C1340 H1332 0.929 . S
C1340 C1341 1.325 1_556 S
C1340 C1342 1.384 . S
C1341 C1340 1.325 1_554 S
C1341 C1347 1.442 . S
C1342 H1333 0.930 . S
C1342 C1340 1.384 . S
C1342 C1343 1.372 1_556 S
C1343 C1342 1.372 1_554 S
C1343 C1344 1.400 . S
C1343 C1348 1.490 1_554 S
C1344 H1334 0.930 . S
C1344 C1343 1.400 . S
C1344 C1347 1.386 . S
H1345 C1361 0.930 . S
H1346 C1362 0.931 . S
C1347 H1335 0.929 . S
C1347 C1341 1.442 . S
C1347 C1344 1.386 . S
C1348 C1343 1.490 1_556 S
C1348 C1350 1.398 . S
C1348 C1351 1.400 1_556 S
H1349 C1355 0.930 . S
C1350 H1336 0.930 . S
C1350 C1348 1.398 . S
C1350 C1353 1.403 . S
C1351 C1348 1.400 1_554 S
C1351 C1352 1.524 . S
C1351 C1355 1.400 . S
C1352 H1337 0.960 . S
C1352 H1338 0.960 . S
C1352 H1339 0.960 . S
C1352 C1351 1.524 . S
C1353 C1350 1.403 . S
C1353 C1354 1.433 . S
C1353 C1357 1.495 . S
C1354 C1353 1.433 . S
C1354 C1355 1.348 1_556 S
C1354 C1356 1.477 . S
C1355 H1349 0.930 . S
C1355 C1351 1.400 . S
C1355 C1354 1.348 1_554 S
C1356 C1354 1.477 . S
C1356 C1358 1.429 . S
C1356 C1362 1.333 1_556 S
C1357 C1353 1.495 . S
C1357 H1363 0.959 . S
C1357 H1364 0.961 . S
C1357 H1365 0.960 . S
C1358 C1356 1.429 . S
C1358 C1359 1.394 . S
C1358 H1366 0.930 . S
C1359 C1358 1.394 . S
C1359 C1360 1.359 1_556 S
C1359 H1367 0.929 . S
C1360 C1359 1.359 1_554 S
C1360 C1361 1.400 . S
C1361 H1345 0.930 . S
C1361 C1360 1.400 . S
C1361 C1362 1.379 . S
C1362 H1346 0.931 . S
C1362 C1356 1.333 1_554 S
C1362 C1361 1.379 . S
H1363 C1357 0.959 . S
H1364 C1357 0.961 . S
H1365 C1357 0.960 . S
H1366 C1358 0.930 . S
H1367 C1359 0.929 . S
H1368 C1376 0.929 . S
H1369 C1378 0.930 . S
H1370 C1380 0.930 . S
H1371 C1383 0.929 . S
H1372 C1386 0.928 1_455 S
H1373 C1388 0.960 . S
H1374 C1388 0.960 . S
H1375 C1388 0.960 . S
C1376 H1368 0.929 . S
C1376 C1377 1.377 . S
C1376 C1378 1.384 . S
C1377 C1376 1.377 . S
C1377 C1383 1.390 . S
C1378 H1369 0.930 . S
C1378 C1376 1.384 . S
C1378 C1379 1.372 . S
C1379 C1378 1.372 . S
C1379 C1380 1.400 . S
C1379 C1384 1.490 . S
C1380 H1370 0.930 . S
C1380 C1379 1.400 . S
C1380 C1383 1.386 . S
H1381 C1397 0.930 . S
H1382 C1398 0.931 . S
C1383 H1371 0.929 . S
C1383 C1377 1.390 . S
C1383 C1380 1.386 . S
C1384 C1379 1.490 . S
C1384 C1386 1.380 1_455 S
C1384 C1387 1.403 . S
H1385 C1391 0.930 . S
C1386 H1372 0.928 1_655 S
C1386 C1384 1.380 1_655 S
C1386 C1389 1.420 . S
C1387 C1384 1.403 . S
C1387 C1388 1.524 . S
C1387 C1391 1.400 1_455 S
C1388 H1373 0.960 . S
C1388 H1374 0.960 . S
C1388 H1375 0.960 . S
C1388 C1387 1.524 . S
C1389 C1386 1.420 . S
C1389 C1390 1.392 . S
C1389 C1393 1.495 . S
C1390 C1389 1.392 . S
C1390 C1391 1.385 . S
C1390 C1392 1.478 . S
C1391 H1385 0.930 . S
C1391 C1387 1.400 1_655 S
C1391 C1390 1.385 . S
C1392 C1390 1.478 . S
C1392 C1394 1.381 . S
C1392 C1398 1.383 . S
C1393 C1389 1.495 . S
C1393 H1399 0.959 . S
C1393 H1400 0.961 . S
C1393 H1401 0.960 . S
C1394 C1392 1.381 . S
C1394 C1395 1.394 . S
C1394 H1402 0.930 . S
C1395 C1394 1.394 . S
C1395 C1396 1.383 . S
C1395 H1403 0.929 . S
C1396 C1395 1.383 . S
C1396 C1397 1.377 . S
C1397 H1381 0.930 . S
C1397 C1396 1.377 . S
C1397 C1398 1.379 . S
C1398 H1382 0.931 . S
C1398 C1392 1.383 . S
C1398 C1397 1.379 . S
H1399 C1393 0.959 . S
H1400 C1393 0.961 . S
H1401 C1393 0.960 . S
H1402 C1394 0.930 . S
H1403 C1395 0.929 . S
H1404 C1412 0.929 . S
H1405 C1414 0.930 . S
H1406 C1416 0.930 . S
H1407 C1419 0.929 . S
H1408 C1422 0.930 . S
H1409 C1424 0.960 . S
H1410 C1424 0.960 . S
H1411 C1424 0.960 . S
C1412 H1404 0.929 . S
C1412 C1413 1.377 . S
C1412 C1414 1.384 . S
C1413 C1412 1.377 . S
C1413 C1419 1.390 . S
C1414 H1405 0.930 . S
C1414 C1412 1.384 . S
C1414 C1415 1.372 . S
C1415 C1414 1.372 . S
C1415 C1416 1.400 . S
C1415 C1420 1.490 . S
C1416 H1406 0.930 . S
C1416 C1415 1.400 . S
C1416 C1419 1.386 . S
H1417 C1433 0.930 . S
H1418 C1434 0.931 . S
C1419 H1407 0.929 . S
C1419 C1413 1.390 . S
C1419 C1416 1.386 . S
C1420 C1415 1.490 . S
C1420 C1422 1.395 . S
C1420 C1423 1.403 . S
H1421 C1427 0.930 . S
C1422 H1408 0.930 . S
C1422 C1420 1.395 . S
C1422 C1425 1.403 . S
C1423 C1420 1.403 . S
C1423 C1424 1.524 . S
C1423 C1427 1.400 . S
C1424 H1409 0.960 . S
C1424 H1410 0.960 . S
C1424 H1411 0.960 . S
C1424 C1423 1.524 . S
C1425 C1422 1.403 . S
C1425 C1426 1.392 . S
C1425 C1429 1.495 . S
C1426 C1425 1.392 . S
C1426 C1427 1.385 . S
C1426 C1428 1.478 . S
C1427 H1421 0.930 . S
C1427 C1423 1.400 . S
C1427 C1426 1.385 . S
C1428 C1426 1.478 . S
C1428 C1430 1.381 . S
C1428 C1434 1.383 . S
C1429 C1425 1.495 . S
C1429 H1435 0.959 . S
C1429 H1436 0.961 . S
C1429 H1437 0.960 . S
C1430 C1428 1.381 . S
C1430 C1431 1.394 . S
C1430 H1438 0.930 . S
C1431 C1430 1.394 . S
C1431 C1432 1.383 . S
C1431 H1439 0.929 . S
C1432 C1431 1.383 . S
C1432 C1433 1.377 . S
C1433 H1417 0.930 . S
C1433 C1432 1.377 . S
C1433 C1434 1.379 . S
C1434 H1418 0.931 . S
C1434 C1428 1.383 . S
C1434 C1433 1.379 . S
H1435 C1429 0.959 . S
H1436 C1429 0.961 . S
H1437 C1429 0.960 . S
H1438 C1430 0.930 . S
H1439 C1431 0.929 . S
H1440 C1448 0.929 . S
H1441 C1450 0.930 . S
H1442 C1452 0.930 . S
H1443 C1455 0.929 . S
H1444 C1458 0.930 . S
H1445 C1460 0.960 . S
H1446 C1460 0.960 . S
H1447 C1460 0.960 . S
C1448 H1440 0.929 . S
C1448 C1449 1.377 . S
C1448 C1450 1.384 . S
C1449 C1448 1.377 . S
C1449 C1455 1.390 . S
C1450 H1441 0.930 . S
C1450 C1448 1.384 . S
C1450 C1451 1.372 . S
C1451 C1450 1.372 . S
C1451 C1452 1.400 . S
C1451 C1456 1.490 . S
C1452 H1442 0.930 . S
C1452 C1451 1.400 . S
C1452 C1455 1.386 . S
H1453 C1469 0.930 . S
H1454 C1470 0.931 . S
C1455 H1443 0.929 . S
C1455 C1449 1.390 . S
C1455 C1452 1.386 . S
C1456 C1451 1.490 . S
C1456 C1458 1.395 . S
C1456 C1459 1.403 . S
H1457 C1463 0.930 . S
C1458 H1444 0.930 . S
C1458 C1456 1.395 . S
C1458 C1461 1.403 . S
C1459 C1456 1.403 . S
C1459 C1460 1.524 . S
C1459 C1463 1.400 . S
C1460 H1445 0.960 . S
C1460 H1446 0.960 . S
C1460 H1447 0.960 . S
C1460 C1459 1.524 . S
C1461 C1458 1.403 . S
C1461 C1462 1.392 . S
C1461 C1465 1.495 . S
C1462 C1461 1.392 . S
C1462 C1463 1.385 . S
C1462 C1464 1.478 . S
C1463 H1457 0.930 . S
C1463 C1459 1.400 . S
C1463 C1462 1.385 . S
C1464 C1462 1.478 . S
C1464 C1466 1.381 . S
C1464 C1470 1.383 . S
C1465 C1461 1.495 . S
C1465 H1471 0.959 . S
C1465 H1472 0.961 . S
C1465 H1473 0.960 . S
C1466 C1464 1.381 . S
C1466 C1467 1.394 . S
C1466 H1474 0.930 . S
C1467 C1466 1.394 . S
C1467 C1468 1.383 . S
C1467 H1475 0.929 1_545 S
C1468 C1467 1.383 . S
C1468 C1469 1.377 . S
C1469 H1453 0.930 . S
C1469 C1468 1.377 . S
C1469 C1470 1.379 . S
C1470 H1454 0.931 . S
C1470 C1464 1.383 . S
C1470 C1469 1.379 . S
H1471 C1465 0.959 . S
H1472 C1465 0.961 . S
H1473 C1465 0.960 . S
H1474 C1466 0.930 . S
H1475 C1467 0.929 1_565 S
H1476 C1484 0.929 . S
H1477 C1486 0.930 . S
H1478 C1488 0.930 . S
H1479 C1491 0.929 . S
H1480 C1494 0.930 . S
H1481 C1496 0.960 . S
H1482 C1496 0.960 . S
H1483 C1496 0.960 . S
C1484 H1476 0.929 . S
C1484 C1485 1.377 . S
C1484 C1486 1.384 . S
C1485 C1484 1.377 . S
C1485 C1491 1.390 . S
C1486 H1477 0.930 . S
C1486 C1484 1.384 . S
C1486 C1487 1.372 . S
C1487 C1486 1.372 . S
C1487 C1488 1.400 . S
C1487 C1492 1.490 . S
C1488 H1478 0.930 . S
C1488 C1487 1.400 . S
C1488 C1491 1.386 . S
H1489 C1505 0.930 . S
H1490 C1506 0.931 . S
C1491 H1479 0.929 . S
C1491 C1485 1.390 . S
C1491 C1488 1.386 . S
C1492 C1487 1.490 . S
C1492 C1494 1.395 . S
C1492 C1495 1.403 1_545 S
H1493 C1499 0.930 . S
C1494 H1480 0.930 . S
C1494 C1492 1.395 . S
C1494 C1497 1.403 1_655 S
C1495 C1492 1.403 1_565 S
C1495 C1496 1.524 . S
C1495 C1499 1.400 1_655 S
C1496 H1481 0.960 . S
C1496 H1482 0.960 . S
C1496 H1483 0.960 . S
C1496 C1495 1.524 . S
C1497 C1494 1.403 1_455 S
C1497 C1498 1.392 1_545 S
C1497 C1501 1.495 . S
C1498 C1497 1.392 1_565 S
C1498 C1499 1.385 . S
C1498 C1500 1.478 . S
C1499 H1493 0.930 . S
C1499 C1495 1.400 1_455 S
C1499 C1498 1.385 . S
C1500 C1498 1.478 . S
C1500 C1502 1.381 . S
C1500 C1506 1.383 . S
C1501 C1497 1.495 . S
C1501 H1507 0.959 . S
C1501 H1508 0.961 . S
C1501 H1509 0.960 . S
C1502 C1500 1.381 . S
C1502 C1503 1.394 . S
C1502 H1510 0.930 . S
C1503 C1502 1.394 . S
C1503 C1504 1.383 . S
C1503 H1511 0.929 . S
C1504 C1503 1.383 . S
C1504 C1505 1.377 . S
C1505 H1489 0.930 . S
C1505 C1504 1.377 . S
C1505 C1506 1.379 . S
C1506 H1490 0.931 . S
C1506 C1500 1.383 . S
C1506 C1505 1.379 . S
H1507 C1501 0.959 . S
H1508 C1501 0.961 . S
H1509 C1501 0.960 . S
H1510 C1502 0.930 . S
H1511 C1503 0.929 . S
H1512 C1520 0.929 . S
H1513 C1522 0.930 . S
H1514 C1524 0.930 . S
H1515 C1527 0.929 . S
H1516 C1530 0.930 . S
H1517 C1532 0.960 . S
H1518 C1532 0.960 . S
H1519 C1532 0.960 . S
C1520 H1512 0.929 . S
C1520 C1521 1.377 . S
C1520 C1522 1.384 . S
C1521 C1520 1.377 . S
C1521 C1527 1.390 . S
C1522 H1513 0.930 . S
C1522 C1520 1.384 . S
C1522 C1523 1.372 . S
C1523 C1522 1.372 . S
C1523 C1524 1.400 . S
C1523 C1528 1.490 . S
C1524 H1514 0.930 . S
C1524 C1523 1.400 . S
C1524 C1527 1.386 . S
H1525 C1541 0.930 . S
H1526 C1542 0.931 . S
C1527 H1515 0.929 . S
C1527 C1521 1.390 . S
C1527 C1524 1.386 . S
C1528 C1523 1.490 . S
C1528 C1530 1.395 . S
C1528 C1531 1.403 . S
H1529 C1535 0.930 . S
C1530 H1516 0.930 . S
C1530 C1528 1.395 . S
C1530 C1533 1.403 . S
C1531 C1528 1.403 . S
C1531 C1532 1.524 . S
C1531 C1535 1.400 . S
C1532 H1517 0.960 . S
C1532 H1518 0.960 . S
C1532 H1519 0.960 . S
C1532 C1531 1.524 . S
C1533 C1530 1.403 . S
C1533 C1534 1.392 . S
C1533 C1537 1.495 . S
C1534 C1533 1.392 . S
C1534 C1535 1.385 . S
C1534 C1536 1.478 . S
C1535 H1529 0.930 . S
C1535 C1531 1.400 . S
C1535 C1534 1.385 . S
C1536 C1534 1.478 . S
C1536 C1538 1.381 . S
C1536 C1542 1.383 . S
C1537 C1533 1.495 . S
C1537 H1543 0.959 . S
C1537 H1544 0.961 . S
C1537 H1545 0.960 . S
C1538 C1536 1.381 . S
C1538 C1539 1.394 . S
C1538 H1546 0.930 . S
C1539 C1538 1.394 . S
C1539 C1540 1.383 . S
C1539 H1547 0.929 . S
C1540 C1539 1.383 . S
C1540 C1541 1.377 . S
C1541 H1525 0.930 . S
C1541 C1540 1.377 . S
C1541 C1542 1.379 . S
C1542 H1526 0.931 . S
C1542 C1536 1.383 . S
C1542 C1541 1.379 . S
H1543 C1537 0.959 . S
H1544 C1537 0.961 . S
H1545 C1537 0.960 . S
H1546 C1538 0.930 . S
H1547 C1539 0.929 . S
H1548 C1556 0.929 . S
H1549 C1558 0.930 1_545 S
H1550 C1560 0.930 . S
H1551 C1563 0.929 . S
H1552 C1566 0.930 . S
H1553 C1568 0.960 . S
H1554 C1568 0.960 . S
H1555 C1568 0.960 . S
C1556 H1548 0.929 . S
C1556 C1557 1.377 . S
C1556 C1558 1.384 . S
C1557 C1556 1.377 . S
C1557 C1563 1.390 . S
C1558 H1549 0.930 1_565 S
C1558 C1556 1.384 . S
C1558 C1559 1.372 . S
C1559 C1558 1.372 . S
C1559 C1560 1.400 . S
C1559 C1564 1.490 . S
C1560 H1550 0.930 . S
C1560 C1559 1.400 . S
C1560 C1563 1.386 . S
H1561 C1577 0.930 . S
H1562 C1578 0.931 . S
C1563 H1551 0.929 . S
C1563 C1557 1.390 . S
C1563 C1560 1.386 . S
C1564 C1559 1.490 . S
C1564 C1566 1.395 1_565 S
C1564 C1567 1.403 . S
H1565 C1571 0.930 . S
C1566 H1552 0.930 . S
C1566 C1564 1.395 1_545 S
C1566 C1569 1.403 . S
C1567 C1564 1.403 . S
C1567 C1568 1.524 . S
C1567 C1571 1.400 . S
C1568 H1553 0.960 . S
C1568 H1554 0.960 . S
C1568 H1555 0.960 . S
C1568 C1567 1.524 . S
C1569 C1566 1.403 . S
C1569 C1570 1.392 . S
C1569 C1573 1.495 . S
C1570 C1569 1.392 . S
C1570 C1571 1.385 1_545 S
C1570 C1572 1.478 . S
C1571 H1565 0.930 . S
C1571 C1567 1.400 . S
C1571 C1570 1.385 1_565 S
C1572 C1570 1.478 . S
C1572 C1574 1.381 . S
C1572 C1578 1.383 . S
C1573 C1569 1.495 . S
C1573 H1579 0.959 . S
C1573 H1580 0.961 . S
C1573 H1581 0.960 . S
C1574 C1572 1.381 . S
C1574 C1575 1.394 . S
C1574 H1582 0.930 . S
C1575 C1574 1.394 . S
C1575 C1576 1.383 . S
C1575 H1583 0.929 . S
C1576 C1575 1.383 . S
C1576 C1577 1.377 . S
C1577 H1561 0.930 . S
C1577 C1576 1.377 . S
C1577 C1578 1.379 . S
C1578 H1562 0.931 . S
C1578 C1572 1.383 . S
C1578 C1577 1.379 . S
H1579 C1573 0.959 . S
H1580 C1573 0.961 . S
H1581 C1573 0.960 . S
H1582 C1574 0.930 . S
H1583 C1575 0.929 . S
C441 C32 2.118 . S
C460 C76 2.117 . S
C477 C13 2.111 . S
C496 C130 2.097 . S
C513 C167 2.120 . S
C532 C67 2.129 . S
C549 C121 2.118 . S
C568 C184 2.127 . S
C585 C194 2.117 . S
C604 C221 2.132 . S
C621 C292 2.115 . S
C640 C175 2.113 . S
C657 C248 2.118 . S
C676 C5 2.129 1_565 S
C693 C283 2.110 . S
C712 C22 2.103 1_545 S
C729 C275 2.115 . S
C748 C356 2.094 . S
C765 C337 2.110 . S
C784 C238 2.098 . S
C801 C383 2.122 . S
C820 C302 2.110 . S
C837 C400 2.119 . S
C856 C229 2.129 . S
C873 C410 2.110 . S
C892 C113 2.098 . S
C909 C59 2.115 . S
C928 C391 2.100 . S
C945 C329 2.121 1_565 S
C964 C140 2.101 . S
C981 C346 2.115 1_545 S
C1000 C86 2.109 . S
C1017 C27 0.133 . S
C1036 C10 0.158 . S
C1053 C81 0.095 . S
C1072 C64 0.113 . S
C1089 C118 0.098 . S
C1108 C135 0.128 . S
C1125 C172 0.080 . S
C1144 C189 0.139 . S
C1161 C226 0.083 . S
C1180 C243 0.142 . S
C1197 C280 0.099 . S
C1216 C297 0.137 . S
C1233 C351 0.085 . S
C1252 C334 0.152 . S
C1269 C388 0.080 . S
C1288 C405 0.091 . S
C1305 C413 0.722 . S
C1324 C28 0.687 . S
C1341 C35 0.724 . S
C1360 C406 0.747 . S
C1377 C89 0.718 . S
C1396 C143 0.693 . S
C1413 C359 0.714 . S
C1432 C190 0.694 . S
C1449 C197 0.717 . S
C1468 C352 0.743 . S
C1485 C305 0.714 . S
C1504 C244 0.692 . S
C1521 C298 0.723 . S
C1540 C251 0.747 . S
C1557 C136 0.716 . S
C1576 C82 0.731 . S
