# Generated by pormake.
# Topology wio, (6)-cn, num edge types: 1
# Building blocks:
#     Node 0, Type 0, BuildingBlock: CUKXOW_clean_sbu_0, # of connection points: 6
#     Node 1, Type 0, BuildingBlock: CUKXOW_clean_sbu_0, # of connection points: 6
#     Node 2, Type 0, BuildingBlock: CUKXOW_clean_sbu_0, # of connection points: 6
#     Node 3, Type 0, BuildingBlock: CUKXOW_clean_sbu_0, # of connection points: 6
#     Node 4, Type 0, BuildingBlock: CUKXOW_clean_sbu_0, # of connection points: 6
#     Node 5, Type 0, BuildingBlock: CUKXOW_clean_sbu_0, # of connection points: 6
#     Node 6, Type 0, BuildingBlock: CUKXOW_clean_sbu_0, # of connection points: 6
#     Node 7, Type 0, BuildingBlock: CUKXOW_clean_sbu_0, # of connection points: 6
#     Node 8, Type 0, BuildingBlock: CUKXOW_clean_sbu_0, # of connection points: 6
#     Node 9, Type 0, BuildingBlock: CUKXOW_clean_sbu_0, # of connection points: 6
#     Node 10, Type 0, BuildingBlock: CUKXOW_clean_sbu_0, # of connection points: 6
#     Node 11, Type 0, BuildingBlock: CUKXOW_clean_sbu_0, # of connection points: 6
#     Node 12, Type 0, BuildingBlock: CUKXOW_clean_sbu_0, # of connection points: 6
#     Node 13, Type 0, BuildingBlock: CUKXOW_clean_sbu_0, # of connection points: 6
#     Node 14, Type 0, BuildingBlock: CUKXOW_clean_sbu_0, # of connection points: 6
#     Node 15, Type 0, BuildingBlock: CUKXOW_clean_sbu_0, # of connection points: 6
#     Node 16, Type 0, BuildingBlock: CUKXOW_clean_sbu_0, # of connection points: 6
#     Node 17, Type 0, BuildingBlock: CUKXOW_clean_sbu_0, # of connection points: 6
#     Node 18, Type 0, BuildingBlock: CUKXOW_clean_sbu_0, # of connection points: 6
#     Node 19, Type 0, BuildingBlock: CUKXOW_clean_sbu_0, # of connection points: 6
#     Node 20, Type 0, BuildingBlock: CUKXOW_clean_sbu_0, # of connection points: 6
#     Node 21, Type 0, BuildingBlock: CUKXOW_clean_sbu_0, # of connection points: 6
#     Node 22, Type 0, BuildingBlock: CUKXOW_clean_sbu_0, # of connection points: 6
#     Node 23, Type 0, BuildingBlock: CUKXOW_clean_sbu_0, # of connection points: 6
#     Node 24, Type 0, BuildingBlock: CUKXOW_clean_sbu_0, # of connection points: 6
#     Node 25, Type 0, BuildingBlock: CUKXOW_clean_sbu_0, # of connection points: 6
#     Node 26, Type 0, BuildingBlock: CUKXOW_clean_sbu_0, # of connection points: 6
#     Node 27, Type 0, BuildingBlock: CUKXOW_clean_sbu_0, # of connection points: 6
#     Node 28, Type 0, BuildingBlock: CUKXOW_clean_sbu_0, # of connection points: 6
#     Node 29, Type 0, BuildingBlock: CUKXOW_clean_sbu_0, # of connection points: 6
#     Node 30, Type 0, BuildingBlock: CUKXOW_clean_sbu_0, # of connection points: 6
#     Node 31, Type 0, BuildingBlock: CUKXOW_clean_sbu_0, # of connection points: 6
#     Edge 32, Type (0, 0), None
#     Edge 33, Type (0, 0), None
#     Edge 34, Type (0, 0), None
#     Edge 35, Type (0, 0), None
#     Edge 36, Type (0, 0), None
#     Edge 37, Type (0, 0), None
#     Edge 38, Type (0, 0), None
#     Edge 39, Type (0, 0), None
#     Edge 40, Type (0, 0), None
#     Edge 41, Type (0, 0), None
#     Edge 42, Type (0, 0), None
#     Edge 43, Type (0, 0), None
#     Edge 44, Type (0, 0), None
#     Edge 45, Type (0, 0), None
#     Edge 46, Type (0, 0), None
#     Edge 47, Type (0, 0), None
#     Edge 48, Type (0, 0), None
#     Edge 49, Type (0, 0), None
#     Edge 50, Type (0, 0), None
#     Edge 51, Type (0, 0), None
#     Edge 52, Type (0, 0), None
#     Edge 53, Type (0, 0), None
#     Edge 54, Type (0, 0), None
#     Edge 55, Type (0, 0), None
#     Edge 56, Type (0, 0), None
#     Edge 57, Type (0, 0), None
#     Edge 58, Type (0, 0), None
#     Edge 59, Type (0, 0), None
#     Edge 60, Type (0, 0), None
#     Edge 61, Type (0, 0), None
#     Edge 62, Type (0, 0), None
#     Edge 63, Type (0, 0), None
#     Edge 64, Type (0, 0), None
#     Edge 65, Type (0, 0), None
#     Edge 66, Type (0, 0), None
#     Edge 67, Type (0, 0), None
#     Edge 68, Type (0, 0), None
#     Edge 69, Type (0, 0), None
#     Edge 70, Type (0, 0), None
#     Edge 71, Type (0, 0), None
#     Edge 72, Type (0, 0), None
#     Edge 73, Type (0, 0), None
#     Edge 74, Type (0, 0), None
#     Edge 75, Type (0, 0), None
#     Edge 76, Type (0, 0), None
#     Edge 77, Type (0, 0), None
#     Edge 78, Type (0, 0), None
#     Edge 79, Type (0, 0), None
#     Edge 80, Type (0, 0), None
#     Edge 81, Type (0, 0), None
#     Edge 82, Type (0, 0), None
#     Edge 83, Type (0, 0), None
#     Edge 84, Type (0, 0), None
#     Edge 85, Type (0, 0), None
#     Edge 86, Type (0, 0), None
#     Edge 87, Type (0, 0), None
#     Edge 88, Type (0, 0), None
#     Edge 89, Type (0, 0), None
#     Edge 90, Type (0, 0), None
#     Edge 91, Type (0, 0), None
#     Edge 92, Type (0, 0), None
#     Edge 93, Type (0, 0), None
#     Edge 94, Type (0, 0), None
#     Edge 95, Type (0, 0), None
#     Edge 96, Type (0, 0), None
#     Edge 97, Type (0, 0), None
#     Edge 98, Type (0, 0), None
#     Edge 99, Type (0, 0), None
#     Edge 100, Type (0, 0), None
#     Edge 101, Type (0, 0), None
#     Edge 102, Type (0, 0), None
#     Edge 103, Type (0, 0), None
#     Edge 104, Type (0, 0), None
#     Edge 105, Type (0, 0), None
#     Edge 106, Type (0, 0), None
#     Edge 107, Type (0, 0), None
#     Edge 108, Type (0, 0), None
#     Edge 109, Type (0, 0), None
#     Edge 110, Type (0, 0), None
#     Edge 111, Type (0, 0), None
#     Edge 112, Type (0, 0), None
#     Edge 113, Type (0, 0), None
#     Edge 114, Type (0, 0), None
#     Edge 115, Type (0, 0), None
#     Edge 116, Type (0, 0), None
#     Edge 117, Type (0, 0), None
#     Edge 118, Type (0, 0), None
#     Edge 119, Type (0, 0), None
#     Edge 120, Type (0, 0), None
#     Edge 121, Type (0, 0), None
#     Edge 122, Type (0, 0), None
#     Edge 123, Type (0, 0), None
#     Edge 124, Type (0, 0), None
#     Edge 125, Type (0, 0), None
#     Edge 126, Type (0, 0), None
#     Edge 127, Type (0, 0), None
# Relax obj value: 0.125
# Max RMSD: 0.173
# Mean RMSD: 0.173
data_MOF--net-wio--node1-CUKXOW_clean_sbu_0--edge1-none
_symmetry_space_group_name_H-M    P1
_symmetry_Int_Tables_number       1
_symmetry_cell_setting            triclinic
loop_
_symmetry_equiv_pos_as_xyz
'x, y, z'
_cell_length_a     22.772383
_cell_length_b     22.772934
_cell_length_c     22.435162
_cell_angle_alpha  90.000617
_cell_angle_beta   89.999385
_cell_angle_gamma 89.999993
loop_
_atom_site_label
_atom_site_type_symbol
_atom_site_fract_x
_atom_site_fract_y
_atom_site_fract_z
_atom_type_partial_charge
Tb0 Tb 0.09299 0.13298 0.33722 0.0
C1 C 0.11338 0.2043 0.44979 0.0
Tb2 Tb 0.13431 0.06162 0.45437 0.0
O3 O -0.00052 0.13615 0.3596 0.0
O4 O 0.05822 0.09267 0.41295 0.0
O5 O 0.11074 0.20869 0.39087 0.0
C6 C 0.12728 0.00115 0.56019 0.0
O7 O 0.11851 0.15387 0.48066 0.0
C8 C 0.21606 0.07359 0.36757 0.0
C9 C 0.10327 0.00018 0.33676 0.0
O10 O 0.16634 0.04101 0.54605 0.0
O11 O 0.09239 -0.00409 0.5146 0.0
O12 O 0.21752 0.03431 0.40978 0.0
O13 O 0.17334 0.1073 0.38034 0.0
O14 O 0.09852 -0.00329 0.39535 0.0
O15 O 0.11624 0.04804 0.30743 0.0
C16 C 0.05869 0.14727 0.22675 0.0
O17 O 0.03596 0.11101 0.26414 0.0
O18 O 0.1018 0.17695 0.25137 0.0
C19 C 0.00457 0.10273 0.40571 0.0
Tb20 Tb 0.06511 0.84297 0.58723 0.0
C21 C -0.00619 0.86341 0.6998 0.0
Tb22 Tb 0.1365 0.88429 0.70436 0.0
O23 O 0.06192 0.74946 0.60963 0.0
O24 O 0.10542 0.8082 0.66297 0.0
O25 O -0.01059 0.86075 0.64089 0.0
C26 C 0.19696 0.87726 0.81018 0.0
O27 O 0.04425 0.86855 0.73067 0.0
C28 C 0.12461 0.96598 0.61753 0.0
C29 C 0.19793 0.85318 0.58676 0.0
O30 O 0.15712 0.91632 0.79604 0.0
O31 O 0.2022 0.84237 0.76459 0.0
O32 O 0.16386 0.96748 0.65976 0.0
O33 O 0.09084 0.92332 0.63031 0.0
O34 O 0.2014 0.84845 0.64535 0.0
O35 O 0.15007 0.86614 0.55743 0.0
C36 C 0.0508 0.8087 0.47675 0.0
O37 O 0.08702 0.78592 0.51415 0.0
O38 O 0.02116 0.85184 0.50138 0.0
C39 C 0.09536 0.75455 0.65573 0.0
Tb40 Tb 0.35515 0.81511 0.83722 0.0
C41 C 0.33473 0.7438 0.94979 0.0
Tb42 Tb 0.31382 0.88648 0.95436 0.0
O43 O 0.44866 0.81194 0.85961 0.0
O44 O 0.38991 0.85542 0.91296 0.0
O45 O 0.33738 0.73941 0.89087 0.0
C46 C 0.32083 0.94695 1.06018 0.0
O47 O 0.32959 0.79424 0.98066 0.0
C48 C 0.23213 0.87458 0.86752 0.0
C49 C 0.34491 0.94792 0.83676 0.0
O50 O 0.28177 0.90711 1.04603 0.0
O51 O 0.35573 0.95219 1.01459 0.0
O52 O 0.23062 0.91383 0.90976 0.0
O53 O 0.27479 0.84082 0.88031 0.0
O54 O 0.34964 0.95138 0.89535 0.0
O55 O 0.33196 0.90006 0.80742 0.0
C56 C 0.38943 0.80081 0.72674 0.0
O57 O 0.4122 0.83704 0.76414 0.0
O58 O 0.34629 0.77116 0.75136 0.0
C59 C 0.44356 0.84537 0.90571 0.0
Tb60 Tb 0.38301 0.10513 0.08723 0.0
C61 C 0.4543 0.08468 0.1998 0.0
Tb62 Tb 0.31161 0.06382 0.20435 0.0
O63 O 0.38622 0.19863 0.10963 0.0
O64 O 0.34271 0.1399 0.16297 0.0
O65 O 0.4587 0.08733 0.14088 0.0
C66 C 0.25114 0.07084 0.31017 0.0
O67 O 0.40386 0.07956 0.23066 0.0
C68 C 0.32349 -0.01787 0.11751 0.0
C69 C 0.2502 0.09497 0.08676 0.0
O70 O 0.29099 0.03179 0.29604 0.0
O71 O 0.2459 0.10574 0.26459 0.0
O72 O 0.28423 -0.01936 0.15974 0.0
O73 O 0.35727 0.02478 0.13031 0.0
O74 O 0.24673 0.09969 0.14535 0.0
O75 O 0.29805 0.08198 1.05743 0.0
C76 C 0.39733 0.1394 0.97675 0.0
O77 O 0.36111 0.16219 1.01415 0.0
O78 O 0.42696 0.09625 1.00137 0.0
C79 C 0.35278 0.19354 0.15573 0.0
Tb80 Tb 0.09298 0.81514 0.30317 0.0
C81 C 0.11338 0.74381 0.19061 0.0
Tb82 Tb 0.1343 0.88648 0.18601 0.0
O83 O -0.00053 0.81196 0.28079 0.0
O84 O 0.0582 0.85544 0.22743 0.0
O85 O 0.11074 0.73943 0.24953 0.0
C86 C 0.12729 0.94695 0.0802 0.0
O87 O 0.11851 0.79424 0.15973 0.0
C88 C 0.21606 0.87451 0.2728 0.0
C89 C 0.10324 0.94793 0.30361 0.0
O90 O 0.16634 0.9071 0.09434 0.0
O91 O 0.0924 0.9522 0.12578 0.0
O92 O 0.21752 0.91379 0.2306 0.0
O93 O 0.17333 0.84081 0.26005 0.0
O94 O 0.09852 0.95141 0.24502 0.0
O95 O 0.11626 0.90008 0.33293 0.0
C96 C 0.05872 0.80098 0.41363 0.0
O97 O 0.03601 0.83726 0.37625 0.0
O98 O 0.10174 0.77116 0.38902 0.0
C99 C 0.00456 0.84538 0.23468 0.0
Tb100 Tb 0.38298 0.84298 0.55316 0.0
C101 C 0.45429 0.8634 0.44059 0.0
Tb102 Tb 0.31161 0.88428 0.43602 0.0
O103 O 0.3862 0.74948 0.53077 0.0
O104 O 0.34269 0.8082 0.47742 0.0
O105 O 0.45868 0.86077 0.49951 0.0
C106 C 0.25114 0.87726 0.3302 0.0
O107 O 0.40385 0.86852 0.40972 0.0
C108 C 0.32356 0.96603 0.52281 0.0
C109 C 0.25018 0.85316 0.55361 0.0
O110 O 0.291 0.91631 0.34433 0.0
O111 O 0.2459 0.84237 0.37578 0.0
O112 O 0.28427 0.96749 0.48061 0.0
O113 O 0.35728 0.92332 0.51004 0.0
O114 O 0.2467 0.84845 0.49502 0.0
O115 O 0.29803 0.86621 0.58292 0.0
C116 C 0.39716 0.80873 0.66362 0.0
O117 O 0.36089 0.786 0.62624 0.0
O118 O 0.42695 0.85177 0.63901 0.0
C119 C 0.35277 0.75456 0.48466 0.0
Tb120 Tb 0.35514 0.13296 0.80317 0.0
C121 C 0.33474 0.20428 0.69061 0.0
Tb122 Tb 0.31383 0.0616 0.68602 0.0
O123 O 0.44864 0.13616 0.78079 0.0
O124 O 0.38992 0.09267 0.72743 0.0
O125 O 0.33737 0.20867 0.74953 0.0
C126 C 0.32083 0.00112 0.5802 0.0
O127 O 0.32961 0.15385 0.65973 0.0
C128 C 0.23207 0.07357 0.77281 0.0
C129 C 0.34493 0.00017 0.80361 0.0
O130 O 0.28179 0.04099 0.59434 0.0
O131 O 0.35573 -0.00411 0.62578 0.0
O132 O 0.23062 0.03428 0.73061 0.0
O133 O 0.27479 0.10728 0.76005 0.0
O134 O 0.34965 -0.00331 0.74502 0.0
O135 O 0.33189 0.04801 0.83293 0.0
C136 C 0.3894 0.14712 0.91363 0.0
O137 O 0.41211 0.11085 0.87625 0.0
O138 O 0.34637 0.17694 0.88903 0.0
C139 C 0.44356 0.10274 0.73468 0.0
Tb140 Tb 0.06513 0.10514 1.05316 0.0
C141 C -0.00617 0.08468 0.9406 0.0
Tb142 Tb 0.13652 0.06382 0.93603 0.0
O143 O 0.06191 0.19864 1.03076 0.0
O144 O 0.10542 0.13991 0.97741 0.0
O145 O -0.01057 0.08734 0.99951 0.0
C146 C 0.19699 0.07083 0.83021 0.0
O147 O 0.04427 0.07956 0.90973 0.0
C148 C 0.12463 -0.01787 1.02286 0.0
C149 C 0.19794 0.095 1.05361 0.0
O150 O 0.15713 0.03178 0.84435 0.0
O151 O 0.20222 0.10573 0.87578 0.0
O152 O 0.1639 -0.01936 0.98063 0.0
O153 O 0.09086 0.02479 1.01007 0.0
O154 O 0.20142 0.09969 0.99502 0.0
O155 O 0.1501 0.08196 0.08293 0.0
C156 C 0.05094 0.13937 0.16363 0.0
O157 O 0.08717 0.16214 0.12624 0.0
O158 O 0.02117 0.09631 0.13902 0.0
C159 C 0.09534 0.19356 0.98466 0.0
Tb160 Tb 0.81374 0.88643 0.68623 0.0
C161 C 0.84507 0.9479 0.80367 0.0
Tb162 Tb 0.8551 0.81512 0.80317 0.0
O163 O 0.73078 0.91409 0.73093 0.0
O164 O 0.77452 0.84063 0.76027 0.0
O165 O 0.8498 0.95131 0.74508 0.0
C166 C 0.88943 0.80082 0.91365 0.0
O167 O 0.83201 0.90008 0.833 0.0
C168 C 0.94355 0.84524 0.73471 0.0
C169 C 0.83464 0.74378 0.69066 0.0
O170 O 0.9121 0.83712 0.87627 0.0
O171 O 0.84635 0.7711 0.88901 0.0
O172 O 0.9486 0.81184 0.78083 0.0
O173 O 0.88991 0.85534 0.72742 0.0
O174 O 0.83737 0.73938 0.74956 0.0
O175 O 0.82943 0.79421 0.65982 0.0
C176 C 0.82068 0.94689 0.58038 0.0
O177 O 0.78155 0.90714 0.59461 0.0
O178 O 0.85568 0.95202 0.62589 0.0
C179 C 0.73207 0.8747 0.77302 0.0
Tb180 Tb 0.81167 0.06373 0.43623 0.0
C181 C 0.75021 0.09513 0.55367 0.0
Tb182 Tb 0.88301 0.10513 0.55315 0.0
O183 O 0.78397 -0.01921 0.48094 0.0
O184 O 0.85745 0.02453 0.51029 0.0
O185 O 0.74679 0.09982 0.49508 0.0
C186 C 0.89733 0.13943 0.66364 0.0
O187 O 0.79803 0.08209 0.583 0.0
C188 C 0.85286 0.19355 0.48468 0.0
C189 C 0.95434 0.08451 0.44065 0.0
O190 O 0.86106 0.16215 0.62625 0.0
O191 O 0.927 0.09633 0.639 0.0
O192 O 0.88629 0.19861 0.53078 0.0
O193 O 0.84279 0.1399 0.47739 0.0
O194 O 0.95874 0.08735 0.49955 0.0
O195 O 0.9039 0.07934 0.40981 0.0
C196 C 0.75123 0.07068 0.33038 0.0
O197 O 0.79095 0.03153 0.34462 0.0
O198 O 0.7461 0.10568 0.37588 0.0
C199 C 0.82333 -0.01787 0.52307 0.0
Tb200 Tb 0.63438 0.06167 0.18624 0.0
C201 C 0.60299 0.0002 0.30367 0.0
Tb202 Tb 0.593 0.13299 0.30317 0.0
O203 O 0.71732 0.03397 0.23094 0.0
O204 O 0.67359 0.10746 0.26029 0.0
O205 O 0.59829 -0.00321 0.24508 0.0
C206 C 0.55869 0.14731 0.41365 0.0
O207 O 0.61604 0.04802 0.33301 0.0
C208 C 0.50456 0.10286 0.2347 0.0
C209 C 0.61349 0.20433 0.19066 0.0
O210 O 0.53598 0.11103 0.37627 0.0
O211 O 0.60179 0.17699 0.38902 0.0
O212 O 0.4995 0.13628 0.28082 0.0
O213 O 0.5582 0.09277 0.22742 0.0
O214 O 0.61075 0.20872 0.24957 0.0
O215 O 0.61871 0.15389 0.15982 0.0
C216 C 0.62745 0.00121 0.08039 0.0
O217 O 0.66658 0.04095 0.09463 0.0
O218 O 0.59244 -0.00392 0.12589 0.0
C219 C 0.71599 0.07333 0.27307 0.0
Tb220 Tb 0.63646 0.88437 0.93624 0.0
C221 C 0.69791 0.85292 1.05367 0.0
Tb222 Tb 0.56511 0.84298 1.05315 0.0
O223 O 0.66418 0.96729 0.98096 0.0
O224 O 0.59068 0.92357 1.0103 0.0
O225 O 0.70132 0.84824 0.99508 0.0
C226 C 0.55079 0.80867 0.16364 0.0
O227 O 0.65009 0.86599 0.083 0.0
C228 C 0.59524 0.75456 0.98467 0.0
C229 C 0.49379 0.86359 0.94065 0.0
O230 O 0.58706 0.78595 0.12625 0.0
O231 O 0.52112 0.85178 0.139 0.0
O232 O 0.56181 0.74949 1.03077 0.0
O233 O 0.60533 0.8082 0.97739 0.0
O234 O 0.48938 0.86077 0.99956 0.0
O235 O 0.54423 0.86876 0.90982 0.0
C236 C 0.69692 0.87743 0.83038 0.0
O237 O 0.65717 0.91656 0.84462 0.0
O238 O 0.70204 0.84241 0.87588 0.0
C239 C 0.62482 0.96596 1.02309 0.0
Tb240 Tb 0.81374 0.06166 0.95418 0.0
C241 C 0.8451 0.00019 0.83676 0.0
Tb242 Tb 0.85511 0.13296 0.83724 0.0
O243 O 0.73078 0.034 0.90949 0.0
O244 O 0.77453 0.10746 0.88015 0.0
O245 O 0.84979 -0.00324 0.89534 0.0
C246 C 0.8894 0.14714 0.72677 0.0
O247 O 0.83198 0.048 0.80744 0.0
C248 C 0.94356 0.10285 0.9057 0.0
C249 C 0.83464 0.20432 0.94974 0.0
O250 O 0.91206 0.11082 0.76413 0.0
O251 O 0.84641 0.17699 0.75139 0.0
O252 O 0.94861 0.13625 0.85958 0.0
O253 O 0.88992 0.09275 0.91299 0.0
O254 O 0.83737 0.2087 0.89083 0.0
O255 O 0.82943 0.15388 0.98059 0.0
C256 C 0.82067 0.00121 1.06004 0.0
O257 O 0.78154 0.04096 1.0458 0.0
O258 O 0.85567 -0.00393 1.01453 0.0
C259 C 0.73207 0.0734 0.8674 0.0
Tb260 Tb 0.63647 0.06374 0.70419 0.0
C261 C 0.69792 0.09515 0.58676 0.0
Tb262 Tb 0.56515 0.10511 0.58725 0.0
O263 O 0.66414 -0.01921 0.65948 0.0
O264 O 0.59067 0.02453 0.63014 0.0
O265 O 0.70135 0.09983 0.64535 0.0
C266 C 0.55096 0.1394 0.47678 0.0
O267 O 0.65012 0.08201 0.55744 0.0
C268 C 0.59525 0.19355 0.65573 0.0
C269 C 0.4938 0.08452 0.69975 0.0
O270 O 0.58727 0.16207 0.51416 0.0
O271 O 0.52112 0.0964 0.50141 0.0
O272 O 0.56183 0.1986 0.60962 0.0
O273 O 0.60534 0.13991 0.66302 0.0
O274 O 0.4894 0.08733 0.64084 0.0
O275 O 0.54423 0.07937 0.73059 0.0
C276 C 0.69692 0.07067 0.81004 0.0
O277 O 0.65717 0.03155 0.79581 0.0
O278 O 0.70204 0.10568 0.76454 0.0
C279 C 0.62475 -0.01792 0.61738 0.0
Tb280 Tb 0.63437 0.88645 0.45418 0.0
C281 C 0.60297 0.94791 0.33676 0.0
Tb282 Tb 0.59301 0.81514 0.33723 0.0
O283 O 0.71732 0.91412 0.40948 0.0
O284 O 0.67359 0.84065 0.38014 0.0
O285 O 0.59828 0.95133 0.39534 0.0
C286 C 0.55872 0.80096 0.22677 0.0
O287 O 0.61612 0.90011 0.30744 0.0
C288 C 0.50456 0.84523 0.4057 0.0
C289 C 0.61348 0.74379 0.44974 0.0
O290 O 0.53606 0.83728 0.26414 0.0
O291 O 0.60171 0.77112 0.25139 0.0
O292 O 0.49952 0.81183 0.35958 0.0
O293 O 0.5582 0.85534 0.41299 0.0
O294 O 0.61076 0.7394 0.39083 0.0
O295 O 0.61869 0.79423 0.48058 0.0
C296 C 0.62745 0.94691 0.56003 0.0
O297 O 0.66657 0.90715 0.5458 0.0
O298 O 0.59244 0.95204 0.51453 0.0
C299 C 0.71604 0.87472 0.36739 0.0
Tb300 Tb 0.81165 0.88436 0.20417 0.0
C301 C 0.7502 0.85289 0.08676 0.0
Tb302 Tb 0.88298 0.84297 0.08725 0.0
O303 O 0.78394 0.96729 0.15946 0.0
O304 O 0.85743 0.92356 0.13012 0.0
O305 O 0.74677 0.84824 0.14534 0.0
C306 C 0.89718 0.8087 0.97678 0.0
O307 O 0.798 0.86601 1.05743 0.0
C308 C 0.85287 0.75454 0.15573 0.0
C309 C 0.95433 0.86359 0.19974 0.0
O310 O 0.8609 0.786 1.01416 0.0
O311 O 0.92699 0.85172 1.00141 0.0
O312 O 0.8863 0.74948 0.10963 0.0
O313 O 0.84278 0.80818 0.16302 0.0
O314 O 0.95872 0.86076 0.14084 0.0
O315 O 0.90388 0.86875 0.23059 0.0
C316 C 0.7512 0.87744 0.31003 0.0
O317 O 0.79094 0.91657 0.29579 0.0
O318 O 0.74608 0.84242 0.26454 0.0
C319 C 0.8233 0.96596 0.11733 0.0
Tb320 Tb 0.59299 0.63299 0.83722 0.0
C321 C 0.61348 0.7043 0.94978 0.0
Tb322 Tb 0.63432 0.56163 0.95437 0.0
O323 O 0.49948 0.63615 0.85962 0.0
O324 O 0.55822 0.59268 0.91297 0.0
O325 O 0.61076 0.70869 0.89087 0.0
C326 C 0.62729 0.50115 1.06018 0.0
O327 O 0.61856 0.65387 0.98066 0.0
C328 C 0.71606 0.57359 0.86756 0.0
C329 C 0.60328 0.50019 0.83676 0.0
O330 O 0.66636 0.541 1.04604 0.0
O331 O 0.5924 0.49592 1.0146 0.0
O332 O 0.71753 0.5343 0.90977 0.0
O333 O 0.67334 0.6073 0.88033 0.0
O334 O 0.59853 0.49671 0.89535 0.0
O335 O 0.61623 0.54805 0.80744 0.0
C336 C 0.55868 0.64726 0.72676 0.0
O337 O 0.53596 0.611 0.76415 0.0
O338 O 0.60179 0.67695 0.75137 0.0
C339 C 0.50458 0.60273 0.90573 0.0
Tb340 Tb 0.5651 0.34298 0.08721 0.0
C341 C 0.49381 0.36342 0.19979 0.0
Tb342 Tb 0.63649 0.38428 0.20435 0.0
O343 O 0.56188 0.24948 0.10961 0.0
O344 O 0.6054 0.3082 0.16296 0.0
O345 O 0.48941 0.36077 0.14087 0.0
C346 C 0.69695 0.37726 0.31017 0.0
O347 O 0.54424 0.36854 0.23066 0.0
C348 C 0.62462 0.46598 0.11752 0.0
C349 C 0.69792 0.35316 0.08675 0.0
O350 O 0.65711 0.41632 0.29603 0.0
O351 O 0.70219 0.34237 0.26459 0.0
O352 O 0.66388 0.46747 0.15975 0.0
O353 O 0.59084 0.42333 0.13031 0.0
O354 O 0.70139 0.34843 0.14535 0.0
O355 O 0.65007 0.36613 1.05742 0.0
C356 C 0.55079 0.30872 0.97674 0.0
O357 O 0.587 0.28593 1.01414 0.0
O358 O 0.52116 0.35186 1.00136 0.0
C359 C 0.5953 0.25456 0.15572 0.0
Tb360 Tb 0.85515 0.31511 0.33722 0.0
C361 C 0.83463 0.2438 0.44978 0.0
Tb362 Tb 0.81381 0.38648 0.45435 0.0
O363 O 0.94865 0.31193 0.35963 0.0
O364 O 0.88991 0.35542 0.41297 0.0
O365 O 0.83737 0.2394 0.39087 0.0
C366 C 0.82082 0.44695 0.56017 0.0
O367 O 0.82954 0.29423 0.48066 0.0
C368 C 0.73212 0.37459 0.36751 0.0
C369 C 0.84491 0.44792 0.33676 0.0
O370 O 0.78175 0.40711 0.54602 0.0
O371 O 0.85572 0.45218 0.5146 0.0
O372 O 0.73061 0.41384 0.40975 0.0
O373 O 0.77479 0.34082 0.3803 0.0
O374 O 0.84963 0.45138 0.39535 0.0
O375 O 0.83196 0.40006 0.30742 0.0
C376 C 0.88944 0.30082 0.22675 0.0
O377 O 0.9122 0.33704 0.26415 0.0
O378 O 0.84631 0.27116 0.25137 0.0
C379 C 0.94356 0.34536 0.40573 0.0
Tb380 Tb 0.88302 0.60512 0.58721 0.0
C381 C 0.95431 0.58468 0.69979 0.0
Tb382 Tb 0.81162 0.56382 0.70434 0.0
O383 O 0.88626 0.69861 0.60961 0.0
O384 O 0.84273 0.6399 0.66296 0.0
O385 O 0.95871 0.58731 0.64087 0.0
C386 C 0.75114 0.57084 0.81017 0.0
O387 O 0.90387 0.57956 0.73065 0.0
C388 C 0.82348 0.48213 0.61751 0.0
C389 C 0.7502 0.59499 0.58675 0.0
O390 O 0.791 0.53179 0.79603 0.0
O391 O 0.74591 0.60574 0.76459 0.0
O392 O 0.78421 0.48065 0.65973 0.0
O393 O 0.85727 0.52477 0.6303 0.0
O394 O 0.74674 0.59972 0.64535 0.0
O395 O 0.79805 0.58199 0.55742 0.0
C396 C 0.89733 0.63938 0.47674 0.0
O397 O 0.86112 0.66218 0.51414 0.0
O398 O 0.92696 0.59623 0.50136 0.0
C399 C 0.85284 0.69354 0.65572 0.0
Tb400 Tb 0.59298 0.31514 0.80316 0.0
C401 C 0.61347 0.24381 0.69061 0.0
Tb402 Tb 0.63432 0.38648 0.68602 0.0
O403 O 0.49948 0.31196 0.78077 0.0
O404 O 0.55821 0.35543 0.72741 0.0
O405 O 0.61075 0.23942 0.74953 0.0
C406 C 0.62731 0.44695 0.5802 0.0
O407 O 0.61856 0.29424 0.65973 0.0
C408 C 0.71606 0.37451 0.77281 0.0
C409 C 0.60324 0.44793 0.80361 0.0
O410 O 0.66636 0.40711 0.59434 0.0
O411 O 0.5924 0.45219 0.62578 0.0
O412 O 0.71753 0.4138 0.7306 0.0
O413 O 0.67333 0.34081 0.76005 0.0
O414 O 0.59853 0.45141 0.74502 0.0
O415 O 0.61625 0.40008 0.83293 0.0
C416 C 0.55871 0.30099 0.91362 0.0
O417 O 0.536 0.33726 0.87624 0.0
O418 O 0.60173 0.27116 0.88901 0.0
C419 C 0.50456 0.34538 0.73466 0.0
Tb420 Tb 0.88299 0.343 1.05318 0.0
C421 C 0.9543 0.36341 0.94061 0.0
Tb422 Tb 0.81161 0.38428 0.93603 0.0
O423 O 0.88624 0.2495 1.03079 0.0
O424 O 0.84271 0.3082 0.97743 0.0
O425 O 0.95869 0.36079 0.99953 0.0
C426 C 0.75114 0.37726 0.8302 0.0
O427 O 0.90386 0.36852 0.90973 0.0
C428 C 0.82355 0.46603 1.02282 0.0
C429 C 0.75019 0.35314 1.05361 0.0
O430 O 0.79101 0.41631 0.84434 0.0
O431 O 0.7459 0.34236 0.87579 0.0
O432 O 0.78425 0.46748 0.98062 0.0
O433 O 0.85728 0.42333 1.01005 0.0
O434 O 0.74671 0.34843 0.99502 0.0
O435 O 0.79802 0.36621 0.08293 0.0
C436 C 0.89716 0.30874 0.16363 0.0
O437 O 0.8609 0.28601 0.12625 0.0
O438 O 0.92695 0.35179 0.13903 0.0
C439 C 0.85282 0.25456 0.98467 0.0
Tb440 Tb 0.85514 0.63296 0.30317 0.0
C441 C 0.83464 0.70428 0.19062 0.0
Tb442 Tb 0.81381 0.5616 0.18602 0.0
O443 O 0.94864 0.63616 0.28077 0.0
O444 O 0.88991 0.59268 0.22741 0.0
O445 O 0.83735 0.70867 0.24953 0.0
C446 C 0.82081 0.50112 0.0802 0.0
O447 O 0.82957 0.65385 0.15973 0.0
C448 C 0.73207 0.57356 0.27282 0.0
C449 C 0.84493 0.50017 0.30361 0.0
O450 O 0.78177 0.54099 0.09434 0.0
O451 O 0.85572 0.4959 0.12578 0.0
O452 O 0.73061 0.53427 0.23062 0.0
O453 O 0.77479 0.60727 0.26006 0.0
O454 O 0.84964 0.49669 0.24502 0.0
O455 O 0.83189 0.54802 0.33293 0.0
C456 C 0.88941 0.64712 0.41362 0.0
O457 O 0.91212 0.61085 0.37623 0.0
O458 O 0.84638 0.67693 0.38902 0.0
C459 C 0.94356 0.60274 0.23466 0.0
Tb460 Tb 0.56513 0.60512 0.55318 0.0
C461 C 0.49382 0.58468 0.44061 0.0
Tb462 Tb 0.63651 0.56383 0.43604 0.0
O463 O 0.56187 0.69862 0.53078 0.0
O464 O 0.6054 0.63991 0.47742 0.0
O465 O 0.48943 0.58732 0.49953 0.0
C466 C 0.69698 0.57083 0.33022 0.0
O467 O 0.54426 0.57956 0.40974 0.0
C468 C 0.62464 0.48213 0.52287 0.0
C469 C 0.69793 0.59502 0.55362 0.0
O470 O 0.65712 0.53178 0.34436 0.0
O471 O 0.70222 0.60574 0.37579 0.0
O472 O 0.66391 0.48065 0.48064 0.0
O473 O 0.59086 0.52478 0.51008 0.0
O474 O 0.70141 0.59972 0.49502 0.0
O475 O 0.6501 0.58197 0.58294 0.0
C476 C 0.55093 0.63935 0.66364 0.0
O477 O 0.58716 0.66213 0.62625 0.0
O478 O 0.52117 0.59629 0.63903 0.0
C479 C 0.59529 0.69355 0.48467 0.0
Tb480 Tb 0.31372 0.38643 0.18623 0.0
C481 C 0.34507 0.4479 0.30367 0.0
Tb482 Tb 0.35511 0.31512 0.30316 0.0
O483 O 0.23077 0.4141 0.23094 0.0
O484 O 0.27452 0.34063 0.26027 0.0
O485 O 0.34979 0.45131 0.24508 0.0
C486 C 0.38944 0.30082 0.41364 0.0
O487 O 0.33201 0.40008 0.33299 0.0
C488 C 0.44354 0.34524 0.23469 0.0
C489 C 0.33454 0.24377 0.19066 0.0
O490 O 0.41211 0.33713 0.37626 0.0
O491 O 0.34637 0.2711 0.38901 0.0
O492 O 0.4486 0.31183 0.28081 0.0
O493 O 0.3899 0.35533 0.22741 0.0
O494 O 0.33735 0.23938 0.24957 0.0
O495 O 0.32938 0.29421 0.15982 0.0
C496 C 0.32067 0.44688 0.08038 0.0
O497 O 0.28153 0.40715 0.09461 0.0
O498 O 0.35567 0.45201 0.12589 0.0
C499 C 0.23206 0.3747 0.27303 0.0
Tb500 Tb 0.31168 0.56373 0.93624 0.0
C501 C 0.25021 0.59515 1.05367 0.0
Tb502 Tb 0.38301 0.60511 1.05316 0.0
O503 O 0.28396 0.4808 0.98095 0.0
O504 O 0.35745 0.52452 1.0103 0.0
O505 O 0.2468 0.59984 0.99508 0.0
C506 C 0.39733 0.63941 0.16365 0.0
O507 O 0.29803 0.58209 0.08301 0.0
C508 C 0.35292 0.69354 0.98468 0.0
C509 C 0.45435 0.5845 0.94067 0.0
O510 O 0.36107 0.66214 0.12626 0.0
O511 O 0.427 0.59631 0.13901 0.0
O512 O 0.38633 0.6986 1.0308 0.0
O513 O 0.34281 0.6399 0.9774 0.0
O514 O 0.45875 0.58733 0.99957 0.0
O515 O 0.40391 0.57934 0.90982 0.0
C516 C 0.25123 0.57067 0.83039 0.0
O517 O 0.29096 0.53153 0.84463 0.0
O518 O 0.24611 0.60569 0.87589 0.0
C519 C 0.32332 0.48213 1.02308 0.0
Tb520 Tb 0.13439 0.56167 0.68624 0.0
C521 C 0.10299 0.5002 0.80367 0.0
Tb522 Tb 0.093 0.63299 0.80316 0.0
O523 O 0.21733 0.53397 0.73095 0.0
O524 O 0.17359 0.60745 0.7603 0.0
O525 O 0.09829 0.49679 0.74508 0.0
C526 C 0.05868 0.6473 0.91364 0.0
O527 O 0.11604 0.54802 0.83301 0.0
C528 C 0.00457 0.60287 0.73469 0.0
C529 C 0.11359 0.70433 0.69066 0.0
O530 O 0.03597 0.61103 0.87626 0.0
O531 O 0.10178 0.67699 0.88901 0.0
O532 O -0.00049 0.63628 0.7808 0.0
O533 O 0.05821 0.59278 0.7274 0.0
O534 O 0.11076 0.70873 0.74957 0.0
O535 O 0.11876 0.65389 0.65982 0.0
C536 C 0.12746 0.50121 0.58039 0.0
O537 O 0.1666 0.54094 0.59463 0.0
O538 O 0.09245 0.49609 0.62589 0.0
C539 C 0.21599 0.57332 0.77308 0.0
Tb540 Tb 0.13646 0.38436 0.43625 0.0
C541 C 0.19791 0.3529 0.55367 0.0
Tb542 Tb 0.06511 0.34299 0.55317 0.0
O543 O 0.16419 0.46728 0.48097 0.0
O544 O 0.09068 0.42358 0.5103 0.0
O545 O 0.20131 0.34821 0.49508 0.0
C546 C 0.05079 0.30869 0.66365 0.0
O547 O 0.1501 0.36599 0.58301 0.0
C548 C 0.09519 0.25456 0.48468 0.0
C549 C -0.00622 0.3636 0.44067 0.0
O550 O 0.08704 0.28596 0.62626 0.0
O551 O 0.02112 0.3518 0.63902 0.0
O552 O 0.06177 0.24951 0.5308 0.0
O553 O 0.10531 0.3082 0.4774 0.0
O554 O -0.01062 0.36078 0.49957 0.0
O555 O 0.04422 0.36875 0.40983 0.0
C556 C 0.19691 0.37743 0.33039 0.0
O557 O 0.15717 0.41656 0.34463 0.0
O558 O 0.20203 0.34241 0.37589 0.0
C559 C 0.12483 0.46596 0.52309 0.0
Tb560 Tb 0.31373 0.56166 0.45418 0.0
C561 C 0.3451 0.50019 0.33676 0.0
Tb562 Tb 0.35511 0.63296 0.33724 0.0
O563 O 0.23077 0.534 0.40948 0.0
O564 O 0.27452 0.60746 0.38014 0.0
O565 O 0.34979 0.49676 0.39534 0.0
C566 C 0.38941 0.64713 0.22678 0.0
O567 O 0.33199 0.548 0.30744 0.0
C568 C 0.44355 0.60285 0.40571 0.0
C569 C 0.33454 0.70432 0.44974 0.0
O570 O 0.41206 0.61081 0.26415 0.0
O571 O 0.34642 0.67699 0.2514 0.0
O572 O 0.4486 0.63626 0.35959 0.0
O573 O 0.38991 0.59276 0.41301 0.0
O574 O 0.33736 0.70871 0.39083 0.0
O575 O 0.32938 0.65389 0.48059 0.0
C576 C 0.32066 0.50121 0.56003 0.0
O577 O 0.28152 0.54095 0.54579 0.0
O578 O 0.35567 0.49608 0.51453 0.0
C579 C 0.23206 0.57339 0.36739 0.0
Tb580 Tb 0.13646 0.56374 0.20418 0.0
C581 C 0.19792 0.59517 0.08676 0.0
Tb582 Tb 0.06514 0.60509 0.08724 0.0
O583 O 0.16416 0.4808 0.15947 0.0
O584 O 0.09067 0.52452 0.13014 0.0
O585 O 0.20134 0.59985 0.14534 0.0
C586 C 0.05096 0.63938 0.97677 0.0
O587 O 0.15012 0.58202 1.05744 0.0
C588 C 0.0952 0.69354 0.15572 0.0
C589 C -0.00621 0.58451 0.19973 0.0
O590 O 0.08726 0.66205 1.01415 0.0
O591 O 0.02112 0.59638 1.00139 0.0
O592 O 0.06179 0.69858 0.1096 0.0
O593 O 0.10532 0.63991 0.16301 0.0
O594 O -0.0106 0.58731 0.14083 0.0
O595 O 0.04423 0.57937 0.23058 0.0
C596 C 0.19691 0.57067 0.31003 0.0
O597 O 0.15716 0.53155 0.2958 0.0
O598 O 0.20204 0.60569 0.26453 0.0
C599 C 0.12476 0.48208 0.11738 0.0
Tb600 Tb 0.13438 0.38645 0.95418 0.0
C601 C 0.10297 0.44791 0.83676 0.0
Tb602 Tb 0.09301 0.31514 0.83724 0.0
O603 O 0.21733 0.41413 0.90947 0.0
O604 O 0.1736 0.34066 0.88014 0.0
O605 O 0.09829 0.45133 0.89534 0.0
C606 C 0.05871 0.30097 0.72678 0.0
O607 O 0.11611 0.40011 0.80744 0.0
C608 C 0.00457 0.34523 0.90572 0.0
C609 C 0.11358 0.24379 0.94973 0.0
O610 O 0.03606 0.33728 0.76415 0.0
O611 O 0.1017 0.27112 0.7514 0.0
O612 O -0.00048 0.31182 0.8596 0.0
O613 O 0.05821 0.35533 0.91301 0.0
O614 O 0.11078 0.2394 0.89083 0.0
O615 O 0.11874 0.29422 0.98058 0.0
C616 C 0.12747 0.44691 1.06003 0.0
O617 O 0.16659 0.40716 1.04579 0.0
O618 O 0.09245 0.45203 1.01453 0.0
C619 C 0.21605 0.37473 0.86738 0.0
Tb620 Tb 0.31165 0.38435 0.70416 0.0
C621 C 0.2502 0.35287 0.58675 0.0
Tb622 Tb 0.38299 0.34299 0.58724 0.0
O623 O 0.28392 0.46728 0.65945 0.0
O624 O 0.35743 0.42357 0.63011 0.0
O625 O 0.24678 0.34821 0.64534 0.0
C626 C 0.39719 0.30872 0.47677 0.0
O627 O 0.298 0.36601 0.55743 0.0
C628 C 0.35293 0.25455 0.65572 0.0
C629 C 0.45433 0.3636 0.69973 0.0
O630 O 0.36091 0.28601 0.51415 0.0
O631 O 0.42699 0.35174 0.50139 0.0
O632 O 0.38634 0.2495 0.60961 0.0
O633 O 0.34281 0.30818 0.66301 0.0
O634 O 0.45873 0.36078 0.64083 0.0
O635 O 0.40389 0.36875 0.73058 0.0
C636 C 0.2512 0.37744 0.81002 0.0
O637 O 0.29095 0.41656 0.79578 0.0
O638 O 0.24609 0.34241 0.76453 0.0
C639 C 0.32329 0.46596 0.61733 0.0
loop_
_geom_bond_atom_site_label_1
_geom_bond_atom_site_label_2
_geom_bond_distance
_geom_bond_site_symmetry_2
_ccdc_geom_bond_type
Tb0 O3 2.453 1_455 S
Tb0 O4 2.596 . S
Tb0 O5 2.374 . S
Tb0 O13 2.343 . S
Tb0 O15 2.353 . S
Tb0 O17 2.427 . S
Tb0 O18 2.513 . S
C1 O5 1.251 . S
C1 O7 1.263 . S
Tb2 O4 2.343 . S
Tb2 O7 2.353 . S
Tb2 O10 2.427 . S
Tb2 O11 2.511 . S
Tb2 O12 2.453 . S
Tb2 O13 2.596 . S
Tb2 O14 2.374 1_545 S
O3 Tb0 2.453 1_655 S
O3 C19 1.245 1_655 S
O4 Tb0 2.596 . S
O4 Tb2 2.343 . S
O4 C19 1.259 . S
O5 Tb0 2.374 . S
O5 C1 1.251 . S
C6 O10 1.275 . S
C6 O11 1.245 . S
O7 C1 1.263 . S
O7 Tb2 2.353 . S
C8 O12 1.245 . S
C8 O13 1.259 . S
C9 O14 1.250 . S
C9 O15 1.263 1_565 S
O10 Tb2 2.427 . S
O10 C6 1.275 . S
O11 Tb2 2.511 . S
O11 C6 1.245 . S
O12 Tb2 2.453 . S
O12 C8 1.245 . S
O13 Tb0 2.343 . S
O13 Tb2 2.596 . S
O13 C8 1.259 . S
O14 Tb2 2.374 1_565 S
O14 C9 1.250 . S
O15 Tb0 2.353 . S
O15 C9 1.263 1_545 S
C16 O17 1.275 . S
C16 O18 1.246 . S
O17 Tb0 2.427 . S
O17 C16 1.275 . S
O18 Tb0 2.513 . S
O18 C16 1.246 . S
C19 O3 1.245 1_455 S
C19 O4 1.259 . S
Tb20 O23 2.453 . S
Tb20 O24 2.596 . S
Tb20 O25 2.374 . S
Tb20 O33 2.343 . S
Tb20 O35 2.353 . S
Tb20 O37 2.427 . S
Tb20 O38 2.513 . S
C21 O25 1.251 . S
C21 O27 1.263 . S
Tb22 O24 2.343 . S
Tb22 O27 2.353 . S
Tb22 O30 2.427 . S
Tb22 O31 2.513 . S
Tb22 O32 2.453 1_565 S
Tb22 O33 2.596 . S
Tb22 O34 2.374 . S
O23 Tb20 2.453 . S
O23 C39 1.245 . S
O24 Tb20 2.596 . S
O24 Tb22 2.343 . S
O24 C39 1.259 . S
O25 Tb20 2.374 . S
O25 C21 1.251 . S
C26 O30 1.275 . S
C26 O31 1.246 . S
O27 C21 1.263 . S
O27 Tb22 2.353 . S
C28 O32 1.245 1_565 S
C28 O33 1.259 . S
C29 O34 1.250 . S
C29 O35 1.263 . S
O30 Tb22 2.427 . S
O30 C26 1.275 . S
O31 Tb22 2.513 . S
O31 C26 1.246 . S
O32 Tb22 2.453 1_545 S
O32 C28 1.245 1_545 S
O33 Tb20 2.343 . S
O33 Tb22 2.596 . S
O33 C28 1.259 . S
O34 Tb22 2.374 . S
O34 C29 1.250 . S
O35 Tb20 2.353 . S
O35 C29 1.263 . S
C36 O37 1.275 . S
C36 O38 1.246 . S
O37 Tb20 2.427 . S
O37 C36 1.275 . S
O38 Tb20 2.513 . S
O38 C36 1.246 . S
C39 O23 1.245 . S
C39 O24 1.259 . S
Tb40 O43 2.453 . S
Tb40 O44 2.596 . S
Tb40 O45 2.374 . S
Tb40 O53 2.343 . S
Tb40 O55 2.353 . S
Tb40 O57 2.427 . S
Tb40 O58 2.513 . S
C41 O45 1.251 . S
C41 O47 1.263 . S
Tb42 O44 2.343 . S
Tb42 O47 2.353 . S
Tb42 O50 2.427 . S
Tb42 O51 2.511 . S
Tb42 O52 2.453 . S
Tb42 O53 2.596 . S
Tb42 O54 2.374 1_565 S
O43 Tb40 2.453 . S
O43 C59 1.245 . S
O44 Tb40 2.596 . S
O44 Tb42 2.343 . S
O44 C59 1.259 . S
O45 Tb40 2.374 . S
O45 C41 1.251 . S
C46 O50 1.275 . S
C46 O51 1.245 . S
O47 C41 1.263 . S
O47 Tb42 2.353 . S
C48 O52 1.245 . S
C48 O53 1.259 . S
C49 O54 1.250 . S
C49 O55 1.263 1_545 S
O50 Tb42 2.427 . S
O50 C46 1.275 . S
O51 Tb42 2.511 . S
O51 C46 1.245 . S
O52 Tb42 2.453 . S
O52 C48 1.245 . S
O53 Tb40 2.343 . S
O53 Tb42 2.596 . S
O53 C48 1.259 . S
O54 Tb42 2.374 1_545 S
O54 C49 1.250 . S
O55 Tb40 2.353 . S
O55 C49 1.263 1_565 S
C56 O57 1.275 . S
C56 O58 1.246 . S
O57 Tb40 2.427 . S
O57 C56 1.275 . S
O58 Tb40 2.513 . S
O58 C56 1.246 . S
C59 O43 1.245 . S
C59 O44 1.259 . S
Tb60 O63 2.453 . S
Tb60 O64 2.596 . S
Tb60 O65 2.374 . S
Tb60 O73 2.343 . S
Tb60 O75 2.352 1_554 S
Tb60 O77 2.427 1_554 S
Tb60 O78 2.513 1_554 S
C61 O65 1.251 . S
C61 O67 1.263 . S
Tb62 O64 2.343 . S
Tb62 O67 2.353 . S
Tb62 O70 2.427 . S
Tb62 O71 2.513 . S
Tb62 O72 2.453 1_545 S
Tb62 O73 2.596 . S
Tb62 O74 2.374 . S
O63 Tb60 2.453 . S
O63 C79 1.245 . S
O64 Tb60 2.596 . S
O64 Tb62 2.343 . S
O64 C79 1.259 . S
O65 Tb60 2.374 . S
O65 C61 1.251 . S
C66 O70 1.275 . S
C66 O71 1.246 . S
O67 C61 1.263 . S
O67 Tb62 2.353 . S
C68 O72 1.245 1_545 S
C68 O73 1.259 . S
C69 O74 1.250 . S
C69 O75 1.257 1_554 S
O70 Tb62 2.427 . S
O70 C66 1.275 . S
O71 Tb62 2.513 . S
O71 C66 1.246 . S
O72 Tb62 2.453 1_565 S
O72 C68 1.245 1_565 S
O73 Tb60 2.343 . S
O73 Tb62 2.596 . S
O73 C68 1.259 . S
O74 Tb62 2.374 . S
O74 C69 1.250 . S
O75 Tb60 2.352 1_556 S
O75 C69 1.257 1_556 S
C76 O77 1.275 . S
C76 O78 1.246 . S
O77 Tb60 2.427 1_556 S
O77 C76 1.275 . S
O78 Tb60 2.513 1_556 S
O78 C76 1.246 . S
C79 O63 1.245 . S
C79 O64 1.259 . S
Tb80 O83 2.453 1_455 S
Tb80 O84 2.596 . S
Tb80 O85 2.374 . S
Tb80 O93 2.343 . S
Tb80 O95 2.353 . S
Tb80 O97 2.427 . S
Tb80 O98 2.513 . S
C81 O85 1.251 . S
C81 O87 1.263 . S
Tb82 O84 2.343 . S
Tb82 O87 2.353 . S
Tb82 O90 2.427 . S
Tb82 O91 2.511 . S
Tb82 O92 2.453 . S
Tb82 O93 2.596 . S
Tb82 O94 2.374 1_565 S
O83 Tb80 2.453 1_655 S
O83 C99 1.245 1_655 S
O84 Tb80 2.596 . S
O84 Tb82 2.343 . S
O84 C99 1.259 . S
O85 Tb80 2.374 . S
O85 C81 1.251 . S
C86 O90 1.275 . S
C86 O91 1.245 . S
O87 C81 1.263 . S
O87 Tb82 2.353 . S
C88 O92 1.245 . S
C88 O93 1.259 . S
C89 O94 1.250 . S
C89 O95 1.263 1_545 S
O90 Tb82 2.427 . S
O90 C86 1.275 . S
O91 Tb82 2.511 . S
O91 C86 1.245 . S
O92 Tb82 2.453 . S
O92 C88 1.245 . S
O93 Tb80 2.343 . S
O93 Tb82 2.596 . S
O93 C88 1.259 . S
O94 Tb82 2.374 1_545 S
O94 C89 1.250 . S
O95 Tb80 2.353 . S
O95 C89 1.263 1_565 S
C96 O97 1.275 . S
C96 O98 1.246 . S
O97 Tb80 2.427 . S
O97 C96 1.275 . S
O98 Tb80 2.513 . S
O98 C96 1.246 . S
C99 O83 1.245 1_455 S
C99 O84 1.259 . S
Tb100 O103 2.453 . S
Tb100 O104 2.596 . S
Tb100 O105 2.374 . S
Tb100 O113 2.343 . S
Tb100 O115 2.353 . S
Tb100 O117 2.427 . S
Tb100 O118 2.513 . S
C101 O105 1.251 . S
C101 O107 1.263 . S
Tb102 O104 2.343 . S
Tb102 O107 2.353 . S
Tb102 O110 2.427 . S
Tb102 O111 2.513 . S
Tb102 O112 2.453 1_565 S
Tb102 O113 2.596 . S
Tb102 O114 2.374 . S
O103 Tb100 2.453 . S
O103 C119 1.245 . S
O104 Tb100 2.596 . S
O104 Tb102 2.343 . S
O104 C119 1.259 . S
O105 Tb100 2.374 . S
O105 C101 1.251 . S
C106 O110 1.275 . S
C106 O111 1.246 . S
O107 C101 1.263 . S
O107 Tb102 2.353 . S
C108 O112 1.245 1_565 S
C108 O113 1.259 . S
C109 O114 1.250 . S
C109 O115 1.263 . S
O110 Tb102 2.427 . S
O110 C106 1.275 . S
O111 Tb102 2.513 . S
O111 C106 1.246 . S
O112 Tb102 2.453 1_545 S
O112 C108 1.245 1_545 S
O113 Tb100 2.343 . S
O113 Tb102 2.596 . S
O113 C108 1.259 . S
O114 Tb102 2.374 . S
O114 C109 1.250 . S
O115 Tb100 2.353 . S
O115 C109 1.263 . S
C116 O117 1.275 . S
C116 O118 1.246 . S
O117 Tb100 2.427 . S
O117 C116 1.275 . S
O118 Tb100 2.513 . S
O118 C116 1.246 . S
C119 O103 1.245 . S
C119 O104 1.259 . S
Tb120 O123 2.453 . S
Tb120 O124 2.596 . S
Tb120 O125 2.374 . S
Tb120 O133 2.343 . S
Tb120 O135 2.353 . S
Tb120 O137 2.427 . S
Tb120 O138 2.513 . S
C121 O125 1.251 . S
C121 O127 1.263 . S
Tb122 O124 2.343 . S
Tb122 O127 2.353 . S
Tb122 O130 2.427 . S
Tb122 O131 2.511 . S
Tb122 O132 2.453 . S
Tb122 O133 2.596 . S
Tb122 O134 2.374 1_545 S
O123 Tb120 2.453 . S
O123 C139 1.245 . S
O124 Tb120 2.596 . S
O124 Tb122 2.343 . S
O124 C139 1.259 . S
O125 Tb120 2.374 . S
O125 C121 1.251 . S
C126 O130 1.275 . S
C126 O131 1.245 . S
O127 C121 1.263 . S
O127 Tb122 2.353 . S
C128 O132 1.245 . S
C128 O133 1.259 . S
C129 O134 1.250 . S
C129 O135 1.263 1_565 S
O130 Tb122 2.427 . S
O130 C126 1.275 . S
O131 Tb122 2.511 . S
O131 C126 1.245 . S
O132 Tb122 2.453 . S
O132 C128 1.245 . S
O133 Tb120 2.343 . S
O133 Tb122 2.596 . S
O133 C128 1.259 . S
O134 Tb122 2.374 1_565 S
O134 C129 1.250 . S
O135 Tb120 2.353 . S
O135 C129 1.263 1_545 S
C136 O137 1.275 . S
C136 O138 1.246 . S
O137 Tb120 2.427 . S
O137 C136 1.275 . S
O138 Tb120 2.513 . S
O138 C136 1.246 . S
C139 O123 1.245 . S
C139 O124 1.259 . S
Tb140 O143 2.453 . S
Tb140 O144 2.596 . S
Tb140 O145 2.374 . S
Tb140 O153 2.343 . S
Tb140 O155 2.352 1_556 S
Tb140 O157 2.427 1_556 S
Tb140 O158 2.513 1_556 S
C141 O145 1.251 . S
C141 O147 1.263 . S
Tb142 O144 2.343 . S
Tb142 O147 2.353 . S
Tb142 O150 2.427 . S
Tb142 O151 2.513 . S
Tb142 O152 2.453 1_545 S
Tb142 O153 2.596 . S
Tb142 O154 2.374 . S
O143 Tb140 2.453 . S
O143 C159 1.245 . S
O144 Tb140 2.596 . S
O144 Tb142 2.343 . S
O144 C159 1.259 . S
O145 Tb140 2.374 . S
O145 C141 1.251 . S
C146 O150 1.275 . S
C146 O151 1.246 . S
O147 C141 1.263 . S
O147 Tb142 2.353 . S
C148 O152 1.245 1_545 S
C148 O153 1.259 . S
C149 O154 1.250 . S
C149 O155 1.257 1_556 S
O150 Tb142 2.427 . S
O150 C146 1.275 . S
O151 Tb142 2.513 . S
O151 C146 1.246 . S
O152 Tb142 2.453 1_565 S
O152 C148 1.245 1_565 S
O153 Tb140 2.343 . S
O153 Tb142 2.596 . S
O153 C148 1.259 . S
O154 Tb142 2.374 . S
O154 C149 1.250 . S
O155 Tb140 2.352 1_554 S
O155 C149 1.257 1_554 S
C156 O157 1.275 . S
C156 O158 1.246 . S
O157 Tb140 2.427 1_554 S
O157 C156 1.275 . S
O158 Tb140 2.513 1_554 S
O158 C156 1.246 . S
C159 O143 1.245 . S
C159 O144 1.259 . S
Tb160 O163 2.453 . S
Tb160 O164 2.596 . S
Tb160 O165 2.374 1_565 S
Tb160 O173 2.343 . S
Tb160 O175 2.353 . S
Tb160 O177 2.427 . S
Tb160 O178 2.511 . S
C161 O165 1.251 . S
C161 O167 1.263 1_545 S
Tb162 O164 2.343 . S
Tb162 O167 2.353 . S
Tb162 O170 2.427 . S
Tb162 O171 2.513 . S
Tb162 O172 2.453 1_655 S
Tb162 O173 2.596 . S
Tb162 O174 2.374 . S
O163 Tb160 2.453 . S
O163 C179 1.245 . S
O164 Tb160 2.596 . S
O164 Tb162 2.343 . S
O164 C179 1.259 . S
O165 Tb160 2.374 1_545 S
O165 C161 1.251 . S
C166 O170 1.275 . S
C166 O171 1.246 . S
O167 C161 1.263 1_565 S
O167 Tb162 2.353 . S
C168 O172 1.245 1_655 S
C168 O173 1.259 . S
C169 O174 1.250 . S
C169 O175 1.263 . S
O170 Tb162 2.427 . S
O170 C166 1.275 . S
O171 Tb162 2.513 . S
O171 C166 1.246 . S
O172 Tb162 2.453 1_455 S
O172 C168 1.245 1_455 S
O173 Tb160 2.343 . S
O173 Tb162 2.596 . S
O173 C168 1.259 . S
O174 Tb162 2.374 . S
O174 C169 1.250 . S
O175 Tb160 2.353 . S
O175 C169 1.263 . S
C176 O177 1.275 . S
C176 O178 1.245 . S
O177 Tb160 2.427 . S
O177 C176 1.275 . S
O178 Tb160 2.511 . S
O178 C176 1.245 . S
C179 O163 1.245 . S
C179 O164 1.259 . S
Tb180 O183 2.453 1_545 S
Tb180 O184 2.596 . S
Tb180 O185 2.374 . S
Tb180 O193 2.343 . S
Tb180 O195 2.353 . S
Tb180 O197 2.427 . S
Tb180 O198 2.513 . S
C181 O185 1.251 . S
C181 O187 1.263 . S
Tb182 O184 2.343 . S
Tb182 O187 2.353 . S
Tb182 O190 2.427 . S
Tb182 O191 2.513 . S
Tb182 O192 2.453 . S
Tb182 O193 2.596 . S
Tb182 O194 2.374 . S
O183 Tb180 2.453 1_565 S
O183 C199 1.245 1_565 S
O184 Tb180 2.596 . S
O184 Tb182 2.343 . S
O184 C199 1.259 . S
O185 Tb180 2.374 . S
O185 C181 1.251 . S
C186 O190 1.275 . S
C186 O191 1.246 . S
O187 C181 1.263 . S
O187 Tb182 2.353 . S
C188 O192 1.245 . S
C188 O193 1.259 . S
C189 O194 1.250 . S
C189 O195 1.263 . S
O190 Tb182 2.427 . S
O190 C186 1.275 . S
O191 Tb182 2.513 . S
O191 C186 1.246 . S
O192 Tb182 2.453 . S
O192 C188 1.245 . S
O193 Tb180 2.343 . S
O193 Tb182 2.596 . S
O193 C188 1.259 . S
O194 Tb182 2.374 . S
O194 C189 1.250 . S
O195 Tb180 2.353 . S
O195 C189 1.263 . S
C196 O197 1.275 . S
C196 O198 1.246 . S
O197 Tb180 2.427 . S
O197 C196 1.275 . S
O198 Tb180 2.513 . S
O198 C196 1.246 . S
C199 O183 1.245 1_545 S
C199 O184 1.259 . S
Tb200 O203 2.453 . S
Tb200 O204 2.596 . S
Tb200 O205 2.374 1_545 S
Tb200 O213 2.343 . S
Tb200 O215 2.353 . S
Tb200 O217 2.427 . S
Tb200 O218 2.511 . S
C201 O205 1.251 . S
C201 O207 1.263 1_565 S
Tb202 O204 2.343 . S
Tb202 O207 2.353 . S
Tb202 O210 2.427 . S
Tb202 O211 2.513 . S
Tb202 O212 2.453 . S
Tb202 O213 2.596 . S
Tb202 O214 2.374 . S
O203 Tb200 2.453 . S
O203 C219 1.245 . S
O204 Tb200 2.596 . S
O204 Tb202 2.343 . S
O204 C219 1.259 . S
O205 Tb200 2.374 1_565 S
O205 C201 1.251 . S
C206 O210 1.275 . S
C206 O211 1.246 . S
O207 C201 1.263 1_545 S
O207 Tb202 2.353 . S
C208 O212 1.245 . S
C208 O213 1.259 . S
C209 O214 1.250 . S
C209 O215 1.263 . S
O210 Tb202 2.427 . S
O210 C206 1.275 . S
O211 Tb202 2.513 . S
O211 C206 1.246 . S
O212 Tb202 2.453 . S
O212 C208 1.245 . S
O213 Tb200 2.343 . S
O213 Tb202 2.596 . S
O213 C208 1.259 . S
O214 Tb202 2.374 . S
O214 C209 1.250 . S
O215 Tb200 2.353 . S
O215 C209 1.263 . S
C216 O217 1.275 . S
C216 O218 1.245 . S
O217 Tb200 2.427 . S
O217 C216 1.275 . S
O218 Tb200 2.511 . S
O218 C216 1.245 . S
C219 O203 1.245 . S
C219 O204 1.259 . S
Tb220 O223 2.453 1_565 S
Tb220 O224 2.596 . S
Tb220 O225 2.374 . S
Tb220 O233 2.343 . S
Tb220 O235 2.353 . S
Tb220 O237 2.427 . S
Tb220 O238 2.513 . S
C221 O225 1.251 . S
C221 O227 1.257 1_556 S
Tb222 O224 2.343 . S
Tb222 O227 2.352 1_556 S
Tb222 O230 2.427 1_556 S
Tb222 O231 2.513 1_556 S
Tb222 O232 2.453 . S
Tb222 O233 2.596 . S
Tb222 O234 2.374 . S
O223 Tb220 2.453 1_545 S
O223 C239 1.245 1_545 S
O224 Tb220 2.596 . S
O224 Tb222 2.343 . S
O224 C239 1.259 . S
O225 Tb220 2.374 . S
O225 C221 1.251 . S
C226 O230 1.275 . S
C226 O231 1.246 . S
O227 C221 1.257 1_554 S
O227 Tb222 2.352 1_554 S
C228 O232 1.245 . S
C228 O233 1.259 . S
C229 O234 1.250 . S
C229 O235 1.263 . S
O230 Tb222 2.427 1_554 S
O230 C226 1.275 . S
O231 Tb222 2.513 1_554 S
O231 C226 1.246 . S
O232 Tb222 2.453 . S
O232 C228 1.245 . S
O233 Tb220 2.343 . S
O233 Tb222 2.596 . S
O233 C228 1.259 . S
O234 Tb222 2.374 . S
O234 C229 1.250 . S
O235 Tb220 2.353 . S
O235 C229 1.263 . S
C236 O237 1.275 . S
C236 O238 1.246 . S
O237 Tb220 2.427 . S
O237 C236 1.275 . S
O238 Tb220 2.513 . S
O238 C236 1.246 . S
C239 O223 1.245 1_565 S
C239 O224 1.259 . S
Tb240 O243 2.453 . S
Tb240 O244 2.596 . S
Tb240 O245 2.374 1_545 S
Tb240 O253 2.343 . S
Tb240 O255 2.353 . S
Tb240 O257 2.427 . S
Tb240 O258 2.511 . S
C241 O245 1.251 . S
C241 O247 1.263 1_565 S
Tb242 O244 2.343 . S
Tb242 O247 2.353 . S
Tb242 O250 2.427 . S
Tb242 O251 2.513 . S
Tb242 O252 2.453 1_655 S
Tb242 O253 2.596 . S
Tb242 O254 2.374 . S
O243 Tb240 2.453 . S
O243 C259 1.245 . S
O244 Tb240 2.596 . S
O244 Tb242 2.343 . S
O244 C259 1.259 . S
O245 Tb240 2.374 1_565 S
O245 C241 1.251 . S
C246 O250 1.275 . S
C246 O251 1.246 . S
O247 C241 1.263 1_545 S
O247 Tb242 2.353 . S
C248 O252 1.245 1_655 S
C248 O253 1.259 . S
C249 O254 1.250 . S
C249 O255 1.263 . S
O250 Tb242 2.427 . S
O250 C246 1.275 . S
O251 Tb242 2.513 . S
O251 C246 1.246 . S
O252 Tb242 2.453 1_455 S
O252 C248 1.245 1_455 S
O253 Tb240 2.343 . S
O253 Tb242 2.596 . S
O253 C248 1.259 . S
O254 Tb242 2.374 . S
O254 C249 1.250 . S
O255 Tb240 2.353 . S
O255 C249 1.263 . S
C256 O257 1.275 . S
C256 O258 1.245 . S
O257 Tb240 2.427 . S
O257 C256 1.275 . S
O258 Tb240 2.511 . S
O258 C256 1.245 . S
C259 O243 1.245 . S
C259 O244 1.259 . S
Tb260 O263 2.453 1_545 S
Tb260 O264 2.596 . S
Tb260 O265 2.374 . S
Tb260 O273 2.343 . S
Tb260 O275 2.353 . S
Tb260 O277 2.427 . S
Tb260 O278 2.513 . S
C261 O265 1.251 . S
C261 O267 1.263 . S
Tb262 O264 2.343 . S
Tb262 O267 2.353 . S
Tb262 O270 2.427 . S
Tb262 O271 2.513 . S
Tb262 O272 2.453 . S
Tb262 O273 2.596 . S
Tb262 O274 2.374 . S
O263 Tb260 2.453 1_565 S
O263 C279 1.245 1_565 S
O264 Tb260 2.596 . S
O264 Tb262 2.343 . S
O264 C279 1.259 . S
O265 Tb260 2.374 . S
O265 C261 1.251 . S
C266 O270 1.275 . S
C266 O271 1.246 . S
O267 C261 1.263 . S
O267 Tb262 2.353 . S
C268 O272 1.245 . S
C268 O273 1.259 . S
C269 O274 1.250 . S
C269 O275 1.263 . S
O270 Tb262 2.427 . S
O270 C266 1.275 . S
O271 Tb262 2.513 . S
O271 C266 1.246 . S
O272 Tb262 2.453 . S
O272 C268 1.245 . S
O273 Tb260 2.343 . S
O273 Tb262 2.596 . S
O273 C268 1.259 . S
O274 Tb262 2.374 . S
O274 C269 1.250 . S
O275 Tb260 2.353 . S
O275 C269 1.263 . S
C276 O277 1.275 . S
C276 O278 1.246 . S
O277 Tb260 2.427 . S
O277 C276 1.275 . S
O278 Tb260 2.513 . S
O278 C276 1.246 . S
C279 O263 1.245 1_545 S
C279 O264 1.259 . S
Tb280 O283 2.453 . S
Tb280 O284 2.596 . S
Tb280 O285 2.374 1_565 S
Tb280 O293 2.343 . S
Tb280 O295 2.353 . S
Tb280 O297 2.427 . S
Tb280 O298 2.511 . S
C281 O285 1.251 . S
C281 O287 1.263 1_545 S
Tb282 O284 2.343 . S
Tb282 O287 2.353 . S
Tb282 O290 2.427 . S
Tb282 O291 2.513 . S
Tb282 O292 2.453 . S
Tb282 O293 2.596 . S
Tb282 O294 2.374 . S
O283 Tb280 2.453 . S
O283 C299 1.245 . S
O284 Tb280 2.596 . S
O284 Tb282 2.343 . S
O284 C299 1.259 . S
O285 Tb280 2.374 1_545 S
O285 C281 1.251 . S
C286 O290 1.275 . S
C286 O291 1.246 . S
O287 C281 1.263 1_565 S
O287 Tb282 2.353 . S
C288 O292 1.245 . S
C288 O293 1.259 . S
C289 O294 1.250 . S
C289 O295 1.263 . S
O290 Tb282 2.427 . S
O290 C286 1.275 . S
O291 Tb282 2.513 . S
O291 C286 1.246 . S
O292 Tb282 2.453 . S
O292 C288 1.245 . S
O293 Tb280 2.343 . S
O293 Tb282 2.596 . S
O293 C288 1.259 . S
O294 Tb282 2.374 . S
O294 C289 1.250 . S
O295 Tb280 2.353 . S
O295 C289 1.263 . S
C296 O297 1.275 . S
C296 O298 1.245 . S
O297 Tb280 2.427 . S
O297 C296 1.275 . S
O298 Tb280 2.511 . S
O298 C296 1.245 . S
C299 O283 1.245 . S
C299 O284 1.259 . S
Tb300 O303 2.453 1_565 S
Tb300 O304 2.596 . S
Tb300 O305 2.374 . S
Tb300 O313 2.343 . S
Tb300 O315 2.353 . S
Tb300 O317 2.427 . S
Tb300 O318 2.513 . S
C301 O305 1.251 . S
C301 O307 1.257 1_554 S
Tb302 O304 2.343 . S
Tb302 O307 2.352 1_554 S
Tb302 O310 2.427 1_554 S
Tb302 O311 2.513 1_554 S
Tb302 O312 2.453 . S
Tb302 O313 2.596 . S
Tb302 O314 2.374 . S
O303 Tb300 2.453 1_545 S
O303 C319 1.245 1_545 S
O304 Tb300 2.596 . S
O304 Tb302 2.343 . S
O304 C319 1.259 . S
O305 Tb300 2.374 . S
O305 C301 1.251 . S
C306 O310 1.275 . S
C306 O311 1.246 . S
O307 C301 1.257 1_556 S
O307 Tb302 2.352 1_556 S
C308 O312 1.245 . S
C308 O313 1.259 . S
C309 O314 1.250 . S
C309 O315 1.263 . S
O310 Tb302 2.427 1_556 S
O310 C306 1.275 . S
O311 Tb302 2.513 1_556 S
O311 C306 1.246 . S
O312 Tb302 2.453 . S
O312 C308 1.245 . S
O313 Tb300 2.343 . S
O313 Tb302 2.596 . S
O313 C308 1.259 . S
O314 Tb302 2.374 . S
O314 C309 1.250 . S
O315 Tb300 2.353 . S
O315 C309 1.263 . S
C316 O317 1.275 . S
C316 O318 1.246 . S
O317 Tb300 2.427 . S
O317 C316 1.275 . S
O318 Tb300 2.513 . S
O318 C316 1.246 . S
C319 O303 1.245 1_565 S
C319 O304 1.259 . S
Tb320 O323 2.453 . S
Tb320 O324 2.596 . S
Tb320 O325 2.374 . S
Tb320 O333 2.343 . S
Tb320 O335 2.353 . S
Tb320 O337 2.427 . S
Tb320 O338 2.513 . S
C321 O325 1.251 . S
C321 O327 1.263 . S
Tb322 O324 2.343 . S
Tb322 O327 2.353 . S
Tb322 O330 2.427 . S
Tb322 O331 2.513 . S
Tb322 O332 2.453 . S
Tb322 O333 2.596 . S
Tb322 O334 2.374 . S
O323 Tb320 2.453 . S
O323 C339 1.245 . S
O324 Tb320 2.596 . S
O324 Tb322 2.343 . S
O324 C339 1.259 . S
O325 Tb320 2.374 . S
O325 C321 1.251 . S
C326 O330 1.275 . S
C326 O331 1.246 . S
O327 C321 1.263 . S
O327 Tb322 2.353 . S
C328 O332 1.245 . S
C328 O333 1.259 . S
C329 O334 1.250 . S
C329 O335 1.263 . S
O330 Tb322 2.427 . S
O330 C326 1.275 . S
O331 Tb322 2.513 . S
O331 C326 1.246 . S
O332 Tb322 2.453 . S
O332 C328 1.245 . S
O333 Tb320 2.343 . S
O333 Tb322 2.596 . S
O333 C328 1.259 . S
O334 Tb322 2.374 . S
O334 C329 1.250 . S
O335 Tb320 2.353 . S
O335 C329 1.263 . S
C336 O337 1.275 . S
C336 O338 1.246 . S
O337 Tb320 2.427 . S
O337 C336 1.275 . S
O338 Tb320 2.513 . S
O338 C336 1.246 . S
C339 O323 1.245 . S
C339 O324 1.259 . S
Tb340 O343 2.453 . S
Tb340 O344 2.596 . S
Tb340 O345 2.374 . S
Tb340 O353 2.343 . S
Tb340 O355 2.352 1_554 S
Tb340 O357 2.427 1_554 S
Tb340 O358 2.513 1_554 S
C341 O345 1.251 . S
C341 O347 1.263 . S
Tb342 O344 2.343 . S
Tb342 O347 2.353 . S
Tb342 O350 2.427 . S
Tb342 O351 2.513 . S
Tb342 O352 2.453 . S
Tb342 O353 2.596 . S
Tb342 O354 2.374 . S
O343 Tb340 2.453 . S
O343 C359 1.245 . S
O344 Tb340 2.596 . S
O344 Tb342 2.343 . S
O344 C359 1.259 . S
O345 Tb340 2.374 . S
O345 C341 1.251 . S
C346 O350 1.275 . S
C346 O351 1.246 . S
O347 C341 1.263 . S
O347 Tb342 2.353 . S
C348 O352 1.245 . S
C348 O353 1.259 . S
C349 O354 1.250 . S
C349 O355 1.257 1_554 S
O350 Tb342 2.427 . S
O350 C346 1.275 . S
O351 Tb342 2.513 . S
O351 C346 1.246 . S
O352 Tb342 2.453 . S
O352 C348 1.245 . S
O353 Tb340 2.343 . S
O353 Tb342 2.596 . S
O353 C348 1.259 . S
O354 Tb342 2.374 . S
O354 C349 1.250 . S
O355 Tb340 2.352 1_556 S
O355 C349 1.257 1_556 S
C356 O357 1.275 . S
C356 O358 1.246 . S
O357 Tb340 2.427 1_556 S
O357 C356 1.275 . S
O358 Tb340 2.513 1_556 S
O358 C356 1.246 . S
C359 O343 1.245 . S
C359 O344 1.259 . S
Tb360 O363 2.453 1_655 S
Tb360 O364 2.596 . S
Tb360 O365 2.374 . S
Tb360 O373 2.343 . S
Tb360 O375 2.353 . S
Tb360 O377 2.427 . S
Tb360 O378 2.513 . S
C361 O365 1.251 . S
C361 O367 1.263 . S
Tb362 O364 2.343 . S
Tb362 O367 2.353 . S
Tb362 O370 2.427 . S
Tb362 O371 2.513 . S
Tb362 O372 2.453 . S
Tb362 O373 2.596 . S
Tb362 O374 2.374 . S
O363 Tb360 2.453 1_455 S
O363 C379 1.245 1_455 S
O364 Tb360 2.596 . S
O364 Tb362 2.343 . S
O364 C379 1.259 . S
O365 Tb360 2.374 . S
O365 C361 1.251 . S
C366 O370 1.275 . S
C366 O371 1.246 . S
O367 C361 1.263 . S
O367 Tb362 2.353 . S
C368 O372 1.245 . S
C368 O373 1.259 . S
C369 O374 1.250 . S
C369 O375 1.263 . S
O370 Tb362 2.427 . S
O370 C366 1.275 . S
O371 Tb362 2.513 . S
O371 C366 1.246 . S
O372 Tb362 2.453 . S
O372 C368 1.245 . S
O373 Tb360 2.343 . S
O373 Tb362 2.596 . S
O373 C368 1.259 . S
O374 Tb362 2.374 . S
O374 C369 1.250 . S
O375 Tb360 2.353 . S
O375 C369 1.263 . S
C376 O377 1.275 . S
C376 O378 1.246 . S
O377 Tb360 2.427 . S
O377 C376 1.275 . S
O378 Tb360 2.513 . S
O378 C376 1.246 . S
C379 O363 1.245 1_655 S
C379 O364 1.259 . S
Tb380 O383 2.453 . S
Tb380 O384 2.596 . S
Tb380 O385 2.374 . S
Tb380 O393 2.343 . S
Tb380 O395 2.353 . S
Tb380 O397 2.427 . S
Tb380 O398 2.513 . S
C381 O385 1.251 . S
C381 O387 1.263 . S
Tb382 O384 2.343 . S
Tb382 O387 2.353 . S
Tb382 O390 2.427 . S
Tb382 O391 2.513 . S
Tb382 O392 2.453 . S
Tb382 O393 2.596 . S
Tb382 O394 2.374 . S
O383 Tb380 2.453 . S
O383 C399 1.245 . S
O384 Tb380 2.596 . S
O384 Tb382 2.343 . S
O384 C399 1.259 . S
O385 Tb380 2.374 . S
O385 C381 1.251 . S
C386 O390 1.275 . S
C386 O391 1.246 . S
O387 C381 1.263 . S
O387 Tb382 2.353 . S
C388 O392 1.245 . S
C388 O393 1.259 . S
C389 O394 1.250 . S
C389 O395 1.263 . S
O390 Tb382 2.427 . S
O390 C386 1.275 . S
O391 Tb382 2.513 . S
O391 C386 1.246 . S
O392 Tb382 2.453 . S
O392 C388 1.245 . S
O393 Tb380 2.343 . S
O393 Tb382 2.596 . S
O393 C388 1.259 . S
O394 Tb382 2.374 . S
O394 C389 1.250 . S
O395 Tb380 2.353 . S
O395 C389 1.263 . S
C396 O397 1.275 . S
C396 O398 1.246 . S
O397 Tb380 2.427 . S
O397 C396 1.275 . S
O398 Tb380 2.513 . S
O398 C396 1.246 . S
C399 O383 1.245 . S
C399 O384 1.259 . S
Tb400 O403 2.453 . S
Tb400 O404 2.596 . S
Tb400 O405 2.374 . S
Tb400 O413 2.343 . S
Tb400 O415 2.353 . S
Tb400 O417 2.427 . S
Tb400 O418 2.513 . S
C401 O405 1.251 . S
C401 O407 1.263 . S
Tb402 O404 2.343 . S
Tb402 O407 2.353 . S
Tb402 O410 2.427 . S
Tb402 O411 2.513 . S
Tb402 O412 2.453 . S
Tb402 O413 2.596 . S
Tb402 O414 2.374 . S
O403 Tb400 2.453 . S
O403 C419 1.245 . S
O404 Tb400 2.596 . S
O404 Tb402 2.343 . S
O404 C419 1.259 . S
O405 Tb400 2.374 . S
O405 C401 1.251 . S
C406 O410 1.275 . S
C406 O411 1.246 . S
O407 C401 1.263 . S
O407 Tb402 2.353 . S
C408 O412 1.245 . S
C408 O413 1.259 . S
C409 O414 1.250 . S
C409 O415 1.263 . S
O410 Tb402 2.427 . S
O410 C406 1.275 . S
O411 Tb402 2.513 . S
O411 C406 1.246 . S
O412 Tb402 2.453 . S
O412 C408 1.245 . S
O413 Tb400 2.343 . S
O413 Tb402 2.596 . S
O413 C408 1.259 . S
O414 Tb402 2.374 . S
O414 C409 1.250 . S
O415 Tb400 2.353 . S
O415 C409 1.263 . S
C416 O417 1.275 . S
C416 O418 1.246 . S
O417 Tb400 2.427 . S
O417 C416 1.275 . S
O418 Tb400 2.513 . S
O418 C416 1.246 . S
C419 O403 1.245 . S
C419 O404 1.259 . S
Tb420 O423 2.453 . S
Tb420 O424 2.596 . S
Tb420 O425 2.374 . S
Tb420 O433 2.343 . S
Tb420 O435 2.352 1_556 S
Tb420 O437 2.427 1_556 S
Tb420 O438 2.513 1_556 S
C421 O425 1.251 . S
C421 O427 1.263 . S
Tb422 O424 2.343 . S
Tb422 O427 2.353 . S
Tb422 O430 2.427 . S
Tb422 O431 2.513 . S
Tb422 O432 2.453 . S
Tb422 O433 2.596 . S
Tb422 O434 2.374 . S
O423 Tb420 2.453 . S
O423 C439 1.245 . S
O424 Tb420 2.596 . S
O424 Tb422 2.343 . S
O424 C439 1.259 . S
O425 Tb420 2.374 . S
O425 C421 1.251 . S
C426 O430 1.275 . S
C426 O431 1.246 . S
O427 C421 1.263 . S
O427 Tb422 2.353 . S
C428 O432 1.245 . S
C428 O433 1.259 . S
C429 O434 1.250 . S
C429 O435 1.257 1_556 S
O430 Tb422 2.427 . S
O430 C426 1.275 . S
O431 Tb422 2.513 . S
O431 C426 1.246 . S
O432 Tb422 2.453 . S
O432 C428 1.245 . S
O433 Tb420 2.343 . S
O433 Tb422 2.596 . S
O433 C428 1.259 . S
O434 Tb422 2.374 . S
O434 C429 1.250 . S
O435 Tb420 2.352 1_554 S
O435 C429 1.257 1_554 S
C436 O437 1.275 . S
C436 O438 1.246 . S
O437 Tb420 2.427 1_554 S
O437 C436 1.275 . S
O438 Tb420 2.513 1_554 S
O438 C436 1.246 . S
C439 O423 1.245 . S
C439 O424 1.259 . S
Tb440 O443 2.453 1_655 S
Tb440 O444 2.596 . S
Tb440 O445 2.374 . S
Tb440 O453 2.343 . S
Tb440 O455 2.353 . S
Tb440 O457 2.427 . S
Tb440 O458 2.513 . S
C441 O445 1.251 . S
C441 O447 1.263 . S
Tb442 O444 2.343 . S
Tb442 O447 2.353 . S
Tb442 O450 2.427 . S
Tb442 O451 2.513 . S
Tb442 O452 2.453 . S
Tb442 O453 2.596 . S
Tb442 O454 2.374 . S
O443 Tb440 2.453 1_455 S
O443 C459 1.245 1_455 S
O444 Tb440 2.596 . S
O444 Tb442 2.343 . S
O444 C459 1.259 . S
O445 Tb440 2.374 . S
O445 C441 1.251 . S
C446 O450 1.275 . S
C446 O451 1.246 . S
O447 C441 1.263 . S
O447 Tb442 2.353 . S
C448 O452 1.245 . S
C448 O453 1.259 . S
C449 O454 1.250 . S
C449 O455 1.263 . S
O450 Tb442 2.427 . S
O450 C446 1.275 . S
O451 Tb442 2.513 . S
O451 C446 1.246 . S
O452 Tb442 2.453 . S
O452 C448 1.245 . S
O453 Tb440 2.343 . S
O453 Tb442 2.596 . S
O453 C448 1.259 . S
O454 Tb442 2.374 . S
O454 C449 1.250 . S
O455 Tb440 2.353 . S
O455 C449 1.263 . S
C456 O457 1.275 . S
C456 O458 1.246 . S
O457 Tb440 2.427 . S
O457 C456 1.275 . S
O458 Tb440 2.513 . S
O458 C456 1.246 . S
C459 O443 1.245 1_655 S
C459 O444 1.259 . S
Tb460 O463 2.453 . S
Tb460 O464 2.596 . S
Tb460 O465 2.374 . S
Tb460 O473 2.343 . S
Tb460 O475 2.353 . S
Tb460 O477 2.427 . S
Tb460 O478 2.513 . S
C461 O465 1.251 . S
C461 O467 1.263 . S
Tb462 O464 2.343 . S
Tb462 O467 2.353 . S
Tb462 O470 2.427 . S
Tb462 O471 2.513 . S
Tb462 O472 2.453 . S
Tb462 O473 2.596 . S
Tb462 O474 2.374 . S
O463 Tb460 2.453 . S
O463 C479 1.245 . S
O464 Tb460 2.596 . S
O464 Tb462 2.343 . S
O464 C479 1.259 . S
O465 Tb460 2.374 . S
O465 C461 1.251 . S
C466 O470 1.275 . S
C466 O471 1.246 . S
O467 C461 1.263 . S
O467 Tb462 2.353 . S
C468 O472 1.245 . S
C468 O473 1.259 . S
C469 O474 1.250 . S
C469 O475 1.263 . S
O470 Tb462 2.427 . S
O470 C466 1.275 . S
O471 Tb462 2.513 . S
O471 C466 1.246 . S
O472 Tb462 2.453 . S
O472 C468 1.245 . S
O473 Tb460 2.343 . S
O473 Tb462 2.596 . S
O473 C468 1.259 . S
O474 Tb462 2.374 . S
O474 C469 1.250 . S
O475 Tb460 2.353 . S
O475 C469 1.263 . S
C476 O477 1.275 . S
C476 O478 1.246 . S
O477 Tb460 2.427 . S
O477 C476 1.275 . S
O478 Tb460 2.513 . S
O478 C476 1.246 . S
C479 O463 1.245 . S
C479 O464 1.259 . S
Tb480 O483 2.453 . S
Tb480 O484 2.596 . S
Tb480 O485 2.374 . S
Tb480 O493 2.343 . S
Tb480 O495 2.353 . S
Tb480 O497 2.427 . S
Tb480 O498 2.513 . S
C481 O485 1.251 . S
C481 O487 1.263 . S
Tb482 O484 2.343 . S
Tb482 O487 2.353 . S
Tb482 O490 2.427 . S
Tb482 O491 2.513 . S
Tb482 O492 2.453 . S
Tb482 O493 2.596 . S
Tb482 O494 2.374 . S
O483 Tb480 2.453 . S
O483 C499 1.245 . S
O484 Tb480 2.596 . S
O484 Tb482 2.343 . S
O484 C499 1.259 . S
O485 Tb480 2.374 . S
O485 C481 1.251 . S
C486 O490 1.275 . S
C486 O491 1.246 . S
O487 C481 1.263 . S
O487 Tb482 2.353 . S
C488 O492 1.245 . S
C488 O493 1.259 . S
C489 O494 1.250 . S
C489 O495 1.263 . S
O490 Tb482 2.427 . S
O490 C486 1.275 . S
O491 Tb482 2.513 . S
O491 C486 1.246 . S
O492 Tb482 2.453 . S
O492 C488 1.245 . S
O493 Tb480 2.343 . S
O493 Tb482 2.596 . S
O493 C488 1.259 . S
O494 Tb482 2.374 . S
O494 C489 1.250 . S
O495 Tb480 2.353 . S
O495 C489 1.263 . S
C496 O497 1.275 . S
C496 O498 1.246 . S
O497 Tb480 2.427 . S
O497 C496 1.275 . S
O498 Tb480 2.513 . S
O498 C496 1.246 . S
C499 O483 1.245 . S
C499 O484 1.259 . S
Tb500 O503 2.453 . S
Tb500 O504 2.596 . S
Tb500 O505 2.374 . S
Tb500 O513 2.343 . S
Tb500 O515 2.353 . S
Tb500 O517 2.427 . S
Tb500 O518 2.513 . S
C501 O505 1.251 . S
C501 O507 1.257 1_556 S
Tb502 O504 2.343 . S
Tb502 O507 2.352 1_556 S
Tb502 O510 2.427 1_556 S
Tb502 O511 2.513 1_556 S
Tb502 O512 2.453 . S
Tb502 O513 2.596 . S
Tb502 O514 2.374 . S
O503 Tb500 2.453 . S
O503 C519 1.245 . S
O504 Tb500 2.596 . S
O504 Tb502 2.343 . S
O504 C519 1.259 . S
O505 Tb500 2.374 . S
O505 C501 1.251 . S
C506 O510 1.275 . S
C506 O511 1.246 . S
O507 C501 1.257 1_554 S
O507 Tb502 2.352 1_554 S
C508 O512 1.245 . S
C508 O513 1.259 . S
C509 O514 1.250 . S
C509 O515 1.263 . S
O510 Tb502 2.427 1_554 S
O510 C506 1.275 . S
O511 Tb502 2.513 1_554 S
O511 C506 1.246 . S
O512 Tb502 2.453 . S
O512 C508 1.245 . S
O513 Tb500 2.343 . S
O513 Tb502 2.596 . S
O513 C508 1.259 . S
O514 Tb502 2.374 . S
O514 C509 1.250 . S
O515 Tb500 2.353 . S
O515 C509 1.263 . S
C516 O517 1.275 . S
C516 O518 1.246 . S
O517 Tb500 2.427 . S
O517 C516 1.275 . S
O518 Tb500 2.513 . S
O518 C516 1.246 . S
C519 O503 1.245 . S
C519 O504 1.259 . S
Tb520 O523 2.453 . S
Tb520 O524 2.596 . S
Tb520 O525 2.374 . S
Tb520 O533 2.343 . S
Tb520 O535 2.353 . S
Tb520 O537 2.427 . S
Tb520 O538 2.513 . S
C521 O525 1.251 . S
C521 O527 1.263 . S
Tb522 O524 2.343 . S
Tb522 O527 2.353 . S
Tb522 O530 2.427 . S
Tb522 O531 2.513 . S
Tb522 O532 2.453 1_455 S
Tb522 O533 2.596 . S
Tb522 O534 2.374 . S
O523 Tb520 2.453 . S
O523 C539 1.245 . S
O524 Tb520 2.596 . S
O524 Tb522 2.343 . S
O524 C539 1.259 . S
O525 Tb520 2.374 . S
O525 C521 1.251 . S
C526 O530 1.275 . S
C526 O531 1.246 . S
O527 C521 1.263 . S
O527 Tb522 2.353 . S
C528 O532 1.245 1_455 S
C528 O533 1.259 . S
C529 O534 1.250 . S
C529 O535 1.263 . S
O530 Tb522 2.427 . S
O530 C526 1.275 . S
O531 Tb522 2.513 . S
O531 C526 1.246 . S
O532 Tb522 2.453 1_655 S
O532 C528 1.245 1_655 S
O533 Tb520 2.343 . S
O533 Tb522 2.596 . S
O533 C528 1.259 . S
O534 Tb522 2.374 . S
O534 C529 1.250 . S
O535 Tb520 2.353 . S
O535 C529 1.263 . S
C536 O537 1.275 . S
C536 O538 1.246 . S
O537 Tb520 2.427 . S
O537 C536 1.275 . S
O538 Tb520 2.513 . S
O538 C536 1.246 . S
C539 O523 1.245 . S
C539 O524 1.259 . S
Tb540 O543 2.453 . S
Tb540 O544 2.596 . S
Tb540 O545 2.374 . S
Tb540 O553 2.343 . S
Tb540 O555 2.353 . S
Tb540 O557 2.427 . S
Tb540 O558 2.513 . S
C541 O545 1.251 . S
C541 O547 1.263 . S
Tb542 O544 2.343 . S
Tb542 O547 2.353 . S
Tb542 O550 2.427 . S
Tb542 O551 2.513 . S
Tb542 O552 2.453 . S
Tb542 O553 2.596 . S
Tb542 O554 2.374 . S
O543 Tb540 2.453 . S
O543 C559 1.245 . S
O544 Tb540 2.596 . S
O544 Tb542 2.343 . S
O544 C559 1.259 . S
O545 Tb540 2.374 . S
O545 C541 1.251 . S
C546 O550 1.275 . S
C546 O551 1.246 . S
O547 C541 1.263 . S
O547 Tb542 2.353 . S
C548 O552 1.245 . S
C548 O553 1.259 . S
C549 O554 1.250 . S
C549 O555 1.263 . S
O550 Tb542 2.427 . S
O550 C546 1.275 . S
O551 Tb542 2.513 . S
O551 C546 1.246 . S
O552 Tb542 2.453 . S
O552 C548 1.245 . S
O553 Tb540 2.343 . S
O553 Tb542 2.596 . S
O553 C548 1.259 . S
O554 Tb542 2.374 . S
O554 C549 1.250 . S
O555 Tb540 2.353 . S
O555 C549 1.263 . S
C556 O557 1.275 . S
C556 O558 1.246 . S
O557 Tb540 2.427 . S
O557 C556 1.275 . S
O558 Tb540 2.513 . S
O558 C556 1.246 . S
C559 O543 1.245 . S
C559 O544 1.259 . S
Tb560 O563 2.453 . S
Tb560 O564 2.596 . S
Tb560 O565 2.374 . S
Tb560 O573 2.343 . S
Tb560 O575 2.353 . S
Tb560 O577 2.427 . S
Tb560 O578 2.513 . S
C561 O565 1.251 . S
C561 O567 1.263 . S
Tb562 O564 2.343 . S
Tb562 O567 2.353 . S
Tb562 O570 2.427 . S
Tb562 O571 2.513 . S
Tb562 O572 2.453 . S
Tb562 O573 2.596 . S
Tb562 O574 2.374 . S
O563 Tb560 2.453 . S
O563 C579 1.245 . S
O564 Tb560 2.596 . S
O564 Tb562 2.343 . S
O564 C579 1.259 . S
O565 Tb560 2.374 . S
O565 C561 1.251 . S
C566 O570 1.275 . S
C566 O571 1.246 . S
O567 C561 1.263 . S
O567 Tb562 2.353 . S
C568 O572 1.245 . S
C568 O573 1.259 . S
C569 O574 1.250 . S
C569 O575 1.263 . S
O570 Tb562 2.427 . S
O570 C566 1.275 . S
O571 Tb562 2.513 . S
O571 C566 1.246 . S
O572 Tb562 2.453 . S
O572 C568 1.245 . S
O573 Tb560 2.343 . S
O573 Tb562 2.596 . S
O573 C568 1.259 . S
O574 Tb562 2.374 . S
O574 C569 1.250 . S
O575 Tb560 2.353 . S
O575 C569 1.263 . S
C576 O577 1.275 . S
C576 O578 1.246 . S
O577 Tb560 2.427 . S
O577 C576 1.275 . S
O578 Tb560 2.513 . S
O578 C576 1.246 . S
C579 O563 1.245 . S
C579 O564 1.259 . S
Tb580 O583 2.453 . S
Tb580 O584 2.596 . S
Tb580 O585 2.374 . S
Tb580 O593 2.343 . S
Tb580 O595 2.353 . S
Tb580 O597 2.427 . S
Tb580 O598 2.513 . S
C581 O585 1.251 . S
C581 O587 1.257 1_554 S
Tb582 O584 2.343 . S
Tb582 O587 2.352 1_554 S
Tb582 O590 2.427 1_554 S
Tb582 O591 2.513 1_554 S
Tb582 O592 2.453 . S
Tb582 O593 2.596 . S
Tb582 O594 2.374 . S
O583 Tb580 2.453 . S
O583 C599 1.245 . S
O584 Tb580 2.596 . S
O584 Tb582 2.343 . S
O584 C599 1.259 . S
O585 Tb580 2.374 . S
O585 C581 1.251 . S
C586 O590 1.275 . S
C586 O591 1.246 . S
O587 C581 1.257 1_556 S
O587 Tb582 2.352 1_556 S
C588 O592 1.245 . S
C588 O593 1.259 . S
C589 O594 1.250 . S
C589 O595 1.263 . S
O590 Tb582 2.427 1_556 S
O590 C586 1.275 . S
O591 Tb582 2.513 1_556 S
O591 C586 1.246 . S
O592 Tb582 2.453 . S
O592 C588 1.245 . S
O593 Tb580 2.343 . S
O593 Tb582 2.596 . S
O593 C588 1.259 . S
O594 Tb582 2.374 . S
O594 C589 1.250 . S
O595 Tb580 2.353 . S
O595 C589 1.263 . S
C596 O597 1.275 . S
C596 O598 1.246 . S
O597 Tb580 2.427 . S
O597 C596 1.275 . S
O598 Tb580 2.513 . S
O598 C596 1.246 . S
C599 O583 1.245 . S
C599 O584 1.259 . S
Tb600 O603 2.453 . S
Tb600 O604 2.596 . S
Tb600 O605 2.374 . S
Tb600 O613 2.343 . S
Tb600 O615 2.353 . S
Tb600 O617 2.427 . S
Tb600 O618 2.513 . S
C601 O605 1.251 . S
C601 O607 1.263 . S
Tb602 O604 2.343 . S
Tb602 O607 2.353 . S
Tb602 O610 2.427 . S
Tb602 O611 2.513 . S
Tb602 O612 2.453 1_455 S
Tb602 O613 2.596 . S
Tb602 O614 2.374 . S
O603 Tb600 2.453 . S
O603 C619 1.245 . S
O604 Tb600 2.596 . S
O604 Tb602 2.343 . S
O604 C619 1.259 . S
O605 Tb600 2.374 . S
O605 C601 1.251 . S
C606 O610 1.275 . S
C606 O611 1.246 . S
O607 C601 1.263 . S
O607 Tb602 2.353 . S
C608 O612 1.245 1_455 S
C608 O613 1.259 . S
C609 O614 1.250 . S
C609 O615 1.263 . S
O610 Tb602 2.427 . S
O610 C606 1.275 . S
O611 Tb602 2.513 . S
O611 C606 1.246 . S
O612 Tb602 2.453 1_655 S
O612 C608 1.245 1_655 S
O613 Tb600 2.343 . S
O613 Tb602 2.596 . S
O613 C608 1.259 . S
O614 Tb602 2.374 . S
O614 C609 1.250 . S
O615 Tb600 2.353 . S
O615 C609 1.263 . S
C616 O617 1.275 . S
C616 O618 1.246 . S
O617 Tb600 2.427 . S
O617 C616 1.275 . S
O618 Tb600 2.513 . S
O618 C616 1.246 . S
C619 O603 1.245 . S
C619 O604 1.259 . S
Tb620 O623 2.453 . S
Tb620 O624 2.596 . S
Tb620 O625 2.374 . S
Tb620 O633 2.343 . S
Tb620 O635 2.353 . S
Tb620 O637 2.427 . S
Tb620 O638 2.513 . S
C621 O625 1.251 . S
C621 O627 1.263 . S
Tb622 O624 2.343 . S
Tb622 O627 2.353 . S
Tb622 O630 2.427 . S
Tb622 O631 2.513 . S
Tb622 O632 2.453 . S
Tb622 O633 2.596 . S
Tb622 O634 2.374 . S
O623 Tb620 2.453 . S
O623 C639 1.245 . S
O624 Tb620 2.596 . S
O624 Tb622 2.343 . S
O624 C639 1.259 . S
O625 Tb620 2.374 . S
O625 C621 1.251 . S
C626 O630 1.275 . S
C626 O631 1.246 . S
O627 C621 1.263 . S
O627 Tb622 2.353 . S
C628 O632 1.245 . S
C628 O633 1.259 . S
C629 O634 1.250 . S
C629 O635 1.263 . S
O630 Tb622 2.427 . S
O630 C626 1.275 . S
O631 Tb622 2.513 . S
O631 C626 1.246 . S
O632 Tb622 2.453 . S
O632 C628 1.245 . S
O633 Tb620 2.343 . S
O633 Tb622 2.596 . S
O633 C628 1.259 . S
O634 Tb622 2.374 . S
O634 C629 1.250 . S
O635 Tb620 2.353 . S
O635 C629 1.263 . S
C636 O637 1.275 . S
C636 O638 1.246 . S
O637 Tb620 2.427 . S
O637 C636 1.275 . S
O638 Tb620 2.513 . S
O638 C636 1.246 . S
C639 O623 1.245 . S
C639 O624 1.259 . S
C8 C66 1.781 . S
C6 C28 1.782 1_545 S
C48 C26 1.781 . S
C46 C68 1.782 1_566 S
C106 C88 1.781 . S
C108 C126 1.782 1_565 S
C146 C128 1.782 . S
C86 C148 1.781 1_564 S
C179 C236 1.781 . S
C199 C176 1.782 1_545 S
C219 C196 1.781 . S
C239 C216 1.782 1_566 S
C259 C276 1.781 . S
C279 C296 1.782 1_545 S
C316 C299 1.782 . S
C256 C319 1.781 1_546 S
C328 C386 1.781 . S
C326 C348 1.782 1_556 S
C346 C368 1.781 . S
C388 C366 1.782 . S
C408 C426 1.782 . S
C446 C428 1.781 1_554 S
C448 C466 1.781 . S
C406 C468 1.782 . S
C556 C499 1.781 . S
C496 C519 1.782 1_554 S
C539 C516 1.781 . S
C536 C559 1.782 . S
C596 C579 1.782 . S
C616 C599 1.781 1_556 S
C636 C619 1.781 . S
C639 C576 1.782 . S
C548 C1 1.376 . S
C21 C168 1.376 1_455 S
C41 C508 1.376 . S
C61 C208 1.376 . S
C81 C588 1.376 . S
C288 C101 1.376 . S
C628 C121 1.376 . S
C141 C248 1.376 1_455 S
C169 C399 1.376 . S
C19 C189 1.376 1_455 S
C359 C209 1.376 . S
C59 C229 1.376 . S
C439 C249 1.376 . S
C139 C269 1.376 . S
C289 C479 1.376 . S
C309 C99 1.376 1_655 S
C321 C228 1.376 . S
C341 C488 1.376 . S
C361 C188 1.376 . S
C381 C528 1.376 1_655 S
C401 C268 1.376 . S
C421 C608 1.376 1_655 S
C308 C441 1.376 . S
C461 C568 1.376 . S
C79 C489 1.376 . S
C339 C509 1.376 . S
C39 C529 1.376 . S
C379 C549 1.376 1_655 S
C119 C569 1.376 . S
C589 C459 1.376 1_455 S
C609 C159 1.376 . S
C419 C629 1.376 . S
C9 C89 0.733 1_565 S
C29 C109 0.733 . S
C49 C129 0.733 1_545 S
C149 C69 0.733 1_556 S
C241 C161 0.733 1_565 S
C261 C181 0.733 . S
C201 C281 0.733 1_565 S
C221 C301 0.733 1_556 S
C329 C409 0.733 . S
C429 C349 0.733 1_556 S
C449 C369 0.733 . S
C469 C389 0.733 . S
C561 C481 0.733 . S
C501 C581 0.733 1_556 S
C601 C521 0.733 . S
C541 C621 0.733 . S
C156 C16 2.133 . S
C36 C96 2.133 . S
C56 C116 2.133 . S
C136 C76 2.133 . S
C166 C306 2.133 . S
C246 C186 2.133 . S
C266 C206 2.133 . S
C226 C286 2.133 . S
C336 C476 2.133 . S
C416 C356 2.133 . S
C436 C376 2.133 . S
C456 C396 2.133 . S
C486 C626 2.133 . S
C566 C506 2.133 . S
C526 C586 2.133 . S
C606 C546 2.133 . S
