# Generated by pormake.
# Topology upc, (4)-cn, num edge types: 1
# Building blocks:
#     Node 0, Type 0, BuildingBlock: QUQFOY_clean_sbu_3, # of connection points: 4
#     Node 1, Type 0, BuildingBlock: QUQFOY_clean_sbu_3, # of connection points: 4
#     Node 2, Type 0, BuildingBlock: QUQFOY_clean_sbu_3, # of connection points: 4
#     Node 3, Type 0, BuildingBlock: QUQFOY_clean_sbu_3, # of connection points: 4
#     Node 4, Type 0, BuildingBlock: QUQFOY_clean_sbu_3, # of connection points: 4
#     Node 5, Type 0, BuildingBlock: QUQFOY_clean_sbu_3, # of connection points: 4
#     Node 6, Type 0, BuildingBlock: QUQFOY_clean_sbu_3, # of connection points: 4
#     Node 7, Type 0, BuildingBlock: QUQFOY_clean_sbu_3, # of connection points: 4
#     Node 8, Type 0, BuildingBlock: QUQFOY_clean_sbu_3, # of connection points: 4
#     Node 9, Type 0, BuildingBlock: QUQFOY_clean_sbu_3, # of connection points: 4
#     Node 10, Type 0, BuildingBlock: QUQFOY_clean_sbu_3, # of connection points: 4
#     Node 11, Type 0, BuildingBlock: QUQFOY_clean_sbu_3, # of connection points: 4
#     Node 12, Type 0, BuildingBlock: QUQFOY_clean_sbu_3, # of connection points: 4
#     Node 13, Type 0, BuildingBlock: QUQFOY_clean_sbu_3, # of connection points: 4
#     Node 14, Type 0, BuildingBlock: QUQFOY_clean_sbu_3, # of connection points: 4
#     Node 15, Type 0, BuildingBlock: QUQFOY_clean_sbu_3, # of connection points: 4
#     Edge 16, Type (0, 0), BuildingBlock: UVAHIK_clean_linker_0, # of connection points: 2
#     Edge 17, Type (0, 0), BuildingBlock: UVAHIK_clean_linker_0, # of connection points: 2
#     Edge 18, Type (0, 0), BuildingBlock: UVAHIK_clean_linker_0, # of connection points: 2
#     Edge 19, Type (0, 0), BuildingBlock: UVAHIK_clean_linker_0, # of connection points: 2
#     Edge 20, Type (0, 0), BuildingBlock: UVAHIK_clean_linker_0, # of connection points: 2
#     Edge 21, Type (0, 0), BuildingBlock: UVAHIK_clean_linker_0, # of connection points: 2
#     Edge 22, Type (0, 0), BuildingBlock: UVAHIK_clean_linker_0, # of connection points: 2
#     Edge 23, Type (0, 0), BuildingBlock: UVAHIK_clean_linker_0, # of connection points: 2
#     Edge 24, Type (0, 0), BuildingBlock: UVAHIK_clean_linker_0, # of connection points: 2
#     Edge 25, Type (0, 0), BuildingBlock: UVAHIK_clean_linker_0, # of connection points: 2
#     Edge 26, Type (0, 0), BuildingBlock: UVAHIK_clean_linker_0, # of connection points: 2
#     Edge 27, Type (0, 0), BuildingBlock: UVAHIK_clean_linker_0, # of connection points: 2
#     Edge 28, Type (0, 0), BuildingBlock: UVAHIK_clean_linker_0, # of connection points: 2
#     Edge 29, Type (0, 0), BuildingBlock: UVAHIK_clean_linker_0, # of connection points: 2
#     Edge 30, Type (0, 0), BuildingBlock: UVAHIK_clean_linker_0, # of connection points: 2
#     Edge 31, Type (0, 0), BuildingBlock: UVAHIK_clean_linker_0, # of connection points: 2
#     Edge 32, Type (0, 0), BuildingBlock: UVAHIK_clean_linker_0, # of connection points: 2
#     Edge 33, Type (0, 0), BuildingBlock: UVAHIK_clean_linker_0, # of connection points: 2
#     Edge 34, Type (0, 0), BuildingBlock: UVAHIK_clean_linker_0, # of connection points: 2
#     Edge 35, Type (0, 0), BuildingBlock: UVAHIK_clean_linker_0, # of connection points: 2
#     Edge 36, Type (0, 0), BuildingBlock: UVAHIK_clean_linker_0, # of connection points: 2
#     Edge 37, Type (0, 0), BuildingBlock: UVAHIK_clean_linker_0, # of connection points: 2
#     Edge 38, Type (0, 0), BuildingBlock: UVAHIK_clean_linker_0, # of connection points: 2
#     Edge 39, Type (0, 0), BuildingBlock: UVAHIK_clean_linker_0, # of connection points: 2
#     Edge 40, Type (0, 0), BuildingBlock: UVAHIK_clean_linker_0, # of connection points: 2
#     Edge 41, Type (0, 0), BuildingBlock: UVAHIK_clean_linker_0, # of connection points: 2
#     Edge 42, Type (0, 0), BuildingBlock: UVAHIK_clean_linker_0, # of connection points: 2
#     Edge 43, Type (0, 0), BuildingBlock: UVAHIK_clean_linker_0, # of connection points: 2
#     Edge 44, Type (0, 0), BuildingBlock: UVAHIK_clean_linker_0, # of connection points: 2
#     Edge 45, Type (0, 0), BuildingBlock: UVAHIK_clean_linker_0, # of connection points: 2
#     Edge 46, Type (0, 0), BuildingBlock: UVAHIK_clean_linker_0, # of connection points: 2
#     Edge 47, Type (0, 0), BuildingBlock: UVAHIK_clean_linker_0, # of connection points: 2
# Relax obj value: 0.246
# Max RMSD: 0.294
# Mean RMSD: 0.294
data_MOF--net-upc--node1-QUQFOY_clean_sbu_3--edge1-UVAHIK_clean_linker_0
_symmetry_space_group_name_H-M    P1
_symmetry_Int_Tables_number       1
_symmetry_cell_setting            triclinic
loop_
_symmetry_equiv_pos_as_xyz
'x, y, z'
_cell_length_a     43.470357
_cell_length_b     43.410499
_cell_length_c     56.543552
_cell_angle_alpha  89.903292
_cell_angle_beta   90.02483
_cell_angle_gamma 90.103506
loop_
_atom_site_label
_atom_site_type_symbol
_atom_site_fract_x
_atom_site_fract_y
_atom_site_fract_z
_atom_type_partial_charge
C0 C 0.0916 0.69606 0.11045 0.0
O1 O 0.09771 0.70042 0.13211 0.0
Cd2 Cd 0.0734 0.67391 0.16384 0.0
O3 O 0.0706 0.67715 0.10442 0.0
Cd4 Cd 0.03367 0.6441 0.12689 0.0
C5 C -0.00074 0.69809 0.16005 0.0
O6 O 0.0696 0.61962 0.15561 0.0
O7 O 0.02086 0.61223 0.16036 0.0
O8 O 0.03864 0.60439 0.09692 0.0
C9 C 0.04812 0.60496 0.16588 0.0
O10 O 0.02465 0.6983 0.17118 0.0
C11 C 0.01013 0.60253 0.0924 0.0
O12 O 0.99565 0.68139 0.1418 0.0
O13 O 0.99258 0.62126 0.10307 0.0
C14 C 0.8586 0.1571 0.16536 0.0
O15 O 0.87518 0.15644 0.18388 0.0
Cd16 Cd 0.91439 0.11827 0.19242 0.0
O17 O 0.86244 0.13739 0.14899 0.0
Cd18 Cd 0.89538 0.09282 0.14074 0.0
C19 C 0.86893 0.05408 0.18891 0.0
O20 O 0.94415 0.11073 0.15756 0.0
O21 O 0.94152 0.06301 0.14731 0.0
O22 O 0.90191 0.10595 0.09919 0.0
C23 C 0.95753 0.08489 0.15559 0.0
O24 O 0.88683 0.07053 0.20152 0.0
C25 C 0.89125 0.08053 0.09161 0.0
O26 O 0.86566 0.05919 0.16686 0.0
O27 O 0.8809 0.06177 0.10694 0.0
C28 C 0.36184 0.78276 0.11032 0.0
O29 O 0.3559 0.7808 0.13223 0.0
Cd30 Cd 0.38581 0.80324 0.16298 0.0
O31 O 0.38574 0.79698 0.10315 0.0
Cd32 Cd 0.42927 0.82364 0.1234 0.0
C33 C 0.4534 0.76437 0.15754 0.0
O34 O 0.40053 0.85497 0.1528 0.0
O35 O 0.45008 0.85341 0.15551 0.0
O36 O 0.42869 0.86239 0.09237 0.0
C37 C 0.425 0.86542 0.16209 0.0
O38 O 0.42925 0.76993 0.16945 0.0
C39 C 0.45683 0.85984 0.08685 0.0
O40 O 0.4591 0.77927 0.1386 0.0
O41 O 0.47207 0.83908 0.0975 0.0
C42 C 0.63325 0.39687 0.14396 0.0
O43 O 0.61542 0.40384 0.16093 0.0
Cd44 Cd 0.5911 0.45379 0.16475 0.0
O45 O 0.63764 0.41568 0.127 0.0
Cd46 Cd 0.62147 0.46685 0.1134 0.0
C47 C 0.65731 0.4972 0.16097 0.0
O48 O 0.56888 0.4688 0.12806 0.0
O49 O 0.58879 0.51187 0.11693 0.0
O50 O 0.61269 0.44612 0.07441 0.0
C51 C 0.56568 0.49763 0.1252 0.0
O52 O 0.63386 0.48878 0.17289 0.0
C53 C 0.62838 0.46642 0.06359 0.0
O54 O 0.66026 0.49002 0.13923 0.0
O55 O 0.64258 0.48606 0.07622 0.0
C56 C 0.14305 0.82557 0.37217 0.0
O57 O 0.1471 0.82605 0.34997 0.0
Cd58 Cd 0.11027 0.84495 0.32257 0.0
O59 O 0.11887 0.83706 0.38128 0.0
Cd60 Cd 0.0749 0.86725 0.3647 0.0
C61 C 0.04189 0.80913 0.3356 0.0
O62 O 0.10061 0.89745 0.33302 0.0
O63 O 0.051 0.89713 0.33353 0.0
O64 O 0.08213 0.90601 0.39513 0.0
C65 C 0.07558 0.90872 0.32545 0.0
O66 O 0.06455 0.81235 0.32158 0.0
C67 C 0.05458 0.90526 0.40248 0.0
O68 O 0.03984 0.82543 0.35418 0.0
O69 O 0.0369 0.88536 0.39319 0.0
C70 C 0.62596 0.13075 0.32751 0.0
O71 O 0.61438 0.12263 0.30784 0.0
Cd72 Cd 0.5804 0.07927 0.30182 0.0
O73 O 0.61968 0.11592 0.34637 0.0
Cd74 Cd 0.5893 0.06989 0.35725 0.0
C75 C 0.63151 0.02514 0.32059 0.0
O76 O 0.54351 0.07792 0.3329 0.0
O77 O 0.54875 0.03291 0.34841 0.0
O78 O 0.57351 0.09348 0.39429 0.0
C79 C 0.53232 0.05131 0.33645 0.0
O80 O 0.61417 0.03449 0.30391 0.0
C81 C 0.58167 0.07084 0.40709 0.0
O82 O 0.62949 0.03645 0.34131 0.0
O83 O 0.59497 0.04859 0.39674 0.0
C84 C 0.4133 0.70514 0.38413 0.0
O85 O 0.41492 0.71692 0.36354 0.0
Cd86 Cd 0.46028 0.71788 0.34045 0.0
O87 O 0.43514 0.68885 0.39272 0.0
Cd88 Cd 0.48339 0.66299 0.3776 0.0
C89 C 0.52075 0.72095 0.37119 0.0
O90 O 0.46377 0.66276 0.33623 0.0
O91 O 0.50796 0.64213 0.3425 0.0
O92 O 0.46224 0.61527 0.39434 0.0
C93 C 0.4869 0.64883 0.32795 0.0
O94 O 0.49337 0.73036 0.37302 0.0
C95 C 0.48745 0.6066 0.40346 0.0
O96 O 0.5274 0.69824 0.38424 0.0
O97 O 0.5102 0.62474 0.40141 0.0
C98 C 0.87778 0.34646 0.33018 0.0
O99 O 0.8932 0.35099 0.31139 0.0
Cd100 Cd 0.93157 0.3907 0.30523 0.0
O101 O 0.88189 0.36344 0.34826 0.0
Cd102 Cd 0.91339 0.4086 0.35902 0.0
C103 C 0.88344 0.45168 0.31454 0.0
O104 O 0.96212 0.39533 0.33984 0.0
O105 O 0.95774 0.44158 0.35304 0.0
O106 O 0.92151 0.38897 0.39877 0.0
C107 C 0.97432 0.42162 0.34289 0.0
O108 O 0.90218 0.43807 0.30077 0.0
C109 C 0.91252 0.41336 0.40904 0.0
O110 O 0.88034 0.44341 0.33606 0.0
O111 O 0.90206 0.43475 0.39596 0.0
C112 C 0.85832 0.35909 0.83801 0.0
O113 O 0.86369 0.37304 0.81866 0.0
Cd114 Cd 0.90611 0.40793 0.81198 0.0
O115 O 0.87558 0.36329 0.85591 0.0
Cd116 Cd 0.92236 0.39288 0.86566 0.0
C117 C 0.9623 0.35515 0.82342 0.0
O118 O 0.9109 0.44115 0.84523 0.0
O119 O 0.9576 0.43507 0.85703 0.0
O120 O 0.90057 0.40319 0.90426 0.0
C121 C 0.93764 0.45247 0.84763 0.0
O122 O 0.95078 0.37422 0.80876 0.0
C123 C 0.92455 0.39578 0.91576 0.0
O124 O 0.95381 0.35467 0.84499 0.0
O125 O 0.94705 0.38527 0.90393 0.0
C126 C 0.1351 0.85095 0.8781 0.0
O127 O 0.13248 0.84447 0.85632 0.0
Cd128 Cd 0.11199 0.87761 0.82675 0.0
O129 O 0.12462 0.87621 0.88624 0.0
Cd130 Cd 0.09332 0.91929 0.8694 0.0
C131 C 0.1508 0.94608 0.8355 0.0
O132 O 0.0619 0.89149 0.83991 0.0
O133 O 0.06119 0.94116 0.83874 0.0
O134 O 0.05683 0.91641 0.90179 0.0
C135 C 0.05056 0.91586 0.83116 0.0
O136 O 0.14602 0.92211 0.82308 0.0
C137 C 0.05985 0.94435 0.90794 0.0
O138 O 0.13547 0.95105 0.85426 0.0
O139 O 0.07979 0.96024 0.89693 0.0
C140 C 0.64086 0.10925 0.83842 0.0
O141 O 0.63559 0.09593 0.81883 0.0
Cd142 Cd 0.59364 0.06147 0.81025 0.0
O143 O 0.62354 0.10443 0.85623 0.0
Cd144 Cd 0.57644 0.07401 0.8644 0.0
C145 C 0.53734 0.11389 0.82251 0.0
O146 O 0.58749 0.02684 0.84237 0.0
O147 O 0.54055 0.03359 0.85328 0.0
O148 O 0.59551 0.05841 0.90302 0.0
C149 C 0.56036 0.01618 0.84378 0.0
O150 O 0.54918 0.09544 0.8076 0.0
C151 C 0.57123 0.06579 0.91414 0.0
O152 O 0.54539 0.11357 0.84421 0.0
O153 O 0.55031 0.0793 0.90234 0.0
C154 C 0.34091 0.64592 0.86778 0.0
O155 O 0.33814 0.65102 0.84579 0.0
Cd156 Cd 0.35538 0.61788 0.81514 0.0
O157 O 0.35556 0.62244 0.87525 0.0
Cd158 Cd 0.38726 0.58184 0.85562 0.0
C159 C 0.32735 0.54614 0.8303 0.0
O160 O 0.40897 0.61015 0.8213 0.0
O161 O 0.41405 0.56067 0.82213 0.0
O162 O 0.43063 0.59124 0.88161 0.0
C163 C 0.42067 0.58609 0.81237 0.0
O164 O 0.32671 0.56971 0.81688 0.0
C165 C 0.4322 0.56387 0.88939 0.0
O166 O 0.34672 0.54417 0.8471 0.0
O167 O 0.41152 0.54519 0.88255 0.0
C168 C 0.84295 0.12683 0.64289 0.0
O169 O 0.84323 0.1104 0.66152 0.0
Cd170 Cd 0.88301 0.07448 0.67257 0.0
O171 O 0.86452 0.12477 0.62774 0.0
Cd172 Cd 0.91238 0.09516 0.62265 0.0
C173 C 0.94375 0.12495 0.67244 0.0
O174 O 0.89486 0.04568 0.63813 0.0
O175 O 0.94356 0.0503 0.63237 0.0
O176 O 0.90218 0.08831 0.58081 0.0
C177 C 0.92122 0.03328 0.6385 0.0
O178 O 0.92758 0.1056 0.684 0.0
C179 C 0.92823 0.09825 0.57405 0.0
O180 O 0.94067 0.12813 0.65016 0.0
O181 O 0.94615 0.10861 0.58993 0.0
C182 C 0.298 0.88158 0.61153 0.0
O183 O 0.29625 0.87587 0.6335 0.0
Cd184 Cd 0.32448 0.90114 0.66391 0.0
O185 O 0.31517 0.90322 0.60388 0.0
Cd186 Cd 0.34823 0.94279 0.62353 0.0
C187 C 0.29545 0.97373 0.66019 0.0
O188 O 0.37656 0.90854 0.6511 0.0
O189 O 0.3834 0.95759 0.65452 0.0
O190 O 0.38518 0.94095 0.59132 0.0
C191 C 0.39137 0.93062 0.6604 0.0
O192 O 0.29812 0.94878 0.67177 0.0
C193 C 0.38392 0.9695 0.5866 0.0
O194 O 0.30985 0.97792 0.64087 0.0
O195 O 0.36467 0.98538 0.59821 0.0
C196 C 0.60543 0.35494 0.63535 0.0
O197 O 0.60538 0.37384 0.65248 0.0
Cd198 Cd 0.56219 0.40604 0.66175 0.0
O199 O 0.58264 0.35348 0.62122 0.0
Cd200 Cd 0.5326 0.3789 0.61424 0.0
C201 C 0.50779 0.34822 0.66561 0.0
O202 O 0.54797 0.43066 0.62578 0.0
O203 O 0.49924 0.42284 0.6226 0.0
O204 O 0.54861 0.37852 0.57343 0.0
C205 C 0.52103 0.44175 0.62602 0.0
O206 O 0.52273 0.36988 0.6756 0.0
C207 C 0.52224 0.3729 0.56482 0.0
O208 O 0.50893 0.34435 0.64327 0.0
O209 O 0.50059 0.3678 0.57944 0.0
C210 C 0.18532 0.61491 0.61405 0.0
O211 O 0.1883 0.61986 0.63603 0.0
Cd212 Cd 0.16295 0.59222 0.6668 0.0
O213 O 0.16834 0.59302 0.60661 0.0
Cd214 Cd 0.13758 0.55187 0.6266 0.0
C215 C 0.19366 0.5207 0.66028 0.0
O216 O 0.11007 0.58379 0.65629 0.0
O217 O 0.10496 0.53437 0.65826 0.0
O218 O 0.09895 0.55397 0.5954 0.0
C219 C 0.09659 0.56067 0.66536 0.0
O220 O 0.19129 0.54513 0.67249 0.0
C221 C 0.10057 0.52557 0.59029 0.0
O222 O 0.17789 0.51696 0.64155 0.0
O223 O 0.12062 0.50981 0.60122 0.0
C224 C 0.11924 0.69514 0.07158 0.0
C225 C 0.11159 0.71066 0.09256 0.0
C226 C 0.14423 0.70511 0.0579 0.0
C227 C 0.20487 0.76651 0.05383 0.0
H228 H 0.26058 0.69694 0.05523 0.0
C229 C 0.32223 0.74394 0.09984 0.0
C230 C 0.3395 0.76992 0.09338 0.0
C231 C 0.29702 0.73483 0.08635 0.0
C232 C 0.24532 0.7166 0.05418 0.0
H233 H 0.12135 0.75069 0.11412 0.0
H234 H 0.16446 0.7681 0.09048 0.0
H235 H 0.20539 0.68796 0.05497 0.0
H236 H 0.34544 0.80558 0.06691 0.0
H237 H 0.30041 0.79008 0.04348 0.0
H238 H 0.24488 0.79511 0.0557 0.0
C239 C 0.15158 0.74826 0.0844 0.0
C240 C 0.2136 0.71148 0.05382 0.0
C241 C 0.12699 0.73811 0.09816 0.0
C242 C 0.33245 0.78541 0.07222 0.0
C243 C 0.30671 0.7766 0.05887 0.0
C244 C 0.23662 0.77163 0.05426 0.0
C245 C 0.16158 0.73096 0.06485 0.0
C246 C 0.19308 0.7364 0.0555 0.0
C247 C 0.28817 0.75179 0.06627 0.0
C248 C 0.25701 0.74667 0.05627 0.0
H249 H 0.10764 0.67393 0.06683 0.0
H250 H 0.15122 0.69147 0.04281 0.0
H251 H 0.18959 0.78618 0.05457 0.0
H252 H 0.32733 0.7315 0.116 0.0
H253 H 0.28306 0.71589 0.09279 0.0
C254 C 0.8105 0.17608 0.14599 0.0
C255 C 0.83364 0.18006 0.16309 0.0
C256 C 0.78638 0.19711 0.14411 0.0
C257 C 0.74704 0.2603 0.17654 0.0
H258 H 0.71699 0.28106 0.11396 0.0
C259 C 0.67436 0.36273 0.12779 0.0
C260 C 0.65133 0.368 0.14475 0.0
C261 C 0.69389 0.33741 0.12975 0.0
C262 C 0.72519 0.27568 0.13158 0.0
H263 H 0.84971 0.2094 0.19153 0.0
H264 H 0.80821 0.24679 0.18771 0.0
H265 H 0.75756 0.24314 0.11825 0.0
H266 H 0.6299 0.34992 0.17652 0.0
H267 H 0.66355 0.30511 0.17959 0.0
H268 H 0.71576 0.29412 0.18972 0.0
C269 C 0.80822 0.22694 0.17614 0.0
C270 C 0.74824 0.25357 0.13407 0.0
C271 C 0.83219 0.20565 0.17822 0.0
C272 C 0.64751 0.34662 0.16322 0.0
C273 C 0.66696 0.32107 0.16508 0.0
C274 C 0.72418 0.28268 0.17401 0.0
C275 C 0.78497 0.22291 0.15907 0.0
C276 C 0.75967 0.24576 0.15657 0.0
C277 C 0.69074 0.31646 0.14858 0.0
C278 C 0.71321 0.2909 0.15147 0.0
H279 H 0.81072 0.15641 0.13423 0.0
H280 H 0.76863 0.1929 0.13106 0.0
H281 H 0.75488 0.25451 0.19417 0.0
H282 H 0.67809 0.37875 0.11337 0.0
H283 H 0.71219 0.33496 0.11691 0.0
C284 C 0.19844 0.81936 0.38091 0.0
C285 C 0.16783 0.81347 0.38728 0.0
C286 C 0.22251 0.8066 0.39381 0.0
C287 C 0.26982 0.7853 0.42941 0.0
H288 H 0.27046 0.69692 0.41985 0.0
C289 C 0.38355 0.72029 0.42027 0.0
C290 C 0.38429 0.70852 0.39717 0.0
C291 C 0.35532 0.7281 0.43066 0.0
C292 C 0.27045 0.72146 0.42333 0.0
H293 H 0.13812 0.79036 0.41245 0.0
H294 H 0.18079 0.7664 0.43458 0.0
H295 H 0.22189 0.72502 0.41751 0.0
H296 H 0.35674 0.6933 0.36751 0.0
H297 H 0.30774 0.70608 0.38566 0.0
H298 H 0.31869 0.78222 0.43296 0.0
C299 C 0.18589 0.78163 0.4199 0.0
C300 C 0.24265 0.73751 0.42211 0.0
C301 C 0.16163 0.79521 0.40727 0.0
C302 C 0.35663 0.70248 0.38533 0.0
C303 C 0.32859 0.7095 0.39585 0.0
C304 C 0.29757 0.76923 0.43082 0.0
C305 C 0.21654 0.78711 0.41311 0.0
C306 C 0.2425 0.76978 0.4235 0.0
C307 C 0.32762 0.72338 0.41826 0.0
C308 C 0.29836 0.73749 0.42611 0.0
H309 H 0.2038 0.83355 0.36566 0.0
H310 H 0.24587 0.81076 0.38792 0.0
H311 H 0.27018 0.8102 0.43069 0.0
H312 H 0.40474 0.72517 0.42963 0.0
H313 H 0.35517 0.73897 0.44788 0.0
C314 C 0.84345 0.30864 0.30949 0.0
C315 C 0.85327 0.3227 0.33057 0.0
C316 C 0.81856 0.28822 0.30955 0.0
C317 C 0.7728 0.23719 0.34769 0.0
H318 H 0.7095 0.24847 0.30011 0.0
C319 C 0.66018 0.16695 0.34998 0.0
C320 C 0.64897 0.15596 0.32824 0.0
C321 C 0.68398 0.18863 0.35064 0.0
C322 C 0.72711 0.24474 0.31336 0.0
H323 H 0.84516 0.32558 0.36838 0.0
H324 H 0.80192 0.28965 0.36847 0.0
H325 H 0.75438 0.28223 0.30033 0.0
H326 H 0.65358 0.15968 0.29013 0.0
H327 H 0.69541 0.19689 0.29128 0.0
H328 H 0.74599 0.19934 0.36047 0.0
C329 C 0.81348 0.29452 0.35191 0.0
C330 C 0.7528 0.26412 0.31348 0.0
C331 C 0.83819 0.31518 0.35182 0.0
C332 C 0.66153 0.16777 0.30719 0.0
C333 C 0.68549 0.18925 0.30785 0.0
C334 C 0.74723 0.21762 0.34745 0.0
C335 C 0.80314 0.28119 0.33072 0.0
C336 C 0.77593 0.26051 0.33061 0.0
C337 C 0.69731 0.19966 0.32959 0.0
C338 C 0.72407 0.22111 0.33026 0.0
H339 H 0.85451 0.31393 0.29281 0.0
H340 H 0.81131 0.27797 0.293 0.0
H341 H 0.79042 0.23369 0.36097 0.0
H342 H 0.65089 0.15848 0.36653 0.0
H343 H 0.69207 0.19659 0.36769 0.0
C344 C 0.82445 0.32322 0.86111 0.0
C345 C 0.8333 0.33596 0.83927 0.0
C346 C 0.8027 0.2995 0.86209 0.0
C347 C 0.74283 0.2596 0.82626 0.0
H348 H 0.75681 0.19278 0.87061 0.0
C349 C 0.67963 0.14368 0.81905 0.0
C350 C 0.66551 0.13277 0.83983 0.0
C351 C 0.70033 0.16826 0.8199 0.0
C352 C 0.75253 0.2114 0.85827 0.0
H353 H 0.82589 0.33407 0.80136 0.0
H354 H 0.78865 0.29232 0.80299 0.0
H355 H 0.7915 0.23707 0.87036 0.0
H356 H 0.66313 0.13834 0.87792 0.0
H357 H 0.69984 0.18107 0.87937 0.0
H358 H 0.70436 0.23339 0.81378 0.0
C359 C 0.79793 0.30102 0.81945 0.0
C360 C 0.77227 0.23688 0.85818 0.0
C361 C 0.81942 0.32493 0.81849 0.0
C362 C 0.67356 0.14622 0.86159 0.0
C363 C 0.6946 0.17062 0.86245 0.0
C364 C 0.72336 0.23399 0.82618 0.0
C365 C 0.7895 0.28776 0.84124 0.0
C366 C 0.76776 0.26124 0.84207 0.0
C367 C 0.70767 0.18226 0.84154 0.0
C368 C 0.72812 0.20958 0.84208 0.0
H369 H 0.83457 0.33133 0.87747 0.0
H370 H 0.79633 0.29029 0.87922 0.0
H371 H 0.73822 0.27816 0.81395 0.0
H372 H 0.67399 0.13389 0.80198 0.0
H373 H 0.71041 0.17653 0.80356 0.0
C374 C 0.31369 0.65755 0.90593 0.0
C375 C 0.3265 0.66763 0.88445 0.0
C376 C 0.29581 0.67768 0.91958 0.0
C377 C 0.27181 0.76007 0.9246 0.0
H378 H 0.18937 0.72638 0.92841 0.0
C379 C 0.15257 0.79785 0.88733 0.0
C380 C 0.15153 0.82907 0.8936 0.0
C381 C 0.17183 0.77756 0.89932 0.0
C382 C 0.21232 0.73614 0.92795 0.0
H383 H 0.3331 0.70701 0.86141 0.0
H384 H 0.30247 0.74191 0.88501 0.0
H385 H 0.23312 0.69168 0.92547 0.0
H386 H 0.16807 0.86323 0.91847 0.0
H387 H 0.2026 0.82763 0.9393 0.0
H388 H 0.25083 0.80451 0.92442 0.0
C389 C 0.30594 0.71869 0.89152 0.0
C390 C 0.23746 0.71622 0.92648 0.0
C391 C 0.32321 0.69857 0.87778 0.0
C392 C 0.16855 0.83924 0.91324 0.0
C393 C 0.18829 0.81891 0.92512 0.0
C394 C 0.24667 0.77998 0.92594 0.0
C395 C 0.29115 0.70828 0.91214 0.0
C396 C 0.26721 0.72807 0.92299 0.0
C397 C 0.19083 0.78806 0.91776 0.0
C398 C 0.21656 0.76815 0.9258 0.0
H399 H 0.31595 0.63375 0.91145 0.0
H400 H 0.28465 0.66905 0.93538 0.0
H401 H 0.29461 0.76981 0.92245 0.0
H402 H 0.13943 0.78929 0.87242 0.0
H403 H 0.17345 0.75413 0.89289 0.0
C404 C 0.62916 0.30849 0.6166 0.0
C405 C 0.63141 0.3333 0.63248 0.0
C406 C 0.6526 0.28663 0.61521 0.0
C407 C 0.73413 0.27274 0.6287 0.0
H408 H 0.70939 0.18695 0.63267 0.0
C409 C 0.79181 0.14919 0.65379 0.0
C410 C 0.81797 0.14942 0.63918 0.0
C411 C 0.76885 0.17134 0.65092 0.0
C412 C 0.71661 0.21081 0.63154 0.0
H413 H 0.66059 0.35521 0.6587 0.0
H414 H 0.70162 0.31707 0.65611 0.0
H415 H 0.67019 0.22715 0.63108 0.0
H416 H 0.84037 0.17293 0.60994 0.0
H417 H 0.80028 0.21175 0.60512 0.0
H418 H 0.78058 0.25637 0.62952 0.0
C419 C 0.68167 0.3146 0.64478 0.0
C420 C 0.69421 0.23377 0.63042 0.0
C421 C 0.6581 0.33633 0.64634 0.0
C422 C 0.82049 0.17208 0.62148 0.0
C423 C 0.79766 0.19442 0.61878 0.0
C424 C 0.75654 0.24974 0.62958 0.0
C425 C 0.67891 0.28928 0.62948 0.0
C426 C 0.70276 0.26497 0.62924 0.0
C427 C 0.7717 0.19433 0.63354 0.0
C428 C 0.74798 0.21858 0.63128 0.0
H429 H 0.60894 0.30549 0.60564 0.0
H430 H 0.65006 0.26749 0.60309 0.0
H431 H 0.74132 0.29661 0.62766 0.0
H432 H 0.78915 0.13204 0.66757 0.0
H433 H 0.74919 0.17091 0.66268 0.0
C434 C 0.22794 0.65066 0.60393 0.0
C435 C 0.20031 0.63632 0.59737 0.0
C436 C 0.23946 0.67531 0.59084 0.0
C437 C 0.26248 0.72612 0.55932 0.0
H438 H 0.19885 0.78851 0.56063 0.0
C439 C 0.29532 0.85146 0.57383 0.0
C440 C 0.28159 0.86103 0.59506 0.0
C441 C 0.28306 0.82645 0.56128 0.0
C442 C 0.21685 0.77134 0.55961 0.0
H443 H 0.16408 0.63493 0.57106 0.0
H444 H 0.18391 0.67895 0.54833 0.0
H445 H 0.18454 0.73427 0.56165 0.0
H446 H 0.24276 0.85445 0.61851 0.0
H447 H 0.22123 0.81146 0.59669 0.0
H448 H 0.29486 0.76319 0.55975 0.0
C449 C 0.19677 0.6708 0.56351 0.0
C450 C 0.20866 0.74021 0.56001 0.0
C451 C 0.18549 0.64563 0.57645 0.0
C452 C 0.25389 0.84734 0.60227 0.0
C453 C 0.24141 0.82285 0.58959 0.0
C454 C 0.27068 0.75725 0.55893 0.0
C455 C 0.22334 0.68652 0.57107 0.0
C456 C 0.23147 0.71738 0.56159 0.0
C457 C 0.25661 0.81116 0.56959 0.0
C458 C 0.24796 0.78012 0.56079 0.0
H459 H 0.2399 0.64379 0.6199 0.0
H460 H 0.25974 0.68708 0.59737 0.0
H461 H 0.28053 0.70896 0.5601 0.0
H462 H 0.31675 0.86166 0.56793 0.0
H463 H 0.2952 0.81799 0.54588 0.0
C464 C 0.01193 0.46213 0.331 0.0
C465 C 0.00176 0.43148 0.32942 0.0
C466 C 0.03243 0.47403 0.31437 0.0
C467 C 0.04732 0.46102 0.25195 0.0
H468 H 0.09116 0.53829 0.25936 0.0
C469 C 0.02966 0.56047 0.18961 0.0
C470 C 0.05399 0.57994 0.18299 0.0
C471 C 0.0343 0.53692 0.20591 0.0
C472 C 0.07967 0.51636 0.25689 0.0
H473 H 0.00822 0.38812 0.31114 0.0
H474 H 0.04468 0.40874 0.28231 0.0
H475 H 0.08359 0.50475 0.29358 0.0
H476 H 0.10243 0.58988 0.18809 0.0
H477 H 0.11046 0.54863 0.21731 0.0
H478 H 0.04242 0.47317 0.21551 0.0
C479 C 0.03602 0.42387 0.29597 0.0
C480 C 0.07504 0.49727 0.27654 0.0
C481 C 0.01525 0.41199 0.31256 0.0
C482 C 0.08328 0.57517 0.1929 0.0
C483 C 0.08787 0.55164 0.20957 0.0
C484 C 0.05214 0.47995 0.23237 0.0
C485 C 0.04344 0.45546 0.29586 0.0
C486 C 0.05712 0.47032 0.27456 0.0
C487 C 0.06336 0.53228 0.21616 0.0
C488 C 0.06665 0.50866 0.23494 0.0
H489 H 0.00231 0.47764 0.34403 0.0
H490 H 0.03738 0.49847 0.31494 0.0
H491 H 0.03342 0.44054 0.24959 0.0
H492 H 0.00683 0.56346 0.18226 0.0
H493 H 0.01478 0.52286 0.21101 0.0
C494 C -0.00095 0.09881 0.18444 0.0
C495 C 0.98676 0.07815 0.16782 0.0
C496 C 0.02224 0.08922 0.19993 0.0
C497 C 0.0723 0.02178 0.21575 0.0
H498 H 0.04096 0.03771 0.27871 0.0
C499 C 0.0467 0.94915 0.30361 0.0
C500 C 0.07473 0.93439 0.30833 0.0
C501 C 0.04532 0.97338 0.28751 0.0
C502 C 0.0503 0.03329 0.26128 0.0
H503 H 0.99154 0.03271 0.15242 0.0
H504 H 0.03118 0.01581 0.17953 0.0
H505 H 0.02433 0.06981 0.24599 0.0
H506 H 0.12343 0.93353 0.30002 0.0
H507 H 0.12084 0.97592 0.2713 0.0
H508 H 0.09615 0.98342 0.23099 0.0
C509 C 0.02331 0.03941 0.18075 0.0
C510 C 0.04108 0.05196 0.2425 0.0
C511 C 0.00025 0.04899 0.1653 0.0
C512 C 0.1015 0.94451 0.29669 0.0
C513 C 0.10004 0.9687 0.2803 0.0
C514 C 0.08144 0.00298 0.23458 0.0
C515 C 0.03345 0.05883 0.19905 0.0
C516 C 0.05063 0.04538 0.2193 0.0
C517 C 0.0719 0.98339 0.27562 0.0
C518 C 0.06914 0.00759 0.25726 0.0
H519 H 0.98933 0.12159 0.18659 0.0
H520 H 0.03 0.10493 0.21356 0.0
H521 H 0.08055 0.01649 0.19814 0.0
H522 H 0.02568 0.94194 0.31232 0.0
H523 H 0.02316 0.98377 0.28391 0.0
C524 C 0.49665 0.00888 0.32473 0.0
C525 C 0.50575 0.03983 0.32272 0.0
C526 C 0.4756 0.99628 0.30882 0.0
C527 C 0.45483 0.00736 0.24719 0.0
H528 H 0.40573 0.93421 0.25886 0.0
C529 C 0.39807 0.89918 0.19167 0.0
C530 C 0.42493 0.89074 0.17946 0.0
C531 C 0.39905 0.92256 0.20874 0.0
C532 C 0.41876 0.95499 0.2553 0.0
H533 H 0.4976 0.08268 0.30399 0.0
H534 H 0.4605 0.06072 0.27628 0.0
H535 H 0.42078 0.96712 0.29198 0.0
H536 H 0.47353 0.90062 0.17499 0.0
H537 H 0.47513 0.94124 0.20436 0.0
H538 H 0.45394 0.99453 0.21071 0.0
C539 C 0.47017 0.04603 0.28986 0.0
C540 C 0.42763 0.97368 0.27426 0.0
C541 C 0.49135 0.05863 0.30577 0.0
C542 C 0.45247 0.90651 0.18415 0.0
C543 C 0.45333 0.93001 0.20083 0.0
C544 C 0.44598 0.98873 0.22832 0.0
C545 C 0.46307 0.01441 0.29058 0.0
C546 C 0.44698 -0.00073 0.27051 0.0
C547 C 0.42675 0.93818 0.21341 0.0
C548 C 0.42915 0.96159 0.23233 0.0
H549 H 0.50711 0.99386 0.33776 0.0
H550 H 0.47093 0.9718 0.30982 0.0
H551 H 0.46985 0.02673 0.24359 0.0
H552 H 0.37655 0.88733 0.18839 0.0
H553 H 0.37828 0.9284 0.21829 0.0
C554 C 0.54304 0.54709 0.13916 0.0
C555 C 0.5412 0.51484 0.13751 0.0
C556 C 0.52515 0.56294 0.15557 0.0
C557 C 0.48561 0.59345 0.19269 0.0
H558 H 0.49297 0.54814 0.25156 0.0
C559 C 0.46451 0.64477 0.28714 0.0
C560 C 0.48759 0.637 0.30354 0.0
C561 C 0.46412 0.63122 0.26469 0.0
C562 C 0.49061 0.56107 0.23524 0.0
H563 H 0.51614 0.47442 0.14926 0.0
H564 H 0.48417 0.50223 0.17749 0.0
H565 H 0.50069 0.5216 0.21445 0.0
H566 H 0.52909 0.61024 0.3089 0.0
H567 H 0.52839 0.58671 0.27001 0.0
H568 H 0.47746 0.63343 0.21409 0.0
C569 C 0.50029 0.51514 0.16673 0.0
C570 C 0.49453 0.54575 0.21387 0.0
C571 C 0.51849 0.49921 0.15049 0.0
C572 C 0.51083 0.6164 0.29682 0.0
C573 C 0.5103 0.60279 0.27457 0.0
C574 C 0.4817 0.60885 0.21422 0.0
C575 C 0.5048 0.54689 0.17049 0.0
C576 C 0.49325 0.56193 0.19234 0.0
C577 C 0.4866 0.60949 0.25849 0.0
C578 C 0.48545 0.59296 0.23567 0.0
H579 H 0.56004 0.5599 0.12913 0.0
H580 H 0.52935 0.58733 0.15791 0.0
H581 H 0.48404 0.60651 0.1764 0.0
H582 H 0.44644 0.66083 0.29184 0.0
H583 H 0.44575 0.6369 0.25252 0.0
C584 C 0.05312 0.53852 0.68815 0.0
C585 C 0.07268 0.56359 0.68369 0.0
C586 C 0.03176 0.53972 0.70642 0.0
C587 C 0.98031 0.55092 0.74048 0.0
H588 H 0.01654 0.56711 0.80186 0.0
C589 C 0.92551 0.49784 0.82183 0.0
C590 C 0.94698 0.48082 0.83503 0.0
C591 C 0.9354 0.52105 0.80642 0.0
C592 C 0.00591 0.56279 0.78486 0.0
H593 H 0.08473 0.61001 0.69437 0.0
H594 H 0.0474 0.61187 0.72701 0.0
H595 H 0.04375 0.58292 0.76609 0.0
H596 H 0.99524 0.4768 0.84425 0.0
H597 H 0.01255 0.51626 0.817 0.0
H598 H 0.94397 0.52825 0.75883 0.0
C599 C 0.04861 0.59142 0.7161 0.0
C600 C 0.02135 0.57218 0.76437 0.0
C601 C 0.06986 0.59036 0.69747 0.0
C602 C 0.97815 0.48925 0.8341 0.0
C603 C 0.98805 0.51223 0.8186 0.0
C604 C 0.965 0.54138 0.76088 0.0
C605 C 0.02954 0.56594 0.72084 0.0
C606 C 0.00948 0.56471 0.74199 0.0
C607 C 0.96696 0.5275 0.8038 0.0
C608 C 0.97847 0.54563 0.78327 0.0
H609 H 0.05466 0.51764 0.67776 0.0
H610 H 0.01785 0.51948 0.70987 0.0
H611 H 0.97038 0.5454 0.72343 0.0
H612 H 0.90124 0.49218 0.82246 0.0
H613 H 0.91848 0.53281 0.79565 0.0
C614 C 0.02361 0.88859 0.79797 0.0
C615 C 0.02807 0.91523 0.81167 0.0
C616 C 0.00432 0.88938 0.77814 0.0
C617 C 0.98477 0.90973 0.72819 0.0
H618 H 0.91199 0.9612 0.72776 0.0
C619 C 0.95693 0.99359 0.65467 0.0
C620 C 0.92674 0.00425 0.65146 0.0
C621 C 0.96314 0.97036 0.67103 0.0
C622 C 0.93172 0.94602 0.72741 0.0
H623 H 0.01485 0.963 0.81614 0.0
H624 H 0.98135 0.96436 0.78182 0.0
H625 H 0.93291 0.94346 0.76516 0.0
H626 H 0.87894 0.99651 0.66075 0.0
H627 H 0.88977 0.95558 0.68919 0.0
H628 H 0.98434 0.91343 0.69042 0.0
C629 C 0.99249 0.94283 0.78631 0.0
C630 C 0.9439 0.93615 0.74893 0.0
C631 C 0.01195 0.94216 0.80586 0.0
C632 C 0.90252 0.98909 0.66313 0.0
C633 C 0.90872 0.96571 0.67947 0.0
C634 C 0.97251 0.91954 0.7066 0.0
C635 C 0.98886 0.91665 0.77199 0.0
C636 C 0.97147 0.91939 0.74957 0.0
C637 C 0.93925 0.95717 0.68445 0.0
C638 C 0.94684 0.93923 0.70606 0.0
H639 H 0.03582 0.86752 0.80209 0.0
H640 H 0.00193 0.8689 0.76737 0.0
H641 H 0.00602 0.89674 0.72814 0.0
H642 H 0.97607 0.00457 0.64571 0.0
H643 H 0.98695 0.96459 0.67446 0.0
C644 C 0.51937 0.98074 0.82925 0.0
C645 C 0.55055 0.98918 0.8298 0.0
C646 C 0.5087 0.95962 0.8126 0.0
C647 C 0.48914 0.91338 0.77607 0.0
H648 H 0.52072 0.93938 0.71512 0.0
C649 C 0.41972 0.89737 0.68957 0.0
C650 C 0.41617 0.9257 0.67779 0.0
C651 C 0.44207 0.89406 0.70726 0.0
C652 C 0.51188 0.93149 0.73199 0.0
H653 H 0.59563 0.97954 0.81519 0.0
H654 H 0.57703 0.94219 0.78625 0.0
H655 H 0.54933 0.95171 0.75069 0.0
H656 H 0.43395 0.97221 0.67447 0.0
H657 H 0.47261 0.9665 0.70504 0.0
H658 H 0.45018 0.89574 0.75724 0.0
C659 C 0.56069 0.95251 0.79831 0.0
C660 C 0.52847 0.93824 0.75245 0.0
C661 C 0.57136 0.97384 0.81493 0.0
C662 C 0.43603 0.95015 0.68331 0.0
C663 C 0.45845 0.94675 0.70067 0.0
C664 C 0.47243 0.9068 0.75555 0.0
C665 C 0.52902 0.9463 0.7962 0.0
C666 C 0.51642 0.93084 0.77483 0.0
C667 C 0.46148 0.91886 0.71308 0.0
C668 C 0.48284 0.9174 0.73348 0.0
H669 H 0.5028 0.99189 0.84068 0.0
H670 H 0.48414 0.95569 0.81148 0.0
H671 H 0.47959 0.90671 0.79301 0.0
H672 H 0.40467 0.87814 0.68561 0.0
H673 H 0.44389 0.87233 0.7166 0.0
C674 C 0.53963 0.49292 0.64052 0.0
C675 C 0.5151 0.47295 0.63529 0.0
C676 C 0.5345 0.51993 0.65332 0.0
C677 C 0.47243 0.56694 0.68209 0.0
H678 H 0.52834 0.56424 0.73547 0.0
C679 C 0.43683 0.61096 0.77423 0.0
C680 C 0.43945 0.58685 0.79073 0.0
C681 C 0.45217 0.60924 0.75248 0.0
C682 C 0.51277 0.56576 0.72054 0.0
H683 H 0.46562 0.46706 0.63722 0.0
H684 H 0.45676 0.51327 0.66016 0.0
H685 H 0.54262 0.53927 0.6988 0.0
H686 H 0.46146 0.54315 0.79822 0.0
H687 H 0.48821 0.54022 0.76069 0.0
H688 H 0.4413 0.59082 0.70493 0.0
C689 C 0.47995 0.50862 0.65419 0.0
C690 C 0.52105 0.55167 0.69936 0.0
C691 C 0.48506 0.48182 0.64122 0.0
C692 C 0.4589 0.56197 0.78576 0.0
C693 C 0.4745 0.56048 0.76434 0.0
C694 C 0.46405 0.58087 0.70341 0.0
C695 C 0.50477 0.52728 0.66134 0.0
C696 C 0.50016 0.55042 0.68037 0.0
C697 C 0.47079 0.5837 0.74724 0.0
C698 C 0.4834 0.57866 0.72324 0.0
H699 H 0.56301 0.48694 0.63578 0.0
H700 H 0.55404 0.53414 0.65808 0.0
H701 H 0.45615 0.56708 0.66758 0.0
H702 H 0.4219 0.63039 0.77769 0.0
H703 H 0.44888 0.62739 0.73957 0.0
C704 C 0.94824 0.69612 0.1795 0.0
C705 C 0.97312 0.71373 0.1712 0.0
C706 C 0.93097 0.70645 0.19883 0.0
C707 C 0.93702 0.71586 0.25147 0.0
H708 H 0.93681 0.80068 0.27256 0.0
C709 C 0.02174 0.76317 0.31459 0.0
C710 C 0.01594 0.78959 0.32805 0.0
C711 C -0.00187 0.74926 0.30176 0.0
C712 C 0.93576 0.77672 0.2673 0.0
H713 H 0.99661 0.75749 0.17376 0.0
H714 H 0.9664 0.7759 0.20678 0.0
H715 H 0.92262 0.78873 0.23197 0.0
H716 H 0.98055 0.82074 0.34041 0.0
H717 H 0.93921 0.79688 0.31725 0.0
H718 H 0.9529 0.7042 0.28617 0.0
C719 C 0.95996 0.75412 0.19888 0.0
C720 C 0.92777 0.7699 0.24393 0.0
C721 C 0.97746 0.7436 0.1799 0.0
C722 C 0.98555 0.80025 0.33021 0.0
C723 C 0.96193 0.78669 0.31692 0.0
C724 C 0.94493 0.72267 0.27482 0.0
C725 C 0.93833 0.73458 0.20983 0.0
C726 C 0.93116 0.73977 0.23523 0.0
C727 C 0.96834 0.7619 0.30175 0.0
C728 C 0.94705 0.75344 0.28227 0.0
H729 H 0.94464 0.67287 0.17311 0.0
H730 H 0.91418 0.69106 0.20668 0.0
H731 H 0.93959 0.69229 0.24554 0.0
H732 H 0.04498 0.75452 0.31268 0.0
H733 H 0.00402 0.73042 0.29008 0.0
C734 C 0.81882 0.02716 0.19359 0.0
C735 C 0.84949 0.03082 0.20062 0.0
C736 C 0.79866 0.00943 0.20716 0.0
C737 C 0.79139 0.98165 0.26927 0.0
H738 H 0.70986 0.96415 0.24538 0.0
C739 C 0.65433 0.98205 0.29738 0.0
C740 C 0.65761 0.00516 0.31449 0.0
C741 C 0.68031 0.96859 0.28715 0.0
C742 C 0.7325 0.96797 0.25274 0.0
H743 H 0.88418 0.01645 0.22576 0.0
H744 H 0.8497 0.98354 0.24854 0.0
H745 H 0.75202 0.96835 0.21819 0.0
H746 H 0.69015 0.03066 0.3358 0.0
H747 H 0.73509 0.00947 0.31706 0.0
H748 H 0.77232 0.97917 0.30392 0.0
C749 C 0.84046 0.99569 0.23341 0.0
C750 C 0.75684 0.97118 0.23684 0.0
C751 C 0.8604 0.01434 0.22025 0.0
C752 C 0.68705 0.01277 0.32265 0.0
C753 C 0.713 0.00027 0.31183 0.0
C754 C 0.76731 0.97708 0.28525 0.0
C755 C 0.8089 0.99414 0.22776 0.0
C756 C 0.78605 0.9807 0.2447 0.0
C757 C 0.71007 0.97914 0.29299 0.0
C758 C 0.73696 0.97287 0.27714 0.0
H759 H 0.80984 0.03976 0.17855 0.0
H760 H 0.77466 0.00961 0.20215 0.0
H761 H 0.81349 0.98829 0.27641 0.0
H762 H 0.63171 0.97549 0.29109 0.0
H763 H 0.67681 0.95136 0.27362 0.0
C764 C 0.55202 0.69755 0.33811 0.0
C765 C 0.5342 0.72193 0.3471 0.0
C766 C 0.55908 0.69622 0.31394 0.0
C767 C 0.55774 0.74204 0.25823 0.0
H768 H 0.52314 0.6683 0.23016 0.0
C769 C 0.50809 0.75136 0.1669 0.0
C770 C 0.47667 0.74397 0.16833 0.0
C771 C 0.52877 0.73935 0.18353 0.0
C772 C 0.53341 0.68887 0.2376 0.0
H773 H 0.51296 0.76562 0.33844 0.0
H774 H 0.52569 0.76368 0.29669 0.0
H775 H 0.53589 0.66886 0.27214 0.0
H776 H 0.44303 0.71492 0.18575 0.0
H777 H 0.47864 0.69415 0.21455 0.0
H778 H 0.55275 0.76313 0.22439 0.0
C779 C 0.53385 0.74531 0.30805 0.0
C780 C 0.5409 0.6891 0.26166 0.0
C781 C 0.52634 0.74634 0.33198 0.0
C782 C 0.4671 0.72127 0.18445 0.0
C783 C 0.48769 0.70916 0.2009 0.0
C784 C 0.55028 0.74185 0.23422 0.0
C785 C 0.54934 0.71974 0.29857 0.0
C786 C 0.55125 0.71633 0.27249 0.0
C787 C 0.5183 0.7197 0.20169 0.0
C788 C 0.53613 0.7159 0.22398 0.0
H789 H 0.5589 0.67859 0.34938 0.0
H790 H 0.57117 0.67632 0.30715 0.0
H791 H 0.56626 0.76318 0.26603 0.0
H792 H 0.51612 0.76873 0.15458 0.0
H793 H 0.55235 0.74746 0.18339 0.0
C794 C 0.71326 0.5034 0.16871 0.0
C795 C 0.68291 0.51204 0.17365 0.0
C796 C 0.737 0.5117 0.18406 0.0
C797 C 0.74645 0.53257 0.24731 0.0
H798 H 0.8318 0.52222 0.22973 0.0
C799 C 0.87384 0.4959 0.28746 0.0
C800 C 0.86277 0.47493 0.30432 0.0
C801 C 0.8534 0.51383 0.27427 0.0
C802 C 0.8083 0.52601 0.23527 0.0
H803 H 0.65379 0.53884 0.19682 0.0
H804 H 0.69547 0.55531 0.22273 0.0
H805 H 0.79414 0.53247 0.19949 0.0
H806 H 0.82212 0.45725 0.32171 0.0
H807 H 0.78631 0.48654 0.29782 0.0
H808 H 0.76079 0.52758 0.28319 0.0
C809 C 0.70096 0.54068 0.20784 0.0
C810 C 0.78641 0.53127 0.21766 0.0
C811 C 0.67706 0.53156 0.19287 0.0
C812 C 0.83116 0.47346 0.30887 0.0
C813 C 0.81062 0.49057 0.29516 0.0
C814 C 0.76848 0.52837 0.265 0.0
C815 C 0.73103 0.52953 0.20439 0.0
C816 C 0.75492 0.53259 0.22326 0.0
C817 C 0.82137 0.51018 0.277 0.0
C818 C 0.79946 0.52301 0.25914 0.0
H819 H 0.71831 0.48817 0.15406 0.0
H820 H 0.75955 0.50215 0.18072 0.0
H821 H 0.72258 0.53363 0.25264 0.0
H822 H 0.89827 0.49763 0.2839 0.0
H823 H 0.86279 0.52944 0.26119 0.0
C824 C 0.98132 0.13512 0.70486 0.0
C825 C 0.9641 0.1459 0.6856 0.0
C826 C -0.00287 0.15579 0.71942 0.0
C827 C 0.01248 0.24105 0.72762 0.0
H828 H 0.00843 0.218 0.79369 0.0
C829 C 0.97453 0.29962 0.81999 0.0
C830 C 0.98148 0.33015 0.81401 0.0
C831 C 0.98608 0.27542 0.80644 0.0
C832 C 0.00936 0.2251 0.77535 0.0
H833 H 0.95066 0.18628 0.66572 0.0
H834 H 0.97583 0.2225 0.69182 0.0
H835 H 0.00127 0.17922 0.76387 0.0
H836 H 0.00882 0.3595 0.79129 0.0
H837 H 0.03139 0.31729 0.76895 0.0
H838 H 0.01655 0.28745 0.739 0.0
C839 C 0.97882 0.19822 0.69544 0.0
C840 C 0.00594 0.20247 0.75801 0.0
C841 C 0.964 0.17744 0.68044 0.0
C842 C 0.00287 0.33603 0.79601 0.0
C843 C 0.0154 0.31175 0.78299 0.0
C844 C 0.01462 0.26384 0.74494 0.0
C845 C 0.99496 0.18783 0.7156 0.0
C846 C 0.00587 0.21034 0.73382 0.0
C847 C 0.00563 0.28118 0.78698 0.0
C848 C 0.01148 0.25643 0.7691 0.0
H849 H 0.98202 0.11074 0.70896 0.0
H850 H 0.01011 0.14656 0.73413 0.0
H851 H 0.01424 0.24804 0.70929 0.0
H852 H 0.95787 0.29454 0.83371 0.0
H853 H 0.97748 0.25257 0.81026 0.0
C854 C 0.29323 0.02376 0.68112 0.0
C855 C 0.27769 -0.00142 0.67114 0.0
C856 C 0.27956 0.04054 0.69944 0.0
C857 C 0.26073 0.0357 0.75092 0.0
H858 H 0.17303 0.03939 0.76271 0.0
C859 C 0.19915 0.96029 0.81493 0.0
C860 C 0.17207 0.96959 0.82625 0.0
C861 C 0.2158 0.98108 0.80115 0.0
C862 C 0.19768 0.03947 0.75994 0.0
H863 H 0.23489 0.97326 0.67013 0.0
H864 H 0.21068 0.00275 0.70143 0.0
H865 H 0.19256 0.04916 0.723 0.0
H866 H 0.14204 0.00821 0.83346 0.0
H867 H 0.17069 0.04455 0.8084 0.0
H868 H 0.26553 0.02297 0.78734 0.0
C869 C 0.23326 0.00986 0.69542 0.0
C870 C 0.20885 0.04492 0.73713 0.0
C871 C 0.24709 0.99283 0.67747 0.0
C872 C 0.16306 0.00062 0.825 0.0
C873 C 0.17934 0.02135 0.81066 0.0
C874 C 0.24956 0.03013 0.77368 0.0
C875 C 0.25013 0.03242 0.70775 0.0
C876 C 0.2402 0.04063 0.73205 0.0
C877 C 0.20525 0.01141 0.79794 0.0
C878 C 0.21774 0.02962 0.77792 0.0
H879 H 0.31705 0.02827 0.67663 0.0
H880 H 0.29304 0.05788 0.70853 0.0
H881 H 0.28505 0.0323 0.74769 0.0
H882 H 0.20648 0.93645 0.81563 0.0
H883 H 0.23541 0.97256 0.79133 0.0
C884 C 0.49395 0.13179 0.7973 0.0
C885 C 0.51752 0.1386 0.81338 0.0
C886 C 0.47965 0.15536 0.78452 0.0
C887 C 0.48113 0.24179 0.77513 0.0
H888 H 0.46353 0.21746 0.71068 0.0
C889 C 0.49607 0.2936 0.67545 0.0
C890 C 0.49284 0.32494 0.68075 0.0
C891 C 0.48833 0.27122 0.69221 0.0
C892 C 0.46872 0.22485 0.72851 0.0
H893 H 0.54395 0.17509 0.8296 0.0
H894 H 0.52096 0.21596 0.80639 0.0
H895 H 0.47123 0.17845 0.74036 0.0
H896 H 0.47629 0.3576 0.70663 0.0
H897 H 0.46038 0.31865 0.7352 0.0
H898 H 0.48222 0.28806 0.7627 0.0
C899 C 0.51204 0.19288 0.80411 0.0
C900 C 0.47246 0.20225 0.74588 0.0
C901 C 0.52549 0.16939 0.81748 0.0
C902 C 0.47926 0.3335 0.70225 0.0
C903 C 0.47054 0.31108 0.71874 0.0
C904 C 0.47847 0.26435 0.75759 0.0
C905 C 0.48964 0.18615 0.78677 0.0
C906 C 0.47985 0.21029 0.76936 0.0
C907 C 0.47632 0.27964 0.71447 0.0
C908 C 0.47334 0.25618 0.7338 0.0
H909 H 0.48737 0.1081 0.79397 0.0
H910 H 0.46172 0.14911 0.77214 0.0
H911 H 0.48555 0.24923 0.79307 0.0
H912 H 0.50681 0.28641 0.65907 0.0
H913 H 0.49373 0.24753 0.68809 0.0
C914 C 0.32183 0.49012 0.82158 0.0
C915 C 0.30839 0.51942 0.82358 0.0
C916 C 0.3077 0.46737 0.80775 0.0
C917 C 0.29137 0.44908 0.75733 0.0
H918 H 0.2042 0.4494 0.7432 0.0
C919 C 0.24227 0.50228 0.67775 0.0
C920 C 0.21239 0.49563 0.67006 0.0
C921 C 0.25644 0.48365 0.69461 0.0
C922 C 0.22861 0.44788 0.74686 0.0
H923 H 0.26823 0.54679 0.81547 0.0
H924 H 0.24328 0.5073 0.79198 0.0
H925 H 0.22131 0.45575 0.78379 0.0
H926 H 0.17489 0.46288 0.67188 0.0
H927 H 0.19944 0.43041 0.70195 0.0
H928 H 0.2987 0.44402 0.72011 0.0
C929 C 0.26467 0.50156 0.80077 0.0
C930 C 0.2384 0.45177 0.7702 0.0
C931 C 0.27902 0.52438 0.81413 0.0
C932 C 0.19814 0.46822 0.67745 0.0
C933 C 0.21211 0.44978 0.69474 0.0
C934 C 0.28157 0.4451 0.73399 0.0
C935 C 0.27975 0.47353 0.79614 0.0
C936 C 0.26986 0.45524 0.77529 0.0
C937 C 0.2406 0.45844 0.70454 0.0
C938 C 0.25018 0.44736 0.72831 0.0
H939 H 0.3446 0.48584 0.82863 0.0
H940 H 0.31978 0.44597 0.80459 0.0
H941 H 0.31582 0.45129 0.76064 0.0
H942 H 0.25353 0.52345 0.67235 0.0
H943 H 0.27827 0.49126 0.70179 0.0
C944 C 0.01788 0.55697 0.06622 0.0
C945 C -0.00215 0.57824 0.07679 0.0
C946 C 0.00628 0.53261 0.05283 0.0
C947 C 0.93894 0.50915 0.0184 0.0
H948 H 0.97676 0.42837 0.02185 0.0
C949 C 0.90277 0.4165 0.95331 0.0
C950 C 0.92779 0.40388 0.94097 0.0
C951 C 0.90742 0.43158 0.97479 0.0
C952 C 0.96592 0.45077 0.02075 0.0
H953 H 0.94997 0.59079 0.08155 0.0
H954 H 0.9297 0.54822 0.05804 0.0
H955 H 0.9929 0.46874 0.04928 0.0
H956 H 0.97667 0.39421 0.94261 0.0
H957 H 0.9849 0.42093 0.97982 0.0
H958 H 0.91283 0.4918 0.98938 0.0
C959 C 0.95438 0.5505 0.06005 0.0
C960 C 0.97521 0.47389 0.03637 0.0
C961 C 0.96599 0.57487 0.07348 0.0
C962 C 0.95696 0.40387 0.95164 0.0
C963 C 0.96165 0.41912 0.97307 0.0
C964 C 0.92969 0.4861 0.00279 0.0
C965 C 0.97441 0.52901 0.04971 0.0
C966 C 0.96233 0.50353 0.03496 0.0
C967 C 0.93719 0.43445 0.98425 0.0
C968 C 0.94356 0.45686 0.00342 0.0
H969 H 0.04255 0.55893 0.06846 0.0
H970 H 0.02233 0.51679 0.04469 0.0
H971 H 0.92881 0.53183 0.0167 0.0
H972 H 0.87991 0.41648 0.94566 0.0
H973 H 0.888 0.44253 0.98331 0.0
C974 C 0.04186 0.98969 0.93135 0.0
C975 C 0.03933 0.95829 0.92571 0.0
C976 C 0.02074 0.00342 0.94664 0.0
C977 C 0.96518 0.98503 0.99354 0.0
H978 H 0.93477 0.06738 0.98078 0.0
C979 C 0.88494 0.04201 0.05929 0.0
C980 C 0.89548 0.07099 0.0668 0.0
C981 C 0.8957 0.02933 0.03821 0.0
C982 C 0.94302 0.04435 0.98453 0.0
H983 H 0.0129 0.91657 0.93178 0.0
H984 H 0.97604 0.94054 0.95838 0.0
H985 H 0.96897 0.04242 0.95237 0.0
H986 H 0.92283 0.11085 0.05696 0.0
H987 H 0.94194 0.08856 0.02038 0.0
H988 H 0.9401 0.9871 0.0259 0.0
C989 C 0.99447 0.95451 0.95117 0.0
C990 C 0.9627 0.03014 0.96835 0.0
C991 C 0.01559 0.94078 0.93592 0.0
C992 C 0.91444 0.08836 0.0517 0.0
C993 C 0.92533 0.07561 0.03066 0.0
C994 C 0.94555 -0.00081 0.00966 0.0
C995 C 0.99669 0.98601 0.95657 0.0
C996 C 0.97435 0.00051 0.9729 0.0
C997 C 0.91728 0.04535 0.02433 0.0
C998 C 0.9346 0.02917 0.00552 0.0
H999 H 0.05991 0.00379 0.92372 0.0
H1000 H 0.02337 0.02763 0.95081 0.0
H1001 H 0.97408 0.96237 -0.00228 0.0
H1002 H 0.86998 0.02825 0.07042 0.0
H1003 H 0.88851 0.00625 0.03346 0.0
C1004 C 0.50333 0.88067 0.06595 0.0
C1005 C 0.47151 0.88173 0.07026 0.0
C1006 C 0.51745 0.90318 0.05191 0.0
C1007 C 0.50602 0.98246 0.0295 0.0
H1008 H 0.56531 0.95886 0.98172 0.0
C1009 C 0.53606 0.05693 0.94844 0.0
C1010 C 0.5655 0.05435 0.93839 0.0
C1011 C 0.52823 0.0397 0.96845 0.0
C1012 C 0.54931 0.96601 -0.00468 0.0
H1013 H 0.42946 0.90682 0.06282 0.0
H1014 H 0.45398 0.94569 0.03812 0.0
H1015 H 0.54416 0.91986 0.00806 0.0
H1016 H 0.61075 0.03415 0.94282 0.0
H1017 H 0.59723 0.00454 0.978 0.0
H1018 H 0.51065 0.02853 0.01635 0.0
C1019 C 0.46813 0.92784 0.04591 0.0
C1020 C 0.5371 0.94358 0.01036 0.0
C1021 C 0.45403 0.90536 0.05988 0.0
C1022 C 0.58777 0.03641 0.95 0.0
C1023 C 0.57996 0.01923 0.97004 0.0
C1024 C 0.51827 0.00492 0.01446 0.0
C1025 C 0.50004 0.92722 0.04198 0.0
C1026 C 0.51486 0.95144 0.0273 0.0
C1027 C 0.54973 0.01965 0.97886 0.0
C1028 C 0.53965 0.99686 -0.00309 0.0
H1029 H 0.51743 0.86284 0.07381 0.0
H1030 H 0.5421 0.90215 0.04928 0.0
H1031 H 0.48936 0.98933 0.04271 0.0
H1032 H 0.51839 0.0706 0.93994 0.0
H1033 H 0.50471 0.04052 0.97471 0.0
C1034 C 0.46013 0.52313 0.91214 0.0
C1035 C 0.4583 0.55371 0.90412 0.0
C1036 C 0.48596 0.51304 0.92461 0.0
C1037 C 0.54956 0.54197 0.96101 0.0
H1038 H 0.58122 0.45915 0.95298 0.0
C1039 C 0.63623 0.49731 0.02678 0.0
C1040 C 0.62528 0.4704 0.03777 0.0
C1041 C 0.62511 0.5059 0.00455 0.0
C1042 C 0.57279 0.48242 0.95528 0.0
H1043 H 0.48212 0.59765 0.90274 0.0
H1044 H 0.52719 0.58 0.9244 0.0
H1045 H 0.54127 0.4783 0.92632 0.0
H1046 H 0.59771 0.4292 0.03279 0.0
H1047 H 0.57804 0.44434 -0.00563 0.0
H1048 H 0.57989 0.54582 0.99048 0.0
C1049 C 0.50856 0.56391 0.92128 0.0
C1050 C 0.54981 0.49331 0.94014 0.0
C1051 C 0.48272 0.57402 0.9089 0.0
C1052 C 0.60622 0.45033 0.02491 0.0
C1053 C 0.59506 0.45895 0.00275 0.0
C1054 C 0.57248 0.53113 0.97609 0.0
C1055 C 0.51051 0.53329 0.92924 0.0
C1056 C 0.53735 0.52289 0.9433 0.0
C1057 C 0.60289 0.48773 0.99304 0.0
C1058 C 0.58373 0.50093 0.97385 0.0
H1059 H 0.44171 0.50692 0.90867 0.0
H1060 H 0.4865 0.48947 0.93091 0.0
H1061 H 0.54026 0.56474 0.9641 0.0
H1062 H 0.6513 0.51303 0.03612 0.0
H1063 H 0.63212 0.52788 -0.00279 0.0
C1064 C 0.01147 0.92983 0.42469 0.0
C1065 C 0.04296 0.92846 0.41926 0.0
C1066 C -6e-05 0.95385 0.43845 0.0
C1067 C 0.02267 0.01167 0.48222 0.0
H1068 H 0.94525 0.04992 0.4649 0.0
C1069 C 0.96961 0.10029 0.54348 0.0
C1070 C 0.93921 0.09286 0.54972 0.0
C1071 C 0.98279 0.08773 0.52316 0.0
C1072 C 0.96692 0.03952 0.46992 0.0
H1073 H 0.08719 0.95075 0.42436 0.0
H1074 H 0.06704 0.99256 0.44852 0.0
H1075 H 0.96772 0.0108 0.43916 0.0
H1076 H 0.89768 0.06949 0.53823 0.0
H1077 H 0.92071 0.04723 0.50312 0.0
H1078 H 0.02147 0.03931 0.51335 0.0
C1079 C 0.0513 0.97507 0.44216 0.0
C1080 C 0.9797 0.01706 0.45526 0.0
C1081 C 0.06282 0.95111 0.42835 0.0
C1082 C 0.92126 0.07542 0.53399 0.0
C1083 C 0.93447 0.06275 0.51375 0.0
C1084 C 0.00988 0.03402 0.49689 0.0
C1085 C 0.01969 0.97689 0.4471 0.0
C1086 C 0.00737 0.00246 0.46155 0.0
C1087 C 0.96582 0.06746 0.50881 0.0
C1088 C 0.98154 0.04774 0.49117 0.0
H1089 H 0.99559 0.91274 0.4179 0.0
H1090 H 0.97556 0.95436 0.44236 0.0
H1091 H 0.04387 0.00064 0.48763 0.0
H1092 H 0.98391 0.11402 0.55511 0.0
H1093 H 0.0068 0.09239 0.51947 0.0
C1094 C 0.55461 0.09203 0.44246 0.0
C1095 C 0.57185 0.06835 0.432 0.0
C1096 C 0.53905 0.08686 0.46371 0.0
C1097 C 0.52741 0.03007 0.51255 0.0
H1098 H 0.44194 0.05426 0.50607 0.0
C1099 C 0.42916 0.96629 0.55956 0.0
C1100 C 0.40566 0.98392 0.56985 0.0
C1101 C 0.45149 0.98028 0.54544 0.0
C1102 C 0.4658 0.04775 0.50838 0.0
H1103 H 0.58883 0.02178 0.43671 0.0
H1104 H 0.56137 0.01258 0.47342 0.0
H1105 H 0.47986 0.07383 0.47823 0.0
H1106 H 0.38681 0.02996 0.57314 0.0
H1107 H 0.42574 0.05437 0.54818 0.0
H1108 H 0.51288 0.0029 0.54216 0.0
C1109 C 0.5599 0.03521 0.46542 0.0
C1110 C 0.48762 0.0591 0.4925 0.0
C1111 C 0.57557 0.04043 0.44426 0.0
C1112 C 0.40457 0.01575 0.56535 0.0
C1113 C 0.42685 0.02973 0.5511 0.0
C1114 C 0.50553 0.0186 0.52837 0.0
C1115 C 0.54037 0.05789 0.47482 0.0
C1116 C 0.51856 0.04982 0.49405 0.0
C1117 C 0.45072 0.01217 0.54123 0.0
C1118 C 0.4744 0.02677 0.52608 0.0
H1119 H 0.55161 0.11393 0.43356 0.0
H1120 H 0.52475 0.10503 0.47081 0.0
H1121 H 0.55113 0.02285 0.51443 0.0
H1122 H 0.43066 0.94172 0.56272 0.0
H1123 H 0.46929 0.96608 0.53768 0.0
C1124 C 0.54122 0.38185 0.52391 0.0
C1125 C 0.51629 0.37863 0.53951 0.0
C1126 C 0.53761 0.39763 0.50259 0.0
C1127 C 0.48262 0.43872 0.46328 0.0
H1128 H 0.54347 0.50386 0.4679 0.0
C1129 C 0.46468 0.55987 0.42278 0.0
C1130 C 0.49065 0.57631 0.41504 0.0
C1131 C 0.46804 0.53122 0.43385 0.0
C1132 C 0.52665 0.48564 0.46581 0.0
H1133 H 0.46719 0.38549 0.54364 0.0
H1134 H 0.46097 0.41345 0.50652 0.0
H1135 H 0.54876 0.4583 0.49209 0.0
H1136 H 0.5403 0.57515 0.41169 0.0
H1137 H 0.54615 0.52492 0.43013 0.0
H1138 H 0.46024 0.46662 0.43716 0.0
C1139 C 0.48328 0.4038 0.5107 0.0
C1140 C 0.52973 0.45938 0.47975 0.0
C1141 C 0.48686 0.38778 0.53201 0.0
C1142 C 0.51991 0.56324 0.41789 0.0
C1143 C 0.52324 0.53444 0.42852 0.0
C1144 C 0.47971 0.465 0.44904 0.0
C1145 C 0.50906 0.41062 0.49662 0.0
C1146 C 0.50755 0.43584 0.47895 0.0
C1147 C 0.49742 0.51827 0.43704 0.0
C1148 C 0.50145 0.48903 0.45046 0.0
H1149 H 0.56409 0.37457 0.52908 0.0
H1150 H 0.55771 0.40192 0.49175 0.0
H1151 H 0.46518 0.42092 0.46234 0.0
H1152 H 0.44183 0.56941 0.42072 0.0
H1153 H 0.44768 0.5197 0.44046 0.0
C1154 C 0.93359 0.39574 0.44784 0.0
C1155 C 0.919 0.41866 0.43434 0.0
C1156 C 0.94726 0.40312 0.46945 0.0
C1157 C 0.95836 0.46552 0.51385 0.0
H1158 H 0.04295 0.43726 0.5126 0.0
C1159 C 0.05596 0.5289 0.56251 0.0
C1160 C 0.07863 0.5111 0.57375 0.0
C1161 C 0.03376 0.5149 0.54825 0.0
C1162 C 0.0193 0.44497 0.51352 0.0
H1163 H 0.90424 0.46637 0.43408 0.0
H1164 H 0.92839 0.47933 0.47155 0.0
H1165 H 0.00608 0.4161 0.48476 0.0
H1166 H 0.09594 0.46472 0.57882 0.0
H1167 H 0.05716 0.44027 0.55396 0.0
H1168 H 0.97205 0.49516 0.54222 0.0
C1169 C 0.9293 0.45566 0.46556 0.0
C1170 C -0.00193 0.43273 0.49761 0.0
C1171 C 0.91553 0.44825 0.444 0.0
C1172 C 0.07889 0.47908 0.57024 0.0
C1173 C 0.05668 0.46507 0.55601 0.0
C1174 C 0.97964 0.47778 0.52982 0.0
C1175 C 0.94664 0.43355 0.4779 0.0
C1176 C 0.9675 0.44327 0.49727 0.0
C1177 C 0.03377 0.48281 0.54496 0.0
C1178 C 0.01049 0.46806 0.52948 0.0
H1179 H 0.93629 0.37261 0.441 0.0
H1180 H 0.95986 0.38543 0.47886 0.0
H1181 H 0.9349 0.47389 0.51416 0.0
H1182 H 0.05514 0.55364 0.56489 0.0
H1183 H 0.01677 0.52926 0.53962 0.0
loop_
_geom_bond_atom_site_label_1
_geom_bond_atom_site_label_2
_geom_bond_distance
_geom_bond_site_symmetry_2
_ccdc_geom_bond_type
C0 O1 1.306 . S
C0 O3 1.160 . S
O1 C0 1.306 . S
O1 Cd2 2.228 . S
Cd2 O1 2.228 . S
Cd2 O6 2.273 . S
Cd2 O10 2.277 . S
O3 C0 1.160 . S
O3 Cd4 2.203 . S
Cd4 O3 2.203 . S
Cd4 O6 2.411 . S
Cd4 O7 2.333 1_455 S
Cd4 O8 2.352 . S
Cd4 O12 2.277 . S
Cd4 O13 2.356 . S
C5 O10 1.209 . S
C5 O12 1.226 . S
O6 Cd2 2.273 . S
O6 Cd4 2.411 . S
O6 C9 1.320 . S
O7 Cd4 2.333 1_655 S
O7 C9 1.214 1_655 S
O8 Cd4 2.352 . S
O8 C11 1.258 . S
C9 O6 1.320 . S
C9 O7 1.214 1_455 S
O10 Cd2 2.277 . S
O10 C5 1.209 . S
C11 O8 1.258 . S
C11 O13 1.282 . S
O12 Cd4 2.277 . S
O12 C5 1.226 . S
O13 Cd4 2.356 . S
O13 C11 1.282 . S
C14 O15 1.306 . S
C14 O17 1.160 . S
O15 C14 1.306 . S
O15 Cd16 2.228 . S
Cd16 O15 2.228 . S
Cd16 O20 2.273 . S
Cd16 O24 2.277 . S
O17 C14 1.160 . S
O17 Cd18 2.203 . S
Cd18 O17 2.203 . S
Cd18 O20 2.411 . S
Cd18 O21 2.333 1_545 S
Cd18 O22 2.352 . S
Cd18 O26 2.277 . S
Cd18 O27 2.356 . S
C19 O24 1.209 . S
C19 O26 1.226 . S
O20 Cd16 2.273 . S
O20 Cd18 2.411 . S
O20 C23 1.320 . S
O21 Cd18 2.333 1_565 S
O21 C23 1.214 1_565 S
O22 Cd18 2.352 . S
O22 C25 1.258 . S
C23 O20 1.320 . S
C23 O21 1.214 1_545 S
O24 Cd16 2.277 . S
O24 C19 1.209 . S
C25 O22 1.258 . S
C25 O27 1.282 . S
O26 Cd18 2.277 . S
O26 C19 1.226 . S
O27 Cd18 2.356 . S
O27 C25 1.282 . S
C28 O29 1.306 . S
C28 O31 1.160 . S
O29 C28 1.306 . S
O29 Cd30 2.228 . S
Cd30 O29 2.228 . S
Cd30 O34 2.273 . S
Cd30 O38 2.277 . S
O31 C28 1.160 . S
O31 Cd32 2.203 . S
Cd32 O31 2.203 . S
Cd32 O34 2.411 . S
Cd32 O35 2.333 . S
Cd32 O36 2.352 . S
Cd32 O40 2.277 . S
Cd32 O41 2.356 . S
C33 O38 1.209 . S
C33 O40 1.226 . S
O34 Cd30 2.273 . S
O34 Cd32 2.411 . S
O34 C37 1.320 . S
O35 Cd32 2.333 . S
O35 C37 1.214 . S
O36 Cd32 2.352 . S
O36 C39 1.258 . S
C37 O34 1.320 . S
C37 O35 1.214 . S
O38 Cd30 2.277 . S
O38 C33 1.209 . S
C39 O36 1.258 . S
C39 O41 1.282 . S
O40 Cd32 2.277 . S
O40 C33 1.226 . S
O41 Cd32 2.356 . S
O41 C39 1.282 . S
C42 O43 1.306 . S
C42 O45 1.160 . S
O43 C42 1.306 . S
O43 Cd44 2.228 . S
Cd44 O43 2.228 . S
Cd44 O48 2.273 . S
Cd44 O52 2.277 . S
O45 C42 1.160 . S
O45 Cd46 2.203 . S
Cd46 O45 2.203 . S
Cd46 O48 2.411 . S
Cd46 O49 2.333 . S
Cd46 O50 2.352 . S
Cd46 O54 2.277 . S
Cd46 O55 2.356 . S
C47 O52 1.209 . S
C47 O54 1.226 . S
O48 Cd44 2.273 . S
O48 Cd46 2.411 . S
O48 C51 1.320 . S
O49 Cd46 2.333 . S
O49 C51 1.214 . S
O50 Cd46 2.352 . S
O50 C53 1.258 . S
C51 O48 1.320 . S
C51 O49 1.214 . S
O52 Cd44 2.277 . S
O52 C47 1.209 . S
C53 O50 1.258 . S
C53 O55 1.282 . S
O54 Cd46 2.277 . S
O54 C47 1.226 . S
O55 Cd46 2.356 . S
O55 C53 1.282 . S
C56 O57 1.306 . S
C56 O59 1.160 . S
O57 C56 1.306 . S
O57 Cd58 2.228 . S
Cd58 O57 2.228 . S
Cd58 O62 2.273 . S
Cd58 O66 2.277 . S
O59 C56 1.160 . S
O59 Cd60 2.203 . S
Cd60 O59 2.203 . S
Cd60 O62 2.411 . S
Cd60 O63 2.333 1_455 S
Cd60 O64 2.352 . S
Cd60 O68 2.277 . S
Cd60 O69 2.356 . S
C61 O66 1.209 . S
C61 O68 1.226 . S
O62 Cd58 2.273 . S
O62 Cd60 2.411 . S
O62 C65 1.320 . S
O63 Cd60 2.333 1_655 S
O63 C65 1.214 1_655 S
O64 Cd60 2.352 . S
O64 C67 1.258 . S
C65 O62 1.320 . S
C65 O63 1.214 1_455 S
O66 Cd58 2.277 . S
O66 C61 1.209 . S
C67 O64 1.258 . S
C67 O69 1.282 . S
O68 Cd60 2.277 . S
O68 C61 1.226 . S
O69 Cd60 2.356 . S
O69 C67 1.282 . S
C70 O71 1.306 . S
C70 O73 1.160 . S
O71 C70 1.306 . S
O71 Cd72 2.228 . S
Cd72 O71 2.228 . S
Cd72 O76 2.273 . S
Cd72 O80 2.277 . S
O73 C70 1.160 . S
O73 Cd74 2.203 . S
Cd74 O73 2.203 . S
Cd74 O76 2.411 . S
Cd74 O77 2.333 1_545 S
Cd74 O78 2.352 . S
Cd74 O82 2.277 . S
Cd74 O83 2.356 . S
C75 O80 1.209 . S
C75 O82 1.226 . S
O76 Cd72 2.273 . S
O76 Cd74 2.411 . S
O76 C79 1.320 . S
O77 Cd74 2.333 1_565 S
O77 C79 1.214 1_565 S
O78 Cd74 2.352 . S
O78 C81 1.258 . S
C79 O76 1.320 . S
C79 O77 1.214 1_545 S
O80 Cd72 2.277 . S
O80 C75 1.209 . S
C81 O78 1.258 . S
C81 O83 1.282 . S
O82 Cd74 2.277 . S
O82 C75 1.226 . S
O83 Cd74 2.356 . S
O83 C81 1.282 . S
C84 O85 1.306 . S
C84 O87 1.160 . S
O85 C84 1.306 . S
O85 Cd86 2.228 . S
Cd86 O85 2.228 . S
Cd86 O90 2.273 . S
Cd86 O94 2.277 . S
O87 C84 1.160 . S
O87 Cd88 2.203 . S
Cd88 O87 2.203 . S
Cd88 O90 2.411 . S
Cd88 O91 2.333 . S
Cd88 O92 2.352 . S
Cd88 O96 2.277 . S
Cd88 O97 2.356 . S
C89 O94 1.209 . S
C89 O96 1.226 . S
O90 Cd86 2.273 . S
O90 Cd88 2.411 . S
O90 C93 1.320 . S
O91 Cd88 2.333 . S
O91 C93 1.214 . S
O92 Cd88 2.352 . S
O92 C95 1.258 . S
C93 O90 1.320 . S
C93 O91 1.214 . S
O94 Cd86 2.277 . S
O94 C89 1.209 . S
C95 O92 1.258 . S
C95 O97 1.282 . S
O96 Cd88 2.277 . S
O96 C89 1.226 . S
O97 Cd88 2.356 . S
O97 C95 1.282 . S
C98 O99 1.306 . S
C98 O101 1.160 . S
O99 C98 1.306 . S
O99 Cd100 2.228 . S
Cd100 O99 2.228 . S
Cd100 O104 2.273 . S
Cd100 O108 2.277 . S
O101 C98 1.160 . S
O101 Cd102 2.203 . S
Cd102 O101 2.203 . S
Cd102 O104 2.411 . S
Cd102 O105 2.333 . S
Cd102 O106 2.352 . S
Cd102 O110 2.277 . S
Cd102 O111 2.356 . S
C103 O108 1.209 . S
C103 O110 1.226 . S
O104 Cd100 2.273 . S
O104 Cd102 2.411 . S
O104 C107 1.320 . S
O105 Cd102 2.333 . S
O105 C107 1.214 . S
O106 Cd102 2.352 . S
O106 C109 1.258 . S
C107 O104 1.320 . S
C107 O105 1.214 . S
O108 Cd100 2.277 . S
O108 C103 1.209 . S
C109 O106 1.258 . S
C109 O111 1.282 . S
O110 Cd102 2.277 . S
O110 C103 1.226 . S
O111 Cd102 2.356 . S
O111 C109 1.282 . S
C112 O113 1.306 . S
C112 O115 1.160 . S
O113 C112 1.306 . S
O113 Cd114 2.228 . S
Cd114 O113 2.228 . S
Cd114 O118 2.273 . S
Cd114 O122 2.277 . S
O115 C112 1.160 . S
O115 Cd116 2.203 . S
Cd116 O115 2.203 . S
Cd116 O118 2.411 . S
Cd116 O119 2.333 1_655 S
Cd116 O120 2.352 . S
Cd116 O124 2.277 . S
Cd116 O125 2.356 . S
C117 O122 1.209 . S
C117 O124 1.226 . S
O118 Cd114 2.273 . S
O118 Cd116 2.411 . S
O118 C121 1.320 . S
O119 Cd116 2.333 1_455 S
O119 C121 1.214 1_455 S
O120 Cd116 2.352 . S
O120 C123 1.258 . S
C121 O118 1.320 . S
C121 O119 1.214 1_655 S
O122 Cd114 2.277 . S
O122 C117 1.209 . S
C123 O120 1.258 . S
C123 O125 1.282 . S
O124 Cd116 2.277 . S
O124 C117 1.226 . S
O125 Cd116 2.356 . S
O125 C123 1.282 . S
C126 O127 1.306 . S
C126 O129 1.160 . S
O127 C126 1.306 . S
O127 Cd128 2.228 . S
Cd128 O127 2.228 . S
Cd128 O132 2.273 . S
Cd128 O136 2.277 . S
O129 C126 1.160 . S
O129 Cd130 2.203 . S
Cd130 O129 2.203 . S
Cd130 O132 2.411 . S
Cd130 O133 2.333 1_565 S
Cd130 O134 2.352 . S
Cd130 O138 2.277 . S
Cd130 O139 2.356 . S
C131 O136 1.209 . S
C131 O138 1.226 . S
O132 Cd128 2.273 . S
O132 Cd130 2.411 . S
O132 C135 1.320 . S
O133 Cd130 2.333 1_545 S
O133 C135 1.214 1_545 S
O134 Cd130 2.352 . S
O134 C137 1.258 . S
C135 O132 1.320 . S
C135 O133 1.214 1_565 S
O136 Cd128 2.277 . S
O136 C131 1.209 . S
C137 O134 1.258 . S
C137 O139 1.282 . S
O138 Cd130 2.277 . S
O138 C131 1.226 . S
O139 Cd130 2.356 . S
O139 C137 1.282 . S
C140 O141 1.306 . S
C140 O143 1.160 . S
O141 C140 1.306 . S
O141 Cd142 2.228 . S
Cd142 O141 2.228 . S
Cd142 O146 2.273 . S
Cd142 O150 2.277 . S
O143 C140 1.160 . S
O143 Cd144 2.203 . S
Cd144 O143 2.203 . S
Cd144 O146 2.411 . S
Cd144 O147 2.333 . S
Cd144 O148 2.352 . S
Cd144 O152 2.277 . S
Cd144 O153 2.356 . S
C145 O150 1.209 . S
C145 O152 1.226 . S
O146 Cd142 2.273 . S
O146 Cd144 2.411 . S
O146 C149 1.320 . S
O147 Cd144 2.333 . S
O147 C149 1.214 . S
O148 Cd144 2.352 . S
O148 C151 1.258 . S
C149 O146 1.320 . S
C149 O147 1.214 . S
O150 Cd142 2.277 . S
O150 C145 1.209 . S
C151 O148 1.258 . S
C151 O153 1.282 . S
O152 Cd144 2.277 . S
O152 C145 1.226 . S
O153 Cd144 2.356 . S
O153 C151 1.282 . S
C154 O155 1.306 . S
C154 O157 1.160 . S
O155 C154 1.306 . S
O155 Cd156 2.228 . S
Cd156 O155 2.228 . S
Cd156 O160 2.273 . S
Cd156 O164 2.277 . S
O157 C154 1.160 . S
O157 Cd158 2.203 . S
Cd158 O157 2.203 . S
Cd158 O160 2.411 . S
Cd158 O161 2.333 . S
Cd158 O162 2.352 . S
Cd158 O166 2.277 . S
Cd158 O167 2.356 . S
C159 O164 1.209 . S
C159 O166 1.226 . S
O160 Cd156 2.273 . S
O160 Cd158 2.411 . S
O160 C163 1.320 . S
O161 Cd158 2.333 . S
O161 C163 1.214 . S
O162 Cd158 2.352 . S
O162 C165 1.258 . S
C163 O160 1.320 . S
C163 O161 1.214 . S
O164 Cd156 2.277 . S
O164 C159 1.209 . S
C165 O162 1.258 . S
C165 O167 1.282 . S
O166 Cd158 2.277 . S
O166 C159 1.226 . S
O167 Cd158 2.356 . S
O167 C165 1.282 . S
C168 O169 1.306 . S
C168 O171 1.160 . S
O169 C168 1.306 . S
O169 Cd170 2.228 . S
Cd170 O169 2.228 . S
Cd170 O174 2.273 . S
Cd170 O178 2.277 . S
O171 C168 1.160 . S
O171 Cd172 2.203 . S
Cd172 O171 2.203 . S
Cd172 O174 2.411 . S
Cd172 O175 2.333 1_655 S
Cd172 O176 2.352 . S
Cd172 O180 2.277 . S
Cd172 O181 2.356 . S
C173 O178 1.209 . S
C173 O180 1.226 . S
O174 Cd170 2.273 . S
O174 Cd172 2.411 . S
O174 C177 1.320 . S
O175 Cd172 2.333 1_455 S
O175 C177 1.214 1_455 S
O176 Cd172 2.352 . S
O176 C179 1.258 . S
C177 O174 1.320 . S
C177 O175 1.214 1_655 S
O178 Cd170 2.277 . S
O178 C173 1.209 . S
C179 O176 1.258 . S
C179 O181 1.282 . S
O180 Cd172 2.277 . S
O180 C173 1.226 . S
O181 Cd172 2.356 . S
O181 C179 1.282 . S
C182 O183 1.306 . S
C182 O185 1.160 . S
O183 C182 1.306 . S
O183 Cd184 2.228 . S
Cd184 O183 2.228 . S
Cd184 O188 2.273 . S
Cd184 O192 2.277 . S
O185 C182 1.160 . S
O185 Cd186 2.203 . S
Cd186 O185 2.203 . S
Cd186 O188 2.411 . S
Cd186 O189 2.333 1_565 S
Cd186 O190 2.352 . S
Cd186 O194 2.277 . S
Cd186 O195 2.356 . S
C187 O192 1.209 . S
C187 O194 1.226 . S
O188 Cd184 2.273 . S
O188 Cd186 2.411 . S
O188 C191 1.320 . S
O189 Cd186 2.333 1_545 S
O189 C191 1.214 1_545 S
O190 Cd186 2.352 . S
O190 C193 1.258 . S
C191 O188 1.320 . S
C191 O189 1.214 1_565 S
O192 Cd184 2.277 . S
O192 C187 1.209 . S
C193 O190 1.258 . S
C193 O195 1.282 . S
O194 Cd186 2.277 . S
O194 C187 1.226 . S
O195 Cd186 2.356 . S
O195 C193 1.282 . S
C196 O197 1.306 . S
C196 O199 1.160 . S
O197 C196 1.306 . S
O197 Cd198 2.228 . S
Cd198 O197 2.228 . S
Cd198 O202 2.273 . S
Cd198 O206 2.277 . S
O199 C196 1.160 . S
O199 Cd200 2.203 . S
Cd200 O199 2.203 . S
Cd200 O202 2.411 . S
Cd200 O203 2.333 . S
Cd200 O204 2.352 . S
Cd200 O208 2.277 . S
Cd200 O209 2.356 . S
C201 O206 1.209 . S
C201 O208 1.226 . S
O202 Cd198 2.273 . S
O202 Cd200 2.411 . S
O202 C205 1.320 . S
O203 Cd200 2.333 . S
O203 C205 1.214 . S
O204 Cd200 2.352 . S
O204 C207 1.258 . S
C205 O202 1.320 . S
C205 O203 1.214 . S
O206 Cd198 2.277 . S
O206 C201 1.209 . S
C207 O204 1.258 . S
C207 O209 1.282 . S
O208 Cd200 2.277 . S
O208 C201 1.226 . S
O209 Cd200 2.356 . S
O209 C207 1.282 . S
C210 O211 1.306 . S
C210 O213 1.160 . S
O211 C210 1.306 . S
O211 Cd212 2.228 . S
Cd212 O211 2.228 . S
Cd212 O216 2.273 . S
Cd212 O220 2.277 . S
O213 C210 1.160 . S
O213 Cd214 2.203 . S
Cd214 O213 2.203 . S
Cd214 O216 2.411 . S
Cd214 O217 2.333 . S
Cd214 O218 2.352 . S
Cd214 O222 2.277 . S
Cd214 O223 2.356 . S
C215 O220 1.209 . S
C215 O222 1.226 . S
O216 Cd212 2.273 . S
O216 Cd214 2.411 . S
O216 C219 1.320 . S
O217 Cd214 2.333 . S
O217 C219 1.214 . S
O218 Cd214 2.352 . S
O218 C221 1.258 . S
C219 O216 1.320 . S
C219 O217 1.214 . S
O220 Cd212 2.277 . S
O220 C215 1.209 . S
C221 O218 1.258 . S
C221 O223 1.282 . S
O222 Cd214 2.277 . S
O222 C215 1.226 . S
O223 Cd214 2.356 . S
O223 C221 1.282 . S
C224 C225 1.349 . S
C224 C226 1.327 . S
C224 H249 0.950 . S
C225 C224 1.349 . S
C225 C241 1.349 . S
C226 C224 1.327 . S
C226 C245 1.429 . S
C226 H250 0.950 . S
C227 C244 1.574 . S
C227 C246 1.368 . S
C227 H251 0.949 . S
H228 C232 0.949 . S
C229 C230 1.349 . S
C229 C231 1.327 . S
C229 H252 0.950 . S
C230 C229 1.349 . S
C230 C242 1.349 . S
C231 C229 1.327 . S
C231 C247 1.429 . S
C231 H253 0.950 . S
C232 H228 0.949 . S
C232 C240 1.574 . S
C232 C248 1.368 . S
H233 C241 0.950 . S
H234 C239 0.950 . S
H235 C240 0.949 . S
H236 C242 0.950 . S
H237 C243 0.950 . S
H238 C244 0.949 . S
C239 H234 0.950 . S
C239 C241 1.327 . S
C239 C245 1.429 . S
C240 C232 1.574 . S
C240 H235 0.949 . S
C240 C246 1.368 . S
C241 C225 1.349 . S
C241 H233 0.950 . S
C241 C239 1.327 . S
C242 C230 1.349 . S
C242 H236 0.950 . S
C242 C243 1.327 . S
C243 H237 0.950 . S
C243 C242 1.327 . S
C243 C247 1.429 . S
C244 C227 1.574 . S
C244 H238 0.949 . S
C244 C248 1.368 . S
C245 C226 1.429 . S
C245 C239 1.429 . S
C245 C246 1.523 . S
C246 C227 1.368 . S
C246 C240 1.368 . S
C246 C245 1.523 . S
C247 C231 1.429 . S
C247 C243 1.429 . S
C247 C248 1.523 . S
C248 C232 1.368 . S
C248 C244 1.368 . S
C248 C247 1.523 . S
H249 C224 0.950 . S
H250 C226 0.950 . S
H251 C227 0.949 . S
H252 C229 0.950 . S
H253 C231 0.950 . S
C254 C255 1.349 . S
C254 C256 1.327 . S
C254 H279 0.950 . S
C255 C254 1.349 . S
C255 C271 1.349 . S
C256 C254 1.327 . S
C256 C275 1.429 . S
C256 H280 0.950 . S
C257 C274 1.574 . S
C257 C276 1.368 . S
C257 H281 0.949 . S
H258 C262 0.949 . S
C259 C260 1.349 . S
C259 C261 1.327 . S
C259 H282 0.950 . S
C260 C259 1.349 . S
C260 C272 1.349 . S
C261 C259 1.327 . S
C261 C277 1.429 . S
C261 H283 0.950 . S
C262 H258 0.949 . S
C262 C270 1.574 . S
C262 C278 1.368 . S
H263 C271 0.950 . S
H264 C269 0.950 . S
H265 C270 0.949 . S
H266 C272 0.950 . S
H267 C273 0.950 . S
H268 C274 0.949 . S
C269 H264 0.950 . S
C269 C271 1.327 . S
C269 C275 1.429 . S
C270 C262 1.574 . S
C270 H265 0.949 . S
C270 C276 1.368 . S
C271 C255 1.349 . S
C271 H263 0.950 . S
C271 C269 1.327 . S
C272 C260 1.349 . S
C272 H266 0.950 . S
C272 C273 1.327 . S
C273 H267 0.950 . S
C273 C272 1.327 . S
C273 C277 1.429 . S
C274 C257 1.574 . S
C274 H268 0.949 . S
C274 C278 1.368 . S
C275 C256 1.429 . S
C275 C269 1.429 . S
C275 C276 1.523 . S
C276 C257 1.368 . S
C276 C270 1.368 . S
C276 C275 1.523 . S
C277 C261 1.429 . S
C277 C273 1.429 . S
C277 C278 1.523 . S
C278 C262 1.368 . S
C278 C274 1.368 . S
C278 C277 1.523 . S
H279 C254 0.950 . S
H280 C256 0.950 . S
H281 C257 0.949 . S
H282 C259 0.950 . S
H283 C261 0.950 . S
C284 C285 1.349 . S
C284 C286 1.327 . S
C284 H309 0.950 . S
C285 C284 1.349 . S
C285 C301 1.349 . S
C286 C284 1.327 . S
C286 C305 1.429 . S
C286 H310 0.950 . S
C287 C304 1.574 . S
C287 C306 1.368 . S
C287 H311 0.949 . S
H288 C292 0.949 . S
C289 C290 1.349 . S
C289 C291 1.327 . S
C289 H312 0.950 . S
C290 C289 1.349 . S
C290 C302 1.349 . S
C291 C289 1.327 . S
C291 C307 1.429 . S
C291 H313 0.950 . S
C292 H288 0.949 . S
C292 C300 1.574 . S
C292 C308 1.368 . S
H293 C301 0.950 . S
H294 C299 0.950 . S
H295 C300 0.949 . S
H296 C302 0.950 . S
H297 C303 0.950 . S
H298 C304 0.949 . S
C299 H294 0.950 . S
C299 C301 1.327 . S
C299 C305 1.429 . S
C300 C292 1.574 . S
C300 H295 0.949 . S
C300 C306 1.368 . S
C301 C285 1.349 . S
C301 H293 0.950 . S
C301 C299 1.327 . S
C302 C290 1.349 . S
C302 H296 0.950 . S
C302 C303 1.327 . S
C303 H297 0.950 . S
C303 C302 1.327 . S
C303 C307 1.429 . S
C304 C287 1.574 . S
C304 H298 0.949 . S
C304 C308 1.368 . S
C305 C286 1.429 . S
C305 C299 1.429 . S
C305 C306 1.523 . S
C306 C287 1.368 . S
C306 C300 1.368 . S
C306 C305 1.523 . S
C307 C291 1.429 . S
C307 C303 1.429 . S
C307 C308 1.523 . S
C308 C292 1.368 . S
C308 C304 1.368 . S
C308 C307 1.523 . S
H309 C284 0.950 . S
H310 C286 0.950 . S
H311 C287 0.949 . S
H312 C289 0.950 . S
H313 C291 0.950 . S
C314 C315 1.349 . S
C314 C316 1.327 . S
C314 H339 0.950 . S
C315 C314 1.349 . S
C315 C331 1.349 . S
C316 C314 1.327 . S
C316 C335 1.429 . S
C316 H340 0.950 . S
C317 C334 1.574 . S
C317 C336 1.368 . S
C317 H341 0.949 . S
H318 C322 0.949 . S
C319 C320 1.349 . S
C319 C321 1.327 . S
C319 H342 0.950 . S
C320 C319 1.349 . S
C320 C332 1.349 . S
C321 C319 1.327 . S
C321 C337 1.429 . S
C321 H343 0.950 . S
C322 H318 0.949 . S
C322 C330 1.574 . S
C322 C338 1.368 . S
H323 C331 0.950 . S
H324 C329 0.950 . S
H325 C330 0.949 . S
H326 C332 0.950 . S
H327 C333 0.950 . S
H328 C334 0.949 . S
C329 H324 0.950 . S
C329 C331 1.327 . S
C329 C335 1.429 . S
C330 C322 1.574 . S
C330 H325 0.949 . S
C330 C336 1.368 . S
C331 C315 1.349 . S
C331 H323 0.950 . S
C331 C329 1.327 . S
C332 C320 1.349 . S
C332 H326 0.950 . S
C332 C333 1.327 . S
C333 H327 0.950 . S
C333 C332 1.327 . S
C333 C337 1.429 . S
C334 C317 1.574 . S
C334 H328 0.949 . S
C334 C338 1.368 . S
C335 C316 1.429 . S
C335 C329 1.429 . S
C335 C336 1.523 . S
C336 C317 1.368 . S
C336 C330 1.368 . S
C336 C335 1.523 . S
C337 C321 1.429 . S
C337 C333 1.429 . S
C337 C338 1.523 . S
C338 C322 1.368 . S
C338 C334 1.368 . S
C338 C337 1.523 . S
H339 C314 0.950 . S
H340 C316 0.950 . S
H341 C317 0.949 . S
H342 C319 0.950 . S
H343 C321 0.950 . S
C344 C345 1.349 . S
C344 C346 1.327 . S
C344 H369 0.950 . S
C345 C344 1.349 . S
C345 C361 1.349 . S
C346 C344 1.327 . S
C346 C365 1.429 . S
C346 H370 0.950 . S
C347 C364 1.574 . S
C347 C366 1.368 . S
C347 H371 0.949 . S
H348 C352 0.949 . S
C349 C350 1.349 . S
C349 C351 1.327 . S
C349 H372 0.950 . S
C350 C349 1.349 . S
C350 C362 1.349 . S
C351 C349 1.327 . S
C351 C367 1.429 . S
C351 H373 0.950 . S
C352 H348 0.949 . S
C352 C360 1.574 . S
C352 C368 1.368 . S
H353 C361 0.950 . S
H354 C359 0.950 . S
H355 C360 0.949 . S
H356 C362 0.950 . S
H357 C363 0.950 . S
H358 C364 0.949 . S
C359 H354 0.950 . S
C359 C361 1.327 . S
C359 C365 1.429 . S
C360 C352 1.574 . S
C360 H355 0.949 . S
C360 C366 1.368 . S
C361 C345 1.349 . S
C361 H353 0.950 . S
C361 C359 1.327 . S
C362 C350 1.349 . S
C362 H356 0.950 . S
C362 C363 1.327 . S
C363 H357 0.950 . S
C363 C362 1.327 . S
C363 C367 1.429 . S
C364 C347 1.574 . S
C364 H358 0.949 . S
C364 C368 1.368 . S
C365 C346 1.429 . S
C365 C359 1.429 . S
C365 C366 1.523 . S
C366 C347 1.368 . S
C366 C360 1.368 . S
C366 C365 1.523 . S
C367 C351 1.429 . S
C367 C363 1.429 . S
C367 C368 1.523 . S
C368 C352 1.368 . S
C368 C364 1.368 . S
C368 C367 1.523 . S
H369 C344 0.950 . S
H370 C346 0.950 . S
H371 C347 0.949 . S
H372 C349 0.950 . S
H373 C351 0.950 . S
C374 C375 1.349 . S
C374 C376 1.327 . S
C374 H399 0.950 . S
C375 C374 1.349 . S
C375 C391 1.349 . S
C376 C374 1.327 . S
C376 C395 1.429 . S
C376 H400 0.950 . S
C377 C394 1.574 . S
C377 C396 1.368 . S
C377 H401 0.949 . S
H378 C382 0.949 . S
C379 C380 1.349 . S
C379 C381 1.327 . S
C379 H402 0.950 . S
C380 C379 1.349 . S
C380 C392 1.349 . S
C381 C379 1.327 . S
C381 C397 1.429 . S
C381 H403 0.950 . S
C382 H378 0.949 . S
C382 C390 1.574 . S
C382 C398 1.368 . S
H383 C391 0.950 . S
H384 C389 0.950 . S
H385 C390 0.949 . S
H386 C392 0.950 . S
H387 C393 0.950 . S
H388 C394 0.949 . S
C389 H384 0.950 . S
C389 C391 1.327 . S
C389 C395 1.429 . S
C390 C382 1.574 . S
C390 H385 0.949 . S
C390 C396 1.368 . S
C391 C375 1.349 . S
C391 H383 0.950 . S
C391 C389 1.327 . S
C392 C380 1.349 . S
C392 H386 0.950 . S
C392 C393 1.327 . S
C393 H387 0.950 . S
C393 C392 1.327 . S
C393 C397 1.429 . S
C394 C377 1.574 . S
C394 H388 0.949 . S
C394 C398 1.368 . S
C395 C376 1.429 . S
C395 C389 1.429 . S
C395 C396 1.523 . S
C396 C377 1.368 . S
C396 C390 1.368 . S
C396 C395 1.523 . S
C397 C381 1.429 . S
C397 C393 1.429 . S
C397 C398 1.523 . S
C398 C382 1.368 . S
C398 C394 1.368 . S
C398 C397 1.523 . S
H399 C374 0.950 . S
H400 C376 0.950 . S
H401 C377 0.949 . S
H402 C379 0.950 . S
H403 C381 0.950 . S
C404 C405 1.349 . S
C404 C406 1.327 . S
C404 H429 0.950 . S
C405 C404 1.349 . S
C405 C421 1.349 . S
C406 C404 1.327 . S
C406 C425 1.429 . S
C406 H430 0.950 . S
C407 C424 1.574 . S
C407 C426 1.368 . S
C407 H431 0.949 . S
H408 C412 0.949 . S
C409 C410 1.349 . S
C409 C411 1.327 . S
C409 H432 0.950 . S
C410 C409 1.349 . S
C410 C422 1.349 . S
C411 C409 1.327 . S
C411 C427 1.429 . S
C411 H433 0.950 . S
C412 H408 0.949 . S
C412 C420 1.574 . S
C412 C428 1.368 . S
H413 C421 0.950 . S
H414 C419 0.950 . S
H415 C420 0.949 . S
H416 C422 0.950 . S
H417 C423 0.950 . S
H418 C424 0.949 . S
C419 H414 0.950 . S
C419 C421 1.327 . S
C419 C425 1.429 . S
C420 C412 1.574 . S
C420 H415 0.949 . S
C420 C426 1.368 . S
C421 C405 1.349 . S
C421 H413 0.950 . S
C421 C419 1.327 . S
C422 C410 1.349 . S
C422 H416 0.950 . S
C422 C423 1.327 . S
C423 H417 0.950 . S
C423 C422 1.327 . S
C423 C427 1.429 . S
C424 C407 1.574 . S
C424 H418 0.949 . S
C424 C428 1.368 . S
C425 C406 1.429 . S
C425 C419 1.429 . S
C425 C426 1.523 . S
C426 C407 1.368 . S
C426 C420 1.368 . S
C426 C425 1.523 . S
C427 C411 1.429 . S
C427 C423 1.429 . S
C427 C428 1.523 . S
C428 C412 1.368 . S
C428 C424 1.368 . S
C428 C427 1.523 . S
H429 C404 0.950 . S
H430 C406 0.950 . S
H431 C407 0.949 . S
H432 C409 0.950 . S
H433 C411 0.950 . S
C434 C435 1.349 . S
C434 C436 1.327 . S
C434 H459 0.950 . S
C435 C434 1.349 . S
C435 C451 1.349 . S
C436 C434 1.327 . S
C436 C455 1.429 . S
C436 H460 0.950 . S
C437 C454 1.574 . S
C437 C456 1.368 . S
C437 H461 0.949 . S
H438 C442 0.949 . S
C439 C440 1.349 . S
C439 C441 1.327 . S
C439 H462 0.950 . S
C440 C439 1.349 . S
C440 C452 1.349 . S
C441 C439 1.327 . S
C441 C457 1.429 . S
C441 H463 0.950 . S
C442 H438 0.949 . S
C442 C450 1.574 . S
C442 C458 1.368 . S
H443 C451 0.950 . S
H444 C449 0.950 . S
H445 C450 0.949 . S
H446 C452 0.950 . S
H447 C453 0.950 . S
H448 C454 0.949 . S
C449 H444 0.950 . S
C449 C451 1.327 . S
C449 C455 1.429 . S
C450 C442 1.574 . S
C450 H445 0.949 . S
C450 C456 1.368 . S
C451 C435 1.349 . S
C451 H443 0.950 . S
C451 C449 1.327 . S
C452 C440 1.349 . S
C452 H446 0.950 . S
C452 C453 1.327 . S
C453 H447 0.950 . S
C453 C452 1.327 . S
C453 C457 1.429 . S
C454 C437 1.574 . S
C454 H448 0.949 . S
C454 C458 1.368 . S
C455 C436 1.429 . S
C455 C449 1.429 . S
C455 C456 1.523 . S
C456 C437 1.368 . S
C456 C450 1.368 . S
C456 C455 1.523 . S
C457 C441 1.429 . S
C457 C453 1.429 . S
C457 C458 1.523 . S
C458 C442 1.368 . S
C458 C454 1.368 . S
C458 C457 1.523 . S
H459 C434 0.950 . S
H460 C436 0.950 . S
H461 C437 0.949 . S
H462 C439 0.950 . S
H463 C441 0.950 . S
C464 C465 1.349 . S
C464 C466 1.327 . S
C464 H489 0.950 . S
C465 C464 1.349 . S
C465 C481 1.349 . S
C466 C464 1.327 . S
C466 C485 1.429 . S
C466 H490 0.950 . S
C467 C484 1.574 . S
C467 C486 1.368 . S
C467 H491 0.949 . S
H468 C472 0.949 . S
C469 C470 1.349 1_655 S
C469 C471 1.327 . S
C469 H492 0.950 . S
C470 C469 1.349 1_455 S
C470 C482 1.349 . S
C471 C469 1.327 . S
C471 C487 1.429 . S
C471 H493 0.950 . S
C472 H468 0.949 . S
C472 C480 1.574 . S
C472 C488 1.368 . S
H473 C481 0.950 . S
H474 C479 0.950 . S
H475 C480 0.949 . S
H476 C482 0.950 . S
H477 C483 0.950 . S
H478 C484 0.949 . S
C479 H474 0.950 . S
C479 C481 1.327 . S
C479 C485 1.429 . S
C480 C472 1.574 . S
C480 H475 0.949 . S
C480 C486 1.368 . S
C481 C465 1.349 . S
C481 H473 0.950 . S
C481 C479 1.327 . S
C482 C470 1.349 . S
C482 H476 0.950 . S
C482 C483 1.327 . S
C483 H477 0.950 . S
C483 C482 1.327 . S
C483 C487 1.429 1_455 S
C484 C467 1.574 . S
C484 H478 0.949 . S
C484 C488 1.368 . S
C485 C466 1.429 . S
C485 C479 1.429 . S
C485 C486 1.523 . S
C486 C467 1.368 . S
C486 C480 1.368 . S
C486 C485 1.523 . S
C487 C471 1.429 . S
C487 C483 1.429 1_655 S
C487 C488 1.523 . S
C488 C472 1.368 . S
C488 C484 1.368 . S
C488 C487 1.523 . S
H489 C464 0.950 . S
H490 C466 0.950 . S
H491 C467 0.949 . S
H492 C469 0.950 . S
H493 C471 0.950 . S
C494 C495 1.349 . S
C494 C496 1.327 . S
C494 H519 0.950 . S
C495 C494 1.349 . S
C495 C511 1.349 1_545 S
C496 C494 1.327 . S
C496 C515 1.429 1_545 S
C496 H520 0.950 . S
C497 C514 1.574 . S
C497 C516 1.368 . S
C497 H521 0.949 . S
H498 C502 0.949 . S
C499 C500 1.349 . S
C499 C501 1.327 . S
C499 H522 0.950 . S
C500 C499 1.349 . S
C500 C512 1.349 1_455 S
C501 C499 1.327 . S
C501 C517 1.429 1_455 S
C501 H523 0.950 . S
C502 H498 0.949 . S
C502 C510 1.574 . S
C502 C518 1.368 . S
H503 C511 0.950 . S
H504 C509 0.950 . S
H505 C510 0.949 . S
H506 C512 0.950 . S
H507 C513 0.950 . S
H508 C514 0.949 . S
C509 H504 0.950 . S
C509 C511 1.327 . S
C509 C515 1.429 . S
C510 C502 1.574 . S
C510 H505 0.949 . S
C510 C516 1.368 . S
C511 C495 1.349 1_565 S
C511 H503 0.950 . S
C511 C509 1.327 . S
C512 C500 1.349 1_655 S
C512 H506 0.950 . S
C512 C513 1.327 . S
C513 H507 0.950 . S
C513 C512 1.327 . S
C513 C517 1.429 . S
C514 C497 1.574 . S
C514 H508 0.949 . S
C514 C518 1.368 . S
C515 C496 1.429 1_565 S
C515 C509 1.429 . S
C515 C516 1.523 . S
C516 C497 1.368 . S
C516 C510 1.368 . S
C516 C515 1.523 . S
C517 C501 1.429 1_655 S
C517 C513 1.429 . S
C517 C518 1.523 . S
C518 C502 1.368 . S
C518 C514 1.368 . S
C518 C517 1.523 . S
H519 C494 0.950 . S
H520 C496 0.950 . S
H521 C497 0.949 . S
H522 C499 0.950 . S
H523 C501 0.950 . S
C524 C525 1.349 1_565 S
C524 C526 1.327 . S
C524 H549 0.950 . S
C525 C524 1.349 1_545 S
C525 C541 1.349 . S
C526 C524 1.327 . S
C526 C545 1.429 . S
C526 H550 0.950 . S
C527 C544 1.574 . S
C527 C546 1.368 . S
C527 H551 0.949 . S
H528 C532 0.949 . S
C529 C530 1.349 . S
C529 C531 1.327 . S
C529 H552 0.950 . S
C530 C529 1.349 . S
C530 C542 1.349 . S
C531 C529 1.327 . S
C531 C547 1.429 . S
C531 H553 0.950 . S
C532 H528 0.949 . S
C532 C540 1.574 . S
C532 C548 1.368 . S
H533 C541 0.950 . S
H534 C539 0.950 . S
H535 C540 0.949 . S
H536 C542 0.950 . S
H537 C543 0.950 . S
H538 C544 0.949 . S
C539 H534 0.950 . S
C539 C541 1.327 . S
C539 C545 1.429 1_545 S
C540 C532 1.574 . S
C540 H535 0.949 . S
C540 C546 1.368 . S
C541 C525 1.349 . S
C541 H533 0.950 . S
C541 C539 1.327 . S
C542 C530 1.349 . S
C542 H536 0.950 . S
C542 C543 1.327 . S
C543 H537 0.950 . S
C543 C542 1.327 . S
C543 C547 1.429 . S
C544 C527 1.574 . S
C544 H538 0.949 . S
C544 C548 1.368 . S
C545 C526 1.429 . S
C545 C539 1.429 1_565 S
C545 C546 1.523 . S
C546 C527 1.368 . S
C546 C540 1.368 . S
C546 C545 1.523 . S
C547 C531 1.429 . S
C547 C543 1.429 . S
C547 C548 1.523 . S
C548 C532 1.368 . S
C548 C544 1.368 . S
C548 C547 1.523 . S
H549 C524 0.950 . S
H550 C526 0.950 . S
H551 C527 0.949 . S
H552 C529 0.950 . S
H553 C531 0.950 . S
C554 C555 1.349 . S
C554 C556 1.327 . S
C554 H579 0.950 . S
C555 C554 1.349 . S
C555 C571 1.349 . S
C556 C554 1.327 . S
C556 C575 1.429 . S
C556 H580 0.950 . S
C557 C574 1.574 . S
C557 C576 1.368 . S
C557 H581 0.949 . S
H558 C562 0.949 . S
C559 C560 1.349 . S
C559 C561 1.327 . S
C559 H582 0.950 . S
C560 C559 1.349 . S
C560 C572 1.349 . S
C561 C559 1.327 . S
C561 C577 1.429 . S
C561 H583 0.950 . S
C562 H558 0.949 . S
C562 C570 1.574 . S
C562 C578 1.368 . S
H563 C571 0.950 . S
H564 C569 0.950 . S
H565 C570 0.949 . S
H566 C572 0.950 . S
H567 C573 0.950 . S
H568 C574 0.949 . S
C569 H564 0.950 . S
C569 C571 1.327 . S
C569 C575 1.429 . S
C570 C562 1.574 . S
C570 H565 0.949 . S
C570 C576 1.368 . S
C571 C555 1.349 . S
C571 H563 0.950 . S
C571 C569 1.327 . S
C572 C560 1.349 . S
C572 H566 0.950 . S
C572 C573 1.327 . S
C573 H567 0.950 . S
C573 C572 1.327 . S
C573 C577 1.429 . S
C574 C557 1.574 . S
C574 H568 0.949 . S
C574 C578 1.368 . S
C575 C556 1.429 . S
C575 C569 1.429 . S
C575 C576 1.523 . S
C576 C557 1.368 . S
C576 C570 1.368 . S
C576 C575 1.523 . S
C577 C561 1.429 . S
C577 C573 1.429 . S
C577 C578 1.523 . S
C578 C562 1.368 . S
C578 C574 1.368 . S
C578 C577 1.523 . S
H579 C554 0.950 . S
H580 C556 0.950 . S
H581 C557 0.949 . S
H582 C559 0.950 . S
H583 C561 0.950 . S
C584 C585 1.349 . S
C584 C586 1.327 . S
C584 H609 0.950 . S
C585 C584 1.349 . S
C585 C601 1.349 . S
C586 C584 1.327 . S
C586 C605 1.429 . S
C586 H610 0.950 . S
C587 C604 1.574 . S
C587 C606 1.368 . S
C587 H611 0.949 . S
H588 C592 0.949 . S
C589 C590 1.349 . S
C589 C591 1.327 . S
C589 H612 0.950 . S
C590 C589 1.349 . S
C590 C602 1.349 1_655 S
C591 C589 1.327 . S
C591 C607 1.429 1_655 S
C591 H613 0.950 . S
C592 H588 0.949 . S
C592 C600 1.574 . S
C592 C608 1.368 . S
H593 C601 0.950 . S
H594 C599 0.950 . S
H595 C600 0.949 . S
H596 C602 0.950 . S
H597 C603 0.950 . S
H598 C604 0.949 . S
C599 H594 0.950 . S
C599 C601 1.327 . S
C599 C605 1.429 . S
C600 C592 1.574 . S
C600 H595 0.949 . S
C600 C606 1.368 . S
C601 C585 1.349 . S
C601 H593 0.950 . S
C601 C599 1.327 . S
C602 C590 1.349 1_455 S
C602 H596 0.950 . S
C602 C603 1.327 . S
C603 H597 0.950 . S
C603 C602 1.327 . S
C603 C607 1.429 . S
C604 C587 1.574 . S
C604 H598 0.949 . S
C604 C608 1.368 . S
C605 C586 1.429 . S
C605 C599 1.429 . S
C605 C606 1.523 . S
C606 C587 1.368 . S
C606 C600 1.368 . S
C606 C605 1.523 . S
C607 C591 1.429 1_455 S
C607 C603 1.429 . S
C607 C608 1.523 . S
C608 C592 1.368 . S
C608 C604 1.368 . S
C608 C607 1.523 . S
H609 C584 0.950 . S
H610 C586 0.950 . S
H611 C587 0.949 . S
H612 C589 0.950 . S
H613 C591 0.950 . S
C614 C615 1.349 1_545 S
C614 C616 1.327 . S
C614 H639 0.950 . S
C615 C614 1.349 1_565 S
C615 C631 1.349 . S
C616 C614 1.327 . S
C616 C635 1.429 . S
C616 H640 0.950 . S
C617 C634 1.574 . S
C617 C636 1.368 . S
C617 H641 0.949 . S
H618 C622 0.949 1_655 S
C619 C620 1.349 1_455 S
C619 C621 1.327 . S
C619 H642 0.950 . S
C620 C619 1.349 1_655 S
C620 C632 1.349 . S
C621 C619 1.327 . S
C621 C637 1.429 . S
C621 H643 0.950 . S
C622 H618 0.949 1_455 S
C622 C630 1.574 . S
C622 C638 1.368 . S
H623 C631 0.950 . S
H624 C629 0.950 . S
H625 C630 0.949 . S
H626 C632 0.950 . S
H627 C633 0.950 . S
H628 C634 0.949 . S
C629 H624 0.950 . S
C629 C631 1.327 1_545 S
C629 C635 1.429 . S
C630 C622 1.574 . S
C630 H625 0.949 . S
C630 C636 1.368 . S
C631 C615 1.349 . S
C631 H623 0.950 . S
C631 C629 1.327 1_565 S
C632 C620 1.349 . S
C632 H626 0.950 . S
C632 C633 1.327 . S
C633 H627 0.950 . S
C633 C632 1.327 . S
C633 C637 1.429 1_655 S
C634 C617 1.574 . S
C634 H628 0.949 . S
C634 C638 1.368 . S
C635 C616 1.429 . S
C635 C629 1.429 . S
C635 C636 1.523 . S
C636 C617 1.368 . S
C636 C630 1.368 . S
C636 C635 1.523 . S
C637 C621 1.429 . S
C637 C633 1.429 1_455 S
C637 C638 1.523 . S
C638 C622 1.368 . S
C638 C634 1.368 . S
C638 C637 1.523 . S
H639 C614 0.950 . S
H640 C616 0.950 . S
H641 C617 0.949 . S
H642 C619 0.950 . S
H643 C621 0.950 . S
C644 C645 1.349 . S
C644 C646 1.327 . S
C644 H669 0.950 . S
C645 C644 1.349 . S
C645 C661 1.349 . S
C646 C644 1.327 . S
C646 C665 1.429 . S
C646 H670 0.950 . S
C647 C664 1.574 . S
C647 C666 1.368 . S
C647 H671 0.949 . S
H648 C652 0.949 . S
C649 C650 1.349 . S
C649 C651 1.327 . S
C649 H672 0.950 . S
C650 C649 1.349 . S
C650 C662 1.349 1_565 S
C651 C649 1.327 . S
C651 C667 1.429 1_565 S
C651 H673 0.950 . S
C652 H648 0.949 . S
C652 C660 1.574 . S
C652 C668 1.368 . S
H653 C661 0.950 . S
H654 C659 0.950 . S
H655 C660 0.949 . S
H656 C662 0.950 . S
H657 C663 0.950 . S
H658 C664 0.949 . S
C659 H654 0.950 . S
C659 C661 1.327 . S
C659 C665 1.429 . S
C660 C652 1.574 . S
C660 H655 0.949 . S
C660 C666 1.368 . S
C661 C645 1.349 . S
C661 H653 0.950 . S
C661 C659 1.327 . S
C662 C650 1.349 1_545 S
C662 H656 0.950 . S
C662 C663 1.327 . S
C663 H657 0.950 . S
C663 C662 1.327 . S
C663 C667 1.429 . S
C664 C647 1.574 . S
C664 H658 0.949 . S
C664 C668 1.368 . S
C665 C646 1.429 . S
C665 C659 1.429 . S
C665 C666 1.523 . S
C666 C647 1.368 . S
C666 C660 1.368 . S
C666 C665 1.523 . S
C667 C651 1.429 1_545 S
C667 C663 1.429 . S
C667 C668 1.523 . S
C668 C652 1.368 . S
C668 C664 1.368 . S
C668 C667 1.523 . S
H669 C644 0.950 . S
H670 C646 0.950 . S
H671 C647 0.949 . S
H672 C649 0.950 . S
H673 C651 0.950 . S
C674 C675 1.349 . S
C674 C676 1.327 . S
C674 H699 0.950 . S
C675 C674 1.349 . S
C675 C691 1.349 . S
C676 C674 1.327 . S
C676 C695 1.429 . S
C676 H700 0.950 . S
C677 C694 1.574 . S
C677 C696 1.368 . S
C677 H701 0.949 . S
H678 C682 0.949 . S
C679 C680 1.349 . S
C679 C681 1.327 . S
C679 H702 0.950 . S
C680 C679 1.349 . S
C680 C692 1.349 . S
C681 C679 1.327 . S
C681 C697 1.429 . S
C681 H703 0.950 . S
C682 H678 0.949 . S
C682 C690 1.574 . S
C682 C698 1.368 . S
H683 C691 0.950 . S
H684 C689 0.950 . S
H685 C690 0.949 . S
H686 C692 0.950 . S
H687 C693 0.950 . S
H688 C694 0.949 . S
C689 H684 0.950 . S
C689 C691 1.327 . S
C689 C695 1.429 . S
C690 C682 1.574 . S
C690 H685 0.949 . S
C690 C696 1.368 . S
C691 C675 1.349 . S
C691 H683 0.950 . S
C691 C689 1.327 . S
C692 C680 1.349 . S
C692 H686 0.950 . S
C692 C693 1.327 . S
C693 H687 0.950 . S
C693 C692 1.327 . S
C693 C697 1.429 . S
C694 C677 1.574 . S
C694 H688 0.949 . S
C694 C698 1.368 . S
C695 C676 1.429 . S
C695 C689 1.429 . S
C695 C696 1.523 . S
C696 C677 1.368 . S
C696 C690 1.368 . S
C696 C695 1.523 . S
C697 C681 1.429 . S
C697 C693 1.429 . S
C697 C698 1.523 . S
C698 C682 1.368 . S
C698 C694 1.368 . S
C698 C697 1.523 . S
H699 C674 0.950 . S
H700 C676 0.950 . S
H701 C677 0.949 . S
H702 C679 0.950 . S
H703 C681 0.950 . S
C704 C705 1.349 . S
C704 C706 1.327 . S
C704 H729 0.950 1_455 S
C705 C704 1.349 . S
C705 C721 1.349 . S
C706 C704 1.327 . S
C706 C725 1.429 . S
C706 H730 0.950 1_455 S
C707 C724 1.574 . S
C707 C726 1.368 . S
C707 H731 0.949 . S
H708 C712 0.949 1_655 S
C709 C710 1.349 . S
C709 C711 1.327 . S
C709 H732 0.950 . S
C710 C709 1.349 . S
C710 C722 1.349 . S
C711 C709 1.327 . S
C711 C727 1.429 . S
C711 H733 0.950 . S
C712 H708 0.949 1_455 S
C712 C720 1.574 . S
C712 C728 1.368 . S
H713 C721 0.950 . S
H714 C719 0.950 . S
H715 C720 0.949 1_655 S
H716 C722 0.950 1_655 S
H717 C723 0.950 1_655 S
H718 C724 0.949 . S
C719 H714 0.950 . S
C719 C721 1.327 . S
C719 C725 1.429 . S
C720 C712 1.574 . S
C720 H715 0.949 1_455 S
C720 C726 1.368 . S
C721 C705 1.349 . S
C721 H713 0.950 . S
C721 C719 1.327 . S
C722 C710 1.349 . S
C722 H716 0.950 1_455 S
C722 C723 1.327 . S
C723 H717 0.950 1_455 S
C723 C722 1.327 . S
C723 C727 1.429 . S
C724 C707 1.574 . S
C724 H718 0.949 . S
C724 C728 1.368 . S
C725 C706 1.429 . S
C725 C719 1.429 . S
C725 C726 1.523 . S
C726 C707 1.368 . S
C726 C720 1.368 . S
C726 C725 1.523 . S
C727 C711 1.429 . S
C727 C723 1.429 . S
C727 C728 1.523 . S
C728 C712 1.368 . S
C728 C724 1.368 . S
C728 C727 1.523 . S
H729 C704 0.950 1_655 S
H730 C706 0.950 1_655 S
H731 C707 0.949 . S
H732 C709 0.950 . S
H733 C711 0.950 . S
C734 C735 1.349 . S
C734 C736 1.327 . S
C734 H759 0.950 . S
C735 C734 1.349 . S
C735 C751 1.349 1_545 S
C736 C734 1.327 . S
C736 C755 1.429 . S
C736 H760 0.950 . S
C737 C754 1.574 . S
C737 C756 1.368 1_565 S
C737 H761 0.949 . S
H738 C742 0.949 . S
C739 C740 1.349 1_565 S
C739 C741 1.327 . S
C739 H762 0.950 . S
C740 C739 1.349 1_545 S
C740 C752 1.349 . S
C741 C739 1.327 . S
C741 C757 1.429 1_565 S
C741 H763 0.950 . S
C742 H738 0.949 . S
C742 C750 1.574 . S
C742 C758 1.368 . S
H743 C751 0.950 . S
H744 C749 0.950 . S
H745 C750 0.949 . S
H746 C752 0.950 . S
H747 C753 0.950 . S
H748 C754 0.949 . S
C749 H744 0.950 . S
C749 C751 1.327 . S
C749 C755 1.429 1_565 S
C750 C742 1.574 . S
C750 H745 0.949 . S
C750 C756 1.368 . S
C751 C735 1.349 1_565 S
C751 H743 0.950 . S
C751 C749 1.327 . S
C752 C740 1.349 . S
C752 H746 0.950 . S
C752 C753 1.327 . S
C753 H747 0.950 . S
C753 C752 1.327 . S
C753 C757 1.429 . S
C754 C737 1.574 . S
C754 H748 0.949 . S
C754 C758 1.368 1_565 S
C755 C736 1.429 . S
C755 C749 1.429 1_545 S
C755 C756 1.523 . S
C756 C737 1.368 1_545 S
C756 C750 1.368 . S
C756 C755 1.523 . S
C757 C741 1.429 1_545 S
C757 C753 1.429 . S
C757 C758 1.523 . S
C758 C742 1.368 . S
C758 C754 1.368 1_545 S
C758 C757 1.523 . S
H759 C734 0.950 . S
H760 C736 0.950 . S
H761 C737 0.949 . S
H762 C739 0.950 . S
H763 C741 0.950 . S
C764 C765 1.349 . S
C764 C766 1.327 . S
C764 H789 0.950 . S
C765 C764 1.349 . S
C765 C781 1.349 . S
C766 C764 1.327 . S
C766 C785 1.429 . S
C766 H790 0.950 . S
C767 C784 1.574 . S
C767 C786 1.368 . S
C767 H791 0.949 . S
H768 C772 0.949 . S
C769 C770 1.349 . S
C769 C771 1.327 . S
C769 H792 0.950 . S
C770 C769 1.349 . S
C770 C782 1.349 . S
C771 C769 1.327 . S
C771 C787 1.429 . S
C771 H793 0.950 . S
C772 H768 0.949 . S
C772 C780 1.574 . S
C772 C788 1.368 . S
H773 C781 0.950 . S
H774 C779 0.950 . S
H775 C780 0.949 . S
H776 C782 0.950 . S
H777 C783 0.950 . S
H778 C784 0.949 . S
C779 H774 0.950 . S
C779 C781 1.327 . S
C779 C785 1.429 . S
C780 C772 1.574 . S
C780 H775 0.949 . S
C780 C786 1.368 . S
C781 C765 1.349 . S
C781 H773 0.950 . S
C781 C779 1.327 . S
C782 C770 1.349 . S
C782 H776 0.950 . S
C782 C783 1.327 . S
C783 H777 0.950 . S
C783 C782 1.327 . S
C783 C787 1.429 . S
C784 C767 1.574 . S
C784 H778 0.949 . S
C784 C788 1.368 . S
C785 C766 1.429 . S
C785 C779 1.429 . S
C785 C786 1.523 . S
C786 C767 1.368 . S
C786 C780 1.368 . S
C786 C785 1.523 . S
C787 C771 1.429 . S
C787 C783 1.429 . S
C787 C788 1.523 . S
C788 C772 1.368 . S
C788 C784 1.368 . S
C788 C787 1.523 . S
H789 C764 0.950 . S
H790 C766 0.950 . S
H791 C767 0.949 . S
H792 C769 0.950 . S
H793 C771 0.950 . S
C794 C795 1.349 . S
C794 C796 1.327 . S
C794 H819 0.950 . S
C795 C794 1.349 . S
C795 C811 1.349 . S
C796 C794 1.327 . S
C796 C815 1.429 . S
C796 H820 0.950 . S
C797 C814 1.574 . S
C797 C816 1.368 . S
C797 H821 0.949 . S
H798 C802 0.949 . S
C799 C800 1.349 . S
C799 C801 1.327 . S
C799 H822 0.950 . S
C800 C799 1.349 . S
C800 C812 1.349 . S
C801 C799 1.327 . S
C801 C817 1.429 . S
C801 H823 0.950 . S
C802 H798 0.949 . S
C802 C810 1.574 . S
C802 C818 1.368 . S
H803 C811 0.950 . S
H804 C809 0.950 . S
H805 C810 0.949 . S
H806 C812 0.950 . S
H807 C813 0.950 . S
H808 C814 0.949 . S
C809 H804 0.950 . S
C809 C811 1.327 . S
C809 C815 1.429 . S
C810 C802 1.574 . S
C810 H805 0.949 . S
C810 C816 1.368 . S
C811 C795 1.349 . S
C811 H803 0.950 . S
C811 C809 1.327 . S
C812 C800 1.349 . S
C812 H806 0.950 . S
C812 C813 1.327 . S
C813 H807 0.950 . S
C813 C812 1.327 . S
C813 C817 1.429 . S
C814 C797 1.574 . S
C814 H808 0.949 . S
C814 C818 1.368 . S
C815 C796 1.429 . S
C815 C809 1.429 . S
C815 C816 1.523 . S
C816 C797 1.368 . S
C816 C810 1.368 . S
C816 C815 1.523 . S
C817 C801 1.429 . S
C817 C813 1.429 . S
C817 C818 1.523 . S
C818 C802 1.368 . S
C818 C814 1.368 . S
C818 C817 1.523 . S
H819 C794 0.950 . S
H820 C796 0.950 . S
H821 C797 0.949 . S
H822 C799 0.950 . S
H823 C801 0.950 . S
C824 C825 1.349 . S
C824 C826 1.328 . S
C824 H849 0.950 1_655 S
C825 C824 1.349 . S
C825 C841 1.349 . S
C826 C824 1.328 . S
C826 C845 1.446 . S
C826 H850 0.932 1_655 S
C827 C844 1.574 . S
C827 C846 1.368 . S
C827 H851 0.949 . S
H828 C832 0.954 . S
C829 C830 1.349 . S
C829 C831 1.327 . S
C829 H852 0.950 . S
C830 C829 1.349 . S
C830 C842 1.349 . S
C831 C829 1.327 . S
C831 C847 1.429 . S
C831 H853 0.950 . S
C832 H828 0.954 . S
C832 C840 1.574 . S
C832 C848 1.363 1_455 S
H833 C841 0.950 . S
H834 C839 0.950 . S
H835 C840 0.954 . S
H836 C842 0.950 1_455 S
H837 C843 0.932 1_455 S
H838 C844 0.949 . S
C839 H834 0.950 . S
C839 C841 1.327 . S
C839 C845 1.429 . S
C840 C832 1.574 . S
C840 H835 0.954 . S
C840 C846 1.363 1_455 S
C841 C825 1.349 . S
C841 H833 0.950 . S
C841 C839 1.327 . S
C842 C830 1.349 . S
C842 H836 0.950 1_655 S
C842 C843 1.328 . S
C843 H837 0.932 1_655 S
C843 C842 1.328 . S
C843 C847 1.446 . S
C844 C827 1.574 . S
C844 H838 0.949 . S
C844 C848 1.368 . S
C845 C826 1.446 . S
C845 C839 1.429 . S
C845 C846 1.523 . S
C846 C827 1.368 . S
C846 C840 1.363 1_655 S
C846 C845 1.523 . S
C847 C831 1.429 . S
C847 C843 1.446 . S
C847 C848 1.523 . S
C848 C832 1.363 1_655 S
C848 C844 1.368 . S
C848 C847 1.523 . S
H849 C824 0.950 1_455 S
H850 C826 0.932 1_455 S
H851 C827 0.949 . S
H852 C829 0.950 . S
H853 C831 0.950 . S
C854 C855 1.349 1_545 S
C854 C856 1.327 . S
C854 H879 0.950 . S
C855 C854 1.349 1_565 S
C855 C871 1.349 . S
C856 C854 1.327 . S
C856 C875 1.429 1_545 S
C856 H880 0.950 . S
C857 C874 1.574 . S
C857 C876 1.368 . S
C857 H881 0.949 . S
H858 C862 0.949 . S
C859 C860 1.349 . S
C859 C861 1.327 . S
C859 H882 0.950 . S
C860 C859 1.349 . S
C860 C872 1.349 1_565 S
C861 C859 1.327 . S
C861 C877 1.429 . S
C861 H883 0.950 . S
C862 H858 0.949 . S
C862 C870 1.574 . S
C862 C878 1.368 1_545 S
H863 C871 0.950 . S
H864 C869 0.950 . S
H865 C870 0.949 . S
H866 C872 0.950 . S
H867 C873 0.950 . S
H868 C874 0.949 . S
C869 H864 0.950 . S
C869 C871 1.327 . S
C869 C875 1.429 . S
C870 C862 1.574 . S
C870 H865 0.949 . S
C870 C876 1.368 1_545 S
C871 C855 1.349 . S
C871 H863 0.950 . S
C871 C869 1.327 . S
C872 C860 1.349 1_545 S
C872 H866 0.950 . S
C872 C873 1.327 . S
C873 H867 0.950 . S
C873 C872 1.327 . S
C873 C877 1.429 1_545 S
C874 C857 1.574 . S
C874 H868 0.949 . S
C874 C878 1.368 . S
C875 C856 1.429 1_565 S
C875 C869 1.429 . S
C875 C876 1.523 . S
C876 C857 1.368 . S
C876 C870 1.368 1_565 S
C876 C875 1.523 . S
C877 C861 1.429 . S
C877 C873 1.429 1_565 S
C877 C878 1.523 . S
C878 C862 1.368 1_565 S
C878 C874 1.368 . S
C878 C877 1.523 . S
H879 C854 0.950 . S
H880 C856 0.950 . S
H881 C857 0.949 . S
H882 C859 0.950 . S
H883 C861 0.950 . S
C884 C885 1.349 . S
C884 C886 1.327 . S
C884 H909 0.950 . S
C885 C884 1.349 . S
C885 C901 1.349 . S
C886 C884 1.327 . S
C886 C905 1.429 . S
C886 H910 0.950 . S
C887 C904 1.574 . S
C887 C906 1.368 . S
C887 H911 0.949 . S
H888 C892 0.949 . S
C889 C890 1.349 . S
C889 C891 1.327 . S
C889 H912 0.950 . S
C890 C889 1.349 . S
C890 C902 1.349 . S
C891 C889 1.327 . S
C891 C907 1.429 . S
C891 H913 0.950 . S
C892 H888 0.949 . S
C892 C900 1.574 . S
C892 C908 1.368 . S
H893 C901 0.950 . S
H894 C899 0.950 . S
H895 C900 0.949 . S
H896 C902 0.950 . S
H897 C903 0.950 . S
H898 C904 0.949 . S
C899 H894 0.950 . S
C899 C901 1.327 . S
C899 C905 1.429 . S
C900 C892 1.574 . S
C900 H895 0.949 . S
C900 C906 1.368 . S
C901 C885 1.349 . S
C901 H893 0.950 . S
C901 C899 1.327 . S
C902 C890 1.349 . S
C902 H896 0.950 . S
C902 C903 1.327 . S
C903 H897 0.950 . S
C903 C902 1.327 . S
C903 C907 1.429 . S
C904 C887 1.574 . S
C904 H898 0.949 . S
C904 C908 1.368 . S
C905 C886 1.429 . S
C905 C899 1.429 . S
C905 C906 1.523 . S
C906 C887 1.368 . S
C906 C900 1.368 . S
C906 C905 1.523 . S
C907 C891 1.429 . S
C907 C903 1.429 . S
C907 C908 1.523 . S
C908 C892 1.368 . S
C908 C904 1.368 . S
C908 C907 1.523 . S
H909 C884 0.950 . S
H910 C886 0.950 . S
H911 C887 0.949 . S
H912 C889 0.950 . S
H913 C891 0.950 . S
C914 C915 1.349 . S
C914 C916 1.327 . S
C914 H939 0.950 . S
C915 C914 1.349 . S
C915 C931 1.349 . S
C916 C914 1.327 . S
C916 C935 1.429 . S
C916 H940 0.950 . S
C917 C934 1.574 . S
C917 C936 1.368 . S
C917 H941 0.949 . S
H918 C922 0.949 . S
C919 C920 1.349 . S
C919 C921 1.327 . S
C919 H942 0.950 . S
C920 C919 1.349 . S
C920 C932 1.349 . S
C921 C919 1.327 . S
C921 C937 1.429 . S
C921 H943 0.950 . S
C922 H918 0.949 . S
C922 C930 1.574 . S
C922 C938 1.368 . S
H923 C931 0.950 . S
H924 C929 0.950 . S
H925 C930 0.949 . S
H926 C932 0.950 . S
H927 C933 0.950 . S
H928 C934 0.949 . S
C929 H924 0.950 . S
C929 C931 1.327 . S
C929 C935 1.429 . S
C930 C922 1.574 . S
C930 H925 0.949 . S
C930 C936 1.368 . S
C931 C915 1.349 . S
C931 H923 0.950 . S
C931 C929 1.327 . S
C932 C920 1.349 . S
C932 H926 0.950 . S
C932 C933 1.327 . S
C933 H927 0.950 . S
C933 C932 1.327 . S
C933 C937 1.429 . S
C934 C917 1.574 . S
C934 H928 0.949 . S
C934 C938 1.368 . S
C935 C916 1.429 . S
C935 C929 1.429 . S
C935 C936 1.523 . S
C936 C917 1.368 . S
C936 C930 1.368 . S
C936 C935 1.523 . S
C937 C921 1.429 . S
C937 C933 1.429 . S
C937 C938 1.523 . S
C938 C922 1.368 . S
C938 C934 1.368 . S
C938 C937 1.523 . S
H939 C914 0.950 . S
H940 C916 0.950 . S
H941 C917 0.949 . S
H942 C919 0.950 . S
H943 C921 0.950 . S
C944 C945 1.349 . S
C944 C946 1.327 . S
C944 H969 0.950 . S
C945 C944 1.349 . S
C945 C961 1.349 . S
C946 C944 1.327 . S
C946 C965 1.429 . S
C946 H970 0.950 . S
C947 C964 1.574 . S
C947 C966 1.368 1_656 S
C947 H971 0.949 . S
H948 C952 0.949 . S
C949 C950 1.349 . S
C949 C951 1.327 . S
C949 H972 0.950 . S
C950 C949 1.349 . S
C950 C962 1.349 . S
C951 C949 1.327 . S
C951 C967 1.429 . S
C951 H973 0.950 . S
C952 H948 0.949 . S
C952 C960 1.574 . S
C952 C968 1.368 1_454 S
H953 C961 0.950 . S
H954 C959 0.950 1_655 S
H955 C960 0.949 . S
H956 C962 0.950 . S
H957 C963 0.950 1_455 S
H958 C964 0.949 . S
C959 H954 0.950 1_455 S
C959 C961 1.327 . S
C959 C965 1.429 . S
C960 C952 1.574 . S
C960 H955 0.949 . S
C960 C966 1.368 . S
C961 C945 1.349 . S
C961 H953 0.950 . S
C961 C959 1.327 . S
C962 C950 1.349 . S
C962 H956 0.950 . S
C962 C963 1.327 . S
C963 H957 0.950 1_655 S
C963 C962 1.327 . S
C963 C967 1.429 . S
C964 C947 1.574 . S
C964 H958 0.949 . S
C964 C968 1.368 . S
C965 C946 1.429 . S
C965 C959 1.429 . S
C965 C966 1.523 . S
C966 C947 1.368 1_454 S
C966 C960 1.368 . S
C966 C965 1.523 . S
C967 C951 1.429 . S
C967 C963 1.429 . S
C967 C968 1.523 . S
C968 C952 1.368 1_656 S
C968 C964 1.368 . S
C968 C967 1.523 . S
H969 C944 0.950 . S
H970 C946 0.950 . S
H971 C947 0.949 . S
H972 C949 0.950 . S
H973 C951 0.950 . S
C974 C975 1.349 1_545 S
C974 C976 1.327 . S
C974 H999 0.950 . S
C975 C974 1.349 1_565 S
C975 C991 1.349 . S
C976 C974 1.327 . S
C976 C995 1.429 1_545 S
C976 H1000 0.950 . S
C977 C994 1.574 1_455 S
C977 C996 1.368 1_554 S
C977 H1001 0.949 . S
H978 C982 0.949 . S
C979 C980 1.349 1_565 S
C979 C981 1.327 . S
C979 H1002 0.950 . S
C980 C979 1.349 1_545 S
C980 C992 1.349 . S
C981 C979 1.327 . S
C981 C997 1.429 1_565 S
C981 H1003 0.950 . S
C982 H978 0.949 . S
C982 C990 1.574 1_655 S
C982 C998 1.368 1_556 S
H983 C991 0.950 . S
H984 C989 0.950 . S
H985 C990 0.949 . S
H986 C992 0.950 . S
H987 C993 0.950 . S
H988 C994 0.949 . S
C989 H984 0.950 . S
C989 C991 1.327 . S
C989 C995 1.429 . S
C990 C982 1.574 1_455 S
C990 H985 0.949 . S
C990 C996 1.368 1_545 S
C991 C975 1.349 . S
C991 H983 0.950 . S
C991 C989 1.327 . S
C992 C980 1.349 . S
C992 H986 0.950 . S
C992 C993 1.327 . S
C993 H987 0.950 . S
C993 C992 1.327 . S
C993 C997 1.429 . S
C994 C977 1.574 1_655 S
C994 H988 0.949 . S
C994 C998 1.368 1_565 S
C995 C976 1.429 1_565 S
C995 C989 1.429 . S
C995 C996 1.523 . S
C996 C977 1.368 1_556 S
C996 C990 1.368 1_565 S
C996 C995 1.523 . S
C997 C981 1.429 1_545 S
C997 C993 1.429 . S
C997 C998 1.523 . S
C998 C982 1.368 1_554 S
C998 C994 1.368 1_545 S
C998 C997 1.523 . S
H999 C974 0.950 . S
H1000 C976 0.950 . S
H1001 C977 0.949 . S
H1002 C979 0.950 . S
H1003 C981 0.950 . S
C1004 C1005 1.349 . S
C1004 C1006 1.327 . S
C1004 H1029 0.950 . S
C1005 C1004 1.349 . S
C1005 C1021 1.349 . S
C1006 C1004 1.327 . S
C1006 C1025 1.429 . S
C1006 H1030 0.950 . S
C1007 C1024 1.558 1_565 S
C1007 C1026 1.383 . S
C1007 H1031 0.950 . S
H1008 C1012 0.950 . S
C1009 C1010 1.349 . S
C1009 C1011 1.327 . S
C1009 H1032 0.950 . S
C1010 C1009 1.349 . S
C1010 C1022 1.349 . S
C1011 C1009 1.327 . S
C1011 C1027 1.429 . S
C1011 H1033 0.950 . S
C1012 H1008 0.950 . S
C1012 C1020 1.558 1_545 S
C1012 C1028 1.383 . S
H1013 C1021 0.950 . S
H1014 C1019 0.950 . S
H1015 C1020 0.949 . S
H1016 C1022 0.950 . S
H1017 C1023 0.950 . S
H1018 C1024 0.949 . S
C1019 H1014 0.950 . S
C1019 C1021 1.327 . S
C1019 C1025 1.429 . S
C1020 C1012 1.558 1_565 S
C1020 H1015 0.949 . S
C1020 C1026 1.368 1_556 S
C1021 C1005 1.349 . S
C1021 H1013 0.950 . S
C1021 C1019 1.327 . S
C1022 C1010 1.349 . S
C1022 H1016 0.950 . S
C1022 C1023 1.327 . S
C1023 H1017 0.950 . S
C1023 C1022 1.327 . S
C1023 C1027 1.429 . S
C1024 C1007 1.558 1_545 S
C1024 H1018 0.949 . S
C1024 C1028 1.368 1_554 S
C1025 C1006 1.429 . S
C1025 C1019 1.429 . S
C1025 C1026 1.523 . S
C1026 C1007 1.383 . S
C1026 C1020 1.368 1_554 S
C1026 C1025 1.523 . S
C1027 C1011 1.429 . S
C1027 C1023 1.429 . S
C1027 C1028 1.523 . S
C1028 C1012 1.383 . S
C1028 C1024 1.368 1_556 S
C1028 C1027 1.523 . S
H1029 C1004 0.950 . S
H1030 C1006 0.950 . S
H1031 C1007 0.950 . S
H1032 C1009 0.950 . S
H1033 C1011 0.950 . S
C1034 C1035 1.349 . S
C1034 C1036 1.327 . S
C1034 H1059 0.950 . S
C1035 C1034 1.349 . S
C1035 C1051 1.349 . S
C1036 C1034 1.327 . S
C1036 C1055 1.429 . S
C1036 H1060 0.950 . S
C1037 C1054 1.574 . S
C1037 C1056 1.368 1_554 S
C1037 H1061 0.949 . S
H1038 C1042 0.949 . S
C1039 C1040 1.349 . S
C1039 C1041 1.327 . S
C1039 H1062 0.950 . S
C1040 C1039 1.349 . S
C1040 C1052 1.349 . S
C1041 C1039 1.327 . S
C1041 C1057 1.429 . S
C1041 H1063 0.950 . S
C1042 H1038 0.949 . S
C1042 C1050 1.574 . S
C1042 C1058 1.368 1_556 S
H1043 C1051 0.950 . S
H1044 C1049 0.950 . S
H1045 C1050 0.949 . S
H1046 C1052 0.950 . S
H1047 C1053 0.950 . S
H1048 C1054 0.949 . S
C1049 H1044 0.950 . S
C1049 C1051 1.327 . S
C1049 C1055 1.429 . S
C1050 C1042 1.574 . S
C1050 H1045 0.949 . S
C1050 C1056 1.368 . S
C1051 C1035 1.349 . S
C1051 H1043 0.950 . S
C1051 C1049 1.327 . S
C1052 C1040 1.349 . S
C1052 H1046 0.950 . S
C1052 C1053 1.327 . S
C1053 H1047 0.950 . S
C1053 C1052 1.327 . S
C1053 C1057 1.429 . S
C1054 C1037 1.574 . S
C1054 H1048 0.949 . S
C1054 C1058 1.368 . S
C1055 C1036 1.429 . S
C1055 C1049 1.429 . S
C1055 C1056 1.523 . S
C1056 C1037 1.368 1_556 S
C1056 C1050 1.368 . S
C1056 C1055 1.523 . S
C1057 C1041 1.429 . S
C1057 C1053 1.429 . S
C1057 C1058 1.523 . S
C1058 C1042 1.368 1_554 S
C1058 C1054 1.368 . S
C1058 C1057 1.523 . S
H1059 C1034 0.950 . S
H1060 C1036 0.950 . S
H1061 C1037 0.949 . S
H1062 C1039 0.950 . S
H1063 C1041 0.950 . S
C1064 C1065 1.349 . S
C1064 C1066 1.327 1_455 S
C1064 H1089 0.950 1_455 S
C1065 C1064 1.349 . S
C1065 C1081 1.349 . S
C1066 C1064 1.327 1_655 S
C1066 C1085 1.429 1_655 S
C1066 H1090 0.950 . S
C1067 C1084 1.562 1_565 S
C1067 C1086 1.368 . S
C1067 H1091 0.949 . S
H1068 C1072 0.949 . S
C1069 C1070 1.349 . S
C1069 C1071 1.327 1_655 S
C1069 H1092 0.950 1_655 S
C1070 C1069 1.349 . S
C1070 C1082 1.349 . S
C1071 C1069 1.327 1_455 S
C1071 C1087 1.429 1_455 S
C1071 H1093 0.950 . S
C1072 H1068 0.949 . S
C1072 C1080 1.562 1_545 S
C1072 C1088 1.368 . S
H1073 C1081 0.950 . S
H1074 C1079 0.950 . S
H1075 C1080 0.950 . S
H1076 C1082 0.950 . S
H1077 C1083 0.950 . S
H1078 C1084 0.950 . S
C1079 H1074 0.950 . S
C1079 C1081 1.327 . S
C1079 C1085 1.429 . S
C1080 C1072 1.562 1_565 S
C1080 H1075 0.950 . S
C1080 C1086 1.380 1_655 S
C1081 C1065 1.349 . S
C1081 H1073 0.950 . S
C1081 C1079 1.327 . S
C1082 C1070 1.349 . S
C1082 H1076 0.950 . S
C1082 C1083 1.327 . S
C1083 H1077 0.950 . S
C1083 C1082 1.327 . S
C1083 C1087 1.429 . S
C1084 C1067 1.562 1_545 S
C1084 H1078 0.950 . S
C1084 C1088 1.380 1_455 S
C1085 C1066 1.429 1_455 S
C1085 C1079 1.429 . S
C1085 C1086 1.523 . S
C1086 C1067 1.368 . S
C1086 C1080 1.380 1_455 S
C1086 C1085 1.523 . S
C1087 C1071 1.429 1_655 S
C1087 C1083 1.429 . S
C1087 C1088 1.523 . S
C1088 C1072 1.368 . S
C1088 C1084 1.380 1_655 S
C1088 C1087 1.523 . S
H1089 C1064 0.950 1_655 S
H1090 C1066 0.950 . S
H1091 C1067 0.949 . S
H1092 C1069 0.950 1_455 S
H1093 C1071 0.950 . S
C1094 C1095 1.349 . S
C1094 C1096 1.327 . S
C1094 H1119 0.950 . S
C1095 C1094 1.349 . S
C1095 C1111 1.349 1_545 S
C1096 C1094 1.327 . S
C1096 C1115 1.429 . S
C1096 H1120 0.950 . S
C1097 C1114 1.574 . S
C1097 C1116 1.368 1_565 S
C1097 H1121 0.949 . S
H1098 C1102 0.949 . S
C1099 C1100 1.349 . S
C1099 C1101 1.327 . S
C1099 H1122 0.950 . S
C1100 C1099 1.349 . S
C1100 C1112 1.349 1_565 S
C1101 C1099 1.327 . S
C1101 C1117 1.429 . S
C1101 H1123 0.950 . S
C1102 H1098 0.949 . S
C1102 C1110 1.574 . S
C1102 C1118 1.368 1_545 S
H1103 C1111 0.950 . S
H1104 C1109 0.950 . S
H1105 C1110 0.949 . S
H1106 C1112 0.950 . S
H1107 C1113 0.950 . S
H1108 C1114 0.949 . S
C1109 H1104 0.950 . S
C1109 C1111 1.327 . S
C1109 C1115 1.429 1_565 S
C1110 C1102 1.574 . S
C1110 H1105 0.949 . S
C1110 C1116 1.368 . S
C1111 C1095 1.349 1_565 S
C1111 H1103 0.950 . S
C1111 C1109 1.327 . S
C1112 C1100 1.349 1_545 S
C1112 H1106 0.950 . S
C1112 C1113 1.327 . S
C1113 H1107 0.950 . S
C1113 C1112 1.327 . S
C1113 C1117 1.429 1_545 S
C1114 C1097 1.574 . S
C1114 H1108 0.949 . S
C1114 C1118 1.368 . S
C1115 C1096 1.429 . S
C1115 C1109 1.429 1_545 S
C1115 C1116 1.523 . S
C1116 C1097 1.368 1_545 S
C1116 C1110 1.368 . S
C1116 C1115 1.523 . S
C1117 C1101 1.429 . S
C1117 C1113 1.429 1_565 S
C1117 C1118 1.523 . S
C1118 C1102 1.368 1_565 S
C1118 C1114 1.368 . S
C1118 C1117 1.523 . S
H1119 C1094 0.950 . S
H1120 C1096 0.950 . S
H1121 C1097 0.949 . S
H1122 C1099 0.950 . S
H1123 C1101 0.950 . S
C1124 C1125 1.349 . S
C1124 C1126 1.327 . S
C1124 H1149 0.950 . S
C1125 C1124 1.349 . S
C1125 C1141 1.349 . S
C1126 C1124 1.327 . S
C1126 C1145 1.429 . S
C1126 H1150 0.950 . S
C1127 C1144 1.574 . S
C1127 C1146 1.368 . S
C1127 H1151 0.949 . S
H1128 C1132 0.949 . S
C1129 C1130 1.349 . S
C1129 C1131 1.327 . S
C1129 H1152 0.950 . S
C1130 C1129 1.349 . S
C1130 C1142 1.349 . S
C1131 C1129 1.327 . S
C1131 C1147 1.429 . S
C1131 H1153 0.950 . S
C1132 H1128 0.949 . S
C1132 C1140 1.574 . S
C1132 C1148 1.368 . S
H1133 C1141 0.950 . S
H1134 C1139 0.950 . S
H1135 C1140 0.949 . S
H1136 C1142 0.950 . S
H1137 C1143 0.950 . S
H1138 C1144 0.949 . S
C1139 H1134 0.950 . S
C1139 C1141 1.327 . S
C1139 C1145 1.429 . S
C1140 C1132 1.574 . S
C1140 H1135 0.949 . S
C1140 C1146 1.368 . S
C1141 C1125 1.349 . S
C1141 H1133 0.950 . S
C1141 C1139 1.327 . S
C1142 C1130 1.349 . S
C1142 H1136 0.950 . S
C1142 C1143 1.327 . S
C1143 H1137 0.950 . S
C1143 C1142 1.327 . S
C1143 C1147 1.429 . S
C1144 C1127 1.574 . S
C1144 H1138 0.949 . S
C1144 C1148 1.368 . S
C1145 C1126 1.429 . S
C1145 C1139 1.429 . S
C1145 C1146 1.523 . S
C1146 C1127 1.368 . S
C1146 C1140 1.368 . S
C1146 C1145 1.523 . S
C1147 C1131 1.429 . S
C1147 C1143 1.429 . S
C1147 C1148 1.523 . S
C1148 C1132 1.368 . S
C1148 C1144 1.368 . S
C1148 C1147 1.523 . S
H1149 C1124 0.950 . S
H1150 C1126 0.950 . S
H1151 C1127 0.949 . S
H1152 C1129 0.950 . S
H1153 C1131 0.950 . S
C1154 C1155 1.349 . S
C1154 C1156 1.327 . S
C1154 H1179 0.950 . S
C1155 C1154 1.349 . S
C1155 C1171 1.349 . S
C1156 C1154 1.327 . S
C1156 C1175 1.429 . S
C1156 H1180 0.950 . S
C1157 C1174 1.574 1_655 S
C1157 C1176 1.368 . S
C1157 H1181 0.949 . S
H1158 C1162 0.949 . S
C1159 C1160 1.349 . S
C1159 C1161 1.327 . S
C1159 H1182 0.950 . S
C1160 C1159 1.349 . S
C1160 C1172 1.349 . S
C1161 C1159 1.327 . S
C1161 C1177 1.429 . S
C1161 H1183 0.950 . S
C1162 H1158 0.949 . S
C1162 C1170 1.574 1_455 S
C1162 C1178 1.368 . S
H1163 C1171 0.950 . S
H1164 C1169 0.950 . S
H1165 C1170 0.949 . S
H1166 C1172 0.950 . S
H1167 C1173 0.950 . S
H1168 C1174 0.949 . S
C1169 H1164 0.950 . S
C1169 C1171 1.327 . S
C1169 C1175 1.429 . S
C1170 C1162 1.574 1_655 S
C1170 H1165 0.949 . S
C1170 C1176 1.368 . S
C1171 C1155 1.349 . S
C1171 H1163 0.950 . S
C1171 C1169 1.327 . S
C1172 C1160 1.349 . S
C1172 H1166 0.950 . S
C1172 C1173 1.327 . S
C1173 H1167 0.950 . S
C1173 C1172 1.327 . S
C1173 C1177 1.429 . S
C1174 C1157 1.574 1_455 S
C1174 H1168 0.949 . S
C1174 C1178 1.368 . S
C1175 C1156 1.429 . S
C1175 C1169 1.429 . S
C1175 C1176 1.523 . S
C1176 C1157 1.368 . S
C1176 C1170 1.368 . S
C1176 C1175 1.523 . S
C1177 C1161 1.429 . S
C1177 C1173 1.429 . S
C1177 C1178 1.523 . S
C1178 C1162 1.368 . S
C1178 C1174 1.368 . S
C1178 C1177 1.523 . S
H1179 C1154 0.950 . S
H1180 C1156 0.950 . S
H1181 C1157 0.949 . S
H1182 C1159 0.950 . S
H1183 C1161 0.950 . S
C225 C0 1.624 . S
C230 C28 1.624 . S
C255 C14 1.624 . S
C260 C42 1.624 . S
C285 C56 1.624 . S
C290 C84 1.624 . S
C315 C98 1.624 . S
C320 C70 1.624 . S
C345 C112 1.624 . S
C350 C140 1.624 . S
C375 C154 1.624 . S
C380 C126 1.624 . S
C405 C196 1.624 . S
C410 C168 1.624 . S
C435 C210 1.624 . S
C440 C182 1.624 . S
C465 C107 1.051 . S
C470 C9 1.051 . S
C495 C23 1.051 . S
C500 C65 1.051 . S
C525 C79 1.051 . S
C530 C37 1.051 . S
C555 C51 1.051 . S
C560 C93 1.051 . S
C585 C219 1.051 . S
C590 C121 1.051 . S
C615 C135 1.051 . S
C620 C177 1.051 . S
C645 C149 1.051 . S
C650 C191 1.051 . S
C675 C205 1.051 . S
C680 C163 1.051 . S
C705 C5 0.602 . S
C710 C61 0.602 . S
C735 C19 0.602 . S
C740 C75 0.602 . S
C765 C89 0.602 . S
C770 C33 0.602 . S
C795 C47 0.602 . S
C800 C103 0.602 . S
C825 C173 0.602 . S
C830 C117 0.602 . S
C855 C187 0.602 . S
C860 C131 0.602 . S
C885 C145 0.602 . S
C890 C201 0.602 . S
C915 C159 0.602 . S
C920 C215 0.602 . S
C945 C11 1.737 . S
C950 C123 1.737 . S
C975 C137 1.737 . S
C980 C25 1.737 . S
C1005 C39 1.737 . S
C1010 C151 1.737 . S
C1035 C165 1.737 . S
C1040 C53 1.737 . S
C1065 C67 1.737 . S
C1070 C179 1.737 . S
C1095 C81 1.737 . S
C1100 C193 1.737 . S
C1125 C207 1.737 . S
C1130 C95 1.737 . S
C1155 C109 1.737 . S
C1160 C221 1.737 . S
