# Generated by pormake.
# Topology dei, (4)-cn, num edge types: 1
# Building blocks:
#     Node 0, Type 0, BuildingBlock: KUFVIS_clean_sbu_0, # of connection points: 4
#     Node 1, Type 0, BuildingBlock: KUFVIS_clean_sbu_0, # of connection points: 4
#     Node 2, Type 0, BuildingBlock: KUFVIS_clean_sbu_0, # of connection points: 4
#     Node 3, Type 0, BuildingBlock: KUFVIS_clean_sbu_0, # of connection points: 4
#     Node 4, Type 0, BuildingBlock: KUFVIS_clean_sbu_0, # of connection points: 4
#     Node 5, Type 0, BuildingBlock: KUFVIS_clean_sbu_0, # of connection points: 4
#     Node 6, Type 0, BuildingBlock: KUFVIS_clean_sbu_0, # of connection points: 4
#     Node 7, Type 0, BuildingBlock: KUFVIS_clean_sbu_0, # of connection points: 4
#     Node 8, Type 0, BuildingBlock: KUFVIS_clean_sbu_0, # of connection points: 4
#     Node 9, Type 0, BuildingBlock: KUFVIS_clean_sbu_0, # of connection points: 4
#     Node 10, Type 0, BuildingBlock: KUFVIS_clean_sbu_0, # of connection points: 4
#     Node 11, Type 0, BuildingBlock: KUFVIS_clean_sbu_0, # of connection points: 4
#     Node 12, Type 0, BuildingBlock: KUFVIS_clean_sbu_0, # of connection points: 4
#     Node 13, Type 0, BuildingBlock: KUFVIS_clean_sbu_0, # of connection points: 4
#     Node 14, Type 0, BuildingBlock: KUFVIS_clean_sbu_0, # of connection points: 4
#     Node 15, Type 0, BuildingBlock: KUFVIS_clean_sbu_0, # of connection points: 4
#     Node 16, Type 0, BuildingBlock: KUFVIS_clean_sbu_0, # of connection points: 4
#     Node 17, Type 0, BuildingBlock: KUFVIS_clean_sbu_0, # of connection points: 4
#     Node 18, Type 0, BuildingBlock: KUFVIS_clean_sbu_0, # of connection points: 4
#     Node 19, Type 0, BuildingBlock: KUFVIS_clean_sbu_0, # of connection points: 4
#     Node 20, Type 0, BuildingBlock: KUFVIS_clean_sbu_0, # of connection points: 4
#     Node 21, Type 0, BuildingBlock: KUFVIS_clean_sbu_0, # of connection points: 4
#     Node 22, Type 0, BuildingBlock: KUFVIS_clean_sbu_0, # of connection points: 4
#     Node 23, Type 0, BuildingBlock: KUFVIS_clean_sbu_0, # of connection points: 4
#     Node 24, Type 0, BuildingBlock: KUFVIS_clean_sbu_0, # of connection points: 4
#     Node 25, Type 0, BuildingBlock: KUFVIS_clean_sbu_0, # of connection points: 4
#     Node 26, Type 0, BuildingBlock: KUFVIS_clean_sbu_0, # of connection points: 4
#     Node 27, Type 0, BuildingBlock: KUFVIS_clean_sbu_0, # of connection points: 4
#     Node 28, Type 0, BuildingBlock: KUFVIS_clean_sbu_0, # of connection points: 4
#     Node 29, Type 0, BuildingBlock: KUFVIS_clean_sbu_0, # of connection points: 4
#     Node 30, Type 0, BuildingBlock: KUFVIS_clean_sbu_0, # of connection points: 4
#     Node 31, Type 0, BuildingBlock: KUFVIS_clean_sbu_0, # of connection points: 4
#     Edge 32, Type (0, 0), BuildingBlock: EZIPEK_clean_linker_0, # of connection points: 2
#     Edge 33, Type (0, 0), BuildingBlock: EZIPEK_clean_linker_0, # of connection points: 2
#     Edge 34, Type (0, 0), BuildingBlock: EZIPEK_clean_linker_0, # of connection points: 2
#     Edge 35, Type (0, 0), BuildingBlock: EZIPEK_clean_linker_0, # of connection points: 2
#     Edge 36, Type (0, 0), BuildingBlock: EZIPEK_clean_linker_0, # of connection points: 2
#     Edge 37, Type (0, 0), BuildingBlock: EZIPEK_clean_linker_0, # of connection points: 2
#     Edge 38, Type (0, 0), BuildingBlock: EZIPEK_clean_linker_0, # of connection points: 2
#     Edge 39, Type (0, 0), BuildingBlock: EZIPEK_clean_linker_0, # of connection points: 2
#     Edge 40, Type (0, 0), BuildingBlock: EZIPEK_clean_linker_0, # of connection points: 2
#     Edge 41, Type (0, 0), BuildingBlock: EZIPEK_clean_linker_0, # of connection points: 2
#     Edge 42, Type (0, 0), BuildingBlock: EZIPEK_clean_linker_0, # of connection points: 2
#     Edge 43, Type (0, 0), BuildingBlock: EZIPEK_clean_linker_0, # of connection points: 2
#     Edge 44, Type (0, 0), BuildingBlock: EZIPEK_clean_linker_0, # of connection points: 2
#     Edge 45, Type (0, 0), BuildingBlock: EZIPEK_clean_linker_0, # of connection points: 2
#     Edge 46, Type (0, 0), BuildingBlock: EZIPEK_clean_linker_0, # of connection points: 2
#     Edge 47, Type (0, 0), BuildingBlock: EZIPEK_clean_linker_0, # of connection points: 2
#     Edge 48, Type (0, 0), BuildingBlock: EZIPEK_clean_linker_0, # of connection points: 2
#     Edge 49, Type (0, 0), BuildingBlock: EZIPEK_clean_linker_0, # of connection points: 2
#     Edge 50, Type (0, 0), BuildingBlock: EZIPEK_clean_linker_0, # of connection points: 2
#     Edge 51, Type (0, 0), BuildingBlock: EZIPEK_clean_linker_0, # of connection points: 2
#     Edge 52, Type (0, 0), BuildingBlock: EZIPEK_clean_linker_0, # of connection points: 2
#     Edge 53, Type (0, 0), BuildingBlock: EZIPEK_clean_linker_0, # of connection points: 2
#     Edge 54, Type (0, 0), BuildingBlock: EZIPEK_clean_linker_0, # of connection points: 2
#     Edge 55, Type (0, 0), BuildingBlock: EZIPEK_clean_linker_0, # of connection points: 2
#     Edge 56, Type (0, 0), BuildingBlock: EZIPEK_clean_linker_0, # of connection points: 2
#     Edge 57, Type (0, 0), BuildingBlock: EZIPEK_clean_linker_0, # of connection points: 2
#     Edge 58, Type (0, 0), BuildingBlock: EZIPEK_clean_linker_0, # of connection points: 2
#     Edge 59, Type (0, 0), BuildingBlock: EZIPEK_clean_linker_0, # of connection points: 2
#     Edge 60, Type (0, 0), BuildingBlock: EZIPEK_clean_linker_0, # of connection points: 2
#     Edge 61, Type (0, 0), BuildingBlock: EZIPEK_clean_linker_0, # of connection points: 2
#     Edge 62, Type (0, 0), BuildingBlock: EZIPEK_clean_linker_0, # of connection points: 2
#     Edge 63, Type (0, 0), BuildingBlock: EZIPEK_clean_linker_0, # of connection points: 2
#     Edge 64, Type (0, 0), BuildingBlock: EZIPEK_clean_linker_0, # of connection points: 2
#     Edge 65, Type (0, 0), BuildingBlock: EZIPEK_clean_linker_0, # of connection points: 2
#     Edge 66, Type (0, 0), BuildingBlock: EZIPEK_clean_linker_0, # of connection points: 2
#     Edge 67, Type (0, 0), BuildingBlock: EZIPEK_clean_linker_0, # of connection points: 2
#     Edge 68, Type (0, 0), BuildingBlock: EZIPEK_clean_linker_0, # of connection points: 2
#     Edge 69, Type (0, 0), BuildingBlock: EZIPEK_clean_linker_0, # of connection points: 2
#     Edge 70, Type (0, 0), BuildingBlock: EZIPEK_clean_linker_0, # of connection points: 2
#     Edge 71, Type (0, 0), BuildingBlock: EZIPEK_clean_linker_0, # of connection points: 2
#     Edge 72, Type (0, 0), BuildingBlock: EZIPEK_clean_linker_0, # of connection points: 2
#     Edge 73, Type (0, 0), BuildingBlock: EZIPEK_clean_linker_0, # of connection points: 2
#     Edge 74, Type (0, 0), BuildingBlock: EZIPEK_clean_linker_0, # of connection points: 2
#     Edge 75, Type (0, 0), BuildingBlock: EZIPEK_clean_linker_0, # of connection points: 2
#     Edge 76, Type (0, 0), BuildingBlock: EZIPEK_clean_linker_0, # of connection points: 2
#     Edge 77, Type (0, 0), BuildingBlock: EZIPEK_clean_linker_0, # of connection points: 2
#     Edge 78, Type (0, 0), BuildingBlock: EZIPEK_clean_linker_0, # of connection points: 2
#     Edge 79, Type (0, 0), BuildingBlock: EZIPEK_clean_linker_0, # of connection points: 2
#     Edge 80, Type (0, 0), BuildingBlock: EZIPEK_clean_linker_0, # of connection points: 2
#     Edge 81, Type (0, 0), BuildingBlock: EZIPEK_clean_linker_0, # of connection points: 2
#     Edge 82, Type (0, 0), BuildingBlock: EZIPEK_clean_linker_0, # of connection points: 2
#     Edge 83, Type (0, 0), BuildingBlock: EZIPEK_clean_linker_0, # of connection points: 2
#     Edge 84, Type (0, 0), BuildingBlock: EZIPEK_clean_linker_0, # of connection points: 2
#     Edge 85, Type (0, 0), BuildingBlock: EZIPEK_clean_linker_0, # of connection points: 2
#     Edge 86, Type (0, 0), BuildingBlock: EZIPEK_clean_linker_0, # of connection points: 2
#     Edge 87, Type (0, 0), BuildingBlock: EZIPEK_clean_linker_0, # of connection points: 2
#     Edge 88, Type (0, 0), BuildingBlock: EZIPEK_clean_linker_0, # of connection points: 2
#     Edge 89, Type (0, 0), BuildingBlock: EZIPEK_clean_linker_0, # of connection points: 2
#     Edge 90, Type (0, 0), BuildingBlock: EZIPEK_clean_linker_0, # of connection points: 2
#     Edge 91, Type (0, 0), BuildingBlock: EZIPEK_clean_linker_0, # of connection points: 2
#     Edge 92, Type (0, 0), BuildingBlock: EZIPEK_clean_linker_0, # of connection points: 2
#     Edge 93, Type (0, 0), BuildingBlock: EZIPEK_clean_linker_0, # of connection points: 2
#     Edge 94, Type (0, 0), BuildingBlock: EZIPEK_clean_linker_0, # of connection points: 2
#     Edge 95, Type (0, 0), BuildingBlock: EZIPEK_clean_linker_0, # of connection points: 2
# Relax obj value: 0.218
# Max RMSD: 0.069
# Mean RMSD: 0.069
data_MOF--net-dei--node1-KUFVIS_clean_sbu_0--edge1-EZIPEK_clean_linker_0
_symmetry_space_group_name_H-M    P1
_symmetry_Int_Tables_number       1
_symmetry_cell_setting            triclinic
loop_
_symmetry_equiv_pos_as_xyz
'x, y, z'
_cell_length_a     43.379297
_cell_length_b     43.174687
_cell_length_c     56.962702
_cell_angle_alpha  89.918163
_cell_angle_beta   89.938268
_cell_angle_gamma 90.2688
loop_
_atom_site_label
_atom_site_type_symbol
_atom_site_fract_x
_atom_site_fract_y
_atom_site_fract_z
_atom_type_partial_charge
Mn0 Mn 0.13231 0.5969 0.02151 0.0
Mn1 Mn 0.08464 0.63108 0.05577 0.0
C2 C 0.07808 0.58796 0.01454 0.0
C3 C 0.16025 0.55207 0.01229 0.0
C4 C 0.12509 0.66909 0.02272 0.0
O5 O 0.15759 0.60363 0.05255 0.0
O6 O 0.11855 0.61873 0.07576 0.0
C7 C 0.06458 0.60095 0.10726 0.0
N8 N 0.05877 0.61041 0.07997 0.0
C9 C 0.99307 0.64887 0.10297 0.0
C10 C 0.00561 0.6335 0.13069 0.0
C11 C 0.04031 0.61069 0.13206 0.0
C12 C 0.03304 0.63084 0.07097 0.0
H13 H 0.08605 0.58969 0.11143 0.0
C14 C 0.14573 0.60851 0.07295 0.0
O15 O 0.16871 0.57892 0.00415 0.0
O16 O 0.13695 0.55175 0.02631 0.0
N17 N 0.05177 0.64321 0.03371 0.0
C18 C 0.04159 0.64636 0.00954 0.0
C19 C 0.01559 0.66881 0.00187 0.0
C20 C 0.99455 0.71005 0.03021 0.0
C21 C 0.00922 0.7037 0.05633 0.0
C22 C 0.04161 0.65778 0.05337 0.0
H23 H 0.05581 0.63755 0.99555 0.0
O24 O 0.09832 0.58717 0.99779 0.0
O25 O 0.09047 0.59615 0.03466 0.0
O26 O 0.13485 0.64559 0.01092 0.0
O27 O 0.10937 0.66389 0.0408 0.0
C28 C 0.98536 0.70846 0.07877 0.0
C29 C 0.9778 0.68343 0.09984 0.0
H30 H 0.99479 0.64101 0.1468 0.0
H31 H 0.04882 0.60396 0.14897 0.0
H32 H 0.01018 0.66417 0.98337 0.0
H33 H 0.97432 0.72467 0.02972 0.0
H34 H 0.97082 0.72851 0.07837 0.0
H35 H 0.96427 0.69211 0.11393 0.0
Mn36 Mn 0.62922 0.86978 0.27039 0.0
Mn37 Mn 0.60339 0.81543 0.30338 0.0
C38 C 0.63568 0.81608 0.25939 0.0
C39 C 0.67335 0.89795 0.2581 0.0
C40 C 0.55829 0.86209 0.28082 0.0
O41 O 0.63015 0.88916 0.3044 0.0
O42 O 0.62079 0.84543 0.32518 0.0
C43 C 0.6641 0.77402 0.32543 0.0
N44 N 0.63458 0.78502 0.31647 0.0
C45 C 0.58855 0.74384 0.35592 0.0
C46 C 0.61955 0.72936 0.36802 0.0
C47 C 0.66715 0.74956 0.34597 0.0
C48 C 0.60519 0.77461 0.32218 0.0
H49 H 0.6849 0.78613 0.32052 0.0
C50 C 0.62985 0.87355 0.32388 0.0
O51 O 0.64588 0.908 0.25332 0.0
O52 O 0.67467 0.87323 0.2706 0.0
N53 N 0.58562 0.78827 0.28015 0.0
C54 C 0.55672 0.79182 0.2634 0.0
C55 C 0.52482 0.76715 0.26235 0.0
C56 C 0.51751 0.73346 0.28095 0.0
C57 C 0.54561 0.72338 0.30307 0.0
C58 C 0.5911 0.76419 0.2984 0.0
H59 H 0.55695 0.81082 0.25118 0.0
O60 O 0.63402 0.83719 0.24326 0.0
O61 O 0.63123 0.82753 0.27992 0.0
O62 O 0.57915 0.87332 0.26685 0.0
O63 O 0.56703 0.84327 0.29669 0.0
C64 C 0.5396 0.70941 0.33072 0.0
C65 C 0.55885 0.71963 0.35443 0.0
H66 H 0.61649 0.71399 0.38302 0.0
H67 H 0.69179 0.74502 0.34876 0.0
H68 H 0.51111 0.77192 0.24697 0.0
H69 H 0.52924 0.72362 0.29454 0.0
H70 H 0.51994 0.69426 0.33325 0.0
H71 H 0.55372 0.70669 0.37012 0.0
Mn72 Mn 0.37951 0.40942 0.51641 0.0
Mn73 Mn 0.42656 0.3836 0.55454 0.0
C74 C 0.43391 0.41602 0.5074 0.0
C75 C 0.35209 0.45475 0.50752 0.0
C76 C 0.38146 0.3394 0.52919 0.0
O77 O 0.3577 0.40626 0.54951 0.0
O78 O 0.40035 0.41485 0.56992 0.0
C79 C 0.43678 0.38078 0.61464 0.0
N80 N 0.44011 0.37195 0.58708 0.0
C81 C 0.50872 0.33409 0.60535 0.0
C82 C 0.49765 0.34743 0.63484 0.0
C83 C 0.4625 0.36932 0.63811 0.0
C84 C 0.46619 0.35448 0.57603 0.0
H85 H 0.41895 0.39686 0.61937 0.0
C86 C 0.37105 0.41473 0.56871 0.0
O87 O 0.34146 0.42774 0.50142 0.0
O88 O 0.37751 0.45512 0.51916 0.0
N89 N 0.44882 0.34966 0.53797 0.0
C90 C 0.45674 0.34601 0.51327 0.0
C91 C 0.48162 0.32292 0.50386 0.0
C92 C 0.50296 0.28026 0.52991 0.0
C93 C 0.48969 0.2845 0.5562 0.0
C94 C 0.4575 0.33068 0.5568 0.0
H95 H 0.44468 0.35944 0.50036 0.0
O96 O 0.41396 0.41917 0.49067 0.0
O97 O 0.4204 0.40372 0.52544 0.0
O98 O 0.37658 0.3598 0.51268 0.0
O99 O 0.39243 0.34943 0.54939 0.0
C100 C 0.51508 0.27742 0.57662 0.0
C101 C 0.52455 0.2994 0.5984 0.0
H102 H 0.50836 0.33754 0.62073 0.0
H103 H 0.45675 0.37756 0.65546 0.0
H104 H 0.48339 0.32593 0.48483 0.0
H105 H 0.52193 0.26421 0.52785 0.0
H106 H 0.5322 0.26101 0.57238 0.0
H107 H 0.54281 0.29002 0.60849 0.0
Mn108 Mn 0.85733 0.12154 0.7829 0.0
Mn109 Mn 0.89833 0.16619 0.81234 0.0
C110 C 0.85198 0.17552 0.77439 0.0
C111 C 0.80826 0.09844 0.7762 0.0
C112 C 0.9272 0.11882 0.78407 0.0
O113 O 0.863 0.10047 0.81617 0.0
O114 O 0.87782 0.14278 0.83705 0.0
C115 C 0.86282 0.21606 0.84577 0.0
N116 N 0.88645 0.20489 0.82946 0.0
C117 C 0.93897 0.26473 0.84074 0.0
C118 C 0.91477 0.28022 0.85877 0.0
C119 C 0.8656 0.24737 0.86037 0.0
C120 C 0.91431 0.21928 0.82346 0.0
H121 H 0.84298 0.2015 0.84911 0.0
C122 C 0.86547 0.11577 0.83577 0.0
O123 O 0.83307 0.08709 0.76686 0.0
O124 O 0.81301 0.12045 0.79081 0.0
N125 N 0.9162 0.18804 0.78422 0.0
C126 C 0.93511 0.1809 0.76023 0.0
C127 C 0.95813 0.20771 0.74388 0.0
C128 C 0.96401 0.24787 0.75034 0.0
C129 C 0.9467 0.26408 0.77695 0.0
C130 C 0.91352 0.21906 0.79633 0.0
H131 H 0.93389 0.15843 0.75236 0.0
O132 O 0.84785 0.15464 0.75841 0.0
O133 O 0.8607 0.16375 0.79435 0.0
O134 O 0.90474 0.11594 0.76957 0.0
O135 O 0.91816 0.12645 0.80399 0.0
C136 C 0.9623 0.29007 0.79602 0.0
C137 C 0.95868 0.2898 0.82477 0.0
H138 H 0.92057 0.30322 0.86562 0.0
H139 H 0.84402 0.25096 0.87008 0.0
H140 H 0.9679 0.19909 0.72769 0.0
H141 H 0.95715 0.26174 0.76399 0.0
H142 H 0.97843 0.3065 0.78886 0.0
H143 H 0.96717 0.31004 0.8339 0.0
Mn144 Mn 0.12599 0.38297 0.98309 0.0
Mn145 Mn 0.07511 0.34907 0.95096 0.0
C146 C 0.07221 0.38684 0.99288 0.0
C147 C 0.15412 0.42822 0.99111 0.0
C148 C 0.12219 0.31094 0.9786 0.0
O149 O 0.14632 0.38014 0.94935 0.0
O150 O 0.10407 0.36692 0.92859 0.0
C151 C 0.03341 0.40671 0.92545 0.0
N152 N 0.04362 0.37756 0.93597 0.0
C153 C 0.00039 0.3292 0.89931 0.0
C154 C 0.98685 0.35935 0.88577 0.0
C155 C 0.00849 0.40871 0.90508 0.0
C156 C 0.03271 0.34794 0.93173 0.0
H157 H 0.0459 0.42766 0.92945 0.0
C158 C 0.13142 0.37759 0.92974 0.0
O159 O 0.16421 0.40131 0.99775 0.0
O160 O 0.12848 0.42854 0.97967 0.0
N161 N 0.04783 0.32999 0.97408 0.0
C162 C 0.05059 0.301 0.99152 0.0
C163 C 0.02401 0.26976 0.99372 0.0
C164 C 0.98976 0.26473 0.97596 0.0
C165 C 0.98093 0.29167 0.95413 0.0
C166 C 0.02316 0.33558 0.9562 0.0
H167 H 0.06868 0.30171 0.00425 0.0
O168 O 0.09283 0.39007 0.00925 0.0
O169 O 0.08442 0.3802 0.973 0.0
O170 O 0.131 0.33424 0.99112 0.0
O171 O 0.10528 0.31607 0.96074 0.0
C172 C 0.96589 0.28377 0.92832 0.0
C173 C 0.97538 0.3004 0.9032 0.0
H174 H 0.96906 0.35535 0.87245 0.0
H175 H 0.00391 0.43323 0.90131 0.0
H176 H 0.02473 0.26052 0.01101 0.0
H177 H 0.96913 0.25604 0.98379 0.0
H178 H 0.94868 0.26588 0.9276 0.0
H179 H 0.96205 0.29373 0.88815 0.0
Mn180 Mn 0.84983 0.87218 0.2292 0.0
Mn181 Mn 0.90114 0.83037 0.20335 0.0
C182 C 0.8439 0.81913 0.23887 0.0
C183 C 0.79938 0.89327 0.23189 0.0
C184 C 0.91894 0.88108 0.22858 0.0
O185 O 0.85715 0.89063 0.19529 0.0
O186 O 0.87416 0.84684 0.17765 0.0
C187 C 0.85895 0.78809 0.18318 0.0
N188 N 0.89463 0.78822 0.19057 0.0
C189 C 0.9261 0.74448 0.15699 0.0
C190 C 0.89503 0.74084 0.14642 0.0
C191 C 0.85195 0.76723 0.16286 0.0
C192 C 0.9256 0.76755 0.17704 0.0
H193 H 0.84202 0.8042 0.1888 0.0
C194 C 0.8607 0.87334 0.17681 0.0
O195 O 0.82273 0.90708 0.24171 0.0
O196 O 0.80631 0.86987 0.21908 0.0
N197 N 0.90503 0.78605 0.2033 0.0
C198 C 0.89447 0.78249 0.23044 0.0
C199 C 0.91029 0.75735 0.2435 0.0
C200 C 0.95084 0.73218 0.22228 0.0
C201 C 0.95612 0.73977 0.19693 0.0
C202 C 0.93606 0.76628 0.18898 0.0
H203 H 0.89417 0.80257 0.24158 0.0
O204 O 0.83776 0.84035 0.25421 0.0
O205 O 0.85877 0.83013 0.22023 0.0
O206 O 0.89655 0.88091 0.24345 0.0
O207 O 0.91045 0.87378 0.20847 0.0
C208 C 0.96256 0.71675 0.18005 0.0
C209 C 0.94714 0.71973 0.15852 0.0
H210 H 0.89658 0.72403 0.1322 0.0
H211 H 0.82728 0.76754 0.15852 0.0
H212 H 0.90293 0.75634 0.2619 0.0
H213 H 0.96584 0.71269 0.22706 0.0
H214 H 0.97304 0.69491 0.18482 0.0
H215 H 0.94519 0.69993 0.14736 0.0
Mn216 Mn 0.37318 0.62741 0.47556 0.0
Mn217 Mn 0.41983 0.66471 0.4398 0.0
C218 C 0.42652 0.63151 0.48654 0.0
C219 C 0.34968 0.57983 0.48487 0.0
C220 C 0.37139 0.69811 0.46976 0.0
O221 O 0.3504 0.62778 0.44288 0.0
O222 O 0.39049 0.64193 0.42045 0.0
C223 C 0.45411 0.6067 0.42698 0.0
N224 N 0.45242 0.64082 0.42689 0.0
C225 C 0.52257 0.65238 0.40118 0.0
C226 C 0.52717 0.61672 0.39891 0.0
C227 C 0.48271 0.58803 0.41709 0.0
C228 C 0.4756 0.66432 0.42036 0.0
H229 H 0.43462 0.5937 0.43357 0.0
C230 C 0.36377 0.63034 0.42277 0.0
O231 O 0.33716 0.60582 0.49115 0.0
O232 O 0.37491 0.58169 0.47296 0.0
N233 N 0.44992 0.6872 0.45542 0.0
C234 C 0.44922 0.70015 0.47711 0.0
C235 C 0.47363 0.71818 0.48568 0.0
C236 C 0.50163 0.72196 0.47389 0.0
C237 C 0.50721 0.70466 0.45099 0.0
C238 C 0.47426 0.68826 0.44119 0.0
H239 H 0.42866 0.69813 0.48763 0.0
O240 O 0.40533 0.62543 0.502 0.0
O241 O 0.41528 0.63527 0.46556 0.0
O242 O 0.36432 0.67472 0.48265 0.0
O243 O 0.38761 0.6944 0.45119 0.0
C244 C 0.556 0.68932 0.42734 0.0
C245 C 0.55389 0.66702 0.40668 0.0
H246 H 0.54924 0.60909 0.3914 0.0
H247 H 0.4788 0.56312 0.41983 0.0
H248 H 0.47071 0.72992 0.5023 0.0
H249 H 0.50824 0.71195 0.45975 0.0
H250 H 0.58012 0.6969 0.42887 0.0
H251 H 0.57464 0.65614 0.4011 0.0
Mn252 Mn 0.64597 0.12121 0.72834 0.0
Mn253 Mn 0.62773 0.17563 0.69311 0.0
C254 C 0.65611 0.17546 0.73932 0.0
C255 C 0.68767 0.08987 0.739 0.0
C256 C 0.57784 0.13282 0.71748 0.0
O257 O 0.6399 0.10074 0.69439 0.0
O258 O 0.65185 0.14425 0.67545 0.0
C259 C 0.62814 0.19296 0.63425 0.0
N260 N 0.61971 0.19529 0.66192 0.0
C261 C 0.58464 0.26632 0.64581 0.0
C262 C 0.59698 0.25608 0.61592 0.0
C263 C 0.61737 0.22033 0.61159 0.0
C264 C 0.60388 0.22177 0.67385 0.0
H265 H 0.64321 0.17448 0.62893 0.0
C266 C 0.64671 0.11505 0.67504 0.0
O267 O 0.65956 0.08168 0.74403 0.0
O268 O 0.69098 0.11444 0.72632 0.0
N269 N 0.59987 0.20331 0.71154 0.0
C270 C 0.59742 0.21135 0.73648 0.0
C271 C 0.57488 0.23586 0.74684 0.0
C272 C 0.53196 0.25892 0.72156 0.0
C273 C 0.53539 0.24694 0.69511 0.0
C274 C 0.58072 0.21323 0.69312 0.0
H275 H 0.60687 0.19653 0.74965 0.0
O276 O 0.65659 0.15415 0.75532 0.0
O277 O 0.64572 0.16321 0.72052 0.0
O278 O 0.59763 0.1228 0.73265 0.0
O279 O 0.58786 0.1479 0.69875 0.0
C280 C 0.52899 0.27345 0.67506 0.0
C281 C 0.55074 0.28289 0.65334 0.0
H282 H 0.58789 0.26649 0.6304 0.0
H283 H 0.6241 0.21498 0.59398 0.0
H284 H 0.58057 0.23951 0.76542 0.0
H285 H 0.51785 0.27951 0.72358 0.0
H286 H 0.51447 0.29196 0.67895 0.0
H287 H 0.54145 0.30142 0.64335 0.0
Mn288 Mn 0.88393 0.39313 0.97186 0.0
Mn289 Mn 0.93235 0.36068 0.93556 0.0
C290 C 0.93753 0.39618 0.98207 0.0
C291 C 0.85882 0.43943 0.98263 0.0
C292 C 0.8895 0.32022 0.96798 0.0
O293 O 0.85978 0.3909 0.94003 0.0
O294 O 0.89841 0.37599 0.91643 0.0
C295 C 0.95798 0.40528 0.88963 0.0
N296 N 0.96032 0.3876 0.91482 0.0
C297 C 0.03524 0.36764 0.89438 0.0
C298 C 0.02543 0.39023 0.86919 0.0
C299 C 0.98791 0.40789 0.86734 0.0
C300 C 0.98778 0.36922 0.92314 0.0
H301 H 0.93611 0.41489 0.88489 0.0
C302 C 0.8715 0.38672 0.91954 0.0
O303 O 0.84785 0.41261 0.989 0.0
O304 O 0.88274 0.439 0.96927 0.0
N305 N 0.9651 0.34492 0.95473 0.0
C306 C 0.97134 0.33638 0.97876 0.0
C307 C -0.00147 0.31546 0.98589 0.0
C308 C 0.03075 0.28592 0.95462 0.0
C309 C 0.0204 0.29812 0.92867 0.0
C310 C 0.98097 0.33781 0.93466 0.0
H311 H 0.9542 0.34078 0.99199 0.0
O312 O 0.91579 0.39843 0.99751 0.0
O313 O 0.92671 0.3915 0.96067 0.0
O314 O 0.87891 0.34377 0.97949 0.0
O315 O 0.90691 0.3256 0.95023 0.0
C316 C 0.04857 0.30342 0.90921 0.0
C317 C 0.0557 0.33537 0.89366 0.0
H318 H 0.0419 0.39319 0.85523 0.0
H319 H 0.98314 0.4219 0.85205 0.0
H320 H -0.00061 0.31465 0.00515 0.0
H321 H 0.05091 0.27085 0.95588 0.0
H322 H 0.06569 0.28547 0.90886 0.0
H323 H 0.07408 0.33426 0.88085 0.0
Mn324 Mn 0.36457 0.12652 0.72787 0.0
Mn325 Mn 0.39911 0.18041 0.70141 0.0
C326 C 0.35458 0.18077 0.73787 0.0
C327 C 0.31471 0.10329 0.73548 0.0
C328 C 0.4379 0.13178 0.72541 0.0
O329 O 0.36961 0.1089 0.69331 0.0
O330 O 0.38726 0.1528 0.67579 0.0
C331 C 0.34654 0.21838 0.67021 0.0
N332 N 0.37187 0.21086 0.68591 0.0
C333 C 0.42741 0.2555 0.65768 0.0
C334 C 0.40102 0.2684 0.63997 0.0
C335 C 0.3492 0.24363 0.65043 0.0
C336 C 0.40238 0.2213 0.68618 0.0
H337 H 0.32608 0.2042 0.67034 0.0
C338 C 0.37604 0.12542 0.67476 0.0
O339 O 0.33969 0.09088 0.74357 0.0
O340 O 0.31943 0.1259 0.72149 0.0
N341 N 0.41044 0.20464 0.72977 0.0
C342 C 0.43409 0.2017 0.75133 0.0
C343 C 0.4629 0.22927 0.7591 0.0
C344 C 0.47147 0.26464 0.74387 0.0
C345 C 0.44941 0.27451 0.71757 0.0
C346 C 0.40804 0.23026 0.71226 0.0
H347 H 0.43248 0.18121 0.76205 0.0
O348 O 0.35434 0.15991 0.75421 0.0
O349 O 0.36444 0.16885 0.71867 0.0
O350 O 0.4142 0.12042 0.73672 0.0
O351 O 0.43284 0.15243 0.71038 0.0
C352 C 0.46185 0.2915 0.69268 0.0
C353 C 0.45287 0.28188 0.66569 0.0
H354 H 0.40739 0.28694 0.62796 0.0
H355 H 0.32627 0.24659 0.64255 0.0
H356 H 0.47437 0.2252 0.77566 0.0
H357 H 0.46296 0.27459 0.729 0.0
H358 H 0.47759 0.30955 0.69514 0.0
H359 H 0.46182 0.29676 0.65208 0.0
Mn360 Mn 0.61255 0.59899 0.48256 0.0
Mn361 Mn 0.56553 0.6296 0.44515 0.0
C362 C 0.55969 0.6089 0.49351 0.0
C363 C 0.63428 0.55088 0.49369 0.0
C364 C 0.61773 0.66691 0.46948 0.0
O365 O 0.63408 0.5967 0.44887 0.0
O366 O 0.59043 0.59872 0.42856 0.0
C367 C 0.534 0.57002 0.4192 0.0
N368 N 0.52968 0.59971 0.43684 0.0
C369 C 0.47881 0.62698 0.39167 0.0
C370 C 0.48966 0.59097 0.37652 0.0
C371 C 0.51639 0.56479 0.39048 0.0
C372 C 0.50701 0.62657 0.4335 0.0
H373 H 0.55131 0.55315 0.42386 0.0
C374 C 0.619 0.59296 0.42948 0.0
O375 O 0.64811 0.57693 0.49841 0.0
O376 O 0.60835 0.55287 0.4827 0.0
N377 N 0.5421 0.66422 0.46113 0.0
C378 C 0.55711 0.69808 0.46751 0.0
C379 C 0.55348 0.73371 0.44991 0.0
C380 C 0.53171 0.73617 0.42293 0.0
C381 C 0.51128 0.70259 0.41217 0.0
C382 C 0.52009 0.65766 0.44074 0.0
H383 H 0.56343 0.70095 0.48551 0.0
O384 O 0.57964 0.60206 0.50967 0.0
O385 O 0.57162 0.60816 0.47311 0.0
O386 O 0.62295 0.64681 0.48565 0.0
O387 O 0.60285 0.65829 0.45097 0.0
C388 C 0.49209 0.69633 0.38731 0.0
C389 C 0.47696 0.66262 0.37789 0.0
H390 H 0.4804 0.6119 0.38119 0.0
H391 H 0.5226 0.54419 0.38083 0.0
H392 H 0.56217 0.75497 0.45684 0.0
H393 H 0.53459 0.75644 0.41225 0.0
H394 H 0.49065 0.71591 0.37559 0.0
H395 H 0.46905 0.66154 0.36 0.0
Mn396 Mn 0.12803 0.87948 0.22462 0.0
Mn397 Mn 0.08217 0.83566 0.19271 0.0
C398 C 0.13089 0.82655 0.23442 0.0
C399 C 0.17538 0.90483 0.2328 0.0
C400 C 0.0585 0.88205 0.22256 0.0
O401 O 0.12335 0.89991 0.19068 0.0
O402 O 0.11247 0.85547 0.17173 0.0
C403 C 0.13266 0.79488 0.17588 0.0
N404 N 0.09557 0.79544 0.17627 0.0
C405 C 0.07505 0.75022 0.13882 0.0
C406 C 0.10849 0.74557 0.13457 0.0
C407 C 0.14563 0.77241 0.15822 0.0
C408 C 0.0697 0.77421 0.15775 0.0
H409 H 0.14725 0.81128 0.18461 0.0
C410 C 0.1227 0.88309 0.17174 0.0
O411 O 0.14931 0.91613 0.23988 0.0
O412 O 0.17359 0.88061 0.21956 0.0
N413 N 0.08161 0.79326 0.18622 0.0
C414 C 0.08304 0.79115 0.21468 0.0
C415 C 0.06309 0.76737 0.22469 0.0
C416 C 0.02955 0.74127 0.19748 0.0
C417 C 0.03233 0.7479 0.17154 0.0
C418 C 0.05537 0.77351 0.16693 0.0
H419 H 0.0801 0.81133 0.22549 0.0
O420 O 0.13598 0.84773 0.24999 0.0
O421 O 0.12138 0.83716 0.21385 0.0
O422 O 0.08089 0.88474 0.23696 0.0
O423 O 0.06705 0.87696 0.20182 0.0
C424 C 0.02958 0.72525 0.15378 0.0
C425 C 0.05245 0.72667 0.13614 0.0
H426 H 0.11106 0.72801 0.12085 0.0
H427 H 0.17093 0.77213 0.15878 0.0
H428 H 0.06498 0.76674 0.24388 0.0
H429 H 0.0144 0.72135 0.20008 0.0
H430 H 0.01608 0.70436 0.15608 0.0
H431 H 0.05657 0.70687 0.1254 0.0
Mn432 Mn 0.88976 0.61118 0.01818 0.0
Mn433 Mn 0.94171 0.64922 0.04672 0.0
C434 C 0.94408 0.60511 0.00852 0.0
C435 C 0.8629 0.56424 0.01102 0.0
C436 C 0.89147 0.68353 0.01989 0.0
O437 O 0.86925 0.61851 0.05142 0.0
O438 O 0.91325 0.63258 0.06968 0.0
C439 C 0.98333 0.60169 0.08006 0.0
N440 N 0.97522 0.628 0.06502 0.0
C441 C 0.0313 0.67836 0.08797 0.0
C442 C 0.0434 0.65115 0.10491 0.0
C443 C 0.01151 0.60187 0.09801 0.0
C444 C 0.99036 0.65652 0.06317 0.0
H445 H 0.96793 0.58199 0.08062 0.0
C446 C 0.88489 0.62417 0.07029 0.0
O447 O 0.85214 0.59064 0.0039 0.0
O448 O 0.88762 0.56548 0.02352 0.0
N449 N 0.9682 0.66483 0.02121 0.0
C450 C 0.96472 0.68829 0.99942 0.0
C451 C 0.99357 0.71445 0.98888 0.0
C452 C 0.03181 0.71994 0.00085 0.0
C453 C 0.04302 0.69764 0.02654 0.0
C454 C 0.99594 0.6605 0.03651 0.0
H455 H 0.94284 0.68899 0.99065 0.0
O456 O 0.92302 0.6014 0.99256 0.0
O457 O 0.93237 0.61431 0.02802 0.0
O458 O 0.8828 0.65943 0.00814 0.0
O459 O 0.9109 0.67987 0.03609 0.0
C460 C 0.06443 0.70984 0.04966 0.0
C461 C 0.05855 0.70119 0.07722 0.0
H462 H 0.06411 0.65579 0.11518 0.0
H463 H 0.01338 0.5788 0.10604 0.0
H464 H 0.98767 0.7263 0.97278 0.0
H465 H 0.0429 0.71073 0.01492 0.0
H466 H 0.08172 0.72727 0.04618 0.0
H467 H 0.07655 0.70863 0.08902 0.0
Mn468 Mn 0.1389 0.1206 0.77494 0.0
Mn469 Mn 0.10438 0.17108 0.80645 0.0
C470 C 0.14164 0.17499 0.76495 0.0
C471 C 0.18728 0.09745 0.7653 0.0
C472 C 0.06763 0.12135 0.78055 0.0
O473 O 0.13599 0.10041 0.80894 0.0
O474 O 0.12269 0.14333 0.82944 0.0
C475 C 0.15813 0.21718 0.8333 0.0
N476 N 0.13054 0.20489 0.82145 0.0
C477 C 0.07749 0.246 0.85508 0.0
C478 C 0.10545 0.26229 0.86929 0.0
C479 C 0.15711 0.2432 0.85318 0.0
C480 C 0.09993 0.21354 0.82427 0.0
H481 H 0.17984 0.20551 0.83091 0.0
C482 C 0.1322 0.11543 0.82853 0.0
O483 O 0.16151 0.08486 0.7586 0.0
O484 O 0.18453 0.12139 0.77847 0.0
N485 N 0.08446 0.19558 0.78166 0.0
C486 C 0.05627 0.19052 0.7635 0.0
C487 C 0.02405 0.21586 0.75995 0.0
C488 C 0.01736 0.25081 0.77672 0.0
C489 C 0.04294 0.26171 0.79884 0.0
C490 C 0.08838 0.2214 0.79898 0.0
H491 H 0.05708 0.17068 0.75201 0.0
O492 O 0.14403 0.15428 0.74866 0.0
O493 O 0.13592 0.16263 0.78498 0.0
O494 O 0.0902 0.11297 0.76721 0.0
O495 O 0.07364 0.13923 0.7976 0.0
C496 C 0.03317 0.27738 0.8239 0.0
C497 C 0.04826 0.26953 0.84965 0.0
H498 H 0.09957 0.28091 0.88136 0.0
H499 H 0.18082 0.24959 0.85799 0.0
H500 H 0.01347 0.21325 0.74315 0.0
H501 H 0.00664 0.27062 0.76912 0.0
H502 H 0.016 0.295 0.82342 0.0
H503 H 0.04073 0.28409 0.86387 0.0
Mn504 Mn 0.61483 0.37599 0.52212 0.0
Mn505 Mn 0.55788 0.34005 0.54853 0.0
C506 C 0.56463 0.38817 0.50887 0.0
C507 C 0.642 0.4238 0.51668 0.0
C508 C 0.60785 0.30169 0.52403 0.0
O509 O 0.63163 0.37031 0.55573 0.0
O510 O 0.58758 0.3545 0.57353 0.0
C511 C 0.5164 0.38373 0.58501 0.0
N512 N 0.52429 0.35932 0.56824 0.0
C513 C 0.46972 0.30601 0.58998 0.0
C514 C 0.45862 0.33094 0.60931 0.0
C515 C 0.48906 0.38125 0.60352 0.0
C516 C 0.50904 0.33102 0.56509 0.0
H517 H 0.53108 0.40403 0.5858 0.0
C518 C 0.61506 0.36631 0.57419 0.0
O519 O 0.65376 0.39771 0.50975 0.0
O520 O 0.61656 0.42161 0.52793 0.0
N521 N 0.52989 0.32596 0.52253 0.0
C522 C 0.5325 0.30391 0.49975 0.0
C523 C 0.50323 0.27812 0.48871 0.0
C524 C 0.46495 0.27216 0.50116 0.0
C525 C 0.4544 0.2935 0.52806 0.0
C526 C 0.50242 0.32933 0.5384 0.0
H527 H 0.55419 0.30382 0.4906 0.0
O528 O 0.58748 0.38758 0.49422 0.0
O529 O 0.57088 0.3762 0.5295 0.0
O530 O 0.62052 0.32565 0.51363 0.0
O531 O 0.5862 0.30688 0.53822 0.0
C532 C 0.43394 0.27969 0.55114 0.0
C533 C 0.44151 0.28528 0.57891 0.0
H534 H 0.43905 0.32486 0.62028 0.0
H535 H 0.4874 0.40357 0.61269 0.0
H536 H 0.50875 0.26738 0.47214 0.0
H537 H 0.45404 0.2806 0.5157 0.0
H538 H 0.41697 0.26219 0.54752 0.0
H539 H 0.42487 0.27588 0.59109 0.0
Mn540 Mn 0.34635 0.8788 0.28419 0.0
Mn541 Mn 0.37337 0.82813 0.31903 0.0
C542 C 0.33738 0.82457 0.27389 0.0
C543 C 0.29809 0.90143 0.27267 0.0
C544 C 0.41718 0.86867 0.28835 0.0
O545 O 0.35122 0.90337 0.31618 0.0
O546 O 0.3603 0.8623 0.33945 0.0
C547 C 0.32853 0.80412 0.36353 0.0
N548 N 0.34566 0.80085 0.3385 0.0
C549 C 0.37259 0.72932 0.3623 0.0
C550 C 0.34919 0.74009 0.38784 0.0
C551 C 0.32862 0.77646 0.38712 0.0
C552 C 0.36608 0.77435 0.33112 0.0
H553 H 0.31684 0.82554 0.36707 0.0
C554 C 0.35393 0.89088 0.33675 0.0
O555 O 0.32397 0.91189 0.26447 0.0
O556 O 0.30107 0.88176 0.28921 0.0
N557 N 0.38731 0.79597 0.29795 0.0
C558 C 0.39553 0.78872 0.27401 0.0
C559 C 0.41781 0.76238 0.26764 0.0
C560 C 0.45109 0.7355 0.29927 0.0
C561 C 0.4393 0.74739 0.32516 0.0
C562 C 0.39661 0.78285 0.31855 0.0
H563 H 0.39059 0.80512 0.26023 0.0
O564 O 0.33877 0.84626 0.25846 0.0
O565 O 0.34267 0.83565 0.29496 0.0
O566 O 0.39532 0.8803 0.2757 0.0
O567 O 0.40943 0.85237 0.30604 0.0
C568 C 0.43768 0.72058 0.34585 0.0
C569 C 0.4077 0.71144 0.36255 0.0
H570 H 0.36365 0.72933 0.37621 0.0
H571 H 0.31338 0.78196 0.40145 0.0
H572 H 0.4176 0.75985 0.24846 0.0
H573 H 0.46649 0.71557 0.29878 0.0
H574 H 0.45691 0.70523 0.34587 0.0
H575 H 0.41139 0.69405 0.37594 0.0
Mn576 Mn 0.61473 0.08972 0.52231 0.0
Mn577 Mn 0.56218 0.11229 0.55727 0.0
C578 C 0.5606 0.0838 0.51087 0.0
C579 C 0.64106 0.04283 0.51389 0.0
C580 C 0.60697 0.15985 0.53225 0.0
O581 O 0.63576 0.09552 0.55607 0.0
O582 O 0.59198 0.08613 0.57486 0.0
C583 C 0.54495 0.11193 0.61625 0.0
N584 N 0.54333 0.12102 0.58864 0.0
C585 C 0.47343 0.15825 0.6046 0.0
C586 C 0.48278 0.14488 0.63443 0.0
C587 C 0.51773 0.12322 0.63884 0.0
C588 C 0.51771 0.13801 0.57665 0.0
H589 H 0.56262 0.09593 0.62155 0.0
C590 C 0.62122 0.08992 0.57546 0.0
O591 O 0.65269 0.06951 0.50784 0.0
O592 O 0.61612 0.04386 0.52599 0.0
N593 N 0.53634 0.14197 0.53913 0.0
C594 C 0.5286 0.14492 0.51423 0.0
C595 C 0.50521 0.16854 0.50392 0.0
C596 C 0.48405 0.21247 0.52923 0.0
C597 C 0.49582 0.20812 0.55587 0.0
C598 C 0.52729 0.1614 0.55762 0.0
H599 H 0.54299 0.1348 0.50111 0.0
O600 O 0.58191 0.08077 0.49514 0.0
O601 O 0.57317 0.09421 0.52956 0.0
O602 O 0.61662 0.13897 0.51746 0.0
O603 O 0.59171 0.15076 0.55117 0.0
C604 C 0.46912 0.21526 0.57571 0.0
C605 C 0.45822 0.19314 0.59738 0.0
H606 H 0.47286 0.15466 0.61997 0.0
H607 H 0.52276 0.11622 0.65639 0.0
H608 H 0.50162 0.16308 0.4853 0.0
H609 H 0.46472 0.22792 0.5271 0.0
H610 H 0.45217 0.23142 0.57093 0.0
H611 H 0.43974 0.20227 0.6077 0.0
Mn612 Mn 0.13671 0.36495 0.78287 0.0
Mn613 Mn 0.1073 0.31425 0.81848 0.0
C614 C 0.14462 0.3108 0.77359 0.0
C615 C 0.18358 0.3888 0.77061 0.0
C616 C 0.06521 0.3541 0.78532 0.0
O617 O 0.13338 0.38984 0.81431 0.0
O618 O 0.11878 0.35027 0.83758 0.0
C619 C 0.14948 0.29453 0.86648 0.0
N620 N 0.13437 0.28938 0.84072 0.0
C621 C 0.11704 0.21374 0.86259 0.0
C622 C 0.13701 0.2271 0.88923 0.0
C623 C 0.15178 0.26629 0.88998 0.0
C624 C 0.11839 0.26017 0.83252 0.0
H625 H 0.15699 0.31751 0.87088 0.0
C626 C 0.12873 0.37781 0.83473 0.0
O627 O 0.15722 0.39883 0.76313 0.0
O628 O 0.18184 0.36835 0.78684 0.0
N629 N 0.09543 0.27972 0.7992 0.0
C630 C 0.08802 0.27222 0.77506 0.0
C631 C 0.06853 0.24358 0.76812 0.0
C632 C 0.03916 0.21139 0.7994 0.0
C633 C 0.04956 0.22321 0.82521 0.0
C634 C 0.08773 0.26462 0.81961 0.0
H635 H 0.09175 0.28933 0.76151 0.0
O636 O 0.14373 0.33217 0.75784 0.0
O637 O 0.13899 0.32187 0.79468 0.0
O638 O 0.08774 0.3678 0.77456 0.0
O639 O 0.0722 0.3355 0.80186 0.0
C640 C 0.05465 0.19569 0.84507 0.0
C641 C 0.08536 0.19048 0.86164 0.0
H642 H 0.12526 0.21465 0.87688 0.0
H643 H 0.16277 0.27398 0.90579 0.0
H644 H 0.06853 0.24185 0.74888 0.0
H645 H 0.02524 0.19024 0.79842 0.0
H646 H 0.03803 0.17708 0.84511 0.0
H647 H 0.08453 0.17154 0.87409 0.0
Mn648 Mn 0.87173 0.89282 0.02953 0.0
Mn649 Mn 0.92028 0.8558 0.06239 0.0
C650 C 0.92563 0.9013 0.02223 0.0
C651 C 0.84407 0.93844 0.02083 0.0
C652 C 0.87938 0.82054 0.02793 0.0
O653 O 0.84733 0.88493 0.06077 0.0
O654 O 0.88588 0.86587 0.08298 0.0
C655 C 0.94114 0.88541 0.11392 0.0
N656 N 0.94647 0.87605 0.08665 0.0
C657 C 0.01323 0.83808 0.10883 0.0
C658 C 0.0008 0.85396 0.13707 0.0
C659 C 0.96604 0.87627 0.13832 0.0
C660 C 0.97243 0.8561 0.07729 0.0
H661 H 0.91988 0.89686 0.1183 0.0
C662 C 0.85884 0.87674 0.08069 0.0
O663 O 0.83516 0.91167 0.01291 0.0
O664 O 0.8674 0.93819 0.03485 0.0
N665 N 0.95345 0.84534 0.04036 0.0
C666 C 0.96337 0.84354 0.01613 0.0
C667 C 0.98937 0.82181 0.00774 0.0
C668 C 0.01093 0.77898 0.03451 0.0
C669 C -0.00338 0.78408 0.06108 0.0
C670 C 0.96398 0.8298 0.05953 0.0
H671 H 0.94878 0.85267 0.0025 0.0
O672 O 0.90518 0.90318 0.00571 0.0
O673 O 0.91371 0.89204 0.0423 0.0
O674 O 0.86859 0.84487 0.01773 0.0
O675 O 0.8961 0.82413 0.04569 0.0
C676 C 0.02095 0.77836 0.08294 0.0
C677 C 0.02929 0.80257 0.10425 0.0
H678 H 0.01205 0.84282 0.1238 0.0
H679 H 0.95951 0.88529 0.15531 0.0
H680 H 0.99423 0.82739 0.98928 0.0
H681 H 0.03016 0.76307 0.03266 0.0
H682 H 0.03546 0.75828 0.08178 0.0
H683 H 0.04438 0.79387 0.11739 0.0
Mn684 Mn 0.35926 0.6354 0.27367 0.0
Mn685 Mn 0.39022 0.68584 0.3065 0.0
C686 C 0.35388 0.69002 0.26467 0.0
C687 C 0.30981 0.61447 0.26163 0.0
C688 C 0.43127 0.63912 0.28135 0.0
O689 O 0.3595 0.61399 0.30722 0.0
O690 O 0.37309 0.65601 0.32877 0.0
C691 C 0.3327 0.72532 0.33197 0.0
N692 N 0.36204 0.71692 0.32129 0.0
C693 C 0.40752 0.76685 0.35459 0.0
C694 C 0.37669 0.77923 0.36815 0.0
C695 C 0.32926 0.75178 0.35093 0.0
C696 C 0.39071 0.73055 0.32439 0.0
H697 H 0.31295 0.71056 0.32913 0.0
C698 C 0.36269 0.62837 0.32714 0.0
O699 O 0.33533 0.60179 0.25482 0.0
O700 O 0.31337 0.63625 0.27646 0.0
N701 N 0.40785 0.71308 0.28257 0.0
C702 C 0.43549 0.71074 0.26404 0.0
C703 C 0.46431 0.73915 0.25913 0.0
C704 C 0.46841 0.77585 0.27464 0.0
C705 C 0.44166 0.78506 0.29766 0.0
C706 C 0.40116 0.739 0.29911 0.0
H707 H 0.43716 0.68997 0.25377 0.0
O708 O 0.35511 0.66994 0.24789 0.0
O709 O 0.35922 0.67711 0.28458 0.0
O710 O 0.40913 0.6294 0.26781 0.0
O711 O 0.42421 0.65706 0.29804 0.0
C712 C 0.44903 0.80299 0.32362 0.0
C713 C 0.43378 0.79379 0.34905 0.0
H714 H 0.37936 0.79809 0.38072 0.0
H715 H 0.30461 0.75446 0.35489 0.0
H716 H 0.47922 0.73389 0.24446 0.0
H717 H 0.45672 0.78567 0.28811 0.0
H718 H 0.4669 0.82052 0.32364 0.0
H719 H 0.43858 0.80951 0.36255 0.0
Mn720 Mn 0.61159 0.8731 0.46819 0.0
Mn721 Mn 0.5642 0.84315 0.42697 0.0
C722 C 0.55888 0.8644 0.47824 0.0
C723 C 0.63453 0.91883 0.48351 0.0
C724 C 0.60813 0.80179 0.45781 0.0
O725 O 0.63694 0.8796 0.43785 0.0
O726 O 0.60272 0.85947 0.41308 0.0
C727 C 0.55323 0.90977 0.39476 0.0
N728 N 0.54397 0.88085 0.41172 0.0
C729 C 0.46733 0.90363 0.39776 0.0
C730 C 0.48554 0.93342 0.38076 0.0
C731 C 0.52697 0.93559 0.37957 0.0
C732 C 0.51161 0.87061 0.41737 0.0
H733 H 0.577 0.9131 0.39101 0.0
C734 C 0.62806 0.87326 0.41713 0.0
O735 O 0.64684 0.89181 0.48706 0.0
O736 O 0.60944 0.91907 0.47143 0.0
N737 N 0.52305 0.82331 0.4353 0.0
C738 C 0.51197 0.80332 0.4542 0.0
C739 C 0.47793 0.79001 0.45618 0.0
C740 C 0.43751 0.80034 0.42407 0.0
C741 C 0.45254 0.82182 0.40411 0.0
C742 C 0.50519 0.83523 0.41671 0.0
H743 H 0.52831 0.79632 0.46738 0.0
O744 O 0.58018 0.86782 0.49394 0.0
O745 O 0.56893 0.86683 0.45658 0.0
O746 O 0.62037 0.82504 0.46863 0.0
O747 O 0.58682 0.80571 0.4419 0.0
C748 C 0.42908 0.84832 0.3927 0.0
C749 C 0.43593 0.8855 0.38983 0.0
H750 H 0.4719 0.94787 0.36929 0.0
H751 H 0.53706 0.95308 0.36829 0.0
H752 H 0.47575 0.77784 0.47294 0.0
H753 H 0.41284 0.79536 0.42274 0.0
H754 H 0.40584 0.84116 0.3887 0.0
H755 H 0.41973 0.89836 0.37957 0.0
Mn756 Mn 0.34852 0.37242 0.71691 0.0
Mn757 Mn 0.38593 0.32048 0.68743 0.0
C758 C 0.34186 0.3173 0.72769 0.0
C759 C 0.30254 0.39865 0.72652 0.0
C760 C 0.42057 0.3681 0.71932 0.0
O761 O 0.35473 0.39448 0.68386 0.0
O762 O 0.37619 0.35428 0.66563 0.0
C763 C 0.35339 0.29498 0.63709 0.0
N764 N 0.3641 0.29233 0.66432 0.0
C765 C 0.39343 0.21886 0.64638 0.0
C766 C 0.37777 0.22941 0.61741 0.0
C767 C 0.35925 0.26655 0.6141 0.0
C768 C 0.38141 0.26551 0.67495 0.0
H769 H 0.33915 0.31445 0.63255 0.0
C770 C 0.36515 0.38154 0.66497 0.0
O771 O 0.32922 0.40931 0.73282 0.0
O772 O 0.30288 0.37465 0.71302 0.0
N773 N 0.39641 0.28809 0.71029 0.0
C774 C 0.39928 0.281 0.73522 0.0
C775 C 0.41927 0.25386 0.74496 0.0
C776 C 0.45731 0.22468 0.71798 0.0
C777 C 0.45136 0.23594 0.69087 0.0
C778 C 0.40906 0.27335 0.69139 0.0
H779 H 0.39176 0.29785 0.74795 0.0
O780 O 0.34054 0.33953 0.74284 0.0
O781 O 0.34999 0.3281 0.70702 0.0
O782 O 0.39604 0.3807 0.72749 0.0
O783 O 0.41714 0.3462 0.70464 0.0
C784 C 0.45299 0.2081 0.67109 0.0
C785 C 0.42666 0.19936 0.65153 0.0
H786 H 0.38811 0.21859 0.63127 0.0
H787 H 0.35065 0.27252 0.59707 0.0
H788 H 0.41539 0.25217 0.76397 0.0
H789 H 0.47262 0.2051 0.72097 0.0
H790 H 0.47063 0.1909 0.67353 0.0
H791 H 0.43056 0.17902 0.64108 0.0
Mn792 Mn 0.87336 0.10621 0.98077 0.0
Mn793 Mn 0.92462 0.13773 0.94729 0.0
C794 C 0.92686 0.09243 0.98624 0.0
C795 C 0.84432 0.06187 0.99195 0.0
C796 C 0.88439 0.1791 0.97836 0.0
O797 O 0.84924 0.11186 0.94968 0.0
O798 O 0.88824 0.13053 0.92722 0.0
C799 C 0.93859 0.11014 0.89469 0.0
N800 N 0.94725 0.11637 0.92204 0.0
C801 C 0.0132 0.15447 0.89773 0.0
C802 C -0.00303 0.14221 0.86961 0.0
C803 C 0.961 0.12136 0.8693 0.0
C804 C 0.97507 0.13452 0.93088 0.0
H805 H 0.9166 0.09985 0.89105 0.0
C806 C 0.86101 0.11936 0.92969 0.0
O807 O 0.83671 0.0893 0.99914 0.0
O808 O 0.86712 0.06071 0.97757 0.0
N809 N 0.96 0.14376 0.96967 0.0
C810 C 0.97322 0.14315 0.99324 0.0
C811 C 0.00161 0.16309 0.00083 0.0
C812 C 0.0221 0.20674 0.97436 0.0
C813 C 0.00453 0.20433 0.94882 0.0
C814 C 0.96982 0.15968 0.95052 0.0
H815 H 0.95942 0.13471 0.00765 0.0
O816 O 0.90813 0.09536 0.00392 0.0
O817 O 0.91453 0.10233 0.9667 0.0
O818 O 0.87087 0.15632 0.98912 0.0
O819 O 0.90383 0.17217 0.96306 0.0
C820 C 0.02636 0.21132 0.92589 0.0
C821 C 0.03106 0.18911 0.90304 0.0
H822 H 0.01018 0.15135 0.88271 0.0
H823 H 0.95167 0.11508 0.85238 0.0
H824 H 0.00843 0.15603 0.0186 0.0
H825 H 0.0429 0.22106 0.97517 0.0
H826 H 0.04133 0.23132 0.92678 0.0
H827 H 0.0426 0.20047 0.88902 0.0
Mn828 Mn 0.13395 0.63861 0.21822 0.0
Mn829 Mn 0.09781 0.68949 0.18607 0.0
C830 C 0.13142 0.69173 0.23051 0.0
C831 C 0.1834 0.6184 0.22803 0.0
C832 C 0.06178 0.63949 0.21452 0.0
O833 O 0.13381 0.61819 0.18454 0.0
O834 O 0.11585 0.65896 0.16483 0.0
C835 C 0.15407 0.72055 0.14628 0.0
N836 N 0.12885 0.72046 0.16807 0.0
C837 C 0.10773 0.79692 0.13954 0.0
C838 C 0.13768 0.78675 0.11887 0.0
C839 C 0.15961 0.75025 0.12267 0.0
C840 C 0.10739 0.74597 0.17328 0.0
H841 H 0.1684 0.70028 0.14466 0.0
C842 C 0.12824 0.63233 0.16498 0.0
O843 O 0.15837 0.60381 0.23418 0.0
O844 O 0.17935 0.64248 0.21513 0.0
N845 N 0.07554 0.71753 0.20971 0.0
C846 C 0.04934 0.71482 0.23041 0.0
C847 C 0.0188 0.74287 0.23766 0.0
C848 C 0.0118 0.78055 0.22259 0.0
C849 C 0.03442 0.79262 0.19837 0.0
C850 C 0.08006 0.74379 0.19353 0.0
H851 H 0.04948 0.69417 0.24081 0.0
O852 O 0.13591 0.66985 0.24566 0.0
O853 O 0.12769 0.68119 0.20951 0.0
O854 O 0.08591 0.62885 0.22514 0.0
O855 O 0.0652 0.65944 0.19801 0.0
C856 C 0.04181 0.82456 0.1737 0.0
C857 C 0.07341 0.82635 0.1481 0.0
H858 H 0.11901 0.79771 0.12842 0.0
H859 H 0.17734 0.7455 0.10985 0.0
H860 H 0.00799 0.73787 0.2542 0.0
H861 H 0.00084 0.79969 0.23111 0.0
H862 H 0.0271 0.84445 0.17542 0.0
H863 H 0.07172 0.84638 0.13674 0.0
Mn864 Mn 0.37825 0.90014 0.48555 0.0
Mn865 Mn 0.42174 0.86591 0.44708 0.0
C866 C 0.42993 0.88635 0.49608 0.0
C867 C 0.35884 0.94905 0.49616 0.0
C868 C 0.36811 0.8336 0.47303 0.0
O869 O 0.35616 0.90345 0.45242 0.0
O870 O 0.3996 0.90026 0.4319 0.0
C871 C 0.48411 0.91577 0.43757 0.0
N872 N 0.46208 0.88977 0.43884 0.0
C873 C 0.48397 0.85722 0.38534 0.0
C874 C 0.50834 0.88473 0.38085 0.0
C875 C 0.50825 0.921 0.41652 0.0
C876 C 0.46201 0.86406 0.42475 0.0
H877 H 0.48096 0.93493 0.44943 0.0
C878 C 0.37083 0.90563 0.43275 0.0
O879 O 0.34396 0.92371 0.50125 0.0
O880 O 0.38486 0.94594 0.48528 0.0
N881 N 0.44086 0.82833 0.45927 0.0
C882 C 0.42521 0.79499 0.46438 0.0
C883 C 0.434 0.75909 0.45047 0.0
C884 C 0.46261 0.75289 0.42848 0.0
C885 C 0.4853 0.78598 0.418 0.0
C886 C 0.46584 0.83506 0.44131 0.0
H887 H 0.4131 0.79283 0.48052 0.0
O888 O 0.41092 0.89547 0.51228 0.0
O889 O 0.41813 0.88721 0.47569 0.0
O890 O 0.3651 0.85381 0.48925 0.0
O891 O 0.38219 0.8414 0.45376 0.0
C892 C 0.49632 0.7916 0.38978 0.0
C893 C 0.49471 0.82381 0.37537 0.0
H894 H 0.52331 0.88282 0.36544 0.0
H895 H 0.52236 0.9416 0.42027 0.0
H896 H 0.4197 0.74011 0.45546 0.0
H897 H 0.47757 0.76727 0.42019 0.0
H898 H 0.50172 0.77124 0.37958 0.0
H899 H 0.50214 0.82357 0.35738 0.0
Mn900 Mn 0.8535 0.62938 0.2213 0.0
Mn901 Mn 0.8885 0.68457 0.19512 0.0
C902 C 0.8453 0.68287 0.23373 0.0
C903 C 0.80449 0.60484 0.22719 0.0
C904 C 0.92523 0.63535 0.22155 0.0
O905 O 0.86286 0.6105 0.18778 0.0
O906 O 0.87575 0.6561 0.17088 0.0
C907 C 0.84658 0.71634 0.14786 0.0
N908 N 0.86291 0.71519 0.17412 0.0
C909 C 0.89532 0.7919 0.15288 0.0
C910 C 0.87306 0.78349 0.12683 0.0
C911 C 0.84985 0.74738 0.12501 0.0
C912 C 0.88338 0.73938 0.18412 0.0
H913 H 0.83454 0.69564 0.14229 0.0
C914 C 0.86871 0.62738 0.16946 0.0
O915 O 0.82955 0.59307 0.23576 0.0
O916 O 0.80901 0.62762 0.2132 0.0
N917 N 0.90227 0.70888 0.22466 0.0
C918 C 0.92098 0.70427 0.24958 0.0
C919 C 0.9491 0.73121 0.26328 0.0
C920 C 0.96134 0.7694 0.25183 0.0
C921 C 0.94671 0.78361 0.224 0.0
C922 C 0.90298 0.73614 0.20926 0.0
H923 H 0.91752 0.68262 0.25854 0.0
O924 O 0.84226 0.66013 0.24832 0.0
O925 O 0.85423 0.67302 0.21343 0.0
O926 O 0.9014 0.62387 0.23228 0.0
O927 O 0.92092 0.65583 0.20608 0.0
C928 C 0.94849 0.81664 0.1993 0.0
C929 C 0.92617 0.82012 0.16867 0.0
H930 H 0.88814 0.79349 0.14003 0.0
H931 H 0.8373 0.74361 0.1089 0.0
H932 H 0.95916 0.72392 0.27973 0.0
H933 H 0.95583 0.78232 0.23604 0.0
H934 H 0.9645 0.83527 0.2028 0.0
H935 H 0.93048 0.841 0.15931 0.0
Mn936 Mn 0.1156 0.10153 0.97872 0.0
Mn937 Mn 0.06954 0.14417 0.95053 0.0
C938 C 0.06149 0.09744 0.98777 0.0
C939 C 0.13961 0.05349 0.98588 0.0
C940 C 0.12007 0.17375 0.97826 0.0
O941 O 0.13604 0.10782 0.94525 0.0
O942 O 0.09505 0.12696 0.92524 0.0
C943 C 0.02193 0.10435 0.91712 0.0
N944 N 0.03285 0.12845 0.93315 0.0
C945 C 0.97833 0.18366 0.91678 0.0
C946 C 0.96287 0.15889 0.89891 0.0
C947 C 0.99229 0.1078 0.90108 0.0
C948 C 0.01983 0.15741 0.93759 0.0
H949 H 0.036 0.08408 0.91455 0.0
C950 C 0.12177 0.11436 0.9258 0.0
O951 O 0.15173 0.07923 0.99329 0.0
O952 O 0.11541 0.05599 0.9729 0.0
N953 N 0.04668 0.15975 0.9783 0.0
C954 C 0.05356 0.17995 0.00155 0.0
C955 C 0.02751 0.20609 0.01559 0.0
C956 C 0.98859 0.21436 0.00668 0.0
C957 C 0.97346 0.19602 0.97999 0.0
C958 C 0.01715 0.15835 0.96467 0.0
H959 H 0.0757 0.1777 0.00954 0.0
O960 O 0.08216 0.09274 0.00385 0.0
O961 O 0.07383 0.10655 0.96812 0.0
O962 O 0.12443 0.14905 0.99057 0.0
O963 O 0.10431 0.17091 0.95993 0.0
C964 C 0.95063 0.21174 0.95877 0.0
C965 C 0.95357 0.20617 0.93038 0.0
H966 H 0.94084 0.16521 0.89085 0.0
H967 H 0.98818 0.08568 0.89206 0.0
H968 H 0.03563 0.21683 0.0316 0.0
H969 H 0.97541 0.20736 0.99261 0.0
H970 H 0.93423 0.22901 0.96386 0.0
H971 H 0.93485 0.21486 0.91995 0.0
Mn972 Mn 0.63066 0.36609 0.72557 0.0
Mn973 Mn 0.58977 0.31139 0.70254 0.0
C974 C 0.63574 0.31148 0.73839 0.0
C975 C 0.68193 0.38594 0.73083 0.0
C976 C 0.55877 0.36585 0.72798 0.0
O977 O 0.62429 0.38353 0.69107 0.0
O978 O 0.60132 0.34029 0.67756 0.0
C979 C 0.63468 0.27109 0.66595 0.0
N980 N 0.61076 0.27892 0.68299 0.0
C981 C 0.55544 0.22743 0.66076 0.0
C982 C 0.57951 0.21642 0.64078 0.0
C983 C 0.63091 0.24489 0.64661 0.0
C984 C 0.58208 0.26518 0.68606 0.0
H985 H 0.65492 0.2857 0.66488 0.0
C986 C 0.61373 0.36688 0.67392 0.0
O987 O 0.65823 0.40053 0.73905 0.0
O988 O 0.67519 0.36291 0.71768 0.0
N989 N 0.57768 0.28447 0.7294 0.0
C990 C 0.55558 0.28637 0.75248 0.0
C991 C 0.52988 0.25595 0.76268 0.0
C992 C 0.52458 0.21868 0.74851 0.0
C993 C 0.54478 0.21005 0.72228 0.0
C994 C 0.58073 0.25768 0.71256 0.0
H995 H 0.5543 0.30828 0.76158 0.0
O996 O 0.6396 0.33413 0.75298 0.0
O997 O 0.62609 0.32181 0.71861 0.0
O998 O 0.58339 0.37885 0.73621 0.0
O999 O 0.5623 0.34152 0.71618 0.0
C1000 C 0.52917 0.19132 0.70008 0.0
C1001 C 0.53385 0.19947 0.67208 0.0
H1002 H 0.57312 0.19824 0.6292 0.0
H1003 H 0.65279 0.24304 0.63698 0.0
H1004 H 0.51734 0.26032 0.77874 0.0
H1005 H 0.5106 0.20057 0.75594 0.0
H1006 H 0.51153 0.17448 0.70403 0.0
H1007 H 0.52366 0.18341 0.65988 0.0
Mn1008 Mn 0.37512 0.1239 0.52383 0.0
Mn1009 Mn 0.43072 0.15867 0.54934 0.0
C1010 C 0.42756 0.11379 0.51171 0.0
C1011 C 0.34866 0.07614 0.51799 0.0
C1012 C 0.38195 0.19768 0.52432 0.0
O1013 O 0.35857 0.12968 0.55821 0.0
O1014 O 0.40213 0.14811 0.57527 0.0
C1015 C 0.46773 0.10852 0.58388 0.0
N1016 N 0.46129 0.13304 0.56698 0.0
C1017 C 0.51342 0.18644 0.59033 0.0
C1018 C 0.52316 0.16159 0.61009 0.0
C1019 C 0.49343 0.11114 0.60345 0.0
C1020 C 0.47549 0.16182 0.56445 0.0
H1021 H 0.45293 0.08846 0.58436 0.0
C1022 C 0.37493 0.1364 0.57653 0.0
O1023 O 0.3368 0.10206 0.51084 0.0
O1024 O 0.3737 0.07849 0.52967 0.0
N1025 N 0.45671 0.16788 0.52156 0.0
C1026 C 0.45541 0.18958 0.4985 0.0
C1027 C 0.48601 0.2139 0.48793 0.0
C1028 C 0.52359 0.21888 0.50129 0.0
C1029 C 0.5322 0.19778 0.52853 0.0
C1030 C 0.48319 0.16341 0.53811 0.0
H1031 H 0.43401 0.19039 0.489 0.0
O1032 O 0.4054 0.11305 0.49643 0.0
O1033 O 0.4179 0.12386 0.53178 0.0
O1034 O 0.36893 0.17354 0.51478 0.0
O1035 O 0.4039 0.19295 0.53835 0.0
C1036 C 0.55168 0.21194 0.55214 0.0
C1037 C 0.54255 0.20675 0.57985 0.0
H1038 H 0.54098 0.1674 0.62211 0.0
H1039 H 0.49433 0.08894 0.61289 0.0
H1040 H 0.48169 0.22467 0.47113 0.0
H1041 H 0.53345 0.21025 0.51619 0.0
H1042 H 0.56904 0.22931 0.54882 0.0
H1043 H 0.55841 0.21619 0.59243 0.0
Mn1044 Mn 0.64101 0.62503 0.27862 0.0
Mn1045 Mn 0.61917 0.67283 0.31724 0.0
C1046 C 0.64917 0.68024 0.26857 0.0
C1047 C 0.68321 0.59462 0.26619 0.0
C1048 C 0.57262 0.63535 0.28624 0.0
O1049 O 0.63163 0.59893 0.31043 0.0
O1050 O 0.64446 0.64001 0.33019 0.0
C1051 C 0.66417 0.69885 0.36163 0.0
N1052 N 0.64479 0.70167 0.33745 0.0
C1053 C 0.62801 0.77779 0.35856 0.0
C1054 C 0.65313 0.76704 0.38316 0.0
C1055 C 0.66949 0.7286 0.38361 0.0
C1056 C 0.62586 0.72924 0.33028 0.0
H1057 H 0.67436 0.67663 0.36554 0.0
C1058 C 0.63664 0.61203 0.3304 0.0
O1059 O 0.6552 0.58781 0.25995 0.0
O1060 O 0.68603 0.61685 0.28114 0.0
N1061 N 0.59779 0.70507 0.30118 0.0
C1062 C 0.58877 0.71121 0.27732 0.0
C1063 C 0.56854 0.73883 0.27019 0.0
C1064 C 0.54216 0.7737 0.30133 0.0
C1065 C 0.55551 0.76352 0.32735 0.0
C1066 C 0.59297 0.7226 0.32075 0.0
H1067 H 0.59279 0.69387 0.26414 0.0
O1068 O 0.65054 0.65823 0.25332 0.0
O1069 O 0.64494 0.66884 0.28963 0.0
O1070 O 0.59279 0.62745 0.27088 0.0
O1071 O 0.58293 0.64593 0.30578 0.0
C1072 C 0.56269 0.79238 0.34592 0.0
C1073 C 0.59532 0.79956 0.35989 0.0
H1074 H 0.63861 0.77819 0.37182 0.0
H1075 H 0.68524 0.72308 0.39745 0.0
H1076 H 0.56693 0.7388 0.25094 0.0
H1077 H 0.52737 0.7941 0.30001 0.0
H1078 H 0.54672 0.81122 0.34581 0.0
H1079 H 0.59533 0.81881 0.37203 0.0
Mn1080 Mn 0.11297 0.87994 0.02267 0.0
Mn1081 Mn 0.06419 0.83937 0.05257 0.0
C1082 C 0.05886 0.88438 0.01453 0.0
C1083 C 0.1378 0.9275 0.01423 0.0
C1084 C 0.11351 0.807 0.0236 0.0
O1085 O 0.13364 0.87534 0.05591 0.0
O1086 O 0.09319 0.85548 0.07646 0.0
C1087 C 0.02211 0.8857 0.08603 0.0
N1088 N 0.0305 0.85957 0.07108 0.0
C1089 C 0.97528 0.80831 0.09376 0.0
C1090 C 0.9629 0.83538 0.11126 0.0
C1091 C 0.99413 0.88511 0.104 0.0
C1092 C 0.01538 0.83112 0.06895 0.0
H1093 H 0.03716 0.90561 0.08651 0.0
C1094 C 0.11962 0.86903 0.07549 0.0
O1095 O 0.1493 0.9014 0.00721 0.0
O1096 O 0.11361 0.9257 0.02732 0.0
N1097 N 0.0372 0.82466 0.02685 0.0
C1098 C 0.04034 0.80274 0.00424 0.0
C1099 C 0.01142 0.77734 0.993 0.0
C1100 C 0.97339 0.77073 0.00514 0.0
C1101 C 0.96241 0.79136 0.03174 0.0
C1102 C 0.00957 0.82817 0.04234 0.0
H1103 H 0.06197 0.80292 0.99508 0.0
O1104 O 0.07902 0.88812 0.99786 0.0
O1105 O 0.07142 0.87545 0.03393 0.0
O1106 O 0.12111 0.83189 0.01235 0.0
O1107 O 0.09523 0.80957 0.04073 0.0
C1108 C 0.94141 0.77799 0.05496 0.0
C1109 C 0.94797 0.78553 0.08288 0.0
H1110 H 0.942 0.83036 0.12129 0.0
H1111 H 0.99195 0.90826 0.11182 0.0
H1112 H 0.01679 0.76788 0.97594 0.0
H1113 H 0.96237 0.77887 0.01974 0.0
H1114 H 0.9239 0.76082 0.05127 0.0
H1115 H 0.93091 0.77698 0.09517 0.0
Mn1116 Mn 0.85306 0.36268 0.77541 0.0
Mn1117 Mn 0.8883 0.31272 0.80928 0.0
C1118 C 0.842 0.30818 0.77191 0.0
C1119 C 0.80763 0.38913 0.76349 0.0
C1120 C 0.92508 0.35297 0.77449 0.0
O1121 O 0.85878 0.38841 0.8057 0.0
O1122 O 0.88097 0.35106 0.82805 0.0
C1123 C 0.86534 0.30187 0.86371 0.0
N1124 N 0.8702 0.29097 0.83666 0.0
C1125 C 0.91328 0.22975 0.8629 0.0
C1126 C 0.90195 0.24804 0.89063 0.0
C1127 C 0.87936 0.2827 0.88974 0.0
C1128 C 0.88921 0.26326 0.82862 0.0
H1129 H 0.85457 0.32365 0.86666 0.0
C1130 C 0.86816 0.37772 0.82557 0.0
O1131 O 0.83457 0.39733 0.75573 0.0
O1132 O 0.80747 0.36729 0.7789 0.0
N1133 N 0.89453 0.27495 0.78885 0.0
C1134 C 0.89323 0.25915 0.76623 0.0
C1135 C 0.91452 0.23144 0.7593 0.0
C1136 C 0.96113 0.21687 0.7847 0.0
C1137 C 0.95915 0.2368 0.8094 0.0
C1138 C 0.9124 0.26803 0.80766 0.0
H1139 H 0.8835 0.27112 0.75144 0.0
O1140 O 0.84349 0.32612 0.75363 0.0
O1141 O 0.8519 0.3216 0.7909 0.0
O1142 O 0.90192 0.36752 0.76569 0.0
O1143 O 0.91932 0.33316 0.78993 0.0
C1144 C 0.9689 0.21793 0.83333 0.0
C1145 C 0.9485 0.21391 0.85733 0.0
H1146 H 0.91089 0.23405 0.87794 0.0
H1147 H 0.87462 0.29385 0.90625 0.0
H1148 H 0.9068 0.22242 0.74226 0.0
H1149 H 0.97714 0.19752 0.78393 0.0
H1150 H 0.99009 0.20522 0.83276 0.0
H1151 H 0.96122 0.20537 0.872 0.0
C1152 C 0.14755 0.64333 0.12333 0.0
C1153 C 0.13985 0.62094 0.14108 0.0
C1154 C 0.15386 0.58188 0.11106 0.0
C1155 C 0.16313 0.60598 0.09542 0.0
N1156 N 0.18473 0.65669 0.0936 0.0
N1157 N 0.13951 0.56605 0.15073 0.0
C1158 C 0.16805 0.63494 0.10537 0.0
C1159 C 0.1451 0.58916 0.13496 0.0
N1160 N 0.13023 0.66906 0.11948 0.0
N1161 N 0.15052 0.55277 0.10221 0.0
H1162 H 0.12929 0.56976 0.167 0.0
H1163 H 0.14576 0.54313 0.14768 0.0
H1164 H 0.15695 0.54776 0.08495 0.0
H1165 H 0.14042 0.53452 0.11146 0.0
H1166 H 0.13432 0.68346 0.10503 0.0
H1167 H 0.10939 0.67342 0.12776 0.0
H1168 H 0.18694 0.6793 0.09993 0.0
H1169 H 0.19747 0.65086 0.07867 0.0
C1170 C 0.63533 0.91075 0.38407 0.0
C1171 C 0.64555 0.88379 0.39586 0.0
C1172 C 0.66407 0.86419 0.35818 0.0
C1173 C 0.64391 0.88503 0.34636 0.0
N1174 N 0.61363 0.93148 0.34798 0.0
N1175 N 0.67718 0.83872 0.39511 0.0
C1176 C 0.63132 0.91003 0.35915 0.0
C1177 C 0.66297 0.862 0.38318 0.0
N1178 N 0.62824 0.93632 0.39693 0.0
N1179 N 0.68299 0.84576 0.34518 0.0
H1180 H 0.67707 0.83795 0.41344 0.0
H1181 H 0.68891 0.82062 0.38712 0.0
H1182 H 0.68395 0.84756 0.32689 0.0
H1183 H 0.69919 0.8308 0.35237 0.0
H1184 H 0.62268 0.95758 0.3894 0.0
H1185 H 0.62978 0.93617 0.4152 0.0
H1186 H 0.60101 0.94829 0.35684 0.0
H1187 H 0.61088 0.9316 0.32979 0.0
C1188 C 0.35867 0.37504 0.62054 0.0
C1189 C 0.36182 0.39546 0.6402 0.0
C1190 C 0.36266 0.4369 0.60984 0.0
C1191 C 0.3547 0.41484 0.5921 0.0
N1192 N 0.32863 0.36643 0.58603 0.0
N1193 N 0.36481 0.44955 0.65166 0.0
C1194 C 0.34488 0.38595 0.60001 0.0
C1195 C 0.36235 0.42783 0.63444 0.0
N1196 N 0.37658 0.34954 0.61801 0.0
N1197 N 0.37195 0.46572 0.60306 0.0
H1198 H 0.36777 0.44391 0.66927 0.0
H1199 H 0.36272 0.47319 0.64837 0.0
H1200 H 0.37123 0.47253 0.58545 0.0
H1201 H 0.3812 0.48198 0.6146 0.0
H1202 H 0.37688 0.3369 0.60235 0.0
H1203 H 0.39332 0.34297 0.62996 0.0
H1204 H 0.32278 0.34419 0.59184 0.0
H1205 H 0.31888 0.37388 0.57026 0.0
C1206 C 0.85847 0.08192 0.89663 0.0
C1207 C 0.8464 0.10904 0.90733 0.0
C1208 C 0.82982 0.12682 0.86869 0.0
C1209 C 0.85023 0.10538 0.85802 0.0
N1210 N 0.88043 0.05923 0.8612 0.0
N1211 N 0.81636 0.15519 0.90408 0.0
C1212 C 0.86261 0.08116 0.87171 0.0
C1213 C 0.83004 0.13049 0.89352 0.0
N1214 N 0.86777 0.05801 0.91057 0.0
N1215 N 0.81103 0.14411 0.85475 0.0
H1216 H 0.81503 0.15697 0.92233 0.0
H1217 H 0.80719 0.17387 0.8949 0.0
H1218 H 0.81034 0.14063 0.83663 0.0
H1219 H 0.79441 0.15922 0.86119 0.0
H1220 H 0.87537 0.03684 0.90409 0.0
H1221 H 0.86525 0.05873 0.92879 0.0
H1222 H 0.89323 0.0429 0.8704 0.0
H1223 H 0.88303 0.05817 0.84301 0.0
C1224 C 0.12257 0.41215 0.89534 0.0
C1225 C 0.14261 0.39091 0.90682 0.0
C1226 C 0.16547 0.37919 0.8684 0.0
C1227 C 0.13967 0.39281 0.85703 0.0
N1228 N 0.09615 0.42649 0.85916 0.0
N1229 N 0.18609 0.35703 0.90454 0.0
C1230 C 0.11939 0.4113 0.87035 0.0
C1231 C 0.16566 0.37599 0.89347 0.0
N1232 N 0.10585 0.43222 0.9087 0.0
N1233 N 0.1889 0.36796 0.85493 0.0
H1234 H 0.18684 0.35511 0.92279 0.0
H1235 H 0.20144 0.34265 0.89574 0.0
H1236 H 0.18862 0.36995 0.83665 0.0
H1237 H 0.20931 0.35922 0.86181 0.0
H1238 H 0.09199 0.44957 0.90176 0.0
H1239 H 0.10819 0.43296 0.92695 0.0
H1240 H 0.07849 0.43805 0.86783 0.0
H1241 H 0.09433 0.42661 0.84088 0.0
C1242 C 0.82908 0.86009 0.11623 0.0
C1243 C 0.84379 0.88413 0.10356 0.0
C1244 C 0.86051 0.9082 0.14067 0.0
C1245 C 0.84834 0.88249 0.15321 0.0
N1246 N 0.81119 0.84102 0.15405 0.0
N1247 N 0.86383 0.93594 0.10345 0.0
C1248 C 0.82916 0.86085 0.14126 0.0
C1249 C 0.85565 0.91014 0.11588 0.0
N1250 N 0.8167 0.83571 0.10425 0.0
N1251 N 0.87876 0.92928 0.15196 0.0
H1252 H 0.86086 0.9372 0.08529 0.0
H1253 H 0.87073 0.95665 0.11123 0.0
H1254 H 0.88251 0.92871 0.17002 0.0
H1255 H 0.89142 0.94637 0.14331 0.0
H1256 H 0.80902 0.8154 0.11227 0.0
H1257 H 0.8152 0.83579 0.08595 0.0
H1258 H 0.79537 0.82571 0.14661 0.0
H1259 H 0.80997 0.84238 0.17232 0.0
C1260 C 0.36776 0.59478 0.38846 0.0
C1261 C 0.35052 0.61806 0.40023 0.0
C1262 C 0.32855 0.63315 0.36213 0.0
C1263 C 0.35151 0.61565 0.35023 0.0
N1264 N 0.39172 0.57785 0.35196 0.0
N1265 N 0.31264 0.65822 0.39844 0.0
C1266 C 0.37017 0.59516 0.36337 0.0
C1267 C 0.32963 0.63629 0.38714 0.0
N1268 N 0.38275 0.57312 0.4016 0.0
N1269 N 0.30656 0.6478 0.34915 0.0
H1270 H 0.31234 0.65996 0.41672 0.0
H1271 H 0.29991 0.67516 0.38983 0.0
H1272 H 0.30573 0.64576 0.33088 0.0
H1273 H 0.28793 0.65949 0.35644 0.0
H1274 H 0.39436 0.5543 0.39446 0.0
H1275 H 0.38102 0.57274 0.41989 0.0
H1276 H 0.4088 0.56527 0.3605 0.0
H1277 H 0.39296 0.5771 0.33367 0.0
C1278 C 0.61767 0.11784 0.63759 0.0
C1279 C 0.64016 0.10183 0.65053 0.0
C1280 C 0.65468 0.07626 0.6128 0.0
C1281 C 0.63463 0.09632 0.59998 0.0
N1282 N 0.60723 0.14368 0.60088 0.0
N1283 N 0.68336 0.06726 0.64937 0.0
C1284 C 0.6196 0.11962 0.6128 0.0
C1285 C 0.65981 0.08135 0.63781 0.0
N1286 N 0.59427 0.13136 0.64942 0.0
N1287 N 0.66849 0.05249 0.6013 0.0
H1288 H 0.68661 0.07016 0.6674 0.0
H1289 H 0.70013 0.05416 0.64091 0.0
H1290 H 0.6659 0.04964 0.58324 0.0
H1291 H 0.68119 0.03538 0.60977 0.0
H1292 H 0.57947 0.14767 0.64247 0.0
H1293 H 0.58702 0.12116 0.66496 0.0
H1294 H 0.59171 0.15935 0.60779 0.0
H1295 H 0.61766 0.15036 0.58528 0.0
C1296 C 0.87586 0.41561 0.8592 0.0
C1297 C 0.85789 0.39264 0.84801 0.0
C1298 C 0.83463 0.37819 0.88596 0.0
C1299 C 0.85627 0.39741 0.89741 0.0
N1300 N 0.88599 0.44419 0.89534 0.0
N1301 N 0.81118 0.36248 0.84895 0.0
C1302 C 0.8726 0.41984 0.88398 0.0
C1303 C 0.8337 0.37805 0.86085 0.0
N1304 N 0.89698 0.432 0.84644 0.0
N1305 N 0.81705 0.3583 0.89897 0.0
H1306 H 0.81068 0.3618 0.83063 0.0
H1307 H 0.79198 0.35262 0.85708 0.0
H1308 H 0.81725 0.3588 0.9173 0.0
H1309 H 0.80332 0.34095 0.89171 0.0
H1310 H 0.91283 0.44729 0.85384 0.0
H1311 H 0.89886 0.42949 0.82827 0.0
H1312 H 0.89691 0.46247 0.88671 0.0
H1313 H 0.8838 0.44686 0.9135 0.0
C1314 C 0.34346 0.13558 0.63957 0.0
C1315 C 0.36617 0.11658 0.65035 0.0
C1316 C 0.38265 0.10059 0.6109 0.0
C1317 C 0.36564 0.1253 0.60065 0.0
N1318 N 0.32882 0.16614 0.60544 0.0
N1319 N 0.40716 0.07999 0.64598 0.0
C1320 C 0.34523 0.14238 0.61499 0.0
C1321 C 0.38531 0.09828 0.63589 0.0
N1322 N 0.32047 0.14748 0.65313 0.0
N1323 N 0.39608 0.07922 0.59661 0.0
H1324 H 0.40836 0.07689 0.66413 0.0
H1325 H 0.42454 0.06912 0.63646 0.0
H1326 H 0.39407 0.08024 0.57837 0.0
H1327 H 0.40663 0.05923 0.60289 0.0
H1328 H 0.30177 0.15953 0.64629 0.0
H1329 H 0.31893 0.14267 0.67108 0.0
H1330 H 0.3164 0.18196 0.61544 0.0
H1331 H 0.32902 0.17079 0.58746 0.0
C1332 C 0.63188 0.62257 0.3945 0.0
C1333 C 0.6335 0.59341 0.40535 0.0
C1334 C 0.63672 0.571 0.36499 0.0
C1335 C 0.62941 0.60037 0.35511 0.0
N1336 N 0.60513 0.64895 0.36341 0.0
N1337 N 0.63206 0.53808 0.39985 0.0
C1338 C 0.62185 0.62433 0.37105 0.0
C1339 C 0.63437 0.56687 0.39025 0.0
N1340 N 0.63764 0.64852 0.40722 0.0
N1341 N 0.64573 0.54746 0.35074 0.0
H1342 H 0.63051 0.53488 0.41797 0.0
H1343 H 0.62996 0.51807 0.38976 0.0
H1344 H 0.64671 0.55003 0.33254 0.0
H1345 H 0.65354 0.52631 0.35722 0.0
H1346 H 0.63662 0.67073 0.40024 0.0
H1347 H 0.64686 0.64679 0.42401 0.0
H1348 H 0.60192 0.66889 0.37301 0.0
H1349 H 0.5928 0.64817 0.34776 0.0
C1350 C 0.15594 0.8752 0.13663 0.0
C1351 C 0.13291 0.89351 0.14778 0.0
C1352 C 0.11254 0.90661 0.10871 0.0
C1353 C 0.13051 0.88268 0.09842 0.0
N1354 N 0.17256 0.84719 0.10157 0.0
N1355 N 0.09025 0.92829 0.14427 0.0
C1356 C 0.15372 0.86833 0.11202 0.0
C1357 C 0.1121 0.91048 0.13365 0.0
N1358 N 0.17897 0.86327 0.15017 0.0
N1359 N 0.09576 0.92552 0.09443 0.0
H1360 H 0.09029 0.93229 0.16233 0.0
H1361 H 0.07163 0.93796 0.13541 0.0
H1362 H 0.09609 0.92325 0.07619 0.0
H1363 H 0.08397 0.94494 0.10038 0.0
H1364 H 0.1974 0.85056 0.14367 0.0
H1365 H 0.18052 0.86822 0.16808 0.0
H1366 H 0.18851 0.8337 0.11052 0.0
H1367 H 0.1716 0.84269 0.08358 0.0
C1368 C 0.88966 0.64272 0.11042 0.0
C1369 C 0.87223 0.62419 0.09506 0.0
C1370 C 0.8493 0.60104 0.13103 0.0
C1371 C 0.87278 0.61556 0.14483 0.0
N1372 N 0.92347 0.63864 0.14323 0.0
N1373 N 0.83452 0.58303 0.09181 0.0
C1374 C 0.89637 0.63124 0.13261 0.0
C1375 C 0.85163 0.6022 0.10557 0.0
N1376 N 0.90067 0.67087 0.1035 0.0
N1377 N 0.82488 0.58724 0.14187 0.0
H1378 H 0.83453 0.58499 0.07359 0.0
H1379 H 0.82126 0.56493 0.09861 0.0
H1380 H 0.82343 0.58572 0.16013 0.0
H1381 H 0.80587 0.57869 0.13272 0.0
H1382 H 0.91398 0.68447 0.11454 0.0
H1383 H 0.89423 0.68108 0.08762 0.0
H1384 H 0.9414 0.64916 0.13403 0.0
H1385 H 0.92833 0.63196 0.16037 0.0
C1386 C 0.16169 0.11874 0.86596 0.0
C1387 C 0.1395 0.10235 0.85233 0.0
C1388 C 0.11634 0.08281 0.889 0.0
C1389 C 0.13402 0.10452 0.9022 0.0
N1390 N 0.17525 0.1417 0.90365 0.0
N1391 N 0.09684 0.06695 0.85073 0.0
C1392 C 0.15777 0.12152 0.89085 0.0
C1393 C 0.11767 0.08315 0.86386 0.0
N1394 N 0.18596 0.13248 0.85468 0.0
N1395 N 0.09795 0.06216 0.9007 0.0
H1396 H 0.0984 0.06581 0.83246 0.0
H1397 H 0.07766 0.05565 0.85771 0.0
H1398 H 0.09694 0.06142 0.91901 0.0
H1399 H 0.08598 0.04422 0.89255 0.0
H1400 H 0.20422 0.14331 0.86326 0.0
H1401 H 0.18892 0.1306 0.83653 0.0
H1402 H 0.19034 0.15782 0.89628 0.0
H1403 H 0.1738 0.14284 0.92189 0.0
C1404 C 0.6318 0.34658 0.61222 0.0
C1405 C 0.62851 0.3725 0.5981 0.0
C1406 C 0.62531 0.40198 0.63583 0.0
C1407 C 0.61932 0.3734 0.64783 0.0
N1408 N 0.58729 0.3342 0.63244 0.0
N1409 N 0.62183 0.42799 0.59745 0.0
C1410 C 0.61543 0.34757 0.63305 0.0
C1411 C 0.62572 0.40162 0.61017 0.0
N1412 N 0.64228 0.3194 0.60359 0.0
N1413 N 0.62852 0.42878 0.6481 0.0
H1414 H 0.62218 0.42767 0.57912 0.0
H1415 H 0.61707 0.44935 0.60509 0.0
H1416 H 0.6265 0.42948 0.66632 0.0
H1417 H 0.63458 0.44968 0.64013 0.0
H1418 H 0.64235 0.29942 0.61391 0.0
H1419 H 0.65384 0.3188 0.58757 0.0
H1420 H 0.58122 0.32008 0.61836 0.0
H1421 H 0.56939 0.34271 0.64285 0.0
C1422 C 0.326 0.89497 0.37513 0.0
C1423 C 0.34812 0.90796 0.35954 0.0
C1424 C 0.37179 0.93376 0.39372 0.0
C1425 C 0.35583 0.91329 0.40931 0.0
N1426 N 0.31506 0.87552 0.41424 0.0
N1427 N 0.39006 0.94351 0.35381 0.0
C1428 C 0.33151 0.89486 0.39994 0.0
C1429 C 0.36979 0.92935 0.36873 0.0
N1430 N 0.29977 0.88244 0.36592 0.0
N1431 N 0.38964 0.95677 0.40302 0.0
H1432 H 0.38841 0.94113 0.33563 0.0
H1433 H 0.40901 0.95638 0.35941 0.0
H1434 H 0.39102 0.96037 0.42112 0.0
H1435 H 0.40051 0.97376 0.39296 0.0
H1436 H 0.2813 0.87483 0.37615 0.0
H1437 H 0.29567 0.88241 0.34784 0.0
H1438 H 0.30008 0.85856 0.40789 0.0
H1439 H 0.31732 0.87547 0.43242 0.0
C1440 C 0.02288 0.57201 0.02871 0.0
C1441 C 0.04307 0.58102 0.01023 0.0
C1442 C -0.00317 0.59653 0.98701 0.0
C1443 C 0.97745 0.59272 0.00702 0.0
N1444 N 0.97025 0.55822 0.03967 0.0
N1445 N 0.04476 0.58209 0.96765 0.0
C1446 C 0.98993 0.57495 0.02589 0.0
C1447 C 0.02855 0.58632 0.98789 0.0
N1448 N 0.035 0.55907 0.04847 0.0
N1449 N 0.98581 0.61113 0.96753 0.0
H1450 H 0.06649 0.57201 0.96742 0.0
H1451 H 0.03485 0.58408 0.95107 0.0
H1452 H 0.96332 0.6193 0.96632 0.0
H1453 H -0.00019 0.61752 0.95344 0.0
H1454 H 0.02201 0.55383 0.06333 0.0
H1455 H 0.05829 0.55344 0.04981 0.0
H1456 H 0.97766 0.54163 0.05168 0.0
H1457 H 0.94643 0.55853 0.03725 0.0
C1458 C 0.67046 0.73641 0.27417 0.0
C1459 C 0.65148 0.71519 0.26155 0.0
C1460 C 0.62971 0.7613 0.24024 0.0
C1461 C 0.64521 0.78193 0.25573 0.0
N1462 N 0.69219 0.78714 0.27801 0.0
N1463 N 0.62352 0.70914 0.22471 0.0
C1464 C 0.66909 0.76893 0.26962 0.0
C1465 C 0.63505 0.72816 0.24174 0.0
N1466 N 0.69177 0.72636 0.28989 0.0
N1467 N 0.60858 0.773 0.22491 0.0
H1468 H 0.62464 0.68517 0.22528 0.0
H1469 H 0.6147 0.7173 0.20889 0.0
H1470 H 0.60485 0.79668 0.22296 0.0
H1471 H 0.59348 0.75937 0.21513 0.0
H1472 H 0.69548 0.70304 0.29378 0.0
H1473 H 0.69548 0.70304 0.29378 0.0
H1474 H 0.69385 0.81086 0.27462 0.0
H1475 H 0.69385 0.81086 0.27462 0.0
C1476 C 0.49058 0.44183 0.49376 0.0
C1477 C 0.46932 0.4198 0.50513 0.0
C1478 C 0.50992 0.38589 0.50377 0.0
C1479 C 0.53443 0.40458 0.50361 0.0
N1480 N 0.54654 0.45695 0.48978 0.0
N1481 N 0.49162 0.40717 0.54017 0.0
C1482 C 0.5249 0.43539 0.4953 0.0
C1483 C 0.48625 0.39911 0.51758 0.0
N1484 N 0.47922 0.46705 0.48259 0.0
N1485 N 0.50366 0.37538 0.48163 0.0
H1486 H 0.47545 0.41969 0.54989 0.0
H1487 H 0.51424 0.40777 0.54612 0.0
H1488 H 0.52137 0.36963 0.46993 0.0
H1489 H 0.48142 0.37521 0.4746 0.0
H1490 H 0.49328 0.48268 0.47358 0.0
H1491 H 0.45551 0.47112 0.48214 0.0
H1492 H 0.54088 0.47947 0.48484 0.0
H1493 H 0.56999 0.45179 0.49104 0.0
C1494 C 0.82428 0.25714 0.79193 0.0
C1495 C 0.82991 0.27444 0.77115 0.0
C1496 C 0.83743 0.22498 0.74996 0.0
C1497 C 0.83913 0.20857 0.77189 0.0
N1498 N 0.81386 0.20859 0.80996 0.0
N1499 N 0.82004 0.2715 0.72954 0.0
C1500 C 0.82661 0.22433 0.79172 0.0
C1501 C 0.82847 0.25716 0.74982 0.0
N1502 N 0.81398 0.271 0.81183 0.0
N1503 N 0.84706 0.21151 0.72959 0.0
H1504 H 0.81205 0.29418 0.72946 0.0
H1505 H 0.81683 0.25971 0.71378 0.0
H1506 H 0.85564 0.18915 0.72853 0.0
H1507 H 0.84948 0.22378 0.71393 0.0
H1508 H 0.80906 0.2946 0.81291 0.0
H1509 H 0.80906 0.2946 0.81291 0.0
H1510 H 0.81132 0.18457 0.81028 0.0
H1511 H 0.81132 0.18457 0.81028 0.0
C1512 C 0.99254 0.41882 0.97527 0.0
C1513 C 0.97199 0.4007 0.98918 0.0
C1514 C 0.01779 0.38144 0.0115 0.0
C1515 C 0.03802 0.39557 0.9951 0.0
N1516 N 0.04407 0.44144 0.9719 0.0
N1517 N 0.9665 0.37836 0.02842 0.0
C1518 C 0.02521 0.41848 0.98007 0.0
C1519 C 0.98503 0.38711 0.01016 0.0
N1520 N 0.98085 0.43738 0.95806 0.0
N1521 N 0.02951 0.36136 0.0277 0.0
H1522 H 0.94273 0.38064 0.02856 0.0
H1523 H 0.97513 0.37138 0.04463 0.0
H1524 H 0.05304 0.35706 0.02927 0.0
H1525 H 0.01587 0.34742 0.03849 0.0
H1526 H 0.99449 0.44987 0.94634 0.0
H1527 H 0.95723 0.44021 0.95548 0.0
H1528 H 0.03599 0.46109 0.9633 0.0
H1529 H 0.06758 0.44208 0.97575 0.0
C1530 C 0.84232 0.76629 0.26216 0.0
C1531 C 0.83371 0.78439 0.24216 0.0
C1532 C 0.82005 0.73499 0.22197 0.0
C1533 C 0.83663 0.71719 0.23895 0.0
N1534 N 0.85822 0.71618 0.27804 0.0
N1535 N 0.79776 0.78461 0.21043 0.0
C1536 C 0.84505 0.73278 0.26027 0.0
C1537 C 0.81753 0.76822 0.22424 0.0
N1538 N 0.84897 0.7811 0.28271 0.0
N1539 N 0.80649 0.72008 0.20352 0.0
H1540 H 0.79597 0.80859 0.21175 0.0
H1541 H 0.78224 0.77466 0.19872 0.0
H1542 H 0.80463 0.69603 0.20262 0.0
H1543 H 0.79761 0.73138 0.18889 0.0
H1544 H 0.85272 0.76984 0.29859 0.0
H1545 H 0.84808 0.80504 0.2845 0.0
H1546 H 0.86852 0.72601 0.29273 0.0
H1547 H 0.86068 0.69227 0.27772 0.0
C1548 C 0.47885 0.64275 0.50639 0.0
C1549 C 0.46034 0.62387 0.49145 0.0
C1550 C 0.50543 0.58906 0.48663 0.0
C1551 C 0.5251 0.61178 0.49687 0.0
N1552 N 0.53032 0.66031 0.51716 0.0
N1553 N 0.45374 0.57281 0.47526 0.0
C1554 C 0.51166 0.63839 0.50729 0.0
C1555 C 0.47308 0.59515 0.48378 0.0
N1556 N 0.46495 0.66367 0.52083 0.0
N1557 N 0.51805 0.56169 0.47939 0.0
H1558 H 0.4301 0.57594 0.47405 0.0
H1559 H 0.46031 0.55064 0.47036 0.0
H1560 H 0.54086 0.55573 0.48297 0.0
H1561 H 0.50663 0.54491 0.46962 0.0
H1562 H 0.44112 0.66667 0.52123 0.0
H1563 H 0.47672 0.67596 0.53377 0.0
H1564 H 0.5541 0.65743 0.51869 0.0
H1565 H 0.52246 0.68202 0.52234 0.0
C1566 C 0.65466 0.22773 0.76354 0.0
C1567 C 0.6619 0.21125 0.74235 0.0
C1568 C 0.66475 0.26315 0.72293 0.0
C1569 C 0.64806 0.27773 0.74152 0.0
N1570 N 0.62981 0.27278 0.78131 0.0
N1571 N 0.6795 0.21613 0.70244 0.0
C1572 C 0.64449 0.25986 0.76256 0.0
C1573 C 0.66877 0.22998 0.72233 0.0
N1574 N 0.65673 0.21265 0.7845 0.0
N1575 N 0.67926 0.28125 0.70665 0.0
H1576 H 0.68689 0.19318 0.70218 0.0
H1577 H 0.68063 0.22736 0.68625 0.0
H1578 H 0.67793 0.30529 0.70664 0.0
H1579 H 0.6952 0.27261 0.69465 0.0
H1580 H 0.65386 0.22358 0.80063 0.0
H1581 H 0.6652 0.19019 0.78583 0.0
H1582 H 0.62328 0.26026 0.79615 0.0
H1583 H 0.62179 0.29547 0.78122 0.0
C1584 C 0.3225 0.2609 0.71727 0.0
C1585 C 0.33464 0.28213 0.73403 0.0
C1586 C 0.34899 0.23575 0.75854 0.0
C1587 C 0.34272 0.2151 0.73956 0.0
N1588 N 0.30412 0.20821 0.71 0.0
N1589 N 0.34047 0.28656 0.77628 0.0
C1590 C 0.32357 0.22774 0.72158 0.0
C1591 C 0.3411 0.2685 0.75668 0.0
N1592 N 0.30847 0.27231 0.6977 0.0
N1593 N 0.3635 0.22473 0.77804 0.0
H1594 H 0.33326 0.30948 0.77598 0.0
H1595 H 0.34302 0.27772 0.79318 0.0
H1596 H 0.36929 0.20152 0.78007 0.0
H1597 H 0.37169 0.23897 0.79142 0.0
H1598 H 0.30037 0.25841 0.68411 0.0
H1599 H 0.3048 0.29595 0.69522 0.0
H1600 H 0.28632 0.21593 0.69923 0.0
H1601 H 0.30453 0.18432 0.71257 0.0
C1602 C 0.15839 0.74365 0.22242 0.0
C1603 C 0.13684 0.72603 0.236 0.0
C1604 C 0.12262 0.77469 0.25671 0.0
C1605 C 0.13845 0.79234 0.23925 0.0
N1606 N 0.18383 0.79343 0.21553 0.0
N1607 N 0.10232 0.72434 0.26919 0.0
C1608 C 0.16015 0.77668 0.22507 0.0
C1609 C 0.12098 0.74132 0.25467 0.0
N1610 N 0.17736 0.7288 0.207 0.0
N1611 N 0.10799 0.78989 0.2745 0.0
H1612 H 0.1001 0.70037 0.26804 0.0
H1613 H 0.08768 0.73376 0.28171 0.0
H1614 H 0.10774 0.81394 0.2758 0.0
H1615 H 0.09769 0.77902 0.28881 0.0
H1616 H 0.1907 0.74017 0.19445 0.0
H1617 H 0.17937 0.70478 0.20642 0.0
H1618 H 0.20242 0.78373 0.20669 0.0
H1619 H 0.1859 0.81727 0.21819 0.0
C1620 C 0.17019 0.22419 0.77821 0.0
C1621 C 0.14951 0.20964 0.76225 0.0
C1622 C 0.14151 0.26215 0.7456 0.0
C1623 C 0.15215 0.2765 0.76708 0.0
N1624 N 0.18691 0.26848 0.79986 0.0
N1625 N 0.11819 0.21621 0.72783 0.0
C1626 C 0.16922 0.25679 0.78226 0.0
C1627 C 0.13649 0.229 0.74474 0.0
N1628 N 0.19263 0.20761 0.78901 0.0
N1629 N 0.13576 0.27966 0.72614 0.0
H1630 H 0.11418 0.19246 0.72661 0.0
H1631 H 0.10515 0.22932 0.71615 0.0
H1632 H 0.14061 0.30316 0.72499 0.0
H1633 H 0.13015 0.27005 0.70993 0.0
H1634 H 0.1961 0.184 0.78614 0.0
H1635 H 0.1961 0.184 0.78614 0.0
H1636 H 0.18916 0.29211 0.80332 0.0
H1637 H 0.18916 0.29211 0.80332 0.0
C1638 C 0.31953 0.73556 0.27821 0.0
C1639 C 0.34217 0.72385 0.26238 0.0
C1640 C 0.34229 0.77684 0.24518 0.0
C1641 C 0.33151 0.78986 0.26698 0.0
N1642 N 0.29911 0.77954 0.3002 0.0
N1643 N 0.37034 0.73439 0.22674 0.0
C1644 C 0.31692 0.76848 0.28239 0.0
C1645 C 0.35156 0.74464 0.24427 0.0
N1646 N 0.29833 0.71548 0.28728 0.0
N1647 N 0.3443 0.79489 0.22558 0.0
H1648 H 0.37773 0.71154 0.22556 0.0
H1649 H 0.38061 0.74912 0.21449 0.0
H1650 H 0.33557 0.81725 0.22485 0.0
H1651 H 0.35037 0.78621 0.20917 0.0
H1652 H 0.27873 0.72266 0.2963 0.0
H1653 H 0.29901 0.69183 0.2838 0.0
H1654 H 0.2886 0.76539 0.31269 0.0
H1655 H 0.29481 0.80314 0.30229 0.0
C1656 C 0.47297 0.08037 0.52661 0.0
C1657 C 0.46001 0.09886 0.50835 0.0
C1658 C 0.50922 0.08905 0.4864 0.0
C1659 C 0.52483 0.0803 0.50761 0.0
N1660 N 0.51843 0.06217 0.54729 0.0
N1661 N 0.46641 0.11737 0.46866 0.0
C1662 C 0.50561 0.07423 0.52744 0.0
C1663 C 0.47805 0.10147 0.48735 0.0
N1664 N 0.45366 0.06605 0.54213 0.0
N1665 N 0.52427 0.0864 0.4655 0.0
H1666 H 0.44454 0.12716 0.46871 0.0
H1667 H 0.47938 0.12318 0.4539 0.0
H1668 H 0.54605 0.07653 0.46419 0.0
H1669 H 0.51379 0.09026 0.44933 0.0
H1670 H 0.46103 0.04914 0.55391 0.0
H1671 H 0.4298 0.06843 0.54142 0.0
H1672 H 0.50679 0.06095 0.56328 0.0
H1673 H 0.54093 0.05378 0.54772 0.0
C1674 C 0.98073 0.91703 0.03619 0.0
C1675 C 0.96034 0.90878 0.01773 0.0
C1676 C 0.00601 0.89427 0.99368 0.0
C1677 C 0.02559 0.8969 0.01367 0.0
N1678 N 0.03347 0.93081 0.04651 0.0
N1679 N 0.95798 0.91011 0.97519 0.0
C1680 C 0.01356 0.91419 0.03293 0.0
C1681 C 0.97444 0.90465 0.99512 0.0
N1682 N 0.96892 0.92924 0.05632 0.0
N1683 N 0.01659 0.88052 0.97371 0.0
H1684 H 0.93634 0.92041 0.97549 0.0
H1685 H 0.96763 0.90898 0.95846 0.0
H1686 H 0.03884 0.87188 0.97208 0.0
H1687 H 0.00233 0.87507 0.95959 0.0
H1688 H 0.9822 0.93408 0.07108 0.0
H1689 H 0.94563 0.93469 0.05804 0.0
H1690 H 0.02625 0.94704 0.05884 0.0
H1691 H 0.05718 0.93082 0.04359 0.0
C1692 C 0.48369 0.90719 0.4935 0.0
C1693 C 0.46392 0.88212 0.4991 0.0
C1694 C 0.5087 0.8476 0.49842 0.0
C1695 C 0.52598 0.87034 0.48576 0.0
N1696 N 0.53207 0.92457 0.47624 0.0
N1697 N 0.45801 0.82891 0.5104 0.0
C1698 C 0.51424 0.90114 0.48514 0.0
C1699 C 0.47665 0.85248 0.5029 0.0
N1700 N 0.4729 0.9367 0.49601 0.0
N1701 N 0.52311 0.82204 0.50707 0.0
H1702 H 0.4349 0.83243 0.51474 0.0
H1703 H 0.46504 0.80589 0.51118 0.0
H1704 H 0.5465 0.81821 0.50446 0.0
H1705 H 0.51251 0.80609 0.51822 0.0
H1706 H 0.48632 0.95654 0.49395 0.0
H1707 H 0.45072 0.94125 0.50219 0.0
H1708 H 0.52484 0.94736 0.47434 0.0
H1709 H 0.55377 0.92096 0.46912 0.0
C1710 C 0.00952 0.08765 0.01105 0.0
C1711 C 0.02732 0.0866 0.98983 0.0
C1712 C 0.97904 0.07221 0.96881 0.0
C1713 C 0.96065 0.08004 0.98861 0.0
N1714 N 0.96117 0.07388 0.03076 0.0
N1715 N 0.02799 0.05765 0.95341 0.0
C1716 C 0.97686 0.08004 0.01055 0.0
C1717 C 0.01193 0.07297 0.97022 0.0
N1718 N 0.02267 0.09791 0.03135 0.0
N1719 N 0.96601 0.06112 0.94883 0.0
H1720 H 0.05184 0.05461 0.95389 0.0
H1721 H 0.05184 0.05461 0.95389 0.0
H1722 H 0.94234 0.05739 0.94697 0.0
H1723 H 0.94234 0.05739 0.94697 0.0
H1724 H 0.00998 0.10233 0.04651 0.0
H1725 H 0.04561 0.10477 0.03256 0.0
H1726 H 0.97194 0.07189 0.04703 0.0
H1727 H 0.93829 0.06644 0.03063 0.0
C1728 C 0.17303 0.47935 0.97711 0.0
C1729 C 0.17001 0.4581 0.99599 0.0
C1730 C 0.17977 0.50043 0.02358 0.0
C1731 C 0.17411 0.52201 0.00536 0.0
N1732 N 0.16803 0.53247 0.96398 0.0
N1733 N 0.17268 0.44791 0.03765 0.0
C1734 C 0.17251 0.51172 0.98174 0.0
C1735 C 0.17499 0.46828 0.01936 0.0
N1736 N 0.1758 0.46829 0.95475 0.0
N1737 N 0.18883 0.51108 0.04506 0.0
H1738 H 0.17 0.42414 0.03536 0.0
H1739 H 0.17204 0.45473 0.05517 0.0
H1740 H 0.19247 0.53466 0.04818 0.0
H1741 H 0.19558 0.49669 0.05878 0.0
H1742 H 0.18044 0.48229 0.94026 0.0
H1743 H 0.17648 0.44458 0.95116 0.0
H1744 H 0.16231 0.52603 0.94691 0.0
H1745 H 0.16902 0.55633 0.96641 0.0
C1746 C 0.74434 0.87532 0.2324 0.0
C1747 C 0.76586 0.89958 0.23697 0.0
C1748 C 0.72221 0.9298 0.25248 0.0
C1749 C 0.70152 0.90645 0.2447 0.0
N1750 N 0.69337 0.86397 0.21825 0.0
N1751 N 0.77256 0.95381 0.24708 0.0
C1752 C 0.71295 0.88239 0.23071 0.0
C1753 C 0.75409 0.92827 0.24564 0.0
N1754 N 0.75275 0.84493 0.23326 0.0
N1755 N 0.7117 0.95266 0.26683 0.0
H1756 H 0.79526 0.95407 0.24116 0.0
H1757 H 0.76423 0.9755 0.25188 0.0
H1758 H 0.68839 0.95447 0.27119 0.0
H1759 H 0.72628 0.96855 0.27504 0.0
H1760 H 0.73694 0.82688 0.23097 0.0
H1761 H 0.77359 0.83796 0.24063 0.0
H1762 H 0.7013 0.84601 0.20761 0.0
H1763 H 0.66999 0.86926 0.21676 0.0
C1764 C 0.33308 0.50645 0.51954 0.0
C1765 C 0.33762 0.48478 0.50122 0.0
C1766 C 0.33385 0.52688 0.47248 0.0
C1767 C 0.33708 0.54871 0.49091 0.0
N1768 N 0.33849 0.55967 0.53245 0.0
N1769 N 0.34073 0.47378 0.45978 0.0
C1770 C 0.3354 0.53873 0.51463 0.0
C1771 C 0.33662 0.49469 0.47748 0.0
N1772 N 0.32724 0.49586 0.54173 0.0
N1773 N 0.32858 0.53722 0.45017 0.0
H1774 H 0.34181 0.44999 0.46266 0.0
H1775 H 0.3444 0.48008 0.44235 0.0
H1776 H 0.32622 0.56074 0.44629 0.0
H1777 H 0.32359 0.52265 0.43611 0.0
H1778 H 0.32132 0.51019 0.55569 0.0
H1779 H 0.32541 0.47223 0.54549 0.0
H1780 H 0.3415 0.55338 0.54994 0.0
H1781 H 0.33957 0.58348 0.52967 0.0
C1782 C 0.75108 0.11049 0.77578 0.0
C1783 C 0.77576 0.09047 0.76894 0.0
C1784 C 0.73829 0.06218 0.74446 0.0
C1785 C 0.71423 0.08059 0.75362 0.0
N1786 N 0.6971 0.11241 0.78561 0.0
N1787 N 0.78874 0.0405 0.75198 0.0
C1788 C 0.72052 0.10041 0.77255 0.0
C1789 C 0.76823 0.06402 0.75492 0.0
N1790 N 0.7559 0.14068 0.78208 0.0
N1791 N 0.73273 0.04355 0.72563 0.0
H1792 H 0.8095 0.03931 0.76105 0.0
H1793 H 0.78322 0.02026 0.74292 0.0
H1794 H 0.71068 0.04113 0.7185 0.0
H1795 H 0.75019 0.03198 0.71668 0.0
H1796 H 0.73782 0.15553 0.7863 0.0
H1797 H 0.77621 0.15271 0.7785 0.0
H1798 H 0.70115 0.12647 0.80019 0.0
H1799 H 0.67425 0.10539 0.78327 0.0
C1800 C 0.84702 0.52506 0.97988 0.0
C1801 C 0.85007 0.53334 0.00396 0.0
C1802 C 0.84853 0.47818 0.015 0.0
C1803 C 0.84706 0.46997 0.9909 0.0
N1804 N 0.83425 0.48495 0.95154 0.0
N1805 N 0.84314 0.51856 0.04433 0.0
C1806 C 0.84245 0.49335 0.97379 0.0
C1807 C 0.84712 0.51004 0.02146 0.0
N1808 N 0.85104 0.54677 0.96265 0.0
N1809 N 0.85357 0.45595 0.03163 0.0
H1810 H 0.84159 0.54173 0.04931 0.0
H1811 H 0.83817 0.50293 0.05777 0.0
H1812 H 0.85389 0.43237 0.02787 0.0
H1813 H 0.85906 0.461 0.04901 0.0
H1814 H 0.85314 0.5412 0.94494 0.0
H1815 H 0.85431 0.57023 0.96594 0.0
H1816 H 0.82788 0.50078 0.93862 0.0
H1817 H 0.83074 0.46182 0.94684 0.0
C1818 C 0.2304 0.11906 0.74277 0.0
C1819 C 0.21777 0.09258 0.75353 0.0
C1820 C 0.26937 0.06861 0.75078 0.0
C1821 C 0.28225 0.09792 0.74427 0.0
N1822 N 0.27325 0.15334 0.7461 0.0
N1823 N 0.22611 0.04187 0.76976 0.0
C1824 C 0.26226 0.12387 0.74372 0.0
C1825 C 0.23749 0.06704 0.75812 0.0
N1826 N 0.21191 0.14015 0.73203 0.0
N1827 N 0.28688 0.04255 0.74959 0.0
H1828 H 0.2029 0.04018 0.77448 0.0
H1829 H 0.23995 0.02378 0.7756 0.0
H1830 H 0.30982 0.04299 0.74417 0.0
H1831 H 0.27789 0.02042 0.75231 0.0
H1832 H 0.2207 0.15965 0.72342 0.0
H1833 H 0.18876 0.13525 0.72889 0.0
H1834 H 0.25873 0.17253 0.74694 0.0
H1835 H 0.29596 0.15791 0.75087 0.0
C1836 C 0.65548 0.47786 0.52838 0.0
C1837 C 0.65331 0.45553 0.51017 0.0
C1838 C 0.65199 0.49805 0.48137 0.0
C1839 C 0.64708 0.51965 0.49974 0.0
N1840 N 0.64461 0.53035 0.54119 0.0
N1841 N 0.6496 0.4445 0.46875 0.0
C1842 C 0.64967 0.50977 0.52343 0.0
C1843 C 0.65237 0.46565 0.48643 0.0
N1844 N 0.66276 0.4682 0.55052 0.0
N1845 N 0.65655 0.5087 0.45905 0.0
H1846 H 0.65099 0.4207 0.47149 0.0
H1847 H 0.64445 0.45052 0.45149 0.0
H1848 H 0.65721 0.53232 0.45514 0.0
H1849 H 0.66289 0.49453 0.44509 0.0
H1850 H 0.66703 0.48322 0.56443 0.0
H1851 H 0.66753 0.44501 0.55423 0.0
H1852 H 0.64248 0.52388 0.55874 0.0
H1853 H 0.64076 0.55385 0.53825 0.0
C1854 C 0.22736 0.93251 0.23792 0.0
C1855 C 0.2048 0.91081 0.24557 0.0
C1856 C 0.24432 0.88191 0.26572 0.0
C1857 C 0.26671 0.90563 0.26173 0.0
N1858 N 0.27662 0.95721 0.24653 0.0
N1859 N 0.19107 0.87333 0.27512 0.0
C1860 C 0.2575 0.9322 0.24851 0.0
C1861 C 0.21304 0.8886 0.26246 0.0
N1862 N 0.2202 0.95303 0.22059 0.0
N1863 N 0.25256 0.85204 0.27043 0.0
H1864 H 0.16809 0.88026 0.27478 0.0
H1865 H 0.19661 0.85738 0.28822 0.0
H1866 H 0.27502 0.84405 0.26842 0.0
H1867 H 0.23631 0.8343 0.27232 0.0
H1868 H 0.23653 0.96742 0.21266 0.0
H1869 H 0.19809 0.95421 0.21341 0.0
H1870 H 0.26988 0.97787 0.23862 0.0
H1871 H 0.29803 0.9584 0.25471 0.0
C1872 C 0.65386 0.9877 0.523 0.0
C1873 C 0.65252 0.01179 0.506 0.0
C1874 C 0.65445 0.97221 0.47505 0.0
C1875 C 0.64802 0.94883 0.49189 0.0
N1876 N 0.64269 0.93393 0.53245 0.0
N1877 N 0.65193 0.02668 0.46508 0.0
C1878 C 0.64876 0.95631 0.5161 0.0
C1879 C 0.65372 0.00403 0.48177 0.0
N1880 N 0.65983 0.99516 0.54581 0.0
N1881 N 0.66149 0.96376 0.45261 0.0
H1882 H 0.65236 0.0502 0.469 0.0
H1883 H 0.64845 0.02207 0.44733 0.0
H1884 H 0.66333 0.94054 0.44774 0.0
H1885 H 0.6688 0.97935 0.43977 0.0
H1886 H 0.66351 0.97881 0.55896 0.0
H1887 H 0.66432 0.01795 0.55085 0.0
H1888 H 0.6392 0.93862 0.55017 0.0
H1889 H 0.63955 0.9107 0.52805 0.0
C1890 C 0.22108 0.42196 0.74533 0.0
C1891 C 0.21437 0.39528 0.7594 0.0
C1892 C 0.26904 0.38278 0.75895 0.0
C1893 C 0.27456 0.40425 0.74086 0.0
N1894 N 0.25488 0.44364 0.71517 0.0
N1895 N 0.23288 0.34335 0.76893 0.0
C1896 C 0.25025 0.42376 0.73345 0.0
C1897 C 0.23858 0.37367 0.76343 0.0
N1898 N 0.20062 0.44574 0.74376 0.0
N1899 N 0.29279 0.36988 0.77109 0.0
H1900 H 0.21119 0.33312 0.76725 0.0
H1901 H 0.25057 0.32726 0.77095 0.0
H1902 H 0.31538 0.37788 0.76922 0.0
H1903 H 0.28912 0.3545 0.78499 0.0
H1904 H 0.20568 0.46637 0.73502 0.0
H1905 H 0.18013 0.44635 0.75325 0.0
H1906 H 0.23712 0.45628 0.7075 0.0
H1907 H 0.27637 0.44603 0.70706 0.0
C1908 C 0.82864 0.97716 0.98921 0.0
C1909 C 0.83084 0.96884 0.01334 0.0
C1910 C 0.82998 0.02392 0.02435 0.0
C1911 C 0.83019 0.03216 1.0002 0.0
N1912 N 0.81745 0.01755 0.96074 0.0
N1913 N 0.82149 0.98345 0.05339 0.0
C1914 C 0.82507 0.00893 0.98307 0.0
C1915 C 0.82724 0.99207 0.03072 0.0
N1916 N 0.83249 0.95547 0.97203 0.0
N1917 N 0.83464 0.04593 0.04117 0.0
H1918 H 0.81876 0.96025 0.05822 0.0
H1919 H 0.8162 -0.00088 0.06667 0.0
H1920 H 0.83548 0.06954 0.03755 0.0
H1921 H 0.83902 0.04064 0.0587 0.0
H1922 H 0.8354 0.96113 0.95438 0.0
H1923 H 0.83449 0.93188 0.97528 0.0
H1924 H 0.8109 0.00186 0.94777 0.0
H1925 H 0.81456 0.04076 0.95607 0.0
C1926 C 0.26355 0.63984 0.24512 0.0
C1927 C 0.27886 0.61162 0.24985 0.0
C1928 C 0.23044 0.5845 0.23923 0.0
C1929 C 0.21477 0.61349 0.23852 0.0
N1930 N 0.21633 0.6672 0.25062 0.0
N1931 N 0.27546 0.55613 0.25336 0.0
C1932 C 0.2313 0.64058 0.24468 0.0
C1933 C 0.26193 0.58346 0.24743 0.0
N1934 N 0.27981 0.66604 0.24001 0.0
N1935 N 0.21582 0.55839 0.23158 0.0
H1936 H 0.29835 0.55495 0.25887 0.0
H1937 H 0.26346 0.53519 0.25406 0.0
H1938 H 0.19306 0.55858 0.22573 0.0
H1939 H 0.22694 0.53721 0.22966 0.0
H1940 H 0.26932 0.68684 0.2353 0.0
H1941 H 0.30334 0.66531 0.23688 0.0
H1942 H 0.22797 0.68688 0.25658 0.0
H1943 H 0.19251 0.6681 0.25265 0.0
C1944 C 0.33556 0.0222 0.52966 0.0
C1945 C 0.33797 0.04441 0.51136 0.0
C1946 C 0.3424 0.00194 0.48282 0.0
C1947 C 0.34663 0.98059 0.50153 0.0
N1948 N 0.34724 0.9702 0.54313 0.0
N1949 N 0.34322 0.05554 0.47005 0.0
C1950 C 0.34247 0.99049 0.52508 0.0
C1951 C 0.34046 0.03429 0.48771 0.0
N1952 N 0.32726 0.03189 0.55159 0.0
N1953 N 0.34004 0.99115 0.46034 0.0
H1954 H 0.34046 0.07923 0.47266 0.0
H1955 H 0.34955 0.04983 0.45296 0.0
H1956 H 0.34098 0.9676 0.45629 0.0
H1957 H 0.33414 0.00503 0.44609 0.0
H1958 H 0.32264 0.01689 0.56549 0.0
H1959 H 0.32212 0.05503 0.55511 0.0
H1960 H 0.34819 0.97681 0.56068 0.0
H1961 H 0.35225 0.94687 0.54053 0.0
C1962 C 0.7342 0.5675 0.25874 0.0
C1963 C 0.71038 0.58752 0.25119 0.0
C1964 C 0.74785 0.61876 0.23039 0.0
C1965 C 0.77203 0.59721 0.23521 0.0
N1966 N 0.78413 0.54555 0.24932 0.0
N1967 N 0.69382 0.6235 0.22156 0.0
C1968 C 0.76406 0.56969 0.24793 0.0
C1969 C 0.717 0.60946 0.23362 0.0
N1970 N 0.72849 0.54683 0.27633 0.0
N1971 N 0.75364 0.64937 0.22596 0.0
H1972 H 0.67087 0.61659 0.22339 0.0
H1973 H 0.69814 0.63916 0.20795 0.0
H1974 H 0.77468 0.65998 0.22962 0.0
H1975 H 0.73603 0.66537 0.22328 0.0
H1976 H 0.74577 0.53376 0.28423 0.0
H1977 H 0.70652 0.54413 0.2836 0.0
H1978 H 0.77833 0.52451 0.2572 0.0
H1979 H 0.80492 0.54507 0.2402 0.0
C1980 C 0.15312 0.9818 0.02391 0.0
C1981 C 0.14925 0.9586 0.00656 0.0
C1982 C 0.1532 -0.00118 0.97607 0.0
C1983 C 0.15003 0.02208 0.99344 0.0
N1984 N 0.14532 0.03538 0.03458 0.0
N1985 N 0.14435 0.94525 0.96548 0.0
C1986 C 0.15029 0.01362 0.01761 0.0
C1987 C 0.14969 0.96703 0.9824 0.0
N1988 N 0.15918 0.97324 0.04653 0.0
N1989 N 0.15931 0.00729 0.95341 0.0
H1990 H 0.14181 0.92174 0.96905 0.0
H1991 H 0.14037 0.95078 0.94795 0.0
H1992 H 0.16224 0.03041 0.94844 0.0
H1993 H 0.16461 0.99149 0.94022 0.0
H1994 H 0.16497 0.98896 0.05968 0.0
H1995 H 0.16158 0.95007 0.05149 0.0
H1996 H 0.14122 0.0298 0.0521 0.0
H1997 H 0.14307 0.05891 0.03111 0.0
C1998 C 0.75805 0.41959 0.75669 0.0
C1999 C 0.77856 0.39544 0.75049 0.0
C2000 C 0.73577 0.36547 0.7356 0.0
C2001 C 0.71499 0.39071 0.73839 0.0
N2002 N 0.70973 0.4453 0.74762 0.0
N2003 N 0.78758 0.35222 0.7249 0.0
C2004 C 0.72704 0.41903 0.74775 0.0
C2005 C 0.76762 0.3711 0.73644 0.0
N2006 N 0.76793 0.44261 0.77123 0.0
N2007 N 0.72569 0.33546 0.7351 0.0
H2008 H 0.81123 0.35673 0.72453 0.0
H2009 H 0.77989 0.33494 0.71349 0.0
H2010 H 0.70347 0.32908 0.74015 0.0
H2011 H 0.74083 0.31679 0.73398 0.0
H2012 H 0.75318 0.45918 0.77827 0.0
H2013 H 0.79071 0.44388 0.77707 0.0
H2014 H 0.71846 0.46678 0.75273 0.0
H2015 H 0.68789 0.44635 0.74013 0.0
C2016 C 0.11685 0.75526 0.99865 0.0
C2017 C 0.12574 0.77314 0.01879 0.0
C2018 C 0.14549 0.7229 0.03577 0.0
C2019 C 0.13154 0.70446 0.01775 0.0
N2020 N 0.10247 0.70481 0.98195 0.0
N2021 N 0.15011 0.77223 0.05659 0.0
C2022 C 0.11722 0.72129 0.99901 0.0
C2023 C 0.14076 0.75626 0.03718 0.0
N2024 N 0.10856 0.77077 0.97881 0.0
N2025 N 0.16382 0.70821 0.05171 0.0
H2026 H 0.14963 0.79635 0.05754 0.0
H2027 H 0.15724 0.76166 0.07204 0.0
H2028 H 0.16807 0.68448 0.05079 0.0
H2029 H 0.17715 0.71961 0.06421 0.0
H2030 H 0.10402 0.75992 0.96287 0.0
H2031 H 0.10949 0.79489 0.97782 0.0
H2032 H 0.08844 0.71488 0.96926 0.0
H2033 H 0.10296 0.68066 0.98142 0.0
C2034 C 0.50242 0.86202 0.26078 0.0
C2035 C 0.52234 0.86994 0.28005 0.0
C2036 C 0.47339 0.88347 0.30231 0.0
C2037 C 0.45327 0.87309 0.28379 0.0
N2038 N 0.45089 0.8486 0.246 0.0
N2039 N 0.52507 0.89626 0.31696 0.0
C2040 C 0.46861 0.86175 0.26311 0.0
C2041 C 0.50708 0.88262 0.30021 0.0
N2042 N 0.51575 0.85585 0.23962 0.0
N2043 N 0.46017 0.89347 0.3227 0.0
H2044 H 0.54911 0.89632 0.31615 0.0
H2045 H 0.51644 0.91051 0.33008 0.0
H2046 H 0.47222 0.8965 0.33829 0.0
H2047 H 0.43659 0.89763 0.32431 0.0
H2048 H 0.5034 0.85275 0.22414 0.0
H2049 H 0.53951 0.85719 0.23707 0.0
H2050 H 0.45985 0.83586 0.2321 0.0
H2051 H 0.42688 0.84851 0.24665 0.0
C2052 C 0.38487 0.25219 0.50255 0.0
C2053 C 0.37269 0.23326 0.52109 0.0
C2054 C 0.35698 0.28406 0.54031 0.0
C2055 C 0.37521 0.3029 0.52463 0.0
N2056 N 0.40181 0.30278 0.48734 0.0
N2057 N 0.34197 0.23274 0.5559 0.0
C2058 C 0.38723 0.28622 0.50454 0.0
C2059 C 0.35709 0.24993 0.53934 0.0
N2060 N 0.3931 0.23741 0.48237 0.0
N2061 N 0.33767 0.29909 0.55524 0.0
H2062 H 0.34084 0.20861 0.55505 0.0
H2063 H 0.33016 0.24183 0.57013 0.0
H2064 H 0.33604 0.32312 0.55509 0.0
H2065 H 0.32083 0.28823 0.56535 0.0
H2066 H 0.4007 0.24837 0.46717 0.0
H2067 H 0.38907 0.21375 0.48017 0.0
H2068 H 0.41369 0.29303 0.47337 0.0
H2069 H 0.40324 0.32679 0.48734 0.0
C2070 C 0.98376 0.12356 0.79894 0.0
C2071 C 0.96353 0.11627 0.7799 0.0
C2072 C 0.01394 0.11042 0.75725 0.0
C2073 C 0.03239 0.1124 0.77828 0.0
N2074 N 0.02812 0.10569 0.82014 0.0
N2075 N 0.96333 0.09922 0.73946 0.0
C2076 C 0.01486 0.11314 0.79924 0.0
C2077 C 0.97984 0.10833 0.75856 0.0
N2078 N 0.97591 0.14502 0.81526 0.0
N2079 N 0.02844 0.11153 0.73607 0.0
H2080 H 0.93937 0.09789 0.73961 0.0
H2081 H 0.97361 0.09081 0.72422 0.0
H2082 H 0.05238 0.11236 0.73466 0.0
H2083 H 0.01663 0.11352 0.72023 0.0
H2084 H 0.99254 0.1534 0.82672 0.0
H2085 H 0.95647 0.1589 0.81422 0.0
H2086 H 0.01522 0.10487 0.83557 0.0
H2087 H 0.05042 0.09683 0.82125 0.0
C2088 C 0.1455 0.2255 0.96485 0.0
C2089 C 0.1317 0.20775 0.98339 0.0
C2090 C 0.12246 0.25875 0.0038 0.0
C2091 C 0.1314 0.27619 0.98337 0.0
N2092 N 0.16594 0.27504 0.95083 0.0
N2093 N 0.12051 0.20875 0.02458 0.0
C2094 C 0.1471 0.25908 0.96573 0.0
C2095 C 0.12417 0.22483 0.00416 0.0
N2096 N 0.15745 0.21003 0.9461 0.0
N2097 N 0.1128 0.27459 0.02311 0.0
H2098 H 0.12403 0.18488 0.02537 0.0
H2099 H 0.11697 0.21897 0.04088 0.0
H2100 H 0.11456 0.29865 0.02418 0.0
H2101 H 0.10239 0.26422 0.0376 0.0
H2102 H 0.1658 0.22097 0.9311 0.0
H2103 H 0.15905 0.18594 0.94572 0.0
H2104 H 0.18307 0.26429 0.941 0.0
H2105 H 0.16746 0.29918 0.95096 0.0
C2106 C 0.9711 0.90661 0.21641 0.0
C2107 C 0.95462 0.88675 0.23243 0.0
C2108 C 0.00696 0.86661 0.24498 0.0
C2109 C 0.02311 0.88604 0.22846 0.0
N2110 N 0.01947 0.92949 0.20234 0.0
N2111 N 0.95842 0.84974 0.26373 0.0
C2112 C 0.00466 0.90728 0.21531 0.0
C2113 C 0.97321 0.86767 0.24744 0.0
N2114 N 0.95435 0.92486 0.20157 0.0
N2115 N 0.0239 0.84592 0.25769 0.0
H2116 H 0.9345 0.84937 0.26539 0.0
H2117 H 0.9694 0.83648 0.27641 0.0
H2118 H 0.04782 0.84451 0.25637 0.0
H2119 H 0.01466 0.82919 0.2688 0.0
H2120 H 0.96353 0.93586 0.18686 0.0
H2121 H 0.93067 0.92814 0.20349 0.0
H2122 H 0.00842 0.9479 0.19417 0.0
H2123 H 0.04344 0.93134 0.20158 0.0
C2124 C 0.34752 0.74863 0.45642 0.0
C2125 C 0.36041 0.73145 0.47496 0.0
C2126 C 0.36125 0.78155 0.49735 0.0
C2127 C 0.35667 0.79931 0.47618 0.0
N2128 N 0.34732 0.79625 0.43512 0.0
N2129 N 0.38007 0.73301 0.51443 0.0
C2130 C 0.34927 0.78173 0.45599 0.0
C2131 C 0.36688 0.74824 0.49605 0.0
N2132 N 0.33181 0.73335 0.43931 0.0
N2133 N 0.36162 0.79625 0.5185 0.0
H2134 H 0.38385 0.70919 0.51424 0.0
H2135 H 0.38898 0.74428 0.52911 0.0
H2136 H 0.35682 0.8197 0.52028 0.0
H2137 H 0.36294 0.78448 0.53444 0.0
H2138 H 0.31736 0.74515 0.42788 0.0
H2139 H 0.32961 0.70926 0.43898 0.0
H2140 H 0.35949 0.78637 0.42138 0.0
H2141 H 0.34028 0.81919 0.43322 0.0
C2142 C 0.4927 0.13351 0.74622 0.0
C2143 C 0.47332 0.12256 0.72758 0.0
C2144 C 0.52317 0.10884 0.70668 0.0
C2145 C 0.54195 0.12678 0.72222 0.0
N2146 N 0.54376 0.15016 0.76057 0.0
N2147 N 0.47236 0.09726 0.69008 0.0
C2148 C 0.52635 0.13695 0.74326 0.0
C2149 C 0.48946 0.10945 0.70793 0.0
N2150 N 0.47873 0.1401 0.76706 0.0
N2151 N 0.53764 0.08866 0.69201 0.0
H2152 H 0.44838 0.09569 0.69092 0.0
H2153 H 0.48179 0.08946 0.67437 0.0
H2154 H 0.56161 0.08676 0.69143 0.0
H2155 H 0.52593 0.07189 0.68233 0.0
H2156 H 0.49001 0.14776 0.78205 0.0
H2157 H 0.45542 0.13521 0.76979 0.0
H2158 H 0.53511 0.15858 0.7763 0.0
H2159 H 0.56738 0.15391 0.75893 0.0
C2160 C 0.89626 0.26866 0.9939 0.0
C2161 C 0.88212 0.28475 0.97451 0.0
C2162 C 0.86361 0.23175 0.96112 0.0
C2163 C 0.87762 0.21539 0.9804 0.0
N2164 N 0.90451 0.22079 0.01683 0.0
N2165 N 0.84458 0.2801 0.94394 0.0
C2166 C 0.89272 0.23488 0.99739 0.0
C2167 C 0.86363 0.26565 0.95948 0.0
N2168 N 0.91426 0.28564 0.00873 0.0
N2169 N 0.85098 0.21465 0.94342 0.0
H2170 H 0.84359 0.30419 0.94254 0.0
H2171 H 0.82793 0.26853 0.93409 0.0
H2172 H 0.84872 0.19062 0.94441 0.0
H2173 H 0.84445 0.22403 0.92732 0.0
H2174 H 0.92866 0.27613 0.02139 0.0
H2175 H 0.9155 0.30972 0.00771 0.0
H2176 H 0.91395 0.23257 0.03103 0.0
H2177 H 0.90277 0.19689 0.01939 0.0
C2178 C 0.60942 0.75398 0.48633 0.0
C2179 C 0.61876 0.7684 0.46477 0.0
C2180 C 0.64377 0.71801 0.45455 0.0
C2181 C 0.62643 0.70214 0.472 0.0
N2182 N 0.6099 0.70835 0.51203 0.0
N2183 N 0.65804 0.76723 0.43548 0.0
C2184 C 0.61537 0.72134 0.49057 0.0
C2185 C 0.64002 0.75122 0.45089 0.0
N2186 N 0.59372 0.77115 0.50239 0.0
N2187 N 0.6665 0.70171 0.44378 0.0
H2188 H 0.65563 0.79103 0.43289 0.0
H2189 H 0.67685 0.75787 0.42685 0.0
H2190 H 0.6709 0.67875 0.44838 0.0
H2191 H 0.68378 0.7116 0.43371 0.0
H2192 H 0.58234 0.76178 0.51686 0.0
H2193 H 0.59168 0.79506 0.50074 0.0
H2194 H 0.60395 0.72104 0.52686 0.0
H2195 H 0.61392 0.68501 0.51539 0.0
C2196 C 0.88795 0.73768 0.99849 0.0
C2197 C 0.87881 0.7175 0.01726 0.0
C2198 C 0.85939 0.76538 0.03781 0.0
C2199 C 0.87326 0.78584 0.02098 0.0
N2200 N 0.90258 0.78985 0.98534 0.0
N2201 N 0.85429 0.71358 0.05493 0.0
C2202 C 0.88765 0.77139 0.00117 0.0
C2203 C 0.86382 0.73198 0.03678 0.0
N2204 N 0.89639 0.72459 0.97772 0.0
N2205 N 0.84146 0.77815 0.05494 0.0
H2206 H 0.85455 0.68944 0.05399 0.0
H2207 H 0.84721 0.72199 0.07114 0.0
H2208 H 0.83757 0.80194 0.05591 0.0
H2209 H 0.82818 0.76533 0.0667 0.0
H2210 H 0.90115 0.7373 0.96259 0.0
H2211 H 0.89527 0.70069 0.97512 0.0
H2212 H 0.91677 0.78133 0.97211 0.0
H2213 H 0.90212 0.81397 0.98641 0.0
C2214 C 0.63091 0.24923 0.54086 0.0
C2215 C 0.61672 0.26565 0.52172 0.0
C2216 C 0.60188 0.21199 0.50644 0.0
C2217 C 0.61323 0.19608 0.52707 0.0
N2218 N 0.65104 0.20075 0.55733 0.0
N2219 N 0.59647 0.26004 0.48305 0.0
C2220 C 0.63126 0.21522 0.54238 0.0
C2221 C 0.60462 0.24599 0.50355 0.0
N2222 N 0.64442 0.26648 0.558 0.0
N2223 N 0.58805 0.1945 0.48947 0.0
H2224 H 0.60066 0.28359 0.48026 0.0
H2225 H 0.58817 0.24865 0.46828 0.0
H2226 H 0.58589 0.17054 0.49073 0.0
H2227 H 0.57774 0.20334 0.47446 0.0
H2228 H 0.65212 0.25739 0.57387 0.0
H2229 H 0.64729 0.29031 0.55606 0.0
H2230 H 0.66783 0.21242 0.56698 0.0
H2231 H 0.6525 0.17666 0.55834 0.0
C2232 C 0.97496 0.3688 0.79511 0.0
C2233 C 0.96043 0.36228 0.77328 0.0
C2234 C 0.01501 0.35667 0.75724 0.0
C2235 C 0.02923 0.35952 0.78012 0.0
N2236 N 0.01745 0.36039 0.82154 0.0
N2237 N 0.96839 0.34599 0.73363 0.0
C2238 C 0.00759 0.36349 0.79906 0.0
C2239 C 0.98111 0.35544 0.75429 0.0
N2240 N 0.95686 0.3796 0.81288 0.0
N2241 N 0.03378 0.35404 0.73815 0.0
H2242 H 0.94455 0.34566 0.73111 0.0
H2243 H 0.98111 0.33701 0.71974 0.0
H2244 H 0.05769 0.35294 0.73957 0.0
H2245 H 0.02579 0.35488 0.72094 0.0
H2246 H 0.96502 0.3845 0.8295 0.0
H2247 H 0.93389 0.38586 0.81042 0.0
H2248 H 0.00235 0.35474 0.83512 0.0
H2249 H 0.04045 0.36061 0.82642 0.0
C2250 C 0.48621 0.63934 0.25998 0.0
C2251 C 0.46704 0.63112 0.27958 0.0
C2252 C 0.51688 0.61985 0.30141 0.0
C2253 C 0.53622 0.63116 0.28269 0.0
N2254 N 0.53655 0.65529 0.24449 0.0
N2255 N 0.46583 0.60616 0.31708 0.0
C2256 C 0.51998 0.6414 0.26198 0.0
C2257 C 0.48314 0.61969 0.2998 0.0
N2258 N 0.47225 0.64413 0.23886 0.0
N2259 N 0.53089 0.60927 0.32129 0.0
H2260 H 0.44184 0.60482 0.31635 0.0
H2261 H 0.47497 0.59326 0.33076 0.0
H2262 H 0.55424 0.60378 0.32202 0.0
H2263 H 0.51966 0.60651 0.33725 0.0
H2264 H 0.48421 0.64701 0.22316 0.0
H2265 H 0.44847 0.64192 0.23672 0.0
H2266 H 0.52652 0.66729 0.23062 0.0
H2267 H 0.56047 0.65703 0.24472 0.0
C2268 C 0.47149 0.40226 0.73585 0.0
C2269 C 0.45496 0.375 0.72704 0.0
C2270 C 0.50408 0.35651 0.71634 0.0
C2271 C 0.52362 0.37515 0.72985 0.0
N2272 N 0.52135 0.42328 0.75164 0.0
N2273 N 0.47396 0.33099 0.74501 0.0
C2274 C 0.50605 0.40085 0.73966 0.0
C2275 C 0.47492 0.35005 0.72612 0.0
N2276 N 0.45536 0.42854 0.74003 0.0
N2277 N 0.50724 0.35855 0.69266 0.0
H2278 H 0.45434 0.32931 0.75564 0.0
H2279 H 0.4937 0.31925 0.75046 0.0
H2280 H 0.48898 0.35342 0.68151 0.0
H2281 H 0.52698 0.36799 0.68483 0.0
H2282 H 0.46583 0.44928 0.74497 0.0
H2283 H 0.43154 0.42925 0.73747 0.0
H2284 H 0.51016 0.44143 0.76007 0.0
H2285 H 0.54524 0.42234 0.75372 0.0
C2286 C 0.97848 0.63602 0.2439 0.0
C2287 C 0.95986 0.62547 0.22473 0.0
C2288 C 0.00957 0.61249 0.20417 0.0
C2289 C 0.0277 0.62931 0.22069 0.0
N2290 N 0.02979 0.64652 0.26067 0.0
N2291 N 0.95923 0.59799 0.18825 0.0
C2292 C 0.01215 0.63796 0.24194 0.0
C2293 C 0.9761 0.61188 0.20548 0.0
N2294 N 0.96376 0.64362 0.26421 0.0
N2295 N 0.02476 0.59451 0.18836 0.0
H2296 H 0.93553 0.59426 0.18998 0.0
H2297 H 0.96835 0.59108 0.17219 0.0
H2298 H 0.04878 0.59295 0.18834 0.0
H2299 H 0.01392 0.57872 0.17728 0.0
H2300 H 0.97417 0.65414 0.27857 0.0
H2301 H 0.94056 0.63806 0.26676 0.0
H2302 H 0.02119 0.65276 0.27701 0.0
H2303 H 0.05382 0.64619 0.26 0.0
loop_
_geom_bond_atom_site_label_1
_geom_bond_atom_site_label_2
_geom_bond_distance
_geom_bond_site_symmetry_2
_ccdc_geom_bond_type
Mn0 O5 2.095 . S
Mn0 O15 2.174 . S
Mn0 O16 2.297 . S
Mn0 O24 2.385 1_554 S
Mn0 O25 2.209 . S
Mn0 O26 2.094 . S
Mn1 O6 2.121 . S
Mn1 N8 2.257 . S
Mn1 N17 2.282 . S
Mn1 O25 2.215 . S
Mn1 O27 2.117 . S
C2 O24 1.234 1_554 S
C2 O25 1.283 . S
C3 O15 1.289 . S
C3 O16 1.236 . S
C4 O26 1.240 . S
C4 O27 1.264 . S
O5 Mn0 2.095 . S
O5 C14 1.250 . S
O6 Mn1 2.121 . S
O6 C14 1.258 . S
C7 N8 1.326 . S
C7 C11 1.460 . S
C7 H13 0.929 . S
N8 Mn1 2.257 . S
N8 C7 1.326 . S
N8 C12 1.362 . S
C9 C10 1.258 . S
C9 C12 1.431 1_655 S
C9 C29 1.449 . S
C10 C9 1.258 . S
C10 C11 1.477 1_655 S
C10 H30 0.931 . S
C11 C7 1.460 . S
C11 C10 1.477 1_455 S
C11 H31 0.930 . S
C12 N8 1.362 . S
C12 C9 1.431 1_455 S
C12 C22 1.476 . S
H13 C7 0.929 . S
C14 O5 1.250 . S
C14 O6 1.258 . S
O15 Mn0 2.174 . S
O15 C3 1.289 . S
O16 Mn0 2.297 . S
O16 C3 1.236 . S
N17 Mn1 2.282 . S
N17 C18 1.328 . S
N17 C22 1.318 . S
C18 N17 1.328 . S
C18 C19 1.457 . S
C18 H23 0.929 . S
C19 C18 1.457 . S
C19 C20 1.291 1_455 S
C19 H32 0.931 1_554 S
C20 C19 1.291 1_655 S
C20 C21 1.373 . S
C20 H33 0.929 . S
C21 C20 1.373 . S
C21 C22 1.396 1_655 S
C21 C28 1.403 . S
C22 C12 1.476 . S
C22 N17 1.318 . S
C22 C21 1.396 1_455 S
H23 C18 0.929 . S
O24 Mn0 2.385 1_556 S
O24 C2 1.234 1_556 S
O25 Mn0 2.209 . S
O25 Mn1 2.215 . S
O25 C2 1.283 . S
O26 Mn0 2.094 . S
O26 C4 1.240 . S
O27 Mn1 2.117 . S
O27 C4 1.264 . S
C28 C21 1.403 . S
C28 C29 1.399 . S
C28 H34 0.929 . S
C29 C9 1.449 . S
C29 C28 1.399 . S
C29 H35 0.930 . S
H30 C10 0.931 . S
H31 C11 0.930 . S
H32 C19 0.931 1_556 S
H33 C20 0.929 . S
H34 C28 0.929 . S
H35 C29 0.930 . S
Mn36 O41 2.095 . S
Mn36 O51 2.162 . S
Mn36 O52 2.297 . S
Mn36 O60 2.385 . S
Mn36 O61 2.209 . S
Mn36 O62 2.094 . S
Mn37 O42 2.121 . S
Mn37 N44 2.257 . S
Mn37 N53 2.282 . S
Mn37 O61 2.215 . S
Mn37 O63 2.117 . S
C38 O60 1.234 . S
C38 O61 1.283 . S
C39 O51 1.281 . S
C39 O52 1.236 . S
C40 O62 1.240 . S
C40 O63 1.264 . S
O41 Mn36 2.095 . S
O41 C50 1.250 . S
O42 Mn37 2.121 . S
O42 C50 1.258 . S
C43 N44 1.326 . S
C43 C47 1.460 . S
C43 H49 0.929 . S
N44 Mn37 2.257 . S
N44 C43 1.326 . S
N44 C48 1.362 . S
C45 C46 1.258 . S
C45 C48 1.431 . S
C45 C65 1.449 . S
C46 C45 1.258 . S
C46 C47 1.477 . S
C46 H66 0.931 . S
C47 C43 1.460 . S
C47 C46 1.477 . S
C47 H67 0.930 . S
C48 N44 1.362 . S
C48 C45 1.431 . S
C48 C58 1.476 . S
H49 C43 0.929 . S
C50 O41 1.250 . S
C50 O42 1.258 . S
O51 Mn36 2.162 . S
O51 C39 1.281 . S
O52 Mn36 2.297 . S
O52 C39 1.236 . S
N53 Mn37 2.282 . S
N53 C54 1.328 . S
N53 C58 1.318 . S
C54 N53 1.328 . S
C54 C55 1.457 . S
C54 H59 0.929 . S
C55 C54 1.457 . S
C55 C56 1.291 . S
C55 H68 0.931 . S
C56 C55 1.291 . S
C56 C57 1.373 . S
C56 H69 0.929 . S
C57 C56 1.373 . S
C57 C58 1.396 . S
C57 C64 1.403 . S
C58 C48 1.476 . S
C58 N53 1.318 . S
C58 C57 1.396 . S
H59 C54 0.929 . S
O60 Mn36 2.385 . S
O60 C38 1.234 . S
O61 Mn36 2.209 . S
O61 Mn37 2.215 . S
O61 C38 1.283 . S
O62 Mn36 2.094 . S
O62 C40 1.240 . S
O63 Mn37 2.117 . S
O63 C40 1.264 . S
C64 C57 1.403 . S
C64 C65 1.399 . S
C64 H70 0.929 . S
C65 C45 1.449 . S
C65 C64 1.399 . S
C65 H71 0.930 . S
H66 C46 0.931 . S
H67 C47 0.930 . S
H68 C55 0.931 . S
H69 C56 0.929 . S
H70 C64 0.929 . S
H71 C65 0.930 . S
Mn72 O77 2.095 . S
Mn72 O87 2.162 . S
Mn72 O88 2.297 . S
Mn72 O96 2.385 . S
Mn72 O97 2.209 . S
Mn72 O98 2.094 . S
Mn73 O78 2.121 . S
Mn73 N80 2.257 . S
Mn73 N89 2.282 . S
Mn73 O97 2.215 . S
Mn73 O99 2.117 . S
C74 O96 1.234 . S
C74 O97 1.283 . S
C75 O87 1.281 . S
C75 O88 1.236 . S
C76 O98 1.240 . S
C76 O99 1.264 . S
O77 Mn72 2.095 . S
O77 C86 1.250 . S
O78 Mn73 2.121 . S
O78 C86 1.258 . S
C79 N80 1.326 . S
C79 C83 1.460 . S
C79 H85 0.929 . S
N80 Mn73 2.257 . S
N80 C79 1.326 . S
N80 C84 1.362 . S
C81 C82 1.258 . S
C81 C84 1.431 . S
C81 C101 1.449 . S
C82 C81 1.258 . S
C82 C83 1.477 . S
C82 H102 0.931 . S
C83 C79 1.460 . S
C83 C82 1.477 . S
C83 H103 0.930 . S
C84 N80 1.362 . S
C84 C81 1.431 . S
C84 C94 1.476 . S
H85 C79 0.929 . S
C86 O77 1.250 . S
C86 O78 1.258 . S
O87 Mn72 2.162 . S
O87 C75 1.281 . S
O88 Mn72 2.297 . S
O88 C75 1.236 . S
N89 Mn73 2.282 . S
N89 C90 1.328 . S
N89 C94 1.318 . S
C90 N89 1.328 . S
C90 C91 1.457 . S
C90 H95 0.929 . S
C91 C90 1.457 . S
C91 C92 1.291 . S
C91 H104 0.931 . S
C92 C91 1.291 . S
C92 C93 1.373 . S
C92 H105 0.929 . S
C93 C92 1.373 . S
C93 C94 1.396 . S
C93 C100 1.403 . S
C94 C84 1.476 . S
C94 N89 1.318 . S
C94 C93 1.396 . S
H95 C90 0.929 . S
O96 Mn72 2.385 . S
O96 C74 1.234 . S
O97 Mn72 2.209 . S
O97 Mn73 2.215 . S
O97 C74 1.283 . S
O98 Mn72 2.094 . S
O98 C76 1.240 . S
O99 Mn73 2.117 . S
O99 C76 1.264 . S
C100 C93 1.403 . S
C100 C101 1.399 . S
C100 H106 0.929 . S
C101 C81 1.449 . S
C101 C100 1.399 . S
C101 H107 0.930 . S
H102 C82 0.931 . S
H103 C83 0.930 . S
H104 C91 0.931 . S
H105 C92 0.929 . S
H106 C100 0.929 . S
H107 C101 0.930 . S
Mn108 O113 2.095 . S
Mn108 O123 2.162 . S
Mn108 O124 2.297 . S
Mn108 O132 2.385 . S
Mn108 O133 2.209 . S
Mn108 O134 2.094 . S
Mn109 O114 2.121 . S
Mn109 N116 2.257 . S
Mn109 N125 2.282 . S
Mn109 O133 2.215 . S
Mn109 O135 2.117 . S
C110 O132 1.234 . S
C110 O133 1.283 . S
C111 O123 1.281 . S
C111 O124 1.236 . S
C112 O134 1.240 . S
C112 O135 1.264 . S
O113 Mn108 2.095 . S
O113 C122 1.250 . S
O114 Mn109 2.121 . S
O114 C122 1.258 . S
C115 N116 1.326 . S
C115 C119 1.460 . S
C115 H121 0.929 . S
N116 Mn109 2.257 . S
N116 C115 1.326 . S
N116 C120 1.362 . S
C117 C118 1.258 . S
C117 C120 1.431 . S
C117 C137 1.449 . S
C118 C117 1.258 . S
C118 C119 1.477 . S
C118 H138 0.931 . S
C119 C115 1.460 . S
C119 C118 1.477 . S
C119 H139 0.930 . S
C120 N116 1.362 . S
C120 C117 1.431 . S
C120 C130 1.476 . S
H121 C115 0.929 . S
C122 O113 1.250 . S
C122 O114 1.258 . S
O123 Mn108 2.162 . S
O123 C111 1.281 . S
O124 Mn108 2.297 . S
O124 C111 1.236 . S
N125 Mn109 2.282 . S
N125 C126 1.328 . S
N125 C130 1.318 . S
C126 N125 1.328 . S
C126 C127 1.457 . S
C126 H131 0.929 . S
C127 C126 1.457 . S
C127 C128 1.291 . S
C127 H140 0.931 . S
C128 C127 1.291 . S
C128 C129 1.373 . S
C128 H141 0.929 . S
C129 C128 1.373 . S
C129 C130 1.396 . S
C129 C136 1.403 . S
C130 C120 1.476 . S
C130 N125 1.318 . S
C130 C129 1.396 . S
H131 C126 0.929 . S
O132 Mn108 2.385 . S
O132 C110 1.234 . S
O133 Mn108 2.209 . S
O133 Mn109 2.215 . S
O133 C110 1.283 . S
O134 Mn108 2.094 . S
O134 C112 1.240 . S
O135 Mn109 2.117 . S
O135 C112 1.264 . S
C136 C129 1.403 . S
C136 C137 1.399 . S
C136 H142 0.929 . S
C137 C117 1.449 . S
C137 C136 1.399 . S
C137 H143 0.930 . S
H138 C118 0.931 . S
H139 C119 0.930 . S
H140 C127 0.931 . S
H141 C128 0.929 . S
H142 C136 0.929 . S
H143 C137 0.930 . S
Mn144 O149 2.095 . S
Mn144 O159 2.174 . S
Mn144 O160 2.297 . S
Mn144 O168 2.385 1_556 S
Mn144 O169 2.209 . S
Mn144 O170 2.094 . S
Mn145 O150 2.121 . S
Mn145 N152 2.257 . S
Mn145 N161 2.282 . S
Mn145 O169 2.215 . S
Mn145 O171 2.117 . S
C146 O168 1.234 1_556 S
C146 O169 1.283 . S
C147 O159 1.289 . S
C147 O160 1.236 . S
C148 O170 1.240 . S
C148 O171 1.264 . S
O149 Mn144 2.095 . S
O149 C158 1.250 . S
O150 Mn145 2.121 . S
O150 C158 1.258 . S
C151 N152 1.326 . S
C151 C155 1.460 . S
C151 H157 0.929 . S
N152 Mn145 2.257 . S
N152 C151 1.326 . S
N152 C156 1.362 . S
C153 C154 1.258 . S
C153 C156 1.431 1_655 S
C153 C173 1.449 . S
C154 C153 1.258 . S
C154 C155 1.477 1_655 S
C154 H174 0.931 . S
C155 C151 1.460 . S
C155 C154 1.477 1_455 S
C155 H175 0.930 . S
C156 N152 1.362 . S
C156 C153 1.431 1_455 S
C156 C166 1.476 . S
H157 C151 0.929 . S
C158 O149 1.250 . S
C158 O150 1.258 . S
O159 Mn144 2.174 . S
O159 C147 1.289 . S
O160 Mn144 2.297 . S
O160 C147 1.236 . S
N161 Mn145 2.282 . S
N161 C162 1.328 . S
N161 C166 1.318 . S
C162 N161 1.328 . S
C162 C163 1.457 . S
C162 H167 0.929 . S
C163 C162 1.457 . S
C163 C164 1.291 1_455 S
C163 H176 0.931 1_556 S
C164 C163 1.291 1_655 S
C164 C165 1.373 . S
C164 H177 0.929 . S
C165 C164 1.373 . S
C165 C166 1.396 1_655 S
C165 C172 1.403 . S
C166 C156 1.476 . S
C166 N161 1.318 . S
C166 C165 1.396 1_455 S
H167 C162 0.929 . S
O168 Mn144 2.385 1_554 S
O168 C146 1.234 1_554 S
O169 Mn144 2.209 . S
O169 Mn145 2.215 . S
O169 C146 1.283 . S
O170 Mn144 2.094 . S
O170 C148 1.240 . S
O171 Mn145 2.117 . S
O171 C148 1.264 . S
C172 C165 1.403 . S
C172 C173 1.399 . S
C172 H178 0.929 . S
C173 C153 1.449 . S
C173 C172 1.399 . S
C173 H179 0.930 . S
H174 C154 0.931 . S
H175 C155 0.930 . S
H176 C163 0.931 1_554 S
H177 C164 0.929 . S
H178 C172 0.929 . S
H179 C173 0.930 . S
Mn180 O185 2.095 . S
Mn180 O195 2.162 . S
Mn180 O196 2.297 . S
Mn180 O204 2.385 . S
Mn180 O205 2.209 . S
Mn180 O206 2.094 . S
Mn181 O186 2.121 . S
Mn181 N188 2.257 . S
Mn181 N197 2.282 . S
Mn181 O205 2.215 . S
Mn181 O207 2.117 . S
C182 O204 1.234 . S
C182 O205 1.283 . S
C183 O195 1.281 . S
C183 O196 1.236 . S
C184 O206 1.240 . S
C184 O207 1.264 . S
O185 Mn180 2.095 . S
O185 C194 1.250 . S
O186 Mn181 2.121 . S
O186 C194 1.258 . S
C187 N188 1.326 . S
C187 C191 1.460 . S
C187 H193 0.929 . S
N188 Mn181 2.257 . S
N188 C187 1.326 . S
N188 C192 1.362 . S
C189 C190 1.258 . S
C189 C192 1.431 . S
C189 C209 1.449 . S
C190 C189 1.258 . S
C190 C191 1.477 . S
C190 H210 0.931 . S
C191 C187 1.460 . S
C191 C190 1.477 . S
C191 H211 0.930 . S
C192 N188 1.362 . S
C192 C189 1.431 . S
C192 C202 1.476 . S
H193 C187 0.929 . S
C194 O185 1.250 . S
C194 O186 1.258 . S
O195 Mn180 2.162 . S
O195 C183 1.281 . S
O196 Mn180 2.297 . S
O196 C183 1.236 . S
N197 Mn181 2.282 . S
N197 C198 1.328 . S
N197 C202 1.318 . S
C198 N197 1.328 . S
C198 C199 1.457 . S
C198 H203 0.929 . S
C199 C198 1.457 . S
C199 C200 1.291 . S
C199 H212 0.931 . S
C200 C199 1.291 . S
C200 C201 1.373 . S
C200 H213 0.929 . S
C201 C200 1.373 . S
C201 C202 1.396 . S
C201 C208 1.403 . S
C202 C192 1.476 . S
C202 N197 1.318 . S
C202 C201 1.396 . S
H203 C198 0.929 . S
O204 Mn180 2.385 . S
O204 C182 1.234 . S
O205 Mn180 2.209 . S
O205 Mn181 2.215 . S
O205 C182 1.283 . S
O206 Mn180 2.094 . S
O206 C184 1.240 . S
O207 Mn181 2.117 . S
O207 C184 1.264 . S
C208 C201 1.403 . S
C208 C209 1.399 . S
C208 H214 0.929 . S
C209 C189 1.449 . S
C209 C208 1.399 . S
C209 H215 0.930 . S
H210 C190 0.931 . S
H211 C191 0.930 . S
H212 C199 0.931 . S
H213 C200 0.929 . S
H214 C208 0.929 . S
H215 C209 0.930 . S
Mn216 O221 2.095 . S
Mn216 O231 2.162 . S
Mn216 O232 2.297 . S
Mn216 O240 2.385 . S
Mn216 O241 2.209 . S
Mn216 O242 2.094 . S
Mn217 O222 2.121 . S
Mn217 N224 2.257 . S
Mn217 N233 2.282 . S
Mn217 O241 2.215 . S
Mn217 O243 2.117 . S
C218 O240 1.234 . S
C218 O241 1.283 . S
C219 O231 1.281 . S
C219 O232 1.236 . S
C220 O242 1.240 . S
C220 O243 1.264 . S
O221 Mn216 2.095 . S
O221 C230 1.250 . S
O222 Mn217 2.121 . S
O222 C230 1.258 . S
C223 N224 1.326 . S
C223 C227 1.460 . S
C223 H229 0.929 . S
N224 Mn217 2.257 . S
N224 C223 1.326 . S
N224 C228 1.362 . S
C225 C226 1.258 . S
C225 C228 1.431 . S
C225 C245 1.449 . S
C226 C225 1.258 . S
C226 C227 1.477 . S
C226 H246 0.931 . S
C227 C223 1.460 . S
C227 C226 1.477 . S
C227 H247 0.930 . S
C228 N224 1.362 . S
C228 C225 1.431 . S
C228 C238 1.476 . S
H229 C223 0.929 . S
C230 O221 1.250 . S
C230 O222 1.258 . S
O231 Mn216 2.162 . S
O231 C219 1.281 . S
O232 Mn216 2.297 . S
O232 C219 1.236 . S
N233 Mn217 2.282 . S
N233 C234 1.328 . S
N233 C238 1.318 . S
C234 N233 1.328 . S
C234 C235 1.457 . S
C234 H239 0.929 . S
C235 C234 1.457 . S
C235 C236 1.291 . S
C235 H248 0.931 . S
C236 C235 1.291 . S
C236 C237 1.373 . S
C236 H249 0.929 . S
C237 C236 1.373 . S
C237 C238 1.396 . S
C237 C244 1.403 . S
C238 C228 1.476 . S
C238 N233 1.318 . S
C238 C237 1.396 . S
H239 C234 0.929 . S
O240 Mn216 2.385 . S
O240 C218 1.234 . S
O241 Mn216 2.209 . S
O241 Mn217 2.215 . S
O241 C218 1.283 . S
O242 Mn216 2.094 . S
O242 C220 1.240 . S
O243 Mn217 2.117 . S
O243 C220 1.264 . S
C244 C237 1.403 . S
C244 C245 1.399 . S
C244 H250 0.929 . S
C245 C225 1.449 . S
C245 C244 1.399 . S
C245 H251 0.930 . S
H246 C226 0.931 . S
H247 C227 0.930 . S
H248 C235 0.931 . S
H249 C236 0.929 . S
H250 C244 0.929 . S
H251 C245 0.930 . S
Mn252 O257 2.095 . S
Mn252 O267 2.162 . S
Mn252 O268 2.297 . S
Mn252 O276 2.385 . S
Mn252 O277 2.209 . S
Mn252 O278 2.094 . S
Mn253 O258 2.121 . S
Mn253 N260 2.257 . S
Mn253 N269 2.282 . S
Mn253 O277 2.215 . S
Mn253 O279 2.117 . S
C254 O276 1.234 . S
C254 O277 1.283 . S
C255 O267 1.281 . S
C255 O268 1.236 . S
C256 O278 1.240 . S
C256 O279 1.264 . S
O257 Mn252 2.095 . S
O257 C266 1.250 . S
O258 Mn253 2.121 . S
O258 C266 1.258 . S
C259 N260 1.326 . S
C259 C263 1.460 . S
C259 H265 0.929 . S
N260 Mn253 2.257 . S
N260 C259 1.326 . S
N260 C264 1.362 . S
C261 C262 1.258 . S
C261 C264 1.431 . S
C261 C281 1.449 . S
C262 C261 1.258 . S
C262 C263 1.477 . S
C262 H282 0.931 . S
C263 C259 1.460 . S
C263 C262 1.477 . S
C263 H283 0.930 . S
C264 N260 1.362 . S
C264 C261 1.431 . S
C264 C274 1.476 . S
H265 C259 0.929 . S
C266 O257 1.250 . S
C266 O258 1.258 . S
O267 Mn252 2.162 . S
O267 C255 1.281 . S
O268 Mn252 2.297 . S
O268 C255 1.236 . S
N269 Mn253 2.282 . S
N269 C270 1.328 . S
N269 C274 1.318 . S
C270 N269 1.328 . S
C270 C271 1.457 . S
C270 H275 0.929 . S
C271 C270 1.457 . S
C271 C272 1.291 . S
C271 H284 0.931 . S
C272 C271 1.291 . S
C272 C273 1.373 . S
C272 H285 0.929 . S
C273 C272 1.373 . S
C273 C274 1.396 . S
C273 C280 1.403 . S
C274 C264 1.476 . S
C274 N269 1.318 . S
C274 C273 1.396 . S
H275 C270 0.929 . S
O276 Mn252 2.385 . S
O276 C254 1.234 . S
O277 Mn252 2.209 . S
O277 Mn253 2.215 . S
O277 C254 1.283 . S
O278 Mn252 2.094 . S
O278 C256 1.240 . S
O279 Mn253 2.117 . S
O279 C256 1.264 . S
C280 C273 1.403 . S
C280 C281 1.399 . S
C280 H286 0.929 . S
C281 C261 1.449 . S
C281 C280 1.399 . S
C281 H287 0.930 . S
H282 C262 0.931 . S
H283 C263 0.930 . S
H284 C271 0.931 . S
H285 C272 0.929 . S
H286 C280 0.929 . S
H287 C281 0.930 . S
Mn288 O293 2.095 . S
Mn288 O303 2.174 . S
Mn288 O304 2.297 . S
Mn288 O312 2.385 1_556 S
Mn288 O313 2.209 . S
Mn288 O314 2.094 . S
Mn289 O294 2.121 . S
Mn289 N296 2.257 . S
Mn289 N305 2.282 . S
Mn289 O313 2.215 . S
Mn289 O315 2.117 . S
C290 O312 1.234 1_556 S
C290 O313 1.283 . S
C291 O303 1.289 . S
C291 O304 1.236 . S
C292 O314 1.240 . S
C292 O315 1.264 . S
O293 Mn288 2.095 . S
O293 C302 1.250 . S
O294 Mn289 2.121 . S
O294 C302 1.258 . S
C295 N296 1.326 . S
C295 C299 1.460 . S
C295 H301 0.929 . S
N296 Mn289 2.257 . S
N296 C295 1.326 . S
N296 C300 1.362 . S
C297 C298 1.258 . S
C297 C300 1.431 1_455 S
C297 C317 1.449 . S
C298 C297 1.258 . S
C298 C299 1.477 1_455 S
C298 H318 0.931 . S
C299 C295 1.460 . S
C299 C298 1.477 1_655 S
C299 H319 0.930 . S
C300 N296 1.362 . S
C300 C297 1.431 1_655 S
C300 C310 1.476 . S
H301 C295 0.929 . S
C302 O293 1.250 . S
C302 O294 1.258 . S
O303 Mn288 2.174 . S
O303 C291 1.289 . S
O304 Mn288 2.297 . S
O304 C291 1.236 . S
N305 Mn289 2.282 . S
N305 C306 1.328 . S
N305 C310 1.318 . S
C306 N305 1.328 . S
C306 C307 1.457 . S
C306 H311 0.929 . S
C307 C306 1.457 . S
C307 C308 1.291 1_655 S
C307 H320 0.931 1_556 S
C308 C307 1.291 1_455 S
C308 C309 1.373 . S
C308 H321 0.929 . S
C309 C308 1.373 . S
C309 C310 1.396 1_455 S
C309 C316 1.403 . S
C310 C300 1.476 . S
C310 N305 1.318 . S
C310 C309 1.396 1_655 S
H311 C306 0.929 . S
O312 Mn288 2.385 1_554 S
O312 C290 1.234 1_554 S
O313 Mn288 2.209 . S
O313 Mn289 2.215 . S
O313 C290 1.283 . S
O314 Mn288 2.094 . S
O314 C292 1.240 . S
O315 Mn289 2.117 . S
O315 C292 1.264 . S
C316 C309 1.403 . S
C316 C317 1.399 . S
C316 H322 0.929 . S
C317 C297 1.449 . S
C317 C316 1.399 . S
C317 H323 0.930 . S
H318 C298 0.931 . S
H319 C299 0.930 . S
H320 C307 0.931 1_554 S
H321 C308 0.929 . S
H322 C316 0.929 . S
H323 C317 0.930 . S
Mn324 O329 2.095 . S
Mn324 O339 2.162 . S
Mn324 O340 2.297 . S
Mn324 O348 2.385 . S
Mn324 O349 2.209 . S
Mn324 O350 2.094 . S
Mn325 O330 2.121 . S
Mn325 N332 2.257 . S
Mn325 N341 2.282 . S
Mn325 O349 2.215 . S
Mn325 O351 2.117 . S
C326 O348 1.234 . S
C326 O349 1.283 . S
C327 O339 1.281 . S
C327 O340 1.236 . S
C328 O350 1.240 . S
C328 O351 1.264 . S
O329 Mn324 2.095 . S
O329 C338 1.250 . S
O330 Mn325 2.121 . S
O330 C338 1.258 . S
C331 N332 1.326 . S
C331 C335 1.460 . S
C331 H337 0.929 . S
N332 Mn325 2.257 . S
N332 C331 1.326 . S
N332 C336 1.362 . S
C333 C334 1.258 . S
C333 C336 1.431 . S
C333 C353 1.449 . S
C334 C333 1.258 . S
C334 C335 1.477 . S
C334 H354 0.931 . S
C335 C331 1.460 . S
C335 C334 1.477 . S
C335 H355 0.930 . S
C336 N332 1.362 . S
C336 C333 1.431 . S
C336 C346 1.476 . S
H337 C331 0.929 . S
C338 O329 1.250 . S
C338 O330 1.258 . S
O339 Mn324 2.162 . S
O339 C327 1.281 . S
O340 Mn324 2.297 . S
O340 C327 1.236 . S
N341 Mn325 2.282 . S
N341 C342 1.328 . S
N341 C346 1.318 . S
C342 N341 1.328 . S
C342 C343 1.457 . S
C342 H347 0.929 . S
C343 C342 1.457 . S
C343 C344 1.291 . S
C343 H356 0.931 . S
C344 C343 1.291 . S
C344 C345 1.373 . S
C344 H357 0.929 . S
C345 C344 1.373 . S
C345 C346 1.396 . S
C345 C352 1.403 . S
C346 C336 1.476 . S
C346 N341 1.318 . S
C346 C345 1.396 . S
H347 C342 0.929 . S
O348 Mn324 2.385 . S
O348 C326 1.234 . S
O349 Mn324 2.209 . S
O349 Mn325 2.215 . S
O349 C326 1.283 . S
O350 Mn324 2.094 . S
O350 C328 1.240 . S
O351 Mn325 2.117 . S
O351 C328 1.264 . S
C352 C345 1.403 . S
C352 C353 1.399 . S
C352 H358 0.929 . S
C353 C333 1.449 . S
C353 C352 1.399 . S
C353 H359 0.930 . S
H354 C334 0.931 . S
H355 C335 0.930 . S
H356 C343 0.931 . S
H357 C344 0.929 . S
H358 C352 0.929 . S
H359 C353 0.930 . S
Mn360 O365 2.095 . S
Mn360 O375 2.162 . S
Mn360 O376 2.297 . S
Mn360 O384 2.385 . S
Mn360 O385 2.209 . S
Mn360 O386 2.094 . S
Mn361 O366 2.121 . S
Mn361 N368 2.257 . S
Mn361 N377 2.282 . S
Mn361 O385 2.215 . S
Mn361 O387 2.117 . S
C362 O384 1.234 . S
C362 O385 1.283 . S
C363 O375 1.281 . S
C363 O376 1.236 . S
C364 O386 1.240 . S
C364 O387 1.264 . S
O365 Mn360 2.095 . S
O365 C374 1.250 . S
O366 Mn361 2.121 . S
O366 C374 1.258 . S
C367 N368 1.326 . S
C367 C371 1.460 . S
C367 H373 0.929 . S
N368 Mn361 2.257 . S
N368 C367 1.326 . S
N368 C372 1.362 . S
C369 C370 1.258 . S
C369 C372 1.431 . S
C369 C389 1.449 . S
C370 C369 1.258 . S
C370 C371 1.477 . S
C370 H390 0.931 . S
C371 C367 1.460 . S
C371 C370 1.477 . S
C371 H391 0.930 . S
C372 N368 1.362 . S
C372 C369 1.431 . S
C372 C382 1.476 . S
H373 C367 0.929 . S
C374 O365 1.250 . S
C374 O366 1.258 . S
O375 Mn360 2.162 . S
O375 C363 1.281 . S
O376 Mn360 2.297 . S
O376 C363 1.236 . S
N377 Mn361 2.282 . S
N377 C378 1.328 . S
N377 C382 1.318 . S
C378 N377 1.328 . S
C378 C379 1.457 . S
C378 H383 0.929 . S
C379 C378 1.457 . S
C379 C380 1.291 . S
C379 H392 0.931 . S
C380 C379 1.291 . S
C380 C381 1.373 . S
C380 H393 0.929 . S
C381 C380 1.373 . S
C381 C382 1.396 . S
C381 C388 1.403 . S
C382 C372 1.476 . S
C382 N377 1.318 . S
C382 C381 1.396 . S
H383 C378 0.929 . S
O384 Mn360 2.385 . S
O384 C362 1.234 . S
O385 Mn360 2.209 . S
O385 Mn361 2.215 . S
O385 C362 1.283 . S
O386 Mn360 2.094 . S
O386 C364 1.240 . S
O387 Mn361 2.117 . S
O387 C364 1.264 . S
C388 C381 1.403 . S
C388 C389 1.399 . S
C388 H394 0.929 . S
C389 C369 1.449 . S
C389 C388 1.399 . S
C389 H395 0.930 . S
H390 C370 0.931 . S
H391 C371 0.930 . S
H392 C379 0.931 . S
H393 C380 0.929 . S
H394 C388 0.929 . S
H395 C389 0.930 . S
Mn396 O401 2.095 . S
Mn396 O411 2.162 . S
Mn396 O412 2.297 . S
Mn396 O420 2.385 . S
Mn396 O421 2.209 . S
Mn396 O422 2.094 . S
Mn397 O402 2.121 . S
Mn397 N404 2.257 . S
Mn397 N413 2.282 . S
Mn397 O421 2.215 . S
Mn397 O423 2.117 . S
C398 O420 1.234 . S
C398 O421 1.283 . S
C399 O411 1.281 . S
C399 O412 1.236 . S
C400 O422 1.240 . S
C400 O423 1.264 . S
O401 Mn396 2.095 . S
O401 C410 1.250 . S
O402 Mn397 2.121 . S
O402 C410 1.258 . S
C403 N404 1.326 . S
C403 C407 1.460 . S
C403 H409 0.929 . S
N404 Mn397 2.257 . S
N404 C403 1.326 . S
N404 C408 1.362 . S
C405 C406 1.258 . S
C405 C408 1.431 . S
C405 C425 1.449 . S
C406 C405 1.258 . S
C406 C407 1.477 . S
C406 H426 0.931 . S
C407 C403 1.460 . S
C407 C406 1.477 . S
C407 H427 0.930 . S
C408 N404 1.362 . S
C408 C405 1.431 . S
C408 C418 1.476 . S
H409 C403 0.929 . S
C410 O401 1.250 . S
C410 O402 1.258 . S
O411 Mn396 2.162 . S
O411 C399 1.281 . S
O412 Mn396 2.297 . S
O412 C399 1.236 . S
N413 Mn397 2.282 . S
N413 C414 1.328 . S
N413 C418 1.318 . S
C414 N413 1.328 . S
C414 C415 1.457 . S
C414 H419 0.929 . S
C415 C414 1.457 . S
C415 C416 1.291 . S
C415 H428 0.931 . S
C416 C415 1.291 . S
C416 C417 1.373 . S
C416 H429 0.929 . S
C417 C416 1.373 . S
C417 C418 1.396 . S
C417 C424 1.403 . S
C418 C408 1.476 . S
C418 N413 1.318 . S
C418 C417 1.396 . S
H419 C414 0.929 . S
O420 Mn396 2.385 . S
O420 C398 1.234 . S
O421 Mn396 2.209 . S
O421 Mn397 2.215 . S
O421 C398 1.283 . S
O422 Mn396 2.094 . S
O422 C400 1.240 . S
O423 Mn397 2.117 . S
O423 C400 1.264 . S
C424 C417 1.403 . S
C424 C425 1.399 . S
C424 H430 0.929 . S
C425 C405 1.449 . S
C425 C424 1.399 . S
C425 H431 0.930 . S
H426 C406 0.931 . S
H427 C407 0.930 . S
H428 C415 0.931 . S
H429 C416 0.929 . S
H430 C424 0.929 . S
H431 C425 0.930 . S
Mn432 O437 2.095 . S
Mn432 O447 2.174 . S
Mn432 O448 2.297 . S
Mn432 O456 2.385 1_554 S
Mn432 O457 2.209 . S
Mn432 O458 2.094 . S
Mn433 O438 2.121 . S
Mn433 N440 2.257 . S
Mn433 N449 2.282 . S
Mn433 O457 2.215 . S
Mn433 O459 2.117 . S
C434 O456 1.234 1_554 S
C434 O457 1.283 . S
C435 O447 1.289 . S
C435 O448 1.236 . S
C436 O458 1.240 . S
C436 O459 1.264 . S
O437 Mn432 2.095 . S
O437 C446 1.250 . S
O438 Mn433 2.121 . S
O438 C446 1.258 . S
C439 N440 1.326 . S
C439 C443 1.460 . S
C439 H445 0.929 . S
N440 Mn433 2.257 . S
N440 C439 1.326 . S
N440 C444 1.362 . S
C441 C442 1.258 . S
C441 C444 1.431 1_455 S
C441 C461 1.449 . S
C442 C441 1.258 . S
C442 C443 1.477 1_455 S
C442 H462 0.931 . S
C443 C439 1.460 . S
C443 C442 1.477 1_655 S
C443 H463 0.930 . S
C444 N440 1.362 . S
C444 C441 1.431 1_655 S
C444 C454 1.476 . S
H445 C439 0.929 . S
C446 O437 1.250 . S
C446 O438 1.258 . S
O447 Mn432 2.174 . S
O447 C435 1.289 . S
O448 Mn432 2.297 . S
O448 C435 1.236 . S
N449 Mn433 2.282 . S
N449 C450 1.328 . S
N449 C454 1.318 . S
C450 N449 1.328 . S
C450 C451 1.457 . S
C450 H455 0.929 . S
C451 C450 1.457 . S
C451 C452 1.291 1_655 S
C451 H464 0.931 1_554 S
C452 C451 1.291 1_455 S
C452 C453 1.373 . S
C452 H465 0.929 . S
C453 C452 1.373 . S
C453 C454 1.396 1_455 S
C453 C460 1.403 . S
C454 C444 1.476 . S
C454 N449 1.318 . S
C454 C453 1.396 1_655 S
H455 C450 0.929 . S
O456 Mn432 2.385 1_556 S
O456 C434 1.234 1_556 S
O457 Mn432 2.209 . S
O457 Mn433 2.215 . S
O457 C434 1.283 . S
O458 Mn432 2.094 . S
O458 C436 1.240 . S
O459 Mn433 2.117 . S
O459 C436 1.264 . S
C460 C453 1.403 . S
C460 C461 1.399 . S
C460 H466 0.929 . S
C461 C441 1.449 . S
C461 C460 1.399 . S
C461 H467 0.930 . S
H462 C442 0.931 . S
H463 C443 0.930 . S
H464 C451 0.931 1_556 S
H465 C452 0.929 . S
H466 C460 0.929 . S
H467 C461 0.930 . S
Mn468 O473 2.095 . S
Mn468 O483 2.162 . S
Mn468 O484 2.297 . S
Mn468 O492 2.385 . S
Mn468 O493 2.209 . S
Mn468 O494 2.094 . S
Mn469 O474 2.121 . S
Mn469 N476 2.257 . S
Mn469 N485 2.282 . S
Mn469 O493 2.215 . S
Mn469 O495 2.117 . S
C470 O492 1.234 . S
C470 O493 1.283 . S
C471 O483 1.281 . S
C471 O484 1.236 . S
C472 O494 1.240 . S
C472 O495 1.264 . S
O473 Mn468 2.095 . S
O473 C482 1.250 . S
O474 Mn469 2.121 . S
O474 C482 1.258 . S
C475 N476 1.326 . S
C475 C479 1.460 . S
C475 H481 0.929 . S
N476 Mn469 2.257 . S
N476 C475 1.326 . S
N476 C480 1.362 . S
C477 C478 1.258 . S
C477 C480 1.431 . S
C477 C497 1.449 . S
C478 C477 1.258 . S
C478 C479 1.477 . S
C478 H498 0.931 . S
C479 C475 1.460 . S
C479 C478 1.477 . S
C479 H499 0.930 . S
C480 N476 1.362 . S
C480 C477 1.431 . S
C480 C490 1.476 . S
H481 C475 0.929 . S
C482 O473 1.250 . S
C482 O474 1.258 . S
O483 Mn468 2.162 . S
O483 C471 1.281 . S
O484 Mn468 2.297 . S
O484 C471 1.236 . S
N485 Mn469 2.282 . S
N485 C486 1.328 . S
N485 C490 1.318 . S
C486 N485 1.328 . S
C486 C487 1.457 . S
C486 H491 0.929 . S
C487 C486 1.457 . S
C487 C488 1.291 . S
C487 H500 0.931 . S
C488 C487 1.291 . S
C488 C489 1.373 . S
C488 H501 0.929 . S
C489 C488 1.373 . S
C489 C490 1.396 . S
C489 C496 1.403 . S
C490 C480 1.476 . S
C490 N485 1.318 . S
C490 C489 1.396 . S
H491 C486 0.929 . S
O492 Mn468 2.385 . S
O492 C470 1.234 . S
O493 Mn468 2.209 . S
O493 Mn469 2.215 . S
O493 C470 1.283 . S
O494 Mn468 2.094 . S
O494 C472 1.240 . S
O495 Mn469 2.117 . S
O495 C472 1.264 . S
C496 C489 1.403 . S
C496 C497 1.399 . S
C496 H502 0.929 . S
C497 C477 1.449 . S
C497 C496 1.399 . S
C497 H503 0.930 . S
H498 C478 0.931 . S
H499 C479 0.930 . S
H500 C487 0.931 . S
H501 C488 0.929 . S
H502 C496 0.929 . S
H503 C497 0.930 . S
Mn504 O509 2.095 . S
Mn504 O519 2.162 . S
Mn504 O520 2.297 . S
Mn504 O528 2.385 . S
Mn504 O529 2.209 . S
Mn504 O530 2.094 . S
Mn505 O510 2.121 . S
Mn505 N512 2.257 . S
Mn505 N521 2.282 . S
Mn505 O529 2.215 . S
Mn505 O531 2.117 . S
C506 O528 1.234 . S
C506 O529 1.283 . S
C507 O519 1.281 . S
C507 O520 1.236 . S
C508 O530 1.240 . S
C508 O531 1.264 . S
O509 Mn504 2.095 . S
O509 C518 1.250 . S
O510 Mn505 2.121 . S
O510 C518 1.258 . S
C511 N512 1.326 . S
C511 C515 1.460 . S
C511 H517 0.929 . S
N512 Mn505 2.257 . S
N512 C511 1.326 . S
N512 C516 1.362 . S
C513 C514 1.258 . S
C513 C516 1.431 . S
C513 C533 1.449 . S
C514 C513 1.258 . S
C514 C515 1.477 . S
C514 H534 0.931 . S
C515 C511 1.460 . S
C515 C514 1.477 . S
C515 H535 0.930 . S
C516 N512 1.362 . S
C516 C513 1.431 . S
C516 C526 1.476 . S
H517 C511 0.929 . S
C518 O509 1.250 . S
C518 O510 1.258 . S
O519 Mn504 2.162 . S
O519 C507 1.281 . S
O520 Mn504 2.297 . S
O520 C507 1.236 . S
N521 Mn505 2.282 . S
N521 C522 1.328 . S
N521 C526 1.318 . S
C522 N521 1.328 . S
C522 C523 1.457 . S
C522 H527 0.929 . S
C523 C522 1.457 . S
C523 C524 1.291 . S
C523 H536 0.931 . S
C524 C523 1.291 . S
C524 C525 1.373 . S
C524 H537 0.929 . S
C525 C524 1.373 . S
C525 C526 1.396 . S
C525 C532 1.403 . S
C526 C516 1.476 . S
C526 N521 1.318 . S
C526 C525 1.396 . S
H527 C522 0.929 . S
O528 Mn504 2.385 . S
O528 C506 1.234 . S
O529 Mn504 2.209 . S
O529 Mn505 2.215 . S
O529 C506 1.283 . S
O530 Mn504 2.094 . S
O530 C508 1.240 . S
O531 Mn505 2.117 . S
O531 C508 1.264 . S
C532 C525 1.403 . S
C532 C533 1.399 . S
C532 H538 0.929 . S
C533 C513 1.449 . S
C533 C532 1.399 . S
C533 H539 0.930 . S
H534 C514 0.931 . S
H535 C515 0.930 . S
H536 C523 0.931 . S
H537 C524 0.929 . S
H538 C532 0.929 . S
H539 C533 0.930 . S
Mn540 O545 2.095 . S
Mn540 O555 2.162 . S
Mn540 O556 2.297 . S
Mn540 O564 2.385 . S
Mn540 O565 2.209 . S
Mn540 O566 2.094 . S
Mn541 O546 2.121 . S
Mn541 N548 2.257 . S
Mn541 N557 2.282 . S
Mn541 O565 2.215 . S
Mn541 O567 2.117 . S
C542 O564 1.234 . S
C542 O565 1.283 . S
C543 O555 1.281 . S
C543 O556 1.236 . S
C544 O566 1.240 . S
C544 O567 1.264 . S
O545 Mn540 2.095 . S
O545 C554 1.250 . S
O546 Mn541 2.121 . S
O546 C554 1.258 . S
C547 N548 1.326 . S
C547 C551 1.460 . S
C547 H553 0.929 . S
N548 Mn541 2.257 . S
N548 C547 1.326 . S
N548 C552 1.362 . S
C549 C550 1.258 . S
C549 C552 1.431 . S
C549 C569 1.449 . S
C550 C549 1.258 . S
C550 C551 1.477 . S
C550 H570 0.931 . S
C551 C547 1.460 . S
C551 C550 1.477 . S
C551 H571 0.930 . S
C552 N548 1.362 . S
C552 C549 1.431 . S
C552 C562 1.476 . S
H553 C547 0.929 . S
C554 O545 1.250 . S
C554 O546 1.258 . S
O555 Mn540 2.162 . S
O555 C543 1.281 . S
O556 Mn540 2.297 . S
O556 C543 1.236 . S
N557 Mn541 2.282 . S
N557 C558 1.328 . S
N557 C562 1.318 . S
C558 N557 1.328 . S
C558 C559 1.457 . S
C558 H563 0.929 . S
C559 C558 1.457 . S
C559 C560 1.291 . S
C559 H572 0.931 . S
C560 C559 1.291 . S
C560 C561 1.373 . S
C560 H573 0.929 . S
C561 C560 1.373 . S
C561 C562 1.396 . S
C561 C568 1.403 . S
C562 C552 1.476 . S
C562 N557 1.318 . S
C562 C561 1.396 . S
H563 C558 0.929 . S
O564 Mn540 2.385 . S
O564 C542 1.234 . S
O565 Mn540 2.209 . S
O565 Mn541 2.215 . S
O565 C542 1.283 . S
O566 Mn540 2.094 . S
O566 C544 1.240 . S
O567 Mn541 2.117 . S
O567 C544 1.264 . S
C568 C561 1.403 . S
C568 C569 1.399 . S
C568 H574 0.929 . S
C569 C549 1.449 . S
C569 C568 1.399 . S
C569 H575 0.930 . S
H570 C550 0.931 . S
H571 C551 0.930 . S
H572 C559 0.931 . S
H573 C560 0.929 . S
H574 C568 0.929 . S
H575 C569 0.930 . S
Mn576 O581 2.095 . S
Mn576 O591 2.162 . S
Mn576 O592 2.297 . S
Mn576 O600 2.385 . S
Mn576 O601 2.209 . S
Mn576 O602 2.094 . S
Mn577 O582 2.121 . S
Mn577 N584 2.257 . S
Mn577 N593 2.282 . S
Mn577 O601 2.215 . S
Mn577 O603 2.117 . S
C578 O600 1.234 . S
C578 O601 1.283 . S
C579 O591 1.281 . S
C579 O592 1.236 . S
C580 O602 1.240 . S
C580 O603 1.264 . S
O581 Mn576 2.095 . S
O581 C590 1.250 . S
O582 Mn577 2.121 . S
O582 C590 1.258 . S
C583 N584 1.326 . S
C583 C587 1.460 . S
C583 H589 0.929 . S
N584 Mn577 2.257 . S
N584 C583 1.326 . S
N584 C588 1.362 . S
C585 C586 1.258 . S
C585 C588 1.431 . S
C585 C605 1.449 . S
C586 C585 1.258 . S
C586 C587 1.477 . S
C586 H606 0.931 . S
C587 C583 1.460 . S
C587 C586 1.477 . S
C587 H607 0.930 . S
C588 N584 1.362 . S
C588 C585 1.431 . S
C588 C598 1.476 . S
H589 C583 0.929 . S
C590 O581 1.250 . S
C590 O582 1.258 . S
O591 Mn576 2.162 . S
O591 C579 1.281 . S
O592 Mn576 2.297 . S
O592 C579 1.236 . S
N593 Mn577 2.282 . S
N593 C594 1.328 . S
N593 C598 1.318 . S
C594 N593 1.328 . S
C594 C595 1.457 . S
C594 H599 0.929 . S
C595 C594 1.457 . S
C595 C596 1.291 . S
C595 H608 0.931 . S
C596 C595 1.291 . S
C596 C597 1.373 . S
C596 H609 0.929 . S
C597 C596 1.373 . S
C597 C598 1.396 . S
C597 C604 1.403 . S
C598 C588 1.476 . S
C598 N593 1.318 . S
C598 C597 1.396 . S
H599 C594 0.929 . S
O600 Mn576 2.385 . S
O600 C578 1.234 . S
O601 Mn576 2.209 . S
O601 Mn577 2.215 . S
O601 C578 1.283 . S
O602 Mn576 2.094 . S
O602 C580 1.240 . S
O603 Mn577 2.117 . S
O603 C580 1.264 . S
C604 C597 1.403 . S
C604 C605 1.399 . S
C604 H610 0.929 . S
C605 C585 1.449 . S
C605 C604 1.399 . S
C605 H611 0.930 . S
H606 C586 0.931 . S
H607 C587 0.930 . S
H608 C595 0.931 . S
H609 C596 0.929 . S
H610 C604 0.929 . S
H611 C605 0.930 . S
Mn612 O617 2.095 . S
Mn612 O627 2.162 . S
Mn612 O628 2.297 . S
Mn612 O636 2.385 . S
Mn612 O637 2.209 . S
Mn612 O638 2.094 . S
Mn613 O618 2.121 . S
Mn613 N620 2.257 . S
Mn613 N629 2.282 . S
Mn613 O637 2.215 . S
Mn613 O639 2.117 . S
C614 O636 1.234 . S
C614 O637 1.283 . S
C615 O627 1.281 . S
C615 O628 1.236 . S
C616 O638 1.240 . S
C616 O639 1.264 . S
O617 Mn612 2.095 . S
O617 C626 1.250 . S
O618 Mn613 2.121 . S
O618 C626 1.258 . S
C619 N620 1.326 . S
C619 C623 1.460 . S
C619 H625 0.929 . S
N620 Mn613 2.257 . S
N620 C619 1.326 . S
N620 C624 1.362 . S
C621 C622 1.258 . S
C621 C624 1.431 . S
C621 C641 1.449 . S
C622 C621 1.258 . S
C622 C623 1.477 . S
C622 H642 0.931 . S
C623 C619 1.460 . S
C623 C622 1.477 . S
C623 H643 0.930 . S
C624 N620 1.362 . S
C624 C621 1.431 . S
C624 C634 1.476 . S
H625 C619 0.929 . S
C626 O617 1.250 . S
C626 O618 1.258 . S
O627 Mn612 2.162 . S
O627 C615 1.281 . S
O628 Mn612 2.297 . S
O628 C615 1.236 . S
N629 Mn613 2.282 . S
N629 C630 1.328 . S
N629 C634 1.318 . S
C630 N629 1.328 . S
C630 C631 1.457 . S
C630 H635 0.929 . S
C631 C630 1.457 . S
C631 C632 1.291 . S
C631 H644 0.931 . S
C632 C631 1.291 . S
C632 C633 1.373 . S
C632 H645 0.929 . S
C633 C632 1.373 . S
C633 C634 1.396 . S
C633 C640 1.403 . S
C634 C624 1.476 . S
C634 N629 1.318 . S
C634 C633 1.396 . S
H635 C630 0.929 . S
O636 Mn612 2.385 . S
O636 C614 1.234 . S
O637 Mn612 2.209 . S
O637 Mn613 2.215 . S
O637 C614 1.283 . S
O638 Mn612 2.094 . S
O638 C616 1.240 . S
O639 Mn613 2.117 . S
O639 C616 1.264 . S
C640 C633 1.403 . S
C640 C641 1.399 . S
C640 H646 0.929 . S
C641 C621 1.449 . S
C641 C640 1.399 . S
C641 H647 0.930 . S
H642 C622 0.931 . S
H643 C623 0.930 . S
H644 C631 0.931 . S
H645 C632 0.929 . S
H646 C640 0.929 . S
H647 C641 0.930 . S
Mn648 O653 2.095 . S
Mn648 O663 2.174 . S
Mn648 O664 2.297 . S
Mn648 O672 2.385 1_554 S
Mn648 O673 2.209 . S
Mn648 O674 2.094 . S
Mn649 O654 2.121 . S
Mn649 N656 2.257 . S
Mn649 N665 2.282 . S
Mn649 O673 2.215 . S
Mn649 O675 2.117 . S
C650 O672 1.234 1_554 S
C650 O673 1.283 . S
C651 O663 1.289 . S
C651 O664 1.236 . S
C652 O674 1.240 . S
C652 O675 1.264 . S
O653 Mn648 2.095 . S
O653 C662 1.250 . S
O654 Mn649 2.121 . S
O654 C662 1.258 . S
C655 N656 1.326 . S
C655 C659 1.460 . S
C655 H661 0.929 . S
N656 Mn649 2.257 . S
N656 C655 1.326 . S
N656 C660 1.362 . S
C657 C658 1.258 . S
C657 C660 1.431 1_455 S
C657 C677 1.449 . S
C658 C657 1.258 . S
C658 C659 1.477 1_455 S
C658 H678 0.931 . S
C659 C655 1.460 . S
C659 C658 1.477 1_655 S
C659 H679 0.930 . S
C660 N656 1.362 . S
C660 C657 1.431 1_655 S
C660 C670 1.476 . S
H661 C655 0.929 . S
C662 O653 1.250 . S
C662 O654 1.258 . S
O663 Mn648 2.174 . S
O663 C651 1.289 . S
O664 Mn648 2.297 . S
O664 C651 1.236 . S
N665 Mn649 2.282 . S
N665 C666 1.328 . S
N665 C670 1.318 . S
C666 N665 1.328 . S
C666 C667 1.457 . S
C666 H671 0.929 . S
C667 C666 1.457 . S
C667 C668 1.291 1_655 S
C667 H680 0.931 1_554 S
C668 C667 1.291 1_455 S
C668 C669 1.373 . S
C668 H681 0.929 . S
C669 C668 1.373 . S
C669 C670 1.396 1_455 S
C669 C676 1.403 . S
C670 C660 1.476 . S
C670 N665 1.318 . S
C670 C669 1.396 1_655 S
H671 C666 0.929 . S
O672 Mn648 2.385 1_556 S
O672 C650 1.234 1_556 S
O673 Mn648 2.209 . S
O673 Mn649 2.215 . S
O673 C650 1.283 . S
O674 Mn648 2.094 . S
O674 C652 1.240 . S
O675 Mn649 2.117 . S
O675 C652 1.264 . S
C676 C669 1.403 . S
C676 C677 1.399 . S
C676 H682 0.929 . S
C677 C657 1.449 . S
C677 C676 1.399 . S
C677 H683 0.930 . S
H678 C658 0.931 . S
H679 C659 0.930 . S
H680 C667 0.931 1_556 S
H681 C668 0.929 . S
H682 C676 0.929 . S
H683 C677 0.930 . S
Mn684 O689 2.095 . S
Mn684 O699 2.162 . S
Mn684 O700 2.297 . S
Mn684 O708 2.385 . S
Mn684 O709 2.209 . S
Mn684 O710 2.094 . S
Mn685 O690 2.121 . S
Mn685 N692 2.257 . S
Mn685 N701 2.282 . S
Mn685 O709 2.215 . S
Mn685 O711 2.117 . S
C686 O708 1.234 . S
C686 O709 1.283 . S
C687 O699 1.281 . S
C687 O700 1.236 . S
C688 O710 1.240 . S
C688 O711 1.264 . S
O689 Mn684 2.095 . S
O689 C698 1.250 . S
O690 Mn685 2.121 . S
O690 C698 1.258 . S
C691 N692 1.326 . S
C691 C695 1.460 . S
C691 H697 0.929 . S
N692 Mn685 2.257 . S
N692 C691 1.326 . S
N692 C696 1.362 . S
C693 C694 1.258 . S
C693 C696 1.431 . S
C693 C713 1.449 . S
C694 C693 1.258 . S
C694 C695 1.477 . S
C694 H714 0.931 . S
C695 C691 1.460 . S
C695 C694 1.477 . S
C695 H715 0.930 . S
C696 N692 1.362 . S
C696 C693 1.431 . S
C696 C706 1.476 . S
H697 C691 0.929 . S
C698 O689 1.250 . S
C698 O690 1.258 . S
O699 Mn684 2.162 . S
O699 C687 1.281 . S
O700 Mn684 2.297 . S
O700 C687 1.236 . S
N701 Mn685 2.282 . S
N701 C702 1.328 . S
N701 C706 1.318 . S
C702 N701 1.328 . S
C702 C703 1.457 . S
C702 H707 0.929 . S
C703 C702 1.457 . S
C703 C704 1.291 . S
C703 H716 0.931 . S
C704 C703 1.291 . S
C704 C705 1.373 . S
C704 H717 0.929 . S
C705 C704 1.373 . S
C705 C706 1.396 . S
C705 C712 1.403 . S
C706 C696 1.476 . S
C706 N701 1.318 . S
C706 C705 1.396 . S
H707 C702 0.929 . S
O708 Mn684 2.385 . S
O708 C686 1.234 . S
O709 Mn684 2.209 . S
O709 Mn685 2.215 . S
O709 C686 1.283 . S
O710 Mn684 2.094 . S
O710 C688 1.240 . S
O711 Mn685 2.117 . S
O711 C688 1.264 . S
C712 C705 1.403 . S
C712 C713 1.399 . S
C712 H718 0.929 . S
C713 C693 1.449 . S
C713 C712 1.399 . S
C713 H719 0.930 . S
H714 C694 0.931 . S
H715 C695 0.930 . S
H716 C703 0.931 . S
H717 C704 0.929 . S
H718 C712 0.929 . S
H719 C713 0.930 . S
Mn720 O725 2.095 . S
Mn720 O735 2.162 . S
Mn720 O736 2.297 . S
Mn720 O744 2.385 . S
Mn720 O745 2.209 . S
Mn720 O746 2.094 . S
Mn721 O726 2.121 . S
Mn721 N728 2.257 . S
Mn721 N737 2.282 . S
Mn721 O745 2.215 . S
Mn721 O747 2.117 . S
C722 O744 1.234 . S
C722 O745 1.283 . S
C723 O735 1.281 . S
C723 O736 1.236 . S
C724 O746 1.240 . S
C724 O747 1.264 . S
O725 Mn720 2.095 . S
O725 C734 1.250 . S
O726 Mn721 2.121 . S
O726 C734 1.258 . S
C727 N728 1.326 . S
C727 C731 1.460 . S
C727 H733 0.929 . S
N728 Mn721 2.257 . S
N728 C727 1.326 . S
N728 C732 1.362 . S
C729 C730 1.258 . S
C729 C732 1.431 . S
C729 C749 1.449 . S
C730 C729 1.258 . S
C730 C731 1.477 . S
C730 H750 0.931 . S
C731 C727 1.460 . S
C731 C730 1.477 . S
C731 H751 0.930 . S
C732 N728 1.362 . S
C732 C729 1.431 . S
C732 C742 1.476 . S
H733 C727 0.929 . S
C734 O725 1.250 . S
C734 O726 1.258 . S
O735 Mn720 2.162 . S
O735 C723 1.281 . S
O736 Mn720 2.297 . S
O736 C723 1.236 . S
N737 Mn721 2.282 . S
N737 C738 1.328 . S
N737 C742 1.318 . S
C738 N737 1.328 . S
C738 C739 1.457 . S
C738 H743 0.929 . S
C739 C738 1.457 . S
C739 C740 1.291 . S
C739 H752 0.931 . S
C740 C739 1.291 . S
C740 C741 1.373 . S
C740 H753 0.929 . S
C741 C740 1.373 . S
C741 C742 1.396 . S
C741 C748 1.403 . S
C742 C732 1.476 . S
C742 N737 1.318 . S
C742 C741 1.396 . S
H743 C738 0.929 . S
O744 Mn720 2.385 . S
O744 C722 1.234 . S
O745 Mn720 2.209 . S
O745 Mn721 2.215 . S
O745 C722 1.283 . S
O746 Mn720 2.094 . S
O746 C724 1.240 . S
O747 Mn721 2.117 . S
O747 C724 1.264 . S
C748 C741 1.403 . S
C748 C749 1.399 . S
C748 H754 0.929 . S
C749 C729 1.449 . S
C749 C748 1.399 . S
C749 H755 0.930 . S
H750 C730 0.931 . S
H751 C731 0.930 . S
H752 C739 0.931 . S
H753 C740 0.929 . S
H754 C748 0.929 . S
H755 C749 0.930 . S
Mn756 O761 2.095 . S
Mn756 O771 2.162 . S
Mn756 O772 2.297 . S
Mn756 O780 2.385 . S
Mn756 O781 2.209 . S
Mn756 O782 2.094 . S
Mn757 O762 2.121 . S
Mn757 N764 2.257 . S
Mn757 N773 2.282 . S
Mn757 O781 2.215 . S
Mn757 O783 2.117 . S
C758 O780 1.234 . S
C758 O781 1.283 . S
C759 O771 1.281 . S
C759 O772 1.236 . S
C760 O782 1.240 . S
C760 O783 1.264 . S
O761 Mn756 2.095 . S
O761 C770 1.250 . S
O762 Mn757 2.121 . S
O762 C770 1.258 . S
C763 N764 1.326 . S
C763 C767 1.460 . S
C763 H769 0.929 . S
N764 Mn757 2.257 . S
N764 C763 1.326 . S
N764 C768 1.362 . S
C765 C766 1.258 . S
C765 C768 1.431 . S
C765 C785 1.449 . S
C766 C765 1.258 . S
C766 C767 1.477 . S
C766 H786 0.931 . S
C767 C763 1.460 . S
C767 C766 1.477 . S
C767 H787 0.930 . S
C768 N764 1.362 . S
C768 C765 1.431 . S
C768 C778 1.476 . S
H769 C763 0.929 . S
C770 O761 1.250 . S
C770 O762 1.258 . S
O771 Mn756 2.162 . S
O771 C759 1.281 . S
O772 Mn756 2.297 . S
O772 C759 1.236 . S
N773 Mn757 2.282 . S
N773 C774 1.328 . S
N773 C778 1.318 . S
C774 N773 1.328 . S
C774 C775 1.457 . S
C774 H779 0.929 . S
C775 C774 1.457 . S
C775 C776 1.291 . S
C775 H788 0.931 . S
C776 C775 1.291 . S
C776 C777 1.373 . S
C776 H789 0.929 . S
C777 C776 1.373 . S
C777 C778 1.396 . S
C777 C784 1.403 . S
C778 C768 1.476 . S
C778 N773 1.318 . S
C778 C777 1.396 . S
H779 C774 0.929 . S
O780 Mn756 2.385 . S
O780 C758 1.234 . S
O781 Mn756 2.209 . S
O781 Mn757 2.215 . S
O781 C758 1.283 . S
O782 Mn756 2.094 . S
O782 C760 1.240 . S
O783 Mn757 2.117 . S
O783 C760 1.264 . S
C784 C777 1.403 . S
C784 C785 1.399 . S
C784 H790 0.929 . S
C785 C765 1.449 . S
C785 C784 1.399 . S
C785 H791 0.930 . S
H786 C766 0.931 . S
H787 C767 0.930 . S
H788 C775 0.931 . S
H789 C776 0.929 . S
H790 C784 0.929 . S
H791 C785 0.930 . S
Mn792 O797 2.095 . S
Mn792 O807 2.174 . S
Mn792 O808 2.297 . S
Mn792 O816 2.385 1_556 S
Mn792 O817 2.209 . S
Mn792 O818 2.094 . S
Mn793 O798 2.121 . S
Mn793 N800 2.257 . S
Mn793 N809 2.282 . S
Mn793 O817 2.215 . S
Mn793 O819 2.117 . S
C794 O816 1.234 1_556 S
C794 O817 1.283 . S
C795 O807 1.289 . S
C795 O808 1.236 . S
C796 O818 1.240 . S
C796 O819 1.264 . S
O797 Mn792 2.095 . S
O797 C806 1.250 . S
O798 Mn793 2.121 . S
O798 C806 1.258 . S
C799 N800 1.326 . S
C799 C803 1.460 . S
C799 H805 0.929 . S
N800 Mn793 2.257 . S
N800 C799 1.326 . S
N800 C804 1.362 . S
C801 C802 1.258 . S
C801 C804 1.431 1_455 S
C801 C821 1.449 . S
C802 C801 1.258 . S
C802 C803 1.477 1_455 S
C802 H822 0.931 . S
C803 C799 1.460 . S
C803 C802 1.477 1_655 S
C803 H823 0.930 . S
C804 N800 1.362 . S
C804 C801 1.431 1_655 S
C804 C814 1.476 . S
H805 C799 0.929 . S
C806 O797 1.250 . S
C806 O798 1.258 . S
O807 Mn792 2.174 . S
O807 C795 1.289 . S
O808 Mn792 2.297 . S
O808 C795 1.236 . S
N809 Mn793 2.282 . S
N809 C810 1.328 . S
N809 C814 1.318 . S
C810 N809 1.328 . S
C810 C811 1.457 . S
C810 H815 0.929 . S
C811 C810 1.457 . S
C811 C812 1.291 1_655 S
C811 H824 0.931 1_556 S
C812 C811 1.291 1_455 S
C812 C813 1.373 . S
C812 H825 0.929 . S
C813 C812 1.373 . S
C813 C814 1.396 1_455 S
C813 C820 1.403 . S
C814 C804 1.476 . S
C814 N809 1.318 . S
C814 C813 1.396 1_655 S
H815 C810 0.929 . S
O816 Mn792 2.385 1_554 S
O816 C794 1.234 1_554 S
O817 Mn792 2.209 . S
O817 Mn793 2.215 . S
O817 C794 1.283 . S
O818 Mn792 2.094 . S
O818 C796 1.240 . S
O819 Mn793 2.117 . S
O819 C796 1.264 . S
C820 C813 1.403 . S
C820 C821 1.399 . S
C820 H826 0.929 . S
C821 C801 1.449 . S
C821 C820 1.399 . S
C821 H827 0.930 . S
H822 C802 0.931 . S
H823 C803 0.930 . S
H824 C811 0.931 1_554 S
H825 C812 0.929 . S
H826 C820 0.929 . S
H827 C821 0.930 . S
Mn828 O833 2.095 . S
Mn828 O843 2.162 . S
Mn828 O844 2.297 . S
Mn828 O852 2.385 . S
Mn828 O853 2.209 . S
Mn828 O854 2.094 . S
Mn829 O834 2.121 . S
Mn829 N836 2.257 . S
Mn829 N845 2.282 . S
Mn829 O853 2.215 . S
Mn829 O855 2.117 . S
C830 O852 1.234 . S
C830 O853 1.283 . S
C831 O843 1.281 . S
C831 O844 1.236 . S
C832 O854 1.240 . S
C832 O855 1.264 . S
O833 Mn828 2.095 . S
O833 C842 1.250 . S
O834 Mn829 2.121 . S
O834 C842 1.258 . S
C835 N836 1.326 . S
C835 C839 1.460 . S
C835 H841 0.929 . S
N836 Mn829 2.257 . S
N836 C835 1.326 . S
N836 C840 1.362 . S
C837 C838 1.258 . S
C837 C840 1.431 . S
C837 C857 1.449 . S
C838 C837 1.258 . S
C838 C839 1.477 . S
C838 H858 0.931 . S
C839 C835 1.460 . S
C839 C838 1.477 . S
C839 H859 0.930 . S
C840 N836 1.362 . S
C840 C837 1.431 . S
C840 C850 1.476 . S
H841 C835 0.929 . S
C842 O833 1.250 . S
C842 O834 1.258 . S
O843 Mn828 2.162 . S
O843 C831 1.281 . S
O844 Mn828 2.297 . S
O844 C831 1.236 . S
N845 Mn829 2.282 . S
N845 C846 1.328 . S
N845 C850 1.318 . S
C846 N845 1.328 . S
C846 C847 1.457 . S
C846 H851 0.929 . S
C847 C846 1.457 . S
C847 C848 1.291 . S
C847 H860 0.931 . S
C848 C847 1.291 . S
C848 C849 1.373 . S
C848 H861 0.929 . S
C849 C848 1.373 . S
C849 C850 1.396 . S
C849 C856 1.403 . S
C850 C840 1.476 . S
C850 N845 1.318 . S
C850 C849 1.396 . S
H851 C846 0.929 . S
O852 Mn828 2.385 . S
O852 C830 1.234 . S
O853 Mn828 2.209 . S
O853 Mn829 2.215 . S
O853 C830 1.283 . S
O854 Mn828 2.094 . S
O854 C832 1.240 . S
O855 Mn829 2.117 . S
O855 C832 1.264 . S
C856 C849 1.403 . S
C856 C857 1.399 . S
C856 H862 0.929 . S
C857 C837 1.449 . S
C857 C856 1.399 . S
C857 H863 0.930 . S
H858 C838 0.931 . S
H859 C839 0.930 . S
H860 C847 0.931 . S
H861 C848 0.929 . S
H862 C856 0.929 . S
H863 C857 0.930 . S
Mn864 O869 2.095 . S
Mn864 O879 2.162 . S
Mn864 O880 2.297 . S
Mn864 O888 2.385 . S
Mn864 O889 2.209 . S
Mn864 O890 2.094 . S
Mn865 O870 2.121 . S
Mn865 N872 2.257 . S
Mn865 N881 2.282 . S
Mn865 O889 2.215 . S
Mn865 O891 2.117 . S
C866 O888 1.234 . S
C866 O889 1.283 . S
C867 O879 1.281 . S
C867 O880 1.236 . S
C868 O890 1.240 . S
C868 O891 1.264 . S
O869 Mn864 2.095 . S
O869 C878 1.250 . S
O870 Mn865 2.121 . S
O870 C878 1.258 . S
C871 N872 1.326 . S
C871 C875 1.460 . S
C871 H877 0.929 . S
N872 Mn865 2.257 . S
N872 C871 1.326 . S
N872 C876 1.362 . S
C873 C874 1.258 . S
C873 C876 1.431 . S
C873 C893 1.449 . S
C874 C873 1.258 . S
C874 C875 1.477 . S
C874 H894 0.931 . S
C875 C871 1.460 . S
C875 C874 1.477 . S
C875 H895 0.930 . S
C876 N872 1.362 . S
C876 C873 1.431 . S
C876 C886 1.476 . S
H877 C871 0.929 . S
C878 O869 1.250 . S
C878 O870 1.258 . S
O879 Mn864 2.162 . S
O879 C867 1.281 . S
O880 Mn864 2.297 . S
O880 C867 1.236 . S
N881 Mn865 2.282 . S
N881 C882 1.328 . S
N881 C886 1.318 . S
C882 N881 1.328 . S
C882 C883 1.457 . S
C882 H887 0.929 . S
C883 C882 1.457 . S
C883 C884 1.291 . S
C883 H896 0.931 . S
C884 C883 1.291 . S
C884 C885 1.373 . S
C884 H897 0.929 . S
C885 C884 1.373 . S
C885 C886 1.396 . S
C885 C892 1.403 . S
C886 C876 1.476 . S
C886 N881 1.318 . S
C886 C885 1.396 . S
H887 C882 0.929 . S
O888 Mn864 2.385 . S
O888 C866 1.234 . S
O889 Mn864 2.209 . S
O889 Mn865 2.215 . S
O889 C866 1.283 . S
O890 Mn864 2.094 . S
O890 C868 1.240 . S
O891 Mn865 2.117 . S
O891 C868 1.264 . S
C892 C885 1.403 . S
C892 C893 1.399 . S
C892 H898 0.929 . S
C893 C873 1.449 . S
C893 C892 1.399 . S
C893 H899 0.930 . S
H894 C874 0.931 . S
H895 C875 0.930 . S
H896 C883 0.931 . S
H897 C884 0.929 . S
H898 C892 0.929 . S
H899 C893 0.930 . S
Mn900 O905 2.095 . S
Mn900 O915 2.162 . S
Mn900 O916 2.297 . S
Mn900 O924 2.385 . S
Mn900 O925 2.209 . S
Mn900 O926 2.094 . S
Mn901 O906 2.121 . S
Mn901 N908 2.257 . S
Mn901 N917 2.282 . S
Mn901 O925 2.215 . S
Mn901 O927 2.117 . S
C902 O924 1.234 . S
C902 O925 1.283 . S
C903 O915 1.281 . S
C903 O916 1.236 . S
C904 O926 1.240 . S
C904 O927 1.264 . S
O905 Mn900 2.095 . S
O905 C914 1.250 . S
O906 Mn901 2.121 . S
O906 C914 1.258 . S
C907 N908 1.326 . S
C907 C911 1.460 . S
C907 H913 0.929 . S
N908 Mn901 2.257 . S
N908 C907 1.326 . S
N908 C912 1.362 . S
C909 C910 1.258 . S
C909 C912 1.431 . S
C909 C929 1.449 . S
C910 C909 1.258 . S
C910 C911 1.477 . S
C910 H930 0.931 . S
C911 C907 1.460 . S
C911 C910 1.477 . S
C911 H931 0.930 . S
C912 N908 1.362 . S
C912 C909 1.431 . S
C912 C922 1.476 . S
H913 C907 0.929 . S
C914 O905 1.250 . S
C914 O906 1.258 . S
O915 Mn900 2.162 . S
O915 C903 1.281 . S
O916 Mn900 2.297 . S
O916 C903 1.236 . S
N917 Mn901 2.282 . S
N917 C918 1.328 . S
N917 C922 1.318 . S
C918 N917 1.328 . S
C918 C919 1.457 . S
C918 H923 0.929 . S
C919 C918 1.457 . S
C919 C920 1.291 . S
C919 H932 0.931 . S
C920 C919 1.291 . S
C920 C921 1.373 . S
C920 H933 0.929 . S
C921 C920 1.373 . S
C921 C922 1.396 . S
C921 C928 1.403 . S
C922 C912 1.476 . S
C922 N917 1.318 . S
C922 C921 1.396 . S
H923 C918 0.929 . S
O924 Mn900 2.385 . S
O924 C902 1.234 . S
O925 Mn900 2.209 . S
O925 Mn901 2.215 . S
O925 C902 1.283 . S
O926 Mn900 2.094 . S
O926 C904 1.240 . S
O927 Mn901 2.117 . S
O927 C904 1.264 . S
C928 C921 1.403 . S
C928 C929 1.399 . S
C928 H934 0.929 . S
C929 C909 1.449 . S
C929 C928 1.399 . S
C929 H935 0.930 . S
H930 C910 0.931 . S
H931 C911 0.930 . S
H932 C919 0.931 . S
H933 C920 0.929 . S
H934 C928 0.929 . S
H935 C929 0.930 . S
Mn936 O941 2.095 . S
Mn936 O951 2.174 . S
Mn936 O952 2.297 . S
Mn936 O960 2.385 1_556 S
Mn936 O961 2.209 . S
Mn936 O962 2.094 . S
Mn937 O942 2.121 . S
Mn937 N944 2.257 . S
Mn937 N953 2.282 . S
Mn937 O961 2.215 . S
Mn937 O963 2.117 . S
C938 O960 1.234 1_556 S
C938 O961 1.283 . S
C939 O951 1.289 . S
C939 O952 1.236 . S
C940 O962 1.240 . S
C940 O963 1.264 . S
O941 Mn936 2.095 . S
O941 C950 1.250 . S
O942 Mn937 2.121 . S
O942 C950 1.258 . S
C943 N944 1.326 . S
C943 C947 1.460 . S
C943 H949 0.929 . S
N944 Mn937 2.257 . S
N944 C943 1.326 . S
N944 C948 1.362 . S
C945 C946 1.258 . S
C945 C948 1.431 1_655 S
C945 C965 1.449 . S
C946 C945 1.258 . S
C946 C947 1.477 1_655 S
C946 H966 0.931 . S
C947 C943 1.460 . S
C947 C946 1.477 1_455 S
C947 H967 0.930 . S
C948 N944 1.362 . S
C948 C945 1.431 1_455 S
C948 C958 1.476 . S
H949 C943 0.929 . S
C950 O941 1.250 . S
C950 O942 1.258 . S
O951 Mn936 2.174 . S
O951 C939 1.289 . S
O952 Mn936 2.297 . S
O952 C939 1.236 . S
N953 Mn937 2.282 . S
N953 C954 1.328 . S
N953 C958 1.318 . S
C954 N953 1.328 . S
C954 C955 1.457 . S
C954 H959 0.929 . S
C955 C954 1.457 . S
C955 C956 1.291 1_455 S
C955 H968 0.931 1_556 S
C956 C955 1.291 1_655 S
C956 C957 1.373 . S
C956 H969 0.929 . S
C957 C956 1.373 . S
C957 C958 1.396 1_655 S
C957 C964 1.403 . S
C958 C948 1.476 . S
C958 N953 1.318 . S
C958 C957 1.396 1_455 S
H959 C954 0.929 . S
O960 Mn936 2.385 1_554 S
O960 C938 1.234 1_554 S
O961 Mn936 2.209 . S
O961 Mn937 2.215 . S
O961 C938 1.283 . S
O962 Mn936 2.094 . S
O962 C940 1.240 . S
O963 Mn937 2.117 . S
O963 C940 1.264 . S
C964 C957 1.403 . S
C964 C965 1.399 . S
C964 H970 0.929 . S
C965 C945 1.449 . S
C965 C964 1.399 . S
C965 H971 0.930 . S
H966 C946 0.931 . S
H967 C947 0.930 . S
H968 C955 0.931 1_554 S
H969 C956 0.929 . S
H970 C964 0.929 . S
H971 C965 0.930 . S
Mn972 O977 2.095 . S
Mn972 O987 2.162 . S
Mn972 O988 2.297 . S
Mn972 O996 2.385 . S
Mn972 O997 2.209 . S
Mn972 O998 2.094 . S
Mn973 O978 2.121 . S
Mn973 N980 2.257 . S
Mn973 N989 2.282 . S
Mn973 O997 2.215 . S
Mn973 O999 2.117 . S
C974 O996 1.234 . S
C974 O997 1.283 . S
C975 O987 1.281 . S
C975 O988 1.236 . S
C976 O998 1.240 . S
C976 O999 1.264 . S
O977 Mn972 2.095 . S
O977 C986 1.250 . S
O978 Mn973 2.121 . S
O978 C986 1.258 . S
C979 N980 1.326 . S
C979 C983 1.460 . S
C979 H985 0.929 . S
N980 Mn973 2.257 . S
N980 C979 1.326 . S
N980 C984 1.362 . S
C981 C982 1.258 . S
C981 C984 1.431 . S
C981 C1001 1.449 . S
C982 C981 1.258 . S
C982 C983 1.477 . S
C982 H1002 0.931 . S
C983 C979 1.460 . S
C983 C982 1.477 . S
C983 H1003 0.930 . S
C984 N980 1.362 . S
C984 C981 1.431 . S
C984 C994 1.476 . S
H985 C979 0.929 . S
C986 O977 1.250 . S
C986 O978 1.258 . S
O987 Mn972 2.162 . S
O987 C975 1.281 . S
O988 Mn972 2.297 . S
O988 C975 1.236 . S
N989 Mn973 2.282 . S
N989 C990 1.328 . S
N989 C994 1.318 . S
C990 N989 1.328 . S
C990 C991 1.457 . S
C990 H995 0.929 . S
C991 C990 1.457 . S
C991 C992 1.291 . S
C991 H1004 0.931 . S
C992 C991 1.291 . S
C992 C993 1.373 . S
C992 H1005 0.929 . S
C993 C992 1.373 . S
C993 C994 1.396 . S
C993 C1000 1.403 . S
C994 C984 1.476 . S
C994 N989 1.318 . S
C994 C993 1.396 . S
H995 C990 0.929 . S
O996 Mn972 2.385 . S
O996 C974 1.234 . S
O997 Mn972 2.209 . S
O997 Mn973 2.215 . S
O997 C974 1.283 . S
O998 Mn972 2.094 . S
O998 C976 1.240 . S
O999 Mn973 2.117 . S
O999 C976 1.264 . S
C1000 C993 1.403 . S
C1000 C1001 1.399 . S
C1000 H1006 0.929 . S
C1001 C981 1.449 . S
C1001 C1000 1.399 . S
C1001 H1007 0.930 . S
H1002 C982 0.931 . S
H1003 C983 0.930 . S
H1004 C991 0.931 . S
H1005 C992 0.929 . S
H1006 C1000 0.929 . S
H1007 C1001 0.930 . S
Mn1008 O1013 2.095 . S
Mn1008 O1023 2.162 . S
Mn1008 O1024 2.297 . S
Mn1008 O1032 2.385 . S
Mn1008 O1033 2.209 . S
Mn1008 O1034 2.094 . S
Mn1009 O1014 2.121 . S
Mn1009 N1016 2.257 . S
Mn1009 N1025 2.282 . S
Mn1009 O1033 2.215 . S
Mn1009 O1035 2.117 . S
C1010 O1032 1.234 . S
C1010 O1033 1.283 . S
C1011 O1023 1.281 . S
C1011 O1024 1.236 . S
C1012 O1034 1.240 . S
C1012 O1035 1.264 . S
O1013 Mn1008 2.095 . S
O1013 C1022 1.250 . S
O1014 Mn1009 2.121 . S
O1014 C1022 1.258 . S
C1015 N1016 1.326 . S
C1015 C1019 1.460 . S
C1015 H1021 0.929 . S
N1016 Mn1009 2.257 . S
N1016 C1015 1.326 . S
N1016 C1020 1.362 . S
C1017 C1018 1.258 . S
C1017 C1020 1.431 . S
C1017 C1037 1.449 . S
C1018 C1017 1.258 . S
C1018 C1019 1.477 . S
C1018 H1038 0.931 . S
C1019 C1015 1.460 . S
C1019 C1018 1.477 . S
C1019 H1039 0.930 . S
C1020 N1016 1.362 . S
C1020 C1017 1.431 . S
C1020 C1030 1.476 . S
H1021 C1015 0.929 . S
C1022 O1013 1.250 . S
C1022 O1014 1.258 . S
O1023 Mn1008 2.162 . S
O1023 C1011 1.281 . S
O1024 Mn1008 2.297 . S
O1024 C1011 1.236 . S
N1025 Mn1009 2.282 . S
N1025 C1026 1.328 . S
N1025 C1030 1.318 . S
C1026 N1025 1.328 . S
C1026 C1027 1.457 . S
C1026 H1031 0.929 . S
C1027 C1026 1.457 . S
C1027 C1028 1.291 . S
C1027 H1040 0.931 . S
C1028 C1027 1.291 . S
C1028 C1029 1.373 . S
C1028 H1041 0.929 . S
C1029 C1028 1.373 . S
C1029 C1030 1.396 . S
C1029 C1036 1.403 . S
C1030 C1020 1.476 . S
C1030 N1025 1.318 . S
C1030 C1029 1.396 . S
H1031 C1026 0.929 . S
O1032 Mn1008 2.385 . S
O1032 C1010 1.234 . S
O1033 Mn1008 2.209 . S
O1033 Mn1009 2.215 . S
O1033 C1010 1.283 . S
O1034 Mn1008 2.094 . S
O1034 C1012 1.240 . S
O1035 Mn1009 2.117 . S
O1035 C1012 1.264 . S
C1036 C1029 1.403 . S
C1036 C1037 1.399 . S
C1036 H1042 0.929 . S
C1037 C1017 1.449 . S
C1037 C1036 1.399 . S
C1037 H1043 0.930 . S
H1038 C1018 0.931 . S
H1039 C1019 0.930 . S
H1040 C1027 0.931 . S
H1041 C1028 0.929 . S
H1042 C1036 0.929 . S
H1043 C1037 0.930 . S
Mn1044 O1049 2.095 . S
Mn1044 O1059 2.162 . S
Mn1044 O1060 2.297 . S
Mn1044 O1068 2.385 . S
Mn1044 O1069 2.209 . S
Mn1044 O1070 2.094 . S
Mn1045 O1050 2.121 . S
Mn1045 N1052 2.257 . S
Mn1045 N1061 2.282 . S
Mn1045 O1069 2.215 . S
Mn1045 O1071 2.117 . S
C1046 O1068 1.234 . S
C1046 O1069 1.283 . S
C1047 O1059 1.281 . S
C1047 O1060 1.236 . S
C1048 O1070 1.240 . S
C1048 O1071 1.264 . S
O1049 Mn1044 2.095 . S
O1049 C1058 1.250 . S
O1050 Mn1045 2.121 . S
O1050 C1058 1.258 . S
C1051 N1052 1.326 . S
C1051 C1055 1.460 . S
C1051 H1057 0.929 . S
N1052 Mn1045 2.257 . S
N1052 C1051 1.326 . S
N1052 C1056 1.362 . S
C1053 C1054 1.258 . S
C1053 C1056 1.431 . S
C1053 C1073 1.449 . S
C1054 C1053 1.258 . S
C1054 C1055 1.477 . S
C1054 H1074 0.931 . S
C1055 C1051 1.460 . S
C1055 C1054 1.477 . S
C1055 H1075 0.930 . S
C1056 N1052 1.362 . S
C1056 C1053 1.431 . S
C1056 C1066 1.476 . S
H1057 C1051 0.929 . S
C1058 O1049 1.250 . S
C1058 O1050 1.258 . S
O1059 Mn1044 2.162 . S
O1059 C1047 1.281 . S
O1060 Mn1044 2.297 . S
O1060 C1047 1.236 . S
N1061 Mn1045 2.282 . S
N1061 C1062 1.328 . S
N1061 C1066 1.318 . S
C1062 N1061 1.328 . S
C1062 C1063 1.457 . S
C1062 H1067 0.929 . S
C1063 C1062 1.457 . S
C1063 C1064 1.291 . S
C1063 H1076 0.931 . S
C1064 C1063 1.291 . S
C1064 C1065 1.373 . S
C1064 H1077 0.929 . S
C1065 C1064 1.373 . S
C1065 C1066 1.396 . S
C1065 C1072 1.403 . S
C1066 C1056 1.476 . S
C1066 N1061 1.318 . S
C1066 C1065 1.396 . S
H1067 C1062 0.929 . S
O1068 Mn1044 2.385 . S
O1068 C1046 1.234 . S
O1069 Mn1044 2.209 . S
O1069 Mn1045 2.215 . S
O1069 C1046 1.283 . S
O1070 Mn1044 2.094 . S
O1070 C1048 1.240 . S
O1071 Mn1045 2.117 . S
O1071 C1048 1.264 . S
C1072 C1065 1.403 . S
C1072 C1073 1.399 . S
C1072 H1078 0.929 . S
C1073 C1053 1.449 . S
C1073 C1072 1.399 . S
C1073 H1079 0.930 . S
H1074 C1054 0.931 . S
H1075 C1055 0.930 . S
H1076 C1063 0.931 . S
H1077 C1064 0.929 . S
H1078 C1072 0.929 . S
H1079 C1073 0.930 . S
Mn1080 O1085 2.095 . S
Mn1080 O1095 2.174 . S
Mn1080 O1096 2.297 . S
Mn1080 O1104 2.385 1_554 S
Mn1080 O1105 2.209 . S
Mn1080 O1106 2.094 . S
Mn1081 O1086 2.121 . S
Mn1081 N1088 2.257 . S
Mn1081 N1097 2.282 . S
Mn1081 O1105 2.215 . S
Mn1081 O1107 2.117 . S
C1082 O1104 1.234 1_554 S
C1082 O1105 1.283 . S
C1083 O1095 1.289 . S
C1083 O1096 1.236 . S
C1084 O1106 1.240 . S
C1084 O1107 1.264 . S
O1085 Mn1080 2.095 . S
O1085 C1094 1.250 . S
O1086 Mn1081 2.121 . S
O1086 C1094 1.258 . S
C1087 N1088 1.326 . S
C1087 C1091 1.460 . S
C1087 H1093 0.929 . S
N1088 Mn1081 2.257 . S
N1088 C1087 1.326 . S
N1088 C1092 1.362 . S
C1089 C1090 1.258 . S
C1089 C1092 1.431 1_655 S
C1089 C1109 1.449 . S
C1090 C1089 1.258 . S
C1090 C1091 1.477 1_655 S
C1090 H1110 0.931 . S
C1091 C1087 1.460 . S
C1091 C1090 1.477 1_455 S
C1091 H1111 0.930 . S
C1092 N1088 1.362 . S
C1092 C1089 1.431 1_455 S
C1092 C1102 1.476 . S
H1093 C1087 0.929 . S
C1094 O1085 1.250 . S
C1094 O1086 1.258 . S
O1095 Mn1080 2.174 . S
O1095 C1083 1.289 . S
O1096 Mn1080 2.297 . S
O1096 C1083 1.236 . S
N1097 Mn1081 2.282 . S
N1097 C1098 1.328 . S
N1097 C1102 1.318 . S
C1098 N1097 1.328 . S
C1098 C1099 1.457 . S
C1098 H1103 0.929 . S
C1099 C1098 1.457 . S
C1099 C1100 1.291 1_455 S
C1099 H1112 0.931 1_554 S
C1100 C1099 1.291 1_655 S
C1100 C1101 1.373 . S
C1100 H1113 0.929 . S
C1101 C1100 1.373 . S
C1101 C1102 1.396 1_655 S
C1101 C1108 1.403 . S
C1102 C1092 1.476 . S
C1102 N1097 1.318 . S
C1102 C1101 1.396 1_455 S
H1103 C1098 0.929 . S
O1104 Mn1080 2.385 1_556 S
O1104 C1082 1.234 1_556 S
O1105 Mn1080 2.209 . S
O1105 Mn1081 2.215 . S
O1105 C1082 1.283 . S
O1106 Mn1080 2.094 . S
O1106 C1084 1.240 . S
O1107 Mn1081 2.117 . S
O1107 C1084 1.264 . S
C1108 C1101 1.403 . S
C1108 C1109 1.399 . S
C1108 H1114 0.929 . S
C1109 C1089 1.449 . S
C1109 C1108 1.399 . S
C1109 H1115 0.930 . S
H1110 C1090 0.931 . S
H1111 C1091 0.930 . S
H1112 C1099 0.931 1_556 S
H1113 C1100 0.929 . S
H1114 C1108 0.929 . S
H1115 C1109 0.930 . S
Mn1116 O1121 2.095 . S
Mn1116 O1131 2.162 . S
Mn1116 O1132 2.297 . S
Mn1116 O1140 2.385 . S
Mn1116 O1141 2.209 . S
Mn1116 O1142 2.094 . S
Mn1117 O1122 2.121 . S
Mn1117 N1124 2.257 . S
Mn1117 N1133 2.282 . S
Mn1117 O1141 2.215 . S
Mn1117 O1143 2.117 . S
C1118 O1140 1.234 . S
C1118 O1141 1.283 . S
C1119 O1131 1.281 . S
C1119 O1132 1.236 . S
C1120 O1142 1.240 . S
C1120 O1143 1.264 . S
O1121 Mn1116 2.095 . S
O1121 C1130 1.250 . S
O1122 Mn1117 2.121 . S
O1122 C1130 1.258 . S
C1123 N1124 1.326 . S
C1123 C1127 1.460 . S
C1123 H1129 0.929 . S
N1124 Mn1117 2.257 . S
N1124 C1123 1.326 . S
N1124 C1128 1.362 . S
C1125 C1126 1.258 . S
C1125 C1128 1.431 . S
C1125 C1145 1.449 . S
C1126 C1125 1.258 . S
C1126 C1127 1.477 . S
C1126 H1146 0.931 . S
C1127 C1123 1.460 . S
C1127 C1126 1.477 . S
C1127 H1147 0.930 . S
C1128 N1124 1.362 . S
C1128 C1125 1.431 . S
C1128 C1138 1.476 . S
H1129 C1123 0.929 . S
C1130 O1121 1.250 . S
C1130 O1122 1.258 . S
O1131 Mn1116 2.162 . S
O1131 C1119 1.281 . S
O1132 Mn1116 2.297 . S
O1132 C1119 1.236 . S
N1133 Mn1117 2.282 . S
N1133 C1134 1.328 . S
N1133 C1138 1.318 . S
C1134 N1133 1.328 . S
C1134 C1135 1.457 . S
C1134 H1139 0.929 . S
C1135 C1134 1.457 . S
C1135 C1136 1.291 . S
C1135 H1148 0.931 . S
C1136 C1135 1.291 . S
C1136 C1137 1.373 . S
C1136 H1149 0.929 . S
C1137 C1136 1.373 . S
C1137 C1138 1.396 . S
C1137 C1144 1.403 . S
C1138 C1128 1.476 . S
C1138 N1133 1.318 . S
C1138 C1137 1.396 . S
H1139 C1134 0.929 . S
O1140 Mn1116 2.385 . S
O1140 C1118 1.234 . S
O1141 Mn1116 2.209 . S
O1141 Mn1117 2.215 . S
O1141 C1118 1.283 . S
O1142 Mn1116 2.094 . S
O1142 C1120 1.240 . S
O1143 Mn1117 2.117 . S
O1143 C1120 1.264 . S
C1144 C1137 1.403 . S
C1144 C1145 1.399 . S
C1144 H1150 0.929 . S
C1145 C1125 1.449 . S
C1145 C1144 1.399 . S
C1145 H1151 0.930 . S
H1146 C1126 0.931 . S
H1147 C1127 0.930 . S
H1148 C1135 0.931 . S
H1149 C1136 0.929 . S
H1150 C1144 0.929 . S
H1151 C1145 0.930 . S
C1152 C1153 1.363 . S
C1152 C1158 1.379 . S
C1152 N1160 1.356 . S
C1153 C1152 1.363 . S
C1153 C1159 1.363 . S
C1154 C1155 1.363 . S
C1154 C1159 1.379 . S
C1154 N1161 1.356 . S
C1155 C1154 1.363 . S
C1155 C1158 1.363 . S
N1156 C1158 1.356 . S
N1156 H1168 0.984 . S
N1156 H1169 0.985 . S
N1157 C1159 1.356 . S
N1157 H1162 0.984 . S
N1157 H1163 0.985 . S
C1158 C1152 1.379 . S
C1158 C1155 1.363 . S
C1158 N1156 1.356 . S
C1159 C1153 1.363 . S
C1159 C1154 1.379 . S
C1159 N1157 1.356 . S
N1160 C1152 1.356 . S
N1160 H1166 0.984 . S
N1160 H1167 0.984 . S
N1161 C1154 1.356 . S
N1161 H1164 0.984 . S
N1161 H1165 0.985 . S
H1162 N1157 0.984 . S
H1163 N1157 0.985 . S
H1164 N1161 0.984 . S
H1165 N1161 0.985 . S
H1166 N1160 0.984 . S
H1167 N1160 0.984 . S
H1168 N1156 0.984 . S
H1169 N1156 0.985 . S
C1170 C1171 1.363 . S
C1170 C1176 1.379 . S
C1170 N1178 1.356 . S
C1171 C1170 1.363 . S
C1171 C1177 1.363 . S
C1172 C1173 1.363 . S
C1172 C1177 1.379 . S
C1172 N1179 1.356 . S
C1173 C1172 1.363 . S
C1173 C1176 1.363 . S
N1174 C1176 1.356 . S
N1174 H1186 0.984 . S
N1174 H1187 0.985 . S
N1175 C1177 1.356 . S
N1175 H1180 0.984 . S
N1175 H1181 0.985 . S
C1176 C1170 1.379 . S
C1176 C1173 1.363 . S
C1176 N1174 1.356 . S
C1177 C1171 1.363 . S
C1177 C1172 1.379 . S
C1177 N1175 1.356 . S
N1178 C1170 1.356 . S
N1178 H1184 0.984 . S
N1178 H1185 0.984 . S
N1179 C1172 1.356 . S
N1179 H1182 0.984 . S
N1179 H1183 0.985 . S
H1180 N1175 0.984 . S
H1181 N1175 0.985 . S
H1182 N1179 0.984 . S
H1183 N1179 0.985 . S
H1184 N1178 0.984 . S
H1185 N1178 0.984 . S
H1186 N1174 0.984 . S
H1187 N1174 0.985 . S
C1188 C1189 1.363 . S
C1188 C1194 1.379 . S
C1188 N1196 1.356 . S
C1189 C1188 1.363 . S
C1189 C1195 1.363 . S
C1190 C1191 1.363 . S
C1190 C1195 1.379 . S
C1190 N1197 1.356 . S
C1191 C1190 1.363 . S
C1191 C1194 1.363 . S
N1192 C1194 1.356 . S
N1192 H1204 0.984 . S
N1192 H1205 0.985 . S
N1193 C1195 1.356 . S
N1193 H1198 0.984 . S
N1193 H1199 0.985 . S
C1194 C1188 1.379 . S
C1194 C1191 1.363 . S
C1194 N1192 1.356 . S
C1195 C1189 1.363 . S
C1195 C1190 1.379 . S
C1195 N1193 1.356 . S
N1196 C1188 1.356 . S
N1196 H1202 0.984 . S
N1196 H1203 0.984 . S
N1197 C1190 1.356 . S
N1197 H1200 0.984 . S
N1197 H1201 0.985 . S
H1198 N1193 0.984 . S
H1199 N1193 0.985 . S
H1200 N1197 0.984 . S
H1201 N1197 0.985 . S
H1202 N1196 0.984 . S
H1203 N1196 0.984 . S
H1204 N1192 0.984 . S
H1205 N1192 0.985 . S
C1206 C1207 1.363 . S
C1206 C1212 1.379 . S
C1206 N1214 1.356 . S
C1207 C1206 1.363 . S
C1207 C1213 1.363 . S
C1208 C1209 1.363 . S
C1208 C1213 1.379 . S
C1208 N1215 1.356 . S
C1209 C1208 1.363 . S
C1209 C1212 1.363 . S
N1210 C1212 1.356 . S
N1210 H1222 0.984 . S
N1210 H1223 0.985 . S
N1211 C1213 1.356 . S
N1211 H1216 0.984 . S
N1211 H1217 0.985 . S
C1212 C1206 1.379 . S
C1212 C1209 1.363 . S
C1212 N1210 1.356 . S
C1213 C1207 1.363 . S
C1213 C1208 1.379 . S
C1213 N1211 1.356 . S
N1214 C1206 1.356 . S
N1214 H1220 0.984 . S
N1214 H1221 0.984 . S
N1215 C1208 1.356 . S
N1215 H1218 0.984 . S
N1215 H1219 0.985 . S
H1216 N1211 0.984 . S
H1217 N1211 0.985 . S
H1218 N1215 0.984 . S
H1219 N1215 0.985 . S
H1220 N1214 0.984 . S
H1221 N1214 0.984 . S
H1222 N1210 0.984 . S
H1223 N1210 0.985 . S
C1224 C1225 1.363 . S
C1224 C1230 1.379 . S
C1224 N1232 1.356 . S
C1225 C1224 1.363 . S
C1225 C1231 1.363 . S
C1226 C1227 1.363 . S
C1226 C1231 1.379 . S
C1226 N1233 1.356 . S
C1227 C1226 1.363 . S
C1227 C1230 1.363 . S
N1228 C1230 1.356 . S
N1228 H1240 0.984 . S
N1228 H1241 0.985 . S
N1229 C1231 1.356 . S
N1229 H1234 0.984 . S
N1229 H1235 0.985 . S
C1230 C1224 1.379 . S
C1230 C1227 1.363 . S
C1230 N1228 1.356 . S
C1231 C1225 1.363 . S
C1231 C1226 1.379 . S
C1231 N1229 1.356 . S
N1232 C1224 1.356 . S
N1232 H1238 0.984 . S
N1232 H1239 0.984 . S
N1233 C1226 1.356 . S
N1233 H1236 0.984 . S
N1233 H1237 0.985 . S
H1234 N1229 0.984 . S
H1235 N1229 0.985 . S
H1236 N1233 0.984 . S
H1237 N1233 0.985 . S
H1238 N1232 0.984 . S
H1239 N1232 0.984 . S
H1240 N1228 0.984 . S
H1241 N1228 0.985 . S
C1242 C1243 1.363 . S
C1242 C1248 1.379 . S
C1242 N1250 1.356 . S
C1243 C1242 1.363 . S
C1243 C1249 1.363 . S
C1244 C1245 1.363 . S
C1244 C1249 1.379 . S
C1244 N1251 1.356 . S
C1245 C1244 1.363 . S
C1245 C1248 1.363 . S
N1246 C1248 1.356 . S
N1246 H1258 0.984 . S
N1246 H1259 0.985 . S
N1247 C1249 1.356 . S
N1247 H1252 0.984 . S
N1247 H1253 0.985 . S
C1248 C1242 1.379 . S
C1248 C1245 1.363 . S
C1248 N1246 1.356 . S
C1249 C1243 1.363 . S
C1249 C1244 1.379 . S
C1249 N1247 1.356 . S
N1250 C1242 1.356 . S
N1250 H1256 0.984 . S
N1250 H1257 0.984 . S
N1251 C1244 1.356 . S
N1251 H1254 0.984 . S
N1251 H1255 0.985 . S
H1252 N1247 0.984 . S
H1253 N1247 0.985 . S
H1254 N1251 0.984 . S
H1255 N1251 0.985 . S
H1256 N1250 0.984 . S
H1257 N1250 0.984 . S
H1258 N1246 0.984 . S
H1259 N1246 0.985 . S
C1260 C1261 1.363 . S
C1260 C1266 1.379 . S
C1260 N1268 1.356 . S
C1261 C1260 1.363 . S
C1261 C1267 1.363 . S
C1262 C1263 1.363 . S
C1262 C1267 1.379 . S
C1262 N1269 1.356 . S
C1263 C1262 1.363 . S
C1263 C1266 1.363 . S
N1264 C1266 1.356 . S
N1264 H1276 0.984 . S
N1264 H1277 0.985 . S
N1265 C1267 1.356 . S
N1265 H1270 0.984 . S
N1265 H1271 0.985 . S
C1266 C1260 1.379 . S
C1266 C1263 1.363 . S
C1266 N1264 1.356 . S
C1267 C1261 1.363 . S
C1267 C1262 1.379 . S
C1267 N1265 1.356 . S
N1268 C1260 1.356 . S
N1268 H1274 0.984 . S
N1268 H1275 0.984 . S
N1269 C1262 1.356 . S
N1269 H1272 0.984 . S
N1269 H1273 0.985 . S
H1270 N1265 0.984 . S
H1271 N1265 0.985 . S
H1272 N1269 0.984 . S
H1273 N1269 0.985 . S
H1274 N1268 0.984 . S
H1275 N1268 0.984 . S
H1276 N1264 0.984 . S
H1277 N1264 0.985 . S
C1278 C1279 1.363 . S
C1278 C1284 1.379 . S
C1278 N1286 1.356 . S
C1279 C1278 1.363 . S
C1279 C1285 1.363 . S
C1280 C1281 1.363 . S
C1280 C1285 1.379 . S
C1280 N1287 1.356 . S
C1281 C1280 1.363 . S
C1281 C1284 1.363 . S
N1282 C1284 1.356 . S
N1282 H1294 0.984 . S
N1282 H1295 0.985 . S
N1283 C1285 1.356 . S
N1283 H1288 0.984 . S
N1283 H1289 0.985 . S
C1284 C1278 1.379 . S
C1284 C1281 1.363 . S
C1284 N1282 1.356 . S
C1285 C1279 1.363 . S
C1285 C1280 1.379 . S
C1285 N1283 1.356 . S
N1286 C1278 1.356 . S
N1286 H1292 0.984 . S
N1286 H1293 0.984 . S
N1287 C1280 1.356 . S
N1287 H1290 0.984 . S
N1287 H1291 0.985 . S
H1288 N1283 0.984 . S
H1289 N1283 0.985 . S
H1290 N1287 0.984 . S
H1291 N1287 0.985 . S
H1292 N1286 0.984 . S
H1293 N1286 0.984 . S
H1294 N1282 0.984 . S
H1295 N1282 0.985 . S
C1296 C1297 1.363 . S
C1296 C1302 1.379 . S
C1296 N1304 1.356 . S
C1297 C1296 1.363 . S
C1297 C1303 1.363 . S
C1298 C1299 1.363 . S
C1298 C1303 1.379 . S
C1298 N1305 1.356 . S
C1299 C1298 1.363 . S
C1299 C1302 1.363 . S
N1300 C1302 1.356 . S
N1300 H1312 0.984 . S
N1300 H1313 0.985 . S
N1301 C1303 1.356 . S
N1301 H1306 0.984 . S
N1301 H1307 0.985 . S
C1302 C1296 1.379 . S
C1302 C1299 1.363 . S
C1302 N1300 1.356 . S
C1303 C1297 1.363 . S
C1303 C1298 1.379 . S
C1303 N1301 1.356 . S
N1304 C1296 1.356 . S
N1304 H1310 0.984 . S
N1304 H1311 0.984 . S
N1305 C1298 1.356 . S
N1305 H1308 0.984 . S
N1305 H1309 0.985 . S
H1306 N1301 0.984 . S
H1307 N1301 0.985 . S
H1308 N1305 0.984 . S
H1309 N1305 0.985 . S
H1310 N1304 0.984 . S
H1311 N1304 0.984 . S
H1312 N1300 0.984 . S
H1313 N1300 0.985 . S
C1314 C1315 1.363 . S
C1314 C1320 1.379 . S
C1314 N1322 1.356 . S
C1315 C1314 1.363 . S
C1315 C1321 1.363 . S
C1316 C1317 1.363 . S
C1316 C1321 1.379 . S
C1316 N1323 1.356 . S
C1317 C1316 1.363 . S
C1317 C1320 1.363 . S
N1318 C1320 1.356 . S
N1318 H1330 0.984 . S
N1318 H1331 0.985 . S
N1319 C1321 1.356 . S
N1319 H1324 0.984 . S
N1319 H1325 0.985 . S
C1320 C1314 1.379 . S
C1320 C1317 1.363 . S
C1320 N1318 1.356 . S
C1321 C1315 1.363 . S
C1321 C1316 1.379 . S
C1321 N1319 1.356 . S
N1322 C1314 1.356 . S
N1322 H1328 0.984 . S
N1322 H1329 0.984 . S
N1323 C1316 1.356 . S
N1323 H1326 0.984 . S
N1323 H1327 0.985 . S
H1324 N1319 0.984 . S
H1325 N1319 0.985 . S
H1326 N1323 0.984 . S
H1327 N1323 0.985 . S
H1328 N1322 0.984 . S
H1329 N1322 0.984 . S
H1330 N1318 0.984 . S
H1331 N1318 0.985 . S
C1332 C1333 1.363 . S
C1332 C1338 1.379 . S
C1332 N1340 1.356 . S
C1333 C1332 1.363 . S
C1333 C1339 1.363 . S
C1334 C1335 1.363 . S
C1334 C1339 1.379 . S
C1334 N1341 1.356 . S
C1335 C1334 1.363 . S
C1335 C1338 1.363 . S
N1336 C1338 1.356 . S
N1336 H1348 0.984 . S
N1336 H1349 0.985 . S
N1337 C1339 1.356 . S
N1337 H1342 0.984 . S
N1337 H1343 0.985 . S
C1338 C1332 1.379 . S
C1338 C1335 1.363 . S
C1338 N1336 1.356 . S
C1339 C1333 1.363 . S
C1339 C1334 1.379 . S
C1339 N1337 1.356 . S
N1340 C1332 1.356 . S
N1340 H1346 0.984 . S
N1340 H1347 0.984 . S
N1341 C1334 1.356 . S
N1341 H1344 0.984 . S
N1341 H1345 0.985 . S
H1342 N1337 0.984 . S
H1343 N1337 0.985 . S
H1344 N1341 0.984 . S
H1345 N1341 0.985 . S
H1346 N1340 0.984 . S
H1347 N1340 0.984 . S
H1348 N1336 0.984 . S
H1349 N1336 0.985 . S
C1350 C1351 1.363 . S
C1350 C1356 1.379 . S
C1350 N1358 1.356 . S
C1351 C1350 1.363 . S
C1351 C1357 1.363 . S
C1352 C1353 1.363 . S
C1352 C1357 1.379 . S
C1352 N1359 1.356 . S
C1353 C1352 1.363 . S
C1353 C1356 1.363 . S
N1354 C1356 1.356 . S
N1354 H1366 0.984 . S
N1354 H1367 0.985 . S
N1355 C1357 1.356 . S
N1355 H1360 0.984 . S
N1355 H1361 0.985 . S
C1356 C1350 1.379 . S
C1356 C1353 1.363 . S
C1356 N1354 1.356 . S
C1357 C1351 1.363 . S
C1357 C1352 1.379 . S
C1357 N1355 1.356 . S
N1358 C1350 1.356 . S
N1358 H1364 0.984 . S
N1358 H1365 0.984 . S
N1359 C1352 1.356 . S
N1359 H1362 0.984 . S
N1359 H1363 0.985 . S
H1360 N1355 0.984 . S
H1361 N1355 0.985 . S
H1362 N1359 0.984 . S
H1363 N1359 0.985 . S
H1364 N1358 0.984 . S
H1365 N1358 0.984 . S
H1366 N1354 0.984 . S
H1367 N1354 0.985 . S
C1368 C1369 1.363 . S
C1368 C1374 1.379 . S
C1368 N1376 1.356 . S
C1369 C1368 1.363 . S
C1369 C1375 1.363 . S
C1370 C1371 1.363 . S
C1370 C1375 1.379 . S
C1370 N1377 1.356 . S
C1371 C1370 1.363 . S
C1371 C1374 1.363 . S
N1372 C1374 1.356 . S
N1372 H1384 0.984 . S
N1372 H1385 0.985 . S
N1373 C1375 1.356 . S
N1373 H1378 0.984 . S
N1373 H1379 0.985 . S
C1374 C1368 1.379 . S
C1374 C1371 1.363 . S
C1374 N1372 1.356 . S
C1375 C1369 1.363 . S
C1375 C1370 1.379 . S
C1375 N1373 1.356 . S
N1376 C1368 1.356 . S
N1376 H1382 0.984 . S
N1376 H1383 0.984 . S
N1377 C1370 1.356 . S
N1377 H1380 0.984 . S
N1377 H1381 0.985 . S
H1378 N1373 0.984 . S
H1379 N1373 0.985 . S
H1380 N1377 0.984 . S
H1381 N1377 0.985 . S
H1382 N1376 0.984 . S
H1383 N1376 0.984 . S
H1384 N1372 0.984 . S
H1385 N1372 0.985 . S
C1386 C1387 1.363 . S
C1386 C1392 1.379 . S
C1386 N1394 1.356 . S
C1387 C1386 1.363 . S
C1387 C1393 1.363 . S
C1388 C1389 1.363 . S
C1388 C1393 1.379 . S
C1388 N1395 1.356 . S
C1389 C1388 1.363 . S
C1389 C1392 1.363 . S
N1390 C1392 1.356 . S
N1390 H1402 0.984 . S
N1390 H1403 0.985 . S
N1391 C1393 1.356 . S
N1391 H1396 0.984 . S
N1391 H1397 0.985 . S
C1392 C1386 1.379 . S
C1392 C1389 1.363 . S
C1392 N1390 1.356 . S
C1393 C1387 1.363 . S
C1393 C1388 1.379 . S
C1393 N1391 1.356 . S
N1394 C1386 1.356 . S
N1394 H1400 0.984 . S
N1394 H1401 0.984 . S
N1395 C1388 1.356 . S
N1395 H1398 0.984 . S
N1395 H1399 0.985 . S
H1396 N1391 0.984 . S
H1397 N1391 0.985 . S
H1398 N1395 0.984 . S
H1399 N1395 0.985 . S
H1400 N1394 0.984 . S
H1401 N1394 0.984 . S
H1402 N1390 0.984 . S
H1403 N1390 0.985 . S
C1404 C1405 1.363 . S
C1404 C1410 1.379 . S
C1404 N1412 1.356 . S
C1405 C1404 1.363 . S
C1405 C1411 1.363 . S
C1406 C1407 1.363 . S
C1406 C1411 1.379 . S
C1406 N1413 1.356 . S
C1407 C1406 1.363 . S
C1407 C1410 1.363 . S
N1408 C1410 1.356 . S
N1408 H1420 0.984 . S
N1408 H1421 0.985 . S
N1409 C1411 1.356 . S
N1409 H1414 0.984 . S
N1409 H1415 0.985 . S
C1410 C1404 1.379 . S
C1410 C1407 1.363 . S
C1410 N1408 1.356 . S
C1411 C1405 1.363 . S
C1411 C1406 1.379 . S
C1411 N1409 1.356 . S
N1412 C1404 1.356 . S
N1412 H1418 0.984 . S
N1412 H1419 0.984 . S
N1413 C1406 1.356 . S
N1413 H1416 0.984 . S
N1413 H1417 0.985 . S
H1414 N1409 0.984 . S
H1415 N1409 0.985 . S
H1416 N1413 0.984 . S
H1417 N1413 0.985 . S
H1418 N1412 0.984 . S
H1419 N1412 0.984 . S
H1420 N1408 0.984 . S
H1421 N1408 0.985 . S
C1422 C1423 1.363 . S
C1422 C1428 1.379 . S
C1422 N1430 1.356 . S
C1423 C1422 1.363 . S
C1423 C1429 1.363 . S
C1424 C1425 1.363 . S
C1424 C1429 1.379 . S
C1424 N1431 1.356 . S
C1425 C1424 1.363 . S
C1425 C1428 1.363 . S
N1426 C1428 1.356 . S
N1426 H1438 0.984 . S
N1426 H1439 0.985 . S
N1427 C1429 1.356 . S
N1427 H1432 0.984 . S
N1427 H1433 0.985 . S
C1428 C1422 1.379 . S
C1428 C1425 1.363 . S
C1428 N1426 1.356 . S
C1429 C1423 1.363 . S
C1429 C1424 1.379 . S
C1429 N1427 1.356 . S
N1430 C1422 1.356 . S
N1430 H1436 0.984 . S
N1430 H1437 0.984 . S
N1431 C1424 1.356 . S
N1431 H1434 0.984 . S
N1431 H1435 0.985 . S
H1432 N1427 0.984 . S
H1433 N1427 0.985 . S
H1434 N1431 0.984 . S
H1435 N1431 0.985 . S
H1436 N1430 0.984 . S
H1437 N1430 0.984 . S
H1438 N1426 0.984 . S
H1439 N1426 0.985 . S
C1440 C1441 1.363 . S
C1440 C1446 1.379 1_455 S
C1440 N1448 1.356 . S
C1441 C1440 1.363 . S
C1441 C1447 1.363 1_554 S
C1442 C1443 1.363 1_556 S
C1442 C1447 1.379 1_655 S
C1442 N1449 1.356 . S
C1443 C1442 1.363 1_554 S
C1443 C1446 1.363 . S
N1444 C1446 1.356 . S
N1444 H1456 0.984 . S
N1444 H1457 0.985 . S
N1445 C1447 1.356 . S
N1445 H1450 0.984 . S
N1445 H1451 0.985 . S
C1446 C1440 1.379 1_655 S
C1446 C1443 1.363 . S
C1446 N1444 1.356 . S
C1447 C1441 1.363 1_556 S
C1447 C1442 1.379 1_455 S
C1447 N1445 1.356 . S
N1448 C1440 1.356 . S
N1448 H1454 0.984 . S
N1448 H1455 0.984 . S
N1449 C1442 1.356 . S
N1449 H1452 0.984 . S
N1449 H1453 0.985 . S
H1450 N1445 0.984 . S
H1451 N1445 0.985 . S
H1452 N1449 0.984 . S
H1453 N1449 0.985 . S
H1454 N1448 0.984 . S
H1455 N1448 0.984 . S
H1456 N1444 0.984 . S
H1457 N1444 0.985 . S
C1458 C1459 1.363 . S
C1458 C1464 1.379 . S
C1458 N1466 1.356 . S
C1459 C1458 1.363 . S
C1459 C1465 1.363 . S
C1460 C1461 1.363 . S
C1460 C1465 1.379 . S
C1460 N1467 1.356 . S
C1461 C1460 1.363 . S
C1461 C1464 1.363 . S
N1462 C1464 1.356 . S
N1462 H1474 0.984 . S
N1462 H1475 0.985 . S
N1463 C1465 1.356 . S
N1463 H1468 0.984 . S
N1463 H1469 0.985 . S
C1464 C1458 1.379 . S
C1464 C1461 1.363 . S
C1464 N1462 1.356 . S
C1465 C1459 1.363 . S
C1465 C1460 1.379 . S
C1465 N1463 1.356 . S
N1466 C1458 1.356 . S
N1466 H1472 0.984 . S
N1466 H1473 0.984 . S
N1467 C1460 1.356 . S
N1467 H1470 0.984 . S
N1467 H1471 0.985 . S
H1468 N1463 0.984 . S
H1469 N1463 0.985 . S
H1470 N1467 0.984 . S
H1471 N1467 0.985 . S
H1472 N1466 0.984 . S
H1473 N1466 0.984 . S
H1474 N1462 0.984 . S
H1475 N1462 0.985 . S
C1476 C1477 1.363 . S
C1476 C1482 1.379 . S
C1476 N1484 1.356 . S
C1477 C1476 1.363 . S
C1477 C1483 1.363 . S
C1478 C1479 1.363 . S
C1478 C1483 1.379 . S
C1478 N1485 1.356 . S
C1479 C1478 1.363 . S
C1479 C1482 1.363 . S
N1480 C1482 1.356 . S
N1480 H1492 0.984 . S
N1480 H1493 0.985 . S
N1481 C1483 1.356 . S
N1481 H1486 0.984 . S
N1481 H1487 0.985 . S
C1482 C1476 1.379 . S
C1482 C1479 1.363 . S
C1482 N1480 1.356 . S
C1483 C1477 1.363 . S
C1483 C1478 1.379 . S
C1483 N1481 1.356 . S
N1484 C1476 1.356 . S
N1484 H1490 0.984 . S
N1484 H1491 0.984 . S
N1485 C1478 1.356 . S
N1485 H1488 0.984 . S
N1485 H1489 0.985 . S
H1486 N1481 0.984 . S
H1487 N1481 0.985 . S
H1488 N1485 0.984 . S
H1489 N1485 0.985 . S
H1490 N1484 0.984 . S
H1491 N1484 0.984 . S
H1492 N1480 0.984 . S
H1493 N1480 0.985 . S
C1494 C1495 1.363 . S
C1494 C1500 1.379 . S
C1494 N1502 1.356 . S
C1495 C1494 1.363 . S
C1495 C1501 1.363 . S
C1496 C1497 1.363 . S
C1496 C1501 1.379 . S
C1496 N1503 1.356 . S
C1497 C1496 1.363 . S
C1497 C1500 1.363 . S
N1498 C1500 1.356 . S
N1498 H1510 0.984 . S
N1498 H1511 0.985 . S
N1499 C1501 1.356 . S
N1499 H1504 0.984 . S
N1499 H1505 0.985 . S
C1500 C1494 1.379 . S
C1500 C1497 1.363 . S
C1500 N1498 1.356 . S
C1501 C1495 1.363 . S
C1501 C1496 1.379 . S
C1501 N1499 1.356 . S
N1502 C1494 1.356 . S
N1502 H1508 0.984 . S
N1502 H1509 0.984 . S
N1503 C1496 1.356 . S
N1503 H1506 0.984 . S
N1503 H1507 0.985 . S
H1504 N1499 0.984 . S
H1505 N1499 0.985 . S
H1506 N1503 0.984 . S
H1507 N1503 0.985 . S
H1508 N1502 0.984 . S
H1509 N1502 0.984 . S
H1510 N1498 0.984 . S
H1511 N1498 0.985 . S
C1512 C1513 1.363 . S
C1512 C1518 1.379 1_655 S
C1512 N1520 1.356 . S
C1513 C1512 1.363 . S
C1513 C1519 1.363 . S
C1514 C1515 1.363 . S
C1514 C1519 1.379 1_455 S
C1514 N1521 1.356 1_556 S
C1515 C1514 1.363 . S
C1515 C1518 1.363 . S
N1516 C1518 1.356 . S
N1516 H1528 0.984 . S
N1516 H1529 0.985 . S
N1517 C1519 1.356 1_554 S
N1517 H1522 0.984 . S
N1517 H1523 0.985 . S
C1518 C1512 1.379 1_455 S
C1518 C1515 1.363 . S
C1518 N1516 1.356 . S
C1519 C1513 1.363 . S
C1519 C1514 1.379 1_655 S
C1519 N1517 1.356 1_556 S
N1520 C1512 1.356 . S
N1520 H1526 0.984 . S
N1520 H1527 0.984 . S
N1521 C1514 1.356 1_554 S
N1521 H1524 0.984 . S
N1521 H1525 0.985 . S
H1522 N1517 0.984 . S
H1523 N1517 0.985 . S
H1524 N1521 0.984 . S
H1525 N1521 0.985 . S
H1526 N1520 0.984 . S
H1527 N1520 0.984 . S
H1528 N1516 0.984 . S
H1529 N1516 0.985 . S
C1530 C1531 1.363 . S
C1530 C1536 1.379 . S
C1530 N1538 1.356 . S
C1531 C1530 1.363 . S
C1531 C1537 1.363 . S
C1532 C1533 1.363 . S
C1532 C1537 1.379 . S
C1532 N1539 1.356 . S
C1533 C1532 1.363 . S
C1533 C1536 1.363 . S
N1534 C1536 1.356 . S
N1534 H1546 0.984 . S
N1534 H1547 0.985 . S
N1535 C1537 1.356 . S
N1535 H1540 0.984 . S
N1535 H1541 0.985 . S
C1536 C1530 1.379 . S
C1536 C1533 1.363 . S
C1536 N1534 1.356 . S
C1537 C1531 1.363 . S
C1537 C1532 1.379 . S
C1537 N1535 1.356 . S
N1538 C1530 1.356 . S
N1538 H1544 0.984 . S
N1538 H1545 0.984 . S
N1539 C1532 1.356 . S
N1539 H1542 0.984 . S
N1539 H1543 0.985 . S
H1540 N1535 0.984 . S
H1541 N1535 0.985 . S
H1542 N1539 0.984 . S
H1543 N1539 0.985 . S
H1544 N1538 0.984 . S
H1545 N1538 0.984 . S
H1546 N1534 0.984 . S
H1547 N1534 0.985 . S
C1548 C1549 1.363 . S
C1548 C1554 1.379 . S
C1548 N1556 1.356 . S
C1549 C1548 1.363 . S
C1549 C1555 1.363 . S
C1550 C1551 1.363 . S
C1550 C1555 1.379 . S
C1550 N1557 1.356 . S
C1551 C1550 1.363 . S
C1551 C1554 1.363 . S
N1552 C1554 1.356 . S
N1552 H1564 0.984 . S
N1552 H1565 0.985 . S
N1553 C1555 1.356 . S
N1553 H1558 0.984 . S
N1553 H1559 0.985 . S
C1554 C1548 1.379 . S
C1554 C1551 1.363 . S
C1554 N1552 1.356 . S
C1555 C1549 1.363 . S
C1555 C1550 1.379 . S
C1555 N1553 1.356 . S
N1556 C1548 1.356 . S
N1556 H1562 0.984 . S
N1556 H1563 0.984 . S
N1557 C1550 1.356 . S
N1557 H1560 0.984 . S
N1557 H1561 0.985 . S
H1558 N1553 0.984 . S
H1559 N1553 0.985 . S
H1560 N1557 0.984 . S
H1561 N1557 0.985 . S
H1562 N1556 0.984 . S
H1563 N1556 0.984 . S
H1564 N1552 0.984 . S
H1565 N1552 0.985 . S
C1566 C1567 1.363 . S
C1566 C1572 1.379 . S
C1566 N1574 1.356 . S
C1567 C1566 1.363 . S
C1567 C1573 1.363 . S
C1568 C1569 1.363 . S
C1568 C1573 1.379 . S
C1568 N1575 1.356 . S
C1569 C1568 1.363 . S
C1569 C1572 1.363 . S
N1570 C1572 1.356 . S
N1570 H1582 0.984 . S
N1570 H1583 0.985 . S
N1571 C1573 1.356 . S
N1571 H1576 0.984 . S
N1571 H1577 0.985 . S
C1572 C1566 1.379 . S
C1572 C1569 1.363 . S
C1572 N1570 1.356 . S
C1573 C1567 1.363 . S
C1573 C1568 1.379 . S
C1573 N1571 1.356 . S
N1574 C1566 1.356 . S
N1574 H1580 0.984 . S
N1574 H1581 0.984 . S
N1575 C1568 1.356 . S
N1575 H1578 0.984 . S
N1575 H1579 0.985 . S
H1576 N1571 0.984 . S
H1577 N1571 0.985 . S
H1578 N1575 0.984 . S
H1579 N1575 0.985 . S
H1580 N1574 0.984 . S
H1581 N1574 0.984 . S
H1582 N1570 0.984 . S
H1583 N1570 0.985 . S
C1584 C1585 1.363 . S
C1584 C1590 1.379 . S
C1584 N1592 1.356 . S
C1585 C1584 1.363 . S
C1585 C1591 1.363 . S
C1586 C1587 1.363 . S
C1586 C1591 1.379 . S
C1586 N1593 1.356 . S
C1587 C1586 1.363 . S
C1587 C1590 1.363 . S
N1588 C1590 1.356 . S
N1588 H1600 0.984 . S
N1588 H1601 0.985 . S
N1589 C1591 1.356 . S
N1589 H1594 0.984 . S
N1589 H1595 0.985 . S
C1590 C1584 1.379 . S
C1590 C1587 1.363 . S
C1590 N1588 1.356 . S
C1591 C1585 1.363 . S
C1591 C1586 1.379 . S
C1591 N1589 1.356 . S
N1592 C1584 1.356 . S
N1592 H1598 0.984 . S
N1592 H1599 0.984 . S
N1593 C1586 1.356 . S
N1593 H1596 0.984 . S
N1593 H1597 0.985 . S
H1594 N1589 0.984 . S
H1595 N1589 0.985 . S
H1596 N1593 0.984 . S
H1597 N1593 0.985 . S
H1598 N1592 0.984 . S
H1599 N1592 0.984 . S
H1600 N1588 0.984 . S
H1601 N1588 0.985 . S
C1602 C1603 1.363 . S
C1602 C1608 1.379 . S
C1602 N1610 1.356 . S
C1603 C1602 1.363 . S
C1603 C1609 1.363 . S
C1604 C1605 1.363 . S
C1604 C1609 1.379 . S
C1604 N1611 1.356 . S
C1605 C1604 1.363 . S
C1605 C1608 1.363 . S
N1606 C1608 1.356 . S
N1606 H1618 0.984 . S
N1606 H1619 0.985 . S
N1607 C1609 1.356 . S
N1607 H1612 0.984 . S
N1607 H1613 0.985 . S
C1608 C1602 1.379 . S
C1608 C1605 1.363 . S
C1608 N1606 1.356 . S
C1609 C1603 1.363 . S
C1609 C1604 1.379 . S
C1609 N1607 1.356 . S
N1610 C1602 1.356 . S
N1610 H1616 0.984 . S
N1610 H1617 0.984 . S
N1611 C1604 1.356 . S
N1611 H1614 0.984 . S
N1611 H1615 0.985 . S
H1612 N1607 0.984 . S
H1613 N1607 0.985 . S
H1614 N1611 0.984 . S
H1615 N1611 0.985 . S
H1616 N1610 0.984 . S
H1617 N1610 0.984 . S
H1618 N1606 0.984 . S
H1619 N1606 0.985 . S
C1620 C1621 1.363 . S
C1620 C1626 1.379 . S
C1620 N1628 1.356 . S
C1621 C1620 1.363 . S
C1621 C1627 1.363 . S
C1622 C1623 1.363 . S
C1622 C1627 1.379 . S
C1622 N1629 1.356 . S
C1623 C1622 1.363 . S
C1623 C1626 1.363 . S
N1624 C1626 1.356 . S
N1624 H1636 0.984 . S
N1624 H1637 0.985 . S
N1625 C1627 1.356 . S
N1625 H1630 0.984 . S
N1625 H1631 0.985 . S
C1626 C1620 1.379 . S
C1626 C1623 1.363 . S
C1626 N1624 1.356 . S
C1627 C1621 1.363 . S
C1627 C1622 1.379 . S
C1627 N1625 1.356 . S
N1628 C1620 1.356 . S
N1628 H1634 0.984 . S
N1628 H1635 0.984 . S
N1629 C1622 1.356 . S
N1629 H1632 0.984 . S
N1629 H1633 0.985 . S
H1630 N1625 0.984 . S
H1631 N1625 0.985 . S
H1632 N1629 0.984 . S
H1633 N1629 0.985 . S
H1634 N1628 0.984 . S
H1635 N1628 0.984 . S
H1636 N1624 0.984 . S
H1637 N1624 0.985 . S
C1638 C1639 1.363 . S
C1638 C1644 1.379 . S
C1638 N1646 1.356 . S
C1639 C1638 1.363 . S
C1639 C1645 1.363 . S
C1640 C1641 1.363 . S
C1640 C1645 1.379 . S
C1640 N1647 1.356 . S
C1641 C1640 1.363 . S
C1641 C1644 1.363 . S
N1642 C1644 1.356 . S
N1642 H1654 0.984 . S
N1642 H1655 0.985 . S
N1643 C1645 1.356 . S
N1643 H1648 0.984 . S
N1643 H1649 0.985 . S
C1644 C1638 1.379 . S
C1644 C1641 1.363 . S
C1644 N1642 1.356 . S
C1645 C1639 1.363 . S
C1645 C1640 1.379 . S
C1645 N1643 1.356 . S
N1646 C1638 1.356 . S
N1646 H1652 0.984 . S
N1646 H1653 0.984 . S
N1647 C1640 1.356 . S
N1647 H1650 0.984 . S
N1647 H1651 0.985 . S
H1648 N1643 0.984 . S
H1649 N1643 0.985 . S
H1650 N1647 0.984 . S
H1651 N1647 0.985 . S
H1652 N1646 0.984 . S
H1653 N1646 0.984 . S
H1654 N1642 0.984 . S
H1655 N1642 0.985 . S
C1656 C1657 1.363 . S
C1656 C1662 1.379 . S
C1656 N1664 1.356 . S
C1657 C1656 1.363 . S
C1657 C1663 1.363 . S
C1658 C1659 1.363 . S
C1658 C1663 1.379 . S
C1658 N1665 1.356 . S
C1659 C1658 1.363 . S
C1659 C1662 1.363 . S
N1660 C1662 1.356 . S
N1660 H1672 0.984 . S
N1660 H1673 0.985 . S
N1661 C1663 1.356 . S
N1661 H1666 0.984 . S
N1661 H1667 0.985 . S
C1662 C1656 1.379 . S
C1662 C1659 1.363 . S
C1662 N1660 1.356 . S
C1663 C1657 1.363 . S
C1663 C1658 1.379 . S
C1663 N1661 1.356 . S
N1664 C1656 1.356 . S
N1664 H1670 0.984 . S
N1664 H1671 0.984 . S
N1665 C1658 1.356 . S
N1665 H1668 0.984 . S
N1665 H1669 0.985 . S
H1666 N1661 0.984 . S
H1667 N1661 0.985 . S
H1668 N1665 0.984 . S
H1669 N1665 0.985 . S
H1670 N1664 0.984 . S
H1671 N1664 0.984 . S
H1672 N1660 0.984 . S
H1673 N1660 0.985 . S
C1674 C1675 1.363 . S
C1674 C1680 1.379 1_655 S
C1674 N1682 1.356 . S
C1675 C1674 1.363 . S
C1675 C1681 1.363 1_554 S
C1676 C1677 1.363 1_556 S
C1676 C1681 1.379 1_455 S
C1676 N1683 1.356 . S
C1677 C1676 1.363 1_554 S
C1677 C1680 1.363 . S
N1678 C1680 1.356 . S
N1678 H1690 0.984 . S
N1678 H1691 0.985 . S
N1679 C1681 1.356 . S
N1679 H1684 0.984 . S
N1679 H1685 0.985 . S
C1680 C1674 1.379 1_455 S
C1680 C1677 1.363 . S
C1680 N1678 1.356 . S
C1681 C1675 1.363 1_556 S
C1681 C1676 1.379 1_655 S
C1681 N1679 1.356 . S
N1682 C1674 1.356 . S
N1682 H1688 0.984 . S
N1682 H1689 0.984 . S
N1683 C1676 1.356 . S
N1683 H1686 0.984 . S
N1683 H1687 0.985 . S
H1684 N1679 0.984 . S
H1685 N1679 0.985 . S
H1686 N1683 0.984 . S
H1687 N1683 0.985 . S
H1688 N1682 0.984 . S
H1689 N1682 0.984 . S
H1690 N1678 0.984 . S
H1691 N1678 0.985 . S
C1692 C1693 1.363 . S
C1692 C1698 1.379 . S
C1692 N1700 1.356 . S
C1693 C1692 1.363 . S
C1693 C1699 1.363 . S
C1694 C1695 1.363 . S
C1694 C1699 1.379 . S
C1694 N1701 1.356 . S
C1695 C1694 1.363 . S
C1695 C1698 1.363 . S
N1696 C1698 1.356 . S
N1696 H1708 0.984 . S
N1696 H1709 0.985 . S
N1697 C1699 1.356 . S
N1697 H1702 0.984 . S
N1697 H1703 0.985 . S
C1698 C1692 1.379 . S
C1698 C1695 1.363 . S
C1698 N1696 1.356 . S
C1699 C1693 1.363 . S
C1699 C1694 1.379 . S
C1699 N1697 1.356 . S
N1700 C1692 1.356 . S
N1700 H1706 0.984 . S
N1700 H1707 0.984 . S
N1701 C1694 1.356 . S
N1701 H1704 0.984 . S
N1701 H1705 0.985 . S
H1702 N1697 0.984 . S
H1703 N1697 0.985 . S
H1704 N1701 0.984 . S
H1705 N1701 0.985 . S
H1706 N1700 0.984 . S
H1707 N1700 0.984 . S
H1708 N1696 0.984 . S
H1709 N1696 0.985 . S
C1710 C1711 1.363 . S
C1710 C1716 1.379 1_455 S
C1710 N1718 1.356 1_556 S
C1711 C1710 1.363 . S
C1711 C1717 1.363 . S
C1712 C1713 1.363 . S
C1712 C1717 1.379 1_655 S
C1712 N1719 1.356 . S
C1713 C1712 1.363 . S
C1713 C1716 1.363 . S
N1714 C1716 1.356 1_554 S
N1714 H1726 0.984 . S
N1714 H1727 0.985 . S
N1715 C1717 1.356 . S
N1715 H1720 0.984 . S
N1715 H1721 0.985 . S
C1716 C1710 1.379 1_655 S
C1716 C1713 1.363 . S
C1716 N1714 1.356 1_556 S
C1717 C1711 1.363 . S
C1717 C1712 1.379 1_455 S
C1717 N1715 1.356 . S
N1718 C1710 1.356 1_554 S
N1718 H1724 0.984 . S
N1718 H1725 0.984 . S
N1719 C1712 1.356 . S
N1719 H1722 0.984 . S
N1719 H1723 0.985 . S
H1720 N1715 0.984 . S
H1721 N1715 0.985 . S
H1722 N1719 0.984 . S
H1723 N1719 0.985 . S
H1724 N1718 0.984 . S
H1725 N1718 0.984 . S
H1726 N1714 0.984 . S
H1727 N1714 0.985 . S
C1728 C1729 1.363 . S
C1728 C1734 1.379 . S
C1728 N1736 1.356 . S
C1729 C1728 1.363 . S
C1729 C1735 1.363 1_556 S
C1730 C1731 1.363 . S
C1730 C1735 1.379 . S
C1730 N1737 1.356 . S
C1731 C1730 1.363 . S
C1731 C1734 1.363 1_554 S
N1732 C1734 1.356 . S
N1732 H1744 0.984 . S
N1732 H1745 0.985 . S
N1733 C1735 1.356 . S
N1733 H1738 0.984 . S
N1733 H1739 0.985 . S
C1734 C1728 1.379 . S
C1734 C1731 1.363 1_556 S
C1734 N1732 1.356 . S
C1735 C1729 1.363 1_554 S
C1735 C1730 1.379 . S
C1735 N1733 1.356 . S
N1736 C1728 1.356 . S
N1736 H1742 0.984 . S
N1736 H1743 0.984 . S
N1737 C1730 1.356 . S
N1737 H1740 0.984 . S
N1737 H1741 0.985 . S
H1738 N1733 0.984 . S
H1739 N1733 0.985 . S
H1740 N1737 0.984 . S
H1741 N1737 0.985 . S
H1742 N1736 0.984 . S
H1743 N1736 0.984 . S
H1744 N1732 0.984 . S
H1745 N1732 0.985 . S
C1746 C1747 1.363 . S
C1746 C1752 1.379 . S
C1746 N1754 1.356 . S
C1747 C1746 1.363 . S
C1747 C1753 1.363 . S
C1748 C1749 1.363 . S
C1748 C1753 1.379 . S
C1748 N1755 1.356 . S
C1749 C1748 1.363 . S
C1749 C1752 1.363 . S
N1750 C1752 1.356 . S
N1750 H1762 0.984 . S
N1750 H1763 0.985 . S
N1751 C1753 1.356 . S
N1751 H1756 0.984 . S
N1751 H1757 0.985 . S
C1752 C1746 1.379 . S
C1752 C1749 1.363 . S
C1752 N1750 1.356 . S
C1753 C1747 1.363 . S
C1753 C1748 1.379 . S
C1753 N1751 1.356 . S
N1754 C1746 1.356 . S
N1754 H1760 0.984 . S
N1754 H1761 0.984 . S
N1755 C1748 1.356 . S
N1755 H1758 0.984 . S
N1755 H1759 0.985 . S
H1756 N1751 0.984 . S
H1757 N1751 0.985 . S
H1758 N1755 0.984 . S
H1759 N1755 0.985 . S
H1760 N1754 0.984 . S
H1761 N1754 0.984 . S
H1762 N1750 0.984 . S
H1763 N1750 0.985 . S
C1764 C1765 1.363 . S
C1764 C1770 1.379 . S
C1764 N1772 1.356 . S
C1765 C1764 1.363 . S
C1765 C1771 1.363 . S
C1766 C1767 1.363 . S
C1766 C1771 1.379 . S
C1766 N1773 1.356 . S
C1767 C1766 1.363 . S
C1767 C1770 1.363 . S
N1768 C1770 1.356 . S
N1768 H1780 0.984 . S
N1768 H1781 0.985 . S
N1769 C1771 1.356 . S
N1769 H1774 0.984 . S
N1769 H1775 0.985 . S
C1770 C1764 1.379 . S
C1770 C1767 1.363 . S
C1770 N1768 1.356 . S
C1771 C1765 1.363 . S
C1771 C1766 1.379 . S
C1771 N1769 1.356 . S
N1772 C1764 1.356 . S
N1772 H1778 0.984 . S
N1772 H1779 0.984 . S
N1773 C1766 1.356 . S
N1773 H1776 0.984 . S
N1773 H1777 0.985 . S
H1774 N1769 0.984 . S
H1775 N1769 0.985 . S
H1776 N1773 0.984 . S
H1777 N1773 0.985 . S
H1778 N1772 0.984 . S
H1779 N1772 0.984 . S
H1780 N1768 0.984 . S
H1781 N1768 0.985 . S
C1782 C1783 1.363 . S
C1782 C1788 1.379 . S
C1782 N1790 1.356 . S
C1783 C1782 1.363 . S
C1783 C1789 1.363 . S
C1784 C1785 1.363 . S
C1784 C1789 1.379 . S
C1784 N1791 1.356 . S
C1785 C1784 1.363 . S
C1785 C1788 1.363 . S
N1786 C1788 1.356 . S
N1786 H1798 0.984 . S
N1786 H1799 0.985 . S
N1787 C1789 1.356 . S
N1787 H1792 0.984 . S
N1787 H1793 0.985 . S
C1788 C1782 1.379 . S
C1788 C1785 1.363 . S
C1788 N1786 1.356 . S
C1789 C1783 1.363 . S
C1789 C1784 1.379 . S
C1789 N1787 1.356 . S
N1790 C1782 1.356 . S
N1790 H1796 0.984 . S
N1790 H1797 0.984 . S
N1791 C1784 1.356 . S
N1791 H1794 0.984 . S
N1791 H1795 0.985 . S
H1792 N1787 0.984 . S
H1793 N1787 0.985 . S
H1794 N1791 0.984 . S
H1795 N1791 0.985 . S
H1796 N1790 0.984 . S
H1797 N1790 0.984 . S
H1798 N1786 0.984 . S
H1799 N1786 0.985 . S
C1800 C1801 1.363 1_556 S
C1800 C1806 1.379 . S
C1800 N1808 1.356 . S
C1801 C1800 1.363 1_554 S
C1801 C1807 1.363 . S
C1802 C1803 1.363 1_554 S
C1802 C1807 1.379 . S
C1802 N1809 1.356 . S
C1803 C1802 1.363 1_556 S
C1803 C1806 1.363 . S
N1804 C1806 1.356 . S
N1804 H1816 0.984 . S
N1804 H1817 0.985 . S
N1805 C1807 1.356 . S
N1805 H1810 0.984 . S
N1805 H1811 0.985 . S
C1806 C1800 1.379 . S
C1806 C1803 1.363 . S
C1806 N1804 1.356 . S
C1807 C1801 1.363 . S
C1807 C1802 1.379 . S
C1807 N1805 1.356 . S
N1808 C1800 1.356 . S
N1808 H1814 0.984 . S
N1808 H1815 0.984 . S
N1809 C1802 1.356 . S
N1809 H1812 0.984 . S
N1809 H1813 0.985 . S
H1810 N1805 0.984 . S
H1811 N1805 0.985 . S
H1812 N1809 0.984 . S
H1813 N1809 0.985 . S
H1814 N1808 0.984 . S
H1815 N1808 0.984 . S
H1816 N1804 0.984 . S
H1817 N1804 0.985 . S
C1818 C1819 1.363 . S
C1818 C1824 1.379 . S
C1818 N1826 1.356 . S
C1819 C1818 1.363 . S
C1819 C1825 1.363 . S
C1820 C1821 1.363 . S
C1820 C1825 1.379 . S
C1820 N1827 1.356 . S
C1821 C1820 1.363 . S
C1821 C1824 1.363 . S
N1822 C1824 1.356 . S
N1822 H1834 0.984 . S
N1822 H1835 0.985 . S
N1823 C1825 1.356 . S
N1823 H1828 0.984 . S
N1823 H1829 0.985 . S
C1824 C1818 1.379 . S
C1824 C1821 1.363 . S
C1824 N1822 1.356 . S
C1825 C1819 1.363 . S
C1825 C1820 1.379 . S
C1825 N1823 1.356 . S
N1826 C1818 1.356 . S
N1826 H1832 0.984 . S
N1826 H1833 0.984 . S
N1827 C1820 1.356 . S
N1827 H1830 0.984 . S
N1827 H1831 0.985 . S
H1828 N1823 0.984 . S
H1829 N1823 0.985 . S
H1830 N1827 0.984 . S
H1831 N1827 0.985 . S
H1832 N1826 0.984 . S
H1833 N1826 0.984 . S
H1834 N1822 0.984 . S
H1835 N1822 0.985 . S
C1836 C1837 1.363 . S
C1836 C1842 1.379 . S
C1836 N1844 1.356 . S
C1837 C1836 1.363 . S
C1837 C1843 1.363 . S
C1838 C1839 1.363 . S
C1838 C1843 1.379 . S
C1838 N1845 1.356 . S
C1839 C1838 1.363 . S
C1839 C1842 1.363 . S
N1840 C1842 1.356 . S
N1840 H1852 0.984 . S
N1840 H1853 0.985 . S
N1841 C1843 1.356 . S
N1841 H1846 0.984 . S
N1841 H1847 0.985 . S
C1842 C1836 1.379 . S
C1842 C1839 1.363 . S
C1842 N1840 1.356 . S
C1843 C1837 1.363 . S
C1843 C1838 1.379 . S
C1843 N1841 1.356 . S
N1844 C1836 1.356 . S
N1844 H1850 0.984 . S
N1844 H1851 0.984 . S
N1845 C1838 1.356 . S
N1845 H1848 0.984 . S
N1845 H1849 0.985 . S
H1846 N1841 0.984 . S
H1847 N1841 0.985 . S
H1848 N1845 0.984 . S
H1849 N1845 0.985 . S
H1850 N1844 0.984 . S
H1851 N1844 0.984 . S
H1852 N1840 0.984 . S
H1853 N1840 0.985 . S
C1854 C1855 1.363 . S
C1854 C1860 1.379 . S
C1854 N1862 1.356 . S
C1855 C1854 1.363 . S
C1855 C1861 1.363 . S
C1856 C1857 1.363 . S
C1856 C1861 1.379 . S
C1856 N1863 1.356 . S
C1857 C1856 1.363 . S
C1857 C1860 1.363 . S
N1858 C1860 1.356 . S
N1858 H1870 0.984 . S
N1858 H1871 0.985 . S
N1859 C1861 1.356 . S
N1859 H1864 0.984 . S
N1859 H1865 0.985 . S
C1860 C1854 1.379 . S
C1860 C1857 1.363 . S
C1860 N1858 1.356 . S
C1861 C1855 1.363 . S
C1861 C1856 1.379 . S
C1861 N1859 1.356 . S
N1862 C1854 1.356 . S
N1862 H1868 0.984 . S
N1862 H1869 0.984 . S
N1863 C1856 1.356 . S
N1863 H1866 0.984 . S
N1863 H1867 0.985 . S
H1864 N1859 0.984 . S
H1865 N1859 0.985 . S
H1866 N1863 0.984 . S
H1867 N1863 0.985 . S
H1868 N1862 0.984 . S
H1869 N1862 0.984 . S
H1870 N1858 0.984 . S
H1871 N1858 0.985 . S
C1872 C1873 1.363 . S
C1872 C1878 1.379 1_545 S
C1872 N1880 1.356 . S
C1873 C1872 1.363 . S
C1873 C1879 1.363 . S
C1874 C1875 1.363 . S
C1874 C1879 1.379 1_565 S
C1874 N1881 1.356 . S
C1875 C1874 1.363 . S
C1875 C1878 1.363 . S
N1876 C1878 1.356 . S
N1876 H1888 0.984 . S
N1876 H1889 0.985 . S
N1877 C1879 1.356 . S
N1877 H1882 0.984 . S
N1877 H1883 0.985 . S
C1878 C1872 1.379 1_565 S
C1878 C1875 1.363 . S
C1878 N1876 1.356 . S
C1879 C1873 1.363 . S
C1879 C1874 1.379 1_545 S
C1879 N1877 1.356 . S
N1880 C1872 1.356 . S
N1880 H1886 0.984 . S
N1880 H1887 0.984 . S
N1881 C1874 1.356 . S
N1881 H1884 0.984 . S
N1881 H1885 0.985 . S
H1882 N1877 0.984 . S
H1883 N1877 0.985 . S
H1884 N1881 0.984 . S
H1885 N1881 0.985 . S
H1886 N1880 0.984 . S
H1887 N1880 0.984 . S
H1888 N1876 0.984 . S
H1889 N1876 0.985 . S
C1890 C1891 1.363 . S
C1890 C1896 1.379 . S
C1890 N1898 1.356 . S
C1891 C1890 1.363 . S
C1891 C1897 1.363 . S
C1892 C1893 1.363 . S
C1892 C1897 1.379 . S
C1892 N1899 1.356 . S
C1893 C1892 1.363 . S
C1893 C1896 1.363 . S
N1894 C1896 1.356 . S
N1894 H1906 0.984 . S
N1894 H1907 0.985 . S
N1895 C1897 1.356 . S
N1895 H1900 0.984 . S
N1895 H1901 0.985 . S
C1896 C1890 1.379 . S
C1896 C1893 1.363 . S
C1896 N1894 1.356 . S
C1897 C1891 1.363 . S
C1897 C1892 1.379 . S
C1897 N1895 1.356 . S
N1898 C1890 1.356 . S
N1898 H1904 0.984 . S
N1898 H1905 0.984 . S
N1899 C1892 1.356 . S
N1899 H1902 0.984 . S
N1899 H1903 0.985 . S
H1900 N1895 0.984 . S
H1901 N1895 0.985 . S
H1902 N1899 0.984 . S
H1903 N1899 0.985 . S
H1904 N1898 0.984 . S
H1905 N1898 0.984 . S
H1906 N1894 0.984 . S
H1907 N1894 0.985 . S
C1908 C1909 1.363 1_556 S
C1908 C1914 1.379 1_565 S
C1908 N1916 1.356 . S
C1909 C1908 1.363 1_554 S
C1909 C1915 1.363 . S
C1910 C1911 1.363 1_554 S
C1910 C1915 1.379 1_545 S
C1910 N1917 1.356 . S
C1911 C1910 1.363 1_556 S
C1911 C1914 1.363 . S
N1912 C1914 1.356 . S
N1912 H1924 0.984 . S
N1912 H1925 0.985 . S
N1913 C1915 1.356 . S
N1913 H1918 0.984 . S
N1913 H1919 0.985 . S
C1914 C1908 1.379 1_545 S
C1914 C1911 1.363 . S
C1914 N1912 1.356 . S
C1915 C1909 1.363 . S
C1915 C1910 1.379 1_565 S
C1915 N1913 1.356 . S
N1916 C1908 1.356 . S
N1916 H1922 0.984 . S
N1916 H1923 0.984 . S
N1917 C1910 1.356 . S
N1917 H1920 0.984 . S
N1917 H1921 0.985 . S
H1918 N1913 0.984 . S
H1919 N1913 0.985 . S
H1920 N1917 0.984 . S
H1921 N1917 0.985 . S
H1922 N1916 0.984 . S
H1923 N1916 0.984 . S
H1924 N1912 0.984 . S
H1925 N1912 0.985 . S
C1926 C1927 1.363 . S
C1926 C1932 1.379 . S
C1926 N1934 1.356 . S
C1927 C1926 1.363 . S
C1927 C1933 1.363 . S
C1928 C1929 1.363 . S
C1928 C1933 1.379 . S
C1928 N1935 1.356 . S
C1929 C1928 1.363 . S
C1929 C1932 1.363 . S
N1930 C1932 1.356 . S
N1930 H1942 0.984 . S
N1930 H1943 0.985 . S
N1931 C1933 1.356 . S
N1931 H1936 0.984 . S
N1931 H1937 0.985 . S
C1932 C1926 1.379 . S
C1932 C1929 1.363 . S
C1932 N1930 1.356 . S
C1933 C1927 1.363 . S
C1933 C1928 1.379 . S
C1933 N1931 1.356 . S
N1934 C1926 1.356 . S
N1934 H1940 0.984 . S
N1934 H1941 0.984 . S
N1935 C1928 1.356 . S
N1935 H1938 0.984 . S
N1935 H1939 0.985 . S
H1936 N1931 0.984 . S
H1937 N1931 0.985 . S
H1938 N1935 0.984 . S
H1939 N1935 0.985 . S
H1940 N1934 0.984 . S
H1941 N1934 0.984 . S
H1942 N1930 0.984 . S
H1943 N1930 0.985 . S
C1944 C1945 1.363 . S
C1944 C1950 1.379 1_545 S
C1944 N1952 1.356 . S
C1945 C1944 1.363 . S
C1945 C1951 1.363 . S
C1946 C1947 1.363 . S
C1946 C1951 1.379 1_565 S
C1946 N1953 1.356 . S
C1947 C1946 1.363 . S
C1947 C1950 1.363 . S
N1948 C1950 1.356 . S
N1948 H1960 0.984 . S
N1948 H1961 0.985 . S
N1949 C1951 1.356 . S
N1949 H1954 0.984 . S
N1949 H1955 0.985 . S
C1950 C1944 1.379 1_565 S
C1950 C1947 1.363 . S
C1950 N1948 1.356 . S
C1951 C1945 1.363 . S
C1951 C1946 1.379 1_545 S
C1951 N1949 1.356 . S
N1952 C1944 1.356 . S
N1952 H1958 0.984 . S
N1952 H1959 0.984 . S
N1953 C1946 1.356 . S
N1953 H1956 0.984 . S
N1953 H1957 0.985 . S
H1954 N1949 0.984 . S
H1955 N1949 0.985 . S
H1956 N1953 0.984 . S
H1957 N1953 0.985 . S
H1958 N1952 0.984 . S
H1959 N1952 0.984 . S
H1960 N1948 0.984 . S
H1961 N1948 0.985 . S
C1962 C1963 1.363 . S
C1962 C1968 1.379 . S
C1962 N1970 1.356 . S
C1963 C1962 1.363 . S
C1963 C1969 1.363 . S
C1964 C1965 1.363 . S
C1964 C1969 1.379 . S
C1964 N1971 1.356 . S
C1965 C1964 1.363 . S
C1965 C1968 1.363 . S
N1966 C1968 1.356 . S
N1966 H1978 0.984 . S
N1966 H1979 0.985 . S
N1967 C1969 1.356 . S
N1967 H1972 0.984 . S
N1967 H1973 0.985 . S
C1968 C1962 1.379 . S
C1968 C1965 1.363 . S
C1968 N1966 1.356 . S
C1969 C1963 1.363 . S
C1969 C1964 1.379 . S
C1969 N1967 1.356 . S
N1970 C1962 1.356 . S
N1970 H1976 0.984 . S
N1970 H1977 0.984 . S
N1971 C1964 1.356 . S
N1971 H1974 0.984 . S
N1971 H1975 0.985 . S
H1972 N1967 0.984 . S
H1973 N1967 0.985 . S
H1974 N1971 0.984 . S
H1975 N1971 0.985 . S
H1976 N1970 0.984 . S
H1977 N1970 0.984 . S
H1978 N1966 0.984 . S
H1979 N1966 0.985 . S
C1980 C1981 1.363 . S
C1980 C1986 1.379 1_565 S
C1980 N1988 1.356 . S
C1981 C1980 1.363 . S
C1981 C1987 1.363 1_554 S
C1982 C1983 1.363 . S
C1982 C1987 1.379 1_545 S
C1982 N1989 1.356 . S
C1983 C1982 1.363 . S
C1983 C1986 1.363 1_556 S
N1984 C1986 1.356 . S
N1984 H1996 0.984 . S
N1984 H1997 0.985 . S
N1985 C1987 1.356 . S
N1985 H1990 0.984 . S
N1985 H1991 0.985 . S
C1986 C1980 1.379 1_545 S
C1986 C1983 1.363 1_554 S
C1986 N1984 1.356 . S
C1987 C1981 1.363 1_556 S
C1987 C1982 1.379 1_565 S
C1987 N1985 1.356 . S
N1988 C1980 1.356 . S
N1988 H1994 0.984 . S
N1988 H1995 0.984 . S
N1989 C1982 1.356 . S
N1989 H1992 0.984 . S
N1989 H1993 0.985 . S
H1990 N1985 0.984 . S
H1991 N1985 0.985 . S
H1992 N1989 0.984 . S
H1993 N1989 0.985 . S
H1994 N1988 0.984 . S
H1995 N1988 0.984 . S
H1996 N1984 0.984 . S
H1997 N1984 0.985 . S
C1998 C1999 1.363 . S
C1998 C2004 1.379 . S
C1998 N2006 1.356 . S
C1999 C1998 1.363 . S
C1999 C2005 1.363 . S
C2000 C2001 1.363 . S
C2000 C2005 1.379 . S
C2000 N2007 1.356 . S
C2001 C2000 1.363 . S
C2001 C2004 1.363 . S
N2002 C2004 1.356 . S
N2002 H2014 0.984 . S
N2002 H2015 0.985 . S
N2003 C2005 1.356 . S
N2003 H2008 0.984 . S
N2003 H2009 0.985 . S
C2004 C1998 1.379 . S
C2004 C2001 1.363 . S
C2004 N2002 1.356 . S
C2005 C1999 1.363 . S
C2005 C2000 1.379 . S
C2005 N2003 1.356 . S
N2006 C1998 1.356 . S
N2006 H2012 0.984 . S
N2006 H2013 0.984 . S
N2007 C2000 1.356 . S
N2007 H2010 0.984 . S
N2007 H2011 0.985 . S
H2008 N2003 0.984 . S
H2009 N2003 0.985 . S
H2010 N2007 0.984 . S
H2011 N2007 0.985 . S
H2012 N2006 0.984 . S
H2013 N2006 0.984 . S
H2014 N2002 0.984 . S
H2015 N2002 0.985 . S
C2016 C2017 1.363 1_556 S
C2016 C2022 1.379 . S
C2016 N2024 1.356 . S
C2017 C2016 1.363 1_554 S
C2017 C2023 1.363 . S
C2018 C2019 1.363 . S
C2018 C2023 1.379 . S
C2018 N2025 1.356 . S
C2019 C2018 1.363 . S
C2019 C2022 1.363 1_554 S
N2020 C2022 1.356 . S
N2020 H2032 0.984 . S
N2020 H2033 0.985 . S
N2021 C2023 1.356 . S
N2021 H2026 0.984 . S
N2021 H2027 0.985 . S
C2022 C2016 1.379 . S
C2022 C2019 1.363 1_556 S
C2022 N2020 1.356 . S
C2023 C2017 1.363 . S
C2023 C2018 1.379 . S
C2023 N2021 1.356 . S
N2024 C2016 1.356 . S
N2024 H2030 0.984 . S
N2024 H2031 0.984 . S
N2025 C2018 1.356 . S
N2025 H2028 0.984 . S
N2025 H2029 0.985 . S
H2026 N2021 0.984 . S
H2027 N2021 0.985 . S
H2028 N2025 0.984 . S
H2029 N2025 0.985 . S
H2030 N2024 0.984 . S
H2031 N2024 0.984 . S
H2032 N2020 0.984 . S
H2033 N2020 0.985 . S
C2034 C2035 1.363 . S
C2034 C2040 1.379 . S
C2034 N2042 1.356 . S
C2035 C2034 1.363 . S
C2035 C2041 1.363 . S
C2036 C2037 1.363 . S
C2036 C2041 1.379 . S
C2036 N2043 1.356 . S
C2037 C2036 1.363 . S
C2037 C2040 1.363 . S
N2038 C2040 1.356 . S
N2038 H2050 0.984 . S
N2038 H2051 0.985 . S
N2039 C2041 1.356 . S
N2039 H2044 0.984 . S
N2039 H2045 0.985 . S
C2040 C2034 1.379 . S
C2040 C2037 1.363 . S
C2040 N2038 1.356 . S
C2041 C2035 1.363 . S
C2041 C2036 1.379 . S
C2041 N2039 1.356 . S
N2042 C2034 1.356 . S
N2042 H2048 0.984 . S
N2042 H2049 0.984 . S
N2043 C2036 1.356 . S
N2043 H2046 0.984 . S
N2043 H2047 0.985 . S
H2044 N2039 0.984 . S
H2045 N2039 0.985 . S
H2046 N2043 0.984 . S
H2047 N2043 0.985 . S
H2048 N2042 0.984 . S
H2049 N2042 0.984 . S
H2050 N2038 0.984 . S
H2051 N2038 0.985 . S
C2052 C2053 1.363 . S
C2052 C2058 1.379 . S
C2052 N2060 1.356 . S
C2053 C2052 1.363 . S
C2053 C2059 1.363 . S
C2054 C2055 1.363 . S
C2054 C2059 1.379 . S
C2054 N2061 1.356 . S
C2055 C2054 1.363 . S
C2055 C2058 1.363 . S
N2056 C2058 1.356 . S
N2056 H2068 0.984 . S
N2056 H2069 0.985 . S
N2057 C2059 1.356 . S
N2057 H2062 0.984 . S
N2057 H2063 0.985 . S
C2058 C2052 1.379 . S
C2058 C2055 1.363 . S
C2058 N2056 1.356 . S
C2059 C2053 1.363 . S
C2059 C2054 1.379 . S
C2059 N2057 1.356 . S
N2060 C2052 1.356 . S
N2060 H2066 0.984 . S
N2060 H2067 0.984 . S
N2061 C2054 1.356 . S
N2061 H2064 0.984 . S
N2061 H2065 0.985 . S
H2062 N2057 0.984 . S
H2063 N2057 0.985 . S
H2064 N2061 0.984 . S
H2065 N2061 0.985 . S
H2066 N2060 0.984 . S
H2067 N2060 0.984 . S
H2068 N2056 0.984 . S
H2069 N2056 0.985 . S
C2070 C2071 1.363 . S
C2070 C2076 1.379 1_655 S
C2070 N2078 1.356 . S
C2071 C2070 1.363 . S
C2071 C2077 1.363 . S
C2072 C2073 1.363 . S
C2072 C2077 1.379 1_455 S
C2072 N2079 1.356 . S
C2073 C2072 1.363 . S
C2073 C2076 1.363 . S
N2074 C2076 1.356 . S
N2074 H2086 0.984 . S
N2074 H2087 0.985 . S
N2075 C2077 1.356 . S
N2075 H2080 0.984 . S
N2075 H2081 0.985 . S
C2076 C2070 1.379 1_455 S
C2076 C2073 1.363 . S
C2076 N2074 1.356 . S
C2077 C2071 1.363 . S
C2077 C2072 1.379 1_655 S
C2077 N2075 1.356 . S
N2078 C2070 1.356 . S
N2078 H2084 0.984 . S
N2078 H2085 0.984 . S
N2079 C2072 1.356 . S
N2079 H2082 0.984 . S
N2079 H2083 0.985 . S
H2080 N2075 0.984 . S
H2081 N2075 0.985 . S
H2082 N2079 0.984 . S
H2083 N2079 0.985 . S
H2084 N2078 0.984 . S
H2085 N2078 0.984 . S
H2086 N2074 0.984 . S
H2087 N2074 0.985 . S
C2088 C2089 1.363 . S
C2088 C2094 1.379 . S
C2088 N2096 1.356 . S
C2089 C2088 1.363 . S
C2089 C2095 1.363 1_556 S
C2090 C2091 1.363 1_554 S
C2090 C2095 1.379 . S
C2090 N2097 1.356 . S
C2091 C2090 1.363 1_556 S
C2091 C2094 1.363 . S
N2092 C2094 1.356 . S
N2092 H2104 0.984 . S
N2092 H2105 0.985 . S
N2093 C2095 1.356 . S
N2093 H2098 0.984 . S
N2093 H2099 0.985 . S
C2094 C2088 1.379 . S
C2094 C2091 1.363 . S
C2094 N2092 1.356 . S
C2095 C2089 1.363 1_554 S
C2095 C2090 1.379 . S
C2095 N2093 1.356 . S
N2096 C2088 1.356 . S
N2096 H2102 0.984 . S
N2096 H2103 0.984 . S
N2097 C2090 1.356 . S
N2097 H2100 0.984 . S
N2097 H2101 0.985 . S
H2098 N2093 0.984 . S
H2099 N2093 0.985 . S
H2100 N2097 0.984 . S
H2101 N2097 0.985 . S
H2102 N2096 0.984 . S
H2103 N2096 0.984 . S
H2104 N2092 0.984 . S
H2105 N2092 0.985 . S
C2106 C2107 1.363 . S
C2106 C2112 1.379 1_655 S
C2106 N2114 1.356 . S
C2107 C2106 1.363 . S
C2107 C2113 1.363 . S
C2108 C2109 1.363 . S
C2108 C2113 1.379 1_455 S
C2108 N2115 1.356 . S
C2109 C2108 1.363 . S
C2109 C2112 1.363 . S
N2110 C2112 1.356 . S
N2110 H2122 0.984 . S
N2110 H2123 0.985 . S
N2111 C2113 1.356 . S
N2111 H2116 0.984 . S
N2111 H2117 0.985 . S
C2112 C2106 1.379 1_455 S
C2112 C2109 1.363 . S
C2112 N2110 1.356 . S
C2113 C2107 1.363 . S
C2113 C2108 1.379 1_655 S
C2113 N2111 1.356 . S
N2114 C2106 1.356 . S
N2114 H2120 0.984 . S
N2114 H2121 0.984 . S
N2115 C2108 1.356 . S
N2115 H2118 0.984 . S
N2115 H2119 0.985 . S
H2116 N2111 0.984 . S
H2117 N2111 0.985 . S
H2118 N2115 0.984 . S
H2119 N2115 0.985 . S
H2120 N2114 0.984 . S
H2121 N2114 0.984 . S
H2122 N2110 0.984 . S
H2123 N2110 0.985 . S
C2124 C2125 1.363 . S
C2124 C2130 1.379 . S
C2124 N2132 1.356 . S
C2125 C2124 1.363 . S
C2125 C2131 1.363 . S
C2126 C2127 1.363 . S
C2126 C2131 1.379 . S
C2126 N2133 1.356 . S
C2127 C2126 1.363 . S
C2127 C2130 1.363 . S
N2128 C2130 1.356 . S
N2128 H2140 0.984 . S
N2128 H2141 0.985 . S
N2129 C2131 1.356 . S
N2129 H2134 0.984 . S
N2129 H2135 0.985 . S
C2130 C2124 1.379 . S
C2130 C2127 1.363 . S
C2130 N2128 1.356 . S
C2131 C2125 1.363 . S
C2131 C2126 1.379 . S
C2131 N2129 1.356 . S
N2132 C2124 1.356 . S
N2132 H2138 0.984 . S
N2132 H2139 0.984 . S
N2133 C2126 1.356 . S
N2133 H2136 0.984 . S
N2133 H2137 0.985 . S
H2134 N2129 0.984 . S
H2135 N2129 0.985 . S
H2136 N2133 0.984 . S
H2137 N2133 0.985 . S
H2138 N2132 0.984 . S
H2139 N2132 0.984 . S
H2140 N2128 0.984 . S
H2141 N2128 0.985 . S
C2142 C2143 1.363 . S
C2142 C2148 1.379 . S
C2142 N2150 1.356 . S
C2143 C2142 1.363 . S
C2143 C2149 1.363 . S
C2144 C2145 1.363 . S
C2144 C2149 1.379 . S
C2144 N2151 1.356 . S
C2145 C2144 1.363 . S
C2145 C2148 1.363 . S
N2146 C2148 1.356 . S
N2146 H2158 0.984 . S
N2146 H2159 0.985 . S
N2147 C2149 1.356 . S
N2147 H2152 0.984 . S
N2147 H2153 0.985 . S
C2148 C2142 1.379 . S
C2148 C2145 1.363 . S
C2148 N2146 1.356 . S
C2149 C2143 1.363 . S
C2149 C2144 1.379 . S
C2149 N2147 1.356 . S
N2150 C2142 1.356 . S
N2150 H2156 0.984 . S
N2150 H2157 0.984 . S
N2151 C2144 1.356 . S
N2151 H2154 0.984 . S
N2151 H2155 0.985 . S
H2152 N2147 0.984 . S
H2153 N2147 0.985 . S
H2154 N2151 0.984 . S
H2155 N2151 0.985 . S
H2156 N2150 0.984 . S
H2157 N2150 0.984 . S
H2158 N2146 0.984 . S
H2159 N2146 0.985 . S
C2160 C2161 1.363 1_554 S
C2160 C2166 1.379 . S
C2160 N2168 1.356 . S
C2161 C2160 1.363 1_556 S
C2161 C2167 1.363 . S
C2162 C2163 1.363 . S
C2162 C2167 1.379 . S
C2162 N2169 1.356 . S
C2163 C2162 1.363 . S
C2163 C2166 1.363 1_556 S
N2164 C2166 1.356 . S
N2164 H2176 0.984 . S
N2164 H2177 0.985 . S
N2165 C2167 1.356 . S
N2165 H2170 0.984 . S
N2165 H2171 0.985 . S
C2166 C2160 1.379 . S
C2166 C2163 1.363 1_554 S
C2166 N2164 1.356 . S
C2167 C2161 1.363 . S
C2167 C2162 1.379 . S
C2167 N2165 1.356 . S
N2168 C2160 1.356 . S
N2168 H2174 0.984 . S
N2168 H2175 0.984 . S
N2169 C2162 1.356 . S
N2169 H2172 0.984 . S
N2169 H2173 0.985 . S
H2170 N2165 0.984 . S
H2171 N2165 0.985 . S
H2172 N2169 0.984 . S
H2173 N2169 0.985 . S
H2174 N2168 0.984 . S
H2175 N2168 0.984 . S
H2176 N2164 0.984 . S
H2177 N2164 0.985 . S
C2178 C2179 1.363 . S
C2178 C2184 1.379 . S
C2178 N2186 1.356 . S
C2179 C2178 1.363 . S
C2179 C2185 1.363 . S
C2180 C2181 1.363 . S
C2180 C2185 1.379 . S
C2180 N2187 1.356 . S
C2181 C2180 1.363 . S
C2181 C2184 1.363 . S
N2182 C2184 1.356 . S
N2182 H2194 0.984 . S
N2182 H2195 0.985 . S
N2183 C2185 1.356 . S
N2183 H2188 0.984 . S
N2183 H2189 0.985 . S
C2184 C2178 1.379 . S
C2184 C2181 1.363 . S
C2184 N2182 1.356 . S
C2185 C2179 1.363 . S
C2185 C2180 1.379 . S
C2185 N2183 1.356 . S
N2186 C2178 1.356 . S
N2186 H2192 0.984 . S
N2186 H2193 0.984 . S
N2187 C2180 1.356 . S
N2187 H2190 0.984 . S
N2187 H2191 0.985 . S
H2188 N2183 0.984 . S
H2189 N2183 0.985 . S
H2190 N2187 0.984 . S
H2191 N2187 0.985 . S
H2192 N2186 0.984 . S
H2193 N2186 0.984 . S
H2194 N2182 0.984 . S
H2195 N2182 0.985 . S
C2196 C2197 1.363 1_556 S
C2196 C2202 1.379 . S
C2196 N2204 1.356 . S
C2197 C2196 1.363 1_554 S
C2197 C2203 1.363 . S
C2198 C2199 1.363 . S
C2198 C2203 1.379 . S
C2198 N2205 1.356 . S
C2199 C2198 1.363 . S
C2199 C2202 1.363 1_554 S
N2200 C2202 1.356 . S
N2200 H2212 0.984 . S
N2200 H2213 0.985 . S
N2201 C2203 1.356 . S
N2201 H2206 0.984 . S
N2201 H2207 0.985 . S
C2202 C2196 1.379 . S
C2202 C2199 1.363 1_556 S
C2202 N2200 1.356 . S
C2203 C2197 1.363 . S
C2203 C2198 1.379 . S
C2203 N2201 1.356 . S
N2204 C2196 1.356 . S
N2204 H2210 0.984 . S
N2204 H2211 0.984 . S
N2205 C2198 1.356 . S
N2205 H2208 0.984 . S
N2205 H2209 0.985 . S
H2206 N2201 0.984 . S
H2207 N2201 0.985 . S
H2208 N2205 0.984 . S
H2209 N2205 0.985 . S
H2210 N2204 0.984 . S
H2211 N2204 0.984 . S
H2212 N2200 0.984 . S
H2213 N2200 0.985 . S
C2214 C2215 1.363 . S
C2214 C2220 1.379 . S
C2214 N2222 1.356 . S
C2215 C2214 1.363 . S
C2215 C2221 1.363 . S
C2216 C2217 1.363 . S
C2216 C2221 1.379 . S
C2216 N2223 1.356 . S
C2217 C2216 1.363 . S
C2217 C2220 1.363 . S
N2218 C2220 1.356 . S
N2218 H2230 0.984 . S
N2218 H2231 0.985 . S
N2219 C2221 1.356 . S
N2219 H2224 0.984 . S
N2219 H2225 0.985 . S
C2220 C2214 1.379 . S
C2220 C2217 1.363 . S
C2220 N2218 1.356 . S
C2221 C2215 1.363 . S
C2221 C2216 1.379 . S
C2221 N2219 1.356 . S
N2222 C2214 1.356 . S
N2222 H2228 0.984 . S
N2222 H2229 0.984 . S
N2223 C2216 1.356 . S
N2223 H2226 0.984 . S
N2223 H2227 0.985 . S
H2224 N2219 0.984 . S
H2225 N2219 0.985 . S
H2226 N2223 0.984 . S
H2227 N2223 0.985 . S
H2228 N2222 0.984 . S
H2229 N2222 0.984 . S
H2230 N2218 0.984 . S
H2231 N2218 0.985 . S
C2232 C2233 1.363 . S
C2232 C2238 1.379 1_655 S
C2232 N2240 1.356 . S
C2233 C2232 1.363 . S
C2233 C2239 1.363 . S
C2234 C2235 1.363 . S
C2234 C2239 1.379 1_455 S
C2234 N2241 1.356 . S
C2235 C2234 1.363 . S
C2235 C2238 1.363 . S
N2236 C2238 1.356 . S
N2236 H2248 0.984 . S
N2236 H2249 0.985 . S
N2237 C2239 1.356 . S
N2237 H2242 0.984 . S
N2237 H2243 0.985 . S
C2238 C2232 1.379 1_455 S
C2238 C2235 1.363 . S
C2238 N2236 1.356 . S
C2239 C2233 1.363 . S
C2239 C2234 1.379 1_655 S
C2239 N2237 1.356 . S
N2240 C2232 1.356 . S
N2240 H2246 0.984 . S
N2240 H2247 0.984 . S
N2241 C2234 1.356 . S
N2241 H2244 0.984 . S
N2241 H2245 0.985 . S
H2242 N2237 0.984 . S
H2243 N2237 0.985 . S
H2244 N2241 0.984 . S
H2245 N2241 0.985 . S
H2246 N2240 0.984 . S
H2247 N2240 0.984 . S
H2248 N2236 0.984 . S
H2249 N2236 0.985 . S
C2250 C2251 1.363 . S
C2250 C2256 1.379 . S
C2250 N2258 1.356 . S
C2251 C2250 1.363 . S
C2251 C2257 1.363 . S
C2252 C2253 1.363 . S
C2252 C2257 1.379 . S
C2252 N2259 1.356 . S
C2253 C2252 1.363 . S
C2253 C2256 1.363 . S
N2254 C2256 1.356 . S
N2254 H2266 0.984 . S
N2254 H2267 0.985 . S
N2255 C2257 1.356 . S
N2255 H2260 0.984 . S
N2255 H2261 0.985 . S
C2256 C2250 1.379 . S
C2256 C2253 1.363 . S
C2256 N2254 1.356 . S
C2257 C2251 1.363 . S
C2257 C2252 1.379 . S
C2257 N2255 1.356 . S
N2258 C2250 1.356 . S
N2258 H2264 0.984 . S
N2258 H2265 0.984 . S
N2259 C2252 1.356 . S
N2259 H2262 0.984 . S
N2259 H2263 0.985 . S
H2260 N2255 0.984 . S
H2261 N2255 0.985 . S
H2262 N2259 0.984 . S
H2263 N2259 0.985 . S
H2264 N2258 0.984 . S
H2265 N2258 0.984 . S
H2266 N2254 0.984 . S
H2267 N2254 0.985 . S
C2268 C2269 1.363 . S
C2268 C2274 1.379 . S
C2268 N2276 1.356 . S
C2269 C2268 1.363 . S
C2269 C2275 1.363 . S
C2270 C2271 1.363 . S
C2270 C2275 1.379 . S
C2270 N2277 1.356 . S
C2271 C2270 1.363 . S
C2271 C2274 1.363 . S
N2272 C2274 1.356 . S
N2272 H2284 0.984 . S
N2272 H2285 0.985 . S
N2273 C2275 1.356 . S
N2273 H2278 0.984 . S
N2273 H2279 0.985 . S
C2274 C2268 1.379 . S
C2274 C2271 1.363 . S
C2274 N2272 1.356 . S
C2275 C2269 1.363 . S
C2275 C2270 1.379 . S
C2275 N2273 1.356 . S
N2276 C2268 1.356 . S
N2276 H2282 0.984 . S
N2276 H2283 0.984 . S
N2277 C2270 1.356 . S
N2277 H2280 0.984 . S
N2277 H2281 0.985 . S
H2278 N2273 0.984 . S
H2279 N2273 0.985 . S
H2280 N2277 0.984 . S
H2281 N2277 0.985 . S
H2282 N2276 0.984 . S
H2283 N2276 0.984 . S
H2284 N2272 0.984 . S
H2285 N2272 0.985 . S
C2286 C2287 1.363 . S
C2286 C2292 1.379 1_655 S
C2286 N2294 1.356 . S
C2287 C2286 1.363 . S
C2287 C2293 1.363 . S
C2288 C2289 1.363 . S
C2288 C2293 1.379 1_455 S
C2288 N2295 1.356 . S
C2289 C2288 1.363 . S
C2289 C2292 1.363 . S
N2290 C2292 1.356 . S
N2290 H2302 0.984 . S
N2290 H2303 0.985 . S
N2291 C2293 1.356 . S
N2291 H2296 0.984 . S
N2291 H2297 0.985 . S
C2292 C2286 1.379 1_455 S
C2292 C2289 1.363 . S
C2292 N2290 1.356 . S
C2293 C2287 1.363 . S
C2293 C2288 1.379 1_655 S
C2293 N2291 1.356 . S
N2294 C2286 1.356 . S
N2294 H2300 0.984 . S
N2294 H2301 0.984 . S
N2295 C2288 1.356 . S
N2295 H2298 0.984 . S
N2295 H2299 0.985 . S
H2296 N2291 0.984 . S
H2297 N2291 0.985 . S
H2298 N2295 0.984 . S
H2299 N2295 0.985 . S
H2300 N2294 0.984 . S
H2301 N2294 0.984 . S
H2302 N2290 0.984 . S
H2303 N2290 0.985 . S
C1153 C842 1.561 . S
C1155 C14 1.561 . S
C1171 C734 1.561 . S
C1173 C50 1.561 . S
C1189 C770 1.561 . S
C1191 C86 1.561 . S
C1207 C806 1.561 . S
C1209 C122 1.561 . S
C1225 C158 1.561 . S
C1227 C626 1.561 . S
C1243 C662 1.561 . S
C1245 C194 1.561 . S
C1261 C230 1.561 . S
C1263 C698 1.561 . S
C1279 C266 1.561 . S
C1281 C590 1.561 . S
C1297 C1130 1.561 . S
C1299 C302 1.561 . S
C1315 C338 1.561 . S
C1317 C1022 1.561 . S
C1333 C374 1.561 . S
C1335 C1058 1.561 . S
C1351 C410 1.561 . S
C1353 C1094 1.561 . S
C1369 C446 1.561 . S
C1371 C914 1.561 . S
C1387 C482 1.561 . S
C1389 C950 1.561 . S
C1405 C518 1.561 . S
C1407 C986 1.561 . S
C1423 C554 1.561 . S
C1425 C878 1.561 . S
C1441 C2 1.497 . S
C1443 C434 1.497 . S
C1459 C1046 1.497 . S
C1461 C38 1.497 . S
C1477 C74 1.497 . S
C1479 C506 1.497 . S
C1495 C1118 1.497 . S
C1497 C110 1.497 . S
C1513 C290 1.497 . S
C1515 C146 1.497 . S
C1531 C182 1.497 . S
C1533 C902 1.497 . S
C1549 C218 1.497 . S
C1551 C362 1.497 . S
C1567 C254 1.497 . S
C1569 C974 1.497 . S
C1585 C758 1.497 . S
C1587 C326 1.497 . S
C1603 C830 1.497 . S
C1605 C398 1.497 . S
C1621 C470 1.497 . S
C1623 C614 1.497 . S
C1639 C686 1.497 . S
C1641 C542 1.497 . S
C1657 C1010 1.497 . S
C1659 C578 1.497 . S
C1675 C650 1.497 . S
C1677 C1082 1.497 . S
C1693 C866 1.497 . S
C1695 C722 1.497 . S
C1711 C938 1.497 . S
C1713 C794 1.497 . S
C1729 C147 1.351 . S
C1731 C3 1.351 . S
C1747 C183 1.351 . S
C1749 C39 1.351 . S
C1765 C75 1.351 . S
C1767 C219 1.351 . S
C1783 C111 1.351 . S
C1785 C255 1.351 . S
C1801 C435 1.351 . S
C1803 C291 1.351 . S
C1819 C471 1.351 . S
C1821 C327 1.351 . S
C1837 C507 1.351 . S
C1839 C363 1.351 . S
C1855 C399 1.351 . S
C1857 C543 1.351 . S
C1873 C579 1.351 . S
C1875 C723 1.351 . S
C1891 C615 1.351 . S
C1893 C759 1.351 . S
C1909 C651 1.351 . S
C1911 C795 1.351 . S
C1927 C687 1.351 . S
C1929 C831 1.351 . S
C1945 C1011 1.351 . S
C1947 C867 1.351 . S
C1963 C1047 1.351 . S
C1965 C903 1.351 . S
C1981 C1083 1.351 . S
C1983 C939 1.351 . S
C1999 C1119 1.351 . S
C2001 C975 1.351 . S
C2017 C1084 1.457 . S
C2019 C4 1.457 . S
C2035 C40 1.457 . S
C2037 C544 1.457 . S
C2053 C1012 1.457 . S
C2055 C76 1.457 . S
C2071 C112 1.457 . S
C2073 C472 1.457 . S
C2089 C940 1.457 . S
C2091 C148 1.457 . S
C2107 C184 1.457 . S
C2109 C400 1.457 . S
C2125 C220 1.457 . S
C2127 C868 1.457 . S
C2143 C328 1.457 . S
C2145 C256 1.457 . S
C2161 C292 1.457 . S
C2163 C796 1.457 . S
C2179 C724 1.457 . S
C2181 C364 1.457 . S
C2197 C436 1.457 . S
C2199 C652 1.457 . S
C2215 C508 1.457 . S
C2217 C580 1.457 . S
C2233 C1120 1.457 . S
C2235 C616 1.457 . S
C2251 C688 1.457 . S
C2253 C1048 1.457 . S
C2269 C760 1.457 . S
C2271 C976 1.457 . S
C2287 C904 1.457 . S
C2289 C832 1.457 . S
