# Generated by pormake.
# Topology uni, (4)-cn, num edge types: 1
# Building blocks:
#     Node 0, Type 0, BuildingBlock: TATPOV_clean_sbu_0, # of connection points: 4
#     Node 1, Type 0, BuildingBlock: TATPOV_clean_sbu_0, # of connection points: 4
#     Node 2, Type 0, BuildingBlock: TATPOV_clean_sbu_0, # of connection points: 4
#     Node 3, Type 0, BuildingBlock: TATPOV_clean_sbu_0, # of connection points: 4
#     Node 4, Type 0, BuildingBlock: TATPOV_clean_sbu_0, # of connection points: 4
#     Node 5, Type 0, BuildingBlock: TATPOV_clean_sbu_0, # of connection points: 4
#     Edge 6, Type (0, 0), BuildingBlock: XUDNAN_clean_linker_2, # of connection points: 2
#     Edge 7, Type (0, 0), BuildingBlock: XUDNAN_clean_linker_2, # of connection points: 2
#     Edge 8, Type (0, 0), BuildingBlock: XUDNAN_clean_linker_2, # of connection points: 2
#     Edge 9, Type (0, 0), BuildingBlock: XUDNAN_clean_linker_2, # of connection points: 2
#     Edge 10, Type (0, 0), BuildingBlock: XUDNAN_clean_linker_2, # of connection points: 2
#     Edge 11, Type (0, 0), BuildingBlock: XUDNAN_clean_linker_2, # of connection points: 2
#     Edge 12, Type (0, 0), BuildingBlock: XUDNAN_clean_linker_2, # of connection points: 2
#     Edge 13, Type (0, 0), BuildingBlock: XUDNAN_clean_linker_2, # of connection points: 2
#     Edge 14, Type (0, 0), BuildingBlock: XUDNAN_clean_linker_2, # of connection points: 2
#     Edge 15, Type (0, 0), BuildingBlock: XUDNAN_clean_linker_2, # of connection points: 2
#     Edge 16, Type (0, 0), BuildingBlock: XUDNAN_clean_linker_2, # of connection points: 2
#     Edge 17, Type (0, 0), BuildingBlock: XUDNAN_clean_linker_2, # of connection points: 2
# Relax obj value: 0.034
# Max RMSD: 0.067
# Mean RMSD: 0.067
data_MOF--net-uni--node1-TATPOV_clean_sbu_0--edge1-XUDNAN_clean_linker_2
_symmetry_space_group_name_H-M    P1
_symmetry_Int_Tables_number       1
_symmetry_cell_setting            triclinic
loop_
_symmetry_equiv_pos_as_xyz
'x, y, z'
_cell_length_a     38.859884
_cell_length_b     38.950328
_cell_length_c     23.087073
_cell_angle_alpha  89.934077
_cell_angle_beta   90.03794
_cell_angle_gamma 119.93432
loop_
_atom_site_label
_atom_site_type_symbol
_atom_site_fract_x
_atom_site_fract_y
_atom_site_fract_z
_atom_type_partial_charge
Zn0 Zn 0.56078 0.93304 0.09725 0.0
Zn1 Zn 0.63237 0.99652 0.06779 0.0
O2 O 0.6463 0.95277 0.08277 0.0
O3 O 0.58904 0.90153 0.10848 0.0
O4 O 0.68351 0.04472 0.04353 0.0
O5 O 0.53852 0.9361 0.01896 0.0
O6 O 0.59606 0.98882 -0.00096 0.0
C7 C 0.62597 0.9168 0.09922 0.0
C8 C 0.58607 0.00132 0.17181 0.0
O9 O 0.61672 0.0162 0.13951 0.0
O10 O 0.558 0.9663 0.16296 0.0
C11 C 0.71231 0.04463 0.01757 0.0
O12 O 0.71042 0.01073 0.00588 0.0
C13 C 0.56025 0.96441 0.98522 0.0
Zn14 Zn 0.6558 0.55784 0.2113 0.0
Zn15 Zn 0.66428 0.62989 0.21057 0.0
O16 O 0.72036 0.64049 0.23478 0.0
O17 O 0.7116 0.58025 0.24065 0.0
O18 O 0.66923 0.68376 0.20394 0.0
O19 O 0.64455 0.55122 0.12589 0.0
O20 O 0.64485 0.60781 0.12848 0.0
C21 C 0.73394 0.61733 0.24575 0.0
C22 C 0.60019 0.56532 0.28584 0.0
O23 O 0.61997 0.60168 0.27123 0.0
O24 O 0.60929 0.54068 0.26561 0.0
C25 C 0.6979 0.71268 0.17796 0.0
O26 O 0.72704 0.7084 0.15735 0.0
C27 C 0.63914 0.57708 0.10092 0.0
Zn28 Zn 0.13446 0.6649 0.40928 0.0
Zn29 Zn 0.07528 0.67993 0.38429 0.0
O30 O 0.12273 0.73539 0.40312 0.0
O31 O 0.17059 0.72283 0.42461 0.0
O32 O 0.03012 0.68949 0.36377 0.0
O33 O 0.13062 0.64268 0.32951 0.0
O34 O 0.08023 0.65208 0.3117 0.0
C35 C 0.15847 0.74736 0.41865 0.0
C36 C 0.06595 0.62316 0.48293 0.0
O37 O 0.05296 0.64193 0.45338 0.0
O38 O 0.10011 0.62796 0.47274 0.0
C39 C 0.99678 0.65889 0.35326 0.0
O40 O 0.99405 0.62391 0.35606 0.0
C41 C 0.10327 0.63929 0.29609 0.0
Zn42 Zn 0.50635 0.14905 0.59742 0.0
Zn43 Zn 0.43509 0.08518 0.56739 0.0
O44 O 0.42181 0.12901 0.5813 0.0
O45 O 0.47821 0.18096 0.60765 0.0
O46 O 0.3828 0.03928 0.54244 0.0
O47 O 0.52866 0.14542 0.51926 0.0
O48 O 0.47138 0.0924 0.49926 0.0
C49 C 0.44133 0.16502 0.5974 0.0
C50 C 0.48032 0.07984 0.6718 0.0
O51 O 0.44984 0.06475 0.63916 0.0
O52 O 0.50815 0.11506 0.66331 0.0
C53 C 0.38097 0.00666 0.52997 0.0
O54 O 0.41323 0.00391 0.53437 0.0
C55 C 0.50719 0.11691 0.48569 0.0
Zn56 Zn 0.39469 0.51643 0.71454 0.0
Zn57 Zn 0.3863 0.44191 0.70374 0.0
O58 O 0.33153 0.42863 0.73149 0.0
O59 O 0.33509 0.4868 0.73641 0.0
O60 O 0.3844 0.38981 0.6944 0.0
O61 O 0.41308 0.52622 0.62926 0.0
O62 O 0.40069 0.46464 0.6232 0.0
C63 C 0.31523 0.44935 0.74169 0.0
C64 C 0.44843 0.50384 0.78625 0.0
O65 O 0.43123 0.47039 0.761 0.0
O66 O 0.43742 0.52898 0.77649 0.0
C67 C 0.35658 0.36024 0.66841 0.0
O68 O 0.32608 0.36253 0.64865 0.0
C69 C 0.4118 0.49811 0.59982 0.0
Zn70 Zn 0.9192 0.39969 0.90968 0.0
Zn71 Zn 0.98475 0.39373 0.88062 0.0
O72 O 0.94248 0.33582 0.89739 0.0
O73 O 0.89006 0.34016 0.92235 0.0
O74 O 0.03501 0.39373 0.85761 0.0
O75 O 0.92127 0.42334 0.83042 0.0
O76 O 0.97466 0.41948 0.8107 0.0
C77 C 0.90643 0.31942 0.91402 0.0
C78 C 0.98752 0.44565 0.98259 0.0
O79 O 0.003 0.43035 0.95066 0.0
O80 O 0.95189 0.43723 0.97444 0.0
C81 C 0.0405 0.36418 0.8589 0.0
O82 O 0.01153 0.32957 0.87599 0.0
C83 C 0.94938 0.42969 0.79634 0.0
H84 H 0.52093 0.98212 0.23921 0.0
H85 H 0.64198 0.07592 0.20736 0.0
H86 H 0.63396 0.11751 0.28079 0.0
H87 H 0.4791 0.04544 0.25883 0.0
H88 H 0.44548 0.01517 0.31516 0.0
H89 H 0.46073 0.99282 0.26008 0.0
H90 H 0.4859 0.96329 0.3391 0.0
H91 H 0.47033 0.98519 0.39434 0.0
H92 H 0.52104 0.99568 0.39235 0.0
H93 H 0.6129 0.14829 0.35939 0.0
H94 H 0.58115 0.16483 0.43897 0.0
H95 H 0.4736 0.05122 0.4165 0.0
C96 C 0.54587 0.01133 0.24774 0.0
C97 C 0.58213 0.0257 0.2176 0.0
C98 C 0.61392 0.06423 0.22995 0.0
C99 C 0.60962 0.08813 0.27144 0.0
C100 C 0.57331 0.07315 0.29989 0.0
C101 C 0.54203 0.03561 0.28863 0.0
C102 C 0.50622 0.02628 0.32545 0.0
C103 C 0.4708 0.01954 0.2876 0.0
C104 C 0.49525 0.9905 0.36517 0.0
C105 C 0.52236 0.06428 0.35972 0.0
C106 C 0.56104 0.09104 0.34429 0.0
C107 C 0.58253 0.12767 0.3716 0.0
C108 C 0.56422 0.13682 0.41666 0.0
C109 C 0.52482 0.10945 0.4338 0.0
C110 C 0.50358 0.07304 0.40408 0.0
H111 H 0.58424 0.60624 0.36917 0.0
H112 H 0.53632 0.49114 0.28707 0.0
H113 H 0.47718 0.465 0.34935 0.0
H114 H 0.556 0.5692 0.50993 0.0
H115 H 0.54411 0.60617 0.53351 0.0
H116 H 0.58005 0.61765 0.47694 0.0
H117 H 0.53945 0.63738 0.40937 0.0
H118 H 0.50313 0.62554 0.46575 0.0
H119 H 0.48786 0.60239 0.3957 0.0
H120 H 0.42682 0.44919 0.42465 0.0
H121 H 0.39084 0.44284 0.51537 0.0
H122 H 0.47052 0.5673 0.55198 0.0
C123 C 0.56091 0.57577 0.36377 0.0
C124 C 0.56475 0.55074 0.32316 0.0
C125 C 0.53406 0.51079 0.31804 0.0
C126 C 0.50015 0.49576 0.35281 0.0
C127 C 0.49733 0.52096 0.39273 0.0
C128 C 0.52693 0.56002 0.3989 0.0
C129 C 0.51828 0.57932 0.4496 0.0
C130 C 0.55158 0.59392 0.49518 0.0
C131 C 0.51179 0.61317 0.42884 0.0
C132 C 0.47992 0.5446 0.47194 0.0
C133 C 0.46804 0.51153 0.43755 0.0
C134 C 0.4354 0.47498 0.45149 0.0
C135 C 0.41515 0.47166 0.5031 0.0
C136 C 0.42767 0.50465 0.5403 0.0
C137 C 0.45969 0.54188 0.52356 0.0
H138 H 0.0129 0.45807 0.72304 0.0
H139 H 0.90146 0.45621 0.75068 0.0
H140 H 0.91764 0.50366 0.67005 0.0
H141 H 0.07016 0.5591 0.69854 0.0
H142 H 0.10132 0.55552 0.64387 0.0
H143 H 0.07888 0.51776 0.69856 0.0
H144 H 0.0462 0.46377 0.61939 0.0
H145 H 0.06906 0.5013 0.56428 0.0
H146 H 0.01602 0.46869 0.56432 0.0
H147 H 0.94895 0.55574 0.59144 0.0
H148 H 0.9916 0.606 0.51918 0.0
H149 H 0.08269 0.57406 0.54642 0.0
C150 C 0.99137 0.46683 0.7114 0.0
C151 C 0.95582 0.45326 0.74306 0.0
C152 C 0.92881 0.46604 0.72686 0.0
C153 C 0.93776 0.49303 0.68119 0.0
C154 C 0.97374 0.50681 0.65219 0.0
C155 C 0.99992 0.49384 0.66639 0.0
C156 C 0.03766 0.51483 0.63116 0.0
C157 C 0.07414 0.53818 0.67039 0.0
C158 C 0.0425 0.48539 0.59248 0.0
C159 C 0.029 0.54224 0.59564 0.0
C160 C 0.99191 0.53705 0.60792 0.0
C161 C 0.97793 0.55984 0.58116 0.0
C162 C 0.00243 0.58842 0.5404 0.0
C163 C 0.04054 0.59407 0.52723 0.0
C164 C 0.05379 0.5706 0.55549 0.0
H165 H 0.59365 0.03034 0.91623 0.0
H166 H 0.4868 0.91601 0.93751 0.0
H167 H 0.45495 0.93238 0.8578 0.0
H168 H 0.54555 0.08481 0.89279 0.0
H169 H 0.58055 0.11787 0.83991 0.0
H170 H 0.59643 0.09576 0.89451 0.0
H171 H 0.62171 0.06674 0.81514 0.0
H172 H 0.60643 0.08925 0.76022 0.0
H173 H 0.58842 0.03672 0.75837 0.0
H174 H 0.43351 0.96308 0.77946 0.0
H175 H 0.42498 0.00477 0.70659 0.0
H176 H 0.54547 0.0994 0.7395 0.0
C177 C 0.56384 0.00833 0.90344 0.0
C178 C 0.5428 0.97177 0.93295 0.0
C179 C 0.50358 0.94414 0.91539 0.0
C180 C 0.48521 0.95319 0.87022 0.0
C181 C 0.50646 0.98998 0.84318 0.0
C182 C 0.54501 0.01698 0.8589 0.0
C183 C 0.56076 0.05517 0.82502 0.0
C184 C 0.57143 0.09047 0.86548 0.0
C185 C 0.59644 0.06237 0.78745 0.0
C186 C 0.52488 0.04566 0.78823 0.0
C187 C 0.49392 0.00785 0.79903 0.0
C188 C 0.45761 0.99267 0.77047 0.0
C189 C 0.45301 0.01663 0.72932 0.0
C190 C 0.48449 0.05543 0.71743 0.0
C191 C 0.52074 0.07 0.74769 0.0
H192 H 0.59799 0.60909 0.04909 0.0
H193 H 0.63807 0.52433 0.0224 0.0
H194 H 0.59791 0.50089 0.93341 0.0
H195 H 0.50082 0.54684 0.01171 0.0
H196 H 0.49265 0.58302 0.975 0.0
H197 H 0.52971 0.59849 0.03088 0.0
H198 H 0.58348 0.64747 0.95997 0.0
H199 H 0.54643 0.63266 0.90391 0.0
H200 H 0.59065 0.62965 0.89156 0.0
H201 H 0.54678 0.47992 0.85708 0.0
H202 H 0.49066 0.46541 0.7928 0.0
H203 H 0.48296 0.56372 0.86728 0.0
C204 C 0.59942 0.58661 0.02337 0.0
C205 C 0.62135 0.56869 0.04243 0.0
C206 C 0.6216 0.53856 0.00848 0.0
C207 C 0.59892 0.52508 0.95783 0.0
C208 C 0.5763 0.54215 0.94156 0.0
C209 C 0.5767 0.57261 0.97275 0.0
C210 C 0.54694 0.5833 0.94852 0.0
C211 C 0.51569 0.57755 0.99426 0.0
C212 C 0.56815 0.62579 0.92455 0.0
C213 C 0.52881 0.55311 0.90022 0.0
C214 C 0.54649 0.52996 0.89681 0.0
C215 C 0.53317 0.49829 0.85855 0.0
C216 C 0.50102 0.49011 0.82252 0.0
C217 C 0.48246 0.5135 0.82488 0.0
C218 C 0.49683 0.54562 0.86402 0.0
H219 H 0.9659 0.48826 0.05355 0.0
H220 H 0.06478 0.47034 0.01144 0.0
H221 H 0.10669 0.52191 0.08201 0.0
H222 H 0.02365 0.59451 0.07224 0.0
H223 H 0.99414 0.59509 0.13204 0.0
H224 H 0.97188 0.55731 0.07724 0.0
H225 H 0.94902 0.50272 0.15596 0.0
H226 H 0.97078 0.54033 0.21094 0.0
H227 H 0.98512 0.50301 0.20535 0.0
H228 H 0.13724 0.57378 0.15872 0.0
H229 H 0.15341 0.62013 0.2404 0.0
H230 H 0.03508 0.60519 0.23131 0.0
C231 C 0.99634 0.49509 0.05916 0.0
C232 C 0.01203 0.47521 0.02692 0.0
C233 C 0.05205 0.48512 0.03563 0.0
C234 C 0.07617 0.5145 0.07541 0.0
C235 C 0.05989 0.5338 0.10594 0.0
C236 C 0.02087 0.52441 0.09853 0.0
C237 C 0.01036 0.54885 0.13799 0.0
C238 C 0.99937 0.57552 0.10275 0.0
C239 C 0.97685 0.52213 0.18006 0.0
C240 C 0.04944 0.57304 0.16935 0.0
C241 C 0.07768 0.56408 0.1499 0.0
C242 C 0.11551 0.58127 0.17406 0.0
C243 C 0.1244 0.60759 0.22037 0.0
C244 C 0.09559 0.61644 0.24197 0.0
C245 C 0.05794 0.59954 0.21515 0.0
H246 H 0.63517 0.72499 0.19492 0.0
H247 H 0.75703 0.78301 0.1338 0.0
H248 H 0.75287 0.84267 0.10924 0.0
H249 H 0.59851 0.76123 0.08452 0.0
H250 H 0.56452 0.76693 0.13118 0.0
H251 H 0.57806 0.73 0.14738 0.0
H252 H 0.60156 0.76007 0.24968 0.0
H253 H 0.58788 0.79699 0.23393 0.0
H254 H 0.63777 0.81193 0.25678 0.0
H255 H 0.73431 0.89548 0.08879 0.0
H256 H 0.70279 0.93646 0.07348 0.0
H257 H 0.59283 0.84238 0.14598 0.0
C258 C 0.66121 0.75039 0.17709 0.0
C259 C 0.69652 0.7494 0.16659 0.0
C260 C 0.72969 0.78312 0.14238 0.0
C261 C 0.72762 0.81715 0.12832 0.0
C262 C 0.69214 0.8169 0.13855 0.0
C263 C 0.65956 0.78436 0.16241 0.0
C264 C 0.62439 0.79086 0.16703 0.0
C265 C 0.58931 0.76046 0.13033 0.0
C266 C 0.6122 0.78992 0.23064 0.0
C267 C 0.64215 0.83209 0.14177 0.0
C268 C 0.68131 0.84678 0.12586 0.0
C269 C 0.70368 0.88428 0.10121 0.0
C270 C 0.68552 0.90733 0.09265 0.0
C271 C 0.64531 0.89266 0.10838 0.0
C272 C 0.62357 0.85451 0.13328 0.0
H273 H 0.92164 0.59826 0.3327 0.0
H274 H 0.99164 0.72656 0.34006 0.0
H275 H 0.93188 0.73074 0.31465 0.0
H276 H 0.86183 0.59203 0.21166 0.0
H277 H 0.81773 0.54981 0.23978 0.0
H278 H 0.86594 0.5575 0.25919 0.0
H279 H 0.84862 0.55565 0.36802 0.0
H280 H 0.80035 0.548 0.34894 0.0
H281 H 0.8327 0.58895 0.39485 0.0
H282 H 0.8632 0.71999 0.28681 0.0
H283 H 0.79298 0.69536 0.2594 0.0
H284 H 0.77001 0.57448 0.27179 0.0
C285 C 0.92456 0.62732 0.32908 0.0
C286 C 0.96137 0.66209 0.33836 0.0
C287 C 0.96373 0.69948 0.33316 0.0
C288 C 0.92994 0.70214 0.31877 0.0
C289 C 0.89407 0.66715 0.30987 0.0
C290 C 0.8913 0.63049 0.31494 0.0
C291 C 0.84963 0.59724 0.30306 0.0
C292 C 0.84875 0.57272 0.25028 0.0
C293 C 0.83178 0.57092 0.35693 0.0
C294 C 0.82924 0.6208 0.29016 0.0
C295 C 0.85515 0.66108 0.2943 0.0
C296 C 0.84268 0.68848 0.2836 0.0
C297 C 0.80276 0.67424 0.2681 0.0
C298 C 0.77588 0.63299 0.26346 0.0
C299 C 0.7896 0.6062 0.27495 0.0
H300 H 0.23753 0.78181 0.44309 0.0
H301 H 0.14242 0.80875 0.42242 0.0
H302 H 0.18932 0.87889 0.44695 0.0
H303 H 0.28359 0.84372 0.56418 0.0
H304 H 0.33332 0.85825 0.54108 0.0
H305 H 0.29254 0.81083 0.52 0.0
H306 H 0.31149 0.82814 0.41194 0.0
H307 H 0.35243 0.8756 0.43269 0.0
H308 H 0.31569 0.87293 0.38236 0.0
H309 H 0.24685 0.94582 0.47753 0.0
H310 H 0.30998 0.0038 0.50894 0.0
H311 H 0.36635 0.93161 0.50799 0.0
C312 C 0.22641 0.80237 0.44339 0.0
C313 C 0.18623 0.78974 0.4309 0.0
C314 C 0.17309 0.81776 0.43175 0.0
C315 C 0.19949 0.85761 0.44568 0.0
C316 C 0.23886 0.86887 0.45829 0.0
C317 C 0.25223 0.84202 0.45693 0.0
C318 C 0.2957 0.8612 0.47278 0.0
C319 C 0.30161 0.84238 0.52778 0.0
C320 C 0.32027 0.85936 0.4219 0.0
C321 C 0.3048 0.90312 0.48382 0.0
C322 C 0.27172 0.90707 0.47527 0.0
C323 C 0.27295 0.94306 0.48405 0.0
C324 C 0.30892 0.97579 0.50199 0.0
C325 C 0.34313 0.97225 0.51084 0.0
C326 C 0.34083 0.93538 0.50141 0.0
H327 H 0.42152 0.35186 0.68709 0.0
H328 H 0.30046 0.28904 0.62251 0.0
H329 H 0.30837 0.23141 0.59899 0.0
H330 H 0.46278 0.31863 0.57883 0.0
H331 H 0.49715 0.3148 0.62719 0.0
H332 H 0.48117 0.35009 0.64175 0.0
H333 H 0.45708 0.31964 0.74377 0.0
H334 H 0.47317 0.28435 0.72966 0.0
H335 H 0.42249 0.26732 0.75064 0.0
H336 H 0.3303 0.18124 0.58076 0.0
H337 H 0.3645 0.14268 0.56842 0.0
H338 H 0.47159 0.23959 0.64306 0.0
C339 C 0.39646 0.32586 0.66856 0.0
C340 C 0.36027 0.32487 0.65687 0.0
C341 C 0.32842 0.29042 0.63196 0.0
C342 C 0.33263 0.25756 0.61848 0.0
C343 C 0.3689 0.25975 0.63004 0.0
C344 C 0.40023 0.29304 0.65452 0.0
C345 C 0.43651 0.28849 0.66095 0.0
C346 C 0.47145 0.31986 0.62503 0.0
C347 C 0.44797 0.29003 0.72507 0.0
C348 C 0.42079 0.24746 0.63602 0.0
C349 C 0.38168 0.23126 0.61869 0.0
C350 C 0.3609 0.19362 0.59425 0.0
C351 C 0.38061 0.17196 0.58741 0.0
C352 C 0.42078 0.18811 0.60467 0.0
C353 C 0.44095 0.2264 0.62924 0.0
H354 H 0.10814 0.43288 0.82805 0.0
H355 H 0.06116 0.30655 0.85136 0.0
H356 H 0.12618 0.31471 0.82358 0.0
H357 H 0.16908 0.4446 0.70385 0.0
H358 H 0.20882 0.49243 0.72609 0.0
H359 H 0.15849 0.47662 0.74738 0.0
H360 H 0.18 0.48821 0.85513 0.0
H361 H 0.23039 0.50403 0.8342 0.0
H362 H 0.20525 0.46407 0.88532 0.0
H363 H 0.19613 0.33651 0.79317 0.0
H364 H 0.26635 0.37035 0.76327 0.0
H365 H 0.2682 0.4828 0.76079 0.0
C366 C 0.11143 0.40687 0.82723 0.0
C367 C 0.07945 0.36902 0.84184 0.0
C368 C 0.08515 0.33583 0.84037 0.0
C369 C 0.12198 0.34016 0.82461 0.0
C370 C 0.15285 0.37787 0.81056 0.0
C371 C 0.148 0.41066 0.81178 0.0
C372 C 0.18606 0.44794 0.7952 0.0
C373 C 0.18025 0.46648 0.73984 0.0
C374 C 0.20132 0.47782 0.84547 0.0
C375 C 0.2131 0.43099 0.78449 0.0
C376 C 0.1933 0.39051 0.79347 0.0
C377 C 0.21195 0.36821 0.78606 0.0
C378 C 0.2519 0.38777 0.76903 0.0
C379 C 0.27295 0.42931 0.75971 0.0
C380 C 0.25308 0.45107 0.76765 0.0
H381 H 0.83187 0.27704 0.96017 0.0
H382 H 0.92889 0.26381 0.89269 0.0
H383 H 0.89005 0.19174 0.91194 0.0
H384 H 0.80493 0.20683 0.07546 0.0
H385 H 0.75247 0.18891 0.06835 0.0
H386 H 0.78779 0.23913 0.04839 0.0
H387 H 0.75665 0.22713 0.94582 0.0
H388 H 0.72119 0.17689 0.96551 0.0
H389 H 0.75241 0.18655 0.90289 0.0
H390 H 0.83956 0.12046 0.93824 0.0
H391 H 0.78253 0.0568 0.97049 0.0
H392 H 0.72015 0.11836 0.02195 0.0
C393 C 0.84505 0.2591 0.9492 0.0
C394 C 0.88345 0.27614 0.92476 0.0
C395 C 0.89953 0.25146 0.91144 0.0
C396 C 0.87769 0.21049 0.92219 0.0
C397 C 0.83993 0.19475 0.94644 0.0
C398 C 0.82384 0.21838 0.95985 0.0
C399 C 0.78288 0.19449 0.98605 0.0
C400 C 0.78199 0.20816 0.04825 0.0
C401 C 0.75143 0.19638 0.94777 0.0
C402 C 0.7783 0.15362 0.98533 0.0
C403 C 0.81139 0.15422 0.9622 0.0
C404 C 0.81356 0.1197 0.95656 0.0
C405 C 0.78103 0.0837 0.97497 0.0
C406 C 0.74692 0.08257 -0.00105 0.0
C407 C 0.74583 0.11815 0.00417 0.0
loop_
_geom_bond_atom_site_label_1
_geom_bond_atom_site_label_2
_geom_bond_distance
_geom_bond_site_symmetry_2
_ccdc_geom_bond_type
Zn0 O3 2.031 . S
Zn0 O5 2.049 1_554 S
Zn0 O10 2.067 1_565 S
Zn1 O2 1.962 . S
Zn1 O4 1.986 . S
Zn1 O6 1.996 1_554 S
Zn1 O9 1.943 . S
O2 Zn1 1.962 . S
O2 C7 1.254 1_545 S
O3 Zn0 2.031 . S
O3 C7 1.269 . S
O4 Zn1 1.986 . S
O4 C11 1.262 . S
O5 Zn0 2.049 1_556 S
O5 C13 1.260 1_565 S
O6 Zn1 1.996 1_556 S
O6 C13 1.257 . S
C7 O2 1.254 1_565 S
C7 O3 1.269 . S
C8 O9 1.249 . S
C8 O10 1.270 . S
O9 Zn1 1.943 . S
O9 C8 1.249 . S
O10 Zn0 2.067 1_545 S
O10 C8 1.270 . S
C11 O4 1.262 . S
C11 O12 1.232 . S
O12 C11 1.232 . S
C13 O5 1.260 1_545 S
C13 O6 1.257 . S
Zn14 O17 2.031 . S
Zn14 O19 2.049 . S
Zn14 O24 2.067 . S
Zn15 O16 1.962 . S
Zn15 O18 1.986 . S
Zn15 O20 1.996 . S
Zn15 O23 1.943 . S
O16 Zn15 1.962 . S
O16 C21 1.254 . S
O17 Zn14 2.031 . S
O17 C21 1.269 . S
O18 Zn15 1.986 . S
O18 C25 1.262 . S
O19 Zn14 2.049 . S
O19 C27 1.260 . S
O20 Zn15 1.996 . S
O20 C27 1.257 . S
C21 O16 1.254 . S
C21 O17 1.269 . S
C22 O23 1.249 . S
C22 O24 1.270 . S
O23 Zn15 1.943 . S
O23 C22 1.249 . S
O24 Zn14 2.067 . S
O24 C22 1.270 . S
C25 O18 1.262 . S
C25 O26 1.232 . S
O26 C25 1.232 . S
C27 O19 1.260 . S
C27 O20 1.257 . S
Zn28 O31 2.031 . S
Zn28 O33 2.049 . S
Zn28 O38 2.067 . S
Zn29 O30 1.962 . S
Zn29 O32 1.986 1_455 S
Zn29 O34 1.996 . S
Zn29 O37 1.943 . S
O30 Zn29 1.962 . S
O30 C35 1.254 . S
O31 Zn28 2.031 . S
O31 C35 1.269 . S
O32 Zn29 1.986 1_655 S
O32 C39 1.262 . S
O33 Zn28 2.049 . S
O33 C41 1.260 . S
O34 Zn29 1.996 . S
O34 C41 1.257 . S
C35 O30 1.254 . S
C35 O31 1.269 . S
C36 O37 1.249 . S
C36 O38 1.270 . S
O37 Zn29 1.943 . S
O37 C36 1.249 . S
O38 Zn28 2.067 . S
O38 C36 1.270 . S
C39 O32 1.262 . S
C39 O40 1.232 . S
O40 C39 1.232 . S
C41 O33 1.260 . S
C41 O34 1.257 . S
Zn42 O45 2.031 . S
Zn42 O47 2.049 . S
Zn42 O52 2.067 . S
Zn43 O44 1.962 . S
Zn43 O46 1.986 1_545 S
Zn43 O48 1.996 . S
Zn43 O51 1.943 . S
O44 Zn43 1.962 . S
O44 C49 1.254 . S
O45 Zn42 2.031 . S
O45 C49 1.269 . S
O46 Zn43 1.986 1_565 S
O46 C53 1.262 . S
O47 Zn42 2.049 . S
O47 C55 1.260 . S
O48 Zn43 1.996 . S
O48 C55 1.257 . S
C49 O44 1.254 . S
C49 O45 1.269 . S
C50 O51 1.249 . S
C50 O52 1.270 . S
O51 Zn43 1.943 . S
O51 C50 1.249 . S
O52 Zn42 2.067 . S
O52 C50 1.270 . S
C53 O46 1.262 . S
C53 O54 1.232 . S
O54 C53 1.232 . S
C55 O47 1.260 . S
C55 O48 1.257 . S
Zn56 O59 2.031 . S
Zn56 O61 2.049 . S
Zn56 O66 2.067 . S
Zn57 O58 1.962 . S
Zn57 O60 1.986 . S
Zn57 O62 1.996 . S
Zn57 O65 1.943 . S
O58 Zn57 1.962 . S
O58 C63 1.254 . S
O59 Zn56 2.031 . S
O59 C63 1.269 . S
O60 Zn57 1.986 . S
O60 C67 1.262 . S
O61 Zn56 2.049 . S
O61 C69 1.260 . S
O62 Zn57 1.996 . S
O62 C69 1.257 . S
C63 O58 1.254 . S
C63 O59 1.269 . S
C64 O65 1.249 . S
C64 O66 1.270 . S
O65 Zn57 1.943 . S
O65 C64 1.249 . S
O66 Zn56 2.067 . S
O66 C64 1.270 . S
C67 O60 1.262 . S
C67 O68 1.232 . S
O68 C67 1.232 . S
C69 O61 1.260 . S
C69 O62 1.257 . S
Zn70 O73 2.031 . S
Zn70 O75 2.049 . S
Zn70 O80 2.067 1_655 S
Zn71 O72 1.962 1_455 S
Zn71 O74 1.986 . S
Zn71 O76 1.996 . S
Zn71 O79 1.943 . S
O72 Zn71 1.962 1_655 S
O72 C77 1.254 . S
O73 Zn70 2.031 . S
O73 C77 1.269 . S
O74 Zn71 1.986 . S
O74 C81 1.262 . S
O75 Zn70 2.049 . S
O75 C83 1.260 1_655 S
O76 Zn71 1.996 . S
O76 C83 1.257 . S
C77 O72 1.254 . S
C77 O73 1.269 . S
C78 O79 1.249 . S
C78 O80 1.270 . S
O79 Zn71 1.943 . S
O79 C78 1.249 . S
O80 Zn70 2.067 1_455 S
O80 C78 1.270 . S
C81 O74 1.262 . S
C81 O82 1.232 . S
O82 C81 1.232 . S
C83 O75 1.260 1_455 S
C83 O76 1.257 . S
H84 C96 0.930 1_565 S
H85 C98 0.930 . S
H86 C99 0.930 . S
H87 C103 0.959 . S
H88 C103 0.959 . S
H89 C103 0.961 . S
H90 C104 0.960 . S
H91 C104 0.961 . S
H92 C104 0.959 . S
H93 C107 0.929 . S
H94 C108 0.931 . S
H95 C110 0.930 1_565 S
C96 H84 0.930 1_545 S
C96 C97 1.399 . S
C96 C101 1.399 . S
C97 C96 1.399 . S
C97 C98 1.376 . S
C98 H85 0.930 . S
C98 C97 1.376 . S
C98 C99 1.388 . S
C99 H86 0.930 . S
C99 C98 1.388 . S
C99 C100 1.390 . S
C100 C99 1.390 . S
C100 C101 1.394 . S
C100 C106 1.465 . S
C101 C96 1.399 . S
C101 C100 1.394 . S
C101 C102 1.516 1_545 S
C102 C101 1.516 1_565 S
C102 C103 1.502 . S
C102 C104 1.561 . S
C102 C105 1.526 1_565 S
C103 H87 0.959 . S
C103 H88 0.959 . S
C103 H89 0.961 . S
C103 C102 1.502 . S
C104 H90 0.960 . S
C104 H91 0.961 . S
C104 H92 0.959 . S
C104 C102 1.561 . S
C105 C102 1.526 1_545 S
C105 C106 1.396 . S
C105 C110 1.390 . S
C106 C100 1.465 . S
C106 C105 1.396 . S
C106 C107 1.399 . S
C107 H93 0.929 . S
C107 C106 1.399 . S
C107 C108 1.385 . S
C108 H94 0.931 . S
C108 C107 1.385 . S
C108 C109 1.389 . S
C109 C108 1.389 . S
C109 C110 1.387 . S
C110 H95 0.930 1_545 S
C110 C105 1.390 . S
C110 C109 1.387 . S
H111 C123 0.930 . S
H112 C125 0.930 . S
H113 C126 0.930 . S
H114 C130 0.959 . S
H115 C130 0.959 . S
H116 C130 0.961 . S
H117 C131 0.960 . S
H118 C131 0.961 . S
H119 C131 0.959 . S
H120 C134 0.929 . S
H121 C135 0.931 . S
H122 C137 0.930 . S
C123 H111 0.930 . S
C123 C124 1.399 . S
C123 C128 1.399 . S
C124 C123 1.399 . S
C124 C125 1.376 . S
C125 H112 0.930 . S
C125 C124 1.376 . S
C125 C126 1.388 . S
C126 H113 0.930 . S
C126 C125 1.388 . S
C126 C127 1.390 . S
C127 C126 1.390 . S
C127 C128 1.394 . S
C127 C133 1.465 . S
C128 C123 1.399 . S
C128 C127 1.394 . S
C128 C129 1.516 . S
C129 C128 1.516 . S
C129 C130 1.502 . S
C129 C131 1.561 . S
C129 C132 1.526 . S
C130 H114 0.959 . S
C130 H115 0.959 . S
C130 H116 0.961 . S
C130 C129 1.502 . S
C131 H117 0.960 . S
C131 H118 0.961 . S
C131 H119 0.959 . S
C131 C129 1.561 . S
C132 C129 1.526 . S
C132 C133 1.396 . S
C132 C137 1.390 . S
C133 C127 1.465 . S
C133 C132 1.396 . S
C133 C134 1.399 . S
C134 H120 0.929 . S
C134 C133 1.399 . S
C134 C135 1.385 . S
C135 H121 0.931 . S
C135 C134 1.385 . S
C135 C136 1.389 . S
C136 C135 1.389 . S
C136 C137 1.387 . S
C137 H122 0.930 . S
C137 C132 1.390 . S
C137 C136 1.387 . S
H138 C150 0.930 . S
H139 C152 0.925 1_655 S
H140 C153 0.930 1_655 S
H141 C157 0.959 . S
H142 C157 0.959 . S
H143 C157 0.961 . S
H144 C158 0.960 . S
H145 C158 0.961 . S
H146 C158 0.959 1_655 S
H147 C161 0.929 . S
H148 C162 0.931 1_655 S
H149 C164 0.930 . S
C150 H138 0.930 . S
C150 C151 1.399 . S
C150 C155 1.399 . S
C151 C150 1.399 . S
C151 C152 1.376 . S
C152 H139 0.925 1_455 S
C152 C151 1.376 . S
C152 C153 1.388 . S
C153 H140 0.930 1_455 S
C153 C152 1.388 . S
C153 C154 1.390 . S
C154 C153 1.390 . S
C154 C155 1.394 . S
C154 C160 1.465 . S
C155 C150 1.399 . S
C155 C154 1.394 . S
C155 C156 1.516 . S
C156 C155 1.516 . S
C156 C157 1.502 . S
C156 C158 1.561 . S
C156 C159 1.526 . S
C157 H141 0.959 . S
C157 H142 0.959 . S
C157 H143 0.961 . S
C157 C156 1.502 . S
C158 H144 0.960 . S
C158 H145 0.961 . S
C158 H146 0.959 1_455 S
C158 C156 1.561 . S
C159 C156 1.526 . S
C159 C160 1.396 . S
C159 C164 1.390 . S
C160 C154 1.465 . S
C160 C159 1.396 . S
C160 C161 1.399 1_455 S
C161 H147 0.929 . S
C161 C160 1.399 1_655 S
C161 C162 1.385 1_655 S
C162 H148 0.931 1_455 S
C162 C161 1.385 1_455 S
C162 C163 1.389 . S
C163 C162 1.389 . S
C163 C164 1.387 . S
C164 H149 0.930 . S
C164 C159 1.390 . S
C164 C163 1.387 . S
H165 C177 0.930 . S
H166 C179 0.930 . S
H167 C180 0.930 . S
H168 C184 0.959 . S
H169 C184 0.959 . S
H170 C184 0.961 . S
H171 C185 0.960 . S
H172 C185 0.961 . S
H173 C185 0.959 . S
H174 C188 0.929 . S
H175 C189 0.931 . S
H176 C191 0.930 . S
C177 H165 0.930 . S
C177 C178 1.399 . S
C177 C182 1.399 . S
C178 C177 1.399 . S
C178 C179 1.376 1_545 S
C179 H166 0.930 . S
C179 C178 1.376 1_565 S
C179 C180 1.388 . S
C180 H167 0.930 . S
C180 C179 1.388 . S
C180 C181 1.390 1_565 S
C181 C180 1.390 1_545 S
C181 C182 1.394 . S
C181 C187 1.465 . S
C182 C177 1.399 . S
C182 C181 1.394 . S
C182 C183 1.516 . S
C183 C182 1.516 . S
C183 C184 1.502 . S
C183 C185 1.561 . S
C183 C186 1.526 . S
C184 H168 0.959 . S
C184 H169 0.959 . S
C184 H170 0.961 . S
C184 C183 1.502 . S
C185 H171 0.960 . S
C185 H172 0.961 . S
C185 H173 0.959 . S
C185 C183 1.561 . S
C186 C183 1.526 . S
C186 C187 1.396 . S
C186 C191 1.390 . S
C187 C181 1.465 . S
C187 C186 1.396 . S
C187 C188 1.399 1_545 S
C188 H174 0.929 . S
C188 C187 1.399 1_565 S
C188 C189 1.385 . S
C189 H175 0.931 . S
C189 C188 1.385 . S
C189 C190 1.389 1_565 S
C190 C189 1.389 1_545 S
C190 C191 1.387 . S
C191 H176 0.930 . S
C191 C186 1.390 . S
C191 C190 1.387 . S
H192 C204 0.930 . S
H193 C206 0.930 . S
H194 C207 0.930 . S
H195 C211 0.959 . S
H196 C211 0.959 . S
H197 C211 0.961 . S
H198 C212 0.960 . S
H199 C212 0.961 . S
H200 C212 0.959 . S
H201 C215 0.929 . S
H202 C216 0.931 . S
H203 C218 0.930 . S
C204 H192 0.930 . S
C204 C205 1.399 . S
C204 C209 1.399 1_554 S
C205 C204 1.399 . S
C205 C206 1.376 . S
C206 H193 0.930 . S
C206 C205 1.376 . S
C206 C207 1.388 . S
C207 H194 0.930 . S
C207 C206 1.388 . S
C207 C208 1.390 . S
C208 C207 1.390 . S
C208 C209 1.394 1_554 S
C208 C214 1.465 1_554 S
C209 C204 1.399 1_556 S
C209 C208 1.394 1_556 S
C209 C210 1.516 . S
C210 C209 1.516 . S
C210 C211 1.502 . S
C210 C212 1.561 . S
C210 C213 1.526 . S
C211 H195 0.959 . S
C211 H196 0.959 . S
C211 H197 0.961 . S
C211 C210 1.502 . S
C212 H198 0.960 . S
C212 H199 0.961 . S
C212 H200 0.959 . S
C212 C210 1.561 . S
C213 C210 1.526 . S
C213 C214 1.396 . S
C213 C218 1.390 . S
C214 C208 1.465 1_556 S
C214 C213 1.396 . S
C214 C215 1.399 . S
C215 H201 0.929 . S
C215 C214 1.399 . S
C215 C216 1.385 . S
C216 H202 0.931 . S
C216 C215 1.385 . S
C216 C217 1.389 . S
C217 C216 1.389 . S
C217 C218 1.387 . S
C218 H203 0.930 . S
C218 C213 1.390 . S
C218 C217 1.387 . S
H219 C231 0.930 1_655 S
H220 C233 0.930 . S
H221 C234 0.930 . S
H222 C238 0.959 1_455 S
H223 C238 0.959 . S
H224 C238 0.961 . S
H225 C239 0.960 . S
H226 C239 0.961 . S
H227 C239 0.959 . S
H228 C242 0.929 . S
H229 C243 0.931 . S
H230 C245 0.930 1_655 S
C231 H219 0.930 1_455 S
C231 C232 1.399 . S
C231 C236 1.399 . S
C232 C231 1.399 . S
C232 C233 1.376 . S
C233 H220 0.930 . S
C233 C232 1.376 . S
C233 C234 1.388 . S
C234 H221 0.930 . S
C234 C233 1.388 . S
C234 C235 1.390 . S
C235 C234 1.390 . S
C235 C236 1.394 . S
C235 C241 1.465 . S
C236 C231 1.399 . S
C236 C235 1.394 . S
C236 C237 1.516 1_455 S
C237 C236 1.516 1_655 S
C237 C238 1.502 . S
C237 C239 1.561 . S
C237 C240 1.526 1_655 S
C238 H222 0.959 1_655 S
C238 H223 0.959 . S
C238 H224 0.961 . S
C238 C237 1.502 . S
C239 H225 0.960 . S
C239 H226 0.961 . S
C239 H227 0.959 . S
C239 C237 1.561 . S
C240 C237 1.526 1_455 S
C240 C241 1.396 . S
C240 C245 1.390 . S
C241 C235 1.465 . S
C241 C240 1.396 . S
C241 C242 1.399 . S
C242 H228 0.929 . S
C242 C241 1.399 . S
C242 C243 1.385 . S
C243 H229 0.931 . S
C243 C242 1.385 . S
C243 C244 1.389 . S
C244 C243 1.389 . S
C244 C245 1.387 . S
C245 H230 0.930 1_455 S
C245 C240 1.390 . S
C245 C244 1.387 . S
H246 C258 0.930 . S
H247 C260 0.930 . S
H248 C261 0.930 . S
H249 C265 0.959 . S
H250 C265 0.959 . S
H251 C265 0.961 . S
H252 C266 0.960 . S
H253 C266 0.961 . S
H254 C266 0.959 . S
H255 C269 0.929 . S
H256 C270 0.931 . S
H257 C272 0.930 . S
C258 H246 0.930 . S
C258 C259 1.399 . S
C258 C263 1.399 . S
C259 C258 1.399 . S
C259 C260 1.376 . S
C260 H247 0.930 . S
C260 C259 1.376 . S
C260 C261 1.388 . S
C261 H248 0.930 . S
C261 C260 1.388 . S
C261 C262 1.390 . S
C262 C261 1.390 . S
C262 C263 1.394 . S
C262 C268 1.465 . S
C263 C258 1.399 . S
C263 C262 1.394 . S
C263 C264 1.516 . S
C264 C263 1.516 . S
C264 C265 1.502 . S
C264 C266 1.561 . S
C264 C267 1.526 . S
C265 H249 0.959 . S
C265 H250 0.959 . S
C265 H251 0.961 . S
C265 C264 1.502 . S
C266 H252 0.960 . S
C266 H253 0.961 . S
C266 H254 0.959 . S
C266 C264 1.561 . S
C267 C264 1.526 . S
C267 C268 1.396 . S
C267 C272 1.390 . S
C268 C262 1.465 . S
C268 C267 1.396 . S
C268 C269 1.399 . S
C269 H255 0.929 . S
C269 C268 1.399 . S
C269 C270 1.385 . S
C270 H256 0.931 . S
C270 C269 1.385 . S
C270 C271 1.389 . S
C271 C270 1.389 . S
C271 C272 1.387 . S
C272 H257 0.930 . S
C272 C267 1.390 . S
C272 C271 1.387 . S
H273 C285 0.930 . S
H274 C287 0.930 . S
H275 C288 0.930 . S
H276 C292 0.959 . S
H277 C292 0.959 . S
H278 C292 0.961 . S
H279 C293 0.960 . S
H280 C293 0.961 . S
H281 C293 0.959 . S
H282 C296 0.929 . S
H283 C297 0.931 . S
H284 C299 0.930 . S
C285 H273 0.930 . S
C285 C286 1.399 . S
C285 C290 1.399 . S
C286 C285 1.399 . S
C286 C287 1.376 . S
C287 H274 0.930 . S
C287 C286 1.376 . S
C287 C288 1.388 . S
C288 H275 0.930 . S
C288 C287 1.388 . S
C288 C289 1.390 . S
C289 C288 1.390 . S
C289 C290 1.394 . S
C289 C295 1.465 . S
C290 C285 1.399 . S
C290 C289 1.394 . S
C290 C291 1.516 . S
C291 C290 1.516 . S
C291 C292 1.502 . S
C291 C293 1.561 . S
C291 C294 1.526 . S
C292 H276 0.959 . S
C292 H277 0.959 . S
C292 H278 0.961 . S
C292 C291 1.502 . S
C293 H279 0.960 . S
C293 H280 0.961 . S
C293 H281 0.959 . S
C293 C291 1.561 . S
C294 C291 1.526 . S
C294 C295 1.396 . S
C294 C299 1.390 . S
C295 C289 1.465 . S
C295 C294 1.396 . S
C295 C296 1.399 . S
C296 H282 0.929 . S
C296 C295 1.399 . S
C296 C297 1.385 . S
C297 H283 0.931 . S
C297 C296 1.385 . S
C297 C298 1.389 . S
C298 C297 1.389 . S
C298 C299 1.387 . S
C299 H284 0.930 . S
C299 C294 1.390 . S
C299 C298 1.387 . S
H300 C312 0.930 . S
H301 C314 0.930 . S
H302 C315 0.930 . S
H303 C319 0.959 . S
H304 C319 0.959 . S
H305 C319 0.961 . S
H306 C320 0.960 . S
H307 C320 0.961 . S
H308 C320 0.959 . S
H309 C323 0.929 . S
H310 C324 0.931 . S
H311 C326 0.930 . S
C312 H300 0.930 . S
C312 C313 1.399 . S
C312 C317 1.399 . S
C313 C312 1.399 . S
C313 C314 1.376 . S
C314 H301 0.930 . S
C314 C313 1.376 . S
C314 C315 1.388 . S
C315 H302 0.930 . S
C315 C314 1.388 . S
C315 C316 1.390 . S
C316 C315 1.390 . S
C316 C317 1.394 . S
C316 C322 1.465 . S
C317 C312 1.399 . S
C317 C316 1.394 . S
C317 C318 1.516 . S
C318 C317 1.516 . S
C318 C319 1.502 . S
C318 C320 1.561 . S
C318 C321 1.526 . S
C319 H303 0.959 . S
C319 H304 0.959 . S
C319 H305 0.961 . S
C319 C318 1.502 . S
C320 H306 0.960 . S
C320 H307 0.961 . S
C320 H308 0.959 . S
C320 C318 1.561 . S
C321 C318 1.526 . S
C321 C322 1.396 . S
C321 C326 1.390 . S
C322 C316 1.465 . S
C322 C321 1.396 . S
C322 C323 1.399 . S
C323 H309 0.929 . S
C323 C322 1.399 . S
C323 C324 1.385 . S
C324 H310 0.931 . S
C324 C323 1.385 . S
C324 C325 1.389 . S
C325 C324 1.389 . S
C325 C326 1.387 . S
C326 H311 0.930 . S
C326 C321 1.390 . S
C326 C325 1.387 . S
H327 C339 0.930 . S
H328 C341 0.930 . S
H329 C342 0.930 . S
H330 C346 0.959 . S
H331 C346 0.959 . S
H332 C346 0.961 . S
H333 C347 0.960 . S
H334 C347 0.961 . S
H335 C347 0.959 . S
H336 C350 0.929 . S
H337 C351 0.931 . S
H338 C353 0.930 . S
C339 H327 0.930 . S
C339 C340 1.399 . S
C339 C344 1.399 . S
C340 C339 1.399 . S
C340 C341 1.376 . S
C341 H328 0.930 . S
C341 C340 1.376 . S
C341 C342 1.388 . S
C342 H329 0.930 . S
C342 C341 1.388 . S
C342 C343 1.390 . S
C343 C342 1.390 . S
C343 C344 1.394 . S
C343 C349 1.465 . S
C344 C339 1.399 . S
C344 C343 1.394 . S
C344 C345 1.516 . S
C345 C344 1.516 . S
C345 C346 1.502 . S
C345 C347 1.561 . S
C345 C348 1.526 . S
C346 H330 0.959 . S
C346 H331 0.959 . S
C346 H332 0.961 . S
C346 C345 1.502 . S
C347 H333 0.960 . S
C347 H334 0.961 . S
C347 H335 0.959 . S
C347 C345 1.561 . S
C348 C345 1.526 . S
C348 C349 1.396 . S
C348 C353 1.390 . S
C349 C343 1.465 . S
C349 C348 1.396 . S
C349 C350 1.399 . S
C350 H336 0.929 . S
C350 C349 1.399 . S
C350 C351 1.385 . S
C351 H337 0.931 . S
C351 C350 1.385 . S
C351 C352 1.389 . S
C352 C351 1.389 . S
C352 C353 1.387 . S
C353 H338 0.930 . S
C353 C348 1.390 . S
C353 C352 1.387 . S
H354 C366 0.930 . S
H355 C368 0.930 . S
H356 C369 0.930 . S
H357 C373 0.959 . S
H358 C373 0.959 . S
H359 C373 0.961 . S
H360 C374 0.960 . S
H361 C374 0.961 . S
H362 C374 0.959 . S
H363 C377 0.929 . S
H364 C378 0.931 . S
H365 C380 0.930 . S
C366 H354 0.930 . S
C366 C367 1.399 . S
C366 C371 1.399 . S
C367 C366 1.399 . S
C367 C368 1.376 . S
C368 H355 0.930 . S
C368 C367 1.376 . S
C368 C369 1.388 . S
C369 H356 0.930 . S
C369 C368 1.388 . S
C369 C370 1.390 . S
C370 C369 1.390 . S
C370 C371 1.394 . S
C370 C376 1.465 . S
C371 C366 1.399 . S
C371 C370 1.394 . S
C371 C372 1.516 . S
C372 C371 1.516 . S
C372 C373 1.502 . S
C372 C374 1.561 . S
C372 C375 1.526 . S
C373 H357 0.959 . S
C373 H358 0.959 . S
C373 H359 0.961 . S
C373 C372 1.502 . S
C374 H360 0.960 . S
C374 H361 0.961 . S
C374 H362 0.959 . S
C374 C372 1.561 . S
C375 C372 1.526 . S
C375 C376 1.396 . S
C375 C380 1.390 . S
C376 C370 1.465 . S
C376 C375 1.396 . S
C376 C377 1.399 . S
C377 H363 0.929 . S
C377 C376 1.399 . S
C377 C378 1.385 . S
C378 H364 0.931 . S
C378 C377 1.385 . S
C378 C379 1.389 . S
C379 C378 1.389 . S
C379 C380 1.387 . S
C380 H365 0.930 . S
C380 C375 1.390 . S
C380 C379 1.387 . S
H381 C393 0.930 . S
H382 C395 0.930 . S
H383 C396 0.930 . S
H384 C400 0.959 . S
H385 C400 0.959 . S
H386 C400 0.961 . S
H387 C401 0.960 . S
H388 C401 0.961 . S
H389 C401 0.959 . S
H390 C404 0.929 . S
H391 C405 0.931 . S
H392 C407 0.930 . S
C393 H381 0.930 . S
C393 C394 1.399 . S
C393 C398 1.399 . S
C394 C393 1.399 . S
C394 C395 1.376 1_556 S
C395 H382 0.930 . S
C395 C394 1.376 1_554 S
C395 C396 1.388 . S
C396 H383 0.930 . S
C396 C395 1.388 . S
C396 C397 1.401 . S
C397 C396 1.401 . S
C397 C398 1.373 1_554 S
C397 C403 1.472 . S
C398 C393 1.399 . S
C398 C397 1.373 1_556 S
C398 C399 1.516 . S
C399 C398 1.516 . S
C399 C400 1.502 . S
C399 C401 1.561 . S
C399 C402 1.526 . S
C400 H384 0.959 . S
C400 H385 0.959 . S
C400 H386 0.961 . S
C400 C399 1.502 . S
C401 H387 0.960 . S
C401 H388 0.961 . S
C401 H389 0.959 . S
C401 C399 1.561 . S
C402 C399 1.526 . S
C402 C403 1.396 1_556 S
C402 C407 1.390 . S
C403 C397 1.472 . S
C403 C402 1.396 1_554 S
C403 C404 1.399 . S
C404 H390 0.929 . S
C404 C403 1.399 . S
C404 C405 1.385 . S
C405 H391 0.931 . S
C405 C404 1.385 . S
C405 C406 1.389 . S
C406 C405 1.389 . S
C406 C407 1.387 1_554 S
C407 H392 0.930 . S
C407 C402 1.390 . S
C407 C406 1.387 1_556 S
C97 C8 1.421 . S
C109 C55 1.297 . S
C124 C22 1.341 . S
C136 C69 1.393 . S
C151 C83 1.298 . S
C163 C36 1.422 . S
C178 C13 1.305 . S
C190 C50 1.407 . S
C205 C27 1.296 . S
C217 C64 1.421 . S
C232 C78 1.422 1_554 S
C244 C41 1.297 . S
C259 C25 1.433 . S
C271 C7 1.405 . S
C286 C39 1.419 . S
C298 C21 1.394 . S
C313 C35 1.393 . S
C325 C53 1.420 . S
C340 C67 1.418 . S
C352 C49 1.433 . S
C367 C81 1.428 . S
C379 C63 1.426 . S
C394 C77 1.423 . S
C406 C11 1.429 . S
