# Generated by pormake.
# Topology mdf, (4)-cn, num edge types: 1
# Building blocks:
#     Node 0, Type 0, BuildingBlock: TATPOV_clean_sbu_0, # of connection points: 4
#     Node 1, Type 0, BuildingBlock: TATPOV_clean_sbu_0, # of connection points: 4
#     Node 2, Type 0, BuildingBlock: TATPOV_clean_sbu_0, # of connection points: 4
#     Node 3, Type 0, BuildingBlock: TATPOV_clean_sbu_0, # of connection points: 4
#     Node 4, Type 0, BuildingBlock: TATPOV_clean_sbu_0, # of connection points: 4
#     Node 5, Type 0, BuildingBlock: TATPOV_clean_sbu_0, # of connection points: 4
#     Node 6, Type 0, BuildingBlock: TATPOV_clean_sbu_0, # of connection points: 4
#     Node 7, Type 0, BuildingBlock: TATPOV_clean_sbu_0, # of connection points: 4
#     Edge 8, Type (0, 0), BuildingBlock: FUNLAD_clean_linker_0, # of connection points: 2
#     Edge 9, Type (0, 0), BuildingBlock: FUNLAD_clean_linker_0, # of connection points: 2
#     Edge 10, Type (0, 0), BuildingBlock: FUNLAD_clean_linker_0, # of connection points: 2
#     Edge 11, Type (0, 0), BuildingBlock: FUNLAD_clean_linker_0, # of connection points: 2
#     Edge 12, Type (0, 0), BuildingBlock: FUNLAD_clean_linker_0, # of connection points: 2
#     Edge 13, Type (0, 0), BuildingBlock: FUNLAD_clean_linker_0, # of connection points: 2
#     Edge 14, Type (0, 0), BuildingBlock: FUNLAD_clean_linker_0, # of connection points: 2
#     Edge 15, Type (0, 0), BuildingBlock: FUNLAD_clean_linker_0, # of connection points: 2
#     Edge 16, Type (0, 0), BuildingBlock: FUNLAD_clean_linker_0, # of connection points: 2
#     Edge 17, Type (0, 0), BuildingBlock: FUNLAD_clean_linker_0, # of connection points: 2
#     Edge 18, Type (0, 0), BuildingBlock: FUNLAD_clean_linker_0, # of connection points: 2
#     Edge 19, Type (0, 0), BuildingBlock: FUNLAD_clean_linker_0, # of connection points: 2
#     Edge 20, Type (0, 0), BuildingBlock: FUNLAD_clean_linker_0, # of connection points: 2
#     Edge 21, Type (0, 0), BuildingBlock: FUNLAD_clean_linker_0, # of connection points: 2
#     Edge 22, Type (0, 0), BuildingBlock: FUNLAD_clean_linker_0, # of connection points: 2
#     Edge 23, Type (0, 0), BuildingBlock: FUNLAD_clean_linker_0, # of connection points: 2
# Relax obj value: 0.042
# Max RMSD: 0.067
# Mean RMSD: 0.055
data_MOF--net-mdf--node1-TATPOV_clean_sbu_0--edge1-FUNLAD_clean_linker_0
_symmetry_space_group_name_H-M    P1
_symmetry_Int_Tables_number       1
_symmetry_cell_setting            triclinic
loop_
_symmetry_equiv_pos_as_xyz
'x, y, z'
_cell_length_a     40.669721
_cell_length_b     40.579281
_cell_length_c     16.964326
_cell_angle_alpha  91.560961
_cell_angle_beta   91.792291
_cell_angle_gamma 90.148665
loop_
_atom_site_label
_atom_site_type_symbol
_atom_site_fract_x
_atom_site_fract_y
_atom_site_fract_z
_atom_type_partial_charge
Zn0 Zn 0.25749 0.52671 0.53815 0.0
Zn1 Zn 0.26888 0.55723 0.40544 0.0
O2 O 0.25098 0.59477 0.47862 0.0
O3 O 0.24183 0.56862 0.58781 0.0
O4 O 0.28107 0.58088 0.30657 0.0
O5 O 0.30473 0.51458 0.55369 0.0
O6 O 0.31396 0.5369 0.43951 0.0
C7 C 0.24145 0.59496 0.5496 0.0
C8 C 0.219 0.50006 0.40605 0.0
O9 O 0.23342 0.52268 0.36901 0.0
O10 O 0.22555 0.49638 0.47876 0.0
C11 C 0.26547 0.60542 0.27921 0.0
O12 O 0.23889 0.61574 0.31425 0.0
C13 C 0.32427 0.52156 0.50005 0.0
Zn14 Zn 0.47305 0.76229 0.45895 0.0
Zn15 Zn 0.4472 0.749 0.59906 0.0
O16 O 0.40694 0.76376 0.53045 0.0
O17 O 0.42786 0.77123 0.4138 0.0
O18 O 0.42779 0.73509 0.70211 0.0
O19 O 0.4911 0.71652 0.44865 0.0
O20 O 0.47026 0.70576 0.56337 0.0
C21 C 0.40339 0.77093 0.45798 0.0
C22 C 0.4988 0.804 0.5882 0.0
O23 O 0.47967 0.78687 0.62924 0.0
O24 O 0.5001 0.79854 0.51444 0.0
C25 C 0.39959 0.74335 0.72641 0.0
O26 O 0.38146 0.76376 0.68502 0.0
C27 C 0.48635 0.69661 0.50329 0.0
Zn28 Zn 0.22932 0.96434 0.69169 0.0
Zn29 Zn 0.2502 0.9461 0.83361 0.0
O30 O 0.24985 0.90227 0.76814 0.0
O31 O 0.23805 0.9189 0.64803 0.0
O32 O 0.26498 0.93171 0.942 0.0
O33 O 0.26574 0.99755 0.68872 0.0
O34 O 0.28578 0.97958 0.80168 0.0
C35 C 0.24599 0.89614 0.69434 0.0
C36 C 0.18138 0.9764 0.80888 0.0
O37 O 0.20461 0.96628 0.85413 0.0
O38 O 0.18514 0.97675 0.73507 0.0
C39 C 0.24752 0.91099 0.97723 0.0
O40 O 0.22039 0.89968 0.94198 0.0
C41 C 0.28795 0.99828 0.74268 0.0
Zn42 Zn 0.02077 0.77936 0.28237 0.0
Zn43 Zn 0.04379 0.75782 0.14434 0.0
O44 O 0.08514 0.75867 0.21832 0.0
O45 O 0.06525 0.77228 0.33392 0.0
O46 O 0.06167 0.74132 0.04131 0.0
O47 O 0.98842 0.74156 0.28003 0.0
O48 O 0.00991 0.72223 0.17067 0.0
C49 C 0.08927 0.76364 0.29249 0.0
C50 C 0.01133 0.8259 0.15887 0.0
O51 O 0.02337 0.80265 0.11695 0.0
O52 O 0.00889 0.82276 0.23256 0.0
C53 C 0.0818 0.75785 1.00207 0.0
O54 O 0.09104 0.78728 0.02849 0.0
C55 C 0.9896 0.7195 0.22593 0.0
Zn56 Zn 0.73128 0.0353 0.01407 0.0
Zn57 Zn 0.75345 0.06162 0.88574 0.0
O58 O 0.73549 0.10171 0.95133 0.0
O59 O 0.72197 0.07932 0.06282 0.0
O60 O 0.77448 0.08382 0.79365 0.0
O61 O 0.77412 0.01403 0.04026 0.0
O62 O 0.79372 0.03681 0.93525 0.0
C63 C 0.72496 0.10446 0.0213 0.0
C64 C 0.69593 0.01249 0.873 0.0
O65 O 0.71673 0.03034 0.83849 0.0
O66 O 0.69672 0.01124 0.94754 0.0
C67 C 0.76143 0.08907 0.72601 0.0
O68 O 0.73109 0.07921 0.71016 0.0
C69 C 0.79789 0.01914 0.99587 0.0
Zn70 Zn 0.99845 0.25576 0.97852 0.0
Zn71 Zn 0.9629 0.24483 0.10044 0.0
O72 O 0.92889 0.26441 0.01907 0.0
O73 O 0.96018 0.2736 0.91852 0.0
O74 O 0.93482 0.23267 0.19259 0.0
O75 O 0.01054 0.20873 0.9623 0.0
O76 O 0.98377 0.19928 0.07015 0.0
C77 C 0.93228 0.27475 0.94929 0.0
C78 C 0.02125 0.29338 0.11448 0.0
O79 O 0.99673 0.27971 0.14601 0.0
O80 O 0.02762 0.28648 0.04338 0.0
C81 C 0.94739 0.21566 0.24775 0.0
O82 O 0.97871 0.20795 0.24548 0.0
C83 C 1.00128 0.18896 0.01347 0.0
Zn84 Zn 0.72523 0.46582 0.22646 0.0
Zn85 Zn 0.73977 0.44803 0.37306 0.0
O86 O 0.74171 0.40425 0.30787 0.0
O87 O 0.73519 0.42024 0.18536 0.0
O88 O 0.75179 0.43332 0.48273 0.0
O89 O 0.7618 0.49903 0.2319 0.0
O90 O 0.77613 0.48212 0.35026 0.0
C91 C 0.74087 0.3977 0.23394 0.0
C92 C 0.67274 0.47877 0.33291 0.0
O93 O 0.69371 0.46837 0.38377 0.0
O94 O 0.67969 0.47879 0.26061 0.0
C95 C 0.73629 0.4103 0.51518 0.0
O96 O 0.71095 0.39645 0.47731 0.0
C97 C 0.78105 0.50056 0.29196 0.0
Zn98 Zn 0.52948 0.27606 0.79367 0.0
Zn99 Zn 0.55502 0.25392 0.6605 0.0
O100 O 0.59473 0.25483 0.7404 0.0
O101 O 0.57247 0.27052 0.8519 0.0
O102 O 0.57612 0.2408 0.55789 0.0
O103 O 0.49846 0.23762 0.78932 0.0
O104 O 0.52108 0.21718 0.6823 0.0
C105 C 0.59728 0.26095 0.81449 0.0
C106 C 0.52098 0.32206 0.6719 0.0
O107 O 0.53443 0.29884 0.63252 0.0
O108 O 0.51688 0.31912 0.74502 0.0
C109 C 0.59901 0.25934 0.53481 0.0
O110 O 0.60774 0.28529 0.57865 0.0
C111 C 0.50032 0.21494 0.73693 0.0
C112 C 0.35467 0.73594 0.82293 0.0
C113 C 0.38646 0.7283 0.79786 0.0
C114 C 0.34167 0.72049 0.88796 0.0
C115 C 0.36016 0.69682 0.92933 0.0
C116 C 0.39221 0.68988 0.90522 0.0
C117 C 0.40518 0.7053 0.84029 0.0
C118 C 0.34744 0.67896 0.99799 0.0
C119 C 0.31539 0.67707 0.016 0.0
C120 C 0.30325 0.65822 0.08358 0.0
C121 C 0.27323 0.66727 0.11662 0.0
C122 C 0.26087 0.65008 0.17977 0.0
C123 C 0.27808 0.62312 0.21082 0.0
H124 H 0.34284 0.6223 0.08849 0.0
C125 C 0.30781 0.61362 0.17678 0.0
C126 C 0.32024 0.63089 0.11386 0.0
H127 H 0.3216 0.59282 0.1988 0.0
H128 H 0.33964 0.75373 0.79199 0.0
H129 H 0.31728 0.72749 0.90543 0.0
H130 H 0.40722 0.67203 0.93611 0.0
H131 H 0.4298 0.69887 0.82288 0.0
H132 H 0.36556 0.66635 0.03445 0.0
H133 H 0.29702 0.68996 0.98101 0.0
H134 H 0.25942 0.68797 0.09403 0.0
H135 H 0.23784 0.65803 0.20432 0.0
C136 C 0.35499 0.80847 0.45323 0.0
C137 C 0.3712 0.7804 0.42419 0.0
C138 C 0.32891 0.82212 0.40929 0.0
C139 C 0.31838 0.80737 0.33672 0.0
C140 C 0.33277 0.77764 0.31181 0.0
C141 C 0.35938 0.76461 0.35439 0.0
C142 C 0.29509 0.82379 0.28156 0.0
C143 C 0.29681 0.85641 0.26929 0.0
C144 C 0.2816 0.87184 0.19856 0.0
C145 C 0.29741 0.89903 0.16677 0.0
C146 C 0.28606 0.91212 0.09561 0.0
C147 C 0.25832 0.89857 0.05518 0.0
H148 H 0.23961 0.8388 0.18386 0.0
C149 C 0.24148 0.8724 0.089 0.0
C150 C 0.25299 0.85914 0.15994 0.0
H151 H 0.21978 0.86164 0.05987 0.0
H152 H 0.36393 0.82111 0.50678 0.0
H153 H 0.31788 0.84481 0.43051 0.0
H154 H 0.32499 0.76572 0.25637 0.0
H155 H 0.37167 0.74296 0.33098 0.0
H156 H 0.28067 0.80801 0.24083 0.0
H157 H 0.31389 0.87143 0.3055 0.0
H158 H 0.31936 0.90945 0.19558 0.0
H159 H 0.2994 0.93251 0.07168 0.0
C160 C 0.12473 0.75677 0.41325 0.0
C161 C 0.12212 0.76049 0.33124 0.0
C162 C 0.15523 0.75884 0.45287 0.0
C163 C 0.18397 0.7649 0.41126 0.0
C164 C 0.18158 0.76608 0.32846 0.0
C165 C 0.15095 0.76367 0.28865 0.0
C166 C 0.21461 0.77717 0.45247 0.0
C167 C 0.22023 0.77512 0.53108 0.0
C168 C 0.23674 0.80204 0.57914 0.0
C169 C 0.22865 0.80582 0.65898 0.0
C170 C 0.2345 0.83576 0.70004 0.0
C171 C 0.24835 0.86231 0.66147 0.0
H172 H 0.26316 0.82501 0.48508 0.0
C173 C 0.26011 0.85726 0.58524 0.0
C174 C 0.25486 0.82724 0.5448 0.0
H175 H 0.27172 0.87721 0.55511 0.0
H176 H 0.10295 0.75376 0.44756 0.0
H177 H 0.15549 0.75823 0.51654 0.0
H178 H 0.20321 0.77095 0.29486 0.0
H179 H 0.14969 0.76637 0.22527 0.0
H180 H 0.22946 0.79342 0.41843 0.0
H181 H 0.2065 0.7572 0.56325 0.0
H182 H 0.21512 0.78671 0.68757 0.0
H183 H 0.2255 0.83902 0.75918 0.0
C184 C 0.12254 0.75847 0.89347 0.0
C185 C 0.09679 0.74269 0.9314 0.0
C186 C 0.13908 0.74222 0.8325 0.0
C187 C 0.13001 0.70992 0.80841 0.0
C188 C 0.10325 0.69497 0.84376 0.0
C189 C 0.08677 0.71114 0.90428 0.0
C190 C 0.15011 0.68921 0.75513 0.0
C191 C 0.17229 0.70035 0.70472 0.0
C192 C 0.19419 0.6765 0.66465 0.0
C193 C 0.1987 0.67718 0.58293 0.0
C194 C 0.21566 0.6515 0.54475 0.0
C195 C 0.22838 0.62509 0.58827 0.0
H196 H 0.20699 0.65097 0.77184 0.0
C197 C 0.22596 0.6261 0.67071 0.0
C198 C 0.20919 0.65149 0.70838 0.0
H199 H 0.23612 0.60658 0.70627 0.0
H200 H 0.13081 0.78284 0.9129 0.0
H201 H 0.15991 0.75436 0.80752 0.0
H202 H 0.09576 0.67009 0.82646 0.0
H203 H 0.06687 0.69835 0.9316 0.0
H204 H 0.14711 0.66267 0.75964 0.0
H205 H 0.17425 0.72638 0.69237 0.0
H206 H 0.18763 0.69648 0.54823 0.0
H207 H 0.21737 0.65148 0.48116 0.0
C208 C 0.81181 0.1194 0.6853 0.0
C209 C 0.78042 0.10637 0.666 0.0
C210 C 0.82985 0.13565 0.62905 0.0
C211 C 0.81711 0.13896 0.55145 0.0
C212 C 0.78549 0.12638 0.53267 0.0
C213 C 0.76738 0.11024 0.58909 0.0
C214 C 0.83562 0.15572 0.48901 0.0
C215 C 0.86858 0.16015 0.49211 0.0
C216 C 0.88778 0.17549 0.4289 0.0
C217 C 0.92191 0.17028 0.42875 0.0
C218 C 0.94116 0.18367 0.3707 0.0
C219 C 0.92684 0.20289 0.3112 0.0
H220 H 0.84744 0.20086 0.36915 0.0
C221 C 0.89277 0.2088 0.31199 0.0
C222 C 0.87343 0.19534 0.37024 0.0
H223 H 0.88096 0.22368 0.26732 0.0
H224 H 0.82247 0.11727 0.74425 0.0
H225 H 0.85351 0.1459 0.64744 0.0
H226 H 0.77482 0.12878 0.47379 0.0
H227 H 0.74322 0.10068 0.5722 0.0
H228 H 0.82157 0.16298 0.43695 0.0
H229 H 0.88282 0.1505 0.54139 0.0
H230 H 0.9338 0.15541 0.47337 0.0
H231 H 0.96731 0.17866 0.37225 0.0
C232 C 0.87419 0.29703 0.93706 0.0
C233 C 0.90471 0.28979 0.90372 0.0
C234 C 0.85003 0.31433 0.89397 0.0
C235 C 0.85627 0.32467 0.81723 0.0
C236 C 0.88625 0.3164 0.78364 0.0
C237 C 0.90999 0.29906 0.82584 0.0
C238 C 0.83373 0.34599 0.77117 0.0
C239 C 0.80076 0.34642 0.7758 0.0
C240 C 0.78071 0.36578 0.71889 0.0
C241 C 0.75221 0.35187 0.68294 0.0
C242 C 0.73663 0.36714 0.61881 0.0
C243 C 0.74922 0.3967 0.59013 0.0
H244 H 0.81286 0.40861 0.7228 0.0
C245 C 0.7761 0.41191 0.63057 0.0
C246 C 0.79157 0.39671 0.69444 0.0
H247 H 0.78602 0.43501 0.61113 0.0
H248 H 0.86939 0.29026 0.99694 0.0
H249 H 0.82721 0.32067 0.92179 0.0
H250 H 0.89163 0.32388 0.72454 0.0
H251 H 0.93297 0.29371 0.79761 0.0
H252 H 0.84502 0.36037 0.726 0.0
H253 H 0.78848 0.32977 0.81452 0.0
H254 H 0.74314 0.32825 0.70133 0.0
H255 H 0.7157 0.35497 0.58953 0.0
C256 C 0.75915 0.35785 0.13078 0.0
C257 C 0.74416 0.36363 0.20321 0.0
C258 C 0.7556 0.32742 0.09115 0.0
C259 C 0.73588 0.30261 0.12211 0.0
C260 C 0.72428 0.3072 0.19894 0.0
C261 C 0.72849 0.3375 0.23944 0.0
C262 C 0.72155 0.27516 0.07194 0.0
C263 C 0.71786 0.27728 0.99285 0.0
C264 C 0.68865 0.26411 0.9473 0.0
C265 C 0.68857 0.2646 0.86438 0.0
C266 C 0.65907 0.26139 0.81992 0.0
C267 C 0.62913 0.25813 0.85798 0.0
H268 H 0.65737 0.25803 0.04797 0.0
C269 C 0.62953 0.25505 0.94025 0.0
C270 C 0.65887 0.25801 0.98446 0.0
H271 H 0.60684 0.252 0.97114 0.0
H272 H 0.77218 0.37746 0.10278 0.0
H273 H 0.76663 0.32443 0.03426 0.0
H274 H 0.70941 0.28841 0.22491 0.0
H275 H 0.71698 0.34132 0.2957 0.0
H276 H 0.70746 0.25677 0.10184 0.0
H277 H 0.73292 0.29429 0.96142 0.0
H278 H 0.71106 0.26957 0.83418 0.0
H279 H 0.65949 0.26367 0.75648 0.0
C280 C 0.72681 0.14571 0.13117 0.0
C281 C 0.7148 0.13637 0.05547 0.0
C282 C 0.71149 0.17066 0.17447 0.0
C283 C 0.68336 0.18644 0.14333 0.0
C284 C 0.67259 0.17838 0.06556 0.0
C285 C 0.68846 0.15378 0.02146 0.0
C286 C 0.66205 0.20679 0.19501 0.0
C287 C 0.67344 0.22239 0.26151 0.0
C288 C 0.65184 0.23434 0.32522 0.0
C289 C 0.66343 0.25926 0.37799 0.0
C290 C 0.64579 0.26798 0.44482 0.0
C291 C 0.61643 0.25147 0.46121 0.0
H292 H 0.61264 0.19851 0.30219 0.0
C293 C 0.60446 0.22692 0.40767 0.0
C294 C 0.62191 0.21849 0.34026 0.0
H295 H 0.58191 0.21378 0.41853 0.0
H296 H 0.74684 0.13224 0.15882 0.0
H297 H 0.7202 0.17542 0.23462 0.0
H298 H 0.65074 0.18978 0.04052 0.0
H299 H 0.67845 0.14652 0.96364 0.0
H300 H 0.63583 0.20688 0.18062 0.0
H301 H 0.6998 0.22517 0.27198 0.0
H302 H 0.68659 0.27158 0.36838 0.0
H303 H 0.65572 0.28701 0.48483 0.0
C304 C 0.37522 0.49633 0.44513 0.0
C305 C 0.35877 0.51091 0.50868 0.0
C306 C 0.40567 0.48089 0.45804 0.0
C307 C 0.42022 0.48051 0.53446 0.0
C308 C 0.40485 0.49745 0.59624 0.0
C309 C 0.37422 0.51205 0.5838 0.0
C310 C 0.44961 0.46048 0.55456 0.0
C311 C 0.45481 0.43041 0.52168 0.0
C312 C 0.47639 0.40538 0.55943 0.0
C313 C 0.4878 0.37861 0.51379 0.0
C314 C 0.50382 0.35213 0.54967 0.0
C315 C 0.50819 0.35168 0.63219 0.0
H316 H 0.47287 0.42491 0.67977 0.0
C317 C 0.49782 0.37898 0.6775 0.0
C318 C 0.48209 0.40545 0.64176 0.0
H319 H 0.50081 0.37945 0.74121 0.0
H320 H 0.36373 0.4952 0.38664 0.0
H321 H 0.4173 0.46862 0.40884 0.0
H322 H 0.41562 0.49771 0.65551 0.0
H323 H 0.3621 0.52339 0.6336 0.0
H324 H 0.46432 0.46856 0.60603 0.0
H325 H 0.44034 0.4224 0.46971 0.0
H326 H 0.48343 0.3777 0.45044 0.0
H327 H 0.51146 0.33142 0.51307 0.0
C328 C 0.64502 0.97789 0.86769 0.0
C329 C 0.67098 0.99231 0.82776 0.0
C330 C 0.62237 0.95706 0.82788 0.0
C331 C 0.62528 0.94964 0.74694 0.0
C332 C 0.65047 0.96505 0.70622 0.0
C333 C 0.67314 0.98616 0.74618 0.0
C334 C 0.60233 0.92632 0.70344 0.0
C335 C 0.58565 0.90231 0.73913 0.0
C336 C 0.56284 0.8782 0.69786 0.0
C337 C 0.54147 0.85979 0.74335 0.0
C338 C 0.52036 0.83603 0.70801 0.0
C339 C 0.52025 0.82993 0.62611 0.0
H340 H 0.5791 0.88501 0.57828 0.0
C341 C 0.54155 0.8484 0.58045 0.0
C342 C 0.56263 0.87216 0.61575 0.0
H343 H 0.54229 0.84426 0.51718 0.0
H344 H 0.64216 0.98258 0.93027 0.0
H345 H 0.60255 0.94711 0.86108 0.0
H346 H 0.65303 0.9602 0.6436 0.0
H347 H 0.69273 0.99702 0.71361 0.0
H348 H 0.59992 0.92883 0.64008 0.0
H349 H 0.58881 0.89974 0.8024 0.0
H350 H 0.54114 0.86372 0.80675 0.0
H351 H 0.50437 0.82224 0.74504 0.0
C352 C 0.02071 0.13662 0.07538 0.0
C353 C 0.01257 0.15446 0.00773 0.0
C354 C 0.03716 0.10637 0.06842 0.0
C355 C 0.04487 0.09314 0.99379 0.0
C356 C 0.03496 0.11034 0.92619 0.0
C357 C 0.01911 0.1406 0.9332 0.0
C358 C 0.06712 0.06421 0.98731 0.0
C359 C 0.06681 0.04409 0.92267 0.0
C360 C 0.09459 0.02237 0.89962 0.0
C361 C 0.09577 0.0119 0.82018 0.0
C362 C 0.12346 0.99592 0.79157 0.0
C363 C 0.15063 0.9896 0.84195 0.0
H364 H 0.12085 0.02107 0.01336 0.0
C365 C 0.1487 0.99799 0.92266 0.0
C366 C 0.12098 0.0143 0.95132 0.0
H367 H 0.16911 0.99311 0.9632 0.0
H368 H 0.01619 0.14694 0.13359 0.0
H369 H 0.04485 0.09383 0.12144 0.0
H370 H 0.04124 0.10166 0.8677 0.0
H371 H 0.01314 0.15386 0.88005 0.0
H372 H 0.0859 0.06178 0.03353 0.0
H373 H 0.04676 0.04645 0.87933 0.0
H374 H 0.07578 0.01745 0.77895 0.0
H375 H 0.1239 0.98938 0.72927 0.0
C376 C 0.94639 0.68692 0.29148 0.0
C377 C 0.9676 0.69042 0.22832 0.0
C378 C 0.92546 0.6597 0.29432 0.0
C379 C 0.92535 0.63516 0.23414 0.0
C380 C 0.94647 0.63868 0.17092 0.0
C381 C 0.96751 0.66592 0.16815 0.0
C382 C 0.90189 0.60699 0.23251 0.0
C383 C 0.88763 0.59567 0.29728 0.0
C384 C 0.86136 0.57009 0.29376 0.0
C385 C 0.8556 0.55153 0.36075 0.0
C386 C 0.82982 0.52855 0.36039 0.0
C387 C 0.80905 0.52402 0.29317 0.0
H388 H 0.84332 0.58001 0.17471 0.0
C389 C 0.81486 0.54266 0.22628 0.0
C390 C 0.84056 0.56545 0.22659 0.0
H391 H 0.79927 0.53999 0.17354 0.0
H392 H 0.94568 0.70539 0.3387 0.0
H393 H 0.90884 0.65857 0.34272 0.0
H394 H 0.94661 0.62035 0.12328 0.0
H395 H 0.98351 0.66786 0.11861 0.0
H396 H 0.89644 0.59509 0.17548 0.0
H397 H 0.89547 0.60521 0.35528 0.0
H398 H 0.87101 0.5549 0.41363 0.0
H399 H 0.82596 0.51467 0.41297 0.0
C400 C 0.34157 0.02304 0.79391 0.0
C401 C 0.31663 0.02043 0.73484 0.0
C402 C 0.36845 0.04415 0.78518 0.0
C403 C 0.3708 0.06312 0.71717 0.0
C404 C 0.34628 0.05982 0.65759 0.0
C405 C 0.31946 0.03893 0.66639 0.0
C406 C 0.39795 0.08701 0.70634 0.0
C407 C 0.41408 0.10252 0.76711 0.0
C408 C 0.43726 0.13033 0.7571 0.0
C409 C 0.44071 0.15395 0.81857 0.0
C410 C 0.46103 0.1813 0.81129 0.0
C411 C 0.4789 0.18557 0.7426 0.0
H412 H 0.45415 0.11592 0.64079 0.0
C413 C 0.47623 0.1615 0.68156 0.0
C414 C 0.45553 0.13412 0.68862 0.0
H415 H 0.48994 0.16391 0.62829 0.0
H416 H 0.34035 0.00883 0.84687 0.0
H417 H 0.38737 0.04527 0.83146 0.0
H418 H 0.34753 0.07395 0.60445 0.0
H419 H 0.30089 0.03736 0.61924 0.0
H420 H 0.40228 0.09451 0.64656 0.0
H421 H 0.40755 0.09717 0.82702 0.0
H422 H 0.42714 0.15157 0.87212 0.0
H423 H 0.46273 0.19909 0.86002 0.0
C424 C 0.8544 0.99938 0.9595 0.0
C425 C 0.83016 0.00423 0.01598 0.0
C426 C 0.88368 0.98281 0.97921 0.0
C427 C 0.88919 0.97115 0.05601 0.0
C428 C 0.8655 0.9774 0.11278 0.0
C429 C 0.83633 0.99346 0.09301 0.0
C430 C 0.91855 0.9517 0.08037 0.0
C431 C 0.93683 0.93344 0.03071 0.0
C432 C 0.96099 0.90864 0.05991 0.0
C433 C 0.96736 0.88057 0.01253 0.0
C434 C 0.98553 0.85427 0.04298 0.0
C435 C 0.9975 0.85556 0.12161 0.0
H436 H 0.97302 0.93292 0.17327 0.0
C437 C 0.99338 0.88464 0.1669 0.0
C438 C 0.97575 0.91107 0.13611 0.0
H439 H 0.00304 0.88664 0.2271 0.0
H440 H 0.85039 0.00762 0.89978 0.0
H441 H 0.90173 0.97917 0.93433 0.0
H442 H 0.86913 0.96901 0.17254 0.0
H443 H 0.8184 0.99716 0.13831 0.0
H444 H 0.92265 0.9494 0.14349 0.0
H445 H 0.9311 0.93344 0.96779 0.0
H446 H 0.95679 0.87819 0.95322 0.0
H447 H 0.98854 0.83224 0.00645 0.0
C448 C 0.07026 0.33071 0.12313 0.0
C449 C 0.04237 0.31786 0.15877 0.0
C450 C 0.09018 0.35431 0.16239 0.0
C451 C 0.0826 0.36609 0.23837 0.0
C452 C 0.05505 0.35287 0.27474 0.0
C453 C 0.03506 0.32907 0.23532 0.0
C454 C 0.10383 0.39078 0.28244 0.0
C455 C 0.12425 0.41171 0.24695 0.0
C456 C 0.14753 0.4348 0.29002 0.0
C457 C 0.16154 0.46076 0.24898 0.0
C458 C 0.18468 0.48209 0.28621 0.0
C459 C 0.19445 0.47783 0.36543 0.0
H460 H 0.14833 0.4103 0.40262 0.0
C461 C 0.1805 0.45181 0.40639 0.0
C462 C 0.1575 0.43049 0.36922 0.0
H463 H 0.1876 0.44757 0.46733 0.0
H464 H 0.07696 0.32242 0.06457 0.0
H465 H 0.1118 0.36267 0.13318 0.0
H466 H 0.04887 0.36112 0.3337 0.0
H467 H 0.01384 0.31963 0.26458 0.0
H468 H 0.10189 0.39197 0.34607 0.0
H469 H 0.12376 0.41252 0.18303 0.0
H470 H 0.15463 0.46452 0.18769 0.0
H471 H 0.19494 0.50183 0.25288 0.0
C472 C 0.51081 0.65074 0.42413 0.0
C473 C 0.50086 0.66325 0.49759 0.0
C474 C 0.52755 0.62088 0.41841 0.0
C475 C 0.53484 0.6027 0.48619 0.0
C476 C 0.52426 0.6148 0.55951 0.0
C477 C 0.50706 0.64464 0.56512 0.0
C478 C 0.55664 0.57337 0.48243 0.0
C479 C 0.55814 0.55374 0.41721 0.0
C480 C 0.5853 0.53019 0.40097 0.0
C481 C 0.5894 0.51964 0.32239 0.0
C482 C 0.61707 0.50167 0.30102 0.0
C483 C 0.64129 0.49346 0.35794 0.0
H484 H 0.60591 0.52682 0.52056 0.0
C485 C 0.63617 0.50192 0.43754 0.0
C486 C 0.60847 0.52014 0.45897 0.0
H487 H 0.65422 0.49565 0.48296 0.0
H488 H 0.50642 0.66447 0.37096 0.0
H489 H 0.53614 0.61304 0.36117 0.0
H490 H 0.52992 0.6015 0.61274 0.0
H491 H 0.49985 0.65375 0.62262 0.0
H492 H 0.57323 0.56971 0.53265 0.0
H493 H 0.54024 0.5574 0.36935 0.0
H494 H 0.57189 0.52665 0.27643 0.0
H495 H 0.61999 0.4952 0.23926 0.0
loop_
_geom_bond_atom_site_label_1
_geom_bond_atom_site_label_2
_geom_bond_distance
_geom_bond_site_symmetry_2
_ccdc_geom_bond_type
Zn0 O3 2.031 . S
Zn0 O5 2.049 . S
Zn0 O10 2.067 . S
Zn1 O2 1.962 . S
Zn1 O4 1.986 . S
Zn1 O6 1.996 . S
Zn1 O9 1.943 . S
O2 Zn1 1.962 . S
O2 C7 1.254 . S
O3 Zn0 2.031 . S
O3 C7 1.269 . S
O4 Zn1 1.986 . S
O4 C11 1.262 . S
O5 Zn0 2.049 . S
O5 C13 1.260 . S
O6 Zn1 1.996 . S
O6 C13 1.257 . S
C7 O2 1.254 . S
C7 O3 1.269 . S
C8 O9 1.249 . S
C8 O10 1.270 . S
O9 Zn1 1.943 . S
O9 C8 1.249 . S
O10 Zn0 2.067 . S
O10 C8 1.270 . S
C11 O4 1.262 . S
C11 O12 1.232 . S
O12 C11 1.232 . S
C13 O5 1.260 . S
C13 O6 1.257 . S
Zn14 O17 2.031 . S
Zn14 O19 2.049 . S
Zn14 O24 2.067 . S
Zn15 O16 1.962 . S
Zn15 O18 1.986 . S
Zn15 O20 1.996 . S
Zn15 O23 1.943 . S
O16 Zn15 1.962 . S
O16 C21 1.254 . S
O17 Zn14 2.031 . S
O17 C21 1.269 . S
O18 Zn15 1.986 . S
O18 C25 1.262 . S
O19 Zn14 2.049 . S
O19 C27 1.260 . S
O20 Zn15 1.996 . S
O20 C27 1.257 . S
C21 O16 1.254 . S
C21 O17 1.269 . S
C22 O23 1.249 . S
C22 O24 1.270 . S
O23 Zn15 1.943 . S
O23 C22 1.249 . S
O24 Zn14 2.067 . S
O24 C22 1.270 . S
C25 O18 1.262 . S
C25 O26 1.232 . S
O26 C25 1.232 . S
C27 O19 1.260 . S
C27 O20 1.257 . S
Zn28 O31 2.033 . S
Zn28 O33 2.048 1_565 S
Zn28 O38 2.067 1_565 S
Zn29 O30 1.962 . S
Zn29 O32 1.986 . S
Zn29 O34 1.996 . S
Zn29 O37 1.943 . S
O30 Zn29 1.962 . S
O30 C35 1.254 . S
O31 Zn28 2.033 . S
O31 C35 1.269 . S
O32 Zn29 1.986 . S
O32 C39 1.262 . S
O33 Zn28 2.048 1_545 S
O33 C41 1.260 . S
O34 Zn29 1.996 . S
O34 C41 1.257 1_565 S
C35 O30 1.254 . S
C35 O31 1.269 . S
C36 O37 1.249 1_545 S
C36 O38 1.270 . S
O37 Zn29 1.943 . S
O37 C36 1.249 1_565 S
O38 Zn28 2.067 1_545 S
O38 C36 1.270 . S
C39 O32 1.262 . S
C39 O40 1.232 . S
O40 C39 1.232 . S
C41 O33 1.260 . S
C41 O34 1.257 1_545 S
Zn42 O45 2.033 . S
Zn42 O47 2.048 1_455 S
Zn42 O52 2.067 1_455 S
Zn43 O44 1.962 . S
Zn43 O46 1.986 . S
Zn43 O48 1.996 . S
Zn43 O51 1.943 . S
O44 Zn43 1.962 . S
O44 C49 1.254 . S
O45 Zn42 2.033 . S
O45 C49 1.269 . S
O46 Zn43 1.986 . S
O46 C53 1.262 . S
O47 Zn42 2.048 1_655 S
O47 C55 1.260 . S
O48 Zn43 1.996 . S
O48 C55 1.257 1_455 S
C49 O44 1.254 . S
C49 O45 1.269 . S
C50 O51 1.249 1_655 S
C50 O52 1.270 . S
O51 Zn43 1.943 . S
O51 C50 1.249 1_455 S
O52 Zn42 2.067 1_655 S
O52 C50 1.270 . S
C53 O46 1.262 . S
C53 O54 1.232 . S
O54 C53 1.232 . S
C55 O47 1.260 . S
C55 O48 1.257 1_655 S
Zn56 O59 2.031 1_554 S
Zn56 O61 2.049 1_544 S
Zn56 O66 2.067 1_544 S
Zn57 O58 1.962 . S
Zn57 O60 1.986 . S
Zn57 O62 1.996 . S
Zn57 O65 1.943 . S
O58 Zn57 1.962 . S
O58 C63 1.254 . S
O59 Zn56 2.031 1_556 S
O59 C63 1.269 . S
O60 Zn57 1.986 . S
O60 C67 1.262 . S
O61 Zn56 2.049 1_566 S
O61 C69 1.260 . S
O62 Zn57 1.996 . S
O62 C69 1.257 1_545 S
C63 O58 1.254 . S
C63 O59 1.269 . S
C64 O65 1.269 . S
C64 O66 1.255 1_545 S
O65 Zn57 1.943 . S
O65 C64 1.269 . S
O66 Zn56 2.067 1_566 S
O66 C64 1.255 1_565 S
C67 O60 1.262 . S
C67 O68 1.232 . S
O68 C67 1.232 . S
C69 O61 1.260 . S
C69 O62 1.257 1_565 S
Zn70 O73 2.031 1_556 S
Zn70 O75 2.049 1_656 S
Zn70 O80 2.067 1_656 S
Zn71 O72 1.962 . S
Zn71 O74 1.986 . S
Zn71 O76 1.996 . S
Zn71 O79 1.943 . S
O72 Zn71 1.962 . S
O72 C77 1.254 . S
O73 Zn70 2.031 1_554 S
O73 C77 1.269 . S
O74 Zn71 1.986 . S
O74 C81 1.262 . S
O75 Zn70 2.049 1_454 S
O75 C83 1.260 . S
O76 Zn71 1.996 . S
O76 C83 1.257 1_655 S
C77 O72 1.254 . S
C77 O73 1.269 . S
C78 O79 1.269 . S
C78 O80 1.255 1_655 S
O79 Zn71 1.943 . S
O79 C78 1.269 . S
O80 Zn70 2.067 1_454 S
O80 C78 1.255 1_455 S
C81 O74 1.262 . S
C81 O82 1.232 . S
O82 C81 1.232 . S
C83 O75 1.260 . S
C83 O76 1.257 1_455 S
Zn84 O87 2.031 . S
Zn84 O89 2.049 . S
Zn84 O94 2.067 . S
Zn85 O86 1.962 . S
Zn85 O88 1.986 . S
Zn85 O90 1.996 . S
Zn85 O93 1.943 . S
O86 Zn85 1.962 . S
O86 C91 1.254 . S
O87 Zn84 2.031 . S
O87 C91 1.269 . S
O88 Zn85 1.986 . S
O88 C95 1.262 . S
O89 Zn84 2.049 . S
O89 C97 1.260 . S
O90 Zn85 1.996 . S
O90 C97 1.257 . S
C91 O86 1.254 . S
C91 O87 1.269 . S
C92 O93 1.249 . S
C92 O94 1.270 . S
O93 Zn85 1.943 . S
O93 C92 1.249 . S
O94 Zn84 2.067 . S
O94 C92 1.270 . S
C95 O88 1.262 . S
C95 O96 1.232 . S
O96 C95 1.232 . S
C97 O89 1.260 . S
C97 O90 1.257 . S
Zn98 O101 2.031 . S
Zn98 O103 2.049 . S
Zn98 O108 2.067 . S
Zn99 O100 1.962 . S
Zn99 O102 1.986 . S
Zn99 O104 1.996 . S
Zn99 O107 1.943 . S
O100 Zn99 1.962 . S
O100 C105 1.254 . S
O101 Zn98 2.031 . S
O101 C105 1.269 . S
O102 Zn99 1.986 . S
O102 C109 1.262 . S
O103 Zn98 2.049 . S
O103 C111 1.260 . S
O104 Zn99 1.996 . S
O104 C111 1.257 . S
C105 O100 1.254 . S
C105 O101 1.269 . S
C106 O107 1.249 . S
C106 O108 1.270 . S
O107 Zn99 1.943 . S
O107 C106 1.249 . S
O108 Zn98 2.067 . S
O108 C106 1.270 . S
C109 O102 1.262 . S
C109 O110 1.232 . S
O110 C109 1.232 . S
C111 O103 1.260 . S
C111 O104 1.257 . S
C112 C113 1.386 . S
C112 C114 1.383 . S
C112 H128 0.951 . S
C113 C112 1.386 . S
C113 C117 1.383 . S
C114 C112 1.383 . S
C114 C115 1.402 . S
C114 H129 0.951 . S
C115 C114 1.402 . S
C115 C116 1.375 . S
C115 C118 1.481 . S
C116 C115 1.375 . S
C116 C117 1.367 . S
C116 H130 0.951 . S
C117 C113 1.383 . S
C117 C116 1.367 . S
C117 H131 0.950 . S
C118 C115 1.481 . S
C118 C119 1.297 1_556 S
C118 H132 0.950 . S
C119 C118 1.297 1_554 S
C119 C120 1.479 . S
C119 H133 0.950 . S
C120 C119 1.479 . S
C120 C121 1.375 . S
C120 C126 1.404 . S
C121 C120 1.375 . S
C121 C122 1.369 . S
C121 H134 0.950 . S
C122 C121 1.369 . S
C122 C123 1.392 . S
C122 H135 0.951 . S
C123 C122 1.392 . S
C123 C125 1.384 . S
H124 C126 0.949 . S
C125 C123 1.384 . S
C125 C126 1.385 . S
C125 H127 0.950 . S
C126 C120 1.404 . S
C126 H124 0.949 . S
C126 C125 1.385 . S
H127 C125 0.950 . S
H128 C112 0.951 . S
H129 C114 0.951 . S
H130 C116 0.951 . S
H131 C117 0.950 . S
H132 C118 0.950 . S
H133 C119 0.950 . S
H134 C121 0.950 . S
H135 C122 0.951 . S
C136 C137 1.386 . S
C136 C138 1.383 . S
C136 H152 0.951 . S
C137 C136 1.386 . S
C137 C141 1.383 . S
C138 C136 1.383 . S
C138 C139 1.402 . S
C138 H153 0.951 . S
C139 C138 1.402 . S
C139 C140 1.375 . S
C139 C142 1.481 . S
C140 C139 1.375 . S
C140 C141 1.367 . S
C140 H154 0.951 . S
C141 C137 1.383 . S
C141 C140 1.367 . S
C141 H155 0.950 . S
C142 C139 1.481 . S
C142 C143 1.297 . S
C142 H156 0.950 . S
C143 C142 1.297 . S
C143 C144 1.479 . S
C143 H157 0.950 . S
C144 C143 1.479 . S
C144 C145 1.375 . S
C144 C150 1.404 . S
C145 C144 1.375 . S
C145 C146 1.369 . S
C145 H158 0.950 . S
C146 C145 1.369 . S
C146 C147 1.392 . S
C146 H159 0.951 . S
C147 C146 1.392 . S
C147 C149 1.384 . S
H148 C150 0.949 . S
C149 C147 1.384 . S
C149 C150 1.385 . S
C149 H151 0.950 . S
C150 C144 1.404 . S
C150 H148 0.949 . S
C150 C149 1.385 . S
H151 C149 0.950 . S
H152 C136 0.951 . S
H153 C138 0.951 . S
H154 C140 0.951 . S
H155 C141 0.950 . S
H156 C142 0.950 . S
H157 C143 0.950 . S
H158 C145 0.950 . S
H159 C146 0.951 . S
C160 C161 1.386 . S
C160 C162 1.383 . S
C160 H176 0.951 . S
C161 C160 1.386 . S
C161 C165 1.383 . S
C162 C160 1.383 . S
C162 C163 1.402 . S
C162 H177 0.951 . S
C163 C162 1.402 . S
C163 C164 1.375 . S
C163 C166 1.481 . S
C164 C163 1.375 . S
C164 C165 1.367 . S
C164 H178 0.951 . S
C165 C161 1.383 . S
C165 C164 1.367 . S
C165 H179 0.950 . S
C166 C163 1.481 . S
C166 C167 1.297 . S
C166 H180 0.950 . S
C167 C166 1.297 . S
C167 C168 1.479 . S
C167 H181 0.950 . S
C168 C167 1.479 . S
C168 C169 1.375 . S
C168 C174 1.404 . S
C169 C168 1.375 . S
C169 C170 1.369 . S
C169 H182 0.950 . S
C170 C169 1.369 . S
C170 C171 1.392 . S
C170 H183 0.951 . S
C171 C170 1.392 . S
C171 C173 1.384 . S
H172 C174 0.949 . S
C173 C171 1.384 . S
C173 C174 1.385 . S
C173 H175 0.950 . S
C174 C168 1.404 . S
C174 H172 0.949 . S
C174 C173 1.385 . S
H175 C173 0.950 . S
H176 C160 0.951 . S
H177 C162 0.951 . S
H178 C164 0.951 . S
H179 C165 0.950 . S
H180 C166 0.950 . S
H181 C167 0.950 . S
H182 C169 0.950 . S
H183 C170 0.951 . S
C184 C185 1.386 . S
C184 C186 1.383 . S
C184 H200 0.951 . S
C185 C184 1.386 . S
C185 C189 1.383 . S
C186 C184 1.383 . S
C186 C187 1.402 . S
C186 H201 0.951 . S
C187 C186 1.402 . S
C187 C188 1.375 . S
C187 C190 1.481 . S
C188 C187 1.375 . S
C188 C189 1.367 . S
C188 H202 0.951 . S
C189 C185 1.383 . S
C189 C188 1.367 . S
C189 H203 0.950 . S
C190 C187 1.481 . S
C190 C191 1.297 . S
C190 H204 0.950 . S
C191 C190 1.297 . S
C191 C192 1.479 . S
C191 H205 0.950 . S
C192 C191 1.479 . S
C192 C193 1.375 . S
C192 C198 1.404 . S
C193 C192 1.375 . S
C193 C194 1.369 . S
C193 H206 0.950 . S
C194 C193 1.369 . S
C194 C195 1.392 . S
C194 H207 0.951 . S
C195 C194 1.392 . S
C195 C197 1.384 . S
H196 C198 0.949 . S
C197 C195 1.384 . S
C197 C198 1.385 . S
C197 H199 0.950 . S
C198 C192 1.404 . S
C198 H196 0.949 . S
C198 C197 1.385 . S
H199 C197 0.950 . S
H200 C184 0.951 . S
H201 C186 0.951 . S
H202 C188 0.951 . S
H203 C189 0.950 . S
H204 C190 0.950 . S
H205 C191 0.950 . S
H206 C193 0.950 . S
H207 C194 0.951 . S
C208 C209 1.386 . S
C208 C210 1.383 . S
C208 H224 0.951 . S
C209 C208 1.386 . S
C209 C213 1.383 . S
C210 C208 1.383 . S
C210 C211 1.402 . S
C210 H225 0.951 . S
C211 C210 1.402 . S
C211 C212 1.375 . S
C211 C214 1.481 . S
C212 C211 1.375 . S
C212 C213 1.367 . S
C212 H226 0.951 . S
C213 C209 1.383 . S
C213 C212 1.367 . S
C213 H227 0.950 . S
C214 C211 1.481 . S
C214 C215 1.297 . S
C214 H228 0.950 . S
C215 C214 1.297 . S
C215 C216 1.479 . S
C215 H229 0.950 . S
C216 C215 1.479 . S
C216 C217 1.375 . S
C216 C222 1.404 . S
C217 C216 1.375 . S
C217 C218 1.369 . S
C217 H230 0.950 . S
C218 C217 1.369 . S
C218 C219 1.392 . S
C218 H231 0.951 . S
C219 C218 1.392 . S
C219 C221 1.384 . S
H220 C222 0.949 . S
C221 C219 1.384 . S
C221 C222 1.385 . S
C221 H223 0.950 . S
C222 C216 1.404 . S
C222 H220 0.949 . S
C222 C221 1.385 . S
H223 C221 0.950 . S
H224 C208 0.951 . S
H225 C210 0.951 . S
H226 C212 0.951 . S
H227 C213 0.950 . S
H228 C214 0.950 . S
H229 C215 0.950 . S
H230 C217 0.950 . S
H231 C218 0.951 . S
C232 C233 1.386 . S
C232 C234 1.383 . S
C232 H248 0.951 . S
C233 C232 1.386 . S
C233 C237 1.383 . S
C234 C232 1.383 . S
C234 C235 1.402 . S
C234 H249 0.951 . S
C235 C234 1.402 . S
C235 C236 1.375 . S
C235 C238 1.481 . S
C236 C235 1.375 . S
C236 C237 1.367 . S
C236 H250 0.951 . S
C237 C233 1.383 . S
C237 C236 1.367 . S
C237 H251 0.950 . S
C238 C235 1.481 . S
C238 C239 1.297 . S
C238 H252 0.950 . S
C239 C238 1.297 . S
C239 C240 1.479 . S
C239 H253 0.950 . S
C240 C239 1.479 . S
C240 C241 1.375 . S
C240 C246 1.404 . S
C241 C240 1.375 . S
C241 C242 1.369 . S
C241 H254 0.950 . S
C242 C241 1.369 . S
C242 C243 1.392 . S
C242 H255 0.951 . S
C243 C242 1.392 . S
C243 C245 1.384 . S
H244 C246 0.949 . S
C245 C243 1.384 . S
C245 C246 1.385 . S
C245 H247 0.950 . S
C246 C240 1.404 . S
C246 H244 0.949 . S
C246 C245 1.385 . S
H247 C245 0.950 . S
H248 C232 0.951 . S
H249 C234 0.951 . S
H250 C236 0.951 . S
H251 C237 0.950 . S
H252 C238 0.950 . S
H253 C239 0.950 . S
H254 C241 0.950 . S
H255 C242 0.951 . S
C256 C257 1.386 . S
C256 C258 1.383 . S
C256 H272 0.951 . S
C257 C256 1.386 . S
C257 C261 1.383 . S
C258 C256 1.383 . S
C258 C259 1.402 . S
C258 H273 0.951 . S
C259 C258 1.402 . S
C259 C260 1.375 . S
C259 C262 1.481 . S
C260 C259 1.375 . S
C260 C261 1.367 . S
C260 H274 0.951 . S
C261 C257 1.383 . S
C261 C260 1.367 . S
C261 H275 0.950 . S
C262 C259 1.481 . S
C262 C263 1.297 1_554 S
C262 H276 0.950 . S
C263 C262 1.297 1_556 S
C263 C264 1.479 . S
C263 H277 0.950 . S
C264 C263 1.479 . S
C264 C265 1.375 . S
C264 C270 1.404 . S
C265 C264 1.375 . S
C265 C266 1.369 . S
C265 H278 0.950 . S
C266 C265 1.369 . S
C266 C267 1.392 . S
C266 H279 0.951 . S
C267 C266 1.392 . S
C267 C269 1.384 . S
H268 C270 0.949 . S
C269 C267 1.384 . S
C269 C270 1.385 . S
C269 H271 0.950 . S
C270 C264 1.404 . S
C270 H268 0.949 . S
C270 C269 1.385 . S
H271 C269 0.950 . S
H272 C256 0.951 . S
H273 C258 0.951 . S
H274 C260 0.951 . S
H275 C261 0.950 . S
H276 C262 0.950 . S
H277 C263 0.950 . S
H278 C265 0.950 . S
H279 C266 0.951 . S
C280 C281 1.386 . S
C280 C282 1.383 . S
C280 H296 0.951 . S
C281 C280 1.386 . S
C281 C285 1.383 . S
C282 C280 1.383 . S
C282 C283 1.402 . S
C282 H297 0.951 . S
C283 C282 1.402 . S
C283 C284 1.375 . S
C283 C286 1.481 . S
C284 C283 1.375 . S
C284 C285 1.367 . S
C284 H298 0.951 . S
C285 C281 1.383 . S
C285 C284 1.367 . S
C285 H299 0.950 1_554 S
C286 C283 1.481 . S
C286 C287 1.297 . S
C286 H300 0.950 . S
C287 C286 1.297 . S
C287 C288 1.479 . S
C287 H301 0.950 . S
C288 C287 1.479 . S
C288 C289 1.375 . S
C288 C294 1.404 . S
C289 C288 1.375 . S
C289 C290 1.369 . S
C289 H302 0.950 . S
C290 C289 1.369 . S
C290 C291 1.392 . S
C290 H303 0.951 . S
C291 C290 1.392 . S
C291 C293 1.384 . S
H292 C294 0.949 . S
C293 C291 1.384 . S
C293 C294 1.385 . S
C293 H295 0.950 . S
C294 C288 1.404 . S
C294 H292 0.949 . S
C294 C293 1.385 . S
H295 C293 0.950 . S
H296 C280 0.951 . S
H297 C282 0.951 . S
H298 C284 0.951 . S
H299 C285 0.950 1_556 S
H300 C286 0.950 . S
H301 C287 0.950 . S
H302 C289 0.950 . S
H303 C290 0.951 . S
C304 C305 1.386 . S
C304 C306 1.383 . S
C304 H320 0.951 . S
C305 C304 1.386 . S
C305 C309 1.383 . S
C306 C304 1.383 . S
C306 C307 1.402 . S
C306 H321 0.951 . S
C307 C306 1.402 . S
C307 C308 1.375 . S
C307 C310 1.481 . S
C308 C307 1.375 . S
C308 C309 1.367 . S
C308 H322 0.951 . S
C309 C305 1.383 . S
C309 C308 1.367 . S
C309 H323 0.950 . S
C310 C307 1.481 . S
C310 C311 1.297 . S
C310 H324 0.950 . S
C311 C310 1.297 . S
C311 C312 1.479 . S
C311 H325 0.950 . S
C312 C311 1.479 . S
C312 C313 1.375 . S
C312 C318 1.404 . S
C313 C312 1.375 . S
C313 C314 1.369 . S
C313 H326 0.950 . S
C314 C313 1.369 . S
C314 C315 1.392 . S
C314 H327 0.951 . S
C315 C314 1.392 . S
C315 C317 1.384 . S
H316 C318 0.949 . S
C317 C315 1.384 . S
C317 C318 1.385 . S
C317 H319 0.950 . S
C318 C312 1.404 . S
C318 H316 0.949 . S
C318 C317 1.385 . S
H319 C317 0.950 . S
H320 C304 0.951 . S
H321 C306 0.951 . S
H322 C308 0.951 . S
H323 C309 0.950 . S
H324 C310 0.950 . S
H325 C311 0.950 . S
H326 C313 0.950 . S
H327 C314 0.951 . S
C328 C329 1.386 . S
C328 C330 1.383 . S
C328 H344 0.951 1_565 S
C329 C328 1.386 . S
C329 C333 1.383 . S
C330 C328 1.383 . S
C330 C331 1.402 . S
C330 H345 0.951 . S
C331 C330 1.402 . S
C331 C332 1.375 . S
C331 C334 1.481 . S
C332 C331 1.375 . S
C332 C333 1.367 . S
C332 H346 0.951 . S
C333 C329 1.383 . S
C333 C332 1.367 . S
C333 H347 0.950 . S
C334 C331 1.481 . S
C334 C335 1.297 . S
C334 H348 0.950 . S
C335 C334 1.297 . S
C335 C336 1.479 . S
C335 H349 0.950 . S
C336 C335 1.479 . S
C336 C337 1.375 . S
C336 C342 1.404 . S
C337 C336 1.375 . S
C337 C338 1.369 . S
C337 H350 0.950 . S
C338 C337 1.369 . S
C338 C339 1.392 . S
C338 H351 0.951 . S
C339 C338 1.392 . S
C339 C341 1.384 . S
H340 C342 0.949 . S
C341 C339 1.384 . S
C341 C342 1.385 . S
C341 H343 0.950 . S
C342 C336 1.404 . S
C342 H340 0.949 . S
C342 C341 1.385 . S
H343 C341 0.950 . S
H344 C328 0.951 1_545 S
H345 C330 0.951 . S
H346 C332 0.951 . S
H347 C333 0.950 . S
H348 C334 0.950 . S
H349 C335 0.950 . S
H350 C337 0.950 . S
H351 C338 0.951 . S
C352 C353 1.386 . S
C352 C354 1.383 . S
C352 H368 0.954 1_455 S
C353 C352 1.386 . S
C353 C357 1.383 . S
C354 C352 1.383 . S
C354 C355 1.402 1_554 S
C354 H369 0.951 . S
C355 C354 1.402 1_556 S
C355 C356 1.375 1_556 S
C355 C358 1.481 . S
C356 C355 1.375 1_554 S
C356 C357 1.367 . S
C356 H370 0.951 1_554 S
C357 C353 1.383 . S
C357 C356 1.367 . S
C357 H371 0.950 . S
C358 C355 1.481 . S
C358 C359 1.297 . S
C358 H372 0.950 . S
C359 C358 1.297 . S
C359 C360 1.479 . S
C359 H373 0.950 . S
C360 C359 1.479 . S
C360 C361 1.375 . S
C360 C366 1.404 . S
C361 C360 1.375 . S
C361 C362 1.369 . S
C361 H374 0.950 . S
C362 C361 1.369 . S
C362 C363 1.392 . S
C362 H375 0.951 1_545 S
C363 C362 1.392 . S
C363 C365 1.384 . S
H364 C366 0.949 . S
C365 C363 1.384 . S
C365 C366 1.385 . S
C365 H367 0.950 . S
C366 C360 1.404 . S
C366 H364 0.949 . S
C366 C365 1.385 . S
H367 C365 0.950 . S
H368 C352 0.954 1_655 S
H369 C354 0.951 . S
H370 C356 0.951 1_556 S
H371 C357 0.950 . S
H372 C358 0.950 . S
H373 C359 0.950 . S
H374 C361 0.950 . S
H375 C362 0.951 1_565 S
C376 C377 1.386 . S
C376 C378 1.383 . S
C376 H392 0.951 . S
C377 C376 1.386 . S
C377 C381 1.383 . S
C378 C376 1.383 . S
C378 C379 1.402 . S
C378 H393 0.951 . S
C379 C378 1.402 . S
C379 C380 1.375 . S
C379 C382 1.481 . S
C380 C379 1.375 . S
C380 C381 1.367 . S
C380 H394 0.951 . S
C381 C377 1.383 . S
C381 C380 1.367 . S
C381 H395 0.950 1_655 S
C382 C379 1.481 . S
C382 C383 1.297 . S
C382 H396 0.950 . S
C383 C382 1.297 . S
C383 C384 1.479 . S
C383 H397 0.950 . S
C384 C383 1.479 . S
C384 C385 1.375 . S
C384 C390 1.404 . S
C385 C384 1.375 . S
C385 C386 1.369 . S
C385 H398 0.950 . S
C386 C385 1.369 . S
C386 C387 1.392 . S
C386 H399 0.951 . S
C387 C386 1.392 . S
C387 C389 1.384 . S
H388 C390 0.949 . S
C389 C387 1.384 . S
C389 C390 1.385 . S
C389 H391 0.950 . S
C390 C384 1.404 . S
C390 H388 0.949 . S
C390 C389 1.385 . S
H391 C389 0.950 . S
H392 C376 0.951 . S
H393 C378 0.951 . S
H394 C380 0.951 . S
H395 C381 0.950 1_455 S
H396 C382 0.950 . S
H397 C383 0.950 . S
H398 C385 0.950 . S
H399 C386 0.951 . S
C400 C401 1.386 . S
C400 C402 1.383 . S
C400 H416 0.951 . S
C401 C400 1.386 . S
C401 C405 1.383 . S
C402 C400 1.383 . S
C402 C403 1.402 . S
C402 H417 0.951 . S
C403 C402 1.402 . S
C403 C404 1.375 . S
C403 C406 1.481 . S
C404 C403 1.375 . S
C404 C405 1.367 . S
C404 H418 0.951 . S
C405 C401 1.383 . S
C405 C404 1.367 . S
C405 H419 0.950 . S
C406 C403 1.481 . S
C406 C407 1.297 . S
C406 H420 0.950 . S
C407 C406 1.297 . S
C407 C408 1.479 . S
C407 H421 0.950 . S
C408 C407 1.479 . S
C408 C409 1.375 . S
C408 C414 1.404 . S
C409 C408 1.375 . S
C409 C410 1.369 . S
C409 H422 0.950 . S
C410 C409 1.369 . S
C410 C411 1.392 . S
C410 H423 0.951 . S
C411 C410 1.392 . S
C411 C413 1.384 . S
H412 C414 0.949 . S
C413 C411 1.384 . S
C413 C414 1.385 . S
C413 H415 0.950 . S
C414 C408 1.404 . S
C414 H412 0.949 . S
C414 C413 1.385 . S
H415 C413 0.950 . S
H416 C400 0.951 . S
H417 C402 0.951 . S
H418 C404 0.951 . S
H419 C405 0.950 . S
H420 C406 0.950 . S
H421 C407 0.950 . S
H422 C409 0.950 . S
H423 C410 0.951 . S
C424 C425 1.386 . S
C424 C426 1.383 . S
C424 H440 0.951 . S
C425 C424 1.386 . S
C425 C429 1.383 1_556 S
C426 C424 1.383 . S
C426 C427 1.402 1_556 S
C426 H441 0.951 . S
C427 C426 1.402 1_554 S
C427 C428 1.375 . S
C427 C430 1.481 . S
C428 C427 1.375 . S
C428 C429 1.367 . S
C428 H442 0.951 . S
C429 C425 1.383 1_554 S
C429 C428 1.367 . S
C429 H443 0.950 . S
C430 C427 1.481 . S
C430 C431 1.297 . S
C430 H444 0.950 . S
C431 C430 1.297 . S
C431 C432 1.479 . S
C431 H445 0.950 1_554 S
C432 C431 1.479 . S
C432 C433 1.375 1_554 S
C432 C438 1.404 . S
C433 C432 1.375 1_556 S
C433 C434 1.369 . S
C433 H446 0.950 . S
C434 C433 1.369 . S
C434 C435 1.392 1_556 S
C434 H447 0.949 . S
C435 C434 1.392 1_554 S
C435 C437 1.384 . S
H436 C438 0.949 . S
C437 C435 1.384 . S
C437 C438 1.385 . S
C437 H439 0.950 . S
C438 C432 1.404 . S
C438 H436 0.949 . S
C438 C437 1.385 . S
H439 C437 0.950 . S
H440 C424 0.951 . S
H441 C426 0.951 . S
H442 C428 0.951 . S
H443 C429 0.950 . S
H444 C430 0.950 . S
H445 C431 0.950 1_556 S
H446 C433 0.950 . S
H447 C434 0.949 . S
C448 C449 1.386 . S
C448 C450 1.383 . S
C448 H464 0.951 1_455 S
C449 C448 1.386 . S
C449 C453 1.383 . S
C450 C448 1.383 . S
C450 C451 1.402 . S
C450 H465 0.951 . S
C451 C450 1.402 . S
C451 C452 1.375 . S
C451 C454 1.481 . S
C452 C451 1.375 . S
C452 C453 1.367 . S
C452 H466 0.951 . S
C453 C449 1.383 . S
C453 C452 1.367 . S
C453 H467 0.950 . S
C454 C451 1.481 . S
C454 C455 1.297 . S
C454 H468 0.950 . S
C455 C454 1.297 . S
C455 C456 1.479 . S
C455 H469 0.950 . S
C456 C455 1.479 . S
C456 C457 1.375 . S
C456 C462 1.404 . S
C457 C456 1.375 . S
C457 C458 1.369 . S
C457 H470 0.950 . S
C458 C457 1.369 . S
C458 C459 1.392 . S
C458 H471 0.951 . S
C459 C458 1.392 . S
C459 C461 1.384 . S
H460 C462 0.949 . S
C461 C459 1.384 . S
C461 C462 1.385 . S
C461 H463 0.950 . S
C462 C456 1.404 . S
C462 H460 0.949 . S
C462 C461 1.385 . S
H463 C461 0.950 . S
H464 C448 0.951 1_655 S
H465 C450 0.951 . S
H466 C452 0.951 . S
H467 C453 0.950 . S
H468 C454 0.950 . S
H469 C455 0.950 . S
H470 C457 0.950 . S
H471 C458 0.951 . S
C472 C473 1.386 . S
C472 C474 1.383 . S
C472 H488 0.951 . S
C473 C472 1.386 . S
C473 C477 1.383 . S
C474 C472 1.383 . S
C474 C475 1.402 . S
C474 H489 0.951 . S
C475 C474 1.402 . S
C475 C476 1.375 . S
C475 C478 1.481 . S
C476 C475 1.375 . S
C476 C477 1.367 . S
C476 H490 0.951 . S
C477 C473 1.383 . S
C477 C476 1.367 . S
C477 H491 0.950 . S
C478 C475 1.481 . S
C478 C479 1.297 . S
C478 H492 0.950 . S
C479 C478 1.297 . S
C479 C480 1.479 . S
C479 H493 0.950 . S
C480 C479 1.479 . S
C480 C481 1.375 . S
C480 C486 1.404 . S
C481 C480 1.375 . S
C481 C482 1.369 . S
C481 H494 0.950 . S
C482 C481 1.369 . S
C482 C483 1.392 . S
C482 H495 0.951 . S
C483 C482 1.392 . S
C483 C485 1.384 . S
H484 C486 0.949 . S
C485 C483 1.384 . S
C485 C486 1.385 . S
C485 H487 0.950 . S
C486 C480 1.404 . S
C486 H484 0.949 . S
C486 C485 1.385 . S
H487 C485 0.950 . S
H488 C472 0.951 . S
H489 C474 0.951 . S
H490 C476 0.951 . S
H491 C477 0.950 . S
H492 C478 0.950 . S
H493 C479 0.950 . S
H494 C481 0.950 . S
H495 C482 0.951 . S
C113 C25 1.436 . S
C123 C11 1.437 . S
C137 C21 1.375 . S
C147 C39 1.386 1_554 S
C161 C49 1.364 . S
C171 C35 1.333 . S
C185 C53 1.400 1_556 S
C195 C7 1.345 . S
C209 C67 1.444 . S
C219 C81 1.432 . S
C233 C77 1.380 1_556 S
C243 C95 1.396 . S
C257 C91 1.368 . S
C267 C105 1.355 . S
C281 C63 1.394 1_554 S
C291 C109 1.391 . S
C305 C13 1.399 . S
C315 C106 1.448 . S
C329 C64 1.505 1_565 S
C339 C22 1.485 . S
C353 C83 1.338 . S
C363 C36 1.376 . S
C377 C55 1.275 . S
C387 C97 1.158 . S
C401 C41 1.195 . S
C411 C111 1.300 . S
C425 C69 1.359 . S
C435 C50 1.427 . S
C449 C78 1.524 1_455 S
C459 C8 1.509 . S
C473 C27 1.385 . S
C483 C92 1.354 . S
