# Generated by pormake.
# Topology son, (6)-cn, num edge types: 1
# Building blocks:
#     Node 0, Type 0, BuildingBlock: MIDCAF_clean_sbu_0, # of connection points: 6
#     Node 1, Type 0, BuildingBlock: MIDCAF_clean_sbu_0, # of connection points: 6
#     Node 2, Type 0, BuildingBlock: MIDCAF_clean_sbu_0, # of connection points: 6
#     Node 3, Type 0, BuildingBlock: MIDCAF_clean_sbu_0, # of connection points: 6
#     Node 4, Type 0, BuildingBlock: MIDCAF_clean_sbu_0, # of connection points: 6
#     Node 5, Type 0, BuildingBlock: MIDCAF_clean_sbu_0, # of connection points: 6
#     Node 6, Type 0, BuildingBlock: MIDCAF_clean_sbu_0, # of connection points: 6
#     Node 7, Type 0, BuildingBlock: MIDCAF_clean_sbu_0, # of connection points: 6
#     Node 8, Type 0, BuildingBlock: MIDCAF_clean_sbu_0, # of connection points: 6
#     Node 9, Type 0, BuildingBlock: MIDCAF_clean_sbu_0, # of connection points: 6
#     Node 10, Type 0, BuildingBlock: MIDCAF_clean_sbu_0, # of connection points: 6
#     Node 11, Type 0, BuildingBlock: MIDCAF_clean_sbu_0, # of connection points: 6
#     Node 12, Type 0, BuildingBlock: MIDCAF_clean_sbu_0, # of connection points: 6
#     Node 13, Type 0, BuildingBlock: MIDCAF_clean_sbu_0, # of connection points: 6
#     Node 14, Type 0, BuildingBlock: MIDCAF_clean_sbu_0, # of connection points: 6
#     Node 15, Type 0, BuildingBlock: MIDCAF_clean_sbu_0, # of connection points: 6
#     Node 16, Type 0, BuildingBlock: MIDCAF_clean_sbu_0, # of connection points: 6
#     Node 17, Type 0, BuildingBlock: MIDCAF_clean_sbu_0, # of connection points: 6
#     Node 18, Type 0, BuildingBlock: MIDCAF_clean_sbu_0, # of connection points: 6
#     Node 19, Type 0, BuildingBlock: MIDCAF_clean_sbu_0, # of connection points: 6
#     Node 20, Type 0, BuildingBlock: MIDCAF_clean_sbu_0, # of connection points: 6
#     Node 21, Type 0, BuildingBlock: MIDCAF_clean_sbu_0, # of connection points: 6
#     Node 22, Type 0, BuildingBlock: MIDCAF_clean_sbu_0, # of connection points: 6
#     Node 23, Type 0, BuildingBlock: MIDCAF_clean_sbu_0, # of connection points: 6
#     Node 24, Type 0, BuildingBlock: MIDCAF_clean_sbu_0, # of connection points: 6
#     Node 25, Type 0, BuildingBlock: MIDCAF_clean_sbu_0, # of connection points: 6
#     Node 26, Type 0, BuildingBlock: MIDCAF_clean_sbu_0, # of connection points: 6
#     Node 27, Type 0, BuildingBlock: MIDCAF_clean_sbu_0, # of connection points: 6
#     Node 28, Type 0, BuildingBlock: MIDCAF_clean_sbu_0, # of connection points: 6
#     Node 29, Type 0, BuildingBlock: MIDCAF_clean_sbu_0, # of connection points: 6
#     Node 30, Type 0, BuildingBlock: MIDCAF_clean_sbu_0, # of connection points: 6
#     Node 31, Type 0, BuildingBlock: MIDCAF_clean_sbu_0, # of connection points: 6
#     Edge 32, Type (0, 0), None
#     Edge 33, Type (0, 0), None
#     Edge 34, Type (0, 0), None
#     Edge 35, Type (0, 0), None
#     Edge 36, Type (0, 0), None
#     Edge 37, Type (0, 0), None
#     Edge 38, Type (0, 0), None
#     Edge 39, Type (0, 0), None
#     Edge 40, Type (0, 0), None
#     Edge 41, Type (0, 0), None
#     Edge 42, Type (0, 0), None
#     Edge 43, Type (0, 0), None
#     Edge 44, Type (0, 0), None
#     Edge 45, Type (0, 0), None
#     Edge 46, Type (0, 0), None
#     Edge 47, Type (0, 0), None
#     Edge 48, Type (0, 0), None
#     Edge 49, Type (0, 0), None
#     Edge 50, Type (0, 0), None
#     Edge 51, Type (0, 0), None
#     Edge 52, Type (0, 0), None
#     Edge 53, Type (0, 0), None
#     Edge 54, Type (0, 0), None
#     Edge 55, Type (0, 0), None
#     Edge 56, Type (0, 0), None
#     Edge 57, Type (0, 0), None
#     Edge 58, Type (0, 0), None
#     Edge 59, Type (0, 0), None
#     Edge 60, Type (0, 0), None
#     Edge 61, Type (0, 0), None
#     Edge 62, Type (0, 0), None
#     Edge 63, Type (0, 0), None
#     Edge 64, Type (0, 0), None
#     Edge 65, Type (0, 0), None
#     Edge 66, Type (0, 0), None
#     Edge 67, Type (0, 0), None
#     Edge 68, Type (0, 0), None
#     Edge 69, Type (0, 0), None
#     Edge 70, Type (0, 0), None
#     Edge 71, Type (0, 0), None
#     Edge 72, Type (0, 0), None
#     Edge 73, Type (0, 0), None
#     Edge 74, Type (0, 0), None
#     Edge 75, Type (0, 0), None
#     Edge 76, Type (0, 0), None
#     Edge 77, Type (0, 0), None
#     Edge 78, Type (0, 0), None
#     Edge 79, Type (0, 0), None
#     Edge 80, Type (0, 0), None
#     Edge 81, Type (0, 0), None
#     Edge 82, Type (0, 0), None
#     Edge 83, Type (0, 0), None
#     Edge 84, Type (0, 0), None
#     Edge 85, Type (0, 0), None
#     Edge 86, Type (0, 0), None
#     Edge 87, Type (0, 0), None
#     Edge 88, Type (0, 0), None
#     Edge 89, Type (0, 0), None
#     Edge 90, Type (0, 0), None
#     Edge 91, Type (0, 0), None
#     Edge 92, Type (0, 0), None
#     Edge 93, Type (0, 0), None
#     Edge 94, Type (0, 0), None
#     Edge 95, Type (0, 0), None
#     Edge 96, Type (0, 0), None
#     Edge 97, Type (0, 0), None
#     Edge 98, Type (0, 0), None
#     Edge 99, Type (0, 0), None
#     Edge 100, Type (0, 0), None
#     Edge 101, Type (0, 0), None
#     Edge 102, Type (0, 0), None
#     Edge 103, Type (0, 0), None
#     Edge 104, Type (0, 0), None
#     Edge 105, Type (0, 0), None
#     Edge 106, Type (0, 0), None
#     Edge 107, Type (0, 0), None
#     Edge 108, Type (0, 0), None
#     Edge 109, Type (0, 0), None
#     Edge 110, Type (0, 0), None
#     Edge 111, Type (0, 0), None
#     Edge 112, Type (0, 0), None
#     Edge 113, Type (0, 0), None
#     Edge 114, Type (0, 0), None
#     Edge 115, Type (0, 0), None
#     Edge 116, Type (0, 0), None
#     Edge 117, Type (0, 0), None
#     Edge 118, Type (0, 0), None
#     Edge 119, Type (0, 0), None
#     Edge 120, Type (0, 0), None
#     Edge 121, Type (0, 0), None
#     Edge 122, Type (0, 0), None
#     Edge 123, Type (0, 0), None
#     Edge 124, Type (0, 0), None
#     Edge 125, Type (0, 0), None
#     Edge 126, Type (0, 0), None
#     Edge 127, Type (0, 0), None
# Relax obj value: 0.269
# Max RMSD: 0.230
# Mean RMSD: 0.230
data_MOF--net-son--node1-MIDCAF_clean_sbu_0--edge1-none
_symmetry_space_group_name_H-M    P1
_symmetry_Int_Tables_number       1
_symmetry_cell_setting            triclinic
loop_
_symmetry_equiv_pos_as_xyz
'x, y, z'
_cell_length_a     51.889202
_cell_length_b     27.073105
_cell_length_c     7.2791994
_cell_angle_alpha  89.998866
_cell_angle_beta   90.120878
_cell_angle_gamma 89.999859
loop_
_atom_site_label
_atom_site_type_symbol
_atom_site_fract_x
_atom_site_fract_y
_atom_site_fract_z
_atom_type_partial_charge
Zn0 Zn 0.3476 0.3492 -0.01281 0.0
Zn1 Zn 0.29747 0.21203 0.29564 0.0
Zn2 Zn 0.32358 0.27549 0.14452 0.0
C3 C 0.32272 0.25721 0.56157 0.0
C4 C 0.33164 0.16389 0.10692 0.0
O5 O 0.33125 0.24527 0.88018 0.0
O6 O 0.33465 0.31998 0.75739 0.0
C7 C 0.30404 0.38001 0.21141 0.0
O8 O 0.33693 0.26661 0.42191 0.0
O9 O 0.29934 0.24504 0.53926 0.0
O10 O 0.32556 0.16267 0.27391 0.0
O11 O 0.32831 0.20404 0.01477 0.0
O12 O 0.32578 0.39331 0.15053 0.0
O13 O 0.29598 0.3361 0.17357 0.0
O14 O 0.35585 0.2956 0.3125 0.0
O15 O 0.38095 0.32356 0.09086 0.0
C16 C 0.37812 0.30802 0.25312 0.0
O17 O 0.28585 0.2996 0.06256 0.0
O18 O 0.27329 0.22208 0.07151 0.0
C19 C 0.33113 0.27411 0.74012 0.0
C20 C 0.27177 0.26443 -0.00142 0.0
Zn21 Zn 0.93169 0.93081 -0.00486 0.0
Zn22 Zn 0.98006 0.07143 0.31151 0.0
Zn23 Zn 0.95433 1.00541 0.15752 0.0
C24 C 0.95501 0.02405 0.5732 0.0
C25 C 0.94583 0.11675 0.11639 0.0
O26 O 0.94641 0.03483 0.8916 0.0
O27 O 0.94463 0.96008 0.76699 0.0
C28 C 0.97448 0.90013 0.22364 0.0
O29 O 0.94074 0.01452 0.43352 0.0
O30 O 0.97827 0.0369 0.5512 0.0
O31 O 0.95059 0.11783 0.28572 0.0
O32 O 0.94981 0.0766 0.02569 0.0
O33 O 0.95312 0.88608 0.15798 0.0
O34 O 0.98208 0.94469 0.19103 0.0
O35 O 0.92222 0.98496 0.32087 0.0
O36 O 0.89821 0.95625 0.0935 0.0
C37 C 0.90031 0.97214 0.25584 0.0
O38 O 0.99207 0.98237 0.08623 0.0
O39 O 1.00368 0.06056 0.08642 0.0
C40 C 0.94705 1.00623 0.75091 0.0
C41 C 1.00552 0.01776 0.01791 0.0
Zn42 Zn 0.29817 0.07152 0.81746 0.0
Zn43 Zn 0.34657 0.93092 0.13382 0.0
Zn44 Zn 0.32392 1.00551 -0.0285 0.0
C45 C 0.37794 0.97228 0.87312 0.0
C46 C 0.30379 0.90023 0.90535 0.0
O47 O 0.28618 0.98245 0.04284 0.0
O48 O 0.27456 0.06063 0.04262 0.0
C49 C 0.33241 0.11683 0.01251 0.0
O50 O 0.35603 0.98508 0.8081 0.0
O51 O 0.38005 0.95641 0.03547 0.0
O52 O 0.32516 0.88619 -0.0291 0.0
O53 O 0.29617 0.94477 0.93802 0.0
O54 O 0.32763 0.11793 0.84319 0.0
O55 O 0.32843 0.07669 0.10328 0.0
O56 O 0.3375 0.01462 0.69548 0.0
O57 O 0.29996 0.03697 0.5778 0.0
C58 C 0.32323 0.02413 0.5558 0.0
O59 O 0.33184 0.03493 0.23741 0.0
O60 O 0.33362 0.96018 0.36198 0.0
C61 C 0.27273 0.01783 0.11116 0.0
C62 C 0.3312 1.00632 0.37809 0.0
Zn63 Zn 0.98074 0.21196 0.8333 0.0
Zn64 Zn 0.93057 0.3491 0.1416 0.0
Zn65 Zn 0.95462 0.2754 -0.01554 0.0
C66 C 0.90006 0.30788 0.87578 0.0
C67 C 0.97415 0.3799 0.91744 0.0
O68 O 0.99234 0.29951 0.06648 0.0
O69 O 1.00492 0.22201 0.05745 0.0
C70 C 0.94656 0.16381 0.02198 0.0
O71 O 0.92234 0.29548 0.81643 0.0
O72 O 0.89723 0.32341 0.03803 0.0
O73 O 0.95239 0.39319 -0.02194 0.0
O74 O 0.98221 0.336 -0.04454 0.0
O75 O 0.95266 0.16258 0.855 0.0
O76 O 0.94989 0.20395 0.1142 0.0
O77 O 0.94127 0.26653 0.70704 0.0
O78 O 0.97886 0.24499 0.58969 0.0
C79 C 0.95548 0.25715 0.56738 0.0
O80 O 0.94694 0.24518 0.24879 0.0
O81 O 0.94355 0.3199 0.37146 0.0
C82 C 1.00644 0.26435 0.13042 0.0
C83 C 0.94706 0.27404 0.38881 0.0
Zn84 Zn 0.68063 0.67788 0.8916 0.0
Zn85 Zn 0.73077 0.81504 0.58315 0.0
Zn86 Zn 0.70467 0.75157 0.73428 0.0
C87 C 0.70552 0.76986 0.31723 0.0
C88 C 0.6966 0.86318 0.7719 0.0
O89 O 0.69699 0.7818 -0.00137 0.0
O90 O 0.69359 0.70709 0.12141 0.0
C91 C 0.7242 0.64706 0.6674 0.0
O92 O 0.69132 0.76046 0.4569 0.0
O93 O 0.7289 0.78203 0.33954 0.0
O94 O 0.70268 0.8644 0.6049 0.0
O95 O 0.69993 0.82303 0.86404 0.0
O96 O 0.70245 0.63376 0.72826 0.0
O97 O 0.73226 0.69097 0.70525 0.0
O98 O 0.67239 0.73147 0.5663 0.0
O99 O 0.64729 0.70352 0.78793 0.0
C100 C 0.65012 0.71906 0.62567 0.0
O101 O 0.74239 0.72747 0.81624 0.0
O102 O 0.75495 0.80499 0.80729 0.0
C103 C 0.69711 0.75296 0.13868 0.0
C104 C 0.75648 0.76265 0.88022 0.0
Zn105 Zn 0.09655 0.09627 0.88366 0.0
Zn106 Zn 0.04819 0.95565 0.5673 0.0
Zn107 Zn 0.07391 0.02166 0.72129 0.0
C108 C 0.07324 1.00303 0.30561 0.0
C109 C 0.08241 0.91032 0.76242 0.0
O110 O 0.08183 0.99224 -0.01279 0.0
O111 O 0.08361 0.06699 0.11181 0.0
C112 C 0.05376 0.12694 0.65516 0.0
O113 O 0.08751 1.01255 0.44528 0.0
O114 O 0.04997 0.99018 0.32761 0.0
O115 O 0.07765 0.90924 0.59308 0.0
O116 O 0.07843 0.95047 0.85311 0.0
O117 O 0.07512 0.14099 0.72082 0.0
O118 O 0.04616 0.08238 0.68777 0.0
O119 O 0.10603 0.04211 0.55794 0.0
O120 O 0.13003 0.07083 0.7853 0.0
C121 C 0.12793 0.05494 0.62297 0.0
O122 O 0.03617 0.0447 0.79258 0.0
O123 O 0.02456 0.96651 0.79239 0.0
C124 C 0.0812 0.02085 0.1279 0.0
C125 C 0.02272 1.00932 0.8609 0.0
Zn126 Zn 0.68166 0.09613 0.74501 0.0
Zn127 Zn 0.73008 0.95556 0.06136 0.0
Zn128 Zn 0.70432 0.02156 0.90733 0.0
C129 C 0.70501 1.00294 0.32302 0.0
C130 C 0.69584 0.91024 0.86631 0.0
O131 O 0.69641 0.99214 0.64142 0.0
O132 O 0.69461 0.06689 0.51684 0.0
C133 C 0.72444 0.12685 -0.0265 0.0
O134 O 0.69073 1.01244 0.18335 0.0
O135 O 0.72828 0.99011 0.30102 0.0
O136 O 0.70062 0.90914 0.03562 0.0
O137 O 0.69981 0.95038 0.77554 0.0
O138 O 0.70307 0.14087 0.90792 0.0
O139 O 0.73206 0.08231 -0.05917 0.0
O140 O 0.67221 0.04198 0.07072 0.0
O141 O 0.64818 0.07063 0.84333 0.0
C142 C 0.6503 0.05477 0.0057 0.0
O143 O 0.74205 0.04464 0.83597 0.0
O144 O 0.75368 0.96646 0.8362 0.0
C145 C 0.69704 0.02075 0.50074 0.0
C146 C 0.75551 1.00926 0.76765 0.0
Zn147 Zn 0.04748 0.81513 0.04551 0.0
Zn148 Zn 0.09765 0.67797 0.73717 0.0
Zn149 Zn 0.07361 0.75167 0.89436 0.0
C150 C 0.12816 0.71919 0.00301 0.0
C151 C 0.05407 0.64717 -0.03865 0.0
O152 O 0.03589 0.72756 0.81236 0.0
O153 O 0.02331 0.80507 0.82134 0.0
C154 C 0.08167 0.86326 0.85683 0.0
O155 O 0.10588 0.73158 0.06237 0.0
O156 O 0.13099 0.70365 0.84075 0.0
O157 O 0.07583 0.63388 0.90067 0.0
O158 O 0.04601 0.69107 0.92337 0.0
O159 O 0.07557 0.86449 0.0238 0.0
O160 O 0.07834 0.82312 0.76461 0.0
O161 O 0.08695 0.76055 0.17177 0.0
O162 O 0.04936 0.7821 0.28911 0.0
C163 C 0.07275 0.76993 0.31143 0.0
O164 O 0.08129 0.78189 0.63002 0.0
O165 O 0.08468 0.70717 0.50732 0.0
C166 C 0.02179 0.76272 0.74839 0.0
C167 C 0.08116 0.75304 0.49 0.0
Zn168 Zn 0.33856 0.85777 0.50226 0.0
Zn169 Zn 0.30275 0.70237 0.82042 0.0
Zn170 Zn 0.32633 0.77374 0.66918 0.0
C171 C 0.3286 0.75502 0.07825 0.0
C172 C 0.33639 0.6625 0.61249 0.0
O173 O 0.33459 0.74723 0.39967 0.0
O174 O 0.33549 0.82131 0.26865 0.0
C175 C 0.29695 0.87715 0.72957 0.0
O176 O 0.34237 0.7664 0.93838 0.0
O177 O 0.30592 0.73856 0.0565 0.0
O178 O 0.33334 0.65936 0.78337 0.0
O179 O 0.3314 0.7036 0.53069 0.0
O180 O 0.30869 0.8983 0.59989 0.0
O181 O 0.2955 0.82941 0.72338 0.0
O182 O 0.35965 0.7979 0.81525 0.0
O183 O 0.37319 0.85787 0.63224 0.0
C184 C 0.37676 0.82941 0.76773 0.0
O185 O 0.28745 0.79074 0.60336 0.0
O186 O 0.27754 0.71178 0.60062 0.0
C187 C 0.33528 0.77481 0.25626 0.0
C188 C 0.27448 0.75469 0.53509 0.0
Zn189 Zn 0.9394 0.42216 0.50505 0.0
Zn190 Zn 0.97891 0.57069 0.81113 0.0
Zn191 Zn 0.95274 0.5049 0.66676 0.0
C192 C 0.95191 0.52269 0.07578 0.0
C193 C 0.94403 0.6166 0.61841 0.0
O194 O 0.94521 0.53249 0.39685 0.0
O195 O 0.94408 0.45781 0.27093 0.0
C196 C 0.9807 0.40151 0.7389 0.0
O197 O 0.9375 0.51278 0.93733 0.0
O198 O 0.97509 0.53596 0.05122 0.0
O199 O 0.95105 0.62017 0.78334 0.0
O200 O 0.94728 0.57551 0.53234 0.0
O201 O 0.96813 0.38027 0.61298 0.0
O202 O 0.98303 0.44901 0.7277 0.0
O203 O 0.91914 0.4819 0.81438 0.0
O204 O 0.90429 0.424 0.62773 0.0
C205 C 0.90135 0.45194 0.76531 0.0
O206 O 0.9906 0.48333 0.5784 0.0
O207 O 1.00374 0.56033 0.58945 0.0
C208 C 0.94482 0.50421 0.25512 0.0
C209 C 1.00503 0.51802 0.51593 0.0
Zn210 Zn 0.29931 0.57082 0.31783 0.0
Zn211 Zn 0.33887 0.42232 0.62388 0.0
Zn212 Zn 0.32549 0.50502 0.4622 0.0
C213 C 0.3769 0.45212 0.36361 0.0
C214 C 0.29754 0.40162 0.39004 0.0
O215 O 0.28765 0.48343 0.5506 0.0
O216 O 0.27449 0.56042 0.5396 0.0
C217 C 0.33422 0.6167 0.51044 0.0
O218 O 0.35909 0.48203 0.31446 0.0
O219 O 0.37398 0.42421 0.50133 0.0
O220 O 0.31016 0.3804 0.51577 0.0
O221 O 0.29521 0.44913 0.40124 0.0
O222 O 0.32717 0.6203 0.34559 0.0
O223 O 0.33097 0.57563 0.59659 0.0
O224 O 0.34072 0.51291 0.19161 0.0
O225 O 0.30313 0.53608 0.07775 0.0
C226 C 0.32632 0.52282 0.05318 0.0
O227 O 0.33303 0.53263 0.7321 0.0
O228 O 0.33415 0.45794 0.85801 0.0
C229 C 0.27322 0.51811 0.61311 0.0
C230 C 0.3334 0.50434 0.87383 0.0
Zn231 Zn 0.97555 0.70228 0.3086 0.0
Zn232 Zn 0.93967 0.85762 0.62673 0.0
Zn233 Zn 0.95194 0.77362 0.45984 0.0
C234 C 0.9015 0.82923 0.36121 0.0
C235 C 0.9813 0.87706 0.39947 0.0
O236 O 0.99082 0.79066 0.52575 0.0
O237 O 1.00075 0.71172 0.52849 0.0
C238 C 0.94187 0.6624 0.51636 0.0
O239 O 0.91862 0.79776 0.31365 0.0
O240 O 0.90504 0.85766 0.49678 0.0
O241 O 0.96952 0.8982 0.52905 0.0
O242 O 0.98277 0.82932 0.40566 0.0
O243 O 0.94497 0.65923 0.34552 0.0
O244 O 0.94686 0.70348 0.59829 0.0
O245 O 0.93592 0.76626 0.19062 0.0
O246 O 0.97237 0.73847 0.07253 0.0
C247 C 0.94969 0.7549 0.05077 0.0
O248 O 0.94369 0.7471 0.72934 0.0
O249 O 0.94278 0.82117 0.86035 0.0
C250 C 1.0038 0.75462 0.59404 0.0
C251 C 0.943 0.77468 0.87275 0.0
Zn252 Zn 0.68964 0.16927 0.3766 0.0
Zn253 Zn 0.72543 0.3247 0.05845 0.0
Zn254 Zn 0.70186 0.25333 0.20971 0.0
C255 C 0.69959 0.27203 0.80064 0.0
C256 C 0.6918 0.36457 0.26643 0.0
O257 O 0.6936 0.27982 0.47922 0.0
O258 O 0.6927 0.20574 0.61022 0.0
C259 C 0.73127 0.14993 0.14928 0.0
O260 O 0.68582 0.26065 -0.05949 0.0
O261 O 0.72225 0.28851 0.82238 0.0
O262 O 0.69484 0.3677 0.09552 0.0
O263 O 0.69679 0.32347 0.34821 0.0
O264 O 0.71953 0.12877 0.27896 0.0
O265 O 0.73271 0.19767 0.15546 0.0
O266 O 0.66854 0.22915 0.06369 0.0
O267 O 0.65502 0.16914 0.24658 0.0
C268 C 0.65144 0.19761 0.11115 0.0
O269 O 0.74075 0.23635 0.27549 0.0
O270 O 0.75065 0.31531 0.27819 0.0
C271 C 0.6929 0.25224 0.62262 0.0
C272 C 0.75372 0.27241 0.34372 0.0
Zn273 Zn 0.08885 0.6049 0.37375 0.0
Zn274 Zn 0.04933 0.45638 0.06769 0.0
Zn275 Zn 0.07549 0.52216 0.21206 0.0
C276 C 0.07633 0.50438 0.80304 0.0
C277 C 0.08421 0.41047 0.2604 0.0
O278 O 0.08303 0.49457 0.48197 0.0
O279 O 0.08416 0.56925 0.60788 0.0
C280 C 0.04753 0.62556 0.13991 0.0
O281 O 0.09074 0.51428 -0.05852 0.0
O282 O 0.05315 0.4911 0.8276 0.0
O283 O 0.07719 0.4069 0.09546 0.0
O284 O 0.08096 0.45155 0.34647 0.0
O285 O 0.06011 0.64679 0.26579 0.0
O286 O 0.04521 0.57805 0.15111 0.0
O287 O 0.10909 0.54517 0.06442 0.0
O288 O 0.12395 0.60306 0.25111 0.0
C289 C 0.12689 0.57512 0.11351 0.0
O290 O 0.03764 0.54373 0.30042 0.0
O291 O 0.0245 0.46674 0.28937 0.0
C292 C 0.08341 0.52286 0.62369 0.0
C293 C 0.02321 0.50905 0.36289 0.0
Zn294 Zn 0.72893 0.45625 0.56099 0.0
Zn295 Zn 0.68938 0.60475 0.25495 0.0
Zn296 Zn 0.70275 0.52205 0.41664 0.0
C297 C 0.65135 0.57496 0.51522 0.0
C298 C 0.7307 0.62544 0.48878 0.0
O299 O 0.74059 0.54363 0.32821 0.0
O300 O 0.75375 0.46665 0.33921 0.0
C301 C 0.69401 0.41037 0.36844 0.0
O302 O 0.66915 0.54504 0.56437 0.0
O303 O 0.65427 0.60287 0.37751 0.0
O304 O 0.71809 0.64667 0.36304 0.0
O305 O 0.73303 0.57794 0.47759 0.0
O306 O 0.70107 0.40676 0.53325 0.0
O307 O 0.69725 0.45144 0.28226 0.0
O308 O 0.68751 0.51415 0.68723 0.0
O309 O 0.72511 0.49098 0.80108 0.0
C310 C 0.70192 0.50425 0.82566 0.0
O311 O 0.69521 0.49444 0.14673 0.0
O312 O 0.69409 0.56912 0.02082 0.0
C313 C 0.75502 0.50896 0.26571 0.0
C314 C 0.69484 0.52273 0.005 0.0
Zn315 Zn 0.08857 0.16945 0.25207 0.0
Zn316 Zn 0.05268 0.32478 0.57019 0.0
Zn317 Zn 0.07629 0.25344 0.41895 0.0
C318 C 0.07854 0.27217 0.82802 0.0
C319 C 0.08636 0.36467 0.36244 0.0
O320 O 0.08454 0.27997 0.14945 0.0
O321 O 0.08547 0.20589 0.01845 0.0
C322 C 0.04694 0.15001 0.47932 0.0
O323 O 0.09232 0.26081 0.68817 0.0
O324 O 0.05587 0.2886 0.80627 0.0
O325 O 0.08326 0.36783 0.53327 0.0
O326 O 0.08138 0.32359 0.2805 0.0
O327 O 0.05872 0.12887 0.34975 0.0
O328 O 0.04547 0.19775 0.47312 0.0
O329 O 0.10961 0.22931 0.56514 0.0
O330 O 0.1232 0.16941 0.38202 0.0
C331 C 0.12674 0.19784 0.51759 0.0
O332 O 0.03742 0.2364 0.35302 0.0
O333 O 0.02749 0.31535 0.35031 0.0
C334 C 0.08524 0.25239 0.00604 0.0
C335 C 0.02444 0.27245 0.28475 0.0
Zn336 Zn 0.8476 0.34906 0.48664 0.0
Zn337 Zn 0.79745 0.21195 0.79504 0.0
Zn338 Zn 0.82355 0.27538 0.6439 0.0
C339 C 0.8227 0.25711 0.06098 0.0
C340 C 0.83162 0.16378 0.60635 0.0
O341 O 0.83123 0.24515 0.37957 0.0
O342 O 0.83464 0.31986 0.25682 0.0
C343 C 0.80403 0.37989 0.7108 0.0
O344 O 0.8369 0.2665 0.9213 0.0
O345 O 0.79931 0.24494 0.03868 0.0
O346 O 0.82552 0.16257 0.77333 0.0
O347 O 0.82829 0.20393 0.51417 0.0
O348 O 0.82578 0.39317 0.65005 0.0
O349 O 0.79597 0.33598 0.67287 0.0
O350 O 0.85583 0.29547 0.81192 0.0
O351 O 0.88095 0.3234 0.59029 0.0
C352 C 0.87811 0.30787 0.75256 0.0
O353 O 0.78583 0.29949 0.56189 0.0
O354 O 0.77326 0.22198 0.57097 0.0
C355 C 0.83111 0.274 0.23953 0.0
C356 C 0.77173 0.26432 0.498 0.0
Zn357 Zn 0.4317 0.93094 0.49564 0.0
Zn358 Zn 0.48012 0.07146 0.81181 0.0
Zn359 Zn 0.45435 1.00552 0.65792 0.0
C360 C 0.45505 0.02413 0.07359 0.0
C361 C 0.44587 0.11686 0.61692 0.0
O362 O 0.44644 0.03495 0.39199 0.0
O363 O 0.44466 0.96019 0.26747 0.0
C364 C 0.47447 0.90023 0.72417 0.0
O365 O 0.44076 0.01464 0.93394 0.0
O366 O 0.47832 0.03693 0.05153 0.0
O367 O 0.45069 0.11795 0.78617 0.0
O368 O 0.44983 0.07671 0.52616 0.0
O369 O 0.4531 0.88619 0.65858 0.0
O370 O 0.48209 0.94477 0.6915 0.0
O371 O 0.42223 0.98509 0.8213 0.0
O372 O 0.39822 0.95642 0.59391 0.0
C373 C 0.40033 0.97229 0.75627 0.0
O374 O 0.49206 0.9824 0.58633 0.0
O375 O 0.50372 0.06056 0.58657 0.0
C376 C 0.44708 1.00633 0.25133 0.0
C377 C 0.50552 0.01777 0.51797 0.0
Zn378 Zn 0.84655 0.9308 0.63336 0.0
Zn379 Zn 0.79815 0.07141 0.31691 0.0
Zn380 Zn 0.8239 1.00539 0.47096 0.0
C381 C 0.82322 0.02403 0.05529 0.0
C382 C 0.83239 0.11671 0.51197 0.0
O383 O 0.83181 0.03481 0.73689 0.0
O384 O 0.83361 0.96007 0.86151 0.0
C385 C 0.80376 0.9001 0.40484 0.0
O386 O 0.83749 0.01451 0.19497 0.0
O387 O 0.79995 0.03685 0.07729 0.0
O388 O 0.82762 0.11781 0.34264 0.0
O389 O 0.82841 0.07658 0.60275 0.0
O390 O 0.82512 0.88606 0.47055 0.0
O391 O 0.79616 0.94465 0.43741 0.0
O392 O 0.85602 0.98496 0.30762 0.0
O393 O 0.88003 0.95625 0.53499 0.0
C394 C 0.87792 0.97214 0.37265 0.0
O395 O 0.78616 0.98233 0.54227 0.0
O396 O 0.77454 0.06052 0.54208 0.0
C397 C 0.83118 1.00621 0.87758 0.0
C398 C 0.77271 0.01771 0.61061 0.0
Zn399 Zn 0.48071 0.21204 0.3337 0.0
Zn400 Zn 0.43059 0.34924 0.64214 0.0
Zn401 Zn 0.45462 0.27552 0.48491 0.0
C402 C 0.40007 0.30803 0.37629 0.0
C403 C 0.47417 0.38002 0.41795 0.0
O404 O 0.49235 0.2996 0.56676 0.0
O405 O 0.50489 0.22207 0.55783 0.0
C406 C 0.44655 0.16393 0.5225 0.0
O407 O 0.42235 0.29562 0.31692 0.0
O408 O 0.39725 0.32358 0.53853 0.0
O409 O 0.45242 0.39333 0.47868 0.0
O410 O 0.48222 0.33611 0.45589 0.0
O411 O 0.4526 0.16271 0.35543 0.0
O412 O 0.4499 0.20407 0.61468 0.0
O413 O 0.44127 0.26665 0.2075 0.0
O414 O 0.47885 0.24506 0.09012 0.0
C415 C 0.45547 0.25726 0.06783 0.0
O416 O 0.44693 0.24531 0.74924 0.0
O417 O 0.44356 0.32003 0.87197 0.0
C418 C 0.50643 0.26441 0.63074 0.0
C419 C 0.44706 0.27416 0.88928 0.0
Zn420 Zn 0.23077 0.81516 0.0837 0.0
Zn421 Zn 0.18063 0.67801 0.39211 0.0
Zn422 Zn 0.20466 0.75171 0.23483 0.0
C423 C 0.15011 0.7192 0.1262 0.0
C424 C 0.2242 0.6472 0.16792 0.0
O425 O 0.24238 0.72761 0.31682 0.0
O426 O 0.25495 0.80512 0.30782 0.0
C427 C 0.1966 0.86331 0.27243 0.0
O428 O 0.17239 0.73161 0.06684 0.0
O429 O 0.14728 0.70366 0.28847 0.0
O430 O 0.20245 0.63391 0.22869 0.0
O431 O 0.23226 0.69111 0.20583 0.0
O432 O 0.20268 0.86453 0.10543 0.0
O433 O 0.19993 0.82316 0.36458 0.0
O434 O 0.19131 0.76059 -0.04256 0.0
O435 O 0.2289 0.78215 0.84008 0.0
C436 C 0.20552 0.76998 0.81777 0.0
O437 O 0.19698 0.78193 0.49917 0.0
O438 O 0.19359 0.70722 0.62192 0.0
C439 C 0.25647 0.76278 0.38077 0.0
C440 C 0.1971 0.75309 0.63922 0.0
Zn441 Zn 0.59654 0.09613 0.3831 0.0
Zn442 Zn 0.54811 0.95562 0.06699 0.0
Zn443 Zn 0.57388 0.02155 0.22089 0.0
C444 C 0.57318 1.00295 0.8052 0.0
C445 C 0.58236 0.91022 0.26187 0.0
O446 O 0.5818 0.99213 0.48682 0.0
O447 O 0.58356 0.06689 0.61128 0.0
C448 C 0.55376 0.12683 0.15461 0.0
O449 O 0.58747 1.01244 -0.05516 0.0
O450 O 0.54991 0.99016 0.82727 0.0
O451 O 0.57754 0.90913 0.09261 0.0
O452 O 0.57841 0.95036 0.35264 0.0
O453 O 0.57514 0.14087 0.22007 0.0
O454 O 0.54614 0.08229 0.18736 0.0
O455 O 0.606 0.04198 0.05749 0.0
O456 O 0.63002 0.07062 0.28491 0.0
C457 C 0.62791 0.05476 0.12254 0.0
O458 O 0.53617 0.04467 0.29249 0.0
O459 O 0.52451 0.96651 0.29223 0.0
C460 C 0.58115 0.02075 0.62745 0.0
C461 C 0.52271 1.0093 0.36084 0.0
Zn462 Zn 0.23009 0.95568 0.56188 0.0
Zn463 Zn 0.18169 0.09628 0.24545 0.0
Zn464 Zn 0.20434 0.0217 0.40785 0.0
C465 C 0.15032 0.05494 0.50616 0.0
C466 C 0.22447 0.12698 0.47396 0.0
O467 O 0.24207 0.04476 0.33653 0.0
O468 O 0.25369 0.96657 0.33672 0.0
C469 C 0.19584 0.91038 0.36683 0.0
O470 O 0.17222 0.04213 0.5712 0.0
O471 O 0.14821 0.07082 0.34381 0.0
O472 O 0.20311 0.14102 0.40828 0.0
O473 O 0.23208 0.08243 0.44138 0.0
O474 O 0.20062 0.90927 0.53615 0.0
O475 O 0.19982 0.95051 0.27606 0.0
O476 O 0.19075 1.01257 0.68385 0.0
O477 O 0.22829 0.99023 0.80153 0.0
C478 C 0.20502 1.00306 0.82352 0.0
O479 O 0.19642 0.99227 0.14193 0.0
O480 O 0.19464 0.06702 0.01731 0.0
C481 C 0.25553 1.00938 0.2682 0.0
C482 C 0.19706 0.02088 0.00123 0.0
Zn483 Zn 0.54753 0.81504 0.54509 0.0
Zn484 Zn 0.59764 0.67784 0.23664 0.0
Zn485 Zn 0.57361 0.75155 0.39387 0.0
C486 C 0.62816 0.71905 0.50249 0.0
C487 C 0.55407 0.64705 0.46081 0.0
O488 O 0.53588 0.72748 0.31206 0.0
O489 O 0.52334 0.80501 0.321 0.0
C490 C 0.58168 0.86315 0.35628 0.0
O491 O 0.60589 0.73146 0.56187 0.0
O492 O 0.63099 0.7035 0.34025 0.0
O493 O 0.57582 0.63375 0.40008 0.0
O494 O 0.54601 0.69096 0.42289 0.0
O495 O 0.57564 0.86436 0.52335 0.0
O496 O 0.57833 0.82301 0.26409 0.0
O497 O 0.58697 0.76043 0.67127 0.0
O498 O 0.54938 0.78202 0.78867 0.0
C499 C 0.57276 0.76982 0.81095 0.0
O500 O 0.5813 0.78177 0.12954 0.0
O501 O 0.58469 0.70705 0.0068 0.0
C502 C 0.5218 0.76267 0.2481 0.0
C503 C 0.58118 0.75292 -0.0105 0.0
Zn504 Zn 0.83859 0.85758 0.00176 0.0
Zn505 Zn 0.80274 0.70223 0.3199 0.0
Zn506 Zn 0.82632 0.77359 0.16866 0.0
C507 C 0.82859 0.75486 0.57773 0.0
C508 C 0.83638 0.66235 0.11196 0.0
O509 O 0.83458 0.74707 0.89916 0.0
O510 O 0.8355 0.82115 0.76812 0.0
C511 C 0.79696 0.87702 0.22901 0.0
O512 O 0.84236 0.76623 0.43786 0.0
O513 O 0.80591 0.73841 0.55599 0.0
O514 O 0.83332 0.65921 0.28285 0.0
O515 O 0.8314 0.70345 0.03016 0.0
O516 O 0.80873 0.89815 0.09944 0.0
O517 O 0.7955 0.82928 0.22286 0.0
O518 O 0.85965 0.79773 0.31483 0.0
O519 O 0.87322 0.85765 0.13171 0.0
C520 C 0.87676 0.82922 0.26729 0.0
O521 O 0.78745 0.7906 0.10285 0.0
O522 O 0.77753 0.71165 0.10009 0.0
C523 C 0.83528 0.77465 0.75574 0.0
C524 C 0.77447 0.75455 0.03456 0.0
Zn525 Zn 0.4394 0.42233 0.00546 0.0
Zn526 Zn 0.47898 0.57077 0.31138 0.0
Zn527 Zn 0.45276 0.50504 0.16712 0.0
C528 C 0.45195 0.52282 0.57613 0.0
C529 C 0.44407 0.61674 0.1189 0.0
O530 O 0.44524 0.53265 0.8972 0.0
O531 O 0.44411 0.45796 0.77134 0.0
C532 C 0.4807 0.40163 0.23937 0.0
O533 O 0.43754 0.51293 0.43772 0.0
O534 O 0.47514 0.53605 0.55151 0.0
O535 O 0.45116 0.62032 0.28367 0.0
O536 O 0.44729 0.57565 0.03278 0.0
O537 O 0.46811 0.38041 0.11354 0.0
O538 O 0.48304 0.44913 0.22815 0.0
O539 O 0.41917 0.48205 0.31479 0.0
O540 O 0.40429 0.4242 0.12802 0.0
C541 C 0.40136 0.45212 0.26568 0.0
O542 O 0.49059 0.48339 0.07843 0.0
O543 O 0.50379 0.56034 0.08958 0.0
C544 C 0.44486 0.50436 0.75549 0.0
C545 C 0.50504 0.51804 0.01596 0.0
Zn546 Zn 0.7993 0.57066 0.81733 0.0
Zn547 Zn 0.83883 0.42216 0.12332 0.0
Zn548 Zn 0.82548 0.50487 -0.03833 0.0
C549 C 0.87688 0.45194 0.86315 0.0
C550 C 0.79752 0.40149 0.88941 0.0
O551 O 0.78764 0.48328 0.05015 0.0
O552 O 0.77448 0.56026 0.03911 0.0
C553 C 0.8342 0.61655 0.00992 0.0
O554 O 0.85908 0.48188 0.81402 0.0
O555 O 0.87395 0.42402 0.0008 0.0
O556 O 0.81012 0.38026 0.01519 0.0
O557 O 0.79519 0.449 0.90064 0.0
O558 O 0.82715 0.62015 0.84507 0.0
O559 O 0.83096 0.57548 0.09607 0.0
O560 O 0.84071 0.51275 0.69108 0.0
O561 O 0.80312 0.53592 0.57726 0.0
C562 C 0.8263 0.52265 0.55266 0.0
O563 O 0.83301 0.53247 0.23159 0.0
O564 O 0.83412 0.45778 0.35746 0.0
C565 C 0.7732 0.51795 0.11264 0.0
C566 C 0.83339 0.50418 0.3733 0.0
Zn567 Zn 0.47547 0.70226 0.80874 0.0
Zn568 Zn 0.43968 0.85777 0.12714 0.0
Zn569 Zn 0.45192 0.77374 -0.03986 0.0
C570 C 0.4015 0.82942 0.86153 0.0
C571 C 0.48131 0.87714 0.89993 0.0
O572 O 0.49082 0.79066 0.02555 0.0
O573 O 0.50069 0.71168 0.02847 0.0
C574 C 0.44182 0.66253 0.01691 0.0
O575 O 0.41861 0.7979 0.81402 0.0
O576 O 0.40506 0.85786 -0.00296 0.0
O577 O 0.46957 0.89828 0.02962 0.0
O578 O 0.48276 0.8294 0.90607 0.0
O579 O 0.44484 0.65937 0.84599 0.0
O580 O 0.44684 0.70361 0.09871 0.0
O581 O 0.43588 0.7664 0.69097 0.0
O582 O 0.4723 0.73847 0.57274 0.0
C583 C 0.44964 0.755 0.55107 0.0
O584 O 0.44366 0.74724 0.22965 0.0
O585 O 0.44274 0.82131 0.36076 0.0
C586 C 0.50378 0.75459 0.09385 0.0
C587 C 0.44295 0.77481 0.37309 0.0
Zn588 Zn 0.2255 0.32484 0.55891 0.0
Zn589 Zn 0.18965 0.16949 0.87705 0.0
Zn590 Zn 0.20191 0.25349 0.71015 0.0
C591 C 0.15148 0.19785 0.61151 0.0
C592 C 0.23128 0.15006 0.64979 0.0
O593 O 0.24079 0.23647 0.77597 0.0
O594 O 0.25071 0.31543 0.77872 0.0
C595 C 0.19186 0.36473 0.76683 0.0
O596 O 0.16859 0.22934 0.56398 0.0
O597 O 0.15502 0.16942 0.74709 0.0
O598 O 0.21951 0.12892 0.77937 0.0
O599 O 0.23274 0.1978 0.65596 0.0
O600 O 0.19492 0.36787 0.59595 0.0
O601 O 0.19684 0.32363 0.84864 0.0
O602 O 0.18588 0.26084 0.44094 0.0
O603 O 0.22233 0.28867 0.32282 0.0
C604 C 0.19965 0.27221 0.30108 0.0
O605 O 0.19366 0.28001 -0.02035 0.0
O606 O 0.19274 0.20593 0.11068 0.0
C607 C 0.25377 0.27252 0.84425 0.0
C608 C 0.19296 0.25242 0.12307 0.0
Zn609 Zn 0.58884 0.60475 0.87332 0.0
Zn610 Zn 0.54926 0.4563 0.56742 0.0
Zn611 Zn 0.57548 0.52203 0.71167 0.0
C612 C 0.57629 0.50425 0.30267 0.0
C613 C 0.58417 0.41032 0.75993 0.0
O614 O 0.583 0.49442 -0.0184 0.0
O615 O 0.58413 0.56911 0.10745 0.0
C616 C 0.54754 0.62544 0.63939 0.0
O617 O 0.59071 0.51414 0.44108 0.0
O618 O 0.55311 0.49102 0.32729 0.0
O619 O 0.57708 0.40674 0.59516 0.0
O620 O 0.58095 0.45142 0.84603 0.0
O621 O 0.56013 0.64666 0.76523 0.0
O622 O 0.54521 0.57794 0.6506 0.0
O623 O 0.60908 0.54502 0.56403 0.0
O624 O 0.62395 0.60288 0.75077 0.0
C625 C 0.62688 0.57496 0.61313 0.0
O626 O 0.53766 0.54369 0.80037 0.0
O627 O 0.52445 0.46673 0.78921 0.0
C628 C 0.58338 0.52272 0.1233 0.0
C629 C 0.52321 0.50904 0.86283 0.0
Zn630 Zn 0.22894 0.45641 0.06147 0.0
Zn631 Zn 0.1894 0.60492 0.75544 0.0
Zn632 Zn 0.20276 0.5222 0.91712 0.0
C633 C 0.15136 0.57513 0.01565 0.0
C634 C 0.23071 0.62559 -0.01068 0.0
O635 O 0.2406 0.54379 0.82869 0.0
O636 O 0.25376 0.46681 0.8397 0.0
C637 C 0.19403 0.41052 0.86887 0.0
O638 O 0.16916 0.5452 0.06479 0.0
O639 O 0.15429 0.60305 0.87799 0.0
O640 O 0.21812 0.64682 0.86352 0.0
O641 O 0.23304 0.57809 -0.0219 0.0
O642 O 0.20109 0.40693 0.03373 0.0
O643 O 0.19728 0.4516 0.78272 0.0
O644 O 0.18753 0.51431 0.1877 0.0
O645 O 0.22512 0.49115 0.30155 0.0
C646 C 0.20193 0.50441 0.32613 0.0
O647 O 0.19523 0.4946 0.6472 0.0
O648 O 0.19411 0.56929 0.52131 0.0
C649 C 0.25504 0.50912 0.76619 0.0
C650 C 0.19485 0.52289 0.50548 0.0
Zn651 Zn 0.58851 0.16925 0.75171 0.0
Zn652 Zn 0.55275 0.32482 0.07016 0.0
Zn653 Zn 0.57629 0.25333 0.91875 0.0
C654 C 0.57858 0.27206 0.32782 0.0
C655 C 0.5864 0.36453 0.86196 0.0
O656 O 0.58456 0.27981 0.64925 0.0
O657 O 0.58547 0.20575 0.51813 0.0
C658 C 0.54689 0.14993 -0.02109 0.0
O659 O 0.59234 0.26066 0.18792 0.0
O660 O 0.55592 0.2886 0.30616 0.0
O661 O 0.58338 0.3677 0.03287 0.0
O662 O 0.58138 0.32345 0.78017 0.0
O663 O 0.5586 0.12877 0.8491 0.0
O664 O 0.54544 0.19766 -0.02723 0.0
O665 O 0.6096 0.22915 0.06483 0.0
O666 O 0.62312 0.16913 0.88195 0.0
C667 C 0.6267 0.1976 0.01738 0.0
O668 O 0.53739 0.23642 0.85336 0.0
O669 O 0.52753 0.3154 0.85041 0.0
C670 C 0.58526 0.25224 0.50581 0.0
C671 C 0.52444 0.27249 0.78503 0.0
loop_
_geom_bond_atom_site_label_1
_geom_bond_atom_site_label_2
_geom_bond_distance
_geom_bond_site_symmetry_2
_ccdc_geom_bond_type
Zn0 O6 1.920 . S
Zn0 O12 1.898 1_556 S
Zn0 O15 1.905 1_556 S
Zn1 O9 1.905 . S
Zn1 O10 1.898 . S
Zn1 O18 1.920 . S
Zn2 O5 2.080 1_554 S
Zn2 O8 2.114 . S
Zn2 O11 2.120 . S
Zn2 O13 2.120 . S
Zn2 O14 2.114 . S
Zn2 O17 2.080 . S
C3 O8 1.166 . S
C3 O9 1.182 . S
C4 O10 1.167 . S
C4 O11 1.299 . S
O5 Zn2 2.080 1_556 S
O5 C19 1.305 . S
O6 Zn0 1.920 . S
O6 C19 1.234 . S
C7 O12 1.167 . S
C7 O13 1.299 . S
O8 Zn2 2.114 . S
O8 C3 1.166 . S
O9 Zn1 1.905 . S
O9 C3 1.182 . S
O10 Zn1 1.898 . S
O10 C4 1.167 . S
O11 Zn2 2.120 . S
O11 C4 1.299 . S
O12 Zn0 1.898 1_554 S
O12 C7 1.167 . S
O13 Zn2 2.120 . S
O13 C7 1.299 . S
O14 Zn2 2.114 . S
O14 C16 1.166 . S
O15 Zn0 1.905 1_554 S
O15 C16 1.182 . S
C16 O14 1.166 . S
C16 O15 1.182 . S
O17 Zn2 2.080 . S
O17 C20 1.305 . S
O18 Zn1 1.920 . S
O18 C20 1.234 . S
C19 O5 1.305 . S
C19 O6 1.234 . S
C20 O17 1.305 . S
C20 O18 1.234 . S
Zn21 O27 1.920 . S
Zn21 O33 1.898 1_556 S
Zn21 O36 1.905 1_556 S
Zn22 O30 1.905 . S
Zn22 O31 1.898 . S
Zn22 O39 1.896 1_655 S
Zn23 O26 2.080 1_554 S
Zn23 O29 2.114 1_565 S
Zn23 O32 2.120 1_565 S
Zn23 O34 2.120 . S
Zn23 O35 2.114 . S
Zn23 O38 2.080 . S
C24 O29 1.166 . S
C24 O30 1.182 . S
C25 O31 1.167 . S
C25 O32 1.299 . S
O26 Zn23 2.080 1_556 S
O26 C40 1.305 . S
O27 Zn21 1.920 . S
O27 C40 1.234 . S
C28 O33 1.167 . S
C28 O34 1.299 . S
O29 Zn23 2.114 1_545 S
O29 C24 1.166 . S
O30 Zn22 1.905 . S
O30 C24 1.182 . S
O31 Zn22 1.898 . S
O31 C25 1.167 . S
O32 Zn23 2.120 1_545 S
O32 C25 1.299 . S
O33 Zn21 1.898 1_554 S
O33 C28 1.167 . S
O34 Zn23 2.120 . S
O34 C28 1.299 . S
O35 Zn23 2.114 . S
O35 C37 1.166 . S
O36 Zn21 1.905 1_554 S
O36 C37 1.182 . S
C37 O35 1.166 . S
C37 O36 1.182 . S
O38 Zn23 2.080 . S
O38 C41 1.305 1_565 S
O39 Zn22 1.896 1_455 S
O39 C41 1.223 1_455 S
C40 O26 1.305 . S
C40 O27 1.234 . S
C41 O38 1.305 1_545 S
C41 O39 1.223 1_655 S
Zn42 O48 1.920 1_556 S
Zn42 O54 1.898 . S
Zn42 O57 1.905 . S
Zn43 O51 1.905 . S
Zn43 O52 1.898 . S
Zn43 O60 1.920 . S
Zn44 O47 2.080 . S
Zn44 O50 2.114 1_554 S
Zn44 O53 2.120 . S
Zn44 O55 2.120 1_565 S
Zn44 O56 2.114 1_564 S
Zn44 O59 2.080 . S
C45 O50 1.166 1_554 S
C45 O51 1.182 . S
C46 O52 1.167 1_556 S
C46 O53 1.299 1_556 S
O47 Zn44 2.080 . S
O47 C61 1.305 1_565 S
O48 Zn42 1.920 1_554 S
O48 C61 1.234 . S
C49 O54 1.167 . S
C49 O55 1.299 1_556 S
O50 Zn44 2.114 1_556 S
O50 C45 1.166 1_556 S
O51 Zn43 1.905 . S
O51 C45 1.182 . S
O52 Zn43 1.898 . S
O52 C46 1.167 1_554 S
O53 Zn44 2.120 . S
O53 C46 1.299 1_554 S
O54 Zn42 1.898 . S
O54 C49 1.167 . S
O55 Zn44 2.120 1_545 S
O55 C49 1.299 1_554 S
O56 Zn44 2.114 1_546 S
O56 C58 1.166 . S
O57 Zn42 1.905 . S
O57 C58 1.182 . S
C58 O56 1.166 . S
C58 O57 1.182 . S
O59 Zn44 2.080 . S
O59 C62 1.305 . S
O60 Zn43 1.920 . S
O60 C62 1.234 . S
C61 O47 1.305 1_545 S
C61 O48 1.234 . S
C62 O59 1.305 . S
C62 O60 1.234 . S
Zn63 O69 1.896 1_656 S
Zn63 O75 1.898 . S
Zn63 O78 1.905 . S
Zn64 O72 1.905 . S
Zn64 O73 1.898 . S
Zn64 O81 1.920 . S
Zn65 O68 2.080 . S
Zn65 O71 2.114 1_554 S
Zn65 O74 2.120 . S
Zn65 O76 2.120 . S
Zn65 O77 2.114 1_554 S
Zn65 O80 2.080 . S
C66 O71 1.166 1_554 S
C66 O72 1.182 . S
C67 O73 1.167 1_556 S
C67 O74 1.299 1_556 S
O68 Zn65 2.080 . S
O68 C82 1.305 . S
O69 Zn63 1.896 1_454 S
O69 C82 1.223 1_455 S
C70 O75 1.167 . S
C70 O76 1.299 1_556 S
O71 Zn65 2.114 1_556 S
O71 C66 1.166 1_556 S
O72 Zn64 1.905 . S
O72 C66 1.182 . S
O73 Zn64 1.898 . S
O73 C67 1.167 1_554 S
O74 Zn65 2.120 . S
O74 C67 1.299 1_554 S
O75 Zn63 1.898 . S
O75 C70 1.167 . S
O76 Zn65 2.120 . S
O76 C70 1.299 1_554 S
O77 Zn65 2.114 1_556 S
O77 C79 1.166 . S
O78 Zn63 1.905 . S
O78 C79 1.182 . S
C79 O77 1.166 . S
C79 O78 1.182 . S
O80 Zn65 2.080 . S
O80 C83 1.305 . S
O81 Zn64 1.920 . S
O81 C83 1.234 . S
C82 O68 1.305 . S
C82 O69 1.223 1_655 S
C83 O80 1.305 . S
C83 O81 1.234 . S
Zn84 O90 1.920 . S
Zn84 O96 1.898 1_554 S
Zn84 O99 1.905 1_554 S
Zn85 O93 1.905 . S
Zn85 O94 1.898 . S
Zn85 O102 1.920 . S
Zn86 O89 2.080 1_556 S
Zn86 O92 2.114 . S
Zn86 O95 2.120 . S
Zn86 O97 2.120 . S
Zn86 O98 2.114 . S
Zn86 O101 2.080 . S
C87 O92 1.166 . S
C87 O93 1.182 . S
C88 O94 1.167 . S
C88 O95 1.299 . S
O89 Zn86 2.080 1_554 S
O89 C103 1.305 . S
O90 Zn84 1.920 . S
O90 C103 1.234 . S
C91 O96 1.167 . S
C91 O97 1.299 . S
O92 Zn86 2.114 . S
O92 C87 1.166 . S
O93 Zn85 1.905 . S
O93 C87 1.182 . S
O94 Zn85 1.898 . S
O94 C88 1.167 . S
O95 Zn86 2.120 . S
O95 C88 1.299 . S
O96 Zn84 1.898 1_556 S
O96 C91 1.167 . S
O97 Zn86 2.120 . S
O97 C91 1.299 . S
O98 Zn86 2.114 . S
O98 C100 1.166 . S
O99 Zn84 1.905 1_556 S
O99 C100 1.182 . S
C100 O98 1.166 . S
C100 O99 1.182 . S
O101 Zn86 2.080 . S
O101 C104 1.305 . S
O102 Zn85 1.920 . S
O102 C104 1.234 . S
C103 O89 1.305 . S
C103 O90 1.234 . S
C104 O101 1.305 . S
C104 O102 1.234 . S
Zn105 O111 1.920 . S
Zn105 O117 1.898 1_554 S
Zn105 O120 1.905 1_554 S
Zn106 O114 1.905 . S
Zn106 O115 1.898 . S
Zn106 O123 1.896 1_455 S
Zn107 O110 2.080 1_556 S
Zn107 O113 2.114 1_545 S
Zn107 O116 2.120 1_545 S
Zn107 O118 2.120 . S
Zn107 O119 2.114 . S
Zn107 O122 2.080 . S
C108 O113 1.166 . S
C108 O114 1.182 . S
C109 O115 1.167 . S
C109 O116 1.299 . S
O110 Zn107 2.080 1_554 S
O110 C124 1.305 . S
O111 Zn105 1.920 . S
O111 C124 1.234 . S
C112 O117 1.167 . S
C112 O118 1.299 . S
O113 Zn107 2.114 1_565 S
O113 C108 1.166 . S
O114 Zn106 1.905 . S
O114 C108 1.182 . S
O115 Zn106 1.898 . S
O115 C109 1.167 . S
O116 Zn107 2.120 1_565 S
O116 C109 1.299 . S
O117 Zn105 1.898 1_556 S
O117 C112 1.167 . S
O118 Zn107 2.120 . S
O118 C112 1.299 . S
O119 Zn107 2.114 . S
O119 C121 1.166 . S
O120 Zn105 1.905 1_556 S
O120 C121 1.182 . S
C121 O119 1.166 . S
C121 O120 1.182 . S
O122 Zn107 2.080 . S
O122 C125 1.305 1_545 S
O123 Zn106 1.896 1_655 S
O123 C125 1.223 1_655 S
C124 O110 1.305 . S
C124 O111 1.234 . S
C125 O122 1.305 1_565 S
C125 O123 1.223 1_455 S
Zn126 O132 1.920 . S
Zn126 O138 1.898 . S
Zn126 O141 1.905 . S
Zn127 O135 1.905 . S
Zn127 O136 1.898 . S
Zn127 O144 1.920 1_554 S
Zn128 O131 2.080 . S
Zn128 O134 2.114 1_546 S
Zn128 O137 2.120 1_545 S
Zn128 O139 2.120 . S
Zn128 O140 2.114 1_556 S
Zn128 O143 2.080 . S
C129 O134 1.166 . S
C129 O135 1.182 . S
C130 O136 1.167 . S
C130 O137 1.299 1_554 S
O131 Zn128 2.080 . S
O131 C145 1.305 . S
O132 Zn126 1.920 . S
O132 C145 1.234 . S
C133 O138 1.167 1_554 S
C133 O139 1.299 1_554 S
O134 Zn128 2.114 1_564 S
O134 C129 1.166 . S
O135 Zn127 1.905 . S
O135 C129 1.182 . S
O136 Zn127 1.898 . S
O136 C130 1.167 . S
O137 Zn128 2.120 1_565 S
O137 C130 1.299 1_556 S
O138 Zn126 1.898 . S
O138 C133 1.167 1_556 S
O139 Zn128 2.120 . S
O139 C133 1.299 1_556 S
O140 Zn128 2.114 1_554 S
O140 C142 1.166 1_554 S
O141 Zn126 1.905 . S
O141 C142 1.182 . S
C142 O140 1.166 1_556 S
C142 O141 1.182 . S
O143 Zn128 2.080 . S
O143 C146 1.305 1_545 S
O144 Zn127 1.920 1_556 S
O144 C146 1.234 . S
C145 O131 1.305 . S
C145 O132 1.234 . S
C146 O143 1.305 1_565 S
C146 O144 1.234 . S
Zn147 O153 1.896 1_454 S
Zn147 O159 1.898 . S
Zn147 O162 1.905 . S
Zn148 O156 1.905 . S
Zn148 O157 1.898 . S
Zn148 O165 1.920 . S
Zn149 O152 2.080 . S
Zn149 O155 2.114 1_556 S
Zn149 O158 2.120 . S
Zn149 O160 2.120 . S
Zn149 O161 2.114 1_556 S
Zn149 O164 2.080 . S
C150 O155 1.166 1_556 S
C150 O156 1.182 . S
C151 O157 1.167 1_554 S
C151 O158 1.299 1_554 S
O152 Zn149 2.080 . S
O152 C166 1.305 . S
O153 Zn147 1.896 1_656 S
O153 C166 1.223 1_655 S
C154 O159 1.167 . S
C154 O160 1.299 1_554 S
O155 Zn149 2.114 1_554 S
O155 C150 1.166 1_554 S
O156 Zn148 1.905 . S
O156 C150 1.182 . S
O157 Zn148 1.898 . S
O157 C151 1.167 1_556 S
O158 Zn149 2.120 . S
O158 C151 1.299 1_556 S
O159 Zn147 1.898 . S
O159 C154 1.167 . S
O160 Zn149 2.120 . S
O160 C154 1.299 1_556 S
O161 Zn149 2.114 1_554 S
O161 C163 1.166 . S
O162 Zn147 1.905 . S
O162 C163 1.182 . S
C163 O161 1.166 . S
C163 O162 1.182 . S
O164 Zn149 2.080 . S
O164 C167 1.305 . S
O165 Zn148 1.920 . S
O165 C167 1.234 . S
C166 O152 1.305 . S
C166 O153 1.223 1_455 S
C167 O164 1.305 . S
C167 O165 1.234 . S
Zn168 O174 1.920 . S
Zn168 O180 1.898 . S
Zn168 O183 1.905 . S
Zn169 O177 1.905 1_556 S
Zn169 O178 1.898 . S
Zn169 O186 1.920 . S
Zn170 O173 2.080 . S
Zn170 O176 2.114 1_556 S
Zn170 O179 2.120 . S
Zn170 O181 2.120 . S
Zn170 O182 2.114 . S
Zn170 O185 2.080 . S
C171 O176 1.166 . S
C171 O177 1.182 . S
C172 O178 1.167 . S
C172 O179 1.299 . S
O173 Zn170 2.080 . S
O173 C187 1.305 . S
O174 Zn168 1.920 . S
O174 C187 1.234 . S
C175 O180 1.167 . S
C175 O181 1.299 . S
O176 Zn170 2.114 1_554 S
O176 C171 1.166 . S
O177 Zn169 1.905 1_554 S
O177 C171 1.182 . S
O178 Zn169 1.898 . S
O178 C172 1.167 . S
O179 Zn170 2.120 . S
O179 C172 1.299 . S
O180 Zn168 1.898 . S
O180 C175 1.167 . S
O181 Zn170 2.120 . S
O181 C175 1.299 . S
O182 Zn170 2.114 . S
O182 C184 1.166 . S
O183 Zn168 1.905 . S
O183 C184 1.182 . S
C184 O182 1.166 . S
C184 O183 1.182 . S
O185 Zn170 2.080 . S
O185 C188 1.305 . S
O186 Zn169 1.920 . S
O186 C188 1.234 . S
C187 O173 1.305 . S
C187 O174 1.234 . S
C188 O185 1.305 . S
C188 O186 1.234 . S
Zn189 O195 1.920 . S
Zn189 O201 1.898 . S
Zn189 O204 1.905 . S
Zn190 O198 1.905 1_556 S
Zn190 O199 1.898 . S
Zn190 O207 1.896 1_655 S
Zn191 O194 2.080 . S
Zn191 O197 2.114 1_556 S
Zn191 O200 2.120 . S
Zn191 O202 2.120 . S
Zn191 O203 2.114 . S
Zn191 O206 2.080 . S
C192 O197 1.166 . S
C192 O198 1.182 . S
C193 O199 1.167 . S
C193 O200 1.299 . S
O194 Zn191 2.080 . S
O194 C208 1.305 . S
O195 Zn189 1.920 . S
O195 C208 1.234 . S
C196 O201 1.167 . S
C196 O202 1.299 . S
O197 Zn191 2.114 1_554 S
O197 C192 1.166 . S
O198 Zn190 1.905 1_554 S
O198 C192 1.182 . S
O199 Zn190 1.898 . S
O199 C193 1.167 . S
O200 Zn191 2.120 . S
O200 C193 1.299 . S
O201 Zn189 1.898 . S
O201 C196 1.167 . S
O202 Zn191 2.120 . S
O202 C196 1.299 . S
O203 Zn191 2.114 . S
O203 C205 1.166 . S
O204 Zn189 1.905 . S
O204 C205 1.182 . S
C205 O203 1.166 . S
C205 O204 1.182 . S
O206 Zn191 2.080 . S
O206 C209 1.305 . S
O207 Zn190 1.896 1_455 S
O207 C209 1.223 1_455 S
C208 O194 1.305 . S
C208 O195 1.234 . S
C209 O206 1.305 . S
C209 O207 1.223 1_655 S
Zn210 O216 1.920 . S
Zn210 O222 1.898 . S
Zn210 O225 1.905 . S
Zn211 O219 1.905 . S
Zn211 O220 1.898 . S
Zn211 O228 1.920 1_556 S
Zn212 O215 2.080 . S
Zn212 O218 2.114 . S
Zn212 O221 2.120 . S
Zn212 O223 2.120 . S
Zn212 O224 2.114 . S
Zn212 O227 2.080 . S
C213 O218 1.166 . S
C213 O219 1.182 . S
C214 O220 1.167 . S
C214 O221 1.299 . S
O215 Zn212 2.080 . S
O215 C229 1.305 . S
O216 Zn210 1.920 . S
O216 C229 1.234 . S
C217 O222 1.167 . S
C217 O223 1.299 . S
O218 Zn212 2.114 . S
O218 C213 1.166 . S
O219 Zn211 1.905 . S
O219 C213 1.182 . S
O220 Zn211 1.898 . S
O220 C214 1.167 . S
O221 Zn212 2.120 . S
O221 C214 1.299 . S
O222 Zn210 1.898 . S
O222 C217 1.167 . S
O223 Zn212 2.120 . S
O223 C217 1.299 . S
O224 Zn212 2.114 . S
O224 C226 1.166 . S
O225 Zn210 1.905 . S
O225 C226 1.182 . S
C226 O224 1.166 . S
C226 O225 1.182 . S
O227 Zn212 2.080 . S
O227 C230 1.305 1_556 S
O228 Zn211 1.920 1_554 S
O228 C230 1.234 . S
C229 O215 1.305 . S
C229 O216 1.234 . S
C230 O227 1.305 1_554 S
C230 O228 1.234 . S
Zn231 O237 1.896 1_655 S
Zn231 O243 1.898 . S
Zn231 O246 1.905 . S
Zn232 O240 1.905 . S
Zn232 O241 1.898 . S
Zn232 O249 1.920 1_556 S
Zn233 O236 2.080 . S
Zn233 O239 2.114 . S
Zn233 O242 2.120 . S
Zn233 O244 2.120 . S
Zn233 O245 2.114 . S
Zn233 O248 2.080 . S
C234 O239 1.166 . S
C234 O240 1.182 . S
C235 O241 1.167 . S
C235 O242 1.299 . S
O236 Zn233 2.080 . S
O236 C250 1.305 . S
O237 Zn231 1.896 1_455 S
O237 C250 1.223 1_455 S
C238 O243 1.167 . S
C238 O244 1.299 . S
O239 Zn233 2.114 . S
O239 C234 1.166 . S
O240 Zn232 1.905 . S
O240 C234 1.182 . S
O241 Zn232 1.898 . S
O241 C235 1.167 . S
O242 Zn233 2.120 . S
O242 C235 1.299 . S
O243 Zn231 1.898 . S
O243 C238 1.167 . S
O244 Zn233 2.120 . S
O244 C238 1.299 . S
O245 Zn233 2.114 . S
O245 C247 1.166 . S
O246 Zn231 1.905 . S
O246 C247 1.182 . S
C247 O245 1.166 . S
C247 O246 1.182 . S
O248 Zn233 2.080 . S
O248 C251 1.305 1_556 S
O249 Zn232 1.920 1_554 S
O249 C251 1.234 . S
C250 O236 1.305 . S
C250 O237 1.223 1_655 S
C251 O248 1.305 1_554 S
C251 O249 1.234 . S
Zn252 O258 1.920 . S
Zn252 O264 1.898 . S
Zn252 O267 1.905 . S
Zn253 O261 1.905 1_554 S
Zn253 O262 1.898 . S
Zn253 O270 1.920 . S
Zn254 O257 2.080 . S
Zn254 O260 2.114 1_554 S
Zn254 O263 2.120 . S
Zn254 O265 2.120 . S
Zn254 O266 2.114 . S
Zn254 O269 2.080 . S
C255 O260 1.166 . S
C255 O261 1.182 . S
C256 O262 1.167 . S
C256 O263 1.299 . S
O257 Zn254 2.080 . S
O257 C271 1.305 . S
O258 Zn252 1.920 . S
O258 C271 1.234 . S
C259 O264 1.167 . S
C259 O265 1.299 . S
O260 Zn254 2.114 1_556 S
O260 C255 1.166 . S
O261 Zn253 1.905 1_556 S
O261 C255 1.182 . S
O262 Zn253 1.898 . S
O262 C256 1.167 . S
O263 Zn254 2.120 . S
O263 C256 1.299 . S
O264 Zn252 1.898 . S
O264 C259 1.167 . S
O265 Zn254 2.120 . S
O265 C259 1.299 . S
O266 Zn254 2.114 . S
O266 C268 1.166 . S
O267 Zn252 1.905 . S
O267 C268 1.182 . S
C268 O266 1.166 . S
C268 O267 1.182 . S
O269 Zn254 2.080 . S
O269 C272 1.305 . S
O270 Zn253 1.920 . S
O270 C272 1.234 . S
C271 O257 1.305 . S
C271 O258 1.234 . S
C272 O269 1.305 . S
C272 O270 1.234 . S
Zn273 O279 1.920 . S
Zn273 O285 1.898 . S
Zn273 O288 1.905 . S
Zn274 O282 1.905 1_554 S
Zn274 O283 1.898 . S
Zn274 O291 1.896 1_455 S
Zn275 O278 2.080 . S
Zn275 O281 2.114 1_554 S
Zn275 O284 2.120 . S
Zn275 O286 2.120 . S
Zn275 O287 2.114 . S
Zn275 O290 2.080 . S
C276 O281 1.166 . S
C276 O282 1.182 . S
C277 O283 1.167 . S
C277 O284 1.299 . S
O278 Zn275 2.080 . S
O278 C292 1.305 . S
O279 Zn273 1.920 . S
O279 C292 1.234 . S
C280 O285 1.167 . S
C280 O286 1.299 . S
O281 Zn275 2.114 1_556 S
O281 C276 1.166 . S
O282 Zn274 1.905 1_556 S
O282 C276 1.182 . S
O283 Zn274 1.898 . S
O283 C277 1.167 . S
O284 Zn275 2.120 . S
O284 C277 1.299 . S
O285 Zn273 1.898 . S
O285 C280 1.167 . S
O286 Zn275 2.120 . S
O286 C280 1.299 . S
O287 Zn275 2.114 . S
O287 C289 1.166 . S
O288 Zn273 1.905 . S
O288 C289 1.182 . S
C289 O287 1.166 . S
C289 O288 1.182 . S
O290 Zn275 2.080 . S
O290 C293 1.305 . S
O291 Zn274 1.896 1_655 S
O291 C293 1.223 1_655 S
C292 O278 1.305 . S
C292 O279 1.234 . S
C293 O290 1.305 . S
C293 O291 1.223 1_455 S
Zn294 O300 1.920 . S
Zn294 O306 1.898 . S
Zn294 O309 1.905 . S
Zn295 O303 1.905 . S
Zn295 O304 1.898 . S
Zn295 O312 1.920 1_554 S
Zn296 O299 2.080 . S
Zn296 O302 2.114 . S
Zn296 O305 2.120 . S
Zn296 O307 2.120 . S
Zn296 O308 2.114 . S
Zn296 O311 2.080 . S
C297 O302 1.166 . S
C297 O303 1.182 . S
C298 O304 1.167 . S
C298 O305 1.299 . S
O299 Zn296 2.080 . S
O299 C313 1.305 . S
O300 Zn294 1.920 . S
O300 C313 1.234 . S
C301 O306 1.167 . S
C301 O307 1.299 . S
O302 Zn296 2.114 . S
O302 C297 1.166 . S
O303 Zn295 1.905 . S
O303 C297 1.182 . S
O304 Zn295 1.898 . S
O304 C298 1.167 . S
O305 Zn296 2.120 . S
O305 C298 1.299 . S
O306 Zn294 1.898 . S
O306 C301 1.167 . S
O307 Zn296 2.120 . S
O307 C301 1.299 . S
O308 Zn296 2.114 . S
O308 C310 1.166 . S
O309 Zn294 1.905 . S
O309 C310 1.182 . S
C310 O308 1.166 . S
C310 O309 1.182 . S
O311 Zn296 2.080 . S
O311 C314 1.305 1_554 S
O312 Zn295 1.920 1_556 S
O312 C314 1.234 . S
C313 O299 1.305 . S
C313 O300 1.234 . S
C314 O311 1.305 1_556 S
C314 O312 1.234 . S
Zn315 O321 1.920 1_554 S
Zn315 O327 1.898 . S
Zn315 O330 1.905 . S
Zn316 O324 1.905 . S
Zn316 O325 1.898 . S
Zn316 O333 1.896 1_455 S
Zn317 O320 2.080 . S
Zn317 O323 2.114 . S
Zn317 O326 2.120 . S
Zn317 O328 2.120 . S
Zn317 O329 2.114 . S
Zn317 O332 2.080 . S
C318 O323 1.166 . S
C318 O324 1.182 . S
C319 O325 1.167 . S
C319 O326 1.299 . S
O320 Zn317 2.080 . S
O320 C334 1.305 1_554 S
O321 Zn315 1.920 1_556 S
O321 C334 1.234 . S
C322 O327 1.167 . S
C322 O328 1.299 . S
O323 Zn317 2.114 . S
O323 C318 1.166 . S
O324 Zn316 1.905 . S
O324 C318 1.182 . S
O325 Zn316 1.898 . S
O325 C319 1.167 . S
O326 Zn317 2.120 . S
O326 C319 1.299 . S
O327 Zn315 1.898 . S
O327 C322 1.167 . S
O328 Zn317 2.120 . S
O328 C322 1.299 . S
O329 Zn317 2.114 . S
O329 C331 1.166 . S
O330 Zn315 1.905 . S
O330 C331 1.182 . S
C331 O329 1.166 . S
C331 O330 1.182 . S
O332 Zn317 2.080 . S
O332 C335 1.305 . S
O333 Zn316 1.896 1_655 S
O333 C335 1.223 1_655 S
C334 O320 1.305 1_556 S
C334 O321 1.234 . S
C335 O332 1.305 . S
C335 O333 1.223 1_455 S
Zn336 O342 1.920 . S
Zn336 O348 1.898 . S
Zn336 O351 1.905 . S
Zn337 O345 1.905 1_556 S
Zn337 O346 1.898 . S
Zn337 O354 1.920 . S
Zn338 O341 2.080 . S
Zn338 O344 2.114 1_556 S
Zn338 O347 2.120 . S
Zn338 O349 2.120 . S
Zn338 O350 2.114 . S
Zn338 O353 2.080 . S
C339 O344 1.166 . S
C339 O345 1.182 . S
C340 O346 1.167 . S
C340 O347 1.299 . S
O341 Zn338 2.080 . S
O341 C355 1.305 . S
O342 Zn336 1.920 . S
O342 C355 1.234 . S
C343 O348 1.167 . S
C343 O349 1.299 . S
O344 Zn338 2.114 1_554 S
O344 C339 1.166 . S
O345 Zn337 1.905 1_554 S
O345 C339 1.182 . S
O346 Zn337 1.898 . S
O346 C340 1.167 . S
O347 Zn338 2.120 . S
O347 C340 1.299 . S
O348 Zn336 1.898 . S
O348 C343 1.167 . S
O349 Zn338 2.120 . S
O349 C343 1.299 . S
O350 Zn338 2.114 . S
O350 C352 1.166 . S
O351 Zn336 1.905 . S
O351 C352 1.182 . S
C352 O350 1.166 . S
C352 O351 1.182 . S
O353 Zn338 2.080 . S
O353 C356 1.305 . S
O354 Zn337 1.920 . S
O354 C356 1.234 . S
C355 O341 1.305 . S
C355 O342 1.234 . S
C356 O353 1.305 . S
C356 O354 1.234 . S
Zn357 O363 1.920 . S
Zn357 O369 1.898 . S
Zn357 O372 1.905 . S
Zn358 O366 1.905 1_556 S
Zn358 O367 1.898 . S
Zn358 O375 1.920 . S
Zn359 O362 2.080 . S
Zn359 O365 2.114 1_566 S
Zn359 O368 2.120 1_565 S
Zn359 O370 2.120 . S
Zn359 O371 2.114 . S
Zn359 O374 2.080 . S
C360 O365 1.166 . S
C360 O366 1.182 . S
C361 O367 1.167 . S
C361 O368 1.299 . S
O362 Zn359 2.080 . S
O362 C376 1.305 . S
O363 Zn357 1.920 . S
O363 C376 1.234 . S
C364 O369 1.167 . S
C364 O370 1.299 . S
O365 Zn359 2.114 1_544 S
O365 C360 1.166 . S
O366 Zn358 1.905 1_554 S
O366 C360 1.182 . S
O367 Zn358 1.898 . S
O367 C361 1.167 . S
O368 Zn359 2.120 1_545 S
O368 C361 1.299 . S
O369 Zn357 1.898 . S
O369 C364 1.167 . S
O370 Zn359 2.120 . S
O370 C364 1.299 . S
O371 Zn359 2.114 . S
O371 C373 1.166 . S
O372 Zn357 1.905 . S
O372 C373 1.182 . S
C373 O371 1.166 . S
C373 O372 1.182 . S
O374 Zn359 2.080 . S
O374 C377 1.305 1_565 S
O375 Zn358 1.920 . S
O375 C377 1.234 . S
C376 O362 1.305 . S
C376 O363 1.234 . S
C377 O374 1.305 1_545 S
C377 O375 1.234 . S
Zn378 O384 1.920 1_556 S
Zn378 O390 1.898 . S
Zn378 O393 1.905 . S
Zn379 O387 1.905 . S
Zn379 O388 1.898 . S
Zn379 O396 1.920 . S
Zn380 O383 2.080 . S
Zn380 O386 2.114 1_565 S
Zn380 O389 2.120 1_565 S
Zn380 O391 2.120 . S
Zn380 O392 2.114 . S
Zn380 O395 2.080 . S
C381 O386 1.166 . S
C381 O387 1.182 . S
C382 O388 1.167 . S
C382 O389 1.299 . S
O383 Zn380 2.080 . S
O383 C397 1.305 1_556 S
O384 Zn378 1.920 1_554 S
O384 C397 1.234 . S
C385 O390 1.167 . S
C385 O391 1.299 . S
O386 Zn380 2.114 1_545 S
O386 C381 1.166 . S
O387 Zn379 1.905 . S
O387 C381 1.182 . S
O388 Zn379 1.898 . S
O388 C382 1.167 . S
O389 Zn380 2.120 1_545 S
O389 C382 1.299 . S
O390 Zn378 1.898 . S
O390 C385 1.167 . S
O391 Zn380 2.120 . S
O391 C385 1.299 . S
O392 Zn380 2.114 . S
O392 C394 1.166 . S
O393 Zn378 1.905 . S
O393 C394 1.182 . S
C394 O392 1.166 . S
C394 O393 1.182 . S
O395 Zn380 2.080 . S
O395 C398 1.305 1_565 S
O396 Zn379 1.920 . S
O396 C398 1.234 . S
C397 O383 1.305 1_554 S
C397 O384 1.234 . S
C398 O395 1.305 1_545 S
C398 O396 1.234 . S
Zn399 O405 1.920 . S
Zn399 O411 1.898 . S
Zn399 O414 1.905 . S
Zn400 O408 1.905 . S
Zn400 O409 1.898 . S
Zn400 O417 1.920 1_556 S
Zn401 O404 2.080 . S
Zn401 O407 2.114 . S
Zn401 O410 2.120 . S
Zn401 O412 2.120 . S
Zn401 O413 2.114 . S
Zn401 O416 2.080 . S
C402 O407 1.166 . S
C402 O408 1.182 . S
C403 O409 1.167 . S
C403 O410 1.299 . S
O404 Zn401 2.080 . S
O404 C418 1.305 . S
O405 Zn399 1.920 . S
O405 C418 1.234 . S
C406 O411 1.167 . S
C406 O412 1.299 . S
O407 Zn401 2.114 . S
O407 C402 1.166 . S
O408 Zn400 1.905 . S
O408 C402 1.182 . S
O409 Zn400 1.898 . S
O409 C403 1.167 . S
O410 Zn401 2.120 . S
O410 C403 1.299 . S
O411 Zn399 1.898 . S
O411 C406 1.167 . S
O412 Zn401 2.120 . S
O412 C406 1.299 . S
O413 Zn401 2.114 . S
O413 C415 1.166 . S
O414 Zn399 1.905 . S
O414 C415 1.182 . S
C415 O413 1.166 . S
C415 O414 1.182 . S
O416 Zn401 2.080 . S
O416 C419 1.305 1_556 S
O417 Zn400 1.920 1_554 S
O417 C419 1.234 . S
C418 O404 1.305 . S
C418 O405 1.234 . S
C419 O416 1.305 1_554 S
C419 O417 1.234 . S
Zn420 O426 1.920 . S
Zn420 O432 1.898 . S
Zn420 O435 1.905 1_554 S
Zn421 O429 1.905 . S
Zn421 O430 1.898 . S
Zn421 O438 1.920 . S
Zn422 O425 2.080 . S
Zn422 O428 2.114 . S
Zn422 O431 2.120 . S
Zn422 O433 2.120 . S
Zn422 O434 2.114 1_554 S
Zn422 O437 2.080 . S
C423 O428 1.166 . S
C423 O429 1.182 . S
C424 O430 1.167 . S
C424 O431 1.299 . S
O425 Zn422 2.080 . S
O425 C439 1.305 . S
O426 Zn420 1.920 . S
O426 C439 1.234 . S
C427 O432 1.167 . S
C427 O433 1.299 . S
O428 Zn422 2.114 . S
O428 C423 1.166 . S
O429 Zn421 1.905 . S
O429 C423 1.182 . S
O430 Zn421 1.898 . S
O430 C424 1.167 . S
O431 Zn422 2.120 . S
O431 C424 1.299 . S
O432 Zn420 1.898 . S
O432 C427 1.167 . S
O433 Zn422 2.120 . S
O433 C427 1.299 . S
O434 Zn422 2.114 1_556 S
O434 C436 1.166 . S
O435 Zn420 1.905 1_556 S
O435 C436 1.182 . S
C436 O434 1.166 . S
C436 O435 1.182 . S
O437 Zn422 2.080 . S
O437 C440 1.305 . S
O438 Zn421 1.920 . S
O438 C440 1.234 . S
C439 O425 1.305 . S
C439 O426 1.234 . S
C440 O437 1.305 . S
C440 O438 1.234 . S
Zn441 O447 1.920 . S
Zn441 O453 1.898 . S
Zn441 O456 1.905 . S
Zn442 O450 1.905 1_554 S
Zn442 O451 1.898 . S
Zn442 O459 1.920 . S
Zn443 O446 2.080 . S
Zn443 O449 2.114 1_544 S
Zn443 O452 2.120 1_545 S
Zn443 O454 2.120 . S
Zn443 O455 2.114 . S
Zn443 O458 2.080 . S
C444 O449 1.166 . S
C444 O450 1.182 . S
C445 O451 1.167 . S
C445 O452 1.299 . S
O446 Zn443 2.080 . S
O446 C460 1.305 . S
O447 Zn441 1.920 . S
O447 C460 1.234 . S
C448 O453 1.167 . S
C448 O454 1.299 . S
O449 Zn443 2.114 1_566 S
O449 C444 1.166 . S
O450 Zn442 1.905 1_556 S
O450 C444 1.182 . S
O451 Zn442 1.898 . S
O451 C445 1.167 . S
O452 Zn443 2.120 1_565 S
O452 C445 1.299 . S
O453 Zn441 1.898 . S
O453 C448 1.167 . S
O454 Zn443 2.120 . S
O454 C448 1.299 . S
O455 Zn443 2.114 . S
O455 C457 1.166 . S
O456 Zn441 1.905 . S
O456 C457 1.182 . S
C457 O455 1.166 . S
C457 O456 1.182 . S
O458 Zn443 2.080 . S
O458 C461 1.305 1_545 S
O459 Zn442 1.920 . S
O459 C461 1.234 . S
C460 O446 1.305 . S
C460 O447 1.234 . S
C461 O458 1.305 1_565 S
C461 O459 1.234 . S
Zn462 O468 1.920 . S
Zn462 O474 1.898 . S
Zn462 O477 1.905 . S
Zn463 O471 1.905 . S
Zn463 O472 1.898 . S
Zn463 O480 1.920 1_554 S
Zn464 O467 2.080 . S
Zn464 O470 2.114 . S
Zn464 O473 2.120 . S
Zn464 O475 2.120 1_545 S
Zn464 O476 2.114 1_545 S
Zn464 O479 2.080 . S
C465 O470 1.166 . S
C465 O471 1.182 . S
C466 O472 1.167 . S
C466 O473 1.299 . S
O467 Zn464 2.080 . S
O467 C481 1.305 1_545 S
O468 Zn462 1.920 . S
O468 C481 1.234 . S
C469 O474 1.167 . S
C469 O475 1.299 . S
O470 Zn464 2.114 . S
O470 C465 1.166 . S
O471 Zn463 1.905 . S
O471 C465 1.182 . S
O472 Zn463 1.898 . S
O472 C466 1.167 . S
O473 Zn464 2.120 . S
O473 C466 1.299 . S
O474 Zn462 1.898 . S
O474 C469 1.167 . S
O475 Zn464 2.120 1_565 S
O475 C469 1.299 . S
O476 Zn464 2.114 1_565 S
O476 C478 1.166 . S
O477 Zn462 1.905 . S
O477 C478 1.182 . S
C478 O476 1.166 . S
C478 O477 1.182 . S
O479 Zn464 2.080 . S
O479 C482 1.305 1_554 S
O480 Zn463 1.920 1_556 S
O480 C482 1.234 . S
C481 O467 1.305 1_565 S
C481 O468 1.234 . S
C482 O479 1.305 1_556 S
C482 O480 1.234 . S
Zn483 O489 1.920 . S
Zn483 O495 1.898 . S
Zn483 O498 1.905 . S
Zn484 O492 1.905 . S
Zn484 O493 1.898 . S
Zn484 O501 1.920 1_554 S
Zn485 O488 2.080 . S
Zn485 O491 2.114 . S
Zn485 O494 2.120 . S
Zn485 O496 2.120 . S
Zn485 O497 2.114 . S
Zn485 O500 2.080 . S
C486 O491 1.166 . S
C486 O492 1.182 . S
C487 O493 1.167 . S
C487 O494 1.299 . S
O488 Zn485 2.080 . S
O488 C502 1.305 . S
O489 Zn483 1.920 . S
O489 C502 1.234 . S
C490 O495 1.167 . S
C490 O496 1.299 . S
O491 Zn485 2.114 . S
O491 C486 1.166 . S
O492 Zn484 1.905 . S
O492 C486 1.182 . S
O493 Zn484 1.898 . S
O493 C487 1.167 . S
O494 Zn485 2.120 . S
O494 C487 1.299 . S
O495 Zn483 1.898 . S
O495 C490 1.167 . S
O496 Zn485 2.120 . S
O496 C490 1.299 . S
O497 Zn485 2.114 . S
O497 C499 1.166 . S
O498 Zn483 1.905 . S
O498 C499 1.182 . S
C499 O497 1.166 . S
C499 O498 1.182 . S
O500 Zn485 2.080 . S
O500 C503 1.305 1_554 S
O501 Zn484 1.920 1_556 S
O501 C503 1.234 . S
C502 O488 1.305 . S
C502 O489 1.234 . S
C503 O500 1.305 1_556 S
C503 O501 1.234 . S
Zn504 O510 1.920 . S
Zn504 O516 1.898 1_556 S
Zn504 O519 1.905 1_556 S
Zn505 O513 1.905 . S
Zn505 O514 1.898 . S
Zn505 O522 1.920 . S
Zn506 O509 2.080 1_554 S
Zn506 O512 2.114 . S
Zn506 O515 2.120 . S
Zn506 O517 2.120 . S
Zn506 O518 2.114 . S
Zn506 O521 2.080 . S
C507 O512 1.166 . S
C507 O513 1.182 . S
C508 O514 1.167 . S
C508 O515 1.299 . S
O509 Zn506 2.080 1_556 S
O509 C523 1.305 . S
O510 Zn504 1.920 . S
O510 C523 1.234 . S
C511 O516 1.167 . S
C511 O517 1.299 . S
O512 Zn506 2.114 . S
O512 C507 1.166 . S
O513 Zn505 1.905 . S
O513 C507 1.182 . S
O514 Zn505 1.898 . S
O514 C508 1.167 . S
O515 Zn506 2.120 . S
O515 C508 1.299 . S
O516 Zn504 1.898 1_554 S
O516 C511 1.167 . S
O517 Zn506 2.120 . S
O517 C511 1.299 . S
O518 Zn506 2.114 . S
O518 C520 1.166 . S
O519 Zn504 1.905 1_554 S
O519 C520 1.182 . S
C520 O518 1.166 . S
C520 O519 1.182 . S
O521 Zn506 2.080 . S
O521 C524 1.305 . S
O522 Zn505 1.920 . S
O522 C524 1.234 . S
C523 O509 1.305 . S
C523 O510 1.234 . S
C524 O521 1.305 . S
C524 O522 1.234 . S
Zn525 O531 1.920 . S
Zn525 O537 1.898 1_556 S
Zn525 O540 1.905 1_556 S
Zn526 O534 1.905 . S
Zn526 O535 1.898 . S
Zn526 O543 1.920 . S
Zn527 O530 2.080 1_554 S
Zn527 O533 2.114 . S
Zn527 O536 2.120 . S
Zn527 O538 2.120 . S
Zn527 O539 2.114 . S
Zn527 O542 2.080 . S
C528 O533 1.166 . S
C528 O534 1.182 . S
C529 O535 1.167 . S
C529 O536 1.299 . S
O530 Zn527 2.080 1_556 S
O530 C544 1.305 . S
O531 Zn525 1.920 . S
O531 C544 1.234 . S
C532 O537 1.167 . S
C532 O538 1.299 . S
O533 Zn527 2.114 . S
O533 C528 1.166 . S
O534 Zn526 1.905 . S
O534 C528 1.182 . S
O535 Zn526 1.898 . S
O535 C529 1.167 . S
O536 Zn527 2.120 . S
O536 C529 1.299 . S
O537 Zn525 1.898 1_554 S
O537 C532 1.167 . S
O538 Zn527 2.120 . S
O538 C532 1.299 . S
O539 Zn527 2.114 . S
O539 C541 1.166 . S
O540 Zn525 1.905 1_554 S
O540 C541 1.182 . S
C541 O539 1.166 . S
C541 O540 1.182 . S
O542 Zn527 2.080 . S
O542 C545 1.305 . S
O543 Zn526 1.920 . S
O543 C545 1.234 . S
C544 O530 1.305 . S
C544 O531 1.234 . S
C545 O542 1.305 . S
C545 O543 1.234 . S
Zn546 O552 1.920 1_556 S
Zn546 O558 1.898 . S
Zn546 O561 1.905 . S
Zn547 O555 1.905 . S
Zn547 O556 1.898 . S
Zn547 O564 1.920 . S
Zn548 O551 2.080 . S
Zn548 O554 2.114 1_554 S
Zn548 O557 2.120 . S
Zn548 O559 2.120 . S
Zn548 O560 2.114 1_554 S
Zn548 O563 2.080 . S
C549 O554 1.166 1_554 S
C549 O555 1.182 . S
C550 O556 1.167 1_556 S
C550 O557 1.299 1_556 S
O551 Zn548 2.080 . S
O551 C565 1.305 . S
O552 Zn546 1.920 1_554 S
O552 C565 1.234 . S
C553 O558 1.167 . S
C553 O559 1.299 1_556 S
O554 Zn548 2.114 1_556 S
O554 C549 1.166 1_556 S
O555 Zn547 1.905 . S
O555 C549 1.182 . S
O556 Zn547 1.898 . S
O556 C550 1.167 1_554 S
O557 Zn548 2.120 . S
O557 C550 1.299 1_554 S
O558 Zn546 1.898 . S
O558 C553 1.167 . S
O559 Zn548 2.120 . S
O559 C553 1.299 1_554 S
O560 Zn548 2.114 1_556 S
O560 C562 1.166 . S
O561 Zn546 1.905 . S
O561 C562 1.182 . S
C562 O560 1.166 . S
C562 O561 1.182 . S
O563 Zn548 2.080 . S
O563 C566 1.305 . S
O564 Zn547 1.920 . S
O564 C566 1.234 . S
C565 O551 1.305 . S
C565 O552 1.234 . S
C566 O563 1.305 . S
C566 O564 1.234 . S
Zn567 O573 1.920 1_556 S
Zn567 O579 1.898 . S
Zn567 O582 1.905 . S
Zn568 O576 1.905 . S
Zn568 O577 1.898 . S
Zn568 O585 1.920 . S
Zn569 O572 2.080 . S
Zn569 O575 2.114 1_554 S
Zn569 O578 2.120 . S
Zn569 O580 2.120 . S
Zn569 O581 2.114 1_554 S
Zn569 O584 2.080 . S
C570 O575 1.166 1_554 S
C570 O576 1.182 . S
C571 O577 1.167 1_556 S
C571 O578 1.299 1_556 S
O572 Zn569 2.080 . S
O572 C586 1.305 . S
O573 Zn567 1.920 1_554 S
O573 C586 1.234 . S
C574 O579 1.167 . S
C574 O580 1.299 1_556 S
O575 Zn569 2.114 1_556 S
O575 C570 1.166 1_556 S
O576 Zn568 1.905 . S
O576 C570 1.182 . S
O577 Zn568 1.898 . S
O577 C571 1.167 1_554 S
O578 Zn569 2.120 . S
O578 C571 1.299 1_554 S
O579 Zn567 1.898 . S
O579 C574 1.167 . S
O580 Zn569 2.120 . S
O580 C574 1.299 1_554 S
O581 Zn569 2.114 1_556 S
O581 C583 1.166 . S
O582 Zn567 1.905 . S
O582 C583 1.182 . S
C583 O581 1.166 . S
C583 O582 1.182 . S
O584 Zn569 2.080 . S
O584 C587 1.305 . S
O585 Zn568 1.920 . S
O585 C587 1.234 . S
C586 O572 1.305 . S
C586 O573 1.234 . S
C587 O584 1.305 . S
C587 O585 1.234 . S
Zn588 O594 1.920 . S
Zn588 O600 1.898 . S
Zn588 O603 1.905 . S
Zn589 O597 1.905 1_554 S
Zn589 O598 1.898 1_554 S
Zn589 O606 1.920 . S
Zn590 O593 2.080 . S
Zn590 O596 2.114 . S
Zn590 O599 2.120 . S
Zn590 O601 2.120 . S
Zn590 O602 2.114 . S
Zn590 O605 2.080 1_556 S
C591 O596 1.166 . S
C591 O597 1.182 . S
C592 O598 1.167 . S
C592 O599 1.299 . S
O593 Zn590 2.080 . S
O593 C607 1.305 . S
O594 Zn588 1.920 . S
O594 C607 1.234 . S
C595 O600 1.167 . S
C595 O601 1.299 . S
O596 Zn590 2.114 . S
O596 C591 1.166 . S
O597 Zn589 1.905 1_556 S
O597 C591 1.182 . S
O598 Zn589 1.898 1_556 S
O598 C592 1.167 . S
O599 Zn590 2.120 . S
O599 C592 1.299 . S
O600 Zn588 1.898 . S
O600 C595 1.167 . S
O601 Zn590 2.120 . S
O601 C595 1.299 . S
O602 Zn590 2.114 . S
O602 C604 1.166 . S
O603 Zn588 1.905 . S
O603 C604 1.182 . S
C604 O602 1.166 . S
C604 O603 1.182 . S
O605 Zn590 2.080 1_554 S
O605 C608 1.305 . S
O606 Zn589 1.920 . S
O606 C608 1.234 . S
C607 O593 1.305 . S
C607 O594 1.234 . S
C608 O605 1.305 . S
C608 O606 1.234 . S
Zn609 O615 1.920 . S
Zn609 O621 1.898 1_554 S
Zn609 O624 1.905 1_554 S
Zn610 O618 1.905 . S
Zn610 O619 1.898 . S
Zn610 O627 1.920 . S
Zn611 O614 2.080 1_556 S
Zn611 O617 2.114 . S
Zn611 O620 2.120 . S
Zn611 O622 2.120 . S
Zn611 O623 2.114 . S
Zn611 O626 2.080 . S
C612 O617 1.166 . S
C612 O618 1.182 . S
C613 O619 1.167 . S
C613 O620 1.299 . S
O614 Zn611 2.080 1_554 S
O614 C628 1.305 . S
O615 Zn609 1.920 . S
O615 C628 1.234 . S
C616 O621 1.167 . S
C616 O622 1.299 . S
O617 Zn611 2.114 . S
O617 C612 1.166 . S
O618 Zn610 1.905 . S
O618 C612 1.182 . S
O619 Zn610 1.898 . S
O619 C613 1.167 . S
O620 Zn611 2.120 . S
O620 C613 1.299 . S
O621 Zn609 1.898 1_556 S
O621 C616 1.167 . S
O622 Zn611 2.120 . S
O622 C616 1.299 . S
O623 Zn611 2.114 . S
O623 C625 1.166 . S
O624 Zn609 1.905 1_556 S
O624 C625 1.182 . S
C625 O623 1.166 . S
C625 O624 1.182 . S
O626 Zn611 2.080 . S
O626 C629 1.305 . S
O627 Zn610 1.920 . S
O627 C629 1.234 . S
C628 O614 1.305 . S
C628 O615 1.234 . S
C629 O626 1.305 . S
C629 O627 1.234 . S
Zn630 O636 1.920 1_554 S
Zn630 O642 1.898 . S
Zn630 O645 1.905 . S
Zn631 O639 1.905 . S
Zn631 O640 1.898 . S
Zn631 O648 1.920 . S
Zn632 O635 2.080 . S
Zn632 O638 2.114 1_556 S
Zn632 O641 2.120 . S
Zn632 O643 2.120 . S
Zn632 O644 2.114 1_556 S
Zn632 O647 2.080 . S
C633 O638 1.166 1_556 S
C633 O639 1.182 . S
C634 O640 1.167 1_554 S
C634 O641 1.299 1_554 S
O635 Zn632 2.080 . S
O635 C649 1.305 . S
O636 Zn630 1.920 1_556 S
O636 C649 1.234 . S
C637 O642 1.167 . S
C637 O643 1.299 1_554 S
O638 Zn632 2.114 1_554 S
O638 C633 1.166 1_554 S
O639 Zn631 1.905 . S
O639 C633 1.182 . S
O640 Zn631 1.898 . S
O640 C634 1.167 1_556 S
O641 Zn632 2.120 . S
O641 C634 1.299 1_556 S
O642 Zn630 1.898 . S
O642 C637 1.167 . S
O643 Zn632 2.120 . S
O643 C637 1.299 1_556 S
O644 Zn632 2.114 1_554 S
O644 C646 1.166 . S
O645 Zn630 1.905 . S
O645 C646 1.182 . S
C646 O644 1.166 . S
C646 O645 1.182 . S
O647 Zn632 2.080 . S
O647 C650 1.305 . S
O648 Zn631 1.920 . S
O648 C650 1.234 . S
C649 O635 1.305 . S
C649 O636 1.234 . S
C650 O647 1.305 . S
C650 O648 1.234 . S
Zn651 O657 1.920 . S
Zn651 O663 1.898 . S
Zn651 O666 1.905 . S
Zn652 O660 1.905 . S
Zn652 O661 1.898 . S
Zn652 O669 1.920 1_554 S
Zn653 O656 2.080 . S
Zn653 O659 2.114 1_556 S
Zn653 O662 2.120 . S
Zn653 O664 2.120 . S
Zn653 O665 2.114 1_556 S
Zn653 O668 2.080 . S
C654 O659 1.166 . S
C654 O660 1.182 . S
C655 O661 1.167 . S
C655 O662 1.299 1_554 S
O656 Zn653 2.080 . S
O656 C670 1.305 . S
O657 Zn651 1.920 . S
O657 C670 1.234 . S
C658 O663 1.167 1_554 S
C658 O664 1.299 1_554 S
O659 Zn653 2.114 1_554 S
O659 C654 1.166 . S
O660 Zn652 1.905 . S
O660 C654 1.182 . S
O661 Zn652 1.898 . S
O661 C655 1.167 . S
O662 Zn653 2.120 . S
O662 C655 1.299 1_556 S
O663 Zn651 1.898 . S
O663 C658 1.167 1_556 S
O664 Zn653 2.120 . S
O664 C658 1.299 1_556 S
O665 Zn653 2.114 1_554 S
O665 C667 1.166 1_554 S
O666 Zn651 1.905 . S
O666 C667 1.182 . S
C667 O665 1.166 1_556 S
C667 O666 1.182 . S
O668 Zn653 2.080 . S
O668 C671 1.305 . S
O669 Zn652 1.920 1_556 S
O669 C671 1.234 . S
C670 O656 1.305 . S
C670 O657 1.234 . S
C671 O668 1.305 . S
C671 O669 1.234 . S
C607 C20 1.921 1_556 S
C125 C41 1.921 1_466 S
C481 C61 1.921 1_565 S
C335 C82 1.921 1_455 S
C104 C524 1.921 1_556 S
C398 C146 1.921 1_545 S
C250 C166 1.921 1_655 S
C439 C188 1.921 . S
C209 C293 1.920 1_655 S
C229 C649 1.921 . S
C356 C272 1.921 . S
C313 C565 1.921 . S
C377 C461 1.921 1_545 S
C418 C671 1.921 . S
C586 C502 1.921 . S
C629 C545 1.921 1_556 S
C402 C16 2.453 . S
C394 C37 2.453 . S
C373 C45 2.454 1_556 S
C352 C66 2.454 1_556 S
C486 C100 2.453 . S
C121 C465 2.453 . S
C142 C457 2.454 1_556 S
C150 C423 2.454 1_556 S
C184 C570 2.453 1_556 S
C205 C549 2.454 1_556 S
C213 C541 2.453 . S
C520 C234 2.453 . S
C268 C667 2.453 1_554 S
C289 C633 2.454 1_554 S
C297 C625 2.453 . S
C591 C331 2.453 . S
C3 C19 2.268 . S
C24 C40 2.268 1_545 S
C62 C58 2.268 1_565 S
C83 C79 2.268 . S
C103 C87 2.268 . S
C124 C108 2.268 1_545 S
C145 C129 2.268 1_545 S
C163 C167 2.268 . S
C171 C187 2.268 . S
C208 C192 2.268 . S
C230 C226 2.268 . S
C251 C247 2.268 . S
C271 C255 2.268 . S
C276 C292 2.268 . S
C314 C310 2.268 . S
C318 C334 2.268 . S
C339 C355 2.268 . S
C376 C360 2.268 1_565 S
C397 C381 2.268 1_565 S
C419 C415 2.268 . S
C436 C440 2.268 . S
C460 C444 2.268 1_545 S
C478 C482 2.268 1_565 S
C499 C503 2.268 . S
C507 C523 2.268 . S
C544 C528 2.268 . S
C566 C562 2.268 . S
C583 C587 2.268 . S
C608 C604 2.268 . S
C612 C628 2.268 . S
C646 C650 2.268 . S
C654 C670 2.268 . S
C214 C7 1.305 . S
C235 C28 1.305 . S
C46 C175 1.305 . S
C196 C67 1.306 . S
C91 C298 1.305 . S
C112 C322 1.305 . S
C133 C259 1.305 . S
C151 C280 1.306 . S
C550 C343 1.305 . S
C364 C571 1.306 . S
C511 C385 1.305 . S
C403 C532 1.305 . S
C634 C424 1.305 . S
C448 C658 1.306 . S
C466 C592 1.305 . S
C616 C487 1.305 . S
C4 C49 1.996 1_554 S
C70 C25 1.995 1_556 S
C130 C88 1.996 1_554 S
C109 C154 1.995 1_556 S
C172 C217 1.996 . S
C238 C193 1.995 . S
C301 C256 1.996 . S
C319 C277 1.995 . S
C382 C340 1.996 . S
C406 C361 1.995 . S
C469 C427 1.996 . S
C490 C445 1.995 . S
C508 C553 1.996 1_554 S
C529 C574 1.995 1_554 S
C595 C637 1.996 1_556 S
C655 C613 1.995 1_554 S
