# Generated by pormake.
# Topology wiv, (6)-cn, num edge types: 1
# Building blocks:
#     Node 0, Type 0, BuildingBlock: MIFKUJ_clean_sbu_0, # of connection points: 6
#     Node 1, Type 0, BuildingBlock: MIFKUJ_clean_sbu_0, # of connection points: 6
#     Node 2, Type 0, BuildingBlock: MIFKUJ_clean_sbu_0, # of connection points: 6
#     Node 3, Type 0, BuildingBlock: MIFKUJ_clean_sbu_0, # of connection points: 6
#     Node 4, Type 0, BuildingBlock: MIFKUJ_clean_sbu_0, # of connection points: 6
#     Node 5, Type 0, BuildingBlock: MIFKUJ_clean_sbu_0, # of connection points: 6
#     Node 6, Type 0, BuildingBlock: MIFKUJ_clean_sbu_0, # of connection points: 6
#     Node 7, Type 0, BuildingBlock: MIFKUJ_clean_sbu_0, # of connection points: 6
#     Node 8, Type 0, BuildingBlock: MIFKUJ_clean_sbu_0, # of connection points: 6
#     Node 9, Type 0, BuildingBlock: MIFKUJ_clean_sbu_0, # of connection points: 6
#     Node 10, Type 0, BuildingBlock: MIFKUJ_clean_sbu_0, # of connection points: 6
#     Node 11, Type 0, BuildingBlock: MIFKUJ_clean_sbu_0, # of connection points: 6
#     Node 12, Type 0, BuildingBlock: MIFKUJ_clean_sbu_0, # of connection points: 6
#     Node 13, Type 0, BuildingBlock: MIFKUJ_clean_sbu_0, # of connection points: 6
#     Node 14, Type 0, BuildingBlock: MIFKUJ_clean_sbu_0, # of connection points: 6
#     Node 15, Type 0, BuildingBlock: MIFKUJ_clean_sbu_0, # of connection points: 6
#     Edge 16, Type (0, 0), BuildingBlock: TEMPAE_clean_linker_10, # of connection points: 2
#     Edge 17, Type (0, 0), BuildingBlock: TEMPAE_clean_linker_10, # of connection points: 2
#     Edge 18, Type (0, 0), BuildingBlock: TEMPAE_clean_linker_10, # of connection points: 2
#     Edge 19, Type (0, 0), BuildingBlock: TEMPAE_clean_linker_10, # of connection points: 2
#     Edge 20, Type (0, 0), BuildingBlock: TEMPAE_clean_linker_10, # of connection points: 2
#     Edge 21, Type (0, 0), BuildingBlock: TEMPAE_clean_linker_10, # of connection points: 2
#     Edge 22, Type (0, 0), BuildingBlock: TEMPAE_clean_linker_10, # of connection points: 2
#     Edge 23, Type (0, 0), BuildingBlock: TEMPAE_clean_linker_10, # of connection points: 2
#     Edge 24, Type (0, 0), BuildingBlock: TEMPAE_clean_linker_10, # of connection points: 2
#     Edge 25, Type (0, 0), BuildingBlock: TEMPAE_clean_linker_10, # of connection points: 2
#     Edge 26, Type (0, 0), BuildingBlock: TEMPAE_clean_linker_10, # of connection points: 2
#     Edge 27, Type (0, 0), BuildingBlock: TEMPAE_clean_linker_10, # of connection points: 2
#     Edge 28, Type (0, 0), BuildingBlock: TEMPAE_clean_linker_10, # of connection points: 2
#     Edge 29, Type (0, 0), BuildingBlock: TEMPAE_clean_linker_10, # of connection points: 2
#     Edge 30, Type (0, 0), BuildingBlock: TEMPAE_clean_linker_10, # of connection points: 2
#     Edge 31, Type (0, 0), BuildingBlock: TEMPAE_clean_linker_10, # of connection points: 2
#     Edge 32, Type (0, 0), BuildingBlock: TEMPAE_clean_linker_10, # of connection points: 2
#     Edge 33, Type (0, 0), BuildingBlock: TEMPAE_clean_linker_10, # of connection points: 2
#     Edge 34, Type (0, 0), BuildingBlock: TEMPAE_clean_linker_10, # of connection points: 2
#     Edge 35, Type (0, 0), BuildingBlock: TEMPAE_clean_linker_10, # of connection points: 2
#     Edge 36, Type (0, 0), BuildingBlock: TEMPAE_clean_linker_10, # of connection points: 2
#     Edge 37, Type (0, 0), BuildingBlock: TEMPAE_clean_linker_10, # of connection points: 2
#     Edge 38, Type (0, 0), BuildingBlock: TEMPAE_clean_linker_10, # of connection points: 2
#     Edge 39, Type (0, 0), BuildingBlock: TEMPAE_clean_linker_10, # of connection points: 2
#     Edge 40, Type (0, 0), BuildingBlock: TEMPAE_clean_linker_10, # of connection points: 2
#     Edge 41, Type (0, 0), BuildingBlock: TEMPAE_clean_linker_10, # of connection points: 2
#     Edge 42, Type (0, 0), BuildingBlock: TEMPAE_clean_linker_10, # of connection points: 2
#     Edge 43, Type (0, 0), BuildingBlock: TEMPAE_clean_linker_10, # of connection points: 2
#     Edge 44, Type (0, 0), BuildingBlock: TEMPAE_clean_linker_10, # of connection points: 2
#     Edge 45, Type (0, 0), BuildingBlock: TEMPAE_clean_linker_10, # of connection points: 2
#     Edge 46, Type (0, 0), BuildingBlock: TEMPAE_clean_linker_10, # of connection points: 2
#     Edge 47, Type (0, 0), BuildingBlock: TEMPAE_clean_linker_10, # of connection points: 2
#     Edge 48, Type (0, 0), BuildingBlock: TEMPAE_clean_linker_10, # of connection points: 2
#     Edge 49, Type (0, 0), BuildingBlock: TEMPAE_clean_linker_10, # of connection points: 2
#     Edge 50, Type (0, 0), BuildingBlock: TEMPAE_clean_linker_10, # of connection points: 2
#     Edge 51, Type (0, 0), BuildingBlock: TEMPAE_clean_linker_10, # of connection points: 2
#     Edge 52, Type (0, 0), BuildingBlock: TEMPAE_clean_linker_10, # of connection points: 2
#     Edge 53, Type (0, 0), BuildingBlock: TEMPAE_clean_linker_10, # of connection points: 2
#     Edge 54, Type (0, 0), BuildingBlock: TEMPAE_clean_linker_10, # of connection points: 2
#     Edge 55, Type (0, 0), BuildingBlock: TEMPAE_clean_linker_10, # of connection points: 2
#     Edge 56, Type (0, 0), BuildingBlock: TEMPAE_clean_linker_10, # of connection points: 2
#     Edge 57, Type (0, 0), BuildingBlock: TEMPAE_clean_linker_10, # of connection points: 2
#     Edge 58, Type (0, 0), BuildingBlock: TEMPAE_clean_linker_10, # of connection points: 2
#     Edge 59, Type (0, 0), BuildingBlock: TEMPAE_clean_linker_10, # of connection points: 2
#     Edge 60, Type (0, 0), BuildingBlock: TEMPAE_clean_linker_10, # of connection points: 2
#     Edge 61, Type (0, 0), BuildingBlock: TEMPAE_clean_linker_10, # of connection points: 2
#     Edge 62, Type (0, 0), BuildingBlock: TEMPAE_clean_linker_10, # of connection points: 2
#     Edge 63, Type (0, 0), BuildingBlock: TEMPAE_clean_linker_10, # of connection points: 2
# Relax obj value: 0.041
# Max RMSD: 0.118
# Mean RMSD: 0.118
data_MOF--net-wiv--node1-MIFKUJ_clean_sbu_0--edge1-TEMPAE_clean_linker_10
_symmetry_space_group_name_H-M    P1
_symmetry_Int_Tables_number       1
_symmetry_cell_setting            triclinic
loop_
_symmetry_equiv_pos_as_xyz
'x, y, z'
_cell_length_a     59.771661
_cell_length_b     59.642762
_cell_length_c     18.514786
_cell_angle_alpha  90.038915
_cell_angle_beta   90.082688
_cell_angle_gamma 89.997283
loop_
_atom_site_label
_atom_site_type_symbol
_atom_site_fract_x
_atom_site_fract_y
_atom_site_fract_z
_atom_type_partial_charge
Zn0 Zn 0.36502 0.12242 0.03941 0.0
Zn1 Zn 0.36984 0.12808 0.21355 0.0
C2 C 0.32432 0.11031 0.97063 0.0
O3 O 0.33849 0.09575 0.94334 0.0
C4 C 0.41408 0.14677 0.21913 0.0
O5 O 0.40267 0.16334 0.24794 0.0
O6 O 0.37693 0.12203 0.93842 0.0
O7 O 0.37573 0.15238 0.07941 0.0
O8 O 0.35218 0.15324 0.1696 0.0
C9 C 0.37037 0.13865 0.901 0.0
O10 O 0.35943 0.15491 0.93335 0.0
O11 O 0.3312 0.1235 0.0202 0.0
C12 C 0.3545 0.12382 0.36263 0.0
O13 O 0.33829 0.11141 0.33614 0.0
O14 O 0.36866 0.13257 0.32019 0.0
O15 O 0.35881 0.09705 0.19552 0.0
O16 O 0.37275 0.09236 0.08613 0.0
O17 O 0.40342 0.12996 0.19412 0.0
C18 C 0.36226 0.16326 0.11904 0.0
C19 C 0.36548 0.08424 0.14523 0.0
Zn20 Zn 0.13483 0.63943 0.76211 0.0
Zn21 Zn 0.12832 0.6384 0.93148 0.0
C22 C 0.15039 0.59417 0.75824 0.0
O23 O 0.16671 0.60421 0.72345 0.0
C24 C 0.11181 0.67862 0.99007 0.0
O25 O 0.09638 0.66414 0.00945 0.0
O26 O 0.13791 0.64117 0.65345 0.0
O27 O 0.10522 0.65268 0.78479 0.0
O28 O 0.09981 0.63009 0.87701 0.0
C29 C 0.12667 0.62719 0.6162 0.0
O30 O 0.11335 0.61305 0.64946 0.0
O31 O 0.13474 0.60608 0.7846 0.0
C32 C 0.14229 0.6257 0.07443 0.0
O33 O 0.1621 0.63074 0.04846 0.0
O34 O 0.12538 0.62622 0.03272 0.0
O35 O 0.15937 0.62966 0.89574 0.0
O36 O 0.16121 0.65441 0.808 0.0
O37 O 0.12776 0.67188 0.95001 0.0
C38 C 0.09204 0.6418 0.82527 0.0
C39 C 0.17074 0.64312 0.8572 0.0
Zn40 Zn 0.63419 0.88117 0.10777 0.0
Zn41 Zn 0.63535 0.87472 0.27204 0.0
C42 C 0.67629 0.89728 0.07066 0.0
O43 O 0.66298 0.91379 0.05158 0.0
C44 C 0.58999 0.86155 0.28603 0.0
O45 O 0.59983 0.84554 0.323 0.0
O46 O 0.6269 0.88355 0.00147 0.0
O47 O 0.62264 0.85066 0.13802 0.0
O48 O 0.64717 0.84644 0.22513 0.0
C49 C 0.63644 0.86857 0.96335 0.0
O50 O 0.64771 0.85265 0.99633 0.0
O51 O 0.66795 0.88072 0.10453 0.0
C52 C 0.65 0.88289 0.4217 0.0
O53 O 0.66313 0.89825 0.39375 0.0
O54 O 0.63794 0.87096 0.38013 0.0
O55 O 0.64856 0.90481 0.24668 0.0
O56 O 0.62458 0.90991 0.1581 0.0
O57 O 0.60203 0.87631 0.2554 0.0
C58 C 0.63481 0.83788 0.17646 0.0
C59 C 0.63705 0.91799 0.20749 0.0
Zn60 Zn 0.87706 0.37474 0.76179 0.0
Zn61 Zn 0.8823 0.37676 0.92663 0.0
C62 C 0.8587 0.4188 0.75255 0.0
O63 O 0.8415 0.40724 0.72871 0.0
C64 C 0.89937 0.33459 0.96615 0.0
O65 O 0.91497 0.34817 0.99059 0.0
O66 O 0.87375 0.37025 0.65467 0.0
O67 O 0.90747 0.36341 0.79043 0.0
O68 O 0.91048 0.38804 0.8782 0.0
C69 C 0.89053 0.3721 0.61304 0.0
O70 O 0.91042 0.37571 0.64095 0.0
O71 O 0.87621 0.40842 0.77283 0.0
C72 C 0.87107 0.37305 0.07254 0.0
O73 O 0.85717 0.35875 0.04242 0.0
O74 O 0.88383 0.3847 0.0324 0.0
O75 O 0.85168 0.38673 0.89385 0.0
O76 O 0.84991 0.36121 0.80879 0.0
O77 O 0.88345 0.34283 0.92897 0.0
C78 C 0.91961 0.37578 0.83031 0.0
C79 C 0.84013 0.37353 0.85493 0.0
Zn80 Zn 0.35094 0.37398 0.18325 0.0
Zn81 Zn 0.3822 0.36712 0.99423 0.0
C82 C 0.30274 0.37048 0.22661 0.0
O83 O 0.29841 0.36179 0.16288 0.0
C84 C 0.42643 0.35208 0.99398 0.0
O85 O 0.41626 0.33618 0.95733 0.0
O86 O 0.37351 0.37485 0.26397 0.0
O87 O 0.35119 0.34331 0.13603 0.0
O88 O 0.36747 0.33889 0.02897 0.0
C89 C 0.37096 0.3583 0.3065 0.0
O90 O 0.35773 0.34187 0.28622 0.0
O91 O 0.32261 0.37634 0.24201 0.0
C92 C 0.3682 0.37221 0.84392 0.0
O93 O 0.34974 0.38054 0.87151 0.0
O94 O 0.38349 0.36524 0.88592 0.0
O95 O 0.36823 0.3968 0.0159 0.0
O96 O 0.35163 0.402 0.12182 0.0
O97 O 0.41468 0.36751 0.02233 0.0
C98 C 0.35667 0.33113 0.08246 0.0
C99 C 0.35782 0.40918 0.06033 0.0
Zn100 Zn 0.37443 0.61811 0.98477 0.0
Zn101 Zn 0.38089 0.64917 0.79122 0.0
C102 C 0.35467 0.57492 0.96376 0.0
O103 O 0.33637 0.5864 0.97692 0.0
C104 C 0.39451 0.68234 0.68723 0.0
O105 O 0.40662 0.66544 0.66386 0.0
O106 O 0.37262 0.61945 0.09361 0.0
O107 O 0.40455 0.63081 0.95988 0.0
O108 O 0.40866 0.64714 0.85281 0.0
C109 C 0.37935 0.60325 0.13272 0.0
O110 O 0.38787 0.58537 0.10173 0.0
O111 O 0.37324 0.58526 0.95961 0.0
C112 C 0.36574 0.62563 0.66726 0.0
O113 O 0.34711 0.63582 0.68544 0.0
O114 O 0.38264 0.62727 0.70867 0.0
O115 O 0.35048 0.64775 0.83822 0.0
O116 O 0.34654 0.63294 0.94768 0.0
O117 O 0.38229 0.67961 0.74277 0.0
C118 C 0.41655 0.64074 0.91321 0.0
C119 C 0.33852 0.64274 0.89258 0.0
Zn120 Zn 0.62553 0.62678 0.1561 0.0
Zn121 Zn 0.62806 0.63358 0.99234 0.0
C122 C 0.66719 0.60957 0.19669 0.0
O123 O 0.65366 0.59311 0.21453 0.0
C124 C 0.58318 0.6502 0.98822 0.0
O125 O 0.59367 0.66832 0.96636 0.0
O126 O 0.61739 0.62448 0.26168 0.0
O127 O 0.61574 0.65801 0.12667 0.0
O128 O 0.64083 0.66113 0.041 0.0
C129 C 0.62811 0.63827 0.30123 0.0
O130 O 0.64109 0.65319 0.27016 0.0
O131 O 0.65922 0.62613 0.16187 0.0
C132 C 0.63324 0.62071 0.84255 0.0
O133 O 0.63368 0.60041 0.86987 0.0
O134 O 0.63173 0.63749 0.88467 0.0
O135 O 0.64058 0.60326 0.01896 0.0
O136 O 0.61548 0.59839 0.10402 0.0
O137 O 0.59454 0.63297 0.00533 0.0
C138 C 0.629 0.67016 0.09002 0.0
C139 C 0.62848 0.59017 0.0564 0.0
Zn140 Zn 0.63431 0.37598 0.98841 0.0
Zn141 Zn 0.62857 0.3731 0.81892 0.0
C142 C 0.64536 0.42197 0.00349 0.0
O143 O 0.6611 0.41236 0.04223 0.0
C144 C 0.61232 0.33178 0.76625 0.0
O145 O 0.59665 0.34591 0.74604 0.0
O146 O 0.63685 0.37393 0.09585 0.0
O147 O 0.60637 0.35966 0.96214 0.0
O148 O 0.59992 0.38214 0.87081 0.0
C149 C 0.61968 0.37646 0.13535 0.0
O150 O 0.60001 0.37939 0.10509 0.0
O151 O 0.63159 0.40952 0.96948 0.0
C152 C 0.63953 0.37399 0.67405 0.0
O153 O 0.65446 0.36013 0.70093 0.0
O154 O 0.62601 0.38378 0.71657 0.0
O155 O 0.65958 0.38353 0.84998 0.0
O156 O 0.66273 0.3636 0.94911 0.0
O157 O 0.62822 0.33907 0.80578 0.0
C158 C 0.59262 0.36978 0.92155 0.0
C159 C 0.67173 0.3734 0.8959 0.0
Zn160 Zn 0.8523 0.62047 0.54407 0.0
Zn161 Zn 0.88238 0.62843 0.73814 0.0
C162 C 0.80473 0.62602 0.50638 0.0
O163 O 0.80296 0.637 0.56765 0.0
C164 C 0.92561 0.64687 0.73875 0.0
O165 O 0.91406 0.66317 0.76859 0.0
O166 O 0.87476 0.61917 0.46331 0.0
O167 O 0.85185 0.65117 0.5897 0.0
O168 O 0.8677 0.65593 0.69717 0.0
C169 C 0.87677 0.63634 0.42314 0.0
O170 O 0.86714 0.65517 0.44293 0.0
O171 O 0.82348 0.61766 0.48861 0.0
C172 C 0.89565 0.62231 0.88667 0.0
O173 O 0.91233 0.61158 0.85609 0.0
O174 O 0.88041 0.63082 0.84713 0.0
O175 O 0.87027 0.59798 0.71386 0.0
O176 O 0.85433 0.59282 0.60657 0.0
O177 O 0.91523 0.62971 0.71558 0.0
C178 C 0.85706 0.66355 0.64302 0.0
C179 C 0.86068 0.58546 0.66771 0.0
Zn180 Zn 0.62607 0.13028 0.25209 0.0
Zn181 Zn 0.61792 0.14114 0.43763 0.0
C182 C 0.64571 0.08655 0.25947 0.0
O183 O 0.6613 0.09715 0.22299 0.0
C184 C 0.60881 0.17907 0.52727 0.0
O185 O 0.59381 0.16473 0.55077 0.0
O186 O 0.63025 0.1297 0.14423 0.0
O187 O 0.59442 0.1401 0.26408 0.0
O188 O 0.58812 0.13973 0.38191 0.0
C189 C 0.62024 0.11438 0.1089 0.0
O190 O 0.60784 0.09981 0.14389 0.0
O191 O 0.62916 0.09774 0.2834 0.0
C192 C 0.63102 0.11976 0.56897 0.0
O193 O 0.65097 0.12481 0.54419 0.0
O194 O 0.61396 0.12364 0.5298 0.0
O195 O 0.64826 0.13113 0.3965 0.0
O196 O 0.65046 0.1497 0.29436 0.0
O197 O 0.62132 0.17332 0.47468 0.0
C198 C 0.58102 0.14105 0.31707 0.0
C199 C 0.65972 0.14223 0.35109 0.0
Zn200 Zn 0.1318 0.38811 0.61114 0.0
Zn201 Zn 0.13294 0.38312 0.77703 0.0
C202 C 0.17463 0.40076 0.56567 0.0
O203 O 0.16275 0.4185 0.54824 0.0
C204 C 0.08795 0.3694 0.7917 0.0
O205 O 0.09841 0.35345 0.8272 0.0
O206 O 0.12355 0.38997 0.50561 0.0
O207 O 0.11932 0.35848 0.64639 0.0
O208 O 0.14493 0.35505 0.73054 0.0
C209 C 0.13225 0.37453 0.46734 0.0
O210 O 0.14297 0.35817 0.50002 0.0
O211 O 0.1654 0.38546 0.60309 0.0
C212 C 0.14727 0.39131 0.92716 0.0
O213 O 0.16004 0.40715 0.90023 0.0
O214 O 0.13562 0.37924 0.88486 0.0
O215 O 0.14661 0.41281 0.7513 0.0
O216 O 0.12406 0.41787 0.65876 0.0
O217 O 0.09949 0.3846 0.76118 0.0
C218 C 0.13186 0.34606 0.68478 0.0
C219 C 0.13615 0.42594 0.70911 0.0
Zn220 Zn 0.37927 0.87234 0.24462 0.0
Zn221 Zn 0.38453 0.87595 0.40864 0.0
C222 C 0.3627 0.91641 0.22128 0.0
O223 O 0.34676 0.9046 0.19051 0.0
C224 C 0.40192 0.834 0.44741 0.0
O225 O 0.41749 0.84779 0.47074 0.0
O226 O 0.37598 0.86689 0.13761 0.0
O227 O 0.40963 0.86131 0.27453 0.0
O228 O 0.41281 0.88676 0.3599 0.0
C229 C 0.39272 0.86889 0.09581 0.0
O230 O 0.41254 0.873 0.12358 0.0
O231 O 0.3787 0.90615 0.25231 0.0
C232 C 0.37333 0.87193 0.55479 0.0
O233 O 0.35945 0.85769 0.52425 0.0
O234 O 0.38599 0.88379 0.51489 0.0
O235 O 0.35409 0.88618 0.37444 0.0
O236 O 0.35216 0.85927 0.29384 0.0
O237 O 0.38566 0.84202 0.41124 0.0
C238 C 0.42185 0.87389 0.31347 0.0
C239 C 0.34254 0.87215 0.33869 0.0
Zn240 Zn 0.85165 0.87287 0.68584 0.0
Zn241 Zn 0.88715 0.8667 0.50175 0.0
C242 C 0.82041 0.88764 0.79194 0.0
O243 O 0.83789 0.89967 0.81069 0.0
C244 C 0.93155 0.85068 0.51534 0.0
O245 O 0.92196 0.83314 0.48546 0.0
O246 O 0.87321 0.87261 0.77008 0.0
O247 O 0.85202 0.84268 0.63679 0.0
O248 O 0.87207 0.83856 0.53665 0.0
C249 C 0.87034 0.85597 0.81207 0.0
O250 O 0.85739 0.83949 0.79022 0.0
O251 O 0.82169 0.87507 0.73648 0.0
C252 C 0.87245 0.87052 0.35233 0.0
O253 O 0.85402 0.87821 0.38198 0.0
O254 O 0.8885 0.86439 0.3929 0.0
O255 O 0.87272 0.89642 0.52249 0.0
O256 O 0.85394 0.9009 0.6251 0.0
O257 O 0.91946 0.86739 0.53248 0.0
C258 C 0.85932 0.83064 0.58528 0.0
C259 C 0.86139 0.90849 0.5656 0.0
Zn260 Zn 0.864 0.11883 0.4979 0.0
Zn261 Zn 0.87228 0.14974 0.30629 0.0
C262 C 0.84707 0.07412 0.47343 0.0
O263 O 0.82768 0.08396 0.4839 0.0
C264 C 0.8871 0.18319 0.20593 0.0
O265 O 0.89987 0.16643 0.18546 0.0
O266 O 0.86147 0.11999 0.60659 0.0
O267 O 0.89428 0.13208 0.47659 0.0
O268 O 0.90002 0.14802 0.36989 0.0
C269 C 0.86935 0.10431 0.64569 0.0
O270 O 0.87915 0.08711 0.61469 0.0
O271 O 0.86474 0.08598 0.47245 0.0
C272 C 0.85801 0.12679 0.18073 0.0
O273 O 0.83934 0.1369 0.19898 0.0
O274 O 0.87485 0.1283 0.22248 0.0
O275 O 0.84104 0.14735 0.34927 0.0
O276 O 0.83562 0.13259 0.45813 0.0
O277 O 0.8738 0.18035 0.2588 0.0
C278 C 0.90704 0.14186 0.43171 0.0
C279 C 0.82824 0.14202 0.40137 0.0
Zn280 Zn 0.12755 0.13325 0.69866 0.0
Zn281 Zn 0.11838 0.14111 0.52578 0.0
C282 C 0.16893 0.11575 0.75066 0.0
O283 O 0.15474 0.1003 0.77207 0.0
C284 C 0.07279 0.15554 0.53541 0.0
O285 O 0.08231 0.17442 0.51572 0.0
O286 O 0.1165 0.13018 0.79991 0.0
O287 O 0.11825 0.1652 0.67306 0.0
O288 O 0.13213 0.16924 0.56387 0.0
C289 C 0.12637 0.14304 0.84441 0.0
O290 O 0.14131 0.15737 0.82044 0.0
O291 O 0.1616 0.13176 0.71161 0.0
C292 C 0.11328 0.12729 0.38118 0.0
O293 O 0.1086 0.10824 0.41335 0.0
O294 O 0.1184 0.14432 0.41889 0.0
O295 O 0.13489 0.11249 0.54408 0.0
O296 O 0.1172 0.10517 0.64509 0.0
O297 O 0.08515 0.13863 0.54876 0.0
C298 C 0.12585 0.1777 0.62325 0.0
C299 C 0.12681 0.09836 0.58791 0.0
Zn300 Zn 0.13821 0.88701 0.50711 0.0
Zn301 Zn 0.13114 0.86651 0.3203 0.0
C302 C 0.14775 0.9325 0.50291 0.0
O303 O 0.16556 0.92371 0.53352 0.0
C304 C 0.11367 0.8305 0.23359 0.0
O305 O 0.1014 0.84702 0.2084 0.0
O306 O 0.14083 0.88891 0.61404 0.0
O307 O 0.11172 0.86679 0.49024 0.0
O308 O 0.10314 0.87439 0.37664 0.0
C309 C 0.1236 0.89224 0.65254 0.0
O310 O 0.10383 0.89353 0.62178 0.0
O311 O 0.13265 0.91933 0.47927 0.0
C312 C 0.14592 0.87668 0.18416 0.0
O313 O 0.15951 0.86059 0.20487 0.0
O314 O 0.1317 0.88425 0.22888 0.0
O315 O 0.16243 0.86814 0.36048 0.0
O316 O 0.16837 0.87686 0.47484 0.0
O317 O 0.12715 0.83441 0.28541 0.0
C318 C 0.0973 0.86912 0.44042 0.0
C319 C 0.17562 0.87109 0.41336 0.0
C320 C 0.34459 0.95228 0.18283 0.0
C321 C 0.36282 0.94118 0.21456 0.0
C322 C 0.34489 0.97557 0.17198 0.0
C323 C 0.36392 0.98809 0.19311 0.0
C324 C 0.38227 0.97706 0.22604 0.0
C325 C 0.38148 0.95374 0.23656 0.0
C326 C 0.32491 0.98674 0.13728 0.0
C327 C 0.40286 0.98984 0.2493 0.0
C328 C 0.37306 0.04482 0.10379 0.0
C329 C 0.36509 0.0596 0.15685 0.0
C330 C 0.37292 0.02151 0.11505 0.0
C331 C 0.36456 0.01276 0.18082 0.0
C332 C 0.3565 0.02757 0.23452 0.0
C333 C 0.35688 0.05076 0.22195 0.0
C334 C 0.3817 0.00623 0.05653 0.0
C335 C 0.34737 0.01891 0.30525 0.0
H336 H 0.33007 0.94274 0.16581 0.0
H337 H 0.39566 0.9453 0.26094 0.0
H338 H 0.31822 0.99996 0.17349 0.0
H339 H 0.33004 0.99505 0.08633 0.0
H340 H 0.31127 0.97467 0.12498 0.0
H341 H 0.41561 0.97882 0.27472 0.0
H342 H 0.4105 0.99824 0.20191 0.0
H343 H 0.39821 0.00316 0.28837 0.0
H344 H 0.37946 0.05145 0.0534 0.0
H345 H 0.35068 0.06198 0.26343 0.0
H346 H 0.36829 0.99464 0.03851 0.0
H347 H 0.39555 0.99579 0.07802 0.0
H348 H 0.3879 0.01568 0.00889 0.0
H349 H 0.33292 0.00767 0.29497 0.0
H350 H 0.34188 0.03265 0.34166 0.0
H351 H 0.36031 0.00885 0.33351 0.0
C352 C 0.96277 0.62856 0.71798 0.0
C353 C 0.95034 0.64693 0.7431 0.0
C354 C 0.98599 0.62744 0.72872 0.0
C355 C 0.99701 0.64508 0.76556 0.0
C356 C 0.98467 0.66393 0.7893 0.0
C357 C 0.9615 0.66465 0.77762 0.0
C358 C 0.99867 0.60715 0.7021 0.0
C359 C 0.99585 0.6831 0.82865 0.0
C360 C 0.05237 0.63314 0.85906 0.0
C361 C 0.06771 0.64231 0.81009 0.0
C362 C 0.02928 0.6338 0.84502 0.0
C363 C 0.02142 0.64373 0.7803 0.0
C364 C 0.03683 0.65279 0.73034 0.0
C365 C 0.05977 0.65203 0.74592 0.0
C366 C 0.01329 0.62406 0.89972 0.0
C367 C 0.02909 0.6634 0.66059 0.0
H368 H 0.95428 0.61479 0.69126 0.0
H369 H 0.95205 0.67891 0.79724 0.0
H370 H 0.0126 0.61243 0.66644 0.0
H371 H 0.00617 0.59814 0.7486 0.0
H372 H 0.98778 0.59531 0.67186 0.0
H373 H 0.98396 0.69681 0.84191 0.0
H374 H 0.00345 0.67691 0.87959 0.0
H375 H 0.00957 0.6901 0.7953 0.0
H376 H 0.05837 0.62564 0.90875 0.0
H377 H 0.07151 0.65902 0.70747 0.0
H378 H 0.00287 0.61087 0.87412 0.0
H379 H 0.00176 0.63731 0.91934 0.0
H380 H 0.02211 0.61668 0.94691 0.0
H381 H 0.01899 0.65124 0.62899 0.0
H382 H 0.04327 0.66917 0.62665 0.0
H383 H 0.01816 0.67798 0.67242 0.0
C384 C 0.64976 0.95137 0.27931 0.0
C385 C 0.63829 0.94262 0.21931 0.0
C386 C 0.65119 0.97461 0.29112 0.0
C387 C 0.64106 0.98955 0.24149 0.0
C388 C 0.62939 0.98085 0.18096 0.0
C389 C 0.62809 0.95752 0.17075 0.0
C390 C 0.66366 0.98319 0.35651 0.0
C391 C 0.61849 0.9962 0.12646 0.0
C392 C 0.62801 0.04991 0.29469 0.0
C393 C 0.64564 0.06164 0.26191 0.0
C394 C 0.6266 0.0264 0.29013 0.0
C395 C 0.64314 0.01431 0.25159 0.0
C396 C 0.66133 0.02599 0.22035 0.0
C397 C 0.6624 0.04945 0.22609 0.0
C398 C 0.60705 0.01455 0.32479 0.0
C399 C 0.67932 0.01378 0.17878 0.0
H400 H 0.65764 0.94004 0.31736 0.0
H401 H 0.61923 0.95096 0.12418 0.0
H402 H 0.67809 0.99357 0.33914 0.0
H403 H 0.65259 0.9941 0.3893 0.0
H404 H 0.66997 0.96938 0.39125 0.0
H405 H 0.60979 0.9868 0.08289 0.0
H406 H 0.60618 0.00725 0.15372 0.0
H407 H 0.63131 0.00719 0.10153 0.0
H408 H 0.61499 0.05913 0.32253 0.0
H409 H 0.6761 0.0583 0.20055 0.0
H410 H 0.61312 1.00103 0.36099 0.0
H411 H 0.5966 0.00653 0.28247 0.0
H412 H 0.59637 0.02616 0.35656 0.0
H413 H 0.68685 1.00044 0.21274 0.0
H414 H 0.69284 0.02518 0.16032 0.0
H415 H 0.67186 0.00549 0.13078 0.0
C416 C 0.95806 0.38753 0.86927 0.0
C417 C 0.94425 0.37568 0.82124 0.0
C418 C 0.98144 0.3871 0.86205 0.0
C419 C 0.99126 0.37464 0.80518 0.0
C420 C 0.97741 0.36296 0.75581 0.0
C421 C 0.95411 0.36353 0.76462 0.0
C422 C 0.99567 0.39966 0.91606 0.0
C423 C 0.98724 0.34957 0.69428 0.0
C424 C 0.05168 0.38738 0.75523 0.0
C425 C 0.06317 0.3703 0.79182 0.0
C426 C 0.02823 0.38889 0.75839 0.0
C427 C 0.01604 0.373 0.79931 0.0
C428 C 0.02753 0.35556 0.83551 0.0
C429 C 0.05092 0.35439 0.83117 0.0
C430 C 0.01651 0.40762 0.71864 0.0
C431 C 0.01514 0.3383 0.87976 0.0
H432 H 0.95061 0.39694 0.9132 0.0
H433 H 0.94361 0.35434 0.72714 0.0
H434 H 0.00649 0.3877 0.94587 0.0
H435 H 0.00685 0.41158 0.88769 0.0
H436 H 0.98544 0.40913 0.95577 0.0
H437 H 0.97415 0.34241 0.65839 0.0
H438 H 0.99846 0.3603 0.66146 0.0
H439 H 0.99752 0.33563 0.71602 0.0
H440 H 0.06101 0.39972 0.72464 0.0
H441 H 0.05963 0.34113 0.85964 0.0
H442 H 0.00741 0.4184 0.75763 0.0
H443 H 0.00392 0.4006 0.68081 0.0
H444 H 0.02835 0.41825 0.68759 0.0
H445 H 0.0058 0.3467 0.9239 0.0
H446 H 0.02655 0.32565 0.90396 0.0
H447 H 0.0027 0.32946 0.84555 0.0
C448 C 0.35025 0.44907 0.09508 0.0
C449 C 0.35425 0.43304 0.04119 0.0
C450 C 0.34918 0.47199 0.07827 0.0
C451 C 0.35181 0.47901 0.00568 0.0
C452 C 0.35486 0.46283 0.95064 0.0
C453 C 0.35621 0.44006 0.9691 0.0
C454 C 0.3461 0.48877 0.13858 0.0
C455 C 0.35733 0.46962 0.87249 0.0
C456 C 0.3337 0.53862 0.9631 0.0
C457 C 0.35416 0.55012 0.96593 0.0
C458 C 0.33273 0.51532 0.9735 0.0
C459 C 0.35265 0.50333 0.98815 0.0
C460 C 0.37343 0.51474 0.98894 0.0
C461 C 0.37394 0.53797 0.97726 0.0
C462 C 0.31033 0.50365 0.97088 0.0
C463 C 0.39503 0.50257 0.00492 0.0
H464 H 0.34878 0.44379 0.15089 0.0
H465 H 0.35909 0.42776 0.927 0.0
H466 H 0.36112 0.49964 0.14254 0.0
H467 H 0.3316 0.49981 0.12695 0.0
H468 H 0.34339 0.48055 0.19169 0.0
H469 H 0.3577 0.45492 0.83563 0.0
H470 H 0.34335 0.48076 0.85622 0.0
H471 H 0.37307 0.47922 0.86538 0.0
H472 H 0.31835 0.5479 0.95403 0.0
H473 H 0.38981 0.54674 0.97991 0.0
H474 H 0.30612 0.49705 0.02519 0.0
H475 H 0.31102 0.48913 0.93347 0.0
H476 H 0.29667 0.51504 0.95319 0.0
H477 H 0.39439 0.49535 0.06011 0.0
H478 H 0.40984 0.51376 0.00128 0.0
H479 H 0.3973 0.48844 0.96666 0.0
C480 C 0.54597 0.66924 0.9858 0.0
C481 C 0.55847 0.64935 0.98664 0.0
C482 C 0.52259 0.66876 0.97865 0.0
C483 C 0.51153 0.64791 0.97059 0.0
C484 C 0.52404 0.62776 0.97287 0.0
C485 C 0.54735 0.62871 0.98165 0.0
C486 C 0.50977 0.69058 0.97817 0.0
C487 C 0.51291 0.60521 0.9634 0.0
C488 C 0.44879 0.64287 -0.00051 0.0
C489 C 0.44069 0.64387 0.92837 0.0
C490 C 0.47177 0.64473 0.01427 0.0
C491 C 0.48703 0.64719 0.95644 0.0
C492 C 0.47894 0.64842 0.88461 0.0
C493 C 0.45586 0.64697 0.87151 0.0
C494 C 0.47972 0.64383 0.09166 0.0
C495 C 0.49472 0.65071 0.82139 0.0
H496 H 0.55449 0.68523 0.99023 0.0
H497 H 0.55696 0.61329 0.98188 0.0
H498 H 0.50207 0.69321 0.9243 0.0
H499 H 0.49598 0.68998 0.01817 0.0
H500 H 0.52063 0.7052 0.99067 0.0
H501 H 0.52492 0.59109 0.96857 0.0
H502 H 0.49949 0.60301 0.0041 0.0
H503 H 0.50492 0.60431 0.90932 0.0
H504 H 0.43715 0.64063 0.04376 0.0
H505 H 0.44974 0.64762 0.8164 0.0
H506 H 0.49006 0.6588 0.10412 0.0
H507 H 0.49046 0.62888 0.09981 0.0
H508 H 0.46562 0.64308 0.13062 0.0
H509 H 0.50501 0.66607 0.82744 0.0
H510 H 0.48574 0.65153 0.76889 0.0
H511 H 0.50637 0.63622 0.82014 0.0
C512 C 0.61776 0.55064 0.08888 0.0
C513 C 0.62986 0.5655 0.04502 0.0
C514 C 0.61946 0.52728 0.07951 0.0
C515 C 0.63349 0.51851 0.02468 0.0
C516 C 0.64542 0.53342 0.97943 0.0
C517 C 0.64357 0.55666 0.99037 0.0
C518 C 0.60658 0.51197 0.12929 0.0
C519 C 0.66049 0.52481 0.92017 0.0
C520 C 0.65687 0.4597 0.04955 0.0
C521 C 0.64274 0.44677 0.00546 0.0
C522 C 0.65402 0.48298 0.0561 0.0
C523 C 0.63668 0.49377 0.01727 0.0
C524 C 0.62255 0.48091 0.97173 0.0
C525 C 0.62569 0.45755 0.9665 0.0
C526 C 0.66945 0.496 0.10538 0.0
C527 C 0.60399 0.49182 0.929 0.0
H528 H 0.60715 0.55724 0.13128 0.0
H529 H 0.65305 0.56791 0.95621 0.0
H530 H 0.59599 0.50033 0.09734 0.0
H531 H 0.61842 0.50158 0.16111 0.0
H532 H 0.59572 0.52139 0.16733 0.0
H533 H 0.66753 0.53858 0.8868 0.0
H534 H 0.67454 0.51519 0.94412 0.0
H535 H 0.65112 0.5132 0.88437 0.0
H536 H 0.67007 0.45159 0.08007 0.0
H537 H 0.61467 0.44773 0.93237 0.0
H538 H 0.65958 0.50453 0.14801 0.0
H539 H 0.67828 0.5092 0.07433 0.0
H540 H 0.68214 0.48512 0.13178 0.0
H541 H 0.59198 0.50001 0.96626 0.0
H542 H 0.59473 0.47959 0.89493 0.0
H543 H 0.61095 0.5051 0.89364 0.0
C544 C 0.4622 0.37197 0.02435 0.0
C545 C 0.45115 0.35376 0.9922 0.0
C546 C 0.48537 0.37492 0.016 0.0
C547 C 0.49772 0.35932 0.97439 0.0
C548 C 0.48678 0.34057 0.94358 0.0
C549 C 0.46365 0.33799 0.95304 0.0
C550 C 0.49655 0.395 0.05025 0.0
C551 C 0.49939 0.32354 0.899 0.0
C552 C 0.5526 0.37736 0.88869 0.0
C553 C 0.56831 0.36752 0.93519 0.0
C554 C 0.52954 0.37503 0.90127 0.0
C555 C 0.52206 0.3627 0.96198 0.0
C556 C 0.53783 0.35295 0.00953 0.0
C557 C 0.56073 0.35538 0.99536 0.0
C558 C 0.51318 0.38555 0.84914 0.0
C559 C 0.53052 0.33977 0.075 0.0
H560 H 0.45268 0.38423 0.0547 0.0
H561 H 0.45529 0.32385 0.92802 0.0
H562 H 0.51068 0.3895 0.08489 0.0
H563 H 0.5036 0.40597 0.00761 0.0
H564 H 0.48477 0.40503 0.08356 0.0
H565 H 0.4885 0.3096 0.88029 0.0
H566 H 0.5068 0.33182 0.85102 0.0
H567 H 0.51338 0.31638 0.93094 0.0
H568 H 0.55829 0.38672 0.84206 0.0
H569 H 0.57272 0.34769 0.03168 0.0
H570 H 0.50184 0.39714 0.87839 0.0
H571 H 0.5026 0.37235 0.82424 0.0
H572 H 0.52169 0.395 0.80541 0.0
H573 H 0.51932 0.35011 0.10921 0.0
H574 H 0.54491 0.33409 0.10835 0.0
H575 H 0.52084 0.32482 0.05772 0.0
C576 C 0.87824 0.45577 0.74574 0.0
C577 C 0.85825 0.44356 0.74971 0.0
C578 C 0.87799 0.47909 0.73558 0.0
C579 C 0.85725 0.4905 0.73087 0.0
C580 C 0.83703 0.47835 0.73799 0.0
C581 C 0.83777 0.45498 0.74652 0.0
C582 C 0.89992 0.4914 0.72719 0.0
C583 C 0.8146 0.48998 0.735 0.0
C584 C 0.85898 0.55372 0.75595 0.0
C585 C 0.85819 0.5613 0.68424 0.0
C586 C 0.85804 0.53074 0.77213 0.0
C587 C 0.85676 0.51496 0.71517 0.0
C588 C 0.85566 0.52251 0.64273 0.0
C589 C 0.85615 0.5456 0.62819 0.0
C590 C 0.85873 0.52335 0.85009 0.0
C591 C 0.85462 0.50618 0.58043 0.0
H592 H 0.89411 0.44699 0.74779 0.0
H593 H 0.82227 0.44561 0.75019 0.0
H594 H 0.90077 0.4991 0.67271 0.0
H595 H 0.90109 0.5052 0.76721 0.0
H596 H 0.91459 0.48018 0.73423 0.0
H597 H 0.80055 0.4784 0.74724 0.0
H598 H 0.81419 0.5041 0.77402 0.0
H599 H 0.81192 0.49715 0.6804 0.0
H600 H 0.8604 0.56577 0.79958 0.0
H601 H 0.85568 0.55132 0.57264 0.0
H602 H 0.87419 0.51356 0.86032 0.0
H603 H 0.84434 0.5122 0.86191 0.0
H604 H 0.85833 0.53776 0.88813 0.0
H605 H 0.86969 0.49531 0.58091 0.0
H606 H 0.85364 0.51478 0.5273 0.0
H607 H 0.83984 0.49508 0.58611 0.0
C608 C 0.54066 0.13992 0.3567 0.0
C609 C 0.55657 0.14298 0.30186 0.0
C610 C 0.51756 0.14063 0.34155 0.0
C611 C 0.5101 0.1447 0.26998 0.0
C612 C 0.52606 0.14814 0.21469 0.0
C613 C 0.54901 0.14714 0.23116 0.0
C614 C 0.5011 0.13675 0.40204 0.0
C615 C 0.51891 0.1528 0.13789 0.0
C616 C 0.45101 0.12651 0.21743 0.0
C617 C 0.43892 0.14653 0.22534 0.0
C618 C 0.47416 0.12569 0.23138 0.0
C619 C 0.48562 0.14541 0.25293 0.0
C620 C 0.47362 0.16581 0.2587 0.0
C621 C 0.45045 0.1661 0.24526 0.0
C622 C 0.48628 0.10357 0.22487 0.0
C623 C 0.48519 0.18731 0.28029 0.0
H624 H 0.54624 0.13661 0.41138 0.0
H625 H 0.56107 0.14961 0.18824 0.0
H626 H 0.48991 0.15149 0.40766 0.0
H627 H 0.49039 0.12208 0.38925 0.0
H628 H 0.50954 0.13374 0.45465 0.0
H629 H 0.53338 0.1555 0.10133 0.0
H630 H 0.50888 0.13856 0.11689 0.0
H631 H 0.50807 0.1679 0.13617 0.0
H632 H 0.44225 0.11127 0.20256 0.0
H633 H 0.4413 0.18168 0.25131 0.0
H634 H 0.4935 0.09885 0.27797 0.0
H635 H 0.50038 0.10511 0.1863 0.0
H636 H 0.47509 0.08984 0.20634 0.0
H637 H 0.49223 0.18561 0.33548 0.0
H638 H 0.47368 0.20194 0.27951 0.0
H639 H 0.49936 0.19074 0.24329 0.0
C640 C 0.16534 0.55651 0.72328 0.0
C641 C 0.14895 0.56932 0.75853 0.0
C642 C 0.16334 0.53313 0.71731 0.0
C643 C 0.14454 0.5222 0.74756 0.0
C644 C 0.12822 0.53494 0.78487 0.0
C645 C 0.1306 0.55835 0.78983 0.0
C646 C 0.18113 0.52018 0.67715 0.0
C647 C 0.10801 0.52388 0.81828 0.0
C648 C 0.12852 0.46542 0.669 0.0
C649 C 0.13797 0.45058 0.7193 0.0
C650 C 0.13035 0.48876 0.67791 0.0
C651 C 0.14181 0.4975 0.73877 0.0
C652 C 0.15118 0.48263 0.7901 0.0
C653 C 0.14921 0.45939 0.77965 0.0
C654 C 0.12024 0.50407 0.62174 0.0
C655 C 0.16344 0.49127 0.85584 0.0
H656 H 0.17959 0.5648 0.69891 0.0
H657 H 0.11784 0.56809 0.81716 0.0
H658 H 0.18819 0.50689 0.71234 0.0
H659 H 0.17362 0.51175 0.62949 0.0
H660 H 0.19501 0.5311 0.6584 0.0
H661 H 0.09731 0.53601 0.84793 0.0
H662 H 0.0978 0.51577 0.77554 0.0
H663 H 0.11336 0.51052 0.85621 0.0
H664 H 0.11983 0.45881 0.62218 0.0
H665 H 0.1565 0.4481 0.81902 0.0
H666 H 0.13352 0.51452 0.59694 0.0
H667 H 0.1081 0.51565 0.64747 0.0
H668 H 0.11152 0.49465 0.57823 0.0
H669 H 0.17824 0.50116 0.83887 0.0
H670 H 0.16915 0.47751 0.89185 0.0
H671 H 0.15244 0.50265 0.88719 0.0
C672 C 0.55229 0.84802 0.32461 0.0
C673 C 0.56526 0.86321 0.28478 0.0
C674 C 0.52894 0.85003 0.32756 0.0
C675 C 0.51824 0.86759 0.28946 0.0
C676 C 0.53117 0.88276 0.2481 0.0
C677 C 0.55455 0.88042 0.24634 0.0
C678 C 0.51572 0.83352 0.37231 0.0
C679 C 0.52032 0.9016 0.20639 0.0
C680 C 0.45629 0.86014 0.25089 0.0
C681 C 0.44651 0.87301 0.30595 0.0
C682 C 0.47961 0.85862 0.24395 0.0
C683 C 0.49352 0.8701 0.29359 0.0
C684 C 0.48379 0.88333 0.34879 0.0
C685 C 0.46039 0.88467 0.3542 0.0
C686 C 0.48936 0.84444 0.18415 0.0
C687 C 0.49809 0.89573 0.40295 0.0
H688 H 0.56041 0.83469 0.35453 0.0
H689 H 0.56444 0.89221 0.21536 0.0
H690 H 0.50642 0.84254 0.41524 0.0
H691 H 0.50318 0.82486 0.33799 0.0
H692 H 0.52656 0.82068 0.39812 0.0
H693 H 0.53267 0.91163 0.17543 0.0
H694 H 0.50773 0.89475 0.1682 0.0
H695 H 0.51133 0.91292 0.24405 0.0
H696 H 0.44573 0.8511 0.21322 0.0
H697 H 0.45299 0.89463 0.39694 0.0
H698 H 0.49904 0.83034 0.20764 0.0
H699 H 0.50113 0.85454 0.15124 0.0
H700 H 0.47626 0.83743 0.14796 0.0
H701 H 0.50828 0.8836 0.43433 0.0
H702 H 0.48795 0.90583 0.44126 0.0
H703 H 0.50989 0.90705 0.37458 0.0
C704 C 0.85165 0.94789 0.60027 0.0
C705 C 0.85745 0.93231 0.5467 0.0
C706 C 0.84927 0.97074 0.58382 0.0
C707 C 0.85239 0.97814 0.51184 0.0
C708 C 0.85752 0.9624 0.45709 0.0
C709 C 0.86018 0.93971 0.47526 0.0
C710 C 0.84404 0.98706 0.64389 0.0
C711 C 0.86058 0.96958 0.37954 0.0
C712 C 0.82947 0.03605 0.4686 0.0
C713 C 0.84873 0.04935 0.47473 0.0
C714 C 0.83052 0.01269 0.47785 0.0
C715 C 0.85126 0.00249 0.49477 0.0
C716 C 0.87086 0.01575 0.49886 0.0
C717 C 0.86939 0.03899 0.48821 0.0
C718 C 0.80933 0.99904 0.47167 0.0
C719 C 0.89327 0.00554 0.51747 0.0
H720 H 0.84958 0.94234 0.65559 0.0
H721 H 0.86445 0.92774 0.4334 0.0
H722 H 0.8579 0.99932 0.64945 0.0
H723 H 0.82868 0.99667 0.63081 0.0
H724 H 0.84161 0.97855 0.69665 0.0
H725 H 0.86302 0.95508 0.34267 0.0
H726 H 0.84581 0.97928 0.36103 0.0
H727 H 0.87535 0.98076 0.37515 0.0
H728 H 0.81347 0.04393 0.45783 0.0
H729 H 0.88435 0.04914 0.49337 0.0
H730 H 0.80499 0.99191 0.52516 0.0
H731 H 0.81187 0.98476 0.43412 0.0
H732 H 0.79496 0.0092 0.45218 0.0
H733 H 0.8926 0.99819 0.57247 0.0
H734 H 0.90704 0.01803 0.51582 0.0
H735 H 0.89727 0.99174 0.47943 0.0
C736 C 0.03795 0.13236 0.52172 0.0
C737 C 0.04804 0.15338 0.53149 0.0
C738 C 0.01482 0.13048 0.50834 0.0
C739 C 0.00138 0.15005 0.50595 0.0
C740 C 0.01135 0.17122 0.51891 0.0
C741 C 0.03455 0.17264 0.53083 0.0
C742 C 0.00494 0.10761 0.49399 0.0
C743 C 0.99761 0.19247 0.51836 0.0
C744 C 0.94712 0.14887 0.3972 0.0
C745 C 0.93106 0.14496 0.45097 0.0
C746 C 0.97002 0.15045 0.41434 0.0
C747 C 0.97707 0.14849 0.48721 0.0
C748 C 0.9609 0.14503 0.5419 0.0
C749 C 0.93816 0.14311 0.52311 0.0
C750 C 0.98671 0.15387 0.35421 0.0
C751 C 0.96762 0.14328 0.62034 0.0
H752 H 0.04826 0.11741 0.5215 0.0
H753 H 0.0422 0.18895 0.53862 0.0
H754 H 0.9908 0.10439 0.53129 0.0
H755 H 0.99816 0.10699 0.43819 0.0
H756 H 0.01745 0.09397 0.50035 0.0
H757 H 0.00756 0.20738 0.53455 0.0
H758 H 0.99079 0.19538 0.46342 0.0
H759 H 0.98316 0.19082 0.55555 0.0
H760 H 0.94187 0.15017 0.34129 0.0
H761 H 0.9259 0.1402 0.56517 0.0
H762 H 0.99893 0.13987 0.35376 0.0
H763 H 0.99627 0.16956 0.36342 0.0
H764 H 0.97858 0.15483 0.30031 0.0
H765 H 0.97898 0.12877 0.62808 0.0
H766 H 0.95297 0.14123 0.65659 0.0
H767 H 0.97695 0.15853 0.63687 0.0
C768 C 0.16106 0.9709 0.53505 0.0
C769 C 0.14432 0.95713 0.50558 0.0
C770 C 0.15754 0.99391 0.54551 0.0
C771 C 0.13679 0.00355 0.52573 0.0
C772 C 0.12003 0.98993 0.49389 0.0
C773 C 0.12398 0.96685 0.48426 0.0
C774 C 0.17589 0.00783 0.57946 0.0
C775 C 0.09776 0.99965 0.47151 0.0
C776 C 0.12171 0.0579 0.62185 0.0
C777 C 0.12841 0.07405 0.57126 0.0
C778 C 0.12381 0.03487 0.607 0.0
C779 C 0.13268 0.02781 0.53977 0.0
C780 C 0.13897 0.04402 0.48786 0.0
C781 C 0.13689 0.06689 0.50436 0.0
C782 C 0.11705 0.0181 0.66397 0.0
C783 C 0.14838 0.03721 0.41542 0.0
H784 H 0.17687 0.96361 0.55159 0.0
H785 H 0.11094 0.95635 0.46158 0.0
H786 H 0.18034 0.02201 0.54352 0.0
H787 H 0.16992 0.01509 0.63114 0.0
H788 H 0.19124 0.99788 0.59038 0.0
H789 H 0.0869 0.98708 0.44439 0.0
H790 H 0.08886 0.00617 0.5197 0.0
H791 H 0.10033 0.01399 0.43431 0.0
H792 H 0.11515 0.06324 0.67363 0.0
H793 H 0.14209 0.07919 0.46473 0.0
H794 H 0.13193 0.00843 0.68174 0.0
H795 H 0.10489 0.00593 0.64124 0.0
H796 H 0.10945 0.02625 0.712 0.0
H797 H 0.16476 0.0288 0.42316 0.0
H798 H 0.15078 0.05179 0.3789 0.0
H799 H 0.13709 0.025 0.38859 0.0
C800 C 0.0664 0.85911 0.52633 0.0
C801 C 0.07324 0.86576 0.457 0.0
C802 C 0.04366 0.85617 0.5428 0.0
C803 C 0.02734 0.85993 0.48869 0.0
C804 C 0.03411 0.86659 0.41865 0.0
C805 C 0.05694 0.8694 0.40365 0.0
C806 C 0.03709 0.84898 0.61803 0.0
C807 C 0.01721 0.87081 0.35945 0.0
C808 C 0.9695 0.83386 0.49789 0.0
C809 C 0.95629 0.85225 0.51832 0.0
C810 C 0.99279 0.83587 0.49101 0.0
C811 C 0.00314 0.8568 0.50463 0.0
C812 C 0.99005 0.87514 0.52856 0.0
C813 C 0.96679 0.87263 0.53531 0.0
C814 C 0.00619 0.81585 0.46604 0.0
C815 C 1.00048 0.89772 0.54374 0.0
H816 H 0.07883 0.85617 0.56793 0.0
H817 H 0.06199 0.87454 0.34996 0.0
H818 H 0.02552 0.86146 0.64207 0.0
H819 H 0.02802 0.83276 0.61567 0.0
H820 H 0.0518 0.84707 0.65428 0.0
H821 H 0.0252 0.87605 0.30802 0.0
H822 H 0.00731 0.85539 0.34929 0.0
H823 H 0.00532 0.88408 0.37648 0.0
H824 H 0.96157 0.818 0.48509 0.0
H825 H 0.95674 0.88693 0.55125 0.0
H826 H 0.02062 0.81297 0.50264 0.0
H827 H 0.01303 0.81915 0.41138 0.0
H828 H 0.99597 0.80032 0.46377 0.0
H829 H 0.01486 0.8959 0.58122 0.0
H830 H 0.98834 0.90972 0.56755 0.0
H831 H 0.00701 0.90495 0.49275 0.0
C832 C 0.37809 0.2009 0.0911 0.0
C833 C 0.35969 0.18768 0.11026 0.0
C834 C 0.37609 0.22429 0.08565 0.0
C835 C 0.355 0.23453 0.09711 0.0
C836 C 0.3362 0.22111 0.11414 0.0
C837 C 0.33887 0.19784 0.12185 0.0
C838 C 0.39669 0.23806 0.06954 0.0
C839 C 0.31331 0.23132 0.12438 0.0
C840 C 0.35526 0.29571 0.15346 0.0
C841 C 0.35321 0.30664 0.08678 0.0
C842 C 0.3555 0.27224 0.15773 0.0
C843 C 0.3529 0.25938 0.09396 0.0
C844 C 0.34958 0.27033 0.02693 0.0
C845 C 0.35019 0.29387 0.02394 0.0
C846 C 0.35971 0.26125 0.22997 0.0
C847 C 0.346 0.2572 0.95815 0.0
H848 H 0.39422 0.19301 0.08264 0.0
H849 H 0.32459 0.18752 0.13595 0.0
H850 H 0.39418 0.24786 0.01931 0.0
H851 H 0.39965 0.25024 0.11391 0.0
H852 H 0.41189 0.22753 0.06314 0.0
H853 H 0.30015 0.2184 0.13228 0.0
H854 H 0.3134 0.24258 0.17206 0.0
H855 H 0.30883 0.24168 0.07672 0.0
H856 H 0.35795 0.3055 0.20199 0.0
H857 H 0.34855 0.30229 0.97233 0.0
H858 H 0.37562 0.25166 0.22792 0.0
H859 H 0.34619 0.24914 0.2425 0.0
H860 H 0.3608 0.27363 0.27468 0.0
H861 H 0.36159 0.24818 0.94363 0.0
H862 H 0.34119 0.26817 0.9122 0.0
H863 H 0.33275 0.2444 0.966 0.0
C864 C 0.30299 0.64402 0.82223 0.0
C865 C 0.31407 0.64615 0.88862 0.0
C866 C 0.27957 0.64439 0.81829 0.0
C867 C 0.26695 0.64768 0.88208 0.0
C868 C 0.27809 0.65087 0.94888 0.0
C869 C 0.30154 0.64968 0.95155 0.0
C870 C 0.26833 0.64032 0.74634 0.0
C871 C 0.26522 0.65511 0.01765 0.0
C872 C 0.20637 0.66478 0.85407 0.0
C873 C 0.1952 0.64448 0.86607 0.0
C874 C 0.22969 0.66627 0.8616 0.0
C875 C 0.24212 0.64681 0.87906 0.0
C876 C 0.23086 0.62623 0.89105 0.0
C877 C 0.20746 0.62541 0.88558 0.0
C878 C 0.24103 0.68863 0.85061 0.0
C879 C 0.24357 0.60497 0.90773 0.0
H880 H 0.31258 0.641 0.77365 0.0
H881 H 0.31009 0.6514 0.00294 0.0
H882 H 0.2579 0.62495 0.7494 0.0
H883 H 0.25701 0.65445 0.7329 0.0
H884 H 0.28057 0.63827 0.70172 0.0
H885 H 0.27641 0.65926 0.06372 0.0
H886 H 0.25322 0.6691 0.00978 0.0
H887 H 0.25533 0.64002 0.03198 0.0
H888 H 0.19681 0.67958 0.83968 0.0
H889 H 0.1988 0.60968 0.89436 0.0
H890 H 0.2522 0.68782 0.80291 0.0
H891 H 0.25162 0.69272 0.89809 0.0
H892 H 0.22882 0.70244 0.8423 0.0
H893 H 0.25541 0.60121 0.86321 0.0
H894 H 0.23231 0.59033 0.91499 0.0
H895 H 0.25362 0.60715 0.95762 0.0
C896 C 0.64794 0.79882 0.20535 0.0
C897 C 0.63424 0.81321 0.16477 0.0
C898 C 0.64754 0.77549 0.19417 0.0
C899 C 0.63305 0.76627 0.14129 0.0
C900 C 0.61916 0.78069 0.10028 0.0
C901 C 0.61995 0.80393 0.11238 0.0
C902 C 0.66265 0.76068 0.23888 0.0
C903 C 0.60341 0.77156 0.04358 0.0
C904 C 0.64517 0.70823 0.06449 0.0
C905 C 0.63017 0.69473 0.10328 0.0
C906 C 0.64643 0.73147 0.07677 0.0
C907 C 0.6323 0.74153 0.12892 0.0
C908 C 0.61717 0.728 0.16837 0.0
C909 C 0.61631 0.7048 0.1552 0.0
C910 C 0.66283 0.74529 0.03369 0.0
C911 C 0.60175 0.73806 0.22422 0.0
H912 H 0.65905 0.80579 0.24586 0.0
H913 H 0.60929 0.81485 0.08065 0.0
H914 H 0.65249 0.74842 0.26971 0.0
H915 H 0.67391 0.75096 0.20303 0.0
H916 H 0.67303 0.77044 0.27753 0.0
H917 H 0.59368 0.785 0.01637 0.0
H918 H 0.61298 0.7622 0.00206 0.0
H919 H 0.59152 0.75958 0.0686 0.0
H920 H 0.65599 0.70065 0.02442 0.0
H921 H 0.60468 0.69456 0.18557 0.0
H922 H 0.67436 0.75431 0.07069 0.0
H923 H 0.65373 0.75815 0.00187 0.0
H924 H 0.67292 0.7349 0.99606 0.0
H925 H 0.61166 0.74686 0.26626 0.0
H926 H 0.59112 0.72522 0.25086 0.0
H927 H 0.5907 0.75071 0.19852 0.0
C928 C 0.80445 0.38944 0.9034 0.0
C929 C 0.81541 0.37357 0.86008 0.0
C930 C 0.78103 0.38984 0.90835 0.0
C931 C 0.76828 0.37388 0.86945 0.0
C932 C 0.77922 0.35783 0.82559 0.0
C933 C 0.80266 0.35791 0.82125 0.0
C934 C 0.76994 0.40729 0.95536 0.0
C935 C 0.76616 0.34047 0.78366 0.0
C936 C 0.70971 0.36108 0.93668 0.0
C937 C 0.69642 0.3735 0.88865 0.0
C938 C 0.7331 0.36098 0.93077 0.0
C939 C 0.74348 0.37372 0.87577 0.0
C940 C 0.73021 0.38632 0.82713 0.0
C941 C 0.70681 0.386 0.83399 0.0
C942 C 0.7467 0.34724 0.98342 0.0
C943 C 0.74072 0.4002 0.76805 0.0
H944 H 0.81416 0.40168 0.93332 0.0
H945 H 0.81099 0.34559 0.7877 0.0
H946 H 0.75805 0.41739 0.92275 0.0
H947 H 0.76014 0.39899 0.99856 0.0
H948 H 0.78224 0.4188 0.98093 0.0
H949 H 0.77718 0.32929 0.75152 0.0
H950 H 0.75618 0.33004 0.82131 0.0
H951 H 0.75422 0.34883 0.7465 0.0
H952 H 0.70184 0.35132 0.97897 0.0
H953 H 0.69669 0.39566 0.79668 0.0
H954 H 0.75829 0.35829 0.01388 0.0
H955 H 0.75709 0.3349 0.9537 0.0
H956 H 0.73604 0.33807 0.02265 0.0
H957 H 0.75221 0.4128 0.79198 0.0
H958 H 0.72805 0.40909 0.73473 0.0
H959 H 0.75087 0.38932 0.73218 0.0
C960 C 0.83918 0.69684 0.58344 0.0
C961 C 0.85289 0.68803 0.63815 0.0
C962 C 0.83725 0.7201 0.57321 0.0
C963 C 0.84958 0.73486 0.61803 0.0
C964 C 0.86277 0.7261 0.67497 0.0
C965 C 0.86413 0.70282 0.68467 0.0
C966 C 0.82266 0.72884 0.51285 0.0
C967 C 0.87634 0.74126 0.72362 0.0
C968 C 0.86851 0.79144 0.54751 0.0
C969 C 0.85482 0.8062 0.5866 0.0
C970 C 0.86646 0.76815 0.55548 0.0
C971 C 0.85005 0.75935 0.60274 0.0
C972 C 0.83536 0.77409 0.6393 0.0
C973 C 0.83805 0.79736 0.63132 0.0
C974 C 0.88262 0.753 0.5161 0.0
C975 C 0.81737 0.76533 0.68895 0.0
H976 H 0.8303 0.68555 0.54752 0.0
H977 H 0.8748 0.69622 0.727 0.0
H978 H 0.81144 0.74226 0.5331 0.0
H979 H 0.83331 0.73633 0.47017 0.0
H980 H 0.8123 0.71541 0.4881 0.0
H981 H 0.88495 0.73186 0.76736 0.0
H982 H 0.88914 0.75021 0.69124 0.0
H983 H 0.86542 0.75415 0.74853 0.0
H984 H 0.88156 0.79809 0.51302 0.0
H985 H 0.82728 0.80863 0.66131 0.0
H986 H 0.87337 0.74009 0.48493 0.0
H987 H 0.89331 0.74407 0.55583 0.0
H988 H 0.89362 0.76241 0.47848 0.0
H989 H 0.80757 0.75197 0.66171 0.0
H990 H 0.80573 0.77877 0.7067 0.0
H991 H 0.82518 0.75777 0.73756 0.0
C992 C 0.79339 0.13841 0.32779 0.0
C993 C 0.80372 0.14468 0.39275 0.0
C994 C 0.76997 0.1386 0.32052 0.0
C995 C 0.75653 0.14596 0.37891 0.0
C996 C 0.76696 0.15309 0.44383 0.0
C997 C 0.79041 0.15192 0.45049 0.0
C998 C 0.75961 0.1301 0.25129 0.0
C999 C 0.75334 0.16174 0.50653 0.0
C1000 C 0.6963 0.16209 0.33375 0.0
C1001 C 0.6844 0.14339 0.35876 0.0
C1002 C 0.7197 0.16344 0.34164 0.0
C1003 C 0.73157 0.14529 0.37293 0.0
C1004 C 0.71961 0.12623 0.39733 0.0
C1005 C 0.69616 0.12569 0.3911 0.0
C1006 C 0.73169 0.18434 0.31695 0.0
C1007 C 0.7316 0.1062 0.42884 0.0
H1008 H 0.80359 0.13236 0.2836 0.0
H1009 H 0.79837 0.15676 0.50079 0.0
H1010 H 0.74884 0.11539 0.26301 0.0
H1011 H 0.74875 0.14318 0.22711 0.0
H1012 H 0.77239 0.1251 0.21085 0.0
H1013 H 0.76404 0.16846 0.55064 0.0
H1014 H 0.74186 0.17519 0.48802 0.0
H1015 H 0.74286 0.14805 0.52873 0.0
H1016 H 0.68723 0.17587 0.30925 0.0
H1017 H 0.68705 0.11111 0.40995 0.0
H1018 H 0.74351 0.18017 0.27284 0.0
H1019 H 0.7417 0.19139 0.36211 0.0
H1020 H 0.71994 0.19741 0.29724 0.0
H1021 H 0.74399 0.09969 0.38948 0.0
H1022 H 0.71992 0.09243 0.44327 0.0
H1023 H 0.74096 0.11122 0.47802 0.0
C1024 C 0.14699 0.30767 0.71037 0.0
C1025 C 0.13082 0.32132 0.67737 0.0
C1026 C 0.14636 0.28424 0.70282 0.0
C1027 C 0.129 0.27419 0.66197 0.0
C1028 C 0.11248 0.28785 0.62922 0.0
C1029 C 0.11367 0.31125 0.63695 0.0
C1030 C 0.1644 0.27026 0.73793 0.0
C1031 C 0.09358 0.27776 0.58585 0.0
C1032 C 0.13804 0.21596 0.58368 0.0
C1033 C 0.12674 0.20237 0.63358 0.0
C1034 C 0.13905 0.23932 0.59262 0.0
C1035 C 0.1283 0.2494 0.65249 0.0
C1036 C 0.11681 0.2358 0.70297 0.0
C1037 C 0.11628 0.21245 0.69315 0.0
C1038 C 0.15166 0.25322 0.538 0.0
C1039 C 0.10494 0.24595 0.76709 0.0
H1040 H 0.16034 0.31531 0.74149 0.0
H1041 H 0.10104 0.32165 0.61155 0.0
H1042 H 0.1568 0.25804 0.77578 0.0
H1043 H 0.17347 0.26049 0.69618 0.0
H1044 H 0.17669 0.28064 0.76813 0.0
H1045 H 0.08175 0.29066 0.56546 0.0
H1046 H 0.10041 0.26837 0.53907 0.0
H1047 H 0.08416 0.26562 0.6195 0.0
H1048 H 0.14626 0.20834 0.53766 0.0
H1049 H 0.10745 0.2021 0.7319 0.0
H1050 H 0.165 0.26298 0.56541 0.0
H1051 H 0.14018 0.26543 0.51212 0.0
H1052 H 0.15943 0.24278 0.49513 0.0
H1053 H 0.11702 0.25541 0.80095 0.0
H1054 H 0.09667 0.23308 0.80122 0.0
H1055 H 0.09209 0.25805 0.74831 0.0
C1056 C 0.30649 0.85097 0.33666 0.0
C1057 C 0.31808 0.87105 0.34889 0.0
C1058 C 0.2833 0.84961 0.34792 0.0
C1059 C 0.2714 0.86896 0.37 0.0
C1060 C 0.28301 0.88936 0.38143 0.0
C1061 C 0.30627 0.89007 0.37166 0.0
C1062 C 0.27157 0.82745 0.33683 0.0
C1063 C 0.27085 0.91049 0.40329 0.0
C1064 C 0.20902 0.87228 0.3327 0.0
C1065 C 0.20001 0.86896 0.40178 0.0
C1066 C 0.23222 0.87212 0.32146 0.0
C1067 C 0.24675 0.86803 0.38045 0.0
C1068 C 0.23772 0.86391 0.44988 0.0
C1069 C 0.21445 0.86472 0.45992 0.0
C1070 C 0.2412 0.87707 0.24694 0.0
C1071 C 0.25267 0.85897 0.51374 0.0
H1072 H 0.31564 0.83619 0.31966 0.0
H1073 H 0.31519 0.90566 0.38063 0.0
H1074 H 0.26271 0.82254 0.38701 0.0
H1075 H 0.25878 0.82905 0.2937 0.0
H1076 H 0.28336 0.81383 0.32176 0.0
H1077 H 0.28227 0.9251 0.40821 0.0
H1078 H 0.25772 0.91451 0.36288 0.0
H1079 H 0.26234 0.90795 0.45586 0.0
H1080 H 0.19795 0.8758 0.28769 0.0
H1081 H 0.20755 0.86202 0.51333 0.0
H1082 H 0.25215 0.86319 0.2285 0.0
H1083 H 0.25159 0.89248 0.24859 0.0
H1084 H 0.22765 0.87946 0.20656 0.0
H1085 H 0.26414 0.84491 0.50079 0.0
H1086 H 0.24297 0.85456 0.56288 0.0
H1087 H 0.26319 0.87381 0.52602 0.0
C1088 C 0.19898 0.0988 0.82757 0.0
C1089 C 0.19224 0.11568 0.77932 0.0
C1090 C 0.22037 0.09891 0.85909 0.0
C1091 C 0.23562 0.11625 0.84194 0.0
C1092 C 0.22905 0.13329 0.79288 0.0
C1093 C 0.20743 0.13283 0.76229 0.0
C1094 C 0.22664 0.08039 0.91096 0.0
C1095 C 0.24486 0.15198 0.77272 0.0
C1096 C 0.28464 0.12485 0.97205 0.0
C1097 C 0.30161 0.11244 0.93829 0.0
C1098 C 0.26318 0.12661 0.94077 0.0
C1099 C 0.25867 0.11597 0.87371 0.0
C1100 C 0.27594 0.10394 0.83865 0.0
C1101 C 0.29706 0.10221 0.87148 0.0
C1102 C 0.2452 0.1395 0.98008 0.0
C1103 C 0.27205 0.09258 0.76677 0.0
H1104 H 0.18742 0.0855 0.84151 0.0
H1105 H 0.20238 0.14601 0.72542 0.0
H1106 H 0.24124 0.07098 0.88981 0.0
H1107 H 0.23162 0.08765 0.96378 0.0
H1108 H 0.2127 0.0684 0.91997 0.0
H1109 H 0.2372 0.16404 0.73423 0.0
H1110 H 0.25011 0.16124 0.8219 0.0
H1111 H 0.26021 0.14492 0.7479 0.0
H1112 H 0.28803 0.13291 0.02339 0.0
H1113 H 0.31012 0.09287 0.84423 0.0
H1114 H 0.2313 0.12804 0.99464 0.0
H1115 H 0.23813 0.15265 0.94437 0.0
H1116 H 0.25157 0.14757 0.03015 0.0
H1117 H 0.25942 0.0791 0.77299 0.0
H1118 H 0.2876 0.08512 0.74437 0.0
H1119 H 0.26531 0.10477 0.72706 0.0
C1120 C 0.09526 0.70758 0.07171 0.0
C1121 C 0.11167 0.70159 0.02105 0.0
C1122 C 0.09556 0.72861 0.10575 0.0
C1123 C 0.1126 0.74417 0.08856 0.0
C1124 C 0.12901 0.73842 0.03654 0.0
C1125 C 0.12839 0.71717 0.00352 0.0
C1126 C 0.07778 0.73403 0.16098 0.0
C1127 C 0.14736 0.75464 0.0164 0.0
C1128 C 0.10132 0.80542 0.13266 0.0
C1129 C 0.11317 0.80825 0.19757 0.0
C1130 C 0.10126 0.78478 0.09615 0.0
C1131 C 0.11321 0.76641 0.1254 0.0
C1132 C 0.12518 0.76912 0.19095 0.0
C1133 C 0.12509 0.79002 0.22611 0.0
C1134 C 0.08838 0.78262 0.02626 0.0
C1135 C 0.138 0.74988 0.22413 0.0
H1136 H 0.0823 0.69568 0.08588 0.0
H1137 H 0.14115 0.71268 0.96456 0.0
H1138 H 0.0857 0.73754 0.21403 0.0
H1139 H 0.06855 0.74936 0.14472 0.0
H1140 H 0.06557 0.72015 0.16784 0.0
H1141 H 0.15852 0.74784 0.97375 0.0
H1142 H 0.13999 0.77061 0.99696 0.0
H1143 H 0.15761 0.75863 0.06472 0.0
H1144 H 0.09221 0.81943 0.10977 0.0
H1145 H 0.13433 0.79206 0.27609 0.0
H1146 H 0.07512 0.76973 0.03202 0.0
H1147 H 0.09969 0.77697 0.98241 0.0
H1148 H 0.08045 0.79866 0.00971 0.0
H1149 H 0.12643 0.73583 0.23618 0.0
H1150 H 0.14668 0.75479 0.27483 0.0
H1151 H 0.15062 0.74351 0.18533 0.0
C1152 C 0.7073 0.91401 0.99862 0.0
C1153 C 0.69928 0.89625 0.04098 0.0
C1154 C 0.72763 0.91229 0.96142 0.0
C1155 C 0.74039 0.89239 0.96702 0.0
C1156 C 0.73289 0.87475 0.01207 0.0
C1157 C 0.71237 0.87686 0.04847 0.0
C1158 C 0.73507 0.93152 0.91409 0.0
C1159 C 0.74616 0.85335 0.01984 0.0
C1160 C 0.77957 0.88006 0.8104 0.0
C1161 C 0.8 0.88811 0.83709 0.0
C1162 C 0.76008 0.88098 0.85266 0.0
C1163 C 0.76117 0.88989 0.92358 0.0
C1164 C 0.78188 0.8975 0.9514 0.0
C1165 C 0.80102 0.89661 0.90772 0.0
C1166 C 0.73823 0.8729 0.82085 0.0
C1167 C 0.78379 0.90681 0.02705 0.0
H1168 H 0.69735 0.92909 0.9926 0.0
H1169 H 0.70628 0.86305 0.08096 0.0
H1170 H 0.75217 0.93696 0.92949 0.0
H1171 H 0.73575 0.92594 0.85694 0.0
H1172 H 0.72367 0.94618 0.9178 0.0
H1173 H 0.73888 0.84191 0.0609 0.0
H1174 H 0.74667 0.84444 0.96724 0.0
H1175 H 0.7637 0.85717 0.03525 0.0
H1176 H 0.7787 0.87344 0.75593 0.0
H1177 H 0.81685 0.90253 0.92914 0.0
H1178 H 0.72624 0.88707 0.81732 0.0
H1179 H 0.73061 0.86004 0.85639 0.0
H1180 H 0.74036 0.86563 0.76603 0.0
H1181 H 0.7725 0.92144 0.03346 0.0
H1182 H 0.80112 0.91214 0.04041 0.0
H1183 H 0.77845 0.89397 0.06675 0.0
C1184 C 0.91426 0.30352 0.04278 0.0
C1185 C 0.89832 0.31117 0.99279 0.0
C1186 C 0.91226 0.28239 0.0753 0.0
C1187 C 0.89397 0.26842 0.05708 0.0
C1188 C 0.87818 0.27571 0.00503 0.0
C1189 C 0.8805 0.29704 0.97361 0.0
C1190 C 0.92944 0.27526 0.13065 0.0
C1191 C 0.85855 0.2612 0.98378 0.0
C1192 C 0.90009 0.20657 0.10202 0.0
C1193 C 0.8882 0.20492 0.16713 0.0
C1194 C 0.90166 0.227 0.0648 0.0
C1195 C 0.89126 0.24634 0.09362 0.0
C1196 C 0.87903 0.24477 0.15894 0.0
C1197 C 0.87755 0.22404 0.19475 0.0
C1198 C 0.91473 0.22795 0.99511 0.0
C1199 C 0.86786 0.26509 0.19168 0.0
H1200 H 0.92806 0.31431 0.05816 0.0
H1201 H 0.86809 0.30282 0.93518 0.0
H1202 H 0.92121 0.27269 0.18369 0.0
H1203 H 0.93707 0.25905 0.11469 0.0
H1204 H 0.94298 0.28785 0.13742 0.0
H1205 H 0.84834 0.26886 0.94013 0.0
H1206 H 0.86451 0.24454 0.96529 0.0
H1207 H 0.84767 0.25835 0.03138 0.0
H1208 H 0.90822 0.19184 0.07993 0.0
H1209 H 0.86833 0.22292 0.24498 0.0
H1210 H 0.92927 0.23934 0.00149 0.0
H1211 H 0.90412 0.23487 0.95126 0.0
H1212 H 0.92095 0.2112 0.97821 0.0
H1213 H 0.88063 0.27795 0.20497 0.0
H1214 H 0.85845 0.26095 0.24162 0.0
H1215 H 0.85614 0.27271 0.15219 0.0
C1216 C 0.29017 0.38028 0.35165 0.0
C1217 C 0.28475 0.3737 0.28087 0.0
C1218 C 0.27346 0.38407 0.40341 0.0
C1219 C 0.25072 0.38133 0.38399 0.0
C1220 C 0.24512 0.37434 0.31303 0.0
C1221 C 0.26222 0.37052 0.26239 0.0
C1222 C 0.28013 0.39134 0.47858 0.0
C1223 C 0.22105 0.37124 0.2903 0.0
C1224 C 0.20558 0.37495 0.52736 0.0
C1225 C 0.19608 0.39648 0.52798 0.0
C1226 C 0.22379 0.36989 0.48218 0.0
C1227 C 0.23271 0.38675 0.43674 0.0
C1228 C 0.22381 0.40873 0.43954 0.0
C1229 C 0.20564 0.41332 0.4851 0.0
C1230 C 0.23286 0.34627 0.48091 0.0
C1231 C 0.23288 0.42721 0.39213 0.0
H1232 H 0.30755 0.38258 0.36676 0.0
H1233 H 0.25788 0.36539 0.20798 0.0
H1234 H 0.2728 0.408 0.49079 0.0
H1235 H 0.27342 0.37937 0.51898 0.0
H1236 H 0.29857 0.39238 0.48532 0.0
H1237 H 0.21946 0.36627 0.23269 0.0
H1238 H 0.21305 0.35818 0.32419 0.0
H1239 H 0.21159 0.38702 0.29884 0.0
H1240 H 0.19823 0.36179 0.55995 0.0
H1241 H 0.19845 0.43 0.48526 0.0
H1242 H 0.25129 0.34641 0.488 0.0
H1243 H 0.2293 0.3385 0.42765 0.0
H1244 H 0.22536 0.33561 0.52368 0.0
H1245 H 0.25123 0.42882 0.3996 0.0
H1246 H 0.22498 0.44368 0.40376 0.0
H1247 H 0.22987 0.423 0.33454 0.0
C1248 C 0.38464 0.72313 0.67782 0.0
C1249 C 0.39498 0.70409 0.64847 0.0
C1250 C 0.38539 0.74387 0.64188 0.0
C1251 C 0.3966 0.74554 0.57471 0.0
C1252 C 0.40673 0.72629 0.54425 0.0
C1253 C 0.40587 0.70584 0.58158 0.0
C1254 C 0.37454 0.76408 0.67637 0.0
C1255 C 0.41873 0.72737 0.47262 0.0
C1256 C 0.38357 0.79625 0.45709 0.0
C1257 C 0.40149 0.81054 0.47379 0.0
C1258 C 0.38194 0.77485 0.48848 0.0
C1259 C 0.39857 0.76765 0.53792 0.0
C1260 C 0.41696 0.78179 0.55352 0.0
C1261 C 0.41823 0.803 0.52112 0.0
C1262 C 0.36217 0.76016 0.47012 0.0
C1263 C 0.43501 0.77478 0.60604 0.0
H1264 H 0.37618 0.72193 0.72942 0.0
H1265 H 0.41377 0.69118 0.55818 0.0
H1266 H 0.38738 0.77705 0.68777 0.0
H1267 H 0.36219 0.77162 0.63875 0.0
H1268 H 0.3659 0.75985 0.72768 0.0
H1269 H 0.42485 0.71068 0.45473 0.0
H1270 H 0.40742 0.7342 0.43047 0.0
H1271 H 0.43325 0.7389 0.47678 0.0
H1272 H 0.37053 0.80195 0.42075 0.0
H1273 H 0.43214 0.8139 0.53451 0.0
H1274 H 0.35201 0.7572 0.5193 0.0
H1275 H 0.36801 0.74356 0.45068 0.0
H1276 H 0.35127 0.76775 0.42809 0.0
H1277 H 0.42763 0.77212 0.66031 0.0
H1278 H 0.44855 0.78746 0.61072 0.0
H1279 H 0.44251 0.75863 0.58882 0.0
C1280 C 0.69737 0.59331 0.27376 0.0
C1281 C 0.68961 0.61099 0.2305 0.0
C1282 C 0.71683 0.59556 0.31554 0.0
C1283 C 0.7289 0.61596 0.31383 0.0
C1284 C 0.72174 0.63352 0.26782 0.0
C1285 C 0.70217 0.63083 0.22665 0.0
C1286 C 0.72394 0.57642 0.36377 0.0
C1287 C 0.73428 0.65547 0.26422 0.0
C1288 C 0.76383 0.63019 0.4793 0.0
C1289 C 0.78531 0.62375 0.45706 0.0
C1290 C 0.74535 0.62791 0.43294 0.0
C1291 C 0.74846 0.61917 0.36249 0.0
C1292 C 0.77013 0.61293 0.3394 0.0
C1293 C 0.78827 0.6152 0.38703 0.0
C1294 C 0.72243 0.63462 0.45962 0.0
C1295 C 0.77414 0.60368 0.26456 0.0
H1296 H 0.68782 0.5779 0.27699 0.0
H1297 H 0.69627 0.6446 0.19355 0.0
H1298 H 0.74166 0.57196 0.35334 0.0
H1299 H 0.72273 0.58164 0.42118 0.0
H1300 H 0.71346 0.56123 0.35581 0.0
H1301 H 0.7275 0.6668 0.22192 0.0
H1302 H 0.73321 0.66414 0.31715 0.0
H1303 H 0.75225 0.65241 0.25311 0.0
H1304 H 0.7614 0.6368 0.53326 0.0
H1305 H 0.80483 0.61033 0.36913 0.0
H1306 H 0.71113 0.61986 0.45927 0.0
H1307 H 0.715 0.64732 0.42298 0.0
H1308 H 0.7229 0.64163 0.51521 0.0
H1309 H 0.76471 0.58782 0.2574 0.0
H1310 H 0.79213 0.60036 0.25406 0.0
H1311 H 0.76789 0.61565 0.22334 0.0
C1312 C 0.60052 0.2049 0.63021 0.0
C1313 C 0.61124 0.20116 0.56383 0.0
C1314 C 0.602 0.22566 0.66569 0.0
C1315 C 0.61435 0.24332 0.63392 0.0
C1316 C 0.62556 0.23959 0.56752 0.0
C1317 C 0.62398 0.2185 0.53343 0.0
C1318 C 0.58992 0.22881 0.73658 0.0
C1319 C 0.63877 0.25804 0.53163 0.0
C1320 C 0.5964 0.30246 0.6844 0.0
C1321 C 0.61271 0.30877 0.73517 0.0
C1322 C 0.59698 0.28141 0.65055 0.0
C1323 C 0.61421 0.26605 0.66802 0.0
C1324 C 0.63068 0.2722 0.71955 0.0
C1325 C 0.62979 0.29351 0.75236 0.0
C1326 C 0.5791 0.27561 0.59588 0.0
C1327 C 0.64923 0.25624 0.74002 0.0
H1328 H 0.59084 0.19156 0.6547 0.0
H1329 H 0.63236 0.21575 0.48232 0.0
H1330 H 0.60165 0.23516 0.77835 0.0
H1331 H 0.57652 0.24153 0.73013 0.0
H1332 H 0.58224 0.21301 0.75641 0.0
H1333 H 0.64745 0.25217 0.48208 0.0
H1334 H 0.62742 0.27203 0.51684 0.0
H1335 H 0.65141 0.26488 0.56965 0.0
H1336 H 0.58319 0.31411 0.67024 0.0
H1337 H 0.64253 0.29826 0.79117 0.0
H1338 H 0.56957 0.26072 0.61428 0.0
H1339 H 0.58691 0.27123 0.54342 0.0
H1340 H 0.56715 0.28962 0.587 0.0
H1341 H 0.64202 0.2406 0.76257 0.0
H1342 H 0.66085 0.26358 0.78049 0.0
H1343 H 0.65894 0.2515 0.69133 0.0
C1344 C 0.37651 0.13728 0.46866 0.0
C1345 C 0.3573 0.12667 0.44142 0.0
C1346 C 0.37993 0.13959 0.5431 0.0
C1347 C 0.36368 0.13124 0.59147 0.0
C1348 C 0.34415 0.12067 0.56453 0.0
C1349 C 0.34123 0.11843 0.48965 0.0
C1350 C 0.40099 0.15089 0.56998 0.0
C1351 C 0.32637 0.11174 0.61482 0.0
C1352 C 0.37973 0.11897 0.78563 0.0
C1353 C 0.37107 0.1378 0.82134 0.0
C1354 C 0.37782 0.1168 0.71045 0.0
C1355 C 0.36696 0.13383 0.67038 0.0
C1356 C 0.35886 0.1532 0.70581 0.0
C1357 C 0.36109 0.15499 0.78089 0.0
C1358 C 0.38685 0.09601 0.67415 0.0
C1359 C 0.34722 0.17173 0.66474 0.0
H1360 H 0.38907 0.14362 0.43178 0.0
H1361 H 0.32636 0.11024 0.46895 0.0
H1362 H 0.39661 0.16583 0.60276 0.0
H1363 H 0.41045 0.1393 0.60554 0.0
H1364 H 0.41209 0.15626 0.52513 0.0
H1365 H 0.31217 0.10398 0.58521 0.0
H1366 H 0.33372 0.09903 0.6516 0.0
H1367 H 0.3198 0.12552 0.64905 0.0
H1368 H 0.38745 0.10562 0.81657 0.0
H1369 H 0.35436 0.16961 0.80806 0.0
H1370 H 0.39849 0.1007 0.63008 0.0
H1371 H 0.37289 0.08645 0.64929 0.0
H1372 H 0.39579 0.08484 0.71255 0.0
H1373 H 0.35814 0.17798 0.62074 0.0
H1374 H 0.34263 0.18606 0.70008 0.0
H1375 H 0.33177 0.16511 0.6392 0.0
C1376 C 0.12329 0.60643 0.49965 0.0
C1377 C 0.129 0.62614 0.53676 0.0
C1378 C 0.12546 0.60496 0.42435 0.0
C1379 C 0.13306 0.6238 0.38505 0.0
C1380 C 0.13872 0.64381 0.42219 0.0
C1381 C 0.13686 0.64465 0.49778 0.0
C1382 C 0.11971 0.58319 0.3869 0.0
C1383 C 0.14651 0.66439 0.38199 0.0
C1384 C 0.15756 0.61711 0.19699 0.0
C1385 C 0.13933 0.62295 0.1532 0.0
C1386 C 0.15557 0.61665 0.27253 0.0
C1387 C 0.13499 0.62268 0.30499 0.0
C1388 C 0.11641 0.62821 0.26094 0.0
C1389 C 0.11874 0.62805 0.18551 0.0
C1390 C 0.17561 0.61014 0.31763 0.0
C1391 C 0.09429 0.63508 0.29351 0.0
H1392 H 0.1174 0.59199 0.52965 0.0
H1393 H 0.14119 0.65993 0.52625 0.0
H1394 H 0.10584 0.58591 0.34803 0.0
H1395 H 0.13432 0.57714 0.35555 0.0
H1396 H 0.11465 0.56989 0.42555 0.0
H1397 H 0.14986 0.67874 0.41873 0.0
H1398 H 0.16203 0.66056 0.35159 0.0
H1399 H 0.13366 0.66953 0.34199 0.0
H1400 H 0.17349 0.6131 0.17218 0.0
H1401 H 0.10465 0.63283 0.15193 0.0
H1402 H 0.17107 0.59649 0.35556 0.0
H1403 H 0.18111 0.62466 0.35064 0.0
H1404 H 0.18992 0.60448 0.28402 0.0
H1405 H 0.08805 0.62177 0.33006 0.0
H1406 H 0.08135 0.63845 0.25176 0.0
H1407 H 0.09658 0.65045 0.32654 0.0
C1408 C 0.63162 0.86635 0.53075 0.0
C1409 C 0.64807 0.88039 0.50112 0.0
C1410 C 0.62899 0.8644 0.60578 0.0
C1411 C 0.64323 0.87666 0.65242 0.0
C1412 C 0.65996 0.89075 0.62298 0.0
C1413 C 0.66213 0.89251 0.54765 0.0
C1414 C 0.61094 0.84921 0.63514 0.0
C1415 C 0.67561 0.90392 0.67108 0.0
C1416 C 0.62506 0.88676 0.84667 0.0
C1417 C 0.63713 0.87016 0.88354 0.0
C1418 C 0.62673 0.88898 0.77128 0.0
C1419 C 0.64093 0.87436 0.73209 0.0
C1420 C 0.65302 0.8575 0.769 0.0
C1421 C 0.65091 0.85555 0.84412 0.0
C1422 C 0.61348 0.90709 0.73363 0.0
C1423 C 0.66846 0.84169 0.72927 0.0
H1424 H 0.6206 0.85699 0.49528 0.0
H1425 H 0.67487 0.90339 0.52525 0.0
H1426 H 0.61856 0.83591 0.66908 0.0
H1427 H 0.59943 0.85893 0.67018 0.0
H1428 H 0.60101 0.84111 0.59159 0.0
H1429 H 0.68762 0.91425 0.6397 0.0
H1430 H 0.66586 0.91513 0.70705 0.0
H1431 H 0.68522 0.89231 0.70619 0.0
H1432 H 0.61442 0.89813 0.87674 0.0
H1433 H 0.66042 0.84274 0.87211 0.0
H1434 H 0.60256 0.89955 0.69163 0.0
H1435 H 0.62503 0.91882 0.70587 0.0
H1436 H 0.60289 0.91682 0.77166 0.0
H1437 H 0.65905 0.8325 0.68688 0.0
H1438 H 0.67644 0.82927 0.76587 0.0
H1439 H 0.68183 0.85136 0.70181 0.0
C1440 C 0.88135 0.39257 0.18751 0.0
C1441 C 0.87358 0.37339 0.15175 0.0
C1442 C 0.88393 0.39272 0.26293 0.0
C1443 C 0.87922 0.37302 0.30288 0.0
C1444 C 0.87169 0.35351 0.26669 0.0
C1445 C 0.8687 0.35404 0.19165 0.0
C1446 C 0.89157 0.41395 0.29991 0.0
C1447 C 0.86705 0.33201 0.30707 0.0
C1448 C 0.90566 0.36701 0.48848 0.0
C1449 C 0.88752 0.37174 0.53388 0.0
C1450 C 0.90315 0.36718 0.41311 0.0
C1451 C 0.88214 0.37274 0.38259 0.0
C1452 C 0.86381 0.37771 0.42823 0.0
C1453 C 0.86666 0.37689 0.5034 0.0
C1454 C 0.92294 0.36128 0.36616 0.0
C1455 C 0.84126 0.3841 0.39764 0.0
H1456 H 0.8851 0.40753 0.1566 0.0
H1457 H 0.86301 0.33906 0.16392 0.0
H1458 H 0.8791 0.41911 0.34104 0.0
H1459 H 0.90759 0.41094 0.32863 0.0
H1460 H 0.89396 0.42799 0.26128 0.0
H1461 H 0.86191 0.31815 0.27049 0.0
H1462 H 0.88221 0.3267 0.33719 0.0
H1463 H 0.8536 0.33475 0.3473 0.0
H1464 H 0.92178 0.36294 0.51193 0.0
H1465 H 0.85265 0.38081 0.53835 0.0
H1466 H 0.92713 0.3756 0.33044 0.0
H1467 H 0.91868 0.34687 0.3308 0.0
H1468 H 0.938 0.3569 0.39843 0.0
H1469 H 0.84302 0.39888 0.36173 0.0
H1470 H 0.82891 0.38813 0.44051 0.0
H1471 H 0.83455 0.37017 0.36433 0.0
C1472 C 0.38406 0.38036 0.41385 0.0
C1473 C 0.37758 0.35982 0.3834 0.0
C1474 C 0.38535 0.38301 0.48919 0.0
C1475 C 0.37998 0.36471 0.53469 0.0
C1476 C 0.37506 0.34354 0.50404 0.0
C1477 C 0.37401 0.34134 0.4288 0.0
C1478 C 0.39101 0.40575 0.51998 0.0
C1479 C 0.36935 0.32357 0.55064 0.0
C1480 C 0.39236 0.3653 0.73588 0.0
C1481 C 0.37142 0.3711 0.76472 0.0
C1482 C 0.39563 0.36383 0.66099 0.0
C1483 C 0.37747 0.36802 0.61385 0.0
C1484 C 0.35638 0.3742 0.64255 0.0
C1485 C 0.35364 0.37576 0.71765 0.0
C1486 C 0.41839 0.35741 0.63236 0.0
C1487 C 0.33654 0.37866 0.59394 0.0
H1488 H 0.38688 0.39471 0.37916 0.0
H1489 H 0.36921 0.32535 0.40566 0.0
H1490 H 0.37575 0.41338 0.54354 0.0
H1491 H 0.40351 0.40418 0.56405 0.0
H1492 H 0.3977 0.41731 0.4782 0.0
H1493 H 0.36791 0.30786 0.51869 0.0
H1494 H 0.38223 0.32114 0.59307 0.0
H1495 H 0.35317 0.3266 0.57833 0.0
H1496 H 0.40626 0.36184 0.77188 0.0
H1497 H 0.33744 0.38029 0.73947 0.0
H1498 H 0.42412 0.36992 0.5921 0.0
H1499 H 0.41736 0.341 0.60432 0.0
H1500 H 0.43113 0.35617 0.67592 0.0
H1501 H 0.34071 0.39194 0.55426 0.0
H1502 H 0.32148 0.38395 0.62464 0.0
H1503 H 0.33237 0.36329 0.56289 0.0
C1504 C 0.37368 0.62499 0.24669 0.0
C1505 C 0.37758 0.60442 0.21231 0.0
C1506 C 0.37216 0.62637 0.32216 0.0
C1507 C 0.37423 0.60663 0.36416 0.0
C1508 C 0.37798 0.58578 0.32976 0.0
C1509 C 0.37978 0.58495 0.25421 0.0
C1510 C 0.36844 0.64898 0.35697 0.0
C1511 C 0.37996 0.56436 0.37273 0.0
C1512 C 0.38948 0.61606 0.56075 0.0
C1513 C 0.36829 0.61682 0.5931 0.0
C1514 C 0.39176 0.61191 0.48652 0.0
C1515 C 0.37242 0.60799 0.44411 0.0
C1516 C 0.35114 0.60722 0.47748 0.0
C1517 C 0.34931 0.61186 0.55153 0.0
C1518 C 0.41472 0.61313 0.45279 0.0
C1519 C 0.33018 0.60262 0.43434 0.0
H1520 H 0.37207 0.64011 0.21464 0.0
H1521 H 0.38267 0.56896 0.22791 0.0
H1522 H 0.35258 0.64884 0.38801 0.0
H1523 H 0.38215 0.65262 0.39571 0.0
H1524 H 0.36766 0.66276 0.31672 0.0
H1525 H 0.3826 0.54946 0.33769 0.0
H1526 H 0.39414 0.5656 0.41125 0.0
H1527 H 0.36457 0.56173 0.40507 0.0
H1528 H 0.40421 0.62001 0.5925 0.0
H1529 H 0.33291 0.6123 0.57645 0.0
H1530 H 0.41567 0.62804 0.41709 0.0
H1531 H 0.41785 0.59816 0.41874 0.0
H1532 H 0.4282 0.61439 0.49396 0.0
H1533 H 0.32674 0.61696 0.39787 0.0
H1534 H 0.31536 0.60004 0.4695 0.0
H1535 H 0.33243 0.58754 0.39998 0.0
C1536 C 0.62372 0.64327 0.73305 0.0
C1537 C 0.63296 0.62382 0.76338 0.0
C1538 C 0.62221 0.64585 0.65785 0.0
C1539 C 0.6306 0.6288 0.61204 0.0
C1540 C 0.64032 0.60932 0.64242 0.0
C1541 C 0.64114 0.60694 0.71779 0.0
C1542 C 0.61149 0.66674 0.62741 0.0
C1543 C 0.64994 0.59102 0.59532 0.0
C1544 C 0.6108 0.62519 0.41701 0.0
C1545 C 0.62816 0.63622 0.38074 0.0
C1546 C 0.61119 0.62295 0.49257 0.0
C1547 C 0.62959 0.63153 0.53228 0.0
C1548 C 0.64719 0.64256 0.49572 0.0
C1549 C 0.64618 0.6449 0.4205 0.0
C1550 C 0.59194 0.61141 0.52993 0.0
C1551 C 0.66733 0.6515 0.53584 0.0
H1552 H 0.61717 0.65626 0.76813 0.0
H1553 H 0.64838 0.59193 0.74108 0.0
H1554 H 0.62373 0.67601 0.59379 0.0
H1555 H 0.59726 0.6621 0.59182 0.0
H1556 H 0.60525 0.67814 0.67037 0.0
H1557 H 0.6572 0.57708 0.62747 0.0
H1558 H 0.63673 0.58411 0.55955 0.0
H1559 H 0.66319 0.59803 0.56002 0.0
H1560 H 0.59685 0.61848 0.3864 0.0
H1561 H 0.65983 0.65315 0.39261 0.0
H1562 H 0.58458 0.62273 0.57114 0.0
H1563 H 0.59804 0.59627 0.55859 0.0
H1564 H 0.57857 0.60631 0.49154 0.0
H1565 H 0.66201 0.66278 0.58025 0.0
H1566 H 0.6789 0.66087 0.49994 0.0
H1567 H 0.67665 0.63737 0.56069 0.0
C1568 C 0.64189 0.35688 0.55229 0.0
C1569 C 0.63653 0.37543 0.59537 0.0
C1570 C 0.63836 0.35731 0.47758 0.0
C1571 C 0.62984 0.37701 0.44509 0.0
C1572 C 0.62458 0.3959 0.48828 0.0
C1573 C 0.62769 0.39476 0.56335 0.0
C1574 C 0.64362 0.33664 0.43356 0.0
C1575 C 0.61591 0.41733 0.45511 0.0
C1576 C 0.64248 0.38315 0.24581 0.0
C1577 C 0.62203 0.37699 0.2145 0.0
C1578 C 0.64503 0.38391 0.32098 0.0
C1579 C 0.62682 0.37784 0.36566 0.0
C1580 C 0.60611 0.37163 0.33431 0.0
C1581 C 0.60388 0.37155 0.25889 0.0
C1582 C 0.66723 0.39104 0.35257 0.0
C1583 C 0.58651 0.36455 0.38035 0.0
H1584 H 0.64837 0.34177 0.57727 0.0
H1585 H 0.62355 0.40908 0.59688 0.0
H1586 H 0.62866 0.33141 0.40224 0.0
H1587 H 0.65706 0.34041 0.39416 0.0
H1588 H 0.64909 0.32234 0.46773 0.0
H1589 H 0.61289 0.43057 0.49616 0.0
H1590 H 0.6281 0.42373 0.41497 0.0
H1591 H 0.60004 0.41405 0.42586 0.0
H1592 H 0.65646 0.38764 0.21147 0.0
H1593 H 0.58807 0.36672 0.23462 0.0
H1594 H 0.67482 0.37689 0.38274 0.0
H1595 H 0.66473 0.40496 0.39152 0.0
H1596 H 0.67922 0.3966 0.31043 0.0
H1597 H 0.5911 0.34956 0.41257 0.0
H1598 H 0.57146 0.36052 0.34752 0.0
H1599 H 0.58215 0.37806 0.41905 0.0
C1600 C 0.91448 0.62209 0.00726 0.0
C1601 C 0.8949 0.62468 0.96616 0.0
C1602 C 0.9141 0.62424 0.08278 0.0
C1603 C 0.89358 0.62861 0.11807 0.0
C1604 C 0.87375 0.63117 0.07682 0.0
C1605 C 0.8747 0.62941 0.00127 0.0
C1606 C 0.93565 0.62188 0.12475 0.0
C1607 C 0.85146 0.6355 0.11256 0.0
C1608 C 0.88514 0.61284 0.31473 0.0
C1609 C 0.88504 0.63394 0.34821 0.0
C1610 C 0.88865 0.61077 0.24008 0.0
C1611 C 0.89262 0.63022 0.19824 0.0
C1612 C 0.89405 0.6514 0.23258 0.0
C1613 C 0.89002 0.65303 0.30709 0.0
C1614 C 0.88675 0.58792 0.2054 0.0
C1615 C 0.89879 0.67246 0.19011 0.0
H1616 H 0.93019 0.61864 0.9803 0.0
H1617 H 0.85952 0.63132 0.96975 0.0
H1618 H 0.93857 0.63711 0.15788 0.0
H1619 H 0.93445 0.60749 0.16248 0.0
H1620 H 0.95032 0.61926 0.08896 0.0
H1621 H 0.83757 0.63677 0.07284 0.0
H1622 H 0.84759 0.62177 0.15101 0.0
H1623 H 0.85218 0.6513 0.1441 0.0
H1624 H 0.88115 0.59802 0.34604 0.0
H1625 H 0.89008 0.66937 0.33277 0.0
H1626 H 0.90154 0.58449 0.17107 0.0
H1627 H 0.8718 0.58749 0.1698 0.0
H1628 H 0.88521 0.57429 0.24599 0.0
H1629 H 0.91355 0.67002 0.15469 0.0
H1630 H 0.90191 0.68712 0.22578 0.0
H1631 H 0.88431 0.67635 0.15472 0.0
C1632 C 0.60797 0.11819 0.68119 0.0
C1633 C 0.6283 0.11395 0.64601 0.0
C1634 C 0.60628 0.1165 0.75654 0.0
C1635 C 0.62526 0.11005 0.79737 0.0
C1636 C 0.64541 0.10439 0.7617 0.0
C1637 C 0.64675 0.1066 0.6864 0.0
C1638 C 0.58455 0.12288 0.7927 0.0
C1639 C 0.66586 0.097 0.80331 0.0
C1640 C 0.62963 0.13158 0.98974 0.0
C1641 C 0.62215 0.11306 0.02947 0.0
C1642 C 0.6307 0.13079 0.91411 0.0
C1643 C 0.6245 0.11086 0.87753 0.0
C1644 C 0.61735 0.09196 0.91744 0.0
C1645 C 0.61608 0.09335 0.99298 0.0
C1646 C 0.63814 0.15139 0.87327 0.0
C1647 C 0.61098 0.07032 0.88034 0.0
H1648 H 0.59368 0.12399 0.65032 0.0
H1649 H 0.66246 0.10317 0.65936 0.0
H1650 H 0.57915 0.10951 0.83041 0.0
H1651 H 0.58704 0.13836 0.82504 0.0
H1652 H 0.57092 0.12594 0.75306 0.0
H1653 H 0.67939 0.09092 0.76717 0.0
H1654 H 0.67241 0.11126 0.8355 0.0
H1655 H 0.66148 0.08344 0.84174 0.0
H1656 H 0.63424 0.14688 0.01768 0.0
H1657 H 0.61045 0.07892 0.02352 0.0
H1658 H 0.62474 0.15683 0.83561 0.0
H1659 H 0.65311 0.14745 0.84024 0.0
H1660 H 0.64227 0.16559 0.9098 0.0
H1661 H 0.59649 0.07319 0.844 0.0
H1662 H 0.60654 0.05691 0.91939 0.0
H1663 H 0.62503 0.06434 0.84629 0.0
C1664 C 0.14721 0.36203 0.34821 0.0
C1665 C 0.13312 0.37633 0.38765 0.0
C1666 C 0.14962 0.36435 0.27329 0.0
C1667 C 0.13744 0.38121 0.23664 0.0
C1668 C 0.12293 0.3955 0.27586 0.0
C1669 C 0.12102 0.39296 0.35105 0.0
C1670 C 0.1653 0.34881 0.23345 0.0
C1671 C 0.10958 0.41359 0.23845 0.0
C1672 C 0.15893 0.40053 0.05384 0.0
C1673 C 0.1452 0.3884 0.00634 0.0
C1674 C 0.15658 0.39836 0.12898 0.0
C1675 C 0.13998 0.38387 0.15721 0.0
C1676 C 0.12609 0.37159 0.10958 0.0
C1677 C 0.12892 0.37393 0.03477 0.0
C1678 C 0.17189 0.41152 0.1782 0.0
C1679 C 0.10816 0.35603 0.13763 0.0
H1680 H 0.15677 0.34923 0.37604 0.0
H1681 H 0.11015 0.40409 0.38119 0.0
H1682 H 0.15562 0.33822 0.1953 0.0
H1683 H 0.17742 0.35863 0.20101 0.0
H1684 H 0.17475 0.33766 0.27059 0.0
H1685 H 0.09871 0.42301 0.27645 0.0
H1686 H 0.12107 0.42559 0.2117 0.0
H1687 H 0.09894 0.40608 0.19567 0.0
H1688 H 0.17155 0.41173 0.03236 0.0
H1689 H 0.11814 0.36457 0.99852 0.0
H1690 H 0.18118 0.3999 0.21413 0.0
H1691 H 0.16189 0.42276 0.2133 0.0
H1692 H 0.18416 0.4218 0.14775 0.0
H1693 H 0.11583 0.3427 0.17128 0.0
H1694 H 0.09849 0.34797 0.09338 0.0
H1695 H 0.09639 0.36544 0.17263 0.0
C1696 C 0.36877 0.87343 0.98608 0.0
C1697 C 0.38969 0.86851 0.01657 0.0
C1698 C 0.36597 0.8745 0.91088 0.0
C1699 C 0.38441 0.87005 0.86514 0.0
C1700 C 0.40547 0.86466 0.89565 0.0
C1701 C 0.40792 0.86422 0.97107 0.0
C1702 C 0.34335 0.88068 0.88038 0.0
C1703 C 0.42539 0.85929 0.84865 0.0
C1704 C 0.37138 0.85222 0.67287 0.0
C1705 C 0.37597 0.87186 0.63406 0.0
C1706 C 0.37437 0.85132 0.74791 0.0
C1707 C 0.38157 0.87072 0.78531 0.0
C1708 C 0.38602 0.8907 0.74646 0.0
C1709 C 0.38347 0.89094 0.67097 0.0
C1710 C 0.37003 0.82952 0.78698 0.0
C1711 C 0.39332 0.91184 0.7847 0.0
H1712 H 0.35468 0.87701 0.02107 0.0
H1713 H 0.4241 0.86034 0.99447 0.0
H1714 H 0.3449 0.89572 0.84545 0.0
H1715 H 0.33692 0.86685 0.84609 0.0
H1716 H 0.33088 0.88424 0.92332 0.0
H1717 H 0.44046 0.85488 0.88087 0.0
H1718 H 0.42136 0.84505 0.81227 0.0
H1719 H 0.42946 0.87388 0.81395 0.0
H1720 H 0.36591 0.83732 0.64428 0.0
H1721 H 0.387 0.90613 0.64095 0.0
H1722 H 0.35654 0.83183 0.82735 0.0
H1723 H 0.38527 0.82426 0.81681 0.0
H1724 H 0.36511 0.8158 0.74958 0.0
H1725 H 0.38072 0.9166 0.82592 0.0
H1726 H 0.39557 0.92611 0.74688 0.0
H1727 H 0.40934 0.9089 0.81349 0.0
C1728 C 0.85624 0.87412 0.22799 0.0
C1729 C 0.87454 0.86902 0.27259 0.0
C1730 C 0.85782 0.87235 0.15253 0.0
C1731 C 0.87824 0.86544 0.12076 0.0
C1732 C 0.8969 0.86067 0.16533 0.0
C1733 C 0.89481 0.86245 0.2407 0.0
C1734 C 0.83748 0.87751 0.10684 0.0
C1735 C 0.91897 0.8534 0.13342 0.0
C1736 C 0.87223 0.83914 0.93522 0.0
C1737 C 0.87647 0.85742 0.88957 0.0
C1738 C 0.87367 0.84129 0.01051 0.0
C1739 C 0.8796 0.86222 0.04109 0.0
C1740 C 0.88525 0.88037 0.9953 0.0
C1741 C 0.88361 0.87776 0.91998 0.0
C1742 C 0.86758 0.82149 0.05736 0.0
C1743 C 0.89183 0.90289 0.02586 0.0
H1744 H 0.84053 0.87926 0.25204 0.0
H1745 H 0.90909 0.8586 0.27465 0.0
H1746 H 0.84154 0.89063 0.06649 0.0
H1747 H 0.83234 0.8623 0.07648 0.0
H1748 H 0.82307 0.88333 0.13969 0.0
H1749 H 0.93219 0.8514 0.17518 0.0
H1750 H 0.91687 0.83719 0.10478 0.0
H1751 H 0.92473 0.86585 0.09302 0.0
H1752 H 0.86682 0.82332 0.91226 0.0
H1753 H 0.88688 0.892 0.8852 0.0
H1754 H 0.85191 0.8252 0.08718 0.0
H1755 H 0.88085 0.81838 0.09807 0.0
H1756 H 0.86504 0.80594 0.02533 0.0
H1757 H 0.87711 0.91076 0.05209 0.0
H1758 H 0.89814 0.91446 0.98351 0.0
H1759 H 0.90494 0.90088 0.06786 0.0
C1760 C 0.8415 0.11233 0.06617 0.0
C1761 C 0.86051 0.11804 0.10653 0.0
C1762 C 0.84307 0.10767 0.99208 0.0
C1763 C 0.8641 0.10923 0.95739 0.0
C1764 C 0.88352 0.11395 0.99857 0.0
C1765 C 0.88152 0.11809 0.07292 0.0
C1766 C 0.82205 0.10219 0.95032 0.0
C1767 C 0.9062 0.11605 0.96339 0.0
C1768 C 0.87112 0.0862 0.76732 0.0
C1769 C 0.86782 0.10549 0.72531 0.0
C1770 C 0.86981 0.08708 0.84298 0.0
C1771 C 0.86546 0.10782 0.87734 0.0
C1772 C 0.86227 0.12738 0.8352 0.0
C1773 C 0.86329 0.12594 0.75965 0.0
C1774 C 0.87293 0.06582 0.88608 0.0
C1775 C 0.85791 0.14988 0.86994 0.0
H1776 H 0.82524 0.11215 0.09211 0.0
H1777 H 0.89626 0.12266 0.10378 0.0
H1778 H 0.81784 0.11633 0.91385 0.0
H1779 H 0.82468 0.08715 0.91605 0.0
H1780 H 0.80754 0.0991 0.98644 0.0
H1781 H 0.91986 0.1179 0.00369 0.0
H1782 H 0.90973 0.10117 0.92933 0.0
H1783 H 0.90634 0.13093 0.92745 0.0
H1784 H 0.87451 0.07031 0.74102 0.0
H1785 H 0.86087 0.14093 0.72749 0.0
H1786 H 0.85789 0.06264 0.91958 0.0
H1787 H 0.88731 0.06769 0.92354 0.0
H1788 H 0.87592 0.05099 0.85107 0.0
H1789 H 0.84227 0.14919 0.90206 0.0
H1790 H 0.85634 0.16356 0.82956 0.0
H1791 H 0.87172 0.15412 0.90769 0.0
C1792 C 0.14075 0.1449 0.96975 0.0
C1793 C 0.12302 0.14039 0.92244 0.0
C1794 C 0.1383 0.1419 0.04421 0.0
C1795 C 0.11741 0.13483 0.07191 0.0
C1796 C 0.09935 0.13046 0.02439 0.0
C1797 C 0.10249 0.13298 0.94978 0.0
C1798 C 0.1581 0.14618 0.09314 0.0
C1799 C 0.07672 0.1234 0.05242 0.0
C1800 C 0.11766 0.1099 0.2599 0.0
C1801 C 0.11299 0.12883 0.30203 0.0
C1802 C 0.11879 0.1115 0.18449 0.0
C1803 C 0.11454 0.13238 0.15088 0.0
C1804 C 0.10892 0.15132 0.19318 0.0
C1805 C 0.10852 0.14939 0.26851 0.0
C1806 C 0.12536 0.09109 0.14108 0.0
C1807 C 0.10379 0.17373 0.15898 0.0
H1808 H 0.15674 0.15032 0.94835 0.0
H1809 H 0.08879 0.12956 0.91292 0.0
H1810 H 0.15426 0.16011 0.13083 0.0
H1811 H 0.1616 0.13109 0.12636 0.0
H1812 H 0.17346 0.15055 0.06248 0.0
H1813 H 0.06436 0.1209 0.00827 0.0
H1814 H 0.07822 0.10756 0.08338 0.0
H1815 H 0.07018 0.13632 0.09004 0.0
H1816 H 0.12122 0.09403 0.28605 0.0
H1817 H 0.10465 0.16396 0.30125 0.0
H1818 H 0.14145 0.09431 0.11305 0.0
H1819 H 0.11265 0.08761 0.09888 0.0
H1820 H 0.1273 0.07592 0.17532 0.0
H1821 H 0.11903 0.18045 0.13263 0.0
H1822 H 0.09781 0.18623 0.19906 0.0
H1823 H 0.09085 0.17175 0.11639 0.0
C1824 C 0.14587 0.90211 0.76129 0.0
C1825 C 0.12592 0.89402 0.7313 0.0
C1826 C 0.14908 0.90238 0.83618 0.0
C1827 C 0.13215 0.89376 0.88163 0.0
C1828 C 0.11165 0.88625 0.85169 0.0
C1829 C 0.10867 0.88676 0.77661 0.0
C1830 C 0.17093 0.91101 0.86639 0.0
C1831 C 0.09342 0.8765 0.89849 0.0
C1832 C 0.15099 0.86656 0.05548 0.0
C1833 C 0.1441 0.88229 0.10706 0.0
C1834 C 0.14721 0.87018 0.98191 0.0
C1835 C 0.13681 0.8903 0.95936 0.0
C1836 C 0.13055 0.90666 0.01094 0.0
C1837 C 0.13401 0.90231 0.0846 0.0
C1838 C 0.15371 0.85213 0.92856 0.0
C1839 C 0.11994 0.92853 0.98838 0.0
H1840 H 0.15909 0.90804 0.72606 0.0
H1841 H 0.09325 0.88047 0.7532 0.0
H1842 H 0.16781 0.92273 0.91182 0.0
H1843 H 0.18087 0.8968 0.88796 0.0
H1844 H 0.18108 0.91975 0.82483 0.0
H1845 H 0.07792 0.87289 0.86736 0.0
H1846 H 0.09939 0.86065 0.92328 0.0
H1847 H 0.08926 0.88815 0.94318 0.0
H1848 H 0.15854 0.85092 0.07275 0.0
H1849 H 0.12871 0.91448 0.12461 0.0
H1850 H 0.16569 0.85893 0.88848 0.0
H1851 H 0.1387 0.8464 0.89839 0.0
H1852 H 0.16149 0.83737 0.95523 0.0
H1853 H 0.13052 0.93701 0.94745 0.0
H1854 H 0.11747 0.94009 0.03477 0.0
H1855 H 0.10345 0.92527 0.9629 0.0
loop_
_geom_bond_atom_site_label_1
_geom_bond_atom_site_label_2
_geom_bond_distance
_geom_bond_site_symmetry_2
_ccdc_geom_bond_type
Zn0 O6 1.969 1_554 S
Zn0 O7 1.965 . S
Zn0 O11 2.024 . S
Zn0 O16 1.969 . S
Zn1 O8 1.969 . S
Zn1 O14 1.969 . S
Zn1 O15 1.965 . S
Zn1 O17 2.024 . S
C2 O3 1.229 1_554 S
C2 O11 1.058 . S
O3 C2 1.229 1_556 S
C4 O5 1.229 . S
C4 O17 1.058 . S
O5 C4 1.229 . S
O6 Zn0 1.969 1_556 S
O6 C9 1.267 . S
O7 Zn0 1.965 . S
O7 C18 1.260 . S
O8 Zn1 1.969 . S
O8 C18 1.258 . S
C9 O6 1.267 . S
C9 O10 1.228 . S
O10 C9 1.228 . S
O11 Zn0 2.024 . S
O11 C2 1.058 . S
C12 O13 1.228 . S
C12 O14 1.267 . S
O13 C12 1.228 . S
O14 Zn1 1.969 . S
O14 C12 1.267 . S
O15 Zn1 1.965 . S
O15 C19 1.260 . S
O16 Zn0 1.969 . S
O16 C19 1.258 . S
O17 Zn1 2.024 . S
O17 C4 1.058 . S
C18 O7 1.260 . S
C18 O8 1.258 . S
C19 O15 1.260 . S
C19 O16 1.258 . S
Zn20 O26 1.969 . S
Zn20 O27 1.965 . S
Zn20 O31 2.024 . S
Zn20 O36 1.969 . S
Zn21 O28 1.969 . S
Zn21 O34 1.969 1_556 S
Zn21 O35 1.965 . S
Zn21 O37 2.024 . S
C22 O23 1.229 . S
C22 O31 1.058 . S
O23 C22 1.229 . S
C24 O25 1.229 1_556 S
C24 O37 1.058 . S
O25 C24 1.229 1_554 S
O26 Zn20 1.969 . S
O26 C29 1.267 . S
O27 Zn20 1.965 . S
O27 C38 1.260 . S
O28 Zn21 1.969 . S
O28 C38 1.258 . S
C29 O26 1.267 . S
C29 O30 1.228 . S
O30 C29 1.228 . S
O31 Zn20 2.024 . S
O31 C22 1.058 . S
C32 O33 1.228 . S
C32 O34 1.267 . S
O33 C32 1.228 . S
O34 Zn21 1.969 1_554 S
O34 C32 1.267 . S
O35 Zn21 1.965 . S
O35 C39 1.260 . S
O36 Zn20 1.969 . S
O36 C39 1.258 . S
O37 Zn21 2.024 . S
O37 C24 1.058 . S
C38 O27 1.260 . S
C38 O28 1.258 . S
C39 O35 1.260 . S
C39 O36 1.258 . S
Zn40 O46 1.969 1_554 S
Zn40 O47 1.965 . S
Zn40 O51 2.024 . S
Zn40 O56 1.969 . S
Zn41 O48 1.969 . S
Zn41 O54 1.969 . S
Zn41 O55 1.965 . S
Zn41 O57 2.024 . S
C42 O43 1.229 1_554 S
C42 O51 1.058 . S
O43 C42 1.229 1_556 S
C44 O45 1.229 . S
C44 O57 1.058 . S
O45 C44 1.229 . S
O46 Zn40 1.969 1_556 S
O46 C49 1.267 . S
O47 Zn40 1.965 . S
O47 C58 1.260 . S
O48 Zn41 1.969 . S
O48 C58 1.258 . S
C49 O46 1.267 . S
C49 O50 1.228 . S
O50 C49 1.228 . S
O51 Zn40 2.024 . S
O51 C42 1.058 . S
C52 O53 1.228 . S
C52 O54 1.267 . S
O53 C52 1.228 . S
O54 Zn41 1.969 . S
O54 C52 1.267 . S
O55 Zn41 1.965 . S
O55 C59 1.260 . S
O56 Zn40 1.969 . S
O56 C59 1.258 . S
O57 Zn41 2.024 . S
O57 C44 1.058 . S
C58 O47 1.260 . S
C58 O48 1.258 . S
C59 O55 1.260 . S
C59 O56 1.258 . S
Zn60 O66 1.969 . S
Zn60 O67 1.965 . S
Zn60 O71 2.024 . S
Zn60 O76 1.969 . S
Zn61 O68 1.969 . S
Zn61 O74 1.969 1_556 S
Zn61 O75 1.965 . S
Zn61 O77 2.024 . S
C62 O63 1.229 . S
C62 O71 1.058 . S
O63 C62 1.229 . S
C64 O65 1.229 1_556 S
C64 O77 1.058 . S
O65 C64 1.229 1_554 S
O66 Zn60 1.969 . S
O66 C69 1.267 . S
O67 Zn60 1.965 . S
O67 C78 1.260 . S
O68 Zn61 1.969 . S
O68 C78 1.258 . S
C69 O66 1.267 . S
C69 O70 1.228 . S
O70 C69 1.228 . S
O71 Zn60 2.024 . S
O71 C62 1.058 . S
C72 O73 1.228 . S
C72 O74 1.267 . S
O73 C72 1.228 . S
O74 Zn61 1.969 1_554 S
O74 C72 1.267 . S
O75 Zn61 1.965 . S
O75 C79 1.260 . S
O76 Zn60 1.969 . S
O76 C79 1.258 . S
O77 Zn61 2.024 . S
O77 C64 1.058 . S
C78 O67 1.260 . S
C78 O68 1.258 . S
C79 O75 1.260 . S
C79 O76 1.258 . S
Zn80 O86 1.969 . S
Zn80 O87 1.965 . S
Zn80 O91 2.024 . S
Zn80 O96 1.969 . S
Zn81 O88 1.969 . S
Zn81 O94 1.969 1_554 S
Zn81 O95 1.965 . S
Zn81 O97 2.024 . S
C82 O83 1.229 . S
C82 O91 1.058 . S
O83 C82 1.229 . S
C84 O85 1.229 1_554 S
C84 O97 1.058 . S
O85 C84 1.229 1_556 S
O86 Zn80 1.969 . S
O86 C89 1.267 . S
O87 Zn80 1.965 . S
O87 C98 1.260 . S
O88 Zn81 1.969 . S
O88 C98 1.258 . S
C89 O86 1.267 . S
C89 O90 1.228 . S
O90 C89 1.228 . S
O91 Zn80 2.024 . S
O91 C82 1.058 . S
C92 O93 1.228 . S
C92 O94 1.267 . S
O93 C92 1.228 . S
O94 Zn81 1.969 1_556 S
O94 C92 1.267 . S
O95 Zn81 1.965 . S
O95 C99 1.260 . S
O96 Zn80 1.969 . S
O96 C99 1.258 . S
O97 Zn81 2.024 . S
O97 C84 1.058 . S
C98 O87 1.260 . S
C98 O88 1.258 . S
C99 O95 1.260 . S
C99 O96 1.258 . S
Zn100 O106 1.969 1_556 S
Zn100 O107 1.965 . S
Zn100 O111 2.024 . S
Zn100 O116 1.969 . S
Zn101 O108 1.969 . S
Zn101 O114 1.969 . S
Zn101 O115 1.965 . S
Zn101 O117 2.024 . S
C102 O103 1.229 1_556 S
C102 O111 1.058 . S
O103 C102 1.229 1_554 S
C104 O105 1.229 . S
C104 O117 1.058 . S
O105 C104 1.229 . S
O106 Zn100 1.969 1_554 S
O106 C109 1.267 . S
O107 Zn100 1.965 . S
O107 C118 1.260 . S
O108 Zn101 1.969 . S
O108 C118 1.258 . S
C109 O106 1.267 . S
C109 O110 1.228 . S
O110 C109 1.228 . S
O111 Zn100 2.024 . S
O111 C102 1.058 . S
C112 O113 1.228 . S
C112 O114 1.267 . S
O113 C112 1.228 . S
O114 Zn101 1.969 . S
O114 C112 1.267 . S
O115 Zn101 1.965 . S
O115 C119 1.260 . S
O116 Zn100 1.969 . S
O116 C119 1.258 . S
O117 Zn101 2.024 . S
O117 C104 1.058 . S
C118 O107 1.260 . S
C118 O108 1.258 . S
C119 O115 1.260 . S
C119 O116 1.258 . S
Zn120 O126 1.969 . S
Zn120 O127 1.965 . S
Zn120 O131 2.024 . S
Zn120 O136 1.969 . S
Zn121 O128 1.969 . S
Zn121 O134 1.969 1_554 S
Zn121 O135 1.965 . S
Zn121 O137 2.024 . S
C122 O123 1.229 . S
C122 O131 1.058 . S
O123 C122 1.229 . S
C124 O125 1.229 1_554 S
C124 O137 1.058 . S
O125 C124 1.229 1_556 S
O126 Zn120 1.969 . S
O126 C129 1.267 . S
O127 Zn120 1.965 . S
O127 C138 1.260 . S
O128 Zn121 1.969 . S
O128 C138 1.258 . S
C129 O126 1.267 . S
C129 O130 1.228 . S
O130 C129 1.228 . S
O131 Zn120 2.024 . S
O131 C122 1.058 . S
C132 O133 1.228 . S
C132 O134 1.267 . S
O133 C132 1.228 . S
O134 Zn121 1.969 1_556 S
O134 C132 1.267 . S
O135 Zn121 1.965 . S
O135 C139 1.260 . S
O136 Zn120 1.969 . S
O136 C139 1.258 . S
O137 Zn121 2.024 . S
O137 C124 1.058 . S
C138 O127 1.260 . S
C138 O128 1.258 . S
C139 O135 1.260 . S
C139 O136 1.258 . S
Zn140 O146 1.969 1_556 S
Zn140 O147 1.965 . S
Zn140 O151 2.024 . S
Zn140 O156 1.969 . S
Zn141 O148 1.969 . S
Zn141 O154 1.969 . S
Zn141 O155 1.965 . S
Zn141 O157 2.024 . S
C142 O143 1.229 1_556 S
C142 O151 1.058 . S
O143 C142 1.229 1_554 S
C144 O145 1.229 . S
C144 O157 1.058 . S
O145 C144 1.229 . S
O146 Zn140 1.969 1_554 S
O146 C149 1.267 . S
O147 Zn140 1.965 . S
O147 C158 1.260 . S
O148 Zn141 1.969 . S
O148 C158 1.258 . S
C149 O146 1.267 . S
C149 O150 1.228 . S
O150 C149 1.228 . S
O151 Zn140 2.024 . S
O151 C142 1.058 . S
C152 O153 1.228 . S
C152 O154 1.267 . S
O153 C152 1.228 . S
O154 Zn141 1.969 . S
O154 C152 1.267 . S
O155 Zn141 1.965 . S
O155 C159 1.260 . S
O156 Zn140 1.969 . S
O156 C159 1.258 . S
O157 Zn141 2.024 . S
O157 C144 1.058 . S
C158 O147 1.260 . S
C158 O148 1.258 . S
C159 O155 1.260 . S
C159 O156 1.258 . S
Zn160 O166 1.969 . S
Zn160 O167 1.965 . S
Zn160 O171 2.024 . S
Zn160 O176 1.969 . S
Zn161 O168 1.969 . S
Zn161 O174 1.969 . S
Zn161 O175 1.965 . S
Zn161 O177 2.024 . S
C162 O163 1.229 . S
C162 O171 1.058 . S
O163 C162 1.229 . S
C164 O165 1.229 . S
C164 O177 1.058 . S
O165 C164 1.229 . S
O166 Zn160 1.969 . S
O166 C169 1.267 . S
O167 Zn160 1.965 . S
O167 C178 1.260 . S
O168 Zn161 1.969 . S
O168 C178 1.258 . S
C169 O166 1.267 . S
C169 O170 1.228 . S
O170 C169 1.228 . S
O171 Zn160 2.024 . S
O171 C162 1.058 . S
C172 O173 1.228 . S
C172 O174 1.267 . S
O173 C172 1.228 . S
O174 Zn161 1.969 . S
O174 C172 1.267 . S
O175 Zn161 1.965 . S
O175 C179 1.260 . S
O176 Zn160 1.969 . S
O176 C179 1.258 . S
O177 Zn161 2.024 . S
O177 C164 1.058 . S
C178 O167 1.260 . S
C178 O168 1.258 . S
C179 O175 1.260 . S
C179 O176 1.258 . S
Zn180 O186 1.969 . S
Zn180 O187 1.965 . S
Zn180 O191 2.024 . S
Zn180 O196 1.969 . S
Zn181 O188 1.969 . S
Zn181 O194 1.969 . S
Zn181 O195 1.965 . S
Zn181 O197 2.024 . S
C182 O183 1.229 . S
C182 O191 1.058 . S
O183 C182 1.229 . S
C184 O185 1.229 . S
C184 O197 1.058 . S
O185 C184 1.229 . S
O186 Zn180 1.969 . S
O186 C189 1.267 . S
O187 Zn180 1.965 . S
O187 C198 1.260 . S
O188 Zn181 1.969 . S
O188 C198 1.258 . S
C189 O186 1.267 . S
C189 O190 1.228 . S
O190 C189 1.228 . S
O191 Zn180 2.024 . S
O191 C182 1.058 . S
C192 O193 1.228 . S
C192 O194 1.267 . S
O193 C192 1.228 . S
O194 Zn181 1.969 . S
O194 C192 1.267 . S
O195 Zn181 1.965 . S
O195 C199 1.260 . S
O196 Zn180 1.969 . S
O196 C199 1.258 . S
O197 Zn181 2.024 . S
O197 C184 1.058 . S
C198 O187 1.260 . S
C198 O188 1.258 . S
C199 O195 1.260 . S
C199 O196 1.258 . S
Zn200 O206 1.969 . S
Zn200 O207 1.965 . S
Zn200 O211 2.024 . S
Zn200 O216 1.969 . S
Zn201 O208 1.969 . S
Zn201 O214 1.969 . S
Zn201 O215 1.965 . S
Zn201 O217 2.024 . S
C202 O203 1.229 . S
C202 O211 1.058 . S
O203 C202 1.229 . S
C204 O205 1.229 . S
C204 O217 1.058 . S
O205 C204 1.229 . S
O206 Zn200 1.969 . S
O206 C209 1.267 . S
O207 Zn200 1.965 . S
O207 C218 1.260 . S
O208 Zn201 1.969 . S
O208 C218 1.258 . S
C209 O206 1.267 . S
C209 O210 1.228 . S
O210 C209 1.228 . S
O211 Zn200 2.024 . S
O211 C202 1.058 . S
C212 O213 1.228 . S
C212 O214 1.267 . S
O213 C212 1.228 . S
O214 Zn201 1.969 . S
O214 C212 1.267 . S
O215 Zn201 1.965 . S
O215 C219 1.260 . S
O216 Zn200 1.969 . S
O216 C219 1.258 . S
O217 Zn201 2.024 . S
O217 C204 1.058 . S
C218 O207 1.260 . S
C218 O208 1.258 . S
C219 O215 1.260 . S
C219 O216 1.258 . S
Zn220 O226 1.969 . S
Zn220 O227 1.965 . S
Zn220 O231 2.024 . S
Zn220 O236 1.969 . S
Zn221 O228 1.969 . S
Zn221 O234 1.969 . S
Zn221 O235 1.965 . S
Zn221 O237 2.024 . S
C222 O223 1.229 . S
C222 O231 1.058 . S
O223 C222 1.229 . S
C224 O225 1.229 . S
C224 O237 1.058 . S
O225 C224 1.229 . S
O226 Zn220 1.969 . S
O226 C229 1.267 . S
O227 Zn220 1.965 . S
O227 C238 1.260 . S
O228 Zn221 1.969 . S
O228 C238 1.258 . S
C229 O226 1.267 . S
C229 O230 1.228 . S
O230 C229 1.228 . S
O231 Zn220 2.024 . S
O231 C222 1.058 . S
C232 O233 1.228 . S
C232 O234 1.267 . S
O233 C232 1.228 . S
O234 Zn221 1.969 . S
O234 C232 1.267 . S
O235 Zn221 1.965 . S
O235 C239 1.260 . S
O236 Zn220 1.969 . S
O236 C239 1.258 . S
O237 Zn221 2.024 . S
O237 C224 1.058 . S
C238 O227 1.260 . S
C238 O228 1.258 . S
C239 O235 1.260 . S
C239 O236 1.258 . S
Zn240 O246 1.969 . S
Zn240 O247 1.965 . S
Zn240 O251 2.024 . S
Zn240 O256 1.969 . S
Zn241 O248 1.969 . S
Zn241 O254 1.969 . S
Zn241 O255 1.965 . S
Zn241 O257 2.024 . S
C242 O243 1.229 . S
C242 O251 1.058 . S
O243 C242 1.229 . S
C244 O245 1.229 . S
C244 O257 1.058 . S
O245 C244 1.229 . S
O246 Zn240 1.969 . S
O246 C249 1.267 . S
O247 Zn240 1.965 . S
O247 C258 1.260 . S
O248 Zn241 1.969 . S
O248 C258 1.258 . S
C249 O246 1.267 . S
C249 O250 1.228 . S
O250 C249 1.228 . S
O251 Zn240 2.024 . S
O251 C242 1.058 . S
C252 O253 1.228 . S
C252 O254 1.267 . S
O253 C252 1.228 . S
O254 Zn241 1.969 . S
O254 C252 1.267 . S
O255 Zn241 1.965 . S
O255 C259 1.260 . S
O256 Zn240 1.969 . S
O256 C259 1.258 . S
O257 Zn241 2.024 . S
O257 C244 1.058 . S
C258 O247 1.260 . S
C258 O248 1.258 . S
C259 O255 1.260 . S
C259 O256 1.258 . S
Zn260 O266 1.969 . S
Zn260 O267 1.965 . S
Zn260 O271 2.024 . S
Zn260 O276 1.969 . S
Zn261 O268 1.969 . S
Zn261 O274 1.969 . S
Zn261 O275 1.965 . S
Zn261 O277 2.024 . S
C262 O263 1.229 . S
C262 O271 1.058 . S
O263 C262 1.229 . S
C264 O265 1.229 . S
C264 O277 1.058 . S
O265 C264 1.229 . S
O266 Zn260 1.969 . S
O266 C269 1.267 . S
O267 Zn260 1.965 . S
O267 C278 1.260 . S
O268 Zn261 1.969 . S
O268 C278 1.258 . S
C269 O266 1.267 . S
C269 O270 1.228 . S
O270 C269 1.228 . S
O271 Zn260 2.024 . S
O271 C262 1.058 . S
C272 O273 1.228 . S
C272 O274 1.267 . S
O273 C272 1.228 . S
O274 Zn261 1.969 . S
O274 C272 1.267 . S
O275 Zn261 1.965 . S
O275 C279 1.260 . S
O276 Zn260 1.969 . S
O276 C279 1.258 . S
O277 Zn261 2.024 . S
O277 C264 1.058 . S
C278 O267 1.260 . S
C278 O268 1.258 . S
C279 O275 1.260 . S
C279 O276 1.258 . S
Zn280 O286 1.969 . S
Zn280 O287 1.965 . S
Zn280 O291 2.024 . S
Zn280 O296 1.969 . S
Zn281 O288 1.969 . S
Zn281 O294 1.969 . S
Zn281 O295 1.965 . S
Zn281 O297 2.024 . S
C282 O283 1.229 . S
C282 O291 1.058 . S
O283 C282 1.229 . S
C284 O285 1.229 . S
C284 O297 1.058 . S
O285 C284 1.229 . S
O286 Zn280 1.969 . S
O286 C289 1.267 . S
O287 Zn280 1.965 . S
O287 C298 1.260 . S
O288 Zn281 1.969 . S
O288 C298 1.258 . S
C289 O286 1.267 . S
C289 O290 1.228 . S
O290 C289 1.228 . S
O291 Zn280 2.024 . S
O291 C282 1.058 . S
C292 O293 1.228 . S
C292 O294 1.267 . S
O293 C292 1.228 . S
O294 Zn281 1.969 . S
O294 C292 1.267 . S
O295 Zn281 1.965 . S
O295 C299 1.260 . S
O296 Zn280 1.969 . S
O296 C299 1.258 . S
O297 Zn281 2.024 . S
O297 C284 1.058 . S
C298 O287 1.260 . S
C298 O288 1.258 . S
C299 O295 1.260 . S
C299 O296 1.258 . S
Zn300 O306 1.969 . S
Zn300 O307 1.965 . S
Zn300 O311 2.024 . S
Zn300 O316 1.969 . S
Zn301 O308 1.969 . S
Zn301 O314 1.969 . S
Zn301 O315 1.965 . S
Zn301 O317 2.024 . S
C302 O303 1.229 . S
C302 O311 1.058 . S
O303 C302 1.229 . S
C304 O305 1.229 . S
C304 O317 1.058 . S
O305 C304 1.229 . S
O306 Zn300 1.969 . S
O306 C309 1.267 . S
O307 Zn300 1.965 . S
O307 C318 1.260 . S
O308 Zn301 1.969 . S
O308 C318 1.258 . S
C309 O306 1.267 . S
C309 O310 1.228 . S
O310 C309 1.228 . S
O311 Zn300 2.024 . S
O311 C302 1.058 . S
C312 O313 1.228 . S
C312 O314 1.267 . S
O313 C312 1.228 . S
O314 Zn301 1.969 . S
O314 C312 1.267 . S
O315 Zn301 1.965 . S
O315 C319 1.260 . S
O316 Zn300 1.969 . S
O316 C319 1.258 . S
O317 Zn301 2.024 . S
O317 C304 1.058 . S
C318 O307 1.260 . S
C318 O308 1.258 . S
C319 O315 1.260 . S
C319 O316 1.258 . S
C320 C321 1.391 . S
C320 C322 1.444 . S
C320 H336 0.931 . S
C321 C320 1.391 . S
C321 C325 1.376 . S
C322 C320 1.444 . S
C322 C323 1.353 1_565 S
C322 C326 1.497 1_565 S
C323 C322 1.353 1_545 S
C323 C324 1.410 1_545 S
C323 C331 1.503 . S
C324 C323 1.410 1_565 S
C324 C325 1.392 . S
C324 C327 1.511 . S
C325 C321 1.376 . S
C325 C324 1.392 . S
C325 H337 0.929 . S
C326 C322 1.497 1_545 S
C326 H338 0.960 . S
C326 H339 0.962 . S
C326 H340 0.960 . S
C327 C324 1.511 . S
C327 H341 0.961 . S
C327 H342 0.961 1_565 S
C327 H343 0.961 1_565 S
C328 C329 1.370 . S
C328 C330 1.363 . S
C328 H344 0.931 . S
C329 C328 1.370 . S
C329 C333 1.408 . S
C330 C328 1.363 . S
C330 C331 1.370 . S
C330 C334 1.524 . S
C331 C323 1.503 . S
C331 C330 1.370 . S
C331 C332 1.403 . S
C332 C331 1.403 . S
C332 C333 1.404 . S
C332 C335 1.539 . S
C333 C329 1.408 . S
C333 C332 1.404 . S
C333 H345 0.930 . S
C334 C330 1.524 . S
C334 H346 0.956 . S
C334 H347 0.961 . S
C334 H348 0.961 . S
C335 C332 1.539 . S
C335 H349 0.958 . S
C335 H350 0.961 . S
C335 H351 0.960 . S
H336 C320 0.931 . S
H337 C325 0.929 . S
H338 C326 0.960 . S
H339 C326 0.962 . S
H340 C326 0.960 . S
H341 C327 0.961 . S
H342 C327 0.961 1_545 S
H343 C327 0.961 1_545 S
H344 C328 0.931 . S
H345 C333 0.930 . S
H346 C334 0.956 . S
H347 C334 0.961 . S
H348 C334 0.961 . S
H349 C335 0.958 . S
H350 C335 0.961 . S
H351 C335 0.960 . S
C352 C353 1.391 . S
C352 C354 1.394 . S
C352 H368 0.931 . S
C353 C352 1.391 . S
C353 C357 1.376 . S
C354 C352 1.394 . S
C354 C355 1.369 1_655 S
C354 C358 1.531 . S
C355 C354 1.369 1_455 S
C355 C356 1.407 1_455 S
C355 C363 1.503 . S
C356 C355 1.407 1_655 S
C356 C357 1.402 . S
C356 C359 1.504 1_655 S
C357 C353 1.376 . S
C357 C356 1.402 . S
C357 H369 0.929 . S
C358 C354 1.531 . S
C358 H370 0.960 1_655 S
C358 H371 0.962 . S
C358 H372 0.960 . S
C359 C356 1.504 1_455 S
C359 H373 0.961 . S
C359 H374 0.961 . S
C359 H375 0.961 . S
C360 C361 1.370 . S
C360 C362 1.363 . S
C360 H376 0.931 . S
C361 C360 1.370 . S
C361 C365 1.408 . S
C362 C360 1.363 . S
C362 C363 1.370 . S
C362 C366 1.524 . S
C363 C355 1.503 . S
C363 C362 1.370 . S
C363 C364 1.403 . S
C364 C363 1.403 . S
C364 C365 1.404 . S
C364 C367 1.539 . S
C365 C361 1.408 . S
C365 C364 1.404 . S
C365 H377 0.930 . S
C366 C362 1.524 . S
C366 H378 0.956 . S
C366 H379 0.961 . S
C366 H380 0.961 . S
C367 C364 1.539 . S
C367 H381 0.958 . S
C367 H382 0.961 . S
C367 H383 0.960 . S
H368 C352 0.931 . S
H369 C357 0.929 . S
H370 C358 0.960 1_455 S
H371 C358 0.962 . S
H372 C358 0.960 . S
H373 C359 0.961 . S
H374 C359 0.961 . S
H375 C359 0.961 . S
H376 C360 0.931 . S
H377 C365 0.930 . S
H378 C366 0.956 . S
H379 C366 0.961 . S
H380 C366 0.961 . S
H381 C367 0.958 . S
H382 C367 0.961 . S
H383 C367 0.960 . S
C384 C385 1.391 . S
C384 C386 1.394 . S
C384 H400 0.931 . S
C385 C384 1.391 . S
C385 C389 1.376 . S
C386 C384 1.394 . S
C386 C387 1.369 . S
C386 C390 1.531 . S
C387 C386 1.369 . S
C387 C388 1.410 . S
C387 C395 1.503 . S
C388 C387 1.410 . S
C388 C389 1.392 . S
C388 C391 1.511 . S
C389 C385 1.376 . S
C389 C388 1.392 . S
C389 H401 0.929 . S
C390 C386 1.531 . S
C390 H402 0.960 . S
C390 H403 0.962 . S
C390 H404 0.960 . S
C391 C388 1.511 . S
C391 H405 0.961 . S
C391 H406 0.961 . S
C391 H407 0.961 . S
C392 C393 1.370 . S
C392 C394 1.363 . S
C392 H408 0.931 . S
C393 C392 1.370 . S
C393 C397 1.408 . S
C394 C392 1.363 . S
C394 C395 1.370 1_545 S
C394 C398 1.524 1_545 S
C395 C387 1.503 . S
C395 C394 1.370 1_565 S
C395 C396 1.403 1_565 S
C396 C395 1.403 1_545 S
C396 C397 1.404 . S
C396 C399 1.539 1_545 S
C397 C393 1.408 . S
C397 C396 1.404 . S
C397 H409 0.930 . S
C398 C394 1.524 1_565 S
C398 H410 0.956 . S
C398 H411 0.961 . S
C398 H412 0.960 1_565 S
C399 C396 1.539 1_565 S
C399 H413 0.958 . S
C399 H414 0.961 . S
C399 H415 0.960 . S
H400 C384 0.931 . S
H401 C389 0.929 . S
H402 C390 0.960 . S
H403 C390 0.962 . S
H404 C390 0.960 . S
H405 C391 0.961 . S
H406 C391 0.961 . S
H407 C391 0.961 . S
H408 C392 0.931 . S
H409 C397 0.930 . S
H410 C398 0.956 . S
H411 C398 0.961 . S
H412 C398 0.960 1_545 S
H413 C399 0.958 . S
H414 C399 0.961 . S
H415 C399 0.960 . S
C416 C417 1.391 . S
C416 C418 1.394 . S
C416 H432 0.931 . S
C417 C416 1.391 . S
C417 C421 1.376 . S
C418 C416 1.394 . S
C418 C419 1.369 . S
C418 C422 1.531 . S
C419 C418 1.369 . S
C419 C420 1.410 . S
C419 C427 1.503 . S
C420 C419 1.410 . S
C420 C421 1.392 . S
C420 C423 1.511 . S
C421 C417 1.376 . S
C421 C420 1.392 . S
C421 H433 0.929 . S
C422 C418 1.531 . S
C422 H434 0.960 . S
C422 H435 0.962 . S
C422 H436 0.960 . S
C423 C420 1.511 . S
C423 H437 0.961 . S
C423 H438 0.961 . S
C423 H439 0.961 . S
C424 C425 1.370 . S
C424 C426 1.363 . S
C424 H440 0.931 . S
C425 C424 1.370 . S
C425 C429 1.408 . S
C426 C424 1.363 . S
C426 C427 1.370 1_455 S
C426 C430 1.524 1_455 S
C427 C419 1.503 . S
C427 C426 1.370 1_655 S
C427 C428 1.403 1_655 S
C428 C427 1.403 1_455 S
C428 C429 1.404 . S
C428 C431 1.539 1_455 S
C429 C425 1.408 . S
C429 C428 1.404 . S
C429 H441 0.930 . S
C430 C426 1.524 1_655 S
C430 H442 0.956 . S
C430 H443 0.961 . S
C430 H444 0.961 1_655 S
C431 C428 1.539 1_655 S
C431 H445 0.958 . S
C431 H446 0.961 . S
C431 H447 0.960 . S
H432 C416 0.931 . S
H433 C421 0.929 . S
H434 C422 0.960 . S
H435 C422 0.962 . S
H436 C422 0.960 . S
H437 C423 0.961 . S
H438 C423 0.961 . S
H439 C423 0.961 . S
H440 C424 0.931 . S
H441 C429 0.930 . S
H442 C430 0.956 . S
H443 C430 0.961 . S
H444 C430 0.961 1_455 S
H445 C431 0.958 . S
H446 C431 0.961 . S
H447 C431 0.960 . S
C448 C449 1.391 . S
C448 C450 1.394 . S
C448 H464 0.931 . S
C449 C448 1.391 . S
C449 C453 1.376 . S
C450 C448 1.394 . S
C450 C451 1.369 . S
C450 C454 1.531 . S
C451 C450 1.369 . S
C451 C452 1.410 . S
C451 C459 1.503 . S
C452 C451 1.410 . S
C452 C453 1.392 . S
C452 C455 1.511 1_554 S
C453 C449 1.376 . S
C453 C452 1.392 . S
C453 H465 0.929 . S
C454 C450 1.531 . S
C454 H466 0.960 . S
C454 H467 0.962 . S
C454 H468 0.960 . S
C455 C452 1.511 1_556 S
C455 H469 0.961 . S
C455 H470 0.961 . S
C455 H471 0.961 1_556 S
C456 C457 1.370 . S
C456 C458 1.363 . S
C456 H472 0.931 . S
C457 C456 1.370 . S
C457 C461 1.408 1_556 S
C458 C456 1.363 . S
C458 C459 1.370 1_556 S
C458 C462 1.524 . S
C459 C451 1.503 . S
C459 C458 1.370 1_554 S
C459 C460 1.403 . S
C460 C459 1.403 . S
C460 C461 1.404 . S
C460 C463 1.539 . S
C461 C457 1.408 1_554 S
C461 C460 1.404 . S
C461 H473 0.930 . S
C462 C458 1.524 . S
C462 H474 0.956 . S
C462 H475 0.961 . S
C462 H476 0.961 . S
C463 C460 1.539 . S
C463 H477 0.958 . S
C463 H478 0.961 . S
C463 H479 0.960 . S
H464 C448 0.931 . S
H465 C453 0.929 . S
H466 C454 0.960 . S
H467 C454 0.962 . S
H468 C454 0.960 . S
H469 C455 0.961 . S
H470 C455 0.961 . S
H471 C455 0.961 1_554 S
H472 C456 0.931 . S
H473 C461 0.930 . S
H474 C462 0.956 . S
H475 C462 0.961 . S
H476 C462 0.961 . S
H477 C463 0.958 . S
H478 C463 0.961 . S
H479 C463 0.960 . S
C480 C481 1.391 1_556 S
C480 C482 1.394 . S
C480 H496 0.931 . S
C481 C480 1.391 1_554 S
C481 C485 1.376 . S
C482 C480 1.394 . S
C482 C483 1.369 . S
C482 C486 1.531 . S
C483 C482 1.369 . S
C483 C484 1.410 . S
C483 C491 1.503 . S
C484 C483 1.410 . S
C484 C485 1.392 1_556 S
C484 C487 1.511 1_556 S
C485 C481 1.376 . S
C485 C484 1.392 1_554 S
C485 H497 0.929 . S
C486 C482 1.531 . S
C486 H498 0.960 . S
C486 H499 0.962 . S
C486 H500 0.960 . S
C487 C484 1.511 1_554 S
C487 H501 0.961 . S
C487 H502 0.961 . S
C487 H503 0.961 1_554 S
C488 C489 1.370 . S
C488 C490 1.363 . S
C488 H504 0.931 1_556 S
C489 C488 1.370 . S
C489 C493 1.408 . S
C490 C488 1.363 . S
C490 C491 1.370 . S
C490 C494 1.524 1_556 S
C491 C483 1.503 . S
C491 C490 1.370 . S
C491 C492 1.403 . S
C492 C491 1.403 . S
C492 C493 1.404 . S
C492 C495 1.539 . S
C493 C489 1.408 . S
C493 C492 1.404 . S
C493 H505 0.930 . S
C494 C490 1.524 1_554 S
C494 H506 0.956 . S
C494 H507 0.961 . S
C494 H508 0.961 . S
C495 C492 1.539 . S
C495 H509 0.958 . S
C495 H510 0.961 . S
C495 H511 0.960 . S
H496 C480 0.931 . S
H497 C485 0.929 . S
H498 C486 0.960 . S
H499 C486 0.962 . S
H500 C486 0.960 . S
H501 C487 0.961 . S
H502 C487 0.961 . S
H503 C487 0.961 1_556 S
H504 C488 0.931 1_554 S
H505 C493 0.930 . S
H506 C494 0.956 . S
H507 C494 0.961 . S
H508 C494 0.961 . S
H509 C495 0.958 . S
H510 C495 0.961 . S
H511 C495 0.960 . S
C512 C513 1.391 . S
C512 C514 1.394 . S
C512 H528 0.931 . S
C513 C512 1.391 . S
C513 C517 1.376 . S
C514 C512 1.394 . S
C514 C515 1.369 . S
C514 C518 1.531 1_554 S
C515 C514 1.369 . S
C515 C516 1.410 . S
C515 C523 1.503 . S
C516 C515 1.410 . S
C516 C517 1.392 . S
C516 C519 1.511 . S
C517 C513 1.376 . S
C517 C516 1.392 . S
C517 H529 0.929 . S
C518 C514 1.531 1_556 S
C518 H530 0.960 . S
C518 H531 0.962 1_556 S
C518 H532 0.960 . S
C519 C516 1.511 . S
C519 H533 0.961 . S
C519 H534 0.961 . S
C519 H535 0.961 . S
C520 C521 1.370 1_554 S
C520 C522 1.363 . S
C520 H536 0.931 . S
C521 C520 1.370 1_556 S
C521 C525 1.408 . S
C522 C520 1.363 . S
C522 C523 1.370 . S
C522 C526 1.524 . S
C523 C515 1.503 . S
C523 C522 1.370 . S
C523 C524 1.403 1_554 S
C524 C523 1.403 1_556 S
C524 C525 1.404 . S
C524 C527 1.539 . S
C525 C521 1.408 . S
C525 C524 1.404 . S
C525 H537 0.930 . S
C526 C522 1.524 . S
C526 H538 0.956 . S
C526 H539 0.961 . S
C526 H540 0.961 . S
C527 C524 1.539 . S
C527 H541 0.958 . S
C527 H542 0.961 . S
C527 H543 0.960 . S
H528 C512 0.931 . S
H529 C517 0.929 . S
H530 C518 0.960 . S
H531 C518 0.962 1_554 S
H532 C518 0.960 . S
H533 C519 0.961 . S
H534 C519 0.961 . S
H535 C519 0.961 . S
H536 C520 0.931 . S
H537 C525 0.930 . S
H538 C526 0.956 . S
H539 C526 0.961 . S
H540 C526 0.961 . S
H541 C527 0.958 . S
H542 C527 0.961 . S
H543 C527 0.960 . S
C544 C545 1.391 . S
C544 C546 1.394 . S
C544 H560 0.931 . S
C545 C544 1.391 . S
C545 C549 1.376 1_554 S
C546 C544 1.394 . S
C546 C547 1.369 1_554 S
C546 C550 1.531 . S
C547 C546 1.369 1_556 S
C547 C548 1.410 . S
C547 C555 1.503 . S
C548 C547 1.410 . S
C548 C549 1.392 . S
C548 C551 1.511 . S
C549 C545 1.376 1_556 S
C549 C548 1.392 . S
C549 H561 0.929 . S
C550 C546 1.531 . S
C550 H562 0.960 . S
C550 H563 0.962 . S
C550 H564 0.960 . S
C551 C548 1.511 . S
C551 H565 0.961 . S
C551 H566 0.961 . S
C551 H567 0.961 . S
C552 C553 1.370 . S
C552 C554 1.363 . S
C552 H568 0.931 . S
C553 C552 1.370 . S
C553 C557 1.408 . S
C554 C552 1.363 . S
C554 C555 1.370 . S
C554 C558 1.524 . S
C555 C547 1.503 . S
C555 C554 1.370 . S
C555 C556 1.403 . S
C556 C555 1.403 . S
C556 C557 1.404 . S
C556 C559 1.539 1_556 S
C557 C553 1.408 . S
C557 C556 1.404 . S
C557 H569 0.930 . S
C558 C554 1.524 . S
C558 H570 0.956 . S
C558 H571 0.961 . S
C558 H572 0.961 . S
C559 C556 1.539 1_554 S
C559 H573 0.958 . S
C559 H574 0.961 . S
C559 H575 0.960 . S
H560 C544 0.931 . S
H561 C549 0.929 . S
H562 C550 0.960 . S
H563 C550 0.962 . S
H564 C550 0.960 . S
H565 C551 0.961 . S
H566 C551 0.961 . S
H567 C551 0.961 . S
H568 C552 0.931 . S
H569 C557 0.930 . S
H570 C558 0.956 . S
H571 C558 0.961 . S
H572 C558 0.961 . S
H573 C559 0.958 . S
H574 C559 0.961 . S
H575 C559 0.960 . S
C576 C577 1.391 . S
C576 C578 1.394 . S
C576 H592 0.931 . S
C577 C576 1.391 . S
C577 C581 1.376 . S
C578 C576 1.394 . S
C578 C579 1.369 . S
C578 C582 1.531 . S
C579 C578 1.369 . S
C579 C580 1.410 . S
C579 C587 1.503 . S
C580 C579 1.410 . S
C580 C581 1.392 . S
C580 C583 1.511 . S
C581 C577 1.376 . S
C581 C580 1.392 . S
C581 H593 0.929 . S
C582 C578 1.531 . S
C582 H594 0.960 . S
C582 H595 0.962 . S
C582 H596 0.960 . S
C583 C580 1.511 . S
C583 H597 0.961 . S
C583 H598 0.961 . S
C583 H599 0.961 . S
C584 C585 1.370 . S
C584 C586 1.363 . S
C584 H600 0.931 . S
C585 C584 1.370 . S
C585 C589 1.408 . S
C586 C584 1.363 . S
C586 C587 1.370 . S
C586 C590 1.524 . S
C587 C579 1.503 . S
C587 C586 1.370 . S
C587 C588 1.403 . S
C588 C587 1.403 . S
C588 C589 1.404 . S
C588 C591 1.539 . S
C589 C585 1.408 . S
C589 C588 1.404 . S
C589 H601 0.930 . S
C590 C586 1.524 . S
C590 H602 0.956 . S
C590 H603 0.961 . S
C590 H604 0.961 . S
C591 C588 1.539 . S
C591 H605 0.958 . S
C591 H606 0.961 . S
C591 H607 0.960 . S
H592 C576 0.931 . S
H593 C581 0.929 . S
H594 C582 0.960 . S
H595 C582 0.962 . S
H596 C582 0.960 . S
H597 C583 0.961 . S
H598 C583 0.961 . S
H599 C583 0.961 . S
H600 C584 0.931 . S
H601 C589 0.930 . S
H602 C590 0.956 . S
H603 C590 0.961 . S
H604 C590 0.961 . S
H605 C591 0.958 . S
H606 C591 0.961 . S
H607 C591 0.960 . S
C608 C609 1.391 . S
C608 C610 1.394 . S
C608 H624 0.931 . S
C609 C608 1.391 . S
C609 C613 1.376 . S
C610 C608 1.394 . S
C610 C611 1.369 . S
C610 C614 1.531 . S
C611 C610 1.369 . S
C611 C612 1.410 . S
C611 C619 1.503 . S
C612 C611 1.410 . S
C612 C613 1.392 . S
C612 C615 1.511 . S
C613 C609 1.376 . S
C613 C612 1.392 . S
C613 H625 0.929 . S
C614 C610 1.531 . S
C614 H626 0.960 . S
C614 H627 0.962 . S
C614 H628 0.960 . S
C615 C612 1.511 . S
C615 H629 0.961 . S
C615 H630 0.961 . S
C615 H631 0.961 . S
C616 C617 1.370 . S
C616 C618 1.363 . S
C616 H632 0.931 . S
C617 C616 1.370 . S
C617 C621 1.408 . S
C618 C616 1.363 . S
C618 C619 1.370 . S
C618 C622 1.524 . S
C619 C611 1.503 . S
C619 C618 1.370 . S
C619 C620 1.403 . S
C620 C619 1.403 . S
C620 C621 1.404 . S
C620 C623 1.539 . S
C621 C617 1.408 . S
C621 C620 1.404 . S
C621 H633 0.930 . S
C622 C618 1.524 . S
C622 H634 0.956 . S
C622 H635 0.961 . S
C622 H636 0.961 . S
C623 C620 1.539 . S
C623 H637 0.958 . S
C623 H638 0.961 . S
C623 H639 0.960 . S
H624 C608 0.931 . S
H625 C613 0.929 . S
H626 C614 0.960 . S
H627 C614 0.962 . S
H628 C614 0.960 . S
H629 C615 0.961 . S
H630 C615 0.961 . S
H631 C615 0.961 . S
H632 C616 0.931 . S
H633 C621 0.930 . S
H634 C622 0.956 . S
H635 C622 0.961 . S
H636 C622 0.961 . S
H637 C623 0.958 . S
H638 C623 0.961 . S
H639 C623 0.960 . S
C640 C641 1.391 . S
C640 C642 1.394 . S
C640 H656 0.931 . S
C641 C640 1.391 . S
C641 C645 1.376 . S
C642 C640 1.394 . S
C642 C643 1.369 . S
C642 C646 1.531 . S
C643 C642 1.369 . S
C643 C644 1.410 . S
C643 C651 1.503 . S
C644 C643 1.410 . S
C644 C645 1.392 . S
C644 C647 1.511 . S
C645 C641 1.376 . S
C645 C644 1.392 . S
C645 H657 0.929 . S
C646 C642 1.531 . S
C646 H658 0.960 . S
C646 H659 0.962 . S
C646 H660 0.960 . S
C647 C644 1.511 . S
C647 H661 0.961 . S
C647 H662 0.961 . S
C647 H663 0.961 . S
C648 C649 1.370 . S
C648 C650 1.363 . S
C648 H664 0.931 . S
C649 C648 1.370 . S
C649 C653 1.408 . S
C650 C648 1.363 . S
C650 C651 1.370 . S
C650 C654 1.524 . S
C651 C643 1.503 . S
C651 C650 1.370 . S
C651 C652 1.403 . S
C652 C651 1.403 . S
C652 C653 1.404 . S
C652 C655 1.539 . S
C653 C649 1.408 . S
C653 C652 1.404 . S
C653 H665 0.930 . S
C654 C650 1.524 . S
C654 H666 0.956 . S
C654 H667 0.961 . S
C654 H668 0.961 . S
C655 C652 1.539 . S
C655 H669 0.958 . S
C655 H670 0.961 . S
C655 H671 0.960 . S
H656 C640 0.931 . S
H657 C645 0.929 . S
H658 C646 0.960 . S
H659 C646 0.962 . S
H660 C646 0.960 . S
H661 C647 0.961 . S
H662 C647 0.961 . S
H663 C647 0.961 . S
H664 C648 0.931 . S
H665 C653 0.930 . S
H666 C654 0.956 . S
H667 C654 0.961 . S
H668 C654 0.961 . S
H669 C655 0.958 . S
H670 C655 0.961 . S
H671 C655 0.960 . S
C672 C673 1.391 . S
C672 C674 1.394 . S
C672 H688 0.931 . S
C673 C672 1.391 . S
C673 C677 1.376 . S
C674 C672 1.394 . S
C674 C675 1.369 . S
C674 C678 1.531 . S
C675 C674 1.369 . S
C675 C676 1.410 . S
C675 C683 1.503 . S
C676 C675 1.410 . S
C676 C677 1.392 . S
C676 C679 1.511 . S
C677 C673 1.376 . S
C677 C676 1.392 . S
C677 H689 0.929 . S
C678 C674 1.531 . S
C678 H690 0.960 . S
C678 H691 0.962 . S
C678 H692 0.960 . S
C679 C676 1.511 . S
C679 H693 0.961 . S
C679 H694 0.961 . S
C679 H695 0.961 . S
C680 C681 1.370 . S
C680 C682 1.363 . S
C680 H696 0.931 . S
C681 C680 1.370 . S
C681 C685 1.408 . S
C682 C680 1.363 . S
C682 C683 1.370 . S
C682 C686 1.524 . S
C683 C675 1.503 . S
C683 C682 1.370 . S
C683 C684 1.403 . S
C684 C683 1.403 . S
C684 C685 1.404 . S
C684 C687 1.539 . S
C685 C681 1.408 . S
C685 C684 1.404 . S
C685 H697 0.930 . S
C686 C682 1.524 . S
C686 H698 0.956 . S
C686 H699 0.961 . S
C686 H700 0.961 . S
C687 C684 1.539 . S
C687 H701 0.958 . S
C687 H702 0.961 . S
C687 H703 0.960 . S
H688 C672 0.931 . S
H689 C677 0.929 . S
H690 C678 0.960 . S
H691 C678 0.962 . S
H692 C678 0.960 . S
H693 C679 0.961 . S
H694 C679 0.961 . S
H695 C679 0.961 . S
H696 C680 0.931 . S
H697 C685 0.930 . S
H698 C686 0.956 . S
H699 C686 0.961 . S
H700 C686 0.961 . S
H701 C687 0.958 . S
H702 C687 0.961 . S
H703 C687 0.960 . S
C704 C705 1.391 . S
C704 C706 1.394 . S
C704 H720 0.931 . S
C705 C704 1.391 . S
C705 C709 1.376 . S
C706 C704 1.394 . S
C706 C707 1.369 . S
C706 C710 1.531 . S
C707 C706 1.369 . S
C707 C708 1.410 . S
C707 C715 1.503 . S
C708 C707 1.410 . S
C708 C709 1.392 . S
C708 C711 1.511 . S
C709 C705 1.376 . S
C709 C708 1.392 . S
C709 H721 0.929 . S
C710 C706 1.531 . S
C710 H722 0.960 . S
C710 H723 0.962 . S
C710 H724 0.960 . S
C711 C708 1.511 . S
C711 H725 0.961 . S
C711 H726 0.961 . S
C711 H727 0.961 . S
C712 C713 1.370 . S
C712 C714 1.368 . S
C712 H728 0.931 . S
C713 C712 1.370 . S
C713 C717 1.408 . S
C714 C712 1.368 . S
C714 C715 1.369 1_545 S
C714 C718 1.520 1_545 S
C715 C707 1.503 . S
C715 C714 1.369 1_565 S
C715 C716 1.403 1_565 S
C716 C715 1.403 1_545 S
C716 C717 1.404 . S
C716 C719 1.539 . S
C717 C713 1.408 . S
C717 C716 1.404 . S
C717 H729 0.930 . S
C718 C714 1.520 1_565 S
C718 H730 0.956 . S
C718 H731 0.961 . S
C718 H732 0.961 . S
C719 C716 1.539 . S
C719 H733 0.958 . S
C719 H734 0.961 . S
C719 H735 0.960 1_545 S
H720 C704 0.931 . S
H721 C709 0.929 . S
H722 C710 0.960 . S
H723 C710 0.962 . S
H724 C710 0.960 . S
H725 C711 0.961 . S
H726 C711 0.961 . S
H727 C711 0.961 . S
H728 C712 0.931 . S
H729 C717 0.930 . S
H730 C718 0.956 . S
H731 C718 0.961 . S
H732 C718 0.961 . S
H733 C719 0.958 . S
H734 C719 0.961 . S
H735 C719 0.960 1_565 S
C736 C737 1.391 . S
C736 C738 1.394 . S
C736 H752 0.931 . S
C737 C736 1.391 . S
C737 C741 1.376 . S
C738 C736 1.394 . S
C738 C739 1.369 1_455 S
C738 C742 1.531 1_455 S
C739 C738 1.369 1_655 S
C739 C740 1.410 1_655 S
C739 C747 1.503 . S
C740 C739 1.410 1_455 S
C740 C741 1.392 . S
C740 C743 1.511 1_455 S
C741 C737 1.376 . S
C741 C740 1.392 . S
C741 H753 0.929 . S
C742 C738 1.531 1_655 S
C742 H754 0.960 . S
C742 H755 0.962 . S
C742 H756 0.960 . S
C743 C740 1.511 1_655 S
C743 H757 0.961 1_655 S
C743 H758 0.961 . S
C743 H759 0.961 . S
C744 C745 1.370 . S
C744 C746 1.363 . S
C744 H760 0.931 . S
C745 C744 1.370 . S
C745 C749 1.408 . S
C746 C744 1.363 . S
C746 C747 1.370 . S
C746 C750 1.524 . S
C747 C739 1.503 . S
C747 C746 1.370 . S
C747 C748 1.403 . S
C748 C747 1.403 . S
C748 C749 1.404 . S
C748 C751 1.539 . S
C749 C745 1.408 . S
C749 C748 1.404 . S
C749 H761 0.930 . S
C750 C746 1.524 . S
C750 H762 0.956 . S
C750 H763 0.961 . S
C750 H764 0.961 . S
C751 C748 1.539 . S
C751 H765 0.958 . S
C751 H766 0.961 . S
C751 H767 0.960 . S
H752 C736 0.931 . S
H753 C741 0.929 . S
H754 C742 0.960 . S
H755 C742 0.962 . S
H756 C742 0.960 . S
H757 C743 0.961 1_455 S
H758 C743 0.961 . S
H759 C743 0.961 . S
H760 C744 0.931 . S
H761 C749 0.930 . S
H762 C750 0.956 . S
H763 C750 0.961 . S
H764 C750 0.961 . S
H765 C751 0.958 . S
H766 C751 0.961 . S
H767 C751 0.960 . S
C768 C769 1.391 . S
C768 C770 1.394 . S
C768 H784 0.931 . S
C769 C768 1.391 . S
C769 C773 1.376 . S
C770 C768 1.394 . S
C770 C771 1.369 1_565 S
C770 C774 1.531 1_565 S
C771 C770 1.369 1_545 S
C771 C772 1.410 1_545 S
C771 C779 1.503 . S
C772 C771 1.410 1_565 S
C772 C773 1.392 . S
C772 C775 1.511 1_565 S
C773 C769 1.376 . S
C773 C772 1.392 . S
C773 H785 0.929 . S
C774 C770 1.531 1_545 S
C774 H786 0.960 . S
C774 H787 0.962 . S
C774 H788 0.938 1_545 S
C775 C772 1.511 1_545 S
C775 H789 0.936 1_545 S
C775 H790 0.961 . S
C775 H791 0.961 . S
C776 C777 1.370 . S
C776 C778 1.363 . S
C776 H792 0.931 . S
C777 C776 1.370 . S
C777 C781 1.408 . S
C778 C776 1.363 . S
C778 C779 1.370 . S
C778 C782 1.524 . S
C779 C771 1.503 . S
C779 C778 1.370 . S
C779 C780 1.403 . S
C780 C779 1.403 . S
C780 C781 1.404 . S
C780 C783 1.539 . S
C781 C777 1.408 . S
C781 C780 1.404 . S
C781 H793 0.930 . S
C782 C778 1.524 . S
C782 H794 0.956 . S
C782 H795 0.961 . S
C782 H796 0.961 . S
C783 C780 1.539 . S
C783 H797 0.958 . S
C783 H798 0.961 . S
C783 H799 0.960 . S
H784 C768 0.931 . S
H785 C773 0.929 . S
H786 C774 0.960 . S
H787 C774 0.962 . S
H788 C774 0.938 1_565 S
H789 C775 0.936 1_565 S
H790 C775 0.961 . S
H791 C775 0.961 . S
H792 C776 0.931 . S
H793 C781 0.930 . S
H794 C782 0.956 . S
H795 C782 0.961 . S
H796 C782 0.961 . S
H797 C783 0.958 . S
H798 C783 0.961 . S
H799 C783 0.960 . S
C800 C801 1.391 . S
C800 C802 1.394 . S
C800 H816 0.931 . S
C801 C800 1.391 . S
C801 C805 1.376 . S
C802 C800 1.394 . S
C802 C803 1.369 . S
C802 C806 1.531 . S
C803 C802 1.369 . S
C803 C804 1.410 . S
C803 C811 1.503 . S
C804 C803 1.410 . S
C804 C805 1.392 . S
C804 C807 1.511 . S
C805 C801 1.376 . S
C805 C804 1.392 . S
C805 H817 0.929 . S
C806 C802 1.531 . S
C806 H818 0.960 . S
C806 H819 0.962 . S
C806 H820 0.960 . S
C807 C804 1.511 . S
C807 H821 0.961 . S
C807 H822 0.961 . S
C807 H823 0.961 . S
C808 C809 1.370 . S
C808 C810 1.363 . S
C808 H824 0.931 . S
C809 C808 1.370 . S
C809 C813 1.408 . S
C810 C808 1.363 . S
C810 C811 1.370 1_655 S
C810 C814 1.524 1_655 S
C811 C803 1.503 . S
C811 C810 1.370 1_455 S
C811 C812 1.403 1_455 S
C812 C811 1.403 1_655 S
C812 C813 1.404 . S
C812 C815 1.539 . S
C813 C809 1.408 . S
C813 C812 1.404 . S
C813 H825 0.930 . S
C814 C810 1.524 1_455 S
C814 H826 0.956 . S
C814 H827 0.961 . S
C814 H828 0.961 . S
C815 C812 1.539 . S
C815 H829 0.958 1_655 S
C815 H830 0.961 . S
C815 H831 0.960 1_655 S
H816 C800 0.931 . S
H817 C805 0.929 . S
H818 C806 0.960 . S
H819 C806 0.962 . S
H820 C806 0.960 . S
H821 C807 0.961 . S
H822 C807 0.961 . S
H823 C807 0.961 . S
H824 C808 0.931 . S
H825 C813 0.930 . S
H826 C814 0.956 . S
H827 C814 0.961 . S
H828 C814 0.961 . S
H829 C815 0.958 1_455 S
H830 C815 0.961 . S
H831 C815 0.960 1_455 S
C832 C833 1.391 . S
C832 C834 1.394 . S
C832 H848 0.931 . S
C833 C832 1.391 . S
C833 C837 1.376 . S
C834 C832 1.394 . S
C834 C835 1.369 . S
C834 C838 1.531 . S
C835 C834 1.369 . S
C835 C836 1.410 . S
C835 C843 1.503 . S
C836 C835 1.410 . S
C836 C837 1.392 . S
C836 C839 1.511 . S
C837 C833 1.376 . S
C837 C836 1.392 . S
C837 H849 0.929 . S
C838 C834 1.531 . S
C838 H850 0.960 . S
C838 H851 0.962 . S
C838 H852 0.960 1_554 S
C839 C836 1.511 . S
C839 H853 0.961 . S
C839 H854 0.961 . S
C839 H855 0.961 . S
C840 C841 1.370 . S
C840 C842 1.363 . S
C840 H856 0.931 . S
C841 C840 1.370 . S
C841 C845 1.408 . S
C842 C840 1.363 . S
C842 C843 1.370 . S
C842 C846 1.524 . S
C843 C835 1.503 . S
C843 C842 1.370 . S
C843 C844 1.403 . S
C844 C843 1.403 . S
C844 C845 1.404 . S
C844 C847 1.539 . S
C845 C841 1.408 . S
C845 C844 1.404 . S
C845 H857 0.930 . S
C846 C842 1.524 . S
C846 H858 0.956 . S
C846 H859 0.961 . S
C846 H860 0.961 . S
C847 C844 1.539 . S
C847 H861 0.958 1_554 S
C847 H862 0.961 . S
C847 H863 0.960 . S
H848 C832 0.931 . S
H849 C837 0.929 . S
H850 C838 0.960 . S
H851 C838 0.962 . S
H852 C838 0.960 1_556 S
H853 C839 0.961 . S
H854 C839 0.961 . S
H855 C839 0.961 . S
H856 C840 0.931 . S
H857 C845 0.930 . S
H858 C846 0.956 . S
H859 C846 0.961 . S
H860 C846 0.961 . S
H861 C847 0.958 1_556 S
H862 C847 0.961 . S
H863 C847 0.960 . S
C864 C865 1.391 . S
C864 C866 1.394 . S
C864 H880 0.931 . S
C865 C864 1.391 . S
C865 C869 1.376 . S
C866 C864 1.394 . S
C866 C867 1.369 . S
C866 C870 1.531 . S
C867 C866 1.369 . S
C867 C868 1.410 . S
C867 C875 1.503 . S
C868 C867 1.410 . S
C868 C869 1.392 . S
C868 C871 1.511 1_556 S
C869 C865 1.376 . S
C869 C868 1.392 . S
C869 H881 0.929 . S
C870 C866 1.531 . S
C870 H882 0.960 . S
C870 H883 0.962 . S
C870 H884 0.960 . S
C871 C868 1.511 1_554 S
C871 H885 0.961 . S
C871 H886 0.961 . S
C871 H887 0.961 . S
C872 C873 1.370 . S
C872 C874 1.363 . S
C872 H888 0.931 . S
C873 C872 1.370 . S
C873 C877 1.408 . S
C874 C872 1.363 . S
C874 C875 1.370 . S
C874 C878 1.524 . S
C875 C867 1.503 . S
C875 C874 1.370 . S
C875 C876 1.403 . S
C876 C875 1.403 . S
C876 C877 1.404 . S
C876 C879 1.539 . S
C877 C873 1.408 . S
C877 C876 1.404 . S
C877 H889 0.930 . S
C878 C874 1.524 . S
C878 H890 0.956 . S
C878 H891 0.961 . S
C878 H892 0.961 . S
C879 C876 1.539 . S
C879 H893 0.958 . S
C879 H894 0.961 . S
C879 H895 0.960 . S
H880 C864 0.931 . S
H881 C869 0.929 . S
H882 C870 0.960 . S
H883 C870 0.962 . S
H884 C870 0.960 . S
H885 C871 0.961 . S
H886 C871 0.961 . S
H887 C871 0.961 . S
H888 C872 0.931 . S
H889 C877 0.930 . S
H890 C878 0.956 . S
H891 C878 0.961 . S
H892 C878 0.961 . S
H893 C879 0.958 . S
H894 C879 0.961 . S
H895 C879 0.960 . S
C896 C897 1.391 . S
C896 C898 1.394 . S
C896 H912 0.931 . S
C897 C896 1.391 . S
C897 C901 1.376 . S
C898 C896 1.394 . S
C898 C899 1.369 . S
C898 C902 1.531 . S
C899 C898 1.369 . S
C899 C900 1.410 . S
C899 C907 1.503 . S
C900 C899 1.410 . S
C900 C901 1.392 . S
C900 C903 1.511 . S
C901 C897 1.376 . S
C901 C900 1.392 . S
C901 H913 0.929 . S
C902 C898 1.531 . S
C902 H914 0.960 . S
C902 H915 0.962 . S
C902 H916 0.960 . S
C903 C900 1.511 . S
C903 H917 0.961 1_554 S
C903 H918 0.961 . S
C903 H919 0.961 . S
C904 C905 1.370 . S
C904 C906 1.363 . S
C904 H920 0.931 . S
C905 C904 1.370 . S
C905 C909 1.408 . S
C906 C904 1.363 . S
C906 C907 1.370 . S
C906 C910 1.524 . S
C907 C899 1.503 . S
C907 C906 1.370 . S
C907 C908 1.403 . S
C908 C907 1.403 . S
C908 C909 1.404 . S
C908 C911 1.539 . S
C909 C905 1.408 . S
C909 C908 1.404 . S
C909 H921 0.930 . S
C910 C906 1.524 . S
C910 H922 0.956 . S
C910 H923 0.961 . S
C910 H924 0.961 . S
C911 C908 1.539 . S
C911 H925 0.958 . S
C911 H926 0.961 . S
C911 H927 0.960 . S
H912 C896 0.931 . S
H913 C901 0.929 . S
H914 C902 0.960 . S
H915 C902 0.962 . S
H916 C902 0.960 . S
H917 C903 0.961 1_556 S
H918 C903 0.961 . S
H919 C903 0.961 . S
H920 C904 0.931 . S
H921 C909 0.930 . S
H922 C910 0.956 . S
H923 C910 0.961 . S
H924 C910 0.961 . S
H925 C911 0.958 . S
H926 C911 0.961 . S
H927 C911 0.960 . S
C928 C929 1.391 . S
C928 C930 1.394 . S
C928 H944 0.931 . S
C929 C928 1.391 . S
C929 C933 1.376 . S
C930 C928 1.394 . S
C930 C931 1.369 . S
C930 C934 1.531 . S
C931 C930 1.369 . S
C931 C932 1.410 . S
C931 C939 1.503 . S
C932 C931 1.410 . S
C932 C933 1.392 . S
C932 C935 1.511 . S
C933 C929 1.376 . S
C933 C932 1.392 . S
C933 H945 0.929 . S
C934 C930 1.531 . S
C934 H946 0.960 . S
C934 H947 0.962 . S
C934 H948 0.960 . S
C935 C932 1.511 . S
C935 H949 0.961 . S
C935 H950 0.961 . S
C935 H951 0.961 . S
C936 C937 1.370 . S
C936 C938 1.363 . S
C936 H952 0.931 . S
C937 C936 1.370 . S
C937 C941 1.408 . S
C938 C936 1.363 . S
C938 C939 1.370 . S
C938 C942 1.524 . S
C939 C931 1.503 . S
C939 C938 1.370 . S
C939 C940 1.403 . S
C940 C939 1.403 . S
C940 C941 1.404 . S
C940 C943 1.539 . S
C941 C937 1.408 . S
C941 C940 1.404 . S
C941 H953 0.930 . S
C942 C938 1.524 . S
C942 H954 0.956 1_556 S
C942 H955 0.961 . S
C942 H956 0.961 1_556 S
C943 C940 1.539 . S
C943 H957 0.958 . S
C943 H958 0.961 . S
C943 H959 0.960 . S
H944 C928 0.931 . S
H945 C933 0.929 . S
H946 C934 0.960 . S
H947 C934 0.962 . S
H948 C934 0.960 . S
H949 C935 0.961 . S
H950 C935 0.961 . S
H951 C935 0.961 . S
H952 C936 0.931 . S
H953 C941 0.930 . S
H954 C942 0.956 1_554 S
H955 C942 0.961 . S
H956 C942 0.961 1_554 S
H957 C943 0.958 . S
H958 C943 0.961 . S
H959 C943 0.960 . S
C960 C961 1.391 . S
C960 C962 1.394 . S
C960 H976 0.931 . S
C961 C960 1.391 . S
C961 C965 1.376 . S
C962 C960 1.394 . S
C962 C963 1.369 . S
C962 C966 1.531 . S
C963 C962 1.369 . S
C963 C964 1.410 . S
C963 C971 1.503 . S
C964 C963 1.410 . S
C964 C965 1.392 . S
C964 C967 1.511 . S
C965 C961 1.376 . S
C965 C964 1.392 . S
C965 H977 0.929 . S
C966 C962 1.531 . S
C966 H978 0.960 . S
C966 H979 0.962 . S
C966 H980 0.960 . S
C967 C964 1.511 . S
C967 H981 0.961 . S
C967 H982 0.961 . S
C967 H983 0.961 . S
C968 C969 1.370 . S
C968 C970 1.363 . S
C968 H984 0.931 . S
C969 C968 1.370 . S
C969 C973 1.408 . S
C970 C968 1.363 . S
C970 C971 1.370 . S
C970 C974 1.524 . S
C971 C963 1.503 . S
C971 C970 1.370 . S
C971 C972 1.403 . S
C972 C971 1.403 . S
C972 C973 1.404 . S
C972 C975 1.539 . S
C973 C969 1.408 . S
C973 C972 1.404 . S
C973 H985 0.930 . S
C974 C970 1.524 . S
C974 H986 0.956 . S
C974 H987 0.961 . S
C974 H988 0.961 . S
C975 C972 1.539 . S
C975 H989 0.958 . S
C975 H990 0.961 . S
C975 H991 0.960 . S
H976 C960 0.931 . S
H977 C965 0.929 . S
H978 C966 0.960 . S
H979 C966 0.962 . S
H980 C966 0.960 . S
H981 C967 0.961 . S
H982 C967 0.961 . S
H983 C967 0.961 . S
H984 C968 0.931 . S
H985 C973 0.930 . S
H986 C974 0.956 . S
H987 C974 0.961 . S
H988 C974 0.961 . S
H989 C975 0.958 . S
H990 C975 0.961 . S
H991 C975 0.960 . S
C992 C993 1.391 . S
C992 C994 1.394 . S
C992 H1008 0.931 . S
C993 C992 1.391 . S
C993 C997 1.376 . S
C994 C992 1.394 . S
C994 C995 1.369 . S
C994 C998 1.531 . S
C995 C994 1.369 . S
C995 C996 1.410 . S
C995 C1003 1.503 . S
C996 C995 1.410 . S
C996 C997 1.392 . S
C996 C999 1.511 . S
C997 C993 1.376 . S
C997 C996 1.392 . S
C997 H1009 0.929 . S
C998 C994 1.531 . S
C998 H1010 0.960 . S
C998 H1011 0.962 . S
C998 H1012 0.960 . S
C999 C996 1.511 . S
C999 H1013 0.961 . S
C999 H1014 0.961 . S
C999 H1015 0.961 . S
C1000 C1001 1.370 . S
C1000 C1002 1.363 . S
C1000 H1016 0.931 . S
C1001 C1000 1.370 . S
C1001 C1005 1.408 . S
C1002 C1000 1.363 . S
C1002 C1003 1.370 . S
C1002 C1006 1.524 . S
C1003 C995 1.503 . S
C1003 C1002 1.370 . S
C1003 C1004 1.403 . S
C1004 C1003 1.403 . S
C1004 C1005 1.404 . S
C1004 C1007 1.539 . S
C1005 C1001 1.408 . S
C1005 C1004 1.404 . S
C1005 H1017 0.930 . S
C1006 C1002 1.524 . S
C1006 H1018 0.956 . S
C1006 H1019 0.961 . S
C1006 H1020 0.961 . S
C1007 C1004 1.539 . S
C1007 H1021 0.958 . S
C1007 H1022 0.961 . S
C1007 H1023 0.960 . S
H1008 C992 0.931 . S
H1009 C997 0.929 . S
H1010 C998 0.960 . S
H1011 C998 0.962 . S
H1012 C998 0.960 . S
H1013 C999 0.961 . S
H1014 C999 0.961 . S
H1015 C999 0.961 . S
H1016 C1000 0.931 . S
H1017 C1005 0.930 . S
H1018 C1006 0.956 . S
H1019 C1006 0.961 . S
H1020 C1006 0.961 . S
H1021 C1007 0.958 . S
H1022 C1007 0.961 . S
H1023 C1007 0.960 . S
C1024 C1025 1.391 . S
C1024 C1026 1.394 . S
C1024 H1040 0.931 . S
C1025 C1024 1.391 . S
C1025 C1029 1.376 . S
C1026 C1024 1.394 . S
C1026 C1027 1.369 . S
C1026 C1030 1.531 . S
C1027 C1026 1.369 . S
C1027 C1028 1.410 . S
C1027 C1035 1.503 . S
C1028 C1027 1.410 . S
C1028 C1029 1.392 . S
C1028 C1031 1.511 . S
C1029 C1025 1.376 . S
C1029 C1028 1.392 . S
C1029 H1041 0.929 . S
C1030 C1026 1.531 . S
C1030 H1042 0.960 . S
C1030 H1043 0.962 . S
C1030 H1044 0.960 . S
C1031 C1028 1.511 . S
C1031 H1045 0.961 . S
C1031 H1046 0.961 . S
C1031 H1047 0.961 . S
C1032 C1033 1.370 . S
C1032 C1034 1.363 . S
C1032 H1048 0.931 . S
C1033 C1032 1.370 . S
C1033 C1037 1.408 . S
C1034 C1032 1.363 . S
C1034 C1035 1.370 . S
C1034 C1038 1.524 . S
C1035 C1027 1.503 . S
C1035 C1034 1.370 . S
C1035 C1036 1.403 . S
C1036 C1035 1.403 . S
C1036 C1037 1.404 . S
C1036 C1039 1.539 . S
C1037 C1033 1.408 . S
C1037 C1036 1.404 . S
C1037 H1049 0.930 . S
C1038 C1034 1.524 . S
C1038 H1050 0.956 . S
C1038 H1051 0.961 . S
C1038 H1052 0.961 . S
C1039 C1036 1.539 . S
C1039 H1053 0.958 . S
C1039 H1054 0.961 . S
C1039 H1055 0.960 . S
H1040 C1024 0.931 . S
H1041 C1029 0.929 . S
H1042 C1030 0.960 . S
H1043 C1030 0.962 . S
H1044 C1030 0.960 . S
H1045 C1031 0.961 . S
H1046 C1031 0.961 . S
H1047 C1031 0.961 . S
H1048 C1032 0.931 . S
H1049 C1037 0.930 . S
H1050 C1038 0.956 . S
H1051 C1038 0.961 . S
H1052 C1038 0.961 . S
H1053 C1039 0.958 . S
H1054 C1039 0.961 . S
H1055 C1039 0.960 . S
C1056 C1057 1.391 . S
C1056 C1058 1.394 . S
C1056 H1072 0.931 . S
C1057 C1056 1.391 . S
C1057 C1061 1.376 . S
C1058 C1056 1.394 . S
C1058 C1059 1.369 . S
C1058 C1062 1.531 . S
C1059 C1058 1.369 . S
C1059 C1060 1.410 . S
C1059 C1067 1.503 . S
C1060 C1059 1.410 . S
C1060 C1061 1.392 . S
C1060 C1063 1.511 . S
C1061 C1057 1.376 . S
C1061 C1060 1.392 . S
C1061 H1073 0.929 . S
C1062 C1058 1.531 . S
C1062 H1074 0.960 . S
C1062 H1075 0.962 . S
C1062 H1076 0.960 . S
C1063 C1060 1.511 . S
C1063 H1077 0.961 . S
C1063 H1078 0.961 . S
C1063 H1079 0.961 . S
C1064 C1065 1.370 . S
C1064 C1066 1.363 . S
C1064 H1080 0.931 . S
C1065 C1064 1.370 . S
C1065 C1069 1.408 . S
C1066 C1064 1.363 . S
C1066 C1067 1.370 . S
C1066 C1070 1.524 . S
C1067 C1059 1.503 . S
C1067 C1066 1.370 . S
C1067 C1068 1.403 . S
C1068 C1067 1.403 . S
C1068 C1069 1.404 . S
C1068 C1071 1.539 . S
C1069 C1065 1.408 . S
C1069 C1068 1.404 . S
C1069 H1081 0.930 . S
C1070 C1066 1.524 . S
C1070 H1082 0.956 . S
C1070 H1083 0.961 . S
C1070 H1084 0.961 . S
C1071 C1068 1.539 . S
C1071 H1085 0.958 . S
C1071 H1086 0.961 . S
C1071 H1087 0.960 . S
H1072 C1056 0.931 . S
H1073 C1061 0.929 . S
H1074 C1062 0.960 . S
H1075 C1062 0.962 . S
H1076 C1062 0.960 . S
H1077 C1063 0.961 . S
H1078 C1063 0.961 . S
H1079 C1063 0.961 . S
H1080 C1064 0.931 . S
H1081 C1069 0.930 . S
H1082 C1070 0.956 . S
H1083 C1070 0.961 . S
H1084 C1070 0.961 . S
H1085 C1071 0.958 . S
H1086 C1071 0.961 . S
H1087 C1071 0.960 . S
C1088 C1089 1.391 . S
C1088 C1090 1.394 . S
C1088 H1104 0.931 . S
C1089 C1088 1.391 . S
C1089 C1093 1.376 . S
C1090 C1088 1.394 . S
C1090 C1091 1.369 . S
C1090 C1094 1.531 . S
C1091 C1090 1.369 . S
C1091 C1092 1.410 . S
C1091 C1099 1.503 . S
C1092 C1091 1.410 . S
C1092 C1093 1.392 . S
C1092 C1095 1.511 . S
C1093 C1089 1.376 . S
C1093 C1092 1.392 . S
C1093 H1105 0.929 . S
C1094 C1090 1.531 . S
C1094 H1106 0.960 . S
C1094 H1107 0.962 . S
C1094 H1108 0.960 . S
C1095 C1092 1.511 . S
C1095 H1109 0.961 . S
C1095 H1110 0.961 . S
C1095 H1111 0.961 . S
C1096 C1097 1.370 1_554 S
C1096 C1098 1.363 1_554 S
C1096 H1112 0.931 . S
C1097 C1096 1.370 1_556 S
C1097 C1101 1.408 . S
C1098 C1096 1.363 1_556 S
C1098 C1099 1.370 . S
C1098 C1102 1.524 . S
C1099 C1091 1.503 . S
C1099 C1098 1.370 . S
C1099 C1100 1.403 . S
C1100 C1099 1.403 . S
C1100 C1101 1.404 . S
C1100 C1103 1.539 . S
C1101 C1097 1.408 . S
C1101 C1100 1.404 . S
C1101 H1113 0.930 . S
C1102 C1098 1.524 . S
C1102 H1114 0.956 . S
C1102 H1115 0.961 . S
C1102 H1116 0.961 1_556 S
C1103 C1100 1.539 . S
C1103 H1117 0.958 . S
C1103 H1118 0.961 . S
C1103 H1119 0.960 . S
H1104 C1088 0.931 . S
H1105 C1093 0.929 . S
H1106 C1094 0.960 . S
H1107 C1094 0.962 . S
H1108 C1094 0.960 . S
H1109 C1095 0.961 . S
H1110 C1095 0.961 . S
H1111 C1095 0.961 . S
H1112 C1096 0.931 . S
H1113 C1101 0.930 . S
H1114 C1102 0.956 . S
H1115 C1102 0.961 . S
H1116 C1102 0.961 1_554 S
H1117 C1103 0.958 . S
H1118 C1103 0.961 . S
H1119 C1103 0.960 . S
C1120 C1121 1.391 . S
C1120 C1122 1.394 . S
C1120 H1136 0.931 . S
C1121 C1120 1.391 . S
C1121 C1125 1.376 1_554 S
C1122 C1120 1.394 . S
C1122 C1123 1.369 . S
C1122 C1126 1.531 . S
C1123 C1122 1.369 . S
C1123 C1124 1.410 . S
C1123 C1131 1.503 . S
C1124 C1123 1.410 . S
C1124 C1125 1.392 1_554 S
C1124 C1127 1.511 . S
C1125 C1121 1.376 1_556 S
C1125 C1124 1.392 1_556 S
C1125 H1137 0.929 . S
C1126 C1122 1.531 . S
C1126 H1138 0.960 . S
C1126 H1139 0.962 . S
C1126 H1140 0.960 . S
C1127 C1124 1.511 . S
C1127 H1141 0.961 1_554 S
C1127 H1142 0.961 . S
C1127 H1143 0.961 . S
C1128 C1129 1.370 . S
C1128 C1130 1.363 . S
C1128 H1144 0.931 . S
C1129 C1128 1.370 . S
C1129 C1133 1.408 . S
C1130 C1128 1.363 . S
C1130 C1131 1.370 . S
C1130 C1134 1.524 . S
C1131 C1123 1.503 . S
C1131 C1130 1.370 . S
C1131 C1132 1.403 . S
C1132 C1131 1.403 . S
C1132 C1133 1.404 . S
C1132 C1135 1.539 . S
C1133 C1129 1.408 . S
C1133 C1132 1.404 . S
C1133 H1145 0.930 . S
C1134 C1130 1.524 . S
C1134 H1146 0.956 . S
C1134 H1147 0.961 . S
C1134 H1148 0.961 . S
C1135 C1132 1.539 . S
C1135 H1149 0.958 . S
C1135 H1150 0.961 . S
C1135 H1151 0.960 . S
H1136 C1120 0.931 . S
H1137 C1125 0.929 . S
H1138 C1126 0.960 . S
H1139 C1126 0.962 . S
H1140 C1126 0.960 . S
H1141 C1127 0.961 1_556 S
H1142 C1127 0.961 . S
H1143 C1127 0.961 . S
H1144 C1128 0.931 . S
H1145 C1133 0.930 . S
H1146 C1134 0.956 . S
H1147 C1134 0.961 . S
H1148 C1134 0.961 . S
H1149 C1135 0.958 . S
H1150 C1135 0.961 . S
H1151 C1135 0.960 . S
C1152 C1153 1.392 . S
C1152 C1154 1.394 . S
C1152 H1168 0.931 . S
C1153 C1152 1.392 . S
C1153 C1157 1.376 . S
C1154 C1152 1.394 . S
C1154 C1155 1.369 . S
C1154 C1158 1.531 . S
C1155 C1154 1.369 . S
C1155 C1156 1.410 . S
C1155 C1163 1.503 . S
C1156 C1155 1.410 . S
C1156 C1157 1.392 . S
C1156 C1159 1.511 . S
C1157 C1153 1.376 . S
C1157 C1156 1.392 . S
C1157 H1169 0.929 1_556 S
C1158 C1154 1.531 . S
C1158 H1170 0.960 . S
C1158 H1171 0.962 . S
C1158 H1172 0.960 . S
C1159 C1156 1.511 . S
C1159 H1173 0.961 . S
C1159 H1174 0.961 . S
C1159 H1175 0.961 . S
C1160 C1161 1.370 . S
C1160 C1162 1.363 . S
C1160 H1176 0.931 . S
C1161 C1160 1.370 . S
C1161 C1165 1.408 . S
C1162 C1160 1.363 . S
C1162 C1163 1.370 . S
C1162 C1166 1.524 . S
C1163 C1155 1.503 . S
C1163 C1162 1.370 . S
C1163 C1164 1.403 . S
C1164 C1163 1.403 . S
C1164 C1165 1.404 . S
C1164 C1167 1.539 . S
C1165 C1161 1.408 . S
C1165 C1164 1.404 . S
C1165 H1177 0.930 . S
C1166 C1162 1.524 . S
C1166 H1178 0.956 . S
C1166 H1179 0.961 . S
C1166 H1180 0.961 . S
C1167 C1164 1.539 . S
C1167 H1181 0.958 . S
C1167 H1182 0.961 . S
C1167 H1183 0.960 . S
H1168 C1152 0.931 . S
H1169 C1157 0.929 1_554 S
H1170 C1158 0.960 . S
H1171 C1158 0.962 . S
H1172 C1158 0.960 . S
H1173 C1159 0.961 . S
H1174 C1159 0.961 . S
H1175 C1159 0.961 . S
H1176 C1160 0.931 . S
H1177 C1165 0.930 . S
H1178 C1166 0.956 . S
H1179 C1166 0.961 . S
H1180 C1166 0.961 . S
H1181 C1167 0.958 . S
H1182 C1167 0.961 . S
H1183 C1167 0.960 . S
C1184 C1185 1.391 . S
C1184 C1186 1.394 . S
C1184 H1200 0.931 . S
C1185 C1184 1.391 . S
C1185 C1189 1.376 1_554 S
C1186 C1184 1.394 . S
C1186 C1187 1.369 . S
C1186 C1190 1.531 . S
C1187 C1186 1.369 . S
C1187 C1188 1.410 . S
C1187 C1195 1.503 . S
C1188 C1187 1.410 . S
C1188 C1189 1.392 1_554 S
C1188 C1191 1.511 . S
C1189 C1185 1.376 1_556 S
C1189 C1188 1.392 1_556 S
C1189 H1201 0.929 . S
C1190 C1186 1.531 . S
C1190 H1202 0.960 . S
C1190 H1203 0.962 . S
C1190 H1204 0.960 . S
C1191 C1188 1.511 . S
C1191 H1205 0.961 1_554 S
C1191 H1206 0.961 . S
C1191 H1207 0.961 . S
C1192 C1193 1.370 . S
C1192 C1194 1.363 . S
C1192 H1208 0.931 . S
C1193 C1192 1.370 . S
C1193 C1197 1.408 . S
C1194 C1192 1.363 . S
C1194 C1195 1.370 . S
C1194 C1198 1.524 . S
C1195 C1187 1.503 . S
C1195 C1194 1.370 . S
C1195 C1196 1.403 . S
C1196 C1195 1.403 . S
C1196 C1197 1.404 . S
C1196 C1199 1.539 . S
C1197 C1193 1.408 . S
C1197 C1196 1.404 . S
C1197 H1209 0.930 . S
C1198 C1194 1.524 . S
C1198 H1210 0.956 . S
C1198 H1211 0.961 . S
C1198 H1212 0.961 . S
C1199 C1196 1.539 . S
C1199 H1213 0.958 . S
C1199 H1214 0.961 . S
C1199 H1215 0.960 . S
H1200 C1184 0.931 . S
H1201 C1189 0.929 . S
H1202 C1190 0.960 . S
H1203 C1190 0.962 . S
H1204 C1190 0.960 . S
H1205 C1191 0.961 1_556 S
H1206 C1191 0.961 . S
H1207 C1191 0.961 . S
H1208 C1192 0.931 . S
H1209 C1197 0.930 . S
H1210 C1198 0.956 . S
H1211 C1198 0.961 . S
H1212 C1198 0.961 . S
H1213 C1199 0.958 . S
H1214 C1199 0.961 . S
H1215 C1199 0.960 . S
C1216 C1217 1.391 . S
C1216 C1218 1.394 . S
C1216 H1232 0.931 . S
C1217 C1216 1.391 . S
C1217 C1221 1.376 . S
C1218 C1216 1.394 . S
C1218 C1219 1.369 . S
C1218 C1222 1.531 . S
C1219 C1218 1.369 . S
C1219 C1220 1.410 . S
C1219 C1227 1.503 . S
C1220 C1219 1.410 . S
C1220 C1221 1.392 . S
C1220 C1223 1.511 . S
C1221 C1217 1.376 . S
C1221 C1220 1.392 . S
C1221 H1233 0.929 . S
C1222 C1218 1.531 . S
C1222 H1234 0.960 . S
C1222 H1235 0.962 . S
C1222 H1236 0.960 . S
C1223 C1220 1.511 . S
C1223 H1237 0.961 . S
C1223 H1238 0.961 . S
C1223 H1239 0.961 . S
C1224 C1225 1.370 . S
C1224 C1226 1.363 . S
C1224 H1240 0.931 . S
C1225 C1224 1.370 . S
C1225 C1229 1.408 . S
C1226 C1224 1.363 . S
C1226 C1227 1.370 . S
C1226 C1230 1.524 . S
C1227 C1219 1.503 . S
C1227 C1226 1.370 . S
C1227 C1228 1.403 . S
C1228 C1227 1.403 . S
C1228 C1229 1.404 . S
C1228 C1231 1.539 . S
C1229 C1225 1.408 . S
C1229 C1228 1.404 . S
C1229 H1241 0.930 . S
C1230 C1226 1.524 . S
C1230 H1242 0.956 . S
C1230 H1243 0.961 . S
C1230 H1244 0.961 . S
C1231 C1228 1.539 . S
C1231 H1245 0.958 . S
C1231 H1246 0.961 . S
C1231 H1247 0.960 . S
H1232 C1216 0.931 . S
H1233 C1221 0.929 . S
H1234 C1222 0.960 . S
H1235 C1222 0.962 . S
H1236 C1222 0.960 . S
H1237 C1223 0.961 . S
H1238 C1223 0.961 . S
H1239 C1223 0.961 . S
H1240 C1224 0.931 . S
H1241 C1229 0.930 . S
H1242 C1230 0.956 . S
H1243 C1230 0.961 . S
H1244 C1230 0.961 . S
H1245 C1231 0.958 . S
H1246 C1231 0.961 . S
H1247 C1231 0.960 . S
C1248 C1249 1.391 . S
C1248 C1250 1.394 . S
C1248 H1264 0.931 . S
C1249 C1248 1.391 . S
C1249 C1253 1.376 . S
C1250 C1248 1.394 . S
C1250 C1251 1.369 . S
C1250 C1254 1.531 . S
C1251 C1250 1.369 . S
C1251 C1252 1.410 . S
C1251 C1259 1.503 . S
C1252 C1251 1.410 . S
C1252 C1253 1.392 . S
C1252 C1255 1.511 . S
C1253 C1249 1.376 . S
C1253 C1252 1.392 . S
C1253 H1265 0.929 . S
C1254 C1250 1.531 . S
C1254 H1266 0.960 . S
C1254 H1267 0.962 . S
C1254 H1268 0.960 . S
C1255 C1252 1.511 . S
C1255 H1269 0.961 . S
C1255 H1270 0.961 . S
C1255 H1271 0.961 . S
C1256 C1257 1.370 . S
C1256 C1258 1.363 . S
C1256 H1272 0.931 . S
C1257 C1256 1.370 . S
C1257 C1261 1.408 . S
C1258 C1256 1.363 . S
C1258 C1259 1.370 . S
C1258 C1262 1.524 . S
C1259 C1251 1.503 . S
C1259 C1258 1.370 . S
C1259 C1260 1.403 . S
C1260 C1259 1.403 . S
C1260 C1261 1.404 . S
C1260 C1263 1.539 . S
C1261 C1257 1.408 . S
C1261 C1260 1.404 . S
C1261 H1273 0.930 . S
C1262 C1258 1.524 . S
C1262 H1274 0.956 . S
C1262 H1275 0.961 . S
C1262 H1276 0.961 . S
C1263 C1260 1.539 . S
C1263 H1277 0.958 . S
C1263 H1278 0.961 . S
C1263 H1279 0.960 . S
H1264 C1248 0.931 . S
H1265 C1253 0.929 . S
H1266 C1254 0.960 . S
H1267 C1254 0.962 . S
H1268 C1254 0.960 . S
H1269 C1255 0.961 . S
H1270 C1255 0.961 . S
H1271 C1255 0.961 . S
H1272 C1256 0.931 . S
H1273 C1261 0.930 . S
H1274 C1262 0.956 . S
H1275 C1262 0.961 . S
H1276 C1262 0.961 . S
H1277 C1263 0.958 . S
H1278 C1263 0.961 . S
H1279 C1263 0.960 . S
C1280 C1281 1.391 . S
C1280 C1282 1.394 . S
C1280 H1296 0.931 . S
C1281 C1280 1.391 . S
C1281 C1285 1.376 . S
C1282 C1280 1.394 . S
C1282 C1283 1.369 . S
C1282 C1286 1.531 . S
C1283 C1282 1.369 . S
C1283 C1284 1.410 . S
C1283 C1291 1.503 . S
C1284 C1283 1.410 . S
C1284 C1285 1.392 . S
C1284 C1287 1.511 . S
C1285 C1281 1.376 . S
C1285 C1284 1.392 . S
C1285 H1297 0.929 . S
C1286 C1282 1.531 . S
C1286 H1298 0.960 . S
C1286 H1299 0.962 . S
C1286 H1300 0.960 . S
C1287 C1284 1.511 . S
C1287 H1301 0.961 . S
C1287 H1302 0.961 . S
C1287 H1303 0.961 . S
C1288 C1289 1.370 . S
C1288 C1290 1.363 . S
C1288 H1304 0.931 . S
C1289 C1288 1.370 . S
C1289 C1293 1.408 . S
C1290 C1288 1.363 . S
C1290 C1291 1.370 . S
C1290 C1294 1.524 . S
C1291 C1283 1.503 . S
C1291 C1290 1.370 . S
C1291 C1292 1.403 . S
C1292 C1291 1.403 . S
C1292 C1293 1.404 . S
C1292 C1295 1.539 . S
C1293 C1289 1.408 . S
C1293 C1292 1.404 . S
C1293 H1305 0.930 . S
C1294 C1290 1.524 . S
C1294 H1306 0.956 . S
C1294 H1307 0.961 . S
C1294 H1308 0.961 . S
C1295 C1292 1.539 . S
C1295 H1309 0.958 . S
C1295 H1310 0.961 . S
C1295 H1311 0.960 . S
H1296 C1280 0.931 . S
H1297 C1285 0.929 . S
H1298 C1286 0.960 . S
H1299 C1286 0.962 . S
H1300 C1286 0.960 . S
H1301 C1287 0.961 . S
H1302 C1287 0.961 . S
H1303 C1287 0.961 . S
H1304 C1288 0.931 . S
H1305 C1293 0.930 . S
H1306 C1294 0.956 . S
H1307 C1294 0.961 . S
H1308 C1294 0.961 . S
H1309 C1295 0.958 . S
H1310 C1295 0.961 . S
H1311 C1295 0.960 . S
C1312 C1313 1.391 . S
C1312 C1314 1.394 . S
C1312 H1328 0.931 . S
C1313 C1312 1.391 . S
C1313 C1317 1.376 . S
C1314 C1312 1.394 . S
C1314 C1315 1.369 . S
C1314 C1318 1.531 . S
C1315 C1314 1.369 . S
C1315 C1316 1.410 . S
C1315 C1323 1.503 . S
C1316 C1315 1.410 . S
C1316 C1317 1.392 . S
C1316 C1319 1.511 . S
C1317 C1313 1.376 . S
C1317 C1316 1.392 . S
C1317 H1329 0.929 . S
C1318 C1314 1.531 . S
C1318 H1330 0.960 . S
C1318 H1331 0.962 . S
C1318 H1332 0.960 . S
C1319 C1316 1.511 . S
C1319 H1333 0.961 . S
C1319 H1334 0.961 . S
C1319 H1335 0.961 . S
C1320 C1321 1.370 . S
C1320 C1322 1.363 . S
C1320 H1336 0.931 . S
C1321 C1320 1.370 . S
C1321 C1325 1.408 . S
C1322 C1320 1.363 . S
C1322 C1323 1.370 . S
C1322 C1326 1.524 . S
C1323 C1315 1.503 . S
C1323 C1322 1.370 . S
C1323 C1324 1.403 . S
C1324 C1323 1.403 . S
C1324 C1325 1.404 . S
C1324 C1327 1.539 . S
C1325 C1321 1.408 . S
C1325 C1324 1.404 . S
C1325 H1337 0.930 . S
C1326 C1322 1.524 . S
C1326 H1338 0.956 . S
C1326 H1339 0.961 . S
C1326 H1340 0.961 . S
C1327 C1324 1.539 . S
C1327 H1341 0.958 . S
C1327 H1342 0.961 . S
C1327 H1343 0.960 . S
H1328 C1312 0.931 . S
H1329 C1317 0.929 . S
H1330 C1318 0.960 . S
H1331 C1318 0.962 . S
H1332 C1318 0.960 . S
H1333 C1319 0.961 . S
H1334 C1319 0.961 . S
H1335 C1319 0.961 . S
H1336 C1320 0.931 . S
H1337 C1325 0.930 . S
H1338 C1326 0.956 . S
H1339 C1326 0.961 . S
H1340 C1326 0.961 . S
H1341 C1327 0.958 . S
H1342 C1327 0.961 . S
H1343 C1327 0.960 . S
C1344 C1345 1.391 . S
C1344 C1346 1.394 . S
C1344 H1360 0.931 . S
C1345 C1344 1.391 . S
C1345 C1349 1.376 . S
C1346 C1344 1.394 . S
C1346 C1347 1.369 . S
C1346 C1350 1.531 . S
C1347 C1346 1.369 . S
C1347 C1348 1.410 . S
C1347 C1355 1.503 . S
C1348 C1347 1.410 . S
C1348 C1349 1.392 . S
C1348 C1351 1.511 . S
C1349 C1345 1.376 . S
C1349 C1348 1.392 . S
C1349 H1361 0.929 . S
C1350 C1346 1.531 . S
C1350 H1362 0.960 . S
C1350 H1363 0.962 . S
C1350 H1364 0.960 . S
C1351 C1348 1.511 . S
C1351 H1365 0.961 . S
C1351 H1366 0.961 . S
C1351 H1367 0.961 . S
C1352 C1353 1.370 . S
C1352 C1354 1.363 . S
C1352 H1368 0.931 . S
C1353 C1352 1.370 . S
C1353 C1357 1.408 . S
C1354 C1352 1.363 . S
C1354 C1355 1.370 . S
C1354 C1358 1.524 . S
C1355 C1347 1.503 . S
C1355 C1354 1.370 . S
C1355 C1356 1.403 . S
C1356 C1355 1.403 . S
C1356 C1357 1.404 . S
C1356 C1359 1.539 . S
C1357 C1353 1.408 . S
C1357 C1356 1.404 . S
C1357 H1369 0.930 . S
C1358 C1354 1.524 . S
C1358 H1370 0.956 . S
C1358 H1371 0.961 . S
C1358 H1372 0.961 . S
C1359 C1356 1.539 . S
C1359 H1373 0.958 . S
C1359 H1374 0.961 . S
C1359 H1375 0.960 . S
H1360 C1344 0.931 . S
H1361 C1349 0.929 . S
H1362 C1350 0.960 . S
H1363 C1350 0.962 . S
H1364 C1350 0.960 . S
H1365 C1351 0.961 . S
H1366 C1351 0.961 . S
H1367 C1351 0.961 . S
H1368 C1352 0.931 . S
H1369 C1357 0.930 . S
H1370 C1358 0.956 . S
H1371 C1358 0.961 . S
H1372 C1358 0.961 . S
H1373 C1359 0.958 . S
H1374 C1359 0.961 . S
H1375 C1359 0.960 . S
C1376 C1377 1.391 . S
C1376 C1378 1.394 . S
C1376 H1392 0.931 . S
C1377 C1376 1.391 . S
C1377 C1381 1.376 . S
C1378 C1376 1.394 . S
C1378 C1379 1.369 . S
C1378 C1382 1.531 . S
C1379 C1378 1.369 . S
C1379 C1380 1.410 . S
C1379 C1387 1.503 . S
C1380 C1379 1.410 . S
C1380 C1381 1.392 . S
C1380 C1383 1.511 . S
C1381 C1377 1.376 . S
C1381 C1380 1.392 . S
C1381 H1393 0.929 . S
C1382 C1378 1.531 . S
C1382 H1394 0.960 . S
C1382 H1395 0.962 . S
C1382 H1396 0.960 . S
C1383 C1380 1.511 . S
C1383 H1397 0.961 . S
C1383 H1398 0.961 . S
C1383 H1399 0.961 . S
C1384 C1385 1.370 . S
C1384 C1386 1.363 . S
C1384 H1400 0.931 . S
C1385 C1384 1.370 . S
C1385 C1389 1.408 . S
C1386 C1384 1.363 . S
C1386 C1387 1.370 . S
C1386 C1390 1.524 . S
C1387 C1379 1.503 . S
C1387 C1386 1.370 . S
C1387 C1388 1.403 . S
C1388 C1387 1.403 . S
C1388 C1389 1.404 . S
C1388 C1391 1.539 . S
C1389 C1385 1.408 . S
C1389 C1388 1.404 . S
C1389 H1401 0.930 . S
C1390 C1386 1.524 . S
C1390 H1402 0.956 . S
C1390 H1403 0.961 . S
C1390 H1404 0.961 . S
C1391 C1388 1.539 . S
C1391 H1405 0.958 . S
C1391 H1406 0.961 . S
C1391 H1407 0.960 . S
H1392 C1376 0.931 . S
H1393 C1381 0.929 . S
H1394 C1382 0.960 . S
H1395 C1382 0.962 . S
H1396 C1382 0.960 . S
H1397 C1383 0.961 . S
H1398 C1383 0.961 . S
H1399 C1383 0.961 . S
H1400 C1384 0.931 . S
H1401 C1389 0.930 . S
H1402 C1390 0.956 . S
H1403 C1390 0.961 . S
H1404 C1390 0.961 . S
H1405 C1391 0.958 . S
H1406 C1391 0.961 . S
H1407 C1391 0.960 . S
C1408 C1409 1.391 . S
C1408 C1410 1.394 . S
C1408 H1424 0.931 . S
C1409 C1408 1.391 . S
C1409 C1413 1.376 . S
C1410 C1408 1.394 . S
C1410 C1411 1.369 . S
C1410 C1414 1.531 . S
C1411 C1410 1.369 . S
C1411 C1412 1.410 . S
C1411 C1419 1.503 . S
C1412 C1411 1.410 . S
C1412 C1413 1.392 . S
C1412 C1415 1.511 . S
C1413 C1409 1.376 . S
C1413 C1412 1.392 . S
C1413 H1425 0.929 . S
C1414 C1410 1.531 . S
C1414 H1426 0.960 . S
C1414 H1427 0.962 . S
C1414 H1428 0.960 . S
C1415 C1412 1.511 . S
C1415 H1429 0.961 . S
C1415 H1430 0.961 . S
C1415 H1431 0.961 . S
C1416 C1417 1.370 . S
C1416 C1418 1.363 . S
C1416 H1432 0.931 . S
C1417 C1416 1.370 . S
C1417 C1421 1.408 . S
C1418 C1416 1.363 . S
C1418 C1419 1.370 . S
C1418 C1422 1.524 . S
C1419 C1411 1.503 . S
C1419 C1418 1.370 . S
C1419 C1420 1.403 . S
C1420 C1419 1.403 . S
C1420 C1421 1.404 . S
C1420 C1423 1.539 . S
C1421 C1417 1.408 . S
C1421 C1420 1.404 . S
C1421 H1433 0.930 . S
C1422 C1418 1.524 . S
C1422 H1434 0.956 . S
C1422 H1435 0.961 . S
C1422 H1436 0.961 . S
C1423 C1420 1.539 . S
C1423 H1437 0.958 . S
C1423 H1438 0.961 . S
C1423 H1439 0.960 . S
H1424 C1408 0.931 . S
H1425 C1413 0.929 . S
H1426 C1414 0.960 . S
H1427 C1414 0.962 . S
H1428 C1414 0.960 . S
H1429 C1415 0.961 . S
H1430 C1415 0.961 . S
H1431 C1415 0.961 . S
H1432 C1416 0.931 . S
H1433 C1421 0.930 . S
H1434 C1422 0.956 . S
H1435 C1422 0.961 . S
H1436 C1422 0.961 . S
H1437 C1423 0.958 . S
H1438 C1423 0.961 . S
H1439 C1423 0.960 . S
C1440 C1441 1.391 . S
C1440 C1442 1.394 . S
C1440 H1456 0.931 . S
C1441 C1440 1.391 . S
C1441 C1445 1.376 . S
C1442 C1440 1.394 . S
C1442 C1443 1.369 . S
C1442 C1446 1.531 . S
C1443 C1442 1.369 . S
C1443 C1444 1.410 . S
C1443 C1451 1.503 . S
C1444 C1443 1.410 . S
C1444 C1445 1.392 . S
C1444 C1447 1.511 . S
C1445 C1441 1.376 . S
C1445 C1444 1.392 . S
C1445 H1457 0.929 . S
C1446 C1442 1.531 . S
C1446 H1458 0.960 . S
C1446 H1459 0.962 . S
C1446 H1460 0.960 . S
C1447 C1444 1.511 . S
C1447 H1461 0.961 . S
C1447 H1462 0.961 . S
C1447 H1463 0.961 . S
C1448 C1449 1.370 . S
C1448 C1450 1.363 . S
C1448 H1464 0.931 . S
C1449 C1448 1.370 . S
C1449 C1453 1.408 . S
C1450 C1448 1.363 . S
C1450 C1451 1.370 . S
C1450 C1454 1.524 . S
C1451 C1443 1.503 . S
C1451 C1450 1.370 . S
C1451 C1452 1.403 . S
C1452 C1451 1.403 . S
C1452 C1453 1.404 . S
C1452 C1455 1.539 . S
C1453 C1449 1.408 . S
C1453 C1452 1.404 . S
C1453 H1465 0.930 . S
C1454 C1450 1.524 . S
C1454 H1466 0.956 . S
C1454 H1467 0.961 . S
C1454 H1468 0.961 . S
C1455 C1452 1.539 . S
C1455 H1469 0.958 . S
C1455 H1470 0.961 . S
C1455 H1471 0.960 . S
H1456 C1440 0.931 . S
H1457 C1445 0.929 . S
H1458 C1446 0.960 . S
H1459 C1446 0.962 . S
H1460 C1446 0.960 . S
H1461 C1447 0.961 . S
H1462 C1447 0.961 . S
H1463 C1447 0.961 . S
H1464 C1448 0.931 . S
H1465 C1453 0.930 . S
H1466 C1454 0.956 . S
H1467 C1454 0.961 . S
H1468 C1454 0.961 . S
H1469 C1455 0.958 . S
H1470 C1455 0.961 . S
H1471 C1455 0.960 . S
C1472 C1473 1.391 . S
C1472 C1474 1.394 . S
C1472 H1488 0.931 . S
C1473 C1472 1.391 . S
C1473 C1477 1.376 . S
C1474 C1472 1.394 . S
C1474 C1475 1.369 . S
C1474 C1478 1.531 . S
C1475 C1474 1.369 . S
C1475 C1476 1.410 . S
C1475 C1483 1.503 . S
C1476 C1475 1.410 . S
C1476 C1477 1.392 . S
C1476 C1479 1.511 . S
C1477 C1473 1.376 . S
C1477 C1476 1.392 . S
C1477 H1489 0.929 . S
C1478 C1474 1.531 . S
C1478 H1490 0.960 . S
C1478 H1491 0.962 . S
C1478 H1492 0.960 . S
C1479 C1476 1.511 . S
C1479 H1493 0.961 . S
C1479 H1494 0.961 . S
C1479 H1495 0.961 . S
C1480 C1481 1.370 . S
C1480 C1482 1.363 . S
C1480 H1496 0.931 . S
C1481 C1480 1.370 . S
C1481 C1485 1.408 . S
C1482 C1480 1.363 . S
C1482 C1483 1.370 . S
C1482 C1486 1.524 . S
C1483 C1475 1.503 . S
C1483 C1482 1.370 . S
C1483 C1484 1.403 . S
C1484 C1483 1.403 . S
C1484 C1485 1.404 . S
C1484 C1487 1.539 . S
C1485 C1481 1.408 . S
C1485 C1484 1.404 . S
C1485 H1497 0.930 . S
C1486 C1482 1.524 . S
C1486 H1498 0.956 . S
C1486 H1499 0.961 . S
C1486 H1500 0.961 . S
C1487 C1484 1.539 . S
C1487 H1501 0.958 . S
C1487 H1502 0.961 . S
C1487 H1503 0.960 . S
H1488 C1472 0.931 . S
H1489 C1477 0.929 . S
H1490 C1478 0.960 . S
H1491 C1478 0.962 . S
H1492 C1478 0.960 . S
H1493 C1479 0.961 . S
H1494 C1479 0.961 . S
H1495 C1479 0.961 . S
H1496 C1480 0.931 . S
H1497 C1485 0.930 . S
H1498 C1486 0.956 . S
H1499 C1486 0.961 . S
H1500 C1486 0.961 . S
H1501 C1487 0.958 . S
H1502 C1487 0.961 . S
H1503 C1487 0.960 . S
C1504 C1505 1.391 . S
C1504 C1506 1.394 . S
C1504 H1520 0.931 . S
C1505 C1504 1.391 . S
C1505 C1509 1.376 . S
C1506 C1504 1.394 . S
C1506 C1507 1.369 . S
C1506 C1510 1.531 . S
C1507 C1506 1.369 . S
C1507 C1508 1.410 . S
C1507 C1515 1.503 . S
C1508 C1507 1.410 . S
C1508 C1509 1.392 . S
C1508 C1511 1.511 . S
C1509 C1505 1.376 . S
C1509 C1508 1.392 . S
C1509 H1521 0.929 . S
C1510 C1506 1.531 . S
C1510 H1522 0.960 . S
C1510 H1523 0.962 . S
C1510 H1524 0.960 . S
C1511 C1508 1.511 . S
C1511 H1525 0.961 . S
C1511 H1526 0.961 . S
C1511 H1527 0.961 . S
C1512 C1513 1.370 . S
C1512 C1514 1.363 . S
C1512 H1528 0.931 . S
C1513 C1512 1.370 . S
C1513 C1517 1.408 . S
C1514 C1512 1.363 . S
C1514 C1515 1.370 . S
C1514 C1518 1.524 . S
C1515 C1507 1.503 . S
C1515 C1514 1.370 . S
C1515 C1516 1.403 . S
C1516 C1515 1.403 . S
C1516 C1517 1.404 . S
C1516 C1519 1.539 . S
C1517 C1513 1.408 . S
C1517 C1516 1.404 . S
C1517 H1529 0.930 . S
C1518 C1514 1.524 . S
C1518 H1530 0.956 . S
C1518 H1531 0.961 . S
C1518 H1532 0.961 . S
C1519 C1516 1.539 . S
C1519 H1533 0.958 . S
C1519 H1534 0.961 . S
C1519 H1535 0.960 . S
H1520 C1504 0.931 . S
H1521 C1509 0.929 . S
H1522 C1510 0.960 . S
H1523 C1510 0.962 . S
H1524 C1510 0.960 . S
H1525 C1511 0.961 . S
H1526 C1511 0.961 . S
H1527 C1511 0.961 . S
H1528 C1512 0.931 . S
H1529 C1517 0.930 . S
H1530 C1518 0.956 . S
H1531 C1518 0.961 . S
H1532 C1518 0.961 . S
H1533 C1519 0.958 . S
H1534 C1519 0.961 . S
H1535 C1519 0.960 . S
C1536 C1537 1.391 . S
C1536 C1538 1.394 . S
C1536 H1552 0.931 . S
C1537 C1536 1.391 . S
C1537 C1541 1.376 . S
C1538 C1536 1.394 . S
C1538 C1539 1.369 . S
C1538 C1542 1.531 . S
C1539 C1538 1.369 . S
C1539 C1540 1.410 . S
C1539 C1547 1.503 . S
C1540 C1539 1.410 . S
C1540 C1541 1.392 . S
C1540 C1543 1.511 . S
C1541 C1537 1.376 . S
C1541 C1540 1.392 . S
C1541 H1553 0.929 . S
C1542 C1538 1.531 . S
C1542 H1554 0.960 . S
C1542 H1555 0.962 . S
C1542 H1556 0.960 . S
C1543 C1540 1.511 . S
C1543 H1557 0.961 . S
C1543 H1558 0.961 . S
C1543 H1559 0.961 . S
C1544 C1545 1.370 . S
C1544 C1546 1.363 . S
C1544 H1560 0.931 . S
C1545 C1544 1.370 . S
C1545 C1549 1.408 . S
C1546 C1544 1.363 . S
C1546 C1547 1.370 . S
C1546 C1550 1.524 . S
C1547 C1539 1.503 . S
C1547 C1546 1.370 . S
C1547 C1548 1.403 . S
C1548 C1547 1.403 . S
C1548 C1549 1.404 . S
C1548 C1551 1.539 . S
C1549 C1545 1.408 . S
C1549 C1548 1.404 . S
C1549 H1561 0.930 . S
C1550 C1546 1.524 . S
C1550 H1562 0.956 . S
C1550 H1563 0.961 . S
C1550 H1564 0.961 . S
C1551 C1548 1.539 . S
C1551 H1565 0.958 . S
C1551 H1566 0.961 . S
C1551 H1567 0.960 . S
H1552 C1536 0.931 . S
H1553 C1541 0.929 . S
H1554 C1542 0.960 . S
H1555 C1542 0.962 . S
H1556 C1542 0.960 . S
H1557 C1543 0.961 . S
H1558 C1543 0.961 . S
H1559 C1543 0.961 . S
H1560 C1544 0.931 . S
H1561 C1549 0.930 . S
H1562 C1550 0.956 . S
H1563 C1550 0.961 . S
H1564 C1550 0.961 . S
H1565 C1551 0.958 . S
H1566 C1551 0.961 . S
H1567 C1551 0.960 . S
C1568 C1569 1.391 . S
C1568 C1570 1.394 . S
C1568 H1584 0.931 . S
C1569 C1568 1.391 . S
C1569 C1573 1.376 . S
C1570 C1568 1.394 . S
C1570 C1571 1.369 . S
C1570 C1574 1.531 . S
C1571 C1570 1.369 . S
C1571 C1572 1.410 . S
C1571 C1579 1.503 . S
C1572 C1571 1.410 . S
C1572 C1573 1.392 . S
C1572 C1575 1.511 . S
C1573 C1569 1.376 . S
C1573 C1572 1.392 . S
C1573 H1585 0.929 . S
C1574 C1570 1.531 . S
C1574 H1586 0.960 . S
C1574 H1587 0.962 . S
C1574 H1588 0.960 . S
C1575 C1572 1.511 . S
C1575 H1589 0.961 . S
C1575 H1590 0.961 . S
C1575 H1591 0.961 . S
C1576 C1577 1.370 . S
C1576 C1578 1.363 . S
C1576 H1592 0.931 . S
C1577 C1576 1.370 . S
C1577 C1581 1.408 . S
C1578 C1576 1.363 . S
C1578 C1579 1.370 . S
C1578 C1582 1.524 . S
C1579 C1571 1.503 . S
C1579 C1578 1.370 . S
C1579 C1580 1.403 . S
C1580 C1579 1.403 . S
C1580 C1581 1.404 . S
C1580 C1583 1.539 . S
C1581 C1577 1.408 . S
C1581 C1580 1.404 . S
C1581 H1593 0.930 . S
C1582 C1578 1.524 . S
C1582 H1594 0.956 . S
C1582 H1595 0.961 . S
C1582 H1596 0.961 . S
C1583 C1580 1.539 . S
C1583 H1597 0.958 . S
C1583 H1598 0.961 . S
C1583 H1599 0.960 . S
H1584 C1568 0.931 . S
H1585 C1573 0.929 . S
H1586 C1574 0.960 . S
H1587 C1574 0.962 . S
H1588 C1574 0.960 . S
H1589 C1575 0.961 . S
H1590 C1575 0.961 . S
H1591 C1575 0.961 . S
H1592 C1576 0.931 . S
H1593 C1581 0.930 . S
H1594 C1582 0.956 . S
H1595 C1582 0.961 . S
H1596 C1582 0.961 . S
H1597 C1583 0.958 . S
H1598 C1583 0.961 . S
H1599 C1583 0.960 . S
C1600 C1601 1.391 . S
C1600 C1602 1.394 1_556 S
C1600 H1616 0.931 . S
C1601 C1600 1.391 . S
C1601 C1605 1.376 . S
C1602 C1600 1.394 1_554 S
C1602 C1603 1.369 . S
C1602 C1606 1.531 . S
C1603 C1602 1.369 . S
C1603 C1604 1.410 . S
C1603 C1611 1.503 . S
C1604 C1603 1.410 . S
C1604 C1605 1.392 1_554 S
C1604 C1607 1.511 . S
C1605 C1601 1.376 . S
C1605 C1604 1.392 1_556 S
C1605 H1617 0.929 . S
C1606 C1602 1.531 . S
C1606 H1618 0.960 . S
C1606 H1619 0.962 . S
C1606 H1620 0.960 . S
C1607 C1604 1.511 . S
C1607 H1621 0.961 . S
C1607 H1622 0.961 . S
C1607 H1623 0.961 . S
C1608 C1609 1.370 . S
C1608 C1610 1.363 . S
C1608 H1624 0.931 . S
C1609 C1608 1.370 . S
C1609 C1613 1.408 . S
C1610 C1608 1.363 . S
C1610 C1611 1.370 . S
C1610 C1614 1.524 . S
C1611 C1603 1.503 . S
C1611 C1610 1.370 . S
C1611 C1612 1.403 . S
C1612 C1611 1.403 . S
C1612 C1613 1.404 . S
C1612 C1615 1.539 . S
C1613 C1609 1.408 . S
C1613 C1612 1.404 . S
C1613 H1625 0.930 . S
C1614 C1610 1.524 . S
C1614 H1626 0.956 . S
C1614 H1627 0.961 . S
C1614 H1628 0.961 . S
C1615 C1612 1.539 . S
C1615 H1629 0.958 . S
C1615 H1630 0.961 . S
C1615 H1631 0.960 . S
H1616 C1600 0.931 . S
H1617 C1605 0.929 . S
H1618 C1606 0.960 . S
H1619 C1606 0.962 . S
H1620 C1606 0.960 . S
H1621 C1607 0.961 . S
H1622 C1607 0.961 . S
H1623 C1607 0.961 . S
H1624 C1608 0.931 . S
H1625 C1613 0.930 . S
H1626 C1614 0.956 . S
H1627 C1614 0.961 . S
H1628 C1614 0.961 . S
H1629 C1615 0.958 . S
H1630 C1615 0.961 . S
H1631 C1615 0.960 . S
C1632 C1633 1.391 . S
C1632 C1634 1.394 . S
C1632 H1648 0.931 . S
C1633 C1632 1.391 . S
C1633 C1637 1.376 . S
C1634 C1632 1.394 . S
C1634 C1635 1.369 . S
C1634 C1638 1.531 . S
C1635 C1634 1.369 . S
C1635 C1636 1.410 . S
C1635 C1643 1.503 . S
C1636 C1635 1.410 . S
C1636 C1637 1.392 . S
C1636 C1639 1.511 . S
C1637 C1633 1.376 . S
C1637 C1636 1.392 . S
C1637 H1649 0.929 . S
C1638 C1634 1.531 . S
C1638 H1650 0.960 . S
C1638 H1651 0.962 . S
C1638 H1652 0.960 . S
C1639 C1636 1.511 . S
C1639 H1653 0.961 . S
C1639 H1654 0.961 . S
C1639 H1655 0.961 . S
C1640 C1641 1.370 . S
C1640 C1642 1.363 1_554 S
C1640 H1656 0.931 . S
C1641 C1640 1.370 . S
C1641 C1645 1.408 . S
C1642 C1640 1.363 1_556 S
C1642 C1643 1.370 . S
C1642 C1646 1.524 . S
C1643 C1635 1.503 . S
C1643 C1642 1.370 . S
C1643 C1644 1.403 . S
C1644 C1643 1.403 . S
C1644 C1645 1.404 1_556 S
C1644 C1647 1.539 . S
C1645 C1641 1.408 . S
C1645 C1644 1.404 1_554 S
C1645 H1657 0.930 . S
C1646 C1642 1.524 . S
C1646 H1658 0.956 . S
C1646 H1659 0.961 . S
C1646 H1660 0.961 . S
C1647 C1644 1.539 . S
C1647 H1661 0.958 . S
C1647 H1662 0.961 . S
C1647 H1663 0.960 . S
H1648 C1632 0.931 . S
H1649 C1637 0.929 . S
H1650 C1638 0.960 . S
H1651 C1638 0.962 . S
H1652 C1638 0.960 . S
H1653 C1639 0.961 . S
H1654 C1639 0.961 . S
H1655 C1639 0.961 . S
H1656 C1640 0.931 . S
H1657 C1645 0.930 . S
H1658 C1646 0.956 . S
H1659 C1646 0.961 . S
H1660 C1646 0.961 . S
H1661 C1647 0.958 . S
H1662 C1647 0.961 . S
H1663 C1647 0.960 . S
C1664 C1665 1.391 . S
C1664 C1666 1.394 . S
C1664 H1680 0.931 . S
C1665 C1664 1.391 . S
C1665 C1669 1.376 . S
C1666 C1664 1.394 . S
C1666 C1667 1.369 . S
C1666 C1670 1.531 . S
C1667 C1666 1.369 . S
C1667 C1668 1.410 . S
C1667 C1675 1.503 . S
C1668 C1667 1.410 . S
C1668 C1669 1.392 . S
C1668 C1671 1.511 . S
C1669 C1665 1.376 . S
C1669 C1668 1.392 . S
C1669 H1681 0.929 . S
C1670 C1666 1.531 . S
C1670 H1682 0.960 . S
C1670 H1683 0.962 . S
C1670 H1684 0.960 . S
C1671 C1668 1.511 . S
C1671 H1685 0.961 . S
C1671 H1686 0.961 . S
C1671 H1687 0.961 . S
C1672 C1673 1.370 . S
C1672 C1674 1.363 1_556 S
C1672 H1688 0.931 . S
C1673 C1672 1.370 . S
C1673 C1677 1.408 . S
C1674 C1672 1.363 1_554 S
C1674 C1675 1.370 . S
C1674 C1678 1.524 . S
C1675 C1667 1.503 . S
C1675 C1674 1.370 . S
C1675 C1676 1.403 . S
C1676 C1675 1.403 . S
C1676 C1677 1.404 1_554 S
C1676 C1679 1.539 . S
C1677 C1673 1.408 . S
C1677 C1676 1.404 1_556 S
C1677 H1689 0.930 . S
C1678 C1674 1.524 . S
C1678 H1690 0.956 . S
C1678 H1691 0.961 . S
C1678 H1692 0.961 . S
C1679 C1676 1.539 . S
C1679 H1693 0.958 . S
C1679 H1694 0.961 . S
C1679 H1695 0.960 . S
H1680 C1664 0.931 . S
H1681 C1669 0.929 . S
H1682 C1670 0.960 . S
H1683 C1670 0.962 . S
H1684 C1670 0.960 . S
H1685 C1671 0.961 . S
H1686 C1671 0.961 . S
H1687 C1671 0.961 . S
H1688 C1672 0.931 . S
H1689 C1677 0.930 . S
H1690 C1678 0.956 . S
H1691 C1678 0.961 . S
H1692 C1678 0.961 . S
H1693 C1679 0.958 . S
H1694 C1679 0.961 . S
H1695 C1679 0.960 . S
C1696 C1697 1.391 . S
C1696 C1698 1.394 1_554 S
C1696 H1712 0.931 . S
C1697 C1696 1.391 . S
C1697 C1701 1.376 . S
C1698 C1696 1.394 1_556 S
C1698 C1699 1.369 . S
C1698 C1702 1.531 . S
C1699 C1698 1.369 . S
C1699 C1700 1.410 . S
C1699 C1707 1.503 . S
C1700 C1699 1.410 . S
C1700 C1701 1.392 1_556 S
C1700 C1703 1.511 . S
C1701 C1697 1.376 . S
C1701 C1700 1.392 1_554 S
C1701 H1713 0.929 . S
C1702 C1698 1.531 . S
C1702 H1714 0.960 . S
C1702 H1715 0.962 . S
C1702 H1716 0.960 . S
C1703 C1700 1.511 . S
C1703 H1717 0.961 . S
C1703 H1718 0.961 . S
C1703 H1719 0.961 . S
C1704 C1705 1.370 . S
C1704 C1706 1.363 . S
C1704 H1720 0.931 . S
C1705 C1704 1.370 . S
C1705 C1709 1.408 . S
C1706 C1704 1.363 . S
C1706 C1707 1.370 . S
C1706 C1710 1.524 . S
C1707 C1699 1.503 . S
C1707 C1706 1.370 . S
C1707 C1708 1.403 . S
C1708 C1707 1.403 . S
C1708 C1709 1.404 . S
C1708 C1711 1.539 . S
C1709 C1705 1.408 . S
C1709 C1708 1.404 . S
C1709 H1721 0.930 . S
C1710 C1706 1.524 . S
C1710 H1722 0.956 . S
C1710 H1723 0.961 . S
C1710 H1724 0.961 . S
C1711 C1708 1.539 . S
C1711 H1725 0.958 . S
C1711 H1726 0.961 . S
C1711 H1727 0.960 . S
H1712 C1696 0.931 . S
H1713 C1701 0.929 . S
H1714 C1702 0.960 . S
H1715 C1702 0.962 . S
H1716 C1702 0.960 . S
H1717 C1703 0.961 . S
H1718 C1703 0.961 . S
H1719 C1703 0.961 . S
H1720 C1704 0.931 . S
H1721 C1709 0.930 . S
H1722 C1710 0.956 . S
H1723 C1710 0.961 . S
H1724 C1710 0.961 . S
H1725 C1711 0.958 . S
H1726 C1711 0.961 . S
H1727 C1711 0.960 . S
C1728 C1729 1.391 . S
C1728 C1730 1.394 . S
C1728 H1744 0.931 . S
C1729 C1728 1.391 . S
C1729 C1733 1.376 . S
C1730 C1728 1.394 . S
C1730 C1731 1.369 . S
C1730 C1734 1.531 . S
C1731 C1730 1.369 . S
C1731 C1732 1.410 . S
C1731 C1739 1.503 . S
C1732 C1731 1.410 . S
C1732 C1733 1.392 . S
C1732 C1735 1.511 . S
C1733 C1729 1.376 . S
C1733 C1732 1.392 . S
C1733 H1745 0.929 . S
C1734 C1730 1.531 . S
C1734 H1746 0.960 . S
C1734 H1747 0.962 . S
C1734 H1748 0.960 . S
C1735 C1732 1.511 . S
C1735 H1749 0.961 . S
C1735 H1750 0.961 . S
C1735 H1751 0.961 . S
C1736 C1737 1.370 . S
C1736 C1738 1.363 1_556 S
C1736 H1752 0.931 . S
C1737 C1736 1.370 . S
C1737 C1741 1.408 . S
C1738 C1736 1.363 1_554 S
C1738 C1739 1.370 . S
C1738 C1742 1.524 . S
C1739 C1731 1.503 . S
C1739 C1738 1.370 . S
C1739 C1740 1.403 . S
C1740 C1739 1.403 . S
C1740 C1741 1.404 1_554 S
C1740 C1743 1.539 . S
C1741 C1737 1.408 . S
C1741 C1740 1.404 1_556 S
C1741 H1753 0.930 . S
C1742 C1738 1.524 . S
C1742 H1754 0.956 . S
C1742 H1755 0.961 . S
C1742 H1756 0.961 . S
C1743 C1740 1.539 . S
C1743 H1757 0.958 . S
C1743 H1758 0.961 . S
C1743 H1759 0.960 . S
H1744 C1728 0.931 . S
H1745 C1733 0.929 . S
H1746 C1734 0.960 . S
H1747 C1734 0.962 . S
H1748 C1734 0.960 . S
H1749 C1735 0.961 . S
H1750 C1735 0.961 . S
H1751 C1735 0.961 . S
H1752 C1736 0.931 . S
H1753 C1741 0.930 . S
H1754 C1742 0.956 . S
H1755 C1742 0.961 . S
H1756 C1742 0.961 . S
H1757 C1743 0.958 . S
H1758 C1743 0.961 . S
H1759 C1743 0.960 . S
C1760 C1761 1.391 . S
C1760 C1762 1.394 1_554 S
C1760 H1776 0.931 . S
C1761 C1760 1.391 . S
C1761 C1765 1.376 . S
C1762 C1760 1.394 1_556 S
C1762 C1763 1.369 . S
C1762 C1766 1.531 . S
C1763 C1762 1.369 . S
C1763 C1764 1.410 . S
C1763 C1771 1.503 . S
C1764 C1763 1.410 . S
C1764 C1765 1.392 1_556 S
C1764 C1767 1.511 . S
C1765 C1761 1.376 . S
C1765 C1764 1.392 1_554 S
C1765 H1777 0.929 . S
C1766 C1762 1.531 . S
C1766 H1778 0.960 . S
C1766 H1779 0.962 . S
C1766 H1780 0.960 . S
C1767 C1764 1.511 . S
C1767 H1781 0.961 . S
C1767 H1782 0.961 . S
C1767 H1783 0.961 . S
C1768 C1769 1.370 . S
C1768 C1770 1.363 . S
C1768 H1784 0.931 . S
C1769 C1768 1.370 . S
C1769 C1773 1.408 . S
C1770 C1768 1.363 . S
C1770 C1771 1.370 . S
C1770 C1774 1.524 . S
C1771 C1763 1.503 . S
C1771 C1770 1.370 . S
C1771 C1772 1.403 . S
C1772 C1771 1.403 . S
C1772 C1773 1.404 . S
C1772 C1775 1.539 . S
C1773 C1769 1.408 . S
C1773 C1772 1.404 . S
C1773 H1785 0.930 . S
C1774 C1770 1.524 . S
C1774 H1786 0.956 . S
C1774 H1787 0.961 . S
C1774 H1788 0.961 . S
C1775 C1772 1.539 . S
C1775 H1789 0.958 . S
C1775 H1790 0.961 . S
C1775 H1791 0.960 . S
H1776 C1760 0.931 . S
H1777 C1765 0.929 . S
H1778 C1766 0.960 . S
H1779 C1766 0.962 . S
H1780 C1766 0.960 . S
H1781 C1767 0.961 . S
H1782 C1767 0.961 . S
H1783 C1767 0.961 . S
H1784 C1768 0.931 . S
H1785 C1773 0.930 . S
H1786 C1774 0.956 . S
H1787 C1774 0.961 . S
H1788 C1774 0.961 . S
H1789 C1775 0.958 . S
H1790 C1775 0.961 . S
H1791 C1775 0.960 . S
C1792 C1793 1.391 . S
C1792 C1794 1.394 1_556 S
C1792 H1808 0.931 . S
C1793 C1792 1.391 . S
C1793 C1797 1.376 . S
C1794 C1792 1.394 1_554 S
C1794 C1795 1.369 . S
C1794 C1798 1.531 . S
C1795 C1794 1.369 . S
C1795 C1796 1.410 . S
C1795 C1803 1.503 . S
C1796 C1795 1.410 . S
C1796 C1797 1.392 1_554 S
C1796 C1799 1.511 . S
C1797 C1793 1.376 . S
C1797 C1796 1.392 1_556 S
C1797 H1809 0.929 . S
C1798 C1794 1.531 . S
C1798 H1810 0.960 . S
C1798 H1811 0.962 . S
C1798 H1812 0.960 . S
C1799 C1796 1.511 . S
C1799 H1813 0.961 . S
C1799 H1814 0.961 . S
C1799 H1815 0.961 . S
C1800 C1801 1.370 . S
C1800 C1802 1.363 . S
C1800 H1816 0.931 . S
C1801 C1800 1.370 . S
C1801 C1805 1.408 . S
C1802 C1800 1.363 . S
C1802 C1803 1.370 . S
C1802 C1806 1.524 . S
C1803 C1795 1.503 . S
C1803 C1802 1.370 . S
C1803 C1804 1.403 . S
C1804 C1803 1.403 . S
C1804 C1805 1.404 . S
C1804 C1807 1.539 . S
C1805 C1801 1.408 . S
C1805 C1804 1.404 . S
C1805 H1817 0.930 . S
C1806 C1802 1.524 . S
C1806 H1818 0.956 . S
C1806 H1819 0.961 . S
C1806 H1820 0.961 . S
C1807 C1804 1.539 . S
C1807 H1821 0.958 . S
C1807 H1822 0.961 . S
C1807 H1823 0.960 . S
H1808 C1792 0.931 . S
H1809 C1797 0.929 . S
H1810 C1798 0.960 . S
H1811 C1798 0.962 . S
H1812 C1798 0.960 . S
H1813 C1799 0.961 . S
H1814 C1799 0.961 . S
H1815 C1799 0.961 . S
H1816 C1800 0.931 . S
H1817 C1805 0.930 . S
H1818 C1806 0.956 . S
H1819 C1806 0.961 . S
H1820 C1806 0.961 . S
H1821 C1807 0.958 . S
H1822 C1807 0.961 . S
H1823 C1807 0.960 . S
C1824 C1825 1.391 . S
C1824 C1826 1.394 . S
C1824 H1840 0.931 . S
C1825 C1824 1.391 . S
C1825 C1829 1.376 . S
C1826 C1824 1.394 . S
C1826 C1827 1.369 . S
C1826 C1830 1.531 . S
C1827 C1826 1.369 . S
C1827 C1828 1.410 . S
C1827 C1835 1.503 . S
C1828 C1827 1.410 . S
C1828 C1829 1.392 . S
C1828 C1831 1.511 . S
C1829 C1825 1.376 . S
C1829 C1828 1.392 . S
C1829 H1841 0.929 . S
C1830 C1826 1.531 . S
C1830 H1842 0.960 . S
C1830 H1843 0.962 . S
C1830 H1844 0.960 . S
C1831 C1828 1.511 . S
C1831 H1845 0.961 . S
C1831 H1846 0.961 . S
C1831 H1847 0.961 . S
C1832 C1833 1.370 . S
C1832 C1834 1.363 1_554 S
C1832 H1848 0.931 . S
C1833 C1832 1.370 . S
C1833 C1837 1.408 . S
C1834 C1832 1.363 1_556 S
C1834 C1835 1.370 . S
C1834 C1838 1.524 . S
C1835 C1827 1.503 . S
C1835 C1834 1.370 . S
C1835 C1836 1.403 . S
C1836 C1835 1.403 . S
C1836 C1837 1.404 1_556 S
C1836 C1839 1.539 . S
C1837 C1833 1.408 . S
C1837 C1836 1.404 1_554 S
C1837 H1849 0.930 . S
C1838 C1834 1.524 . S
C1838 H1850 0.956 . S
C1838 H1851 0.961 . S
C1838 H1852 0.961 . S
C1839 C1836 1.539 . S
C1839 H1853 0.958 . S
C1839 H1854 0.961 . S
C1839 H1855 0.960 . S
H1840 C1824 0.931 . S
H1841 C1829 0.929 . S
H1842 C1830 0.960 . S
H1843 C1830 0.962 . S
H1844 C1830 0.960 . S
H1845 C1831 0.961 . S
H1846 C1831 0.961 . S
H1847 C1831 0.961 . S
H1848 C1832 0.931 . S
H1849 C1837 0.930 . S
H1850 C1838 0.956 . S
H1851 C1838 0.961 . S
H1852 C1838 0.961 . S
H1853 C1839 0.958 . S
H1854 C1839 0.961 . S
H1855 C1839 0.960 . S
C321 C222 1.563 . S
C329 C19 1.575 . S
C353 C164 1.558 . S
C361 C38 1.575 . S
C385 C59 1.556 . S
C393 C182 1.549 . S
C417 C78 1.548 . S
C425 C204 1.546 . S
C449 C99 1.575 . S
C457 C102 1.538 . S
C481 C124 1.518 . S
C489 C118 1.573 . S
C513 C139 1.560 . S
C521 C142 1.551 . S
C545 C84 1.552 . S
C553 C158 1.563 . S
C577 C62 1.516 . S
C585 C179 1.570 . S
C609 C198 1.549 . S
C617 C4 1.547 . S
C641 C22 1.557 . S
C649 C219 1.577 . S
C673 C44 1.533 . S
C681 C238 1.576 . S
C705 C259 1.571 . S
C713 C262 1.535 . S
C737 C284 1.561 . S
C745 C278 1.566 . S
C769 C302 1.562 . S
C777 C299 1.568 . S
C801 C318 1.582 . S
C809 C244 1.541 . S
C833 C18 1.501 . S
C841 C98 1.478 . S
C865 C119 1.456 . S
C873 C39 1.477 . S
C897 C58 1.454 . S
C905 C138 1.475 . S
C929 C79 1.451 . S
C937 C159 1.487 . S
C961 C178 1.501 . S
C969 C258 1.478 . S
C993 C279 1.454 . S
C1001 C199 1.479 . S
C1025 C218 1.450 . S
C1033 C298 1.480 . S
C1057 C239 1.487 . S
C1065 C319 1.469 . S
C1089 C282 1.559 . S
C1097 C2 1.501 1_556 S
C1121 C24 1.494 1_554 S
C1129 C304 1.534 . S
C1153 C42 1.557 1_556 S
C1161 C242 1.501 . S
C1185 C64 1.498 1_554 S
C1193 C264 1.533 . S
C1217 C82 1.506 . S
C1225 C202 1.515 . S
C1249 C104 1.559 . S
C1257 C224 1.502 . S
C1281 C122 1.564 . S
C1289 C162 1.504 . S
C1313 C184 1.501 . S
C1321 C144 1.532 . S
C1345 C12 1.346 . S
C1353 C9 1.310 . S
C1377 C29 1.298 . S
C1385 C32 1.329 . S
C1409 C52 1.346 . S
C1417 C49 1.310 . S
C1441 C72 1.321 . S
C1449 C69 1.322 . S
C1473 C89 1.310 . S
C1481 C92 1.327 . S
C1505 C109 1.304 . S
C1513 C112 1.329 . S
C1537 C132 1.345 . S
C1545 C129 1.310 . S
C1569 C152 1.323 . S
C1577 C149 1.318 . S
C1601 C172 1.317 . S
C1609 C169 1.320 . S
C1633 C192 1.338 . S
C1641 C189 1.315 . S
C1665 C209 1.321 . S
C1673 C212 1.319 . S
C1697 C229 1.294 . S
C1705 C232 1.332 . S
C1729 C252 1.298 . S
C1737 C249 1.331 . S
C1761 C272 1.291 . S
C1769 C269 1.332 . S
C1793 C289 1.319 . S
C1801 C292 1.319 . S
C1825 C309 1.290 . S
C1833 C312 1.333 . S
