# Generated by pormake.
# Topology sou, (8)-cn, num edge types: 1
# Building blocks:
#     Node 0, Type 0, BuildingBlock: EBIMEJ_clean_sbu_0, # of connection points: 8
#     Node 1, Type 0, BuildingBlock: EBIMEJ_clean_sbu_0, # of connection points: 8
#     Node 2, Type 0, BuildingBlock: EBIMEJ_clean_sbu_0, # of connection points: 8
#     Node 3, Type 0, BuildingBlock: EBIMEJ_clean_sbu_0, # of connection points: 8
#     Node 4, Type 0, BuildingBlock: EBIMEJ_clean_sbu_0, # of connection points: 8
#     Node 5, Type 0, BuildingBlock: EBIMEJ_clean_sbu_0, # of connection points: 8
#     Node 6, Type 0, BuildingBlock: EBIMEJ_clean_sbu_0, # of connection points: 8
#     Node 7, Type 0, BuildingBlock: EBIMEJ_clean_sbu_0, # of connection points: 8
#     Node 8, Type 0, BuildingBlock: EBIMEJ_clean_sbu_0, # of connection points: 8
#     Node 9, Type 0, BuildingBlock: EBIMEJ_clean_sbu_0, # of connection points: 8
#     Node 10, Type 0, BuildingBlock: EBIMEJ_clean_sbu_0, # of connection points: 8
#     Node 11, Type 0, BuildingBlock: EBIMEJ_clean_sbu_0, # of connection points: 8
#     Node 12, Type 0, BuildingBlock: EBIMEJ_clean_sbu_0, # of connection points: 8
#     Node 13, Type 0, BuildingBlock: EBIMEJ_clean_sbu_0, # of connection points: 8
#     Node 14, Type 0, BuildingBlock: EBIMEJ_clean_sbu_0, # of connection points: 8
#     Node 15, Type 0, BuildingBlock: EBIMEJ_clean_sbu_0, # of connection points: 8
#     Node 16, Type 0, BuildingBlock: EBIMEJ_clean_sbu_0, # of connection points: 8
#     Node 17, Type 0, BuildingBlock: EBIMEJ_clean_sbu_0, # of connection points: 8
#     Node 18, Type 0, BuildingBlock: EBIMEJ_clean_sbu_0, # of connection points: 8
#     Node 19, Type 0, BuildingBlock: EBIMEJ_clean_sbu_0, # of connection points: 8
#     Node 20, Type 0, BuildingBlock: EBIMEJ_clean_sbu_0, # of connection points: 8
#     Node 21, Type 0, BuildingBlock: EBIMEJ_clean_sbu_0, # of connection points: 8
#     Node 22, Type 0, BuildingBlock: EBIMEJ_clean_sbu_0, # of connection points: 8
#     Node 23, Type 0, BuildingBlock: EBIMEJ_clean_sbu_0, # of connection points: 8
#     Node 24, Type 0, BuildingBlock: EBIMEJ_clean_sbu_0, # of connection points: 8
#     Node 25, Type 0, BuildingBlock: EBIMEJ_clean_sbu_0, # of connection points: 8
#     Node 26, Type 0, BuildingBlock: EBIMEJ_clean_sbu_0, # of connection points: 8
#     Node 27, Type 0, BuildingBlock: EBIMEJ_clean_sbu_0, # of connection points: 8
#     Node 28, Type 0, BuildingBlock: EBIMEJ_clean_sbu_0, # of connection points: 8
#     Node 29, Type 0, BuildingBlock: EBIMEJ_clean_sbu_0, # of connection points: 8
#     Node 30, Type 0, BuildingBlock: EBIMEJ_clean_sbu_0, # of connection points: 8
#     Node 31, Type 0, BuildingBlock: EBIMEJ_clean_sbu_0, # of connection points: 8
#     Edge 32, Type (0, 0), BuildingBlock: OJICUG_clean_linker_0, # of connection points: 2
#     Edge 33, Type (0, 0), BuildingBlock: OJICUG_clean_linker_0, # of connection points: 2
#     Edge 34, Type (0, 0), BuildingBlock: OJICUG_clean_linker_0, # of connection points: 2
#     Edge 35, Type (0, 0), BuildingBlock: OJICUG_clean_linker_0, # of connection points: 2
#     Edge 36, Type (0, 0), BuildingBlock: OJICUG_clean_linker_0, # of connection points: 2
#     Edge 37, Type (0, 0), BuildingBlock: OJICUG_clean_linker_0, # of connection points: 2
#     Edge 38, Type (0, 0), BuildingBlock: OJICUG_clean_linker_0, # of connection points: 2
#     Edge 39, Type (0, 0), BuildingBlock: OJICUG_clean_linker_0, # of connection points: 2
#     Edge 40, Type (0, 0), BuildingBlock: OJICUG_clean_linker_0, # of connection points: 2
#     Edge 41, Type (0, 0), BuildingBlock: OJICUG_clean_linker_0, # of connection points: 2
#     Edge 42, Type (0, 0), BuildingBlock: OJICUG_clean_linker_0, # of connection points: 2
#     Edge 43, Type (0, 0), BuildingBlock: OJICUG_clean_linker_0, # of connection points: 2
#     Edge 44, Type (0, 0), BuildingBlock: OJICUG_clean_linker_0, # of connection points: 2
#     Edge 45, Type (0, 0), BuildingBlock: OJICUG_clean_linker_0, # of connection points: 2
#     Edge 46, Type (0, 0), BuildingBlock: OJICUG_clean_linker_0, # of connection points: 2
#     Edge 47, Type (0, 0), BuildingBlock: OJICUG_clean_linker_0, # of connection points: 2
#     Edge 48, Type (0, 0), BuildingBlock: OJICUG_clean_linker_0, # of connection points: 2
#     Edge 49, Type (0, 0), BuildingBlock: OJICUG_clean_linker_0, # of connection points: 2
#     Edge 50, Type (0, 0), BuildingBlock: OJICUG_clean_linker_0, # of connection points: 2
#     Edge 51, Type (0, 0), BuildingBlock: OJICUG_clean_linker_0, # of connection points: 2
#     Edge 52, Type (0, 0), BuildingBlock: OJICUG_clean_linker_0, # of connection points: 2
#     Edge 53, Type (0, 0), BuildingBlock: OJICUG_clean_linker_0, # of connection points: 2
#     Edge 54, Type (0, 0), BuildingBlock: OJICUG_clean_linker_0, # of connection points: 2
#     Edge 55, Type (0, 0), BuildingBlock: OJICUG_clean_linker_0, # of connection points: 2
#     Edge 56, Type (0, 0), BuildingBlock: OJICUG_clean_linker_0, # of connection points: 2
#     Edge 57, Type (0, 0), BuildingBlock: OJICUG_clean_linker_0, # of connection points: 2
#     Edge 58, Type (0, 0), BuildingBlock: OJICUG_clean_linker_0, # of connection points: 2
#     Edge 59, Type (0, 0), BuildingBlock: OJICUG_clean_linker_0, # of connection points: 2
#     Edge 60, Type (0, 0), BuildingBlock: OJICUG_clean_linker_0, # of connection points: 2
#     Edge 61, Type (0, 0), BuildingBlock: OJICUG_clean_linker_0, # of connection points: 2
#     Edge 62, Type (0, 0), BuildingBlock: OJICUG_clean_linker_0, # of connection points: 2
#     Edge 63, Type (0, 0), BuildingBlock: OJICUG_clean_linker_0, # of connection points: 2
#     Edge 64, Type (0, 0), BuildingBlock: OJICUG_clean_linker_0, # of connection points: 2
#     Edge 65, Type (0, 0), BuildingBlock: OJICUG_clean_linker_0, # of connection points: 2
#     Edge 66, Type (0, 0), BuildingBlock: OJICUG_clean_linker_0, # of connection points: 2
#     Edge 67, Type (0, 0), BuildingBlock: OJICUG_clean_linker_0, # of connection points: 2
#     Edge 68, Type (0, 0), BuildingBlock: OJICUG_clean_linker_0, # of connection points: 2
#     Edge 69, Type (0, 0), BuildingBlock: OJICUG_clean_linker_0, # of connection points: 2
#     Edge 70, Type (0, 0), BuildingBlock: OJICUG_clean_linker_0, # of connection points: 2
#     Edge 71, Type (0, 0), BuildingBlock: OJICUG_clean_linker_0, # of connection points: 2
#     Edge 72, Type (0, 0), BuildingBlock: OJICUG_clean_linker_0, # of connection points: 2
#     Edge 73, Type (0, 0), BuildingBlock: OJICUG_clean_linker_0, # of connection points: 2
#     Edge 74, Type (0, 0), BuildingBlock: OJICUG_clean_linker_0, # of connection points: 2
#     Edge 75, Type (0, 0), BuildingBlock: OJICUG_clean_linker_0, # of connection points: 2
#     Edge 76, Type (0, 0), BuildingBlock: OJICUG_clean_linker_0, # of connection points: 2
#     Edge 77, Type (0, 0), BuildingBlock: OJICUG_clean_linker_0, # of connection points: 2
#     Edge 78, Type (0, 0), BuildingBlock: OJICUG_clean_linker_0, # of connection points: 2
#     Edge 79, Type (0, 0), BuildingBlock: OJICUG_clean_linker_0, # of connection points: 2
#     Edge 80, Type (0, 0), BuildingBlock: OJICUG_clean_linker_0, # of connection points: 2
#     Edge 81, Type (0, 0), BuildingBlock: OJICUG_clean_linker_0, # of connection points: 2
#     Edge 82, Type (0, 0), BuildingBlock: OJICUG_clean_linker_0, # of connection points: 2
#     Edge 83, Type (0, 0), BuildingBlock: OJICUG_clean_linker_0, # of connection points: 2
#     Edge 84, Type (0, 0), BuildingBlock: OJICUG_clean_linker_0, # of connection points: 2
#     Edge 85, Type (0, 0), BuildingBlock: OJICUG_clean_linker_0, # of connection points: 2
#     Edge 86, Type (0, 0), BuildingBlock: OJICUG_clean_linker_0, # of connection points: 2
#     Edge 87, Type (0, 0), BuildingBlock: OJICUG_clean_linker_0, # of connection points: 2
#     Edge 88, Type (0, 0), BuildingBlock: OJICUG_clean_linker_0, # of connection points: 2
#     Edge 89, Type (0, 0), BuildingBlock: OJICUG_clean_linker_0, # of connection points: 2
#     Edge 90, Type (0, 0), BuildingBlock: OJICUG_clean_linker_0, # of connection points: 2
#     Edge 91, Type (0, 0), BuildingBlock: OJICUG_clean_linker_0, # of connection points: 2
#     Edge 92, Type (0, 0), BuildingBlock: OJICUG_clean_linker_0, # of connection points: 2
#     Edge 93, Type (0, 0), BuildingBlock: OJICUG_clean_linker_0, # of connection points: 2
#     Edge 94, Type (0, 0), BuildingBlock: OJICUG_clean_linker_0, # of connection points: 2
#     Edge 95, Type (0, 0), BuildingBlock: OJICUG_clean_linker_0, # of connection points: 2
#     Edge 96, Type (0, 0), BuildingBlock: OJICUG_clean_linker_0, # of connection points: 2
#     Edge 97, Type (0, 0), BuildingBlock: OJICUG_clean_linker_0, # of connection points: 2
#     Edge 98, Type (0, 0), BuildingBlock: OJICUG_clean_linker_0, # of connection points: 2
#     Edge 99, Type (0, 0), BuildingBlock: OJICUG_clean_linker_0, # of connection points: 2
#     Edge 100, Type (0, 0), BuildingBlock: OJICUG_clean_linker_0, # of connection points: 2
#     Edge 101, Type (0, 0), BuildingBlock: OJICUG_clean_linker_0, # of connection points: 2
#     Edge 102, Type (0, 0), BuildingBlock: OJICUG_clean_linker_0, # of connection points: 2
#     Edge 103, Type (0, 0), BuildingBlock: OJICUG_clean_linker_0, # of connection points: 2
#     Edge 104, Type (0, 0), BuildingBlock: OJICUG_clean_linker_0, # of connection points: 2
#     Edge 105, Type (0, 0), BuildingBlock: OJICUG_clean_linker_0, # of connection points: 2
#     Edge 106, Type (0, 0), BuildingBlock: OJICUG_clean_linker_0, # of connection points: 2
#     Edge 107, Type (0, 0), BuildingBlock: OJICUG_clean_linker_0, # of connection points: 2
#     Edge 108, Type (0, 0), BuildingBlock: OJICUG_clean_linker_0, # of connection points: 2
#     Edge 109, Type (0, 0), BuildingBlock: OJICUG_clean_linker_0, # of connection points: 2
#     Edge 110, Type (0, 0), BuildingBlock: OJICUG_clean_linker_0, # of connection points: 2
#     Edge 111, Type (0, 0), BuildingBlock: OJICUG_clean_linker_0, # of connection points: 2
#     Edge 112, Type (0, 0), BuildingBlock: OJICUG_clean_linker_0, # of connection points: 2
#     Edge 113, Type (0, 0), BuildingBlock: OJICUG_clean_linker_0, # of connection points: 2
#     Edge 114, Type (0, 0), BuildingBlock: OJICUG_clean_linker_0, # of connection points: 2
#     Edge 115, Type (0, 0), BuildingBlock: OJICUG_clean_linker_0, # of connection points: 2
#     Edge 116, Type (0, 0), BuildingBlock: OJICUG_clean_linker_0, # of connection points: 2
#     Edge 117, Type (0, 0), BuildingBlock: OJICUG_clean_linker_0, # of connection points: 2
#     Edge 118, Type (0, 0), BuildingBlock: OJICUG_clean_linker_0, # of connection points: 2
#     Edge 119, Type (0, 0), BuildingBlock: OJICUG_clean_linker_0, # of connection points: 2
#     Edge 120, Type (0, 0), BuildingBlock: OJICUG_clean_linker_0, # of connection points: 2
#     Edge 121, Type (0, 0), BuildingBlock: OJICUG_clean_linker_0, # of connection points: 2
#     Edge 122, Type (0, 0), BuildingBlock: OJICUG_clean_linker_0, # of connection points: 2
#     Edge 123, Type (0, 0), BuildingBlock: OJICUG_clean_linker_0, # of connection points: 2
#     Edge 124, Type (0, 0), BuildingBlock: OJICUG_clean_linker_0, # of connection points: 2
#     Edge 125, Type (0, 0), BuildingBlock: OJICUG_clean_linker_0, # of connection points: 2
#     Edge 126, Type (0, 0), BuildingBlock: OJICUG_clean_linker_0, # of connection points: 2
#     Edge 127, Type (0, 0), BuildingBlock: OJICUG_clean_linker_0, # of connection points: 2
#     Edge 128, Type (0, 0), BuildingBlock: OJICUG_clean_linker_0, # of connection points: 2
#     Edge 129, Type (0, 0), BuildingBlock: OJICUG_clean_linker_0, # of connection points: 2
#     Edge 130, Type (0, 0), BuildingBlock: OJICUG_clean_linker_0, # of connection points: 2
#     Edge 131, Type (0, 0), BuildingBlock: OJICUG_clean_linker_0, # of connection points: 2
#     Edge 132, Type (0, 0), BuildingBlock: OJICUG_clean_linker_0, # of connection points: 2
#     Edge 133, Type (0, 0), BuildingBlock: OJICUG_clean_linker_0, # of connection points: 2
#     Edge 134, Type (0, 0), BuildingBlock: OJICUG_clean_linker_0, # of connection points: 2
#     Edge 135, Type (0, 0), BuildingBlock: OJICUG_clean_linker_0, # of connection points: 2
#     Edge 136, Type (0, 0), BuildingBlock: OJICUG_clean_linker_0, # of connection points: 2
#     Edge 137, Type (0, 0), BuildingBlock: OJICUG_clean_linker_0, # of connection points: 2
#     Edge 138, Type (0, 0), BuildingBlock: OJICUG_clean_linker_0, # of connection points: 2
#     Edge 139, Type (0, 0), BuildingBlock: OJICUG_clean_linker_0, # of connection points: 2
#     Edge 140, Type (0, 0), BuildingBlock: OJICUG_clean_linker_0, # of connection points: 2
#     Edge 141, Type (0, 0), BuildingBlock: OJICUG_clean_linker_0, # of connection points: 2
#     Edge 142, Type (0, 0), BuildingBlock: OJICUG_clean_linker_0, # of connection points: 2
#     Edge 143, Type (0, 0), BuildingBlock: OJICUG_clean_linker_0, # of connection points: 2
#     Edge 144, Type (0, 0), BuildingBlock: OJICUG_clean_linker_0, # of connection points: 2
#     Edge 145, Type (0, 0), BuildingBlock: OJICUG_clean_linker_0, # of connection points: 2
#     Edge 146, Type (0, 0), BuildingBlock: OJICUG_clean_linker_0, # of connection points: 2
#     Edge 147, Type (0, 0), BuildingBlock: OJICUG_clean_linker_0, # of connection points: 2
#     Edge 148, Type (0, 0), BuildingBlock: OJICUG_clean_linker_0, # of connection points: 2
#     Edge 149, Type (0, 0), BuildingBlock: OJICUG_clean_linker_0, # of connection points: 2
#     Edge 150, Type (0, 0), BuildingBlock: OJICUG_clean_linker_0, # of connection points: 2
#     Edge 151, Type (0, 0), BuildingBlock: OJICUG_clean_linker_0, # of connection points: 2
#     Edge 152, Type (0, 0), BuildingBlock: OJICUG_clean_linker_0, # of connection points: 2
#     Edge 153, Type (0, 0), BuildingBlock: OJICUG_clean_linker_0, # of connection points: 2
#     Edge 154, Type (0, 0), BuildingBlock: OJICUG_clean_linker_0, # of connection points: 2
#     Edge 155, Type (0, 0), BuildingBlock: OJICUG_clean_linker_0, # of connection points: 2
#     Edge 156, Type (0, 0), BuildingBlock: OJICUG_clean_linker_0, # of connection points: 2
#     Edge 157, Type (0, 0), BuildingBlock: OJICUG_clean_linker_0, # of connection points: 2
#     Edge 158, Type (0, 0), BuildingBlock: OJICUG_clean_linker_0, # of connection points: 2
#     Edge 159, Type (0, 0), BuildingBlock: OJICUG_clean_linker_0, # of connection points: 2
# Relax obj value: 0.095
# Max RMSD: 0.250
# Mean RMSD: 0.184
data_MOF--net-sou--node1-EBIMEJ_clean_sbu_0--edge1-OJICUG_clean_linker_0
_symmetry_space_group_name_H-M    P1
_symmetry_Int_Tables_number       1
_symmetry_cell_setting            triclinic
loop_
_symmetry_equiv_pos_as_xyz
'x, y, z'
_cell_length_a     51.945225
_cell_length_b     33.572888
_cell_length_c     33.244012
_cell_angle_alpha  88.837835
_cell_angle_beta   97.125451
_cell_angle_gamma 95.045699
loop_
_atom_site_label
_atom_site_type_symbol
_atom_site_fract_x
_atom_site_fract_y
_atom_site_fract_z
_atom_type_partial_charge
Co0 Co 0.97603 0.25228 0.0115 0.0
Co1 Co 1.00651 0.34161 0.0059 0.0
Co2 Co 0.03667 0.27398 0.04022 0.0
H3 H 1.00598 0.27348 0.02984 0.0
O4 O 1.00057 0.29413 0.03982 0.0
H5 H 0.03757 0.341 0.01225 0.0
O6 O 0.0422 0.31937 0.00282 0.0
Co7 Co 0.06838 0.36301 0.02554 0.0
O8 O 0.0515 0.41415 0.01068 0.0
O9 O 1.01383 0.39188 0.97511 0.0
O10 O 0.0913 0.3258 0.06069 0.0
O11 O 0.07388 0.26318 0.047 0.0
O12 O 0.95342 0.21435 0.9702 0.0
O13 O 0.94182 0.22282 0.02648 0.0
O14 O 0.05564 0.38014 0.07711 0.0
O15 O 1.01279 0.37201 0.05807 0.0
C16 C 1.0085 0.20454 0.07586 0.0
C17 C 0.94896 0.33053 0.00753 0.0
C18 C 0.10628 0.40162 -0.00304 0.0
C19 C 1.0142 0.23469 0.96196 0.0
C20 C 0.03041 0.42043 0.98847 0.0
C21 C 0.09241 0.28783 0.06222 0.0
C22 C 0.93641 0.20508 -0.00678 0.0
C23 C 0.03226 0.38416 0.08333 0.0
O24 O 0.98764 0.20978 0.05237 0.0
O25 O 0.02928 0.22809 0.0767 0.0
O26 O 0.96939 0.35396 0.0038 0.0
O27 O 0.94922 0.29266 0.01174 0.0
O28 O 0.08831 0.41655 0.01173 0.0
O29 O 0.10296 0.36403 -0.0017 0.0
O30 O 0.99368 0.25255 0.96138 0.0
O31 O 0.03118 0.23622 -0.00687 0.0
Co32 Co 0.30357 0.91412 -0.00035 0.0
Co33 Co 0.24403 0.9052 0.02594 0.0
Co34 Co 0.27951 0.97838 0.04943 0.0
H35 H 0.28722 0.93878 0.03096 0.0
O36 O 0.28137 0.91781 0.04333 0.0
H37 H 0.2366 0.94137 0.05078 0.0
O38 O 0.24159 0.96354 0.03972 0.0
Co39 Co 0.22085 0.96126 0.08653 0.0
O40 O 0.19096 0.9196 0.06354 0.0
O41 O 0.20626 0.89368 0.01057 0.0
O42 O 0.2352 0.02101 0.09062 0.0
O43 O 0.27315 0.03248 0.06353 0.0
O44 O 0.33942 0.91569 0.979 0.0
O45 O 0.32913 0.87287 0.02149 0.0
O46 O 0.2419 0.92499 0.12501 0.0
O47 O 0.24159 0.87798 0.07902 0.0
C48 C 0.33207 0.99325 0.02171 0.0
C49 C 0.26861 0.83504 -0.00166 0.0
C50 C 0.18347 0.98272 0.11973 0.0
C51 C 0.27636 0.9804 0.95783 0.0
C52 C 0.18789 0.89744 0.03196 0.0
C53 C 0.25451 0.04433 0.0806 0.0
C54 C 0.34668 0.88704 0.00111 0.0
C55 C 0.24514 0.88936 0.11562 0.0
O56 O 0.3259 0.96572 -0.00436 0.0
O57 O 0.31857 0.99642 0.05144 0.0
O58 O 0.24882 0.85137 0.00696 0.0
O59 O 0.29058 0.85469 -0.00458 0.0
O60 O 0.20347 0.96933 0.13853 0.0
O61 O 0.18485 0.98406 0.08228 0.0
O62 O 0.28632 0.94745 0.95425 0.0
O63 O 0.27429 0.99528 0.99197 0.0
Co64 Co 0.97488 0.99751 0.2162 0.0
Co65 Co 0.99884 0.91172 0.21745 0.0
Co66 Co 0.03281 0.98583 0.1983 0.0
H67 H 1.00241 0.98196 0.20114 0.0
O68 O 0.99461 0.96212 0.18723 0.0
H69 H 0.02938 0.91689 0.21782 0.0
O70 O 0.03674 0.93716 0.23159 0.0
Co71 Co 0.05747 0.90181 0.20463 0.0
O72 O 0.04147 0.8476 0.21866 0.0
O73 O 1.00502 0.859 0.24484 0.0
O74 O 0.08151 0.94107 0.17781 0.0
O75 O 0.07179 0.99983 0.2003 0.0
O76 O 0.95296 0.04606 0.20629 0.0
O77 O 0.94614 0.00492 0.25206 0.0
O78 O 0.03848 0.91199 0.14975 0.0
O79 O 1.00079 0.8849 0.16478 0.0
C80 C 1.0071 0.05577 0.16481 0.0
C81 C 0.94115 0.91736 0.20825 0.0
C82 C 0.09718 0.86615 0.22494 0.0
C83 C 0.01693 0.0108 0.27627 0.0
C84 C 0.02204 0.83571 0.23688 0.0
C85 C 0.08707 0.97818 0.18438 0.0
C86 C 0.93943 0.03641 0.2343 0.0
C87 C 0.01723 0.89118 0.1396 0.0
O88 O 0.98715 0.04562 0.18299 0.0
O89 O 0.02645 0.03457 0.16558 0.0
O90 O 0.96041 0.89568 0.20938 0.0
O91 O 0.94408 0.95545 0.21053 0.0
O92 O 0.07956 0.85525 0.19708 0.0
O93 O 0.09216 0.89725 0.24178 0.0
O94 O 0.99682 0.98699 0.26843 0.0
O95 O 0.03191 0.01835 0.24889 0.0
Co96 Co 0.30282 0.25878 0.19767 0.0
Co97 Co 0.27767 0.34251 0.20791 0.0
Co98 Co 0.24291 0.27084 0.17354 0.0
H99 H 0.27363 0.27572 0.1811 0.0
O100 O 0.27977 0.29793 0.17122 0.0
H101 H 0.24693 0.33556 0.20547 0.0
O102 O 0.2416 0.31241 0.2144 0.0
Co103 Co 0.21659 0.35158 0.1954 0.0
O104 O 0.23384 0.40399 0.21565 0.0
O105 O 0.27397 0.39036 0.24177 0.0
O106 O 0.18883 0.31393 0.16613 0.0
O107 O 0.20462 0.2537 0.16836 0.0
O108 O 0.33474 0.24719 0.23808 0.0
O109 O 0.32611 0.21508 0.1847 0.0
O110 O 0.22648 0.36708 0.14095 0.0
O111 O 0.26923 0.37709 0.1591 0.0
C112 C 0.26561 0.20618 0.13676 0.0
C113 C 0.33435 0.3412 0.20032 0.0
C114 C 0.17915 0.38375 0.21685 0.0
C115 C 0.26591 0.23247 0.24966 0.0
C116 C 0.25582 0.41424 0.23536 0.0
C117 C 0.18604 0.27641 0.1606 0.0
C118 C 0.34142 0.22028 0.21683 0.0
C119 C 0.24877 0.38302 0.13521 0.0
O120 O 0.287 0.21333 0.1601 0.0
O121 O 0.24681 0.22855 0.13476 0.0
O122 O 0.31522 0.36157 0.20552 0.0
O123 O 0.33182 0.30328 0.19596 0.0
O124 O 0.19515 0.39995 0.19495 0.0
O125 O 0.18445 0.34886 0.22723 0.0
O126 O 0.28645 0.25555 0.24916 0.0
O127 O 0.24869 0.2302 0.21876 0.0
Co128 Co 0.96072 0.63662 0.9609 0.0
Co129 Co 0.99191 0.72612 0.94516 0.0
Co130 Co 0.02258 0.65871 0.97843 0.0
H131 H 0.99151 0.65908 0.97312 0.0
O132 O 0.987 0.68069 0.98276 0.0
H133 H 0.02269 0.72676 0.95419 0.0
O134 O 0.02788 0.70604 0.94403 0.0
Co135 Co 0.05291 0.74806 0.97095 0.0
O136 O 0.04088 0.78913 0.92881 0.0
O137 O 0.99855 0.77188 0.90806 0.0
O138 O 0.07955 0.70747 0.96928 0.0
O139 O 0.05957 0.64646 0.97931 0.0
O140 O 0.94121 0.58314 0.97584 0.0
O141 O 0.92597 0.63565 0.98769 0.0
O142 O 0.03673 0.75007 0.02218 0.0
O143 O 0.99815 0.7641 0.99217 0.0
C144 C 0.99926 0.57974 -0.00279 0.0
C145 C 0.93649 0.71176 0.92429 0.0
C146 C 0.09274 0.7946 0.98961 0.0
C147 C 0.99615 0.61351 0.90285 0.0
C148 C 0.01951 0.79459 0.9067 0.0
C149 C 0.07984 0.66965 0.97417 0.0
C150 C 0.92299 0.59806 0.98993 0.0
C151 C 0.01593 0.76703 0.02231 0.0
O152 O 0.97778 0.58573 0.97595 0.0
O153 O 0.01595 0.60847 0.00969 0.0
O154 O 0.95474 0.7366 0.93995 0.0
O155 O 0.93799 0.67386 0.92541 0.0
O156 O 0.07024 0.80153 -0.00413 0.0
O157 O 0.09256 0.76145 0.97276 0.0
O158 O 0.97282 0.61547 0.91046 0.0
O159 O 0.01576 0.62829 0.92635 0.0
Co160 Co 0.8077 0.03936 0.89546 0.0
Co161 Co 0.74939 0.02222 0.93315 0.0
Co162 Co 0.78523 0.09483 0.95737 0.0
H163 H 0.79238 0.05886 0.93192 0.0
O164 O 0.78738 0.03661 0.94281 0.0
H165 H 0.74185 0.0617 0.95197 0.0
O166 O 0.7478 0.08277 0.93986 0.0
Co167 Co 0.72562 0.08607 0.98366 0.0
O168 O 0.70287 0.0345 0.9871 0.0
O169 O 0.71032 0.00454 0.93089 0.0
O170 O 0.73881 0.14535 0.98823 0.0
O171 O 0.78065 0.1486 0.97704 0.0
O172 O 0.82622 0.03973 0.84352 0.0
O173 O 0.84095 0.00944 0.89481 0.0
O174 O 0.74476 0.05441 0.02837 0.0
O175 O 0.75449 0.00492 0.99051 0.0
C176 C 0.84123 0.10215 0.95067 0.0
C177 C 0.7743 0.95618 0.90213 0.0
C178 C 0.68272 0.11358 0.98383 0.0
C179 C 0.78351 0.11153 0.86801 0.0
C180 C 0.69655 0.00764 0.96029 0.0
C181 C 0.76082 0.16495 0.98561 0.0
C182 C 0.84396 0.01888 0.85884 0.0
C183 C 0.7538 0.02076 0.02468 0.0
O184 O 0.83761 0.08105 0.91831 0.0
O185 O 0.82313 0.10553 0.97275 0.0
O186 O 0.75552 0.96819 0.9187 0.0
O187 O 0.79372 0.97939 0.8923 0.0
O188 O 0.69091 0.08671 0.00761 0.0
O189 O 0.69921 0.12567 0.96071 0.0
O190 O 0.78613 0.07583 0.85813 0.0
O191 O 0.7879 0.12264 0.90466 0.0
Co192 Co 0.97188 0.09841 0.78118 0.0
Co193 Co 0.99585 0.01399 0.78467 0.0
Co194 Co 0.03052 0.08834 0.76831 0.0
H195 H 0.99996 0.08355 0.76778 0.0
O196 O 0.99254 0.06385 0.75324 0.0
H197 H 0.02653 0.01768 0.78305 0.0
O198 O 0.03417 0.0372 0.7976 0.0
Co199 Co 0.05451 0.00257 0.76851 0.0
O200 O 0.04134 0.95341 0.79944 0.0
O201 O 1.00159 0.96388 0.81553 0.0
O202 O 0.0855 0.04426 0.77566 0.0
O203 O 0.06901 0.1039 0.77698 0.0
O204 O 0.9424 0.1297 0.79698 0.0
O205 O 0.9437 0.11645 0.73664 0.0
O206 O 0.03219 0.01992 0.71921 0.0
O207 O 0.99748 0.98401 0.73273 0.0
C208 C 1.0075 0.16459 0.74921 0.0
C209 C 0.9414 0.022 0.79739 0.0
C210 C 0.08993 0.96408 0.7487 0.0
C211 C 1.01217 0.10888 0.84639 0.0
C212 C 0.02095 0.94266 0.81641 0.0
C213 C 0.08833 0.08233 0.77834 0.0
C214 C 0.93162 0.13291 0.76132 0.0
C215 C 1.01372 0.99417 0.70779 0.0
O216 O 0.98789 0.15255 0.76697 0.0
O217 O 0.02474 0.14149 0.74166 0.0
O218 O 0.95664 0.00062 0.78096 0.0
O219 O 0.94771 0.05838 0.8067 0.0
O220 O 0.07286 0.94998 0.76995 0.0
O221 O 0.08671 0.99966 0.73862 0.0
O222 O 0.99069 0.08866 0.8363 0.0
O223 O 0.02864 0.11465 0.82123 0.0
Co224 Co 0.81192 0.64711 0.79325 0.0
Co225 Co 0.78593 0.72847 0.81235 0.0
Co226 Co 0.75106 0.65732 0.7774 0.0
H227 H 0.78185 0.66357 0.78119 0.0
O228 O 0.78751 0.68648 0.77213 0.0
H229 H 0.75521 0.72401 0.80411 0.0
O230 O 0.74883 0.70193 0.81394 0.0
Co231 Co 0.72626 0.7413 0.78655 0.0
O232 O 0.74202 0.78684 0.82401 0.0
O233 O 0.7819 0.77122 0.85049 0.0
O234 O 0.6968 0.69739 0.78721 0.0
O235 O 0.71334 0.63888 0.7785 0.0
O236 O 0.83545 0.60073 0.79926 0.0
O237 O 0.84357 0.64824 0.76064 0.0
O238 O 0.74329 0.74293 0.73566 0.0
O239 O 0.78072 0.76864 0.76671 0.0
C240 C 0.77285 0.58559 0.75057 0.0
C241 C 0.84257 0.72223 0.8272 0.0
C242 C 0.68832 0.78106 0.76659 0.0
C243 C 0.77851 0.61868 0.85198 0.0
C244 C 0.76323 0.79386 0.84777 0.0
C245 C 0.69418 0.65946 0.78291 0.0
C246 C 0.85054 0.61542 0.77513 0.0
C247 C 0.76388 0.76593 0.73538 0.0
O248 O 0.79454 0.59525 0.7715 0.0
O249 O 0.75494 0.60977 0.74352 0.0
O250 O 0.82428 0.7452 0.81797 0.0
O251 O 0.83944 0.68451 0.82325 0.0
O252 O 0.69445 0.75319 0.74601 0.0
O253 O 0.70381 0.78649 0.79851 0.0
O254 O 0.80045 0.63679 0.84776 0.0
O255 O 0.7586 0.62225 0.82614 0.0
Co256 Co 0.97651 0.75269 0.51291 0.0
Co257 Co 1.00711 0.84193 0.50724 0.0
Co258 Co 0.03718 0.77418 0.5411 0.0
H259 H 1.0065 0.77379 0.53105 0.0
O260 O 1.00119 0.79445 0.54114 0.0
H261 H 0.03811 0.84121 0.51302 0.0
O262 O 0.04265 0.81952 0.50359 0.0
Co263 Co 0.06891 0.86345 0.52565 0.0
O264 O 0.05201 0.91473 0.51167 0.0
O265 O 1.0143 0.89232 0.47648 0.0
O266 O 0.09239 0.82569 0.55891 0.0
O267 O 0.07423 0.76304 0.54725 0.0
O268 O 0.95836 0.70316 0.48119 0.0
O269 O 0.93785 0.73508 0.51713 0.0
O270 O 0.05668 0.88286 0.57673 0.0
O271 O 1.01374 0.87193 0.55957 0.0
C272 C 1.00895 0.7053 0.57769 0.0
C273 C 0.94975 0.83133 0.50982 0.0
C274 C 0.10647 0.90296 0.49737 0.0
C275 C 1.01432 0.7356 0.46288 0.0
C276 C 0.03075 0.92099 0.48995 0.0
C277 C 0.0932 0.78768 0.56088 0.0
C278 C 0.9368 0.7059 0.49381 0.0
C279 C 0.03333 0.88555 0.58382 0.0
O280 O 0.98798 0.71063 0.55446 0.0
O281 O 0.02986 0.72845 0.57782 0.0
O282 O 0.97019 0.85459 0.50587 0.0
O283 O 0.94987 0.79339 0.51376 0.0
O284 O 0.08946 0.91723 0.51505 0.0
O285 O 0.1024 0.86546 0.49563 0.0
O286 O 0.99402 0.75391 0.46265 0.0
O287 O 0.0313 0.73644 0.49404 0.0
Co288 Co 0.30458 0.41638 0.50171 0.0
Co289 Co 0.24431 0.40621 0.52667 0.0
Co290 Co 0.27945 0.47926 0.55177 0.0
H291 H 0.28756 0.44015 0.53281 0.0
O292 O 0.28161 0.41896 0.54472 0.0
H293 H 0.23652 0.44231 0.55147 0.0
O294 O 0.24159 0.46446 0.54047 0.0
Co295 Co 0.22052 0.46213 0.58701 0.0
O296 O 0.19083 0.42057 0.56332 0.0
O297 O 0.20655 0.39427 0.51086 0.0
O298 O 0.23446 0.52206 0.59163 0.0
O299 O 0.27294 0.53303 0.56619 0.0
O300 O 0.33955 0.41653 0.47857 0.0
O301 O 0.33018 0.37526 0.52313 0.0
O302 O 0.24116 0.42554 0.62572 0.0
O303 O 0.24152 0.37879 0.57959 0.0
C304 C 0.33358 0.49413 0.52898 0.0
C305 C 0.26957 0.33665 0.49944 0.0
C306 C 0.18324 0.48306 0.62093 0.0
C307 C 0.27873 0.48382 0.46046 0.0
C308 C 0.18802 0.39816 0.53194 0.0
C309 C 0.25409 0.54514 0.58241 0.0
C310 C 0.34711 0.38832 0.50112 0.0
C311 C 0.2444 0.38994 0.61625 0.0
O312 O 0.32865 0.4673 0.50187 0.0
O313 O 0.31843 0.49727 0.55649 0.0
O314 O 0.24954 0.35262 0.50767 0.0
O315 O 0.29151 0.35668 0.49707 0.0
O316 O 0.20304 0.46867 0.63924 0.0
O317 O 0.18477 0.48574 0.58355 0.0
O318 O 0.28881 0.4511 0.45648 0.0
O319 O 0.2756 0.4975 0.49466 0.0
Co320 Co 0.97449 0.49795 0.71757 0.0
Co321 Co 0.99831 0.41204 0.71709 0.0
Co322 Co 0.03279 0.48641 0.70033 0.0
H323 H 1.00223 0.48271 0.70251 0.0
O324 O 0.99448 0.46322 0.68803 0.0
H325 H 0.02887 0.41681 0.71723 0.0
O326 O 0.03635 0.43653 0.73168 0.0
Co327 Co 0.0569 0.40201 0.70346 0.0
O328 O 0.04094 0.34781 0.71763 0.0
O329 O 1.00424 0.3588 0.74345 0.0
O330 O 0.08048 0.44213 0.67672 0.0
O331 O 0.07189 0.49981 0.70304 0.0
O332 O 0.95454 0.54899 0.71268 0.0
O333 O 0.94461 0.50309 0.75196 0.0
O334 O 0.03766 0.41299 0.64892 0.0
O335 O 0.99997 0.38595 0.66394 0.0
C336 C 1.00736 0.55749 0.66846 0.0
C337 C 0.94052 0.41843 0.70826 0.0
C338 C 0.09703 0.36707 0.72352 0.0
C339 C 0.01558 0.5059 0.77784 0.0
C340 C 0.02143 0.33573 0.73561 0.0
C341 C 0.08671 0.47867 0.68547 0.0
C342 C 0.93959 0.53696 0.73813 0.0
C343 C 0.01636 0.39233 0.6387 0.0
O344 O 0.98705 0.54678 0.68561 0.0
O345 O 0.02683 0.53647 0.66954 0.0
O346 O 0.95975 0.3967 0.70895 0.0
O347 O 0.94348 0.45646 0.71119 0.0
O348 O 0.08359 0.36421 0.68948 0.0
O349 O 0.08761 0.3897 0.74646 0.0
O350 O 0.99699 0.4803 0.76656 0.0
O351 O 0.03154 0.51632 0.7525 0.0
Co352 Co 0.30331 0.75997 0.69819 0.0
Co353 Co 0.27812 0.84358 0.70841 0.0
Co354 Co 0.2436 0.77228 0.67313 0.0
H355 H 0.27428 0.77714 0.6811 0.0
O356 O 0.28054 0.79939 0.67146 0.0
H357 H 0.2473 0.83682 0.7048 0.0
O358 O 0.24185 0.81376 0.71379 0.0
Co359 Co 0.21703 0.85271 0.69288 0.0
O360 O 0.23413 0.90473 0.71473 0.0
O361 O 0.27396 0.89095 0.74241 0.0
O362 O 0.1898 0.81528 0.66205 0.0
O363 O 0.20544 0.75494 0.66767 0.0
O364 O 0.33477 0.74732 0.73903 0.0
O365 O 0.32578 0.71504 0.68579 0.0
O366 O 0.22855 0.86238 0.6382 0.0
O367 O 0.27014 0.87866 0.65996 0.0
C368 C 0.26631 0.7075 0.63692 0.0
C369 C 0.33498 0.84226 0.70227 0.0
C370 C 0.17867 0.88468 0.71174 0.0
C371 C 0.26622 0.73409 0.74936 0.0
C372 C 0.25582 0.91476 0.73547 0.0
C373 C 0.18703 0.77756 0.65795 0.0
C374 C 0.34099 0.71981 0.71808 0.0
C375 C 0.25021 0.88144 0.63398 0.0
O376 O 0.28757 0.71441 0.66063 0.0
O377 O 0.2477 0.73021 0.63437 0.0
O378 O 0.31578 0.8626 0.70712 0.0
O379 O 0.33247 0.80436 0.69758 0.0
O380 O 0.19541 0.90122 0.69129 0.0
O381 O 0.18383 0.84975 0.72219 0.0
O382 O 0.28649 0.75782 0.74922 0.0
O383 O 0.24927 0.73151 0.71818 0.0
Co384 Co 0.96104 0.13669 0.45787 0.0
Co385 Co 0.99247 0.22542 0.44532 0.0
Co386 Co 0.02254 0.15817 0.48131 0.0
H387 H 0.99154 0.15855 0.47331 0.0
O388 O 0.98667 0.18006 0.48264 0.0
H389 H 0.02318 0.226 0.4556 0.0
O390 O 0.0286 0.20501 0.44633 0.0
Co391 Co 0.05322 0.2477 0.47293 0.0
O392 O 0.04154 0.28969 0.43171 0.0
O393 O 0.99979 0.27111 0.40842 0.0
O394 O 0.0794 0.20649 0.47142 0.0
O395 O 0.05977 0.14604 0.48495 0.0
O396 O 0.92213 0.11503 0.44747 0.0
O397 O 0.94158 0.11173 0.50518 0.0
O398 O 0.03635 0.25024 0.5234 0.0
O399 O 0.99789 0.2636 0.49225 0.0
C400 C 0.99834 0.07971 0.49858 0.0
C401 C 0.93738 0.21151 0.42069 0.0
C402 C 0.09312 0.29436 0.491 0.0
C403 C 0.99876 0.11499 0.40334 0.0
C404 C 0.02052 0.29465 0.40854 0.0
C405 C 0.07988 0.16895 0.47826 0.0
C406 C 0.92032 0.10357 0.4833 0.0
C407 C 0.01546 0.26716 0.52266 0.0
O408 O 0.97769 0.08586 0.4751 0.0
O409 O 0.0147 0.10836 0.51252 0.0
O410 O 0.95523 0.23601 0.43813 0.0
O411 O 0.93909 0.17367 0.42078 0.0
O412 O 0.07034 0.30295 0.49346 0.0
O413 O 0.09319 0.25946 0.47822 0.0
O414 O 0.97507 0.11994 0.40685 0.0
O415 O 0.01736 0.12638 0.43033 0.0
Co416 Co 0.80871 0.53873 0.39643 0.0
Co417 Co 0.75004 0.52195 0.43366 0.0
Co418 Co 0.78569 0.59488 0.4571 0.0
H419 H 0.79302 0.5587 0.43219 0.0
O420 O 0.78799 0.53656 0.44325 0.0
H421 H 0.7424 0.56168 0.4517 0.0
O422 O 0.74834 0.5826 0.43934 0.0
Co423 Co 0.72612 0.58646 0.48293 0.0
O424 O 0.70407 0.53461 0.48802 0.0
O425 O 0.71099 0.50406 0.43193 0.0
O426 O 0.73909 0.64581 0.48684 0.0
O427 O 0.78101 0.64874 0.4762 0.0
O428 O 0.82608 0.53237 0.34412 0.0
O429 O 0.84397 0.51374 0.3995 0.0
O430 O 0.74569 0.55595 0.52823 0.0
O431 O 0.75534 0.50571 0.49131 0.0
C432 C 0.84177 0.60247 0.45112 0.0
C433 C 0.77517 0.45558 0.40384 0.0
C434 C 0.68277 0.61282 0.48135 0.0
C435 C 0.78502 0.61111 0.36757 0.0
C436 C 0.69774 0.50704 0.46199 0.0
C437 C 0.76117 0.66526 0.48434 0.0
C438 C 0.84557 0.51696 0.36218 0.0
C439 C 0.75479 0.52223 0.52518 0.0
O440 O 0.83857 0.58063 0.41927 0.0
O441 O 0.82346 0.60592 0.47274 0.0
O442 O 0.75635 0.46775 0.42018 0.0
O443 O 0.79456 0.47874 0.39376 0.0
O444 O 0.69014 0.58416 0.50336 0.0
O445 O 0.70029 0.62729 0.46108 0.0
O446 O 0.78797 0.57542 0.35798 0.0
O447 O 0.78849 0.62226 0.40423 0.0
Co448 Co 0.97148 0.598 0.27993 0.0
Co449 Co 0.99646 0.51397 0.28608 0.0
Co450 Co 0.0306 0.58878 0.26905 0.0
H451 H 0.99997 0.58338 0.26777 0.0
O452 O 0.99289 0.56323 0.25355 0.0
H453 H 0.02714 0.51829 0.28513 0.0
O454 O 0.03448 0.53824 0.29935 0.0
Co455 Co 0.05545 0.50327 0.272 0.0
O456 O 0.04235 0.45421 0.30289 0.0
O457 O 1.00241 0.46452 0.31812 0.0
O458 O 0.08591 0.54581 0.27834 0.0
O459 O 0.06905 0.60526 0.27827 0.0
O460 O 0.93924 0.62306 0.29491 0.0
O461 O 0.94564 0.62076 0.23466 0.0
O462 O 0.03386 0.51765 0.22075 0.0
O463 O 0.99865 0.48299 0.2348 0.0
C464 C 1.00718 0.66444 0.24849 0.0
C465 C 0.94196 0.52092 0.29811 0.0
C466 C 0.09197 0.46507 0.25615 0.0
C467 C 1.01112 0.61069 0.34608 0.0
C468 C 0.02189 0.44348 0.31962 0.0
C469 C 0.08853 0.58392 0.28027 0.0
C470 C 0.93093 0.63149 0.25898 0.0
C471 C 0.01515 0.49205 0.20994 0.0
O472 O 0.98735 0.65226 0.26568 0.0
O473 O 0.02458 0.64143 0.24146 0.0
O474 O 0.95744 0.49966 0.28213 0.0
O475 O 0.94757 0.5578 0.30586 0.0
O476 O 0.0737 0.4505 0.27482 0.0
O477 O 0.08934 0.50091 0.24652 0.0
O478 O 0.98955 0.59074 0.33596 0.0
O479 O 0.02796 0.6157 0.32138 0.0
Co480 Co 0.81275 0.14817 0.28848 0.0
Co481 Co 0.78647 0.22869 0.31336 0.0
Co482 Co 0.75153 0.15764 0.27759 0.0
H483 H 0.78236 0.16447 0.27994 0.0
O484 O 0.78768 0.1879 0.27162 0.0
H485 H 0.75581 0.22379 0.30586 0.0
O486 O 0.74961 0.20141 0.31528 0.0
Co487 Co 0.72666 0.24094 0.28961 0.0
O488 O 0.74262 0.28604 0.32747 0.0
O489 O 0.78264 0.27024 0.35295 0.0
O490 O 0.69738 0.19663 0.29027 0.0
O491 O 0.71393 0.13864 0.27948 0.0
O492 O 0.83698 0.10307 0.29619 0.0
O493 O 0.84446 0.14971 0.25602 0.0
O494 O 0.74289 0.24522 0.238 0.0
O495 O 0.78058 0.27012 0.26901 0.0
C496 C 0.77323 0.0867 0.24711 0.0
C497 C 0.8435 0.2239 0.32321 0.0
C498 C 0.68857 0.28039 0.27141 0.0
C499 C 0.77955 0.10926 0.3456 0.0
C500 C 0.76397 0.29283 0.35097 0.0
C501 C 0.6948 0.15882 0.28505 0.0
C502 C 0.85174 0.11735 0.27143 0.0
C503 C 0.76349 0.26824 0.23798 0.0
O504 O 0.79563 0.09687 0.26539 0.0
O505 O 0.7549 0.11033 0.24277 0.0
O506 O 0.82466 0.24631 0.3184 0.0
O507 O 0.84075 0.18674 0.31578 0.0
O508 O 0.69388 0.25177 0.25104 0.0
O509 O 0.70494 0.28673 0.30217 0.0
O510 O 0.80236 0.11914 0.33716 0.0
O511 O 0.75932 0.12244 0.32613 0.0
Co512 Co 0.47565 0.2522 0.51491 0.0
Co513 Co 0.50639 0.34145 0.50687 0.0
Co514 Co 0.53658 0.27392 0.54138 0.0
H515 H 0.50585 0.27353 0.5318 0.0
O516 O 0.50066 0.29446 0.54156 0.0
H517 H 0.53747 0.34083 0.51269 0.0
O518 O 0.54193 0.319 0.50341 0.0
Co519 Co 0.56839 0.36293 0.525 0.0
O520 O 0.55185 0.41398 0.50894 0.0
O521 O 0.51349 0.39161 0.47551 0.0
O522 O 0.59255 0.32495 0.55638 0.0
O523 O 0.57358 0.26244 0.54723 0.0
O524 O 0.44976 0.22133 0.47159 0.0
O525 O 0.44446 0.21606 0.53218 0.0
O526 O 0.55569 0.38669 0.57373 0.0
O527 O 0.51285 0.3721 0.55877 0.0
C528 C 0.50865 0.20559 0.5795 0.0
C529 C 0.44912 0.3308 0.51081 0.0
C530 C 0.60874 0.40033 0.50304 0.0
C531 C 0.51293 0.23216 0.46439 0.0
C532 C 0.53042 0.42019 0.4877 0.0
C533 C 0.59305 0.28694 0.55897 0.0
C534 C 0.43593 0.20512 0.49677 0.0
C535 C 0.53238 0.3881 0.58155 0.0
O536 O 0.48744 0.21079 0.55687 0.0
O537 O 0.52953 0.22861 0.57872 0.0
O538 O 0.46937 0.35386 0.50518 0.0
O539 O 0.44936 0.29309 0.51638 0.0
O540 O 0.59982 0.40478 0.5359 0.0
O541 O 0.59497 0.37355 0.4823 0.0
O542 O 0.49195 0.24881 0.46397 0.0
O543 O 0.53056 0.23561 0.49469 0.0
Co544 Co 0.8052 0.9179 0.50065 0.0
Co545 Co 0.74504 0.90659 0.52512 0.0
Co546 Co 0.77986 0.9794 0.55164 0.0
H547 H 0.78812 0.9408 0.53222 0.0
O548 O 0.78225 0.9193 0.54367 0.0
H549 H 0.73729 0.94155 0.55105 0.0
O550 O 0.74203 0.96426 0.54084 0.0
Co551 Co 0.72171 0.95914 0.58805 0.0
O552 O 0.69217 0.91784 0.56326 0.0
O553 O 0.70725 0.89487 0.50871 0.0
O554 O 0.73448 0.01924 0.59298 0.0
O555 O 0.77295 0.0327 0.56748 0.0
O556 O 0.84172 0.9219 0.48197 0.0
O557 O 0.83038 0.87561 0.52021 0.0
O558 O 0.74523 0.92434 0.62401 0.0
O559 O 0.74219 0.87752 0.57737 0.0
C560 C 0.83222 0.99732 0.52496 0.0
C561 C 0.77075 0.83811 0.49682 0.0
C562 C 0.68464 0.97035 0.62715 0.0
C563 C 0.7759 0.98229 0.46024 0.0
C564 C 0.68893 0.89729 0.53058 0.0
C565 C 0.75367 0.04321 0.58386 0.0
C566 C 0.84843 0.89154 0.50185 0.0
C567 C 0.74766 0.88864 0.61396 0.0
O568 O 0.82674 0.97097 0.49744 0.0
O569 O 0.8188 0.99783 0.5551 0.0
O570 O 0.75051 0.85392 0.50437 0.0
O571 O 0.79282 0.85813 0.49564 0.0
O572 O 0.69678 0.99765 0.60884 0.0
O573 O 0.69387 0.93743 0.62353 0.0
O574 O 0.78519 0.94887 0.45638 0.0
O575 O 0.7751 0.99786 0.49455 0.0
Co576 Co 0.47487 0.99791 0.71879 0.0
Co577 Co 0.49836 0.91175 0.71761 0.0
Co578 Co 0.53298 0.98587 0.70005 0.0
H579 H 0.50246 0.98264 0.70316 0.0
O580 O 0.49452 0.96317 0.68882 0.0
H581 H 0.52871 0.91606 0.71709 0.0
O582 O 0.5366 0.9357 0.73127 0.0
Co583 Co 0.55595 0.90008 0.70213 0.0
O584 O 0.54091 0.84649 0.719 0.0
O585 O 0.50405 0.85837 0.74384 0.0
O586 O 0.5675 0.94339 0.6637 0.0
O587 O 0.5721 0.99716 0.7009 0.0
O588 O 0.45531 0.04931 0.71382 0.0
O589 O 0.44452 0.00306 0.75214 0.0
O590 O 0.53721 0.9106 0.64729 0.0
O591 O 0.49922 0.88602 0.6639 0.0
C592 C 0.50783 0.05752 0.66961 0.0
C593 C 0.44062 0.91844 0.70992 0.0
C594 C 0.59541 0.86387 0.72426 0.0
C595 C 0.5169 0.00533 0.77785 0.0
C596 C 0.52133 0.83507 0.737 0.0
C597 C 0.58178 0.97371 0.67787 0.0
C598 C 0.43989 0.03717 0.73855 0.0
C599 C 0.51494 0.89254 0.6376 0.0
O600 O 0.48774 0.04694 0.68737 0.0
O601 O 0.52708 0.03619 0.66971 0.0
O602 O 0.45981 0.89674 0.7102 0.0
O603 O 0.44364 0.95649 0.71302 0.0
O604 O 0.57875 0.85423 0.69469 0.0
O605 O 0.58959 0.89403 0.74178 0.0
O606 O 0.49827 0.97975 0.76661 0.0
O607 O 0.53281 0.01566 0.75245 0.0
Co608 Co 0.8034 0.26106 0.6993 0.0
Co609 Co 0.77765 0.34426 0.70541 0.0
Co610 Co 0.74404 0.27172 0.67079 0.0
H611 H 0.77459 0.27729 0.67998 0.0
O612 O 0.78087 0.29931 0.66992 0.0
H613 H 0.74671 0.33682 0.70235 0.0
O614 O 0.74167 0.31341 0.71097 0.0
Co615 Co 0.71588 0.35192 0.6937 0.0
O616 O 0.73218 0.40408 0.71622 0.0
O617 O 0.77326 0.39207 0.73871 0.0
O618 O 0.69041 0.3144 0.65916 0.0
O619 O 0.70599 0.25399 0.66441 0.0
O620 O 0.83075 0.23991 0.74297 0.0
O621 O 0.83013 0.22462 0.68262 0.0
O622 O 0.72743 0.38681 0.64939 0.0
O623 O 0.76989 0.37791 0.65542 0.0
C624 C 0.76735 0.20491 0.64054 0.0
C625 C 0.83473 0.34328 0.70112 0.0
C626 C 0.67572 0.37452 0.71663 0.0
C627 C 0.76544 0.23581 0.7487 0.0
C628 C 0.7546 0.41508 0.73414 0.0
C629 C 0.68776 0.27675 0.6542 0.0
C630 C 0.84112 0.22074 0.71814 0.0
C631 C 0.74998 0.3945 0.6389 0.0
O632 O 0.78756 0.21292 0.66612 0.0
O633 O 0.7493 0.22863 0.6334 0.0
O634 O 0.81531 0.36378 0.70426 0.0
O635 O 0.83244 0.30525 0.6983 0.0
O636 O 0.67686 0.3608 0.68209 0.0
O637 O 0.69714 0.37385 0.73873 0.0
O638 O 0.78531 0.26045 0.74904 0.0
O639 O 0.74919 0.232 0.71678 0.0
Co640 Co 0.46116 0.63672 0.46039 0.0
Co641 Co 0.49231 0.72582 0.44248 0.0
Co642 Co 0.52319 0.659 0.47711 0.0
H643 H 0.49206 0.65929 0.47201 0.0
O644 O 0.48759 0.68115 0.48118 0.0
H645 H 0.52325 0.72695 0.45166 0.0
O646 O 0.5284 0.7059 0.44204 0.0
Co647 Co 0.55368 0.7488 0.46684 0.0
O648 O 0.54122 0.78795 0.42305 0.0
O649 O 0.49864 0.77088 0.40435 0.0
O650 O 0.57977 0.70743 0.46537 0.0
O651 O 0.56021 0.64672 0.47784 0.0
O652 O 0.44092 0.58301 0.47273 0.0
O653 O 0.42702 0.63518 0.48896 0.0
O654 O 0.53922 0.76868 0.51425 0.0
O655 O 0.49736 0.76498 0.4884 0.0
C656 C 0.49988 0.58009 0.49679 0.0
C657 C 0.43659 0.71095 0.42245 0.0
C658 C 0.59418 0.7935 0.48688 0.0
C659 C 0.49637 0.61364 0.40205 0.0
C660 C 0.5196 0.79323 0.40164 0.0
C661 C 0.5803 0.66981 0.47143 0.0
C662 C 0.42332 0.59759 0.48877 0.0
C663 C 0.51614 0.77786 0.51453 0.0
O664 O 0.47831 0.58599 0.47578 0.0
O665 O 0.51665 0.6089 0.50884 0.0
O666 O 0.45511 0.736 0.43672 0.0
O667 O 0.43788 0.67305 0.42478 0.0
O668 O 0.57709 0.78401 0.50982 0.0
O669 O 0.58849 0.77698 0.453 0.0
O670 O 0.47311 0.61594 0.40975 0.0
O671 O 0.51613 0.62813 0.4254 0.0
Co672 Co 0.30761 0.03888 0.3984 0.0
Co673 Co 0.24964 0.02119 0.43441 0.0
Co674 Co 0.2852 0.09347 0.46072 0.0
H675 H 0.2925 0.05766 0.43533 0.0
O676 O 0.28751 0.03529 0.44599 0.0
H677 H 0.24171 0.06025 0.45383 0.0
O678 O 0.24786 0.08154 0.44231 0.0
Co679 Co 0.22467 0.08398 0.48503 0.0
O680 O 0.2004 0.03338 0.48392 0.0
O681 O 0.21062 0.00382 0.42907 0.0
O682 O 0.23808 0.14356 0.48903 0.0
O683 O 0.28039 0.14697 0.48049 0.0
O684 O 0.33372 0.00057 0.38068 0.0
O685 O 0.33314 0.0584 0.35823 0.0
O686 O 0.2394 0.04781 0.52984 0.0
O687 O 0.25305 0.0021 0.49129 0.0
C688 C 0.34123 0.1009 0.45484 0.0
C689 C 0.27512 0.9553 0.40389 0.0
C690 C 0.18225 0.1122 0.48692 0.0
C691 C 0.28249 0.11001 0.37162 0.0
C692 C 0.19542 0.00691 0.45649 0.0
C693 C 0.26024 0.16329 0.48761 0.0
C694 C 0.34386 0.02629 0.35809 0.0
C695 C 0.24949 0.01517 0.52554 0.0
O696 O 0.33761 0.07996 0.42238 0.0
O697 O 0.3231 0.10422 0.47687 0.0
O698 O 0.25592 0.9674 0.41926 0.0
O699 O 0.2948 0.97853 0.39513 0.0
O700 O 0.18997 0.08382 0.50908 0.0
O701 O 0.19898 0.12536 0.4646 0.0
O702 O 0.28443 0.07401 0.36201 0.0
O703 O 0.28834 0.12153 0.40802 0.0
Co704 Co 0.47337 0.10089 0.28274 0.0
Co705 Co 0.49626 0.01538 0.28486 0.0
Co706 Co 0.53144 0.08946 0.269 0.0
H707 H 0.50097 0.08521 0.26858 0.0
O708 O 0.49322 0.06577 0.254 0.0
H709 H 0.52684 0.01854 0.2825 0.0
O710 O 0.53477 0.03772 0.29727 0.0
Co711 Co 0.55449 0.00338 0.26711 0.0
O712 O 0.54089 0.95367 0.2968 0.0
O713 O 0.50168 0.96459 0.31474 0.0
O714 O 0.58592 0.04457 0.27276 0.0
O715 O 0.56998 0.10422 0.27753 0.0
O716 O 0.45044 0.14651 0.29044 0.0
O717 O 0.44117 0.10944 0.2408 0.0
O718 O 0.53186 0.02121 0.21823 0.0
O719 O 0.49692 0.98597 0.23224 0.0
C720 C 0.50883 0.16641 0.25068 0.0
C721 C 0.44598 0.027 0.30508 0.0
C722 C 0.58914 0.96296 0.24852 0.0
C723 C 0.51341 0.10817 0.34763 0.0
C724 C 0.52069 0.94288 0.31423 0.0
C725 C 0.58908 0.08251 0.27692 0.0
C726 C 0.43486 0.13878 0.2591 0.0
C727 C 0.51296 0.99607 0.20693 0.0
O728 O 0.48911 0.15468 0.26816 0.0
O729 O 0.52613 0.14329 0.24343 0.0
O730 O 0.45696 0.00426 0.28288 0.0
O731 O 0.45874 0.05857 0.31955 0.0
O732 O 0.58104 0.99238 0.22846 0.0
O733 O 0.57755 0.9564 0.27927 0.0
O734 O 0.49213 0.08769 0.33693 0.0
O735 O 0.52984 0.11494 0.32251 0.0
Co736 Co 0.31197 0.64682 0.29141 0.0
Co737 Co 0.28622 0.72803 0.31227 0.0
Co738 Co 0.25092 0.65677 0.27826 0.0
H739 H 0.28172 0.66312 0.28079 0.0
O740 O 0.28717 0.68612 0.27161 0.0
H741 H 0.25553 0.7235 0.30509 0.0
O742 O 0.24926 0.70142 0.31507 0.0
Co743 Co 0.22651 0.7409 0.28846 0.0
O744 O 0.24253 0.78598 0.32635 0.0
O745 O 0.28279 0.77053 0.35103 0.0
O746 O 0.19708 0.69718 0.29029 0.0
O747 O 0.21324 0.63851 0.28074 0.0
O748 O 0.33807 0.60411 0.30147 0.0
O749 O 0.34121 0.64497 0.2543 0.0
O750 O 0.24277 0.74265 0.23695 0.0
O751 O 0.28031 0.76868 0.26717 0.0
C752 C 0.2725 0.585 0.25017 0.0
C753 C 0.34284 0.72196 0.32502 0.0
C754 C 0.18883 0.78088 0.26802 0.0
C755 C 0.27942 0.61649 0.3512 0.0
C756 C 0.26406 0.79299 0.34939 0.0
C757 C 0.19428 0.65926 0.28594 0.0
C758 C 0.35066 0.61553 0.2729 0.0
C759 C 0.26309 0.76615 0.23631 0.0
O760 O 0.29457 0.59507 0.26969 0.0
O761 O 0.25429 0.60884 0.24431 0.0
O762 O 0.32446 0.74489 0.31661 0.0
O763 O 0.33972 0.6843 0.32076 0.0
O764 O 0.193 0.74969 0.25055 0.0
O765 O 0.20614 0.78954 0.29708 0.0
O766 O 0.30158 0.63324 0.346 0.0
O767 O 0.2591 0.62178 0.32679 0.0
Co768 Co 0.47619 0.75156 0.01399 0.0
Co769 Co 0.5064 0.84107 0.00779 0.0
Co770 Co 0.53708 0.7735 0.04097 0.0
H771 H 0.5063 0.77283 0.03149 0.0
O772 O 0.501 0.79342 0.04175 0.0
H773 H 0.53747 0.84075 0.01343 0.0
O774 O 0.54209 0.81924 0.00373 0.0
Co775 Co 0.56823 0.86315 0.02612 0.0
O776 O 0.55142 0.91406 0.01029 0.0
O777 O 0.51314 0.89151 0.9768 0.0
O778 O 0.59122 0.82578 0.06087 0.0
O779 O 0.57432 0.76306 0.04665 0.0
O780 O 0.4586 0.69849 0.98852 0.0
O781 O 0.43659 0.73796 0.01319 0.0
O782 O 0.5557 0.88575 0.07548 0.0
O783 O 0.51287 0.87139 0.06 0.0
C784 C 0.50953 0.70375 0.07714 0.0
C785 C 0.44906 0.82978 0.01138 0.0
C786 C 0.60722 0.90234 0.00162 0.0
C787 C 0.51366 0.73343 0.96318 0.0
C788 C 0.52998 0.92016 0.98904 0.0
C789 C 0.59269 0.7879 0.062 0.0
C790 C 0.43621 0.70512 -0.00433 0.0
C791 C 0.53235 0.88717 0.0831 0.0
O792 O 0.48843 0.7091 0.05431 0.0
O793 O 0.53028 0.7273 0.07745 0.0
O794 O 0.46932 0.85317 0.0066 0.0
O795 O 0.44945 0.79194 0.01585 0.0
O796 O 0.59405 0.91338 0.02786 0.0
O797 O 0.59849 0.86804 0.98904 0.0
O798 O 0.49288 0.75052 0.96312 0.0
O799 O 0.5312 0.73595 -0.00637 0.0
Co800 Co 0.80472 0.41772 0.00174 0.0
Co801 Co 0.74427 0.40687 0.02713 0.0
Co802 Co 0.77928 0.47981 0.05256 0.0
H803 H 0.78752 0.44101 0.03305 0.0
O804 O 0.78163 0.41971 0.04481 0.0
H805 H 0.73649 0.44268 0.05232 0.0
O806 O 0.74143 0.46493 0.04137 0.0
Co807 Co 0.72078 0.46196 0.08847 0.0
O808 O 0.69092 0.42082 0.06451 0.0
O809 O 0.70643 0.39485 0.01173 0.0
O810 O 0.73384 0.5223 0.09191 0.0
O811 O 0.77266 0.53328 0.06751 0.0
O812 O 0.84013 0.41944 0.97952 0.0
O813 O 0.82975 0.37476 0.02014 0.0
O814 O 0.74288 0.42633 0.12606 0.0
O815 O 0.74193 0.37919 0.08009 0.0
C816 C 0.8335 0.49515 0.03032 0.0
C817 C 0.76969 0.33792 -0.00083 0.0
C818 C 0.68474 0.48 0.12697 0.0
C819 C 0.77896 0.48578 0.96132 0.0
C820 C 0.68793 0.39868 0.03291 0.0
C821 C 0.75355 0.54541 0.08302 0.0
C822 C 0.84714 0.3894 -0.00032 0.0
C823 C 0.74617 0.39074 0.11663 0.0
O824 O 0.82883 0.46858 0.00294 0.0
O825 O 0.81817 0.49797 0.05761 0.0
O826 O 0.74962 0.35359 0.00766 0.0
O827 O 0.79157 0.35813 -0.00325 0.0
O828 O 0.70149 0.45634 0.13959 0.0
O829 O 0.68859 0.49368 0.09257 0.0
O830 O 0.78932 0.45337 0.957 0.0
O831 O 0.77541 0.49874 -0.00437 0.0
Co832 Co 0.47402 0.49654 0.21498 0.0
Co833 Co 0.49786 0.41118 0.2188 0.0
Co834 Co 0.53279 0.48464 0.20059 0.0
H835 H 0.50208 0.48102 0.20139 0.0
O836 O 0.49458 0.46108 0.1873 0.0
H837 H 0.52849 0.41578 0.22023 0.0
O838 O 0.53576 0.43603 0.23408 0.0
Co839 Co 0.55694 0.4003 0.20893 0.0
O840 O 0.54141 0.3479 0.22804 0.0
O841 O 0.50311 0.35943 0.24833 0.0
O842 O 0.58079 0.43914 0.1815 0.0
O843 O 0.57205 0.49794 0.20493 0.0
O844 O 0.44597 0.50482 0.25199 0.0
O845 O 0.452 0.54523 0.20548 0.0
O846 O 0.53948 0.40286 0.15207 0.0
O847 O 0.50035 0.38203 0.16748 0.0
C848 C 0.50782 0.55487 0.16594 0.0
C849 C 0.43997 0.41724 0.20716 0.0
C850 C 0.59685 0.36541 0.22973 0.0
C851 C 0.51447 0.50601 0.27661 0.0
C852 C 0.52119 0.33659 0.24449 0.0
C853 C 0.58734 0.47568 0.18971 0.0
C854 C 0.43902 0.53617 0.23429 0.0
C855 C 0.51729 0.38442 0.14281 0.0
O856 O 0.4873 0.5445 0.18267 0.0
O857 O 0.52732 0.53381 0.16798 0.0
O858 O 0.45933 0.39561 0.20957 0.0
O859 O 0.44281 0.45537 0.2086 0.0
O860 O 0.58117 0.35765 0.19856 0.0
O861 O 0.58985 0.39313 0.24965 0.0
O862 O 0.49573 0.48055 0.26553 0.0
O863 O 0.53061 0.51598 0.25143 0.0
Co864 Co 0.80313 0.76061 0.19648 0.0
Co865 Co 0.77837 0.84455 0.20675 0.0
Co866 Co 0.74338 0.77311 0.17239 0.0
H867 H 0.77407 0.77789 0.17976 0.0
O868 O 0.78029 0.80005 0.16991 0.0
H869 H 0.74749 0.83788 0.20429 0.0
O870 O 0.74222 0.81469 0.21323 0.0
Co871 Co 0.717 0.85378 0.19498 0.0
O872 O 0.73398 0.9051 0.21844 0.0
O873 O 0.77494 0.89235 0.24079 0.0
O874 O 0.68969 0.81591 0.16476 0.0
O875 O 0.70525 0.75563 0.16786 0.0
O876 O 0.82749 0.73296 0.24001 0.0
O877 O 0.83219 0.72903 0.17916 0.0
O878 O 0.72758 0.88217 0.14617 0.0
O879 O 0.77066 0.87952 0.15782 0.0
C880 C 0.76563 0.70814 0.13592 0.0
C881 C 0.83524 0.84234 0.20054 0.0
C882 C 0.67704 0.88244 0.21128 0.0
C883 C 0.76653 0.73563 0.24837 0.0
C884 C 0.75642 0.91567 0.23642 0.0
C885 C 0.68676 0.77835 0.15971 0.0
C886 C 0.84042 0.71922 0.21478 0.0
C887 C 0.7504 0.89248 0.13809 0.0
O888 O 0.787 0.71505 0.15934 0.0
O889 O 0.74707 0.73092 0.13354 0.0
O890 O 0.81609 0.86301 0.20483 0.0
O891 O 0.83261 0.8044 0.19638 0.0
O892 O 0.6879 0.89075 0.18015 0.0
O893 O 0.68869 0.85704 0.23336 0.0
O894 O 0.78648 0.75991 0.24762 0.0
O895 O 0.74942 0.73248 0.21743 0.0
Co896 Co 0.46101 0.13733 0.95808 0.0
Co897 Co 0.49257 0.22626 0.94309 0.0
Co898 Co 0.52285 0.15893 0.97782 0.0
H899 H 0.49181 0.15938 0.97138 0.0
O900 O 0.48709 0.181 0.98067 0.0
H901 H 0.52321 0.22697 0.95384 0.0
O902 O 0.52876 0.20641 0.94395 0.0
Co903 Co 0.55295 0.24836 0.97275 0.0
O904 O 0.54141 0.29083 0.93175 0.0
O905 O 0.50001 0.27194 0.90655 0.0
O906 O 0.57989 0.20825 0.97123 0.0
O907 O 0.56003 0.14686 0.98008 0.0
O908 O 0.43027 0.09432 0.94823 0.0
O909 O 0.43413 0.12771 0.00041 0.0
O910 O 0.53467 0.24598 0.02236 0.0
O911 O 0.49775 0.26385 0.99013 0.0
C912 C 0.49883 0.07998 -0.00421 0.0
C913 C 0.43654 0.21243 0.92211 0.0
C914 C 0.59268 0.29521 0.99159 0.0
C915 C 0.49741 0.11393 0.90169 0.0
C916 C 0.5207 0.29569 0.90772 0.0
C917 C 0.5803 0.1704 0.97565 0.0
C918 C 0.42092 0.09983 0.98049 0.0
C919 C 0.5141 0.2637 0.02196 0.0
O920 O 0.47761 0.08625 0.97401 0.0
O921 O 0.5156 0.10853 0.00859 0.0
O922 O 0.45539 0.23715 0.93603 0.0
O923 O 0.43749 0.17448 0.92414 0.0
O924 O 0.57196 0.2955 0.00745 0.0
O925 O 0.59078 0.26832 0.96545 0.0
O926 O 0.47398 0.11604 0.90858 0.0
O927 O 0.51683 0.12865 0.92562 0.0
Co928 Co 0.30874 0.53855 0.89776 0.0
Co929 Co 0.25008 0.51976 0.9335 0.0
Co930 Co 0.28476 0.59312 0.95881 0.0
H931 H 0.29272 0.5575 0.93366 0.0
O932 O 0.28787 0.53518 0.94456 0.0
H933 H 0.2416 0.55871 0.95243 0.0
O934 O 0.24751 0.57996 0.9406 0.0
Co935 Co 0.2242 0.58234 0.9832 0.0
O936 O 0.20037 0.5313 0.98286 0.0
O937 O 0.2112 0.50114 0.92874 0.0
O938 O 0.23714 0.642 0.98812 0.0
O939 O 0.27926 0.64623 0.97837 0.0
O940 O 0.3262 0.53055 0.84574 0.0
O941 O 0.34501 0.51657 0.90208 0.0
O942 O 0.23962 0.54725 0.02843 0.0
O943 O 0.25399 0.50159 0.99066 0.0
C944 C 0.34103 0.6022 0.95333 0.0
C945 C 0.27586 0.4549 0.90213 0.0
C946 C 0.18163 0.61064 0.98343 0.0
C947 C 0.28395 0.61019 0.86935 0.0
C948 C 0.19582 0.5043 0.95592 0.0
C949 C 0.25913 0.66205 0.98628 0.0
C950 C 0.34636 0.51767 0.86462 0.0
C951 C 0.25017 0.51488 0.02471 0.0
O952 O 0.33821 0.58035 0.92154 0.0
O953 O 0.32252 0.60546 0.97463 0.0
O954 O 0.25708 0.46614 0.91918 0.0
O955 O 0.29492 0.47879 0.89223 0.0
O956 O 0.18876 0.58158 0.0051 0.0
O957 O 0.19899 0.62436 0.96248 0.0
O958 O 0.28749 0.5748 0.8596 0.0
O959 O 0.28727 0.62115 0.90609 0.0
Co960 Co 0.47221 0.59832 0.78147 0.0
Co961 Co 0.49668 0.51431 0.78517 0.0
Co962 Co 0.53089 0.58872 0.76809 0.0
H963 H 0.50034 0.58372 0.76789 0.0
O964 O 0.49295 0.5639 0.75352 0.0
H965 H 0.52728 0.51822 0.78323 0.0
O966 O 0.5349 0.5379 0.79757 0.0
Co967 Co 0.5552 0.50292 0.76888 0.0
O968 O 0.5425 0.45409 0.80041 0.0
O969 O 0.5027 0.46443 0.8162 0.0
O970 O 0.58584 0.54514 0.77193 0.0
O971 O 0.56936 0.60448 0.77625 0.0
O972 O 0.44802 0.64096 0.79292 0.0
O973 O 0.43923 0.60628 0.74131 0.0
O974 O 0.53317 0.5198 0.71887 0.0
O975 O 0.49816 0.48456 0.73303 0.0
C976 C 0.5075 0.66446 0.74883 0.0
C977 C 0.44279 0.52159 0.80005 0.0
C978 C 0.59022 0.46037 0.75519 0.0
C979 C 0.5126 0.60897 0.84625 0.0
C980 C 0.52216 0.44343 0.81741 0.0
C981 C 0.58865 0.58314 0.7755 0.0
C982 C 0.43224 0.6336 0.76172 0.0
C983 C 0.51405 0.49501 0.70757 0.0
O984 O 0.48799 0.65238 0.76675 0.0
O985 O 0.52483 0.64156 0.74126 0.0
O986 O 0.45761 0.50056 0.78234 0.0
O987 O 0.44895 0.55817 0.80868 0.0
O988 O 0.56918 0.46252 0.73258 0.0
O989 O 0.59132 0.4822 0.78567 0.0
O990 O 0.49136 0.58811 0.83621 0.0
O991 O 0.52901 0.61521 0.821 0.0
Co992 Co 0.31175 0.14694 0.79143 0.0
Co993 Co 0.28569 0.22765 0.81148 0.0
Co994 Co 0.25057 0.15643 0.77757 0.0
H995 H 0.28142 0.16287 0.78041 0.0
O996 O 0.28679 0.18581 0.77104 0.0
H997 H 0.25495 0.22299 0.80473 0.0
O998 O 0.24884 0.2008 0.81467 0.0
Co999 Co 0.22578 0.24038 0.78879 0.0
O1000 O 0.2421 0.28603 0.82591 0.0
O1001 O 0.28234 0.26998 0.85011 0.0
O1002 O 0.19655 0.19631 0.79039 0.0
O1003 O 0.2129 0.13804 0.7797 0.0
O1004 O 0.3353 0.10077 0.7973 0.0
O1005 O 0.34388 0.14903 0.75975 0.0
O1006 O 0.24183 0.24132 0.73712 0.0
O1007 O 0.27942 0.26807 0.76623 0.0
C1008 C 0.27238 0.08538 0.74887 0.0
C1009 C 0.34205 0.22199 0.82599 0.0
C1010 C 0.1882 0.28084 0.76873 0.0
C1011 C 0.2787 0.11353 0.84966 0.0
C1012 C 0.2638 0.29269 0.84855 0.0
C1013 C 0.19388 0.15847 0.78536 0.0
C1014 C 0.35067 0.11593 0.77385 0.0
C1015 C 0.26185 0.26532 0.73585 0.0
O1016 O 0.29446 0.0956 0.76832 0.0
O1017 O 0.25403 0.10896 0.74328 0.0
O1018 O 0.32385 0.2448 0.81553 0.0
O1019 O 0.33892 0.18422 0.82272 0.0
O1020 O 0.19661 0.25722 0.74565 0.0
O1021 O 0.20115 0.28152 0.80326 0.0
O1022 O 0.30121 0.12912 0.84481 0.0
O1023 O 0.25849 0.12083 0.82582 0.0
C1024 C 0.87864 0.33921 0.02239 0.0
C1025 C 0.87325 0.37473 0.00138 0.0
H1026 H 0.90675 0.29765 0.04091 0.0
C1027 C 0.89321 0.39658 0.98323 0.0
H1028 H 0.8637 0.3219 0.03688 0.0
C1029 C 0.91817 0.38308 0.98616 0.0
C1030 C 0.92339 0.34709 0.00662 0.0
H1031 H 0.88958 0.42415 0.96686 0.0
H1032 H 0.93313 0.40025 0.97163 0.0
C1033 C 0.90335 0.32541 0.02475 0.0
C1034 C 0.37856 0.83792 0.02578 0.0
C1035 C 0.37307 0.87317 0.00434 0.0
H1036 H 0.40687 0.79685 0.04505 0.0
C1037 C 0.39313 0.89541 0.98678 0.0
H1038 H 0.36355 0.82039 0.03992 0.0
C1039 C 0.41818 0.88223 0.99018 0.0
C1040 C 0.42347 0.84629 0.01069 0.0
H1041 H 0.38946 0.92297 0.97041 0.0
H1042 H 0.43317 0.89957 0.97583 0.0
C1043 C 0.40341 0.8245 0.02872 0.0
C1044 C 0.88324 0.83901 0.19822 0.0
C1045 C 0.86214 0.86215 0.20129 0.0
H1046 H 0.92441 0.83788 0.19799 0.0
C1047 C 0.86733 0.90365 0.20604 0.0
H1048 H 0.88016 0.80688 0.19465 0.0
C1049 C 0.89288 0.92143 0.20789 0.0
C1050 C 0.91399 0.89819 0.20512 0.0
H1051 H 0.8517 0.92241 0.20866 0.0
H1052 H 0.89607 0.95349 0.21192 0.0
C1053 C 0.90877 0.85675 0.20018 0.0
C1054 C 0.36618 0.40284 0.20533 0.0
C1055 C 0.36113 0.36133 0.20046 0.0
H1056 H 0.39477 0.45293 0.21118 0.0
C1057 C 0.38229 0.33846 0.19691 0.0
H1058 H 0.3505 0.42141 0.20831 0.0
C1059 C 0.40775 0.35645 0.19866 0.0
C1060 C 0.41284 0.39789 0.20384 0.0
H1061 H 0.37932 0.30634 0.19321 0.0
H1062 H 0.42344 0.33777 0.19618 0.0
C1063 C 0.39167 0.42088 0.20692 0.0
C1064 C 0.14989 0.6598 0.95833 0.0
C1065 C 0.15547 0.62523 0.98094 0.0
H1066 H 0.12159 0.70071 0.9383 0.0
C1067 C 0.13567 0.60424 0.00016 0.0
H1068 H 0.1647 0.67642 0.94299 0.0
C1069 C 0.11072 0.61773 -0.00314 0.0
C1070 C 0.10532 0.65287 0.97495 0.0
H1071 H 0.13944 0.57741 0.01774 0.0
H1072 H 0.09592 0.60128 0.01235 0.0
C1073 C 0.12516 0.67363 0.9556 0.0
C1074 C 0.64999 0.16094 0.9576 0.0
C1075 C 0.65636 0.12754 0.98161 0.0
H1076 H 0.62095 0.20052 0.93694 0.0
C1077 C 0.63715 0.10717 0.00256 0.0
H1078 H 0.66432 0.1771 0.94096 0.0
C1079 C 0.61202 0.12 -0.00051 0.0
C1080 C 0.60588 0.15403 0.97622 0.0
H1081 H 0.64152 0.08138 0.02139 0.0
H1082 H 0.59768 0.10405 0.01626 0.0
C1083 C 0.62512 0.17425 0.95525 0.0
C1084 C 0.14586 0.16136 0.7877 0.0
C1085 C 0.16709 0.13841 0.78505 0.0
H1086 H 0.10465 0.16206 0.7877 0.0
C1087 C 0.16215 0.0968 0.78107 0.0
H1088 H 0.14876 0.19357 0.79062 0.0
C1089 C 0.13669 0.07871 0.77953 0.0
C1090 C 0.11544 0.10176 0.78174 0.0
H1091 H 0.17791 0.07816 0.77885 0.0
H1092 H 0.13371 0.04657 0.77609 0.0
C1093 C 0.12042 0.14332 0.786 0.0
C1094 C 0.66241 0.59788 0.77753 0.0
C1095 C 0.66735 0.63943 0.78212 0.0
H1096 H 0.63396 0.54766 0.77191 0.0
C1097 C 0.64612 0.66231 0.78504 0.0
H1098 H 0.67816 0.57931 0.77506 0.0
C1099 C 0.62068 0.64422 0.78317 0.0
C1100 C 0.6157 0.60271 0.77837 0.0
H1101 H 0.64904 0.69447 0.78846 0.0
H1102 H 0.60492 0.66287 0.78528 0.0
C1103 C 0.63695 0.57977 0.77572 0.0
C1104 C 0.90383 0.82599 0.52574 0.0
C1105 C 0.92434 0.84828 0.5093 0.0
H1106 H 0.86391 0.82232 0.53639 0.0
C1107 C 0.9198 0.88554 0.49101 0.0
H1108 H 0.9067 0.79732 0.54038 0.0
C1109 C 0.89504 0.89965 0.48834 0.0
C1110 C 0.87456 0.87696 0.50439 0.0
H1111 H 0.93516 0.90333 0.47794 0.0
H1112 H 0.89193 0.92826 0.47372 0.0
C1113 C 0.87928 0.84027 0.5235 0.0
C1114 C 0.39272 0.39448 0.48298 0.0
C1115 C 0.37335 0.37419 0.50364 0.0
H1116 H 0.43228 0.39728 0.46984 0.0
C1117 C 0.37947 0.34086 0.52788 0.0
H1118 H 0.3885 0.42035 0.46412 0.0
C1119 C 0.40431 0.3275 0.53079 0.0
C1120 C 0.42369 0.34752 0.50999 0.0
H1121 H 0.365 0.32485 0.54436 0.0
H1122 H 0.40831 0.3013 0.5493 0.0
C1123 C 0.41779 0.3815 0.48647 0.0
C1124 C 0.88264 0.34018 0.69825 0.0
C1125 C 0.86155 0.36328 0.70155 0.0
H1126 H 0.92376 0.33906 0.6977 0.0
C1127 C 0.8667 0.40477 0.70628 0.0
H1128 H 0.87959 0.30805 0.69462 0.0
C1129 C 0.89225 0.42256 0.70799 0.0
C1130 C 0.91335 0.39933 0.70506 0.0
H1131 H 0.85107 0.42348 0.70908 0.0
H1132 H 0.89544 0.45462 0.71208 0.0
C1133 C 0.90814 0.35792 0.70003 0.0
C1134 C 0.36679 0.90395 0.70794 0.0
C1135 C 0.36179 0.86243 0.70301 0.0
H1136 H 0.39534 0.95411 0.71391 0.0
C1137 C 0.383 0.8396 0.69976 0.0
H1138 H 0.35107 0.92249 0.71069 0.0
C1139 C 0.40844 0.85764 0.70167 0.0
C1140 C 0.41349 0.8991 0.7068 0.0
H1141 H 0.38007 0.80747 0.69608 0.0
H1142 H 0.42416 0.83896 0.69932 0.0
C1143 C 0.39229 0.92205 0.70976 0.0
C1144 C 0.12465 0.17247 0.45792 0.0
C1145 C 0.10543 0.15244 0.47909 0.0
H1146 H 0.16385 0.1754 0.4438 0.0
C1147 C 0.11161 0.11864 0.50273 0.0
H1148 H 0.12048 0.19848 0.43922 0.0
C1149 C 0.13676 0.10586 0.50591 0.0
C1150 C 0.15595 0.1262 0.48489 0.0
H1151 H 0.09728 0.1028 0.51959 0.0
H1152 H 0.14117 0.08006 0.52477 0.0
C1153 C 0.14955 0.15936 0.4606 0.0
C1154 C 0.61123 0.61727 0.49241 0.0
C1155 C 0.6059 0.6533 0.47207 0.0
H1156 H 0.64 0.5765 0.51189 0.0
C1157 C 0.62596 0.67523 0.45416 0.0
H1158 H 0.59626 0.5998 0.50668 0.0
C1159 C 0.65082 0.66188 0.457 0.0
C1160 C 0.65634 0.62652 0.47822 0.0
H1161 H 0.62253 0.70301 0.43804 0.0
H1162 H 0.66583 0.67955 0.44298 0.0
C1163 C 0.6363 0.60414 0.49568 0.0
C1164 C 0.14618 0.66289 0.28754 0.0
C1165 C 0.1674 0.63958 0.2859 0.0
H1166 H 0.10493 0.66401 0.28707 0.0
C1167 C 0.16238 0.59791 0.28333 0.0
H1168 H 0.14916 0.69517 0.28936 0.0
C1169 C 0.1369 0.58007 0.28221 0.0
C1170 C 0.11564 0.60339 0.28338 0.0
H1171 H 0.1781 0.579 0.28195 0.0
H1172 H 0.13394 0.54783 0.27996 0.0
C1173 C 0.12068 0.64506 0.28621 0.0
C1174 C 0.6374 0.07904 0.27631 0.0
C1175 C 0.61626 0.1018 0.28029 0.0
H1176 H 0.67858 0.07879 0.27467 0.0
C1177 C 0.6214 0.1431 0.28662 0.0
H1178 H 0.63427 0.04712 0.27122 0.0
C1179 C 0.64685 0.16118 0.28866 0.0
C1180 C 0.66799 0.13855 0.28435 0.0
H1181 H 0.60574 0.16165 0.28977 0.0
H1182 H 0.64983 0.19319 0.29325 0.0
C1183 C 0.66291 0.09717 0.27828 0.0
C1184 C 0.14943 0.49286 0.96891 0.0
C1185 C 0.1717 0.47673 0.95817 0.0
H1186 H 0.11191 0.48235 0.98915 0.0
C1187 C 0.17163 0.43473 0.95727 0.0
H1188 H 0.14873 0.52493 0.96995 0.0
C1189 C 0.15021 0.4098 0.9687 0.0
C1190 C 0.12847 0.4264 0.98121 0.0
H1191 H 0.18864 0.42124 0.94993 0.0
H1192 H 0.15106 0.37768 0.96907 0.0
C1193 C 0.12826 0.46827 0.98014 0.0
C1194 C 0.16278 0.83855 -0.00363 0.0
C1195 C 0.16297 0.87236 0.02087 0.0
H1196 H 0.14078 0.7876 0.96794 0.0
C1197 C 0.13958 0.8806 0.03505 0.0
H1198 H 0.18042 0.83083 0.98523 0.0
C1199 C 0.11657 0.85571 0.0246 0.0
C1200 C 0.11664 0.82179 0.00039 0.0
H1201 H 0.13904 0.90631 0.054 0.0
H1202 H 0.0988 0.86276 0.03581 0.0
C1203 C 0.14002 0.81353 0.98653 0.0
C1204 C 0.12409 0.80971 0.21569 0.0
C1205 C 0.12073 0.8447 0.23622 0.0
H1206 H 0.14827 0.76225 0.20961 0.0
C1207 C 0.14006 0.85882 0.26723 0.0
H1208 H 0.1095 0.79806 0.1917 0.0
C1209 C 0.16232 0.83824 0.27752 0.0
C1210 C 0.16565 0.80326 0.2569 0.0
H1211 H 0.13797 0.88572 0.28354 0.0
H1212 H 0.1769 0.84968 0.30163 0.0
C1213 C 0.14631 0.78923 0.22589 0.0
C1214 C 0.15398 0.44362 0.2154 0.0
C1215 C 0.15692 0.40395 0.22814 0.0
H1216 H 0.13124 0.49376 0.21426 0.0
C1217 C 0.13839 0.3843 0.25079 0.0
H1218 H 0.16797 0.45964 0.19802 0.0
C1219 C 0.11714 0.404 0.26009 0.0
C1220 C 0.11418 0.4436 0.24692 0.0
H1221 H 0.14023 0.35375 0.26107 0.0
H1222 H 0.10306 0.38828 0.27752 0.0
C1223 C 0.1329 0.4632 0.22469 0.0
C1224 C 0.85751 0.56472 0.02899 0.0
C1225 C 0.85761 0.52274 0.02841 0.0
H1226 H 0.87795 0.62183 0.01702 0.0
C1227 C 0.88004 0.50669 0.01821 0.0
H1228 H 0.84038 0.57812 0.03593 0.0
C1229 C 0.90123 0.53137 0.00717 0.0
C1230 C 0.90084 0.57322 0.0057 0.0
H1231 H 0.88084 0.47462 0.01742 0.0
H1232 H 0.91772 0.51737 -0.00145 0.0
C1233 C 0.87893 0.58974 0.01771 0.0
C1234 C 0.90839 0.15705 0.94533 0.0
C1235 C 0.91274 0.17732 0.98254 0.0
H1236 H 0.88262 0.117 0.90609 0.0
C1237 C 0.89406 0.17119 0.00963 0.0
H1238 H 0.92247 0.16113 0.92382 0.0
C1239 C 0.87132 0.14605 -0.00044 0.0
C1240 C 0.86661 0.12609 0.96212 0.0
H1241 H 0.89681 0.18629 0.03854 0.0
H1242 H 0.85725 0.14271 0.02112 0.0
C1243 C 0.8856 0.1316 0.93526 0.0
C1244 C 0.87533 0.19544 0.76961 0.0
C1245 C 0.86393 0.19753 0.72913 0.0
H1246 H 0.90564 0.1733 0.81144 0.0
C1247 C 0.87475 0.17769 0.69924 0.0
H1248 H 0.86744 0.21044 0.79328 0.0
C1249 C 0.89669 0.15645 0.70962 0.0
C1250 C 0.90815 0.15458 0.75009 0.0
H1251 H 0.86634 0.17875 0.66779 0.0
H1252 H 0.90471 0.14163 0.68597 0.0
C1253 C 0.8972 0.17416 0.77998 0.0
C1254 C 0.89014 0.61394 0.73873 0.0
C1255 C 0.87363 0.59613 0.7657 0.0
H1256 H 0.92413 0.60921 0.70887 0.0
C1257 C 0.87936 0.55935 0.78406 0.0
H1258 H 0.88621 0.64231 0.7242 0.0
C1259 C 0.90101 0.54059 0.77549 0.0
C1260 C 0.91743 0.55813 0.7483 0.0
H1261 H 0.86703 0.54488 0.80502 0.0
H1262 H 0.90473 0.5121 0.78993 0.0
C1263 C 0.91185 0.59507 0.73007 0.0
C1264 C 0.17042 0.93773 0.45429 0.0
C1265 C 0.17124 0.97952 0.45886 0.0
H1266 H 0.14941 0.8803 0.46306 0.0
C1267 C 0.14981 0.99514 0.47303 0.0
H1268 H 0.18675 0.92457 0.44408 0.0
C1269 C 0.12884 0.97016 0.48419 0.0
C1270 C 0.12837 0.92836 0.48166 0.0
H1271 H 0.14964 0.02704 0.47685 0.0
H1272 H 0.1132 0.9838 0.49595 0.0
C1273 C 0.14916 0.91237 0.4656 0.0
C1274 C 0.11648 0.35744 0.52256 0.0
C1275 C 0.117 0.32171 0.50131 0.0
H1276 H 0.13854 0.40964 0.54944 0.0
C1277 C 0.1408 0.31188 0.49003 0.0
H1278 H 0.0984 0.36573 0.53176 0.0
C1279 C 0.16352 0.33718 0.49943 0.0
C1280 C 0.16322 0.37277 0.52103 0.0
H1281 H 0.1419 0.28455 0.47376 0.0
H1282 H 0.1815 0.32832 0.49036 0.0
C1283 C 0.13944 0.38254 0.53273 0.0
C1284 C 0.12932 0.32059 0.70724 0.0
C1285 C 0.1206 0.34563 0.73515 0.0
H1286 H 0.15753 0.28062 0.69595 0.0
C1287 C 0.13448 0.34962 0.77412 0.0
H1288 H 0.11901 0.31688 0.67698 0.0
C1289 C 0.15658 0.32881 0.785 0.0
C1290 C 0.16521 0.30363 0.75711 0.0
H1291 H 0.12821 0.36868 0.79627 0.0
H1292 H 0.16683 0.33229 0.81532 0.0
C1293 C 0.15139 0.29983 0.71809 0.0
C1294 C 0.1311 0.96298 0.71731 0.0
C1295 C 0.11218 0.9429 0.73888 0.0
H1296 H 0.16689 0.96041 0.69219 0.0
C1297 C 0.11525 0.90322 0.75169 0.0
H1298 H 0.12939 0.99363 0.7072 0.0
C1299 C 0.13687 0.88407 0.74304 0.0
C1300 C 0.15579 0.90432 0.72153 0.0
H1301 H 0.10101 0.88706 0.76849 0.0
H1302 H 0.13878 0.85348 0.75318 0.0
C1303 C 0.15264 0.94395 0.70877 0.0
C1304 C 0.87426 0.04103 0.54738 0.0
C1305 C 0.85325 0.02933 0.51787 0.0
H1306 H 0.9122 0.07331 0.55974 0.0
C1307 C 0.85392 0.0447 0.47821 0.0
H1308 H 0.8746 0.02935 0.57802 0.0
C1309 C 0.87514 0.0698 0.46781 0.0
C1310 C 0.89676 0.08017 0.49655 0.0
H1311 H 0.83813 0.03637 0.45465 0.0
H1312 H 0.87492 0.08006 0.43667 0.0
C1313 C 0.89588 0.06601 0.53676 0.0
C1314 C 0.86796 0.65758 0.49168 0.0
C1315 C 0.86679 0.62742 0.46242 0.0
H1316 H 0.8906 0.70579 0.52396 0.0
C1317 C 0.88921 0.62305 0.4436 0.0
H1318 H 0.85114 0.66236 0.50665 0.0
C1319 C 0.91214 0.64822 0.4539 0.0
C1320 C 0.913 0.67847 0.48291 0.0
H1321 H 0.88903 0.60032 0.42088 0.0
H1322 H 0.92908 0.64425 0.4389 0.0
C1323 C 0.89065 0.68276 0.5016 0.0
C1324 C 0.89288 0.66501 0.27718 0.0
C1325 C 0.90737 0.65289 0.24728 0.0
H1326 H 0.86036 0.69544 0.29032 0.0
C1327 C 0.89941 0.66212 0.20647 0.0
H1328 H 0.89856 0.65837 0.3089 0.0
C1329 C 0.87747 0.68333 0.19583 0.0
C1330 C 0.86314 0.69578 0.2258 0.0
H1331 H 0.91022 0.65319 0.1828 0.0
H1332 H 0.87186 0.69026 0.16415 0.0
C1333 C 0.87101 0.68626 0.26656 0.0
C1334 C 0.89076 0.11444 0.23407 0.0
C1335 C 0.87457 0.09764 0.26194 0.0
H1336 H 0.92421 0.10814 0.2034 0.0
C1337 C 0.88015 0.06107 0.28092 0.0
H1338 H 0.88691 0.14262 0.21906 0.0
C1339 C 0.9014 0.04157 0.27219 0.0
C1340 C 0.91751 0.05809 0.24413 0.0
H1341 H 0.86797 0.0473 0.30246 0.0
H1342 H 0.90503 0.01327 0.28711 0.0
C1343 C 0.91206 0.09475 0.22516 0.0
C1344 C 0.64258 0.45745 0.51595 0.0
C1345 C 0.63166 0.42594 0.49059 0.0
H1346 H 0.67092 0.50651 0.5271 0.0
C1347 C 0.64263 0.42067 0.45438 0.0
H1348 H 0.63481 0.46279 0.54395 0.0
C1349 C 0.66411 0.44649 0.44421 0.0
C1350 C 0.67484 0.47828 0.46991 0.0
H1351 H 0.63468 0.39666 0.43403 0.0
H1352 H 0.6722 0.44162 0.41641 0.0
C1353 C 0.66354 0.48294 0.5059 0.0
C1354 C 0.62235 0.84051 0.53558 0.0
C1355 C 0.61796 0.82096 0.498 0.0
H1356 H 0.64793 0.88026 0.57526 0.0
C1357 C 0.63652 0.82802 0.47077 0.0
H1358 H 0.60837 0.83577 0.5572 0.0
C1359 C 0.65913 0.85347 0.48104 0.0
C1360 C 0.66378 0.87281 0.5188 0.0
H1361 H 0.63371 0.81355 0.44153 0.0
H1362 H 0.6731 0.85764 0.45937 0.0
C1363 C 0.64496 0.86623 0.54583 0.0
C1364 C 0.65917 0.83383 0.78028 0.0
C1365 C 0.66488 0.80299 0.75566 0.0
H1366 H 0.63263 0.8774 0.78967 0.0
C1367 C 0.64763 0.79253 0.72081 0.0
H1368 H 0.6721 0.84248 0.80739 0.0
C1369 C 0.62505 0.81227 0.71088 0.0
C1370 C 0.61927 0.84303 0.73548 0.0
H1371 H 0.65148 0.76887 0.70128 0.0
H1372 H 0.61214 0.80346 0.6838 0.0
C1373 C 0.63659 0.85376 0.77021 0.0
C1374 C 0.60939 0.415 0.71005 0.0
C1375 C 0.6115 0.43654 0.7463 0.0
H1376 H 0.62802 0.37822 0.67238 0.0
C1377 C 0.63445 0.436 0.77352 0.0
H1378 H 0.59198 0.41498 0.68841 0.0
C1379 C 0.65502 0.41481 0.76445 0.0
C1380 C 0.65309 0.39381 0.7279 0.0
H1381 H 0.63667 0.45244 0.80162 0.0
H1382 H 0.67266 0.41564 0.78565 0.0
C1383 C 0.63 0.3939 0.70091 0.0
C1384 C 0.40068 0.53053 0.50246 0.0
C1385 C 0.4011 0.57241 0.50412 0.0
H1386 H 0.37977 0.47376 0.51026 0.0
C1387 C 0.37996 0.58866 0.51896 0.0
H1388 H 0.41654 0.51666 0.49161 0.0
C1389 C 0.35852 0.56348 0.53007 0.0
C1390 C 0.3578 0.52158 0.52645 0.0
H1391 H 0.37961 0.62077 0.52079 0.0
H1392 H 0.34202 0.57685 0.53942 0.0
C1393 C 0.3795 0.50573 0.51333 0.0
C1394 C 0.37271 0.14124 0.50517 0.0
C1395 C 0.36659 0.12494 0.46607 0.0
H1396 H 0.39931 0.17885 0.54545 0.0
C1397 C 0.384 0.1345 0.43734 0.0
H1398 H 0.35981 0.13468 0.52812 0.0
C1399 C 0.40654 0.1605 0.44721 0.0
C1400 C 0.41239 0.17703 0.4862 0.0
H1401 H 0.37985 0.12283 0.40686 0.0
H1402 H 0.41933 0.1678 0.42426 0.0
C1403 C 0.39537 0.16667 0.51516 0.0
C1404 C 0.39429 0.14978 0.21207 0.0
C1405 C 0.41114 0.15983 0.24749 0.0
H1406 H 0.35892 0.16107 0.17453 0.0
C1407 C 0.40479 0.18966 0.2727 0.0
H1408 H 0.39867 0.12682 0.19214 0.0
C1409 C 0.38206 0.20901 0.26282 0.0
C1410 C 0.36519 0.19906 0.22742 0.0
H1411 H 0.41733 0.19793 0.30031 0.0
H1412 H 0.37773 0.23187 0.2829 0.0
C1413 C 0.37154 0.16929 0.20207 0.0
C1414 C 0.38217 0.56336 0.28619 0.0
C1415 C 0.37361 0.59617 0.26293 0.0
H1416 H 0.40955 0.51898 0.2955 0.0
C1417 C 0.3871 0.6098 0.23047 0.0
H1418 H 0.37221 0.55214 0.31143 0.0
C1419 C 0.40863 0.59072 0.22134 0.0
C1420 C 0.41701 0.55769 0.24451 0.0
H1421 H 0.38095 0.63503 0.21203 0.0
H1422 H 0.41855 0.60157 0.19595 0.0
C1423 C 0.4036 0.54436 0.27711 0.0
C1424 C 0.66696 0.9418 0.9488 0.0
C1425 C 0.67263 0.98019 0.96598 0.0
H1426 H 0.64194 0.8865 0.94648 0.0
C1427 C 0.65594 0.99204 -0.00693 0.0
H1428 H 0.67936 0.93128 0.92813 0.0
C1429 C 0.635 0.9668 0.00359 0.0
C1430 C 0.62956 0.92821 0.98765 0.0
H1431 H 0.65927 0.02099 0.00725 0.0
H1432 H 0.62316 0.97766 0.02497 0.0
C1433 C 0.6456 0.91603 0.95956 0.0
C1434 C 0.63846 0.31928 0.98197 0.0
C1435 C 0.61651 0.32275 0.00199 0.0
H1436 H 0.67774 0.34026 0.97565 0.0
C1437 C 0.6178 0.35238 0.03171 0.0
H1438 H 0.63818 0.29675 0.959 0.0
C1439 C 0.64073 0.37765 0.04149 0.0
C1440 C 0.66281 0.37394 0.02157 0.0
H1441 H 0.60117 0.35584 0.04762 0.0
H1442 H 0.64121 0.39986 0.06481 0.0
C1443 C 0.6612 0.34449 0.99152 0.0
C1444 C 0.66047 0.33452 0.28509 0.0
C1445 C 0.66525 0.30254 0.26115 0.0
H1446 H 0.63492 0.37969 0.29394 0.0
C1447 C 0.64731 0.29136 0.22733 0.0
H1448 H 0.67397 0.34366 0.31144 0.0
C1449 C 0.62511 0.31183 0.21742 0.0
C1450 C 0.62033 0.34393 0.24112 0.0
H1451 H 0.65038 0.26668 0.20848 0.0
H1452 H 0.61163 0.30242 0.19113 0.0
C1453 C 0.63816 0.35507 0.27514 0.0
C1454 C 0.6423 0.8915 0.25585 0.0
C1455 C 0.65394 0.90158 0.22065 0.0
H1456 H 0.6124 0.90294 0.29224 0.0
C1457 C 0.64367 0.93114 0.19436 0.0
H1458 H 0.64986 0.86888 0.27667 0.0
C1459 C 0.6224 0.95058 0.20323 0.0
C1460 C 0.61087 0.94086 0.23857 0.0
H1461 H 0.65225 0.93964 0.16702 0.0
H1462 H 0.61513 0.97352 0.18255 0.0
C1463 C 0.62089 0.91094 0.26471 0.0
C1464 C 0.38804 0.0415 0.9689 0.0
C1465 C 0.39815 0.07418 -0.0068 0.0
H1466 H 0.36043 0.99153 0.95861 0.0
C1467 C 0.38649 0.08057 0.02852 0.0
H1468 H 0.39637 0.03526 0.94163 0.0
C1469 C 0.36506 0.05471 0.03879 0.0
C1470 C 0.3551 0.02182 0.01407 0.0
H1471 H 0.39382 0.10552 0.04804 0.0
H1472 H 0.35635 0.0605 0.0658 0.0
C1473 C 0.36716 0.016 0.97905 0.0
C1474 C 0.38929 0.61922 0.95033 0.0
C1475 C 0.36592 0.6273 0.96469 0.0
H1476 H 0.43002 0.63717 0.9493 0.0
C1477 C 0.36614 0.66098 0.98939 0.0
H1478 H 0.38982 0.59361 0.93122 0.0
C1479 C 0.38892 0.68604 -0.00082 0.0
C1480 C 0.41227 0.67795 0.98506 0.0
H1481 H 0.34851 0.66855 0.00065 0.0
H1482 H 0.3882 0.71189 0.01788 0.0
C1483 C 0.41229 0.64413 0.96069 0.0
C1484 C 0.392 0.646 0.71464 0.0
C1485 C 0.40871 0.65516 0.75042 0.0
H1486 H 0.35737 0.65929 0.67632 0.0
C1487 C 0.40284 0.68543 0.77554 0.0
H1488 H 0.39607 0.62284 0.69469 0.0
C1489 C 0.38074 0.70617 0.76512 0.0
C1490 C 0.36405 0.69715 0.72931 0.0
H1491 H 0.41537 0.69319 0.80329 0.0
H1492 H 0.3768 0.72944 0.78504 0.0
C1493 C 0.36987 0.66683 0.70416 0.0
C1494 C 0.37912 0.05955 0.78268 0.0
C1495 C 0.37381 0.09667 0.76473 0.0
H1496 H 0.40417 0.01194 0.78865 0.0
C1497 C 0.39076 0.11469 0.73851 0.0
H1498 H 0.36643 0.04487 0.80302 0.0
C1499 C 0.41252 0.0957 0.73026 0.0
C1500 C 0.41768 0.05846 0.74817 0.0
H1501 H 0.38714 0.1433 0.72428 0.0
H1502 H 0.42516 0.10999 0.70966 0.0
C1503 C 0.40079 0.04069 0.77453 0.0
C1504 C 0.99074 0.15833 0.88138 0.0
C1505 C 1.01315 0.13875 0.87835 0.0
H1506 H 0.97406 0.20572 0.90699 0.0
C1507 C 0.03668 0.15238 0.90138 0.0
H1508 H 0.97252 0.14935 0.86314 0.0
C1509 C 0.0374 0.18425 0.92825 0.0
C1510 C 0.01484 0.20393 0.93099 0.0
H1511 H 0.05437 0.13835 0.89865 0.0
H1512 H 0.05553 0.19354 0.9467 0.0
C1513 C 0.99172 0.19105 0.90651 0.0
C1514 C 0.29579 0.0182 0.90363 0.0
C1515 C 0.27389 0.00824 0.92357 0.0
H1516 H 0.31488 0.06052 0.86614 0.0
C1517 C 0.25302 0.03256 0.91841 0.0
H1518 H 0.31242 0.00051 0.90816 0.0
C1519 C 0.25436 0.06707 0.89428 0.0
C1520 C 0.27702 0.07835 0.87644 0.0
H1521 H 0.2362 0.02571 0.93442 0.0
H1522 H 0.23812 0.08551 0.89061 0.0
C1523 C 0.29748 0.05319 0.88064 0.0
C1524 C 0.02401 0.06306 0.37718 0.0
C1525 C 1.00504 0.0908 0.36971 0.0
H1526 H 0.04264 0.01544 0.35325 0.0
C1527 C 0.99195 0.09413 0.3305 0.0
H1528 H 0.03423 0.0596 0.40734 0.0
C1529 C 0.9975 0.06987 0.2995 0.0
C1530 C 0.01558 0.041 0.30735 0.0
H1531 H 0.97743 0.11538 0.32386 0.0
H1532 H 0.98712 0.0729 0.26949 0.0
C1533 C 0.029 0.03797 0.34634 0.0
C1534 C 0.26441 0.13081 0.30094 0.0
C1535 C 0.2759 0.14088 0.34036 0.0
H1536 H 0.25133 0.15245 0.24123 0.0
C1537 C 0.28139 0.1816 0.35031 0.0
H1538 H 0.25978 0.0998 0.29244 0.0
C1539 C 0.27675 0.2114 0.32121 0.0
C1540 C 0.26594 0.20141 0.28164 0.0
H1541 H 0.29014 0.19063 0.3804 0.0
H1542 H 0.28229 0.24234 0.32935 0.0
C1543 C 0.25925 0.16092 0.27186 0.0
C1544 C 0.03956 0.84781 0.09835 0.0
C1545 C 0.01627 0.8623 0.10659 0.0
H1546 H 0.05756 0.80496 0.06784 0.0
C1547 C 0.99244 0.84453 0.08762 0.0
H1548 H 0.05823 0.86018 0.11315 0.0
C1549 C 0.99207 0.81315 0.0603 0.0
C1550 C 0.01546 0.79814 0.05292 0.0
H1551 H 0.97419 0.85471 0.09414 0.0
H1552 H 0.97355 0.80032 0.04541 0.0
C1553 C 0.03913 0.81567 0.07259 0.0
C1554 C 0.73793 0.99017 0.08568 0.0
C1555 C 0.75727 0.99404 0.05978 0.0
H1556 H 0.72021 0.95399 0.12972 0.0
C1557 C 0.77575 0.96562 0.06154 0.0
H1558 H 0.72316 0.01121 0.08425 0.0
C1559 C 0.77409 0.9326 0.08764 0.0
C1560 C 0.75343 0.92718 0.11111 0.0
H1561 H 0.79066 0.968 0.04132 0.0
H1562 H 0.78818 0.91059 0.08819 0.0
C1563 C 0.73587 0.95682 0.11084 0.0
C1564 C 0.04671 0.94341 0.62978 0.0
C1565 C 0.0285 0.91138 0.61726 0.0
H1566 H 0.05579 0.99538 0.6661 0.0
C1567 C 1.00466 0.90736 0.63368 0.0
H1568 H 0.06497 0.94802 0.61703 0.0
C1569 C 0.99942 0.93445 0.66268 0.0
C1570 C 0.01766 0.96667 0.67496 0.0
H1571 H 0.99006 0.88326 0.62412 0.0
H1572 H 0.98116 0.93018 0.67541 0.0
C1573 C 0.04123 0.97092 0.65772 0.0
C1574 C 0.75382 0.78707 0.66369 0.0
C1575 C 0.76403 0.79702 0.70352 0.0
H1576 H 0.74099 0.80802 0.60431 0.0
C1577 C 0.77031 0.8375 0.71365 0.0
H1578 H 0.74861 0.75611 0.65531 0.0
C1579 C 0.76526 0.86765 0.68464 0.0
C1580 C 0.75433 0.85764 0.64495 0.0
H1581 H 0.77777 0.8459 0.74448 0.0
H1582 H 0.76951 0.89865 0.69342 0.0
C1583 C 0.74931 0.81696 0.63463 0.0
C1584 C 0.99122 0.69247 0.40746 0.0
C1585 C 1.01455 0.70498 0.43168 0.0
H1586 H 0.97172 0.65158 0.36335 0.0
C1587 C 0.03695 0.68515 0.4284 0.0
H1588 H 0.9736 0.70711 0.4088 0.0
C1589 C 0.03595 0.65352 0.40121 0.0
C1590 C 1.01231 0.6404 0.37822 0.0
H1591 H 0.05519 0.6941 0.44673 0.0
H1592 H 0.05353 0.6393 0.39818 0.0
C1593 C 0.99002 0.66016 0.3817 0.0
C1594 C 0.25572 0.56932 0.39589 0.0
C1595 C 0.27854 0.58204 0.37903 0.0
H1596 H 0.23779 0.52691 0.43529 0.0
C1597 C 0.29991 0.55868 0.38492 0.0
H1598 H 0.23883 0.58638 0.39097 0.0
C1599 C 0.29879 0.52385 0.40823 0.0
C1600 C 0.27652 0.51228 0.42677 0.0
H1601 H 0.31751 0.56715 0.37131 0.0
H1602 H 0.31594 0.50738 0.41386 0.0
C1603 C 0.25492 0.53502 0.42034 0.0
C1604 C 0.02929 0.56675 0.8217 0.0
C1605 C 1.01205 0.5328 0.81143 0.0
H1606 H 0.03776 0.61917 0.85875 0.0
C1607 C 0.98956 0.52633 0.83127 0.0
H1608 H 0.04671 0.57276 0.80699 0.0
C1609 C 0.98396 0.5535 0.85947 0.0
C1610 C 1.00105 0.58745 0.86966 0.0
H1611 H 0.97586 0.5004 0.82463 0.0
H1612 H 0.96653 0.54727 0.87415 0.0
C1613 C 0.024 0.59354 0.85095 0.0
C1614 C 0.26744 0.63141 0.79809 0.0
C1615 C 0.27751 0.6412 0.83821 0.0
H1616 H 0.25502 0.65366 0.73836 0.0
C1617 C 0.2814 0.68181 0.84921 0.0
H1618 H 0.26409 0.60048 0.78877 0.0
C1619 C 0.27639 0.71191 0.82059 0.0
C1620 C 0.2668 0.70226 0.78048 0.0
H1621 H 0.28909 0.69061 0.87983 0.0
H1622 H 0.28063 0.74287 0.82961 0.0
C1623 C 0.26189 0.66178 0.76948 0.0
C1624 C 0.03842 0.31886 0.56966 0.0
C1625 C 0.01482 0.29909 0.55232 0.0
H1626 H 0.05731 0.36524 0.60807 0.0
C1627 C 0.99127 0.31237 0.56124 0.0
H1628 H 0.05697 0.30959 0.56357 0.0
C1629 C 0.99149 0.34398 0.58828 0.0
C1630 C 0.01525 0.36372 0.60533 0.0
H1631 H 0.9728 0.29782 0.54804 0.0
H1632 H 0.97318 0.35262 0.59628 0.0
C1633 C 0.03863 0.35125 0.59502 0.0
C1634 C 0.77415 0.4339 0.58844 0.0
C1635 C 0.75364 0.42944 0.6123 0.0
H1636 H 0.79095 0.46841 0.54179 0.0
C1637 C 0.73678 0.46004 0.61241 0.0
H1638 H 0.78774 0.41119 0.58862 0.0
C1639 C 0.73922 0.49321 0.5871 0.0
C1640 C 0.75829 0.49605 0.56073 0.0
H1641 H 0.72126 0.45802 0.63154 0.0
H1642 H 0.72484 0.51488 0.58585 0.0
C1643 C 0.77624 0.46683 0.56233 0.0
C1644 C 0.04375 0.46122 0.16636 0.0
C1645 C 0.01864 0.46392 0.1774 0.0
H1646 H 0.06789 0.43314 0.13004 0.0
C1647 C 0.99795 0.43854 0.15838 0.0
H1648 H 0.06024 0.48022 0.18007 0.0
C1649 C 1.00231 0.41181 0.12836 0.0
C1650 C 0.0276 0.40915 0.11772 0.0
H1651 H 0.9784 0.43986 0.16615 0.0
H1652 H 0.98586 0.39352 0.11326 0.0
C1653 C 0.04824 0.43388 0.13759 0.0
C1654 C 0.76109 0.37043 0.18884 0.0
C1655 C 0.75317 0.36024 0.1481 0.0
H1656 H 0.77144 0.34878 0.24949 0.0
C1657 C 0.75152 0.31966 0.13706 0.0
H1658 H 0.76267 0.40132 0.19829 0.0
C1659 C 0.7563 0.28991 0.16617 0.0
C1660 C 0.76351 0.29997 0.20685 0.0
H1661 H 0.74567 0.31052 0.10596 0.0
H1662 H 0.75368 0.25886 0.15705 0.0
C1663 C 0.76643 0.34047 0.21798 0.0
C1664 C 0.49052 0.18292 0.41419 0.0
C1665 C 0.51394 0.20107 0.43399 0.0
H1666 H 0.47199 0.13814 0.37363 0.0
C1667 C 0.53758 0.1867 0.42691 0.0
H1668 H 0.47192 0.19299 0.41865 0.0
C1669 C 0.53766 0.15534 0.3997 0.0
C1670 C 0.51405 0.137 0.38057 0.0
H1671 H 0.55593 0.20001 0.44194 0.0
H1672 H 0.55608 0.14563 0.39338 0.0
C1673 C 0.49053 0.15088 0.38855 0.0
C1674 C 0.75482 0.03887 0.42466 0.0
C1675 C 0.77225 0.00902 0.42516 0.0
H1676 H 0.74341 0.09466 0.39859 0.0
C1677 C 0.79045 0.01091 0.39732 0.0
H1678 H 0.74072 0.03794 0.44618 0.0
C1679 C 0.79267 0.04386 0.37169 0.0
C1680 C 0.77634 0.07493 0.37283 0.0
H1681 H 0.80434 0.98861 0.39753 0.0
H1682 H 0.80751 0.04529 0.35134 0.0
C1683 C 0.7566 0.07146 0.3981 0.0
C1684 C 0.52572 0.093 0.85085 0.0
C1685 C 0.50249 0.08762 0.86887 0.0
H1686 H 0.54861 0.07138 0.80759 0.0
C1687 C 0.48505 0.05416 0.85825 0.0
H1688 H 0.53972 0.11826 0.859 0.0
C1689 C 0.49059 0.02673 0.83032 0.0
C1690 C 0.51337 0.03249 0.81115 0.0
H1691 H 0.46735 0.0485 0.87236 0.0
H1692 H 0.47662 0.00119 0.82336 0.0
C1693 C 0.53095 0.06596 0.82181 0.0
C1694 C 0.76059 0.16354 0.76891 0.0
C1695 C 0.76628 0.20397 0.77979 0.0
H1696 H 0.76216 0.10214 0.78811 0.0
C1697 C 0.77672 0.21345 0.8196 0.0
H1698 H 0.75304 0.15551 0.73802 0.0
C1699 C 0.78181 0.18324 0.848 0.0
C1700 C 0.77708 0.14267 0.83709 0.0
H1701 H 0.78155 0.24434 0.82853 0.0
H1702 H 0.79019 0.1919 0.87837 0.0
C1703 C 0.76616 0.13305 0.79732 0.0
C1704 C 0.4911 0.83719 0.59451 0.0
C1705 C 0.51101 0.86866 0.60024 0.0
H1706 H 0.47705 0.78303 0.56231 0.0
C1707 C 0.53015 0.87245 0.57378 0.0
H1708 H 0.476 0.83356 0.61435 0.0
C1709 C 0.53101 0.84327 0.54513 0.0
C1710 C 0.5125 0.8101 0.54174 0.0
H1711 H 0.54554 0.89658 0.57688 0.0
H1712 H 0.54673 0.84604 0.52636 0.0
C1713 C 0.49176 0.80812 0.5651 0.0
C1714 C 0.27414 0.96904 0.57137 0.0
C1715 C 0.25073 0.98585 0.5584 0.0
H1716 H 0.29239 0.92227 0.60578 0.0
C1717 C 0.22724 0.96759 0.5691 0.0
H1718 H 0.29232 0.98219 0.56216 0.0
C1719 C 0.22704 0.93248 0.59206 0.0
C1720 C 0.25043 0.91542 0.60533 0.0
H1721 H 0.20888 0.97934 0.55792 0.0
H1722 H 0.20854 0.91905 0.59981 0.0
C1723 C 0.27406 0.93441 0.59538 0.0
C1724 C 0.50483 0.90708 0.13553 0.0
C1725 C 0.52721 0.91393 0.11556 0.0
H1726 H 0.48264 0.92748 0.18038 0.0
C1727 C 0.5435 0.9491 0.1238 0.0
H1728 H 0.49165 0.88051 0.12915 0.0
C1729 C 0.53779 0.9766 0.1516 0.0
C1730 C 0.51606 0.96921 0.17306 0.0
H1731 H 0.56042 0.95593 0.10801 0.0
H1732 H 0.55087 0.00344 0.15682 0.0
C1733 C 0.49949 0.9342 0.16445 0.0
C1734 C 0.25264 0.78793 0.16505 0.0
C1735 C 0.26241 0.79782 0.20503 0.0
H1736 H 0.23977 0.80887 0.10577 0.0
C1737 C 0.26738 0.83836 0.21577 0.0
H1738 H 0.24834 0.75692 0.15624 0.0
C1739 C 0.26177 0.86857 0.187 0.0
C1740 C 0.25156 0.85856 0.147 0.0
H1741 H 0.27436 0.84664 0.2468 0.0
H1742 H 0.26519 0.89957 0.19611 0.0
C1743 C 0.24756 0.81786 0.13629 0.0
C1744 C 0.5373 0.65568 0.89832 0.0
C1745 C 0.51351 0.63807 0.87907 0.0
H1746 H 0.5561 0.69978 0.94074 0.0
C1747 C 0.49021 0.65285 0.88688 0.0
H1748 H 0.55556 0.64527 0.89215 0.0
C1749 C 0.4906 0.68511 0.91249 0.0
C1750 C 0.51423 0.70241 0.9325 0.0
H1751 H 0.47157 0.64057 0.87193 0.0
H1752 H 0.47218 0.69602 0.91692 0.0
C1753 C 0.53762 0.68713 0.92555 0.0
C1754 C 0.79892 0.52691 0.90964 0.0
C1755 C 0.77666 0.51465 0.92794 0.0
H1756 H 0.81726 0.57072 0.87276 0.0
C1757 C 0.75475 0.53673 0.92127 0.0
H1758 H 0.81628 0.51095 0.91543 0.0
C1759 C 0.7552 0.57096 0.89666 0.0
C1760 C 0.77797 0.58432 0.87995 0.0
H1761 H 0.73761 0.52809 0.93602 0.0
H1762 H 0.73806 0.58746 0.89147 0.0
C1763 C 0.79968 0.56171 0.88622 0.0
C1764 C 0.52864 0.5668 0.32016 0.0
C1765 C 0.51136 0.53277 0.31044 0.0
H1766 H 0.5374 0.61938 0.35688 0.0
C1767 C 0.4892 0.52615 0.33103 0.0
H1768 H 0.54582 0.57286 0.30487 0.0
C1769 C 0.48389 0.5534 0.35933 0.0
C1770 C 0.50098 0.58748 0.36887 0.0
H1771 H 0.47555 0.5001 0.32488 0.0
H1772 H 0.46669 0.54714 0.37457 0.0
C1773 C 0.52365 0.59364 0.34953 0.0
C1774 C 0.77982 0.71304 0.31863 0.0
C1775 C 0.76786 0.70377 0.27949 0.0
H1776 H 0.79459 0.69122 0.37671 0.0
C1777 C 0.76102 0.66343 0.2691 0.0
H1778 H 0.7856 0.74381 0.32718 0.0
C1779 C 0.76679 0.6328 0.29732 0.0
C1780 C 0.77904 0.64224 0.33645 0.0
H1781 H 0.75228 0.65551 0.23871 0.0
H1782 H 0.76171 0.60194 0.28857 0.0
C1783 C 0.78512 0.68275 0.34685 0.0
C1784 C 0.53425 0.32613 0.11491 0.0
C1785 C 0.51519 0.35346 0.11183 0.0
H1786 H 0.54829 0.27549 0.09018 0.0
C1787 C 0.49397 0.34874 0.08138 0.0
H1788 H 0.55024 0.32822 0.1391 0.0
C1789 C 0.49284 0.31834 0.05272 0.0
C1790 C 0.5126 0.29187 0.05498 0.0
H1791 H 0.47875 0.36905 0.07917 0.0
H1792 H 0.47692 0.31627 0.0283 0.0
C1793 C 0.53289 0.29553 0.0871 0.0
C1794 C 0.23047 0.47635 0.07847 0.0
C1795 C 0.25234 0.48636 0.05844 0.0
H1796 H 0.21183 0.43459 0.11705 0.0
C1797 C 0.27339 0.4624 0.06397 0.0
H1798 H 0.21375 0.49382 0.07373 0.0
C1799 C 0.27236 0.4284 0.08883 0.0
C1800 C 0.24986 0.41722 0.1071 0.0
H1801 H 0.29022 0.46934 0.04803 0.0
H1802 H 0.28881 0.41037 0.09297 0.0
C1803 C 0.22911 0.44184 0.10225 0.0
C1804 C 0.54319 0.45041 0.6217 0.0
C1805 C 0.52731 0.41476 0.61408 0.0
H1806 H 0.55058 0.50448 0.65522 0.0
C1807 C 0.50541 0.40706 0.63502 0.0
H1808 H 0.55971 0.45781 0.60517 0.0
C1809 C 0.50025 0.43373 0.66445 0.0
C1810 C 0.51653 0.4691 0.67267 0.0
H1811 H 0.49255 0.38008 0.62911 0.0
H1812 H 0.48389 0.42626 0.68127 0.0
C1813 C 0.53765 0.47746 0.65008 0.0
C1814 C 0.24697 0.28818 0.66615 0.0
C1815 C 0.26048 0.29703 0.70448 0.0
H1816 H 0.23128 0.31052 0.60871 0.0
C1817 C 0.26907 0.33708 0.71402 0.0
H1818 H 0.23983 0.25769 0.65824 0.0
C1819 C 0.26357 0.36785 0.68583 0.0
C1820 C 0.24986 0.3588 0.64753 0.0
H1821 H 0.27908 0.34477 0.74376 0.0
H1822 H 0.27009 0.39851 0.69386 0.0
C1823 C 0.24194 0.31858 0.63794 0.0
C1824 C 0.13838 0.27224 0.15598 0.0
C1825 C 0.16049 0.26161 0.13975 0.0
H1826 H 0.09936 0.28912 0.14343 0.0
C1827 C 0.15835 0.25226 0.09834 0.0
H1828 H 0.13974 0.28063 0.18754 0.0
C1829 C 0.13522 0.25767 0.07287 0.0
C1830 C 0.11416 0.27236 0.08875 0.0
H1831 H 0.17536 0.2453 0.08489 0.0
H1832 H 0.13459 0.25364 0.0405 0.0
C1833 C 0.11545 0.27774 0.13066 0.0
C1834 C 0.13533 0.98731 0.19674 0.0
C1835 C 0.11226 0.99437 0.17174 0.0
H1836 H 0.17599 0.97832 0.20007 0.0
C1837 C 0.1136 0.00217 0.13032 0.0
H1838 H 0.13469 0.97949 0.2284 0.0
C1839 C 0.13712 0.00074 0.11386 0.0
C1840 C 0.15985 0.9911 0.13841 0.0
H1841 H 0.09596 0.00588 0.11 0.0
H1842 H 0.13707 0.00465 0.08143 0.0
C1843 C 0.1589 0.98592 0.18032 0.0
C1844 C 0.91295 0.71901 0.85585 0.0
C1845 C 0.91485 0.72695 0.89737 0.0
H1846 H 0.8881 0.71411 0.79965 0.0
C1847 C 0.89446 0.74414 0.91274 0.0
H1848 H 0.92853 0.70579 0.84347 0.0
C1849 C 0.87122 0.74922 0.88742 0.0
C1850 C 0.8684 0.73726 0.8467 0.0
H1851 H 0.89563 0.7503 0.9448 0.0
H1852 H 0.8546 0.75805 0.90074 0.0
C1853 C 0.89 0.72444 0.83066 0.0
C1854 C 0.91144 0.98968 0.84381 0.0
C1855 C 0.9149 0.0071 0.80584 0.0
H1856 H 0.88629 0.97958 0.89038 0.0
C1857 C 0.89365 0.02403 0.78355 0.0
H1858 H 0.92775 0.978 0.86246 0.0
C1859 C 0.87007 0.02571 0.79975 0.0
C1860 C 0.86718 0.01075 0.83888 0.0
H1861 H 0.89604 0.03922 0.755 0.0
H1862 H 0.85471 0.04102 0.78262 0.0
C1863 C 0.88779 0.9913 0.86008 0.0
C1864 C 0.16003 0.75506 0.59489 0.0
C1865 C 0.16184 0.76208 0.63675 0.0
H1866 H 0.13631 0.75819 0.53721 0.0
C1867 C 0.13942 0.77014 0.65363 0.0
H1868 H 0.1773 0.75019 0.58107 0.0
C1869 C 0.11629 0.7752 0.62867 0.0
C1870 C 0.11524 0.77221 0.58651 0.0
H1871 H 0.14058 0.77689 0.68559 0.0
H1872 H 0.09983 0.7846 0.64203 0.0
C1873 C 0.13678 0.76026 0.56977 0.0
C1874 C 0.1372 0.50255 0.61585 0.0
C1875 C 0.15969 0.49131 0.63995 0.0
H1876 H 0.0962 0.50904 0.61224 0.0
C1877 C 0.15855 0.48452 0.68163 0.0
H1878 H 0.13729 0.50773 0.5836 0.0
C1879 C 0.13501 0.48601 0.69813 0.0
C1880 C 0.11214 0.49471 0.67349 0.0
H1881 H 0.17545 0.47566 0.70104 0.0
H1882 H 0.13418 0.47696 0.72945 0.0
C1883 C 0.1137 0.50403 0.63239 0.0
C1884 C 0.89106 0.22554 0.32702 0.0
C1885 C 0.86944 0.23822 0.34316 0.0
H1886 H 0.92954 0.20662 0.33967 0.0
C1887 C 0.87227 0.24978 0.38402 0.0
H1888 H 0.88921 0.21571 0.29585 0.0
C1889 C 0.89548 0.24432 0.40931 0.0
C1890 C 0.91586 0.22719 0.39381 0.0
H1891 H 0.85568 0.25856 0.39744 0.0
H1892 H 0.89661 0.2501 0.44145 0.0
C1893 C 0.91397 0.21973 0.35219 0.0
C1894 C 0.91473 0.49429 0.35036 0.0
C1895 C 0.91647 0.50461 0.30954 0.0
H1896 H 0.89102 0.49007 0.39902 0.0
C1897 C 0.89376 0.5143 0.28506 0.0
H1898 H 0.93212 0.48849 0.37041 0.0
C1899 C 0.87024 0.51593 0.30154 0.0
C1900 C 0.86896 0.5083 0.34304 0.0
H1901 H 0.89475 0.52408 0.25399 0.0
H1902 H 0.85352 0.52564 0.28232 0.0
C1903 C 0.89123 0.49594 0.3669 0.0
C1904 C 0.63752 0.26277 0.56543 0.0
C1905 C 0.61561 0.27143 0.58326 0.0
H1906 H 0.67842 0.25507 0.57547 0.0
C1907 C 0.61672 0.27142 0.6256 0.0
H1908 H 0.63702 0.26311 0.53275 0.0
C1909 C 0.64016 0.26656 0.64989 0.0
C1910 C 0.66278 0.26149 0.63215 0.0
H1911 H 0.60001 0.27846 0.63982 0.0
H1912 H 0.64125 0.27105 0.68228 0.0
C1913 C 0.66103 0.25757 0.58985 0.0
C1914 C 0.6199 0.93961 0.66294 0.0
C1915 C 0.60968 0.9759 0.67028 0.0
H1916 H 0.65113 0.90958 0.64579 0.0
C1917 C 0.62532 0.01171 0.66544 0.0
H1918 H 0.60839 0.91146 0.66453 0.0
C1919 C 0.65016 0.01068 0.65207 0.0
C1920 C 0.65988 0.97381 0.64466 0.0
H1921 H 0.61794 0.04023 0.66998 0.0
H1922 H 0.66148 0.03853 0.64686 0.0
C1923 C 0.64459 0.9385 0.6514 0.0
C1924 C 0.41312 0.71847 0.35401 0.0
C1925 C 0.41483 0.72582 0.39561 0.0
H1926 H 0.38849 0.71434 0.29757 0.0
C1927 C 0.39438 0.74273 0.41106 0.0
H1928 H 0.4288 0.70554 0.34159 0.0
C1929 C 0.37126 0.7482 0.38564 0.0
C1930 C 0.36862 0.73683 0.34475 0.0
H1931 H 0.39544 0.7485 0.4432 0.0
H1932 H 0.35458 0.75683 0.39894 0.0
C1933 C 0.39027 0.72422 0.32872 0.0
C1934 C 0.40532 0.05771 0.3127 0.0
C1935 C 0.41788 0.02237 0.31153 0.0
H1936 H 0.37276 0.08644 0.32688 0.0
C1937 C 0.40467 0.98635 0.32315 0.0
H1938 H 0.41499 0.08616 0.30579 0.0
C1939 C 0.38001 0.98664 0.33734 0.0
C1940 C 0.36814 0.02281 0.3392 0.0
H1941 H 0.41394 0.95867 0.32357 0.0
H1942 H 0.37064 0.95897 0.34788 0.0
C1943 C 0.38092 0.05794 0.32554 0.0
C1944 C 0.63916 0.77458 0.15558 0.0
C1945 C 0.66112 0.76336 0.13936 0.0
H1946 H 0.60013 0.79132 0.14305 0.0
C1947 C 0.65871 0.75275 0.09826 0.0
H1948 H 0.64073 0.78389 0.18689 0.0
C1949 C 0.63542 0.75747 0.07293 0.0
C1950 C 0.6145 0.77279 0.08865 0.0
H1951 H 0.67561 0.74526 0.08483 0.0
H1952 H 0.63456 0.75248 0.04068 0.0
C1953 C 0.61609 0.77943 0.1304 0.0
C1954 C 0.65801 0.46729 0.18465 0.0
C1955 C 0.66168 0.48697 0.14784 0.0
H1956 H 0.63163 0.4501 0.22781 0.0
C1957 C 0.642 0.51031 0.12971 0.0
H1958 H 0.67261 0.4489 0.19939 0.0
C1959 C 0.61843 0.51138 0.14646 0.0
C1960 C 0.61419 0.48945 0.18185 0.0
H1961 H 0.64417 0.52578 0.10127 0.0
H1962 H 0.60277 0.52651 0.12989 0.0
C1963 C 0.63461 0.46849 0.20134 0.0
C1964 C 0.39294 0.23989 0.91348 0.0
C1965 C 0.41435 0.2277 0.89655 0.0
H1966 H 0.35238 0.2499 0.90272 0.0
C1967 C 0.41296 0.22413 0.85439 0.0
H1968 H 0.39364 0.24235 0.94605 0.0
C1969 C 0.38966 0.22896 0.8297 0.0
C1970 C 0.3674 0.23738 0.84683 0.0
H1971 H 0.42928 0.2145 0.84086 0.0
H1972 H 0.38828 0.22185 0.7978 0.0
C1973 C 0.36953 0.24483 0.88864 0.0
C1974 C 0.39273 0.4998 0.87059 0.0
C1975 C 0.36999 0.5092 0.84595 0.0
H1976 H 0.43387 0.49459 0.87454 0.0
C1977 C 0.37092 0.51387 0.80397 0.0
H1978 H 0.39281 0.49627 0.90306 0.0
C1979 C 0.39449 0.51216 0.78755 0.0
C1980 C 0.41757 0.50535 0.81263 0.0
H1981 H 0.35381 0.52125 0.78413 0.0
H1982 H 0.39511 0.51962 0.7558 0.0
C1983 C 0.41623 0.49808 0.85414 0.0
C1984 C 0.99622 0.46862 0.98055 0.0
C1985 C 0.02265 0.46165 0.9871 0.0
H1986 H 0.96798 0.51107 0.98064 0.0
C1987 C 0.04124 0.49357 -0.00082 0.0
H1988 H 0.98136 0.44453 0.97217 0.0
C1989 C 0.03355 0.5316 0.00485 0.0
C1990 C 1.0071 0.53856 -0.0016 0.0
H1991 H 0.06178 0.48907 0.0048 0.0
H1992 H 0.0484 0.5557 0.01321 0.0
C1993 C 0.98853 0.50663 0.98626 0.0
C1994 C 0.28579 0.72825 0.98997 0.0
C1995 C 0.26145 0.70621 0.99077 0.0
H1996 H 0.30715 0.78578 0.99131 0.0
C1997 C 0.23945 0.72708 -0.00663 0.0
H1998 H 0.30322 0.7133 0.98788 0.0
C1999 C 0.24174 0.76887 -0.00492 0.0
C2000 C 0.26609 0.79086 -0.00583 0.0
H2001 H 0.22038 0.71122 -0.00637 0.0
H2002 H 0.22435 0.7839 -0.00282 0.0
C2003 C 0.28807 0.76998 0.99161 0.0
C2004 C 0.03611 0.72736 0.24395 0.0
C2005 C 1.01102 0.70802 0.24226 0.0
H2006 H 0.0593 0.78318 0.24564 0.0
C2007 C 0.98954 0.73119 0.24101 0.0
H2008 H 0.05303 0.71037 0.24599 0.0
C2009 C 0.99308 0.77286 0.24164 0.0
C2010 C 0.01818 0.79218 0.24331 0.0
H2011 H 0.96989 0.71703 0.23988 0.0
H2012 H 0.97617 0.78988 0.23955 0.0
C2013 C 0.03966 0.76902 0.24457 0.0
C2014 C 0.24279 0.52224 0.24436 0.0
C2015 C 0.26745 0.54185 0.24177 0.0
H2016 H 0.22015 0.46617 0.24685 0.0
C2017 C 0.28872 0.51879 0.23985 0.0
H2018 H 0.22623 0.53905 0.24716 0.0
C2019 C 0.28546 0.47705 0.24077 0.0
C2020 C 0.26082 0.45745 0.24343 0.0
H2021 H 0.30811 0.53312 0.23836 0.0
H2022 H 0.30202 0.46023 0.23801 0.0
C2023 C 0.23953 0.48051 0.24528 0.0
C2024 C 0.74364 0.27122 -0.00202 0.0
C2025 C 0.76751 0.29375 -0.00547 0.0
H2026 H 0.72283 0.21335 -0.00169 0.0
C2027 C 0.78926 0.27338 0.98889 0.0
H2028 H 0.72643 0.28574 0.00256 0.0
C2029 C 0.78717 0.2316 0.9867 0.0
C2030 C 0.76328 0.20912 0.99017 0.0
H2031 H 0.80797 0.28962 0.98645 0.0
H2032 H 0.80433 0.21698 0.98209 0.0
C2033 C 0.74156 0.22952 -0.00417 0.0
C2034 C 0.03945 0.26937 0.74405 0.0
C2035 C 0.0178 0.29224 0.74232 0.0
H2036 H 0.05318 0.21091 0.74647 0.0
C2037 C 0.9928 0.27263 0.74072 0.0
H2038 H 0.05903 0.28379 0.74511 0.0
C2039 C 0.9895 0.23095 0.74067 0.0
C2040 C 1.01115 0.20808 0.74244 0.0
H2041 H 0.97577 0.28941 0.73829 0.0
H2042 H 0.96992 0.21655 0.7396 0.0
C2043 C 0.03616 0.22769 0.74403 0.0
C2044 C 0.78875 0.51882 0.74229 0.0
C2045 C 0.76761 0.54261 0.74162 0.0
H2046 H 0.80142 0.45986 0.74206 0.0
C2047 C 0.74239 0.52386 0.7406 0.0
H2048 H 0.80853 0.53247 0.74346 0.0
C2049 C 0.73845 0.48218 0.74079 0.0
C2050 C 0.75963 0.45837 0.74178 0.0
H2051 H 0.72584 0.54126 0.74115 0.0
H2052 H 0.71868 0.46857 0.7397 0.0
C2053 C 0.78482 0.47719 0.74248 0.0
C2054 C 0.98821 0.00674 0.48588 0.0
C2055 C 1.00626 0.03853 0.50032 0.0
H2056 H 0.98186 0.94502 0.46985 0.0
C2057 C 0.03261 0.0316 0.50945 0.0
H2058 H 0.96777 0.01118 0.47818 0.0
C2059 C 0.04074 0.99383 0.50388 0.0
C2060 C 0.0227 0.96208 0.48925 0.0
H2061 H 0.04711 0.05559 0.51973 0.0
H2062 H 0.06119 0.98945 0.51149 0.0
C2063 C 0.99634 0.96897 0.48029 0.0
C2064 C 0.24291 0.27027 0.49594 0.0
C2065 C 0.26723 0.29238 0.49511 0.0
H2066 H 0.22158 0.21262 0.49459 0.0
C2067 C 0.28923 0.27151 0.49255 0.0
H2068 H 0.22547 0.2852 0.49802 0.0
C2069 C 0.28697 0.22969 0.49089 0.0
C2070 C 0.26265 0.20758 0.49176 0.0
H2071 H 0.30829 0.28738 0.49226 0.0
H2072 H 0.30439 0.21473 0.4888 0.0
C2073 C 0.24065 0.22847 0.49427 0.0
C2074 C 0.28542 0.97745 0.74051 0.0
C2075 C 0.26081 0.95789 0.74364 0.0
H2076 H 0.30797 0.03347 0.73712 0.0
C2077 C 0.23954 0.9809 0.74553 0.0
H2078 H 0.30195 0.9606 0.73767 0.0
C2079 C 0.24275 0.02261 0.74409 0.0
C2080 C 0.26735 0.0422 0.74088 0.0
H2081 H 0.2202 0.96653 0.74741 0.0
H2082 H 0.22621 0.03944 0.74695 0.0
C2083 C 0.28863 0.01915 0.73902 0.0
C2084 C 0.78813 0.73136 0.48777 0.0
C2085 C 0.76375 0.70942 0.48848 0.0
H2086 H 0.80953 0.78899 0.48951 0.0
C2087 C 0.74176 0.73032 0.49089 0.0
H2088 H 0.80552 0.71629 0.48577 0.0
C2089 C 0.74406 0.77202 0.49263 0.0
C2090 C 0.76843 0.79401 0.49208 0.0
H2091 H 0.72266 0.71455 0.49106 0.0
H2092 H 0.72662 0.78697 0.49464 0.0
C2093 C 0.79045 0.77314 0.48959 0.0
C2094 C 0.78589 0.97859 0.23848 0.0
C2095 C 0.76157 0.95903 0.24369 0.0
H2096 H 0.80818 0.03457 0.23291 0.0
C2097 C 0.74048 0.98216 0.24674 0.0
H2098 H 0.80225 0.96172 0.23466 0.0
C2099 C 0.74362 0.02388 0.24459 0.0
C2100 C 0.76795 0.04343 0.23945 0.0
H2101 H 0.72133 0.96786 0.25013 0.0
H2102 H 0.72727 0.04077 0.24847 0.0
C2103 C 0.78902 0.02029 0.23628 0.0
C2104 C 0.53401 0.53154 0.50438 0.0
C2105 C 0.50761 0.53877 0.49815 0.0
H2106 H 0.56205 0.48868 0.50408 0.0
C2107 C 0.4889 0.50691 0.48628 0.0
H2108 H 0.54897 0.55553 0.51263 0.0
C2109 C 0.4964 0.4688 0.48043 0.0
C2110 C 0.5228 0.46156 0.48657 0.0
H2111 H 0.46837 0.51151 0.4809 0.0
H2112 H 0.48143 0.44483 0.47221 0.0
C2113 C 0.54153 0.49337 0.4986 0.0
C2114 C 0.53623 0.72757 0.74704 0.0
C2115 C 0.51119 0.70787 0.74259 0.0
H2116 H 0.559 0.78377 0.75113 0.0
C2117 C 0.48939 0.73049 0.73923 0.0
H2118 H 0.55332 0.71088 0.75096 0.0
C2119 C 0.49256 0.77213 0.74016 0.0
C2120 C 0.5176 0.79183 0.74435 0.0
H2121 H 0.4698 0.71588 0.73616 0.0
H2122 H 0.47547 0.78882 0.73614 0.0
C2123 C 0.5394 0.76919 0.74807 0.0
C2124 C 0.53707 0.22998 0.25656 0.0
C2125 C 0.51265 0.20975 0.24507 0.0
H2126 H 0.55857 0.28669 0.26803 0.0
C2127 C 0.4906 0.2316 0.23711 0.0
H2128 H 0.55413 0.21369 0.26437 0.0
C2129 C 0.49292 0.27309 0.24035 0.0
C2130 C 0.51738 0.29339 0.25146 0.0
H2131 H 0.47143 0.21641 0.22888 0.0
H2132 H 0.47583 0.28931 0.23248 0.0
C2133 C 0.5394 0.2715 0.25983 0.0
C2134 C 0.48822 0.00702 0.98307 0.0
C2135 C 0.50648 0.03862 -0.0026 0.0
H2136 H 0.48138 0.94513 0.96782 0.0
C2137 C 0.53273 0.0312 0.00676 0.0
H2138 H 0.46785 0.0118 0.97514 0.0
C2139 C 0.54055 0.99313 0.00173 0.0
C2140 C 0.52229 0.96151 0.98743 0.0
H2141 H 0.54739 0.05499 0.017 0.0
H2142 H 0.56093 0.98838 0.00963 0.0
C2143 C 0.49604 0.96892 0.97807 0.0
C2144 C 0.9846 0.11254 0.13158 0.0
C2145 C 1.00778 0.09428 0.14278 0.0
H2146 H 0.96674 0.16186 0.10184 0.0
C2147 C 0.03148 0.11368 0.13368 0.0
H2148 H 0.96602 0.09842 0.13829 0.0
C2149 C 0.03193 0.1505 0.11334 0.0
C2150 C 1.00863 0.16812 0.10122 0.0
H2151 H 0.04968 0.1005 0.14237 0.0
H2152 H 0.05039 0.16455 0.10606 0.0
C2153 C 0.985 0.14892 0.11077 0.0
C2154 C 0.28306 0.14969 0.10487 0.0
C2155 C 0.26157 0.16754 0.11577 0.0
H2156 H 0.2976 0.09708 0.08493 0.0
C2157 C 0.23707 0.1456 0.11217 0.0
H2158 H 0.30216 0.16591 0.10752 0.0
C2159 C 0.23447 0.1056 0.10005 0.0
C2160 C 0.25625 0.08727 0.09064 0.0
H2161 H 0.22024 0.15858 0.12091 0.0
H2162 H 0.21559 0.08887 0.09888 0.0
C2163 C 0.28039 0.11015 0.09207 0.0
C2164 C 0.99596 0.84867 0.86928 0.0
C2165 C 0.01913 0.83036 0.88034 0.0
H2166 H 0.97838 0.8991 0.84083 0.0
C2167 C 0.04258 0.84845 0.86893 0.0
H2168 H 0.97764 0.83545 0.87792 0.0
C2169 C 0.04301 0.8846 0.84771 0.0
C2170 C 0.02004 0.90376 0.83785 0.0
H2171 H 0.06074 0.83493 0.8769 0.0
H2172 H 0.06151 0.8979 0.83985 0.0
C2173 C 0.99644 0.88525 0.84843 0.0
C2174 C 0.74839 0.89041 0.89104 0.0
C2175 C 0.77257 0.91317 0.89251 0.0
H2176 H 0.7266 0.83459 0.87604 0.0
C2177 C 0.7944 0.89463 0.88365 0.0
H2178 H 0.73114 0.90365 0.89777 0.0
C2179 C 0.7918 0.85449 0.87203 0.0
C2180 C 0.76727 0.83265 0.86839 0.0
H2181 H 0.81331 0.91129 0.88487 0.0
H2182 H 0.80866 0.84129 0.86366 0.0
C2183 C 0.74573 0.85074 0.87876 0.0
C2184 C 0.03187 0.61545 0.63752 0.0
C2185 C 1.00813 0.59613 0.64659 0.0
H2186 H 0.05082 0.66585 0.60924 0.0
C2187 C 0.98496 0.61424 0.63487 0.0
H2188 H 0.05007 0.60239 0.64657 0.0
C2189 C 0.98539 0.65028 0.61343 0.0
C2190 C 1.00903 0.6693 0.60373 0.0
H2191 H 0.96635 0.60019 0.64151 0.0
H2192 H 0.96711 0.66305 0.60406 0.0
C2193 C 0.03234 0.65193 0.61653 0.0
C2194 C 0.28336 0.65023 0.60593 0.0
C2195 C 0.26201 0.66867 0.61641 0.0
H2196 H 0.29752 0.59708 0.58675 0.0
C2197 C 0.23735 0.64716 0.61293 0.0
H2198 H 0.30257 0.6661 0.60851 0.0
C2199 C 0.23444 0.60702 0.6013 0.0
C2200 C 0.25608 0.58813 0.59227 0.0
H2201 H 0.22062 0.66065 0.6214 0.0
H2202 H 0.21545 0.59064 0.60017 0.0
C2203 C 0.2804 0.61056 0.59364 0.0
C2204 C 0.04373 0.34963 0.37253 0.0
C2205 C 0.02018 0.33078 0.38274 0.0
H2206 H 0.0627 0.39986 0.34475 0.0
C2207 C 0.99691 0.34865 0.3711 0.0
H2208 H 0.06197 0.33648 0.38103 0.0
C2209 C 0.99735 0.3855 0.35072 0.0
C2210 C 0.02103 0.40466 0.34118 0.0
H2211 H 0.97851 0.33484 0.37888 0.0
H2212 H 0.9792 0.39896 0.34253 0.0
C2213 C 0.04413 0.38602 0.35178 0.0
C2214 C 0.74682 0.3496 0.38266 0.0
C2215 C 0.76822 0.33157 0.3717 0.0
H2216 H 0.73231 0.40258 0.40159 0.0
C2217 C 0.79267 0.35361 0.37438 0.0
H2218 H 0.72775 0.33331 0.38065 0.0
C2219 C 0.79527 0.39389 0.38554 0.0
C2220 C 0.77353 0.41241 0.39486 0.0
H2221 H 0.80941 0.34047 0.36551 0.0
H2222 H 0.81408 0.4107 0.38595 0.0
C2223 C 0.74949 0.38942 0.39446 0.0
C2224 C 0.53209 0.11537 0.63802 0.0
C2225 C 0.50851 0.09635 0.64811 0.0
H2226 H 0.55072 0.16562 0.60903 0.0
C2227 C 0.48536 0.1149 0.6377 0.0
H2228 H 0.55027 0.10195 0.64604 0.0
C2229 C 0.48562 0.15106 0.61649 0.0
C2230 C 0.50907 0.16973 0.60569 0.0
H2231 H 0.46687 0.1011 0.64512 0.0
H2232 H 0.46734 0.16413 0.60807 0.0
C2233 C 0.53239 0.15196 0.61723 0.0
C2234 C 0.73852 0.11208 0.58194 0.0
C2235 C 0.75589 0.0844 0.5979 0.0
H2236 H 0.72887 0.17303 0.58217 0.0
C2237 C 0.77702 0.09659 0.6264 0.0
H2238 H 0.72231 0.10303 0.55933 0.0
C2239 C 0.78088 0.13593 0.63918 0.0
C2240 C 0.7637 0.16422 0.62353 0.0
H2241 H 0.79053 0.07544 0.63908 0.0
H2242 H 0.79719 0.14382 0.66201 0.0
C2243 C 0.74244 0.15198 0.59467 0.0
C2244 C 0.54242 0.88323 0.34223 0.0
C2245 C 0.51968 0.90335 0.33451 0.0
H2246 H 0.56008 0.83245 0.36901 0.0
C2247 C 0.49627 0.88519 0.34614 0.0
H2248 H 0.56079 0.89619 0.33352 0.0
C2249 C 0.49582 0.8481 0.36609 0.0
C2250 C 0.51884 0.82892 0.37518 0.0
H2251 H 0.47837 0.89976 0.34019 0.0
H2252 H 0.47771 0.83527 0.37583 0.0
C2253 C 0.54203 0.84658 0.3625 0.0
C2254 C 0.29522 0.89416 0.38398 0.0
C2255 C 0.2736 0.91218 0.3945 0.0
H2256 H 0.30927 0.84131 0.36248 0.0
C2257 C 0.24973 0.8888 0.39474 0.0
H2258 H 0.31389 0.91123 0.3838 0.0
C2259 C 0.2471 0.84914 0.3824 0.0
C2260 C 0.26835 0.83165 0.37026 0.0
H2261 H 0.23265 0.90151 0.40288 0.0
H2262 H 0.22815 0.83255 0.38098 0.0
C2263 C 0.29266 0.85404 0.37227 0.0
C2264 C 0.53306 0.64953 0.11447 0.0
C2265 C 0.5098 0.66732 0.10248 0.0
H2266 H 0.55068 0.59931 0.14344 0.0
C2267 C 0.48617 0.64825 0.11211 0.0
H2268 H 0.55152 0.66349 0.10713 0.0
C2269 C 0.48567 0.61184 0.13275 0.0
C2270 C 0.50878 0.59341 0.14393 0.0
H2271 H 0.46792 0.66129 0.10333 0.0
H2272 H 0.46704 0.5979 0.1394 0.0
C2273 C 0.53253 0.61265 0.13481 0.0
C2274 C 0.7337 0.6075 0.10095 0.0
C2275 C 0.7554 0.58847 0.0924 0.0
H2276 H 0.71983 0.66141 0.12031 0.0
C2277 C 0.77972 0.61088 0.09372 0.0
H2278 H 0.71471 0.59113 0.09981 0.0
C2279 C 0.78263 0.65066 0.10548 0.0
C2280 C 0.76125 0.66925 0.11558 0.0
H2281 H 0.79691 0.59733 0.08722 0.0
H2282 H 0.80186 0.6665 0.10807 0.0
C2283 C 0.73658 0.64779 0.11213 0.0
C2284 C 0.49766 0.38522 0.84775 0.0
C2285 C 0.52142 0.4049 0.83929 0.0
H2286 H 0.47874 0.33443 0.87542 0.0
C2287 C 0.54468 0.38721 0.85153 0.0
H2288 H 0.47942 0.398 0.83825 0.0
C2289 C 0.5443 0.35115 0.87288 0.0
C2290 C 0.52062 0.33175 0.88192 0.0
H2291 H 0.5633 0.40159 0.84533 0.0
H2292 H 0.56261 0.33866 0.88265 0.0
C2293 C 0.49725 0.34871 0.86862 0.0
C2294 C 0.29035 0.35738 0.85807 0.0
C2295 C 0.26915 0.33174 0.86788 0.0
H2296 H 0.30896 0.4169 0.86056 0.0
C2297 C 0.25133 0.34578 0.89124 0.0
H2298 H 0.30395 0.34713 0.83915 0.0
C2299 C 0.2543 0.3854 0.90391 0.0
C2300 C 0.27476 0.41196 0.89241 0.0
H2301 H 0.23481 0.32636 0.89886 0.0
H2302 H 0.23999 0.39544 0.92162 0.0
C2303 C 0.29308 0.39731 0.87004 0.0
loop_
_geom_bond_atom_site_label_1
_geom_bond_atom_site_label_2
_geom_bond_distance
_geom_bond_site_symmetry_2
_ccdc_geom_bond_type
Co0 H3 2.400 . S
Co0 O4 2.009 . S
Co0 O12 2.115 . S
Co0 O13 2.315 . S
Co0 O24 2.053 . S
Co0 O27 2.094 1_554 S
Co0 O30 2.122 1_554 S
Co1 O4 2.126 . S
Co1 H5 2.388 1_654 S
Co1 O6 2.053 1_655 S
Co1 O9 2.047 1_554 S
Co1 O15 2.113 . S
Co1 O26 2.063 . S
Co2 H3 2.388 1_455 S
Co2 O4 2.053 1_455 S
Co2 O6 2.126 . S
Co2 O11 2.063 . S
Co2 O25 2.047 . S
Co2 O31 2.113 1_554 S
H3 Co0 2.400 . S
H3 Co2 2.388 1_655 S
H3 O4 0.760 . S
O4 Co0 2.009 . S
O4 Co1 2.126 . S
O4 Co2 2.053 1_655 S
O4 H3 0.760 . S
H5 Co1 2.388 1_456 S
H5 O6 0.760 1_556 S
H5 Co7 2.400 1_556 S
O6 Co1 2.053 1_455 S
O6 Co2 2.126 . S
O6 H5 0.760 1_554 S
O6 Co7 2.009 . S
Co7 H5 2.400 1_554 S
Co7 O6 2.009 . S
Co7 O8 2.053 . S
Co7 O10 2.094 . S
Co7 O14 2.122 . S
Co7 O28 2.115 . S
Co7 O29 2.315 1_554 S
O8 Co7 2.053 . S
O8 C20 1.259 1_554 S
O9 Co1 2.047 1_556 S
O9 C20 1.257 1_655 S
O10 Co7 2.094 . S
O10 C21 1.253 . S
O11 Co2 2.063 . S
O11 C21 1.268 . S
O12 Co0 2.115 . S
O12 C22 1.281 . S
O13 Co0 2.315 . S
O13 C22 1.252 . S
O14 Co7 2.122 . S
O14 C23 1.272 . S
O15 Co1 2.113 . S
O15 C23 1.245 1_655 S
C16 O24 1.264 . S
C16 O25 1.254 1_655 S
C17 O26 1.268 1_556 S
C17 O27 1.253 . S
C18 O28 1.281 . S
C18 O29 1.252 1_554 S
C19 O30 1.272 . S
C19 O31 1.245 1_655 S
C20 O8 1.259 1_556 S
C20 O9 1.257 1_455 S
C21 O10 1.253 . S
C21 O11 1.268 . S
C22 O12 1.281 . S
C22 O13 1.252 . S
C23 O14 1.272 . S
C23 O15 1.245 1_455 S
O24 Co0 2.053 . S
O24 C16 1.264 . S
O25 Co2 2.047 . S
O25 C16 1.254 1_455 S
O26 Co1 2.063 . S
O26 C17 1.268 1_554 S
O27 Co0 2.094 1_556 S
O27 C17 1.253 . S
O28 Co7 2.115 . S
O28 C18 1.281 . S
O29 Co7 2.315 1_556 S
O29 C18 1.252 1_556 S
O30 Co0 2.122 1_556 S
O30 C19 1.272 . S
O31 Co2 2.113 1_556 S
O31 C19 1.245 1_455 S
Co32 H35 2.400 . S
Co32 O36 2.009 . S
Co32 O44 2.115 1_554 S
Co32 O45 2.315 . S
Co32 O56 2.053 . S
Co32 O59 2.094 1_554 S
Co32 O62 2.122 1_554 S
Co33 O36 2.126 . S
Co33 H37 2.388 . S
Co33 O38 2.053 . S
Co33 O41 2.047 . S
Co33 O47 2.113 . S
Co33 O58 2.063 . S
Co34 H35 2.388 . S
Co34 O36 2.053 . S
Co34 O38 2.126 . S
Co34 O43 2.063 1_565 S
Co34 O57 2.047 1_565 S
Co34 O63 2.113 . S
H35 Co32 2.400 . S
H35 Co34 2.388 . S
H35 O36 0.760 . S
O36 Co32 2.009 . S
O36 Co33 2.126 . S
O36 Co34 2.053 . S
O36 H35 0.760 . S
H37 Co33 2.388 . S
H37 O38 0.760 . S
H37 Co39 2.400 . S
O38 Co33 2.053 . S
O38 Co34 2.126 . S
O38 H37 0.760 . S
O38 Co39 2.009 . S
Co39 H37 2.400 . S
Co39 O38 2.009 . S
Co39 O40 2.053 . S
Co39 O42 2.094 . S
Co39 O46 2.122 . S
Co39 O60 2.115 . S
Co39 O61 2.315 . S
O40 Co39 2.053 . S
O40 C52 1.259 . S
O41 Co33 2.047 . S
O41 C52 1.257 . S
O42 Co39 2.094 . S
O42 C53 1.253 1_565 S
O43 Co34 2.063 1_545 S
O43 C53 1.268 . S
O44 Co32 2.115 1_556 S
O44 C54 1.281 . S
O45 Co32 2.315 . S
O45 C54 1.252 1_554 S
O46 Co39 2.122 . S
O46 C55 1.272 . S
O47 Co33 2.113 . S
O47 C55 1.245 . S
C48 O56 1.259 1_545 S
C48 O57 1.257 . S
C49 O58 1.268 1_556 S
C49 O59 1.253 . S
C50 O60 1.281 . S
C50 O61 1.252 . S
C51 O62 1.272 . S
C51 O63 1.245 1_556 S
C52 O40 1.259 . S
C52 O41 1.257 . S
C53 O42 1.253 1_545 S
C53 O43 1.268 . S
C54 O44 1.281 . S
C54 O45 1.252 1_556 S
C55 O46 1.272 . S
C55 O47 1.245 . S
O56 Co32 2.053 . S
O56 C48 1.259 1_565 S
O57 Co34 2.047 1_545 S
O57 C48 1.257 . S
O58 Co33 2.063 . S
O58 C49 1.268 1_554 S
O59 Co32 2.094 1_556 S
O59 C49 1.253 . S
O60 Co39 2.115 . S
O60 C50 1.281 . S
O61 Co39 2.315 . S
O61 C50 1.252 . S
O62 Co32 2.122 1_556 S
O62 C51 1.272 . S
O63 Co34 2.113 . S
O63 C51 1.245 1_554 S
Co64 H67 2.400 . S
Co64 O68 2.009 . S
Co64 O76 2.115 1_565 S
Co64 O77 2.317 . S
Co64 O88 2.053 1_565 S
Co64 O91 2.094 . S
Co64 O94 2.122 1_565 S
Co65 O68 2.126 . S
Co65 H69 2.388 1_655 S
Co65 O70 2.053 1_655 S
Co65 O73 2.047 . S
Co65 O79 2.113 . S
Co65 O90 2.063 . S
Co66 H67 2.388 1_455 S
Co66 O68 2.053 1_455 S
Co66 O70 2.126 . S
Co66 O75 2.063 . S
Co66 O89 2.047 1_565 S
Co66 O95 2.104 1_565 S
H67 Co64 2.400 . S
H67 Co66 2.388 1_655 S
H67 O68 0.760 . S
O68 Co64 2.009 . S
O68 Co65 2.126 . S
O68 Co66 2.053 1_655 S
O68 H67 0.760 . S
H69 Co65 2.388 1_455 S
H69 O70 0.760 . S
H69 Co71 2.400 . S
O70 Co65 2.053 1_455 S
O70 Co66 2.126 . S
O70 H69 0.760 . S
O70 Co71 2.009 . S
Co71 H69 2.400 . S
Co71 O70 2.009 . S
Co71 O72 2.053 . S
Co71 O74 2.094 . S
Co71 O78 2.122 . S
Co71 O92 2.115 . S
Co71 O93 2.315 . S
O72 Co71 2.053 . S
O72 C84 1.259 . S
O73 Co65 2.047 . S
O73 C84 1.257 1_655 S
O74 Co71 2.094 . S
O74 C85 1.253 . S
O75 Co66 2.063 . S
O75 C85 1.268 . S
O76 Co64 2.115 1_545 S
O76 C86 1.281 . S
O77 Co64 2.317 . S
O77 C86 1.233 1_565 S
O78 Co71 2.122 . S
O78 C87 1.272 1_455 S
O79 Co65 2.113 . S
O79 C87 1.245 . S
C80 O88 1.261 1_455 S
C80 O89 1.256 . S
C81 O90 1.268 . S
C81 O91 1.253 . S
C82 O92 1.281 . S
C82 O93 1.252 . S
C83 O94 1.272 1_455 S
C83 O95 1.254 . S
C84 O72 1.259 . S
C84 O73 1.257 1_455 S
C85 O74 1.253 . S
C85 O75 1.268 . S
C86 O76 1.281 . S
C86 O77 1.233 1_545 S
C87 O78 1.272 1_655 S
C87 O79 1.245 . S
O88 Co64 2.053 1_545 S
O88 C80 1.261 1_655 S
O89 Co66 2.047 1_545 S
O89 C80 1.256 . S
O90 Co65 2.063 . S
O90 C81 1.268 . S
O91 Co64 2.094 . S
O91 C81 1.253 . S
O92 Co71 2.115 . S
O92 C82 1.281 . S
O93 Co71 2.315 . S
O93 C82 1.252 . S
O94 Co64 2.122 1_545 S
O94 C83 1.272 1_655 S
O95 Co66 2.104 1_545 S
O95 C83 1.254 . S
Co96 H99 2.400 . S
Co96 O100 2.009 . S
Co96 O108 2.115 . S
Co96 O109 2.315 . S
Co96 O120 2.053 . S
Co96 O123 2.094 . S
Co96 O126 2.122 . S
Co97 O100 2.126 . S
Co97 H101 2.388 . S
Co97 O102 2.053 . S
Co97 O105 2.047 . S
Co97 O111 2.113 . S
Co97 O122 2.063 . S
Co98 H99 2.388 . S
Co98 O100 2.053 . S
Co98 O102 2.126 . S
Co98 O107 2.063 . S
Co98 O121 2.047 . S
Co98 O127 2.113 . S
H99 Co96 2.400 . S
H99 Co98 2.388 . S
H99 O100 0.760 . S
O100 Co96 2.009 . S
O100 Co97 2.126 . S
O100 Co98 2.053 . S
O100 H99 0.760 . S
H101 Co97 2.388 . S
H101 O102 0.760 . S
H101 Co103 2.400 . S
O102 Co97 2.053 . S
O102 Co98 2.126 . S
O102 H101 0.760 . S
O102 Co103 2.009 . S
Co103 H101 2.400 . S
Co103 O102 2.009 . S
Co103 O104 2.053 . S
Co103 O106 2.094 . S
Co103 O110 2.122 . S
Co103 O124 2.115 . S
Co103 O125 2.315 . S
O104 Co103 2.053 . S
O104 C116 1.259 . S
O105 Co97 2.047 . S
O105 C116 1.257 . S
O106 Co103 2.094 . S
O106 C117 1.253 . S
O107 Co98 2.063 . S
O107 C117 1.268 . S
O108 Co96 2.115 . S
O108 C118 1.281 . S
O109 Co96 2.315 . S
O109 C118 1.252 . S
O110 Co103 2.122 . S
O110 C119 1.272 . S
O111 Co97 2.113 . S
O111 C119 1.245 . S
C112 O120 1.259 . S
C112 O121 1.257 . S
C113 O122 1.268 . S
C113 O123 1.253 . S
C114 O124 1.281 . S
C114 O125 1.252 . S
C115 O126 1.272 . S
C115 O127 1.245 . S
C116 O104 1.259 . S
C116 O105 1.257 . S
C117 O106 1.253 . S
C117 O107 1.268 . S
C118 O108 1.281 . S
C118 O109 1.252 . S
C119 O110 1.272 . S
C119 O111 1.245 . S
O120 Co96 2.053 . S
O120 C112 1.259 . S
O121 Co98 2.047 . S
O121 C112 1.257 . S
O122 Co97 2.063 . S
O122 C113 1.268 . S
O123 Co96 2.094 . S
O123 C113 1.253 . S
O124 Co103 2.115 . S
O124 C114 1.281 . S
O125 Co103 2.315 . S
O125 C114 1.252 . S
O126 Co96 2.122 . S
O126 C115 1.272 . S
O127 Co98 2.113 . S
O127 C115 1.245 . S
Co128 H131 2.400 1_556 S
Co128 O132 2.009 . S
Co128 O140 2.115 . S
Co128 O141 2.315 1_556 S
Co128 O152 2.053 . S
Co128 O155 2.094 . S
Co128 O158 2.122 . S
Co129 O132 2.126 . S
Co129 H133 2.388 1_655 S
Co129 O134 2.053 1_655 S
Co129 O137 2.047 . S
Co129 O143 2.113 1_556 S
Co129 O154 2.063 . S
Co130 H131 2.388 1_456 S
Co130 O132 2.053 1_455 S
Co130 O134 2.126 . S
Co130 O139 2.063 . S
Co130 O153 2.047 1_556 S
Co130 O159 2.113 . S
H131 Co128 2.400 1_554 S
H131 Co130 2.388 1_654 S
H131 O132 0.760 1_554 S
O132 Co128 2.009 . S
O132 Co129 2.126 . S
O132 Co130 2.053 1_655 S
O132 H131 0.760 1_556 S
H133 Co129 2.388 1_455 S
H133 O134 0.760 . S
H133 Co135 2.400 . S
O134 Co129 2.053 1_455 S
O134 Co130 2.126 . S
O134 H133 0.760 . S
O134 Co135 2.009 . S
Co135 H133 2.400 . S
Co135 O134 2.009 . S
Co135 O136 2.053 . S
Co135 O138 2.094 1_556 S
Co135 O142 2.122 1_556 S
Co135 O156 2.115 . S
Co135 O157 2.315 . S
O136 Co135 2.053 . S
O136 C148 1.264 . S
O137 Co129 2.047 . S
O137 C148 1.254 1_655 S
O138 Co135 2.094 1_554 S
O138 C149 1.253 . S
O139 Co130 2.063 . S
O139 C149 1.268 1_556 S
O140 Co128 2.115 . S
O140 C150 1.281 . S
O141 Co128 2.315 1_554 S
O141 C150 1.252 1_554 S
O142 Co135 2.122 1_554 S
O142 C151 1.272 . S
O143 Co129 2.113 1_554 S
O143 C151 1.245 1_655 S
C144 O152 1.259 1_554 S
C144 O153 1.257 1_655 S
C145 O154 1.268 . S
C145 O155 1.253 . S
C146 O156 1.281 . S
C146 O157 1.252 . S
C147 O158 1.272 . S
C147 O159 1.245 1_655 S
C148 O136 1.264 . S
C148 O137 1.254 1_455 S
C149 O138 1.253 . S
C149 O139 1.268 1_554 S
C150 O140 1.281 . S
C150 O141 1.252 1_556 S
C151 O142 1.272 . S
C151 O143 1.245 1_455 S
O152 Co128 2.053 . S
O152 C144 1.259 1_556 S
O153 Co130 2.047 1_554 S
O153 C144 1.257 1_455 S
O154 Co129 2.063 . S
O154 C145 1.268 . S
O155 Co128 2.094 . S
O155 C145 1.253 . S
O156 Co135 2.115 . S
O156 C146 1.281 . S
O157 Co135 2.315 . S
O157 C146 1.252 . S
O158 Co128 2.122 . S
O158 C147 1.272 . S
O159 Co130 2.113 . S
O159 C147 1.245 1_455 S
Co160 H163 2.400 . S
Co160 O164 2.009 . S
Co160 O172 2.115 . S
Co160 O173 2.315 . S
Co160 O184 2.053 . S
Co160 O187 2.094 . S
Co160 O190 2.122 . S
Co161 O164 2.126 . S
Co161 H165 2.388 . S
Co161 O166 2.053 . S
Co161 O169 2.047 1_545 S
Co161 O175 2.113 . S
Co161 O186 2.063 1_545 S
Co162 H163 2.388 . S
Co162 O164 2.053 . S
Co162 O166 2.126 . S
Co162 O171 2.063 . S
Co162 O185 2.047 . S
Co162 O191 2.113 . S
H163 Co160 2.400 . S
H163 Co162 2.388 . S
H163 O164 0.760 . S
O164 Co160 2.009 . S
O164 Co161 2.126 . S
O164 Co162 2.053 . S
O164 H163 0.760 . S
H165 Co161 2.388 . S
H165 O166 0.760 . S
H165 Co167 2.400 . S
O166 Co161 2.053 . S
O166 Co162 2.126 . S
O166 H165 0.760 . S
O166 Co167 2.009 . S
Co167 H165 2.400 . S
Co167 O166 2.009 . S
Co167 O168 2.053 . S
Co167 O170 2.094 1_556 S
Co167 O174 2.122 1_556 S
Co167 O188 2.115 1_556 S
Co167 O189 2.315 . S
O168 Co167 2.053 . S
O168 C180 1.259 1_545 S
O169 Co161 2.047 1_565 S
O169 C180 1.257 . S
O170 Co167 2.094 1_554 S
O170 C181 1.253 . S
O171 Co162 2.063 . S
O171 C181 1.268 1_556 S
O172 Co160 2.115 . S
O172 C182 1.281 . S
O173 Co160 2.315 . S
O173 C182 1.252 . S
O174 Co167 2.122 1_554 S
O174 C183 1.272 . S
O175 Co161 2.113 . S
O175 C183 1.245 1_556 S
C176 O184 1.259 . S
C176 O185 1.257 . S
C177 O186 1.268 . S
C177 O187 1.253 1_565 S
C178 O188 1.281 . S
C178 O189 1.252 1_554 S
C179 O190 1.272 . S
C179 O191 1.245 . S
C180 O168 1.259 1_565 S
C180 O169 1.257 . S
C181 O170 1.253 . S
C181 O171 1.268 1_554 S
C182 O172 1.281 . S
C182 O173 1.252 . S
C183 O174 1.272 . S
C183 O175 1.245 1_554 S
O184 Co160 2.053 . S
O184 C176 1.259 . S
O185 Co162 2.047 . S
O185 C176 1.257 . S
O186 Co161 2.063 1_565 S
O186 C177 1.268 . S
O187 Co160 2.094 . S
O187 C177 1.253 1_545 S
O188 Co167 2.115 1_554 S
O188 C178 1.281 . S
O189 Co167 2.315 . S
O189 C178 1.252 1_556 S
O190 Co160 2.122 . S
O190 C179 1.272 . S
O191 Co162 2.113 . S
O191 C179 1.245 . S
Co192 H195 2.400 . S
Co192 O196 2.009 . S
Co192 O204 2.115 . S
Co192 O205 2.315 . S
Co192 O216 2.053 . S
Co192 O219 2.094 . S
Co192 O222 2.122 . S
Co193 O196 2.126 . S
Co193 H197 2.388 1_655 S
Co193 O198 2.053 1_655 S
Co193 O201 2.047 1_545 S
Co193 O207 2.104 1_545 S
Co193 O218 2.063 . S
Co194 H195 2.388 1_455 S
Co194 O196 2.053 1_455 S
Co194 O198 2.126 . S
Co194 O203 2.063 . S
Co194 O217 2.047 . S
Co194 O223 2.113 . S
H195 Co192 2.400 . S
H195 Co194 2.388 1_655 S
H195 O196 0.760 . S
O196 Co192 2.009 . S
O196 Co193 2.126 . S
O196 Co194 2.053 1_655 S
O196 H195 0.760 . S
H197 Co193 2.388 1_455 S
H197 O198 0.760 . S
H197 Co199 2.400 . S
O198 Co193 2.053 1_455 S
O198 Co194 2.126 . S
O198 H197 0.760 . S
O198 Co199 2.009 . S
Co199 H197 2.400 . S
Co199 O198 2.009 . S
Co199 O200 2.053 1_545 S
Co199 O202 2.094 . S
Co199 O206 2.122 1_545 S
Co199 O220 2.115 1_545 S
Co199 O221 2.317 . S
O200 Co199 2.053 1_565 S
O200 C212 1.261 1_455 S
O201 Co193 2.047 1_565 S
O201 C212 1.256 . S
O202 Co199 2.094 . S
O202 C213 1.253 . S
O203 Co194 2.063 . S
O203 C213 1.268 . S
O204 Co192 2.115 . S
O204 C214 1.281 . S
O205 Co192 2.315 . S
O205 C214 1.252 . S
O206 Co199 2.122 1_565 S
O206 C215 1.272 1_455 S
O207 Co193 2.104 1_565 S
O207 C215 1.254 . S
C208 O216 1.259 . S
C208 O217 1.257 1_655 S
C209 O218 1.268 . S
C209 O219 1.253 . S
C210 O220 1.281 . S
C210 O221 1.233 1_565 S
C211 O222 1.272 1_455 S
C211 O223 1.245 . S
C212 O200 1.261 1_655 S
C212 O201 1.256 . S
C213 O202 1.253 . S
C213 O203 1.268 . S
C214 O204 1.281 . S
C214 O205 1.252 . S
C215 O206 1.272 1_655 S
C215 O207 1.254 . S
O216 Co192 2.053 . S
O216 C208 1.259 . S
O217 Co194 2.047 . S
O217 C208 1.257 1_455 S
O218 Co193 2.063 . S
O218 C209 1.268 . S
O219 Co192 2.094 . S
O219 C209 1.253 . S
O220 Co199 2.115 1_565 S
O220 C210 1.281 . S
O221 Co199 2.317 . S
O221 C210 1.233 1_545 S
O222 Co192 2.122 . S
O222 C211 1.272 1_655 S
O223 Co194 2.113 . S
O223 C211 1.245 . S
Co224 H227 2.400 . S
Co224 O228 2.009 . S
Co224 O236 2.115 . S
Co224 O237 2.315 . S
Co224 O248 2.053 . S
Co224 O251 2.094 . S
Co224 O254 2.122 . S
Co225 O228 2.126 . S
Co225 H229 2.388 . S
Co225 O230 2.053 . S
Co225 O233 2.047 . S
Co225 O239 2.113 . S
Co225 O250 2.063 . S
Co226 H227 2.388 . S
Co226 O228 2.053 . S
Co226 O230 2.126 . S
Co226 O235 2.063 . S
Co226 O249 2.047 . S
Co226 O255 2.113 . S
H227 Co224 2.400 . S
H227 Co226 2.388 . S
H227 O228 0.760 . S
O228 Co224 2.009 . S
O228 Co225 2.126 . S
O228 Co226 2.053 . S
O228 H227 0.760 . S
H229 Co225 2.388 . S
H229 O230 0.760 . S
H229 Co231 2.400 . S
O230 Co225 2.053 . S
O230 Co226 2.126 . S
O230 H229 0.760 . S
O230 Co231 2.009 . S
Co231 H229 2.400 . S
Co231 O230 2.009 . S
Co231 O232 2.053 . S
Co231 O234 2.094 . S
Co231 O238 2.122 . S
Co231 O252 2.115 . S
Co231 O253 2.315 . S
O232 Co231 2.053 . S
O232 C244 1.259 . S
O233 Co225 2.047 . S
O233 C244 1.257 . S
O234 Co231 2.094 . S
O234 C245 1.253 . S
O235 Co226 2.063 . S
O235 C245 1.268 . S
O236 Co224 2.115 . S
O236 C246 1.281 . S
O237 Co224 2.315 . S
O237 C246 1.252 . S
O238 Co231 2.122 . S
O238 C247 1.272 . S
O239 Co225 2.113 . S
O239 C247 1.245 . S
C240 O248 1.259 . S
C240 O249 1.257 . S
C241 O250 1.268 . S
C241 O251 1.253 . S
C242 O252 1.281 . S
C242 O253 1.252 . S
C243 O254 1.272 . S
C243 O255 1.245 . S
C244 O232 1.259 . S
C244 O233 1.257 . S
C245 O234 1.253 . S
C245 O235 1.268 . S
C246 O236 1.281 . S
C246 O237 1.252 . S
C247 O238 1.272 . S
C247 O239 1.245 . S
O248 Co224 2.053 . S
O248 C240 1.259 . S
O249 Co226 2.047 . S
O249 C240 1.257 . S
O250 Co225 2.063 . S
O250 C241 1.268 . S
O251 Co224 2.094 . S
O251 C241 1.253 . S
O252 Co231 2.115 . S
O252 C242 1.281 . S
O253 Co231 2.315 . S
O253 C242 1.252 . S
O254 Co224 2.122 . S
O254 C243 1.272 . S
O255 Co226 2.113 . S
O255 C243 1.245 . S
Co256 H259 2.400 . S
Co256 O260 2.009 . S
Co256 O268 2.115 . S
Co256 O269 2.315 . S
Co256 O280 2.053 . S
Co256 O283 2.094 . S
Co256 O286 2.122 . S
Co257 O260 2.126 . S
Co257 H261 2.388 1_655 S
Co257 O262 2.053 1_655 S
Co257 O265 2.047 . S
Co257 O271 2.113 . S
Co257 O282 2.063 . S
Co258 H259 2.388 1_455 S
Co258 O260 2.053 1_455 S
Co258 O262 2.126 . S
Co258 O267 2.063 . S
Co258 O281 2.047 . S
Co258 O287 2.113 . S
H259 Co256 2.400 . S
H259 Co258 2.388 1_655 S
H259 O260 0.760 . S
O260 Co256 2.009 . S
O260 Co257 2.126 . S
O260 Co258 2.053 1_655 S
O260 H259 0.760 . S
H261 Co257 2.388 1_455 S
H261 O262 0.760 . S
H261 Co263 2.400 . S
O262 Co257 2.053 1_455 S
O262 Co258 2.126 . S
O262 H261 0.760 . S
O262 Co263 2.009 . S
Co263 H261 2.400 . S
Co263 O262 2.009 . S
Co263 O264 2.053 . S
Co263 O266 2.094 . S
Co263 O270 2.122 . S
Co263 O284 2.115 . S
Co263 O285 2.315 . S
O264 Co263 2.053 . S
O264 C276 1.259 . S
O265 Co257 2.047 . S
O265 C276 1.257 1_655 S
O266 Co263 2.094 . S
O266 C277 1.253 . S
O267 Co258 2.063 . S
O267 C277 1.268 . S
O268 Co256 2.115 . S
O268 C278 1.281 . S
O269 Co256 2.315 . S
O269 C278 1.252 . S
O270 Co263 2.122 . S
O270 C279 1.272 . S
O271 Co257 2.113 . S
O271 C279 1.245 1_655 S
C272 O280 1.264 . S
C272 O281 1.254 1_655 S
C273 O282 1.268 . S
C273 O283 1.253 . S
C274 O284 1.281 . S
C274 O285 1.252 . S
C275 O286 1.272 . S
C275 O287 1.245 1_655 S
C276 O264 1.259 . S
C276 O265 1.257 1_455 S
C277 O266 1.253 . S
C277 O267 1.268 . S
C278 O268 1.281 . S
C278 O269 1.252 . S
C279 O270 1.272 . S
C279 O271 1.245 1_455 S
O280 Co256 2.053 . S
O280 C272 1.264 . S
O281 Co258 2.047 . S
O281 C272 1.254 1_455 S
O282 Co257 2.063 . S
O282 C273 1.268 . S
O283 Co256 2.094 . S
O283 C273 1.253 . S
O284 Co263 2.115 . S
O284 C274 1.281 . S
O285 Co263 2.315 . S
O285 C274 1.252 . S
O286 Co256 2.122 . S
O286 C275 1.272 . S
O287 Co258 2.113 . S
O287 C275 1.245 1_455 S
Co288 H291 2.400 . S
Co288 O292 2.009 . S
Co288 O300 2.115 . S
Co288 O301 2.315 . S
Co288 O312 2.053 . S
Co288 O315 2.094 . S
Co288 O318 2.122 . S
Co289 O292 2.126 . S
Co289 H293 2.388 . S
Co289 O294 2.053 . S
Co289 O297 2.047 . S
Co289 O303 2.113 . S
Co289 O314 2.063 . S
Co290 H291 2.388 . S
Co290 O292 2.053 . S
Co290 O294 2.126 . S
Co290 O299 2.063 . S
Co290 O313 2.047 . S
Co290 O319 2.113 . S
H291 Co288 2.400 . S
H291 Co290 2.388 . S
H291 O292 0.760 . S
O292 Co288 2.009 . S
O292 Co289 2.126 . S
O292 Co290 2.053 . S
O292 H291 0.760 . S
H293 Co289 2.388 . S
H293 O294 0.760 . S
H293 Co295 2.400 . S
O294 Co289 2.053 . S
O294 Co290 2.126 . S
O294 H293 0.760 . S
O294 Co295 2.009 . S
Co295 H293 2.400 . S
Co295 O294 2.009 . S
Co295 O296 2.053 . S
Co295 O298 2.094 . S
Co295 O302 2.122 . S
Co295 O316 2.115 . S
Co295 O317 2.315 . S
O296 Co295 2.053 . S
O296 C308 1.259 . S
O297 Co289 2.047 . S
O297 C308 1.257 . S
O298 Co295 2.094 . S
O298 C309 1.253 . S
O299 Co290 2.063 . S
O299 C309 1.268 . S
O300 Co288 2.115 . S
O300 C310 1.281 . S
O301 Co288 2.315 . S
O301 C310 1.252 . S
O302 Co295 2.122 . S
O302 C311 1.272 . S
O303 Co289 2.113 . S
O303 C311 1.245 . S
C304 O312 1.259 . S
C304 O313 1.257 . S
C305 O314 1.268 . S
C305 O315 1.253 . S
C306 O316 1.281 . S
C306 O317 1.252 . S
C307 O318 1.272 . S
C307 O319 1.245 . S
C308 O296 1.259 . S
C308 O297 1.257 . S
C309 O298 1.253 . S
C309 O299 1.268 . S
C310 O300 1.281 . S
C310 O301 1.252 . S
C311 O302 1.272 . S
C311 O303 1.245 . S
O312 Co288 2.053 . S
O312 C304 1.259 . S
O313 Co290 2.047 . S
O313 C304 1.257 . S
O314 Co289 2.063 . S
O314 C305 1.268 . S
O315 Co288 2.094 . S
O315 C305 1.253 . S
O316 Co295 2.115 . S
O316 C306 1.281 . S
O317 Co295 2.315 . S
O317 C306 1.252 . S
O318 Co288 2.122 . S
O318 C307 1.272 . S
O319 Co290 2.113 . S
O319 C307 1.245 . S
Co320 H323 2.400 . S
Co320 O324 2.009 . S
Co320 O332 2.115 . S
Co320 O333 2.315 . S
Co320 O344 2.053 . S
Co320 O347 2.094 . S
Co320 O350 2.122 . S
Co321 O324 2.126 . S
Co321 H325 2.388 1_655 S
Co321 O326 2.053 1_655 S
Co321 O329 2.047 . S
Co321 O335 2.113 . S
Co321 O346 2.063 . S
Co322 H323 2.388 1_455 S
Co322 O324 2.053 1_455 S
Co322 O326 2.126 . S
Co322 O331 2.063 . S
Co322 O345 2.047 . S
Co322 O351 2.113 . S
H323 Co320 2.400 . S
H323 Co322 2.388 1_655 S
H323 O324 0.760 . S
O324 Co320 2.009 . S
O324 Co321 2.126 . S
O324 Co322 2.053 1_655 S
O324 H323 0.760 . S
H325 Co321 2.388 1_455 S
H325 O326 0.760 . S
H325 Co327 2.400 . S
O326 Co321 2.053 1_455 S
O326 Co322 2.126 . S
O326 H325 0.760 . S
O326 Co327 2.009 . S
Co327 H325 2.400 . S
Co327 O326 2.009 . S
Co327 O328 2.053 . S
Co327 O330 2.094 . S
Co327 O334 2.122 . S
Co327 O348 2.115 . S
Co327 O349 2.315 . S
O328 Co327 2.053 . S
O328 C340 1.259 . S
O329 Co321 2.047 . S
O329 C340 1.257 1_655 S
O330 Co327 2.094 . S
O330 C341 1.253 . S
O331 Co322 2.063 . S
O331 C341 1.268 . S
O332 Co320 2.115 . S
O332 C342 1.281 . S
O333 Co320 2.315 . S
O333 C342 1.252 . S
O334 Co327 2.122 . S
O334 C343 1.272 1_455 S
O335 Co321 2.113 . S
O335 C343 1.245 . S
C336 O344 1.261 1_455 S
C336 O345 1.256 . S
C337 O346 1.268 . S
C337 O347 1.253 . S
C338 O348 1.281 . S
C338 O349 1.252 . S
C339 O350 1.272 1_455 S
C339 O351 1.245 . S
C340 O328 1.259 . S
C340 O329 1.257 1_455 S
C341 O330 1.253 . S
C341 O331 1.268 . S
C342 O332 1.281 . S
C342 O333 1.252 . S
C343 O334 1.272 1_655 S
C343 O335 1.245 . S
O344 Co320 2.053 . S
O344 C336 1.261 1_655 S
O345 Co322 2.047 . S
O345 C336 1.256 . S
O346 Co321 2.063 . S
O346 C337 1.268 . S
O347 Co320 2.094 . S
O347 C337 1.253 . S
O348 Co327 2.115 . S
O348 C338 1.281 . S
O349 Co327 2.315 . S
O349 C338 1.252 . S
O350 Co320 2.122 . S
O350 C339 1.272 1_655 S
O351 Co322 2.113 . S
O351 C339 1.245 . S
Co352 H355 2.400 . S
Co352 O356 2.009 . S
Co352 O364 2.115 . S
Co352 O365 2.315 . S
Co352 O376 2.053 . S
Co352 O379 2.094 . S
Co352 O382 2.122 . S
Co353 O356 2.126 . S
Co353 H357 2.388 . S
Co353 O358 2.053 . S
Co353 O361 2.047 . S
Co353 O367 2.113 . S
Co353 O378 2.063 . S
Co354 H355 2.388 . S
Co354 O356 2.053 . S
Co354 O358 2.126 . S
Co354 O363 2.063 . S
Co354 O377 2.047 . S
Co354 O383 2.113 . S
H355 Co352 2.400 . S
H355 Co354 2.388 . S
H355 O356 0.760 . S
O356 Co352 2.009 . S
O356 Co353 2.126 . S
O356 Co354 2.053 . S
O356 H355 0.760 . S
H357 Co353 2.388 . S
H357 O358 0.760 . S
H357 Co359 2.400 . S
O358 Co353 2.053 . S
O358 Co354 2.126 . S
O358 H357 0.760 . S
O358 Co359 2.009 . S
Co359 H357 2.400 . S
Co359 O358 2.009 . S
Co359 O360 2.053 . S
Co359 O362 2.094 . S
Co359 O366 2.122 . S
Co359 O380 2.115 . S
Co359 O381 2.315 . S
O360 Co359 2.053 . S
O360 C372 1.259 . S
O361 Co353 2.047 . S
O361 C372 1.257 . S
O362 Co359 2.094 . S
O362 C373 1.253 . S
O363 Co354 2.063 . S
O363 C373 1.268 . S
O364 Co352 2.115 . S
O364 C374 1.281 . S
O365 Co352 2.315 . S
O365 C374 1.252 . S
O366 Co359 2.122 . S
O366 C375 1.272 . S
O367 Co353 2.113 . S
O367 C375 1.245 . S
C368 O376 1.259 . S
C368 O377 1.257 . S
C369 O378 1.268 . S
C369 O379 1.253 . S
C370 O380 1.281 . S
C370 O381 1.252 . S
C371 O382 1.272 . S
C371 O383 1.245 . S
C372 O360 1.259 . S
C372 O361 1.257 . S
C373 O362 1.253 . S
C373 O363 1.268 . S
C374 O364 1.281 . S
C374 O365 1.252 . S
C375 O366 1.272 . S
C375 O367 1.245 . S
O376 Co352 2.053 . S
O376 C368 1.259 . S
O377 Co354 2.047 . S
O377 C368 1.257 . S
O378 Co353 2.063 . S
O378 C369 1.268 . S
O379 Co352 2.094 . S
O379 C369 1.253 . S
O380 Co359 2.115 . S
O380 C370 1.281 . S
O381 Co359 2.315 . S
O381 C370 1.252 . S
O382 Co352 2.122 . S
O382 C371 1.272 . S
O383 Co354 2.113 . S
O383 C371 1.245 . S
Co384 H387 2.400 . S
Co384 O388 2.009 . S
Co384 O396 2.115 . S
Co384 O397 2.315 . S
Co384 O408 2.053 . S
Co384 O411 2.094 . S
Co384 O414 2.122 . S
Co385 O388 2.126 . S
Co385 H389 2.388 1_655 S
Co385 O390 2.053 1_655 S
Co385 O393 2.047 . S
Co385 O399 2.113 . S
Co385 O410 2.063 . S
Co386 H387 2.388 1_455 S
Co386 O388 2.053 1_455 S
Co386 O390 2.126 . S
Co386 O395 2.063 . S
Co386 O409 2.047 . S
Co386 O415 2.113 . S
H387 Co384 2.400 . S
H387 Co386 2.388 1_655 S
H387 O388 0.760 . S
O388 Co384 2.009 . S
O388 Co385 2.126 . S
O388 Co386 2.053 1_655 S
O388 H387 0.760 . S
H389 Co385 2.388 1_455 S
H389 O390 0.760 . S
H389 Co391 2.400 . S
O390 Co385 2.053 1_455 S
O390 Co386 2.126 . S
O390 H389 0.760 . S
O390 Co391 2.009 . S
Co391 H389 2.400 . S
Co391 O390 2.009 . S
Co391 O392 2.053 . S
Co391 O394 2.094 . S
Co391 O398 2.122 . S
Co391 O412 2.115 . S
Co391 O413 2.315 . S
O392 Co391 2.053 . S
O392 C404 1.264 . S
O393 Co385 2.047 . S
O393 C404 1.254 1_655 S
O394 Co391 2.094 . S
O394 C405 1.253 . S
O395 Co386 2.063 . S
O395 C405 1.268 . S
O396 Co384 2.115 . S
O396 C406 1.281 . S
O397 Co384 2.315 . S
O397 C406 1.252 . S
O398 Co391 2.122 . S
O398 C407 1.272 . S
O399 Co385 2.113 . S
O399 C407 1.245 1_655 S
C400 O408 1.259 . S
C400 O409 1.257 1_655 S
C401 O410 1.268 . S
C401 O411 1.253 . S
C402 O412 1.281 . S
C402 O413 1.252 . S
C403 O414 1.272 . S
C403 O415 1.245 1_655 S
C404 O392 1.264 . S
C404 O393 1.254 1_455 S
C405 O394 1.253 . S
C405 O395 1.268 . S
C406 O396 1.281 . S
C406 O397 1.252 . S
C407 O398 1.272 . S
C407 O399 1.245 1_455 S
O408 Co384 2.053 . S
O408 C400 1.259 . S
O409 Co386 2.047 . S
O409 C400 1.257 1_455 S
O410 Co385 2.063 . S
O410 C401 1.268 . S
O411 Co384 2.094 . S
O411 C401 1.253 . S
O412 Co391 2.115 . S
O412 C402 1.281 . S
O413 Co391 2.315 . S
O413 C402 1.252 . S
O414 Co384 2.122 . S
O414 C403 1.272 . S
O415 Co386 2.113 . S
O415 C403 1.245 1_455 S
Co416 H419 2.400 . S
Co416 O420 2.009 . S
Co416 O428 2.115 . S
Co416 O429 2.315 . S
Co416 O440 2.053 . S
Co416 O443 2.094 . S
Co416 O446 2.122 . S
Co417 O420 2.126 . S
Co417 H421 2.388 . S
Co417 O422 2.053 . S
Co417 O425 2.047 . S
Co417 O431 2.113 . S
Co417 O442 2.063 . S
Co418 H419 2.388 . S
Co418 O420 2.053 . S
Co418 O422 2.126 . S
Co418 O427 2.063 . S
Co418 O441 2.047 . S
Co418 O447 2.113 . S
H419 Co416 2.400 . S
H419 Co418 2.388 . S
H419 O420 0.760 . S
O420 Co416 2.009 . S
O420 Co417 2.126 . S
O420 Co418 2.053 . S
O420 H419 0.760 . S
H421 Co417 2.388 . S
H421 O422 0.760 . S
H421 Co423 2.400 . S
O422 Co417 2.053 . S
O422 Co418 2.126 . S
O422 H421 0.760 . S
O422 Co423 2.009 . S
Co423 H421 2.400 . S
Co423 O422 2.009 . S
Co423 O424 2.053 . S
Co423 O426 2.094 . S
Co423 O430 2.122 . S
Co423 O444 2.115 . S
Co423 O445 2.315 . S
O424 Co423 2.053 . S
O424 C436 1.259 . S
O425 Co417 2.047 . S
O425 C436 1.257 . S
O426 Co423 2.094 . S
O426 C437 1.253 . S
O427 Co418 2.063 . S
O427 C437 1.268 . S
O428 Co416 2.115 . S
O428 C438 1.281 . S
O429 Co416 2.315 . S
O429 C438 1.252 . S
O430 Co423 2.122 . S
O430 C439 1.272 . S
O431 Co417 2.113 . S
O431 C439 1.245 . S
C432 O440 1.259 . S
C432 O441 1.257 . S
C433 O442 1.268 . S
C433 O443 1.253 . S
C434 O444 1.281 . S
C434 O445 1.252 . S
C435 O446 1.272 . S
C435 O447 1.245 . S
C436 O424 1.259 . S
C436 O425 1.257 . S
C437 O426 1.253 . S
C437 O427 1.268 . S
C438 O428 1.281 . S
C438 O429 1.252 . S
C439 O430 1.272 . S
C439 O431 1.245 . S
O440 Co416 2.053 . S
O440 C432 1.259 . S
O441 Co418 2.047 . S
O441 C432 1.257 . S
O442 Co417 2.063 . S
O442 C433 1.268 . S
O443 Co416 2.094 . S
O443 C433 1.253 . S
O444 Co423 2.115 . S
O444 C434 1.281 . S
O445 Co423 2.315 . S
O445 C434 1.252 . S
O446 Co416 2.122 . S
O446 C435 1.272 . S
O447 Co418 2.113 . S
O447 C435 1.245 . S
Co448 H451 2.400 . S
Co448 O452 2.009 . S
Co448 O460 2.115 . S
Co448 O461 2.315 . S
Co448 O472 2.053 . S
Co448 O475 2.094 . S
Co448 O478 2.122 . S
Co449 O452 2.126 . S
Co449 H453 2.388 1_655 S
Co449 O454 2.053 1_655 S
Co449 O457 2.047 . S
Co449 O463 2.113 . S
Co449 O474 2.063 . S
Co450 H451 2.388 1_455 S
Co450 O452 2.053 1_455 S
Co450 O454 2.126 . S
Co450 O459 2.063 . S
Co450 O473 2.047 . S
Co450 O479 2.113 . S
H451 Co448 2.400 . S
H451 Co450 2.388 1_655 S
H451 O452 0.760 . S
O452 Co448 2.009 . S
O452 Co449 2.126 . S
O452 Co450 2.053 1_655 S
O452 H451 0.760 . S
H453 Co449 2.388 1_455 S
H453 O454 0.760 . S
H453 Co455 2.400 . S
O454 Co449 2.053 1_455 S
O454 Co450 2.126 . S
O454 H453 0.760 . S
O454 Co455 2.009 . S
Co455 H453 2.400 . S
Co455 O454 2.009 . S
Co455 O456 2.053 . S
Co455 O458 2.094 . S
Co455 O462 2.122 . S
Co455 O476 2.115 . S
Co455 O477 2.315 . S
O456 Co455 2.053 . S
O456 C468 1.261 1_455 S
O457 Co449 2.047 . S
O457 C468 1.256 . S
O458 Co455 2.094 . S
O458 C469 1.253 . S
O459 Co450 2.063 . S
O459 C469 1.268 . S
O460 Co448 2.115 . S
O460 C470 1.281 . S
O461 Co448 2.315 . S
O461 C470 1.252 . S
O462 Co455 2.122 . S
O462 C471 1.272 1_455 S
O463 Co449 2.113 . S
O463 C471 1.245 . S
C464 O472 1.259 . S
C464 O473 1.257 1_655 S
C465 O474 1.268 . S
C465 O475 1.253 . S
C466 O476 1.281 . S
C466 O477 1.252 . S
C467 O478 1.272 1_455 S
C467 O479 1.245 . S
C468 O456 1.261 1_655 S
C468 O457 1.256 . S
C469 O458 1.253 . S
C469 O459 1.268 . S
C470 O460 1.281 . S
C470 O461 1.252 . S
C471 O462 1.272 1_655 S
C471 O463 1.245 . S
O472 Co448 2.053 . S
O472 C464 1.259 . S
O473 Co450 2.047 . S
O473 C464 1.257 1_455 S
O474 Co449 2.063 . S
O474 C465 1.268 . S
O475 Co448 2.094 . S
O475 C465 1.253 . S
O476 Co455 2.115 . S
O476 C466 1.281 . S
O477 Co455 2.315 . S
O477 C466 1.252 . S
O478 Co448 2.122 . S
O478 C467 1.272 1_655 S
O479 Co450 2.113 . S
O479 C467 1.245 . S
Co480 H483 2.400 . S
Co480 O484 2.009 . S
Co480 O492 2.115 . S
Co480 O493 2.315 . S
Co480 O504 2.053 . S
Co480 O507 2.094 . S
Co480 O510 2.122 . S
Co481 O484 2.126 . S
Co481 H485 2.388 . S
Co481 O486 2.053 . S
Co481 O489 2.047 . S
Co481 O495 2.113 . S
Co481 O506 2.063 . S
Co482 H483 2.388 . S
Co482 O484 2.053 . S
Co482 O486 2.126 . S
Co482 O491 2.063 . S
Co482 O505 2.047 . S
Co482 O511 2.113 . S
H483 Co480 2.400 . S
H483 Co482 2.388 . S
H483 O484 0.760 . S
O484 Co480 2.009 . S
O484 Co481 2.126 . S
O484 Co482 2.053 . S
O484 H483 0.760 . S
H485 Co481 2.388 . S
H485 O486 0.760 . S
H485 Co487 2.400 . S
O486 Co481 2.053 . S
O486 Co482 2.126 . S
O486 H485 0.760 . S
O486 Co487 2.009 . S
Co487 H485 2.400 . S
Co487 O486 2.009 . S
Co487 O488 2.053 . S
Co487 O490 2.094 . S
Co487 O494 2.122 . S
Co487 O508 2.115 . S
Co487 O509 2.315 . S
O488 Co487 2.053 . S
O488 C500 1.259 . S
O489 Co481 2.047 . S
O489 C500 1.257 . S
O490 Co487 2.094 . S
O490 C501 1.253 . S
O491 Co482 2.063 . S
O491 C501 1.268 . S
O492 Co480 2.115 . S
O492 C502 1.281 . S
O493 Co480 2.315 . S
O493 C502 1.252 . S
O494 Co487 2.122 . S
O494 C503 1.272 . S
O495 Co481 2.113 . S
O495 C503 1.245 . S
C496 O504 1.259 . S
C496 O505 1.257 . S
C497 O506 1.268 . S
C497 O507 1.253 . S
C498 O508 1.281 . S
C498 O509 1.252 . S
C499 O510 1.272 . S
C499 O511 1.245 . S
C500 O488 1.259 . S
C500 O489 1.257 . S
C501 O490 1.253 . S
C501 O491 1.268 . S
C502 O492 1.281 . S
C502 O493 1.252 . S
C503 O494 1.272 . S
C503 O495 1.245 . S
O504 Co480 2.053 . S
O504 C496 1.259 . S
O505 Co482 2.047 . S
O505 C496 1.257 . S
O506 Co481 2.063 . S
O506 C497 1.268 . S
O507 Co480 2.094 . S
O507 C497 1.253 . S
O508 Co487 2.115 . S
O508 C498 1.281 . S
O509 Co487 2.315 . S
O509 C498 1.252 . S
O510 Co480 2.122 . S
O510 C499 1.272 . S
O511 Co482 2.113 . S
O511 C499 1.245 . S
Co512 H515 2.400 . S
Co512 O516 2.009 . S
Co512 O524 2.115 . S
Co512 O525 2.315 . S
Co512 O536 2.053 . S
Co512 O539 2.094 . S
Co512 O542 2.122 . S
Co513 O516 2.126 . S
Co513 H517 2.388 . S
Co513 O518 2.053 . S
Co513 O521 2.047 . S
Co513 O527 2.113 . S
Co513 O538 2.063 . S
Co514 H515 2.388 . S
Co514 O516 2.053 . S
Co514 O518 2.126 . S
Co514 O523 2.063 . S
Co514 O537 2.047 . S
Co514 O543 2.113 . S
H515 Co512 2.400 . S
H515 Co514 2.388 . S
H515 O516 0.760 . S
O516 Co512 2.009 . S
O516 Co513 2.126 . S
O516 Co514 2.053 . S
O516 H515 0.760 . S
H517 Co513 2.388 . S
H517 O518 0.760 . S
H517 Co519 2.400 . S
O518 Co513 2.053 . S
O518 Co514 2.126 . S
O518 H517 0.760 . S
O518 Co519 2.009 . S
Co519 H517 2.400 . S
Co519 O518 2.009 . S
Co519 O520 2.053 . S
Co519 O522 2.094 . S
Co519 O526 2.122 . S
Co519 O540 2.115 . S
Co519 O541 2.315 . S
O520 Co519 2.053 . S
O520 C532 1.259 . S
O521 Co513 2.047 . S
O521 C532 1.257 . S
O522 Co519 2.094 . S
O522 C533 1.253 . S
O523 Co514 2.063 . S
O523 C533 1.268 . S
O524 Co512 2.115 . S
O524 C534 1.281 . S
O525 Co512 2.315 . S
O525 C534 1.252 . S
O526 Co519 2.122 . S
O526 C535 1.272 . S
O527 Co513 2.113 . S
O527 C535 1.245 . S
C528 O536 1.259 . S
C528 O537 1.257 . S
C529 O538 1.268 . S
C529 O539 1.253 . S
C530 O540 1.281 . S
C530 O541 1.252 . S
C531 O542 1.272 . S
C531 O543 1.245 . S
C532 O520 1.259 . S
C532 O521 1.257 . S
C533 O522 1.253 . S
C533 O523 1.268 . S
C534 O524 1.281 . S
C534 O525 1.252 . S
C535 O526 1.272 . S
C535 O527 1.245 . S
O536 Co512 2.053 . S
O536 C528 1.259 . S
O537 Co514 2.047 . S
O537 C528 1.257 . S
O538 Co513 2.063 . S
O538 C529 1.268 . S
O539 Co512 2.094 . S
O539 C529 1.253 . S
O540 Co519 2.115 . S
O540 C530 1.281 . S
O541 Co519 2.315 . S
O541 C530 1.252 . S
O542 Co512 2.122 . S
O542 C531 1.272 . S
O543 Co514 2.113 . S
O543 C531 1.245 . S
Co544 H547 2.400 . S
Co544 O548 2.009 . S
Co544 O556 2.115 . S
Co544 O557 2.315 . S
Co544 O568 2.053 . S
Co544 O571 2.094 . S
Co544 O574 2.122 . S
Co545 O548 2.126 . S
Co545 H549 2.388 . S
Co545 O550 2.053 . S
Co545 O553 2.047 . S
Co545 O559 2.113 . S
Co545 O570 2.063 . S
Co546 H547 2.388 . S
Co546 O548 2.053 . S
Co546 O550 2.126 . S
Co546 O555 2.063 1_565 S
Co546 O569 2.047 1_565 S
Co546 O575 2.113 . S
H547 Co544 2.400 . S
H547 Co546 2.388 . S
H547 O548 0.760 . S
O548 Co544 2.009 . S
O548 Co545 2.126 . S
O548 Co546 2.053 . S
O548 H547 0.760 . S
H549 Co545 2.388 . S
H549 O550 0.760 . S
H549 Co551 2.400 . S
O550 Co545 2.053 . S
O550 Co546 2.126 . S
O550 H549 0.760 . S
O550 Co551 2.009 . S
Co551 H549 2.400 . S
Co551 O550 2.009 . S
Co551 O552 2.053 . S
Co551 O554 2.094 . S
Co551 O558 2.122 . S
Co551 O572 2.115 . S
Co551 O573 2.315 . S
O552 Co551 2.053 . S
O552 C564 1.259 . S
O553 Co545 2.047 . S
O553 C564 1.257 . S
O554 Co551 2.094 . S
O554 C565 1.253 1_565 S
O555 Co546 2.063 1_545 S
O555 C565 1.268 . S
O556 Co544 2.115 . S
O556 C566 1.281 . S
O557 Co544 2.315 . S
O557 C566 1.252 . S
O558 Co551 2.122 . S
O558 C567 1.272 . S
O559 Co545 2.113 . S
O559 C567 1.245 . S
C560 O568 1.259 1_545 S
C560 O569 1.257 . S
C561 O570 1.268 . S
C561 O571 1.253 . S
C562 O572 1.281 . S
C562 O573 1.252 . S
C563 O574 1.272 . S
C563 O575 1.245 . S
C564 O552 1.259 . S
C564 O553 1.257 . S
C565 O554 1.253 1_545 S
C565 O555 1.268 . S
C566 O556 1.281 . S
C566 O557 1.252 . S
C567 O558 1.272 . S
C567 O559 1.245 . S
O568 Co544 2.053 . S
O568 C560 1.259 1_565 S
O569 Co546 2.047 1_545 S
O569 C560 1.257 . S
O570 Co545 2.063 . S
O570 C561 1.268 . S
O571 Co544 2.094 . S
O571 C561 1.253 . S
O572 Co551 2.115 . S
O572 C562 1.281 . S
O573 Co551 2.315 . S
O573 C562 1.252 . S
O574 Co544 2.122 . S
O574 C563 1.272 . S
O575 Co546 2.113 . S
O575 C563 1.245 . S
Co576 H579 2.400 . S
Co576 O580 2.009 . S
Co576 O588 2.115 1_565 S
Co576 O589 2.317 . S
Co576 O600 2.053 1_565 S
Co576 O603 2.094 . S
Co576 O606 2.122 1_565 S
Co577 O580 2.126 . S
Co577 H581 2.388 . S
Co577 O582 2.053 . S
Co577 O585 2.047 . S
Co577 O591 2.113 . S
Co577 O602 2.063 . S
Co578 H579 2.388 . S
Co578 O580 2.053 . S
Co578 O582 2.126 . S
Co578 O587 2.063 . S
Co578 O601 2.047 1_565 S
Co578 O607 2.104 1_565 S
H579 Co576 2.400 . S
H579 Co578 2.388 . S
H579 O580 0.760 . S
O580 Co576 2.009 . S
O580 Co577 2.126 . S
O580 Co578 2.053 . S
O580 H579 0.760 . S
H581 Co577 2.388 . S
H581 O582 0.760 . S
H581 Co583 2.400 . S
O582 Co577 2.053 . S
O582 Co578 2.126 . S
O582 H581 0.760 . S
O582 Co583 2.009 . S
Co583 H581 2.400 . S
Co583 O582 2.009 . S
Co583 O584 2.053 . S
Co583 O586 2.094 . S
Co583 O590 2.122 . S
Co583 O604 2.115 . S
Co583 O605 2.315 . S
O584 Co583 2.053 . S
O584 C596 1.259 . S
O585 Co577 2.047 . S
O585 C596 1.257 . S
O586 Co583 2.094 . S
O586 C597 1.253 . S
O587 Co578 2.063 . S
O587 C597 1.268 . S
O588 Co576 2.115 1_545 S
O588 C598 1.281 . S
O589 Co576 2.317 . S
O589 C598 1.233 1_565 S
O590 Co583 2.122 . S
O590 C599 1.272 . S
O591 Co577 2.113 . S
O591 C599 1.245 . S
C592 O600 1.259 . S
C592 O601 1.257 . S
C593 O602 1.268 . S
C593 O603 1.253 . S
C594 O604 1.281 . S
C594 O605 1.252 . S
C595 O606 1.272 . S
C595 O607 1.254 . S
C596 O584 1.259 . S
C596 O585 1.257 . S
C597 O586 1.253 . S
C597 O587 1.268 . S
C598 O588 1.281 . S
C598 O589 1.233 1_545 S
C599 O590 1.272 . S
C599 O591 1.245 . S
O600 Co576 2.053 1_545 S
O600 C592 1.259 . S
O601 Co578 2.047 1_545 S
O601 C592 1.257 . S
O602 Co577 2.063 . S
O602 C593 1.268 . S
O603 Co576 2.094 . S
O603 C593 1.253 . S
O604 Co583 2.115 . S
O604 C594 1.281 . S
O605 Co583 2.315 . S
O605 C594 1.252 . S
O606 Co576 2.122 1_545 S
O606 C595 1.272 . S
O607 Co578 2.104 1_545 S
O607 C595 1.254 . S
Co608 H611 2.400 . S
Co608 O612 2.009 . S
Co608 O620 2.115 . S
Co608 O621 2.315 . S
Co608 O632 2.053 . S
Co608 O635 2.094 . S
Co608 O638 2.122 . S
Co609 O612 2.126 . S
Co609 H613 2.388 . S
Co609 O614 2.053 . S
Co609 O617 2.047 . S
Co609 O623 2.113 . S
Co609 O634 2.063 . S
Co610 H611 2.388 . S
Co610 O612 2.053 . S
Co610 O614 2.126 . S
Co610 O619 2.063 . S
Co610 O633 2.047 . S
Co610 O639 2.113 . S
H611 Co608 2.400 . S
H611 Co610 2.388 . S
H611 O612 0.760 . S
O612 Co608 2.009 . S
O612 Co609 2.126 . S
O612 Co610 2.053 . S
O612 H611 0.760 . S
H613 Co609 2.388 . S
H613 O614 0.760 . S
H613 Co615 2.400 . S
O614 Co609 2.053 . S
O614 Co610 2.126 . S
O614 H613 0.760 . S
O614 Co615 2.009 . S
Co615 H613 2.400 . S
Co615 O614 2.009 . S
Co615 O616 2.053 . S
Co615 O618 2.094 . S
Co615 O622 2.122 . S
Co615 O636 2.115 . S
Co615 O637 2.315 . S
O616 Co615 2.053 . S
O616 C628 1.259 . S
O617 Co609 2.047 . S
O617 C628 1.257 . S
O618 Co615 2.094 . S
O618 C629 1.253 . S
O619 Co610 2.063 . S
O619 C629 1.268 . S
O620 Co608 2.115 . S
O620 C630 1.281 . S
O621 Co608 2.315 . S
O621 C630 1.252 . S
O622 Co615 2.122 . S
O622 C631 1.272 . S
O623 Co609 2.113 . S
O623 C631 1.245 . S
C624 O632 1.259 . S
C624 O633 1.257 . S
C625 O634 1.268 . S
C625 O635 1.253 . S
C626 O636 1.281 . S
C626 O637 1.252 . S
C627 O638 1.272 . S
C627 O639 1.245 . S
C628 O616 1.259 . S
C628 O617 1.257 . S
C629 O618 1.253 . S
C629 O619 1.268 . S
C630 O620 1.281 . S
C630 O621 1.252 . S
C631 O622 1.272 . S
C631 O623 1.245 . S
O632 Co608 2.053 . S
O632 C624 1.259 . S
O633 Co610 2.047 . S
O633 C624 1.257 . S
O634 Co609 2.063 . S
O634 C625 1.268 . S
O635 Co608 2.094 . S
O635 C625 1.253 . S
O636 Co615 2.115 . S
O636 C626 1.281 . S
O637 Co615 2.315 . S
O637 C626 1.252 . S
O638 Co608 2.122 . S
O638 C627 1.272 . S
O639 Co610 2.113 . S
O639 C627 1.245 . S
Co640 H643 2.400 . S
Co640 O644 2.009 . S
Co640 O652 2.115 . S
Co640 O653 2.315 . S
Co640 O664 2.053 . S
Co640 O667 2.094 . S
Co640 O670 2.122 . S
Co641 O644 2.126 . S
Co641 H645 2.388 . S
Co641 O646 2.053 . S
Co641 O649 2.047 . S
Co641 O655 2.113 . S
Co641 O666 2.063 . S
Co642 H643 2.388 . S
Co642 O644 2.053 . S
Co642 O646 2.126 . S
Co642 O651 2.063 . S
Co642 O665 2.047 . S
Co642 O671 2.113 . S
H643 Co640 2.400 . S
H643 Co642 2.388 . S
H643 O644 0.760 . S
O644 Co640 2.009 . S
O644 Co641 2.126 . S
O644 Co642 2.053 . S
O644 H643 0.760 . S
H645 Co641 2.388 . S
H645 O646 0.760 . S
H645 Co647 2.400 . S
O646 Co641 2.053 . S
O646 Co642 2.126 . S
O646 H645 0.760 . S
O646 Co647 2.009 . S
Co647 H645 2.400 . S
Co647 O646 2.009 . S
Co647 O648 2.053 . S
Co647 O650 2.094 . S
Co647 O654 2.122 . S
Co647 O668 2.115 . S
Co647 O669 2.315 . S
O648 Co647 2.053 . S
O648 C660 1.259 . S
O649 Co641 2.047 . S
O649 C660 1.257 . S
O650 Co647 2.094 . S
O650 C661 1.253 . S
O651 Co642 2.063 . S
O651 C661 1.268 . S
O652 Co640 2.115 . S
O652 C662 1.281 . S
O653 Co640 2.315 . S
O653 C662 1.252 . S
O654 Co647 2.122 . S
O654 C663 1.272 . S
O655 Co641 2.113 . S
O655 C663 1.245 . S
C656 O664 1.259 . S
C656 O665 1.257 . S
C657 O666 1.268 . S
C657 O667 1.253 . S
C658 O668 1.281 . S
C658 O669 1.252 . S
C659 O670 1.272 . S
C659 O671 1.245 . S
C660 O648 1.259 . S
C660 O649 1.257 . S
C661 O650 1.253 . S
C661 O651 1.268 . S
C662 O652 1.281 . S
C662 O653 1.252 . S
C663 O654 1.272 . S
C663 O655 1.245 . S
O664 Co640 2.053 . S
O664 C656 1.259 . S
O665 Co642 2.047 . S
O665 C656 1.257 . S
O666 Co641 2.063 . S
O666 C657 1.268 . S
O667 Co640 2.094 . S
O667 C657 1.253 . S
O668 Co647 2.115 . S
O668 C658 1.281 . S
O669 Co647 2.315 . S
O669 C658 1.252 . S
O670 Co640 2.122 . S
O670 C659 1.272 . S
O671 Co642 2.113 . S
O671 C659 1.245 . S
Co672 H675 2.400 . S
Co672 O676 2.009 . S
Co672 O684 2.115 . S
Co672 O685 2.315 . S
Co672 O696 2.053 . S
Co672 O699 2.094 . S
Co672 O702 2.122 . S
Co673 O676 2.126 . S
Co673 H677 2.388 . S
Co673 O678 2.053 . S
Co673 O681 2.047 1_545 S
Co673 O687 2.113 . S
Co673 O698 2.063 1_545 S
Co674 H675 2.388 . S
Co674 O676 2.053 . S
Co674 O678 2.126 . S
Co674 O683 2.063 . S
Co674 O697 2.047 . S
Co674 O703 2.113 . S
H675 Co672 2.400 . S
H675 Co674 2.388 . S
H675 O676 0.760 . S
O676 Co672 2.009 . S
O676 Co673 2.126 . S
O676 Co674 2.053 . S
O676 H675 0.760 . S
H677 Co673 2.388 . S
H677 O678 0.760 . S
H677 Co679 2.400 . S
O678 Co673 2.053 . S
O678 Co674 2.126 . S
O678 H677 0.760 . S
O678 Co679 2.009 . S
Co679 H677 2.400 . S
Co679 O678 2.009 . S
Co679 O680 2.053 . S
Co679 O682 2.094 . S
Co679 O686 2.122 . S
Co679 O700 2.115 . S
Co679 O701 2.315 . S
O680 Co679 2.053 . S
O680 C692 1.259 1_545 S
O681 Co673 2.047 1_565 S
O681 C692 1.257 . S
O682 Co679 2.094 . S
O682 C693 1.253 . S
O683 Co674 2.063 . S
O683 C693 1.268 . S
O684 Co672 2.115 . S
O684 C694 1.281 . S
O685 Co672 2.315 . S
O685 C694 1.252 . S
O686 Co679 2.122 . S
O686 C695 1.272 . S
O687 Co673 2.113 . S
O687 C695 1.245 . S
C688 O696 1.259 . S
C688 O697 1.257 . S
C689 O698 1.268 . S
C689 O699 1.253 1_565 S
C690 O700 1.281 . S
C690 O701 1.252 . S
C691 O702 1.272 . S
C691 O703 1.245 . S
C692 O680 1.259 1_565 S
C692 O681 1.257 . S
C693 O682 1.253 . S
C693 O683 1.268 . S
C694 O684 1.281 . S
C694 O685 1.252 . S
C695 O686 1.272 . S
C695 O687 1.245 . S
O696 Co672 2.053 . S
O696 C688 1.259 . S
O697 Co674 2.047 . S
O697 C688 1.257 . S
O698 Co673 2.063 1_565 S
O698 C689 1.268 . S
O699 Co672 2.094 . S
O699 C689 1.253 1_545 S
O700 Co679 2.115 . S
O700 C690 1.281 . S
O701 Co679 2.315 . S
O701 C690 1.252 . S
O702 Co672 2.122 . S
O702 C691 1.272 . S
O703 Co674 2.113 . S
O703 C691 1.245 . S
Co704 H707 2.400 . S
Co704 O708 2.009 . S
Co704 O716 2.115 . S
Co704 O717 2.315 . S
Co704 O728 2.053 . S
Co704 O731 2.094 . S
Co704 O734 2.122 . S
Co705 O708 2.126 . S
Co705 H709 2.388 . S
Co705 O710 2.053 . S
Co705 O713 2.047 1_545 S
Co705 O719 2.104 1_545 S
Co705 O730 2.063 . S
Co706 H707 2.388 . S
Co706 O708 2.053 . S
Co706 O710 2.126 . S
Co706 O715 2.063 . S
Co706 O729 2.047 . S
Co706 O735 2.113 . S
H707 Co704 2.400 . S
H707 Co706 2.388 . S
H707 O708 0.760 . S
O708 Co704 2.009 . S
O708 Co705 2.126 . S
O708 Co706 2.053 . S
O708 H707 0.760 . S
H709 Co705 2.388 . S
H709 O710 0.760 . S
H709 Co711 2.400 . S
O710 Co705 2.053 . S
O710 Co706 2.126 . S
O710 H709 0.760 . S
O710 Co711 2.009 . S
Co711 H709 2.400 . S
Co711 O710 2.009 . S
Co711 O712 2.053 1_545 S
Co711 O714 2.094 . S
Co711 O718 2.122 1_545 S
Co711 O732 2.115 1_545 S
Co711 O733 2.317 . S
O712 Co711 2.053 1_565 S
O712 C724 1.259 . S
O713 Co705 2.047 1_565 S
O713 C724 1.257 . S
O714 Co711 2.094 . S
O714 C725 1.253 . S
O715 Co706 2.063 . S
O715 C725 1.268 . S
O716 Co704 2.115 . S
O716 C726 1.281 . S
O717 Co704 2.315 . S
O717 C726 1.252 . S
O718 Co711 2.122 1_565 S
O718 C727 1.272 . S
O719 Co705 2.104 1_565 S
O719 C727 1.254 . S
C720 O728 1.259 . S
C720 O729 1.257 . S
C721 O730 1.268 . S
C721 O731 1.253 . S
C722 O732 1.281 . S
C722 O733 1.233 1_565 S
C723 O734 1.272 . S
C723 O735 1.245 . S
C724 O712 1.259 . S
C724 O713 1.257 . S
C725 O714 1.253 . S
C725 O715 1.268 . S
C726 O716 1.281 . S
C726 O717 1.252 . S
C727 O718 1.272 . S
C727 O719 1.254 . S
O728 Co704 2.053 . S
O728 C720 1.259 . S
O729 Co706 2.047 . S
O729 C720 1.257 . S
O730 Co705 2.063 . S
O730 C721 1.268 . S
O731 Co704 2.094 . S
O731 C721 1.253 . S
O732 Co711 2.115 1_565 S
O732 C722 1.281 . S
O733 Co711 2.317 . S
O733 C722 1.233 1_545 S
O734 Co704 2.122 . S
O734 C723 1.272 . S
O735 Co706 2.113 . S
O735 C723 1.245 . S
Co736 H739 2.400 . S
Co736 O740 2.009 . S
Co736 O748 2.115 . S
Co736 O749 2.315 . S
Co736 O760 2.053 . S
Co736 O763 2.094 . S
Co736 O766 2.122 . S
Co737 O740 2.126 . S
Co737 H741 2.388 . S
Co737 O742 2.053 . S
Co737 O745 2.047 . S
Co737 O751 2.113 . S
Co737 O762 2.063 . S
Co738 H739 2.388 . S
Co738 O740 2.053 . S
Co738 O742 2.126 . S
Co738 O747 2.063 . S
Co738 O761 2.047 . S
Co738 O767 2.113 . S
H739 Co736 2.400 . S
H739 Co738 2.388 . S
H739 O740 0.760 . S
O740 Co736 2.009 . S
O740 Co737 2.126 . S
O740 Co738 2.053 . S
O740 H739 0.760 . S
H741 Co737 2.388 . S
H741 O742 0.760 . S
H741 Co743 2.400 . S
O742 Co737 2.053 . S
O742 Co738 2.126 . S
O742 H741 0.760 . S
O742 Co743 2.009 . S
Co743 H741 2.400 . S
Co743 O742 2.009 . S
Co743 O744 2.053 . S
Co743 O746 2.094 . S
Co743 O750 2.122 . S
Co743 O764 2.115 . S
Co743 O765 2.315 . S
O744 Co743 2.053 . S
O744 C756 1.259 . S
O745 Co737 2.047 . S
O745 C756 1.257 . S
O746 Co743 2.094 . S
O746 C757 1.253 . S
O747 Co738 2.063 . S
O747 C757 1.268 . S
O748 Co736 2.115 . S
O748 C758 1.281 . S
O749 Co736 2.315 . S
O749 C758 1.252 . S
O750 Co743 2.122 . S
O750 C759 1.272 . S
O751 Co737 2.113 . S
O751 C759 1.245 . S
C752 O760 1.259 . S
C752 O761 1.257 . S
C753 O762 1.268 . S
C753 O763 1.253 . S
C754 O764 1.281 . S
C754 O765 1.252 . S
C755 O766 1.272 . S
C755 O767 1.245 . S
C756 O744 1.259 . S
C756 O745 1.257 . S
C757 O746 1.253 . S
C757 O747 1.268 . S
C758 O748 1.281 . S
C758 O749 1.252 . S
C759 O750 1.272 . S
C759 O751 1.245 . S
O760 Co736 2.053 . S
O760 C752 1.259 . S
O761 Co738 2.047 . S
O761 C752 1.257 . S
O762 Co737 2.063 . S
O762 C753 1.268 . S
O763 Co736 2.094 . S
O763 C753 1.253 . S
O764 Co743 2.115 . S
O764 C754 1.281 . S
O765 Co743 2.315 . S
O765 C754 1.252 . S
O766 Co736 2.122 . S
O766 C755 1.272 . S
O767 Co738 2.113 . S
O767 C755 1.245 . S
Co768 H771 2.400 . S
Co768 O772 2.009 . S
Co768 O780 2.115 . S
Co768 O781 2.315 . S
Co768 O792 2.053 . S
Co768 O795 2.094 1_554 S
Co768 O798 2.122 1_554 S
Co769 O772 2.126 . S
Co769 H773 2.388 1_554 S
Co769 O774 2.053 . S
Co769 O777 2.047 1_554 S
Co769 O783 2.113 . S
Co769 O794 2.063 . S
Co770 H771 2.388 . S
Co770 O772 2.053 . S
Co770 O774 2.126 . S
Co770 O779 2.063 . S
Co770 O793 2.047 . S
Co770 O799 2.113 1_554 S
H771 Co768 2.400 . S
H771 Co770 2.388 . S
H771 O772 0.760 . S
O772 Co768 2.009 . S
O772 Co769 2.126 . S
O772 Co770 2.053 . S
O772 H771 0.760 . S
H773 Co769 2.388 1_556 S
H773 O774 0.760 1_556 S
H773 Co775 2.400 1_556 S
O774 Co769 2.053 . S
O774 Co770 2.126 . S
O774 H773 0.760 1_554 S
O774 Co775 2.009 . S
Co775 H773 2.400 1_554 S
Co775 O774 2.009 . S
Co775 O776 2.053 . S
Co775 O778 2.094 . S
Co775 O782 2.122 . S
Co775 O796 2.115 . S
Co775 O797 2.315 1_554 S
O776 Co775 2.053 . S
O776 C788 1.259 1_554 S
O777 Co769 2.047 1_556 S
O777 C788 1.257 . S
O778 Co775 2.094 . S
O778 C789 1.253 . S
O779 Co770 2.063 . S
O779 C789 1.268 . S
O780 Co768 2.115 . S
O780 C790 1.281 . S
O781 Co768 2.315 . S
O781 C790 1.252 . S
O782 Co775 2.122 . S
O782 C791 1.272 . S
O783 Co769 2.113 . S
O783 C791 1.245 . S
C784 O792 1.259 . S
C784 O793 1.257 . S
C785 O794 1.268 1_556 S
C785 O795 1.253 . S
C786 O796 1.281 . S
C786 O797 1.252 1_554 S
C787 O798 1.272 . S
C787 O799 1.245 . S
C788 O776 1.259 1_556 S
C788 O777 1.257 . S
C789 O778 1.253 . S
C789 O779 1.268 . S
C790 O780 1.281 . S
C790 O781 1.252 . S
C791 O782 1.272 . S
C791 O783 1.245 . S
O792 Co768 2.053 . S
O792 C784 1.259 . S
O793 Co770 2.047 . S
O793 C784 1.257 . S
O794 Co769 2.063 . S
O794 C785 1.268 1_554 S
O795 Co768 2.094 1_556 S
O795 C785 1.253 . S
O796 Co775 2.115 . S
O796 C786 1.281 . S
O797 Co775 2.315 1_556 S
O797 C786 1.252 1_556 S
O798 Co768 2.122 1_556 S
O798 C787 1.272 . S
O799 Co770 2.113 1_556 S
O799 C787 1.245 . S
Co800 H803 2.400 . S
Co800 O804 2.009 . S
Co800 O812 2.115 1_554 S
Co800 O813 2.315 . S
Co800 O824 2.053 . S
Co800 O827 2.094 1_554 S
Co800 O830 2.122 1_554 S
Co801 O804 2.126 . S
Co801 H805 2.388 . S
Co801 O806 2.053 . S
Co801 O809 2.047 . S
Co801 O815 2.113 . S
Co801 O826 2.063 . S
Co802 H803 2.388 . S
Co802 O804 2.053 . S
Co802 O806 2.126 . S
Co802 O811 2.063 . S
Co802 O825 2.047 . S
Co802 O831 2.113 . S
H803 Co800 2.400 . S
H803 Co802 2.388 . S
H803 O804 0.760 . S
O804 Co800 2.009 . S
O804 Co801 2.126 . S
O804 Co802 2.053 . S
O804 H803 0.760 . S
H805 Co801 2.388 . S
H805 O806 0.760 . S
H805 Co807 2.400 . S
O806 Co801 2.053 . S
O806 Co802 2.126 . S
O806 H805 0.760 . S
O806 Co807 2.009 . S
Co807 H805 2.400 . S
Co807 O806 2.009 . S
Co807 O808 2.053 . S
Co807 O810 2.094 . S
Co807 O814 2.122 . S
Co807 O828 2.115 . S
Co807 O829 2.315 . S
O808 Co807 2.053 . S
O808 C820 1.259 . S
O809 Co801 2.047 . S
O809 C820 1.257 . S
O810 Co807 2.094 . S
O810 C821 1.253 . S
O811 Co802 2.063 . S
O811 C821 1.268 . S
O812 Co800 2.115 1_556 S
O812 C822 1.281 . S
O813 Co800 2.315 . S
O813 C822 1.252 1_554 S
O814 Co807 2.122 . S
O814 C823 1.272 . S
O815 Co801 2.113 . S
O815 C823 1.245 . S
C816 O824 1.259 . S
C816 O825 1.257 . S
C817 O826 1.268 1_556 S
C817 O827 1.253 . S
C818 O828 1.281 . S
C818 O829 1.252 . S
C819 O830 1.272 . S
C819 O831 1.245 1_556 S
C820 O808 1.259 . S
C820 O809 1.257 . S
C821 O810 1.253 . S
C821 O811 1.268 . S
C822 O812 1.281 . S
C822 O813 1.252 1_556 S
C823 O814 1.272 . S
C823 O815 1.245 . S
O824 Co800 2.053 . S
O824 C816 1.259 . S
O825 Co802 2.047 . S
O825 C816 1.257 . S
O826 Co801 2.063 . S
O826 C817 1.268 1_554 S
O827 Co800 2.094 1_556 S
O827 C817 1.253 . S
O828 Co807 2.115 . S
O828 C818 1.281 . S
O829 Co807 2.315 . S
O829 C818 1.252 . S
O830 Co800 2.122 1_556 S
O830 C819 1.272 . S
O831 Co802 2.113 . S
O831 C819 1.245 1_554 S
Co832 H835 2.400 . S
Co832 O836 2.009 . S
Co832 O844 2.115 . S
Co832 O845 2.315 . S
Co832 O856 2.053 . S
Co832 O859 2.094 . S
Co832 O862 2.122 . S
Co833 O836 2.126 . S
Co833 H837 2.388 . S
Co833 O838 2.053 . S
Co833 O841 2.047 . S
Co833 O847 2.113 . S
Co833 O858 2.063 . S
Co834 H835 2.388 . S
Co834 O836 2.053 . S
Co834 O838 2.126 . S
Co834 O843 2.063 . S
Co834 O857 2.047 . S
Co834 O863 2.113 . S
H835 Co832 2.400 . S
H835 Co834 2.388 . S
H835 O836 0.760 . S
O836 Co832 2.009 . S
O836 Co833 2.126 . S
O836 Co834 2.053 . S
O836 H835 0.760 . S
H837 Co833 2.388 . S
H837 O838 0.760 . S
H837 Co839 2.400 . S
O838 Co833 2.053 . S
O838 Co834 2.126 . S
O838 H837 0.760 . S
O838 Co839 2.009 . S
Co839 H837 2.400 . S
Co839 O838 2.009 . S
Co839 O840 2.053 . S
Co839 O842 2.094 . S
Co839 O846 2.122 . S
Co839 O860 2.115 . S
Co839 O861 2.315 . S
O840 Co839 2.053 . S
O840 C852 1.259 . S
O841 Co833 2.047 . S
O841 C852 1.257 . S
O842 Co839 2.094 . S
O842 C853 1.253 . S
O843 Co834 2.063 . S
O843 C853 1.268 . S
O844 Co832 2.115 . S
O844 C854 1.281 . S
O845 Co832 2.315 . S
O845 C854 1.252 . S
O846 Co839 2.122 . S
O846 C855 1.272 . S
O847 Co833 2.113 . S
O847 C855 1.245 . S
C848 O856 1.259 . S
C848 O857 1.257 . S
C849 O858 1.268 . S
C849 O859 1.253 . S
C850 O860 1.281 . S
C850 O861 1.252 . S
C851 O862 1.272 . S
C851 O863 1.245 . S
C852 O840 1.259 . S
C852 O841 1.257 . S
C853 O842 1.253 . S
C853 O843 1.268 . S
C854 O844 1.281 . S
C854 O845 1.252 . S
C855 O846 1.272 . S
C855 O847 1.245 . S
O856 Co832 2.053 . S
O856 C848 1.259 . S
O857 Co834 2.047 . S
O857 C848 1.257 . S
O858 Co833 2.063 . S
O858 C849 1.268 . S
O859 Co832 2.094 . S
O859 C849 1.253 . S
O860 Co839 2.115 . S
O860 C850 1.281 . S
O861 Co839 2.315 . S
O861 C850 1.252 . S
O862 Co832 2.122 . S
O862 C851 1.272 . S
O863 Co834 2.113 . S
O863 C851 1.245 . S
Co864 H867 2.400 . S
Co864 O868 2.009 . S
Co864 O876 2.115 . S
Co864 O877 2.315 . S
Co864 O888 2.053 . S
Co864 O891 2.094 . S
Co864 O894 2.122 . S
Co865 O868 2.126 . S
Co865 H869 2.388 . S
Co865 O870 2.053 . S
Co865 O873 2.047 . S
Co865 O879 2.113 . S
Co865 O890 2.063 . S
Co866 H867 2.388 . S
Co866 O868 2.053 . S
Co866 O870 2.126 . S
Co866 O875 2.063 . S
Co866 O889 2.047 . S
Co866 O895 2.113 . S
H867 Co864 2.400 . S
H867 Co866 2.388 . S
H867 O868 0.760 . S
O868 Co864 2.009 . S
O868 Co865 2.126 . S
O868 Co866 2.053 . S
O868 H867 0.760 . S
H869 Co865 2.388 . S
H869 O870 0.760 . S
H869 Co871 2.400 . S
O870 Co865 2.053 . S
O870 Co866 2.126 . S
O870 H869 0.760 . S
O870 Co871 2.009 . S
Co871 H869 2.400 . S
Co871 O870 2.009 . S
Co871 O872 2.053 . S
Co871 O874 2.094 . S
Co871 O878 2.122 . S
Co871 O892 2.115 . S
Co871 O893 2.315 . S
O872 Co871 2.053 . S
O872 C884 1.259 . S
O873 Co865 2.047 . S
O873 C884 1.257 . S
O874 Co871 2.094 . S
O874 C885 1.253 . S
O875 Co866 2.063 . S
O875 C885 1.268 . S
O876 Co864 2.115 . S
O876 C886 1.281 . S
O877 Co864 2.315 . S
O877 C886 1.252 . S
O878 Co871 2.122 . S
O878 C887 1.272 . S
O879 Co865 2.113 . S
O879 C887 1.245 . S
C880 O888 1.259 . S
C880 O889 1.257 . S
C881 O890 1.268 . S
C881 O891 1.253 . S
C882 O892 1.281 . S
C882 O893 1.252 . S
C883 O894 1.272 . S
C883 O895 1.245 . S
C884 O872 1.259 . S
C884 O873 1.257 . S
C885 O874 1.253 . S
C885 O875 1.268 . S
C886 O876 1.281 . S
C886 O877 1.252 . S
C887 O878 1.272 . S
C887 O879 1.245 . S
O888 Co864 2.053 . S
O888 C880 1.259 . S
O889 Co866 2.047 . S
O889 C880 1.257 . S
O890 Co865 2.063 . S
O890 C881 1.268 . S
O891 Co864 2.094 . S
O891 C881 1.253 . S
O892 Co871 2.115 . S
O892 C882 1.281 . S
O893 Co871 2.315 . S
O893 C882 1.252 . S
O894 Co864 2.122 . S
O894 C883 1.272 . S
O895 Co866 2.113 . S
O895 C883 1.245 . S
Co896 H899 2.400 1_556 S
Co896 O900 2.009 . S
Co896 O908 2.115 . S
Co896 O909 2.315 1_556 S
Co896 O920 2.053 . S
Co896 O923 2.094 . S
Co896 O926 2.122 . S
Co897 O900 2.126 . S
Co897 H901 2.388 . S
Co897 O902 2.053 . S
Co897 O905 2.047 . S
Co897 O911 2.113 1_556 S
Co897 O922 2.063 . S
Co898 H899 2.388 1_556 S
Co898 O900 2.053 . S
Co898 O902 2.126 . S
Co898 O907 2.063 . S
Co898 O921 2.047 1_556 S
Co898 O927 2.113 . S
H899 Co896 2.400 1_554 S
H899 Co898 2.388 1_554 S
H899 O900 0.760 1_554 S
O900 Co896 2.009 . S
O900 Co897 2.126 . S
O900 Co898 2.053 . S
O900 H899 0.760 1_556 S
H901 Co897 2.388 . S
H901 O902 0.760 . S
H901 Co903 2.400 . S
O902 Co897 2.053 . S
O902 Co898 2.126 . S
O902 H901 0.760 . S
O902 Co903 2.009 . S
Co903 H901 2.400 . S
Co903 O902 2.009 . S
Co903 O904 2.053 . S
Co903 O906 2.094 1_556 S
Co903 O910 2.122 1_556 S
Co903 O924 2.115 . S
Co903 O925 2.315 . S
O904 Co903 2.053 . S
O904 C916 1.259 . S
O905 Co897 2.047 . S
O905 C916 1.257 . S
O906 Co903 2.094 1_554 S
O906 C917 1.253 . S
O907 Co898 2.063 . S
O907 C917 1.268 1_556 S
O908 Co896 2.115 . S
O908 C918 1.281 . S
O909 Co896 2.315 1_554 S
O909 C918 1.252 1_554 S
O910 Co903 2.122 1_554 S
O910 C919 1.272 . S
O911 Co897 2.113 1_554 S
O911 C919 1.245 . S
C912 O920 1.259 1_554 S
C912 O921 1.257 . S
C913 O922 1.268 . S
C913 O923 1.253 . S
C914 O924 1.281 . S
C914 O925 1.252 . S
C915 O926 1.272 . S
C915 O927 1.245 . S
C916 O904 1.259 . S
C916 O905 1.257 . S
C917 O906 1.253 . S
C917 O907 1.268 1_554 S
C918 O908 1.281 . S
C918 O909 1.252 1_556 S
C919 O910 1.272 . S
C919 O911 1.245 . S
O920 Co896 2.053 . S
O920 C912 1.259 1_556 S
O921 Co898 2.047 1_554 S
O921 C912 1.257 . S
O922 Co897 2.063 . S
O922 C913 1.268 . S
O923 Co896 2.094 . S
O923 C913 1.253 . S
O924 Co903 2.115 . S
O924 C914 1.281 . S
O925 Co903 2.315 . S
O925 C914 1.252 . S
O926 Co896 2.122 . S
O926 C915 1.272 . S
O927 Co898 2.113 . S
O927 C915 1.245 . S
Co928 H931 2.400 . S
Co928 O932 2.009 . S
Co928 O940 2.115 . S
Co928 O941 2.315 . S
Co928 O952 2.053 . S
Co928 O955 2.094 . S
Co928 O958 2.122 . S
Co929 O932 2.126 . S
Co929 H933 2.388 . S
Co929 O934 2.053 . S
Co929 O937 2.047 . S
Co929 O943 2.113 . S
Co929 O954 2.063 . S
Co930 H931 2.388 . S
Co930 O932 2.053 . S
Co930 O934 2.126 . S
Co930 O939 2.063 . S
Co930 O953 2.047 . S
Co930 O959 2.113 . S
H931 Co928 2.400 . S
H931 Co930 2.388 . S
H931 O932 0.760 . S
O932 Co928 2.009 . S
O932 Co929 2.126 . S
O932 Co930 2.053 . S
O932 H931 0.760 . S
H933 Co929 2.388 . S
H933 O934 0.760 . S
H933 Co935 2.400 . S
O934 Co929 2.053 . S
O934 Co930 2.126 . S
O934 H933 0.760 . S
O934 Co935 2.009 . S
Co935 H933 2.400 . S
Co935 O934 2.009 . S
Co935 O936 2.053 . S
Co935 O938 2.094 1_556 S
Co935 O942 2.122 1_556 S
Co935 O956 2.115 1_556 S
Co935 O957 2.315 . S
O936 Co935 2.053 . S
O936 C948 1.259 . S
O937 Co929 2.047 . S
O937 C948 1.257 . S
O938 Co935 2.094 1_554 S
O938 C949 1.253 . S
O939 Co930 2.063 . S
O939 C949 1.268 1_556 S
O940 Co928 2.115 . S
O940 C950 1.281 . S
O941 Co928 2.315 . S
O941 C950 1.252 . S
O942 Co935 2.122 1_554 S
O942 C951 1.272 . S
O943 Co929 2.113 . S
O943 C951 1.245 1_556 S
C944 O952 1.259 . S
C944 O953 1.257 . S
C945 O954 1.268 . S
C945 O955 1.253 . S
C946 O956 1.281 . S
C946 O957 1.252 1_554 S
C947 O958 1.272 . S
C947 O959 1.245 . S
C948 O936 1.259 . S
C948 O937 1.257 . S
C949 O938 1.253 . S
C949 O939 1.268 1_554 S
C950 O940 1.281 . S
C950 O941 1.252 . S
C951 O942 1.272 . S
C951 O943 1.245 1_554 S
O952 Co928 2.053 . S
O952 C944 1.259 . S
O953 Co930 2.047 . S
O953 C944 1.257 . S
O954 Co929 2.063 . S
O954 C945 1.268 . S
O955 Co928 2.094 . S
O955 C945 1.253 . S
O956 Co935 2.115 1_554 S
O956 C946 1.281 . S
O957 Co935 2.315 . S
O957 C946 1.252 1_556 S
O958 Co928 2.122 . S
O958 C947 1.272 . S
O959 Co930 2.113 . S
O959 C947 1.245 . S
Co960 H963 2.400 . S
Co960 O964 2.009 . S
Co960 O972 2.115 . S
Co960 O973 2.315 . S
Co960 O984 2.053 . S
Co960 O987 2.094 . S
Co960 O990 2.122 . S
Co961 O964 2.126 . S
Co961 H965 2.388 . S
Co961 O966 2.053 . S
Co961 O969 2.047 . S
Co961 O975 2.113 . S
Co961 O986 2.063 . S
Co962 H963 2.388 . S
Co962 O964 2.053 . S
Co962 O966 2.126 . S
Co962 O971 2.063 . S
Co962 O985 2.047 . S
Co962 O991 2.113 . S
H963 Co960 2.400 . S
H963 Co962 2.388 . S
H963 O964 0.760 . S
O964 Co960 2.009 . S
O964 Co961 2.126 . S
O964 Co962 2.053 . S
O964 H963 0.760 . S
H965 Co961 2.388 . S
H965 O966 0.760 . S
H965 Co967 2.400 . S
O966 Co961 2.053 . S
O966 Co962 2.126 . S
O966 H965 0.760 . S
O966 Co967 2.009 . S
Co967 H965 2.400 . S
Co967 O966 2.009 . S
Co967 O968 2.053 . S
Co967 O970 2.094 . S
Co967 O974 2.122 . S
Co967 O988 2.115 . S
Co967 O989 2.315 . S
O968 Co967 2.053 . S
O968 C980 1.259 . S
O969 Co961 2.047 . S
O969 C980 1.257 . S
O970 Co967 2.094 . S
O970 C981 1.253 . S
O971 Co962 2.063 . S
O971 C981 1.268 . S
O972 Co960 2.115 . S
O972 C982 1.281 . S
O973 Co960 2.315 . S
O973 C982 1.252 . S
O974 Co967 2.122 . S
O974 C983 1.272 . S
O975 Co961 2.113 . S
O975 C983 1.245 . S
C976 O984 1.259 . S
C976 O985 1.257 . S
C977 O986 1.268 . S
C977 O987 1.253 . S
C978 O988 1.281 . S
C978 O989 1.252 . S
C979 O990 1.272 . S
C979 O991 1.245 . S
C980 O968 1.259 . S
C980 O969 1.257 . S
C981 O970 1.253 . S
C981 O971 1.268 . S
C982 O972 1.281 . S
C982 O973 1.252 . S
C983 O974 1.272 . S
C983 O975 1.245 . S
O984 Co960 2.053 . S
O984 C976 1.259 . S
O985 Co962 2.047 . S
O985 C976 1.257 . S
O986 Co961 2.063 . S
O986 C977 1.268 . S
O987 Co960 2.094 . S
O987 C977 1.253 . S
O988 Co967 2.115 . S
O988 C978 1.281 . S
O989 Co967 2.315 . S
O989 C978 1.252 . S
O990 Co960 2.122 . S
O990 C979 1.272 . S
O991 Co962 2.113 . S
O991 C979 1.245 . S
Co992 H995 2.400 . S
Co992 O996 2.009 . S
Co992 O1004 2.115 . S
Co992 O1005 2.315 . S
Co992 O1016 2.053 . S
Co992 O1019 2.094 . S
Co992 O1022 2.122 . S
Co993 O996 2.126 . S
Co993 H997 2.388 . S
Co993 O998 2.053 . S
Co993 O1001 2.047 . S
Co993 O1007 2.113 . S
Co993 O1018 2.063 . S
Co994 H995 2.388 . S
Co994 O996 2.053 . S
Co994 O998 2.126 . S
Co994 O1003 2.063 . S
Co994 O1017 2.047 . S
Co994 O1023 2.113 . S
H995 Co992 2.400 . S
H995 Co994 2.388 . S
H995 O996 0.760 . S
O996 Co992 2.009 . S
O996 Co993 2.126 . S
O996 Co994 2.053 . S
O996 H995 0.760 . S
H997 Co993 2.388 . S
H997 O998 0.760 . S
H997 Co999 2.400 . S
O998 Co993 2.053 . S
O998 Co994 2.126 . S
O998 H997 0.760 . S
O998 Co999 2.009 . S
Co999 H997 2.400 . S
Co999 O998 2.009 . S
Co999 O1000 2.053 . S
Co999 O1002 2.094 . S
Co999 O1006 2.122 . S
Co999 O1020 2.115 . S
Co999 O1021 2.315 . S
O1000 Co999 2.053 . S
O1000 C1012 1.259 . S
O1001 Co993 2.047 . S
O1001 C1012 1.257 . S
O1002 Co999 2.094 . S
O1002 C1013 1.253 . S
O1003 Co994 2.063 . S
O1003 C1013 1.268 . S
O1004 Co992 2.115 . S
O1004 C1014 1.281 . S
O1005 Co992 2.315 . S
O1005 C1014 1.252 . S
O1006 Co999 2.122 . S
O1006 C1015 1.272 . S
O1007 Co993 2.113 . S
O1007 C1015 1.245 . S
C1008 O1016 1.259 . S
C1008 O1017 1.257 . S
C1009 O1018 1.268 . S
C1009 O1019 1.253 . S
C1010 O1020 1.281 . S
C1010 O1021 1.252 . S
C1011 O1022 1.272 . S
C1011 O1023 1.245 . S
C1012 O1000 1.259 . S
C1012 O1001 1.257 . S
C1013 O1002 1.253 . S
C1013 O1003 1.268 . S
C1014 O1004 1.281 . S
C1014 O1005 1.252 . S
C1015 O1006 1.272 . S
C1015 O1007 1.245 . S
O1016 Co992 2.053 . S
O1016 C1008 1.259 . S
O1017 Co994 2.047 . S
O1017 C1008 1.257 . S
O1018 Co993 2.063 . S
O1018 C1009 1.268 . S
O1019 Co992 2.094 . S
O1019 C1009 1.253 . S
O1020 Co999 2.115 . S
O1020 C1010 1.281 . S
O1021 Co999 2.315 . S
O1021 C1010 1.252 . S
O1022 Co992 2.122 . S
O1022 C1011 1.272 . S
O1023 Co994 2.113 . S
O1023 C1011 1.245 . S
C1024 C1025 1.387 1_554 S
C1024 H1028 0.950 . S
C1024 C1033 1.390 . S
C1025 C1024 1.387 1_556 S
C1025 C1027 1.387 . S
H1026 C1033 0.950 . S
C1027 C1025 1.387 . S
C1027 C1029 1.390 . S
C1027 H1031 0.950 . S
H1028 C1024 0.950 . S
C1029 C1027 1.390 . S
C1029 C1030 1.387 . S
C1029 H1032 0.950 . S
C1030 C1029 1.387 . S
C1030 C1033 1.387 1_556 S
H1031 C1027 0.950 . S
H1032 C1029 0.950 . S
C1033 C1024 1.390 . S
C1033 H1026 0.950 . S
C1033 C1030 1.387 1_554 S
C1034 C1035 1.387 1_554 S
C1034 H1038 0.950 . S
C1034 C1043 1.390 . S
C1035 C1034 1.387 1_556 S
C1035 C1037 1.387 . S
H1036 C1043 0.950 . S
C1037 C1035 1.387 . S
C1037 C1039 1.390 . S
C1037 H1041 0.950 . S
H1038 C1034 0.950 . S
C1039 C1037 1.390 . S
C1039 C1040 1.387 . S
C1039 H1042 0.950 . S
C1040 C1039 1.387 . S
C1040 C1043 1.387 1_556 S
H1041 C1037 0.950 . S
H1042 C1039 0.950 . S
C1043 C1034 1.390 . S
C1043 H1036 0.950 . S
C1043 C1040 1.387 1_554 S
C1044 C1045 1.387 . S
C1044 H1048 0.950 . S
C1044 C1053 1.390 . S
C1045 C1044 1.387 . S
C1045 C1047 1.387 . S
H1046 C1053 0.950 . S
C1047 C1045 1.387 . S
C1047 C1049 1.390 . S
C1047 H1051 0.950 . S
H1048 C1044 0.950 . S
C1049 C1047 1.390 . S
C1049 C1050 1.387 . S
C1049 H1052 0.950 . S
C1050 C1049 1.387 . S
C1050 C1053 1.387 . S
H1051 C1047 0.950 . S
H1052 C1049 0.950 . S
C1053 C1044 1.390 . S
C1053 H1046 0.950 . S
C1053 C1050 1.387 . S
C1054 C1055 1.387 . S
C1054 H1058 0.950 . S
C1054 C1063 1.390 . S
C1055 C1054 1.387 . S
C1055 C1057 1.387 . S
H1056 C1063 0.950 . S
C1057 C1055 1.387 . S
C1057 C1059 1.390 . S
C1057 H1061 0.950 . S
H1058 C1054 0.950 . S
C1059 C1057 1.390 . S
C1059 C1060 1.387 . S
C1059 H1062 0.950 . S
C1060 C1059 1.387 . S
C1060 C1063 1.387 . S
H1061 C1057 0.950 . S
H1062 C1059 0.950 . S
C1063 C1054 1.390 . S
C1063 H1056 0.950 . S
C1063 C1060 1.387 . S
C1064 C1065 1.387 1_556 S
C1064 H1068 0.950 . S
C1064 C1073 1.390 . S
C1065 C1064 1.387 1_554 S
C1065 C1067 1.387 . S
H1066 C1073 0.950 . S
C1067 C1065 1.387 . S
C1067 C1069 1.390 . S
C1067 H1071 0.950 . S
H1068 C1064 0.950 . S
C1069 C1067 1.390 . S
C1069 C1070 1.387 . S
C1069 H1072 0.950 . S
C1070 C1069 1.387 . S
C1070 C1073 1.387 1_554 S
H1071 C1067 0.950 . S
H1072 C1069 0.950 . S
C1073 C1064 1.390 . S
C1073 H1066 0.950 . S
C1073 C1070 1.387 1_556 S
C1074 C1075 1.387 1_556 S
C1074 H1078 0.950 . S
C1074 C1083 1.390 . S
C1075 C1074 1.387 1_554 S
C1075 C1077 1.387 . S
H1076 C1083 0.950 . S
C1077 C1075 1.387 . S
C1077 C1079 1.390 . S
C1077 H1081 0.950 . S
H1078 C1074 0.950 . S
C1079 C1077 1.390 . S
C1079 C1080 1.387 . S
C1079 H1082 0.950 . S
C1080 C1079 1.387 . S
C1080 C1083 1.387 1_554 S
H1081 C1077 0.950 . S
H1082 C1079 0.950 . S
C1083 C1074 1.390 . S
C1083 H1076 0.950 . S
C1083 C1080 1.387 1_556 S
C1084 C1085 1.387 . S
C1084 H1088 0.950 . S
C1084 C1093 1.390 . S
C1085 C1084 1.387 . S
C1085 C1087 1.387 . S
H1086 C1093 0.950 . S
C1087 C1085 1.387 . S
C1087 C1089 1.390 . S
C1087 H1091 0.950 . S
H1088 C1084 0.950 . S
C1089 C1087 1.390 . S
C1089 C1090 1.387 . S
C1089 H1092 0.950 . S
C1090 C1089 1.387 . S
C1090 C1093 1.387 . S
H1091 C1087 0.950 . S
H1092 C1089 0.950 . S
C1093 C1084 1.390 . S
C1093 H1086 0.950 . S
C1093 C1090 1.387 . S
C1094 C1095 1.387 . S
C1094 H1098 0.950 . S
C1094 C1103 1.390 . S
C1095 C1094 1.387 . S
C1095 C1097 1.387 . S
H1096 C1103 0.950 . S
C1097 C1095 1.387 . S
C1097 C1099 1.390 . S
C1097 H1101 0.950 . S
H1098 C1094 0.950 . S
C1099 C1097 1.390 . S
C1099 C1100 1.387 . S
C1099 H1102 0.950 . S
C1100 C1099 1.387 . S
C1100 C1103 1.387 . S
H1101 C1097 0.950 . S
H1102 C1099 0.950 . S
C1103 C1094 1.390 . S
C1103 H1096 0.950 . S
C1103 C1100 1.387 . S
C1104 C1105 1.387 . S
C1104 H1108 0.950 . S
C1104 C1113 1.390 . S
C1105 C1104 1.387 . S
C1105 C1107 1.387 . S
H1106 C1113 0.950 . S
C1107 C1105 1.387 . S
C1107 C1109 1.390 . S
C1107 H1111 0.950 . S
H1108 C1104 0.950 . S
C1109 C1107 1.390 . S
C1109 C1110 1.387 . S
C1109 H1112 0.950 . S
C1110 C1109 1.387 . S
C1110 C1113 1.387 . S
H1111 C1107 0.950 . S
H1112 C1109 0.950 . S
C1113 C1104 1.390 . S
C1113 H1106 0.950 . S
C1113 C1110 1.387 . S
C1114 C1115 1.387 . S
C1114 H1118 0.950 . S
C1114 C1123 1.390 . S
C1115 C1114 1.387 . S
C1115 C1117 1.387 . S
H1116 C1123 0.950 . S
C1117 C1115 1.387 . S
C1117 C1119 1.390 . S
C1117 H1121 0.950 . S
H1118 C1114 0.950 . S
C1119 C1117 1.390 . S
C1119 C1120 1.387 . S
C1119 H1122 0.950 . S
C1120 C1119 1.387 . S
C1120 C1123 1.387 . S
H1121 C1117 0.950 . S
H1122 C1119 0.950 . S
C1123 C1114 1.390 . S
C1123 H1116 0.950 . S
C1123 C1120 1.387 . S
C1124 C1125 1.387 . S
C1124 H1128 0.950 . S
C1124 C1133 1.390 . S
C1125 C1124 1.387 . S
C1125 C1127 1.387 . S
H1126 C1133 0.950 . S
C1127 C1125 1.387 . S
C1127 C1129 1.390 . S
C1127 H1131 0.950 . S
H1128 C1124 0.950 . S
C1129 C1127 1.390 . S
C1129 C1130 1.387 . S
C1129 H1132 0.950 . S
C1130 C1129 1.387 . S
C1130 C1133 1.387 . S
H1131 C1127 0.950 . S
H1132 C1129 0.950 . S
C1133 C1124 1.390 . S
C1133 H1126 0.950 . S
C1133 C1130 1.387 . S
C1134 C1135 1.387 . S
C1134 H1138 0.950 . S
C1134 C1143 1.390 . S
C1135 C1134 1.387 . S
C1135 C1137 1.387 . S
H1136 C1143 0.950 . S
C1137 C1135 1.387 . S
C1137 C1139 1.390 . S
C1137 H1141 0.950 . S
H1138 C1134 0.950 . S
C1139 C1137 1.390 . S
C1139 C1140 1.387 . S
C1139 H1142 0.950 . S
C1140 C1139 1.387 . S
C1140 C1143 1.387 . S
H1141 C1137 0.950 . S
H1142 C1139 0.950 . S
C1143 C1134 1.390 . S
C1143 H1136 0.950 . S
C1143 C1140 1.387 . S
C1144 C1145 1.387 . S
C1144 H1148 0.950 . S
C1144 C1153 1.390 . S
C1145 C1144 1.387 . S
C1145 C1147 1.387 . S
H1146 C1153 0.950 . S
C1147 C1145 1.387 . S
C1147 C1149 1.390 . S
C1147 H1151 0.950 . S
H1148 C1144 0.950 . S
C1149 C1147 1.390 . S
C1149 C1150 1.387 . S
C1149 H1152 0.950 . S
C1150 C1149 1.387 . S
C1150 C1153 1.387 . S
H1151 C1147 0.950 . S
H1152 C1149 0.950 . S
C1153 C1144 1.390 . S
C1153 H1146 0.950 . S
C1153 C1150 1.387 . S
C1154 C1155 1.387 . S
C1154 H1158 0.950 . S
C1154 C1163 1.390 . S
C1155 C1154 1.387 . S
C1155 C1157 1.387 . S
H1156 C1163 0.950 . S
C1157 C1155 1.387 . S
C1157 C1159 1.390 . S
C1157 H1161 0.950 . S
H1158 C1154 0.950 . S
C1159 C1157 1.390 . S
C1159 C1160 1.387 . S
C1159 H1162 0.950 . S
C1160 C1159 1.387 . S
C1160 C1163 1.387 . S
H1161 C1157 0.950 . S
H1162 C1159 0.950 . S
C1163 C1154 1.390 . S
C1163 H1156 0.950 . S
C1163 C1160 1.387 . S
C1164 C1165 1.387 . S
C1164 H1168 0.950 . S
C1164 C1173 1.390 . S
C1165 C1164 1.387 . S
C1165 C1167 1.387 . S
H1166 C1173 0.950 . S
C1167 C1165 1.387 . S
C1167 C1169 1.390 . S
C1167 H1171 0.950 . S
H1168 C1164 0.950 . S
C1169 C1167 1.390 . S
C1169 C1170 1.387 . S
C1169 H1172 0.950 . S
C1170 C1169 1.387 . S
C1170 C1173 1.387 . S
H1171 C1167 0.950 . S
H1172 C1169 0.950 . S
C1173 C1164 1.390 . S
C1173 H1166 0.950 . S
C1173 C1170 1.387 . S
C1174 C1175 1.387 . S
C1174 H1178 0.950 . S
C1174 C1183 1.390 . S
C1175 C1174 1.387 . S
C1175 C1177 1.387 . S
H1176 C1183 0.950 . S
C1177 C1175 1.387 . S
C1177 C1179 1.390 . S
C1177 H1181 0.950 . S
H1178 C1174 0.950 . S
C1179 C1177 1.390 . S
C1179 C1180 1.387 . S
C1179 H1182 0.950 . S
C1180 C1179 1.387 . S
C1180 C1183 1.387 . S
H1181 C1177 0.950 . S
H1182 C1179 0.950 . S
C1183 C1174 1.390 . S
C1183 H1176 0.950 . S
C1183 C1180 1.387 . S
C1184 C1185 1.387 . S
C1184 H1188 0.950 . S
C1184 C1193 1.390 . S
C1185 C1184 1.387 . S
C1185 C1187 1.387 . S
H1186 C1193 0.950 1_554 S
C1187 C1185 1.387 . S
C1187 C1189 1.390 . S
C1187 H1191 0.950 . S
H1188 C1184 0.950 . S
C1189 C1187 1.390 . S
C1189 C1190 1.387 1_556 S
C1189 H1192 0.950 . S
C1190 C1189 1.387 1_554 S
C1190 C1193 1.387 1_554 S
H1191 C1187 0.950 . S
H1192 C1189 0.950 . S
C1193 C1184 1.390 . S
C1193 H1186 0.950 1_556 S
C1193 C1190 1.387 1_556 S
C1194 C1195 1.387 . S
C1194 H1198 0.950 . S
C1194 C1203 1.390 . S
C1195 C1194 1.387 . S
C1195 C1197 1.387 . S
H1196 C1203 0.950 . S
C1197 C1195 1.387 . S
C1197 C1199 1.390 1_554 S
C1197 H1201 0.950 . S
H1198 C1194 0.950 . S
C1199 C1197 1.390 1_556 S
C1199 C1200 1.387 . S
C1199 H1202 0.950 . S
C1200 C1199 1.387 . S
C1200 C1203 1.387 1_556 S
H1201 C1197 0.950 . S
H1202 C1199 0.950 . S
C1203 C1194 1.390 . S
C1203 H1196 0.950 . S
C1203 C1200 1.387 1_554 S
C1204 C1205 1.387 . S
C1204 H1208 0.950 . S
C1204 C1213 1.390 . S
C1205 C1204 1.387 . S
C1205 C1207 1.387 . S
H1206 C1213 0.950 . S
C1207 C1205 1.387 . S
C1207 C1209 1.390 . S
C1207 H1211 0.950 . S
H1208 C1204 0.950 . S
C1209 C1207 1.390 . S
C1209 C1210 1.387 . S
C1209 H1212 0.950 . S
C1210 C1209 1.387 . S
C1210 C1213 1.387 . S
H1211 C1207 0.950 . S
H1212 C1209 0.950 . S
C1213 C1204 1.390 . S
C1213 H1206 0.950 . S
C1213 C1210 1.387 . S
C1214 C1215 1.387 . S
C1214 H1218 0.950 . S
C1214 C1223 1.390 . S
C1215 C1214 1.387 . S
C1215 C1217 1.387 . S
H1216 C1223 0.950 . S
C1217 C1215 1.387 . S
C1217 C1219 1.390 . S
C1217 H1221 0.950 . S
H1218 C1214 0.950 . S
C1219 C1217 1.390 . S
C1219 C1220 1.387 . S
C1219 H1222 0.950 . S
C1220 C1219 1.387 . S
C1220 C1223 1.387 . S
H1221 C1217 0.950 . S
H1222 C1219 0.950 . S
C1223 C1214 1.390 . S
C1223 H1216 0.950 . S
C1223 C1220 1.387 . S
C1224 C1225 1.387 . S
C1224 H1228 0.950 . S
C1224 C1233 1.390 . S
C1225 C1224 1.387 . S
C1225 C1227 1.387 . S
H1226 C1233 0.950 . S
C1227 C1225 1.387 . S
C1227 C1229 1.390 1_554 S
C1227 H1231 0.950 . S
H1228 C1224 0.950 . S
C1229 C1227 1.390 1_556 S
C1229 C1230 1.387 . S
C1229 H1232 0.950 . S
C1230 C1229 1.387 . S
C1230 C1233 1.387 1_556 S
H1231 C1227 0.950 . S
H1232 C1229 0.950 . S
C1233 C1224 1.390 . S
C1233 H1226 0.950 . S
C1233 C1230 1.387 1_554 S
C1234 C1235 1.387 1_556 S
C1234 H1238 0.950 . S
C1234 C1243 1.390 . S
C1235 C1234 1.387 1_554 S
C1235 C1237 1.387 . S
H1236 C1243 0.950 . S
C1237 C1235 1.387 . S
C1237 C1239 1.390 . S
C1237 H1241 0.950 . S
H1238 C1234 0.950 . S
C1239 C1237 1.390 . S
C1239 C1240 1.387 1_554 S
C1239 H1242 0.950 . S
C1240 C1239 1.387 1_556 S
C1240 C1243 1.387 . S
H1241 C1237 0.950 . S
H1242 C1239 0.950 . S
C1243 C1234 1.390 . S
C1243 H1236 0.950 . S
C1243 C1240 1.387 . S
C1244 C1245 1.387 . S
C1244 H1248 0.950 . S
C1244 C1253 1.390 . S
C1245 C1244 1.387 . S
C1245 C1247 1.387 . S
H1246 C1253 0.950 . S
C1247 C1245 1.387 . S
C1247 C1249 1.390 . S
C1247 H1251 0.950 . S
H1248 C1244 0.950 . S
C1249 C1247 1.390 . S
C1249 C1250 1.387 . S
C1249 H1252 0.950 . S
C1250 C1249 1.387 . S
C1250 C1253 1.387 . S
H1251 C1247 0.950 . S
H1252 C1249 0.950 . S
C1253 C1244 1.390 . S
C1253 H1246 0.950 . S
C1253 C1250 1.387 . S
C1254 C1255 1.387 . S
C1254 H1258 0.950 . S
C1254 C1263 1.390 . S
C1255 C1254 1.387 . S
C1255 C1257 1.387 . S
H1256 C1263 0.950 . S
C1257 C1255 1.387 . S
C1257 C1259 1.390 . S
C1257 H1261 0.950 . S
H1258 C1254 0.950 . S
C1259 C1257 1.390 . S
C1259 C1260 1.387 . S
C1259 H1262 0.950 . S
C1260 C1259 1.387 . S
C1260 C1263 1.387 . S
H1261 C1257 0.950 . S
H1262 C1259 0.950 . S
C1263 C1254 1.390 . S
C1263 H1256 0.950 . S
C1263 C1260 1.387 . S
C1264 C1265 1.387 . S
C1264 H1268 0.950 . S
C1264 C1273 1.390 . S
C1265 C1264 1.387 . S
C1265 C1267 1.387 . S
H1266 C1273 0.950 . S
C1267 C1265 1.387 . S
C1267 C1269 1.390 . S
C1267 H1271 0.950 1_565 S
H1268 C1264 0.950 . S
C1269 C1267 1.390 . S
C1269 C1270 1.387 . S
C1269 H1272 0.950 . S
C1270 C1269 1.387 . S
C1270 C1273 1.387 . S
H1271 C1267 0.950 1_545 S
H1272 C1269 0.950 . S
C1273 C1264 1.390 . S
C1273 H1266 0.950 . S
C1273 C1270 1.387 . S
C1274 C1275 1.387 . S
C1274 H1278 0.950 . S
C1274 C1283 1.390 . S
C1275 C1274 1.387 . S
C1275 C1277 1.387 . S
H1276 C1283 0.950 . S
C1277 C1275 1.387 . S
C1277 C1279 1.390 . S
C1277 H1281 0.950 . S
H1278 C1274 0.950 . S
C1279 C1277 1.390 . S
C1279 C1280 1.387 . S
C1279 H1282 0.950 . S
C1280 C1279 1.387 . S
C1280 C1283 1.387 . S
H1281 C1277 0.950 . S
H1282 C1279 0.950 . S
C1283 C1274 1.390 . S
C1283 H1276 0.950 . S
C1283 C1280 1.387 . S
C1284 C1285 1.387 . S
C1284 H1288 0.950 . S
C1284 C1293 1.390 . S
C1285 C1284 1.387 . S
C1285 C1287 1.387 . S
H1286 C1293 0.950 . S
C1287 C1285 1.387 . S
C1287 C1289 1.390 . S
C1287 H1291 0.950 . S
H1288 C1284 0.950 . S
C1289 C1287 1.390 . S
C1289 C1290 1.387 . S
C1289 H1292 0.950 . S
C1290 C1289 1.387 . S
C1290 C1293 1.387 . S
H1291 C1287 0.950 . S
H1292 C1289 0.950 . S
C1293 C1284 1.390 . S
C1293 H1286 0.950 . S
C1293 C1290 1.387 . S
C1294 C1295 1.387 . S
C1294 H1298 0.950 1_565 S
C1294 C1303 1.390 . S
C1295 C1294 1.387 . S
C1295 C1297 1.387 . S
H1296 C1303 0.950 . S
C1297 C1295 1.387 . S
C1297 C1299 1.390 . S
C1297 H1301 0.950 . S
H1298 C1294 0.950 1_545 S
C1299 C1297 1.390 . S
C1299 C1300 1.387 . S
C1299 H1302 0.950 . S
C1300 C1299 1.387 . S
C1300 C1303 1.387 . S
H1301 C1297 0.950 . S
H1302 C1299 0.950 . S
C1303 C1294 1.390 . S
C1303 H1296 0.950 . S
C1303 C1300 1.387 . S
C1304 C1305 1.387 . S
C1304 H1308 0.950 . S
C1304 C1313 1.390 . S
C1305 C1304 1.387 . S
C1305 C1307 1.387 . S
H1306 C1313 0.950 . S
C1307 C1305 1.387 . S
C1307 C1309 1.390 . S
C1307 H1311 0.950 . S
H1308 C1304 0.950 . S
C1309 C1307 1.390 . S
C1309 C1310 1.387 . S
C1309 H1312 0.950 . S
C1310 C1309 1.387 . S
C1310 C1313 1.387 . S
H1311 C1307 0.950 . S
H1312 C1309 0.950 . S
C1313 C1304 1.390 . S
C1313 H1306 0.950 . S
C1313 C1310 1.387 . S
C1314 C1315 1.387 . S
C1314 H1318 0.950 . S
C1314 C1323 1.390 . S
C1315 C1314 1.387 . S
C1315 C1317 1.387 . S
H1316 C1323 0.950 . S
C1317 C1315 1.387 . S
C1317 C1319 1.390 . S
C1317 H1321 0.950 . S
H1318 C1314 0.950 . S
C1319 C1317 1.390 . S
C1319 C1320 1.387 . S
C1319 H1322 0.950 . S
C1320 C1319 1.387 . S
C1320 C1323 1.387 . S
H1321 C1317 0.950 . S
H1322 C1319 0.950 . S
C1323 C1314 1.390 . S
C1323 H1316 0.950 . S
C1323 C1320 1.387 . S
C1324 C1325 1.387 . S
C1324 H1328 0.950 . S
C1324 C1333 1.390 . S
C1325 C1324 1.387 . S
C1325 C1327 1.387 . S
H1326 C1333 0.950 . S
C1327 C1325 1.387 . S
C1327 C1329 1.390 . S
C1327 H1331 0.950 . S
H1328 C1324 0.950 . S
C1329 C1327 1.390 . S
C1329 C1330 1.387 . S
C1329 H1332 0.950 . S
C1330 C1329 1.387 . S
C1330 C1333 1.387 . S
H1331 C1327 0.950 . S
H1332 C1329 0.950 . S
C1333 C1324 1.390 . S
C1333 H1326 0.950 . S
C1333 C1330 1.387 . S
C1334 C1335 1.387 . S
C1334 H1338 0.950 . S
C1334 C1343 1.390 . S
C1335 C1334 1.387 . S
C1335 C1337 1.387 . S
H1336 C1343 0.950 . S
C1337 C1335 1.387 . S
C1337 C1339 1.390 . S
C1337 H1341 0.950 . S
H1338 C1334 0.950 . S
C1339 C1337 1.390 . S
C1339 C1340 1.387 . S
C1339 H1342 0.950 1_545 S
C1340 C1339 1.387 . S
C1340 C1343 1.387 . S
H1341 C1337 0.950 . S
H1342 C1339 0.950 1_565 S
C1343 C1334 1.390 . S
C1343 H1336 0.950 . S
C1343 C1340 1.387 . S
C1344 C1345 1.387 . S
C1344 H1348 0.950 . S
C1344 C1353 1.390 . S
C1345 C1344 1.387 . S
C1345 C1347 1.387 . S
H1346 C1353 0.950 . S
C1347 C1345 1.387 . S
C1347 C1349 1.390 . S
C1347 H1351 0.950 . S
H1348 C1344 0.950 . S
C1349 C1347 1.390 . S
C1349 C1350 1.387 . S
C1349 H1352 0.950 . S
C1350 C1349 1.387 . S
C1350 C1353 1.387 . S
H1351 C1347 0.950 . S
H1352 C1349 0.950 . S
C1353 C1344 1.390 . S
C1353 H1346 0.950 . S
C1353 C1350 1.387 . S
C1354 C1355 1.387 . S
C1354 H1358 0.950 . S
C1354 C1363 1.390 . S
C1355 C1354 1.387 . S
C1355 C1357 1.387 . S
H1356 C1363 0.950 . S
C1357 C1355 1.387 . S
C1357 C1359 1.390 . S
C1357 H1361 0.950 . S
H1358 C1354 0.950 . S
C1359 C1357 1.390 . S
C1359 C1360 1.387 . S
C1359 H1362 0.950 . S
C1360 C1359 1.387 . S
C1360 C1363 1.387 . S
H1361 C1357 0.950 . S
H1362 C1359 0.950 . S
C1363 C1354 1.390 . S
C1363 H1356 0.950 . S
C1363 C1360 1.387 . S
C1364 C1365 1.387 . S
C1364 H1368 0.950 . S
C1364 C1373 1.390 . S
C1365 C1364 1.387 . S
C1365 C1367 1.387 . S
H1366 C1373 0.950 . S
C1367 C1365 1.387 . S
C1367 C1369 1.390 . S
C1367 H1371 0.950 . S
H1368 C1364 0.950 . S
C1369 C1367 1.390 . S
C1369 C1370 1.387 . S
C1369 H1372 0.950 . S
C1370 C1369 1.387 . S
C1370 C1373 1.387 . S
H1371 C1367 0.950 . S
H1372 C1369 0.950 . S
C1373 C1364 1.390 . S
C1373 H1366 0.950 . S
C1373 C1370 1.387 . S
C1374 C1375 1.387 . S
C1374 H1378 0.950 . S
C1374 C1383 1.390 . S
C1375 C1374 1.387 . S
C1375 C1377 1.387 . S
H1376 C1383 0.950 . S
C1377 C1375 1.387 . S
C1377 C1379 1.390 . S
C1377 H1381 0.950 . S
H1378 C1374 0.950 . S
C1379 C1377 1.390 . S
C1379 C1380 1.387 . S
C1379 H1382 0.950 . S
C1380 C1379 1.387 . S
C1380 C1383 1.387 . S
H1381 C1377 0.950 . S
H1382 C1379 0.950 . S
C1383 C1374 1.390 . S
C1383 H1376 0.950 . S
C1383 C1380 1.387 . S
C1384 C1385 1.387 . S
C1384 H1388 0.950 . S
C1384 C1393 1.390 . S
C1385 C1384 1.387 . S
C1385 C1387 1.387 . S
H1386 C1393 0.950 . S
C1387 C1385 1.387 . S
C1387 C1389 1.390 . S
C1387 H1391 0.950 . S
H1388 C1384 0.950 . S
C1389 C1387 1.390 . S
C1389 C1390 1.387 . S
C1389 H1392 0.950 . S
C1390 C1389 1.387 . S
C1390 C1393 1.387 . S
H1391 C1387 0.950 . S
H1392 C1389 0.950 . S
C1393 C1384 1.390 . S
C1393 H1386 0.950 . S
C1393 C1390 1.387 . S
C1394 C1395 1.387 . S
C1394 H1398 0.950 . S
C1394 C1403 1.390 . S
C1395 C1394 1.387 . S
C1395 C1397 1.387 . S
H1396 C1403 0.950 . S
C1397 C1395 1.387 . S
C1397 C1399 1.390 . S
C1397 H1401 0.950 . S
H1398 C1394 0.950 . S
C1399 C1397 1.390 . S
C1399 C1400 1.387 . S
C1399 H1402 0.950 . S
C1400 C1399 1.387 . S
C1400 C1403 1.387 . S
H1401 C1397 0.950 . S
H1402 C1399 0.950 . S
C1403 C1394 1.390 . S
C1403 H1396 0.950 . S
C1403 C1400 1.387 . S
C1404 C1405 1.387 . S
C1404 H1408 0.950 . S
C1404 C1413 1.390 . S
C1405 C1404 1.387 . S
C1405 C1407 1.387 . S
H1406 C1413 0.950 . S
C1407 C1405 1.387 . S
C1407 C1409 1.390 . S
C1407 H1411 0.950 . S
H1408 C1404 0.950 . S
C1409 C1407 1.390 . S
C1409 C1410 1.387 . S
C1409 H1412 0.950 . S
C1410 C1409 1.387 . S
C1410 C1413 1.387 . S
H1411 C1407 0.950 . S
H1412 C1409 0.950 . S
C1413 C1404 1.390 . S
C1413 H1406 0.950 . S
C1413 C1410 1.387 . S
C1414 C1415 1.387 . S
C1414 H1418 0.950 . S
C1414 C1423 1.390 . S
C1415 C1414 1.387 . S
C1415 C1417 1.387 . S
H1416 C1423 0.950 . S
C1417 C1415 1.387 . S
C1417 C1419 1.390 . S
C1417 H1421 0.950 . S
H1418 C1414 0.950 . S
C1419 C1417 1.390 . S
C1419 C1420 1.387 . S
C1419 H1422 0.950 . S
C1420 C1419 1.387 . S
C1420 C1423 1.387 . S
H1421 C1417 0.950 . S
H1422 C1419 0.950 . S
C1423 C1414 1.390 . S
C1423 H1416 0.950 . S
C1423 C1420 1.387 . S
C1424 C1425 1.387 . S
C1424 H1428 0.950 . S
C1424 C1433 1.390 . S
C1425 C1424 1.387 . S
C1425 C1427 1.387 . S
H1426 C1433 0.950 . S
C1427 C1425 1.387 . S
C1427 C1429 1.390 1_556 S
C1427 H1431 0.950 1_566 S
H1428 C1424 0.950 . S
C1429 C1427 1.390 1_554 S
C1429 C1430 1.387 . S
C1429 H1432 0.950 . S
C1430 C1429 1.387 . S
C1430 C1433 1.387 1_554 S
H1431 C1427 0.950 1_544 S
H1432 C1429 0.950 . S
C1433 C1424 1.390 . S
C1433 H1426 0.950 . S
C1433 C1430 1.387 1_556 S
C1434 C1435 1.387 1_554 S
C1434 H1438 0.950 . S
C1434 C1443 1.390 . S
C1435 C1434 1.387 1_556 S
C1435 C1437 1.387 . S
H1436 C1443 0.950 . S
C1437 C1435 1.387 . S
C1437 C1439 1.390 1_556 S
C1437 H1441 0.950 . S
H1438 C1434 0.950 . S
C1439 C1437 1.390 1_554 S
C1439 C1440 1.387 . S
C1439 H1442 0.950 . S
C1440 C1439 1.387 . S
C1440 C1443 1.387 . S
H1441 C1437 0.950 . S
H1442 C1439 0.950 . S
C1443 C1434 1.390 . S
C1443 H1436 0.950 . S
C1443 C1440 1.387 . S
C1444 C1445 1.387 . S
C1444 H1448 0.950 . S
C1444 C1453 1.390 . S
C1445 C1444 1.387 . S
C1445 C1447 1.387 . S
H1446 C1453 0.950 . S
C1447 C1445 1.387 . S
C1447 C1449 1.390 . S
C1447 H1451 0.950 . S
H1448 C1444 0.950 . S
C1449 C1447 1.390 . S
C1449 C1450 1.387 . S
C1449 H1452 0.950 . S
C1450 C1449 1.387 . S
C1450 C1453 1.387 . S
H1451 C1447 0.950 . S
H1452 C1449 0.950 . S
C1453 C1444 1.390 . S
C1453 H1446 0.950 . S
C1453 C1450 1.387 . S
C1454 C1455 1.387 . S
C1454 H1458 0.950 . S
C1454 C1463 1.390 . S
C1455 C1454 1.387 . S
C1455 C1457 1.387 . S
H1456 C1463 0.950 . S
C1457 C1455 1.387 . S
C1457 C1459 1.390 . S
C1457 H1461 0.950 . S
H1458 C1454 0.950 . S
C1459 C1457 1.390 . S
C1459 C1460 1.387 . S
C1459 H1462 0.950 . S
C1460 C1459 1.387 . S
C1460 C1463 1.387 . S
H1461 C1457 0.950 . S
H1462 C1459 0.950 . S
C1463 C1454 1.390 . S
C1463 H1456 0.950 . S
C1463 C1460 1.387 . S
C1464 C1465 1.387 . S
C1464 H1468 0.950 . S
C1464 C1473 1.395 . S
C1465 C1464 1.387 . S
C1465 C1467 1.387 1_556 S
H1466 C1473 0.953 1_565 S
C1467 C1465 1.387 1_554 S
C1467 C1469 1.390 . S
C1467 H1471 0.950 . S
H1468 C1464 0.950 . S
C1469 C1467 1.390 . S
C1469 C1470 1.387 . S
C1469 H1472 0.950 . S
C1470 C1469 1.387 . S
C1470 C1473 1.380 1_554 S
H1471 C1467 0.950 . S
H1472 C1469 0.950 . S
C1473 C1464 1.395 . S
C1473 H1466 0.953 1_545 S
C1473 C1470 1.380 1_556 S
C1474 C1475 1.387 . S
C1474 H1478 0.950 . S
C1474 C1483 1.390 1_556 S
C1475 C1474 1.387 . S
C1475 C1477 1.387 . S
H1476 C1483 0.950 . S
C1477 C1475 1.387 . S
C1477 C1479 1.390 . S
C1477 H1481 0.950 . S
H1478 C1474 0.950 . S
C1479 C1477 1.390 . S
C1479 C1480 1.387 1_556 S
C1479 H1482 0.950 . S
C1480 C1479 1.387 1_554 S
C1480 C1483 1.387 . S
H1481 C1477 0.950 . S
H1482 C1479 0.950 . S
C1483 C1474 1.390 1_554 S
C1483 H1476 0.950 . S
C1483 C1480 1.387 . S
C1484 C1485 1.387 . S
C1484 H1488 0.950 . S
C1484 C1493 1.390 . S
C1485 C1484 1.387 . S
C1485 C1487 1.387 . S
H1486 C1493 0.950 . S
C1487 C1485 1.387 . S
C1487 C1489 1.390 . S
C1487 H1491 0.950 . S
H1488 C1484 0.950 . S
C1489 C1487 1.390 . S
C1489 C1490 1.387 . S
C1489 H1492 0.950 . S
C1490 C1489 1.387 . S
C1490 C1493 1.387 . S
H1491 C1487 0.950 . S
H1492 C1489 0.950 . S
C1493 C1484 1.390 . S
C1493 H1486 0.950 . S
C1493 C1490 1.387 . S
C1494 C1495 1.387 . S
C1494 H1498 0.950 . S
C1494 C1503 1.390 . S
C1495 C1494 1.387 . S
C1495 C1497 1.387 . S
H1496 C1503 0.950 . S
C1497 C1495 1.387 . S
C1497 C1499 1.390 . S
C1497 H1501 0.950 . S
H1498 C1494 0.950 . S
C1499 C1497 1.390 . S
C1499 C1500 1.387 . S
C1499 H1502 0.950 . S
C1500 C1499 1.387 . S
C1500 C1503 1.387 . S
H1501 C1497 0.950 . S
H1502 C1499 0.950 . S
C1503 C1494 1.390 . S
C1503 H1496 0.950 . S
C1503 C1500 1.387 . S
C1504 C1505 1.387 1_655 S
C1504 H1508 0.950 . S
C1504 C1513 1.390 . S
C1505 C1504 1.387 1_455 S
C1505 C1507 1.387 . S
H1506 C1513 0.950 . S
C1507 C1505 1.387 . S
C1507 C1509 1.390 . S
C1507 H1511 0.950 . S
H1508 C1504 0.950 . S
C1509 C1507 1.390 . S
C1509 C1510 1.387 . S
C1509 H1512 0.950 . S
C1510 C1509 1.387 . S
C1510 C1513 1.387 1_455 S
H1511 C1507 0.950 . S
H1512 C1509 0.950 . S
C1513 C1504 1.390 . S
C1513 H1506 0.950 . S
C1513 C1510 1.387 1_655 S
C1514 C1515 1.387 . S
C1514 H1518 0.950 . S
C1514 C1523 1.390 . S
C1515 C1514 1.387 . S
C1515 C1517 1.387 . S
H1516 C1523 0.950 . S
C1517 C1515 1.387 . S
C1517 C1519 1.390 . S
C1517 H1521 0.950 . S
H1518 C1514 0.950 . S
C1519 C1517 1.390 . S
C1519 C1520 1.387 . S
C1519 H1522 0.950 . S
C1520 C1519 1.387 . S
C1520 C1523 1.387 . S
H1521 C1517 0.950 . S
H1522 C1519 0.950 . S
C1523 C1514 1.390 . S
C1523 H1516 0.950 . S
C1523 C1520 1.387 . S
C1524 C1525 1.387 1_455 S
C1524 H1528 0.950 . S
C1524 C1533 1.390 . S
C1525 C1524 1.387 1_655 S
C1525 C1527 1.395 . S
H1526 C1533 0.950 1_565 S
C1527 C1525 1.395 . S
C1527 C1529 1.374 1_655 S
C1527 H1531 0.960 . S
H1528 C1524 0.950 . S
C1529 C1527 1.374 1_455 S
C1529 C1530 1.387 . S
C1529 H1532 0.950 . S
C1530 C1529 1.387 . S
C1530 C1533 1.387 . S
H1531 C1527 0.960 . S
H1532 C1529 0.950 . S
C1533 C1524 1.390 . S
C1533 H1526 0.950 1_545 S
C1533 C1530 1.387 . S
C1534 C1535 1.387 . S
C1534 H1538 0.950 . S
C1534 C1543 1.390 . S
C1535 C1534 1.387 . S
C1535 C1537 1.387 . S
H1536 C1543 0.950 . S
C1537 C1535 1.387 . S
C1537 C1539 1.390 . S
C1537 H1541 0.950 . S
H1538 C1534 0.950 . S
C1539 C1537 1.390 . S
C1539 C1540 1.387 . S
C1539 H1542 0.950 . S
C1540 C1539 1.387 . S
C1540 C1543 1.387 . S
H1541 C1537 0.950 . S
H1542 C1539 0.950 . S
C1543 C1534 1.390 . S
C1543 H1536 0.950 . S
C1543 C1540 1.387 . S
C1544 C1545 1.387 1_455 S
C1544 H1548 0.950 . S
C1544 C1553 1.390 . S
C1545 C1544 1.387 1_655 S
C1545 C1547 1.387 . S
H1546 C1553 0.950 . S
C1547 C1545 1.387 . S
C1547 C1549 1.390 . S
C1547 H1551 0.950 . S
H1548 C1544 0.950 . S
C1549 C1547 1.390 . S
C1549 C1550 1.387 . S
C1549 H1552 0.950 . S
C1550 C1549 1.387 . S
C1550 C1553 1.387 1_655 S
H1551 C1547 0.950 . S
H1552 C1549 0.950 . S
C1553 C1544 1.390 . S
C1553 H1546 0.950 . S
C1553 C1550 1.387 1_455 S
C1554 C1555 1.387 . S
C1554 H1558 0.950 . S
C1554 C1563 1.390 . S
C1555 C1554 1.387 . S
C1555 C1557 1.387 . S
H1556 C1563 0.950 . S
C1557 C1555 1.387 . S
C1557 C1559 1.390 . S
C1557 H1561 0.950 . S
H1558 C1554 0.950 . S
C1559 C1557 1.390 . S
C1559 C1560 1.387 . S
C1559 H1562 0.950 . S
C1560 C1559 1.387 . S
C1560 C1563 1.387 . S
H1561 C1557 0.950 . S
H1562 C1559 0.950 . S
C1563 C1554 1.390 . S
C1563 H1556 0.950 . S
C1563 C1560 1.387 . S
C1564 C1565 1.387 . S
C1564 H1568 0.950 . S
C1564 C1573 1.390 . S
C1565 C1564 1.387 . S
C1565 C1567 1.387 1_455 S
H1566 C1573 0.950 . S
C1567 C1565 1.387 1_655 S
C1567 C1569 1.390 . S
C1567 H1571 0.950 . S
H1568 C1564 0.950 . S
C1569 C1567 1.390 . S
C1569 C1570 1.387 . S
C1569 H1572 0.950 . S
C1570 C1569 1.387 . S
C1570 C1573 1.387 1_655 S
H1571 C1567 0.950 . S
H1572 C1569 0.950 . S
C1573 C1564 1.390 . S
C1573 H1566 0.950 . S
C1573 C1570 1.387 1_455 S
C1574 C1575 1.387 . S
C1574 H1578 0.950 . S
C1574 C1583 1.390 . S
C1575 C1574 1.387 . S
C1575 C1577 1.387 . S
H1576 C1583 0.950 . S
C1577 C1575 1.387 . S
C1577 C1579 1.390 . S
C1577 H1581 0.950 . S
H1578 C1574 0.950 . S
C1579 C1577 1.390 . S
C1579 C1580 1.387 . S
C1579 H1582 0.950 . S
C1580 C1579 1.387 . S
C1580 C1583 1.387 . S
H1581 C1577 0.950 . S
H1582 C1579 0.950 . S
C1583 C1574 1.390 . S
C1583 H1576 0.950 . S
C1583 C1580 1.387 . S
C1584 C1585 1.387 1_655 S
C1584 H1588 0.950 . S
C1584 C1593 1.390 . S
C1585 C1584 1.387 1_455 S
C1585 C1587 1.387 . S
H1586 C1593 0.950 . S
C1587 C1585 1.387 . S
C1587 C1589 1.390 . S
C1587 H1591 0.950 . S
H1588 C1584 0.950 . S
C1589 C1587 1.390 . S
C1589 C1590 1.387 . S
C1589 H1592 0.950 . S
C1590 C1589 1.387 . S
C1590 C1593 1.387 1_455 S
H1591 C1587 0.950 . S
H1592 C1589 0.950 . S
C1593 C1584 1.390 . S
C1593 H1586 0.950 . S
C1593 C1590 1.387 1_655 S
C1594 C1595 1.387 . S
C1594 H1598 0.950 . S
C1594 C1603 1.390 . S
C1595 C1594 1.387 . S
C1595 C1597 1.387 . S
H1596 C1603 0.950 . S
C1597 C1595 1.387 . S
C1597 C1599 1.390 . S
C1597 H1601 0.950 . S
H1598 C1594 0.950 . S
C1599 C1597 1.390 . S
C1599 C1600 1.387 . S
C1599 H1602 0.950 . S
C1600 C1599 1.387 . S
C1600 C1603 1.387 . S
H1601 C1597 0.950 . S
H1602 C1599 0.950 . S
C1603 C1594 1.390 . S
C1603 H1596 0.950 . S
C1603 C1600 1.387 . S
C1604 C1605 1.387 . S
C1604 H1608 0.950 . S
C1604 C1613 1.390 . S
C1605 C1604 1.387 . S
C1605 C1607 1.387 . S
H1606 C1613 0.950 . S
C1607 C1605 1.387 . S
C1607 C1609 1.390 1_455 S
C1607 H1611 0.950 . S
H1608 C1604 0.950 . S
C1609 C1607 1.390 1_655 S
C1609 C1610 1.387 . S
C1609 H1612 0.950 . S
C1610 C1609 1.387 . S
C1610 C1613 1.387 1_655 S
H1611 C1607 0.950 . S
H1612 C1609 0.950 . S
C1613 C1604 1.390 . S
C1613 H1606 0.950 . S
C1613 C1610 1.387 1_455 S
C1614 C1615 1.387 . S
C1614 H1618 0.950 . S
C1614 C1623 1.390 . S
C1615 C1614 1.387 . S
C1615 C1617 1.387 . S
H1616 C1623 0.950 . S
C1617 C1615 1.387 . S
C1617 C1619 1.390 . S
C1617 H1621 0.950 . S
H1618 C1614 0.950 . S
C1619 C1617 1.390 . S
C1619 C1620 1.387 . S
C1619 H1622 0.950 . S
C1620 C1619 1.387 . S
C1620 C1623 1.387 . S
H1621 C1617 0.950 . S
H1622 C1619 0.950 . S
C1623 C1614 1.390 . S
C1623 H1616 0.950 . S
C1623 C1620 1.387 . S
C1624 C1625 1.387 1_455 S
C1624 H1628 0.950 . S
C1624 C1633 1.390 . S
C1625 C1624 1.387 1_655 S
C1625 C1627 1.387 . S
H1626 C1633 0.950 . S
C1627 C1625 1.387 . S
C1627 C1629 1.390 . S
C1627 H1631 0.950 . S
H1628 C1624 0.950 . S
C1629 C1627 1.390 . S
C1629 C1630 1.387 . S
C1629 H1632 0.950 . S
C1630 C1629 1.387 . S
C1630 C1633 1.387 1_655 S
H1631 C1627 0.950 . S
H1632 C1629 0.950 . S
C1633 C1624 1.390 . S
C1633 H1626 0.950 . S
C1633 C1630 1.387 1_455 S
C1634 C1635 1.387 . S
C1634 H1638 0.950 . S
C1634 C1643 1.390 . S
C1635 C1634 1.387 . S
C1635 C1637 1.387 . S
H1636 C1643 0.950 . S
C1637 C1635 1.387 . S
C1637 C1639 1.390 . S
C1637 H1641 0.950 . S
H1638 C1634 0.950 . S
C1639 C1637 1.390 . S
C1639 C1640 1.387 . S
C1639 H1642 0.950 . S
C1640 C1639 1.387 . S
C1640 C1643 1.387 . S
H1641 C1637 0.950 . S
H1642 C1639 0.950 . S
C1643 C1634 1.390 . S
C1643 H1636 0.950 . S
C1643 C1640 1.387 . S
C1644 C1645 1.387 1_455 S
C1644 H1648 0.950 . S
C1644 C1653 1.390 . S
C1645 C1644 1.387 1_655 S
C1645 C1647 1.387 . S
H1646 C1653 0.950 . S
C1647 C1645 1.387 . S
C1647 C1649 1.390 . S
C1647 H1651 0.950 . S
H1648 C1644 0.950 . S
C1649 C1647 1.390 . S
C1649 C1650 1.387 1_655 S
C1649 H1652 0.950 . S
C1650 C1649 1.387 1_455 S
C1650 C1653 1.387 . S
H1651 C1647 0.950 . S
H1652 C1649 0.950 . S
C1653 C1644 1.390 . S
C1653 H1646 0.950 . S
C1653 C1650 1.387 . S
C1654 C1655 1.387 . S
C1654 H1658 0.950 . S
C1654 C1663 1.390 . S
C1655 C1654 1.387 . S
C1655 C1657 1.387 . S
H1656 C1663 0.950 . S
C1657 C1655 1.387 . S
C1657 C1659 1.390 . S
C1657 H1661 0.950 . S
H1658 C1654 0.950 . S
C1659 C1657 1.390 . S
C1659 C1660 1.387 . S
C1659 H1662 0.950 . S
C1660 C1659 1.387 . S
C1660 C1663 1.387 . S
H1661 C1657 0.950 . S
H1662 C1659 0.950 . S
C1663 C1654 1.390 . S
C1663 H1656 0.950 . S
C1663 C1660 1.387 . S
C1664 C1665 1.387 . S
C1664 H1668 0.950 . S
C1664 C1673 1.390 . S
C1665 C1664 1.387 . S
C1665 C1667 1.387 . S
H1666 C1673 0.950 . S
C1667 C1665 1.387 . S
C1667 C1669 1.390 . S
C1667 H1671 0.950 . S
H1668 C1664 0.950 . S
C1669 C1667 1.390 . S
C1669 C1670 1.387 . S
C1669 H1672 0.950 . S
C1670 C1669 1.387 . S
C1670 C1673 1.387 . S
H1671 C1667 0.950 . S
H1672 C1669 0.950 . S
C1673 C1664 1.390 . S
C1673 H1666 0.950 . S
C1673 C1670 1.387 . S
C1674 C1675 1.387 . S
C1674 H1678 0.950 . S
C1674 C1683 1.390 . S
C1675 C1674 1.387 . S
C1675 C1677 1.387 . S
H1676 C1683 0.950 . S
C1677 C1675 1.387 . S
C1677 C1679 1.390 . S
C1677 H1681 0.950 . S
H1678 C1674 0.950 . S
C1679 C1677 1.390 . S
C1679 C1680 1.387 . S
C1679 H1682 0.950 . S
C1680 C1679 1.387 . S
C1680 C1683 1.387 . S
H1681 C1677 0.950 . S
H1682 C1679 0.950 . S
C1683 C1674 1.390 . S
C1683 H1676 0.950 . S
C1683 C1680 1.387 . S
C1684 C1685 1.387 . S
C1684 H1688 0.950 . S
C1684 C1693 1.390 . S
C1685 C1684 1.387 . S
C1685 C1687 1.387 . S
H1686 C1693 0.950 . S
C1687 C1685 1.387 . S
C1687 C1689 1.390 . S
C1687 H1691 0.950 . S
H1688 C1684 0.950 . S
C1689 C1687 1.390 . S
C1689 C1690 1.387 . S
C1689 H1692 0.950 . S
C1690 C1689 1.387 . S
C1690 C1693 1.387 . S
H1691 C1687 0.950 . S
H1692 C1689 0.950 . S
C1693 C1684 1.390 . S
C1693 H1686 0.950 . S
C1693 C1690 1.387 . S
C1694 C1695 1.387 . S
C1694 H1698 0.950 . S
C1694 C1703 1.390 . S
C1695 C1694 1.387 . S
C1695 C1697 1.387 . S
H1696 C1703 0.950 . S
C1697 C1695 1.387 . S
C1697 C1699 1.390 . S
C1697 H1701 0.950 . S
H1698 C1694 0.950 . S
C1699 C1697 1.390 . S
C1699 C1700 1.387 . S
C1699 H1702 0.950 . S
C1700 C1699 1.387 . S
C1700 C1703 1.387 . S
H1701 C1697 0.950 . S
H1702 C1699 0.950 . S
C1703 C1694 1.390 . S
C1703 H1696 0.950 . S
C1703 C1700 1.387 . S
C1704 C1705 1.387 . S
C1704 H1708 0.950 . S
C1704 C1713 1.390 . S
C1705 C1704 1.387 . S
C1705 C1707 1.387 . S
H1706 C1713 0.950 . S
C1707 C1705 1.387 . S
C1707 C1709 1.390 . S
C1707 H1711 0.950 . S
H1708 C1704 0.950 . S
C1709 C1707 1.390 . S
C1709 C1710 1.387 . S
C1709 H1712 0.950 . S
C1710 C1709 1.387 . S
C1710 C1713 1.387 . S
H1711 C1707 0.950 . S
H1712 C1709 0.950 . S
C1713 C1704 1.390 . S
C1713 H1706 0.950 . S
C1713 C1710 1.387 . S
C1714 C1715 1.387 . S
C1714 H1718 0.930 1_565 S
C1714 C1723 1.390 . S
C1715 C1714 1.387 . S
C1715 C1717 1.387 . S
H1716 C1723 0.950 . S
C1717 C1715 1.387 . S
C1717 C1719 1.390 . S
C1717 H1721 0.950 . S
H1718 C1714 0.930 1_545 S
C1719 C1717 1.390 . S
C1719 C1720 1.387 . S
C1719 H1722 0.950 . S
C1720 C1719 1.387 . S
C1720 C1723 1.387 . S
H1721 C1717 0.950 . S
H1722 C1719 0.950 . S
C1723 C1714 1.390 . S
C1723 H1716 0.950 . S
C1723 C1720 1.387 . S
C1724 C1725 1.387 . S
C1724 H1728 0.950 . S
C1724 C1733 1.390 . S
C1725 C1724 1.387 . S
C1725 C1727 1.387 . S
H1726 C1733 0.950 . S
C1727 C1725 1.387 . S
C1727 C1729 1.390 . S
C1727 H1731 0.950 . S
H1728 C1724 0.950 . S
C1729 C1727 1.390 . S
C1729 C1730 1.387 . S
C1729 H1732 0.950 1_565 S
C1730 C1729 1.387 . S
C1730 C1733 1.387 . S
H1731 C1727 0.950 . S
H1732 C1729 0.950 1_545 S
C1733 C1724 1.390 . S
C1733 H1726 0.950 . S
C1733 C1730 1.387 . S
C1734 C1735 1.387 . S
C1734 H1738 0.950 . S
C1734 C1743 1.390 . S
C1735 C1734 1.387 . S
C1735 C1737 1.387 . S
H1736 C1743 0.950 . S
C1737 C1735 1.387 . S
C1737 C1739 1.390 . S
C1737 H1741 0.950 . S
H1738 C1734 0.950 . S
C1739 C1737 1.390 . S
C1739 C1740 1.387 . S
C1739 H1742 0.950 . S
C1740 C1739 1.387 . S
C1740 C1743 1.387 . S
H1741 C1737 0.950 . S
H1742 C1739 0.950 . S
C1743 C1734 1.390 . S
C1743 H1736 0.950 . S
C1743 C1740 1.387 . S
C1744 C1745 1.387 . S
C1744 H1748 0.950 . S
C1744 C1753 1.390 . S
C1745 C1744 1.387 . S
C1745 C1747 1.387 . S
H1746 C1753 0.950 . S
C1747 C1745 1.387 . S
C1747 C1749 1.390 . S
C1747 H1751 0.950 . S
H1748 C1744 0.950 . S
C1749 C1747 1.390 . S
C1749 C1750 1.387 . S
C1749 H1752 0.950 . S
C1750 C1749 1.387 . S
C1750 C1753 1.387 . S
H1751 C1747 0.950 . S
H1752 C1749 0.950 . S
C1753 C1744 1.390 . S
C1753 H1746 0.950 . S
C1753 C1750 1.387 . S
C1754 C1755 1.387 . S
C1754 H1758 0.950 . S
C1754 C1763 1.390 . S
C1755 C1754 1.387 . S
C1755 C1757 1.387 . S
H1756 C1763 0.950 . S
C1757 C1755 1.387 . S
C1757 C1759 1.390 . S
C1757 H1761 0.950 . S
H1758 C1754 0.950 . S
C1759 C1757 1.390 . S
C1759 C1760 1.387 . S
C1759 H1762 0.950 . S
C1760 C1759 1.387 . S
C1760 C1763 1.387 . S
H1761 C1757 0.950 . S
H1762 C1759 0.950 . S
C1763 C1754 1.390 . S
C1763 H1756 0.950 . S
C1763 C1760 1.387 . S
C1764 C1765 1.387 . S
C1764 H1768 0.950 . S
C1764 C1773 1.390 . S
C1765 C1764 1.387 . S
C1765 C1767 1.387 . S
H1766 C1773 0.950 . S
C1767 C1765 1.387 . S
C1767 C1769 1.390 . S
C1767 H1771 0.950 . S
H1768 C1764 0.950 . S
C1769 C1767 1.390 . S
C1769 C1770 1.387 . S
C1769 H1772 0.950 . S
C1770 C1769 1.387 . S
C1770 C1773 1.387 . S
H1771 C1767 0.950 . S
H1772 C1769 0.950 . S
C1773 C1764 1.390 . S
C1773 H1766 0.950 . S
C1773 C1770 1.387 . S
C1774 C1775 1.387 . S
C1774 H1778 0.950 . S
C1774 C1783 1.390 . S
C1775 C1774 1.387 . S
C1775 C1777 1.387 . S
H1776 C1783 0.950 . S
C1777 C1775 1.387 . S
C1777 C1779 1.390 . S
C1777 H1781 0.950 . S
H1778 C1774 0.950 . S
C1779 C1777 1.390 . S
C1779 C1780 1.387 . S
C1779 H1782 0.950 . S
C1780 C1779 1.387 . S
C1780 C1783 1.387 . S
H1781 C1777 0.950 . S
H1782 C1779 0.950 . S
C1783 C1774 1.390 . S
C1783 H1776 0.950 . S
C1783 C1780 1.387 . S
C1784 C1785 1.387 . S
C1784 H1788 0.950 . S
C1784 C1793 1.390 . S
C1785 C1784 1.387 . S
C1785 C1787 1.387 . S
H1786 C1793 0.950 . S
C1787 C1785 1.387 . S
C1787 C1789 1.390 . S
C1787 H1791 0.950 . S
H1788 C1784 0.950 . S
C1789 C1787 1.390 . S
C1789 C1790 1.387 . S
C1789 H1792 0.950 . S
C1790 C1789 1.387 . S
C1790 C1793 1.387 . S
H1791 C1787 0.950 . S
H1792 C1789 0.950 . S
C1793 C1784 1.390 . S
C1793 H1786 0.950 . S
C1793 C1790 1.387 . S
C1794 C1795 1.387 . S
C1794 H1798 0.950 . S
C1794 C1803 1.390 . S
C1795 C1794 1.387 . S
C1795 C1797 1.387 . S
H1796 C1803 0.950 . S
C1797 C1795 1.387 . S
C1797 C1799 1.390 . S
C1797 H1801 0.950 . S
H1798 C1794 0.950 . S
C1799 C1797 1.390 . S
C1799 C1800 1.387 . S
C1799 H1802 0.950 . S
C1800 C1799 1.387 . S
C1800 C1803 1.387 . S
H1801 C1797 0.950 . S
H1802 C1799 0.950 . S
C1803 C1794 1.390 . S
C1803 H1796 0.950 . S
C1803 C1800 1.387 . S
C1804 C1805 1.387 . S
C1804 H1808 0.950 . S
C1804 C1813 1.390 . S
C1805 C1804 1.387 . S
C1805 C1807 1.387 . S
H1806 C1813 0.950 . S
C1807 C1805 1.387 . S
C1807 C1809 1.390 . S
C1807 H1811 0.950 . S
H1808 C1804 0.950 . S
C1809 C1807 1.390 . S
C1809 C1810 1.387 . S
C1809 H1812 0.950 . S
C1810 C1809 1.387 . S
C1810 C1813 1.387 . S
H1811 C1807 0.950 . S
H1812 C1809 0.950 . S
C1813 C1804 1.390 . S
C1813 H1806 0.950 . S
C1813 C1810 1.387 . S
C1814 C1815 1.387 . S
C1814 H1818 0.950 . S
C1814 C1823 1.390 . S
C1815 C1814 1.387 . S
C1815 C1817 1.387 . S
H1816 C1823 0.950 . S
C1817 C1815 1.387 . S
C1817 C1819 1.390 . S
C1817 H1821 0.950 . S
H1818 C1814 0.950 . S
C1819 C1817 1.390 . S
C1819 C1820 1.387 . S
C1819 H1822 0.950 . S
C1820 C1819 1.387 . S
C1820 C1823 1.387 . S
H1821 C1817 0.950 . S
H1822 C1819 0.950 . S
C1823 C1814 1.390 . S
C1823 H1816 0.950 . S
C1823 C1820 1.387 . S
C1824 C1825 1.387 . S
C1824 H1828 0.950 . S
C1824 C1833 1.390 . S
C1825 C1824 1.387 . S
C1825 C1827 1.387 . S
H1826 C1833 0.950 . S
C1827 C1825 1.387 . S
C1827 C1829 1.390 . S
C1827 H1831 0.950 . S
H1828 C1824 0.950 . S
C1829 C1827 1.390 . S
C1829 C1830 1.387 . S
C1829 H1832 0.950 . S
C1830 C1829 1.387 . S
C1830 C1833 1.387 . S
H1831 C1827 0.950 . S
H1832 C1829 0.950 . S
C1833 C1824 1.390 . S
C1833 H1826 0.950 . S
C1833 C1830 1.387 . S
C1834 C1835 1.387 1_545 S
C1834 H1838 0.950 . S
C1834 C1843 1.390 . S
C1835 C1834 1.387 1_565 S
C1835 C1837 1.387 . S
H1836 C1843 0.950 . S
C1837 C1835 1.387 . S
C1837 C1839 1.390 . S
C1837 H1841 0.950 . S
H1838 C1834 0.950 . S
C1839 C1837 1.390 . S
C1839 C1840 1.387 . S
C1839 H1842 0.950 . S
C1840 C1839 1.387 . S
C1840 C1843 1.387 1_565 S
H1841 C1837 0.950 . S
H1842 C1839 0.950 . S
C1843 C1834 1.390 . S
C1843 H1836 0.950 . S
C1843 C1840 1.387 1_545 S
C1844 C1845 1.387 . S
C1844 H1848 0.950 . S
C1844 C1853 1.390 . S
C1845 C1844 1.387 . S
C1845 C1847 1.387 . S
H1846 C1853 0.950 . S
C1847 C1845 1.387 . S
C1847 C1849 1.390 . S
C1847 H1851 0.950 . S
H1848 C1844 0.950 . S
C1849 C1847 1.390 . S
C1849 C1850 1.387 . S
C1849 H1852 0.950 . S
C1850 C1849 1.387 . S
C1850 C1853 1.387 . S
H1851 C1847 0.950 . S
H1852 C1849 0.950 . S
C1853 C1844 1.390 . S
C1853 H1846 0.950 . S
C1853 C1850 1.387 . S
C1854 C1855 1.387 1_565 S
C1854 H1858 0.950 . S
C1854 C1863 1.390 . S
C1855 C1854 1.387 1_545 S
C1855 C1857 1.387 . S
H1856 C1863 0.950 . S
C1857 C1855 1.387 . S
C1857 C1859 1.390 . S
C1857 H1861 0.950 . S
H1858 C1854 0.950 . S
C1859 C1857 1.390 . S
C1859 C1860 1.387 . S
C1859 H1862 0.950 . S
C1860 C1859 1.387 . S
C1860 C1863 1.387 1_545 S
H1861 C1857 0.950 . S
H1862 C1859 0.950 . S
C1863 C1854 1.390 . S
C1863 H1856 0.950 . S
C1863 C1860 1.387 1_565 S
C1864 C1865 1.387 . S
C1864 H1868 0.950 . S
C1864 C1873 1.390 . S
C1865 C1864 1.387 . S
C1865 C1867 1.387 . S
H1866 C1873 0.950 . S
C1867 C1865 1.387 . S
C1867 C1869 1.390 . S
C1867 H1871 0.950 . S
H1868 C1864 0.950 . S
C1869 C1867 1.390 . S
C1869 C1870 1.387 . S
C1869 H1872 0.950 . S
C1870 C1869 1.387 . S
C1870 C1873 1.387 . S
H1871 C1867 0.950 . S
H1872 C1869 0.950 . S
C1873 C1864 1.390 . S
C1873 H1866 0.950 . S
C1873 C1870 1.387 . S
C1874 C1875 1.387 . S
C1874 H1878 0.950 . S
C1874 C1883 1.390 . S
C1875 C1874 1.387 . S
C1875 C1877 1.387 . S
H1876 C1883 0.950 . S
C1877 C1875 1.387 . S
C1877 C1879 1.390 . S
C1877 H1881 0.950 . S
H1878 C1874 0.950 . S
C1879 C1877 1.390 . S
C1879 C1880 1.387 . S
C1879 H1882 0.950 . S
C1880 C1879 1.387 . S
C1880 C1883 1.387 . S
H1881 C1877 0.950 . S
H1882 C1879 0.950 . S
C1883 C1874 1.390 . S
C1883 H1876 0.950 . S
C1883 C1880 1.387 . S
C1884 C1885 1.387 . S
C1884 H1888 0.950 . S
C1884 C1893 1.390 . S
C1885 C1884 1.387 . S
C1885 C1887 1.387 . S
H1886 C1893 0.950 . S
C1887 C1885 1.387 . S
C1887 C1889 1.390 . S
C1887 H1891 0.950 . S
H1888 C1884 0.950 . S
C1889 C1887 1.390 . S
C1889 C1890 1.387 . S
C1889 H1892 0.950 . S
C1890 C1889 1.387 . S
C1890 C1893 1.387 . S
H1891 C1887 0.950 . S
H1892 C1889 0.950 . S
C1893 C1884 1.390 . S
C1893 H1886 0.950 . S
C1893 C1890 1.387 . S
C1894 C1895 1.387 . S
C1894 H1898 0.950 . S
C1894 C1903 1.390 . S
C1895 C1894 1.387 . S
C1895 C1897 1.387 . S
H1896 C1903 0.950 . S
C1897 C1895 1.387 . S
C1897 C1899 1.390 . S
C1897 H1901 0.950 . S
H1898 C1894 0.950 . S
C1899 C1897 1.390 . S
C1899 C1900 1.387 . S
C1899 H1902 0.950 . S
C1900 C1899 1.387 . S
C1900 C1903 1.387 . S
H1901 C1897 0.950 . S
H1902 C1899 0.950 . S
C1903 C1894 1.390 . S
C1903 H1896 0.950 . S
C1903 C1900 1.387 . S
C1904 C1905 1.387 . S
C1904 H1908 0.950 . S
C1904 C1913 1.390 . S
C1905 C1904 1.387 . S
C1905 C1907 1.387 . S
H1906 C1913 0.950 . S
C1907 C1905 1.387 . S
C1907 C1909 1.390 . S
C1907 H1911 0.950 . S
H1908 C1904 0.950 . S
C1909 C1907 1.390 . S
C1909 C1910 1.387 . S
C1909 H1912 0.950 . S
C1910 C1909 1.387 . S
C1910 C1913 1.387 . S
H1911 C1907 0.950 . S
H1912 C1909 0.950 . S
C1913 C1904 1.390 . S
C1913 H1906 0.950 . S
C1913 C1910 1.387 . S
C1914 C1915 1.387 . S
C1914 H1918 0.950 . S
C1914 C1923 1.390 . S
C1915 C1914 1.387 . S
C1915 C1917 1.387 1_565 S
H1916 C1923 0.950 . S
C1917 C1915 1.387 1_545 S
C1917 C1919 1.390 . S
C1917 H1921 0.950 . S
H1918 C1914 0.950 . S
C1919 C1917 1.390 . S
C1919 C1920 1.387 1_545 S
C1919 H1922 0.950 . S
C1920 C1919 1.387 1_565 S
C1920 C1923 1.387 . S
H1921 C1917 0.950 . S
H1922 C1919 0.950 . S
C1923 C1914 1.390 . S
C1923 H1916 0.950 . S
C1923 C1920 1.387 . S
C1924 C1925 1.387 . S
C1924 H1928 0.950 . S
C1924 C1933 1.390 . S
C1925 C1924 1.387 . S
C1925 C1927 1.387 . S
H1926 C1933 0.950 . S
C1927 C1925 1.387 . S
C1927 C1929 1.390 . S
C1927 H1931 0.950 . S
H1928 C1924 0.950 . S
C1929 C1927 1.390 . S
C1929 C1930 1.387 . S
C1929 H1932 0.950 . S
C1930 C1929 1.387 . S
C1930 C1933 1.387 . S
H1931 C1927 0.950 . S
H1932 C1929 0.950 . S
C1933 C1924 1.390 . S
C1933 H1926 0.950 . S
C1933 C1930 1.387 . S
C1934 C1935 1.387 . S
C1934 H1938 0.950 . S
C1934 C1943 1.390 . S
C1935 C1934 1.387 . S
C1935 C1937 1.387 1_545 S
H1936 C1943 0.950 . S
C1937 C1935 1.387 1_565 S
C1937 C1939 1.390 . S
C1937 H1941 0.950 . S
H1938 C1934 0.950 . S
C1939 C1937 1.390 . S
C1939 C1940 1.387 1_565 S
C1939 H1942 0.950 . S
C1940 C1939 1.387 1_545 S
C1940 C1943 1.387 . S
H1941 C1937 0.950 . S
H1942 C1939 0.950 . S
C1943 C1934 1.390 . S
C1943 H1936 0.950 . S
C1943 C1940 1.387 . S
C1944 C1945 1.387 . S
C1944 H1948 0.950 . S
C1944 C1953 1.390 . S
C1945 C1944 1.387 . S
C1945 C1947 1.387 . S
H1946 C1953 0.950 . S
C1947 C1945 1.387 . S
C1947 C1949 1.390 . S
C1947 H1951 0.950 . S
H1948 C1944 0.950 . S
C1949 C1947 1.390 . S
C1949 C1950 1.387 . S
C1949 H1952 0.950 . S
C1950 C1949 1.387 . S
C1950 C1953 1.387 . S
H1951 C1947 0.950 . S
H1952 C1949 0.950 . S
C1953 C1944 1.390 . S
C1953 H1946 0.950 . S
C1953 C1950 1.387 . S
C1954 C1955 1.387 . S
C1954 H1958 0.950 . S
C1954 C1963 1.390 . S
C1955 C1954 1.387 . S
C1955 C1957 1.387 . S
H1956 C1963 0.950 . S
C1957 C1955 1.387 . S
C1957 C1959 1.390 . S
C1957 H1961 0.950 . S
H1958 C1954 0.950 . S
C1959 C1957 1.390 . S
C1959 C1960 1.387 . S
C1959 H1962 0.950 . S
C1960 C1959 1.387 . S
C1960 C1963 1.387 . S
H1961 C1957 0.950 . S
H1962 C1959 0.950 . S
C1963 C1954 1.390 . S
C1963 H1956 0.950 . S
C1963 C1960 1.387 . S
C1964 C1965 1.387 . S
C1964 H1968 0.950 . S
C1964 C1973 1.390 . S
C1965 C1964 1.387 . S
C1965 C1967 1.387 . S
H1966 C1973 0.950 . S
C1967 C1965 1.387 . S
C1967 C1969 1.390 . S
C1967 H1971 0.950 . S
H1968 C1964 0.950 . S
C1969 C1967 1.390 . S
C1969 C1970 1.387 . S
C1969 H1972 0.950 . S
C1970 C1969 1.387 . S
C1970 C1973 1.387 . S
H1971 C1967 0.950 . S
H1972 C1969 0.950 . S
C1973 C1964 1.390 . S
C1973 H1966 0.950 . S
C1973 C1970 1.387 . S
C1974 C1975 1.387 . S
C1974 H1978 0.950 . S
C1974 C1983 1.390 . S
C1975 C1974 1.387 . S
C1975 C1977 1.387 . S
H1976 C1983 0.950 . S
C1977 C1975 1.387 . S
C1977 C1979 1.390 . S
C1977 H1981 0.950 . S
H1978 C1974 0.950 . S
C1979 C1977 1.390 . S
C1979 C1980 1.387 . S
C1979 H1982 0.950 . S
C1980 C1979 1.387 . S
C1980 C1983 1.387 . S
H1981 C1977 0.950 . S
H1982 C1979 0.950 . S
C1983 C1974 1.390 . S
C1983 H1976 0.950 . S
C1983 C1980 1.387 . S
C1984 C1985 1.387 1_655 S
C1984 H1988 0.950 . S
C1984 C1993 1.390 . S
C1985 C1984 1.387 1_455 S
C1985 C1987 1.387 1_556 S
H1986 C1993 0.950 . S
C1987 C1985 1.387 1_554 S
C1987 C1989 1.390 . S
C1987 H1991 0.950 . S
H1988 C1984 0.950 . S
C1989 C1987 1.390 . S
C1989 C1990 1.387 1_455 S
C1989 H1992 0.950 . S
C1990 C1989 1.387 1_655 S
C1990 C1993 1.387 1_554 S
H1991 C1987 0.950 . S
H1992 C1989 0.950 . S
C1993 C1984 1.390 . S
C1993 H1986 0.950 . S
C1993 C1990 1.387 1_556 S
C1994 C1995 1.387 . S
C1994 H1998 0.950 . S
C1994 C2003 1.390 . S
C1995 C1994 1.387 . S
C1995 C1997 1.387 1_554 S
H1996 C2003 0.950 . S
C1997 C1995 1.387 1_556 S
C1997 C1999 1.390 . S
C1997 H2001 0.950 . S
H1998 C1994 0.950 . S
C1999 C1997 1.390 . S
C1999 C2000 1.387 . S
C1999 H2002 0.950 . S
C2000 C1999 1.387 . S
C2000 C2003 1.387 1_556 S
H2001 C1997 0.950 . S
H2002 C1999 0.950 . S
C2003 C1994 1.390 . S
C2003 H1996 0.950 . S
C2003 C2000 1.387 1_554 S
C2004 C2005 1.387 1_455 S
C2004 H2008 0.950 . S
C2004 C2013 1.390 . S
C2005 C2004 1.387 1_655 S
C2005 C2007 1.387 . S
H2006 C2013 0.950 . S
C2007 C2005 1.387 . S
C2007 C2009 1.390 . S
C2007 H2011 0.950 . S
H2008 C2004 0.950 . S
C2009 C2007 1.390 . S
C2009 C2010 1.387 1_655 S
C2009 H2012 0.950 . S
C2010 C2009 1.387 1_455 S
C2010 C2013 1.387 . S
H2011 C2007 0.950 . S
H2012 C2009 0.950 . S
C2013 C2004 1.390 . S
C2013 H2006 0.950 . S
C2013 C2010 1.387 . S
C2014 C2015 1.387 . S
C2014 H2018 0.950 . S
C2014 C2023 1.390 . S
C2015 C2014 1.387 . S
C2015 C2017 1.387 . S
H2016 C2023 0.950 . S
C2017 C2015 1.387 . S
C2017 C2019 1.390 . S
C2017 H2021 0.950 . S
H2018 C2014 0.950 . S
C2019 C2017 1.390 . S
C2019 C2020 1.387 . S
C2019 H2022 0.950 . S
C2020 C2019 1.387 . S
C2020 C2023 1.387 . S
H2021 C2017 0.950 . S
H2022 C2019 0.950 . S
C2023 C2014 1.390 . S
C2023 H2016 0.950 . S
C2023 C2020 1.387 . S
C2024 C2025 1.387 1_554 S
C2024 H2028 0.950 . S
C2024 C2033 1.390 . S
C2025 C2024 1.387 1_556 S
C2025 C2027 1.387 . S
H2026 C2033 0.950 . S
C2027 C2025 1.387 . S
C2027 C2029 1.390 . S
C2027 H2031 0.950 . S
H2028 C2024 0.950 . S
C2029 C2027 1.390 . S
C2029 C2030 1.387 1_556 S
C2029 H2032 0.950 . S
C2030 C2029 1.387 1_554 S
C2030 C2033 1.387 . S
H2031 C2027 0.950 . S
H2032 C2029 0.950 . S
C2033 C2024 1.390 . S
C2033 H2026 0.950 . S
C2033 C2030 1.387 . S
C2034 C2035 1.387 . S
C2034 H2038 0.950 . S
C2034 C2043 1.390 . S
C2035 C2034 1.387 . S
C2035 C2037 1.387 1_455 S
H2036 C2043 0.950 . S
C2037 C2035 1.387 1_655 S
C2037 C2039 1.390 . S
C2037 H2041 0.950 . S
H2038 C2034 0.950 . S
C2039 C2037 1.390 . S
C2039 C2040 1.387 . S
C2039 H2042 0.950 . S
C2040 C2039 1.387 . S
C2040 C2043 1.387 1_655 S
H2041 C2037 0.950 . S
H2042 C2039 0.950 . S
C2043 C2034 1.390 . S
C2043 H2036 0.950 . S
C2043 C2040 1.387 1_455 S
C2044 C2045 1.387 . S
C2044 H2048 0.950 . S
C2044 C2053 1.390 . S
C2045 C2044 1.387 . S
C2045 C2047 1.387 . S
H2046 C2053 0.950 . S
C2047 C2045 1.387 . S
C2047 C2049 1.390 . S
C2047 H2051 0.950 . S
H2048 C2044 0.950 . S
C2049 C2047 1.390 . S
C2049 C2050 1.387 . S
C2049 H2052 0.950 . S
C2050 C2049 1.387 . S
C2050 C2053 1.387 . S
H2051 C2047 0.950 . S
H2052 C2049 0.950 . S
C2053 C2044 1.390 . S
C2053 H2046 0.950 . S
C2053 C2050 1.387 . S
C2054 C2055 1.387 . S
C2054 H2058 0.950 . S
C2054 C2063 1.390 1_545 S
C2055 C2054 1.387 . S
C2055 C2057 1.387 1_655 S
H2056 C2063 0.950 . S
C2057 C2055 1.387 1_455 S
C2057 C2059 1.390 1_545 S
C2057 H2061 0.950 . S
H2058 C2054 0.950 . S
C2059 C2057 1.390 1_565 S
C2059 C2060 1.387 . S
C2059 H2062 0.950 . S
C2060 C2059 1.387 . S
C2060 C2063 1.387 1_455 S
H2061 C2057 0.950 . S
H2062 C2059 0.950 . S
C2063 C2054 1.390 1_565 S
C2063 H2056 0.950 . S
C2063 C2060 1.387 1_655 S
C2064 C2065 1.387 . S
C2064 H2068 0.950 . S
C2064 C2073 1.390 . S
C2065 C2064 1.387 . S
C2065 C2067 1.387 . S
H2066 C2073 0.950 . S
C2067 C2065 1.387 . S
C2067 C2069 1.390 . S
C2067 H2071 0.950 . S
H2068 C2064 0.950 . S
C2069 C2067 1.390 . S
C2069 C2070 1.387 . S
C2069 H2072 0.950 . S
C2070 C2069 1.387 . S
C2070 C2073 1.387 . S
H2071 C2067 0.950 . S
H2072 C2069 0.950 . S
C2073 C2064 1.390 . S
C2073 H2066 0.950 . S
C2073 C2070 1.387 . S
C2074 C2075 1.387 . S
C2074 H2078 0.950 . S
C2074 C2083 1.390 1_565 S
C2075 C2074 1.387 . S
C2075 C2077 1.387 . S
H2076 C2083 0.950 . S
C2077 C2075 1.387 . S
C2077 C2079 1.390 1_565 S
C2077 H2081 0.950 . S
H2078 C2074 0.950 . S
C2079 C2077 1.390 1_545 S
C2079 C2080 1.387 . S
C2079 H2082 0.950 . S
C2080 C2079 1.387 . S
C2080 C2083 1.387 . S
H2081 C2077 0.950 . S
H2082 C2079 0.950 . S
C2083 C2074 1.390 1_545 S
C2083 H2076 0.950 . S
C2083 C2080 1.387 . S
C2084 C2085 1.387 . S
C2084 H2088 0.950 . S
C2084 C2093 1.390 . S
C2085 C2084 1.387 . S
C2085 C2087 1.387 . S
H2086 C2093 0.950 . S
C2087 C2085 1.387 . S
C2087 C2089 1.390 . S
C2087 H2091 0.950 . S
H2088 C2084 0.950 . S
C2089 C2087 1.390 . S
C2089 C2090 1.387 . S
C2089 H2092 0.950 . S
C2090 C2089 1.387 . S
C2090 C2093 1.387 . S
H2091 C2087 0.950 . S
H2092 C2089 0.950 . S
C2093 C2084 1.390 . S
C2093 H2086 0.950 . S
C2093 C2090 1.387 . S
C2094 C2095 1.387 . S
C2094 H2098 0.950 . S
C2094 C2103 1.390 1_565 S
C2095 C2094 1.387 . S
C2095 C2097 1.387 . S
H2096 C2103 0.950 . S
C2097 C2095 1.387 . S
C2097 C2099 1.390 1_565 S
C2097 H2101 0.950 . S
H2098 C2094 0.950 . S
C2099 C2097 1.390 1_545 S
C2099 C2100 1.387 . S
C2099 H2102 0.950 . S
C2100 C2099 1.387 . S
C2100 C2103 1.387 . S
H2101 C2097 0.950 . S
H2102 C2099 0.950 . S
C2103 C2094 1.390 1_545 S
C2103 H2096 0.950 . S
C2103 C2100 1.387 . S
C2104 C2105 1.387 . S
C2104 H2108 0.950 . S
C2104 C2113 1.390 . S
C2105 C2104 1.387 . S
C2105 C2107 1.387 . S
H2106 C2113 0.950 . S
C2107 C2105 1.387 . S
C2107 C2109 1.390 . S
C2107 H2111 0.950 . S
H2108 C2104 0.950 . S
C2109 C2107 1.390 . S
C2109 C2110 1.387 . S
C2109 H2112 0.950 . S
C2110 C2109 1.387 . S
C2110 C2113 1.387 . S
H2111 C2107 0.950 . S
H2112 C2109 0.950 . S
C2113 C2104 1.390 . S
C2113 H2106 0.950 . S
C2113 C2110 1.387 . S
C2114 C2115 1.387 . S
C2114 H2118 0.950 . S
C2114 C2123 1.390 . S
C2115 C2114 1.387 . S
C2115 C2117 1.387 . S
H2116 C2123 0.950 . S
C2117 C2115 1.387 . S
C2117 C2119 1.390 . S
C2117 H2121 0.950 . S
H2118 C2114 0.950 . S
C2119 C2117 1.390 . S
C2119 C2120 1.387 . S
C2119 H2122 0.950 . S
C2120 C2119 1.387 . S
C2120 C2123 1.387 . S
H2121 C2117 0.950 . S
H2122 C2119 0.950 . S
C2123 C2114 1.390 . S
C2123 H2116 0.950 . S
C2123 C2120 1.387 . S
C2124 C2125 1.387 . S
C2124 H2128 0.950 . S
C2124 C2133 1.390 . S
C2125 C2124 1.387 . S
C2125 C2127 1.387 . S
H2126 C2133 0.950 . S
C2127 C2125 1.387 . S
C2127 C2129 1.390 . S
C2127 H2131 0.950 . S
H2128 C2124 0.950 . S
C2129 C2127 1.390 . S
C2129 C2130 1.387 . S
C2129 H2132 0.950 . S
C2130 C2129 1.387 . S
C2130 C2133 1.387 . S
H2131 C2127 0.950 . S
H2132 C2129 0.950 . S
C2133 C2124 1.390 . S
C2133 H2126 0.950 . S
C2133 C2130 1.387 . S
C2134 C2135 1.387 1_556 S
C2134 H2138 0.950 . S
C2134 C2143 1.390 1_545 S
C2135 C2134 1.387 1_554 S
C2135 C2137 1.387 . S
H2136 C2143 0.950 . S
C2137 C2135 1.387 . S
C2137 C2139 1.390 1_545 S
C2137 H2141 0.950 . S
H2138 C2134 0.950 . S
C2139 C2137 1.390 1_565 S
C2139 C2140 1.387 1_554 S
C2139 H2142 0.950 . S
C2140 C2139 1.387 1_556 S
C2140 C2143 1.387 . S
H2141 C2137 0.950 . S
H2142 C2139 0.950 . S
C2143 C2134 1.390 1_565 S
C2143 H2136 0.950 . S
C2143 C2140 1.387 . S
C2144 C2145 1.387 1_655 S
C2144 H2148 0.950 . S
C2144 C2153 1.390 . S
C2145 C2144 1.387 1_455 S
C2145 C2147 1.387 . S
H2146 C2153 0.950 . S
C2147 C2145 1.387 . S
C2147 C2149 1.390 . S
C2147 H2151 0.950 . S
H2148 C2144 0.950 . S
C2149 C2147 1.390 . S
C2149 C2150 1.387 . S
C2149 H2152 0.950 . S
C2150 C2149 1.387 . S
C2150 C2153 1.387 1_455 S
H2151 C2147 0.950 . S
H2152 C2149 0.950 . S
C2153 C2144 1.390 . S
C2153 H2146 0.950 . S
C2153 C2150 1.387 1_655 S
C2154 C2155 1.387 . S
C2154 H2158 0.950 . S
C2154 C2163 1.390 . S
C2155 C2154 1.387 . S
C2155 C2157 1.387 . S
H2156 C2163 0.950 . S
C2157 C2155 1.387 . S
C2157 C2159 1.390 . S
C2157 H2161 0.950 . S
H2158 C2154 0.950 . S
C2159 C2157 1.390 . S
C2159 C2160 1.387 . S
C2159 H2162 0.950 . S
C2160 C2159 1.387 . S
C2160 C2163 1.387 . S
H2161 C2157 0.950 . S
H2162 C2159 0.950 . S
C2163 C2154 1.390 . S
C2163 H2156 0.950 . S
C2163 C2160 1.387 . S
C2164 C2165 1.387 . S
C2164 H2168 0.950 . S
C2164 C2173 1.390 . S
C2165 C2164 1.387 . S
C2165 C2167 1.387 1_655 S
H2166 C2173 0.950 . S
C2167 C2165 1.387 1_455 S
C2167 C2169 1.390 . S
C2167 H2171 0.950 . S
H2168 C2164 0.950 . S
C2169 C2167 1.390 . S
C2169 C2170 1.387 1_455 S
C2169 H2172 0.950 . S
C2170 C2169 1.387 1_655 S
C2170 C2173 1.387 . S
H2171 C2167 0.950 . S
H2172 C2169 0.950 . S
C2173 C2164 1.390 . S
C2173 H2166 0.950 . S
C2173 C2170 1.387 . S
C2174 C2175 1.387 . S
C2174 H2178 0.950 . S
C2174 C2183 1.390 . S
C2175 C2174 1.387 . S
C2175 C2177 1.387 . S
H2176 C2183 0.950 . S
C2177 C2175 1.387 . S
C2177 C2179 1.390 . S
C2177 H2181 0.950 . S
H2178 C2174 0.950 . S
C2179 C2177 1.390 . S
C2179 C2180 1.387 . S
C2179 H2182 0.950 . S
C2180 C2179 1.387 . S
C2180 C2183 1.387 . S
H2181 C2177 0.950 . S
H2182 C2179 0.950 . S
C2183 C2174 1.390 . S
C2183 H2176 0.950 . S
C2183 C2180 1.387 . S
C2184 C2185 1.387 . S
C2184 H2188 0.950 . S
C2184 C2193 1.390 . S
C2185 C2184 1.387 . S
C2185 C2187 1.387 1_455 S
H2186 C2193 0.950 . S
C2187 C2185 1.387 1_655 S
C2187 C2189 1.390 . S
C2187 H2191 0.950 . S
H2188 C2184 0.950 . S
C2189 C2187 1.390 . S
C2189 C2190 1.387 1_655 S
C2189 H2192 0.950 . S
C2190 C2189 1.387 1_455 S
C2190 C2193 1.387 . S
H2191 C2187 0.950 . S
H2192 C2189 0.950 . S
C2193 C2184 1.390 . S
C2193 H2186 0.950 . S
C2193 C2190 1.387 . S
C2194 C2195 1.387 . S
C2194 H2198 0.950 . S
C2194 C2203 1.390 . S
C2195 C2194 1.387 . S
C2195 C2197 1.387 . S
H2196 C2203 0.950 . S
C2197 C2195 1.387 . S
C2197 C2199 1.390 . S
C2197 H2201 0.950 . S
H2198 C2194 0.950 . S
C2199 C2197 1.390 . S
C2199 C2200 1.387 . S
C2199 H2202 0.950 . S
C2200 C2199 1.387 . S
C2200 C2203 1.387 . S
H2201 C2197 0.950 . S
H2202 C2199 0.950 . S
C2203 C2194 1.390 . S
C2203 H2196 0.950 . S
C2203 C2200 1.387 . S
C2204 C2205 1.387 1_455 S
C2204 H2208 0.950 . S
C2204 C2213 1.390 . S
C2205 C2204 1.387 1_655 S
C2205 C2207 1.387 . S
H2206 C2213 0.950 . S
C2207 C2205 1.387 . S
C2207 C2209 1.390 . S
C2207 H2211 0.950 . S
H2208 C2204 0.950 . S
C2209 C2207 1.390 . S
C2209 C2210 1.387 . S
C2209 H2212 0.950 . S
C2210 C2209 1.387 . S
C2210 C2213 1.387 1_655 S
H2211 C2207 0.950 . S
H2212 C2209 0.950 . S
C2213 C2204 1.390 . S
C2213 H2206 0.950 . S
C2213 C2210 1.387 1_455 S
C2214 C2215 1.387 . S
C2214 H2218 0.950 . S
C2214 C2223 1.390 . S
C2215 C2214 1.387 . S
C2215 C2217 1.387 . S
H2216 C2223 0.950 . S
C2217 C2215 1.387 . S
C2217 C2219 1.390 . S
C2217 H2221 0.950 . S
H2218 C2214 0.950 . S
C2219 C2217 1.390 . S
C2219 C2220 1.387 . S
C2219 H2222 0.950 . S
C2220 C2219 1.387 . S
C2220 C2223 1.387 . S
H2221 C2217 0.950 . S
H2222 C2219 0.950 . S
C2223 C2214 1.390 . S
C2223 H2216 0.950 . S
C2223 C2220 1.387 . S
C2224 C2225 1.387 . S
C2224 H2228 0.950 . S
C2224 C2233 1.390 . S
C2225 C2224 1.387 . S
C2225 C2227 1.387 . S
H2226 C2233 0.950 . S
C2227 C2225 1.387 . S
C2227 C2229 1.390 . S
C2227 H2231 0.950 . S
H2228 C2224 0.950 . S
C2229 C2227 1.390 . S
C2229 C2230 1.387 . S
C2229 H2232 0.950 . S
C2230 C2229 1.387 . S
C2230 C2233 1.387 . S
H2231 C2227 0.950 . S
H2232 C2229 0.950 . S
C2233 C2224 1.390 . S
C2233 H2226 0.950 . S
C2233 C2230 1.387 . S
C2234 C2235 1.387 . S
C2234 H2238 0.950 . S
C2234 C2243 1.390 . S
C2235 C2234 1.387 . S
C2235 C2237 1.387 . S
H2236 C2243 0.950 . S
C2237 C2235 1.387 . S
C2237 C2239 1.390 . S
C2237 H2241 0.950 . S
H2238 C2234 0.950 . S
C2239 C2237 1.390 . S
C2239 C2240 1.387 . S
C2239 H2242 0.950 . S
C2240 C2239 1.387 . S
C2240 C2243 1.387 . S
H2241 C2237 0.950 . S
H2242 C2239 0.950 . S
C2243 C2234 1.390 . S
C2243 H2236 0.950 . S
C2243 C2240 1.387 . S
C2244 C2245 1.387 . S
C2244 H2248 0.950 . S
C2244 C2253 1.390 . S
C2245 C2244 1.387 . S
C2245 C2247 1.387 . S
H2246 C2253 0.950 . S
C2247 C2245 1.387 . S
C2247 C2249 1.390 . S
C2247 H2251 0.950 . S
H2248 C2244 0.950 . S
C2249 C2247 1.390 . S
C2249 C2250 1.387 . S
C2249 H2252 0.950 . S
C2250 C2249 1.387 . S
C2250 C2253 1.387 . S
H2251 C2247 0.950 . S
H2252 C2249 0.950 . S
C2253 C2244 1.390 . S
C2253 H2246 0.950 . S
C2253 C2250 1.387 . S
C2254 C2255 1.387 . S
C2254 H2258 0.950 . S
C2254 C2263 1.390 . S
C2255 C2254 1.387 . S
C2255 C2257 1.387 . S
H2256 C2263 0.950 . S
C2257 C2255 1.387 . S
C2257 C2259 1.390 . S
C2257 H2261 0.950 . S
H2258 C2254 0.950 . S
C2259 C2257 1.390 . S
C2259 C2260 1.387 . S
C2259 H2262 0.950 . S
C2260 C2259 1.387 . S
C2260 C2263 1.387 . S
H2261 C2257 0.950 . S
H2262 C2259 0.950 . S
C2263 C2254 1.390 . S
C2263 H2256 0.950 . S
C2263 C2260 1.387 . S
C2264 C2265 1.387 . S
C2264 H2268 0.950 . S
C2264 C2273 1.390 . S
C2265 C2264 1.387 . S
C2265 C2267 1.387 . S
H2266 C2273 0.950 . S
C2267 C2265 1.387 . S
C2267 C2269 1.390 . S
C2267 H2271 0.950 . S
H2268 C2264 0.950 . S
C2269 C2267 1.390 . S
C2269 C2270 1.387 . S
C2269 H2272 0.950 . S
C2270 C2269 1.387 . S
C2270 C2273 1.387 . S
H2271 C2267 0.950 . S
H2272 C2269 0.950 . S
C2273 C2264 1.390 . S
C2273 H2266 0.950 . S
C2273 C2270 1.387 . S
C2274 C2275 1.387 . S
C2274 H2278 0.950 . S
C2274 C2283 1.390 . S
C2275 C2274 1.387 . S
C2275 C2277 1.387 . S
H2276 C2283 0.950 . S
C2277 C2275 1.387 . S
C2277 C2279 1.390 . S
C2277 H2281 0.950 . S
H2278 C2274 0.950 . S
C2279 C2277 1.390 . S
C2279 C2280 1.387 . S
C2279 H2282 0.950 . S
C2280 C2279 1.387 . S
C2280 C2283 1.387 . S
H2281 C2277 0.950 . S
H2282 C2279 0.950 . S
C2283 C2274 1.390 . S
C2283 H2276 0.950 . S
C2283 C2280 1.387 . S
C2284 C2285 1.387 . S
C2284 H2288 0.950 . S
C2284 C2293 1.390 . S
C2285 C2284 1.387 . S
C2285 C2287 1.387 . S
H2286 C2293 0.950 . S
C2287 C2285 1.387 . S
C2287 C2289 1.390 . S
C2287 H2291 0.950 . S
H2288 C2284 0.950 . S
C2289 C2287 1.390 . S
C2289 C2290 1.387 . S
C2289 H2292 0.950 . S
C2290 C2289 1.387 . S
C2290 C2293 1.387 . S
H2291 C2287 0.950 . S
H2292 C2289 0.950 . S
C2293 C2284 1.390 . S
C2293 H2286 0.950 . S
C2293 C2290 1.387 . S
C2294 C2295 1.387 . S
C2294 H2298 0.950 . S
C2294 C2303 1.390 . S
C2295 C2294 1.387 . S
C2295 C2297 1.387 . S
H2296 C2303 0.950 . S
C2297 C2295 1.387 . S
C2297 C2299 1.390 . S
C2297 H2301 0.950 . S
H2298 C2294 0.950 . S
C2299 C2297 1.390 . S
C2299 C2300 1.387 . S
C2299 H2302 0.950 . S
C2300 C2299 1.387 . S
C2300 C2303 1.387 . S
H2301 C2297 0.950 . S
H2302 C2299 0.950 . S
C2303 C2294 1.390 . S
C2303 H2296 0.950 . S
C2303 C2300 1.387 . S
C1025 C822 1.686 . S
C1030 C17 1.717 . S
C1035 C54 1.686 . S
C1040 C785 1.717 . S
C1045 C881 1.934 . S
C1050 C81 1.943 . S
C1055 C113 1.933 . S
C1060 C849 1.943 . S
C1065 C946 1.687 . S
C1070 C149 1.717 . S
C1075 C178 1.687 . S
C1080 C917 1.717 . S
C1085 C1013 1.933 . S
C1090 C213 1.943 . S
C1095 C245 1.934 . S
C1100 C981 1.943 . S
C1105 C273 1.717 . S
C1110 C566 1.686 . S
C1115 C310 1.687 . S
C1120 C529 1.717 . S
C1125 C625 1.934 . S
C1130 C337 1.943 . S
C1135 C369 1.933 . S
C1140 C593 1.943 . S
C1145 C405 1.717 . S
C1150 C690 1.687 . S
C1155 C661 1.717 . S
C1160 C434 1.686 . S
C1165 C757 1.933 . S
C1170 C469 1.943 . S
C1175 C725 1.943 . S
C1180 C501 1.934 . S
C1185 C948 1.895 . S
C1190 C18 1.953 . S
C1195 C52 1.638 . S
C1200 C146 1.598 . S
C1205 C82 1.548 . S
C1210 C754 1.518 . S
C1215 C114 1.769 . S
C1220 C466 1.709 . S
C1225 C816 1.895 . S
C1230 C150 1.953 . S
C1235 C22 1.601 . S
C1240 C176 1.639 . S
C1245 C630 1.521 . S
C1250 C214 1.550 . S
C1255 C246 1.769 . S
C1260 C342 1.709 . S
C1265 C692 1.896 . S
C1270 C274 1.955 . S
C1275 C402 1.602 . S
C1280 C308 1.640 . S
C1285 C338 1.548 . S
C1290 C1010 1.518 . S
C1295 C210 1.709 . S
C1300 C370 1.769 . S
C1305 C560 1.897 . S
C1310 C406 1.954 . S
C1315 C432 1.640 . S
C1320 C278 1.602 . S
C1325 C470 1.550 . S
C1330 C886 1.521 . S
C1335 C502 1.769 . S
C1340 C86 1.709 . S
C1345 C530 1.954 . S
C1350 C436 1.896 . S
C1355 C658 1.598 . S
C1360 C564 1.639 . S
C1365 C242 1.521 . S
C1370 C594 1.551 . S
C1375 C978 1.711 . S
C1380 C626 1.770 . S
C1385 C662 1.955 . S
C1390 C304 1.897 . S
C1395 C688 1.639 . S
C1400 C534 1.598 . S
C1405 C726 1.548 . S
C1410 C118 1.518 . S
C1415 C758 1.772 . S
C1420 C854 1.712 . S
C1425 C180 1.896 . S
C1430 C786 1.955 . S
C1435 C914 1.598 . S
C1440 C820 1.638 . S
C1445 C498 1.521 . S
C1450 C850 1.551 . S
C1455 C882 1.772 . S
C1460 C722 1.712 . S
C1465 C918 1.955 . S
C1470 C48 1.896 . S
C1475 C944 1.638 . S
C1480 C790 1.598 . S
C1485 C982 1.548 . S
C1490 C374 1.518 . S
C1495 C1014 1.772 . S
C1500 C598 1.712 . S
C1505 C211 1.204 . S
C1510 C19 1.248 1_455 S
C1515 C51 1.378 1_545 S
C1520 C1011 1.345 . S
C1525 C403 1.345 . S
C1530 C83 1.249 . S
C1535 C691 1.124 . S
C1540 C115 1.018 . S
C1545 C87 1.206 . S
C1550 C151 1.251 1_655 S
C1555 C183 1.379 1_565 S
C1560 C887 1.348 . S
C1565 C279 1.346 . S
C1570 C215 1.252 . S
C1575 C247 1.017 . S
C1580 C567 1.124 . S
C1585 C275 1.249 1_455 S
C1590 C467 1.204 . S
C1595 C755 1.348 . S
C1600 C307 1.379 . S
C1605 C339 1.254 . S
C1610 C147 1.345 . S
C1615 C947 1.123 . S
C1620 C371 1.016 . S
C1625 C407 1.251 1_655 S
C1630 C343 1.206 . S
C1635 C631 1.345 . S
C1640 C439 1.378 . S
C1645 C471 1.251 . S
C1650 C23 1.346 . S
C1655 C823 1.124 . S
C1660 C503 1.013 . S
C1665 C531 1.249 . S
C1670 C723 1.203 . S
C1675 C563 1.379 1_545 S
C1680 C499 1.348 . S
C1685 C915 1.346 . S
C1690 C595 1.253 . S
C1695 C627 1.017 . S
C1700 C179 1.124 . S
C1705 C599 1.201 . S
C1710 C663 1.250 . S
C1715 C695 1.379 1_565 S
C1720 C375 1.345 . S
C1725 C791 1.345 . S
C1730 C727 1.249 . S
C1735 C759 1.016 . S
C1740 C55 1.123 . S
C1745 C979 1.205 . S
C1750 C787 1.252 . S
C1755 C819 1.378 . S
C1760 C243 1.345 . S
C1765 C851 1.254 . S
C1770 C659 1.345 . S
C1775 C883 1.010 . S
C1780 C435 1.122 . S
C1785 C855 1.204 . S
C1790 C919 1.252 . S
C1795 C951 1.379 . S
C1800 C119 1.348 . S
C1805 C535 1.345 . S
C1810 C983 1.254 . S
C1815 C1015 1.018 . S
C1820 C311 1.124 . S
C1825 C117 1.629 . S
C1830 C21 1.656 . S
C1835 C85 1.587 . S
C1840 C50 1.522 . S
C1845 C145 1.653 . S
C1850 C241 1.626 . S
C1855 C209 1.589 . S
C1860 C182 1.524 . S
C1865 C373 1.625 . S
C1870 C277 1.654 . S
C1875 C306 1.526 . S
C1880 C341 1.588 . S
C1885 C497 1.626 . S
C1890 C401 1.653 . S
C1895 C465 1.588 . S
C1900 C438 1.522 . S
C1905 C533 1.653 . S
C1910 C629 1.625 . S
C1915 C597 1.589 . S
C1920 C562 1.524 . S
C1925 C657 1.653 . S
C1930 C753 1.625 . S
C1935 C721 1.587 . S
C1940 C694 1.523 . S
C1945 C885 1.629 . S
C1950 C789 1.656 . S
C1955 C818 1.524 . S
C1960 C853 1.589 . S
C1965 C913 1.656 . S
C1970 C1009 1.629 . S
C1975 C950 1.522 . S
C1980 C977 1.587 . S
C1985 C20 1.062 . S
C1990 C144 1.062 . S
C1995 C949 1.677 . S
C2000 C49 1.677 . S
C2005 C464 1.027 . S
C2010 C84 1.027 . S
C2015 C752 1.033 . S
C2020 C116 1.033 . S
C2025 C817 1.676 . S
C2030 C181 1.676 . S
C2035 C340 1.027 . S
C2040 C208 1.027 . S
C2045 C240 1.033 . S
C2050 C628 1.033 . S
C2055 C400 1.061 . S
C2060 C276 1.061 . S
C2065 C305 1.674 . S
C2070 C693 1.674 . S
C2075 C372 1.034 . S
C2080 C1008 1.034 . S
C2085 C437 1.678 . S
C2090 C561 1.678 . S
C2095 C884 1.035 . S
C2100 C496 1.035 . S
C2105 C656 1.060 . S
C2110 C532 1.060 . S
C2115 C976 1.027 . S
C2120 C596 1.027 . S
C2125 C720 1.027 . S
C2130 C852 1.027 . S
C2135 C912 1.062 . S
C2140 C788 1.062 . S
C2145 C80 1.687 . S
C2150 C16 1.681 1_455 S
C2155 C112 1.742 . S
C2160 C53 1.729 . S
C2165 C148 1.681 1_655 S
C2170 C212 1.687 . S
C2175 C177 1.729 . S
C2180 C244 1.742 . S
C2185 C336 1.689 . S
C2190 C272 1.684 1_455 S
C2195 C368 1.742 . S
C2200 C309 1.729 . S
C2205 C404 1.684 1_655 S
C2210 C468 1.689 . S
C2215 C500 1.742 . S
C2220 C433 1.729 . S
C2225 C592 1.689 . S
C2230 C528 1.684 . S
C2235 C565 1.729 . S
C2240 C624 1.743 . S
C2245 C724 1.689 . S
C2250 C660 1.684 . S
C2255 C689 1.729 . S
C2260 C756 1.743 . S
C2265 C784 1.684 . S
C2270 C848 1.689 . S
C2275 C821 1.729 . S
C2280 C880 1.743 . S
C2285 C980 1.687 . S
C2290 C916 1.681 . S
C2295 C1012 1.743 . S
C2300 C945 1.729 . S
