# Generated by pormake.
# Topology lcs-e, (6)-cn, num edge types: 1
# Building blocks:
#     Node 0, Type 0, BuildingBlock: MAKGUD_clean_sbu_1, # of connection points: 6
#     Node 1, Type 0, BuildingBlock: MAKGUD_clean_sbu_1, # of connection points: 6
#     Node 2, Type 0, BuildingBlock: MAKGUD_clean_sbu_1, # of connection points: 6
#     Node 3, Type 0, BuildingBlock: MAKGUD_clean_sbu_1, # of connection points: 6
#     Node 4, Type 0, BuildingBlock: MAKGUD_clean_sbu_1, # of connection points: 6
#     Node 5, Type 0, BuildingBlock: MAKGUD_clean_sbu_1, # of connection points: 6
#     Node 6, Type 0, BuildingBlock: MAKGUD_clean_sbu_1, # of connection points: 6
#     Node 7, Type 0, BuildingBlock: MAKGUD_clean_sbu_1, # of connection points: 6
#     Node 8, Type 0, BuildingBlock: MAKGUD_clean_sbu_1, # of connection points: 6
#     Node 9, Type 0, BuildingBlock: MAKGUD_clean_sbu_1, # of connection points: 6
#     Node 10, Type 0, BuildingBlock: MAKGUD_clean_sbu_1, # of connection points: 6
#     Node 11, Type 0, BuildingBlock: MAKGUD_clean_sbu_1, # of connection points: 6
#     Node 12, Type 0, BuildingBlock: MAKGUD_clean_sbu_1, # of connection points: 6
#     Node 13, Type 0, BuildingBlock: MAKGUD_clean_sbu_1, # of connection points: 6
#     Node 14, Type 0, BuildingBlock: MAKGUD_clean_sbu_1, # of connection points: 6
#     Node 15, Type 0, BuildingBlock: MAKGUD_clean_sbu_1, # of connection points: 6
#     Node 16, Type 0, BuildingBlock: MAKGUD_clean_sbu_1, # of connection points: 6
#     Node 17, Type 0, BuildingBlock: MAKGUD_clean_sbu_1, # of connection points: 6
#     Node 18, Type 0, BuildingBlock: MAKGUD_clean_sbu_1, # of connection points: 6
#     Node 19, Type 0, BuildingBlock: MAKGUD_clean_sbu_1, # of connection points: 6
#     Node 20, Type 0, BuildingBlock: MAKGUD_clean_sbu_1, # of connection points: 6
#     Node 21, Type 0, BuildingBlock: MAKGUD_clean_sbu_1, # of connection points: 6
#     Node 22, Type 0, BuildingBlock: MAKGUD_clean_sbu_1, # of connection points: 6
#     Node 23, Type 0, BuildingBlock: MAKGUD_clean_sbu_1, # of connection points: 6
#     Node 24, Type 0, BuildingBlock: MAKGUD_clean_sbu_1, # of connection points: 6
#     Node 25, Type 0, BuildingBlock: MAKGUD_clean_sbu_1, # of connection points: 6
#     Node 26, Type 0, BuildingBlock: MAKGUD_clean_sbu_1, # of connection points: 6
#     Node 27, Type 0, BuildingBlock: MAKGUD_clean_sbu_1, # of connection points: 6
#     Node 28, Type 0, BuildingBlock: MAKGUD_clean_sbu_1, # of connection points: 6
#     Node 29, Type 0, BuildingBlock: MAKGUD_clean_sbu_1, # of connection points: 6
#     Node 30, Type 0, BuildingBlock: MAKGUD_clean_sbu_1, # of connection points: 6
#     Node 31, Type 0, BuildingBlock: MAKGUD_clean_sbu_1, # of connection points: 6
#     Node 32, Type 0, BuildingBlock: MAKGUD_clean_sbu_1, # of connection points: 6
#     Node 33, Type 0, BuildingBlock: MAKGUD_clean_sbu_1, # of connection points: 6
#     Node 34, Type 0, BuildingBlock: MAKGUD_clean_sbu_1, # of connection points: 6
#     Node 35, Type 0, BuildingBlock: MAKGUD_clean_sbu_1, # of connection points: 6
#     Node 36, Type 0, BuildingBlock: MAKGUD_clean_sbu_1, # of connection points: 6
#     Node 37, Type 0, BuildingBlock: MAKGUD_clean_sbu_1, # of connection points: 6
#     Node 38, Type 0, BuildingBlock: MAKGUD_clean_sbu_1, # of connection points: 6
#     Node 39, Type 0, BuildingBlock: MAKGUD_clean_sbu_1, # of connection points: 6
#     Node 40, Type 0, BuildingBlock: MAKGUD_clean_sbu_1, # of connection points: 6
#     Node 41, Type 0, BuildingBlock: MAKGUD_clean_sbu_1, # of connection points: 6
#     Node 42, Type 0, BuildingBlock: MAKGUD_clean_sbu_1, # of connection points: 6
#     Node 43, Type 0, BuildingBlock: MAKGUD_clean_sbu_1, # of connection points: 6
#     Node 44, Type 0, BuildingBlock: MAKGUD_clean_sbu_1, # of connection points: 6
#     Node 45, Type 0, BuildingBlock: MAKGUD_clean_sbu_1, # of connection points: 6
#     Node 46, Type 0, BuildingBlock: MAKGUD_clean_sbu_1, # of connection points: 6
#     Node 47, Type 0, BuildingBlock: MAKGUD_clean_sbu_1, # of connection points: 6
#     Edge 48, Type (0, 0), None
#     Edge 49, Type (0, 0), None
#     Edge 50, Type (0, 0), None
#     Edge 51, Type (0, 0), None
#     Edge 52, Type (0, 0), None
#     Edge 53, Type (0, 0), None
#     Edge 54, Type (0, 0), None
#     Edge 55, Type (0, 0), None
#     Edge 56, Type (0, 0), None
#     Edge 57, Type (0, 0), None
#     Edge 58, Type (0, 0), None
#     Edge 59, Type (0, 0), None
#     Edge 60, Type (0, 0), None
#     Edge 61, Type (0, 0), None
#     Edge 62, Type (0, 0), None
#     Edge 63, Type (0, 0), None
#     Edge 64, Type (0, 0), None
#     Edge 65, Type (0, 0), None
#     Edge 66, Type (0, 0), None
#     Edge 67, Type (0, 0), None
#     Edge 68, Type (0, 0), None
#     Edge 69, Type (0, 0), None
#     Edge 70, Type (0, 0), None
#     Edge 71, Type (0, 0), None
#     Edge 72, Type (0, 0), None
#     Edge 73, Type (0, 0), None
#     Edge 74, Type (0, 0), None
#     Edge 75, Type (0, 0), None
#     Edge 76, Type (0, 0), None
#     Edge 77, Type (0, 0), None
#     Edge 78, Type (0, 0), None
#     Edge 79, Type (0, 0), None
#     Edge 80, Type (0, 0), None
#     Edge 81, Type (0, 0), None
#     Edge 82, Type (0, 0), None
#     Edge 83, Type (0, 0), None
#     Edge 84, Type (0, 0), None
#     Edge 85, Type (0, 0), None
#     Edge 86, Type (0, 0), None
#     Edge 87, Type (0, 0), None
#     Edge 88, Type (0, 0), None
#     Edge 89, Type (0, 0), None
#     Edge 90, Type (0, 0), None
#     Edge 91, Type (0, 0), None
#     Edge 92, Type (0, 0), None
#     Edge 93, Type (0, 0), None
#     Edge 94, Type (0, 0), None
#     Edge 95, Type (0, 0), None
#     Edge 96, Type (0, 0), None
#     Edge 97, Type (0, 0), None
#     Edge 98, Type (0, 0), None
#     Edge 99, Type (0, 0), None
#     Edge 100, Type (0, 0), None
#     Edge 101, Type (0, 0), None
#     Edge 102, Type (0, 0), None
#     Edge 103, Type (0, 0), None
#     Edge 104, Type (0, 0), None
#     Edge 105, Type (0, 0), None
#     Edge 106, Type (0, 0), None
#     Edge 107, Type (0, 0), None
#     Edge 108, Type (0, 0), None
#     Edge 109, Type (0, 0), None
#     Edge 110, Type (0, 0), None
#     Edge 111, Type (0, 0), None
#     Edge 112, Type (0, 0), None
#     Edge 113, Type (0, 0), None
#     Edge 114, Type (0, 0), None
#     Edge 115, Type (0, 0), None
#     Edge 116, Type (0, 0), None
#     Edge 117, Type (0, 0), None
#     Edge 118, Type (0, 0), None
#     Edge 119, Type (0, 0), None
#     Edge 120, Type (0, 0), None
#     Edge 121, Type (0, 0), None
#     Edge 122, Type (0, 0), None
#     Edge 123, Type (0, 0), None
#     Edge 124, Type (0, 0), None
#     Edge 125, Type (0, 0), None
#     Edge 126, Type (0, 0), None
#     Edge 127, Type (0, 0), None
#     Edge 128, Type (0, 0), None
#     Edge 129, Type (0, 0), None
#     Edge 130, Type (0, 0), None
#     Edge 131, Type (0, 0), None
#     Edge 132, Type (0, 0), None
#     Edge 133, Type (0, 0), None
#     Edge 134, Type (0, 0), None
#     Edge 135, Type (0, 0), None
#     Edge 136, Type (0, 0), None
#     Edge 137, Type (0, 0), None
#     Edge 138, Type (0, 0), None
#     Edge 139, Type (0, 0), None
#     Edge 140, Type (0, 0), None
#     Edge 141, Type (0, 0), None
#     Edge 142, Type (0, 0), None
#     Edge 143, Type (0, 0), None
#     Edge 144, Type (0, 0), None
#     Edge 145, Type (0, 0), None
#     Edge 146, Type (0, 0), None
#     Edge 147, Type (0, 0), None
#     Edge 148, Type (0, 0), None
#     Edge 149, Type (0, 0), None
#     Edge 150, Type (0, 0), None
#     Edge 151, Type (0, 0), None
#     Edge 152, Type (0, 0), None
#     Edge 153, Type (0, 0), None
#     Edge 154, Type (0, 0), None
#     Edge 155, Type (0, 0), None
#     Edge 156, Type (0, 0), None
#     Edge 157, Type (0, 0), None
#     Edge 158, Type (0, 0), None
#     Edge 159, Type (0, 0), None
#     Edge 160, Type (0, 0), None
#     Edge 161, Type (0, 0), None
#     Edge 162, Type (0, 0), None
#     Edge 163, Type (0, 0), None
#     Edge 164, Type (0, 0), None
#     Edge 165, Type (0, 0), None
#     Edge 166, Type (0, 0), None
#     Edge 167, Type (0, 0), None
#     Edge 168, Type (0, 0), None
#     Edge 169, Type (0, 0), None
#     Edge 170, Type (0, 0), None
#     Edge 171, Type (0, 0), None
#     Edge 172, Type (0, 0), None
#     Edge 173, Type (0, 0), None
#     Edge 174, Type (0, 0), None
#     Edge 175, Type (0, 0), None
#     Edge 176, Type (0, 0), None
#     Edge 177, Type (0, 0), None
#     Edge 178, Type (0, 0), None
#     Edge 179, Type (0, 0), None
#     Edge 180, Type (0, 0), None
#     Edge 181, Type (0, 0), None
#     Edge 182, Type (0, 0), None
#     Edge 183, Type (0, 0), None
#     Edge 184, Type (0, 0), None
#     Edge 185, Type (0, 0), None
#     Edge 186, Type (0, 0), None
#     Edge 187, Type (0, 0), None
#     Edge 188, Type (0, 0), None
#     Edge 189, Type (0, 0), None
#     Edge 190, Type (0, 0), None
#     Edge 191, Type (0, 0), None
# Relax obj value: 0.240
# Max RMSD: 0.245
# Mean RMSD: 0.172
data_MOF--net-lcs-e--node1-MAKGUD_clean_sbu_1--edge1-none
_symmetry_space_group_name_H-M    P1
_symmetry_Int_Tables_number       1
_symmetry_cell_setting            triclinic
loop_
_symmetry_equiv_pos_as_xyz
'x, y, z'
_cell_length_a     31.283373
_cell_length_b     31.944752
_cell_length_c     31.274792
_cell_angle_alpha  89.13568
_cell_angle_beta   89.911078
_cell_angle_gamma 78.406565
loop_
_atom_site_label
_atom_site_type_symbol
_atom_site_fract_x
_atom_site_fract_y
_atom_site_fract_z
_atom_type_partial_charge
O0 O 0.06999 0.54069 0.22025 0.0
Tb1 Tb 0.05662 0.51516 0.28347 0.0
C2 C 0.12718 0.51667 0.35584 0.0
O3 O 0.07633 0.39919 0.3027 0.0
Tb4 Tb 0.09426 0.43627 0.35455 0.0
C5 C 0.12069 0.38084 0.41879 0.0
O6 O 0.02225 0.45488 0.27992 0.0
O7 O 0.03579 0.48708 0.3558 0.0
C8 C 1.00758 0.49667 0.38676 0.0
O9 O 0.97925 0.53305 0.38461 0.0
O10 O 0.08792 0.53386 0.34162 0.0
O11 O 0.14284 0.47584 0.35011 0.0
O12 O 0.02176 0.58559 0.27948 0.0
C13 C 0.03784 0.41146 0.28522 0.0
C14 C 0.11206 0.52678 0.22045 0.0
O15 O 0.12906 0.37436 0.37851 0.0
O16 O 0.09697 0.41913 0.42255 0.0
C17 C 0.02598 0.61818 0.30549 0.0
O18 O 0.03974 0.6096 0.34483 0.0
O19 O 0.12237 0.50225 0.25433 0.0
O20 O 0.94452 0.7724 0.70501 0.0
Tb21 Tb 0.93221 0.83771 0.67906 0.0
C22 C 0.93226 0.92213 0.73112 0.0
O23 O 0.81537 0.88582 0.66458 0.0
Tb24 Tb 0.85744 0.93273 0.66802 0.0
C25 C 0.81938 1.01401 0.65862 0.0
O26 O 0.87076 0.83505 0.63635 0.0
O27 O 0.89863 0.91272 0.61246 0.0
C28 C 0.89419 0.92615 0.57198 0.0
O29 O 0.9218 0.90559 0.54413 0.0
O30 O 0.95353 0.89481 0.70362 0.0
O31 O 0.88961 0.9315 0.72978 0.0
O32 O 1.00519 0.81857 0.661 0.0
C33 C 0.82699 0.85046 0.64257 0.0
C34 C 0.92971 0.78079 0.74355 0.0
O35 O 0.79948 0.98362 0.66986 0.0
O36 O 0.86046 0.99863 0.65238 0.0
C37 C 0.03603 0.84292 0.65615 0.0
O38 O 0.02354 0.88447 0.65156 0.0
O39 O 0.91503 0.82203 0.74598 0.0
O40 O 0.55717 0.77162 0.82241 0.0
Tb41 Tb 0.49066 0.78157 0.79866 0.0
C42 C 0.42566 0.8243 0.86766 0.0
O43 O 0.4605 0.68376 0.84196 0.0
Tb44 Tb 0.40587 0.73544 0.85555 0.0
C45 C 0.34572 0.70002 0.8962 0.0
O46 O 0.48734 0.71079 0.77977 0.0
O47 O 0.38869 0.77395 0.79761 0.0
C48 C 0.37758 0.76264 0.75983 0.0
O49 O 0.37118 0.79151 0.72903 0.0
O50 O 0.43365 0.82381 0.82614 0.0
O51 O 0.42104 0.78949 0.88897 0.0
O52 O 0.51799 0.84281 0.7787 0.0
C53 C 0.48027 0.67677 0.80495 0.0
C54 C 0.54644 0.76218 0.86093 0.0
O55 O 0.38464 0.70067 0.91035 0.0
O56 O 0.34036 0.7202 0.85941 0.0
C57 C 0.50054 0.88601 0.77723 0.0
O58 O 0.45795 0.89841 0.77839 0.0
O59 O 0.50514 0.76227 0.86387 0.0
O60 O 0.68793 0.31443 1.06807 0.0
Tb61 Tb 0.69264 0.31778 0.13704 0.0
C62 C 0.69972 0.24668 0.20956 0.0
O63 O 0.60103 0.28736 0.17805 0.0
Tb64 Tb 0.61598 0.28404 0.24691 0.0
C65 C 0.57305 0.23364 0.28801 0.0
O66 O 0.61889 0.34448 0.14142 0.0
O67 O 0.61964 0.34736 0.27103 0.0
C68 C 0.58781 0.37135 0.29258 0.0
O69 O 0.55164 0.35758 0.29933 0.0
O70 O 0.69513 0.28736 0.19901 0.0
O71 O 0.67636 0.239 0.24165 0.0
O72 O 0.75871 0.33567 0.12871 0.0
C73 C 0.58812 0.32384 0.15719 0.0
C74 C 0.70327 0.27351 1.06781 0.0
O75 O 0.55951 0.25483 0.25306 0.0
O76 O 0.60799 0.24467 0.30247 0.0
C77 C 0.79636 0.31576 0.1471 0.0
O78 O 0.79442 0.29389 0.18265 0.0
O79 O 0.70909 0.25722 0.10615 0.0
O80 O 0.07043 0.72797 0.37303 0.0
Tb81 Tb 0.056 0.75664 0.30923 0.0
C82 C 0.08991 0.71512 0.22525 0.0
O83 O 0.04375 0.85929 0.24986 0.0
Tb84 Tb 0.05198 0.80188 0.2109 0.0
C85 C 0.12303 0.78688 0.16461 0.0
O86 O 0.02116 0.82974 0.31177 0.0
O87 O 0.99175 0.81754 0.17613 0.0
C88 C 0.95674 0.80468 0.18979 0.0
O89 O 0.95614 0.7867 0.22775 0.0
O90 O 0.10377 0.72867 0.26076 0.0
O91 O 0.05149 0.73513 0.21335 0.0
O92 O 0.02624 0.69642 0.31574 0.0
C93 C 0.02556 0.86515 0.28783 0.0
C94 C 0.11069 0.73269 0.37505 0.0
O95 O 0.12337 0.79027 0.206 0.0
O96 O 0.08349 0.79866 0.14965 0.0
C97 C 0.02275 0.6642 0.28899 0.0
O98 O 0.02228 0.67066 0.24757 0.0
O99 O 0.11862 0.75493 0.34176 0.0
O100 O 0.68358 0.75658 0.58044 0.0
Tb101 Tb 0.68518 0.82271 0.59573 0.0
C102 C 0.64433 0.87845 0.51639 0.0
O103 O 0.79122 0.85149 0.57305 0.0
Tb104 Tb 0.73367 0.8906 0.54303 0.0
C105 C 0.75238 0.95713 0.49971 0.0
O106 O 0.75082 0.83173 0.62937 0.0
O107 O 0.69512 0.89278 0.60083 0.0
C108 C 0.68228 0.9247 0.62587 0.0
O109 O 0.65521 0.92086 0.65713 0.0
O110 O 0.63815 0.87102 0.55747 0.0
O111 O 0.68442 0.87346 0.50169 0.0
O112 O 0.62596 0.8062 0.62997 0.0
C113 C 0.78965 0.83956 0.61355 0.0
C114 C 0.68932 0.76011 0.53939 0.0
O115 O 0.7656 0.91706 0.49019 0.0
O116 O 0.72891 0.95951 0.53444 0.0
C117 C 0.58391 0.82733 0.62836 0.0
O118 O 0.57542 0.86789 0.61714 0.0
O119 O 0.70215 0.79593 0.53277 0.0
O120 O 0.4469 0.52285 0.88723 0.0
Tb121 Tb 0.47164 0.52497 0.82068 0.0
C122 C 0.45248 0.53855 0.7263 0.0
O123 O 0.47063 0.43414 0.7619 0.0
Tb124 Tb 0.47836 0.44942 0.69314 0.0
C125 C 0.40968 0.43713 0.64797 0.0
O126 O 0.51074 0.45284 0.81685 0.0
O127 O 0.537 0.41657 0.6597 0.0
C128 C 0.57693 0.4209 0.66873 0.0
O129 O 0.58379 0.44341 0.7019 0.0
O130 O 0.44731 0.51454 0.75887 0.0
O131 O 0.468 0.51894 0.69156 0.0
O132 O 0.48179 0.59666 0.82013 0.0
C133 C 0.50208 0.42139 0.79023 0.0
C134 C 0.40522 0.53127 0.87809 0.0
O135 O 0.42461 0.41647 0.68276 0.0
O136 O 0.43431 0.46397 0.63841 0.0
C137 C 0.48967 0.62818 0.79224 0.0
O138 O 0.50243 0.61804 0.75311 0.0
O139 O 0.4014 0.53451 0.83662 0.0
O140 O 0.93573 0.36394 0.08192 0.0
Tb141 Tb 0.94495 0.30108 0.11166 0.0
C142 C 0.97259 0.22136 1.0593 0.0
O143 O 0.83725 0.29578 0.08218 0.0
Tb144 Tb 0.87015 0.234 1.05549 0.0
C145 C 0.82656 0.21155 0.98741 0.0
O146 O 0.87822 0.30569 0.14206 0.0
O147 O 0.87781 0.17924 0.09953 0.0
C148 C 0.85014 0.17959 0.13117 0.0
O149 O 0.82352 0.21585 0.13885 0.0
O150 O 0.96953 0.2338 0.09922 0.0
O151 O 0.93776 0.22716 1.03463 0.0
O152 O 1.00727 0.32026 0.13539 0.0
C153 C 0.8394 0.30756 0.12242 0.0
C154 C 0.93917 0.35135 1.04259 0.0
O155 O 0.85602 0.23512 0.98673 0.0
O156 O 0.82153 0.20092 1.02711 0.0
C157 C 0.04907 0.30014 0.1291 0.0
O158 O 0.05679 0.26015 0.11714 0.0
O159 O 0.94248 0.31025 1.04206 0.0
O160 O 0.34609 1.00867 0.45277 0.0
Tb161 Tb 0.3128 1.07517 0.46364 0.0
C162 C 0.35837 0.14584 0.4258 0.0
O163 O 0.33636 1.1014 0.56968 0.0
Tb164 Tb 0.34717 0.14889 0.5227 0.0
C165 C 0.39386 0.1971 0.55991 0.0
O166 O 0.28021 1.08446 0.53172 0.0
O167 O 0.28777 0.19685 0.5104 0.0
C168 C 0.25111 0.19051 0.49383 0.0
O169 O 0.24787 0.1525 0.48071 0.0
O170 O 0.32264 0.13025 0.42411 0.0
O171 O 0.3801 0.14302 0.46157 0.0
O172 O 0.27848 1.05764 0.40375 0.0
C173 C 0.2983 1.09054 0.57041 0.0
C174 C 0.38629 1.0131 0.45789 0.0
O175 O 0.35179 0.20569 0.55648 0.0
O176 O 0.40993 0.16007 0.54379 0.0
C177 C 0.26844 1.08015 0.36675 0.0
O178 O 0.26659 0.12153 0.36605 0.0
O179 O 0.38501 1.05269 0.46895 0.0
O180 O 0.24463 1.03215 0.7268 0.0
Tb181 Tb 0.25505 1.09715 0.71973 0.0
C182 C 0.16943 0.16181 0.74732 0.0
O183 O 0.23267 0.12117 0.61163 0.0
Tb184 Tb 0.21077 0.166 0.66293 0.0
C185 C 0.16964 0.23723 0.62882 0.0
O186 O 0.29099 1.09359 0.65356 0.0
O187 O 0.26953 0.16855 0.70097 0.0
C188 C 0.3036 0.18726 0.69589 0.0
O189 O 0.33461 0.17853 0.7248 0.0
O190 O 0.2112 0.14841 0.75692 0.0
O191 O 0.1589 0.16057 0.70733 0.0
O192 O 0.28604 1.07715 0.78477 0.0
C193 C 0.27243 1.09854 0.61376 0.0
C194 C 0.20419 1.04016 0.7141 0.0
O195 O 0.20569 0.23354 0.65048 0.0
O196 O 0.15889 0.20056 0.62412 0.0
C197 C 0.28215 1.09988 0.82123 0.0
O198 O 0.27005 0.14163 0.81898 0.0
O199 O 0.19379 1.07976 0.70152 0.0
O200 O 0.20564 0.14667 0.93841 0.0
Tb201 Tb 0.24233 1.08484 0.96208 0.0
C202 C 0.17989 1.03276 0.92945 0.0
O203 O 0.22068 1.04423 1.06484 0.0
Tb204 Tb 0.22261 1.00545 1.0083 0.0
C205 C 0.19092 0.93653 1.017 0.0
O206 O 0.27048 1.07759 1.03227 0.0
O207 O 0.28854 0.98572 0.98332 0.0
C208 C 0.29993 0.94773 0.96589 0.0
O209 O 0.2699 0.9259 0.95704 0.0
O210 O 0.22035 1.03644 0.92323 0.0
O211 O 0.16781 1.03334 0.969 0.0
O212 O 0.27738 1.10079 0.90186 0.0
C213 C 0.25198 1.06558 1.06919 0.0
C214 C 0.16758 0.14343 0.95328 0.0
O215 O 0.21246 0.95163 1.04653 0.0
O216 O 0.18921 0.95894 0.98239 0.0
C217 C 0.28309 1.07826 0.86525 0.0
O218 O 0.28214 1.0374 0.86662 0.0
O219 O 0.17329 0.10984 0.978 0.0
O220 O 0.29488 0.12435 0.22221 0.0
Tb221 Tb 0.286 1.05922 0.22032 0.0
C222 C 0.37175 0.99299 0.25152 0.0
O223 O 0.31568 1.04656 0.11609 0.0
Tb224 Tb 0.33681 0.99612 0.16363 0.0
C225 C 0.37286 0.93106 0.11869 0.0
O226 O 0.25259 1.06237 0.1528 0.0
O227 O 0.27727 0.99282 0.19981 0.0
C228 C 0.24162 0.9791 0.18996 0.0
O229 O 0.2089 0.98663 0.21695 0.0
O230 O 0.32954 1.0071 0.25866 0.0
O231 O 0.3857 0.99541 0.21247 0.0
O232 O 0.25956 1.08041 0.28643 0.0
C233 C 0.27389 1.0625 0.11465 0.0
C234 C 0.33525 0.11579 0.20955 0.0
O235 O 0.34067 0.9306 0.14493 0.0
O236 O 0.38364 0.96806 0.11684 0.0
C237 C 0.26596 1.05819 0.32394 0.0
O238 O 0.27657 1.01634 0.32342 0.0
O239 O 0.34643 1.07576 0.19982 0.0
O240 O 0.4461 0.27079 0.19999 0.0
Tb241 Tb 0.43452 0.33607 0.17422 0.0
C242 C 0.43222 0.41988 0.22722 0.0
O243 O 0.31762 0.38294 0.15888 0.0
Tb244 Tb 0.35907 0.4303 0.16304 0.0
C245 C 0.32231 0.51197 0.15516 0.0
O246 O 0.37384 0.33289 0.13091 0.0
O247 O 0.40095 0.41172 0.10766 0.0
C248 C 0.397 0.42636 1.06757 0.0
O249 O 0.42511 0.4068 1.03958 0.0
O250 O 0.45455 0.39334 0.19974 0.0
O251 O 0.38965 0.42792 0.22543 0.0
O252 O 0.50795 0.31749 0.1579 0.0
C253 C 0.32998 0.34746 0.13721 0.0
C254 C 0.42976 0.27922 0.23797 0.0
O255 O 0.30166 0.4817 0.16479 0.0
O256 O 0.36342 0.49629 0.14962 0.0
C257 C 0.53858 0.34218 0.15394 0.0
O258 O 0.5258 0.38371 0.14939 0.0
O259 O 0.41516 0.32045 0.24034 0.0
O260 O 0.94594 1.01657 0.38993 0.0
Tb261 Tb 0.97124 1.0157 0.32333 0.0
C262 C 0.95051 1.03227 0.23029 0.0
O263 O 0.96687 0.92633 0.26661 0.0
Tb264 Tb 0.9745 0.94293 0.19837 0.0
C265 C 0.90525 0.93398 0.15228 0.0
O266 O 1.00919 0.94364 0.32 0.0
O267 O 0.03284 0.90765 0.16702 0.0
C268 C 0.07295 0.90952 0.17799 0.0
O269 O 0.07995 0.9317 0.21135 0.0
O270 O 0.94307 1.00873 0.26246 0.0
O271 O 0.9674 1.0121 0.19639 0.0
O272 O 0.98481 1.08576 0.32109 0.0
C273 C 0.99881 0.91264 0.29416 0.0
C274 C 0.90432 1.02496 0.38049 0.0
O275 O 0.91834 0.9134 0.18763 0.0
O276 O 0.93213 0.95859 0.14259 0.0
C277 C 0.99491 0.11603 0.29303 0.0
O278 O 1.0084 0.10499 0.2543 0.0
O279 O 0.90087 1.02656 0.33901 0.0
O280 O 0.18513 0.81394 0.56753 0.0
Tb281 Tb 0.18999 0.81798 0.63654 0.0
C282 C 0.19869 0.74581 0.7083 0.0
O283 O 0.09839 0.7876 0.67941 0.0
Tb284 Tb 0.11638 0.78385 0.74762 0.0
C285 C 0.07471 0.73399 0.79105 0.0
O286 O 0.11627 0.84463 0.64234 0.0
O287 O 0.12195 0.84727 0.77017 0.0
C288 C 0.09084 0.87231 0.79166 0.0
O289 O 0.05447 0.85935 0.7997 0.0
O290 O 0.19366 0.78663 0.69809 0.0
O291 O 0.17571 0.73776 0.74047 0.0
O292 O 0.25542 0.83722 0.6281 0.0
C293 C 0.08555 0.82419 0.65868 0.0
C294 C 0.20105 0.77311 0.56754 0.0
O295 O 0.06011 0.75477 0.75618 0.0
O296 O 0.10996 0.74534 0.80428 0.0
C297 C 0.29332 0.81732 0.64604 0.0
O298 O 0.29169 0.79402 0.68067 0.0
O299 O 0.20713 0.75727 0.60598 0.0
O300 O 0.04741 0.71105 0.85662 0.0
Tb301 Tb 0.97853 0.70967 0.85869 0.0
C302 C 0.92991 0.74672 0.77691 0.0
O303 O 0.97278 0.60685 0.81539 0.0
Tb304 Tb 0.918 0.6579 0.80137 0.0
C305 C 0.8675 0.63758 0.74241 0.0
O306 O 0.97746 0.6379 0.88014 0.0
O307 O 0.89084 0.64818 0.86557 0.0
C308 C 0.85491 0.66851 0.88433 0.0
O309 O 0.83152 0.70317 0.86658 0.0
O310 O 0.92935 0.75281 0.81848 0.0
O311 O 0.93865 0.70752 0.76419 0.0
O312 O 0.99199 0.77198 0.88819 0.0
C313 C 0.98143 0.60122 0.85617 0.0
C314 C 0.05028 0.70803 0.81531 0.0
O315 O 0.9075 0.61782 0.7493 0.0
O316 O 0.85488 0.6667 0.77092 0.0
C317 C 0.9745 0.8134 0.8771 0.0
O318 O 0.93639 0.82192 0.85802 0.0
O319 O 1.01466 0.69953 0.79963 0.0
O320 O 0.16894 0.30673 0.59973 0.0
Tb321 Tb 0.1654 0.3151 0.53121 0.0
C322 C 0.21284 0.22597 0.49247 0.0
O323 O 0.07035 0.28444 0.49976 0.0
Tb324 Tb 0.12684 0.27137 0.45848 0.0
C325 C 0.10331 0.24716 0.38349 0.0
O326 O 0.09231 0.34432 0.522 0.0
O327 O 0.16516 0.32175 0.45875 0.0
C328 C 0.15332 0.363 0.45061 0.0
O329 O 0.17914 0.38796 0.46361 0.0
O330 O 0.21659 0.26516 0.50199 0.0
O331 O 0.17524 0.21847 0.48082 0.0
O332 O 0.22166 0.34654 0.54754 0.0
C333 C 0.06023 0.32157 0.51786 0.0
C334 C 0.15577 0.27067 0.59877 0.0
O335 O 0.11431 0.28356 0.39073 0.0
O336 O 0.10493 0.2251 0.41868 0.0
C337 C 0.26078 0.34061 0.52796 0.0
O338 O 0.26443 0.32674 0.48858 0.0
O339 O 0.14675 0.26077 0.56027 0.0
O340 O 0.43695 0.45912 0.2945 0.0
Tb341 Tb 0.4955 0.4483 0.33556 0.0
C342 C 0.59402 0.41264 0.31016 0.0
O343 O 0.55541 0.52357 0.30509 0.0
Tb344 Tb 0.62609 0.4958 0.31139 0.0
C345 C 0.67304 0.51983 0.24804 0.0
O346 O 0.50049 0.51907 0.35222 0.0
O347 O 0.65154 0.51313 0.3724 0.0
C348 C 0.69292 0.49914 0.38299 0.0
O349 O 0.71809 0.47179 0.35829 0.0
O350 O 0.56553 0.43792 0.33373 0.0
O351 O 0.6287 0.42765 0.30028 0.0
O352 O 0.473 0.3911 0.36834 0.0
C353 C 0.52899 0.54271 0.33535 0.0
C354 C 0.45547 0.43796 0.26172 0.0
O355 O 0.63425 0.53964 0.2592 0.0
O356 O 0.68547 0.48707 0.27317 0.0
C357 C 0.49337 0.35003 0.37677 0.0
O358 O 0.53591 0.34106 0.38148 0.0
O359 O 0.49725 0.42698 0.26896 0.0
O360 O 0.38003 0.86095 0.08951 0.0
Tb361 Tb 0.39063 0.84954 1.02199 0.0
C362 C 0.34575 0.92558 0.96608 0.0
O363 O 0.48451 0.8946 1.02049 0.0
Tb364 Tb 0.44423 0.91776 0.9656 0.0
C365 C 0.47817 0.97143 0.9168 0.0
O366 O 0.46531 0.8283 1.01997 0.0
O367 O 0.43578 0.86135 0.93167 0.0
C368 C 0.42564 0.86354 0.89091 0.0
O369 O 0.41959 0.9004 0.87036 0.0
O370 O 0.35497 0.88344 0.96749 0.0
O371 O 0.37622 0.94718 0.97373 0.0
O372 O 0.32997 0.82441 1.04323 0.0
C373 C 0.49549 0.8531 1.02662 0.0
C374 C 0.38586 0.89991 0.08684 0.0
O375 O 0.48539 0.93028 0.912 0.0
O376 O 0.45249 0.98199 0.94921 0.0
C377 C 0.29016 0.82892 1.02451 0.0
O378 O 0.2863 0.83809 0.98351 0.0
O379 O 0.39466 0.91044 1.04817 0.0
O380 O 0.95097 0.4616 0.78416 0.0
Tb381 Tb 0.9663 0.45141 0.85351 0.0
C382 C 0.92891 0.47531 0.9439 0.0
O383 O 0.04365 0.36881 0.90845 0.0
Tb384 Tb 1.01134 0.40945 0.96043 0.0
C385 C 0.9605 0.37402 1.01118 0.0
O386 O 0.99395 0.37502 0.8539 0.0
O387 O 0.07081 0.4028 0.99955 0.0
C388 C 0.11073 0.38973 0.98452 0.0
O389 O 0.11704 0.38638 0.94321 0.0
O390 O 0.92137 0.45744 0.90793 0.0
O391 O 0.96977 0.47343 0.95555 0.0
O392 O 0.98936 0.518 0.85172 0.0
C393 C 0.02504 0.34909 0.8789 0.0
C394 C 0.90866 0.47397 0.7875 0.0
O395 O 0.96618 0.36553 0.97066 0.0
O396 O 0.98489 0.40009 1.02277 0.0
C397 C 0.97849 0.55541 0.87455 0.0
O398 O 0.95749 0.55446 0.91072 0.0
O399 O 0.89894 0.47085 0.8277 0.0
O400 O 0.40093 0.41639 0.57668 0.0
Tb401 Tb 0.4032 0.34848 0.56858 0.0
C402 C 0.42838 0.30792 0.65817 0.0
O403 O 0.29935 0.32851 0.59429 0.0
Tb404 Tb 0.34784 0.27964 0.62551 0.0
C405 C 0.31029 0.2173 0.66121 0.0
O406 O 0.34133 0.33875 0.53533 0.0
O407 O 0.39617 0.26843 0.57421 0.0
C408 C 0.4175 0.23099 0.56235 0.0
O409 O 0.45307 0.22859 0.53941 0.0
O410 O 0.43941 0.30652 0.61751 0.0
O411 O 0.3893 0.30337 0.67074 0.0
O412 O 0.46727 0.35557 0.53727 0.0
C413 C 0.30213 0.3389 0.55369 0.0
C414 C 0.38643 0.41812 0.61578 0.0
O415 O 0.29604 0.25842 0.66349 0.0
O416 O 0.34689 0.2121 0.6401 0.0
C417 C 0.50734 0.33109 0.54352 0.0
O418 O 0.51072 0.29344 0.56203 0.0
O419 O 0.37523 0.38216 0.62502 0.0
O420 O 0.58569 0.68142 0.27625 0.0
Tb421 Tb 0.56501 0.68679 0.34445 0.0
C422 C 0.60542 0.6637 0.4298 0.0
O423 O 0.55405 0.79519 0.42429 0.0
Tb424 Tb 0.57855 0.74785 0.47455 0.0
C425 C 0.65631 0.74909 0.51037 0.0
O426 O 0.53629 0.76457 0.35699 0.0
O427 O 0.52449 0.75559 0.51934 0.0
C428 C 0.51387 0.72181 0.53786 0.0
O429 O 0.53652 0.68357 0.52959 0.0
O430 O 0.60591 0.64719 0.3924 0.0
O431 O 0.57592 0.6979 0.43364 0.0
O432 O 0.53662 0.62411 0.33074 0.0
C433 C 0.5367 0.79958 0.38482 0.0
C434 C 0.62775 0.67735 0.28235 0.0
O435 O 0.63712 0.77519 0.48054 0.0
O436 O 0.63107 0.72259 0.52031 0.0
C437 C 0.53611 0.58703 0.35417 0.0
O438 O 0.54551 0.58697 0.39504 0.0
O439 O 0.6337 0.68179 0.32313 0.0
O440 O 0.15049 0.7671 0.09882 0.0
Tb441 Tb 0.14519 0.83031 1.07154 0.0
C442 C 0.10951 0.88911 0.15079 0.0
O443 O 0.25035 0.84462 0.09079 0.0
Tb444 Tb 0.19912 0.89336 0.11782 0.0
C445 C 0.23817 0.95076 0.15473 0.0
O446 O 0.20853 0.83104 1.03407 0.0
O447 O 0.15254 0.90135 1.06522 0.0
C448 C 0.15791 0.91312 1.02616 0.0
O449 O 0.12762 0.91129 0.9976 0.0
O450 O 0.10122 0.87784 0.11155 0.0
O451 O 0.14986 0.88585 0.16429 0.0
O452 O 0.08148 0.816 1.04596 0.0
C453 C 0.24817 0.83217 1.05114 0.0
C454 C 0.1607 0.77827 0.13681 0.0
O455 O 0.24747 0.90963 0.16113 0.0
O456 O 0.20616 0.95943 0.12718 0.0
C457 C 0.04227 0.84298 1.04327 0.0
O458 O 0.04071 0.88426 1.04532 0.0
O459 O 0.17728 0.81197 0.132 0.0
O460 O 0.66509 0.1887 0.69693 0.0
Tb461 Tb 0.67762 0.12819 0.66279 0.0
C462 C 0.63974 1.05151 0.69644 0.0
O463 O 0.70188 1.06733 0.5702 0.0
Tb464 Tb 0.71243 1.0376 0.63358 0.0
C465 C 0.69488 0.96471 0.61859 0.0
O466 O 0.71479 0.12901 0.59693 0.0
O467 O 0.75891 1.074 0.65733 0.0
C468 C 0.80088 1.05933 0.66144 0.0
O469 O 0.82644 1.08591 0.67058 0.0
O470 O 0.62931 1.08725 0.67437 0.0
O471 O 0.67995 1.03138 0.69399 0.0
O472 O 0.71031 0.12936 0.7278 0.0
C473 C 0.71576 0.10272 0.56262 0.0
C474 C 0.62324 0.19837 0.69051 0.0
O475 O 0.66564 1.00009 0.61953 0.0
O476 O 0.73524 0.97039 0.62328 0.0
C477 C 0.71156 0.10481 0.76332 0.0
O478 O 0.71014 1.06433 0.76007 0.0
O479 O 0.61313 0.17193 0.6626 0.0
O480 O 0.78045 0.16631 0.40015 0.0
Tb481 Tb 0.77608 1.10034 0.41614 0.0
C482 C 0.86688 1.03547 0.4113 0.0
O483 O 0.78883 1.08313 0.53324 0.0
Tb484 Tb 0.82573 1.02711 0.50036 0.0
C485 C 0.8606 0.96209 0.55505 0.0
O486 O 0.73557 0.10219 0.48071 0.0
O487 O 0.77086 1.01837 0.46115 0.0
C488 C 0.74549 0.9905 0.46654 0.0
O489 O 0.71374 0.99095 0.43906 0.0
O490 O 0.82614 1.04432 0.39657 0.0
O491 O 0.87461 1.03649 0.45279 0.0
O492 O 0.75319 0.1135 0.34512 0.0
C493 C 0.748 1.10067 0.52321 0.0
C494 C 0.8192 0.16458 0.4158 0.0
O495 O 0.86226 1.00228 0.5592 0.0
O496 O 0.84015 0.95917 0.51932 0.0
C497 C 0.76118 1.09095 0.30801 0.0
O498 O 0.77726 1.04976 0.31049 0.0
O499 O 0.83247 0.12742 0.43429 0.0
O500 O 0.69024 0.18255 0.17288 0.0
Tb501 Tb 0.74381 0.13003 0.15626 0.0
C502 C 0.83446 0.14002 0.14085 0.0
O503 O 0.77938 0.1479 0.26445 0.0
Tb504 Tb 0.84568 0.14605 0.24081 0.0
C505 C 0.87232 0.21719 0.25704 0.0
O506 O 0.75316 1.09699 0.22455 0.0
O507 O 0.89566 1.09011 0.25525 0.0
C508 C 0.9269 1.07671 0.2274 0.0
O509 O 0.92986 1.09948 0.19262 0.0
O510 O 0.80139 0.13418 0.11835 0.0
O511 O 0.83524 0.12245 0.17889 0.0
O512 O 0.71032 0.12275 0.09108 0.0
C513 C 0.76168 0.11376 0.26347 0.0
C514 C 0.71415 0.21056 0.18123 0.0
O515 O 0.87069 0.18713 0.28513 0.0
O516 O 0.8595 0.20699 0.21967 0.0
C517 C 0.72713 0.10405 1.05408 0.0
O518 O 0.76623 1.07962 1.05519 0.0
O519 O 0.7547 0.19274 0.17588 0.0
O520 O 0.68156 1.04189 0.88884 0.0
Tb521 Tb 0.68682 0.1072 0.90734 0.0
C522 C 0.6437 0.20835 0.89904 0.0
O523 O 0.68274 0.15269 1.00217 0.0
Tb524 Tb 0.71733 0.1952 0.96792 0.0
C525 C 0.71361 0.24838 1.03039 0.0
O526 O 0.71734 1.0915 0.97411 0.0
O527 O 0.78241 0.1728 0.94168 0.0
C528 C 0.81927 0.18538 0.95048 0.0
O529 O 0.85294 0.17169 0.9257 0.0
O530 O 0.63837 0.1685 0.9051 0.0
O531 O 0.67797 0.22193 0.91309 0.0
O532 O 0.72064 0.10411 0.84314 0.0
C533 C 0.70487 0.11422 1.00948 0.0
C534 C 0.63942 1.04968 0.88406 0.0
O535 O 0.73207 0.20841 1.03265 0.0
O536 O 0.70007 0.2599 0.99191 0.0
C537 C 0.70368 0.1247 0.80733 0.0
O538 O 0.67116 0.1575 0.81102 0.0
O539 O 0.62401 1.08867 0.89572 0.0
O540 O 0.65877 0.81215 0.11118 0.0
Tb541 Tb 0.64951 0.82565 1.04342 0.0
C542 C 0.68786 0.73579 1.00369 0.0
O543 O 0.55556 0.79571 1.01396 0.0
Tb544 Tb 0.60758 0.78437 0.96837 0.0
C545 C 0.57174 0.76528 0.8982 0.0
O546 O 0.57661 0.85658 1.0337 0.0
O547 O 0.6399 0.83889 0.97218 0.0
C548 C 0.62685 0.87922 0.96122 0.0
O549 O 0.64906 0.90673 0.97591 0.0
O550 O 0.69367 0.77533 1.00804 0.0
O551 O 0.65047 0.72893 0.9912 0.0
O552 O 0.71033 0.85239 1.05659 0.0
C553 C 0.54447 0.83411 1.02847 0.0
C554 C 0.64465 0.7766 0.10934 0.0
O555 O 0.55492 0.76479 0.93587 0.0
O556 O 0.60848 0.77844 0.89908 0.0
C557 C 0.74847 0.84546 1.03479 0.0
O558 O 0.7491 0.83269 0.99508 0.0
O559 O 0.63024 0.77102 1.07159 0.0
O560 O 0.09261 0.1845 0.77527 0.0
Tb561 Tb 0.07448 0.18852 0.84433 0.0
C562 C 0.12683 0.15787 0.92856 0.0
O563 O 0.05539 0.288 0.92274 0.0
Tb564 Tb 0.07901 0.23442 0.96762 0.0
C565 C 0.1504 0.24306 1.01217 0.0
O566 O 0.04249 0.26456 0.85242 0.0
O567 O 1.01866 0.24033 1.00376 0.0
C568 C 1.01501 0.21679 1.03803 0.0
O569 O 0.04903 0.18972 1.05311 0.0
O570 O 0.12936 0.16734 0.88809 0.0
O571 O 0.08964 0.16988 0.94746 0.0
O572 O 0.04984 0.12306 0.83278 0.0
C573 C 0.04067 0.29686 0.88282 0.0
C574 C 0.13509 0.17703 0.7805 0.0
O575 O 0.14478 0.24979 0.97119 0.0
O576 O 0.11482 0.23392 1.028 0.0
C577 C 0.04239 1.08846 0.85679 0.0
O578 O 0.04208 1.09175 0.89856 0.0
O579 O 0.14252 0.17957 0.82102 0.0
O580 O 0.89345 0.35963 0.59205 0.0
Tb581 Tb 0.90492 0.34023 0.5262 0.0
C582 C 0.87103 0.40354 0.45659 0.0
O583 O 0.99987 0.38167 0.51602 0.0
Tb584 Tb 0.96763 0.40584 0.45676 0.0
C585 C 1.00064 0.46464 0.41743 0.0
O586 O 0.97968 0.31631 0.52362 0.0
O587 O 0.95556 0.36305 0.40797 0.0
C588 C 0.97309 0.32254 0.40869 0.0
O589 O 1.00062 0.30628 0.43884 0.0
O590 O 0.88387 0.36227 0.46247 0.0
O591 O 0.89895 0.42866 0.46149 0.0
O592 O 0.83885 0.32235 0.54358 0.0
C593 C 1.01119 0.34045 0.5229 0.0
C594 C 0.89398 0.39955 0.5844 0.0
O595 O 1.01236 0.42391 0.4107 0.0
O596 O 0.97124 0.4722 0.4473 0.0
C597 C 0.79983 0.32931 0.52266 0.0
O598 O 0.79903 0.33619 0.48123 0.0
O599 O 0.90259 0.40596 0.5445 0.0
O600 O 0.56528 1.04952 0.72166 0.0
Tb601 Tb 0.54866 1.02438 0.78391 0.0
C602 C 0.61409 1.02305 0.86031 0.0
O603 O 0.56502 0.90837 0.80425 0.0
Tb604 Tb 0.57727 0.94508 0.85846 0.0
C605 C 0.59623 0.89372 0.92683 0.0
O606 O 0.51423 0.9647 0.77664 0.0
O607 O 0.51767 0.99436 0.85642 0.0
C608 C 0.48547 1.00206 0.88403 0.0
O609 O 0.45638 1.03772 0.87967 0.0
O610 O 0.5752 1.04076 0.84551 0.0
O611 O 0.62823 0.98191 0.85582 0.0
O612 O 0.51713 1.09566 0.77761 0.0
C613 C 0.5288 0.92127 0.78291 0.0
C614 C 0.60721 1.03522 0.72371 0.0
O615 O 0.6073 0.88383 0.88769 0.0
O616 O 0.57305 0.9324 0.92673 0.0
C617 C 0.52281 0.12841 0.80279 0.0
O618 O 0.53577 0.12025 0.84242 0.0
O619 O 0.61586 1.01085 0.75796 0.0
O620 O 0.07456 0.25878 0.31209 0.0
Tb621 Tb 1.00478 0.26775 0.30065 0.0
C622 C 0.95422 0.29488 0.3818 0.0
O623 O 0.96123 0.17037 0.33986 0.0
Tb624 Tb 0.91079 0.22336 0.35888 0.0
C625 C 0.84895 0.19177 0.40049 0.0
O626 O 0.99653 0.19806 0.28181 0.0
O627 O 0.89349 0.268 0.30517 0.0
C628 C 0.88152 0.25885 0.26679 0.0
O629 O 0.87525 0.28899 0.23717 0.0
O630 O 0.95213 0.30114 0.34018 0.0
O631 O 0.93919 0.26349 0.39944 0.0
O632 O 0.02749 0.33227 0.28148 0.0
C633 C 0.98547 0.16446 0.30526 0.0
C634 C 0.07296 0.24303 0.35039 0.0
O635 O 0.8896 0.18646 0.41168 0.0
O636 O 0.84285 0.21537 0.36584 0.0
C637 C 1.00958 0.37546 0.2826 0.0
O638 O 0.96736 0.38714 0.28859 0.0
O639 O 0.03326 0.24066 0.36017 0.0
O640 O 0.57023 0.23455 0.86931 0.0
Tb641 Tb 0.55822 0.26473 0.80574 0.0
C642 C 0.59228 0.22398 0.72108 0.0
O643 O 0.54934 0.36846 0.74726 0.0
Tb644 Tb 0.55728 0.31176 0.70725 0.0
C645 C 0.6276 0.29765 0.65973 0.0
O646 O 0.52416 0.33834 0.80774 0.0
O647 O 0.49627 0.32582 0.67379 0.0
C648 C 0.46236 0.31173 0.68854 0.0
O649 O 0.46308 0.2946 0.72702 0.0
O650 O 0.60604 0.23607 0.75736 0.0
O651 O 0.55469 0.24538 0.70867 0.0
O652 O 0.52528 0.20645 0.81141 0.0
C653 C 0.52961 0.374 0.78458 0.0
C654 C 0.61082 0.23785 0.87281 0.0
O655 O 0.62864 0.29733 0.70131 0.0
O656 O 0.58801 0.31192 0.64574 0.0
C657 C 0.52271 0.17358 0.78516 0.0
O658 O 0.52664 0.17825 0.74378 0.0
O659 O 0.62035 0.26044 0.84039 0.0
O660 O 0.18156 0.25422 1.08008 0.0
Tb661 Tb 0.18753 0.31976 0.0922 0.0
C662 C 0.14821 0.37697 1.01405 0.0
O663 O 0.29488 0.34766 1.0678 0.0
Tb664 Tb 0.23802 0.38844 1.03885 0.0
C665 C 0.25658 0.45514 0.99533 0.0
O666 O 0.25442 0.32771 0.1242 0.0
O667 O 0.20012 0.39019 0.09702 0.0
C668 C 0.18558 0.42259 0.12098 0.0
O669 O 0.15873 0.41849 0.15236 0.0
O670 O 0.14205 0.36961 1.05499 0.0
O671 O 0.1882 0.37098 0.99878 0.0
O672 O 0.12897 0.30468 0.12883 0.0
C673 C 0.29319 0.33572 0.10825 0.0
C674 C 0.18437 0.25634 1.0386 0.0
O675 O 0.26829 0.41513 0.9849 0.0
O676 O 0.23472 0.45731 1.03105 0.0
C677 C 0.08656 0.32452 0.12573 0.0
O678 O 0.0771 0.36412 0.11141 0.0
O679 O 0.19817 0.29112 1.02887 0.0
O680 O 0.43307 0.86914 0.5816 0.0
Tb681 Tb 0.44167 0.8063 0.61123 0.0
C682 C 0.47174 0.72618 0.55952 0.0
O683 O 0.33499 0.79878 0.58123 0.0
Tb684 Tb 0.36935 0.73721 0.55529 0.0
C685 C 0.32694 0.71364 0.48705 0.0
O686 O 0.37498 0.80969 0.6413 0.0
O687 O 0.37764 0.68319 0.6002 0.0
C688 C 0.34705 0.68236 0.62873 0.0
O689 O 0.31705 0.7172 0.63237 0.0
O690 O 0.46856 0.73959 0.5991 0.0
O691 O 0.43703 0.73062 0.53485 0.0
O692 O 0.50394 0.82485 0.6358 0.0
C693 C 0.33644 0.81064 0.62149 0.0
C694 C 0.4358 0.85657 0.54224 0.0
O695 O 0.35576 0.7379 0.48649 0.0
O696 O 0.32183 0.70293 0.52671 0.0
C697 C 0.54561 0.80397 0.63028 0.0
O698 O 0.55282 0.76395 0.61841 0.0
O699 O 0.43855 0.8155 0.54163 0.0
O700 O 0.85039 0.5003 0.95787 0.0
Tb701 Tb 0.8205 0.56723 0.97065 0.0
C702 C 0.84011 0.65021 0.92472 0.0
O703 O 0.82644 0.61585 1.07094 0.0
Tb704 Tb 0.82014 0.66361 1.01959 0.0
C705 C 0.87597 0.70991 1.03903 0.0
O706 O 0.78388 0.57727 1.03742 0.0
O707 O 0.75819 0.70472 1.02933 0.0
C708 C 0.72484 0.70048 1.00611 0.0
O709 O 0.72678 0.66676 0.98212 0.0
O710 O 0.85496 0.60991 0.93436 0.0
O711 O 0.81253 0.67322 0.9505 0.0
O712 O 0.78564 0.55422 0.90905 0.0
C713 C 0.79673 0.59279 1.07491 0.0
C714 C 0.89083 0.50273 0.96562 0.0
O715 O 0.88578 0.67552 1.01629 0.0
O716 O 0.8354 0.71801 1.0504 0.0
C717 C 0.77741 0.57748 0.87228 0.0
O718 O 0.77869 0.61822 0.8724 0.0
O719 O 0.89071 0.54035 0.98132 0.0
O720 O 0.744 0.53547 0.23831 0.0
Tb721 Tb 0.75085 0.60096 0.22633 0.0
C722 C 0.66311 0.66362 0.24947 0.0
O723 O 0.72972 0.6227 0.11473 0.0
Tb724 Tb 0.70544 0.66753 0.16553 0.0
C725 C 0.66281 0.7397 0.13427 0.0
O726 O 0.78676 0.59511 0.15884 0.0
O727 O 0.76585 0.66937 0.20113 0.0
C728 C 0.80197 0.68356 0.19172 0.0
O729 O 0.83479 0.67325 0.21852 0.0
O730 O 0.70502 0.65386 0.25919 0.0
O731 O 0.65362 0.65967 0.2095 0.0
O732 O 0.77714 0.58685 0.29505 0.0
C733 C 0.76936 0.59967 0.11815 0.0
C734 C 0.70359 0.54104 0.22582 0.0
O735 O 0.6973 0.73634 0.15823 0.0
O736 O 0.6553 0.7025 0.12488 0.0
C737 C 0.76607 0.60987 0.33121 0.0
O738 O 0.74887 0.65074 0.32793 0.0
O739 O 0.69135 0.57939 0.21012 0.0
O740 O 0.67914 0.65833 0.45769 0.0
Tb741 Tb 0.71824 0.59476 0.47362 0.0
C742 C 0.71169 0.51549 0.42106 0.0
O743 O 0.78894 0.53294 0.55033 0.0
Tb744 Tb 0.76304 0.49868 0.50132 0.0
C745 C 0.69651 0.47158 0.53285 0.0
O746 O 0.73576 0.59326 0.54734 0.0
O747 O 0.82209 0.45295 0.4959 0.0
C748 C 0.82689 0.42288 0.4674 0.0
O749 O 0.79399 0.41704 0.44384 0.0
O750 O 0.68871 0.54618 0.44318 0.0
O751 O 0.75168 0.50017 0.43328 0.0
O752 O 0.75134 0.61179 0.41116 0.0
C753 C 0.76528 0.56484 0.57081 0.0
C754 C 0.64084 0.64805 0.46075 0.0
O755 O 0.69519 0.5106 0.51992 0.0
O756 O 0.73542 0.44803 0.52923 0.0
C757 C 0.76731 0.58915 0.37602 0.0
O758 O 0.78086 0.54776 0.37898 0.0
O759 O 0.64704 0.60894 0.47506 0.0
O760 O 0.79675 0.62574 0.73036 0.0
Tb761 Tb 0.78996 0.56042 0.72427 0.0
C762 C 0.8776 0.49334 0.7524 0.0
O763 O 0.82307 0.55363 0.62292 0.0
Tb764 Tb 0.8446 0.49721 0.6632 0.0
C765 C 0.87812 0.43348 0.61372 0.0
O766 O 0.75781 0.56574 0.65539 0.0
O767 O 0.7846 0.49506 0.69831 0.0
C768 C 0.75192 0.4759 0.6918 0.0
O769 O 0.7202 0.4815 0.71997 0.0
O770 O 0.83512 0.5068 0.75958 0.0
O771 O 0.89212 0.49616 0.71345 0.0
O772 O 0.76536 0.57935 0.79185 0.0
C773 C 0.78095 0.56778 0.61856 0.0
C774 C 0.83752 0.61833 0.7191 0.0
O775 O 0.88536 0.47187 0.60969 0.0
O776 O 0.85075 0.43102 0.64454 0.0
C777 C 0.77365 0.55647 0.82892 0.0
O778 O 0.78501 0.51471 0.82735 0.0
O779 O 0.84994 0.57917 0.70666 0.0
O780 O 0.54387 0.21077 0.35265 0.0
Tb781 Tb 0.47501 0.20916 0.35325 0.0
C782 C 0.42776 0.24518 0.27068 0.0
O783 O 0.46788 0.10572 0.31025 0.0
Tb784 Tb 0.41363 0.15611 0.29253 0.0
C785 C 0.36626 0.13608 0.23013 0.0
O786 O 0.47396 0.13775 0.37459 0.0
O787 O 0.37357 0.14826 0.3495 0.0
C788 C 0.37618 0.16476 0.38757 0.0
O789 O 0.4005 0.19332 0.39286 0.0
O790 O 0.42615 0.25128 0.31223 0.0
O791 O 0.43637 0.20603 0.25766 0.0
O792 O 0.48659 0.27129 0.38428 0.0
C793 C 0.47687 1.10112 0.35104 0.0
C794 C 0.5476 0.20802 0.31138 0.0
O795 O 0.40497 0.11489 0.24049 0.0
O796 O 0.35387 0.1676 0.256 0.0
C797 C 0.46899 0.31259 0.37305 0.0
O798 O 0.4318 0.3207 0.35228 0.0
O799 O 0.51227 0.19982 0.29477 0.0
O800 O 0.94031 0.96141 0.79818 0.0
Tb801 Tb 1.00058 0.94934 0.83727 0.0
C802 C 0.09774 0.9142 0.8071 0.0
O803 O 0.05938 1.02724 0.80436 0.0
Tb804 Tb 0.13002 0.99759 0.8031 0.0
C805 C 0.17255 1.0193 0.7351 0.0
O806 O 1.00826 1.01932 0.85519 0.0
O807 O 0.1668 1.01575 0.8565 0.0
C808 C 0.15257 1.0196 0.89593 0.0
O809 O 0.11435 1.011 0.90549 0.0
O810 O 0.07015 0.94031 0.83071 0.0
O811 O 0.13187 0.92901 0.79488 0.0
O812 O 0.97937 0.89179 0.87113 0.0
C813 C 0.03607 1.04369 0.8379 0.0
C814 C 0.95709 0.93983 0.76488 0.0
O815 O 0.13562 1.04073 0.74942 0.0
O816 O 0.18468 0.98545 0.75881 0.0
C817 C 0.99961 0.85054 0.87914 0.0
O818 O 0.04231 0.84107 0.88216 0.0
O819 O 0.99901 0.92808 0.77079 0.0
O820 O 0.44524 0.96134 0.28251 0.0
Tb821 Tb 0.46135 0.95214 0.35164 0.0
C822 C 0.4248 0.98222 0.4402 0.0
O823 O 0.53879 0.87376 0.40622 0.0
Tb824 Tb 0.50742 0.91435 0.45918 0.0
C825 C 0.4564 0.87937 0.51031 0.0
O826 O 0.48828 0.87596 0.35346 0.0
O827 O 0.56698 0.90669 0.49936 0.0
C828 C 0.60693 0.89008 0.48604 0.0
O829 O 0.61388 0.88304 0.44515 0.0
O830 O 0.41763 0.96023 0.40684 0.0
O831 O 0.46549 0.97894 0.45363 0.0
O832 O 0.48456 1.01832 0.34762 0.0
C833 C 0.51996 0.85164 0.37876 0.0
C834 C 0.40302 0.9739 0.2864 0.0
O835 O 0.46288 0.86988 0.47009 0.0
O836 O 0.47988 0.90642 0.52137 0.0
C837 C 0.47539 1.05571 0.37048 0.0
O838 O 0.45763 1.0551 0.40831 0.0
O839 O 0.39369 0.97125 0.32674 0.0
O840 O 0.89405 0.91578 1.08056 0.0
Tb841 Tb 0.89468 0.84847 1.07083 0.0
C842 C 0.92216 0.80435 0.15894 0.0
O843 O 0.79179 0.8277 0.09793 0.0
Tb844 Tb 0.84326 0.77754 0.12255 0.0
C845 C 0.80774 0.71319 0.15635 0.0
O846 O 0.83044 0.84225 1.03853 0.0
O847 O 0.89069 0.77219 1.06981 0.0
C848 C 0.90316 0.74026 1.04415 0.0
O849 O 0.93607 0.74036 1.01808 0.0
O850 O 0.93276 0.80579 0.11836 0.0
O851 O 0.88317 0.79909 0.17059 0.0
O852 O 0.96003 0.8536 1.04069 0.0
C853 C 0.79196 0.84143 1.05824 0.0
C854 C 0.88075 0.91643 0.12009 0.0
O855 O 0.79157 0.75394 0.15808 0.0
O856 O 0.84465 0.70927 0.13566 0.0
C857 C 0.99925 0.82719 1.04656 0.0
O858 O 1.00059 0.78868 1.06239 0.0
O859 O 0.86898 0.88058 0.12876 0.0
O860 O 0.65458 0.27861 0.59322 0.0
Tb861 Tb 0.65152 0.34106 0.5645 0.0
C862 C 0.61385 0.40134 0.64111 0.0
O863 O 0.7571 0.34586 0.58732 0.0
Tb864 Tb 0.70805 0.39762 0.61238 0.0
C865 C 0.75035 0.44553 0.65815 0.0
O866 O 0.71599 0.34 0.52815 0.0
O867 O 0.66098 0.41902 0.56139 0.0
C868 C 0.65846 0.45369 0.53846 0.0
O869 O 0.62405 0.46723 0.51428 0.0
O870 O 0.60664 0.39039 0.60147 0.0
O871 O 0.65388 0.39675 0.6558 0.0
O872 O 0.58906 0.32353 0.5398 0.0
C873 C 0.75583 0.33595 0.54694 0.0
C874 C 0.66482 0.28959 0.63122 0.0
O875 O 0.74437 0.4076 0.66858 0.0
O876 O 0.73212 0.45674 0.62099 0.0
C877 C 0.54894 0.34885 0.53776 0.0
O878 O 0.54544 0.39047 0.53843 0.0
O879 O 0.68158 0.32312 0.62614 0.0
O880 O 0.16339 0.68237 0.2002 0.0
Tb881 Tb 0.17797 0.62411 0.16229 0.0
C882 C 0.14339 0.54455 0.19281 0.0
O883 O 0.20409 0.56601 1.06815 0.0
Tb884 Tb 0.21568 0.53512 0.13087 0.0
C885 C 0.19801 0.46268 0.11375 0.0
O886 O 0.21439 0.62805 0.09621 0.0
O887 O 0.26215 0.57206 0.15356 0.0
C888 C 0.30406 0.55732 0.15788 0.0
O889 O 0.32973 0.58386 0.1668 0.0
O890 O 0.13158 0.58052 0.17136 0.0
O891 O 0.18466 0.52749 0.1918 0.0
O892 O 0.21528 0.62013 0.22557 0.0
C893 C 0.21661 0.6022 1.06135 0.0
C894 C 0.12142 0.69071 0.19434 0.0
O895 O 0.16881 0.49805 0.11534 0.0
O896 O 0.23833 0.46826 0.11886 0.0
C897 C 0.20436 0.60438 0.26348 0.0
O898 O 0.17716 0.57821 0.26371 0.0
O899 O 0.11216 0.66546 0.16486 0.0
O900 O 0.27914 0.6706 0.89712 0.0
Tb901 Tb 0.27717 0.60431 0.91484 0.0
C902 C 0.36802 0.54021 0.90934 0.0
O903 O 0.28986 0.58359 1.03209 0.0
Tb904 Tb 0.32728 0.52848 0.99807 0.0
C905 C 0.36312 0.46231 1.05108 0.0
O906 O 0.23687 0.60442 0.97952 0.0
O907 O 0.27253 0.519 0.95901 0.0
C908 C 0.24902 0.48926 0.96281 0.0
O909 O 0.21781 0.4892 0.93483 0.0
O910 O 0.32726 0.5487 0.8949 0.0
O911 O 0.37585 0.53996 0.9509 0.0
O912 O 0.25331 0.61532 0.844 0.0
C913 C 0.24908 0.60155 1.02215 0.0
C914 C 0.31786 0.67077 0.91199 0.0
O915 O 0.36365 0.50257 1.05673 0.0
O916 O 0.34335 0.46005 1.01487 0.0
C917 C 0.26173 0.59208 0.80738 0.0
O918 O 0.27882 0.55114 0.81064 0.0
O919 O 0.33259 0.63417 0.9312 0.0
O920 O 0.19025 0.68174 0.67079 0.0
Tb921 Tb 0.24444 0.62922 0.65554 0.0
C922 C 0.33419 0.64131 0.63822 0.0
O923 O 0.27888 0.64876 0.76299 0.0
Tb924 Tb 0.34429 0.64832 0.73789 0.0
C925 C 0.36908 0.72056 0.75167 0.0
O926 O 0.25414 0.59657 0.72386 0.0
O927 O 0.39618 0.59417 0.75235 0.0
C928 C 0.42786 0.58256 0.72452 0.0
O929 O 0.42987 0.60622 0.69017 0.0
O930 O 0.30098 0.6344 0.61667 0.0
O931 O 0.33711 0.62297 0.676 0.0
O932 O 0.21245 0.62049 0.59 0.0
C933 C 0.26194 0.61418 0.76251 0.0
C934 C 0.21388 0.70978 0.68005 0.0
O935 O 0.37042 0.69034 0.78024 0.0
O936 O 0.35442 0.70991 0.71532 0.0
C937 C 0.2305 0.60194 0.55339 0.0
O938 O 0.26998 0.57833 0.55531 0.0
O939 O 0.25457 0.69185 0.67607 0.0
O940 O 0.19269 0.53835 0.38583 0.0
Tb941 Tb 0.19348 0.60432 0.40581 0.0
C942 C 0.14507 0.70413 0.40015 0.0
O943 O 0.18578 0.64953 0.50113 0.0
Tb944 Tb 0.21893 0.69393 0.46808 0.0
C945 C 0.21238 0.74771 0.53038 0.0
O946 O 0.22332 0.58948 0.473 0.0
O947 O 0.28414 0.67351 0.44147 0.0
C948 C 0.32035 0.68732 0.45005 0.0
O949 O 0.35406 0.67478 0.42499 0.0
O950 O 0.14214 0.66347 0.40508 0.0
O951 O 0.1786 0.71924 0.41362 0.0
O952 O 0.22526 0.60314 0.34056 0.0
C953 C 0.20917 0.61159 0.50837 0.0
C954 C 0.15066 0.54383 0.38106 0.0
O955 O 0.23193 0.70805 0.53306 0.0
O956 O 0.19937 0.75866 0.49164 0.0
C957 C 0.20862 0.62606 0.30586 0.0
O958 O 0.18084 0.66207 0.31206 0.0
O959 O 0.13292 0.58188 0.39394 0.0
loop_
_geom_bond_atom_site_label_1
_geom_bond_atom_site_label_2
_geom_bond_distance
_geom_bond_site_symmetry_2
_ccdc_geom_bond_type
O0 Tb1 2.506 . S
O0 C14 1.265 . S
Tb1 O0 2.506 . S
Tb1 O6 2.312 . S
Tb1 O10 2.271 . S
Tb1 O12 2.338 . S
Tb1 O19 2.441 . S
C2 O10 1.252 . S
C2 O11 1.253 . S
O3 Tb4 2.271 . S
O3 C13 1.252 . S
Tb4 O3 2.271 . S
Tb4 O7 2.338 1_455 S
Tb4 O11 2.312 . S
Tb4 O15 2.441 . S
Tb4 O16 2.506 . S
C5 O15 1.244 . S
C5 O16 1.265 . S
O6 Tb1 2.312 . S
O6 C13 1.253 . S
O7 Tb4 2.338 1_655 S
O7 C8 1.258 . S
C8 O7 1.258 . S
C8 O9 1.251 . S
O9 C8 1.251 . S
O10 Tb1 2.271 . S
O10 C2 1.252 . S
O11 C2 1.253 . S
O11 Tb4 2.312 . S
O12 Tb1 2.338 . S
O12 C17 1.258 1_455 S
C13 O3 1.252 . S
C13 O6 1.253 . S
C14 O0 1.265 . S
C14 O19 1.244 . S
O15 Tb4 2.441 . S
O15 C5 1.244 . S
O16 Tb4 2.506 . S
O16 C5 1.265 . S
C17 O12 1.258 1_655 S
C17 O18 1.251 . S
O18 C17 1.251 . S
O19 Tb1 2.441 . S
O19 C14 1.244 . S
O20 Tb21 2.506 . S
O20 C34 1.265 . S
Tb21 O20 2.506 . S
Tb21 O26 2.312 . S
Tb21 O30 2.271 . S
Tb21 O32 2.338 . S
Tb21 O39 2.441 . S
C22 O30 1.252 . S
C22 O31 1.253 . S
O23 Tb24 2.271 . S
O23 C33 1.252 . S
Tb24 O23 2.271 . S
Tb24 O27 2.338 . S
Tb24 O31 2.312 . S
Tb24 O35 2.441 . S
Tb24 O36 2.506 . S
C25 O35 1.244 . S
C25 O36 1.265 . S
O26 Tb21 2.312 . S
O26 C33 1.253 . S
O27 Tb24 2.338 . S
O27 C28 1.258 . S
C28 O27 1.258 . S
C28 O29 1.251 . S
O29 C28 1.251 . S
O30 Tb21 2.271 . S
O30 C22 1.252 . S
O31 C22 1.253 . S
O31 Tb24 2.312 . S
O32 Tb21 2.338 . S
O32 C37 1.258 . S
C33 O23 1.252 . S
C33 O26 1.253 . S
C34 O20 1.265 . S
C34 O39 1.244 . S
O35 Tb24 2.441 . S
O35 C25 1.244 . S
O36 Tb24 2.506 . S
O36 C25 1.265 . S
C37 O32 1.258 . S
C37 O38 1.251 . S
O38 C37 1.251 . S
O39 Tb21 2.441 . S
O39 C34 1.244 . S
O40 Tb41 2.506 . S
O40 C54 1.265 . S
Tb41 O40 2.506 . S
Tb41 O46 2.312 . S
Tb41 O50 2.271 . S
Tb41 O52 2.338 . S
Tb41 O59 2.441 . S
C42 O50 1.252 . S
C42 O51 1.253 . S
O43 Tb44 2.271 . S
O43 C53 1.252 . S
Tb44 O43 2.271 . S
Tb44 O47 2.338 . S
Tb44 O51 2.312 . S
Tb44 O55 2.441 . S
Tb44 O56 2.506 . S
C45 O55 1.244 . S
C45 O56 1.265 . S
O46 Tb41 2.312 . S
O46 C53 1.253 . S
O47 Tb44 2.338 . S
O47 C48 1.258 . S
C48 O47 1.258 . S
C48 O49 1.251 . S
O49 C48 1.251 . S
O50 Tb41 2.271 . S
O50 C42 1.252 . S
O51 C42 1.253 . S
O51 Tb44 2.312 . S
O52 Tb41 2.338 . S
O52 C57 1.258 . S
C53 O43 1.252 . S
C53 O46 1.253 . S
C54 O40 1.265 . S
C54 O59 1.244 . S
O55 Tb44 2.441 . S
O55 C45 1.244 . S
O56 Tb44 2.506 . S
O56 C45 1.265 . S
C57 O52 1.258 . S
C57 O58 1.251 . S
O58 C57 1.251 . S
O59 Tb41 2.441 . S
O59 C54 1.244 . S
O60 Tb61 2.506 1_556 S
O60 C74 1.265 . S
Tb61 O60 2.506 1_554 S
Tb61 O66 2.312 . S
Tb61 O70 2.271 . S
Tb61 O72 2.338 1_554 S
Tb61 O79 2.441 1_554 S
C62 O70 1.252 . S
C62 O71 1.253 . S
O63 Tb64 2.271 . S
O63 C73 1.252 . S
Tb64 O63 2.271 . S
Tb64 O67 2.338 . S
Tb64 O71 2.312 . S
Tb64 O75 2.441 . S
Tb64 O76 2.506 . S
C65 O75 1.244 . S
C65 O76 1.265 . S
O66 Tb61 2.312 . S
O66 C73 1.253 . S
O67 Tb64 2.338 . S
O67 C68 1.258 . S
C68 O67 1.258 . S
C68 O69 1.251 . S
O69 C68 1.251 . S
O70 Tb61 2.271 . S
O70 C62 1.252 . S
O71 C62 1.253 . S
O71 Tb64 2.312 . S
O72 Tb61 2.338 1_556 S
O72 C77 1.258 1_556 S
C73 O63 1.252 . S
C73 O66 1.253 . S
C74 O60 1.265 . S
C74 O79 1.244 . S
O75 Tb64 2.441 . S
O75 C65 1.244 . S
O76 Tb64 2.506 . S
O76 C65 1.265 . S
C77 O72 1.258 1_554 S
C77 O78 1.251 . S
O78 C77 1.251 . S
O79 Tb61 2.441 1_556 S
O79 C74 1.244 . S
O80 Tb81 2.506 . S
O80 C94 1.265 . S
Tb81 O80 2.506 . S
Tb81 O86 2.312 1_455 S
Tb81 O90 2.271 . S
Tb81 O92 2.338 1_455 S
Tb81 O99 2.441 . S
C82 O90 1.252 . S
C82 O91 1.253 . S
O83 Tb84 2.271 1_655 S
O83 C93 1.252 . S
Tb84 O83 2.271 1_455 S
Tb84 O87 2.338 1_455 S
Tb84 O91 2.312 . S
Tb84 O95 2.441 . S
Tb84 O96 2.506 . S
C85 O95 1.244 . S
C85 O96 1.265 . S
O86 Tb81 2.312 1_655 S
O86 C93 1.253 . S
O87 Tb84 2.338 1_655 S
O87 C88 1.258 . S
C88 O87 1.258 . S
C88 O89 1.251 . S
O89 C88 1.251 . S
O90 Tb81 2.271 . S
O90 C82 1.252 . S
O91 C82 1.253 . S
O91 Tb84 2.312 . S
O92 Tb81 2.338 1_655 S
O92 C97 1.258 . S
C93 O83 1.252 . S
C93 O86 1.253 . S
C94 O80 1.265 . S
C94 O99 1.244 . S
O95 Tb84 2.441 . S
O95 C85 1.244 . S
O96 Tb84 2.506 . S
O96 C85 1.265 . S
C97 O92 1.258 . S
C97 O98 1.251 . S
O98 C97 1.251 . S
O99 Tb81 2.441 . S
O99 C94 1.244 . S
O100 Tb101 2.506 . S
O100 C114 1.265 . S
Tb101 O100 2.506 . S
Tb101 O106 2.312 . S
Tb101 O110 2.271 . S
Tb101 O112 2.338 . S
Tb101 O119 2.441 . S
C102 O110 1.252 . S
C102 O111 1.253 . S
O103 Tb104 2.271 . S
O103 C113 1.252 . S
Tb104 O103 2.271 . S
Tb104 O107 2.338 . S
Tb104 O111 2.312 . S
Tb104 O115 2.441 . S
Tb104 O116 2.506 . S
C105 O115 1.244 . S
C105 O116 1.265 . S
O106 Tb101 2.312 . S
O106 C113 1.253 . S
O107 Tb104 2.338 . S
O107 C108 1.258 . S
C108 O107 1.258 . S
C108 O109 1.251 . S
O109 C108 1.251 . S
O110 Tb101 2.271 . S
O110 C102 1.252 . S
O111 C102 1.253 . S
O111 Tb104 2.312 . S
O112 Tb101 2.338 . S
O112 C117 1.258 . S
C113 O103 1.252 . S
C113 O106 1.253 . S
C114 O100 1.265 . S
C114 O119 1.244 . S
O115 Tb104 2.441 . S
O115 C105 1.244 . S
O116 Tb104 2.506 . S
O116 C105 1.265 . S
C117 O112 1.258 . S
C117 O118 1.251 . S
O118 C117 1.251 . S
O119 Tb101 2.441 . S
O119 C114 1.244 . S
O120 Tb121 2.506 . S
O120 C134 1.265 . S
Tb121 O120 2.506 . S
Tb121 O126 2.312 . S
Tb121 O130 2.271 . S
Tb121 O132 2.338 . S
Tb121 O139 2.441 . S
C122 O130 1.252 . S
C122 O131 1.253 . S
O123 Tb124 2.271 . S
O123 C133 1.252 . S
Tb124 O123 2.271 . S
Tb124 O127 2.338 . S
Tb124 O131 2.312 . S
Tb124 O135 2.441 . S
Tb124 O136 2.506 . S
C125 O135 1.244 . S
C125 O136 1.265 . S
O126 Tb121 2.312 . S
O126 C133 1.253 . S
O127 Tb124 2.338 . S
O127 C128 1.258 . S
C128 O127 1.258 . S
C128 O129 1.251 . S
O129 C128 1.251 . S
O130 Tb121 2.271 . S
O130 C122 1.252 . S
O131 C122 1.253 . S
O131 Tb124 2.312 . S
O132 Tb121 2.338 . S
O132 C137 1.258 . S
C133 O123 1.252 . S
C133 O126 1.253 . S
C134 O120 1.265 . S
C134 O139 1.244 . S
O135 Tb124 2.441 . S
O135 C125 1.244 . S
O136 Tb124 2.506 . S
O136 C125 1.265 . S
C137 O132 1.258 . S
C137 O138 1.251 . S
O138 C137 1.251 . S
O139 Tb121 2.441 . S
O139 C134 1.244 . S
O140 Tb141 2.506 . S
O140 C154 1.265 . S
Tb141 O140 2.506 . S
Tb141 O146 2.312 . S
Tb141 O150 2.271 . S
Tb141 O152 2.338 . S
Tb141 O159 2.441 . S
C142 O150 1.252 . S
C142 O151 1.253 . S
O143 Tb144 2.271 . S
O143 C153 1.252 1_556 S
Tb144 O143 2.271 . S
Tb144 O147 2.338 1_556 S
Tb144 O151 2.312 . S
Tb144 O155 2.441 . S
Tb144 O156 2.506 . S
C145 O155 1.244 . S
C145 O156 1.265 . S
O146 Tb141 2.312 . S
O146 C153 1.253 1_556 S
O147 Tb144 2.338 1_554 S
O147 C148 1.258 . S
C148 O147 1.258 . S
C148 O149 1.251 . S
O149 C148 1.251 . S
O150 Tb141 2.271 . S
O150 C142 1.252 . S
O151 C142 1.253 . S
O151 Tb144 2.312 . S
O152 Tb141 2.338 . S
O152 C157 1.258 . S
C153 O143 1.252 1_554 S
C153 O146 1.253 1_554 S
C154 O140 1.265 . S
C154 O159 1.244 . S
O155 Tb144 2.441 . S
O155 C145 1.244 . S
O156 Tb144 2.506 . S
O156 C145 1.265 . S
C157 O152 1.258 . S
C157 O158 1.251 1_556 S
O158 C157 1.251 1_554 S
O159 Tb141 2.441 . S
O159 C154 1.244 . S
O160 Tb161 2.506 . S
O160 C174 1.265 . S
Tb161 O160 2.506 . S
Tb161 O166 2.312 . S
Tb161 O170 2.271 1_565 S
Tb161 O172 2.338 . S
Tb161 O179 2.441 . S
C162 O170 1.252 . S
C162 O171 1.253 . S
O163 Tb164 2.271 . S
O163 C173 1.252 . S
Tb164 O163 2.271 . S
Tb164 O167 2.338 . S
Tb164 O171 2.312 . S
Tb164 O175 2.441 . S
Tb164 O176 2.506 . S
C165 O175 1.244 . S
C165 O176 1.265 . S
O166 Tb161 2.312 . S
O166 C173 1.253 1_565 S
O167 Tb164 2.338 . S
O167 C168 1.258 . S
C168 O167 1.258 . S
C168 O169 1.251 . S
O169 C168 1.251 . S
O170 Tb161 2.271 1_545 S
O170 C162 1.252 . S
O171 C162 1.253 . S
O171 Tb164 2.312 . S
O172 Tb161 2.338 . S
O172 C177 1.258 . S
C173 O163 1.252 . S
C173 O166 1.253 1_545 S
C174 O160 1.265 . S
C174 O179 1.244 . S
O175 Tb164 2.441 . S
O175 C165 1.244 . S
O176 Tb164 2.506 . S
O176 C165 1.265 . S
C177 O172 1.258 . S
C177 O178 1.239 1_565 S
O178 C177 1.239 1_545 S
O179 Tb161 2.441 . S
O179 C174 1.244 . S
O180 Tb181 2.506 . S
O180 C194 1.265 . S
Tb181 O180 2.506 . S
Tb181 O186 2.312 . S
Tb181 O190 2.271 . S
Tb181 O192 2.338 . S
Tb181 O199 2.441 . S
C182 O190 1.252 1_545 S
C182 O191 1.253 . S
O183 Tb184 2.271 . S
O183 C193 1.252 1_545 S
Tb184 O183 2.271 . S
Tb184 O187 2.338 . S
Tb184 O191 2.312 . S
Tb184 O195 2.441 . S
Tb184 O196 2.506 . S
C185 O195 1.244 . S
C185 O196 1.265 . S
O186 Tb181 2.312 . S
O186 C193 1.253 . S
O187 Tb184 2.338 . S
O187 C188 1.258 . S
C188 O187 1.258 . S
C188 O189 1.251 . S
O189 C188 1.251 . S
O190 Tb181 2.271 . S
O190 C182 1.252 1_565 S
O191 C182 1.253 . S
O191 Tb184 2.312 . S
O192 Tb181 2.338 . S
O192 C197 1.258 . S
C193 O183 1.252 1_565 S
C193 O186 1.253 . S
C194 O180 1.265 . S
C194 O199 1.244 . S
O195 Tb184 2.441 . S
O195 C185 1.244 . S
O196 Tb184 2.506 . S
O196 C185 1.265 . S
C197 O192 1.258 . S
C197 O198 1.251 . S
O198 C197 1.251 . S
O199 Tb181 2.441 . S
O199 C194 1.244 . S
O200 Tb201 2.498 1_545 S
O200 C214 1.265 . S
Tb201 O200 2.498 1_565 S
Tb201 O206 2.315 . S
Tb201 O210 2.279 . S
Tb201 O212 2.337 1_565 S
Tb201 O219 2.439 1_565 S
C202 O210 1.252 . S
C202 O211 1.253 . S
O203 Tb204 2.271 . S
O203 C213 1.252 . S
Tb204 O203 2.271 . S
Tb204 O207 2.338 . S
Tb204 O211 2.312 . S
Tb204 O215 2.441 . S
Tb204 O216 2.506 . S
C205 O215 1.244 . S
C205 O216 1.265 . S
O206 Tb201 2.315 . S
O206 C213 1.253 . S
O207 Tb204 2.338 . S
O207 C208 1.258 . S
C208 O207 1.258 . S
C208 O209 1.251 . S
O209 C208 1.251 . S
O210 Tb201 2.279 . S
O210 C202 1.252 . S
O211 C202 1.253 . S
O211 Tb204 2.312 . S
O212 Tb201 2.337 1_545 S
O212 C217 1.258 1_545 S
C213 O203 1.252 . S
C213 O206 1.253 . S
C214 O200 1.265 . S
C214 O219 1.244 . S
O215 Tb204 2.441 . S
O215 C205 1.244 . S
O216 Tb204 2.506 . S
O216 C205 1.265 . S
C217 O212 1.258 1_565 S
C217 O218 1.251 . S
O218 C217 1.251 . S
O219 Tb201 2.439 1_545 S
O219 C214 1.244 . S
O220 Tb221 2.506 . S
O220 C234 1.265 . S
Tb221 O220 2.506 . S
Tb221 O226 2.312 1_545 S
Tb221 O230 2.271 1_545 S
Tb221 O232 2.338 . S
Tb221 O239 2.441 . S
C222 O230 1.252 . S
C222 O231 1.253 . S
O223 Tb224 2.271 . S
O223 C233 1.252 . S
Tb224 O223 2.271 . S
Tb224 O227 2.338 . S
Tb224 O231 2.312 . S
Tb224 O235 2.441 . S
Tb224 O236 2.506 . S
C225 O235 1.244 . S
C225 O236 1.265 . S
O226 Tb221 2.312 1_565 S
O226 C233 1.253 . S
O227 Tb224 2.338 . S
O227 C228 1.258 . S
C228 O227 1.258 . S
C228 O229 1.251 . S
O229 C228 1.251 . S
O230 Tb221 2.271 1_565 S
O230 C222 1.252 . S
O231 C222 1.253 . S
O231 Tb224 2.312 . S
O232 Tb221 2.338 . S
O232 C237 1.258 1_545 S
C233 O223 1.252 . S
C233 O226 1.253 . S
C234 O220 1.265 . S
C234 O239 1.244 . S
O235 Tb224 2.441 . S
O235 C225 1.244 . S
O236 Tb224 2.506 . S
O236 C225 1.265 . S
C237 O232 1.258 1_565 S
C237 O238 1.251 . S
O238 C237 1.251 . S
O239 Tb221 2.441 . S
O239 C234 1.244 . S
O240 Tb241 2.506 . S
O240 C254 1.265 . S
Tb241 O240 2.506 . S
Tb241 O246 2.312 . S
Tb241 O250 2.271 . S
Tb241 O252 2.338 . S
Tb241 O259 2.441 . S
C242 O250 1.252 . S
C242 O251 1.253 . S
O243 Tb244 2.271 . S
O243 C253 1.252 . S
Tb244 O243 2.271 . S
Tb244 O247 2.338 1_554 S
Tb244 O251 2.312 . S
Tb244 O255 2.441 . S
Tb244 O256 2.506 . S
C245 O255 1.244 . S
C245 O256 1.265 . S
O246 Tb241 2.312 . S
O246 C253 1.253 . S
O247 Tb244 2.338 1_556 S
O247 C248 1.258 . S
C248 O247 1.258 . S
C248 O249 1.251 . S
O249 C248 1.251 . S
O250 Tb241 2.271 . S
O250 C242 1.252 . S
O251 C242 1.253 . S
O251 Tb244 2.312 . S
O252 Tb241 2.338 . S
O252 C257 1.258 . S
C253 O243 1.252 . S
C253 O246 1.253 . S
C254 O240 1.265 . S
C254 O259 1.244 . S
O255 Tb244 2.441 . S
O255 C245 1.244 . S
O256 Tb244 2.506 . S
O256 C245 1.265 . S
C257 O252 1.258 . S
C257 O258 1.251 . S
O258 C257 1.251 . S
O259 Tb241 2.441 . S
O259 C254 1.244 . S
O260 Tb261 2.506 . S
O260 C274 1.265 . S
Tb261 O260 2.506 . S
Tb261 O266 2.312 . S
Tb261 O270 2.271 . S
Tb261 O272 2.338 . S
Tb261 O279 2.441 . S
C262 O270 1.252 . S
C262 O271 1.253 . S
O263 Tb264 2.271 . S
O263 C273 1.252 1_655 S
Tb264 O263 2.271 . S
Tb264 O267 2.338 1_655 S
Tb264 O271 2.312 . S
Tb264 O275 2.441 . S
Tb264 O276 2.506 . S
C265 O275 1.244 . S
C265 O276 1.265 . S
O266 Tb261 2.312 . S
O266 C273 1.253 1_655 S
O267 Tb264 2.338 1_455 S
O267 C268 1.258 . S
C268 O267 1.258 . S
C268 O269 1.251 . S
O269 C268 1.251 . S
O270 Tb261 2.271 . S
O270 C262 1.252 . S
O271 C262 1.253 . S
O271 Tb264 2.312 . S
O272 Tb261 2.338 . S
O272 C277 1.258 . S
C273 O263 1.252 1_455 S
C273 O266 1.253 1_455 S
C274 O260 1.265 . S
C274 O279 1.244 . S
O275 Tb264 2.441 . S
O275 C265 1.244 . S
O276 Tb264 2.506 . S
O276 C265 1.265 . S
C277 O272 1.258 . S
C277 O278 1.251 1_655 S
O278 C277 1.251 1_455 S
O279 Tb261 2.441 . S
O279 C274 1.244 . S
O280 Tb281 2.506 . S
O280 C294 1.265 . S
Tb281 O280 2.506 . S
Tb281 O286 2.312 . S
Tb281 O290 2.271 . S
Tb281 O292 2.338 . S
Tb281 O299 2.441 . S
C282 O290 1.252 . S
C282 O291 1.253 . S
O283 Tb284 2.271 . S
O283 C293 1.252 . S
Tb284 O283 2.271 . S
Tb284 O287 2.338 . S
Tb284 O291 2.312 . S
Tb284 O295 2.441 . S
Tb284 O296 2.506 . S
C285 O295 1.244 . S
C285 O296 1.265 . S
O286 Tb281 2.312 . S
O286 C293 1.253 . S
O287 Tb284 2.338 . S
O287 C288 1.258 . S
C288 O287 1.258 . S
C288 O289 1.251 . S
O289 C288 1.251 . S
O290 Tb281 2.271 . S
O290 C282 1.252 . S
O291 C282 1.253 . S
O291 Tb284 2.312 . S
O292 Tb281 2.338 . S
O292 C297 1.258 . S
C293 O283 1.252 . S
C293 O286 1.253 . S
C294 O280 1.265 . S
C294 O299 1.244 . S
O295 Tb284 2.441 . S
O295 C285 1.244 . S
O296 Tb284 2.506 . S
O296 C285 1.265 . S
C297 O292 1.258 . S
C297 O298 1.251 . S
O298 C297 1.251 . S
O299 Tb281 2.441 . S
O299 C294 1.244 . S
O300 Tb301 2.506 . S
O300 C314 1.265 . S
Tb301 O300 2.506 . S
Tb301 O306 2.312 1_455 S
Tb301 O310 2.271 1_455 S
Tb301 O312 2.338 . S
Tb301 O319 2.441 . S
C302 O310 1.252 . S
C302 O311 1.253 . S
O303 Tb304 2.271 . S
O303 C313 1.252 . S
Tb304 O303 2.271 . S
Tb304 O307 2.338 . S
Tb304 O311 2.312 . S
Tb304 O315 2.441 . S
Tb304 O316 2.506 . S
C305 O315 1.244 . S
C305 O316 1.265 . S
O306 Tb301 2.312 1_655 S
O306 C313 1.253 . S
O307 Tb304 2.338 . S
O307 C308 1.258 . S
C308 O307 1.258 . S
C308 O309 1.251 . S
O309 C308 1.251 . S
O310 Tb301 2.271 1_655 S
O310 C302 1.252 . S
O311 C302 1.253 . S
O311 Tb304 2.312 . S
O312 Tb301 2.338 . S
O312 C317 1.258 1_455 S
C313 O303 1.252 . S
C313 O306 1.253 . S
C314 O300 1.265 . S
C314 O319 1.244 . S
O315 Tb304 2.441 . S
O315 C305 1.244 . S
O316 Tb304 2.506 . S
O316 C305 1.265 . S
C317 O312 1.258 1_655 S
C317 O318 1.251 . S
O318 C317 1.251 . S
O319 Tb301 2.441 . S
O319 C314 1.244 . S
O320 Tb321 2.506 . S
O320 C334 1.265 . S
Tb321 O320 2.506 . S
Tb321 O326 2.312 . S
Tb321 O330 2.271 . S
Tb321 O332 2.338 . S
Tb321 O339 2.441 . S
C322 O330 1.252 . S
C322 O331 1.253 . S
O323 Tb324 2.271 . S
O323 C333 1.252 . S
Tb324 O323 2.271 . S
Tb324 O327 2.338 . S
Tb324 O331 2.312 . S
Tb324 O335 2.441 . S
Tb324 O336 2.506 . S
C325 O335 1.244 . S
C325 O336 1.265 . S
O326 Tb321 2.312 . S
O326 C333 1.253 . S
O327 Tb324 2.338 . S
O327 C328 1.258 . S
C328 O327 1.258 . S
C328 O329 1.251 . S
O329 C328 1.251 . S
O330 Tb321 2.271 . S
O330 C322 1.252 . S
O331 C322 1.253 . S
O331 Tb324 2.312 . S
O332 Tb321 2.338 . S
O332 C337 1.258 . S
C333 O323 1.252 . S
C333 O326 1.253 . S
C334 O320 1.265 . S
C334 O339 1.244 . S
O335 Tb324 2.441 . S
O335 C325 1.244 . S
O336 Tb324 2.506 . S
O336 C325 1.265 . S
C337 O332 1.258 . S
C337 O338 1.251 . S
O338 C337 1.251 . S
O339 Tb321 2.441 . S
O339 C334 1.244 . S
O340 Tb341 2.506 . S
O340 C354 1.265 . S
Tb341 O340 2.506 . S
Tb341 O346 2.312 . S
Tb341 O350 2.271 . S
Tb341 O352 2.338 . S
Tb341 O359 2.441 . S
C342 O350 1.252 . S
C342 O351 1.253 . S
O343 Tb344 2.271 . S
O343 C353 1.252 . S
Tb344 O343 2.271 . S
Tb344 O347 2.338 . S
Tb344 O351 2.312 . S
Tb344 O355 2.441 . S
Tb344 O356 2.506 . S
C345 O355 1.244 . S
C345 O356 1.265 . S
O346 Tb341 2.312 . S
O346 C353 1.253 . S
O347 Tb344 2.338 . S
O347 C348 1.258 . S
C348 O347 1.258 . S
C348 O349 1.251 . S
O349 C348 1.251 . S
O350 Tb341 2.271 . S
O350 C342 1.252 . S
O351 C342 1.253 . S
O351 Tb344 2.312 . S
O352 Tb341 2.338 . S
O352 C357 1.258 . S
C353 O343 1.252 . S
C353 O346 1.253 . S
C354 O340 1.265 . S
C354 O359 1.244 . S
O355 Tb344 2.441 . S
O355 C345 1.244 . S
O356 Tb344 2.506 . S
O356 C345 1.265 . S
C357 O352 1.258 . S
C357 O358 1.251 . S
O358 C357 1.251 . S
O359 Tb341 2.441 . S
O359 C354 1.244 . S
O360 Tb361 2.506 . S
O360 C374 1.265 . S
Tb361 O360 2.506 . S
Tb361 O366 2.312 1_554 S
Tb361 O370 2.271 1_554 S
Tb361 O372 2.338 . S
Tb361 O379 2.441 . S
C362 O370 1.252 . S
C362 O371 1.253 . S
O363 Tb364 2.271 . S
O363 C373 1.252 . S
Tb364 O363 2.271 . S
Tb364 O367 2.338 . S
Tb364 O371 2.312 . S
Tb364 O375 2.441 . S
Tb364 O376 2.506 . S
C365 O375 1.244 . S
C365 O376 1.265 . S
O366 Tb361 2.312 1_556 S
O366 C373 1.253 . S
O367 Tb364 2.338 . S
O367 C368 1.258 . S
C368 O367 1.258 . S
C368 O369 1.251 . S
O369 C368 1.251 . S
O370 Tb361 2.271 1_556 S
O370 C362 1.252 . S
O371 C362 1.253 . S
O371 Tb364 2.312 . S
O372 Tb361 2.338 . S
O372 C377 1.258 1_554 S
C373 O363 1.252 . S
C373 O366 1.253 . S
C374 O360 1.265 . S
C374 O379 1.244 . S
O375 Tb364 2.441 . S
O375 C365 1.244 . S
O376 Tb364 2.506 . S
O376 C365 1.265 . S
C377 O372 1.258 1_556 S
C377 O378 1.251 . S
O378 C377 1.251 . S
O379 Tb361 2.441 . S
O379 C374 1.244 . S
O380 Tb381 2.506 . S
O380 C394 1.265 . S
Tb381 O380 2.506 . S
Tb381 O386 2.312 . S
Tb381 O390 2.271 . S
Tb381 O392 2.338 . S
Tb381 O399 2.441 . S
C382 O390 1.252 . S
C382 O391 1.253 . S
O383 Tb384 2.271 . S
O383 C393 1.252 1_655 S
Tb384 O383 2.271 . S
Tb384 O387 2.338 1_655 S
Tb384 O391 2.312 . S
Tb384 O395 2.441 . S
Tb384 O396 2.506 . S
C385 O395 1.244 . S
C385 O396 1.265 . S
O386 Tb381 2.312 . S
O386 C393 1.253 1_655 S
O387 Tb384 2.338 1_455 S
O387 C388 1.258 . S
C388 O387 1.258 . S
C388 O389 1.251 . S
O389 C388 1.251 . S
O390 Tb381 2.271 . S
O390 C382 1.252 . S
O391 C382 1.253 . S
O391 Tb384 2.312 . S
O392 Tb381 2.338 . S
O392 C397 1.258 . S
C393 O383 1.252 1_455 S
C393 O386 1.253 1_455 S
C394 O380 1.265 . S
C394 O399 1.244 . S
O395 Tb384 2.441 . S
O395 C385 1.244 . S
O396 Tb384 2.506 . S
O396 C385 1.265 . S
C397 O392 1.258 . S
C397 O398 1.251 1_655 S
O398 C397 1.251 1_455 S
O399 Tb381 2.441 . S
O399 C394 1.244 . S
O400 Tb401 2.506 . S
O400 C414 1.265 . S
Tb401 O400 2.506 . S
Tb401 O406 2.312 . S
Tb401 O410 2.271 . S
Tb401 O412 2.338 . S
Tb401 O419 2.441 . S
C402 O410 1.252 . S
C402 O411 1.253 . S
O403 Tb404 2.271 . S
O403 C413 1.252 . S
Tb404 O403 2.271 . S
Tb404 O407 2.338 . S
Tb404 O411 2.312 . S
Tb404 O415 2.441 . S
Tb404 O416 2.506 . S
C405 O415 1.244 . S
C405 O416 1.265 . S
O406 Tb401 2.312 . S
O406 C413 1.253 . S
O407 Tb404 2.338 . S
O407 C408 1.258 . S
C408 O407 1.258 . S
C408 O409 1.251 . S
O409 C408 1.251 . S
O410 Tb401 2.271 . S
O410 C402 1.252 . S
O411 C402 1.253 . S
O411 Tb404 2.312 . S
O412 Tb401 2.338 . S
O412 C417 1.258 . S
C413 O403 1.252 . S
C413 O406 1.253 . S
C414 O400 1.265 . S
C414 O419 1.244 . S
O415 Tb404 2.441 . S
O415 C405 1.244 . S
O416 Tb404 2.506 . S
O416 C405 1.265 . S
C417 O412 1.258 . S
C417 O418 1.251 . S
O418 C417 1.251 . S
O419 Tb401 2.441 . S
O419 C414 1.244 . S
O420 Tb421 2.506 . S
O420 C434 1.265 . S
Tb421 O420 2.506 . S
Tb421 O426 2.312 . S
Tb421 O430 2.271 . S
Tb421 O432 2.338 . S
Tb421 O439 2.441 . S
C422 O430 1.252 . S
C422 O431 1.253 . S
O423 Tb424 2.271 . S
O423 C433 1.252 . S
Tb424 O423 2.271 . S
Tb424 O427 2.338 . S
Tb424 O431 2.312 . S
Tb424 O435 2.441 . S
Tb424 O436 2.506 . S
C425 O435 1.244 . S
C425 O436 1.265 . S
O426 Tb421 2.312 . S
O426 C433 1.253 . S
O427 Tb424 2.338 . S
O427 C428 1.258 . S
C428 O427 1.258 . S
C428 O429 1.251 . S
O429 C428 1.251 . S
O430 Tb421 2.271 . S
O430 C422 1.252 . S
O431 C422 1.253 . S
O431 Tb424 2.312 . S
O432 Tb421 2.338 . S
O432 C437 1.258 . S
C433 O423 1.252 . S
C433 O426 1.253 . S
C434 O420 1.265 . S
C434 O439 1.244 . S
O435 Tb424 2.441 . S
O435 C425 1.244 . S
O436 Tb424 2.506 . S
O436 C425 1.265 . S
C437 O432 1.258 . S
C437 O438 1.251 . S
O438 C437 1.251 . S
O439 Tb421 2.441 . S
O439 C434 1.244 . S
O440 Tb441 2.506 . S
O440 C454 1.265 . S
Tb441 O440 2.506 . S
Tb441 O446 2.312 . S
Tb441 O450 2.271 . S
Tb441 O452 2.338 . S
Tb441 O459 2.441 . S
C442 O450 1.252 . S
C442 O451 1.253 . S
O443 Tb444 2.271 . S
O443 C453 1.252 . S
Tb444 O443 2.271 . S
Tb444 O447 2.338 1_554 S
Tb444 O451 2.312 . S
Tb444 O455 2.441 . S
Tb444 O456 2.506 . S
C445 O455 1.244 . S
C445 O456 1.265 . S
O446 Tb441 2.312 . S
O446 C453 1.253 . S
O447 Tb444 2.338 1_556 S
O447 C448 1.258 . S
C448 O447 1.258 . S
C448 O449 1.251 . S
O449 C448 1.251 . S
O450 Tb441 2.271 . S
O450 C442 1.252 . S
O451 C442 1.253 . S
O451 Tb444 2.312 . S
O452 Tb441 2.338 . S
O452 C457 1.258 . S
C453 O443 1.252 . S
C453 O446 1.253 . S
C454 O440 1.265 . S
C454 O459 1.244 . S
O455 Tb444 2.441 . S
O455 C445 1.244 . S
O456 Tb444 2.506 . S
O456 C445 1.265 . S
C457 O452 1.258 . S
C457 O458 1.251 . S
O458 C457 1.251 . S
O459 Tb441 2.441 . S
O459 C454 1.244 . S
O460 Tb461 2.506 . S
O460 C474 1.265 . S
Tb461 O460 2.506 . S
Tb461 O466 2.312 . S
Tb461 O470 2.271 . S
Tb461 O472 2.338 . S
Tb461 O479 2.441 . S
C462 O470 1.252 1_565 S
C462 O471 1.253 . S
O463 Tb464 2.271 . S
O463 C473 1.252 1_565 S
Tb464 O463 2.271 . S
Tb464 O467 2.338 . S
Tb464 O471 2.312 . S
Tb464 O475 2.441 . S
Tb464 O476 2.506 . S
C465 O475 1.244 . S
C465 O476 1.265 . S
O466 Tb461 2.312 . S
O466 C473 1.253 . S
O467 Tb464 2.338 . S
O467 C468 1.258 . S
C468 O467 1.258 . S
C468 O469 1.251 . S
O469 C468 1.251 . S
O470 Tb461 2.271 . S
O470 C462 1.252 1_545 S
O471 C462 1.253 . S
O471 Tb464 2.312 . S
O472 Tb461 2.338 . S
O472 C477 1.258 . S
C473 O463 1.252 1_545 S
C473 O466 1.253 . S
C474 O460 1.265 . S
C474 O479 1.244 . S
O475 Tb464 2.441 . S
O475 C465 1.244 . S
O476 Tb464 2.506 . S
O476 C465 1.265 . S
C477 O472 1.258 . S
C477 O478 1.251 . S
O478 C477 1.251 . S
O479 Tb461 2.441 . S
O479 C474 1.244 . S
O480 Tb481 2.506 . S
O480 C494 1.265 . S
Tb481 O480 2.506 . S
Tb481 O486 2.312 . S
Tb481 O490 2.271 1_545 S
Tb481 O492 2.338 . S
Tb481 O499 2.441 . S
C482 O490 1.252 . S
C482 O491 1.253 . S
O483 Tb484 2.271 . S
O483 C493 1.252 1_565 S
Tb484 O483 2.271 . S
Tb484 O487 2.338 . S
Tb484 O491 2.312 . S
Tb484 O495 2.441 . S
Tb484 O496 2.506 . S
C485 O495 1.244 . S
C485 O496 1.265 . S
O486 Tb481 2.312 . S
O486 C493 1.253 . S
O487 Tb484 2.338 . S
O487 C488 1.258 . S
C488 O487 1.258 . S
C488 O489 1.251 . S
O489 C488 1.251 . S
O490 Tb481 2.271 1_565 S
O490 C482 1.252 . S
O491 C482 1.253 . S
O491 Tb484 2.312 . S
O492 Tb481 2.338 . S
O492 C497 1.258 . S
C493 O483 1.252 1_545 S
C493 O486 1.253 . S
C494 O480 1.265 . S
C494 O499 1.244 . S
O495 Tb484 2.441 . S
O495 C485 1.244 . S
O496 Tb484 2.506 . S
O496 C485 1.265 . S
C497 O492 1.258 . S
C497 O498 1.251 . S
O498 C497 1.251 . S
O499 Tb481 2.441 . S
O499 C494 1.244 . S
O500 Tb501 2.506 . S
O500 C514 1.265 . S
Tb501 O500 2.506 . S
Tb501 O506 2.312 . S
Tb501 O510 2.271 . S
Tb501 O512 2.338 . S
Tb501 O519 2.441 . S
C502 O510 1.252 . S
C502 O511 1.253 . S
O503 Tb504 2.271 . S
O503 C513 1.252 . S
Tb504 O503 2.271 . S
Tb504 O507 2.338 1_545 S
Tb504 O511 2.312 . S
Tb504 O515 2.441 . S
Tb504 O516 2.506 . S
C505 O515 1.244 . S
C505 O516 1.265 . S
O506 Tb501 2.312 . S
O506 C513 1.253 . S
O507 Tb504 2.338 1_565 S
O507 C508 1.258 . S
C508 O507 1.258 . S
C508 O509 1.251 . S
O509 C508 1.251 . S
O510 Tb501 2.271 . S
O510 C502 1.252 . S
O511 C502 1.253 . S
O511 Tb504 2.312 . S
O512 Tb501 2.338 . S
O512 C517 1.270 . S
C513 O503 1.252 . S
C513 O506 1.253 . S
C514 O500 1.265 . S
C514 O519 1.244 . S
O515 Tb504 2.441 . S
O515 C505 1.244 . S
O516 Tb504 2.506 . S
O516 C505 1.265 . S
C517 O512 1.270 . S
C517 O518 1.253 1_545 S
O518 C517 1.253 1_565 S
O519 Tb501 2.441 . S
O519 C514 1.244 . S
O520 Tb521 2.506 . S
O520 C534 1.265 . S
Tb521 O520 2.506 . S
Tb521 O526 2.312 . S
Tb521 O530 2.271 1_565 S
Tb521 O532 2.338 . S
Tb521 O539 2.441 . S
C522 O530 1.252 . S
C522 O531 1.253 . S
O523 Tb524 2.271 . S
O523 C533 1.252 . S
Tb524 O523 2.271 . S
Tb524 O527 2.338 . S
Tb524 O531 2.312 . S
Tb524 O535 2.441 . S
Tb524 O536 2.506 . S
C525 O535 1.244 . S
C525 O536 1.265 . S
O526 Tb521 2.312 . S
O526 C533 1.253 1_565 S
O527 Tb524 2.338 . S
O527 C528 1.258 . S
C528 O527 1.258 . S
C528 O529 1.251 . S
O529 C528 1.251 . S
O530 Tb521 2.271 1_545 S
O530 C522 1.252 . S
O531 C522 1.253 . S
O531 Tb524 2.312 . S
O532 Tb521 2.338 . S
O532 C537 1.258 . S
C533 O523 1.252 . S
C533 O526 1.253 1_545 S
C534 O520 1.265 . S
C534 O539 1.244 . S
O535 Tb524 2.441 . S
O535 C525 1.244 . S
O536 Tb524 2.506 . S
O536 C525 1.265 . S
C537 O532 1.258 . S
C537 O538 1.251 1_565 S
O538 C537 1.251 1_545 S
O539 Tb521 2.441 . S
O539 C534 1.244 . S
O540 Tb541 2.506 . S
O540 C554 1.265 . S
Tb541 O540 2.506 . S
Tb541 O546 2.312 1_554 S
Tb541 O550 2.271 1_554 S
Tb541 O552 2.338 . S
Tb541 O559 2.441 . S
C542 O550 1.252 . S
C542 O551 1.253 . S
O543 Tb544 2.271 . S
O543 C553 1.252 . S
Tb544 O543 2.271 . S
Tb544 O547 2.338 . S
Tb544 O551 2.312 . S
Tb544 O555 2.441 . S
Tb544 O556 2.506 . S
C545 O555 1.244 . S
C545 O556 1.265 . S
O546 Tb541 2.312 1_556 S
O546 C553 1.253 . S
O547 Tb544 2.338 . S
O547 C548 1.258 . S
C548 O547 1.258 . S
C548 O549 1.251 . S
O549 C548 1.251 . S
O550 Tb541 2.271 1_556 S
O550 C542 1.252 . S
O551 C542 1.253 . S
O551 Tb544 2.312 . S
O552 Tb541 2.338 . S
O552 C557 1.258 . S
C553 O543 1.252 . S
C553 O546 1.253 . S
C554 O540 1.265 . S
C554 O559 1.244 . S
O555 Tb544 2.441 . S
O555 C545 1.244 . S
O556 Tb544 2.506 . S
O556 C545 1.265 . S
C557 O552 1.258 . S
C557 O558 1.251 1_554 S
O558 C557 1.251 1_556 S
O559 Tb541 2.441 . S
O559 C554 1.244 . S
O560 Tb561 2.506 . S
O560 C574 1.265 . S
Tb561 O560 2.506 . S
Tb561 O566 2.312 . S
Tb561 O570 2.271 . S
Tb561 O572 2.338 . S
Tb561 O579 2.441 . S
C562 O570 1.252 . S
C562 O571 1.253 . S
O563 Tb564 2.271 . S
O563 C573 1.252 . S
Tb564 O563 2.271 . S
Tb564 O567 2.338 1_455 S
Tb564 O571 2.312 . S
Tb564 O575 2.441 . S
Tb564 O576 2.506 . S
C565 O575 1.244 . S
C565 O576 1.265 . S
O566 Tb561 2.312 . S
O566 C573 1.253 . S
O567 Tb564 2.338 1_655 S
O567 C568 1.258 . S
C568 O567 1.258 . S
C568 O569 1.251 . S
O569 C568 1.251 . S
O570 Tb561 2.271 . S
O570 C562 1.252 . S
O571 C562 1.253 . S
O571 Tb564 2.312 . S
O572 Tb561 2.338 . S
O572 C577 1.258 1_545 S
C573 O563 1.252 . S
C573 O566 1.253 . S
C574 O560 1.265 . S
C574 O579 1.244 . S
O575 Tb564 2.441 . S
O575 C565 1.244 . S
O576 Tb564 2.506 . S
O576 C565 1.265 . S
C577 O572 1.258 1_565 S
C577 O578 1.251 1_565 S
O578 C577 1.251 1_545 S
O579 Tb561 2.441 . S
O579 C574 1.244 . S
O580 Tb581 2.506 . S
O580 C594 1.265 . S
Tb581 O580 2.506 . S
Tb581 O586 2.312 . S
Tb581 O590 2.271 . S
Tb581 O592 2.338 . S
Tb581 O599 2.441 . S
C582 O590 1.252 . S
C582 O591 1.253 . S
O583 Tb584 2.271 . S
O583 C593 1.252 . S
Tb584 O583 2.271 . S
Tb584 O587 2.338 . S
Tb584 O591 2.312 . S
Tb584 O595 2.441 . S
Tb584 O596 2.506 . S
C585 O595 1.244 . S
C585 O596 1.265 . S
O586 Tb581 2.312 . S
O586 C593 1.253 . S
O587 Tb584 2.338 . S
O587 C588 1.258 . S
C588 O587 1.258 . S
C588 O589 1.251 . S
O589 C588 1.251 . S
O590 Tb581 2.271 . S
O590 C582 1.252 . S
O591 C582 1.253 . S
O591 Tb584 2.312 . S
O592 Tb581 2.338 . S
O592 C597 1.258 . S
C593 O583 1.252 . S
C593 O586 1.253 . S
C594 O580 1.265 . S
C594 O599 1.244 . S
O595 Tb584 2.441 . S
O595 C585 1.244 . S
O596 Tb584 2.506 . S
O596 C585 1.265 . S
C597 O592 1.258 . S
C597 O598 1.251 . S
O598 C597 1.251 . S
O599 Tb581 2.441 . S
O599 C594 1.244 . S
O600 Tb601 2.506 . S
O600 C614 1.265 . S
Tb601 O600 2.506 . S
Tb601 O606 2.312 . S
Tb601 O610 2.271 . S
Tb601 O612 2.338 . S
Tb601 O619 2.441 . S
C602 O610 1.252 . S
C602 O611 1.253 . S
O603 Tb604 2.271 . S
O603 C613 1.252 . S
Tb604 O603 2.271 . S
Tb604 O607 2.338 . S
Tb604 O611 2.312 . S
Tb604 O615 2.441 . S
Tb604 O616 2.506 . S
C605 O615 1.244 . S
C605 O616 1.265 . S
O606 Tb601 2.312 . S
O606 C613 1.253 . S
O607 Tb604 2.338 . S
O607 C608 1.258 . S
C608 O607 1.258 . S
C608 O609 1.251 . S
O609 C608 1.251 . S
O610 Tb601 2.271 . S
O610 C602 1.252 . S
O611 C602 1.253 . S
O611 Tb604 2.312 . S
O612 Tb601 2.338 . S
O612 C617 1.258 . S
C613 O603 1.252 . S
C613 O606 1.253 . S
C614 O600 1.265 . S
C614 O619 1.244 . S
O615 Tb604 2.441 . S
O615 C605 1.244 . S
O616 Tb604 2.506 . S
O616 C605 1.265 . S
C617 O612 1.258 . S
C617 O618 1.251 . S
O618 C617 1.251 . S
O619 Tb601 2.441 . S
O619 C614 1.244 . S
O620 Tb621 2.506 . S
O620 C634 1.265 . S
Tb621 O620 2.506 . S
Tb621 O626 2.312 . S
Tb621 O630 2.271 1_455 S
Tb621 O632 2.338 . S
Tb621 O639 2.441 . S
C622 O630 1.252 . S
C622 O631 1.253 . S
O623 Tb624 2.271 . S
O623 C633 1.252 . S
Tb624 O623 2.271 . S
Tb624 O627 2.338 . S
Tb624 O631 2.312 . S
Tb624 O635 2.441 . S
Tb624 O636 2.506 . S
C625 O635 1.244 . S
C625 O636 1.265 . S
O626 Tb621 2.312 . S
O626 C633 1.253 1_455 S
O627 Tb624 2.338 . S
O627 C628 1.258 . S
C628 O627 1.258 . S
C628 O629 1.251 . S
O629 C628 1.251 . S
O630 Tb621 2.271 1_655 S
O630 C622 1.252 . S
O631 C622 1.253 . S
O631 Tb624 2.312 . S
O632 Tb621 2.338 . S
O632 C637 1.258 . S
C633 O623 1.252 . S
C633 O626 1.253 1_655 S
C634 O620 1.265 . S
C634 O639 1.244 . S
O635 Tb624 2.441 . S
O635 C625 1.244 . S
O636 Tb624 2.506 . S
O636 C625 1.265 . S
C637 O632 1.258 . S
C637 O638 1.251 1_455 S
O638 C637 1.251 1_655 S
O639 Tb621 2.441 . S
O639 C634 1.244 . S
O640 Tb641 2.506 . S
O640 C654 1.265 . S
Tb641 O640 2.506 . S
Tb641 O646 2.312 . S
Tb641 O650 2.271 . S
Tb641 O652 2.338 . S
Tb641 O659 2.441 . S
C642 O650 1.252 . S
C642 O651 1.253 . S
O643 Tb644 2.271 . S
O643 C653 1.252 . S
Tb644 O643 2.271 . S
Tb644 O647 2.338 . S
Tb644 O651 2.312 . S
Tb644 O655 2.441 . S
Tb644 O656 2.506 . S
C645 O655 1.244 . S
C645 O656 1.265 . S
O646 Tb641 2.312 . S
O646 C653 1.253 . S
O647 Tb644 2.338 . S
O647 C648 1.258 . S
C648 O647 1.258 . S
C648 O649 1.251 . S
O649 C648 1.251 . S
O650 Tb641 2.271 . S
O650 C642 1.252 . S
O651 C642 1.253 . S
O651 Tb644 2.312 . S
O652 Tb641 2.338 . S
O652 C657 1.258 . S
C653 O643 1.252 . S
C653 O646 1.253 . S
C654 O640 1.265 . S
C654 O659 1.244 . S
O655 Tb644 2.441 . S
O655 C645 1.244 . S
O656 Tb644 2.506 . S
O656 C645 1.265 . S
C657 O652 1.258 . S
C657 O658 1.251 . S
O658 C657 1.251 . S
O659 Tb641 2.441 . S
O659 C654 1.244 . S
O660 Tb661 2.506 . S
O660 C674 1.265 . S
Tb661 O660 2.506 . S
Tb661 O666 2.312 . S
Tb661 O670 2.271 . S
Tb661 O672 2.338 . S
Tb661 O679 2.441 . S
C662 O670 1.252 . S
C662 O671 1.253 . S
O663 Tb664 2.271 . S
O663 C673 1.252 . S
Tb664 O663 2.271 . S
Tb664 O667 2.338 1_556 S
Tb664 O671 2.312 . S
Tb664 O675 2.441 . S
Tb664 O676 2.506 . S
C665 O675 1.244 . S
C665 O676 1.265 . S
O666 Tb661 2.312 . S
O666 C673 1.253 . S
O667 Tb664 2.338 1_554 S
O667 C668 1.258 . S
C668 O667 1.258 . S
C668 O669 1.251 . S
O669 C668 1.251 . S
O670 Tb661 2.271 . S
O670 C662 1.252 . S
O671 C662 1.253 . S
O671 Tb664 2.312 . S
O672 Tb661 2.338 . S
O672 C677 1.258 . S
C673 O663 1.252 . S
C673 O666 1.253 . S
C674 O660 1.265 . S
C674 O679 1.244 . S
O675 Tb664 2.441 . S
O675 C665 1.244 . S
O676 Tb664 2.506 . S
O676 C665 1.265 . S
C677 O672 1.258 . S
C677 O678 1.251 . S
O678 C677 1.251 . S
O679 Tb661 2.441 . S
O679 C674 1.244 . S
O680 Tb681 2.506 . S
O680 C694 1.265 . S
Tb681 O680 2.506 . S
Tb681 O686 2.312 . S
Tb681 O690 2.271 . S
Tb681 O692 2.338 . S
Tb681 O699 2.441 . S
C682 O690 1.252 . S
C682 O691 1.253 . S
O683 Tb684 2.271 . S
O683 C693 1.252 . S
Tb684 O683 2.271 . S
Tb684 O687 2.338 . S
Tb684 O691 2.312 . S
Tb684 O695 2.441 . S
Tb684 O696 2.506 . S
C685 O695 1.244 . S
C685 O696 1.265 . S
O686 Tb681 2.312 . S
O686 C693 1.253 . S
O687 Tb684 2.338 . S
O687 C688 1.258 . S
C688 O687 1.258 . S
C688 O689 1.251 . S
O689 C688 1.251 . S
O690 Tb681 2.271 . S
O690 C682 1.252 . S
O691 C682 1.253 . S
O691 Tb684 2.312 . S
O692 Tb681 2.338 . S
O692 C697 1.258 . S
C693 O683 1.252 . S
C693 O686 1.253 . S
C694 O680 1.265 . S
C694 O699 1.244 . S
O695 Tb684 2.441 . S
O695 C685 1.244 . S
O696 Tb684 2.506 . S
O696 C685 1.265 . S
C697 O692 1.258 . S
C697 O698 1.251 . S
O698 C697 1.251 . S
O699 Tb681 2.441 . S
O699 C694 1.244 . S
O700 Tb701 2.506 . S
O700 C714 1.265 . S
Tb701 O700 2.506 . S
Tb701 O706 2.312 . S
Tb701 O710 2.271 . S
Tb701 O712 2.338 . S
Tb701 O719 2.441 . S
C702 O710 1.252 . S
C702 O711 1.253 . S
O703 Tb704 2.271 . S
O703 C713 1.252 . S
Tb704 O703 2.271 . S
Tb704 O707 2.338 . S
Tb704 O711 2.312 . S
Tb704 O715 2.441 . S
Tb704 O716 2.506 . S
C705 O715 1.244 . S
C705 O716 1.265 . S
O706 Tb701 2.312 . S
O706 C713 1.253 . S
O707 Tb704 2.338 . S
O707 C708 1.258 . S
C708 O707 1.258 . S
C708 O709 1.251 . S
O709 C708 1.251 . S
O710 Tb701 2.271 . S
O710 C702 1.252 . S
O711 C702 1.253 . S
O711 Tb704 2.312 . S
O712 Tb701 2.338 . S
O712 C717 1.258 . S
C713 O703 1.252 . S
C713 O706 1.253 . S
C714 O700 1.265 . S
C714 O719 1.244 . S
O715 Tb704 2.441 . S
O715 C705 1.244 . S
O716 Tb704 2.506 . S
O716 C705 1.265 . S
C717 O712 1.258 . S
C717 O718 1.251 . S
O718 C717 1.251 . S
O719 Tb701 2.441 . S
O719 C714 1.244 . S
O720 Tb721 2.506 . S
O720 C734 1.265 . S
Tb721 O720 2.506 . S
Tb721 O726 2.312 . S
Tb721 O730 2.271 . S
Tb721 O732 2.338 . S
Tb721 O739 2.441 . S
C722 O730 1.252 . S
C722 O731 1.253 . S
O723 Tb724 2.271 . S
O723 C733 1.252 . S
Tb724 O723 2.271 . S
Tb724 O727 2.338 . S
Tb724 O731 2.312 . S
Tb724 O735 2.441 . S
Tb724 O736 2.506 . S
C725 O735 1.244 . S
C725 O736 1.265 . S
O726 Tb721 2.312 . S
O726 C733 1.253 . S
O727 Tb724 2.338 . S
O727 C728 1.258 . S
C728 O727 1.258 . S
C728 O729 1.251 . S
O729 C728 1.251 . S
O730 Tb721 2.271 . S
O730 C722 1.252 . S
O731 C722 1.253 . S
O731 Tb724 2.312 . S
O732 Tb721 2.338 . S
O732 C737 1.258 . S
C733 O723 1.252 . S
C733 O726 1.253 . S
C734 O720 1.265 . S
C734 O739 1.244 . S
O735 Tb724 2.441 . S
O735 C725 1.244 . S
O736 Tb724 2.506 . S
O736 C725 1.265 . S
C737 O732 1.258 . S
C737 O738 1.251 . S
O738 C737 1.251 . S
O739 Tb721 2.441 . S
O739 C734 1.244 . S
O740 Tb741 2.506 . S
O740 C754 1.265 . S
Tb741 O740 2.506 . S
Tb741 O746 2.312 . S
Tb741 O750 2.271 . S
Tb741 O752 2.338 . S
Tb741 O759 2.441 . S
C742 O750 1.252 . S
C742 O751 1.253 . S
O743 Tb744 2.271 . S
O743 C753 1.252 . S
Tb744 O743 2.271 . S
Tb744 O747 2.338 . S
Tb744 O751 2.312 . S
Tb744 O755 2.441 . S
Tb744 O756 2.506 . S
C745 O755 1.244 . S
C745 O756 1.265 . S
O746 Tb741 2.312 . S
O746 C753 1.253 . S
O747 Tb744 2.338 . S
O747 C748 1.258 . S
C748 O747 1.258 . S
C748 O749 1.251 . S
O749 C748 1.251 . S
O750 Tb741 2.271 . S
O750 C742 1.252 . S
O751 C742 1.253 . S
O751 Tb744 2.312 . S
O752 Tb741 2.338 . S
O752 C757 1.258 . S
C753 O743 1.252 . S
C753 O746 1.253 . S
C754 O740 1.265 . S
C754 O759 1.244 . S
O755 Tb744 2.441 . S
O755 C745 1.244 . S
O756 Tb744 2.506 . S
O756 C745 1.265 . S
C757 O752 1.258 . S
C757 O758 1.251 . S
O758 C757 1.251 . S
O759 Tb741 2.441 . S
O759 C754 1.244 . S
O760 Tb761 2.506 . S
O760 C774 1.265 . S
Tb761 O760 2.506 . S
Tb761 O766 2.312 . S
Tb761 O770 2.271 . S
Tb761 O772 2.338 . S
Tb761 O779 2.441 . S
C762 O770 1.252 . S
C762 O771 1.253 . S
O763 Tb764 2.271 . S
O763 C773 1.252 . S
Tb764 O763 2.271 . S
Tb764 O767 2.338 . S
Tb764 O771 2.312 . S
Tb764 O775 2.441 . S
Tb764 O776 2.506 . S
C765 O775 1.244 . S
C765 O776 1.265 . S
O766 Tb761 2.312 . S
O766 C773 1.253 . S
O767 Tb764 2.338 . S
O767 C768 1.258 . S
C768 O767 1.258 . S
C768 O769 1.251 . S
O769 C768 1.251 . S
O770 Tb761 2.271 . S
O770 C762 1.252 . S
O771 C762 1.253 . S
O771 Tb764 2.312 . S
O772 Tb761 2.338 . S
O772 C777 1.258 . S
C773 O763 1.252 . S
C773 O766 1.253 . S
C774 O760 1.265 . S
C774 O779 1.244 . S
O775 Tb764 2.441 . S
O775 C765 1.244 . S
O776 Tb764 2.506 . S
O776 C765 1.265 . S
C777 O772 1.258 . S
C777 O778 1.251 . S
O778 C777 1.251 . S
O779 Tb761 2.441 . S
O779 C774 1.244 . S
O780 Tb781 2.506 . S
O780 C794 1.265 . S
Tb781 O780 2.506 . S
Tb781 O786 2.312 . S
Tb781 O790 2.271 . S
Tb781 O792 2.338 . S
Tb781 O799 2.441 . S
C782 O790 1.252 . S
C782 O791 1.253 . S
O783 Tb784 2.271 . S
O783 C793 1.252 . S
Tb784 O783 2.271 . S
Tb784 O787 2.338 . S
Tb784 O791 2.312 . S
Tb784 O795 2.441 . S
Tb784 O796 2.506 . S
C785 O795 1.244 . S
C785 O796 1.265 . S
O786 Tb781 2.312 . S
O786 C793 1.253 . S
O787 Tb784 2.338 . S
O787 C788 1.258 . S
C788 O787 1.258 . S
C788 O789 1.251 . S
O789 C788 1.251 . S
O790 Tb781 2.271 . S
O790 C782 1.252 . S
O791 C782 1.253 . S
O791 Tb784 2.312 . S
O792 Tb781 2.338 . S
O792 C797 1.258 . S
C793 O783 1.252 . S
C793 O786 1.253 . S
C794 O780 1.265 . S
C794 O799 1.244 . S
O795 Tb784 2.441 . S
O795 C785 1.244 . S
O796 Tb784 2.506 . S
O796 C785 1.265 . S
C797 O792 1.258 . S
C797 O798 1.251 . S
O798 C797 1.251 . S
O799 Tb781 2.441 . S
O799 C794 1.244 . S
O800 Tb801 2.506 . S
O800 C814 1.265 . S
Tb801 O800 2.506 . S
Tb801 O806 2.312 . S
Tb801 O810 2.271 1_655 S
Tb801 O812 2.338 . S
Tb801 O819 2.441 . S
C802 O810 1.252 . S
C802 O811 1.253 . S
O803 Tb804 2.271 . S
O803 C813 1.252 . S
Tb804 O803 2.271 . S
Tb804 O807 2.338 . S
Tb804 O811 2.312 . S
Tb804 O815 2.441 . S
Tb804 O816 2.506 . S
C805 O815 1.244 . S
C805 O816 1.265 . S
O806 Tb801 2.312 . S
O806 C813 1.253 1_655 S
O807 Tb804 2.338 . S
O807 C808 1.258 . S
C808 O807 1.258 . S
C808 O809 1.251 . S
O809 C808 1.251 . S
O810 Tb801 2.271 1_455 S
O810 C802 1.252 . S
O811 C802 1.253 . S
O811 Tb804 2.312 . S
O812 Tb801 2.338 . S
O812 C817 1.258 . S
C813 O803 1.252 . S
C813 O806 1.253 1_455 S
C814 O800 1.265 . S
C814 O819 1.244 . S
O815 Tb804 2.441 . S
O815 C805 1.244 . S
O816 Tb804 2.506 . S
O816 C805 1.265 . S
C817 O812 1.258 . S
C817 O818 1.251 1_655 S
O818 C817 1.251 1_455 S
O819 Tb801 2.441 . S
O819 C814 1.244 . S
O820 Tb821 2.506 . S
O820 C834 1.265 . S
Tb821 O820 2.506 . S
Tb821 O826 2.312 . S
Tb821 O830 2.271 . S
Tb821 O832 2.338 . S
Tb821 O839 2.441 . S
C822 O830 1.252 . S
C822 O831 1.253 . S
O823 Tb824 2.271 . S
O823 C833 1.252 . S
Tb824 O823 2.271 . S
Tb824 O827 2.338 . S
Tb824 O831 2.312 . S
Tb824 O835 2.441 . S
Tb824 O836 2.506 . S
C825 O835 1.244 . S
C825 O836 1.265 . S
O826 Tb821 2.312 . S
O826 C833 1.253 . S
O827 Tb824 2.338 . S
O827 C828 1.258 . S
C828 O827 1.258 . S
C828 O829 1.251 . S
O829 C828 1.251 . S
O830 Tb821 2.271 . S
O830 C822 1.252 . S
O831 C822 1.253 . S
O831 Tb824 2.312 . S
O832 Tb821 2.338 . S
O832 C837 1.258 . S
C833 O823 1.252 . S
C833 O826 1.253 . S
C834 O820 1.265 . S
C834 O839 1.244 . S
O835 Tb824 2.441 . S
O835 C825 1.244 . S
O836 Tb824 2.506 . S
O836 C825 1.265 . S
C837 O832 1.258 . S
C837 O838 1.251 . S
O838 C837 1.251 . S
O839 Tb821 2.441 . S
O839 C834 1.244 . S
O840 Tb841 2.506 . S
O840 C854 1.265 . S
Tb841 O840 2.506 . S
Tb841 O846 2.312 . S
Tb841 O850 2.271 . S
Tb841 O852 2.338 . S
Tb841 O859 2.441 . S
C842 O850 1.252 . S
C842 O851 1.253 . S
O843 Tb844 2.271 . S
O843 C853 1.252 . S
Tb844 O843 2.271 . S
Tb844 O847 2.338 1_554 S
Tb844 O851 2.312 . S
Tb844 O855 2.441 . S
Tb844 O856 2.506 . S
C845 O855 1.244 . S
C845 O856 1.265 . S
O846 Tb841 2.312 . S
O846 C853 1.253 . S
O847 Tb844 2.338 1_556 S
O847 C848 1.258 . S
C848 O847 1.258 . S
C848 O849 1.251 . S
O849 C848 1.251 . S
O850 Tb841 2.271 . S
O850 C842 1.252 . S
O851 C842 1.253 . S
O851 Tb844 2.312 . S
O852 Tb841 2.338 . S
O852 C857 1.258 . S
C853 O843 1.252 . S
C853 O846 1.253 . S
C854 O840 1.265 . S
C854 O859 1.244 . S
O855 Tb844 2.441 . S
O855 C845 1.244 . S
O856 Tb844 2.506 . S
O856 C845 1.265 . S
C857 O852 1.258 . S
C857 O858 1.251 . S
O858 C857 1.251 . S
O859 Tb841 2.441 . S
O859 C854 1.244 . S
O860 Tb861 2.506 . S
O860 C874 1.265 . S
Tb861 O860 2.506 . S
Tb861 O866 2.312 . S
Tb861 O870 2.271 . S
Tb861 O872 2.338 . S
Tb861 O879 2.441 . S
C862 O870 1.252 . S
C862 O871 1.253 . S
O863 Tb864 2.271 . S
O863 C873 1.252 . S
Tb864 O863 2.271 . S
Tb864 O867 2.338 . S
Tb864 O871 2.312 . S
Tb864 O875 2.441 . S
Tb864 O876 2.506 . S
C865 O875 1.244 . S
C865 O876 1.265 . S
O866 Tb861 2.312 . S
O866 C873 1.253 . S
O867 Tb864 2.338 . S
O867 C868 1.258 . S
C868 O867 1.258 . S
C868 O869 1.251 . S
O869 C868 1.251 . S
O870 Tb861 2.271 . S
O870 C862 1.252 . S
O871 C862 1.253 . S
O871 Tb864 2.312 . S
O872 Tb861 2.338 . S
O872 C877 1.258 . S
C873 O863 1.252 . S
C873 O866 1.253 . S
C874 O860 1.265 . S
C874 O879 1.244 . S
O875 Tb864 2.441 . S
O875 C865 1.244 . S
O876 Tb864 2.506 . S
O876 C865 1.265 . S
C877 O872 1.258 . S
C877 O878 1.251 . S
O878 C877 1.251 . S
O879 Tb861 2.441 . S
O879 C874 1.244 . S
O880 Tb881 2.506 . S
O880 C894 1.265 . S
Tb881 O880 2.506 . S
Tb881 O886 2.312 . S
Tb881 O890 2.271 . S
Tb881 O892 2.338 . S
Tb881 O899 2.441 . S
C882 O890 1.252 . S
C882 O891 1.253 . S
O883 Tb884 2.271 . S
O883 C893 1.252 . S
Tb884 O883 2.271 . S
Tb884 O887 2.338 . S
Tb884 O891 2.312 . S
Tb884 O895 2.441 1_554 S
Tb884 O896 2.506 . S
C885 O895 1.244 . S
C885 O896 1.265 1_556 S
O886 Tb881 2.312 . S
O886 C893 1.253 . S
O887 Tb884 2.338 . S
O887 C888 1.258 . S
C888 O887 1.258 . S
C888 O889 1.251 . S
O889 C888 1.251 . S
O890 Tb881 2.271 . S
O890 C882 1.252 . S
O891 C882 1.253 . S
O891 Tb884 2.312 . S
O892 Tb881 2.338 . S
O892 C897 1.258 . S
C893 O883 1.252 . S
C893 O886 1.253 . S
C894 O880 1.265 . S
C894 O899 1.244 . S
O895 Tb884 2.441 1_556 S
O895 C885 1.244 . S
O896 Tb884 2.506 . S
O896 C885 1.265 1_554 S
C897 O892 1.258 . S
C897 O898 1.251 . S
O898 C897 1.251 . S
O899 Tb881 2.441 . S
O899 C894 1.244 . S
O900 Tb901 2.506 . S
O900 C914 1.265 . S
Tb901 O900 2.506 . S
Tb901 O906 2.312 . S
Tb901 O910 2.271 . S
Tb901 O912 2.338 . S
Tb901 O919 2.441 . S
C902 O910 1.252 . S
C902 O911 1.253 . S
O903 Tb904 2.271 . S
O903 C913 1.252 . S
Tb904 O903 2.271 . S
Tb904 O907 2.338 . S
Tb904 O911 2.312 . S
Tb904 O915 2.441 . S
Tb904 O916 2.506 . S
C905 O915 1.244 . S
C905 O916 1.265 . S
O906 Tb901 2.312 . S
O906 C913 1.253 . S
O907 Tb904 2.338 . S
O907 C908 1.258 . S
C908 O907 1.258 . S
C908 O909 1.251 . S
O909 C908 1.251 . S
O910 Tb901 2.271 . S
O910 C902 1.252 . S
O911 C902 1.253 . S
O911 Tb904 2.312 . S
O912 Tb901 2.338 . S
O912 C917 1.258 . S
C913 O903 1.252 . S
C913 O906 1.253 . S
C914 O900 1.265 . S
C914 O919 1.244 . S
O915 Tb904 2.441 . S
O915 C905 1.244 . S
O916 Tb904 2.506 . S
O916 C905 1.265 . S
C917 O912 1.258 . S
C917 O918 1.251 . S
O918 C917 1.251 . S
O919 Tb901 2.441 . S
O919 C914 1.244 . S
O920 Tb921 2.506 . S
O920 C934 1.265 . S
Tb921 O920 2.506 . S
Tb921 O926 2.312 . S
Tb921 O930 2.271 . S
Tb921 O932 2.338 . S
Tb921 O939 2.441 . S
C922 O930 1.252 . S
C922 O931 1.253 . S
O923 Tb924 2.271 . S
O923 C933 1.252 . S
Tb924 O923 2.271 . S
Tb924 O927 2.338 . S
Tb924 O931 2.312 . S
Tb924 O935 2.441 . S
Tb924 O936 2.506 . S
C925 O935 1.244 . S
C925 O936 1.265 . S
O926 Tb921 2.312 . S
O926 C933 1.253 . S
O927 Tb924 2.338 . S
O927 C928 1.258 . S
C928 O927 1.258 . S
C928 O929 1.251 . S
O929 C928 1.251 . S
O930 Tb921 2.271 . S
O930 C922 1.252 . S
O931 C922 1.253 . S
O931 Tb924 2.312 . S
O932 Tb921 2.338 . S
O932 C937 1.258 . S
C933 O923 1.252 . S
C933 O926 1.253 . S
C934 O920 1.265 . S
C934 O939 1.244 . S
O935 Tb924 2.441 . S
O935 C925 1.244 . S
O936 Tb924 2.506 . S
O936 C925 1.265 . S
C937 O932 1.258 . S
C937 O938 1.251 . S
O938 C937 1.251 . S
O939 Tb921 2.441 . S
O939 C934 1.244 . S
O940 Tb941 2.506 . S
O940 C954 1.265 . S
Tb941 O940 2.506 . S
Tb941 O946 2.312 . S
Tb941 O950 2.271 . S
Tb941 O952 2.338 . S
Tb941 O959 2.441 . S
C942 O950 1.252 . S
C942 O951 1.253 . S
O943 Tb944 2.271 . S
O943 C953 1.252 . S
Tb944 O943 2.271 . S
Tb944 O947 2.338 . S
Tb944 O951 2.312 . S
Tb944 O955 2.441 . S
Tb944 O956 2.506 . S
C945 O955 1.244 . S
C945 O956 1.265 . S
O946 Tb941 2.312 . S
O946 C953 1.253 . S
O947 Tb944 2.338 . S
O947 C948 1.258 . S
C948 O947 1.258 . S
C948 O949 1.251 . S
O949 C948 1.251 . S
O950 Tb941 2.271 . S
O950 C942 1.252 . S
O951 C942 1.253 . S
O951 Tb944 2.312 . S
O952 Tb941 2.338 . S
O952 C957 1.258 . S
C953 O943 1.252 . S
C953 O946 1.253 . S
C954 O940 1.265 . S
C954 O959 1.244 . S
O955 Tb944 2.441 . S
O955 C945 1.244 . S
O956 Tb944 2.506 . S
O956 C945 1.265 . S
C957 O952 1.258 . S
C957 O958 1.251 . S
O958 C957 1.251 . S
O959 Tb941 2.441 . S
O959 C954 1.244 . S
C17 C97 3.515 . S
C33 C113 4.019 . S
C137 C53 4.295 . S
C153 C77 2.921 . S
C173 C193 4.090 1_545 S
C197 C217 2.551 . S
C233 C213 4.729 1_554 S
C237 C177 2.658 . S
C257 C73 3.361 . S
C157 C677 2.148 1_655 S
C93 C273 5.147 1_655 S
C117 C697 2.148 . S
C37 C293 3.361 1_655 S
C637 C13 3.588 . S
C613 C57 3.588 . S
C397 C313 4.423 . S
C337 C413 2.158 . S
C353 C437 3.951 . S
C377 C453 3.247 1_556 S
C493 C473 4.186 . S
C497 C513 3.755 . S
C533 C517 3.383 1_556 S
C477 C537 3.278 1_545 S
C373 C553 4.386 . S
C857 C457 1.486 1_655 S
C573 C393 5.347 . S
C417 C877 1.486 . S
C593 C333 4.386 1_655 S
C317 C817 2.415 . S
C357 C797 2.415 . S
C657 C617 3.515 1_545 S
C673 C253 4.019 1_556 S
C633 C277 4.295 1_545 S
C693 C297 2.921 . S
C713 C733 4.090 1_556 S
C737 C757 2.551 . S
C773 C753 4.729 . S
C717 C777 2.658 . S
C133 C653 5.147 . S
C837 C793 4.423 1_565 S
C853 C557 2.158 . S
C577 C813 3.951 . S
C873 C597 3.247 . S
C893 C913 4.186 1_554 S
C917 C933 3.755 . S
C937 C953 3.399 . S
C957 C897 3.278 . S
C833 C433 5.347 . S
C5 C328 1.302 . S
C814 C22 3.415 . S
C42 C368 2.336 . S
C65 C794 2.055 . S
C85 C454 3.105 . S
C102 C828 2.142 . S
C125 C414 2.432 . S
C568 C142 2.526 . S
C162 C788 1.866 . S
C185 C334 2.237 . S
C202 C808 2.798 . S
C374 C225 1.827 . S
C834 C222 2.715 . S
C408 C165 1.915 . S
C182 C574 3.240 . S
C448 C205 2.090 . S
C888 C245 1.173 . S
C528 C145 2.059 . S
C82 C894 2.581 . S
C105 C488 1.930 . S
C262 C508 1.985 . S
C934 C282 3.447 . S
C2 C954 2.216 . S
C45 C914 2.489 . S
C34 C302 3.310 . S
C325 C634 1.940 . S
C342 C68 1.477 . S
C365 C608 2.534 . S
C154 C385 1.825 . S
C648 C402 1.976 . S
C114 C425 2.950 . S
C442 C268 2.289 . S
C462 C614 2.471 . S
C28 C485 1.669 . S
C505 C628 3.449 . S
C74 C525 1.191 . S
C654 C522 2.208 . S
C465 C108 2.159 . S
C482 C274 3.178 . S
C148 C502 1.860 . S
C542 C708 2.823 . S
C228 C445 1.296 . S
C714 C382 2.700 . S
C405 C188 1.584 . S
C562 C214 2.711 . S
C748 C582 2.032 . S
C305 C774 2.385 . S
C734 C345 2.245 . S
C548 C605 1.301 . S
C242 C354 3.416 . S
C588 C622 2.336 . S
C285 C314 2.055 . S
C645 C874 3.105 . S
C388 C662 2.142 . S
C265 C854 2.432 . S
C428 C682 2.526 . S
C702 C308 1.866 . S
C725 C554 2.237 . S
C742 C348 2.798 . S
C594 C765 1.826 . S
C394 C762 2.715 . S
C705 C848 1.915 . S
C434 C722 3.240 . S
C745 C868 2.090 . S
C25 C468 1.173 . S
C948 C685 2.058 . S
C642 C474 2.581 . S
C665 C908 1.930 . S
C928 C122 1.985 . S
C514 C62 3.447 . S
C602 C534 2.216 . S
C494 C625 2.489 . S
C254 C782 3.310 . S
C545 C54 1.940 . S
C288 C802 1.477 . S
C585 C8 2.533 . S
C825 C694 1.825 . S
C88 C842 1.976 . S
C674 C565 2.950 . S
C128 C862 2.289 . S
C14 C882 2.471 . S
C905 C248 1.669 . S
C48 C925 3.449 . S
C294 C945 1.191 . S
C94 C942 2.208 . S
C668 C885 2.159 1_554 S
C902 C134 3.178 . S
C688 C922 1.860 . S
C168 C322 2.822 . S
C865 C768 1.296 . S
C822 C174 2.700 . S
C728 C845 1.584 . S
C422 C754 2.711 . S
C362 C208 2.032 . S
C234 C785 2.385 . S
C194 C805 2.245 . S
