# Generated by pormake.
# Topology swl, (7)-cn, num edge types: 1
# Building blocks:
#     Node 0, Type 0, BuildingBlock: HICVOG_clean_sbu_0, # of connection points: 7
#     Node 1, Type 0, BuildingBlock: HICVOG_clean_sbu_0, # of connection points: 7
#     Node 2, Type 0, BuildingBlock: HICVOG_clean_sbu_0, # of connection points: 7
#     Node 3, Type 0, BuildingBlock: HICVOG_clean_sbu_0, # of connection points: 7
#     Node 4, Type 0, BuildingBlock: HICVOG_clean_sbu_0, # of connection points: 7
#     Node 5, Type 0, BuildingBlock: HICVOG_clean_sbu_0, # of connection points: 7
#     Node 6, Type 0, BuildingBlock: HICVOG_clean_sbu_0, # of connection points: 7
#     Node 7, Type 0, BuildingBlock: HICVOG_clean_sbu_0, # of connection points: 7
#     Node 8, Type 0, BuildingBlock: HICVOG_clean_sbu_0, # of connection points: 7
#     Node 9, Type 0, BuildingBlock: HICVOG_clean_sbu_0, # of connection points: 7
#     Node 10, Type 0, BuildingBlock: HICVOG_clean_sbu_0, # of connection points: 7
#     Node 11, Type 0, BuildingBlock: HICVOG_clean_sbu_0, # of connection points: 7
#     Node 12, Type 0, BuildingBlock: HICVOG_clean_sbu_0, # of connection points: 7
#     Node 13, Type 0, BuildingBlock: HICVOG_clean_sbu_0, # of connection points: 7
#     Node 14, Type 0, BuildingBlock: HICVOG_clean_sbu_0, # of connection points: 7
#     Node 15, Type 0, BuildingBlock: HICVOG_clean_sbu_0, # of connection points: 7
#     Edge 16, Type (0, 0), BuildingBlock: UVAHIK_clean_linker_0, # of connection points: 2
#     Edge 17, Type (0, 0), BuildingBlock: UVAHIK_clean_linker_0, # of connection points: 2
#     Edge 18, Type (0, 0), BuildingBlock: UVAHIK_clean_linker_0, # of connection points: 2
#     Edge 19, Type (0, 0), BuildingBlock: UVAHIK_clean_linker_0, # of connection points: 2
#     Edge 20, Type (0, 0), BuildingBlock: UVAHIK_clean_linker_0, # of connection points: 2
#     Edge 21, Type (0, 0), BuildingBlock: UVAHIK_clean_linker_0, # of connection points: 2
#     Edge 22, Type (0, 0), BuildingBlock: UVAHIK_clean_linker_0, # of connection points: 2
#     Edge 23, Type (0, 0), BuildingBlock: UVAHIK_clean_linker_0, # of connection points: 2
#     Edge 24, Type (0, 0), BuildingBlock: UVAHIK_clean_linker_0, # of connection points: 2
#     Edge 25, Type (0, 0), BuildingBlock: UVAHIK_clean_linker_0, # of connection points: 2
#     Edge 26, Type (0, 0), BuildingBlock: UVAHIK_clean_linker_0, # of connection points: 2
#     Edge 27, Type (0, 0), BuildingBlock: UVAHIK_clean_linker_0, # of connection points: 2
#     Edge 28, Type (0, 0), BuildingBlock: UVAHIK_clean_linker_0, # of connection points: 2
#     Edge 29, Type (0, 0), BuildingBlock: UVAHIK_clean_linker_0, # of connection points: 2
#     Edge 30, Type (0, 0), BuildingBlock: UVAHIK_clean_linker_0, # of connection points: 2
#     Edge 31, Type (0, 0), BuildingBlock: UVAHIK_clean_linker_0, # of connection points: 2
#     Edge 32, Type (0, 0), BuildingBlock: UVAHIK_clean_linker_0, # of connection points: 2
#     Edge 33, Type (0, 0), BuildingBlock: UVAHIK_clean_linker_0, # of connection points: 2
#     Edge 34, Type (0, 0), BuildingBlock: UVAHIK_clean_linker_0, # of connection points: 2
#     Edge 35, Type (0, 0), BuildingBlock: UVAHIK_clean_linker_0, # of connection points: 2
#     Edge 36, Type (0, 0), BuildingBlock: UVAHIK_clean_linker_0, # of connection points: 2
#     Edge 37, Type (0, 0), BuildingBlock: UVAHIK_clean_linker_0, # of connection points: 2
#     Edge 38, Type (0, 0), BuildingBlock: UVAHIK_clean_linker_0, # of connection points: 2
#     Edge 39, Type (0, 0), BuildingBlock: UVAHIK_clean_linker_0, # of connection points: 2
#     Edge 40, Type (0, 0), BuildingBlock: UVAHIK_clean_linker_0, # of connection points: 2
#     Edge 41, Type (0, 0), BuildingBlock: UVAHIK_clean_linker_0, # of connection points: 2
#     Edge 42, Type (0, 0), BuildingBlock: UVAHIK_clean_linker_0, # of connection points: 2
#     Edge 43, Type (0, 0), BuildingBlock: UVAHIK_clean_linker_0, # of connection points: 2
#     Edge 44, Type (0, 0), BuildingBlock: UVAHIK_clean_linker_0, # of connection points: 2
#     Edge 45, Type (0, 0), BuildingBlock: UVAHIK_clean_linker_0, # of connection points: 2
#     Edge 46, Type (0, 0), BuildingBlock: UVAHIK_clean_linker_0, # of connection points: 2
#     Edge 47, Type (0, 0), BuildingBlock: UVAHIK_clean_linker_0, # of connection points: 2
#     Edge 48, Type (0, 0), BuildingBlock: UVAHIK_clean_linker_0, # of connection points: 2
#     Edge 49, Type (0, 0), BuildingBlock: UVAHIK_clean_linker_0, # of connection points: 2
#     Edge 50, Type (0, 0), BuildingBlock: UVAHIK_clean_linker_0, # of connection points: 2
#     Edge 51, Type (0, 0), BuildingBlock: UVAHIK_clean_linker_0, # of connection points: 2
#     Edge 52, Type (0, 0), BuildingBlock: UVAHIK_clean_linker_0, # of connection points: 2
#     Edge 53, Type (0, 0), BuildingBlock: UVAHIK_clean_linker_0, # of connection points: 2
#     Edge 54, Type (0, 0), BuildingBlock: UVAHIK_clean_linker_0, # of connection points: 2
#     Edge 55, Type (0, 0), BuildingBlock: UVAHIK_clean_linker_0, # of connection points: 2
#     Edge 56, Type (0, 0), BuildingBlock: UVAHIK_clean_linker_0, # of connection points: 2
#     Edge 57, Type (0, 0), BuildingBlock: UVAHIK_clean_linker_0, # of connection points: 2
#     Edge 58, Type (0, 0), BuildingBlock: UVAHIK_clean_linker_0, # of connection points: 2
#     Edge 59, Type (0, 0), BuildingBlock: UVAHIK_clean_linker_0, # of connection points: 2
#     Edge 60, Type (0, 0), BuildingBlock: UVAHIK_clean_linker_0, # of connection points: 2
#     Edge 61, Type (0, 0), BuildingBlock: UVAHIK_clean_linker_0, # of connection points: 2
#     Edge 62, Type (0, 0), BuildingBlock: UVAHIK_clean_linker_0, # of connection points: 2
#     Edge 63, Type (0, 0), BuildingBlock: UVAHIK_clean_linker_0, # of connection points: 2
#     Edge 64, Type (0, 0), BuildingBlock: UVAHIK_clean_linker_0, # of connection points: 2
#     Edge 65, Type (0, 0), BuildingBlock: UVAHIK_clean_linker_0, # of connection points: 2
#     Edge 66, Type (0, 0), BuildingBlock: UVAHIK_clean_linker_0, # of connection points: 2
#     Edge 67, Type (0, 0), BuildingBlock: UVAHIK_clean_linker_0, # of connection points: 2
#     Edge 68, Type (0, 0), BuildingBlock: UVAHIK_clean_linker_0, # of connection points: 2
#     Edge 69, Type (0, 0), BuildingBlock: UVAHIK_clean_linker_0, # of connection points: 2
#     Edge 70, Type (0, 0), BuildingBlock: UVAHIK_clean_linker_0, # of connection points: 2
#     Edge 71, Type (0, 0), BuildingBlock: UVAHIK_clean_linker_0, # of connection points: 2
# Relax obj value: 0.077
# Max RMSD: 0.169
# Mean RMSD: 0.169
data_MOF--net-swl--node1-HICVOG_clean_sbu_0--edge1-UVAHIK_clean_linker_0
_symmetry_space_group_name_H-M    P1
_symmetry_Int_Tables_number       1
_symmetry_cell_setting            triclinic
loop_
_symmetry_equiv_pos_as_xyz
'x, y, z'
_cell_length_a     22.536962
_cell_length_b     96.872616
_cell_length_c     68.386315
_cell_angle_alpha  90.130163
_cell_angle_beta   90.001567
_cell_angle_gamma 90.054219
loop_
_atom_site_label
_atom_site_type_symbol
_atom_site_fract_x
_atom_site_fract_y
_atom_site_fract_z
_atom_type_partial_charge
Zn0 Zn 0.06752 0.11322 0.50587 0.0
C1 C 0.15593 0.13715 0.46759 0.0
N2 N 0.11397 0.13261 0.45521 0.0
C3 C 0.0787 0.12516 0.46694 0.0
N4 N 0.09811 0.12505 0.48558 0.0
N5 N 0.14733 0.13254 0.486 0.0
C6 C 0.30656 0.12879 0.50787 0.0
O7 O 0.27665 0.11771 0.5129 0.0
O8 O 0.97756 0.11132 0.50285 0.0
Zn9 Zn 0.18837 0.13931 0.50903 0.0
N10 N 0.10796 0.09575 0.50259 0.0
C11 C 0.19837 0.08457 0.49408 0.0
C12 C 0.16444 0.0965 0.49566 0.0
C13 C 0.08375 0.08345 0.50797 0.0
N14 N 0.17461 0.07233 0.49958 0.0
C15 C 0.11809 0.07134 0.50647 0.0
O16 O 0.17242 0.12949 0.53479 0.0
C17 C 0.12829 0.12387 0.54331 0.0
O18 O 0.08377 0.11927 0.53382 0.0
H19 H 0.18346 0.10632 0.49169 0.0
H20 H 0.03919 0.08322 0.51384 0.0
C21 C 0.18283 0.16966 0.51338 0.0
C22 C 0.14981 0.18183 0.51673 0.0
C23 C 0.062 0.16834 0.51948 0.0
C24 C 0.09473 0.15643 0.51627 0.0
N25 N 0.15413 0.15728 0.51324 0.0
N26 N 0.09019 0.18068 0.51965 0.0
H27 H 0.23035 0.16988 0.51127 0.0
C28 C 0.94734 0.12241 0.50372 0.0
O29 O 0.97555 0.13415 0.50618 0.0
O30 O 0.27816 0.13998 0.50505 0.0
H31 H 0.07319 0.14647 0.51622 0.0
H32 H 0.24347 0.08504 0.4887 0.0
H33 H 0.01461 0.1678 0.52188 0.0
Zn34 Zn 0.068 0.13913 0.79154 0.0
C35 C 0.15641 0.11679 0.83186 0.0
N36 N 0.11629 0.12241 0.84396 0.0
C37 C 0.08132 0.12941 0.83161 0.0
N38 N 0.09894 0.12815 0.81283 0.0
N39 N 0.1471 0.12029 0.81302 0.0
C40 C 0.30491 0.12252 0.79 0.0
O41 O 0.27471 0.13334 0.78415 0.0
O42 O 0.97746 0.14063 0.79377 0.0
Zn43 Zn 0.18605 0.1111 0.79134 0.0
N44 N 0.10692 0.15686 0.7943 0.0
C45 C 0.19724 0.16811 0.80271 0.0
C46 C 0.16425 0.15611 0.80037 0.0
C47 C 0.08108 0.16924 0.79026 0.0
N48 N 0.17181 0.18043 0.79867 0.0
C49 C 0.11461 0.18148 0.79239 0.0
O50 O 0.1643 0.11787 0.76421 0.0
C51 C 0.12592 0.12507 0.75512 0.0
O52 O 0.08751 0.13234 0.76413 0.0
H53 H 0.18435 0.14623 0.80333 0.0
H54 H 0.03522 0.16944 0.78564 0.0
C55 C 0.18826 0.08077 0.79128 0.0
C56 C 0.15997 0.06788 0.79347 0.0
C57 C 0.06807 0.07932 0.79848 0.0
C58 C 0.096 0.09199 0.79614 0.0
N59 N 0.15541 0.09251 0.7928 0.0
N60 N 0.10058 0.06761 0.79712 0.0
H61 H 0.23554 0.0815 0.78872 0.0
C62 C 0.94747 0.12954 0.79178 0.0
O63 O 0.9761 0.11795 0.78858 0.0
O64 O 0.27669 0.11149 0.79411 0.0
H65 H 0.07061 0.10141 0.79718 0.0
H66 H 0.24286 0.16765 0.80759 0.0
H67 H 0.02091 0.07877 0.80133 0.0
Zn68 Zn 0.94201 0.89001 0.53619 0.0
C69 C 0.83235 0.87586 0.57828 0.0
N70 N 0.86759 0.88339 0.58996 0.0
C71 C 0.90944 0.88791 0.57755 0.0
N72 N 0.90085 0.88319 0.55916 0.0
N73 N 0.85173 0.87566 0.55962 0.0
C74 C 0.70137 0.87275 0.54104 0.0
O75 O 0.72973 0.88444 0.5384 0.0
O76 O 0.03193 0.8905 0.53997 0.0
Zn77 Zn 0.8218 0.86332 0.53971 0.0
N78 N 0.90832 0.90808 0.53241 0.0
C79 C 0.81603 0.91927 0.5271 0.0
C80 C 0.84872 0.90731 0.52979 0.0
C81 C 0.9373 0.92043 0.53227 0.0
N82 N 0.84446 0.93158 0.52697 0.0
C83 C 0.90431 0.93267 0.52942 0.0
O84 O 0.84046 0.86838 0.51155 0.0
C85 C 0.88339 0.87364 0.50198 0.0
O86 O 0.92496 0.88032 0.51038 0.0
H87 H 0.82701 0.89738 0.52979 0.0
H88 H 0.98494 0.92057 0.53404 0.0
C89 C 0.83771 0.83357 0.53842 0.0
C90 C 0.87124 0.82142 0.54074 0.0
C91 C 0.94921 0.83458 0.55484 0.0
C92 C 0.91614 0.84656 0.5524 0.0
N93 N 0.86116 0.84586 0.54425 0.0
N94 N 0.92622 0.82235 0.54889 0.0
H95 H 0.7945 0.83339 0.53153 0.0
C96 C 0.06003 0.87922 0.53749 0.0
O97 O 0.02974 0.86807 0.53298 0.0
O98 O 0.7315 0.86166 0.54228 0.0
H99 H 0.93481 0.85638 0.55666 0.0
H100 H 0.76847 0.91881 0.52506 0.0
H101 H 0.99312 0.83501 0.56121 0.0
Zn102 Zn 0.83306 0.88825 0.25588 0.0
C103 C 0.93951 0.87281 0.21373 0.0
N104 N 0.90409 0.88022 0.20201 0.0
C105 C 0.86348 0.88517 0.21454 0.0
N106 N 0.87288 0.88081 0.23303 0.0
N107 N 0.92148 0.87311 0.23254 0.0
C108 C 0.07214 0.87051 0.2544 0.0
O109 O 0.04315 0.88152 0.26024 0.0
O110 O 0.74293 0.8889 0.25246 0.0
Zn111 Zn 0.95201 0.86093 0.25253 0.0
N112 N 0.86746 0.90636 0.25901 0.0
C113 C 0.96006 0.91802 0.26155 0.0
C114 C 0.92768 0.90599 0.25863 0.0
C115 C 0.83773 0.9184 0.26215 0.0
N116 N 0.93081 0.93 0.26485 0.0
C117 C 0.87045 0.93063 0.26524 0.0
O118 O 0.93195 0.86591 0.28072 0.0
C119 C 0.89036 0.87179 0.29023 0.0
O120 O 0.85061 0.87896 0.28177 0.0
H121 H 0.95021 0.89632 0.25627 0.0
H122 H 0.78975 0.91833 0.26272 0.0
C123 C 0.93855 0.83103 0.25295 0.0
C124 C 0.9063 0.81874 0.24985 0.0
C125 C 0.82779 0.83178 0.23596 0.0
C126 C 0.85955 0.84387 0.23918 0.0
N127 N 0.91424 0.8433 0.24755 0.0
N128 N 0.85169 0.81955 0.24141 0.0
H129 H 0.98145 0.83095 0.26004 0.0
C130 C 0.71407 0.87764 0.25414 0.0
O131 O 0.74366 0.86621 0.25754 0.0
O132 O 0.04258 0.8597 0.25012 0.0
H133 H 0.84016 0.85367 0.23527 0.0
H134 H 1.00805 0.91784 0.26135 0.0
H135 H 0.78419 0.83209 0.22936 0.0
Zn136 Zn 0.1943 0.63944 1.00937 0.0
C137 C 0.08407 0.62593 0.96698 0.0
N138 N 0.11872 0.63364 0.95541 0.0
C139 C 0.16092 0.63804 0.96782 0.0
N140 N 0.15288 0.6331 0.98612 0.0
N141 N 0.10395 0.62552 0.98553 0.0
C142 C 0.95406 0.62337 1.00386 0.0
O143 O 0.98384 0.63492 1.0062 0.0
O144 O 0.28382 0.64036 1.00531 0.0
Zn145 Zn 0.07324 0.61289 1.00484 0.0
N146 N 0.16018 0.65729 1.01486 0.0
C147 C 0.06964 0.66798 0.02424 0.0
C148 C 0.10165 0.65625 1.01931 0.0
C149 C 0.18862 0.66971 1.01513 0.0
N150 N 0.09768 0.68035 0.02467 0.0
C151 C 0.15637 0.68167 1.02028 0.0
O152 O 0.09418 0.61715 0.03307 0.0
C153 C 0.13724 0.62221 0.04282 0.0
O154 O 0.17883 0.62902 0.03468 0.0
H155 H 0.08036 0.64626 1.01921 0.0
H156 H 0.23555 0.67015 1.01187 0.0
C157 C 0.08073 0.58296 1.00242 0.0
C158 C 0.10942 0.57049 0.99753 0.0
C159 C 0.19095 0.5833 0.98505 0.0
C160 C 0.16283 0.59555 0.99016 0.0
N161 N 0.10821 0.59518 0.99858 0.0
N162 N 0.16376 0.57112 0.98885 0.0
H163 H 0.03711 0.58305 1.00901 0.0
C164 C 0.31286 0.62914 1.00687 0.0
O165 O 0.28362 0.6177 1.01058 0.0
O166 O 0.98279 0.61209 1.00269 0.0
H167 H 0.18448 0.60531 0.9874 0.0
H168 H 0.023 0.66728 0.02785 0.0
H169 H 0.23425 0.58345 0.97823 0.0
Zn170 Zn 0.07053 0.63876 0.2905 0.0
C171 C 0.16119 0.61753 0.33149 0.0
N172 N 0.12186 0.62353 0.34353 0.0
C173 C 0.08613 0.63017 0.33101 0.0
N174 N 0.10249 0.62833 0.3122 0.0
N175 N 0.15068 0.62048 0.31253 0.0
C176 C 0.30748 0.62179 0.2896 0.0
O177 O 0.27735 0.6326 0.28366 0.0
O178 O 0.97993 0.6401 0.29278 0.0
Zn179 Zn 0.18845 0.61074 0.29115 0.0
N180 N 0.10853 0.65662 0.29265 0.0
C181 C 0.19878 0.66821 0.30019 0.0
C182 C 0.16616 0.6561 0.29846 0.0
C183 C 0.08194 0.66886 0.28836 0.0
N184 N 0.1726 0.6804 0.2959 0.0
C185 C 0.11498 0.6812 0.29 0.0
O186 O 0.16759 0.61726 0.26385 0.0
C187 C 0.12922 0.62429 0.25452 0.0
O188 O 0.09038 0.6316 0.26327 0.0
H189 H 0.18686 0.64632 0.30161 0.0
H190 H 0.03643 0.66887 0.28335 0.0
C191 C 0.18716 0.5804 0.29129 0.0
C192 C 0.15739 0.56768 0.29349 0.0
C193 C 0.06724 0.57972 0.29918 0.0
C194 C 0.0966 0.59221 0.2968 0.0
N195 N 0.15584 0.59235 0.29308 0.0
N196 N 0.09819 0.5678 0.29747 0.0
H197 H 0.23435 0.58086 0.28847 0.0
C198 C 0.95004 0.629 0.29083 0.0
O199 O 0.97873 0.61742 0.28758 0.0
O200 O 0.27913 0.61081 0.2939 0.0
H201 H 0.07239 0.60178 0.29802 0.0
H202 H 0.2447 0.66793 0.30479 0.0
H203 H 0.02019 0.57947 0.30228 0.0
Zn204 Zn 0.82629 0.36442 0.03399 0.0
C205 C 0.93637 0.37767 0.07655 0.0
N206 N 0.90177 0.36984 0.08798 0.0
C207 C 0.8597 0.36552 0.07548 0.0
N208 N 0.8677 0.37062 0.05727 0.0
N209 N 0.91657 0.37822 0.05798 0.0
C210 C 0.06703 0.38071 0.03933 0.0
O211 O 0.03802 0.36912 0.03644 0.0
O212 O 0.73666 0.36352 0.038 0.0
Zn213 Zn 0.94715 0.39098 0.03882 0.0
N214 N 0.86071 0.34664 0.02836 0.0
C215 C 0.95159 0.33608 1.01905 0.0
C216 C 0.9192 0.34777 0.02388 0.0
C217 C 0.83271 0.33418 0.02822 0.0
N218 N 0.924 0.32366 1.01878 0.0
C219 C 0.86537 0.32225 0.02321 0.0
O220 O 0.92619 0.38695 1.01049 0.0
C221 C 0.88301 0.38193 1.00075 0.0
O222 O 0.84172 0.37501 1.00886 0.0
H223 H 0.94018 0.3578 0.02393 0.0
H224 H 0.78583 0.33367 0.03154 0.0
C225 C 0.93896 0.42089 0.04122 0.0
C226 C 0.91022 0.43334 0.04619 0.0
C227 C 0.82974 0.42045 0.05926 0.0
C228 C 0.8579 0.40822 0.05407 0.0
N229 N 0.91203 0.40864 0.04531 0.0
N230 N 0.85639 0.43266 0.0552 0.0
H231 H 0.9822 0.42083 0.03437 0.0
C232 C 0.70833 0.37486 0.03678 0.0
O233 O 0.73837 0.38626 0.0335 0.0
O234 O 0.03758 0.39187 0.041 0.0
H235 H 0.83663 0.39845 0.05702 0.0
H236 H 0.9982 0.33685 1.01544 0.0
H237 H 0.78683 0.42027 0.06634 0.0
Zn238 Zn 0.82726 0.39001 0.75138 0.0
C239 C 0.91443 0.36529 0.71356 0.0
N240 N 0.87287 0.37004 0.70122 0.0
C241 C 0.83839 0.37763 0.71304 0.0
N242 N 0.85775 0.37762 0.73167 0.0
N243 N 0.90635 0.36992 0.73203 0.0
C244 C 0.06468 0.37373 0.75366 0.0
O245 O 0.03423 0.38496 0.75761 0.0
O246 O 0.73664 0.39114 0.74923 0.0
Zn247 Zn 0.94655 0.36253 0.75482 0.0
N248 N 0.86373 0.40766 0.74582 0.0
C249 C 0.94779 0.41943 0.733 0.0
C250 C 0.91837 0.40722 0.73741 0.0
C251 C 0.83746 0.41992 0.75029 0.0
N252 N 0.92183 0.43165 0.73746 0.0
C253 C 0.86749 0.43235 0.74613 0.0
O254 O 0.927 0.37152 0.78098 0.0
C255 C 0.88797 0.37908 0.78919 0.0
O256 O 0.84813 0.38533 0.77941 0.0
H257 H 0.93912 0.39743 0.73417 0.0
H258 H 0.79378 0.41987 0.75683 0.0
C259 C 0.94436 0.33203 0.75603 0.0
C260 C 0.91235 0.31952 0.75666 0.0
C261 C 0.82237 0.33214 0.7592 0.0
C262 C 0.85407 0.34443 0.7587 0.0
N263 N 0.91407 0.34418 0.75696 0.0
N264 N 0.85212 0.32002 0.75813 0.0
H265 H 0.99213 0.33214 0.75445 0.0
C266 C 0.70666 0.38008 0.75135 0.0
O267 O 0.73519 0.36852 0.7547 0.0
O268 O 0.0367 0.36239 0.75149 0.0
H269 H 0.83119 0.3542 0.75947 0.0
H270 H 0.99114 0.41922 0.72622 0.0
H271 H 0.77451 0.3322 0.7604 0.0
Zn272 Zn 0.68756 0.13988 1.00887 0.0
C273 C 0.57725 0.12538 0.96717 0.0
N274 N 0.6116 0.13297 0.95533 0.0
C275 C 0.65367 0.13764 0.96758 0.0
N276 N 0.64592 0.13298 0.98602 0.0
N277 N 0.5972 0.1253 0.98573 0.0
C278 C 0.44679 0.12297 1.00457 0.0
O279 O 0.47551 0.13465 1.00695 0.0
O280 O 0.77733 0.14044 1.00496 0.0
Zn281 Zn 0.56705 0.11292 1.0055 0.0
N282 N 0.6538 0.15789 1.0133 0.0
C283 C 0.56221 0.16889 1.02066 0.0
C284 C 0.59445 0.15705 1.01646 0.0
C285 C 0.68288 0.17021 1.01419 0.0
N286 N 0.59084 0.18115 1.02171 0.0
C287 C 0.65038 0.18227 1.01863 0.0
O288 O 0.58818 0.11765 0.03363 0.0
C289 C 0.63064 0.12325 0.04308 0.0
O290 O 0.67103 0.13022 0.03458 0.0
H291 H 0.5727 0.14712 1.01597 0.0
H292 H 0.73041 0.1705 1.01201 0.0
C293 C 0.57553 0.08296 1.00351 0.0
C294 C 0.60474 0.07052 0.99879 0.0
C295 C 0.68636 0.08342 0.98657 0.0
C296 C 0.65769 0.09564 0.99149 0.0
N297 N 0.60279 0.09521 0.9997 0.0
N298 N 0.65936 0.07121 0.99032 0.0
H299 H 0.53166 0.08299 1.00992 0.0
C300 C 0.80546 0.12914 1.00707 0.0
O301 O 0.77521 0.11791 1.01122 0.0
O302 O 0.47653 0.11182 1.00341 0.0
H303 H 0.67911 0.10542 0.98872 0.0
H304 H 0.51491 0.16834 0.02324 0.0
H305 H 0.72989 0.08362 0.97991 0.0
Zn306 Zn 0.68891 0.11177 0.28858 0.0
C307 C 0.57754 0.12529 0.33054 0.0
N308 N 0.61224 0.11767 0.34222 0.0
C309 C 0.65473 0.1133 0.32992 0.0
N310 N 0.64694 0.11819 0.3116 0.0
N311 N 0.59779 0.12568 0.31201 0.0
C312 C 0.44825 0.1286 0.29358 0.0
O313 O 0.4767 0.1169 0.29108 0.0
O314 O 0.77863 0.11103 0.29266 0.0
Zn315 Zn 0.56851 0.13814 0.29225 0.0
N316 N 0.65444 0.09392 0.28346 0.0
C317 C 0.56272 0.0832 0.27544 0.0
C318 C 0.59544 0.09496 0.27975 0.0
C319 C 0.68271 0.08151 0.28298 0.0
N320 N 0.59052 0.07083 0.27487 0.0
C321 C 0.6497 0.06952 0.27849 0.0
O322 O 0.58728 0.13303 0.26406 0.0
C323 C 0.63125 0.12812 0.25461 0.0
O324 O 0.67375 0.12189 0.26312 0.0
H325 H 0.57426 0.10494 0.28003 0.0
H326 H 0.72998 0.08111 0.28563 0.0
C327 C 0.58279 0.16801 0.29301 0.0
C328 C 0.61489 0.18024 0.29686 0.0
C329 C 0.69398 0.16678 0.30961 0.0
C330 C 0.66249 0.15478 0.30553 0.0
N331 N 0.60749 0.15559 0.29745 0.0
N332 N 0.66961 0.17916 0.30518 0.0
H333 H 0.53878 0.16827 0.28673 0.0
C334 C 0.80702 0.12229 0.29039 0.0
O335 O 0.77705 0.13349 0.286 0.0
O336 O 0.47827 0.13972 0.29473 0.0
H337 H 0.68199 0.14487 0.30876 0.0
H338 H 0.51568 0.08389 0.27245 0.0
H339 H 0.73768 0.16628 0.31612 0.0
Zn340 Zn 0.45046 0.89077 0.04011 0.0
C341 C 0.36395 0.86465 0.07609 0.0
N342 N 0.4065 0.8687 0.08861 0.0
C343 C 0.44107 0.87668 0.07737 0.0
N344 N 0.42064 0.87762 0.0589 0.0
N345 N 0.3716 0.87008 0.05805 0.0
C346 C 0.21162 0.87477 0.03755 0.0
O347 O 0.24165 0.88618 0.03434 0.0
O348 O 0.54088 0.89165 0.04213 0.0
Zn349 Zn 0.32959 0.86423 0.03468 0.0
N350 N 0.41535 0.9083 0.04733 0.0
C351 C 0.3342 0.9199 0.06232 0.0
C352 C 0.36224 0.90774 0.05673 0.0
C353 C 0.4413 0.92062 0.04299 0.0
N354 N 0.35986 0.93217 0.058 0.0
C355 C 0.41261 0.933 0.04834 0.0
O356 O 0.34516 0.8751 1.00982 0.0
C357 C 0.38581 0.8823 1.00185 0.0
O358 O 0.42891 0.88729 1.01167 0.0
H359 H 0.34165 0.89792 0.05986 0.0
H360 H 0.48373 0.92066 0.0356 0.0
C361 C 0.33445 0.83404 0.02822 0.0
C362 C 0.36626 0.82209 0.02275 0.0
C363 C 0.45303 0.83573 1.01855 0.0
C364 C 0.42148 0.84745 0.02383 0.0
N365 N 0.36311 0.84643 0.02853 0.0
N366 N 0.42476 0.82339 1.01808 0.0
H367 H 0.2877 0.83362 0.03174 0.0
C368 C 0.57026 0.8805 0.04031 0.0
O369 O 0.54118 0.86893 0.03733 0.0
O370 O 0.23995 0.86343 0.03872 0.0
H371 H 0.44304 0.85742 0.02405 0.0
H372 H 0.2921 0.9196 0.06991 0.0
H373 H 0.49952 0.83641 1.01474 0.0
Zn374 Zn 0.32326 0.88961 0.75199 0.0
C375 C 0.41027 0.86366 0.71593 0.0
N376 N 0.3678 0.86767 0.70339 0.0
C377 C 0.33283 0.87555 0.71467 0.0
N378 N 0.353 0.87647 0.73318 0.0
N379 N 0.40224 0.86903 0.73402 0.0
C380 C 0.56162 0.87353 0.75515 0.0
O381 O 0.53161 0.88491 0.75859 0.0
O382 O 0.23281 0.89071 0.74975 0.0
Zn383 Zn 0.4434 0.86305 0.75745 0.0
N384 N 0.36008 0.90703 0.74526 0.0
C385 C 0.44253 0.91847 0.73082 0.0
C386 C 0.41294 0.90637 0.73571 0.0
C387 C 0.33587 0.91938 0.7504 0.0
N388 N 0.41867 0.93078 0.73599 0.0
C389 C 0.3662 0.9317 0.7458 0.0
O390 O 0.42723 0.87378 0.78252 0.0
C391 C 0.3863 0.88096 0.79039 0.0
O392 O 0.34372 0.88599 0.78042 0.0
H393 H 0.43228 0.89652 0.73197 0.0
H394 H 0.29361 0.91948 0.75788 0.0
C395 C 0.43633 0.83275 0.76268 0.0
C396 C 0.40296 0.82077 0.76699 0.0
C397 C 0.31717 0.83473 0.77141 0.0
C398 C 0.35023 0.84644 0.76724 0.0
N399 N 0.4088 0.84527 0.76293 0.0
N400 N 0.34419 0.82226 0.7712 0.0
H401 H 0.48326 0.83228 0.75949 0.0
C402 C 0.20317 0.87956 0.75137 0.0
O403 O 0.23201 0.86796 0.7542 0.0
O404 O 0.5332 0.8622 0.75365 0.0
H405 H 0.32959 0.85649 0.76744 0.0
H406 H 0.48446 0.9181 0.72314 0.0
H407 H 0.27043 0.83552 0.77484 0.0
Zn408 Zn 0.57431 0.61317 0.50464 0.0
C409 C 0.6608 0.63803 0.46698 0.0
N410 N 0.61867 0.63343 0.45469 0.0
C411 C 0.58435 0.62579 0.46646 0.0
N412 N 0.60437 0.62561 0.48501 0.0
N413 N 0.65318 0.63325 0.48538 0.0
C414 C 0.81209 0.62938 0.5069 0.0
O415 O 0.78167 0.61819 0.51107 0.0
O416 O 0.48378 0.61174 0.50225 0.0
Zn417 Zn 0.69404 0.64036 0.50828 0.0
N418 N 0.61231 0.59567 0.49918 0.0
C419 C 0.69849 0.58438 0.48704 0.0
C420 C 0.66767 0.59642 0.49135 0.0
C421 C 0.58657 0.58327 0.50313 0.0
N422 N 0.67309 0.57202 0.491 0.0
C423 C 0.61798 0.57101 0.49906 0.0
O424 O 0.67546 0.6311 0.53427 0.0
C425 C 0.63516 0.62393 0.5425 0.0
O426 O 0.59408 0.61805 0.53275 0.0
H427 H 0.68793 0.60632 0.4885 0.0
H428 H 0.54228 0.58307 0.5092 0.0
C429 C 0.69007 0.67084 0.5117 0.0
C430 C 0.65717 0.68317 0.51396 0.0
C431 C 0.56826 0.66994 0.5154 0.0
C432 C 0.60085 0.6579 0.51331 0.0
N433 N 0.66071 0.65854 0.5114 0.0
N434 N 0.59705 0.6822 0.51568 0.0
H435 H 0.73787 0.67087 0.51051 0.0
C436 C 0.45369 0.6228 0.5041 0.0
O437 O 0.4821 0.63442 0.50732 0.0
O438 O 0.78411 0.64069 0.50469 0.0
H439 H 0.57884 0.648 0.51321 0.0
H440 H 0.74246 0.58483 0.48073 0.0
H441 H 0.52048 0.66958 0.51686 0.0
Zn442 Zn 0.56938 0.63925 0.78968 0.0
C443 C 0.66441 0.61965 0.83125 0.0
N444 N 0.62641 0.62603 0.84333 0.0
C445 C 0.58933 0.63228 0.83082 0.0
N446 N 0.60355 0.62978 0.81194 0.0
N447 N 0.65173 0.62192 0.81226 0.0
C448 C 0.80706 0.62225 0.78874 0.0
O449 O 0.77725 0.63288 0.78203 0.0
O450 O 0.47902 0.64056 0.79231 0.0
Zn451 Zn 0.68775 0.61142 0.79127 0.0
N452 N 0.60725 0.65718 0.78965 0.0
C453 C 0.69983 0.66877 0.79304 0.0
C454 C 0.66622 0.65675 0.79377 0.0
C455 C 0.58009 0.66927 0.78489 0.0
N456 N 0.67317 0.68079 0.78812 0.0
C457 C 0.61412 0.68148 0.78403 0.0
O458 O 0.66619 0.61719 0.76367 0.0
C459 C 0.6267 0.62382 0.75425 0.0
O460 O 0.58779 0.63117 0.76288 0.0
H461 H 0.68718 0.64707 0.79733 0.0
H462 H 0.53332 0.66927 0.78131 0.0
C463 C 0.68682 0.58119 0.79189 0.0
C464 C 0.65858 0.5684 0.79513 0.0
C465 C 0.56998 0.58021 0.80368 0.0
C466 C 0.59776 0.59278 0.80025 0.0
N467 N 0.6556 0.59307 0.79461 0.0
N468 N 0.60089 0.56837 0.80106 0.0
H469 H 0.73288 0.58176 0.78751 0.0
C470 C 0.44937 0.62939 0.79084 0.0
O471 O 0.47828 0.61778 0.78802 0.0
O472 O 0.77843 0.61147 0.79376 0.0
H473 H 0.5734 0.60228 0.80215 0.0
H474 H 0.74686 0.66854 0.79619 0.0
H475 H 0.52411 0.57985 0.80832 0.0
Zn476 Zn 0.44271 0.39064 0.53737 0.0
C477 C 0.3416 0.37121 0.57754 0.0
N478 N 0.37797 0.37781 0.58996 0.0
C479 C 0.41679 0.38383 0.5778 0.0
N480 N 0.40532 0.38097 0.55886 0.0
N481 N 0.35706 0.37313 0.55866 0.0
C482 C 0.20373 0.37255 0.53745 0.0
O483 O 0.2324 0.3841 0.53399 0.0
O484 O 0.53327 0.39068 0.54022 0.0
Zn485 Zn 0.32405 0.36286 0.53691 0.0
N486 N 0.41006 0.40901 0.53931 0.0
C487 C 0.32144 0.4216 0.54549 0.0
C488 C 0.35074 0.40913 0.54287 0.0
C489 C 0.44154 0.42098 0.53791 0.0
N490 N 0.35256 0.43353 0.54421 0.0
C491 C 0.41187 0.43367 0.54039 0.0
O492 O 0.34308 0.37006 0.50972 0.0
C493 C 0.38273 0.37704 0.50085 0.0
O494 O 0.42217 0.38389 0.51005 0.0
H495 H 0.32649 0.39954 0.54385 0.0
H496 H 0.48882 0.42056 0.53523 0.0
C497 C 0.33542 0.33283 0.53373 0.0
C498 C 0.36923 0.3206 0.53392 0.0
C499 C 0.45411 0.33352 0.54337 0.0
C500 C 0.4207 0.34556 0.54306 0.0
N501 N 0.36224 0.34503 0.53822 0.0
N502 N 0.42778 0.32137 0.53873 0.0
H503 H 0.28911 0.33276 0.52955 0.0
C504 C 0.56168 0.37973 0.53584 0.0
O505 O 0.53168 0.36894 0.52965 0.0
O506 O 0.2336 0.36147 0.53947 0.0
H507 H 0.44148 0.35532 0.5464 0.0
H508 H 0.27432 0.42183 0.54849 0.0
H509 H 0.50075 0.33382 0.5471 0.0
Zn510 Zn 0.33567 0.38865 0.25265 0.0
C511 C 0.42972 0.3678 0.21203 0.0
N512 N 0.39117 0.37395 0.19992 0.0
C513 C 0.3546 0.38041 0.21239 0.0
N514 N 0.36953 0.37827 0.23122 0.0
N515 N 0.41778 0.37044 0.23104 0.0
C516 C 0.57284 0.37145 0.25366 0.0
O517 O 0.54281 0.38252 0.25869 0.0
O518 O 0.24503 0.38954 0.25021 0.0
Zn519 Zn 0.45369 0.36061 0.2527 0.0
N520 N 0.3718 0.40668 0.25034 0.0
C521 C 0.4608 0.41869 0.24256 0.0
C522 C 0.42991 0.4064 0.24504 0.0
C523 C 0.34315 0.41885 0.25354 0.0
N524 N 0.43251 0.43081 0.24571 0.0
C525 C 0.3745 0.43135 0.25124 0.0
O526 O 0.43253 0.3674 0.28007 0.0
C527 C 0.39374 0.37463 0.28901 0.0
O528 O 0.35563 0.38185 0.27985 0.0
H529 H 0.45211 0.39667 0.24268 0.0
H530 H 0.29674 0.41871 0.25756 0.0
C531 C 0.45044 0.33026 0.25275 0.0
C532 C 0.42016 0.31762 0.25028 0.0
C533 C 0.33122 0.32991 0.24374 0.0
C534 C 0.36108 0.34232 0.24636 0.0
N535 N 0.41999 0.3423 0.25062 0.0
N536 N 0.36134 0.31791 0.24574 0.0
H537 H 0.49739 0.33057 0.25601 0.0
C538 C 0.21537 0.37853 0.25319 0.0
O539 O 0.24425 0.36718 0.25759 0.0
O540 O 0.54434 0.36034 0.25015 0.0
H541 H 0.33753 0.35196 0.24487 0.0
H542 H 0.50697 0.4186 0.23824 0.0
H543 H 0.28444 0.32979 0.2402 0.0
C544 C 0.28608 0.30323 0.53441 0.0
C545 C 0.34397 0.30694 0.52889 0.0
C546 C 0.26546 0.28978 0.53124 0.0
C547 C 0.32155 0.25426 0.52347 0.0
H548 H 0.15746 0.24656 0.51041 0.0
C549 C 0.23061 0.19905 0.5081 0.0
C550 C 0.17674 0.19585 0.5175 0.0
C551 C 0.2526 0.21258 0.50833 0.0
C552 C 0.2034 0.24857 0.51413 0.0
H553 H 0.42467 0.29967 0.51503 0.0
H554 H 0.3883 0.2764 0.50906 0.0
H555 H 0.19148 0.27043 0.51231 0.0
H556 H 0.10474 0.20445 0.53482 0.0
H557 H 0.14287 0.22784 0.53502 0.0
H558 H 0.33324 0.23234 0.52525 0.0
C559 C 0.35929 0.28371 0.51629 0.0
C560 C 0.22284 0.26224 0.51528 0.0
C561 C 0.38002 0.29708 0.51961 0.0
C562 C 0.146 0.20648 0.52723 0.0
C563 C 0.16769 0.21994 0.52732 0.0
C564 C 0.30217 0.24058 0.52217 0.0
C565 C 0.30218 0.27981 0.52238 0.0
C566 C 0.282 0.26526 0.52019 0.0
C567 C 0.22089 0.22318 0.51775 0.0
C568 C 0.24272 0.23761 0.51775 0.0
H569 H 0.25758 0.31052 0.5419 0.0
H570 H 0.2215 0.28709 0.53636 0.0
H571 H 0.3672 0.2562 0.52759 0.0
H572 H 0.25514 0.19127 0.50012 0.0
H573 H 0.29364 0.21483 0.50073 0.0
C574 C 0.8988 0.95753 0.52009 0.0
C575 C 0.93138 0.9467 0.52862 0.0
C576 C 0.9209 0.97095 0.51986 0.0
C577 C 0.05669 0.99124 0.52131 0.0
H578 H 0.95028 0.02123 0.53494 0.0
C579 C 0.1348 0.04785 0.52021 0.0
C580 C 0.09542 0.05761 0.51235 0.0
C581 C 0.11569 0.03449 0.52445 0.0
C582 C 0.98042 0.013 0.53091 0.0
H583 H 0.01364 0.94181 0.54376 0.0
H584 H 0.05277 0.96531 0.5428 0.0
H585 H 0.91661 0.99741 0.53796 0.0
H586 H 1.00489 0.06098 0.50274 0.0
H587 H 0.97162 0.03758 0.50982 0.0
H588 H 0.11988 0.00678 0.51361 0.0
C589 C 0.00987 0.96321 0.5363 0.0
C590 C 0.9612 0.99936 0.53273 0.0
C591 C 0.98745 0.94971 0.53671 0.0
C592 C 0.03608 0.05379 0.50912 0.0
C593 C 0.01705 0.04035 0.51319 0.0
C594 C 0.0758 0.0049 0.51933 0.0
C595 C 0.97641 0.97397 0.52804 0.0
C596 C 0.99885 0.98835 0.5277 0.0
C597 C 0.05683 0.03048 0.5207 0.0
C598 C 0.03764 0.01596 0.52389 0.0
H599 H 0.85579 0.95569 0.51351 0.0
H600 H 0.89461 0.97898 0.51307 0.0
H601 H 0.0864 0.98296 0.51714 0.0
H602 H 0.18071 0.05053 0.52301 0.0
H603 H 0.14724 0.02726 0.53058 0.0
C604 C 0.17242 0.04323 0.80269 0.0
C605 C 0.19164 0.05456 0.79159 0.0
C606 C 0.1954 0.03008 0.79928 0.0
C607 C 0.31601 0.01079 0.77444 0.0
H608 H 0.1989 0.9814 0.77357 0.0
C609 C 0.36347 0.95726 0.74099 0.0
C610 C 0.34392 0.9456 0.75142 0.0
C611 C 0.34627 0.97052 0.74661 0.0
C612 C 0.23226 0.98945 0.77398 0.0
H613 H 0.25139 0.06108 0.76852 0.0
H614 H 0.29128 0.03804 0.7624 0.0
H615 H 0.16893 0.0047 0.78253 0.0
H616 H 0.29137 0.93896 0.77636 0.0
H617 H 0.26057 0.96208 0.78588 0.0
H618 H 0.37908 0.9955 0.76552 0.0
C619 C 0.25904 0.03937 0.77399 0.0
C620 C 0.21517 0.00282 0.77916 0.0
C621 C 0.23628 0.05259 0.77752 0.0
C622 C 0.30622 0.94757 0.76759 0.0
C623 C 0.28878 0.96087 0.77317 0.0
C624 C 0.33305 0.99741 0.76917 0.0
C625 C 0.23773 0.02791 0.78452 0.0
C626 C 0.2568 0.01366 0.77945 0.0
C627 C 0.309 0.97248 0.76282 0.0
C628 C 0.29129 0.98662 0.76883 0.0
H629 H 0.13848 0.04446 0.81377 0.0
H630 H 0.17907 0.02156 0.80799 0.0
H631 H 0.3493 0.01886 0.77474 0.0
H632 H 0.39229 0.95617 0.7284 0.0
H633 H 0.36184 0.97924 0.73816 0.0
C634 C 0.11796 0.20708 0.79648 0.0
C635 C 0.09084 0.19544 0.78794 0.0
C636 C 0.09997 0.22039 0.79154 0.0
C637 C 0.97609 0.24025 0.77138 0.0
H638 H 0.0969 0.26798 0.76175 0.0
C639 C 0.91192 0.29477 0.74695 0.0
C640 C 0.94121 0.30582 0.75614 0.0
C641 C 0.93325 0.28132 0.74871 0.0
C642 C 0.06263 0.2604 0.76456 0.0
H643 H 0.0231 0.18888 0.76727 0.0
H644 H 0.99098 0.21216 0.75899 0.0
H645 H 0.12622 0.24436 0.76943 0.0
H646 H 0.01694 0.3115 0.77397 0.0
H647 H 0.05397 0.28794 0.77732 0.0
H648 H 0.91246 0.25627 0.767 0.0
C649 C 0.02608 0.21087 0.76965 0.0
C650 C 0.07941 0.24687 0.76893 0.0
C651 C 0.04433 0.1975 0.77452 0.0
C652 C 0.99387 0.30323 0.76648 0.0
C653 C 0.01499 0.28971 0.76842 0.0
C654 C 0.9593 0.25378 0.76712 0.0
C655 C 0.05424 0.22245 0.77795 0.0
C656 C 0.03631 0.23667 0.77252 0.0
C657 C 0.98403 0.27856 0.75995 0.0
C658 C 1.00235 0.26405 0.76373 0.0
H659 H 0.15357 0.20595 0.80699 0.0
H660 H 0.12178 0.22909 0.79846 0.0
H661 H 0.94191 0.23266 0.77433 0.0
H662 H 0.87151 0.29648 0.73872 0.0
H663 H 0.90914 0.27305 0.74158 0.0
C664 C 0.78947 0.804 0.53621 0.0
C665 C 0.84945 0.80772 0.53434 0.0
C666 C 0.77088 0.7906 0.53161 0.0
C667 C 0.82955 0.75505 0.52657 0.0
H668 H 0.67404 0.74785 0.50457 0.0
C669 C 0.74201 0.69997 0.50779 0.0
C670 C 0.68456 0.69716 0.5149 0.0
C671 C 0.76492 0.71342 0.50842 0.0
C672 C 0.7176 0.74972 0.51073 0.0
H673 H 0.93651 0.80049 0.52555 0.0
H674 H 0.9039 0.77728 0.51707 0.0
H675 H 0.70806 0.77161 0.50831 0.0
H676 H 0.60694 0.70649 0.52847 0.0
H677 H 0.64662 0.72969 0.52926 0.0
H678 H 0.83875 0.7331 0.52899 0.0
C679 C 0.87141 0.78456 0.52254 0.0
C680 C 0.737 0.76333 0.51296 0.0
C681 C 0.89005 0.79789 0.52731 0.0
C682 C 0.65105 0.70816 0.52264 0.0
C683 C 0.67365 0.72153 0.52308 0.0
C684 C 0.81029 0.74143 0.52418 0.0
C685 C 0.81178 0.78067 0.52493 0.0
C686 C 0.7928 0.76618 0.52122 0.0
C687 C 0.73061 0.72433 0.5159 0.0
C688 C 0.7537 0.73865 0.51658 0.0
H689 H 0.75727 0.81125 0.54192 0.0
H690 H 0.72477 0.78791 0.53394 0.0
H691 H 0.87246 0.75685 0.53323 0.0
H692 H 0.76905 0.69194 0.50136 0.0
H693 H 0.80897 0.71535 0.5027 0.0
C694 C 0.87184 0.95381 0.28096 0.0
C695 C 0.84226 0.94417 0.26906 0.0
C696 C 0.84989 0.96716 0.28321 0.0
C697 C 0.71696 0.98896 0.27623 0.0
H698 H 0.83273 0.01861 0.27409 0.0
C699 C 0.64874 0.04547 0.2655 0.0
C700 C 0.67636 0.05554 0.27725 0.0
C701 C 0.66966 0.03196 0.26506 0.0
C702 C 0.79997 0.01044 0.27495 0.0
H703 H 0.76574 0.94095 0.25036 0.0
H704 H 0.7274 0.96437 0.25419 0.0
H705 H 0.86593 0.99469 0.2726 0.0
H706 H 0.74825 0.05914 0.29781 0.0
H707 H 0.7853 0.03547 0.29681 0.0
H708 H 0.65098 0.00476 0.27831 0.0
C709 C 0.76721 0.9615 0.26204 0.0
C710 C 0.81892 0.99673 0.27412 0.0
C711 C 0.78908 0.94806 0.25988 0.0
C712 C 0.72644 0.05177 0.2883 0.0
C713 C 0.74753 0.03818 0.28782 0.0
C714 C 0.69802 0.00267 0.277 0.0
C715 C 0.79802 0.97127 0.27347 0.0
C716 C 0.77762 0.98582 0.2747 0.0
C717 C 0.7188 0.0281 0.27637 0.0
C718 C 0.73931 0.01356 0.27626 0.0
H719 H 0.91261 0.95108 0.2884 0.0
H720 H 0.87397 0.97432 0.29247 0.0
H721 H 0.68412 0.98081 0.27701 0.0
H722 H 0.61047 0.04801 0.25662 0.0
H723 H 0.64732 0.0245 0.25579 0.0
C724 C 0.88809 0.79466 0.26114 0.0
C725 C 0.92875 0.80499 0.25578 0.0
C726 C 0.90743 0.78136 0.26558 0.0
C727 C 0.04023 0.76112 0.27904 0.0
H728 H 0.948 0.73035 0.25897 0.0
C729 C 0.1291 0.7056 0.27943 0.0
C730 C 0.09026 0.695 0.28525 0.0
C731 C 0.10817 0.7189 0.27602 0.0
C732 C 0.97383 0.73883 0.26486 0.0
H733 H 0.02198 0.80938 0.25081 0.0
H734 H 0.05581 0.7861 0.25849 0.0
H735 H 0.91487 0.75392 0.25298 0.0
H736 H 0.99839 0.69024 0.29213 0.0
H737 H 0.96177 0.71353 0.28594 0.0
H738 H 0.09951 0.74601 0.29074 0.0
C739 C 1.00891 0.78839 0.25961 0.0
C740 C 0.95488 0.75234 0.26146 0.0
C741 C 0.98953 0.80176 0.25524 0.0
C742 C 0.02952 0.69803 0.28729 0.0
C743 C 1.00851 0.7114 0.28384 0.0
C744 C 0.05926 0.74762 0.2824 0.0
C745 C 0.96796 0.77801 0.26463 0.0
C746 C 0.98794 0.76365 0.26847 0.0
C747 C 0.0478 0.72201 0.27837 0.0
C748 C 0.02642 0.73632 0.27527 0.0
H749 H 0.841 0.79684 0.26188 0.0
H750 H 0.87483 0.7737 0.26977 0.0
H751 H 0.0662 0.76958 0.28492 0.0
H752 H 0.17606 0.70363 0.27751 0.0
H753 H 0.13938 0.72678 0.27146 0.0
C754 C 0.22998 0.69968 1.00902 0.0
C755 C 0.18346 0.69561 1.02144 0.0
C756 C 0.25075 0.71332 1.00933 0.0
C757 C 0.25131 0.74526 0.03937 0.0
H758 H 0.27726 0.76352 0.98972 0.0
C759 C 0.29267 0.80409 0.03414 0.0
C760 C 0.33896 0.80816 1.02161 0.0
C761 C 0.27175 0.79047 0.03383 0.0
C762 C 0.27065 0.75854 1.00371 0.0
H763 H 0.12355 0.70259 0.04427 0.0
H764 H 0.15933 0.72622 0.04467 0.0
H765 H 0.24911 0.73921 0.99022 0.0
H766 H 0.39828 0.80118 0.99862 0.0
H767 H 0.36232 0.77757 0.99826 0.0
H768 H 0.27289 0.76458 0.05286 0.0
C769 C 0.18016 0.71892 0.03481 0.0
C770 C 0.25477 0.74459 1.004 0.0
C771 C 0.15933 0.70537 0.03445 0.0
C772 C 0.3627 0.7984 1.00852 0.0
C773 C 0.34174 0.78487 1.00818 0.0
C774 C 0.26721 0.7592 0.03908 0.0
C775 C 0.2256 0.72312 1.02211 0.0
C776 C 0.24488 0.73779 1.02183 0.0
C777 C 0.29653 0.78067 1.02097 0.0
C778 C 0.27713 0.76601 1.02125 0.0
H779 H 0.24906 0.69251 0.99862 0.0
H780 H 0.2862 0.71622 0.99947 0.0
H781 H 0.24466 0.74027 0.05336 0.0
H782 H 0.2739 0.81125 0.04461 0.0
H783 H 0.23647 0.78757 0.04376 0.0
C784 C 0.10013 0.54532 0.99014 0.0
C785 C 0.08346 0.5567 1.0017 0.0
C786 C 0.08062 0.53204 0.99471 0.0
C787 C 0.96806 0.5127 0.02282 0.0
H788 H 0.083 0.48299 1.01945 0.0
C789 C 0.91898 0.45856 0.05329 0.0
C790 C 0.93563 0.44715 0.04179 0.0
C791 C 0.93814 0.47184 0.04858 0.0
C792 C 0.05021 0.49114 1.02027 0.0
H793 H 0.03289 0.56291 0.02729 0.0
H794 H 0.99858 0.53972 0.03516 0.0
H795 H 0.11226 0.5064 1.01062 0.0
H796 H 0.98569 0.4409 1.01611 0.0
H797 H 0.01945 0.46408 1.00799 0.0
H798 H 0.90604 0.49744 0.03249 0.0
C799 C 0.02616 0.54115 0.02236 0.0
C800 C 0.06693 0.50456 1.0152 0.0
C801 C 0.04569 0.55448 1.01778 0.0
C802 C 0.97294 0.44934 0.02559 0.0
C803 C 0.99215 0.46267 1.02087 0.0
C804 C 0.95135 0.49928 0.0279 0.0
C805 C 0.04408 0.52976 1.01102 0.0
C806 C 0.02605 0.5155 1.01639 0.0
C807 C 0.97433 0.47409 0.03218 0.0
C808 C 0.99225 0.48834 0.02671 0.0
H809 H 0.12881 0.54665 0.97757 0.0
H810 H 0.09434 0.52354 0.98545 0.0
H811 H 0.93528 0.52085 0.02364 0.0
H812 H 0.89064 0.45725 0.06595 0.0
H813 H 0.92449 0.48037 0.0578 0.0
C814 C 0.16514 0.5427 0.30155 0.0
C815 C 0.18726 0.55415 0.29127 0.0
C816 C 0.18717 0.5295 0.29797 0.0
C817 C 0.3113 0.51018 0.27572 0.0
H818 H 0.19363 0.48109 0.27092 0.0
C819 C 0.37019 0.45667 0.24499 0.0
C820 C 0.34745 0.44508 0.25482 0.0
C821 C 0.34983 0.46991 0.24939 0.0
C822 C 0.22708 0.48906 0.27242 0.0
H823 H 0.25095 0.5607 0.26936 0.0
H824 H 0.28958 0.53758 0.26311 0.0
H825 H 0.16236 0.50444 0.27931 0.0
H826 H 0.28491 0.4384 0.27704 0.0
H827 H 0.24906 0.46154 0.28462 0.0
H828 H 0.37599 0.49479 0.26875 0.0
C829 C 0.25557 0.53889 0.27415 0.0
C830 C 0.20922 0.50244 0.27725 0.0
C831 C 0.23357 0.55216 0.27778 0.0
C832 C 0.30265 0.44703 0.26888 0.0
C833 C 0.28226 0.46032 0.2733 0.0
C834 C 0.32916 0.4968 0.27088 0.0
C835 C 0.23167 0.52738 0.28392 0.0
C836 C 0.25112 0.51315 0.27897 0.0
C837 C 0.30632 0.47191 0.2638 0.0
C838 C 0.28722 0.48609 0.26913 0.0
H839 H 0.12986 0.5439 0.31217 0.0
H840 H 0.16873 0.5209 0.30605 0.0
H841 H 0.34471 0.51816 0.27717 0.0
H842 H 0.40436 0.45555 0.23396 0.0
H843 H 0.36841 0.47859 0.24153 0.0
C844 C 0.79138 0.30426 0.03436 0.0
C845 C 0.83884 0.30823 0.02225 0.0
C846 C 0.77079 0.29061 0.03416 0.0
C847 C 0.81957 0.25529 1.02149 0.0
H848 H 0.65167 0.2467 0.02283 0.0
C849 C 0.72672 0.20009 1.00889 0.0
C850 C 0.67801 0.19611 1.02043 0.0
C851 C 0.74793 0.21368 1.00963 0.0
C852 C 0.69878 0.24892 0.02269 0.0
H853 H 0.9004 0.30106 1.00002 0.0
H854 H 0.86427 0.27746 0.99961 0.0
H855 H 0.68373 0.27075 0.02308 0.0
H856 H 0.61508 0.20312 0.04232 0.0
H857 H 0.65248 0.22661 0.04377 0.0
H858 H 0.83463 0.23347 1.02109 0.0
C859 C 0.8437 0.28477 1.00951 0.0
C860 C 0.71708 0.2627 0.02283 0.0
C861 C 0.8642 0.29834 1.0097 0.0
C862 C 0.65225 0.20588 0.03307 0.0
C863 C 0.67348 0.21938 0.03384 0.0
C864 C 0.80126 0.24151 1.02137 0.0
C865 C 0.79734 0.28068 1.02191 0.0
C866 C 0.77767 0.26605 0.02216 0.0
C867 C 0.72087 0.22353 1.0219 0.0
C868 C 0.74065 0.23816 1.02197 0.0
H869 H 0.77145 0.3115 0.04447 0.0
H870 H 0.73528 0.28773 0.04402 0.0
H871 H 0.86666 0.25753 1.02127 0.0
H872 H 0.747 0.19291 0.99876 0.0
H873 H 0.78424 0.21659 1.00011 0.0
C874 C 0.73054 0.55305 0.77707 0.0
C875 C 0.68844 0.55495 0.79201 0.0
C876 C 0.75236 0.53984 0.77285 0.0
C877 C 0.71026 0.5032 0.77799 0.0
H878 H 0.87381 0.49621 0.76356 0.0
C879 C 0.80392 0.44812 0.76686 0.0
C880 C 0.84288 0.44615 0.75102 0.0
C881 C 0.78502 0.46139 0.77201 0.0
C882 C 0.82783 0.49803 0.76738 0.0
H883 H 0.63847 0.5446 0.81479 0.0
H884 H 0.67712 0.52172 0.80766 0.0
H885 H 0.84351 0.51951 0.7728 0.0
H886 H 0.89143 0.45664 0.728 0.0
H887 H 0.85819 0.47968 0.73693 0.0
H888 H 0.69454 0.48174 0.77255 0.0
C889 C 0.69232 0.53033 0.79891 0.0
C890 C 0.81052 0.51138 0.77268 0.0
C891 C 0.67042 0.54347 0.80306 0.0
C892 C 0.86174 0.45776 0.74036 0.0
C893 C 0.84294 0.47099 0.74552 0.0
C894 C 0.72759 0.48987 0.77273 0.0
C895 C 0.73252 0.5283 0.78348 0.0
C896 C 0.75152 0.51412 0.77805 0.0
C897 C 0.80484 0.47298 0.76151 0.0
C898 C 0.78652 0.48713 0.76732 0.0
H899 H 0.74463 0.5616 0.76804 0.0
H900 H 0.78292 0.53861 0.76076 0.0
H901 H 0.66419 0.505 0.78169 0.0
H902 H 0.78948 0.43952 0.77574 0.0
H903 H 0.75619 0.46261 0.78457 0.0
C904 C 0.54142 0.05443 1.019 0.0
C905 C 0.57898 0.05671 1.0029 0.0
C906 C 0.52231 0.04106 0.02358 0.0
C907 C 0.56427 0.00454 1.01622 0.0
H908 H 0.40444 0.9971 0.03429 0.0
C909 C 0.47287 0.94915 0.02716 0.0
C910 C 0.43688 0.94688 0.04366 0.0
C911 C 0.49113 0.96252 0.02226 0.0
C912 C 0.44945 0.99903 0.02947 0.0
H913 H 0.62426 0.04677 0.97868 0.0
H914 H 0.59042 0.02359 0.98652 0.0
H915 H 0.4324 0.02057 0.02528 0.0
H916 H 0.39316 0.95691 0.06814 0.0
H917 H 0.42528 0.9801 0.05965 0.0
H918 H 0.58129 0.983 1.0204 0.0
C919 C 0.5766 0.03206 0.99582 0.0
C920 C 0.46544 0.01249 0.0243 0.0
C921 C 0.59575 0.04538 0.99127 0.0
C922 C 0.4205 0.95827 0.05526 0.0
C923 C 0.43867 0.97159 0.05035 0.0
C924 C 0.54826 0.99109 1.02137 0.0
C925 C 0.5404 0.02971 1.0122 0.0
C926 C 0.52305 0.0154 1.01762 0.0
C927 C 0.47362 0.9739 0.03368 0.0
C928 C 0.4907 0.98818 0.02809 0.0
H929 H 0.52855 0.06283 0.02855 0.0
H930 H 0.49499 0.03958 0.03644 0.0
H931 H 0.60934 0.00647 1.01146 0.0
H932 H 0.48534 0.94073 1.01759 0.0
H933 H 0.51748 0.96398 1.00918 0.0
C934 C 0.61387 0.20573 0.30235 0.0
C935 C 0.59209 0.19421 0.29203 0.0
C936 C 0.59674 0.21908 0.29724 0.0
C937 C 0.48154 0.23873 0.27132 0.0
H938 H 0.60181 0.2674 0.26958 0.0
C939 C 0.42798 0.29266 0.24194 0.0
C940 C 0.4491 0.30401 0.25273 0.0
C941 C 0.44876 0.27938 0.24569 0.0
C942 C 0.56764 0.25954 0.27017 0.0
H943 H 0.53523 0.18786 0.26795 0.0
H944 H 0.50479 0.21116 0.25925 0.0
H945 H 0.62964 0.24389 0.2785 0.0
H946 H 0.5098 0.31031 0.27571 0.0
H947 H 0.54609 0.28704 0.28232 0.0
H948 H 0.41941 0.25435 0.2632 0.0
C949 C 0.53469 0.20979 0.27149 0.0
C950 C 0.58354 0.24608 0.27528 0.0
C951 C 0.55195 0.19639 0.27658 0.0
C952 C 0.49326 0.30184 0.26691 0.0
C953 C 0.51393 0.28848 0.27074 0.0
C954 C 0.46562 0.25218 0.26626 0.0
C955 C 0.5574 0.22128 0.28165 0.0
C956 C 0.54063 0.23553 0.27595 0.0
C957 C 0.4909 0.27707 0.26044 0.0
C958 C 0.50846 0.26275 0.26561 0.0
H959 H 0.64456 0.20446 0.3144 0.0
H960 H 0.61423 0.22769 0.30556 0.0
H961 H 0.44732 0.23089 0.27198 0.0
H962 H 0.39436 0.29401 0.23078 0.0
H963 H 0.4311 0.27088 0.23718 0.0
C964 C 0.39854 0.79622 0.77782 0.0
C965 C 0.42861 0.80662 0.76742 0.0
C966 C 0.41893 0.78265 0.7777 0.0
C967 C 0.55063 0.76137 0.77053 0.0
H968 H 0.43599 0.73185 0.76352 0.0
C969 C 0.62371 0.70457 0.76842 0.0
C970 C 0.58859 0.69503 0.77869 0.0
C971 C 0.6033 0.71792 0.76492 0.0
C972 C 0.46849 0.73995 0.76569 0.0
H973 H 0.50442 0.81064 0.74858 0.0
H974 H 0.54073 0.78691 0.74883 0.0
H975 H 0.40368 0.75583 0.76163 0.0
H976 H 0.50406 0.69199 0.79319 0.0
H977 H 0.46857 0.71542 0.78736 0.0
H978 H 0.61518 0.74557 0.77516 0.0
C979 C 0.50122 0.78942 0.75711 0.0
C980 C 0.45001 0.75369 0.76454 0.0
C981 C 0.4805 0.80306 0.75709 0.0
C982 C 0.53179 0.69903 0.78496 0.0
C983 C 0.51151 0.71247 0.78161 0.0
C984 C 0.56907 0.74763 0.77182 0.0
C985 C 0.47017 0.77907 0.76725 0.0
C986 C 0.49077 0.76454 0.76715 0.0
C987 C 0.54748 0.72215 0.77183 0.0
C988 C 0.52813 0.73675 0.76957 0.0
H989 H 0.35882 0.79851 0.78612 0.0
H990 H 0.3947 0.77496 0.78596 0.0
H991 H 0.58286 0.76952 0.77283 0.0
H992 H 0.66749 0.70174 0.76324 0.0
H993 H 0.63163 0.72498 0.75696 0.0
C994 C 0.61546 0.5456 0.49286 0.0
C995 C 0.59405 0.55705 0.5034 0.0
C996 C 0.59726 0.53224 0.49755 0.0
C997 C 0.47975 0.51262 0.52237 0.0
H998 H 0.59818 0.48359 0.52406 0.0
C999 C 0.42088 0.45844 0.54969 0.0
C1000 C 0.44199 0.44721 0.53868 0.0
C1001 C 0.44286 0.4717 0.54656 0.0
C1002 C 0.56452 0.49155 0.52348 0.0
H1003 H 0.53667 0.56326 0.5274 0.0
H1004 H 0.50433 0.53995 0.53534 0.0
H1005 H 0.62789 0.50713 0.5159 0.0
H1006 H 0.50393 0.44107 0.51599 0.0
H1007 H 0.54224 0.46431 0.51043 0.0
H1008 H 0.41624 0.49708 0.52969 0.0
C1009 C 0.5348 0.54139 0.52327 0.0
C1010 C 0.5815 0.50503 0.51881 0.0
C1011 C 0.55316 0.55479 0.51862 0.0
C1012 C 0.48735 0.44946 0.52494 0.0
C1013 C 0.50919 0.4628 0.52172 0.0
C1014 C 0.46275 0.49915 0.52698 0.0
C1015 C 0.55716 0.52997 0.51291 0.0
C1016 C 0.53926 0.5157 0.51816 0.0
C1017 C 0.48617 0.47411 0.5322 0.0
C1018 C 0.50491 0.48845 0.5276 0.0
H1019 H 0.6467 0.54693 0.48098 0.0
H1020 H 0.61451 0.52368 0.48907 0.0
H1021 H 0.44605 0.52057 0.52171 0.0
H1022 H 0.38635 0.45701 0.56053 0.0
H1023 H 0.42516 0.48013 0.55521 0.0
C1024 C 0.07397 0.12238 0.57536 0.0
C1025 C 0.12784 0.12322 0.56503 0.0
C1026 C 0.0734 0.12245 0.59585 0.0
C1027 C 0.1621 0.11423 0.63899 0.0
H1028 H 0.06284 0.14071 0.66614 0.0
C1029 C 0.17718 0.12114 0.72295 0.0
C1030 C 0.12589 0.12489 0.73337 0.0
C1031 C 0.17732 0.12098 0.70246 0.0
C1032 C 0.09007 0.13305 0.65891 0.0
H1033 H 0.22344 0.12447 0.5682 0.0
H1034 H 0.2224 0.12417 0.60399 0.0
H1035 H 0.06217 0.13986 0.63052 0.0
H1036 H 0.03413 0.13119 0.73037 0.0
H1037 H 0.03334 0.13031 0.6948 0.0
H1038 H 0.18865 0.10701 0.66716 0.0
C1039 C 0.18064 0.12362 0.59618 0.0
C1040 C 0.08986 0.13264 0.63843 0.0
C1041 C 0.18118 0.12384 0.57569 0.0
C1042 C 0.07459 0.12837 0.7228 0.0
C1043 C 0.07435 0.12795 0.70231 0.0
C1044 C 0.16151 0.11444 0.65948 0.0
C1045 C 0.12673 0.12307 0.60648 0.0
C1046 C 0.12612 0.12329 0.62825 0.0
C1047 C 0.12579 0.12429 0.69177 0.0
C1048 C 0.12575 0.12392 0.66981 0.0
H1049 H 0.03208 0.12196 0.56761 0.0
H1050 H 0.03122 0.12194 0.60341 0.0
H1051 H 0.19006 0.10681 0.63152 0.0
H1052 H 0.21767 0.11852 0.73062 0.0
H1053 H 0.21831 0.11841 0.69507 0.0
C1054 C 0.94115 0.86806 0.32258 0.0
C1055 C 0.88911 0.87075 0.31193 0.0
C1056 C 0.94038 0.86787 0.34308 0.0
C1057 C 0.84656 0.87868 0.38589 0.0
H1058 H 0.95641 0.85566 0.41476 0.0
C1059 C 0.83141 0.86999 0.46981 0.0
C1060 C 0.88417 0.87237 0.4803 0.0
C1061 C 0.83179 0.86943 0.44933 0.0
C1062 C 0.92562 0.86218 0.40687 0.0
H1063 H 0.79496 0.87488 0.31452 0.0
H1064 H 0.7928 0.87387 0.35003 0.0
H1065 H 0.95647 0.85497 0.3791 0.0
H1066 H 0.97894 0.8757 0.47741 0.0
H1067 H 0.97972 0.87432 0.44167 0.0
H1068 H 0.81463 0.88549 0.41386 0.0
C1069 C 0.83496 0.87245 0.34273 0.0
C1070 C 0.92582 0.86188 0.38637 0.0
C1071 C 0.83601 0.87291 0.32227 0.0
C1072 C 0.93749 0.87389 0.4698 0.0
C1073 C 0.93803 0.87304 0.44934 0.0
C1074 C 0.84565 0.87877 0.40637 0.0
C1075 C 0.88727 0.8701 0.35353 0.0
C1076 C 0.88648 0.87019 0.37551 0.0
C1077 C 0.8851 0.87094 0.43887 0.0
C1078 C 0.88536 0.87058 0.41709 0.0
H1079 H 0.98294 0.86648 0.31508 0.0
H1080 H 0.98192 0.86627 0.35068 0.0
H1081 H 0.81647 0.8855 0.37827 0.0
H1082 H 0.78953 0.86884 0.47741 0.0
H1083 H 0.79038 0.86773 0.44165 0.0
C1084 C 0.1897 0.62246 0.07531 0.0
C1085 C 0.1369 0.62103 0.0645 0.0
C1086 C 0.18877 0.62213 0.09579 0.0
C1087 C 0.09493 0.6301 0.13756 0.0
H1088 H 0.19818 0.60594 0.16713 0.0
C1089 C 0.07825 0.62676 0.22198 0.0
C1090 C 0.12979 0.62387 0.23278 0.0
C1091 C 0.07865 0.62607 0.2015 0.0
C1092 C 0.16972 0.61297 0.15922 0.0
H1093 H 0.0417 0.61816 0.06683 0.0
H1094 H 0.04006 0.61798 0.10261 0.0
H1095 H 0.20086 0.60543 0.1315 0.0
H1096 H 0.22262 0.61831 0.23046 0.0
H1097 H 0.22433 0.61777 0.19492 0.0
H1098 H 0.06536 0.63814 0.16498 0.0
C1099 C 0.08216 0.61918 0.09517 0.0
C1100 C 0.17106 0.61257 0.13873 0.0
C1101 C 0.08322 0.6192 0.07468 0.0
C1102 C 0.18194 0.62046 0.2226 0.0
C1103 C 0.18271 0.62005 0.20213 0.0
C1104 C 0.09441 0.63072 0.15803 0.0
C1105 C 0.13488 0.62069 0.10594 0.0
C1106 C 0.1335 0.62108 0.12769 0.0
C1107 C 0.13097 0.62275 0.1912 0.0
C1108 C 0.13165 0.62213 0.16924 0.0
H1109 H 0.23178 0.62388 0.06792 0.0
H1110 H 0.23003 0.62337 0.10373 0.0
H1111 H 0.06596 0.6369 0.1294 0.0
H1112 H 0.03716 0.6293 0.22938 0.0
H1113 H 0.03746 0.62794 0.19383 0.0
C1114 C 0.82954 0.38203 0.9685 0.0
C1115 C 0.88268 0.3833 0.97911 0.0
C1116 C 0.82967 0.38248 0.94803 0.0
C1117 C 0.92632 0.39111 0.90482 0.0
H1118 H 0.80986 0.36909 0.87699 0.0
C1119 C 0.93965 0.37777 0.82177 0.0
C1120 C 0.88787 0.38034 0.81087 0.0
C1121 C 0.93916 0.37878 0.84222 0.0
C1122 C 0.84243 0.37535 0.88458 0.0
H1123 H 0.97777 0.38603 0.97644 0.0
H1124 H 0.97858 0.3862 0.94088 0.0
H1125 H 0.8091 0.3695 0.91259 0.0
H1126 H 0.79485 0.38587 0.81301 0.0
H1127 H 0.79375 0.38722 0.84875 0.0
H1128 H 0.96096 0.39639 0.87654 0.0
C1129 C 0.93625 0.38533 0.94825 0.0
C1130 C 0.84185 0.3757 0.90505 0.0
C1131 C 0.93592 0.38517 0.96874 0.0
C1132 C 0.83557 0.38388 0.82093 0.0
C1133 C 0.83481 0.38459 0.84139 0.0
C1134 C 0.92758 0.39053 0.88434 0.0
C1135 C 0.88315 0.38391 0.93752 0.0
C1136 C 0.88365 0.38363 0.91555 0.0
C1137 C 0.8866 0.38207 0.85226 0.0
C1138 C 0.88551 0.38268 0.874 0.0
H1139 H 0.78767 0.38069 0.97605 0.0
H1140 H 0.78756 0.38171 0.9405 0.0
H1141 H 0.95858 0.39758 0.91216 0.0
H1142 H 0.9807 0.37505 0.81448 0.0
H1143 H 0.97964 0.37671 0.85023 0.0
C1144 C 0.68373 0.12509 0.0753 0.0
C1145 C 0.63113 0.12255 0.0648 0.0
C1146 C 0.68356 0.12532 0.09578 0.0
C1147 C 0.58791 0.13244 0.13767 0.0
H1148 H 0.70455 0.11214 0.16768 0.0
C1149 C 0.57804 0.13001 0.22239 0.0
C1150 C 0.63137 0.12872 0.23288 0.0
C1151 C 0.57773 0.12936 0.20191 0.0
C1152 C 0.67224 0.11811 0.15961 0.0
H1153 H 0.5371 0.11822 0.06768 0.0
H1154 H 0.53671 0.11892 0.10347 0.0
H1155 H 0.70497 0.11059 0.13212 0.0
H1156 H 0.72653 0.12626 0.23 0.0
H1157 H 0.72654 0.12581 0.19443 0.0
H1158 H 0.55626 0.1404 0.16493 0.0
C1159 C 0.5781 0.12063 0.09578 0.0
C1160 C 0.67231 0.11711 0.13918 0.0
C1161 C 0.57845 0.12013 0.0753 0.0
C1162 C 0.68457 0.12718 0.22238 0.0
C1163 C 0.68443 0.12678 0.20191 0.0
C1164 C 0.58843 0.13365 0.1581 0.0
C1165 C 0.6306 0.12329 0.10625 0.0
C1166 C 0.63006 0.12423 0.12798 0.0
C1167 C 0.6309 0.12763 0.19132 0.0
C1168 C 0.63055 0.12648 0.16943 0.0
H1169 H 0.72508 0.12698 0.06769 0.0
H1170 H 0.72464 0.12746 0.10344 0.0
H1171 H 0.55525 0.13819 0.1294 0.0
H1172 H 0.53616 0.13107 0.23002 0.0
H1173 H 0.53541 0.12984 0.19447 0.0
C1174 C 0.33147 0.8826 0.96976 0.0
C1175 C 0.38471 0.88409 0.98026 0.0
C1176 C 0.3309 0.88344 0.94931 0.0
C1177 C 0.42466 0.89364 0.90611 0.0
H1178 H 0.31156 0.87088 0.87796 0.0
C1179 C 0.43917 0.88117 0.82281 0.0
C1180 C 0.38655 0.88283 0.81199 0.0
C1181 C 0.43879 0.8823 0.84325 0.0
C1182 C 0.34312 0.87737 0.88562 0.0
H1183 H 0.47924 0.88766 0.97741 0.0
H1184 H 0.47891 0.88854 0.94186 0.0
H1185 H 0.31159 0.87082 0.91354 0.0
H1186 H 0.29226 0.88701 0.81426 0.0
H1187 H 0.29149 0.88862 0.84997 0.0
H1188 H 0.4576 0.89965 0.8779 0.0
C1189 C 0.43698 0.88717 0.94932 0.0
C1190 C 0.34299 0.87743 0.9061 0.0
C1191 C 0.43732 0.8866 0.9698 0.0
C1192 C 0.33364 0.88574 0.82211 0.0
C1193 C 0.33307 0.88658 0.84257 0.0
C1194 C 0.42546 0.89337 0.8856 0.0
C1195 C 0.3838 0.88551 0.9387 0.0
C1196 C 0.38366 0.8856 0.91673 0.0
C1197 C 0.38559 0.88483 0.85337 0.0
C1198 C 0.38458 0.88526 0.87514 0.0
H1199 H 0.29003 0.88078 0.97736 0.0
H1200 H 0.28871 0.88246 0.94188 0.0
H1201 H 0.45598 0.90029 0.91357 0.0
H1202 H 0.48071 0.87895 0.81549 0.0
H1203 H 0.47988 0.88083 0.8512 0.0
C1204 C 0.5813 0.62044 0.57429 0.0
C1205 C 0.63461 0.62295 0.56419 0.0
C1206 C 0.58013 0.62022 0.59478 0.0
C1207 C 0.66982 0.61372 0.63809 0.0
H1208 H 0.56006 0.63782 0.66527 0.0
C1209 C 0.67933 0.6202 0.72226 0.0
C1210 C 0.62686 0.6232 0.73252 0.0
C1211 C 0.68005 0.61999 0.70178 0.0
C1212 C 0.59027 0.6308 0.65805 0.0
H1213 H 0.72876 0.62684 0.56774 0.0
H1214 H 0.72692 0.62598 0.60355 0.0
H1215 H 0.56098 0.63731 0.62966 0.0
H1216 H 0.53355 0.628 0.72926 0.0
H1217 H 0.53378 0.62695 0.6937 0.0
H1218 H 0.69781 0.60673 0.66622 0.0
C1219 C 0.68598 0.62438 0.59555 0.0
C1220 C 0.59098 0.6306 0.63756 0.0
C1221 C 0.68696 0.62492 0.57507 0.0
C1222 C 0.57487 0.62577 0.7218 0.0
C1223 C 0.57523 0.62527 0.70132 0.0
C1224 C 0.6683 0.61368 0.65857 0.0
C1225 C 0.63245 0.62217 0.60562 0.0
C1226 C 0.631 0.62214 0.62737 0.0
C1227 C 0.62796 0.62249 0.69092 0.0
C1228 C 0.62876 0.62229 0.66894 0.0
H1229 H 0.54014 0.61896 0.56638 0.0
H1230 H 0.53831 0.61843 0.60217 0.0
H1231 H 0.70076 0.60699 0.63059 0.0
H1232 H 0.72035 0.61831 0.73007 0.0
H1233 H 0.72194 0.61811 0.69452 0.0
C1234 C 0.34011 0.37762 0.32092 0.0
C1235 C 0.39279 0.37468 0.31075 0.0
C1236 C 0.33894 0.3777 0.3414 0.0
C1237 C 0.42819 0.36716 0.38546 0.0
H1238 H 0.31745 0.39124 0.41232 0.0
C1239 C 0.43685 0.37936 0.46888 0.0
C1240 C 0.38365 0.37698 0.47911 0.0
C1241 C 0.43812 0.37896 0.44839 0.0
C1242 C 0.34843 0.38443 0.40499 0.0
H1243 H 0.48589 0.36973 0.31416 0.0
H1244 H 0.4849 0.37056 0.34974 0.0
H1245 H 0.32057 0.3911 0.37671 0.0
H1246 H 0.28987 0.37256 0.47577 0.0
H1247 H 0.29184 0.37234 0.43993 0.0
H1248 H 0.45752 0.36102 0.41403 0.0
C1249 C 0.44362 0.3723 0.34206 0.0
C1250 C 0.35004 0.38423 0.38451 0.0
C1251 C 0.44442 0.37191 0.32156 0.0
C1252 C 0.33159 0.37439 0.46835 0.0
C1253 C 0.33262 0.37432 0.44785 0.0
C1254 C 0.42742 0.3676 0.40595 0.0
C1255 C 0.39078 0.37516 0.35237 0.0
C1256 C 0.38969 0.37552 0.37435 0.0
C1257 C 0.38598 0.3765 0.43767 0.0
C1258 C 0.3873 0.37617 0.41592 0.0
H1259 H 0.29936 0.37966 0.31304 0.0
H1260 H 0.29693 0.37961 0.34857 0.0
H1261 H 0.45853 0.36007 0.37841 0.0
H1262 H 0.47779 0.38132 0.47672 0.0
H1263 H 0.4798 0.38073 0.44091 0.0
C1264 C 0.54364 0.14587 0.34875 0.0
C1265 C 0.52938 0.1337 0.33863 0.0
C1266 C 0.5035 0.15156 0.36213 0.0
C1267 C 0.43618 0.1503 0.40114 0.0
H1268 H 0.2655 0.1522 0.39485 0.0
C1269 C 0.26342 0.13704 0.46018 0.0
C1270 C 0.20919 0.14412 0.46011 0.0
C1271 C 0.30818 0.14062 0.44694 0.0
C1272 C 0.31317 0.152 0.39684 0.0
H1273 H 0.46217 0.11811 0.33396 0.0
H1274 H 0.39066 0.12839 0.35655 0.0
H1275 H 0.3287 0.14969 0.36606 0.0
H1276 H 0.15987 0.16083 0.44696 0.0
H1277 H 0.23798 0.16712 0.42379 0.0
H1278 H 0.42035 0.15173 0.43203 0.0
C1279 C 0.43252 0.13362 0.35413 0.0
C1280 C 0.34924 0.15046 0.38035 0.0
C1281 C 0.47313 0.12779 0.34107 0.0
C1282 C 0.20194 0.15544 0.44758 0.0
C1283 C 0.24633 0.15893 0.43419 0.0
C1284 C 0.40002 0.15163 0.41768 0.0
C1285 C 0.44837 0.14519 0.36545 0.0
C1286 C 0.41098 0.14927 0.38236 0.0
C1287 C 0.29868 0.15111 0.43309 0.0
C1288 C 0.33804 0.15217 0.41572 0.0
H1289 H 0.58752 0.15036 0.34743 0.0
H1290 H 0.51675 0.1605 0.37064 0.0
H1291 H 0.48364 0.14925 0.40315 0.0
H1292 H 0.26879 0.12782 0.46889 0.0
H1293 H 0.34767 0.13426 0.44627 0.0
C1294 C 0.9741 0.12288 0.4565 0.0
C1295 C 0.03008 0.11684 0.4589 0.0
C1296 C 0.93313 0.11715 0.44344 0.0
C1297 C 0.84893 0.10042 0.41728 0.0
H1298 H 0.91943 0.09914 0.36551 0.0
C1299 C 0.70123 0.09517 0.35008 0.0
C1300 C 0.70816 0.1065 0.33752 0.0
C1301 C 0.74567 0.0918 0.3635 0.0
C1302 C 0.89927 0.09925 0.37989 0.0
H1303 H 0.08742 0.10009 0.44997 0.0
H1304 H 0.01606 0.09015 0.42678 0.0
H1305 H 0.9831 0.10159 0.39431 0.0
H1306 H 0.76712 0.12297 0.32884 0.0
H1307 H 0.8462 0.11669 0.35145 0.0
H1308 H 0.765 0.09869 0.40287 0.0
C1309 C 1.00326 0.09909 0.43533 0.0
C1310 C 0.93564 0.10056 0.39638 0.0
C1311 C 0.04373 0.10467 0.44871 0.0
C1312 C 0.7621 0.11372 0.33751 0.0
C1313 C 0.80694 0.11025 0.35077 0.0
C1314 C 0.81266 0.0989 0.40084 0.0
C1315 C 0.94838 0.10557 0.43208 0.0
C1316 C 0.91068 0.10158 0.41519 0.0
C1317 C 0.79779 0.09973 0.3646 0.0
C1318 C 0.83731 0.09871 0.38192 0.0
H1319 H 0.96366 0.13258 0.46362 0.0
H1320 H 0.8915 0.12247 0.44107 0.0
H1321 H 0.82858 0.10119 0.4316 0.0
H1322 H 0.65936 0.08968 0.35066 0.0
H1323 H 0.73757 0.08359 0.3739 0.0
C1324 C 0.26366 0.11489 0.83909 0.0
C1325 C 0.20697 0.10895 0.83952 0.0
C1326 C 0.30734 0.11052 0.85221 0.0
C1327 C 0.39576 0.09845 0.88145 0.0
H1328 H 0.32581 0.10145 0.93315 0.0
C1329 C 0.54216 0.10463 0.94951 0.0
C1330 C 0.5287 0.11694 0.95938 0.0
C1331 C 0.50115 0.0988 0.93654 0.0
C1332 C 0.34594 0.10037 0.91884 0.0
H1333 H 0.15197 0.09334 0.853 0.0
H1334 H 0.22832 0.0856 0.8759 0.0
H1335 H 0.2617 0.09946 0.90455 0.0
H1336 H 0.46215 0.13265 0.96405 0.0
H1337 H 0.38931 0.1222 0.94212 0.0
H1338 H 0.48 0.10015 0.89574 0.0
C1339 C 0.23932 0.09356 0.86541 0.0
C1340 C 0.30931 0.09912 0.90245 0.0
C1341 C 0.19587 0.09788 0.8522 0.0
C1342 C 0.4725 0.12287 0.95712 0.0
C1343 C 0.43109 0.11693 0.94445 0.0
C1344 C 0.43244 0.09955 0.89788 0.0
C1345 C 0.29445 0.10032 0.86623 0.0
C1346 C 0.33375 0.09864 0.88351 0.0
C1347 C 0.44602 0.10518 0.93336 0.0
C1348 C 0.4078 0.10102 0.91668 0.0
H1349 H 0.27226 0.12387 0.83012 0.0
H1350 H 0.34907 0.11607 0.85263 0.0
H1351 H 0.41582 0.09805 0.86706 0.0
H1352 H 0.58598 0.10011 0.95071 0.0
H1353 H 0.51372 0.08974 0.92821 0.0
C1354 C 0.97526 0.13218 0.83998 0.0
C1355 C 0.03227 0.13791 0.83894 0.0
C1356 C 0.93331 0.13757 0.85298 0.0
C1357 C 0.84797 0.15291 0.88028 0.0
H1358 H 0.91681 0.15314 0.93232 0.0
C1359 C 0.6982 0.15608 0.94743 0.0
C1360 C 0.70636 0.14475 0.95992 0.0
C1361 C 0.74226 0.15978 0.93404 0.0
C1362 C 0.89705 0.15329 0.91788 0.0
H1363 H 0.09006 0.15394 0.85002 0.0
H1364 H 0.01684 0.16341 0.87285 0.0
H1365 H 0.9814 0.15158 0.90369 0.0
H1366 H 0.767 0.1286 0.96845 0.0
H1367 H 0.84531 0.13543 0.94585 0.0
H1368 H 0.76349 0.15397 0.89448 0.0
C1369 C 1.00414 0.1549 0.86345 0.0
C1370 C 0.93398 0.1525 0.90147 0.0
C1371 C 0.04572 0.1496 0.85024 0.0
C1372 C 0.76098 0.13785 0.95982 0.0
C1373 C 0.80539 0.14163 0.94658 0.0
C1374 C 0.81109 0.15387 0.89668 0.0
C1375 C 0.94839 0.14856 0.86555 0.0
C1376 C 0.90973 0.1519 0.88251 0.0
C1377 C 0.79522 0.15218 0.93286 0.0
C1378 C 0.83513 0.15367 0.91568 0.0
H1379 H 0.96487 0.12278 0.83207 0.0
H1380 H 0.89102 0.13235 0.85442 0.0
H1381 H 0.82807 0.15248 0.86587 0.0
H1382 H 0.6558 0.16133 0.94692 0.0
H1383 H 0.73336 0.16802 0.92376 0.0
C1384 C 0.45846 0.84548 0.69619 0.0
C1385 C 0.46437 0.85697 0.70857 0.0
C1386 C 0.50305 0.84222 0.68273 0.0
C1387 C 0.65565 0.85034 0.66599 0.0
H1388 H 0.58421 0.85133 0.61435 0.0
C1389 C 0.72778 0.87317 0.58863 0.0
C1390 C 0.7844 0.86741 0.58644 0.0
C1391 C 0.68736 0.86748 0.60187 0.0
C1392 C 0.6048 0.85084 0.62865 0.0
H1393 H 0.52179 0.87385 0.71691 0.0
H1394 H 0.60121 0.86776 0.6943 0.0
H1395 H 0.5212 0.84885 0.6432 0.0
H1396 H 0.84331 0.85113 0.59589 0.0
H1397 H 0.77289 0.84123 0.61934 0.0
H1398 H 0.73908 0.85291 0.65143 0.0
C1399 C 0.56262 0.86112 0.69513 0.0
C1400 C 0.56885 0.84932 0.64517 0.0
C1401 C 0.51761 0.86447 0.70841 0.0
C1402 C 0.79917 0.8555 0.59699 0.0
C1403 C 0.75922 0.84994 0.61053 0.0
C1404 C 0.6917 0.85164 0.64943 0.0
C1405 C 0.55433 0.85042 0.68143 0.0
C1406 C 0.59372 0.84945 0.66406 0.0
C1407 C 0.70373 0.85619 0.6136 0.0
C1408 C 0.66647 0.85231 0.63063 0.0
H1409 H 0.41713 0.83976 0.69571 0.0
H1410 H 0.49563 0.83387 0.67244 0.0
H1411 H 0.67598 0.85048 0.68035 0.0
H1412 H 0.71642 0.88268 0.58123 0.0
H1413 H 0.64522 0.87262 0.60408 0.0
C1414 C 0.29989 0.89586 0.69576 0.0
C1415 C 0.28514 0.88386 0.70613 0.0
C1416 C 0.25984 0.90151 0.68236 0.0
C1417 C 0.10501 0.90069 0.6646 0.0
H1418 H 0.17496 0.90178 0.61274 0.0
C1419 C 0.01693 0.88751 0.58486 0.0
C1420 C 0.96307 0.89474 0.58504 0.0
C1421 C 0.06204 0.89096 0.59805 0.0
C1422 C 0.15496 0.90173 0.62715 0.0
H1423 H 0.21725 0.86851 0.71117 0.0
H1424 H 0.14596 0.87869 0.68846 0.0
H1425 H 0.23881 0.89915 0.64144 0.0
H1426 H 0.91471 0.91156 0.59841 0.0
H1427 H 0.99345 0.91762 0.62152 0.0
H1428 H 0.02101 0.90264 0.65032 0.0
C1429 C 0.18812 0.88383 0.69073 0.0
C1430 C 0.19145 0.90031 0.64358 0.0
C1431 C 0.22863 0.87805 0.70383 0.0
C1432 C 0.95652 0.90606 0.59768 0.0
C1433 C 1.00126 0.90942 0.61104 0.0
C1434 C 0.06863 0.90231 0.64821 0.0
C1435 C 0.20431 0.89526 0.67924 0.0
C1436 C 0.16665 0.89935 0.66242 0.0
C1437 C 0.05328 0.90147 0.61199 0.0
C1438 C 0.09305 0.90243 0.62926 0.0
H1439 H 0.34396 0.90026 0.69695 0.0
H1440 H 0.27337 0.91033 0.67372 0.0
H1441 H 0.08478 0.89999 0.67893 0.0
H1442 H 0.02168 0.87826 0.57609 0.0
H1443 H 0.10122 0.8845 0.5986 0.0
C1444 C 0.47501 0.8968 0.09664 0.0
C1445 C 0.48921 0.8849 0.0859 0.0
C1446 C 0.51543 0.90224 0.11015 0.0
C1447 C 0.67033 0.90077 0.12791 0.0
H1448 H 0.60011 0.90119 0.17975 0.0
C1449 C 0.75612 0.88556 0.2071 0.0
C1450 C 0.81082 0.89245 0.20727 0.0
C1451 C 0.71156 0.88953 0.19403 0.0
C1452 C 0.62021 0.90132 0.16536 0.0
H1453 H 0.55653 0.86952 0.0803 0.0
H1454 H 0.62844 0.87934 0.10318 0.0
H1455 H 0.53627 0.89934 0.15092 0.0
H1456 H 0.86142 0.90918 0.19466 0.0
H1457 H 0.78364 0.91617 0.17178 0.0
H1458 H 0.75438 0.90208 0.14232 0.0
C1459 C 0.58646 0.88458 0.10113 0.0
C1460 C 0.58373 0.90035 0.14885 0.0
C1461 C 0.54559 0.87901 0.08791 0.0
C1462 C 0.81893 0.90394 0.19512 0.0
C1463 C 0.77473 0.90783 0.18189 0.0
C1464 C 0.70673 0.90192 0.14439 0.0
C1465 C 0.57077 0.89587 0.11301 0.0
C1466 C 0.60857 0.89962 0.13 0.0
C1467 C 0.72173 0.90024 0.18056 0.0
C1468 C 0.6822 0.90177 0.16332 0.0
H1469 H 0.43104 0.90126 0.09566 0.0
H1470 H 0.50228 0.91096 0.11909 0.0
H1471 H 0.69061 0.90023 0.11357 0.0
H1472 H 0.75013 0.87619 0.21547 0.0
H1473 H 0.67162 0.88333 0.19317 0.0
C1474 C 0.31681 0.84611 0.09538 0.0
C1475 C 0.31028 0.85777 0.08342 0.0
C1476 C 0.27245 0.8425 0.10873 0.0
C1477 C 0.11911 0.85 0.12552 0.0
H1478 H 0.18892 0.84899 0.1774 0.0
C1479 C 0.04514 0.86949 0.20494 0.0
C1480 C 0.98719 0.86426 0.20558 0.0
C1481 C 0.0861 0.86419 0.1915 0.0
C1482 C 0.16876 0.84909 0.16302 0.0
H1483 H 0.25213 0.87463 0.07579 0.0
H1484 H 0.17319 0.86798 0.09824 0.0
H1485 H 0.2528 0.84762 0.14861 0.0
H1486 H 0.92679 0.84914 0.19348 0.0
H1487 H 0.99827 0.83983 0.16996 0.0
H1488 H 0.03531 0.8521 0.13994 0.0
C1489 C 0.21205 0.86145 0.09714 0.0
C1490 C 0.20523 0.84819 0.14651 0.0
C1491 C 0.25679 0.86513 0.08395 0.0
C1492 C 0.97178 0.8531 0.1935 0.0
C1493 C 0.0124 0.8479 0.1799 0.0
C1494 C 0.08258 0.85072 0.14203 0.0
C1495 C 0.22079 0.85053 0.11038 0.0
C1496 C 0.18096 0.84902 0.12758 0.0
C1497 C 0.06914 0.85381 0.17818 0.0
C1498 C 0.10715 0.85066 0.16096 0.0
H1499 H 0.35836 0.84049 0.09558 0.0
H1500 H 0.28022 0.83398 0.11863 0.0
H1501 H 0.09917 0.85065 0.11114 0.0
H1502 H 0.0572 0.87844 0.2136 0.0
H1503 H 0.12926 0.86906 0.19041 0.0
C1504 C 0.26815 0.63804 0.9599 0.0
C1505 C 0.21394 0.64512 0.96032 0.0
C1506 C 0.31236 0.6418 0.94655 0.0
C1507 C 0.40387 0.65371 0.91785 0.0
H1508 H 0.33394 0.65359 0.86596 0.0
C1509 C 0.55168 0.65202 0.84991 0.0
C1510 C 0.5393 0.64051 0.8381 0.0
C1511 C 0.50971 0.65682 0.86335 0.0
C1512 C 0.35409 0.65382 0.88034 0.0
H1513 H 0.16401 0.66198 0.9478 0.0
H1514 H 0.24117 0.66861 0.92447 0.0
H1515 H 0.26985 0.65457 0.89476 0.0
H1516 H 0.47324 0.62519 0.83068 0.0
H1517 H 0.39858 0.63395 0.85339 0.0
H1518 H 0.488 0.65239 0.90343 0.0
C1519 C 0.24992 0.66026 0.93457 0.0
C1520 C 0.31749 0.65448 0.89685 0.0
C1521 C 0.20612 0.65659 0.94808 0.0
C1522 C 0.48272 0.63452 0.83887 0.0
C1523 C 0.44036 0.63942 0.85215 0.0
C1524 C 0.44051 0.65324 0.90134 0.0
C1525 C 0.30235 0.6525 0.93305 0.0
C1526 C 0.34191 0.65408 0.91579 0.0
C1527 C 0.45459 0.65017 0.86522 0.0
C1528 C 0.41594 0.65294 0.88241 0.0
H1529 H 0.27388 0.62869 0.96832 0.0
H1530 H 0.35191 0.63549 0.94557 0.0
H1531 H 0.42391 0.65338 0.93224 0.0
H1532 H 0.59567 0.65656 0.84992 0.0
H1533 H 0.52175 0.66518 0.87314 0.0
C1534 C 0.04792 0.60538 0.94904 0.0
C1535 C 0.03517 0.61773 0.95893 0.0
C1536 C 1.0067 0.59972 0.93598 0.0
C1537 C 0.93833 0.60078 0.89725 0.0
H1538 H 0.76758 0.60141 0.90381 0.0
C1539 C 0.77139 0.61716 0.8385 0.0
C1540 C 0.71413 0.61153 0.83888 0.0
C1541 C 0.81459 0.6125 0.85159 0.0
C1542 C 0.81516 0.60087 0.90173 0.0
H1543 H 0.96971 0.6337 0.96351 0.0
H1544 H 0.89649 0.62356 0.94143 0.0
H1545 H 0.83164 0.60303 0.93245 0.0
H1546 H 0.6575 0.59618 0.8522 0.0
H1547 H 0.73299 0.58792 0.87505 0.0
H1548 H 0.92179 0.59946 0.8664 0.0
C1549 C 0.93785 0.61812 0.94381 0.0
C1550 C 0.85178 0.6019 0.91815 0.0
C1551 C 0.97949 0.6239 0.95656 0.0
C1552 C 0.70186 0.60048 0.85145 0.0
C1553 C 0.74482 0.59586 0.86463 0.0
C1554 C 0.90167 0.5999 0.88078 0.0
C1555 C 0.95206 0.60632 0.93274 0.0
C1556 C 0.91369 0.60231 0.91603 0.0
C1557 C 0.80063 0.60232 0.86553 0.0
C1558 C 0.83967 0.60035 0.88281 0.0
H1559 H 0.09137 0.60069 0.95032 0.0
H1560 H 0.01873 0.59062 0.92766 0.0
H1561 H 0.98594 0.6012 0.89514 0.0
H1562 H 0.781 0.62608 0.82951 0.0
H1563 H 0.85689 0.61781 0.85204 0.0
C1564 C 0.54881 0.60516 0.44861 0.0
C1565 C 0.53562 0.61742 0.45864 0.0
C1566 C 0.50745 0.5994 0.4357 0.0
C1567 C 0.43784 0.60023 0.39728 0.0
H1568 H 0.26723 0.60031 0.40431 0.0
C1569 C 0.2684 0.61562 0.33872 0.0
C1570 C 0.21166 0.60972 0.33923 0.0
C1571 C 0.31215 0.61126 0.35182 0.0
C1572 C 0.31479 0.59992 0.4021 0.0
H1573 H 0.46921 0.6331 0.4637 0.0
H1574 H 0.39582 0.62278 0.44183 0.0
H1575 H 0.33193 0.60222 0.43277 0.0
H1576 H 0.1565 0.59422 0.3529 0.0
H1577 H 0.23297 0.58649 0.37577 0.0
H1578 H 0.42059 0.59874 0.36649 0.0
C1579 C 0.43764 0.6175 0.44398 0.0
C1580 C 0.35177 0.60113 0.41842 0.0
C1581 C 0.47938 0.62337 0.45661 0.0
C1582 C 0.20047 0.59872 0.35202 0.0
C1583 C 0.24398 0.59441 0.36522 0.0
C1584 C 0.40081 0.59916 0.38092 0.0
C1585 C 0.45226 0.60581 0.43273 0.0
C1586 C 0.4136 0.60171 0.41613 0.0
C1587 C 0.29926 0.60112 0.36592 0.0
C1588 C 0.33885 0.59941 0.38312 0.0
H1589 H 0.59263 0.60063 0.44966 0.0
H1590 H 0.51978 0.59037 0.42726 0.0
H1591 H 0.48536 0.60078 0.39503 0.0
H1592 H 0.27707 0.62454 0.32965 0.0
H1593 H 0.35398 0.61677 0.35214 0.0
C1594 C 0.70441 0.65664 0.44699 0.0
C1595 C 0.71314 0.64532 0.45941 0.0
C1596 C 0.74821 0.66048 0.43358 0.0
C1597 C 0.81662 0.65474 0.39612 0.0
H1598 H 0.98708 0.65262 0.40279 0.0
C1599 C 0.97999 0.63311 0.33915 0.0
C1600 C 0.03716 0.63876 0.33816 0.0
C1601 C 0.93813 0.63856 0.35215 0.0
C1602 C 0.93961 0.6535 0.40066 0.0
H1603 H 0.77471 0.62935 0.46795 0.0
H1604 H 0.85249 0.63639 0.44528 0.0
H1605 H 0.92303 0.65413 0.43154 0.0
H1606 H 0.09521 0.65475 0.34922 0.0
H1607 H 0.02211 0.66433 0.37199 0.0
H1608 H 0.83303 0.65336 0.36528 0.0
C1609 C 0.81229 0.64249 0.44605 0.0
C1610 C 0.90299 0.65426 0.41715 0.0
C1611 C 0.76815 0.63858 0.45933 0.0
C1612 C 0.05077 0.65046 0.34942 0.0
C1613 C 0.00925 0.65582 0.3626 0.0
C1614 C 0.8532 0.65382 0.37965 0.0
C1615 C 0.80148 0.65301 0.43233 0.0
C1616 C 0.84102 0.65457 0.41507 0.0
C1617 C 0.95342 0.64953 0.36472 0.0
C1618 C 0.91502 0.65287 0.38175 0.0
H1619 H 0.66174 0.66178 0.4465 0.0
H1620 H 0.73883 0.6687 0.42332 0.0
H1621 H 0.76898 0.65479 0.39401 0.0
H1622 H 0.96946 0.62371 0.33128 0.0
H1623 H 0.89577 0.63337 0.3536 0.0
C1624 C 0.46646 0.34863 0.19159 0.0
C1625 C 0.47933 0.35964 0.20428 0.0
C1626 C 0.50868 0.34407 0.17809 0.0
C1627 C 0.66542 0.34715 0.16197 0.0
H1628 H 0.59696 0.34912 0.10994 0.0
C1629 C 0.75252 0.36516 0.08342 0.0
C1630 C 0.807 0.35821 0.08276 0.0
C1631 C 0.70829 0.36101 0.09651 0.0
C1632 C 0.61664 0.34838 0.12436 0.0
H1633 H 0.5466 0.37421 0.21332 0.0
H1634 H 0.6215 0.36593 0.19033 0.0
H1635 H 0.53217 0.34938 0.13857 0.0
H1636 H 0.8575 0.3412 0.0946 0.0
H1637 H 0.78025 0.33385 0.11747 0.0
H1638 H 0.75002 0.34677 0.14776 0.0
C1639 C 0.57913 0.36066 0.19094 0.0
C1640 C 0.57958 0.34841 0.14077 0.0
C1641 C 0.53659 0.36529 0.20434 0.0
C1642 C 0.81519 0.3465 0.09451 0.0
C1643 C 0.77132 0.34242 0.10776 0.0
C1644 C 0.70244 0.34695 0.14554 0.0
C1645 C 0.56452 0.35049 0.17699 0.0
C1646 C 0.60363 0.34816 0.15977 0.0
C1647 C 0.71851 0.35002 0.10952 0.0
C1648 C 0.67854 0.34792 0.12657 0.0
H1649 H 0.42207 0.34434 0.19102 0.0
H1650 H 0.49636 0.33613 0.16767 0.0
H1651 H 0.6852 0.34693 0.1764 0.0
H1652 H 0.7465 0.37467 0.07539 0.0
H1653 H 0.66847 0.3672 0.0977 0.0
C1654 C 0.97207 0.39786 0.09533 0.0
C1655 C 0.98517 0.38582 0.08477 0.0
C1656 C 0.0132 0.40325 0.10864 0.0
C1657 C 0.16808 0.40081 0.12648 0.0
H1658 H 0.09727 0.40135 0.17822 0.0
C1659 C 0.24786 0.38277 0.20488 0.0
C1660 C 0.30463 0.38866 0.20527 0.0
C1661 C 0.20474 0.38782 0.19206 0.0
C1662 C 0.11759 0.40146 0.16386 0.0
H1663 H 0.05125 0.37014 0.07923 0.0
H1664 H 0.12431 0.37984 0.10176 0.0
H1665 H 0.03358 0.4005 0.1493 0.0
H1666 H 0.3606 0.40475 0.19348 0.0
H1667 H 0.28529 0.41364 0.17101 0.0
H1668 H 0.25207 0.40098 0.141 0.0
C1669 C 0.08273 0.38525 0.09971 0.0
C1670 C 0.0812 0.40108 0.1473 0.0
C1671 C 0.04119 0.37974 0.0867 0.0
C1672 C 0.31653 0.40026 0.19369 0.0
C1673 C 0.2737 0.40524 0.18072 0.0
C1674 C 0.20444 0.40136 0.14302 0.0
C1675 C 0.0681 0.39668 0.11148 0.0
C1676 C 0.10615 0.40022 0.12847 0.0
C1677 C 0.21839 0.39863 0.17909 0.0
C1678 C 0.17962 0.40118 0.16191 0.0
H1679 H 0.92838 0.40248 0.09439 0.0
H1680 H 1.00085 0.41208 0.1175 0.0
H1681 H 0.18845 0.4002 0.11216 0.0
H1682 H 0.23864 0.37344 0.21304 0.0
H1683 H 0.16286 0.38237 0.19099 0.0
C1684 C 0.7332 0.38018 0.70356 0.0
C1685 C 0.78984 0.38601 0.70525 0.0
C1686 C 0.69152 0.38591 0.69083 0.0
C1687 C 0.69247 0.40231 0.64352 0.0
H1688 H 0.5218 0.40232 0.65036 0.0
C1689 C 0.45566 0.40299 0.59792 0.0
C1690 C 0.46712 0.39182 0.58539 0.0
C1691 C 0.49894 0.40752 0.61109 0.0
C1692 C 0.56938 0.40267 0.6482 0.0
H1693 H 0.84753 0.40249 0.69559 0.0
H1694 H 0.77475 0.41251 0.67307 0.0
H1695 H 0.58617 0.40091 0.67895 0.0
H1696 H 0.53281 0.37694 0.5762 0.0
H1697 H 0.6093 0.38508 0.59866 0.0
H1698 H 0.67557 0.40329 0.61269 0.0
C1699 C 0.7621 0.40367 0.68182 0.0
C1700 C 0.60618 0.40175 0.66459 0.0
C1701 C 0.80342 0.39805 0.69481 0.0
C1702 C 0.52391 0.38596 0.58508 0.0
C1703 C 0.56743 0.39055 0.59816 0.0
C1704 C 0.65562 0.4031 0.6271 0.0
C1705 C 0.70656 0.39733 0.67914 0.0
C1706 C 0.66804 0.40113 0.66239 0.0
C1707 C 0.55426 0.40087 0.61202 0.0
C1708 C 0.59365 0.40287 0.62923 0.0
H1709 H 0.7227 0.3706 0.71095 0.0
H1710 H 0.64943 0.38067 0.68892 0.0
H1711 H 0.74 0.40172 0.64133 0.0
H1712 H 0.41164 0.40745 0.59863 0.0
H1713 H 0.48771 0.41558 0.62145 0.0
C1714 C 0.02179 0.36452 0.70599 0.0
C1715 C 0.96652 0.35787 0.70605 0.0
C1716 C 0.06585 0.36048 0.69274 0.0
C1717 C 0.07023 0.34795 0.64284 0.0
H1718 H 0.2407 0.34979 0.64972 0.0
C1719 C 0.30514 0.35125 0.59638 0.0
C1720 C 0.29215 0.36282 0.58484 0.0
C1721 C 0.26326 0.34616 0.60962 0.0
C1722 C 0.19322 0.34899 0.64753 0.0
H1723 H 0.91454 0.34145 0.69312 0.0
H1724 H 0.99152 0.3343 0.67001 0.0
H1725 H 0.17626 0.34862 0.6784 0.0
H1726 H 0.22521 0.37792 0.57761 0.0
H1727 H 0.15087 0.36871 0.60003 0.0
H1728 H 0.08706 0.34904 0.61201 0.0
C1729 C 1.00115 0.34255 0.68026 0.0
C1730 C 0.15637 0.34842 0.66398 0.0
C1731 C 0.95741 0.34652 0.69363 0.0
C1732 C 0.23523 0.3686 0.58567 0.0
C1733 C 0.19301 0.36341 0.59874 0.0
C1734 C 0.10704 0.34867 0.62641 0.0
C1735 C 0.05473 0.34993 0.67904 0.0
C1736 C 0.09441 0.3482 0.66183 0.0
C1737 C 0.20768 0.35259 0.61155 0.0
C1738 C 0.16889 0.34951 0.62859 0.0
H1739 H 0.02866 0.37376 0.71461 0.0
H1740 H 0.10631 0.3665 0.69201 0.0
H1741 H 0.02262 0.34797 0.64068 0.0
H1742 H 0.34938 0.34688 0.59632 0.0
H1743 H 0.27565 0.33775 0.6192 0.0
C1744 C 0.40115 0.11522 0.50709 0.0
C1745 C 0.37205 0.128 0.5054 0.0
C1746 C 0.46286 0.11431 0.50539 0.0
C1747 C 0.59668 0.13335 0.48804 0.0
H1748 H 0.679 0.1081 0.52261 0.0
C1749 C 0.85082 0.13495 0.50014 0.0
C1750 C 0.88162 0.12238 0.50181 0.0
C1751 C 0.78886 0.13521 0.49909 0.0
C1752 C 0.65671 0.11507 0.51265 0.0
H1753 H 0.38532 0.14985 0.50022 0.0
H1754 H 0.49333 0.14833 0.49766 0.0
H1755 H 0.57125 0.10968 0.52389 0.0
H1756 H 0.87115 0.10017 0.50323 0.0
H1757 H 0.76256 0.10062 0.50153 0.0
H1758 H 0.68261 0.13892 0.47713 0.0
C1759 C 0.46827 0.13894 0.50004 0.0
C1760 C 0.59474 0.11598 0.51337 0.0
C1761 C 0.40628 0.13985 0.50164 0.0
C1762 C 0.84884 0.11003 0.50205 0.0
C1763 C 0.78661 0.1103 0.50116 0.0
C1764 C 0.65875 0.13249 0.48741 0.0
C1765 C 0.4975 0.12616 0.50207 0.0
C1766 C 0.56374 0.12515 0.5011 0.0
C1767 C 0.75583 0.12291 0.49979 0.0
C1768 C 0.68959 0.12337 0.49976 0.0
H1769 H 0.37627 0.10585 0.50977 0.0
H1770 H 0.48335 0.10424 0.50661 0.0
H1771 H 0.57453 0.14036 0.47812 0.0
H1772 H 0.87454 0.14468 0.49981 0.0
H1773 H 0.76675 0.14511 0.49824 0.0
C1774 C 0.39977 0.13612 0.78961 0.0
C1775 C 0.3707 0.12337 0.79185 0.0
C1776 C 0.46166 0.13707 0.79083 0.0
C1777 C 0.59679 0.11794 0.80741 0.0
H1778 H 0.67752 0.14372 0.7732 0.0
C1779 C 0.85088 0.11677 0.79432 0.0
C1780 C 0.88155 0.12942 0.79339 0.0
C1781 C 0.78887 0.1164 0.79532 0.0
C1782 C 0.65569 0.13659 0.78303 0.0
H1783 H 0.38437 0.10159 0.79737 0.0
H1784 H 0.49247 0.10313 0.79899 0.0
H1785 H 0.56971 0.14209 0.77235 0.0
H1786 H 0.8706 0.15164 0.79308 0.0
H1787 H 0.76193 0.15099 0.79461 0.0
H1788 H 0.68328 0.11223 0.81767 0.0
C1789 C 0.46737 0.11251 0.79663 0.0
C1790 C 0.59362 0.13565 0.78259 0.0
C1791 C 0.40524 0.11158 0.79558 0.0
C1792 C 0.84845 0.14172 0.79371 0.0
C1793 C 0.78617 0.14134 0.7945 0.0
C1794 C 0.65892 0.1188 0.80771 0.0
C1795 C 0.49662 0.12527 0.79415 0.0
C1796 C 0.56309 0.1263 0.79476 0.0
C1797 C 0.75556 0.12866 0.79526 0.0
C1798 C 0.68923 0.12812 0.79549 0.0
H1799 H 0.37469 0.14546 0.78693 0.0
H1800 H 0.482 0.14714 0.78928 0.0
H1801 H 0.57521 0.1108 0.81728 0.0
H1802 H 0.87479 0.10708 0.79419 0.0
H1803 H 0.7669 0.10646 0.79569 0.0
C1804 C 0.60476 0.88538 0.54393 0.0
C1805 C 0.63556 0.87277 0.54277 0.0
C1806 C 0.54278 0.88567 0.54493 0.0
C1807 C 0.41025 0.86524 0.53232 0.0
H1808 H 0.32879 0.89131 0.56601 0.0
C1809 C 0.15458 0.86562 0.53842 0.0
C1810 C 0.12562 0.87844 0.53977 0.0
C1811 C 0.21635 0.86471 0.53997 0.0
C1812 C 0.35072 0.88408 0.55633 0.0
H1813 H 0.62499 0.85054 0.54215 0.0
H1814 H 0.51638 0.85104 0.54377 0.0
H1815 H 0.43686 0.88989 0.56683 0.0
H1816 H 0.13923 0.90038 0.54414 0.0
H1817 H 0.24727 0.89886 0.54644 0.0
H1818 H 0.32454 0.8596 0.52149 0.0
C1819 C 0.54046 0.86072 0.54378 0.0
C1820 C 0.4128 0.88323 0.55685 0.0
C1821 C 0.60271 0.86042 0.54294 0.0
C1822 C 0.16007 0.89034 0.54301 0.0
C1823 C 0.22209 0.88944 0.54445 0.0
C1824 C 0.34825 0.86614 0.53171 0.0
C1825 C 0.5097 0.87336 0.54469 0.0
C1826 C 0.44342 0.87383 0.5448 0.0
C1827 C 0.2512 0.87661 0.54279 0.0
C1828 C 0.31748 0.8756 0.54366 0.0
H1829 H 0.6285 0.8951 0.54391 0.0
H1830 H 0.52071 0.89559 0.5454 0.0
H1831 H 0.43234 0.85804 0.52261 0.0
H1832 H 0.12955 0.8562 0.53613 0.0
H1833 H 0.23674 0.85461 0.53904 0.0
C1834 C 0.6185 0.86444 0.25149 0.0
C1835 C 0.64831 0.8772 0.25217 0.0
C1836 C 0.55654 0.86384 0.25031 0.0
C1837 C 0.42247 0.88391 0.26189 0.0
H1838 H 0.34287 0.85753 0.22814 0.0
C1839 C 0.16759 0.88377 0.25435 0.0
C1840 C 0.13791 0.87105 0.25258 0.0
C1841 C 0.22946 0.88452 0.25323 0.0
C1842 C 0.36424 0.86484 0.23786 0.0
H1843 H 0.63597 0.89939 0.25179 0.0
H1844 H 0.52754 0.89835 0.24991 0.0
H1845 H 0.45104 0.859 0.22796 0.0
H1846 H 0.15037 0.84912 0.24786 0.0
H1847 H 0.25873 0.85033 0.24642 0.0
H1848 H 0.33631 0.88955 0.2722 0.0
C1849 C 0.55233 0.88879 0.25038 0.0
C1850 C 0.42639 0.86572 0.23768 0.0
C1851 C 0.6145 0.88938 0.25137 0.0
C1852 C 0.1718 0.85908 0.24932 0.0
C1853 C 0.23402 0.85981 0.24838 0.0
C1854 C 0.36047 0.88295 0.2622 0.0
C1855 C 0.52254 0.876 0.24994 0.0
C1856 C 0.45631 0.87528 0.24968 0.0
C1857 C 0.26383 0.87255 0.25049 0.0
C1858 C 0.33028 0.87343 0.25016 0.0
H1859 H 0.64302 0.85483 0.25201 0.0
H1860 H 0.53514 0.85383 0.25018 0.0
H1861 H 0.44402 0.89122 0.27157 0.0
H1862 H 0.14301 0.89324 0.25661 0.0
H1863 H 0.25027 0.89456 0.25443 0.0
C1864 C 0.85868 0.63652 1.0015 0.0
C1865 C 0.88828 0.62376 1.00229 0.0
C1866 C 0.79677 0.63713 1.00062 0.0
C1867 C 0.6618 0.61617 0.98993 0.0
H1868 H 0.58327 0.64492 1.0198 0.0
C1869 C 0.40888 0.61612 1.0052 0.0
C1870 C 0.37845 0.62878 1.00452 0.0
C1871 C 0.47075 0.61564 1.00364 0.0
C1872 C 0.60444 0.63694 1.01117 0.0
H1873 H 0.87569 0.60158 1.00234 0.0
H1874 H 0.76733 0.60261 1.00118 0.0
H1875 H 0.69112 0.64359 1.01976 0.0
H1876 H 0.38946 0.65089 1.00126 0.0
H1877 H 0.49768 0.65007 0.99859 0.0
H1878 H 0.57471 0.6094 0.98167 0.0
C1879 C 0.79213 0.61219 1.00101 0.0
C1880 C 0.66646 0.63617 1.01112 0.0
C1881 C 0.85432 0.61158 1.0018 0.0
C1882 C 0.41146 0.64097 1.00195 0.0
C1883 C 0.47353 0.6405 1.0005 0.0
C1884 C 0.59968 0.61691 0.99007 0.0
C1885 C 0.76245 0.62499 1.0006 0.0
C1886 C 0.69612 0.62577 1.00051 0.0
C1887 C 0.50399 0.62783 1.00145 0.0
C1888 C 0.57018 0.62729 1.00072 0.0
H1889 H 0.88335 0.64612 1.00162 0.0
H1890 H 0.77582 0.64717 0.99986 0.0
H1891 H 0.6829 0.60816 0.98134 0.0
H1892 H 0.38498 0.60651 1.00712 0.0
H1893 H 0.49266 0.60572 1.00463 0.0
C1894 C 0.40785 0.61086 0.29522 0.0
C1895 C 0.37329 0.62263 0.2914 0.0
C1896 C 0.47 0.61179 0.29622 0.0
C1897 C 0.59609 0.63489 0.28183 0.0
H1898 H 0.68616 0.61166 0.31705 0.0
C1899 C 0.85092 0.64113 0.29277 0.0
C1900 C 0.88413 0.62884 0.29249 0.0
C1901 C 0.78865 0.64073 0.2936 0.0
C1902 C 0.66168 0.61818 0.30705 0.0
H1903 H 0.37727 0.6447 0.28626 0.0
H1904 H 0.48456 0.64639 0.2885 0.0
H1905 H 0.57809 0.61019 0.31676 0.0
H1906 H 0.87759 0.6065 0.2934 0.0
H1907 H 0.7697 0.60583 0.295 0.0
H1908 H 0.67988 0.64296 0.27231 0.0
C1909 C 0.46424 0.63633 0.29017 0.0
C1910 C 0.59955 0.61729 0.30681 0.0
C1911 C 0.40236 0.63537 0.28901 0.0
C1912 C 0.85359 0.61619 0.2935 0.0
C1913 C 0.79158 0.61579 0.29455 0.0
C1914 C 0.65815 0.63586 0.28221 0.0
C1915 C 0.49923 0.62454 0.29358 0.0
C1916 C 0.5657 0.62558 0.29411 0.0
C1917 C 0.75816 0.62803 0.29445 0.0
C1918 C 0.69184 0.62746 0.29473 0.0
H1919 H 0.38698 0.60088 0.29714 0.0
H1920 H 0.49511 0.60244 0.29866 0.0
H1921 H 0.57208 0.64127 0.27155 0.0
H1922 H 0.87297 0.65106 0.29207 0.0
H1923 H 0.76432 0.65036 0.29367 0.0
C1924 C 0.16346 0.36788 0.04105 0.0
C1925 C 0.13282 0.38053 0.04099 0.0
C1926 C 0.22542 0.36752 0.04211 0.0
C1927 C 0.35823 0.38848 0.03175 0.0
H1928 H 0.43911 0.36106 0.06321 0.0
C1929 C 0.61341 0.38824 0.03899 0.0
C1930 C 0.64273 0.37543 0.03903 0.0
C1931 C 0.55159 0.38897 0.04041 0.0
C1932 C 0.41733 0.36868 0.05415 0.0
H1933 H 0.14363 0.40275 0.04237 0.0
H1934 H 0.2521 0.40212 0.04412 0.0
H1935 H 0.33096 0.36233 0.06375 0.0
H1936 H 0.62971 0.35331 0.041 0.0
H1937 H 0.52156 0.35454 0.0431 0.0
H1938 H 0.44418 0.3947 1.02184 0.0
C1939 C 0.22797 0.39247 0.0432 0.0
C1940 C 0.35522 0.36944 0.05451 0.0
C1941 C 0.16578 0.39283 0.04228 0.0
C1942 C 0.60859 0.36335 0.04089 0.0
C1943 C 0.54651 0.36407 0.04222 0.0
C1944 C 0.42025 0.38768 0.03131 0.0
C1945 C 0.25859 0.3798 0.04303 0.0
C1946 C 0.32484 0.37932 0.04327 0.0
C1947 C 0.51708 0.3769 0.04181 0.0
C1948 C 0.45078 0.37776 0.04248 0.0
H1949 H 0.1396 0.35819 0.04015 0.0
H1950 H 0.24743 0.35759 0.04174 0.0
H1951 H 0.33634 0.39607 0.02266 0.0
H1952 H 0.63821 0.39778 0.03778 0.0
H1953 H 0.53088 0.39905 0.04048 0.0
C1954 C 0.60988 0.36734 0.74966 0.0
C1955 C 0.64078 0.37997 0.74976 0.0
C1956 C 0.54789 0.36701 0.74866 0.0
C1957 C 0.41518 0.38788 0.75935 0.0
H1958 H 0.33434 0.36065 0.72732 0.0
C1959 C 0.15947 0.38731 0.75243 0.0
C1960 C 0.13039 0.37447 0.75169 0.0
C1961 C 0.22134 0.38817 0.75112 0.0
C1962 C 0.35606 0.36821 0.73655 0.0
H1963 H 0.63033 0.40219 0.74857 0.0
H1964 H 0.52172 0.40162 0.74699 0.0
H1965 H 0.44243 0.36198 0.72679 0.0
H1966 H 0.14397 0.35242 0.74871 0.0
H1967 H 0.25205 0.35385 0.74686 0.0
H1968 H 0.32923 0.39394 0.76946 0.0
C1969 C 0.54573 0.39195 0.74778 0.0
C1970 C 0.41817 0.36901 0.73619 0.0
C1971 C 0.60798 0.39229 0.74861 0.0
C1972 C 0.16486 0.36248 0.74934 0.0
C1973 C 0.22695 0.36333 0.74815 0.0
C1974 C 0.35312 0.38702 0.75982 0.0
C1975 C 0.51488 0.3793 0.74787 0.0
C1976 C 0.44859 0.37882 0.74763 0.0
C1977 C 0.25617 0.37619 0.74916 0.0
C1978 C 0.32254 0.37715 0.74846 0.0
H1979 H 0.63357 0.35763 0.75046 0.0
H1980 H 0.52573 0.35708 0.74897 0.0
H1981 H 0.4371 0.39541 0.76858 0.0
H1982 H 0.13443 0.39678 0.75403 0.0
H1983 H 0.2418 0.39828 0.75153 0.0
C1984 C 0.90542 0.14038 1.00214 0.0
C1985 C 0.87106 0.12842 1.00486 0.0
C1986 C 0.96748 0.13954 1.00082 0.0
C1987 C 0.09353 0.11619 1.01316 0.0
H1988 H 0.18277 0.14044 0.97905 0.0
C1989 C 0.34813 0.1107 1.00237 0.0
C1990 C 0.38098 0.12305 1.00291 0.0
C1991 C 0.28592 0.11101 1.00145 0.0
C1992 C 0.15853 0.13364 0.98875 0.0
H1993 H 0.87516 0.10613 1.00769 0.0
H1994 H 0.98246 0.10466 1.005 0.0
H1995 H 0.07465 0.14177 0.97959 0.0
H1996 H 0.37397 0.14539 1.00241 0.0
H1997 H 0.26617 0.14589 1.00081 0.0
H1998 H 0.17746 0.10804 0.02226 0.0
C1999 C 0.96195 0.11475 1.00438 0.0
C2000 C 0.09643 0.13443 0.98911 0.0
C2001 C 0.90014 0.11559 1.0058 0.0
C2002 C 0.35022 0.13567 1.00209 0.0
C2003 C 0.28825 0.13597 1.00103 0.0
C2004 C 0.15555 0.11534 1.0127 0.0
C2005 C 0.99669 0.12671 1.0021 0.0
C2006 C 0.06298 0.12576 1.0014 0.0
C2007 C 0.25518 0.12366 1.00085 0.0
C2008 C 0.18893 0.12411 1.00059 0.0
H2009 H 0.8845 0.15042 1.00134 0.0
H2010 H 0.99259 0.14901 0.99925 0.0
H2011 H 0.06962 0.1095 0.02308 0.0
H2012 H 0.37039 0.10081 1.00287 0.0
H2013 H 0.26186 0.10133 1.00112 0.0
C2014 C 0.90682 0.11108 0.29568 0.0
C2015 C 0.8726 0.12302 0.29269 0.0
C2016 C 0.96887 0.11193 0.29708 0.0
C2017 C 0.09522 0.1352 0.28451 0.0
H2018 H 0.18387 0.11134 0.31927 0.0
C2019 C 0.34967 0.14089 0.29558 0.0
C2020 C 0.38246 0.12855 0.29529 0.0
C2021 C 0.28745 0.14058 0.29645 0.0
C2022 C 0.1598 0.11803 0.30939 0.0
H2023 H 0.87693 0.14527 0.28947 0.0
H2024 H 0.98416 0.14678 0.29229 0.0
H2025 H 0.07577 0.10994 0.31854 0.0
H2026 H 0.37534 0.10621 0.29623 0.0
H2027 H 0.26754 0.1057 0.29776 0.0
H2028 H 0.1793 0.14329 0.27541 0.0
C2029 C 0.96358 0.13669 0.29306 0.0
C2030 C 0.09771 0.11719 0.30892 0.0
C2031 C 0.90179 0.13583 0.29157 0.0
C2032 C 0.35163 0.11593 0.29634 0.0
C2033 C 0.28967 0.11563 0.29736 0.0
C2034 C 0.15723 0.13608 0.28507 0.0
C2035 C 0.99819 0.12476 0.29562 0.0
C2036 C 0.06448 0.12573 0.2964 0.0
C2037 C 0.25665 0.12793 0.29726 0.0
C2038 C 0.1904 0.12745 0.29742 0.0
H2039 H 0.8858 0.10104 0.29664 0.0
H2040 H 0.9939 0.10249 0.29887 0.0
H2041 H 0.07148 0.14177 0.2744 0.0
H2042 H 0.372 0.15078 0.29488 0.0
H2043 H 0.26342 0.15025 0.29656 0.0
C2044 C 0.66903 0.89261 0.04327 0.0
C2045 C 0.63607 0.88031 0.04188 0.0
C2046 C 0.73122 0.89225 0.04414 0.0
C2047 C 0.85853 0.86918 0.05518 0.0
H2048 H 0.94736 0.89462 0.02275 0.0
C2049 C 0.11192 0.86323 0.04155 0.0
C2050 C 0.14601 0.87533 0.0398 0.0
C2051 C 0.04984 0.86393 0.04287 0.0
C2052 C 0.92347 0.88756 0.03215 0.0
H2053 H 0.64287 0.85798 0.0408 0.0
H2054 H 0.75072 0.85737 0.0423 0.0
H2055 H 0.83951 0.89596 0.02357 0.0
H2056 H 0.14141 0.89769 0.03873 0.0
H2057 H 0.03406 0.89892 0.04141 0.0
H2058 H 0.94246 0.8608 0.06381 0.0
C2059 C 0.7287 0.8673 0.04279 0.0
C2060 C 0.86144 0.88833 0.0326 0.0
C2061 C 0.66672 0.86766 0.04178 0.0
C2062 C 0.11665 0.88813 0.03986 0.0
C2063 C 0.05481 0.88884 0.04127 0.0
C2064 C 0.92064 0.86845 0.05482 0.0
C2065 C 0.76186 0.87958 0.04382 0.0
C2066 C 0.8281 0.87911 0.04403 0.0
C2067 C 0.02035 0.87676 0.04257 0.0
C2068 C 0.95405 0.8776 0.04324 0.0
H2069 H 0.64686 0.90252 0.04348 0.0
H2070 H 0.75534 0.9019 0.04514 0.0
H2071 H 0.83431 0.86203 0.06435 0.0
H2072 H 0.13308 0.8532 0.04158 0.0
H2073 H 0.02493 0.85439 0.04367 0.0
C2074 C 0.10439 0.8917 0.74888 0.0
C2075 C 0.13732 0.8794 0.74984 0.0
C2076 C 0.04216 0.89134 0.74814 0.0
C2077 C 0.91449 0.86834 0.73674 0.0
H2078 H 0.82637 0.89336 0.77011 0.0
C2079 C 0.66134 0.86207 0.75076 0.0
C2080 C 0.62725 0.87413 0.75291 0.0
C2081 C 0.72341 0.86283 0.74937 0.0
C2082 C 0.85005 0.88642 0.76046 0.0
H2083 H 0.1304 0.85706 0.75027 0.0
H2084 H 0.02255 0.85645 0.74897 0.0
H2085 H 0.9342 0.89479 0.76903 0.0
H2086 H 0.63187 0.89647 0.75466 0.0
H2087 H 0.73917 0.89779 0.75185 0.0
H2088 H 0.83038 0.85998 0.72812 0.0
C2089 C 0.04459 0.86638 0.74873 0.0
C2090 C 0.91207 0.88724 0.75986 0.0
C2091 C 0.10659 0.86675 0.74962 0.0
C2092 C 0.65662 0.88695 0.75322 0.0
C2093 C 0.71844 0.8877 0.75173 0.0
C2094 C 0.85238 0.86755 0.73726 0.0
C2095 C 0.01145 0.87866 0.74815 0.0
C2096 C 0.94518 0.87817 0.74808 0.0
C2097 C 0.75291 0.87566 0.75 0.0
C2098 C 0.81922 0.87655 0.74919 0.0
H2099 H 0.12661 0.90162 0.74894 0.0
H2100 H 0.01806 0.90099 0.74748 0.0
H2101 H 0.9385 0.86129 0.72731 0.0
H2102 H 0.64018 0.85203 0.75045 0.0
H2103 H 0.74831 0.85331 0.74823 0.0
C2104 C 0.90657 0.61574 0.50549 0.0
C2105 C 0.87773 0.6286 0.50471 0.0
C2106 C 0.96838 0.61484 0.50403 0.0
C2107 C 0.10324 0.63455 0.48896 0.0
H2108 H 0.18415 0.60764 0.5213 0.0
C2109 C 0.35705 0.6355 0.50195 0.0
C2110 C 0.38786 0.62287 0.50236 0.0
C2111 C 0.29509 0.63582 0.50089 0.0
C2112 C 0.16227 0.61509 0.51197 0.0
H2113 H 0.89162 0.65061 0.50145 0.0
H2114 H 0.99967 0.64909 0.49932 0.0
H2115 H 0.07634 0.60919 0.52229 0.0
H2116 H 0.37728 0.60064 0.50158 0.0
H2117 H 0.26868 0.60119 0.49985 0.0
H2118 H 0.1896 0.64061 0.479 0.0
C2119 C 0.9744 0.63964 0.50078 0.0
C2120 C 0.10024 0.61599 0.51252 0.0
C2121 C 0.91235 0.64054 0.50213 0.0
C2122 C 0.355 0.61054 0.50138 0.0
C2123 C 0.29275 0.61086 0.50048 0.0
C2124 C 0.16533 0.6337 0.48852 0.0
C2125 C 1.00339 0.62677 0.50186 0.0
C2126 C 0.06972 0.62575 0.50106 0.0
C2127 C 0.26199 0.62352 0.50031 0.0
C2128 C 0.1957 0.624 0.50008 0.0
H2129 H 0.88141 0.6063 0.50727 0.0
H2130 H 0.98865 0.60471 0.5045 0.0
H2131 H 0.08153 0.64203 0.47966 0.0
H2132 H 0.38079 0.64522 0.5026 0.0
H2133 H 0.27301 0.64574 0.50099 0.0
C2134 C 0.90708 0.61139 0.79516 0.0
C2135 C 0.87283 0.62307 0.79056 0.0
C2136 C 0.96922 0.6123 0.79624 0.0
C2137 C 0.0959 0.63485 0.78078 0.0
H2138 H 0.185 0.61264 0.81755 0.0
C2139 C 0.35016 0.64148 0.79209 0.0
C2140 C 0.38348 0.62922 0.79249 0.0
C2141 C 0.28789 0.64106 0.79283 0.0
C2142 C 0.16078 0.61887 0.80713 0.0
H2143 H 0.87729 0.64496 0.78414 0.0
H2144 H 0.98454 0.64662 0.78653 0.0
H2145 H 0.07691 0.61119 0.81707 0.0
H2146 H 0.37721 0.60691 0.79454 0.0
H2147 H 0.26926 0.60622 0.79598 0.0
H2148 H 0.17994 0.64262 0.77103 0.0
C2149 C 0.96402 0.63663 0.78873 0.0
C2150 C 0.09865 0.61799 0.80677 0.0
C2151 C 0.90216 0.6357 0.78749 0.0
C2152 C 0.35309 0.61657 0.79411 0.0
C2153 C 0.29106 0.61616 0.79507 0.0
C2154 C 0.15793 0.63582 0.78128 0.0
C2155 C 0.99871 0.62493 0.79291 0.0
C2156 C 0.06517 0.62593 0.79353 0.0
C2157 C 0.25755 0.62838 0.79425 0.0
C2158 C 0.19126 0.62778 0.79437 0.0
H2159 H 0.88599 0.6015 0.79763 0.0
H2160 H 0.99412 0.603 0.79928 0.0
H2161 H 0.07218 0.64094 0.77008 0.0
H2162 H 0.3721 0.6514 0.79091 0.0
H2163 H 0.26347 0.65067 0.79235 0.0
C2164 C 0.10745 0.38537 0.54029 0.0
C2165 C 0.13789 0.37271 0.53927 0.0
C2166 C 0.04547 0.38577 0.54142 0.0
C2167 C 0.91209 0.36566 0.52905 0.0
H2168 H 0.83193 0.39139 0.56359 0.0
C2169 C 0.65639 0.36615 0.53547 0.0
C2170 C 0.6274 0.3789 0.5378 0.0
C2171 C 0.71822 0.3652 0.53677 0.0
C2172 C 0.85343 0.38426 0.55365 0.0
H2173 H 0.12661 0.35049 0.53894 0.0
H2174 H 0.01799 0.35118 0.54066 0.0
H2175 H 0.94001 0.38992 0.56398 0.0
H2176 H 0.64112 0.40066 0.54364 0.0
H2177 H 0.74921 0.39911 0.5454 0.0
H2178 H 0.8261 0.36023 0.51828 0.0
C2179 C 0.04238 0.36082 0.54054 0.0
C2180 C 0.91555 0.38338 0.55395 0.0
C2181 C 0.10463 0.36042 0.53964 0.0
C2182 C 0.66195 0.39068 0.54175 0.0
C2183 C 0.72406 0.38975 0.54289 0.0
C2184 C 0.85006 0.36663 0.52861 0.0
C2185 C 0.012 0.37352 0.54137 0.0
C2186 C 0.94572 0.37408 0.54163 0.0
C2187 C 0.75322 0.37699 0.54028 0.0
C2188 C 0.81965 0.37595 0.54089 0.0
H2189 H 0.13152 0.39505 0.54013 0.0
H2190 H 0.02365 0.39572 0.54185 0.0
H2191 H 0.93385 0.35855 0.51914 0.0
H2192 H 0.63128 0.35682 0.53264 0.0
H2193 H 0.73849 0.35513 0.53514 0.0
C2194 C 0.11621 0.39045 0.24974 0.0
C2195 C 0.14948 0.37824 0.25147 0.0
C2196 C 0.05397 0.38997 0.24883 0.0
C2197 C 0.92738 0.36671 0.23764 0.0
H2198 H 0.83705 0.39177 0.27027 0.0
C2199 C 0.67316 0.36019 0.24945 0.0
C2200 C 0.63867 0.37215 0.25194 0.0
C2201 C 0.73534 0.36103 0.24853 0.0
C2202 C 0.86127 0.38482 0.26079 0.0
H2203 H 0.14308 0.35591 0.25308 0.0
H2204 H 0.03521 0.35511 0.25135 0.0
H2205 H 0.94486 0.39339 0.26963 0.0
H2206 H 0.64275 0.39444 0.25473 0.0
H2207 H 0.7501 0.39595 0.25259 0.0
H2208 H 0.84398 0.3582 0.22859 0.0
C2209 C 0.05704 0.36506 0.25071 0.0
C2210 C 0.92334 0.38575 0.26047 0.0
C2211 C 0.11903 0.36555 0.25184 0.0
C2212 C 0.66781 0.38498 0.25304 0.0
C2213 C 0.72972 0.38583 0.25195 0.0
C2214 C 0.86524 0.36585 0.2378 0.0
C2215 C 0.02357 0.37726 0.24936 0.0
C2216 C 0.95728 0.37666 0.24899 0.0
C2217 C 0.76464 0.37388 0.2499 0.0
C2218 C 0.83113 0.37485 0.24946 0.0
H2219 H 0.13818 0.4004 0.24934 0.0
H2220 H 0.0296 0.39956 0.24761 0.0
H2221 H 0.95208 0.35963 0.22845 0.0
H2222 H 0.65221 0.35014 0.24855 0.0
H2223 H 0.7604 0.35155 0.24717 0.0
loop_
_geom_bond_atom_site_label_1
_geom_bond_atom_site_label_2
_geom_bond_distance
_geom_bond_site_symmetry_2
_ccdc_geom_bond_type
Zn0 N4 2.020 . S
Zn0 O8 2.019 1_455 S
Zn0 N10 2.119 . S
Zn0 O18 1.975 . S
C1 N2 1.334 . S
C1 N5 1.336 . S
N2 C1 1.334 . S
N2 C3 1.334 . S
C3 N2 1.334 . S
C3 N4 1.336 . S
N4 Zn0 2.020 . S
N4 C3 1.336 . S
N4 N5 1.354 . S
N5 C1 1.336 . S
N5 N4 1.354 . S
N5 Zn9 2.020 . S
C6 O7 1.244 . S
C6 O30 1.257 . S
O7 C6 1.244 . S
O8 Zn0 2.019 1_655 S
O8 C28 1.257 . S
Zn9 N5 2.020 . S
Zn9 O16 1.975 . S
Zn9 N25 2.119 . S
Zn9 O30 2.019 . S
N10 Zn0 2.119 . S
N10 C12 1.334 . S
N10 C13 1.328 . S
C11 C12 1.391 . S
C11 N14 1.329 . S
C11 H32 0.930 . S
C12 N10 1.334 . S
C12 C11 1.391 . S
C12 H19 0.930 . S
C13 N10 1.328 . S
C13 C15 1.392 . S
C13 H20 0.930 1_455 S
N14 C11 1.329 . S
N14 C15 1.331 . S
C15 C13 1.392 . S
C15 N14 1.331 . S
O16 Zn9 1.975 . S
O16 C17 1.252 . S
C17 O16 1.252 . S
C17 O18 1.252 . S
O18 Zn0 1.975 . S
O18 C17 1.252 . S
H19 C12 0.930 . S
H20 C13 0.930 1_655 S
C21 C22 1.392 . S
C21 N25 1.328 . S
C21 H27 0.930 . S
C22 C21 1.392 . S
C22 N26 1.331 . S
C23 C24 1.391 . S
C23 N26 1.329 . S
C23 H33 0.930 . S
C24 C23 1.391 . S
C24 N25 1.334 . S
C24 H31 0.930 . S
N25 Zn9 2.119 . S
N25 C21 1.328 . S
N25 C24 1.334 . S
N26 C22 1.331 . S
N26 C23 1.329 . S
H27 C21 0.930 . S
C28 O8 1.257 . S
C28 O29 1.244 . S
O29 C28 1.244 . S
O30 C6 1.257 . S
O30 Zn9 2.019 . S
H31 C24 0.930 . S
H32 C11 0.930 . S
H33 C23 0.930 . S
Zn34 N38 2.020 . S
Zn34 O42 2.019 1_455 S
Zn34 N44 2.119 . S
Zn34 O52 1.975 . S
C35 N36 1.334 . S
C35 N39 1.336 . S
N36 C35 1.334 . S
N36 C37 1.334 . S
C37 N36 1.334 . S
C37 N38 1.336 . S
N38 Zn34 2.020 . S
N38 C37 1.336 . S
N38 N39 1.354 . S
N39 C35 1.336 . S
N39 N38 1.354 . S
N39 Zn43 2.020 . S
C40 O41 1.244 . S
C40 O64 1.257 . S
O41 C40 1.244 . S
O42 Zn34 2.019 1_655 S
O42 C62 1.257 . S
Zn43 N39 2.020 . S
Zn43 O50 1.975 . S
Zn43 N59 2.119 . S
Zn43 O64 2.019 . S
N44 Zn34 2.119 . S
N44 C46 1.334 . S
N44 C47 1.328 . S
C45 C46 1.391 . S
C45 N48 1.329 . S
C45 H66 0.930 . S
C46 N44 1.334 . S
C46 C45 1.391 . S
C46 H53 0.930 . S
C47 N44 1.328 . S
C47 C49 1.392 . S
C47 H54 0.930 1_455 S
N48 C45 1.329 . S
N48 C49 1.331 . S
C49 C47 1.392 . S
C49 N48 1.331 . S
O50 Zn43 1.975 . S
O50 C51 1.252 . S
C51 O50 1.252 . S
C51 O52 1.252 . S
O52 Zn34 1.975 . S
O52 C51 1.252 . S
H53 C46 0.930 . S
H54 C47 0.930 1_655 S
C55 C56 1.392 . S
C55 N59 1.328 . S
C55 H61 0.930 . S
C56 C55 1.392 . S
C56 N60 1.331 . S
C57 C58 1.391 . S
C57 N60 1.329 . S
C57 H67 0.930 . S
C58 C57 1.391 . S
C58 N59 1.334 . S
C58 H65 0.930 . S
N59 Zn43 2.119 . S
N59 C55 1.328 . S
N59 C58 1.334 . S
N60 C56 1.331 . S
N60 C57 1.329 . S
H61 C55 0.930 . S
C62 O42 1.257 . S
C62 O63 1.244 . S
O63 C62 1.244 . S
O64 C40 1.257 . S
O64 Zn43 2.019 . S
H65 C58 0.930 . S
H66 C45 0.930 . S
H67 C57 0.930 . S
Zn68 N72 2.020 . S
Zn68 O76 2.019 1_655 S
Zn68 N78 2.119 . S
Zn68 O86 1.975 . S
C69 N70 1.334 . S
C69 N73 1.336 . S
N70 C69 1.334 . S
N70 C71 1.334 . S
C71 N70 1.334 . S
C71 N72 1.336 . S
N72 Zn68 2.020 . S
N72 C71 1.336 . S
N72 N73 1.354 . S
N73 C69 1.336 . S
N73 N72 1.354 . S
N73 Zn77 2.020 . S
C74 O75 1.244 . S
C74 O98 1.257 . S
O75 C74 1.244 . S
O76 Zn68 2.019 1_455 S
O76 C96 1.257 . S
Zn77 N73 2.020 . S
Zn77 O84 1.975 . S
Zn77 N93 2.119 . S
Zn77 O98 2.019 . S
N78 Zn68 2.119 . S
N78 C80 1.334 . S
N78 C81 1.328 . S
C79 C80 1.391 . S
C79 N82 1.329 . S
C79 H100 0.930 . S
C80 N78 1.334 . S
C80 C79 1.391 . S
C80 H87 0.930 . S
C81 N78 1.328 . S
C81 C83 1.392 . S
C81 H88 0.930 1_655 S
N82 C79 1.329 . S
N82 C83 1.331 . S
C83 C81 1.392 . S
C83 N82 1.331 . S
O84 Zn77 1.975 . S
O84 C85 1.252 . S
C85 O84 1.252 . S
C85 O86 1.252 . S
O86 Zn68 1.975 . S
O86 C85 1.252 . S
H87 C80 0.930 . S
H88 C81 0.930 1_455 S
C89 C90 1.392 . S
C89 N93 1.328 . S
C89 H95 0.930 . S
C90 C89 1.392 . S
C90 N94 1.331 . S
C91 C92 1.391 . S
C91 N94 1.329 . S
C91 H101 0.930 . S
C92 C91 1.391 . S
C92 N93 1.334 . S
C92 H99 0.930 . S
N93 Zn77 2.119 . S
N93 C89 1.328 . S
N93 C92 1.334 . S
N94 C90 1.331 . S
N94 C91 1.329 . S
H95 C89 0.930 . S
C96 O76 1.257 . S
C96 O97 1.244 . S
O97 C96 1.244 . S
O98 C74 1.257 . S
O98 Zn77 2.019 . S
H99 C92 0.930 . S
H100 C79 0.930 . S
H101 C91 0.930 . S
Zn102 N106 2.020 . S
Zn102 O110 2.019 . S
Zn102 N112 2.119 . S
Zn102 O120 1.975 . S
C103 N104 1.334 . S
C103 N107 1.336 . S
N104 C103 1.334 . S
N104 C105 1.334 . S
C105 N104 1.334 . S
C105 N106 1.336 . S
N106 Zn102 2.020 . S
N106 C105 1.336 . S
N106 N107 1.354 . S
N107 C103 1.336 . S
N107 N106 1.354 . S
N107 Zn111 2.020 . S
C108 O109 1.244 . S
C108 O132 1.257 . S
O109 C108 1.244 . S
O110 Zn102 2.019 . S
O110 C130 1.257 . S
Zn111 N107 2.020 . S
Zn111 O118 1.975 . S
Zn111 N127 2.119 . S
Zn111 O132 2.019 1_655 S
N112 Zn102 2.119 . S
N112 C114 1.334 . S
N112 C115 1.328 . S
C113 C114 1.391 . S
C113 N116 1.329 . S
C113 H134 0.930 . S
C114 N112 1.334 . S
C114 C113 1.391 . S
C114 H121 0.930 . S
C115 N112 1.328 . S
C115 C117 1.392 . S
C115 H122 0.930 . S
N116 C113 1.329 . S
N116 C117 1.331 . S
C117 C115 1.392 . S
C117 N116 1.331 . S
O118 Zn111 1.975 . S
O118 C119 1.252 . S
C119 O118 1.252 . S
C119 O120 1.252 . S
O120 Zn102 1.975 . S
O120 C119 1.252 . S
H121 C114 0.930 . S
H122 C115 0.930 . S
C123 C124 1.392 . S
C123 N127 1.328 . S
C123 H129 0.930 1_655 S
C124 C123 1.392 . S
C124 N128 1.331 . S
C125 C126 1.391 . S
C125 N128 1.329 . S
C125 H135 0.930 . S
C126 C125 1.391 . S
C126 N127 1.334 . S
C126 H133 0.930 . S
N127 Zn111 2.119 . S
N127 C123 1.328 . S
N127 C126 1.334 . S
N128 C124 1.331 . S
N128 C125 1.329 . S
H129 C123 0.930 1_455 S
C130 O110 1.257 . S
C130 O131 1.244 . S
O131 C130 1.244 . S
O132 C108 1.257 . S
O132 Zn111 2.019 1_455 S
H133 C126 0.930 . S
H134 C113 0.930 . S
H135 C125 0.930 . S
Zn136 N140 2.020 . S
Zn136 O144 2.019 . S
Zn136 N146 2.119 . S
Zn136 O154 1.975 1_556 S
C137 N138 1.334 . S
C137 N141 1.336 . S
N138 C137 1.334 . S
N138 C139 1.334 . S
C139 N138 1.334 . S
C139 N140 1.336 . S
N140 Zn136 2.020 . S
N140 C139 1.336 . S
N140 N141 1.354 . S
N141 C137 1.336 . S
N141 N140 1.354 . S
N141 Zn145 2.020 . S
C142 O143 1.244 . S
C142 O166 1.257 . S
O143 C142 1.244 . S
O144 Zn136 2.019 . S
O144 C164 1.257 . S
Zn145 N141 2.020 . S
Zn145 O152 1.975 1_556 S
Zn145 N161 2.119 . S
Zn145 O166 2.019 1_455 S
N146 Zn136 2.119 . S
N146 C148 1.334 . S
N146 C149 1.328 . S
C147 C148 1.391 . S
C147 N150 1.329 . S
C147 H168 0.931 . S
C148 N146 1.334 . S
C148 C147 1.391 . S
C148 H155 0.930 . S
C149 N146 1.328 . S
C149 C151 1.392 . S
C149 H156 0.930 . S
N150 C147 1.329 . S
N150 C151 1.331 . S
C151 C149 1.392 . S
C151 N150 1.331 . S
O152 Zn145 1.975 1_554 S
O152 C153 1.252 . S
C153 O152 1.252 . S
C153 O154 1.252 . S
O154 Zn136 1.975 1_554 S
O154 C153 1.252 . S
H155 C148 0.930 . S
H156 C149 0.930 . S
C157 C158 1.392 . S
C157 N161 1.328 . S
C157 H163 0.930 1_455 S
C158 C157 1.392 . S
C158 N162 1.331 . S
C159 C160 1.391 . S
C159 N162 1.329 . S
C159 H169 0.931 . S
C160 C159 1.391 . S
C160 N161 1.334 . S
C160 H167 0.930 . S
N161 Zn145 2.119 . S
N161 C157 1.328 . S
N161 C160 1.334 . S
N162 C158 1.331 . S
N162 C159 1.329 . S
H163 C157 0.930 1_655 S
C164 O144 1.257 . S
C164 O165 1.244 . S
O165 C164 1.244 . S
O166 C142 1.257 . S
O166 Zn145 2.019 1_655 S
H167 C160 0.930 . S
H168 C147 0.931 . S
H169 C159 0.931 . S
Zn170 N174 2.020 . S
Zn170 O178 2.019 1_455 S
Zn170 N180 2.119 . S
Zn170 O188 1.975 . S
C171 N172 1.334 . S
C171 N175 1.336 . S
N172 C171 1.334 . S
N172 C173 1.334 . S
C173 N172 1.334 . S
C173 N174 1.336 . S
N174 Zn170 2.020 . S
N174 C173 1.336 . S
N174 N175 1.354 . S
N175 C171 1.336 . S
N175 N174 1.354 . S
N175 Zn179 2.020 . S
C176 O177 1.244 . S
C176 O200 1.257 . S
O177 C176 1.244 . S
O178 Zn170 2.019 1_655 S
O178 C198 1.257 . S
Zn179 N175 2.020 . S
Zn179 O186 1.975 . S
Zn179 N195 2.119 . S
Zn179 O200 2.019 . S
N180 Zn170 2.119 . S
N180 C182 1.334 . S
N180 C183 1.328 . S
C181 C182 1.391 . S
C181 N184 1.329 . S
C181 H202 0.930 . S
C182 N180 1.334 . S
C182 C181 1.391 . S
C182 H189 0.930 . S
C183 N180 1.328 . S
C183 C185 1.392 . S
C183 H190 0.930 1_455 S
N184 C181 1.329 . S
N184 C185 1.331 . S
C185 C183 1.392 . S
C185 N184 1.331 . S
O186 Zn179 1.975 . S
O186 C187 1.252 . S
C187 O186 1.252 . S
C187 O188 1.252 . S
O188 Zn170 1.975 . S
O188 C187 1.252 . S
H189 C182 0.930 . S
H190 C183 0.930 1_655 S
C191 C192 1.392 . S
C191 N195 1.328 . S
C191 H197 0.930 . S
C192 C191 1.392 . S
C192 N196 1.331 . S
C193 C194 1.391 . S
C193 N196 1.329 . S
C193 H203 0.930 . S
C194 C193 1.391 . S
C194 N195 1.334 . S
C194 H201 0.930 . S
N195 Zn179 2.119 . S
N195 C191 1.328 . S
N195 C194 1.334 . S
N196 C192 1.331 . S
N196 C193 1.329 . S
H197 C191 0.930 . S
C198 O178 1.257 . S
C198 O199 1.244 . S
O199 C198 1.244 . S
O200 C176 1.257 . S
O200 Zn179 2.019 . S
H201 C194 0.930 . S
H202 C181 0.930 . S
H203 C193 0.930 . S
Zn204 N208 2.020 . S
Zn204 O212 2.019 . S
Zn204 N214 2.119 . S
Zn204 O222 1.975 1_554 S
C205 N206 1.334 . S
C205 N209 1.336 . S
N206 C205 1.334 . S
N206 C207 1.334 . S
C207 N206 1.334 . S
C207 N208 1.336 . S
N208 Zn204 2.020 . S
N208 C207 1.336 . S
N208 N209 1.354 . S
N209 C205 1.336 . S
N209 N208 1.354 . S
N209 Zn213 2.020 . S
C210 O211 1.244 . S
C210 O234 1.257 . S
O211 C210 1.244 . S
O212 Zn204 2.019 . S
O212 C232 1.257 . S
Zn213 N209 2.020 . S
Zn213 O220 1.975 1_554 S
Zn213 N229 2.119 . S
Zn213 O234 2.019 1_655 S
N214 Zn204 2.119 . S
N214 C216 1.334 . S
N214 C217 1.328 . S
C215 C216 1.391 . S
C215 N218 1.329 . S
C215 H236 0.931 . S
C216 N214 1.334 . S
C216 C215 1.391 . S
C216 H223 0.930 . S
C217 N214 1.328 . S
C217 C219 1.392 . S
C217 H224 0.930 . S
N218 C215 1.329 . S
N218 C219 1.331 . S
C219 C217 1.392 . S
C219 N218 1.331 . S
O220 Zn213 1.975 1_556 S
O220 C221 1.252 . S
C221 O220 1.252 . S
C221 O222 1.252 . S
O222 Zn204 1.975 1_556 S
O222 C221 1.252 . S
H223 C216 0.930 . S
H224 C217 0.930 . S
C225 C226 1.392 . S
C225 N229 1.328 . S
C225 H231 0.930 1_655 S
C226 C225 1.392 . S
C226 N230 1.331 . S
C227 C228 1.391 . S
C227 N230 1.329 . S
C227 H237 0.931 . S
C228 C227 1.391 . S
C228 N229 1.334 . S
C228 H235 0.930 . S
N229 Zn213 2.119 . S
N229 C225 1.328 . S
N229 C228 1.334 . S
N230 C226 1.331 . S
N230 C227 1.329 . S
H231 C225 0.930 1_455 S
C232 O212 1.257 . S
C232 O233 1.244 . S
O233 C232 1.244 . S
O234 C210 1.257 . S
O234 Zn213 2.019 1_455 S
H235 C228 0.930 . S
H236 C215 0.931 . S
H237 C227 0.931 . S
Zn238 N242 2.020 . S
Zn238 O246 2.019 . S
Zn238 N248 2.119 . S
Zn238 O256 1.975 . S
C239 N240 1.334 . S
C239 N243 1.336 . S
N240 C239 1.334 . S
N240 C241 1.334 . S
C241 N240 1.334 . S
C241 N242 1.336 . S
N242 Zn238 2.020 . S
N242 C241 1.336 . S
N242 N243 1.354 . S
N243 C239 1.336 . S
N243 N242 1.354 . S
N243 Zn247 2.020 . S
C244 O245 1.244 . S
C244 O268 1.257 . S
O245 C244 1.244 . S
O246 Zn238 2.019 . S
O246 C266 1.257 . S
Zn247 N243 2.020 . S
Zn247 O254 1.975 . S
Zn247 N263 2.119 . S
Zn247 O268 2.019 1_655 S
N248 Zn238 2.119 . S
N248 C250 1.334 . S
N248 C251 1.328 . S
C249 C250 1.391 . S
C249 N252 1.329 . S
C249 H270 0.930 . S
C250 N248 1.334 . S
C250 C249 1.391 . S
C250 H257 0.930 . S
C251 N248 1.328 . S
C251 C253 1.392 . S
C251 H258 0.930 . S
N252 C249 1.329 . S
N252 C253 1.331 . S
C253 C251 1.392 . S
C253 N252 1.331 . S
O254 Zn247 1.975 . S
O254 C255 1.252 . S
C255 O254 1.252 . S
C255 O256 1.252 . S
O256 Zn238 1.975 . S
O256 C255 1.252 . S
H257 C250 0.930 . S
H258 C251 0.930 . S
C259 C260 1.392 . S
C259 N263 1.328 . S
C259 H265 0.930 1_655 S
C260 C259 1.392 . S
C260 N264 1.331 . S
C261 C262 1.391 . S
C261 N264 1.329 . S
C261 H271 0.930 . S
C262 C261 1.391 . S
C262 N263 1.334 . S
C262 H269 0.930 . S
N263 Zn247 2.119 . S
N263 C259 1.328 . S
N263 C262 1.334 . S
N264 C260 1.331 . S
N264 C261 1.329 . S
H265 C259 0.930 1_455 S
C266 O246 1.257 . S
C266 O267 1.244 . S
O267 C266 1.244 . S
O268 C244 1.257 . S
O268 Zn247 2.019 1_455 S
H269 C262 0.930 . S
H270 C249 0.930 . S
H271 C261 0.930 . S
Zn272 N276 2.020 . S
Zn272 O280 2.019 . S
Zn272 N282 2.119 . S
Zn272 O290 1.975 1_556 S
C273 N274 1.334 . S
C273 N277 1.336 . S
N274 C273 1.334 . S
N274 C275 1.334 . S
C275 N274 1.334 . S
C275 N276 1.336 . S
N276 Zn272 2.020 . S
N276 C275 1.336 . S
N276 N277 1.354 . S
N277 C273 1.336 . S
N277 N276 1.354 . S
N277 Zn281 2.020 . S
C278 O279 1.244 . S
C278 O302 1.257 . S
O279 C278 1.244 . S
O280 Zn272 2.019 . S
O280 C300 1.257 . S
Zn281 N277 2.020 . S
Zn281 O288 1.975 1_556 S
Zn281 N297 2.119 . S
Zn281 O302 2.019 . S
N282 Zn272 2.119 . S
N282 C284 1.334 . S
N282 C285 1.328 . S
C283 C284 1.391 . S
C283 N286 1.329 . S
C283 H304 0.931 . S
C284 N282 1.334 . S
C284 C283 1.391 . S
C284 H291 0.930 . S
C285 N282 1.328 . S
C285 C287 1.392 . S
C285 H292 0.930 . S
N286 C283 1.329 . S
N286 C287 1.331 . S
C287 C285 1.392 . S
C287 N286 1.331 . S
O288 Zn281 1.975 1_554 S
O288 C289 1.252 . S
C289 O288 1.252 . S
C289 O290 1.252 . S
O290 Zn272 1.975 1_554 S
O290 C289 1.252 . S
H291 C284 0.930 . S
H292 C285 0.930 . S
C293 C294 1.392 . S
C293 N297 1.328 . S
C293 H299 0.930 . S
C294 C293 1.392 . S
C294 N298 1.331 . S
C295 C296 1.391 . S
C295 N298 1.329 . S
C295 H305 0.931 . S
C296 C295 1.391 . S
C296 N297 1.334 . S
C296 H303 0.930 . S
N297 Zn281 2.119 . S
N297 C293 1.328 . S
N297 C296 1.334 . S
N298 C294 1.331 . S
N298 C295 1.329 . S
H299 C293 0.930 . S
C300 O280 1.257 . S
C300 O301 1.244 . S
O301 C300 1.244 . S
O302 C278 1.257 . S
O302 Zn281 2.019 . S
H303 C296 0.930 . S
H304 C283 0.931 . S
H305 C295 0.931 . S
Zn306 N310 2.020 . S
Zn306 O314 2.019 . S
Zn306 N316 2.119 . S
Zn306 O324 1.975 . S
C307 N308 1.334 . S
C307 N311 1.336 . S
N308 C307 1.334 . S
N308 C309 1.334 . S
C309 N308 1.334 . S
C309 N310 1.336 . S
N310 Zn306 2.020 . S
N310 C309 1.336 . S
N310 N311 1.354 . S
N311 C307 1.336 . S
N311 N310 1.354 . S
N311 Zn315 2.020 . S
C312 O313 1.244 . S
C312 O336 1.257 . S
O313 C312 1.244 . S
O314 Zn306 2.019 . S
O314 C334 1.257 . S
Zn315 N311 2.020 . S
Zn315 O322 1.975 . S
Zn315 N331 2.119 . S
Zn315 O336 2.019 . S
N316 Zn306 2.119 . S
N316 C318 1.334 . S
N316 C319 1.328 . S
C317 C318 1.391 . S
C317 N320 1.329 . S
C317 H338 0.930 . S
C318 N316 1.334 . S
C318 C317 1.391 . S
C318 H325 0.930 . S
C319 N316 1.328 . S
C319 C321 1.392 . S
C319 H326 0.930 . S
N320 C317 1.329 . S
N320 C321 1.331 . S
C321 C319 1.392 . S
C321 N320 1.331 . S
O322 Zn315 1.975 . S
O322 C323 1.252 . S
C323 O322 1.252 . S
C323 O324 1.252 . S
O324 Zn306 1.975 . S
O324 C323 1.252 . S
H325 C318 0.930 . S
H326 C319 0.930 . S
C327 C328 1.392 . S
C327 N331 1.328 . S
C327 H333 0.930 . S
C328 C327 1.392 . S
C328 N332 1.331 . S
C329 C330 1.391 . S
C329 N332 1.329 . S
C329 H339 0.930 . S
C330 C329 1.391 . S
C330 N331 1.334 . S
C330 H337 0.930 . S
N331 Zn315 2.119 . S
N331 C327 1.328 . S
N331 C330 1.334 . S
N332 C328 1.331 . S
N332 C329 1.329 . S
H333 C327 0.930 . S
C334 O314 1.257 . S
C334 O335 1.244 . S
O335 C334 1.244 . S
O336 C312 1.257 . S
O336 Zn315 2.019 . S
H337 C330 0.930 . S
H338 C317 0.930 . S
H339 C329 0.930 . S
Zn340 N344 2.020 . S
Zn340 O348 2.019 . S
Zn340 N350 2.119 . S
Zn340 O358 1.975 1_554 S
C341 N342 1.334 . S
C341 N345 1.336 . S
N342 C341 1.334 . S
N342 C343 1.334 . S
C343 N342 1.334 . S
C343 N344 1.336 . S
N344 Zn340 2.020 . S
N344 C343 1.336 . S
N344 N345 1.354 . S
N345 C341 1.336 . S
N345 N344 1.354 . S
N345 Zn349 2.020 . S
C346 O347 1.244 . S
C346 O370 1.257 . S
O347 C346 1.244 . S
O348 Zn340 2.019 . S
O348 C368 1.257 . S
Zn349 N345 2.020 . S
Zn349 O356 1.975 1_554 S
Zn349 N365 2.119 . S
Zn349 O370 2.019 . S
N350 Zn340 2.119 . S
N350 C352 1.334 . S
N350 C353 1.328 . S
C351 C352 1.391 . S
C351 N354 1.329 . S
C351 H372 0.931 . S
C352 N350 1.334 . S
C352 C351 1.391 . S
C352 H359 0.930 . S
C353 N350 1.328 . S
C353 C355 1.392 . S
C353 H360 0.930 . S
N354 C351 1.329 . S
N354 C355 1.331 . S
C355 C353 1.392 . S
C355 N354 1.331 . S
O356 Zn349 1.975 1_556 S
O356 C357 1.252 . S
C357 O356 1.252 . S
C357 O358 1.252 . S
O358 Zn340 1.975 1_556 S
O358 C357 1.252 . S
H359 C352 0.930 . S
H360 C353 0.930 . S
C361 C362 1.392 . S
C361 N365 1.328 . S
C361 H367 0.930 . S
C362 C361 1.392 . S
C362 N366 1.331 . S
C363 C364 1.391 . S
C363 N366 1.329 . S
C363 H373 0.931 . S
C364 C363 1.391 . S
C364 N365 1.334 . S
C364 H371 0.930 . S
N365 Zn349 2.119 . S
N365 C361 1.328 . S
N365 C364 1.334 . S
N366 C362 1.331 . S
N366 C363 1.329 . S
H367 C361 0.930 . S
C368 O348 1.257 . S
C368 O369 1.244 . S
O369 C368 1.244 . S
O370 C346 1.257 . S
O370 Zn349 2.019 . S
H371 C364 0.930 . S
H372 C351 0.931 . S
H373 C363 0.931 . S
Zn374 N378 2.020 . S
Zn374 O382 2.019 . S
Zn374 N384 2.119 . S
Zn374 O392 1.975 . S
C375 N376 1.334 . S
C375 N379 1.336 . S
N376 C375 1.334 . S
N376 C377 1.334 . S
C377 N376 1.334 . S
C377 N378 1.336 . S
N378 Zn374 2.020 . S
N378 C377 1.336 . S
N378 N379 1.354 . S
N379 C375 1.336 . S
N379 N378 1.354 . S
N379 Zn383 2.020 . S
C380 O381 1.244 . S
C380 O404 1.257 . S
O381 C380 1.244 . S
O382 Zn374 2.019 . S
O382 C402 1.257 . S
Zn383 N379 2.020 . S
Zn383 O390 1.975 . S
Zn383 N399 2.119 . S
Zn383 O404 2.019 . S
N384 Zn374 2.119 . S
N384 C386 1.334 . S
N384 C387 1.328 . S
C385 C386 1.391 . S
C385 N388 1.329 . S
C385 H406 0.930 . S
C386 N384 1.334 . S
C386 C385 1.391 . S
C386 H393 0.930 . S
C387 N384 1.328 . S
C387 C389 1.392 . S
C387 H394 0.930 . S
N388 C385 1.329 . S
N388 C389 1.331 . S
C389 C387 1.392 . S
C389 N388 1.331 . S
O390 Zn383 1.975 . S
O390 C391 1.252 . S
C391 O390 1.252 . S
C391 O392 1.252 . S
O392 Zn374 1.975 . S
O392 C391 1.252 . S
H393 C386 0.930 . S
H394 C387 0.930 . S
C395 C396 1.392 . S
C395 N399 1.328 . S
C395 H401 0.930 . S
C396 C395 1.392 . S
C396 N400 1.331 . S
C397 C398 1.391 . S
C397 N400 1.329 . S
C397 H407 0.930 . S
C398 C397 1.391 . S
C398 N399 1.334 . S
C398 H405 0.930 . S
N399 Zn383 2.119 . S
N399 C395 1.328 . S
N399 C398 1.334 . S
N400 C396 1.331 . S
N400 C397 1.329 . S
H401 C395 0.930 . S
C402 O382 1.257 . S
C402 O403 1.244 . S
O403 C402 1.244 . S
O404 C380 1.257 . S
O404 Zn383 2.019 . S
H405 C398 0.930 . S
H406 C385 0.930 . S
H407 C397 0.930 . S
Zn408 N412 2.020 . S
Zn408 O416 2.019 . S
Zn408 N418 2.119 . S
Zn408 O426 1.975 . S
C409 N410 1.334 . S
C409 N413 1.336 . S
N410 C409 1.334 . S
N410 C411 1.334 . S
C411 N410 1.334 . S
C411 N412 1.336 . S
N412 Zn408 2.020 . S
N412 C411 1.336 . S
N412 N413 1.354 . S
N413 C409 1.336 . S
N413 N412 1.354 . S
N413 Zn417 2.020 . S
C414 O415 1.244 . S
C414 O438 1.257 . S
O415 C414 1.244 . S
O416 Zn408 2.019 . S
O416 C436 1.257 . S
Zn417 N413 2.020 . S
Zn417 O424 1.975 . S
Zn417 N433 2.119 . S
Zn417 O438 2.019 . S
N418 Zn408 2.119 . S
N418 C420 1.334 . S
N418 C421 1.328 . S
C419 C420 1.391 . S
C419 N422 1.329 . S
C419 H440 0.930 . S
C420 N418 1.334 . S
C420 C419 1.391 . S
C420 H427 0.930 . S
C421 N418 1.328 . S
C421 C423 1.392 . S
C421 H428 0.930 . S
N422 C419 1.329 . S
N422 C423 1.331 . S
C423 C421 1.392 . S
C423 N422 1.331 . S
O424 Zn417 1.975 . S
O424 C425 1.252 . S
C425 O424 1.252 . S
C425 O426 1.252 . S
O426 Zn408 1.975 . S
O426 C425 1.252 . S
H427 C420 0.930 . S
H428 C421 0.930 . S
C429 C430 1.392 . S
C429 N433 1.328 . S
C429 H435 0.930 . S
C430 C429 1.392 . S
C430 N434 1.331 . S
C431 C432 1.391 . S
C431 N434 1.329 . S
C431 H441 0.930 . S
C432 C431 1.391 . S
C432 N433 1.334 . S
C432 H439 0.930 . S
N433 Zn417 2.119 . S
N433 C429 1.328 . S
N433 C432 1.334 . S
N434 C430 1.331 . S
N434 C431 1.329 . S
H435 C429 0.930 . S
C436 O416 1.257 . S
C436 O437 1.244 . S
O437 C436 1.244 . S
O438 C414 1.257 . S
O438 Zn417 2.019 . S
H439 C432 0.930 . S
H440 C419 0.930 . S
H441 C431 0.930 . S
Zn442 N446 2.020 . S
Zn442 O450 2.019 . S
Zn442 N452 2.119 . S
Zn442 O460 1.975 . S
C443 N444 1.334 . S
C443 N447 1.336 . S
N444 C443 1.334 . S
N444 C445 1.334 . S
C445 N444 1.334 . S
C445 N446 1.336 . S
N446 Zn442 2.020 . S
N446 C445 1.336 . S
N446 N447 1.354 . S
N447 C443 1.336 . S
N447 N446 1.354 . S
N447 Zn451 2.020 . S
C448 O449 1.244 . S
C448 O472 1.257 . S
O449 C448 1.244 . S
O450 Zn442 2.019 . S
O450 C470 1.257 . S
Zn451 N447 2.020 . S
Zn451 O458 1.975 . S
Zn451 N467 2.119 . S
Zn451 O472 2.019 . S
N452 Zn442 2.119 . S
N452 C454 1.334 . S
N452 C455 1.328 . S
C453 C454 1.391 . S
C453 N456 1.329 . S
C453 H474 0.930 . S
C454 N452 1.334 . S
C454 C453 1.391 . S
C454 H461 0.930 . S
C455 N452 1.328 . S
C455 C457 1.392 . S
C455 H462 0.930 . S
N456 C453 1.329 . S
N456 C457 1.331 . S
C457 C455 1.392 . S
C457 N456 1.331 . S
O458 Zn451 1.975 . S
O458 C459 1.252 . S
C459 O458 1.252 . S
C459 O460 1.252 . S
O460 Zn442 1.975 . S
O460 C459 1.252 . S
H461 C454 0.930 . S
H462 C455 0.930 . S
C463 C464 1.392 . S
C463 N467 1.328 . S
C463 H469 0.930 . S
C464 C463 1.392 . S
C464 N468 1.331 . S
C465 C466 1.391 . S
C465 N468 1.329 . S
C465 H475 0.930 . S
C466 C465 1.391 . S
C466 N467 1.334 . S
C466 H473 0.930 . S
N467 Zn451 2.119 . S
N467 C463 1.328 . S
N467 C466 1.334 . S
N468 C464 1.331 . S
N468 C465 1.329 . S
H469 C463 0.930 . S
C470 O450 1.257 . S
C470 O471 1.244 . S
O471 C470 1.244 . S
O472 C448 1.257 . S
O472 Zn451 2.019 . S
H473 C466 0.930 . S
H474 C453 0.930 . S
H475 C465 0.930 . S
Zn476 N480 2.020 . S
Zn476 O484 2.019 . S
Zn476 N486 2.119 . S
Zn476 O494 1.975 . S
C477 N478 1.334 . S
C477 N481 1.336 . S
N478 C477 1.334 . S
N478 C479 1.334 . S
C479 N478 1.334 . S
C479 N480 1.336 . S
N480 Zn476 2.020 . S
N480 C479 1.336 . S
N480 N481 1.354 . S
N481 C477 1.336 . S
N481 N480 1.354 . S
N481 Zn485 2.020 . S
C482 O483 1.244 . S
C482 O506 1.257 . S
O483 C482 1.244 . S
O484 Zn476 2.019 . S
O484 C504 1.257 . S
Zn485 N481 2.020 . S
Zn485 O492 1.975 . S
Zn485 N501 2.119 . S
Zn485 O506 2.019 . S
N486 Zn476 2.119 . S
N486 C488 1.334 . S
N486 C489 1.328 . S
C487 C488 1.391 . S
C487 N490 1.329 . S
C487 H508 0.930 . S
C488 N486 1.334 . S
C488 C487 1.391 . S
C488 H495 0.930 . S
C489 N486 1.328 . S
C489 C491 1.392 . S
C489 H496 0.930 . S
N490 C487 1.329 . S
N490 C491 1.331 . S
C491 C489 1.392 . S
C491 N490 1.331 . S
O492 Zn485 1.975 . S
O492 C493 1.252 . S
C493 O492 1.252 . S
C493 O494 1.252 . S
O494 Zn476 1.975 . S
O494 C493 1.252 . S
H495 C488 0.930 . S
H496 C489 0.930 . S
C497 C498 1.392 . S
C497 N501 1.328 . S
C497 H503 0.930 . S
C498 C497 1.392 . S
C498 N502 1.331 . S
C499 C500 1.391 . S
C499 N502 1.329 . S
C499 H509 0.930 . S
C500 C499 1.391 . S
C500 N501 1.334 . S
C500 H507 0.930 . S
N501 Zn485 2.119 . S
N501 C497 1.328 . S
N501 C500 1.334 . S
N502 C498 1.331 . S
N502 C499 1.329 . S
H503 C497 0.930 . S
C504 O484 1.257 . S
C504 O505 1.244 . S
O505 C504 1.244 . S
O506 C482 1.257 . S
O506 Zn485 2.019 . S
H507 C500 0.930 . S
H508 C487 0.930 . S
H509 C499 0.930 . S
Zn510 N514 2.020 . S
Zn510 O518 2.019 . S
Zn510 N520 2.119 . S
Zn510 O528 1.975 . S
C511 N512 1.334 . S
C511 N515 1.336 . S
N512 C511 1.334 . S
N512 C513 1.334 . S
C513 N512 1.334 . S
C513 N514 1.336 . S
N514 Zn510 2.020 . S
N514 C513 1.336 . S
N514 N515 1.354 . S
N515 C511 1.336 . S
N515 N514 1.354 . S
N515 Zn519 2.020 . S
C516 O517 1.244 . S
C516 O540 1.257 . S
O517 C516 1.244 . S
O518 Zn510 2.019 . S
O518 C538 1.257 . S
Zn519 N515 2.020 . S
Zn519 O526 1.975 . S
Zn519 N535 2.119 . S
Zn519 O540 2.019 . S
N520 Zn510 2.119 . S
N520 C522 1.334 . S
N520 C523 1.328 . S
C521 C522 1.391 . S
C521 N524 1.329 . S
C521 H542 0.930 . S
C522 N520 1.334 . S
C522 C521 1.391 . S
C522 H529 0.930 . S
C523 N520 1.328 . S
C523 C525 1.392 . S
C523 H530 0.930 . S
N524 C521 1.329 . S
N524 C525 1.331 . S
C525 C523 1.392 . S
C525 N524 1.331 . S
O526 Zn519 1.975 . S
O526 C527 1.252 . S
C527 O526 1.252 . S
C527 O528 1.252 . S
O528 Zn510 1.975 . S
O528 C527 1.252 . S
H529 C522 0.930 . S
H530 C523 0.930 . S
C531 C532 1.392 . S
C531 N535 1.328 . S
C531 H537 0.930 . S
C532 C531 1.392 . S
C532 N536 1.331 . S
C533 C534 1.391 . S
C533 N536 1.329 . S
C533 H543 0.930 . S
C534 C533 1.391 . S
C534 N535 1.334 . S
C534 H541 0.930 . S
N535 Zn519 2.119 . S
N535 C531 1.328 . S
N535 C534 1.334 . S
N536 C532 1.331 . S
N536 C533 1.329 . S
H537 C531 0.930 . S
C538 O518 1.257 . S
C538 O539 1.244 . S
O539 C538 1.244 . S
O540 C516 1.257 . S
O540 Zn519 2.019 . S
H541 C534 0.930 . S
H542 C521 0.930 . S
H543 C533 0.930 . S
C544 C545 1.349 . S
C544 C546 1.327 . S
C544 H569 0.950 . S
C545 C544 1.349 . S
C545 C561 1.349 . S
C546 C544 1.327 . S
C546 C565 1.429 . S
C546 H570 0.950 . S
C547 C564 1.574 . S
C547 C566 1.368 . S
C547 H571 0.949 . S
H548 C552 0.949 . S
C549 C550 1.349 . S
C549 C551 1.327 . S
C549 H572 0.950 . S
C550 C549 1.349 . S
C550 C562 1.349 . S
C551 C549 1.327 . S
C551 C567 1.429 . S
C551 H573 0.950 . S
C552 H548 0.949 . S
C552 C560 1.574 . S
C552 C568 1.368 . S
H553 C561 0.950 . S
H554 C559 0.950 . S
H555 C560 0.949 . S
H556 C562 0.950 . S
H557 C563 0.950 . S
H558 C564 0.949 . S
C559 H554 0.950 . S
C559 C561 1.327 . S
C559 C565 1.429 . S
C560 C552 1.574 . S
C560 H555 0.949 . S
C560 C566 1.368 . S
C561 C545 1.349 . S
C561 H553 0.950 . S
C561 C559 1.327 . S
C562 C550 1.349 . S
C562 H556 0.950 . S
C562 C563 1.327 . S
C563 H557 0.950 . S
C563 C562 1.327 . S
C563 C567 1.429 . S
C564 C547 1.574 . S
C564 H558 0.949 . S
C564 C568 1.368 . S
C565 C546 1.429 . S
C565 C559 1.429 . S
C565 C566 1.523 . S
C566 C547 1.368 . S
C566 C560 1.368 . S
C566 C565 1.523 . S
C567 C551 1.429 . S
C567 C563 1.429 . S
C567 C568 1.523 . S
C568 C552 1.368 . S
C568 C564 1.368 . S
C568 C567 1.523 . S
H569 C544 0.950 . S
H570 C546 0.950 . S
H571 C547 0.949 . S
H572 C549 0.950 . S
H573 C551 0.950 . S
C574 C575 1.349 . S
C574 C576 1.327 . S
C574 H599 0.950 . S
C575 C574 1.349 . S
C575 C591 1.349 1_655 S
C576 C574 1.327 . S
C576 C595 1.429 . S
C576 H600 0.950 . S
C577 C594 1.574 1_565 S
C577 C596 1.368 1_455 S
C577 H601 0.949 . S
H578 C582 0.949 . S
C579 C580 1.349 . S
C579 C581 1.327 . S
C579 H602 0.950 . S
C580 C579 1.349 . S
C580 C592 1.349 1_455 S
C581 C579 1.327 . S
C581 C597 1.429 . S
C581 H603 0.950 . S
C582 H578 0.949 . S
C582 C590 1.574 1_545 S
C582 C598 1.368 1_655 S
H583 C591 0.950 . S
H584 C589 0.950 . S
H585 C590 0.949 . S
H586 C592 0.950 . S
H587 C593 0.950 . S
H588 C594 0.949 . S
C589 H584 0.950 . S
C589 C591 1.327 . S
C589 C595 1.429 1_455 S
C590 C582 1.574 1_565 S
C590 H585 0.949 . S
C590 C596 1.368 . S
C591 C575 1.349 1_455 S
C591 H583 0.950 . S
C591 C589 1.327 . S
C592 C580 1.349 1_655 S
C592 H586 0.950 . S
C592 C593 1.327 . S
C593 H587 0.950 . S
C593 C592 1.327 . S
C593 C597 1.429 1_655 S
C594 C577 1.574 1_545 S
C594 H588 0.949 . S
C594 C598 1.368 . S
C595 C576 1.429 . S
C595 C589 1.429 1_655 S
C595 C596 1.523 . S
C596 C577 1.368 1_655 S
C596 C590 1.368 . S
C596 C595 1.523 . S
C597 C581 1.429 . S
C597 C593 1.429 1_455 S
C597 C598 1.523 . S
C598 C582 1.368 1_455 S
C598 C594 1.368 . S
C598 C597 1.523 . S
H599 C574 0.950 . S
H600 C576 0.950 . S
H601 C577 0.949 . S
H602 C579 0.950 . S
H603 C581 0.950 . S
C604 C605 1.349 . S
C604 C606 1.327 . S
C604 H629 0.950 . S
C605 C604 1.349 . S
C605 C621 1.349 . S
C606 C604 1.327 . S
C606 C625 1.429 . S
C606 H630 0.950 . S
C607 C624 1.574 1_545 S
C607 C626 1.368 . S
C607 H631 0.949 . S
H608 C612 0.949 . S
C609 C610 1.349 . S
C609 C611 1.327 . S
C609 H632 0.950 . S
C610 C609 1.349 . S
C610 C622 1.349 . S
C611 C609 1.327 . S
C611 C627 1.429 . S
C611 H633 0.950 . S
C612 H608 0.949 . S
C612 C620 1.574 1_565 S
C612 C628 1.368 . S
H613 C621 0.950 . S
H614 C619 0.950 . S
H615 C620 0.949 . S
H616 C622 0.950 . S
H617 C623 0.950 . S
H618 C624 0.949 . S
C619 H614 0.950 . S
C619 C621 1.327 . S
C619 C625 1.429 . S
C620 C612 1.574 1_545 S
C620 H615 0.949 . S
C620 C626 1.368 . S
C621 C605 1.349 . S
C621 H613 0.950 . S
C621 C619 1.327 . S
C622 C610 1.349 . S
C622 H616 0.950 . S
C622 C623 1.327 . S
C623 H617 0.950 . S
C623 C622 1.327 . S
C623 C627 1.429 . S
C624 C607 1.574 1_565 S
C624 H618 0.949 . S
C624 C628 1.368 . S
C625 C606 1.429 . S
C625 C619 1.429 . S
C625 C626 1.523 . S
C626 C607 1.368 . S
C626 C620 1.368 . S
C626 C625 1.523 . S
C627 C611 1.429 . S
C627 C623 1.429 . S
C627 C628 1.523 . S
C628 C612 1.368 . S
C628 C624 1.368 . S
C628 C627 1.523 . S
H629 C604 0.950 . S
H630 C606 0.950 . S
H631 C607 0.949 . S
H632 C609 0.950 . S
H633 C611 0.950 . S
C634 C635 1.349 . S
C634 C636 1.327 . S
C634 H659 0.950 . S
C635 C634 1.349 . S
C635 C651 1.349 1_455 S
C636 C634 1.327 . S
C636 C655 1.429 . S
C636 H660 0.950 . S
C637 C654 1.574 . S
C637 C656 1.368 1_655 S
C637 H661 0.949 . S
H638 C642 0.949 . S
C639 C640 1.349 . S
C639 C641 1.327 . S
C639 H662 0.950 . S
C640 C639 1.349 . S
C640 C652 1.349 1_655 S
C641 C639 1.327 . S
C641 C657 1.429 . S
C641 H663 0.950 . S
C642 H638 0.949 . S
C642 C650 1.574 . S
C642 C658 1.368 1_455 S
H643 C651 0.950 . S
H644 C649 0.950 . S
H645 C650 0.949 . S
H646 C652 0.950 . S
H647 C653 0.950 . S
H648 C654 0.949 . S
C649 H644 0.950 . S
C649 C651 1.327 . S
C649 C655 1.429 1_655 S
C650 C642 1.574 . S
C650 H645 0.949 . S
C650 C656 1.368 . S
C651 C635 1.349 1_655 S
C651 H643 0.950 . S
C651 C649 1.327 . S
C652 C640 1.349 1_455 S
C652 H646 0.950 . S
C652 C653 1.327 . S
C653 H647 0.950 . S
C653 C652 1.327 . S
C653 C657 1.429 1_455 S
C654 C637 1.574 . S
C654 H648 0.949 . S
C654 C658 1.368 . S
C655 C636 1.429 . S
C655 C649 1.429 1_455 S
C655 C656 1.523 . S
C656 C637 1.368 1_455 S
C656 C650 1.368 . S
C656 C655 1.523 . S
C657 C641 1.429 . S
C657 C653 1.429 1_655 S
C657 C658 1.523 . S
C658 C642 1.368 1_655 S
C658 C654 1.368 . S
C658 C657 1.523 . S
H659 C634 0.950 . S
H660 C636 0.950 . S
H661 C637 0.949 . S
H662 C639 0.950 . S
H663 C641 0.950 . S
C664 C665 1.349 . S
C664 C666 1.327 . S
C664 H689 0.950 . S
C665 C664 1.349 . S
C665 C681 1.349 . S
C666 C664 1.327 . S
C666 C685 1.429 . S
C666 H690 0.950 . S
C667 C684 1.574 . S
C667 C686 1.368 . S
C667 H691 0.949 . S
H668 C672 0.949 . S
C669 C670 1.349 . S
C669 C671 1.327 . S
C669 H692 0.950 . S
C670 C669 1.349 . S
C670 C682 1.349 . S
C671 C669 1.327 . S
C671 C687 1.429 . S
C671 H693 0.950 . S
C672 H668 0.949 . S
C672 C680 1.574 . S
C672 C688 1.368 . S
H673 C681 0.950 . S
H674 C679 0.950 . S
H675 C680 0.949 . S
H676 C682 0.950 . S
H677 C683 0.950 . S
H678 C684 0.949 . S
C679 H674 0.950 . S
C679 C681 1.327 . S
C679 C685 1.429 . S
C680 C672 1.574 . S
C680 H675 0.949 . S
C680 C686 1.368 . S
C681 C665 1.349 . S
C681 H673 0.950 . S
C681 C679 1.327 . S
C682 C670 1.349 . S
C682 H676 0.950 . S
C682 C683 1.327 . S
C683 H677 0.950 . S
C683 C682 1.327 . S
C683 C687 1.429 . S
C684 C667 1.574 . S
C684 H678 0.949 . S
C684 C688 1.368 . S
C685 C666 1.429 . S
C685 C679 1.429 . S
C685 C686 1.523 . S
C686 C667 1.368 . S
C686 C680 1.368 . S
C686 C685 1.523 . S
C687 C671 1.429 . S
C687 C683 1.429 . S
C687 C688 1.523 . S
C688 C672 1.368 . S
C688 C684 1.368 . S
C688 C687 1.523 . S
H689 C664 0.950 . S
H690 C666 0.950 . S
H691 C667 0.949 . S
H692 C669 0.950 . S
H693 C671 0.950 . S
C694 C695 1.349 . S
C694 C696 1.327 . S
C694 H719 0.950 . S
C695 C694 1.349 . S
C695 C711 1.349 . S
C696 C694 1.327 . S
C696 C715 1.429 . S
C696 H720 0.950 . S
C697 C714 1.574 1_565 S
C697 C716 1.368 . S
C697 H721 0.949 . S
H698 C702 0.949 . S
C699 C700 1.349 . S
C699 C701 1.327 . S
C699 H722 0.950 . S
C700 C699 1.349 . S
C700 C712 1.349 . S
C701 C699 1.327 . S
C701 C717 1.429 . S
C701 H723 0.950 . S
C702 H698 0.949 . S
C702 C710 1.574 1_545 S
C702 C718 1.368 . S
H703 C711 0.950 . S
H704 C709 0.950 . S
H705 C710 0.949 . S
H706 C712 0.950 . S
H707 C713 0.950 . S
H708 C714 0.949 . S
C709 H704 0.950 . S
C709 C711 1.327 . S
C709 C715 1.429 . S
C710 C702 1.574 1_565 S
C710 H705 0.949 . S
C710 C716 1.368 . S
C711 C695 1.349 . S
C711 H703 0.950 . S
C711 C709 1.327 . S
C712 C700 1.349 . S
C712 H706 0.950 . S
C712 C713 1.327 . S
C713 H707 0.950 . S
C713 C712 1.327 . S
C713 C717 1.429 . S
C714 C697 1.574 1_545 S
C714 H708 0.949 . S
C714 C718 1.368 . S
C715 C696 1.429 . S
C715 C709 1.429 . S
C715 C716 1.523 . S
C716 C697 1.368 . S
C716 C710 1.368 . S
C716 C715 1.523 . S
C717 C701 1.429 . S
C717 C713 1.429 . S
C717 C718 1.523 . S
C718 C702 1.368 . S
C718 C714 1.368 . S
C718 C717 1.523 . S
H719 C694 0.950 . S
H720 C696 0.950 . S
H721 C697 0.949 . S
H722 C699 0.950 . S
H723 C701 0.950 . S
C724 C725 1.349 . S
C724 C726 1.327 . S
C724 H749 0.950 . S
C725 C724 1.349 . S
C725 C741 1.349 1_655 S
C726 C724 1.327 . S
C726 C745 1.429 . S
C726 H750 0.950 . S
C727 C744 1.574 . S
C727 C746 1.368 1_455 S
C727 H751 0.949 . S
H728 C732 0.949 . S
C729 C730 1.349 . S
C729 C731 1.327 . S
C729 H752 0.950 . S
C730 C729 1.349 . S
C730 C742 1.349 1_455 S
C731 C729 1.327 . S
C731 C747 1.429 . S
C731 H753 0.950 . S
C732 H728 0.949 . S
C732 C740 1.574 . S
C732 C748 1.368 1_655 S
H733 C741 0.950 . S
H734 C739 0.950 . S
H735 C740 0.949 . S
H736 C742 0.950 . S
H737 C743 0.950 . S
H738 C744 0.949 . S
C739 H734 0.950 . S
C739 C741 1.327 . S
C739 C745 1.429 1_455 S
C740 C732 1.574 . S
C740 H735 0.949 . S
C740 C746 1.368 . S
C741 C725 1.349 1_455 S
C741 H733 0.950 . S
C741 C739 1.327 . S
C742 C730 1.349 1_655 S
C742 H736 0.950 . S
C742 C743 1.327 . S
C743 H737 0.950 . S
C743 C742 1.327 . S
C743 C747 1.429 1_655 S
C744 C727 1.574 . S
C744 H738 0.949 . S
C744 C748 1.368 . S
C745 C726 1.429 . S
C745 C739 1.429 1_655 S
C745 C746 1.523 . S
C746 C727 1.368 1_655 S
C746 C740 1.368 . S
C746 C745 1.523 . S
C747 C731 1.429 . S
C747 C743 1.429 1_455 S
C747 C748 1.523 . S
C748 C732 1.368 1_455 S
C748 C744 1.368 . S
C748 C747 1.523 . S
H749 C724 0.950 . S
H750 C726 0.950 . S
H751 C727 0.949 . S
H752 C729 0.950 . S
H753 C731 0.950 . S
C754 C755 1.349 . S
C754 C756 1.327 . S
C754 H779 0.950 . S
C755 C754 1.349 . S
C755 C771 1.349 1_556 S
C756 C754 1.327 . S
C756 C775 1.429 . S
C756 H780 0.950 . S
C757 C774 1.574 . S
C757 C776 1.338 1_554 S
C757 H781 0.949 . S
H758 C762 0.949 . S
C759 C760 1.349 . S
C759 C761 1.327 . S
C759 H782 0.950 . S
C760 C759 1.349 . S
C760 C772 1.349 1_554 S
C761 C759 1.327 . S
C761 C777 1.429 . S
C761 H783 0.950 . S
C762 H758 0.949 . S
C762 C770 1.574 . S
C762 C778 1.338 1_556 S
H763 C771 0.950 . S
H764 C769 0.950 . S
H765 C770 0.949 . S
H766 C772 0.950 . S
H767 C773 0.950 . S
H768 C774 0.949 . S
C769 H764 0.950 . S
C769 C771 1.327 . S
C769 C775 1.429 1_554 S
C770 C762 1.574 . S
C770 H765 0.949 . S
C770 C776 1.398 . S
C771 C755 1.349 1_554 S
C771 H763 0.950 . S
C771 C769 1.327 . S
C772 C760 1.349 1_556 S
C772 H766 0.950 . S
C772 C773 1.327 . S
C773 H767 0.950 . S
C773 C772 1.327 . S
C773 C777 1.429 1_556 S
C774 C757 1.574 . S
C774 H768 0.949 . S
C774 C778 1.398 . S
C775 C756 1.429 . S
C775 C769 1.429 1_556 S
C775 C776 1.524 . S
C776 C757 1.338 1_556 S
C776 C770 1.398 . S
C776 C775 1.524 . S
C777 C761 1.429 . S
C777 C773 1.429 1_554 S
C777 C778 1.524 . S
C778 C762 1.338 1_554 S
C778 C774 1.398 . S
C778 C777 1.524 . S
H779 C754 0.950 . S
H780 C756 0.950 . S
H781 C757 0.949 . S
H782 C759 0.950 . S
H783 C761 0.950 . S
C784 C785 1.349 . S
C784 C786 1.327 . S
C784 H809 0.950 . S
C785 C784 1.349 . S
C785 C801 1.349 1_456 S
C786 C784 1.327 . S
C786 C805 1.429 . S
C786 H810 0.950 . S
C787 C804 1.574 . S
C787 C806 1.343 1_654 S
C787 H811 0.949 . S
H788 C792 0.949 . S
C789 C790 1.349 . S
C789 C791 1.327 . S
C789 H812 0.950 . S
C790 C789 1.349 . S
C790 C802 1.349 1_654 S
C791 C789 1.327 . S
C791 C807 1.429 . S
C791 H813 0.950 . S
C792 H788 0.949 . S
C792 C800 1.574 . S
C792 C808 1.343 1_456 S
H793 C801 0.950 . S
H794 C799 0.950 . S
H795 C800 0.949 . S
H796 C802 0.950 . S
H797 C803 0.950 . S
H798 C804 0.949 . S
C799 H794 0.950 . S
C799 C801 1.327 . S
C799 C805 1.429 1_654 S
C800 C792 1.574 . S
C800 H795 0.949 . S
C800 C806 1.393 . S
C801 C785 1.349 1_654 S
C801 H793 0.950 . S
C801 C799 1.327 . S
C802 C790 1.349 1_456 S
C802 H796 0.950 . S
C802 C803 1.327 . S
C803 H797 0.950 . S
C803 C802 1.327 . S
C803 C807 1.429 1_456 S
C804 C787 1.574 . S
C804 H798 0.949 . S
C804 C808 1.393 . S
C805 C786 1.429 . S
C805 C799 1.429 1_456 S
C805 C806 1.524 . S
C806 C787 1.343 1_456 S
C806 C800 1.393 . S
C806 C805 1.524 . S
C807 C791 1.429 . S
C807 C803 1.429 1_654 S
C807 C808 1.524 . S
C808 C792 1.343 1_654 S
C808 C804 1.393 . S
C808 C807 1.524 . S
H809 C784 0.950 . S
H810 C786 0.950 . S
H811 C787 0.949 . S
H812 C789 0.950 . S
H813 C791 0.950 . S
C814 C815 1.349 . S
C814 C816 1.327 . S
C814 H839 0.950 . S
C815 C814 1.349 . S
C815 C831 1.349 . S
C816 C814 1.327 . S
C816 C835 1.429 . S
C816 H840 0.950 . S
C817 C834 1.574 . S
C817 C836 1.368 . S
C817 H841 0.949 . S
H818 C822 0.949 . S
C819 C820 1.349 . S
C819 C821 1.327 . S
C819 H842 0.950 . S
C820 C819 1.349 . S
C820 C832 1.349 . S
C821 C819 1.327 . S
C821 C837 1.429 . S
C821 H843 0.950 . S
C822 H818 0.949 . S
C822 C830 1.574 . S
C822 C838 1.368 . S
H823 C831 0.950 . S
H824 C829 0.950 . S
H825 C830 0.949 . S
H826 C832 0.950 . S
H827 C833 0.950 . S
H828 C834 0.949 . S
C829 H824 0.950 . S
C829 C831 1.327 . S
C829 C835 1.429 . S
C830 C822 1.574 . S
C830 H825 0.949 . S
C830 C836 1.368 . S
C831 C815 1.349 . S
C831 H823 0.950 . S
C831 C829 1.327 . S
C832 C820 1.349 . S
C832 H826 0.950 . S
C832 C833 1.327 . S
C833 H827 0.950 . S
C833 C832 1.327 . S
C833 C837 1.429 . S
C834 C817 1.574 . S
C834 H828 0.949 . S
C834 C838 1.368 . S
C835 C816 1.429 . S
C835 C829 1.429 . S
C835 C836 1.523 . S
C836 C817 1.368 . S
C836 C830 1.368 . S
C836 C835 1.523 . S
C837 C821 1.429 . S
C837 C833 1.429 . S
C837 C838 1.523 . S
C838 C822 1.368 . S
C838 C834 1.368 . S
C838 C837 1.523 . S
H839 C814 0.950 . S
H840 C816 0.950 . S
H841 C817 0.949 . S
H842 C819 0.950 . S
H843 C821 0.950 . S
C844 C845 1.349 . S
C844 C846 1.327 . S
C844 H869 0.950 . S
C845 C844 1.349 . S
C845 C861 1.349 1_554 S
C846 C844 1.327 . S
C846 C865 1.429 . S
C846 H870 0.950 . S
C847 C864 1.574 . S
C847 C866 1.343 1_556 S
C847 H871 0.949 . S
H848 C852 0.949 . S
C849 C850 1.349 . S
C849 C851 1.327 . S
C849 H872 0.950 . S
C850 C849 1.349 . S
C850 C862 1.349 1_556 S
C851 C849 1.327 . S
C851 C867 1.429 . S
C851 H873 0.950 . S
C852 H848 0.949 . S
C852 C860 1.574 . S
C852 C868 1.343 1_554 S
H853 C861 0.950 . S
H854 C859 0.950 . S
H855 C860 0.949 . S
H856 C862 0.950 . S
H857 C863 0.950 . S
H858 C864 0.949 . S
C859 H854 0.950 . S
C859 C861 1.327 . S
C859 C865 1.429 1_556 S
C860 C852 1.574 . S
C860 H855 0.949 . S
C860 C866 1.393 . S
C861 C845 1.349 1_556 S
C861 H853 0.950 . S
C861 C859 1.327 . S
C862 C850 1.349 1_554 S
C862 H856 0.950 . S
C862 C863 1.327 . S
C863 H857 0.950 . S
C863 C862 1.327 . S
C863 C867 1.429 1_554 S
C864 C847 1.574 . S
C864 H858 0.949 . S
C864 C868 1.393 . S
C865 C846 1.429 . S
C865 C859 1.429 1_554 S
C865 C866 1.524 . S
C866 C847 1.343 1_554 S
C866 C860 1.393 . S
C866 C865 1.524 . S
C867 C851 1.429 . S
C867 C863 1.429 1_556 S
C867 C868 1.524 . S
C868 C852 1.343 1_556 S
C868 C864 1.393 . S
C868 C867 1.524 . S
H869 C844 0.950 . S
H870 C846 0.950 . S
H871 C847 0.949 . S
H872 C849 0.950 . S
H873 C851 0.950 . S
C874 C875 1.349 . S
C874 C876 1.327 . S
C874 H899 0.950 . S
C875 C874 1.349 . S
C875 C891 1.349 . S
C876 C874 1.327 . S
C876 C895 1.429 . S
C876 H900 0.950 . S
C877 C894 1.574 . S
C877 C896 1.368 . S
C877 H901 0.949 . S
H878 C882 0.949 . S
C879 C880 1.349 . S
C879 C881 1.327 . S
C879 H902 0.950 . S
C880 C879 1.349 . S
C880 C892 1.349 . S
C881 C879 1.327 . S
C881 C897 1.429 . S
C881 H903 0.950 . S
C882 H878 0.949 . S
C882 C890 1.574 . S
C882 C898 1.368 . S
H883 C891 0.950 . S
H884 C889 0.950 . S
H885 C890 0.949 . S
H886 C892 0.950 . S
H887 C893 0.950 . S
H888 C894 0.949 . S
C889 H884 0.950 . S
C889 C891 1.327 . S
C889 C895 1.429 . S
C890 C882 1.574 . S
C890 H885 0.949 . S
C890 C896 1.368 . S
C891 C875 1.349 . S
C891 H883 0.950 . S
C891 C889 1.327 . S
C892 C880 1.349 . S
C892 H886 0.950 . S
C892 C893 1.327 . S
C893 H887 0.950 . S
C893 C892 1.327 . S
C893 C897 1.429 . S
C894 C877 1.574 . S
C894 H888 0.949 . S
C894 C898 1.368 . S
C895 C876 1.429 . S
C895 C889 1.429 . S
C895 C896 1.523 . S
C896 C877 1.368 . S
C896 C890 1.368 . S
C896 C895 1.523 . S
C897 C881 1.429 . S
C897 C893 1.429 . S
C897 C898 1.523 . S
C898 C882 1.368 . S
C898 C894 1.368 . S
C898 C897 1.523 . S
H899 C874 0.950 . S
H900 C876 0.950 . S
H901 C877 0.949 . S
H902 C879 0.950 . S
H903 C881 0.950 . S
C904 C905 1.349 1_554 S
C904 C906 1.327 . S
C904 H929 0.950 . S
C905 C904 1.349 1_556 S
C905 C921 1.349 . S
C906 C904 1.327 . S
C906 C925 1.429 1_554 S
C906 H930 0.950 . S
C907 C924 1.574 1_545 S
C907 C926 1.393 . S
C907 H931 0.949 . S
H908 C912 0.949 . S
C909 C910 1.349 1_556 S
C909 C911 1.327 . S
C909 H932 0.950 . S
C910 C909 1.349 1_554 S
C910 C922 1.349 . S
C911 C909 1.327 . S
C911 C927 1.429 1_556 S
C911 H933 0.950 . S
C912 H908 0.949 . S
C912 C920 1.574 1_565 S
C912 C928 1.393 . S
H913 C921 0.950 . S
H914 C919 0.950 . S
H915 C920 0.949 . S
H916 C922 0.950 . S
H917 C923 0.950 . S
H918 C924 0.949 . S
C919 H914 0.950 . S
C919 C921 1.327 . S
C919 C925 1.429 . S
C920 C912 1.574 1_545 S
C920 H915 0.949 . S
C920 C926 1.343 1_554 S
C921 C905 1.349 . S
C921 H913 0.950 . S
C921 C919 1.327 . S
C922 C910 1.349 . S
C922 H916 0.950 . S
C922 C923 1.327 . S
C923 H917 0.950 . S
C923 C922 1.327 . S
C923 C927 1.429 . S
C924 C907 1.574 1_565 S
C924 H918 0.949 . S
C924 C928 1.343 1_556 S
C925 C906 1.429 1_556 S
C925 C919 1.429 . S
C925 C926 1.524 . S
C926 C907 1.393 . S
C926 C920 1.343 1_556 S
C926 C925 1.524 . S
C927 C911 1.429 1_554 S
C927 C923 1.429 . S
C927 C928 1.524 . S
C928 C912 1.393 . S
C928 C924 1.343 1_554 S
C928 C927 1.524 . S
H929 C904 0.950 . S
H930 C906 0.950 . S
H931 C907 0.949 . S
H932 C909 0.950 . S
H933 C911 0.950 . S
C934 C935 1.349 . S
C934 C936 1.327 . S
C934 H959 0.950 . S
C935 C934 1.349 . S
C935 C951 1.349 . S
C936 C934 1.327 . S
C936 C955 1.429 . S
C936 H960 0.950 . S
C937 C954 1.574 . S
C937 C956 1.368 . S
C937 H961 0.949 . S
H938 C942 0.949 . S
C939 C940 1.349 . S
C939 C941 1.327 . S
C939 H962 0.950 . S
C940 C939 1.349 . S
C940 C952 1.349 . S
C941 C939 1.327 . S
C941 C957 1.429 . S
C941 H963 0.950 . S
C942 H938 0.949 . S
C942 C950 1.574 . S
C942 C958 1.368 . S
H943 C951 0.950 . S
H944 C949 0.950 . S
H945 C950 0.949 . S
H946 C952 0.950 . S
H947 C953 0.950 . S
H948 C954 0.949 . S
C949 H944 0.950 . S
C949 C951 1.327 . S
C949 C955 1.429 . S
C950 C942 1.574 . S
C950 H945 0.949 . S
C950 C956 1.368 . S
C951 C935 1.349 . S
C951 H943 0.950 . S
C951 C949 1.327 . S
C952 C940 1.349 . S
C952 H946 0.950 . S
C952 C953 1.327 . S
C953 H947 0.950 . S
C953 C952 1.327 . S
C953 C957 1.429 . S
C954 C937 1.574 . S
C954 H948 0.949 . S
C954 C958 1.368 . S
C955 C936 1.429 . S
C955 C949 1.429 . S
C955 C956 1.523 . S
C956 C937 1.368 . S
C956 C950 1.368 . S
C956 C955 1.523 . S
C957 C941 1.429 . S
C957 C953 1.429 . S
C957 C958 1.523 . S
C958 C942 1.368 . S
C958 C954 1.368 . S
C958 C957 1.523 . S
H959 C934 0.950 . S
H960 C936 0.950 . S
H961 C937 0.949 . S
H962 C939 0.950 . S
H963 C941 0.950 . S
C964 C965 1.349 . S
C964 C966 1.327 . S
C964 H989 0.950 . S
C965 C964 1.349 . S
C965 C981 1.349 . S
C966 C964 1.327 . S
C966 C985 1.429 . S
C966 H990 0.950 . S
C967 C984 1.574 . S
C967 C986 1.368 . S
C967 H991 0.949 . S
H968 C972 0.949 . S
C969 C970 1.349 . S
C969 C971 1.327 . S
C969 H992 0.950 . S
C970 C969 1.349 . S
C970 C982 1.349 . S
C971 C969 1.327 . S
C971 C987 1.429 . S
C971 H993 0.950 . S
C972 H968 0.949 . S
C972 C980 1.574 . S
C972 C988 1.368 . S
H973 C981 0.950 . S
H974 C979 0.950 . S
H975 C980 0.949 . S
H976 C982 0.950 . S
H977 C983 0.950 . S
H978 C984 0.949 . S
C979 H974 0.950 . S
C979 C981 1.327 . S
C979 C985 1.429 . S
C980 C972 1.574 . S
C980 H975 0.949 . S
C980 C986 1.368 . S
C981 C965 1.349 . S
C981 H973 0.950 . S
C981 C979 1.327 . S
C982 C970 1.349 . S
C982 H976 0.950 . S
C982 C983 1.327 . S
C983 H977 0.950 . S
C983 C982 1.327 . S
C983 C987 1.429 . S
C984 C967 1.574 . S
C984 H978 0.949 . S
C984 C988 1.368 . S
C985 C966 1.429 . S
C985 C979 1.429 . S
C985 C986 1.523 . S
C986 C967 1.368 . S
C986 C980 1.368 . S
C986 C985 1.523 . S
C987 C971 1.429 . S
C987 C983 1.429 . S
C987 C988 1.523 . S
C988 C972 1.368 . S
C988 C984 1.368 . S
C988 C987 1.523 . S
H989 C964 0.950 . S
H990 C966 0.950 . S
H991 C967 0.949 . S
H992 C969 0.950 . S
H993 C971 0.950 . S
C994 C995 1.349 . S
C994 C996 1.327 . S
C994 H1019 0.950 . S
C995 C994 1.349 . S
C995 C1011 1.349 . S
C996 C994 1.327 . S
C996 C1015 1.429 . S
C996 H1020 0.950 . S
C997 C1014 1.574 . S
C997 C1016 1.368 . S
C997 H1021 0.949 . S
H998 C1002 0.949 . S
C999 C1000 1.349 . S
C999 C1001 1.327 . S
C999 H1022 0.950 . S
C1000 C999 1.349 . S
C1000 C1012 1.349 . S
C1001 C999 1.327 . S
C1001 C1017 1.429 . S
C1001 H1023 0.950 . S
C1002 H998 0.949 . S
C1002 C1010 1.574 . S
C1002 C1018 1.368 . S
H1003 C1011 0.950 . S
H1004 C1009 0.950 . S
H1005 C1010 0.949 . S
H1006 C1012 0.950 . S
H1007 C1013 0.950 . S
H1008 C1014 0.949 . S
C1009 H1004 0.950 . S
C1009 C1011 1.327 . S
C1009 C1015 1.429 . S
C1010 C1002 1.574 . S
C1010 H1005 0.949 . S
C1010 C1016 1.368 . S
C1011 C995 1.349 . S
C1011 H1003 0.950 . S
C1011 C1009 1.327 . S
C1012 C1000 1.349 . S
C1012 H1006 0.950 . S
C1012 C1013 1.327 . S
C1013 H1007 0.950 . S
C1013 C1012 1.327 . S
C1013 C1017 1.429 . S
C1014 C997 1.574 . S
C1014 H1008 0.949 . S
C1014 C1018 1.368 . S
C1015 C996 1.429 . S
C1015 C1009 1.429 . S
C1015 C1016 1.523 . S
C1016 C997 1.368 . S
C1016 C1010 1.368 . S
C1016 C1015 1.523 . S
C1017 C1001 1.429 . S
C1017 C1013 1.429 . S
C1017 C1018 1.523 . S
C1018 C1002 1.368 . S
C1018 C1014 1.368 . S
C1018 C1017 1.523 . S
H1019 C994 0.950 . S
H1020 C996 0.950 . S
H1021 C997 0.949 . S
H1022 C999 0.950 . S
H1023 C1001 0.950 . S
C1024 C1025 1.349 . S
C1024 C1026 1.327 . S
C1024 H1049 0.950 . S
C1025 C1024 1.349 . S
C1025 C1041 1.349 . S
C1026 C1024 1.327 . S
C1026 C1045 1.429 . S
C1026 H1050 0.950 . S
C1027 C1044 1.574 . S
C1027 C1046 1.368 . S
C1027 H1051 0.949 . S
H1028 C1032 0.949 . S
C1029 C1030 1.349 . S
C1029 C1031 1.327 . S
C1029 H1052 0.950 . S
C1030 C1029 1.349 . S
C1030 C1042 1.349 . S
C1031 C1029 1.327 . S
C1031 C1047 1.429 . S
C1031 H1053 0.950 . S
C1032 H1028 0.949 . S
C1032 C1040 1.574 . S
C1032 C1048 1.368 . S
H1033 C1041 0.950 . S
H1034 C1039 0.950 . S
H1035 C1040 0.949 . S
H1036 C1042 0.950 . S
H1037 C1043 0.950 . S
H1038 C1044 0.949 . S
C1039 H1034 0.950 . S
C1039 C1041 1.327 . S
C1039 C1045 1.429 . S
C1040 C1032 1.574 . S
C1040 H1035 0.949 . S
C1040 C1046 1.368 . S
C1041 C1025 1.349 . S
C1041 H1033 0.950 . S
C1041 C1039 1.327 . S
C1042 C1030 1.349 . S
C1042 H1036 0.950 . S
C1042 C1043 1.327 . S
C1043 H1037 0.950 . S
C1043 C1042 1.327 . S
C1043 C1047 1.429 . S
C1044 C1027 1.574 . S
C1044 H1038 0.949 . S
C1044 C1048 1.368 . S
C1045 C1026 1.429 . S
C1045 C1039 1.429 . S
C1045 C1046 1.523 . S
C1046 C1027 1.368 . S
C1046 C1040 1.368 . S
C1046 C1045 1.523 . S
C1047 C1031 1.429 . S
C1047 C1043 1.429 . S
C1047 C1048 1.523 . S
C1048 C1032 1.368 . S
C1048 C1044 1.368 . S
C1048 C1047 1.523 . S
H1049 C1024 0.950 . S
H1050 C1026 0.950 . S
H1051 C1027 0.949 . S
H1052 C1029 0.950 . S
H1053 C1031 0.950 . S
C1054 C1055 1.349 . S
C1054 C1056 1.327 . S
C1054 H1079 0.950 . S
C1055 C1054 1.349 . S
C1055 C1071 1.349 . S
C1056 C1054 1.327 . S
C1056 C1075 1.429 . S
C1056 H1080 0.950 . S
C1057 C1074 1.574 . S
C1057 C1076 1.368 . S
C1057 H1081 0.949 . S
H1058 C1062 0.949 . S
C1059 C1060 1.349 . S
C1059 C1061 1.327 . S
C1059 H1082 0.950 . S
C1060 C1059 1.349 . S
C1060 C1072 1.349 . S
C1061 C1059 1.327 . S
C1061 C1077 1.429 . S
C1061 H1083 0.950 . S
C1062 H1058 0.949 . S
C1062 C1070 1.574 . S
C1062 C1078 1.368 . S
H1063 C1071 0.950 . S
H1064 C1069 0.950 . S
H1065 C1070 0.949 . S
H1066 C1072 0.950 . S
H1067 C1073 0.950 . S
H1068 C1074 0.949 . S
C1069 H1064 0.950 . S
C1069 C1071 1.327 . S
C1069 C1075 1.429 . S
C1070 C1062 1.574 . S
C1070 H1065 0.949 . S
C1070 C1076 1.368 . S
C1071 C1055 1.349 . S
C1071 H1063 0.950 . S
C1071 C1069 1.327 . S
C1072 C1060 1.349 . S
C1072 H1066 0.950 . S
C1072 C1073 1.327 . S
C1073 H1067 0.950 . S
C1073 C1072 1.327 . S
C1073 C1077 1.429 . S
C1074 C1057 1.574 . S
C1074 H1068 0.949 . S
C1074 C1078 1.368 . S
C1075 C1056 1.429 . S
C1075 C1069 1.429 . S
C1075 C1076 1.523 . S
C1076 C1057 1.368 . S
C1076 C1070 1.368 . S
C1076 C1075 1.523 . S
C1077 C1061 1.429 . S
C1077 C1073 1.429 . S
C1077 C1078 1.523 . S
C1078 C1062 1.368 . S
C1078 C1074 1.368 . S
C1078 C1077 1.523 . S
H1079 C1054 0.950 . S
H1080 C1056 0.950 . S
H1081 C1057 0.949 . S
H1082 C1059 0.950 . S
H1083 C1061 0.950 . S
C1084 C1085 1.349 . S
C1084 C1086 1.327 . S
C1084 H1109 0.950 . S
C1085 C1084 1.349 . S
C1085 C1101 1.349 . S
C1086 C1084 1.327 . S
C1086 C1105 1.429 . S
C1086 H1110 0.950 . S
C1087 C1104 1.574 . S
C1087 C1106 1.368 . S
C1087 H1111 0.949 . S
H1088 C1092 0.949 . S
C1089 C1090 1.349 . S
C1089 C1091 1.327 . S
C1089 H1112 0.950 . S
C1090 C1089 1.349 . S
C1090 C1102 1.349 . S
C1091 C1089 1.327 . S
C1091 C1107 1.429 . S
C1091 H1113 0.950 . S
C1092 H1088 0.949 . S
C1092 C1100 1.574 . S
C1092 C1108 1.368 . S
H1093 C1101 0.950 . S
H1094 C1099 0.950 . S
H1095 C1100 0.949 . S
H1096 C1102 0.950 . S
H1097 C1103 0.950 . S
H1098 C1104 0.949 . S
C1099 H1094 0.950 . S
C1099 C1101 1.327 . S
C1099 C1105 1.429 . S
C1100 C1092 1.574 . S
C1100 H1095 0.949 . S
C1100 C1106 1.368 . S
C1101 C1085 1.349 . S
C1101 H1093 0.950 . S
C1101 C1099 1.327 . S
C1102 C1090 1.349 . S
C1102 H1096 0.950 . S
C1102 C1103 1.327 . S
C1103 H1097 0.950 . S
C1103 C1102 1.327 . S
C1103 C1107 1.429 . S
C1104 C1087 1.574 . S
C1104 H1098 0.949 . S
C1104 C1108 1.368 . S
C1105 C1086 1.429 . S
C1105 C1099 1.429 . S
C1105 C1106 1.523 . S
C1106 C1087 1.368 . S
C1106 C1100 1.368 . S
C1106 C1105 1.523 . S
C1107 C1091 1.429 . S
C1107 C1103 1.429 . S
C1107 C1108 1.523 . S
C1108 C1092 1.368 . S
C1108 C1104 1.368 . S
C1108 C1107 1.523 . S
H1109 C1084 0.950 . S
H1110 C1086 0.950 . S
H1111 C1087 0.949 . S
H1112 C1089 0.950 . S
H1113 C1091 0.950 . S
C1114 C1115 1.349 . S
C1114 C1116 1.327 . S
C1114 H1139 0.950 . S
C1115 C1114 1.349 . S
C1115 C1131 1.349 . S
C1116 C1114 1.327 . S
C1116 C1135 1.429 . S
C1116 H1140 0.950 . S
C1117 C1134 1.574 . S
C1117 C1136 1.368 . S
C1117 H1141 0.949 . S
H1118 C1122 0.949 . S
C1119 C1120 1.349 . S
C1119 C1121 1.327 . S
C1119 H1142 0.950 . S
C1120 C1119 1.349 . S
C1120 C1132 1.349 . S
C1121 C1119 1.327 . S
C1121 C1137 1.429 . S
C1121 H1143 0.950 . S
C1122 H1118 0.949 . S
C1122 C1130 1.574 . S
C1122 C1138 1.368 . S
H1123 C1131 0.950 . S
H1124 C1129 0.950 . S
H1125 C1130 0.949 . S
H1126 C1132 0.950 . S
H1127 C1133 0.950 . S
H1128 C1134 0.949 . S
C1129 H1124 0.950 . S
C1129 C1131 1.327 . S
C1129 C1135 1.429 . S
C1130 C1122 1.574 . S
C1130 H1125 0.949 . S
C1130 C1136 1.368 . S
C1131 C1115 1.349 . S
C1131 H1123 0.950 . S
C1131 C1129 1.327 . S
C1132 C1120 1.349 . S
C1132 H1126 0.950 . S
C1132 C1133 1.327 . S
C1133 H1127 0.950 . S
C1133 C1132 1.327 . S
C1133 C1137 1.429 . S
C1134 C1117 1.574 . S
C1134 H1128 0.949 . S
C1134 C1138 1.368 . S
C1135 C1116 1.429 . S
C1135 C1129 1.429 . S
C1135 C1136 1.523 . S
C1136 C1117 1.368 . S
C1136 C1130 1.368 . S
C1136 C1135 1.523 . S
C1137 C1121 1.429 . S
C1137 C1133 1.429 . S
C1137 C1138 1.523 . S
C1138 C1122 1.368 . S
C1138 C1134 1.368 . S
C1138 C1137 1.523 . S
H1139 C1114 0.950 . S
H1140 C1116 0.950 . S
H1141 C1117 0.949 . S
H1142 C1119 0.950 . S
H1143 C1121 0.950 . S
C1144 C1145 1.349 . S
C1144 C1146 1.327 . S
C1144 H1169 0.950 . S
C1145 C1144 1.349 . S
C1145 C1161 1.349 . S
C1146 C1144 1.327 . S
C1146 C1165 1.429 . S
C1146 H1170 0.950 . S
C1147 C1164 1.574 . S
C1147 C1166 1.368 . S
C1147 H1171 0.949 . S
H1148 C1152 0.949 . S
C1149 C1150 1.349 . S
C1149 C1151 1.327 . S
C1149 H1172 0.950 . S
C1150 C1149 1.349 . S
C1150 C1162 1.349 . S
C1151 C1149 1.327 . S
C1151 C1167 1.429 . S
C1151 H1173 0.950 . S
C1152 H1148 0.949 . S
C1152 C1160 1.574 . S
C1152 C1168 1.368 . S
H1153 C1161 0.950 . S
H1154 C1159 0.950 . S
H1155 C1160 0.949 . S
H1156 C1162 0.950 . S
H1157 C1163 0.950 . S
H1158 C1164 0.949 . S
C1159 H1154 0.950 . S
C1159 C1161 1.327 . S
C1159 C1165 1.429 . S
C1160 C1152 1.574 . S
C1160 H1155 0.949 . S
C1160 C1166 1.368 . S
C1161 C1145 1.349 . S
C1161 H1153 0.950 . S
C1161 C1159 1.327 . S
C1162 C1150 1.349 . S
C1162 H1156 0.950 . S
C1162 C1163 1.327 . S
C1163 H1157 0.950 . S
C1163 C1162 1.327 . S
C1163 C1167 1.429 . S
C1164 C1147 1.574 . S
C1164 H1158 0.949 . S
C1164 C1168 1.368 . S
C1165 C1146 1.429 . S
C1165 C1159 1.429 . S
C1165 C1166 1.523 . S
C1166 C1147 1.368 . S
C1166 C1160 1.368 . S
C1166 C1165 1.523 . S
C1167 C1151 1.429 . S
C1167 C1163 1.429 . S
C1167 C1168 1.523 . S
C1168 C1152 1.368 . S
C1168 C1164 1.368 . S
C1168 C1167 1.523 . S
H1169 C1144 0.950 . S
H1170 C1146 0.950 . S
H1171 C1147 0.949 . S
H1172 C1149 0.950 . S
H1173 C1151 0.950 . S
C1174 C1175 1.349 . S
C1174 C1176 1.327 . S
C1174 H1199 0.950 . S
C1175 C1174 1.349 . S
C1175 C1191 1.349 . S
C1176 C1174 1.327 . S
C1176 C1195 1.429 . S
C1176 H1200 0.950 . S
C1177 C1194 1.574 . S
C1177 C1196 1.368 . S
C1177 H1201 0.949 . S
H1178 C1182 0.949 . S
C1179 C1180 1.349 . S
C1179 C1181 1.327 . S
C1179 H1202 0.950 . S
C1180 C1179 1.349 . S
C1180 C1192 1.349 . S
C1181 C1179 1.327 . S
C1181 C1197 1.429 . S
C1181 H1203 0.950 . S
C1182 H1178 0.949 . S
C1182 C1190 1.574 . S
C1182 C1198 1.368 . S
H1183 C1191 0.950 . S
H1184 C1189 0.950 . S
H1185 C1190 0.949 . S
H1186 C1192 0.950 . S
H1187 C1193 0.950 . S
H1188 C1194 0.949 . S
C1189 H1184 0.950 . S
C1189 C1191 1.327 . S
C1189 C1195 1.429 . S
C1190 C1182 1.574 . S
C1190 H1185 0.949 . S
C1190 C1196 1.368 . S
C1191 C1175 1.349 . S
C1191 H1183 0.950 . S
C1191 C1189 1.327 . S
C1192 C1180 1.349 . S
C1192 H1186 0.950 . S
C1192 C1193 1.327 . S
C1193 H1187 0.950 . S
C1193 C1192 1.327 . S
C1193 C1197 1.429 . S
C1194 C1177 1.574 . S
C1194 H1188 0.949 . S
C1194 C1198 1.368 . S
C1195 C1176 1.429 . S
C1195 C1189 1.429 . S
C1195 C1196 1.523 . S
C1196 C1177 1.368 . S
C1196 C1190 1.368 . S
C1196 C1195 1.523 . S
C1197 C1181 1.429 . S
C1197 C1193 1.429 . S
C1197 C1198 1.523 . S
C1198 C1182 1.368 . S
C1198 C1194 1.368 . S
C1198 C1197 1.523 . S
H1199 C1174 0.950 . S
H1200 C1176 0.950 . S
H1201 C1177 0.949 . S
H1202 C1179 0.950 . S
H1203 C1181 0.950 . S
C1204 C1205 1.349 . S
C1204 C1206 1.327 . S
C1204 H1229 0.950 . S
C1205 C1204 1.349 . S
C1205 C1221 1.349 . S
C1206 C1204 1.327 . S
C1206 C1225 1.429 . S
C1206 H1230 0.950 . S
C1207 C1224 1.574 . S
C1207 C1226 1.368 . S
C1207 H1231 0.949 . S
H1208 C1212 0.949 . S
C1209 C1210 1.349 . S
C1209 C1211 1.327 . S
C1209 H1232 0.950 . S
C1210 C1209 1.349 . S
C1210 C1222 1.349 . S
C1211 C1209 1.327 . S
C1211 C1227 1.429 . S
C1211 H1233 0.950 . S
C1212 H1208 0.949 . S
C1212 C1220 1.574 . S
C1212 C1228 1.368 . S
H1213 C1221 0.950 . S
H1214 C1219 0.950 . S
H1215 C1220 0.949 . S
H1216 C1222 0.950 . S
H1217 C1223 0.950 . S
H1218 C1224 0.949 . S
C1219 H1214 0.950 . S
C1219 C1221 1.327 . S
C1219 C1225 1.429 . S
C1220 C1212 1.574 . S
C1220 H1215 0.949 . S
C1220 C1226 1.368 . S
C1221 C1205 1.349 . S
C1221 H1213 0.950 . S
C1221 C1219 1.327 . S
C1222 C1210 1.349 . S
C1222 H1216 0.950 . S
C1222 C1223 1.327 . S
C1223 H1217 0.950 . S
C1223 C1222 1.327 . S
C1223 C1227 1.429 . S
C1224 C1207 1.574 . S
C1224 H1218 0.949 . S
C1224 C1228 1.368 . S
C1225 C1206 1.429 . S
C1225 C1219 1.429 . S
C1225 C1226 1.523 . S
C1226 C1207 1.368 . S
C1226 C1220 1.368 . S
C1226 C1225 1.523 . S
C1227 C1211 1.429 . S
C1227 C1223 1.429 . S
C1227 C1228 1.523 . S
C1228 C1212 1.368 . S
C1228 C1224 1.368 . S
C1228 C1227 1.523 . S
H1229 C1204 0.950 . S
H1230 C1206 0.950 . S
H1231 C1207 0.949 . S
H1232 C1209 0.950 . S
H1233 C1211 0.950 . S
C1234 C1235 1.349 . S
C1234 C1236 1.327 . S
C1234 H1259 0.950 . S
C1235 C1234 1.349 . S
C1235 C1251 1.349 . S
C1236 C1234 1.327 . S
C1236 C1255 1.429 . S
C1236 H1260 0.950 . S
C1237 C1254 1.574 . S
C1237 C1256 1.368 . S
C1237 H1261 0.949 . S
H1238 C1242 0.949 . S
C1239 C1240 1.349 . S
C1239 C1241 1.327 . S
C1239 H1262 0.950 . S
C1240 C1239 1.349 . S
C1240 C1252 1.349 . S
C1241 C1239 1.327 . S
C1241 C1257 1.429 . S
C1241 H1263 0.950 . S
C1242 H1238 0.949 . S
C1242 C1250 1.574 . S
C1242 C1258 1.368 . S
H1243 C1251 0.950 . S
H1244 C1249 0.950 . S
H1245 C1250 0.949 . S
H1246 C1252 0.950 . S
H1247 C1253 0.950 . S
H1248 C1254 0.949 . S
C1249 H1244 0.950 . S
C1249 C1251 1.327 . S
C1249 C1255 1.429 . S
C1250 C1242 1.574 . S
C1250 H1245 0.949 . S
C1250 C1256 1.368 . S
C1251 C1235 1.349 . S
C1251 H1243 0.950 . S
C1251 C1249 1.327 . S
C1252 C1240 1.349 . S
C1252 H1246 0.950 . S
C1252 C1253 1.327 . S
C1253 H1247 0.950 . S
C1253 C1252 1.327 . S
C1253 C1257 1.429 . S
C1254 C1237 1.574 . S
C1254 H1248 0.949 . S
C1254 C1258 1.368 . S
C1255 C1236 1.429 . S
C1255 C1249 1.429 . S
C1255 C1256 1.523 . S
C1256 C1237 1.368 . S
C1256 C1250 1.368 . S
C1256 C1255 1.523 . S
C1257 C1241 1.429 . S
C1257 C1253 1.429 . S
C1257 C1258 1.523 . S
C1258 C1242 1.368 . S
C1258 C1254 1.368 . S
C1258 C1257 1.523 . S
H1259 C1234 0.950 . S
H1260 C1236 0.950 . S
H1261 C1237 0.949 . S
H1262 C1239 0.950 . S
H1263 C1241 0.950 . S
C1264 C1265 1.349 . S
C1264 C1266 1.327 . S
C1264 H1289 0.950 . S
C1265 C1264 1.349 . S
C1265 C1281 1.349 . S
C1266 C1264 1.327 . S
C1266 C1285 1.429 . S
C1266 H1290 0.950 . S
C1267 C1284 1.574 . S
C1267 C1286 1.368 . S
C1267 H1291 0.949 . S
H1268 C1272 0.949 . S
C1269 C1270 1.349 . S
C1269 C1271 1.327 . S
C1269 H1292 0.950 . S
C1270 C1269 1.349 . S
C1270 C1282 1.349 . S
C1271 C1269 1.327 . S
C1271 C1287 1.429 . S
C1271 H1293 0.950 . S
C1272 H1268 0.949 . S
C1272 C1280 1.574 . S
C1272 C1288 1.368 . S
H1273 C1281 0.950 . S
H1274 C1279 0.950 . S
H1275 C1280 0.949 . S
H1276 C1282 0.950 . S
H1277 C1283 0.950 . S
H1278 C1284 0.949 . S
C1279 H1274 0.950 . S
C1279 C1281 1.327 . S
C1279 C1285 1.429 . S
C1280 C1272 1.574 . S
C1280 H1275 0.949 . S
C1280 C1286 1.368 . S
C1281 C1265 1.349 . S
C1281 H1273 0.950 . S
C1281 C1279 1.327 . S
C1282 C1270 1.349 . S
C1282 H1276 0.950 . S
C1282 C1283 1.327 . S
C1283 H1277 0.950 . S
C1283 C1282 1.327 . S
C1283 C1287 1.429 . S
C1284 C1267 1.574 . S
C1284 H1278 0.949 . S
C1284 C1288 1.368 . S
C1285 C1266 1.429 . S
C1285 C1279 1.429 . S
C1285 C1286 1.523 . S
C1286 C1267 1.368 . S
C1286 C1280 1.368 . S
C1286 C1285 1.523 . S
C1287 C1271 1.429 . S
C1287 C1283 1.429 . S
C1287 C1288 1.523 . S
C1288 C1272 1.368 . S
C1288 C1284 1.368 . S
C1288 C1287 1.523 . S
H1289 C1264 0.950 . S
H1290 C1266 0.950 . S
H1291 C1267 0.949 . S
H1292 C1269 0.950 . S
H1293 C1271 0.950 . S
C1294 C1295 1.349 . S
C1294 C1296 1.327 1_455 S
C1294 H1319 0.950 . S
C1295 C1294 1.349 . S
C1295 C1311 1.349 1_455 S
C1296 C1294 1.327 1_655 S
C1296 C1315 1.429 . S
C1296 H1320 0.950 1_655 S
C1297 C1314 1.574 . S
C1297 C1316 1.368 . S
C1297 H1321 0.949 . S
H1298 C1302 0.949 . S
C1299 C1300 1.349 . S
C1299 C1301 1.327 . S
C1299 H1322 0.950 . S
C1300 C1299 1.349 . S
C1300 C1312 1.349 . S
C1301 C1299 1.327 . S
C1301 C1317 1.429 . S
C1301 H1323 0.950 . S
C1302 H1298 0.949 . S
C1302 C1310 1.574 . S
C1302 C1318 1.368 . S
H1303 C1311 0.950 . S
H1304 C1309 0.950 . S
H1305 C1310 0.949 . S
H1306 C1312 0.950 . S
H1307 C1313 0.950 . S
H1308 C1314 0.949 . S
C1309 H1304 0.950 . S
C1309 C1311 1.327 . S
C1309 C1315 1.429 . S
C1310 C1302 1.574 . S
C1310 H1305 0.949 . S
C1310 C1316 1.368 . S
C1311 C1295 1.349 1_655 S
C1311 H1303 0.950 . S
C1311 C1309 1.327 . S
C1312 C1300 1.349 . S
C1312 H1306 0.950 . S
C1312 C1313 1.327 . S
C1313 H1307 0.950 . S
C1313 C1312 1.327 . S
C1313 C1317 1.429 . S
C1314 C1297 1.574 . S
C1314 H1308 0.949 . S
C1314 C1318 1.368 . S
C1315 C1296 1.429 . S
C1315 C1309 1.429 . S
C1315 C1316 1.523 . S
C1316 C1297 1.368 . S
C1316 C1310 1.368 . S
C1316 C1315 1.523 . S
C1317 C1301 1.429 . S
C1317 C1313 1.429 . S
C1317 C1318 1.523 . S
C1318 C1302 1.368 . S
C1318 C1314 1.368 . S
C1318 C1317 1.523 . S
H1319 C1294 0.950 . S
H1320 C1296 0.950 1_455 S
H1321 C1297 0.949 . S
H1322 C1299 0.950 . S
H1323 C1301 0.950 . S
C1324 C1325 1.349 . S
C1324 C1326 1.327 . S
C1324 H1349 0.950 . S
C1325 C1324 1.349 . S
C1325 C1341 1.349 . S
C1326 C1324 1.327 . S
C1326 C1345 1.429 . S
C1326 H1350 0.950 . S
C1327 C1344 1.574 . S
C1327 C1346 1.368 . S
C1327 H1351 0.949 . S
H1328 C1332 0.949 . S
C1329 C1330 1.349 . S
C1329 C1331 1.327 . S
C1329 H1352 0.950 . S
C1330 C1329 1.349 . S
C1330 C1342 1.349 . S
C1331 C1329 1.327 . S
C1331 C1347 1.429 . S
C1331 H1353 0.950 . S
C1332 H1328 0.949 . S
C1332 C1340 1.574 . S
C1332 C1348 1.368 . S
H1333 C1341 0.950 . S
H1334 C1339 0.950 . S
H1335 C1340 0.949 . S
H1336 C1342 0.950 . S
H1337 C1343 0.950 . S
H1338 C1344 0.949 . S
C1339 H1334 0.950 . S
C1339 C1341 1.327 . S
C1339 C1345 1.429 . S
C1340 C1332 1.574 . S
C1340 H1335 0.949 . S
C1340 C1346 1.368 . S
C1341 C1325 1.349 . S
C1341 H1333 0.950 . S
C1341 C1339 1.327 . S
C1342 C1330 1.349 . S
C1342 H1336 0.950 . S
C1342 C1343 1.327 . S
C1343 H1337 0.950 . S
C1343 C1342 1.327 . S
C1343 C1347 1.429 . S
C1344 C1327 1.574 . S
C1344 H1338 0.949 . S
C1344 C1348 1.368 . S
C1345 C1326 1.429 . S
C1345 C1339 1.429 . S
C1345 C1346 1.523 . S
C1346 C1327 1.368 . S
C1346 C1340 1.368 . S
C1346 C1345 1.523 . S
C1347 C1331 1.429 . S
C1347 C1343 1.429 . S
C1347 C1348 1.523 . S
C1348 C1332 1.368 . S
C1348 C1344 1.368 . S
C1348 C1347 1.523 . S
H1349 C1324 0.950 . S
H1350 C1326 0.950 . S
H1351 C1327 0.949 . S
H1352 C1329 0.950 . S
H1353 C1331 0.950 . S
C1354 C1355 1.349 . S
C1354 C1356 1.327 1_455 S
C1354 H1379 0.950 . S
C1355 C1354 1.349 . S
C1355 C1371 1.349 1_455 S
C1356 C1354 1.327 1_655 S
C1356 C1375 1.429 . S
C1356 H1380 0.950 1_655 S
C1357 C1374 1.574 . S
C1357 C1376 1.368 . S
C1357 H1381 0.949 . S
H1358 C1362 0.949 . S
C1359 C1360 1.349 . S
C1359 C1361 1.327 . S
C1359 H1382 0.950 . S
C1360 C1359 1.349 . S
C1360 C1372 1.349 . S
C1361 C1359 1.327 . S
C1361 C1377 1.429 . S
C1361 H1383 0.950 . S
C1362 H1358 0.949 . S
C1362 C1370 1.574 . S
C1362 C1378 1.368 . S
H1363 C1371 0.950 . S
H1364 C1369 0.950 . S
H1365 C1370 0.949 . S
H1366 C1372 0.950 . S
H1367 C1373 0.950 . S
H1368 C1374 0.949 . S
C1369 H1364 0.950 . S
C1369 C1371 1.327 . S
C1369 C1375 1.429 . S
C1370 C1362 1.574 . S
C1370 H1365 0.949 . S
C1370 C1376 1.368 . S
C1371 C1355 1.349 1_655 S
C1371 H1363 0.950 . S
C1371 C1369 1.327 . S
C1372 C1360 1.349 . S
C1372 H1366 0.950 . S
C1372 C1373 1.327 . S
C1373 H1367 0.950 . S
C1373 C1372 1.327 . S
C1373 C1377 1.429 . S
C1374 C1357 1.574 . S
C1374 H1368 0.949 . S
C1374 C1378 1.368 . S
C1375 C1356 1.429 . S
C1375 C1369 1.429 . S
C1375 C1376 1.523 . S
C1376 C1357 1.368 . S
C1376 C1370 1.368 . S
C1376 C1375 1.523 . S
C1377 C1361 1.429 . S
C1377 C1373 1.429 . S
C1377 C1378 1.523 . S
C1378 C1362 1.368 . S
C1378 C1374 1.368 . S
C1378 C1377 1.523 . S
H1379 C1354 0.950 . S
H1380 C1356 0.950 1_455 S
H1381 C1357 0.949 . S
H1382 C1359 0.950 . S
H1383 C1361 0.950 . S
C1384 C1385 1.349 . S
C1384 C1386 1.327 . S
C1384 H1409 0.950 . S
C1385 C1384 1.349 . S
C1385 C1401 1.349 . S
C1386 C1384 1.327 . S
C1386 C1405 1.429 . S
C1386 H1410 0.950 . S
C1387 C1404 1.574 . S
C1387 C1406 1.368 . S
C1387 H1411 0.949 . S
H1388 C1392 0.949 . S
C1389 C1390 1.349 . S
C1389 C1391 1.327 . S
C1389 H1412 0.950 . S
C1390 C1389 1.349 . S
C1390 C1402 1.349 . S
C1391 C1389 1.327 . S
C1391 C1407 1.429 . S
C1391 H1413 0.950 . S
C1392 H1388 0.949 . S
C1392 C1400 1.574 . S
C1392 C1408 1.368 . S
H1393 C1401 0.950 . S
H1394 C1399 0.950 . S
H1395 C1400 0.949 . S
H1396 C1402 0.950 . S
H1397 C1403 0.950 . S
H1398 C1404 0.949 . S
C1399 H1394 0.950 . S
C1399 C1401 1.327 . S
C1399 C1405 1.429 . S
C1400 C1392 1.574 . S
C1400 H1395 0.949 . S
C1400 C1406 1.368 . S
C1401 C1385 1.349 . S
C1401 H1393 0.950 . S
C1401 C1399 1.327 . S
C1402 C1390 1.349 . S
C1402 H1396 0.950 . S
C1402 C1403 1.327 . S
C1403 H1397 0.950 . S
C1403 C1402 1.327 . S
C1403 C1407 1.429 . S
C1404 C1387 1.574 . S
C1404 H1398 0.949 . S
C1404 C1408 1.368 . S
C1405 C1386 1.429 . S
C1405 C1399 1.429 . S
C1405 C1406 1.523 . S
C1406 C1387 1.368 . S
C1406 C1400 1.368 . S
C1406 C1405 1.523 . S
C1407 C1391 1.429 . S
C1407 C1403 1.429 . S
C1407 C1408 1.523 . S
C1408 C1392 1.368 . S
C1408 C1404 1.368 . S
C1408 C1407 1.523 . S
H1409 C1384 0.950 . S
H1410 C1386 0.950 . S
H1411 C1387 0.949 . S
H1412 C1389 0.950 . S
H1413 C1391 0.950 . S
C1414 C1415 1.349 . S
C1414 C1416 1.327 . S
C1414 H1439 0.950 . S
C1415 C1414 1.349 . S
C1415 C1431 1.349 . S
C1416 C1414 1.327 . S
C1416 C1435 1.429 . S
C1416 H1440 0.950 . S
C1417 C1434 1.574 . S
C1417 C1436 1.368 . S
C1417 H1441 0.949 . S
H1418 C1422 0.949 . S
C1419 C1420 1.349 . S
C1419 C1421 1.327 1_655 S
C1419 H1442 0.950 . S
C1420 C1419 1.349 . S
C1420 C1432 1.349 1_655 S
C1421 C1419 1.327 1_455 S
C1421 C1437 1.429 . S
C1421 H1443 0.950 1_455 S
C1422 H1418 0.949 . S
C1422 C1430 1.574 . S
C1422 C1438 1.368 . S
H1423 C1431 0.950 . S
H1424 C1429 0.950 . S
H1425 C1430 0.949 . S
H1426 C1432 0.950 . S
H1427 C1433 0.950 . S
H1428 C1434 0.949 . S
C1429 H1424 0.950 . S
C1429 C1431 1.327 . S
C1429 C1435 1.429 . S
C1430 C1422 1.574 . S
C1430 H1425 0.949 . S
C1430 C1436 1.368 . S
C1431 C1415 1.349 . S
C1431 H1423 0.950 . S
C1431 C1429 1.327 . S
C1432 C1420 1.349 1_455 S
C1432 H1426 0.950 . S
C1432 C1433 1.327 . S
C1433 H1427 0.950 . S
C1433 C1432 1.327 . S
C1433 C1437 1.429 . S
C1434 C1417 1.574 . S
C1434 H1428 0.949 . S
C1434 C1438 1.368 . S
C1435 C1416 1.429 . S
C1435 C1429 1.429 . S
C1435 C1436 1.523 . S
C1436 C1417 1.368 . S
C1436 C1430 1.368 . S
C1436 C1435 1.523 . S
C1437 C1421 1.429 . S
C1437 C1433 1.429 . S
C1437 C1438 1.523 . S
C1438 C1422 1.368 . S
C1438 C1434 1.368 . S
C1438 C1437 1.523 . S
H1439 C1414 0.950 . S
H1440 C1416 0.950 . S
H1441 C1417 0.949 . S
H1442 C1419 0.950 . S
H1443 C1421 0.950 1_655 S
C1444 C1445 1.349 . S
C1444 C1446 1.327 . S
C1444 H1469 0.950 . S
C1445 C1444 1.349 . S
C1445 C1461 1.349 . S
C1446 C1444 1.327 . S
C1446 C1465 1.429 . S
C1446 H1470 0.950 . S
C1447 C1464 1.574 . S
C1447 C1466 1.368 . S
C1447 H1471 0.949 . S
H1448 C1452 0.949 . S
C1449 C1450 1.349 . S
C1449 C1451 1.327 . S
C1449 H1472 0.950 . S
C1450 C1449 1.349 . S
C1450 C1462 1.349 . S
C1451 C1449 1.327 . S
C1451 C1467 1.429 . S
C1451 H1473 0.950 . S
C1452 H1448 0.949 . S
C1452 C1460 1.574 . S
C1452 C1468 1.368 . S
H1453 C1461 0.950 . S
H1454 C1459 0.950 . S
H1455 C1460 0.949 . S
H1456 C1462 0.950 . S
H1457 C1463 0.950 . S
H1458 C1464 0.949 . S
C1459 H1454 0.950 . S
C1459 C1461 1.327 . S
C1459 C1465 1.429 . S
C1460 C1452 1.574 . S
C1460 H1455 0.949 . S
C1460 C1466 1.368 . S
C1461 C1445 1.349 . S
C1461 H1453 0.950 . S
C1461 C1459 1.327 . S
C1462 C1450 1.349 . S
C1462 H1456 0.950 . S
C1462 C1463 1.327 . S
C1463 H1457 0.950 . S
C1463 C1462 1.327 . S
C1463 C1467 1.429 . S
C1464 C1447 1.574 . S
C1464 H1458 0.949 . S
C1464 C1468 1.368 . S
C1465 C1446 1.429 . S
C1465 C1459 1.429 . S
C1465 C1466 1.523 . S
C1466 C1447 1.368 . S
C1466 C1460 1.368 . S
C1466 C1465 1.523 . S
C1467 C1451 1.429 . S
C1467 C1463 1.429 . S
C1467 C1468 1.523 . S
C1468 C1452 1.368 . S
C1468 C1464 1.368 . S
C1468 C1467 1.523 . S
H1469 C1444 0.950 . S
H1470 C1446 0.950 . S
H1471 C1447 0.949 . S
H1472 C1449 0.950 . S
H1473 C1451 0.950 . S
C1474 C1475 1.349 . S
C1474 C1476 1.327 . S
C1474 H1499 0.950 . S
C1475 C1474 1.349 . S
C1475 C1491 1.349 . S
C1476 C1474 1.327 . S
C1476 C1495 1.429 . S
C1476 H1500 0.950 . S
C1477 C1494 1.574 . S
C1477 C1496 1.368 . S
C1477 H1501 0.949 . S
H1478 C1482 0.949 . S
C1479 C1480 1.349 . S
C1479 C1481 1.327 1_655 S
C1479 H1502 0.950 . S
C1480 C1479 1.349 . S
C1480 C1492 1.349 1_655 S
C1481 C1479 1.327 1_455 S
C1481 C1497 1.429 . S
C1481 H1503 0.950 1_455 S
C1482 H1478 0.949 . S
C1482 C1490 1.574 . S
C1482 C1498 1.368 . S
H1483 C1491 0.950 . S
H1484 C1489 0.950 . S
H1485 C1490 0.949 . S
H1486 C1492 0.950 . S
H1487 C1493 0.950 . S
H1488 C1494 0.949 . S
C1489 H1484 0.950 . S
C1489 C1491 1.327 . S
C1489 C1495 1.429 . S
C1490 C1482 1.574 . S
C1490 H1485 0.949 . S
C1490 C1496 1.368 . S
C1491 C1475 1.349 . S
C1491 H1483 0.950 . S
C1491 C1489 1.327 . S
C1492 C1480 1.349 1_455 S
C1492 H1486 0.950 . S
C1492 C1493 1.327 . S
C1493 H1487 0.950 . S
C1493 C1492 1.327 . S
C1493 C1497 1.429 . S
C1494 C1477 1.574 . S
C1494 H1488 0.949 . S
C1494 C1498 1.368 . S
C1495 C1476 1.429 . S
C1495 C1489 1.429 . S
C1495 C1496 1.523 . S
C1496 C1477 1.368 . S
C1496 C1490 1.368 . S
C1496 C1495 1.523 . S
C1497 C1481 1.429 . S
C1497 C1493 1.429 . S
C1497 C1498 1.523 . S
C1498 C1482 1.368 . S
C1498 C1494 1.368 . S
C1498 C1497 1.523 . S
H1499 C1474 0.950 . S
H1500 C1476 0.950 . S
H1501 C1477 0.949 . S
H1502 C1479 0.950 . S
H1503 C1481 0.950 1_655 S
C1504 C1505 1.349 . S
C1504 C1506 1.327 . S
C1504 H1529 0.950 . S
C1505 C1504 1.349 . S
C1505 C1521 1.349 . S
C1506 C1504 1.327 . S
C1506 C1525 1.429 . S
C1506 H1530 0.950 . S
C1507 C1524 1.574 . S
C1507 C1526 1.368 . S
C1507 H1531 0.949 . S
H1508 C1512 0.949 . S
C1509 C1510 1.349 . S
C1509 C1511 1.327 . S
C1509 H1532 0.950 . S
C1510 C1509 1.349 . S
C1510 C1522 1.349 . S
C1511 C1509 1.327 . S
C1511 C1527 1.429 . S
C1511 H1533 0.950 . S
C1512 H1508 0.949 . S
C1512 C1520 1.574 . S
C1512 C1528 1.368 . S
H1513 C1521 0.950 . S
H1514 C1519 0.950 . S
H1515 C1520 0.949 . S
H1516 C1522 0.950 . S
H1517 C1523 0.950 . S
H1518 C1524 0.949 . S
C1519 H1514 0.950 . S
C1519 C1521 1.327 . S
C1519 C1525 1.429 . S
C1520 C1512 1.574 . S
C1520 H1515 0.949 . S
C1520 C1526 1.368 . S
C1521 C1505 1.349 . S
C1521 H1513 0.950 . S
C1521 C1519 1.327 . S
C1522 C1510 1.349 . S
C1522 H1516 0.950 . S
C1522 C1523 1.327 . S
C1523 H1517 0.950 . S
C1523 C1522 1.327 . S
C1523 C1527 1.429 . S
C1524 C1507 1.574 . S
C1524 H1518 0.949 . S
C1524 C1528 1.368 . S
C1525 C1506 1.429 . S
C1525 C1519 1.429 . S
C1525 C1526 1.523 . S
C1526 C1507 1.368 . S
C1526 C1520 1.368 . S
C1526 C1525 1.523 . S
C1527 C1511 1.429 . S
C1527 C1523 1.429 . S
C1527 C1528 1.523 . S
C1528 C1512 1.368 . S
C1528 C1524 1.368 . S
C1528 C1527 1.523 . S
H1529 C1504 0.950 . S
H1530 C1506 0.950 . S
H1531 C1507 0.949 . S
H1532 C1509 0.950 . S
H1533 C1511 0.950 . S
C1534 C1535 1.349 1_655 S
C1534 C1536 1.327 . S
C1534 H1559 0.950 . S
C1535 C1534 1.349 1_455 S
C1535 C1551 1.349 . S
C1536 C1534 1.327 . S
C1536 C1555 1.429 . S
C1536 H1560 0.950 . S
C1537 C1554 1.574 . S
C1537 C1556 1.368 . S
C1537 H1561 0.949 . S
H1538 C1542 0.949 . S
C1539 C1540 1.349 . S
C1539 C1541 1.327 . S
C1539 H1562 0.950 . S
C1540 C1539 1.349 . S
C1540 C1552 1.349 . S
C1541 C1539 1.327 . S
C1541 C1557 1.429 . S
C1541 H1563 0.950 . S
C1542 H1538 0.949 . S
C1542 C1550 1.574 . S
C1542 C1558 1.368 . S
H1543 C1551 0.950 . S
H1544 C1549 0.950 1_455 S
H1545 C1550 0.949 . S
H1546 C1552 0.950 . S
H1547 C1553 0.950 . S
H1548 C1554 0.949 . S
C1549 H1544 0.950 1_655 S
C1549 C1551 1.327 1_655 S
C1549 C1555 1.429 . S
C1550 C1542 1.574 . S
C1550 H1545 0.949 . S
C1550 C1556 1.368 . S
C1551 C1535 1.349 . S
C1551 H1543 0.950 . S
C1551 C1549 1.327 1_455 S
C1552 C1540 1.349 . S
C1552 H1546 0.950 . S
C1552 C1553 1.327 . S
C1553 H1547 0.950 . S
C1553 C1552 1.327 . S
C1553 C1557 1.429 . S
C1554 C1537 1.574 . S
C1554 H1548 0.949 . S
C1554 C1558 1.368 . S
C1555 C1536 1.429 . S
C1555 C1549 1.429 . S
C1555 C1556 1.523 . S
C1556 C1537 1.368 . S
C1556 C1550 1.368 . S
C1556 C1555 1.523 . S
C1557 C1541 1.429 . S
C1557 C1553 1.429 . S
C1557 C1558 1.523 . S
C1558 C1542 1.368 . S
C1558 C1554 1.368 . S
C1558 C1557 1.523 . S
H1559 C1534 0.950 . S
H1560 C1536 0.950 . S
H1561 C1537 0.949 . S
H1562 C1539 0.950 . S
H1563 C1541 0.950 . S
C1564 C1565 1.349 . S
C1564 C1566 1.327 . S
C1564 H1589 0.950 . S
C1565 C1564 1.349 . S
C1565 C1581 1.349 . S
C1566 C1564 1.327 . S
C1566 C1585 1.429 . S
C1566 H1590 0.950 . S
C1567 C1584 1.574 . S
C1567 C1586 1.368 . S
C1567 H1591 0.949 . S
H1568 C1572 0.949 . S
C1569 C1570 1.349 . S
C1569 C1571 1.327 . S
C1569 H1592 0.950 . S
C1570 C1569 1.349 . S
C1570 C1582 1.349 . S
C1571 C1569 1.327 . S
C1571 C1587 1.429 . S
C1571 H1593 0.950 . S
C1572 H1568 0.949 . S
C1572 C1580 1.574 . S
C1572 C1588 1.368 . S
H1573 C1581 0.950 . S
H1574 C1579 0.950 . S
H1575 C1580 0.949 . S
H1576 C1582 0.950 . S
H1577 C1583 0.950 . S
H1578 C1584 0.949 . S
C1579 H1574 0.950 . S
C1579 C1581 1.327 . S
C1579 C1585 1.429 . S
C1580 C1572 1.574 . S
C1580 H1575 0.949 . S
C1580 C1586 1.368 . S
C1581 C1565 1.349 . S
C1581 H1573 0.950 . S
C1581 C1579 1.327 . S
C1582 C1570 1.349 . S
C1582 H1576 0.950 . S
C1582 C1583 1.327 . S
C1583 H1577 0.950 . S
C1583 C1582 1.327 . S
C1583 C1587 1.429 . S
C1584 C1567 1.574 . S
C1584 H1578 0.949 . S
C1584 C1588 1.368 . S
C1585 C1566 1.429 . S
C1585 C1579 1.429 . S
C1585 C1586 1.523 . S
C1586 C1567 1.368 . S
C1586 C1580 1.368 . S
C1586 C1585 1.523 . S
C1587 C1571 1.429 . S
C1587 C1583 1.429 . S
C1587 C1588 1.523 . S
C1588 C1572 1.368 . S
C1588 C1584 1.368 . S
C1588 C1587 1.523 . S
H1589 C1564 0.950 . S
H1590 C1566 0.950 . S
H1591 C1567 0.949 . S
H1592 C1569 0.950 . S
H1593 C1571 0.950 . S
C1594 C1595 1.349 . S
C1594 C1596 1.327 . S
C1594 H1619 0.950 . S
C1595 C1594 1.349 . S
C1595 C1611 1.349 . S
C1596 C1594 1.327 . S
C1596 C1615 1.429 . S
C1596 H1620 0.950 . S
C1597 C1614 1.574 . S
C1597 C1616 1.368 . S
C1597 H1621 0.949 . S
H1598 C1602 0.949 . S
C1599 C1600 1.349 1_655 S
C1599 C1601 1.327 . S
C1599 H1622 0.950 . S
C1600 C1599 1.349 1_455 S
C1600 C1612 1.349 . S
C1601 C1599 1.327 . S
C1601 C1617 1.429 . S
C1601 H1623 0.950 . S
C1602 H1598 0.949 . S
C1602 C1610 1.574 . S
C1602 C1618 1.368 . S
H1603 C1611 0.950 . S
H1604 C1609 0.950 . S
H1605 C1610 0.949 . S
H1606 C1612 0.950 . S
H1607 C1613 0.950 1_455 S
H1608 C1614 0.949 . S
C1609 H1604 0.950 . S
C1609 C1611 1.327 . S
C1609 C1615 1.429 . S
C1610 C1602 1.574 . S
C1610 H1605 0.949 . S
C1610 C1616 1.368 . S
C1611 C1595 1.349 . S
C1611 H1603 0.950 . S
C1611 C1609 1.327 . S
C1612 C1600 1.349 . S
C1612 H1606 0.950 . S
C1612 C1613 1.327 1_455 S
C1613 H1607 0.950 1_655 S
C1613 C1612 1.327 1_655 S
C1613 C1617 1.429 . S
C1614 C1597 1.574 . S
C1614 H1608 0.949 . S
C1614 C1618 1.368 . S
C1615 C1596 1.429 . S
C1615 C1609 1.429 . S
C1615 C1616 1.523 . S
C1616 C1597 1.368 . S
C1616 C1610 1.368 . S
C1616 C1615 1.523 . S
C1617 C1601 1.429 . S
C1617 C1613 1.429 . S
C1617 C1618 1.523 . S
C1618 C1602 1.368 . S
C1618 C1614 1.368 . S
C1618 C1617 1.523 . S
H1619 C1594 0.950 . S
H1620 C1596 0.950 . S
H1621 C1597 0.949 . S
H1622 C1599 0.950 . S
H1623 C1601 0.950 . S
C1624 C1625 1.349 . S
C1624 C1626 1.327 . S
C1624 H1649 0.950 . S
C1625 C1624 1.349 . S
C1625 C1641 1.349 . S
C1626 C1624 1.327 . S
C1626 C1645 1.429 . S
C1626 H1650 0.950 . S
C1627 C1644 1.574 . S
C1627 C1646 1.368 . S
C1627 H1651 0.949 . S
H1628 C1632 0.949 . S
C1629 C1630 1.349 . S
C1629 C1631 1.327 . S
C1629 H1652 0.950 . S
C1630 C1629 1.349 . S
C1630 C1642 1.349 . S
C1631 C1629 1.327 . S
C1631 C1647 1.429 . S
C1631 H1653 0.950 . S
C1632 H1628 0.949 . S
C1632 C1640 1.574 . S
C1632 C1648 1.368 . S
H1633 C1641 0.950 . S
H1634 C1639 0.950 . S
H1635 C1640 0.949 . S
H1636 C1642 0.950 . S
H1637 C1643 0.950 . S
H1638 C1644 0.949 . S
C1639 H1634 0.950 . S
C1639 C1641 1.327 . S
C1639 C1645 1.429 . S
C1640 C1632 1.574 . S
C1640 H1635 0.949 . S
C1640 C1646 1.368 . S
C1641 C1625 1.349 . S
C1641 H1633 0.950 . S
C1641 C1639 1.327 . S
C1642 C1630 1.349 . S
C1642 H1636 0.950 . S
C1642 C1643 1.327 . S
C1643 H1637 0.950 . S
C1643 C1642 1.327 . S
C1643 C1647 1.429 . S
C1644 C1627 1.574 . S
C1644 H1638 0.949 . S
C1644 C1648 1.368 . S
C1645 C1626 1.429 . S
C1645 C1639 1.429 . S
C1645 C1646 1.523 . S
C1646 C1627 1.368 . S
C1646 C1640 1.368 . S
C1646 C1645 1.523 . S
C1647 C1631 1.429 . S
C1647 C1643 1.429 . S
C1647 C1648 1.523 . S
C1648 C1632 1.368 . S
C1648 C1644 1.368 . S
C1648 C1647 1.523 . S
H1649 C1624 0.950 . S
H1650 C1626 0.950 . S
H1651 C1627 0.949 . S
H1652 C1629 0.950 . S
H1653 C1631 0.950 . S
C1654 C1655 1.349 . S
C1654 C1656 1.327 1_655 S
C1654 H1679 0.950 . S
C1655 C1654 1.349 . S
C1655 C1671 1.349 1_655 S
C1656 C1654 1.327 1_455 S
C1656 C1675 1.429 . S
C1656 H1680 0.950 1_455 S
C1657 C1674 1.574 . S
C1657 C1676 1.368 . S
C1657 H1681 0.949 . S
H1658 C1662 0.949 . S
C1659 C1660 1.349 . S
C1659 C1661 1.327 . S
C1659 H1682 0.950 . S
C1660 C1659 1.349 . S
C1660 C1672 1.349 . S
C1661 C1659 1.327 . S
C1661 C1677 1.429 . S
C1661 H1683 0.950 . S
C1662 H1658 0.949 . S
C1662 C1670 1.574 . S
C1662 C1678 1.368 . S
H1663 C1671 0.950 . S
H1664 C1669 0.950 . S
H1665 C1670 0.949 . S
H1666 C1672 0.950 . S
H1667 C1673 0.950 . S
H1668 C1674 0.949 . S
C1669 H1664 0.950 . S
C1669 C1671 1.327 . S
C1669 C1675 1.429 . S
C1670 C1662 1.574 . S
C1670 H1665 0.949 . S
C1670 C1676 1.368 . S
C1671 C1655 1.349 1_455 S
C1671 H1663 0.950 . S
C1671 C1669 1.327 . S
C1672 C1660 1.349 . S
C1672 H1666 0.950 . S
C1672 C1673 1.327 . S
C1673 H1667 0.950 . S
C1673 C1672 1.327 . S
C1673 C1677 1.429 . S
C1674 C1657 1.574 . S
C1674 H1668 0.949 . S
C1674 C1678 1.368 . S
C1675 C1656 1.429 . S
C1675 C1669 1.429 . S
C1675 C1676 1.523 . S
C1676 C1657 1.368 . S
C1676 C1670 1.368 . S
C1676 C1675 1.523 . S
C1677 C1661 1.429 . S
C1677 C1673 1.429 . S
C1677 C1678 1.523 . S
C1678 C1662 1.368 . S
C1678 C1674 1.368 . S
C1678 C1677 1.523 . S
H1679 C1654 0.950 . S
H1680 C1656 0.950 1_655 S
H1681 C1657 0.949 . S
H1682 C1659 0.950 . S
H1683 C1661 0.950 . S
C1684 C1685 1.349 . S
C1684 C1686 1.327 . S
C1684 H1709 0.950 . S
C1685 C1684 1.349 . S
C1685 C1701 1.349 . S
C1686 C1684 1.327 . S
C1686 C1705 1.429 . S
C1686 H1710 0.950 . S
C1687 C1704 1.574 . S
C1687 C1706 1.368 . S
C1687 H1711 0.949 . S
H1688 C1692 0.949 . S
C1689 C1690 1.349 . S
C1689 C1691 1.327 . S
C1689 H1712 0.950 . S
C1690 C1689 1.349 . S
C1690 C1702 1.349 . S
C1691 C1689 1.327 . S
C1691 C1707 1.429 . S
C1691 H1713 0.950 . S
C1692 H1688 0.949 . S
C1692 C1700 1.574 . S
C1692 C1708 1.368 . S
H1693 C1701 0.950 . S
H1694 C1699 0.950 . S
H1695 C1700 0.949 . S
H1696 C1702 0.950 . S
H1697 C1703 0.950 . S
H1698 C1704 0.949 . S
C1699 H1694 0.950 . S
C1699 C1701 1.327 . S
C1699 C1705 1.429 . S
C1700 C1692 1.574 . S
C1700 H1695 0.949 . S
C1700 C1706 1.368 . S
C1701 C1685 1.349 . S
C1701 H1693 0.950 . S
C1701 C1699 1.327 . S
C1702 C1690 1.349 . S
C1702 H1696 0.950 . S
C1702 C1703 1.327 . S
C1703 H1697 0.950 . S
C1703 C1702 1.327 . S
C1703 C1707 1.429 . S
C1704 C1687 1.574 . S
C1704 H1698 0.949 . S
C1704 C1708 1.368 . S
C1705 C1686 1.429 . S
C1705 C1699 1.429 . S
C1705 C1706 1.523 . S
C1706 C1687 1.368 . S
C1706 C1700 1.368 . S
C1706 C1705 1.523 . S
C1707 C1691 1.429 . S
C1707 C1703 1.429 . S
C1707 C1708 1.523 . S
C1708 C1692 1.368 . S
C1708 C1704 1.368 . S
C1708 C1707 1.523 . S
H1709 C1684 0.950 . S
H1710 C1686 0.950 . S
H1711 C1687 0.949 . S
H1712 C1689 0.950 . S
H1713 C1691 0.950 . S
C1714 C1715 1.349 1_455 S
C1714 C1716 1.327 . S
C1714 H1739 0.950 . S
C1715 C1714 1.349 1_655 S
C1715 C1731 1.349 . S
C1716 C1714 1.327 . S
C1716 C1735 1.429 . S
C1716 H1740 0.950 . S
C1717 C1734 1.574 . S
C1717 C1736 1.368 . S
C1717 H1741 0.949 . S
H1718 C1722 0.949 . S
C1719 C1720 1.349 . S
C1719 C1721 1.327 . S
C1719 H1742 0.950 . S
C1720 C1719 1.349 . S
C1720 C1732 1.349 . S
C1721 C1719 1.327 . S
C1721 C1737 1.429 . S
C1721 H1743 0.950 . S
C1722 H1718 0.949 . S
C1722 C1730 1.574 . S
C1722 C1738 1.368 . S
H1723 C1731 0.950 . S
H1724 C1729 0.950 1_655 S
H1725 C1730 0.949 . S
H1726 C1732 0.950 . S
H1727 C1733 0.950 . S
H1728 C1734 0.949 . S
C1729 H1724 0.950 1_455 S
C1729 C1731 1.327 1_455 S
C1729 C1735 1.429 . S
C1730 C1722 1.574 . S
C1730 H1725 0.949 . S
C1730 C1736 1.368 . S
C1731 C1715 1.349 . S
C1731 H1723 0.950 . S
C1731 C1729 1.327 1_655 S
C1732 C1720 1.349 . S
C1732 H1726 0.950 . S
C1732 C1733 1.327 . S
C1733 H1727 0.950 . S
C1733 C1732 1.327 . S
C1733 C1737 1.429 . S
C1734 C1717 1.574 . S
C1734 H1728 0.949 . S
C1734 C1738 1.368 . S
C1735 C1716 1.429 . S
C1735 C1729 1.429 . S
C1735 C1736 1.523 . S
C1736 C1717 1.368 . S
C1736 C1730 1.368 . S
C1736 C1735 1.523 . S
C1737 C1721 1.429 . S
C1737 C1733 1.429 . S
C1737 C1738 1.523 . S
C1738 C1722 1.368 . S
C1738 C1734 1.368 . S
C1738 C1737 1.523 . S
H1739 C1714 0.950 . S
H1740 C1716 0.950 . S
H1741 C1717 0.949 . S
H1742 C1719 0.950 . S
H1743 C1721 0.950 . S
C1744 C1745 1.349 . S
C1744 C1746 1.327 . S
C1744 H1769 0.950 . S
C1745 C1744 1.349 . S
C1745 C1761 1.349 . S
C1746 C1744 1.327 . S
C1746 C1765 1.429 . S
C1746 H1770 0.950 . S
C1747 C1764 1.574 . S
C1747 C1766 1.368 . S
C1747 H1771 0.949 . S
H1748 C1752 0.949 . S
C1749 C1750 1.349 . S
C1749 C1751 1.327 . S
C1749 H1772 0.950 . S
C1750 C1749 1.349 . S
C1750 C1762 1.349 . S
C1751 C1749 1.327 . S
C1751 C1767 1.429 . S
C1751 H1773 0.950 . S
C1752 H1748 0.949 . S
C1752 C1760 1.574 . S
C1752 C1768 1.368 . S
H1753 C1761 0.950 . S
H1754 C1759 0.950 . S
H1755 C1760 0.949 . S
H1756 C1762 0.950 . S
H1757 C1763 0.950 . S
H1758 C1764 0.949 . S
C1759 H1754 0.950 . S
C1759 C1761 1.327 . S
C1759 C1765 1.429 . S
C1760 C1752 1.574 . S
C1760 H1755 0.949 . S
C1760 C1766 1.368 . S
C1761 C1745 1.349 . S
C1761 H1753 0.950 . S
C1761 C1759 1.327 . S
C1762 C1750 1.349 . S
C1762 H1756 0.950 . S
C1762 C1763 1.327 . S
C1763 H1757 0.950 . S
C1763 C1762 1.327 . S
C1763 C1767 1.429 . S
C1764 C1747 1.574 . S
C1764 H1758 0.949 . S
C1764 C1768 1.368 . S
C1765 C1746 1.429 . S
C1765 C1759 1.429 . S
C1765 C1766 1.523 . S
C1766 C1747 1.368 . S
C1766 C1760 1.368 . S
C1766 C1765 1.523 . S
C1767 C1751 1.429 . S
C1767 C1763 1.429 . S
C1767 C1768 1.523 . S
C1768 C1752 1.368 . S
C1768 C1764 1.368 . S
C1768 C1767 1.523 . S
H1769 C1744 0.950 . S
H1770 C1746 0.950 . S
H1771 C1747 0.949 . S
H1772 C1749 0.950 . S
H1773 C1751 0.950 . S
C1774 C1775 1.349 . S
C1774 C1776 1.327 . S
C1774 H1799 0.950 . S
C1775 C1774 1.349 . S
C1775 C1791 1.349 . S
C1776 C1774 1.327 . S
C1776 C1795 1.429 . S
C1776 H1800 0.950 . S
C1777 C1794 1.574 . S
C1777 C1796 1.368 . S
C1777 H1801 0.949 . S
H1778 C1782 0.949 . S
C1779 C1780 1.349 . S
C1779 C1781 1.327 . S
C1779 H1802 0.950 . S
C1780 C1779 1.349 . S
C1780 C1792 1.349 . S
C1781 C1779 1.327 . S
C1781 C1797 1.429 . S
C1781 H1803 0.950 . S
C1782 H1778 0.949 . S
C1782 C1790 1.574 . S
C1782 C1798 1.368 . S
H1783 C1791 0.950 . S
H1784 C1789 0.950 . S
H1785 C1790 0.949 . S
H1786 C1792 0.950 . S
H1787 C1793 0.950 . S
H1788 C1794 0.949 . S
C1789 H1784 0.950 . S
C1789 C1791 1.327 . S
C1789 C1795 1.429 . S
C1790 C1782 1.574 . S
C1790 H1785 0.949 . S
C1790 C1796 1.368 . S
C1791 C1775 1.349 . S
C1791 H1783 0.950 . S
C1791 C1789 1.327 . S
C1792 C1780 1.349 . S
C1792 H1786 0.950 . S
C1792 C1793 1.327 . S
C1793 H1787 0.950 . S
C1793 C1792 1.327 . S
C1793 C1797 1.429 . S
C1794 C1777 1.574 . S
C1794 H1788 0.949 . S
C1794 C1798 1.368 . S
C1795 C1776 1.429 . S
C1795 C1789 1.429 . S
C1795 C1796 1.523 . S
C1796 C1777 1.368 . S
C1796 C1790 1.368 . S
C1796 C1795 1.523 . S
C1797 C1781 1.429 . S
C1797 C1793 1.429 . S
C1797 C1798 1.523 . S
C1798 C1782 1.368 . S
C1798 C1794 1.368 . S
C1798 C1797 1.523 . S
H1799 C1774 0.950 . S
H1800 C1776 0.950 . S
H1801 C1777 0.949 . S
H1802 C1779 0.950 . S
H1803 C1781 0.950 . S
C1804 C1805 1.349 . S
C1804 C1806 1.327 . S
C1804 H1829 0.950 . S
C1805 C1804 1.349 . S
C1805 C1821 1.349 . S
C1806 C1804 1.327 . S
C1806 C1825 1.429 . S
C1806 H1830 0.950 . S
C1807 C1824 1.574 . S
C1807 C1826 1.368 . S
C1807 H1831 0.949 . S
H1808 C1812 0.949 . S
C1809 C1810 1.349 . S
C1809 C1811 1.327 . S
C1809 H1832 0.950 . S
C1810 C1809 1.349 . S
C1810 C1822 1.349 . S
C1811 C1809 1.327 . S
C1811 C1827 1.429 . S
C1811 H1833 0.950 . S
C1812 H1808 0.949 . S
C1812 C1820 1.574 . S
C1812 C1828 1.368 . S
H1813 C1821 0.950 . S
H1814 C1819 0.950 . S
H1815 C1820 0.949 . S
H1816 C1822 0.950 . S
H1817 C1823 0.950 . S
H1818 C1824 0.949 . S
C1819 H1814 0.950 . S
C1819 C1821 1.327 . S
C1819 C1825 1.429 . S
C1820 C1812 1.574 . S
C1820 H1815 0.949 . S
C1820 C1826 1.368 . S
C1821 C1805 1.349 . S
C1821 H1813 0.950 . S
C1821 C1819 1.327 . S
C1822 C1810 1.349 . S
C1822 H1816 0.950 . S
C1822 C1823 1.327 . S
C1823 H1817 0.950 . S
C1823 C1822 1.327 . S
C1823 C1827 1.429 . S
C1824 C1807 1.574 . S
C1824 H1818 0.949 . S
C1824 C1828 1.368 . S
C1825 C1806 1.429 . S
C1825 C1819 1.429 . S
C1825 C1826 1.523 . S
C1826 C1807 1.368 . S
C1826 C1820 1.368 . S
C1826 C1825 1.523 . S
C1827 C1811 1.429 . S
C1827 C1823 1.429 . S
C1827 C1828 1.523 . S
C1828 C1812 1.368 . S
C1828 C1824 1.368 . S
C1828 C1827 1.523 . S
H1829 C1804 0.950 . S
H1830 C1806 0.950 . S
H1831 C1807 0.949 . S
H1832 C1809 0.950 . S
H1833 C1811 0.950 . S
C1834 C1835 1.349 . S
C1834 C1836 1.327 . S
C1834 H1859 0.950 . S
C1835 C1834 1.349 . S
C1835 C1851 1.349 . S
C1836 C1834 1.327 . S
C1836 C1855 1.429 . S
C1836 H1860 0.950 . S
C1837 C1854 1.574 . S
C1837 C1856 1.368 . S
C1837 H1861 0.949 . S
H1838 C1842 0.949 . S
C1839 C1840 1.349 . S
C1839 C1841 1.327 . S
C1839 H1862 0.950 . S
C1840 C1839 1.349 . S
C1840 C1852 1.349 . S
C1841 C1839 1.327 . S
C1841 C1857 1.429 . S
C1841 H1863 0.950 . S
C1842 H1838 0.949 . S
C1842 C1850 1.574 . S
C1842 C1858 1.368 . S
H1843 C1851 0.950 . S
H1844 C1849 0.950 . S
H1845 C1850 0.949 . S
H1846 C1852 0.950 . S
H1847 C1853 0.950 . S
H1848 C1854 0.949 . S
C1849 H1844 0.950 . S
C1849 C1851 1.327 . S
C1849 C1855 1.429 . S
C1850 C1842 1.574 . S
C1850 H1845 0.949 . S
C1850 C1856 1.368 . S
C1851 C1835 1.349 . S
C1851 H1843 0.950 . S
C1851 C1849 1.327 . S
C1852 C1840 1.349 . S
C1852 H1846 0.950 . S
C1852 C1853 1.327 . S
C1853 H1847 0.950 . S
C1853 C1852 1.327 . S
C1853 C1857 1.429 . S
C1854 C1837 1.574 . S
C1854 H1848 0.949 . S
C1854 C1858 1.368 . S
C1855 C1836 1.429 . S
C1855 C1849 1.429 . S
C1855 C1856 1.523 . S
C1856 C1837 1.368 . S
C1856 C1850 1.368 . S
C1856 C1855 1.523 . S
C1857 C1841 1.429 . S
C1857 C1853 1.429 . S
C1857 C1858 1.523 . S
C1858 C1842 1.368 . S
C1858 C1854 1.368 . S
C1858 C1857 1.523 . S
H1859 C1834 0.950 . S
H1860 C1836 0.950 . S
H1861 C1837 0.949 . S
H1862 C1839 0.950 . S
H1863 C1841 0.950 . S
C1864 C1865 1.349 1_554 S
C1864 C1866 1.327 . S
C1864 H1889 0.950 . S
C1865 C1864 1.349 1_556 S
C1865 C1881 1.349 . S
C1866 C1864 1.327 . S
C1866 C1885 1.429 1_554 S
C1866 H1890 0.950 . S
C1867 C1884 1.574 . S
C1867 C1886 1.368 . S
C1867 H1891 0.949 . S
H1868 C1872 0.949 . S
C1869 C1870 1.349 . S
C1869 C1871 1.327 . S
C1869 H1892 0.950 . S
C1870 C1869 1.349 . S
C1870 C1882 1.349 1_556 S
C1871 C1869 1.327 . S
C1871 C1887 1.429 . S
C1871 H1893 0.950 . S
C1872 H1868 0.949 . S
C1872 C1880 1.574 . S
C1872 C1888 1.368 1_554 S
H1873 C1881 0.950 . S
H1874 C1879 0.950 . S
H1875 C1880 0.949 . S
H1876 C1882 0.950 . S
H1877 C1883 0.950 . S
H1878 C1884 0.949 . S
C1879 H1874 0.950 . S
C1879 C1881 1.327 . S
C1879 C1885 1.429 . S
C1880 C1872 1.574 . S
C1880 H1875 0.949 . S
C1880 C1886 1.368 1_554 S
C1881 C1865 1.349 . S
C1881 H1873 0.950 . S
C1881 C1879 1.327 . S
C1882 C1870 1.349 1_554 S
C1882 H1876 0.950 . S
C1882 C1883 1.327 . S
C1883 H1877 0.950 . S
C1883 C1882 1.327 . S
C1883 C1887 1.429 1_554 S
C1884 C1867 1.574 . S
C1884 H1878 0.949 . S
C1884 C1888 1.368 . S
C1885 C1866 1.429 1_556 S
C1885 C1879 1.429 . S
C1885 C1886 1.523 . S
C1886 C1867 1.368 . S
C1886 C1880 1.368 1_556 S
C1886 C1885 1.523 . S
C1887 C1871 1.429 . S
C1887 C1883 1.429 1_556 S
C1887 C1888 1.523 . S
C1888 C1872 1.368 1_556 S
C1888 C1884 1.368 . S
C1888 C1887 1.523 . S
H1889 C1864 0.950 . S
H1890 C1866 0.950 . S
H1891 C1867 0.949 . S
H1892 C1869 0.950 . S
H1893 C1871 0.950 . S
C1894 C1895 1.349 . S
C1894 C1896 1.327 . S
C1894 H1919 0.950 . S
C1895 C1894 1.349 . S
C1895 C1911 1.349 . S
C1896 C1894 1.327 . S
C1896 C1915 1.429 . S
C1896 H1920 0.950 . S
C1897 C1914 1.574 . S
C1897 C1916 1.368 . S
C1897 H1921 0.949 . S
H1898 C1902 0.949 . S
C1899 C1900 1.349 . S
C1899 C1901 1.327 . S
C1899 H1922 0.950 . S
C1900 C1899 1.349 . S
C1900 C1912 1.349 . S
C1901 C1899 1.327 . S
C1901 C1917 1.429 . S
C1901 H1923 0.950 . S
C1902 H1898 0.949 . S
C1902 C1910 1.574 . S
C1902 C1918 1.368 . S
H1903 C1911 0.950 . S
H1904 C1909 0.950 . S
H1905 C1910 0.949 . S
H1906 C1912 0.950 . S
H1907 C1913 0.950 . S
H1908 C1914 0.949 . S
C1909 H1904 0.950 . S
C1909 C1911 1.327 . S
C1909 C1915 1.429 . S
C1910 C1902 1.574 . S
C1910 H1905 0.949 . S
C1910 C1916 1.368 . S
C1911 C1895 1.349 . S
C1911 H1903 0.950 . S
C1911 C1909 1.327 . S
C1912 C1900 1.349 . S
C1912 H1906 0.950 . S
C1912 C1913 1.327 . S
C1913 H1907 0.950 . S
C1913 C1912 1.327 . S
C1913 C1917 1.429 . S
C1914 C1897 1.574 . S
C1914 H1908 0.949 . S
C1914 C1918 1.368 . S
C1915 C1896 1.429 . S
C1915 C1909 1.429 . S
C1915 C1916 1.523 . S
C1916 C1897 1.368 . S
C1916 C1910 1.368 . S
C1916 C1915 1.523 . S
C1917 C1901 1.429 . S
C1917 C1913 1.429 . S
C1917 C1918 1.523 . S
C1918 C1902 1.368 . S
C1918 C1914 1.368 . S
C1918 C1917 1.523 . S
H1919 C1894 0.950 . S
H1920 C1896 0.950 . S
H1921 C1897 0.949 . S
H1922 C1899 0.950 . S
H1923 C1901 0.950 . S
C1924 C1925 1.349 . S
C1924 C1926 1.327 . S
C1924 H1949 0.950 . S
C1925 C1924 1.349 . S
C1925 C1941 1.349 1_554 S
C1926 C1924 1.327 . S
C1926 C1945 1.429 . S
C1926 H1950 0.950 . S
C1927 C1944 1.574 . S
C1927 C1946 1.368 1_556 S
C1927 H1951 0.949 . S
H1928 C1932 0.949 . S
C1929 C1930 1.349 1_556 S
C1929 C1931 1.327 . S
C1929 H1952 0.950 . S
C1930 C1929 1.349 1_554 S
C1930 C1942 1.349 . S
C1931 C1929 1.327 . S
C1931 C1947 1.429 1_556 S
C1931 H1953 0.950 . S
C1932 H1928 0.949 . S
C1932 C1940 1.574 . S
C1932 C1948 1.368 . S
H1933 C1941 0.950 . S
H1934 C1939 0.950 . S
H1935 C1940 0.949 . S
H1936 C1942 0.950 . S
H1937 C1943 0.950 . S
H1938 C1944 0.949 . S
C1939 H1934 0.950 . S
C1939 C1941 1.327 . S
C1939 C1945 1.429 1_556 S
C1940 C1932 1.574 . S
C1940 H1935 0.949 . S
C1940 C1946 1.368 . S
C1941 C1925 1.349 1_556 S
C1941 H1933 0.950 . S
C1941 C1939 1.327 . S
C1942 C1930 1.349 . S
C1942 H1936 0.950 . S
C1942 C1943 1.327 . S
C1943 H1937 0.950 . S
C1943 C1942 1.327 . S
C1943 C1947 1.429 . S
C1944 C1927 1.574 . S
C1944 H1938 0.949 . S
C1944 C1948 1.368 1_556 S
C1945 C1926 1.429 . S
C1945 C1939 1.429 1_554 S
C1945 C1946 1.523 . S
C1946 C1927 1.368 1_554 S
C1946 C1940 1.368 . S
C1946 C1945 1.523 . S
C1947 C1931 1.429 1_554 S
C1947 C1943 1.429 . S
C1947 C1948 1.523 . S
C1948 C1932 1.368 . S
C1948 C1944 1.368 1_554 S
C1948 C1947 1.523 . S
H1949 C1924 0.950 . S
H1950 C1926 0.950 . S
H1951 C1927 0.949 . S
H1952 C1929 0.950 . S
H1953 C1931 0.950 . S
C1954 C1955 1.349 . S
C1954 C1956 1.327 . S
C1954 H1979 0.950 . S
C1955 C1954 1.349 . S
C1955 C1971 1.349 . S
C1956 C1954 1.327 . S
C1956 C1975 1.429 . S
C1956 H1980 0.950 . S
C1957 C1974 1.574 . S
C1957 C1976 1.368 . S
C1957 H1981 0.949 . S
H1958 C1962 0.949 . S
C1959 C1960 1.349 . S
C1959 C1961 1.327 . S
C1959 H1982 0.950 . S
C1960 C1959 1.349 . S
C1960 C1972 1.349 . S
C1961 C1959 1.327 . S
C1961 C1977 1.429 . S
C1961 H1983 0.950 . S
C1962 H1958 0.949 . S
C1962 C1970 1.574 . S
C1962 C1978 1.368 . S
H1963 C1971 0.950 . S
H1964 C1969 0.950 . S
H1965 C1970 0.949 . S
H1966 C1972 0.950 . S
H1967 C1973 0.950 . S
H1968 C1974 0.949 . S
C1969 H1964 0.950 . S
C1969 C1971 1.327 . S
C1969 C1975 1.429 . S
C1970 C1962 1.574 . S
C1970 H1965 0.949 . S
C1970 C1976 1.368 . S
C1971 C1955 1.349 . S
C1971 H1963 0.950 . S
C1971 C1969 1.327 . S
C1972 C1960 1.349 . S
C1972 H1966 0.950 . S
C1972 C1973 1.327 . S
C1973 H1967 0.950 . S
C1973 C1972 1.327 . S
C1973 C1977 1.429 . S
C1974 C1957 1.574 . S
C1974 H1968 0.949 . S
C1974 C1978 1.368 . S
C1975 C1956 1.429 . S
C1975 C1969 1.429 . S
C1975 C1976 1.523 . S
C1976 C1957 1.368 . S
C1976 C1970 1.368 . S
C1976 C1975 1.523 . S
C1977 C1961 1.429 . S
C1977 C1973 1.429 . S
C1977 C1978 1.523 . S
C1978 C1962 1.368 . S
C1978 C1974 1.368 . S
C1978 C1977 1.523 . S
H1979 C1954 0.950 . S
H1980 C1956 0.950 . S
H1981 C1957 0.949 . S
H1982 C1959 0.950 . S
H1983 C1961 0.950 . S
C1984 C1985 1.349 . S
C1984 C1986 1.327 . S
C1984 H2009 0.950 . S
C1985 C1984 1.349 . S
C1985 C2001 1.349 1_556 S
C1986 C1984 1.327 . S
C1986 C2005 1.429 1_655 S
C1986 H2010 0.950 . S
C1987 C2004 1.574 . S
C1987 C2006 1.368 1_554 S
C1987 H2011 0.949 . S
H1988 C1992 0.949 . S
C1989 C1990 1.349 1_554 S
C1989 C1991 1.327 . S
C1989 H2012 0.950 . S
C1990 C1989 1.349 1_556 S
C1990 C2002 1.349 . S
C1991 C1989 1.327 . S
C1991 C2007 1.429 1_554 S
C1991 H2013 0.950 . S
C1992 H1988 0.949 . S
C1992 C2000 1.574 . S
C1992 C2008 1.368 . S
H1993 C2001 0.950 . S
H1994 C1999 0.950 . S
H1995 C2000 0.949 . S
H1996 C2002 0.950 . S
H1997 C2003 0.950 . S
H1998 C2004 0.949 . S
C1999 H1994 0.950 . S
C1999 C2001 1.327 . S
C1999 C2005 1.429 1_654 S
C2000 C1992 1.574 . S
C2000 H1995 0.949 . S
C2000 C2006 1.368 . S
C2001 C1985 1.349 1_554 S
C2001 H1993 0.950 . S
C2001 C1999 1.327 . S
C2002 C1990 1.349 . S
C2002 H1996 0.950 . S
C2002 C2003 1.327 . S
C2003 H1997 0.950 . S
C2003 C2002 1.327 . S
C2003 C2007 1.429 . S
C2004 C1987 1.574 . S
C2004 H1998 0.949 . S
C2004 C2008 1.368 1_554 S
C2005 C1986 1.429 1_455 S
C2005 C1999 1.429 1_456 S
C2005 C2006 1.523 . S
C2006 C1987 1.368 1_556 S
C2006 C2000 1.368 . S
C2006 C2005 1.523 . S
C2007 C1991 1.429 1_556 S
C2007 C2003 1.429 . S
C2007 C2008 1.523 . S
C2008 C1992 1.368 . S
C2008 C2004 1.368 1_556 S
C2008 C2007 1.523 . S
H2009 C1984 0.950 . S
H2010 C1986 0.950 . S
H2011 C1987 0.949 . S
H2012 C1989 0.950 . S
H2013 C1991 0.950 . S
C2014 C2015 1.349 . S
C2014 C2016 1.327 . S
C2014 H2039 0.950 . S
C2015 C2014 1.349 . S
C2015 C2031 1.349 . S
C2016 C2014 1.327 . S
C2016 C2035 1.429 1_655 S
C2016 H2040 0.950 . S
C2017 C2034 1.574 . S
C2017 C2036 1.368 . S
C2017 H2041 0.949 . S
H2018 C2022 0.949 . S
C2019 C2020 1.349 . S
C2019 C2021 1.327 . S
C2019 H2042 0.950 . S
C2020 C2019 1.349 . S
C2020 C2032 1.349 . S
C2021 C2019 1.327 . S
C2021 C2037 1.429 . S
C2021 H2043 0.950 . S
C2022 H2018 0.949 . S
C2022 C2030 1.574 . S
C2022 C2038 1.368 . S
H2023 C2031 0.950 . S
H2024 C2029 0.950 . S
H2025 C2030 0.949 . S
H2026 C2032 0.950 . S
H2027 C2033 0.950 . S
H2028 C2034 0.949 . S
C2029 H2024 0.950 . S
C2029 C2031 1.327 . S
C2029 C2035 1.429 1_655 S
C2030 C2022 1.574 . S
C2030 H2025 0.949 . S
C2030 C2036 1.368 . S
C2031 C2015 1.349 . S
C2031 H2023 0.950 . S
C2031 C2029 1.327 . S
C2032 C2020 1.349 . S
C2032 H2026 0.950 . S
C2032 C2033 1.327 . S
C2033 H2027 0.950 . S
C2033 C2032 1.327 . S
C2033 C2037 1.429 . S
C2034 C2017 1.574 . S
C2034 H2028 0.949 . S
C2034 C2038 1.368 . S
C2035 C2016 1.429 1_455 S
C2035 C2029 1.429 1_455 S
C2035 C2036 1.523 . S
C2036 C2017 1.368 . S
C2036 C2030 1.368 . S
C2036 C2035 1.523 . S
C2037 C2021 1.429 . S
C2037 C2033 1.429 . S
C2037 C2038 1.523 . S
C2038 C2022 1.368 . S
C2038 C2034 1.368 . S
C2038 C2037 1.523 . S
H2039 C2014 0.950 . S
H2040 C2016 0.950 . S
H2041 C2017 0.949 . S
H2042 C2019 0.950 . S
H2043 C2021 0.950 . S
C2044 C2045 1.349 1_556 S
C2044 C2046 1.327 . S
C2044 H2069 0.950 . S
C2045 C2044 1.349 1_554 S
C2045 C2061 1.349 . S
C2046 C2044 1.327 . S
C2046 C2065 1.429 1_556 S
C2046 H2070 0.950 . S
C2047 C2064 1.574 . S
C2047 C2066 1.368 . S
C2047 H2071 0.949 . S
H2048 C2052 0.949 . S
C2049 C2050 1.349 . S
C2049 C2051 1.327 . S
C2049 H2072 0.950 . S
C2050 C2049 1.349 . S
C2050 C2062 1.349 1_554 S
C2051 C2049 1.327 . S
C2051 C2067 1.429 1_455 S
C2051 H2073 0.950 . S
C2052 H2048 0.949 . S
C2052 C2060 1.574 . S
C2052 C2068 1.368 1_556 S
H2053 C2061 0.950 . S
H2054 C2059 0.950 . S
H2055 C2060 0.949 . S
H2056 C2062 0.950 . S
H2057 C2063 0.950 . S
H2058 C2064 0.949 . S
C2059 H2054 0.950 . S
C2059 C2061 1.327 . S
C2059 C2065 1.429 . S
C2060 C2052 1.574 . S
C2060 H2055 0.949 . S
C2060 C2066 1.368 1_556 S
C2061 C2045 1.349 . S
C2061 H2053 0.950 . S
C2061 C2059 1.327 . S
C2062 C2050 1.349 1_556 S
C2062 H2056 0.950 . S
C2062 C2063 1.327 . S
C2063 H2057 0.950 . S
C2063 C2062 1.327 . S
C2063 C2067 1.429 1_456 S
C2064 C2047 1.574 . S
C2064 H2058 0.949 . S
C2064 C2068 1.368 . S
C2065 C2046 1.429 1_554 S
C2065 C2059 1.429 . S
C2065 C2066 1.523 . S
C2066 C2047 1.368 . S
C2066 C2060 1.368 1_554 S
C2066 C2065 1.523 . S
C2067 C2051 1.429 1_655 S
C2067 C2063 1.429 1_654 S
C2067 C2068 1.523 . S
C2068 C2052 1.368 1_554 S
C2068 C2064 1.368 . S
C2068 C2067 1.523 . S
H2069 C2044 0.950 . S
H2070 C2046 0.950 . S
H2071 C2047 0.949 . S
H2072 C2049 0.950 . S
H2073 C2051 0.950 . S
C2074 C2075 1.349 . S
C2074 C2076 1.327 . S
C2074 H2099 0.950 . S
C2075 C2074 1.349 . S
C2075 C2091 1.349 . S
C2076 C2074 1.327 . S
C2076 C2095 1.429 1_455 S
C2076 H2100 0.950 . S
C2077 C2094 1.574 . S
C2077 C2096 1.368 . S
C2077 H2101 0.949 . S
H2078 C2082 0.949 . S
C2079 C2080 1.349 . S
C2079 C2081 1.327 . S
C2079 H2102 0.950 . S
C2080 C2079 1.349 . S
C2080 C2092 1.349 . S
C2081 C2079 1.327 . S
C2081 C2097 1.429 . S
C2081 H2103 0.950 . S
C2082 H2078 0.949 . S
C2082 C2090 1.574 . S
C2082 C2098 1.368 . S
H2083 C2091 0.950 . S
H2084 C2089 0.950 . S
H2085 C2090 0.949 . S
H2086 C2092 0.950 . S
H2087 C2093 0.950 . S
H2088 C2094 0.949 . S
C2089 H2084 0.950 . S
C2089 C2091 1.327 . S
C2089 C2095 1.429 1_455 S
C2090 C2082 1.574 . S
C2090 H2085 0.949 . S
C2090 C2096 1.368 . S
C2091 C2075 1.349 . S
C2091 H2083 0.950 . S
C2091 C2089 1.327 . S
C2092 C2080 1.349 . S
C2092 H2086 0.950 . S
C2092 C2093 1.327 . S
C2093 H2087 0.950 . S
C2093 C2092 1.327 . S
C2093 C2097 1.429 . S
C2094 C2077 1.574 . S
C2094 H2088 0.949 . S
C2094 C2098 1.368 . S
C2095 C2076 1.429 1_655 S
C2095 C2089 1.429 1_655 S
C2095 C2096 1.523 . S
C2096 C2077 1.368 . S
C2096 C2090 1.368 . S
C2096 C2095 1.523 . S
C2097 C2081 1.429 . S
C2097 C2093 1.429 . S
C2097 C2098 1.523 . S
C2098 C2082 1.368 . S
C2098 C2094 1.368 . S
C2098 C2097 1.523 . S
H2099 C2074 0.950 . S
H2100 C2076 0.950 . S
H2101 C2077 0.949 . S
H2102 C2079 0.950 . S
H2103 C2081 0.950 . S
C2104 C2105 1.349 . S
C2104 C2106 1.327 . S
C2104 H2129 0.950 . S
C2105 C2104 1.349 . S
C2105 C2121 1.349 . S
C2106 C2104 1.327 . S
C2106 C2125 1.429 1_655 S
C2106 H2130 0.950 . S
C2107 C2124 1.574 . S
C2107 C2126 1.368 . S
C2107 H2131 0.949 . S
H2108 C2112 0.949 . S
C2109 C2110 1.349 . S
C2109 C2111 1.327 . S
C2109 H2132 0.950 . S
C2110 C2109 1.349 . S
C2110 C2122 1.349 . S
C2111 C2109 1.327 . S
C2111 C2127 1.429 . S
C2111 H2133 0.950 . S
C2112 H2108 0.949 . S
C2112 C2120 1.574 . S
C2112 C2128 1.368 . S
H2113 C2121 0.950 . S
H2114 C2119 0.950 . S
H2115 C2120 0.949 . S
H2116 C2122 0.950 . S
H2117 C2123 0.950 . S
H2118 C2124 0.949 . S
C2119 H2114 0.950 . S
C2119 C2121 1.327 . S
C2119 C2125 1.429 1_655 S
C2120 C2112 1.574 . S
C2120 H2115 0.949 . S
C2120 C2126 1.368 . S
C2121 C2105 1.349 . S
C2121 H2113 0.950 . S
C2121 C2119 1.327 . S
C2122 C2110 1.349 . S
C2122 H2116 0.950 . S
C2122 C2123 1.327 . S
C2123 H2117 0.950 . S
C2123 C2122 1.327 . S
C2123 C2127 1.429 . S
C2124 C2107 1.574 . S
C2124 H2118 0.949 . S
C2124 C2128 1.368 . S
C2125 C2106 1.429 1_455 S
C2125 C2119 1.429 1_455 S
C2125 C2126 1.523 . S
C2126 C2107 1.368 . S
C2126 C2120 1.368 . S
C2126 C2125 1.523 . S
C2127 C2111 1.429 . S
C2127 C2123 1.429 . S
C2127 C2128 1.523 . S
C2128 C2112 1.368 . S
C2128 C2124 1.368 . S
C2128 C2127 1.523 . S
H2129 C2104 0.950 . S
H2130 C2106 0.950 . S
H2131 C2107 0.949 . S
H2132 C2109 0.950 . S
H2133 C2111 0.950 . S
C2134 C2135 1.349 . S
C2134 C2136 1.327 . S
C2134 H2159 0.950 . S
C2135 C2134 1.349 . S
C2135 C2151 1.349 . S
C2136 C2134 1.327 . S
C2136 C2155 1.429 1_655 S
C2136 H2160 0.950 . S
C2137 C2154 1.574 . S
C2137 C2156 1.368 . S
C2137 H2161 0.949 . S
H2138 C2142 0.949 . S
C2139 C2140 1.349 . S
C2139 C2141 1.327 . S
C2139 H2162 0.950 . S
C2140 C2139 1.349 . S
C2140 C2152 1.349 . S
C2141 C2139 1.327 . S
C2141 C2157 1.429 . S
C2141 H2163 0.950 . S
C2142 H2138 0.949 . S
C2142 C2150 1.574 . S
C2142 C2158 1.368 . S
H2143 C2151 0.950 . S
H2144 C2149 0.950 . S
H2145 C2150 0.949 . S
H2146 C2152 0.950 . S
H2147 C2153 0.950 . S
H2148 C2154 0.949 . S
C2149 H2144 0.950 . S
C2149 C2151 1.327 . S
C2149 C2155 1.429 1_655 S
C2150 C2142 1.574 . S
C2150 H2145 0.949 . S
C2150 C2156 1.368 . S
C2151 C2135 1.349 . S
C2151 H2143 0.950 . S
C2151 C2149 1.327 . S
C2152 C2140 1.349 . S
C2152 H2146 0.950 . S
C2152 C2153 1.327 . S
C2153 H2147 0.950 . S
C2153 C2152 1.327 . S
C2153 C2157 1.429 . S
C2154 C2137 1.574 . S
C2154 H2148 0.949 . S
C2154 C2158 1.368 . S
C2155 C2136 1.429 1_455 S
C2155 C2149 1.429 1_455 S
C2155 C2156 1.523 . S
C2156 C2137 1.368 . S
C2156 C2150 1.368 . S
C2156 C2155 1.523 . S
C2157 C2141 1.429 . S
C2157 C2153 1.429 . S
C2157 C2158 1.523 . S
C2158 C2142 1.368 . S
C2158 C2154 1.368 . S
C2158 C2157 1.523 . S
H2159 C2134 0.950 . S
H2160 C2136 0.950 . S
H2161 C2137 0.949 . S
H2162 C2139 0.950 . S
H2163 C2141 0.950 . S
C2164 C2165 1.349 . S
C2164 C2166 1.327 . S
C2164 H2189 0.950 . S
C2165 C2164 1.349 . S
C2165 C2181 1.349 . S
C2166 C2164 1.327 . S
C2166 C2185 1.429 1_455 S
C2166 H2190 0.950 . S
C2167 C2184 1.574 . S
C2167 C2186 1.368 . S
C2167 H2191 0.949 . S
H2168 C2172 0.949 . S
C2169 C2170 1.349 . S
C2169 C2171 1.327 . S
C2169 H2192 0.950 . S
C2170 C2169 1.349 . S
C2170 C2182 1.349 . S
C2171 C2169 1.327 . S
C2171 C2187 1.429 . S
C2171 H2193 0.950 . S
C2172 H2168 0.949 . S
C2172 C2180 1.574 . S
C2172 C2188 1.368 . S
H2173 C2181 0.950 . S
H2174 C2179 0.950 . S
H2175 C2180 0.949 . S
H2176 C2182 0.950 . S
H2177 C2183 0.950 . S
H2178 C2184 0.949 . S
C2179 H2174 0.950 . S
C2179 C2181 1.327 . S
C2179 C2185 1.429 1_455 S
C2180 C2172 1.574 . S
C2180 H2175 0.949 . S
C2180 C2186 1.368 . S
C2181 C2165 1.349 . S
C2181 H2173 0.950 . S
C2181 C2179 1.327 . S
C2182 C2170 1.349 . S
C2182 H2176 0.950 . S
C2182 C2183 1.327 . S
C2183 H2177 0.950 . S
C2183 C2182 1.327 . S
C2183 C2187 1.429 . S
C2184 C2167 1.574 . S
C2184 H2178 0.949 . S
C2184 C2188 1.368 . S
C2185 C2166 1.429 1_655 S
C2185 C2179 1.429 1_655 S
C2185 C2186 1.523 . S
C2186 C2167 1.368 . S
C2186 C2180 1.368 . S
C2186 C2185 1.523 . S
C2187 C2171 1.429 . S
C2187 C2183 1.429 . S
C2187 C2188 1.523 . S
C2188 C2172 1.368 . S
C2188 C2184 1.368 . S
C2188 C2187 1.523 . S
H2189 C2164 0.950 . S
H2190 C2166 0.950 . S
H2191 C2167 0.949 . S
H2192 C2169 0.950 . S
H2193 C2171 0.950 . S
C2194 C2195 1.349 . S
C2194 C2196 1.327 . S
C2194 H2219 0.950 . S
C2195 C2194 1.349 . S
C2195 C2211 1.349 . S
C2196 C2194 1.327 . S
C2196 C2215 1.429 1_455 S
C2196 H2220 0.950 . S
C2197 C2214 1.574 . S
C2197 C2216 1.368 . S
C2197 H2221 0.949 . S
H2198 C2202 0.949 . S
C2199 C2200 1.349 . S
C2199 C2201 1.327 . S
C2199 H2222 0.950 . S
C2200 C2199 1.349 . S
C2200 C2212 1.349 . S
C2201 C2199 1.327 . S
C2201 C2217 1.429 . S
C2201 H2223 0.950 . S
C2202 H2198 0.949 . S
C2202 C2210 1.574 . S
C2202 C2218 1.368 . S
H2203 C2211 0.950 . S
H2204 C2209 0.950 . S
H2205 C2210 0.949 . S
H2206 C2212 0.950 . S
H2207 C2213 0.950 . S
H2208 C2214 0.949 . S
C2209 H2204 0.950 . S
C2209 C2211 1.327 . S
C2209 C2215 1.429 1_455 S
C2210 C2202 1.574 . S
C2210 H2205 0.949 . S
C2210 C2216 1.368 . S
C2211 C2195 1.349 . S
C2211 H2203 0.950 . S
C2211 C2209 1.327 . S
C2212 C2200 1.349 . S
C2212 H2206 0.950 . S
C2212 C2213 1.327 . S
C2213 H2207 0.950 . S
C2213 C2212 1.327 . S
C2213 C2217 1.429 . S
C2214 C2197 1.574 . S
C2214 H2208 0.949 . S
C2214 C2218 1.368 . S
C2215 C2196 1.429 1_655 S
C2215 C2209 1.429 1_655 S
C2215 C2216 1.523 . S
C2216 C2197 1.368 . S
C2216 C2210 1.368 . S
C2216 C2215 1.523 . S
C2217 C2201 1.429 . S
C2217 C2213 1.429 . S
C2217 C2218 1.523 . S
C2218 C2202 1.368 . S
C2218 C2214 1.368 . S
C2218 C2217 1.523 . S
H2219 C2194 0.950 . S
H2220 C2196 0.950 . S
H2221 C2197 0.949 . S
H2222 C2199 0.950 . S
H2223 C2201 0.950 . S
C545 C498 1.526 . S
C550 C22 1.526 . S
C575 C83 1.526 . S
C580 C15 1.526 . S
C605 C56 1.526 . S
C610 C389 1.526 . S
C635 C49 1.526 . S
C640 C260 1.526 . S
C665 C90 1.526 . S
C670 C430 1.526 . S
C695 C117 1.526 . S
C700 C321 1.526 . S
C725 C124 1.526 . S
C730 C185 1.526 . S
C755 C151 1.526 . S
C760 C362 1.526 . S
C785 C158 1.526 . S
C790 C226 1.526 . S
C815 C192 1.526 . S
C820 C525 1.526 . S
C845 C219 1.526 . S
C850 C287 1.526 . S
C875 C464 1.526 . S
C880 C253 1.526 . S
C905 C294 1.526 . S
C910 C355 1.526 . S
C935 C328 1.526 . S
C940 C532 1.526 . S
C965 C396 1.526 . S
C970 C457 1.526 . S
C995 C423 1.526 . S
C1000 C491 1.526 . S
C1025 C17 1.860 . S
C1030 C51 1.860 . S
C1055 C119 1.860 . S
C1060 C85 1.860 . S
C1085 C153 1.860 . S
C1090 C187 1.860 . S
C1115 C221 1.860 . S
C1120 C255 1.860 . S
C1145 C289 1.860 . S
C1150 C323 1.860 . S
C1175 C357 1.860 . S
C1180 C391 1.860 . S
C1205 C425 1.860 . S
C1210 C459 1.860 . S
C1235 C527 1.860 . S
C1240 C493 1.860 . S
C1265 C307 1.631 . S
C1270 C1 1.631 . S
C1295 C3 1.631 . S
C1300 C309 1.631 . S
C1325 C35 1.631 . S
C1330 C273 1.631 . S
C1355 C37 1.631 . S
C1360 C275 1.631 . S
C1385 C375 1.631 . S
C1390 C69 1.631 . S
C1415 C377 1.631 . S
C1420 C71 1.631 . S
C1445 C343 1.631 . S
C1450 C105 1.631 . S
C1475 C341 1.631 . S
C1480 C103 1.631 . S
C1505 C139 1.631 . S
C1510 C445 1.631 . S
C1535 C137 1.631 . S
C1540 C443 1.631 . S
C1565 C411 1.631 . S
C1570 C171 1.631 . S
C1595 C409 1.631 . S
C1600 C173 1.631 . S
C1625 C511 1.631 . S
C1630 C207 1.631 . S
C1655 C205 1.631 . S
C1660 C513 1.631 . S
C1685 C241 1.631 . S
C1690 C479 1.631 . S
C1715 C239 1.631 . S
C1720 C477 1.631 . S
C1745 C6 1.630 . S
C1750 C28 1.630 . S
C1775 C40 1.630 . S
C1780 C62 1.630 . S
C1805 C74 1.630 . S
C1810 C96 1.630 . S
C1835 C130 1.630 . S
C1840 C108 1.630 . S
C1865 C142 1.630 . S
C1870 C164 1.630 . S
C1895 C176 1.630 . S
C1900 C198 1.630 . S
C1925 C210 1.630 . S
C1930 C232 1.630 . S
C1955 C266 1.630 . S
C1960 C244 1.630 . S
C1985 C300 1.630 . S
C1990 C278 1.630 . S
C2015 C334 1.630 . S
C2020 C312 1.630 . S
C2045 C368 1.630 . S
C2050 C346 1.630 . S
C2075 C402 1.630 . S
C2080 C380 1.630 . S
C2105 C414 1.630 . S
C2110 C436 1.630 . S
C2135 C448 1.630 . S
C2140 C470 1.630 . S
C2165 C482 1.630 . S
C2170 C504 1.630 . S
C2195 C538 1.630 . S
C2200 C516 1.630 . S
