# Generated by pormake.
# Topology afw, (4)-cn, num edge types: 1
# Building blocks:
#     Node 0, Type 0, BuildingBlock: NAHDIM_clean_sbu_0, # of connection points: 4
#     Node 1, Type 0, BuildingBlock: NAHDIM_clean_sbu_0, # of connection points: 4
#     Node 2, Type 0, BuildingBlock: NAHDIM_clean_sbu_0, # of connection points: 4
#     Node 3, Type 0, BuildingBlock: NAHDIM_clean_sbu_0, # of connection points: 4
#     Node 4, Type 0, BuildingBlock: NAHDIM_clean_sbu_0, # of connection points: 4
#     Node 5, Type 0, BuildingBlock: NAHDIM_clean_sbu_0, # of connection points: 4
#     Node 6, Type 0, BuildingBlock: NAHDIM_clean_sbu_0, # of connection points: 4
#     Node 7, Type 0, BuildingBlock: NAHDIM_clean_sbu_0, # of connection points: 4
#     Node 8, Type 0, BuildingBlock: NAHDIM_clean_sbu_0, # of connection points: 4
#     Edge 9, Type (0, 0), BuildingBlock: MIFKUJ_clean_linker_0, # of connection points: 2
#     Edge 10, Type (0, 0), BuildingBlock: MIFKUJ_clean_linker_0, # of connection points: 2
#     Edge 11, Type (0, 0), BuildingBlock: MIFKUJ_clean_linker_0, # of connection points: 2
#     Edge 12, Type (0, 0), BuildingBlock: MIFKUJ_clean_linker_0, # of connection points: 2
#     Edge 13, Type (0, 0), BuildingBlock: MIFKUJ_clean_linker_0, # of connection points: 2
#     Edge 14, Type (0, 0), BuildingBlock: MIFKUJ_clean_linker_0, # of connection points: 2
#     Edge 15, Type (0, 0), BuildingBlock: MIFKUJ_clean_linker_0, # of connection points: 2
#     Edge 16, Type (0, 0), BuildingBlock: MIFKUJ_clean_linker_0, # of connection points: 2
#     Edge 17, Type (0, 0), BuildingBlock: MIFKUJ_clean_linker_0, # of connection points: 2
#     Edge 18, Type (0, 0), BuildingBlock: MIFKUJ_clean_linker_0, # of connection points: 2
#     Edge 19, Type (0, 0), BuildingBlock: MIFKUJ_clean_linker_0, # of connection points: 2
#     Edge 20, Type (0, 0), BuildingBlock: MIFKUJ_clean_linker_0, # of connection points: 2
#     Edge 21, Type (0, 0), BuildingBlock: MIFKUJ_clean_linker_0, # of connection points: 2
#     Edge 22, Type (0, 0), BuildingBlock: MIFKUJ_clean_linker_0, # of connection points: 2
#     Edge 23, Type (0, 0), BuildingBlock: MIFKUJ_clean_linker_0, # of connection points: 2
#     Edge 24, Type (0, 0), BuildingBlock: MIFKUJ_clean_linker_0, # of connection points: 2
#     Edge 25, Type (0, 0), BuildingBlock: MIFKUJ_clean_linker_0, # of connection points: 2
#     Edge 26, Type (0, 0), BuildingBlock: MIFKUJ_clean_linker_0, # of connection points: 2
# Relax obj value: 0.264
# Max RMSD: 0.262
# Mean RMSD: 0.245
data_MOF--net-afw--node1-NAHDIM_clean_sbu_0--edge1-MIFKUJ_clean_linker_0
_symmetry_space_group_name_H-M    P1
_symmetry_Int_Tables_number       1
_symmetry_cell_setting            triclinic
loop_
_symmetry_equiv_pos_as_xyz
'x, y, z'
_cell_length_a     51.321315
_cell_length_b     53.182709
_cell_length_c     44.897773
_cell_angle_alpha  92.295332
_cell_angle_beta   90.514739
_cell_angle_gamma 119.43728
loop_
_atom_site_label
_atom_site_type_symbol
_atom_site_fract_x
_atom_site_fract_y
_atom_site_fract_z
_atom_type_partial_charge
C0 C 0.02371 0.23536 0.97187 0.0
O1 O 0.02946 0.21387 0.97193 0.0
O2 O 0.02075 0.19279 0.02778 0.0
Zn3 Zn 0.99089 0.20603 0.02113 0.0
O4 O 0.98164 0.21875 0.05997 0.0
C5 C 0.94614 0.16384 0.97783 0.0
O6 O 0.96367 0.1801 0.95726 0.0
O7 O 0.00698 0.2371 0.99162 0.0
C8 C 0.97143 0.1994 0.07902 0.0
O9 O 0.96919 0.17414 0.07218 0.0
C10 C 0.04667 0.2088 0.03953 0.0
O11 O 0.05423 0.23508 0.04972 0.0
O12 O 0.9532 0.17152 0.00518 0.0
C13 C 0.77094 0.7711 0.05616 0.0
O14 O 0.77372 0.75763 0.03227 0.0
O15 O 0.85001 0.82291 0.02575 0.0
Zn16 Zn 0.80868 0.81765 0.0223 0.0
O17 O 0.78714 0.79352 0.98552 0.0
C18 C 0.82399 0.86716 0.99232 0.0
O19 O 0.83171 0.85227 0.97392 0.0
O20 O 0.78492 0.79857 0.05798 0.0
C21 C 0.76081 0.78923 0.98083 0.0
O22 O 0.74964 0.80036 7e-05 0.0
C23 C 0.85816 0.80608 0.01344 0.0
O24 O 0.83833 0.78263 -0.00171 0.0
O25 O 0.81277 0.85661 0.01698 0.0
C26 C 0.26666 0.03367 0.94244 0.0
O27 O 0.28118 0.05366 0.96373 0.0
O28 O 0.18122 0.98472 0.98923 0.0
Zn29 Zn 0.21994 0.02047 0.98203 0.0
O30 O 0.24909 0.0292 0.01592 0.0
C31 C 0.22642 0.07768 0.99219 0.0
O32 O 0.25151 0.08382 0.00638 0.0
O33 O 0.23881 0.01649 0.94473 0.0
C34 C 0.24845 0.01071 0.03333 0.0
O35 O 0.22671 0.98378 0.03038 0.0
C36 C 0.171 0.95971 0.9766 0.0
O37 O 0.18688 0.95508 0.95657 0.0
O38 O 0.21052 0.05271 0.97962 0.0
C39 C 0.67072 0.56636 0.27358 0.0
O40 O 0.65233 0.56062 0.29564 0.0
O41 O 0.72393 0.52406 0.29761 0.0
Zn42 Zn 0.68945 0.53105 0.30449 0.0
O43 O 0.69552 0.55309 0.34377 0.0
C44 C 0.65168 0.47701 0.32631 0.0
O45 O 0.67523 0.48692 0.34451 0.0
O46 O 0.6875 0.55504 0.2723 0.0
C47 C 0.67283 0.54919 0.35832 0.0
O48 O 0.64597 0.53011 0.34788 0.0
C49 C 0.74995 0.54041 0.30905 0.0
O50 O 0.75502 0.56332 0.32575 0.0
O51 O 0.65202 0.49253 0.30537 0.0
C52 C 0.42152 0.08065 0.37749 0.0
O53 O 0.42781 0.07151 0.3524 0.0
O54 O 0.49586 0.14713 0.35325 0.0
Zn55 Zn 0.45184 0.13337 0.34901 0.0
O56 O 0.43555 0.11251 0.30952 0.0
C57 C 0.46084 0.18675 0.37322 0.0
O58 O 0.47247 0.17913 0.39491 0.0
O59 O 0.42962 0.10729 0.38152 0.0
C60 C 0.44813 0.12313 0.28542 0.0
O61 O 0.47275 0.14835 0.28645 0.0
C62 C 0.50839 0.13594 0.36813 0.0
O63 O 0.49188 0.11189 0.38158 0.0
O64 O 0.44818 0.16912 0.35099 0.0
C65 C 0.94254 0.35376 0.40211 0.0
O66 O 0.9455 0.35494 0.37308 0.0
O67 O 0.88694 0.36482 0.36365 0.0
Zn68 Zn 0.88362 0.32949 0.38157 0.0
O69 O 0.89031 0.3059 0.35002 0.0
C70 C 0.82518 0.31622 0.40125 0.0
O71 O 0.8354 0.3438 0.39724 0.0
O72 O 0.91645 0.34271 0.41249 0.0
C73 C 0.86944 0.28331 0.33677 0.0
O74 O 0.84152 0.27437 0.34368 0.0
C75 C 0.87516 0.36387 0.33834 0.0
O76 O 0.86082 0.33906 0.32291 0.0
O77 O 0.84252 0.3057 0.39774 0.0
C78 C 0.342 0.90744 0.63111 0.0
O79 O 0.32914 0.91208 0.65423 0.0
O80 O 0.38475 0.86387 0.6758 0.0
Zn81 Zn 0.3503 0.87136 0.67112 0.0
O82 O 0.34946 0.89608 0.70519 0.0
C83 C 0.31006 0.81279 0.65362 0.0
O84 O 0.33236 0.81708 0.63647 0.0
O85 O 0.35265 0.89046 0.63306 0.0
C86 C 0.37221 0.91683 0.71862 0.0
O87 O 0.39918 0.92269 0.71094 0.0
C88 C 0.40867 0.87653 0.6614 0.0
O89 O 0.41205 0.89655 0.64315 0.0
O90 O 0.31234 0.83354 0.67049 0.0
C91 C 0.13244 0.42064 0.72736 0.0
O92 O 0.14341 0.41291 0.7047 0.0
O93 O 0.20403 0.48483 0.70465 0.0
Zn94 Zn 0.16078 0.47379 0.69908 0.0
O95 O 0.14624 0.45611 0.6581 0.0
C96 C 0.17276 0.52997 0.72115 0.0
O97 O 0.19137 0.52737 0.73939 0.0
O98 O 0.13664 0.44623 0.72958 0.0
C99 C 0.15759 0.4721 0.63628 0.0
O100 O 0.1787 0.49907 0.64152 0.0
C101 C 0.21502 0.47099 0.69098 0.0
O102 O 0.19765 0.44871 0.67296 0.0
O103 O 0.15668 0.50925 0.7026 0.0
C104 C 0.62599 0.67959 0.61236 0.0
O105 O 0.64221 0.69285 0.63666 0.0
O106 O 0.53632 0.63366 0.64835 0.0
Zn107 Zn 0.57547 0.67075 0.64799 0.0
O108 O 0.59943 0.6764 0.68565 0.0
C109 C 0.54235 0.70073 0.65554 0.0
O110 O 0.52288 0.67578 0.66581 0.0
O111 O 0.59778 0.66916 0.61248 0.0
C112 C 0.58882 0.67889 0.71034 0.0
O113 O 0.56243 0.6772 0.71047 0.0
C114 C 0.53001 0.61361 0.66616 0.0
O115 O 0.55069 0.61553 0.68503 0.0
O116 O 0.56689 0.70388 0.64574 0.0
H117 H 0.25119 0.1307 0.02217 0.0
H118 H 0.22823 0.16128 0.02982 0.0
H119 H 0.15194 0.10093 0.97458 0.0
H120 H 0.17484 0.07067 0.96637 0.0
H121 H 0.16581 0.15506 0.96447 0.0
H122 H 0.15178 0.09824 0.05072 0.0
H123 H 0.16871 0.08132 0.09324 0.0
H124 H 0.21828 0.16834 0.13066 0.0
H125 H 0.20192 0.18582 0.08812 0.0
H126 H 0.0395 0.1587 0.01312 0.0
H127 H 0.07752 0.1445 0.00586 0.0
H128 H 0.14264 0.22214 0.05465 0.0
H129 H 0.10455 0.23682 0.062 0.0
H130 H 0.14286 0.16931 0.06894 0.0
H131 H 0.14786 0.22366 0.98471 0.0
H132 H 0.12635 0.23726 0.94315 0.0
H133 H 0.09021 0.15187 0.90219 0.0
H134 H 0.11107 0.13759 0.94378 0.0
C135 C 0.22974 0.12419 0.01127 0.0
C136 C 0.21467 0.09809 0.99394 0.0
C137 C 0.21662 0.14163 0.01576 0.0
C138 C 0.18818 0.13313 0.00314 0.0
C139 C 0.17388 0.10789 0.98457 0.0
C140 C 0.18697 0.09054 0.98 0.0
C141 C 0.17213 0.14919 0.01066 0.0
C142 C 0.16085 0.15822 0.9873 0.0
C143 C 0.16616 0.15384 0.04052 0.0
C144 C 0.17596 0.14337 0.06608 0.0
C145 C 0.16649 0.11379 0.0679 0.0
C146 C 0.17594 0.10409 0.09202 0.0
C147 C 0.19465 0.12376 0.11458 0.0
C148 C 0.20386 0.15315 0.11312 0.0
C149 C 0.1945 0.16296 0.08903 0.0
C150 C 0.0618 0.17272 0.0226 0.0
C151 C 0.06908 0.19903 0.03797 0.0
C152 C 0.08351 0.16459 0.01832 0.0
C153 C 0.11289 0.1825 0.02936 0.0
C154 C 0.12005 0.20816 0.04585 0.0
C155 C 0.09831 0.21649 0.04998 0.0
C156 C 0.13601 0.17442 0.02271 0.0
C157 C 0.14854 0.16685 0.04618 0.0
C158 C 0.14286 0.17082 0.99295 0.0
C159 C 0.13093 0.17952 0.96746 0.0
C160 C 0.1352 0.20774 0.96692 0.0
C161 C 0.12313 0.21557 0.94335 0.0
C162 C 0.1069 0.19544 0.92006 0.0
C163 C 0.1028 0.16745 0.92025 0.0
C164 C 0.11478 0.15949 0.94379 0.0
H165 H 0.09753 0.20153 0.90186 0.0
H166 H 0.20194 0.11621 0.13324 0.0
H167 H 0.81109 0.90404 0.025 0.0
H168 H 0.82309 0.95302 0.01319 0.0
H169 H 0.86069 0.94428 0.93045 0.0
H170 H 0.84903 0.89549 0.94213 0.0
H171 H 0.89855 0.99278 0.9625 0.0
H172 H 0.79598 0.94615 0.92951 0.0
H173 H 0.74151 0.91454 0.93312 0.0
H174 H 0.7406 0.96748 0.00741 0.0
H175 H 0.79516 -0.00081 0.00454 0.0
H176 H 0.93735 0.13223 0.92549 0.0
H177 H 0.9064 0.07975 0.91817 0.0
H178 H 0.87035 0.07577 0.00535 0.0
H179 H 0.90114 0.12813 0.01288 0.0
H180 H 0.82908 0.03268 0.96353 0.0
H181 H 0.9309 0.07266 0.00257 0.0
H182 H 0.98555 0.10464 0.00137 0.0
H183 H 0.98759 0.06348 0.91785 0.0
H184 H 0.9328 0.03157 0.91833 0.0
C185 C 0.82164 0.91245 0.00417 0.0
C186 C 0.82931 0.89599 0.98461 0.0
C187 C 0.82829 0.94034 -0.00265 0.0
C188 C 0.84256 0.95214 0.97083 0.0
C189 C 0.8496 0.9355 0.95099 0.0
C190 C 0.84294 0.90765 0.95774 0.0
C191 C 0.8525 0.98268 0.96507 0.0
C192 C 0.88322 0.00133 0.96199 0.0
C193 C 0.83258 0.99392 0.96516 0.0
C194 C 0.79973 0.97493 0.96694 0.0
C195 C 0.78422 0.95093 0.94678 0.0
C196 C 0.75331 0.93301 0.94866 0.0
C197 C 0.73762 0.93896 0.97052 0.0
C198 C 0.75279 0.96289 0.9905 0.0
C199 C 0.78371 0.98086 0.98873 0.0
C200 C 0.92207 0.12032 0.94267 0.0
C201 C 0.92212 0.13413 0.97003 0.0
C202 C 0.90441 0.09036 0.93844 0.0
C203 C 0.88657 0.07398 0.96146 0.0
C204 C 0.88407 0.08809 0.98739 0.0
C205 C 0.90184 0.11797 0.99172 0.0
C206 C 0.87496 0.04249 0.96101 0.0
C207 C 0.84414 0.02382 0.96325 0.0
C208 C 0.89476 0.03113 0.96044 0.0
C209 C 0.92773 0.05001 0.96028 0.0
C210 C 0.94297 0.0706 0.98383 0.0
C211 C 0.97397 0.08869 0.9833 0.0
C212 C 0.99002 0.08616 0.9595 0.0
C213 C 0.97511 0.06546 0.93623 0.0
C214 C 0.94409 0.04738 0.93661 0.0
H215 H 0.01403 0.10018 0.95913 0.0
H216 H 0.71369 0.92507 0.97194 0.0
H217 H 0.88515 0.77903 0.98423 0.0
H218 H 0.93904 0.79798 0.9787 0.0
H219 H 0.95755 0.87219 0.03619 0.0
H220 H 0.90414 0.85362 0.04186 0.0
H221 H 0.9835 0.88633 0.98142 0.0
H222 H 0.97323 0.82318 0.06023 0.0
H223 H 0.95239 0.77632 0.08372 0.0
H224 H 0.98333 0.74291 0.01206 0.0
H225 H 0.004 0.78949 0.9879 0.0
H226 H 0.13406 0.96282 0.01784 0.0
H227 H 0.08123 0.92887 0.0236 0.0
H228 H 0.08463 0.87142 0.95519 0.0
H229 H 0.13801 0.90557 0.94903 0.0
H230 H 0.04719 0.84394 0.00853 0.0
H231 H 0.05982 0.90831 0.93115 0.0
H232 H 0.08132 0.95568 0.90862 0.0
H233 H 0.04531 0.98652 0.97783 0.0
H234 H 0.024 0.93946 0.00106 0.0
C235 C 0.90073 0.79914 -0.00391 0.0
C236 C 0.89036 0.815 0.01319 0.0
C237 C 0.93148 0.80987 0.99295 0.0
C238 C 0.95218 0.83654 0.00691 0.0
C239 C 0.94188 0.85164 0.02511 0.0
C240 C 0.91131 0.84095 0.02832 0.0
C241 C 0.98441 0.85028 0.00064 0.0
C242 C -0.00259 0.87709 0.98749 0.0
C243 C 0.00228 0.8377 0.0076 0.0
C244 C 0.98981 0.80969 0.02206 0.0
C245 C 0.97531 0.80575 0.04931 0.0
C246 C 0.96359 0.77926 0.06279 0.0
C247 C 0.96644 0.75662 0.04934 0.0
C248 C 0.98108 0.76045 0.02242 0.0
C249 C 0.99282 0.78689 0.00883 0.0
C250 C 0.12383 0.94283 0.00422 0.0
C251 C 0.14015 0.93711 0.98262 0.0
C252 C 0.09363 0.92341 0.00766 0.0
C253 C 0.07909 0.89788 0.98961 0.0
C254 C 0.09559 0.89108 0.9693 0.0
C255 C 0.12598 0.91065 0.96575 0.0
C256 C 0.04617 0.88025 0.99019 0.0
C257 C 0.03307 0.85283 0.00207 0.0
C258 C 0.02799 0.89215 0.98201 0.0
C259 C 0.04053 0.92042 0.96797 0.0
C260 C 0.0567 0.92527 0.9417 0.0
C261 C 0.06882 0.95205 0.92878 0.0
C262 C 0.06474 0.97412 0.94182 0.0
C263 C 0.04847 0.96942 0.96777 0.0
C264 C 0.03634 0.94268 0.9808 0.0
H265 H 0.07414 0.99484 0.93178 0.0
H266 H 0.95737 0.73613 0.05982 0.0
H267 H 0.90554 0.41893 0.36297 0.0
H268 H 0.89724 0.45917 0.35234 0.0
H269 H 0.83359 0.40706 0.28175 0.0
H270 H 0.84214 0.36682 0.29186 0.0
H271 H 0.86553 0.46462 0.2685 0.0
H272 H 0.80952 0.40731 0.35014 0.0
H273 H 0.80435 0.38474 0.39825 0.0
H274 H 0.85981 0.46829 0.4418 0.0
H275 H 0.86565 0.49132 0.39379 0.0
H276 H 0.74898 0.4987 0.27101 0.0
H277 H 0.78367 0.47978 0.27081 0.0
H278 H 0.83796 0.54329 0.34013 0.0
H279 H 0.8032 0.56241 0.34053 0.0
H280 H 0.82056 0.48848 0.35491 0.0
H281 H 0.86682 0.54591 0.27272 0.0
H282 H 0.86957 0.56672 0.224 0.0
H283 H 0.83 0.48203 0.18065 0.0
H284 H 0.82658 0.46063 0.22916 0.0
C285 C 0.89022 0.4162 0.34478 0.0
C286 C 0.87404 0.38952 0.32862 0.0
C287 C 0.88558 0.43924 0.3387 0.0
C288 C 0.86442 0.43587 0.31663 0.0
C289 C 0.84998 0.41005 0.29892 0.0
C290 C 0.85477 0.38703 0.30484 0.0
C291 C 0.85438 0.45751 0.31464 0.0
C292 C 0.85568 0.46991 0.28731 0.0
C293 C 0.8421 0.46476 0.33944 0.0
C294 C 0.83832 0.45099 0.36835 0.0
C295 C 0.82078 0.42084 0.36994 0.0
C296 C 0.81771 0.40796 0.39718 0.0
C297 C 0.83182 0.42505 0.42305 0.0
C298 C 0.84895 0.45507 0.42173 0.0
C299 C 0.85215 0.46805 0.39452 0.0
C300 C 0.76859 0.50902 0.28585 0.0
C301 C 0.77319 0.53184 0.30603 0.0
C302 C 0.78854 0.49833 0.28552 0.0
C303 C 0.81347 0.51025 0.30534 0.0
C304 C 0.8189 0.5339 0.32457 0.0
C305 C 0.79903 0.54477 0.32477 0.0
C306 C 0.83123 0.49541 0.30859 0.0
C307 C 0.83116 0.48399 0.33621 0.0
C308 C 0.8443 0.4889 0.28396 0.0
C309 C 0.84629 0.50164 0.25466 0.0
C310 C 0.85848 0.53168 0.25284 0.0
C311 C 0.8602 0.54359 0.22524 0.0
C312 C 0.84992 0.5257 0.19925 0.0
C313 C 0.83795 0.49586 0.2008 0.0
C314 C 0.83616 0.48383 0.22835 0.0
H315 H 0.85128 0.53497 0.17791 0.0
H316 H 0.82942 0.41505 0.44412 0.0
H317 H 0.49631 0.23208 0.41187 0.0
H318 H 0.51678 0.28318 0.40364 0.0
H319 H 0.46233 0.26184 0.32284 0.0
H320 H 0.44228 0.2104 0.33052 0.0
H321 H 0.51793 0.29615 0.31153 0.0
H322 H 0.45311 0.29955 0.38383 0.0
H323 H 0.42691 0.29042 0.43129 0.0
H324 H 0.51099 0.33961 0.4795 0.0
H325 H 0.53777 0.3487 0.4324 0.0
H326 H 0.60029 0.44848 0.29135 0.0
H327 H 0.55693 0.40095 0.29894 0.0
H328 H 0.5997 0.39437 0.37911 0.0
H329 H 0.64284 0.44167 0.37185 0.0
H330 H 0.53979 0.37591 0.38617 0.0
H331 H 0.60324 0.36225 0.31458 0.0
H332 H 0.62971 0.37051 0.2673 0.0
H333 H 0.54666 0.33987 0.21796 0.0
H334 H 0.51976 0.33177 0.26502 0.0
C335 C 0.48807 0.23818 0.39273 0.0
C336 C 0.46796 0.21717 0.37165 0.0
C337 C 0.49968 0.26751 0.38814 0.0
C338 C 0.49103 0.27642 0.36265 0.0
C339 C 0.46935 0.25546 0.34263 0.0
C340 C 0.45788 0.22607 0.3471 0.0
C341 C 0.50776 0.30718 0.35502 0.0
C342 C 0.52196 0.31361 0.32756 0.0
C343 C 0.51345 0.33 0.37605 0.0
C344 C 0.49747 0.32471 0.40452 0.0
C345 C 0.46605 0.30827 0.40456 0.0
C346 C 0.45108 0.30313 0.43141 0.0
C347 C 0.46727 0.31441 0.45839 0.0
C348 C 0.49847 0.3309 0.45858 0.0
C349 C 0.51355 0.33611 0.43179 0.0
C350 C 0.60037 0.43694 0.31066 0.0
C351 C 0.62508 0.44871 0.33088 0.0
C352 C 0.57559 0.40985 0.31496 0.0
C353 C 0.57521 0.39417 0.33953 0.0
C354 C 0.59952 0.40621 0.36009 0.0
C355 C 0.62426 0.43316 0.35577 0.0
C356 C 0.55043 0.36449 0.34325 0.0
C357 C 0.53489 0.35838 0.36992 0.0
C358 C 0.54341 0.34192 0.32152 0.0
C359 C 0.55958 0.34678 0.29328 0.0
C360 C 0.59068 0.35752 0.29365 0.0
C361 C 0.60574 0.36212 0.2669 0.0
C362 C 0.58989 0.35582 0.23964 0.0
C363 C 0.55892 0.34481 0.23909 0.0
C364 C 0.54376 0.34021 0.26579 0.0
H365 H 0.60159 0.35938 0.21895 0.0
H366 H 0.45564 0.31039 0.47915 0.0
H367 H 0.54745 0.19009 0.35138 0.0
H368 H 0.60148 0.21673 0.35935 0.0
H369 H 0.59853 0.14371 0.40109 0.0
H370 H 0.54388 0.11699 0.39396 0.0
H371 H 0.63495 0.19189 0.43211 0.0
H372 H 0.62484 0.16087 0.33016 0.0
H373 H 0.60597 0.15224 0.27796 0.0
H374 H 0.64396 0.24362 0.26905 0.0
H375 H 0.66271 0.2528 0.32134 0.0
H376 H 0.79691 0.25956 0.41598 0.0
H377 H 0.74286 0.22573 0.41386 0.0
H378 H 0.7264 0.29457 0.39017 0.0
H379 H 0.78013 0.32857 0.39268 0.0
H380 H 0.70118 0.24318 0.34965 0.0
H381 H 0.70816 0.27203 0.45461 0.0
H382 H 0.72783 0.27856 0.50633 0.0
H383 H 0.69707 0.18756 0.50802 0.0
H384 H 0.67759 0.18057 0.45611 0.0
C385 C 0.55822 0.17952 0.36207 0.0
C386 C 0.54137 0.15132 0.37188 0.0
C387 C 0.58919 0.19478 0.36652 0.0
C388 C 0.60415 0.18205 0.38034 0.0
C389 C 0.58745 0.1539 0.39025 0.0
C390 C 0.55627 0.13864 0.38606 0.0
C391 C 0.63716 0.19871 0.38495 0.0
C392 C 0.64949 0.20264 0.41396 0.0
C393 C 0.65617 0.21288 0.36131 0.0
C394 C 0.64501 0.2075 0.32977 0.0
C395 C 0.62899 0.17912 0.31714 0.0
C396 C 0.61835 0.17413 0.28752 0.0
C397 C 0.62372 0.19736 0.27021 0.0
C398 C 0.63981 0.22564 0.28248 0.0
C399 C 0.65049 0.23076 0.31211 0.0
C400 C 0.78173 0.26759 0.41088 0.0
C401 C 0.79277 0.29671 0.40439 0.0
C402 C 0.75093 0.24826 0.4097 0.0
C403 C 0.73082 0.25773 0.40173 0.0
C404 C 0.74169 0.28694 0.39631 0.0
C405 C 0.77238 0.30634 0.3979 0.0
C406 C 0.69862 0.23692 0.39681 0.0
C407 C 0.68657 0.23213 0.36767 0.0
C408 C 0.68007 0.22163 0.42018 0.0
C409 C 0.69176 0.22584 0.45136 0.0
C410 C 0.70587 0.25346 0.4659 0.0
C411 C 0.71692 0.25724 0.49527 0.0
C412 C 0.71379 0.2335 0.51042 0.0
C413 C 0.69953 0.20593 0.49624 0.0
C414 C 0.68847 0.20205 0.46685 0.0
H415 H 0.72235 0.23647 0.53316 0.0
H416 H 0.61545 0.19345 0.24728 0.0
H417 H 0.40762 0.83553 0.69662 0.0
H418 H 0.44155 0.81588 0.69642 0.0
H419 H 0.49452 0.87554 0.63055 0.0
H420 H 0.46014 0.89513 0.63022 0.0
H421 H 0.48184 0.82188 0.61448 0.0
H422 H 0.52312 0.88293 0.70159 0.0
H423 H 0.52336 0.90591 0.75045 0.0
H424 H 0.48311 0.82324 0.78953 0.0
H425 H 0.48219 0.79967 0.74081 0.0
H426 H 0.57072 0.75143 0.62659 0.0
H427 H 0.55871 0.79083 0.62821 0.0
H428 H 0.48797 0.74398 0.68878 0.0
H429 H 0.49991 0.70495 0.68748 0.0
H430 H 0.52238 0.80209 0.70586 0.0
H431 H 0.47189 0.74152 0.61634 0.0
H432 H 0.47072 0.71823 0.56734 0.0
H433 H 0.52913 0.80124 0.53318 0.0
H434 H 0.53093 0.82498 0.58215 0.0
C435 C 0.42668 0.84479 0.68234 0.0
C436 C 0.43111 0.86684 0.66335 0.0
C437 C 0.44622 0.83365 0.68241 0.0
C438 C 0.47081 0.84449 0.66374 0.0
C439 C 0.47575 0.86697 0.64523 0.0
C440 C 0.45613 0.87816 0.64512 0.0
C441 C 0.48957 0.83043 0.66202 0.0
C442 C 0.49145 0.81824 0.63436 0.0
C443 C 0.50187 0.82545 0.68798 0.0
C444 C 0.5025 0.83951 0.71746 0.0
C445 C 0.51414 0.86961 0.72055 0.0
C446 C 0.51442 0.88275 0.74824 0.0
C447 C 0.50323 0.86604 0.77307 0.0
C448 C 0.49179 0.83616 0.77028 0.0
C449 C 0.49144 0.8229 0.74263 0.0
C450 C 0.55271 0.74966 0.64033 0.0
C451 C 0.536 0.72496 0.65664 0.0
C452 C 0.54589 0.77212 0.64122 0.0
C453 C 0.52241 0.77022 0.65856 0.0
C454 C 0.50623 0.74589 0.67533 0.0
C455 C 0.51289 0.72346 0.67432 0.0
C456 C 0.51352 0.79278 0.6586 0.0
C457 C 0.51353 0.80652 0.68593 0.0
C458 C 0.50303 0.79925 0.63236 0.0
C459 C 0.50186 0.78498 0.60297 0.0
C460 C 0.48469 0.75477 0.59844 0.0
C461 C 0.48387 0.7415 0.57067 0.0
C462 C 0.49993 0.75823 0.54719 0.0
C463 C 0.51676 0.7883 0.55141 0.0
C464 C 0.51768 0.80167 0.57916 0.0
H465 H 0.49926 0.74792 0.5257 0.0
H466 H 0.50346 0.87626 0.79449 0.0
H467 H 0.30497 0.76186 0.63229 0.0
H468 H 0.26577 0.71333 0.6422 0.0
H469 H 0.21724 0.74864 0.68966 0.0
H470 H 0.25719 0.79755 0.68074 0.0
H471 H 0.22013 0.71213 0.7218 0.0
H472 H 0.18851 0.70646 0.62251 0.0
H473 H 0.19191 0.71219 0.56824 0.0
H474 H 0.22693 0.65379 0.55952 0.0
H475 H 0.2242 0.64802 0.61378 0.0
H476 H 0.13454 0.54144 0.6892 0.0
H477 H 0.14104 0.58897 0.67907 0.0
H478 H 0.22055 0.62931 0.73639 0.0
H479 H 0.21363 0.58203 0.74733 0.0
H480 H 0.1832 0.62722 0.65039 0.0
H481 H 0.23776 0.69358 0.76336 0.0
H482 H 0.22872 0.68751 0.8171 0.0
H483 H 0.13685 0.62408 0.79761 0.0
H484 H 0.14517 0.63005 0.74377 0.0
C485 C 0.28571 0.75933 0.64436 0.0
C486 C 0.28427 0.78351 0.65594 0.0
C487 C 0.26312 0.73149 0.64983 0.0
C488 C 0.2383 0.72723 0.66641 0.0
C489 C 0.23615 0.75137 0.67682 0.0
C490 C 0.25898 0.77929 0.67169 0.0
C491 C 0.21672 0.69782 0.6756 0.0
C492 C 0.21166 0.69356 0.70614 0.0
C493 C 0.2045 0.67359 0.65508 0.0
C494 C 0.20619 0.67686 0.62232 0.0
C495 C 0.1971 0.69496 0.60906 0.0
C496 C 0.1989 0.6982 0.57828 0.0
C497 C 0.20964 0.68337 0.56044 0.0
C498 C 0.21858 0.66524 0.57336 0.0
C499 C 0.21685 0.66193 0.60413 0.0
C500 C 0.153 0.56044 0.70021 0.0
C501 C 0.17375 0.55803 0.71887 0.0
C502 C 0.15668 0.58758 0.69437 0.0
C503 C 0.1812 0.61276 0.70702 0.0
C504 C 0.20107 0.61025 0.72683 0.0
C505 C 0.19722 0.58314 0.73292 0.0
C506 C 0.18853 0.6416 0.69675 0.0
C507 C 0.19085 0.64576 0.66598 0.0
C508 C 0.19732 0.66568 0.71698 0.0
C509 C 0.19215 0.66222 0.74944 0.0
C510 C 0.21557 0.67849 0.77051 0.0
C511 C 0.21058 0.67502 0.80101 0.0
C512 C 0.18225 0.6554 0.81076 0.0
C513 C 0.15881 0.63922 0.79003 0.0
C514 C 0.16367 0.64261 0.75951 0.0
H515 H 0.17844 0.65274 0.83438 0.0
H516 H 0.21101 0.68592 0.53662 0.0
H517 H 0.24666 0.4497 0.66086 0.0
H518 H 0.30083 0.46931 0.66229 0.0
H519 H 0.31076 0.53433 0.7291 0.0
H520 H 0.25667 0.51519 0.72742 0.0
H521 H 0.34695 0.55829 0.68569 0.0
H522 H 0.32416 0.47956 0.74646 0.0
H523 H 0.29837 0.42896 0.76101 0.0
H524 H 0.33256 0.40433 0.68504 0.0
H525 H 0.35821 0.45474 0.66976 0.0
H526 H 0.50433 0.57919 0.71298 0.0
H527 H 0.45066 0.54962 0.72115 0.0
H528 H 0.43086 0.56793 0.63368 0.0
H529 H 0.48425 0.59795 0.62563 0.0
H530 H 0.40109 0.50299 0.69473 0.0
H531 H 0.37762 0.58658 0.63897 0.0
H532 H 0.40441 0.63851 0.62913 0.0
H533 H 0.46352 0.65553 0.70483 0.0
H534 H 0.43686 0.60382 0.71532 0.0
C535 C 0.26032 0.46796 0.67612 0.0
C536 C 0.2474 0.48105 0.69384 0.0
C537 C 0.29128 0.47903 0.67705 0.0
C538 C 0.30981 0.50318 0.69592 0.0
C539 C 0.29686 0.51569 0.71435 0.0
C540 C 0.26594 0.50472 0.71335 0.0
C541 C 0.3428 0.51694 0.69446 0.0
C542 C 0.35874 0.54618 0.68783 0.0
C543 C 0.35829 0.50128 0.69773 0.0
C544 C 0.34292 0.47092 0.70683 0.0
C545 C 0.32599 0.46332 0.73271 0.0
C546 C 0.31143 0.43467 0.74112 0.0
C547 C 0.31377 0.41343 0.72393 0.0
C548 C 0.33074 0.42081 0.69832 0.0
C549 C 0.34533 0.44943 0.68979 0.0
C550 C 0.48854 0.57639 0.69525 0.0
C551 C 0.49843 0.59126 0.66886 0.0
C552 C 0.45791 0.55947 0.69994 0.0
C553 C 0.43688 0.55715 0.67827 0.0
C554 C 0.44679 0.56995 0.65092 0.0
C555 C 0.47729 0.58705 0.64634 0.0
C556 C 0.40481 0.54396 0.68515 0.0
C557 C 0.38916 0.51498 0.69278 0.0
C558 C 0.38958 0.55999 0.68354 0.0
C559 C 0.40539 0.59128 0.67776 0.0
C560 C 0.39625 0.60144 0.65359 0.0
C561 C 0.41144 0.63083 0.64788 0.0
C562 C 0.43572 0.65031 0.66628 0.0
C563 C 0.44479 0.64044 0.69051 0.0
C564 C 0.42966 0.61108 0.69634 0.0
H565 H 0.44743 0.67304 0.66178 0.0
H566 H 0.30249 0.39127 0.73048 0.0
H567 H 0.01422 0.28095 0.96323 0.0
H568 H 0.03165 0.31368 0.92215 0.0
H569 H 0.07572 0.26873 0.88535 0.0
H570 H 0.05894 0.23636 0.92646 0.0
H571 H 0.11072 0.32573 0.88378 0.0
H572 H 0.0086 0.25617 0.85671 0.0
H573 H 0.9542 0.22827 0.86379 0.0
H574 H 0.94996 0.30694 0.87071 0.0
H575 H 0.00446 0.33535 0.86409 0.0
H576 H 0.13083 0.36945 0.73594 0.0
H577 H 0.11041 0.33874 0.77822 0.0
H578 H 0.08031 0.39585 0.81505 0.0
H579 H 0.10085 0.42689 0.7729 0.0
H580 H 0.03813 0.33507 0.81776 0.0
H581 H 0.14101 0.40419 0.84298 0.0
H582 H 0.19514 0.43088 0.83414 0.0
H583 H 0.19741 0.35118 0.82912 0.0
H584 H 0.14315 0.32396 0.83747 0.0
C585 C 0.02774 0.27814 0.94646 0.0
C586 C 0.03507 0.25599 0.94797 0.0
C587 C 0.03755 0.29676 0.92296 0.0
C588 C 0.05462 0.29334 0.90056 0.0
C589 C 0.06251 0.27167 0.90241 0.0
C590 C 0.05281 0.25314 0.92588 0.0
C591 C 0.06418 0.31216 0.87497 0.0
C592 C 0.09481 0.32755 0.8692 0.0
C593 C 0.04343 0.31493 0.85633 0.0
C594 C 0.01066 0.2979 0.86025 0.0
C595 C -0.00389 0.26754 0.86 0.0
C596 C 0.96526 0.25163 0.86388 0.0
C597 C 0.94865 0.26583 0.86779 0.0
C598 C 0.96286 0.29597 0.86773 0.0
C599 C 0.99373 0.31199 0.8639 0.0
C600 C 0.11958 0.37533 0.75284 0.0
C601 C 0.11766 0.40069 0.75128 0.0
C602 C 0.108 0.3578 0.77697 0.0
C603 C 0.09419 0.3653 0.79975 0.0
C604 C 0.09099 0.38985 0.79762 0.0
C605 C 0.10283 0.40756 0.77364 0.0
C606 C 0.08451 0.34825 0.82653 0.0
C607 C 0.05395 0.33329 0.83251 0.0
C608 C 0.10527 0.34568 0.84526 0.0
C609 C 0.13796 0.36202 0.84057 0.0
C610 C 0.153 0.39233 0.83975 0.0
C611 C 0.18371 0.40756 0.83487 0.0
C612 C 0.19969 0.39273 0.831 0.0
C613 C 0.18499 0.36264 0.83209 0.0
C614 C 0.15427 0.3473 0.83692 0.0
H615 H 0.22347 0.40455 0.82721 0.0
H616 H 0.92476 0.25347 0.87078 0.0
H617 H 0.70355 0.77503 0.96541 0.0
H618 H 0.67522 0.74931 0.9198 0.0
H619 H 0.74966 0.73974 0.88981 0.0
H620 H 0.77839 0.76576 0.93537 0.0
H621 H 0.72826 0.76038 0.84737 0.0
H622 H 0.68765 0.68164 0.91187 0.0
H623 H 0.66496 0.65666 0.9576 0.0
H624 H 0.58782 0.66608 0.94056 0.0
H625 H 0.61024 0.69152 0.89494 0.0
H626 H 0.64188 0.67927 0.71876 0.0
H627 H 0.67176 0.69111 0.7652 0.0
H628 H 0.60527 0.70344 0.81157 0.0
H629 H 0.575 0.69099 0.76555 0.0
H630 H 0.62556 0.67605 0.84504 0.0
H631 H 0.66872 0.76067 0.78607 0.0
H632 H 0.69124 0.7877 0.74129 0.0
H633 H 0.76325 0.76881 0.749 0.0
H634 H 0.74092 0.74135 0.79364 0.0
C635 C 0.71385 0.76728 0.94924 0.0
C636 C 0.74322 0.77247 0.95393 0.0
C637 C 0.69755 0.75243 0.92328 0.0
C638 C 0.71026 0.74236 0.90165 0.0
C639 C 0.73946 0.74725 0.90636 0.0
C640 C 0.7558 0.76209 0.93237 0.0
C641 C 0.69359 0.72838 0.87334 0.0
C642 C 0.70607 0.74153 0.84674 0.0
C643 C 0.66444 0.70418 0.87274 0.0
C644 C 0.65074 0.68865 0.90005 0.0
C645 C 0.66594 0.67856 0.91797 0.0
C646 C 0.65311 0.66429 0.94386 0.0
C647 C 0.62499 0.65982 0.952 0.0
C648 C 0.60961 0.66956 0.93422 0.0
C649 C 0.62235 0.68387 0.90832 0.0
C650 C 0.63354 0.6843 0.73891 0.0
C651 C 0.60623 0.68446 0.73848 0.0
C652 C 0.65065 0.69109 0.76538 0.0
C653 C 0.64088 0.6985 0.79169 0.0
C654 C 0.61319 0.69775 0.79149 0.0
C655 C 0.59598 0.69077 0.76513 0.0
C656 C 0.66001 0.70843 0.81921 0.0
C657 C 0.64798 0.69455 0.84563 0.0
C658 C 0.68951 0.73212 0.81972 0.0
C659 C 0.70297 0.74867 0.79295 0.0
C660 C 0.68923 0.7621 0.77807 0.0
C661 C 0.70197 0.77752 0.75274 0.0
C662 C 0.7286 0.77988 0.74224 0.0
C663 C 0.74259 0.7669 0.75711 0.0
C664 C 0.72991 0.75142 0.78243 0.0
H665 H 0.73844 0.79184 0.72264 0.0
H666 H 0.6151 0.64878 0.97207 0.0
H667 H 0.31987 0.91483 0.7325 0.0
H668 H 0.31187 0.94468 0.76956 0.0
H669 H 0.40601 0.98973 0.79404 0.0
H670 H 0.4144 0.95965 0.75658 0.0
H671 H 0.36776 0.972 0.843 0.0
H672 H 0.38171 0.02542 0.75689 0.0
H673 H 0.37534 0.03274 0.70403 0.0
H674 H 0.28133 9e-05 0.71543 0.0
H675 H 0.28702 0.99211 0.76826 0.0
H676 H 0.3272 0.05819 0.93742 0.0
H677 H 0.35401 0.04779 0.89832 0.0
H678 H 0.27003 0.98962 0.85248 0.0
H679 H 0.24304 -0.00028 0.89145 0.0
H680 H 0.31524 0.02519 0.81431 0.0
H681 H 0.30023 0.96271 0.89619 0.0
H682 H 0.30523 0.95313 0.94863 0.0
H683 H 0.40098 0.00214 0.94456 0.0
H684 H 0.3965 0.01236 0.89216 0.0
C685 C 0.33898 0.93105 0.74569 0.0
C686 C 0.36781 0.93491 0.74158 0.0
C687 C 0.33436 0.94822 0.76675 0.0
C688 C 0.35843 0.96965 0.78414 0.0
C689 C 0.38723 0.9734 0.78057 0.0
C690 C 0.39196 0.95625 0.75921 0.0
C691 C 0.35266 0.98726 0.80655 0.0
C692 C 0.35708 0.98437 0.83679 0.0
C693 C 0.33837 0.003 0.79828 0.0
C694 C 0.3348 0.00807 0.76656 0.0
C695 C 0.35964 0.01963 0.7481 0.0
C696 C 0.35615 0.02392 0.71813 0.0
C697 C 0.32794 0.01686 0.70637 0.0
C698 C 0.30317 0.00556 0.72458 0.0
C699 C 0.30653 0.0012 0.75456 0.0
C700 C 0.31446 0.04346 0.91882 0.0
C701 C 0.283 0.02959 0.91756 0.0
C702 C 0.32982 0.03754 0.89658 0.0
C703 C 0.31393 0.01785 0.87271 0.0
C704 C 0.28264 0.00494 0.87075 0.0
C705 C 0.26727 0.01062 0.89309 0.0
C706 C 0.32948 0.0091 0.85064 0.0
C707 C 0.3268 0.01362 0.8205 0.0
C708 C 0.34533 0.99484 0.859 0.0
C709 C 0.34803 0.98864 0.89043 0.0
C710 C 0.32234 0.97167 0.90657 0.0
C711 C 0.32508 0.96608 0.93626 0.0
C712 C 0.35341 0.97712 0.94996 0.0
C713 C 0.37905 0.99368 0.93395 0.0
C714 C 0.37643 -0.00062 0.90426 0.0
H715 H 0.35548 0.97276 0.97294 0.0
H716 H 0.32528 0.02017 0.68316 0.0
H717 H 0.46266 0.14401 0.22974 0.0
H718 H 0.43368 0.12219 0.18314 0.0
H719 H 0.37116 0.04767 0.22944 0.0
H720 H 0.39998 0.06916 0.27602 0.0
H721 H 0.38237 0.03343 0.17193 0.0
H722 H 0.35565 0.09969 0.22162 0.0
H723 H 0.36626 0.14674 0.24482 0.0
H724 H 0.4014 0.1875 0.16276 0.0
H725 H 0.39139 0.14072 0.13921 0.0
H726 H 0.24881 0.98166 0.08218 0.0
H727 H 0.28761 -0.0014 0.12185 0.0
H728 H 0.341 0.0767 0.0758 0.0
H729 H 0.30207 0.06036 0.03672 0.0
H730 H 0.33747 0.08949 0.13136 0.0
H731 H 0.35992 0.02228 0.07975 0.0
H732 H 0.3491 0.9752 0.05652 0.0
H733 H 0.32224 0.93613 0.14078 0.0
H734 H 0.3325 0.98291 0.16445 0.0
C735 C 0.44305 0.12276 0.2299 0.0
C736 C 0.43331 0.1085 0.25661 0.0
C737 C 0.42655 0.11034 0.20329 0.0
C738 C 0.40014 0.08352 0.20304 0.0
C739 C 0.39148 0.0684 0.22924 0.0
C740 C 0.40787 0.08082 0.25585 0.0
C741 C 0.37983 0.07262 0.17641 0.0
C742 C 0.3724 0.04554 0.16303 0.0
C743 C 0.36726 0.08872 0.16471 0.0
C744 C 0.3731 0.1168 0.17878 0.0
C745 C 0.36586 0.11873 0.20861 0.0
C746 C 0.37173 0.14534 0.2218 0.0
C747 C 0.38458 0.17011 0.2053 0.0
C748 C 0.39151 0.16831 0.17554 0.0
C749 C 0.38573 0.14176 0.16225 0.0
C750 C 0.26894 0.00233 0.08045 0.0
C751 C 0.27232 0.01979 0.05651 0.0
C752 C 0.29117 0.0119 0.10301 0.0
C753 C 0.31732 0.03882 0.10164 0.0
C754 C 0.32098 0.0559 0.07734 0.0
C755 C 0.29868 0.04653 0.05504 0.0
C756 C 0.33997 0.05023 0.12648 0.0
C757 C 0.3477 0.07742 0.13979 0.0
C758 C 0.35279 0.03421 0.13796 0.0
C759 C 0.34675 0.00606 0.12382 0.0
C760 C 0.3515 0.0036 0.09329 0.0
C761 C 0.3455 0.97698 0.08005 0.0
C762 C 0.33492 0.95267 0.09715 0.0
C763 C 0.3304 0.95497 0.12755 0.0
C764 C 0.33634 0.98154 0.14091 0.0
H765 H 0.33029 0.93208 0.08685 0.0
H766 H 0.3891 0.19069 0.21555 0.0
H767 H 0.94603 0.16152 0.12305 0.0
H768 H 0.92401 0.16854 0.16851 0.0
H769 H 0.94925 0.25523 0.14481 0.0
H770 H 0.97097 0.24832 0.09915 0.0
H771 H 0.94713 0.20626 0.21595 0.0
H772 H 0.89464 0.26999 0.16352 0.0
H773 H 0.87333 0.27243 0.11497 0.0
H774 H 0.8509 0.18481 0.09181 0.0
H775 H 0.87167 0.1817 0.14038 0.0
H776 H 0.92488 0.29577 0.31888 0.0
H777 H 0.93727 0.27313 0.27738 0.0
H778 H 0.84337 0.21407 0.25889 0.0
H779 H 0.83063 0.23696 0.30039 0.0
H780 H 0.87145 0.23839 0.20946 0.0
H781 H 0.88714 0.18918 0.28735 0.0
H782 H 0.90611 0.18379 0.33596 0.0
H783 H -0.00345 0.23556 0.30868 0.0
H784 H 0.97815 0.24163 0.26005 0.0
C785 C 0.947 0.18213 0.12756 0.0
C786 C 0.96004 0.20432 0.10743 0.0
C787 C 0.93445 0.18608 0.15355 0.0
C788 C 0.93461 0.2122 0.1597 0.0
C789 C 0.94842 0.2347 0.14011 0.0
C790 C 0.96095 0.23077 0.11413 0.0
C791 C 0.9203 0.21606 0.18656 0.0
C792 C 0.93046 0.21313 0.2146 0.0
C793 C 0.89793 0.22419 0.18463 0.0
C794 C 0.88492 0.2257 0.15553 0.0
C795 C 0.88501 0.25119 0.14814 0.0
C796 C 0.87306 0.2527 0.1206 0.0
C797 C 0.86084 0.22881 0.10029 0.0
C798 C 0.86046 0.20333 0.10752 0.0
C799 C 0.87235 0.20169 0.13504 0.0
C800 C 0.90681 0.2778 0.3062 0.0
C801 C 0.87675 0.2682 0.31284 0.0
C802 C 0.91396 0.26475 0.2826 0.0
C803 C 0.89125 0.24173 0.26531 0.0
C804 C 0.86121 0.23176 0.27211 0.0
C805 C 0.85399 0.24483 0.2958 0.0
C806 C 0.89912 0.22967 0.23891 0.0
C807 C 0.88777 0.23109 0.21088 0.0
C808 C 0.92 0.21966 0.2409 0.0
C809 C 0.93123 0.21598 0.27008 0.0
C810 C 0.91108 0.19958 0.29178 0.0
C811 C 0.92173 0.19638 0.31933 0.0
C812 C 0.95251 0.20936 0.32542 0.0
C813 C 0.97271 0.22552 0.30393 0.0
C814 C 0.96217 0.2288 0.27635 0.0
H815 H 0.96072 0.20686 0.34676 0.0
H816 H 0.85163 0.23004 0.07896 0.0
H817 H 0.6428 0.59903 0.27288 0.0
H818 H 0.65321 0.63867 0.24037 0.0
H819 H 0.71785 0.62314 0.19449 0.0
H820 H 0.70778 0.5838 0.22668 0.0
H821 H 0.74008 0.6803 0.21217 0.0
H822 H 0.65028 0.60097 0.1631 0.0
H823 H 0.59715 0.56307 0.16121 0.0
H824 H 0.57117 0.62694 0.18249 0.0
H825 H 0.62423 0.66518 0.18485 0.0
H826 H 0.73207 0.71341 0.05482 0.0
H827 H 0.70696 0.68417 0.09669 0.0
H828 H 0.74316 0.76101 0.1551 0.0
H829 H 0.76874 0.79064 0.11306 0.0
H830 H 0.66693 0.68038 0.13919 0.0
H831 H 0.76748 0.7434 0.2186 0.0
H832 H 0.82149 0.77873 0.21786 0.0
H833 H 0.8269 0.74319 0.13205 0.0
H834 H 0.77305 0.70749 0.1325 0.0
C835 C 0.65901 0.6039 0.25566 0.0
C836 C 0.67457 0.58836 0.25241 0.0
C837 C 0.66494 0.62655 0.23719 0.0
C838 C 0.68643 0.63388 0.21526 0.0
C839 C 0.70139 0.61794 0.21153 0.0
C840 C 0.69548 0.59537 0.22985 0.0
C841 C 0.69409 0.65837 0.19618 0.0
C842 C 0.72398 0.68059 0.19656 0.0
C843 C 0.67301 0.6588 0.17602 0.0
C844 C 0.64119 0.63584 0.17453 0.0
C845 C 0.63325 0.60688 0.16763 0.0
C846 C 0.60315 0.58536 0.16641 0.0
C847 C 0.5808 0.59258 0.17183 0.0
C848 C 0.58851 0.62137 0.17837 0.0
C849 C 0.61858 0.64297 0.17963 0.0
C850 C 0.73441 0.7242 0.07647 0.0
C851 C 0.75285 0.75425 0.08082 0.0
C852 C 0.71975 0.70747 0.10031 0.0
C853 C 0.7234 0.72043 0.12897 0.0
C854 C 0.74021 0.75064 0.1331 0.0
C855 C 0.75486 0.76749 0.10913 0.0
C856 C 0.7131 0.70172 0.15461 0.0
C857 C 0.68277 0.68066 0.15557 0.0
C858 C 0.73382 0.70206 0.17581 0.0
C859 C 0.76625 0.7231 0.17544 0.0
C860 C 0.78026 0.74314 0.19963 0.0
C861 C 0.81082 0.7632 0.19926 0.0
C862 C 0.82759 0.76328 0.17487 0.0
C863 C 0.81387 0.74319 0.15087 0.0
C864 C 0.78334 0.72305 0.15116 0.0
H865 H 0.85123 0.77885 0.17461 0.0
H866 H 0.55751 0.57589 0.17087 0.0
H867 H 0.11939 0.41642 0.61692 0.0
H868 H 0.09257 0.3997 0.56875 0.0
H869 H 0.13956 0.48671 0.53888 0.0
H870 H 0.16659 0.50368 0.58712 0.0
H871 H 0.07935 0.46326 0.53388 0.0
H872 H 0.15136 0.43706 0.5045 0.0
H873 H 0.18419 0.41562 0.50872 0.0
H874 H 0.10728 0.33117 0.51269 0.0
H875 H 0.07396 0.35213 0.50895 0.0
H876 H 0.00075 0.37507 0.38682 0.0
H877 H 0.04532 0.39851 0.41997 0.0
H878 H 0.98946 0.38452 0.49567 0.0
H879 H 0.94481 0.36113 0.46279 0.0
H880 H 0.06294 0.37886 0.46859 0.0
H881 H 0.02243 0.44509 0.54094 0.0
H882 H 0.99098 0.46788 0.53513 0.0
H883 H 0.00916 0.47609 0.4418 0.0
H884 H 0.04108 0.45375 0.44713 0.0
C885 C 0.12444 0.43192 0.59991 0.0
C886 C 0.14481 0.46141 0.60588 0.0
C887 C 0.10926 0.4223 0.57233 0.0
C888 C 0.11418 0.44199 0.55029 0.0
C889 C 0.13556 0.47122 0.55564 0.0
C890 C 0.15096 0.48084 0.58318 0.0
C891 C 0.09419 0.4325 0.52345 0.0
C892 C 0.07602 0.44504 0.51936 0.0
C893 C 0.09023 0.40903 0.50432 0.0
C894 C 0.11014 0.39623 0.50661 0.0
C895 C 0.14143 0.41394 0.50651 0.0
C896 C 0.16013 0.40186 0.50877 0.0
C897 C 0.14783 0.37205 0.51101 0.0
C898 C 0.11678 0.35426 0.51095 0.0
C899 C 0.09797 0.36623 0.50871 0.0
C900 C -0.00205 0.37688 0.41055 0.0
C901 C 0.96929 0.36643 0.42222 0.0
C902 C 0.02341 0.39018 0.4294 0.0
C903 C 0.0206 0.39349 0.4601 0.0
C904 C 0.99202 0.38246 0.47191 0.0
C905 C 0.96656 0.36903 0.45313 0.0
C906 C 0.04744 0.40889 0.48 0.0
C907 C 0.06674 0.39743 0.48278 0.0
C908 C 0.05273 0.43361 0.49774 0.0
C909 C 0.03399 0.44755 0.49442 0.0
C910 C 0.01986 0.45191 0.51922 0.0
C911 C 0.00192 0.46472 0.516 0.0
C912 C -0.00198 0.47337 0.4881 0.0
C913 C 0.01213 0.46931 0.46338 0.0
C914 C 0.03012 0.45654 0.46648 0.0
H915 H 0.98409 0.48325 0.48565 0.0
H916 H 0.16235 0.36274 0.51275 0.0
H917 H 0.62886 0.55345 0.38736 0.0
H918 H 0.63437 0.58562 0.43004 0.0
H919 H 0.72976 0.61852 0.43327 0.0
H920 H 0.72455 0.58639 0.39 0.0
H921 H 0.69849 0.60291 0.49073 0.0
H922 H 0.71275 0.66192 0.4086 0.0
H923 H 0.70172 0.67234 0.35847 0.0
H924 H 0.61485 0.65555 0.38564 0.0
H925 H 0.62514 0.64455 0.4358 0.0
H926 H 0.6846 0.69345 0.60534 0.0
H927 H 0.70578 0.6818 0.56163 0.0
H928 H 0.61955 0.64324 0.51566 0.0
H929 H 0.59851 0.65512 0.55863 0.0
H930 H 0.66323 0.67381 0.47874 0.0
H931 H 0.6434 0.6027 0.55368 0.0
H932 H 0.65044 0.58775 0.60307 0.0
H933 H 0.74458 0.62431 0.58895 0.0
H934 H 0.73809 0.63976 0.53958 0.0
C935 C 0.65104 0.56737 0.39715 0.0
C936 C 0.6763 0.56749 0.38525 0.0
C937 C 0.65414 0.58581 0.42146 0.0
C938 C 0.68249 0.60458 0.43444 0.0
C939 C 0.70775 0.60423 0.42332 0.0
C940 C 0.70471 0.58594 0.39866 0.0
C941 C 0.68507 0.62445 0.45956 0.0
C942 C 0.69169 0.61908 0.48816 0.0
C943 C 0.67587 0.64523 0.45598 0.0
C944 C 0.66972 0.65233 0.42597 0.0
C945 C 0.69123 0.6603 0.40385 0.0
C946 C 0.68511 0.66632 0.37542 0.0
C947 C 0.6576 0.66459 0.36887 0.0
C948 C 0.63617 0.6569 0.39076 0.0
C949 C 0.64216 0.65083 0.41921 0.0
C950 C 0.6703 0.68281 0.58575 0.0
C951 C 0.63982 0.67497 0.58552 0.0
C952 C 0.68242 0.67614 0.56086 0.0
C953 C 0.66416 0.66147 0.53553 0.0
C954 C 0.63407 0.65466 0.53494 0.0
C955 C 0.62202 0.66132 0.55964 0.0
C956 C 0.67526 0.6513 0.51009 0.0
C957 C 0.67119 0.6585 0.48135 0.0
C958 C 0.68647 0.63197 0.51357 0.0
C959 C 0.69034 0.62272 0.54319 0.0
C960 C 0.66563 0.60774 0.56124 0.0
C961 C 0.66951 0.59915 0.58919 0.0
C962 C 0.69796 0.60518 0.59919 0.0
C963 C 0.72257 0.61974 0.58121 0.0
C964 C 0.71881 0.62841 0.55325 0.0
H965 H 0.70092 0.5985 0.62083 0.0
H966 H 0.65289 0.66923 0.34684 0.0
H967 H 0.33292 0.95321 0.62313 0.0
H968 H 0.34174 0.98051 0.57831 0.0
H969 H 0.36678 0.92326 0.53199 0.0
H970 H 0.35888 0.89642 0.57696 0.0
H971 H 0.40626 0.97689 0.52385 0.0
H972 H 0.29911 0.92146 0.51701 0.0
H973 H 0.24771 0.90213 0.53463 0.0
H974 H 0.26125 0.98831 0.54651 0.0
H975 H 0.3129 0.00819 0.52933 0.0
H976 H 0.41038 0.02509 0.37948 0.0
H977 H 0.39182 0.99365 0.42141 0.0
H978 H 0.38276 0.05945 0.47199 0.0
H979 H 0.40145 0.09121 0.43015 0.0
H980 H 0.33412 0.00148 0.47723 0.0
H981 H 0.44187 0.05631 0.4852 0.0
H982 H 0.49282 0.07506 0.46649 0.0
H983 H 0.47711 0.98837 0.45171 0.0
H984 H 0.42585 0.96908 0.46987 0.0
C985 C 0.34004 0.94629 0.60331 0.0
C986 C 0.3453 0.92275 0.60355 0.0
C987 C 0.34493 0.96182 0.57766 0.0
C988 C 0.35464 0.95374 0.55172 0.0
C989 C 0.35932 0.92987 0.55178 0.0
C990 C 0.35477 0.91455 0.57748 0.0
C991 C 0.36164 0.97112 0.52503 0.0
C992 C 0.39026 0.98182 0.51341 0.0
C993 C 0.34106 0.97821 0.51187 0.0
C994 C 0.30998 0.96632 0.52214 0.0
C995 C 0.29121 0.9363 0.5236 0.0
C996 C 0.26201 0.92525 0.53347 0.0
C997 C 0.25125 0.94398 0.54176 0.0
C998 C 0.26963 0.97382 0.54012 0.0
C999 C 0.29886 0.98499 0.53028 0.0
C1000 C 0.40412 0.03278 0.39937 0.0
C1001 C 0.40765 0.06073 0.40167 0.0
C1002 C 0.39354 0.0148 0.42326 0.0
C1003 C 0.38622 0.02443 0.44974 0.0
C1004 C 0.38833 0.05173 0.45165 0.0
C1005 C 0.39914 0.06985 0.42782 0.0
C1006 C 0.37846 0.00678 0.47612 0.0
C1007 C 0.34989 -0.00374 0.48771 0.0
C1008 C 0.39899 -0.00031 0.48922 0.0
C1009 C 0.42992 0.01125 0.4786 0.0
C1010 C 0.44919 0.04124 0.47772 0.0
C1011 C 0.47814 0.05196 0.46726 0.0
C1012 C 0.48817 0.03291 0.45784 0.0
C1013 C 0.4693 0.0031 0.45896 0.0
C1014 C 0.4403 0.99225 0.46935 0.0
H1015 H 0.51059 0.04126 0.44975 0.0
H1016 H 0.22863 0.93538 0.5494 0.0
loop_
_geom_bond_atom_site_label_1
_geom_bond_atom_site_label_2
_geom_bond_distance
_geom_bond_site_symmetry_2
_ccdc_geom_bond_type
C0 O1 1.160 . S
C0 O7 1.185 . S
O1 C0 1.160 . S
O2 Zn3 1.899 . S
O2 C10 1.284 . S
Zn3 O2 1.899 . S
Zn3 O4 2.032 . S
Zn3 O7 2.086 1_554 S
Zn3 O12 1.977 1_454 S
O4 Zn3 2.032 . S
O4 C8 1.278 . S
C5 O6 1.203 . S
C5 O12 1.267 1_554 S
O6 C5 1.203 . S
O7 C0 1.185 . S
O7 Zn3 2.086 1_556 S
C8 O4 1.278 . S
C8 O9 1.211 1_455 S
O9 C8 1.211 1_655 S
C10 O2 1.284 . S
C10 O11 1.273 . S
O11 C10 1.273 . S
O12 Zn3 1.977 1_656 S
O12 C5 1.267 1_556 S
C13 O14 1.160 . S
C13 O20 1.185 . S
O14 C13 1.160 . S
O15 Zn16 1.899 . S
O15 C23 1.287 . S
Zn16 O15 1.899 . S
Zn16 O17 2.032 1_554 S
Zn16 O20 2.086 . S
Zn16 O25 1.977 . S
O17 Zn16 2.032 1_556 S
O17 C21 1.278 . S
C18 O19 1.203 . S
C18 O25 1.267 . S
O19 C18 1.203 . S
O20 C13 1.185 . S
O20 Zn16 2.086 . S
C21 O17 1.278 . S
C21 O22 1.211 . S
O22 C21 1.211 . S
C23 O15 1.287 . S
C23 O24 1.270 1_554 S
O24 C23 1.270 1_556 S
O25 Zn16 1.977 . S
O25 C18 1.267 . S
C26 O27 1.160 . S
C26 O33 1.185 1_565 S
O27 C26 1.160 . S
O28 Zn29 1.899 1_566 S
O28 C36 1.284 1_556 S
Zn29 O28 1.899 1_544 S
Zn29 O30 2.037 . S
Zn29 O33 2.080 1_554 S
Zn29 O38 1.976 1_554 S
O30 Zn29 2.037 . S
O30 C34 1.278 . S
C31 O32 1.203 . S
C31 O38 1.267 1_554 S
O32 C31 1.203 . S
O33 C26 1.185 1_545 S
O33 Zn29 2.080 1_556 S
C34 O30 1.278 . S
C34 O35 1.211 . S
O35 C34 1.211 . S
C36 O28 1.284 1_554 S
C36 O37 1.273 . S
O37 C36 1.273 . S
O38 Zn29 1.976 1_556 S
O38 C31 1.267 1_556 S
C39 O40 1.160 . S
C39 O46 1.185 . S
O40 C39 1.160 . S
O41 Zn42 1.899 . S
O41 C49 1.284 . S
Zn42 O41 1.899 . S
Zn42 O43 2.032 . S
Zn42 O46 2.086 . S
Zn42 O51 1.977 . S
O43 Zn42 2.032 . S
O43 C47 1.278 . S
C44 O45 1.203 . S
C44 O51 1.267 . S
O45 C44 1.203 . S
O46 C39 1.185 . S
O46 Zn42 2.086 . S
C47 O43 1.278 . S
C47 O48 1.211 . S
O48 C47 1.211 . S
C49 O41 1.284 . S
C49 O50 1.273 . S
O50 C49 1.273 . S
O51 Zn42 1.977 . S
O51 C44 1.267 . S
C52 O53 1.160 . S
C52 O59 1.185 . S
O53 C52 1.160 . S
O54 Zn55 1.899 . S
O54 C62 1.284 . S
Zn55 O54 1.899 . S
Zn55 O56 2.032 . S
Zn55 O59 2.086 . S
Zn55 O64 1.977 . S
O56 Zn55 2.032 . S
O56 C60 1.278 . S
C57 O58 1.203 . S
C57 O64 1.267 . S
O58 C57 1.203 . S
O59 C52 1.185 . S
O59 Zn55 2.086 . S
C60 O56 1.278 . S
C60 O61 1.211 . S
O61 C60 1.211 . S
C62 O54 1.284 . S
C62 O63 1.273 . S
O63 C62 1.273 . S
O64 Zn55 1.977 . S
O64 C57 1.267 . S
C65 O66 1.160 . S
C65 O72 1.185 . S
O66 C65 1.160 . S
O67 Zn68 1.899 . S
O67 C75 1.284 . S
Zn68 O67 1.899 . S
Zn68 O69 2.032 . S
Zn68 O72 2.086 . S
Zn68 O77 1.977 . S
O69 Zn68 2.032 . S
O69 C73 1.278 . S
C70 O71 1.203 . S
C70 O77 1.267 . S
O71 C70 1.203 . S
O72 C65 1.185 . S
O72 Zn68 2.086 . S
C73 O69 1.278 . S
C73 O74 1.211 . S
O74 C73 1.211 . S
C75 O67 1.284 . S
C75 O76 1.273 . S
O76 C75 1.273 . S
O77 Zn68 1.977 . S
O77 C70 1.267 . S
C78 O79 1.160 . S
C78 O85 1.185 . S
O79 C78 1.160 . S
O80 Zn81 1.899 . S
O80 C88 1.284 . S
Zn81 O80 1.899 . S
Zn81 O82 2.032 . S
Zn81 O85 2.086 . S
Zn81 O90 1.977 . S
O82 Zn81 2.032 . S
O82 C86 1.278 . S
C83 O84 1.203 . S
C83 O90 1.267 . S
O84 C83 1.203 . S
O85 C78 1.185 . S
O85 Zn81 2.086 . S
C86 O82 1.278 . S
C86 O87 1.211 . S
O87 C86 1.211 . S
C88 O80 1.284 . S
C88 O89 1.273 . S
O89 C88 1.273 . S
O90 Zn81 1.977 . S
O90 C83 1.267 . S
C91 O92 1.160 . S
C91 O98 1.185 . S
O92 C91 1.160 . S
O93 Zn94 1.899 . S
O93 C101 1.284 . S
Zn94 O93 1.899 . S
Zn94 O95 2.032 . S
Zn94 O98 2.086 . S
Zn94 O103 1.977 . S
O95 Zn94 2.032 . S
O95 C99 1.278 . S
C96 O97 1.203 . S
C96 O103 1.267 . S
O97 C96 1.203 . S
O98 C91 1.185 . S
O98 Zn94 2.086 . S
C99 O95 1.278 . S
C99 O100 1.211 . S
O100 C99 1.211 . S
C101 O93 1.284 . S
C101 O102 1.273 . S
O102 C101 1.273 . S
O103 Zn94 1.977 . S
O103 C96 1.267 . S
C104 O105 1.160 . S
C104 O111 1.185 . S
O105 C104 1.160 . S
O106 Zn107 1.899 . S
O106 C114 1.284 . S
Zn107 O106 1.899 . S
Zn107 O108 2.032 . S
Zn107 O111 2.086 . S
Zn107 O116 1.977 . S
O108 Zn107 2.032 . S
O108 C112 1.278 . S
C109 O110 1.203 . S
C109 O116 1.267 . S
O110 C109 1.203 . S
O111 C104 1.185 . S
O111 Zn107 2.086 . S
C112 O108 1.278 . S
C112 O113 1.211 . S
O113 C112 1.211 . S
C114 O106 1.284 . S
C114 O115 1.273 . S
O115 C114 1.273 . S
O116 Zn107 1.977 . S
O116 C109 1.267 . S
H117 C135 0.951 . S
H118 C137 0.951 . S
H119 C139 0.950 . S
H120 C140 0.950 . S
H121 C142 0.950 . S
H122 C145 0.950 . S
H123 C146 0.950 . S
H124 C148 0.950 . S
H125 C149 0.950 . S
H126 C150 0.951 1_556 S
H127 C152 0.951 . S
H128 C154 0.950 . S
H129 C155 0.950 . S
H130 C157 0.950 . S
H131 C160 0.950 1_554 S
H132 C161 0.950 . S
H133 C163 0.950 . S
H134 C164 0.950 . S
C135 H117 0.951 . S
C135 C136 1.366 . S
C135 C137 1.388 . S
C136 C135 1.366 . S
C136 C140 1.385 1_554 S
C137 H118 0.951 . S
C137 C135 1.388 . S
C137 C138 1.366 . S
C138 C137 1.366 . S
C138 C139 1.414 1_554 S
C138 C141 1.499 . S
C139 H119 0.950 . S
C139 C138 1.414 1_556 S
C139 C140 1.374 . S
C140 H120 0.950 . S
C140 C136 1.385 1_556 S
C140 C139 1.374 . S
C141 C138 1.499 . S
C141 C142 1.373 1_554 S
C141 C143 1.389 . S
C142 H121 0.950 . S
C142 C141 1.373 1_556 S
C142 C158 1.377 . S
C143 C141 1.389 . S
C143 C144 1.524 . S
C143 C157 1.377 . S
C144 C143 1.524 . S
C144 C145 1.397 . S
C144 C149 1.363 . S
C145 H122 0.950 . S
C145 C144 1.397 . S
C145 C146 1.334 . S
C146 H123 0.950 . S
C146 C145 1.334 . S
C146 C147 1.287 . S
C147 C146 1.287 . S
C147 C148 1.524 . S
C147 H166 0.913 . S
C148 H124 0.950 . S
C148 C147 1.524 . S
C148 C149 1.415 . S
C149 H125 0.950 . S
C149 C144 1.363 . S
C149 C148 1.415 . S
C150 H126 0.951 1_554 S
C150 C151 1.366 . S
C150 C152 1.388 1_554 S
C151 C150 1.366 . S
C151 C155 1.385 . S
C152 H127 0.951 . S
C152 C150 1.388 1_556 S
C152 C153 1.366 1_556 S
C153 C152 1.366 1_554 S
C153 C154 1.414 . S
C153 C156 1.499 . S
C154 H128 0.950 . S
C154 C153 1.414 . S
C154 C155 1.374 . S
C155 H129 0.950 . S
C155 C151 1.385 . S
C155 C154 1.374 . S
C156 C153 1.499 . S
C156 C157 1.373 . S
C156 C158 1.389 1_554 S
C157 H130 0.950 . S
C157 C143 1.377 . S
C157 C156 1.373 . S
C158 C142 1.377 . S
C158 C156 1.389 1_556 S
C158 C159 1.524 . S
C159 C158 1.524 . S
C159 C160 1.397 . S
C159 C164 1.363 . S
C160 H131 0.950 1_556 S
C160 C159 1.397 . S
C160 C161 1.334 . S
C161 H132 0.950 . S
C161 C160 1.334 . S
C161 C162 1.287 . S
C162 C161 1.287 . S
C162 C163 1.524 . S
C162 H165 0.999 . S
C163 H133 0.950 . S
C163 C162 1.524 . S
C163 C164 1.415 . S
C164 H134 0.950 . S
C164 C159 1.363 . S
C164 C163 1.415 . S
H165 C162 0.999 . S
H166 C147 0.913 . S
H167 C185 0.951 . S
H168 C187 0.951 . S
H169 C189 0.952 . S
H170 C190 0.950 . S
H171 C192 0.950 . S
H172 C195 0.950 . S
H173 C196 0.950 . S
H174 C198 0.950 . S
H175 C199 0.934 1_544 S
H176 C200 0.951 . S
H177 C202 0.951 . S
H178 C204 0.950 . S
H179 C205 0.950 . S
H180 C207 0.950 1_556 S
H181 C210 0.950 . S
H182 C211 0.950 . S
H183 C213 0.950 . S
H184 C214 0.950 . S
C185 H167 0.951 . S
C185 C186 1.366 . S
C185 C187 1.388 . S
C186 C185 1.366 . S
C186 C190 1.385 . S
C187 H168 0.951 . S
C187 C185 1.388 . S
C187 C188 1.366 . S
C188 C187 1.366 . S
C188 C189 1.414 . S
C188 C191 1.499 . S
C189 H169 0.952 . S
C189 C188 1.414 . S
C189 C190 1.374 . S
C190 H170 0.950 . S
C190 C186 1.385 . S
C190 C189 1.374 . S
C191 C188 1.499 . S
C191 C192 1.373 . S
C191 C193 1.389 . S
C192 H171 0.950 . S
C192 C191 1.373 . S
C192 C208 1.377 1_565 S
C193 C191 1.389 . S
C193 C194 1.524 1_554 S
C193 C207 1.377 1_565 S
C194 C193 1.524 1_556 S
C194 C195 1.397 . S
C194 C199 1.370 . S
C195 H172 0.950 . S
C195 C194 1.397 . S
C195 C196 1.334 . S
C196 H173 0.950 . S
C196 C195 1.334 . S
C196 C197 1.287 . S
C197 C196 1.287 . S
C197 C198 1.524 . S
C197 H216 0.913 . S
C198 H174 0.950 . S
C198 C197 1.524 . S
C198 C199 1.425 . S
C199 H175 0.934 1_566 S
C199 C194 1.370 . S
C199 C198 1.425 . S
C200 H176 0.951 . S
C200 C201 1.366 1_556 S
C200 C202 1.388 . S
C201 C200 1.366 1_554 S
C201 C205 1.385 . S
C202 H177 0.951 . S
C202 C200 1.388 . S
C202 C203 1.366 1_556 S
C203 C202 1.366 1_554 S
C203 C204 1.414 . S
C203 C206 1.499 . S
C204 H178 0.950 . S
C204 C203 1.414 . S
C204 C205 1.374 . S
C205 H179 0.950 . S
C205 C201 1.385 . S
C205 C204 1.374 . S
C206 C203 1.499 . S
C206 C207 1.373 . S
C206 C208 1.389 . S
C207 H180 0.950 1_554 S
C207 C193 1.377 1_545 S
C207 C206 1.373 . S
C208 C192 1.377 1_545 S
C208 C206 1.389 . S
C208 C209 1.524 . S
C209 C208 1.524 . S
C209 C210 1.397 . S
C209 C214 1.363 . S
C210 H181 0.950 . S
C210 C209 1.397 . S
C210 C211 1.334 . S
C211 H182 0.950 . S
C211 C210 1.334 . S
C211 C212 1.287 1_655 S
C212 C211 1.287 1_455 S
C212 C213 1.524 . S
C212 H215 0.999 . S
C213 H183 0.950 . S
C213 C212 1.524 . S
C213 C214 1.415 1_455 S
C214 H184 0.950 . S
C214 C209 1.363 . S
C214 C213 1.415 1_655 S
H215 C212 0.999 . S
H216 C197 0.913 . S
H217 C235 0.951 . S
H218 C237 0.950 . S
H219 C239 0.950 . S
H220 C240 0.950 . S
H221 C242 0.950 1_655 S
H222 C245 0.950 . S
H223 C246 0.950 . S
H224 C248 0.950 . S
H225 C249 0.950 . S
H226 C250 0.951 . S
H227 C252 0.951 . S
H228 C254 0.950 . S
H229 C255 0.950 . S
H230 C257 0.950 . S
H231 C260 0.950 . S
H232 C261 0.950 . S
H233 C263 0.934 1_545 S
H234 C264 0.950 . S
C235 H217 0.951 . S
C235 C236 1.366 1_556 S
C235 C237 1.388 1_556 S
C236 C235 1.366 1_554 S
C236 C240 1.385 . S
C237 H218 0.950 . S
C237 C235 1.388 1_554 S
C237 C238 1.366 . S
C238 C237 1.366 . S
C238 C239 1.414 . S
C238 C241 1.499 . S
C239 H219 0.950 . S
C239 C238 1.414 . S
C239 C240 1.374 . S
C240 H220 0.950 . S
C240 C236 1.385 . S
C240 C239 1.374 . S
C241 C238 1.499 . S
C241 C242 1.373 1_654 S
C241 C243 1.389 1_655 S
C242 H221 0.950 1_455 S
C242 C241 1.373 1_456 S
C242 C258 1.377 . S
C243 C241 1.389 1_455 S
C243 C244 1.524 1_455 S
C243 C257 1.377 . S
C244 C243 1.524 1_655 S
C244 C245 1.397 . S
C244 C249 1.363 1_655 S
C245 H222 0.950 . S
C245 C244 1.397 . S
C245 C246 1.334 . S
C246 H223 0.950 . S
C246 C245 1.334 . S
C246 C247 1.287 . S
C247 C246 1.287 . S
C247 C248 1.524 . S
C247 H266 0.913 . S
C248 H224 0.950 . S
C248 C247 1.524 . S
C248 C249 1.415 1_655 S
C249 H225 0.950 . S
C249 C244 1.363 1_455 S
C249 C248 1.415 1_455 S
C250 H226 0.951 . S
C250 C251 1.366 . S
C250 C252 1.388 . S
C251 C250 1.366 . S
C251 C255 1.385 . S
C252 H227 0.951 . S
C252 C250 1.388 . S
C252 C253 1.366 . S
C253 C252 1.366 . S
C253 C254 1.414 . S
C253 C256 1.499 . S
C254 H228 0.950 . S
C254 C253 1.414 . S
C254 C255 1.374 . S
C255 H229 0.950 . S
C255 C251 1.385 . S
C255 C254 1.374 . S
C256 C253 1.499 . S
C256 C257 1.373 . S
C256 C258 1.389 1_554 S
C257 H230 0.950 . S
C257 C243 1.377 . S
C257 C256 1.373 . S
C258 C242 1.377 . S
C258 C256 1.389 1_556 S
C258 C259 1.524 . S
C259 C258 1.524 . S
C259 C260 1.397 . S
C259 C264 1.363 . S
C260 H231 0.950 . S
C260 C259 1.397 . S
C260 C261 1.334 . S
C261 H232 0.950 . S
C261 C260 1.334 . S
C261 C262 1.287 . S
C262 C261 1.287 . S
C262 C263 1.524 . S
C262 H265 0.999 . S
C263 H233 0.934 1_565 S
C263 C262 1.524 . S
C263 C264 1.415 . S
C264 H234 0.950 . S
C264 C259 1.363 . S
C264 C263 1.415 . S
H265 C262 0.999 . S
H266 C247 0.913 . S
H267 C285 0.951 . S
H268 C287 0.951 . S
H269 C289 0.950 . S
H270 C290 0.950 . S
H271 C292 0.950 . S
H272 C295 0.950 . S
H273 C296 0.950 . S
H274 C298 0.950 . S
H275 C299 0.950 . S
H276 C300 0.951 . S
H277 C302 0.951 . S
H278 C304 0.950 . S
H279 C305 0.950 . S
H280 C307 0.950 . S
H281 C310 0.950 . S
H282 C311 0.950 . S
H283 C313 0.950 . S
H284 C314 0.950 . S
C285 H267 0.951 . S
C285 C286 1.366 . S
C285 C287 1.388 . S
C286 C285 1.366 . S
C286 C290 1.385 . S
C287 H268 0.951 . S
C287 C285 1.388 . S
C287 C288 1.366 . S
C288 C287 1.366 . S
C288 C289 1.414 . S
C288 C291 1.499 . S
C289 H269 0.950 . S
C289 C288 1.414 . S
C289 C290 1.374 . S
C290 H270 0.950 . S
C290 C286 1.385 . S
C290 C289 1.374 . S
C291 C288 1.499 . S
C291 C292 1.373 . S
C291 C293 1.389 . S
C292 H271 0.950 . S
C292 C291 1.373 . S
C292 C308 1.377 . S
C293 C291 1.389 . S
C293 C294 1.524 . S
C293 C307 1.377 . S
C294 C293 1.524 . S
C294 C295 1.397 . S
C294 C299 1.363 . S
C295 H272 0.950 . S
C295 C294 1.397 . S
C295 C296 1.334 . S
C296 H273 0.950 . S
C296 C295 1.334 . S
C296 C297 1.287 . S
C297 C296 1.287 . S
C297 C298 1.524 . S
C297 H316 0.913 . S
C298 H274 0.950 . S
C298 C297 1.524 . S
C298 C299 1.415 . S
C299 H275 0.950 . S
C299 C294 1.363 . S
C299 C298 1.415 . S
C300 H276 0.951 . S
C300 C301 1.366 . S
C300 C302 1.388 . S
C301 C300 1.366 . S
C301 C305 1.385 . S
C302 H277 0.951 . S
C302 C300 1.388 . S
C302 C303 1.366 . S
C303 C302 1.366 . S
C303 C304 1.414 . S
C303 C306 1.499 . S
C304 H278 0.950 . S
C304 C303 1.414 . S
C304 C305 1.374 . S
C305 H279 0.950 . S
C305 C301 1.385 . S
C305 C304 1.374 . S
C306 C303 1.499 . S
C306 C307 1.373 . S
C306 C308 1.389 . S
C307 H280 0.950 . S
C307 C293 1.377 . S
C307 C306 1.373 . S
C308 C292 1.377 . S
C308 C306 1.389 . S
C308 C309 1.524 . S
C309 C308 1.524 . S
C309 C310 1.397 . S
C309 C314 1.363 . S
C310 H281 0.950 . S
C310 C309 1.397 . S
C310 C311 1.334 . S
C311 H282 0.950 . S
C311 C310 1.334 . S
C311 C312 1.287 . S
C312 C311 1.287 . S
C312 C313 1.524 . S
C312 H315 0.999 . S
C313 H283 0.950 . S
C313 C312 1.524 . S
C313 C314 1.415 . S
C314 H284 0.950 . S
C314 C309 1.363 . S
C314 C313 1.415 . S
H315 C312 0.999 . S
H316 C297 0.913 . S
H317 C335 0.951 . S
H318 C337 0.951 . S
H319 C339 0.950 . S
H320 C340 0.950 . S
H321 C342 0.950 . S
H322 C345 0.950 . S
H323 C346 0.950 . S
H324 C348 0.950 . S
H325 C349 0.950 . S
H326 C350 0.951 . S
H327 C352 0.951 . S
H328 C354 0.950 . S
H329 C355 0.950 . S
H330 C357 0.950 . S
H331 C360 0.950 . S
H332 C361 0.950 . S
H333 C363 0.950 . S
H334 C364 0.950 . S
C335 H317 0.951 . S
C335 C336 1.366 . S
C335 C337 1.388 . S
C336 C335 1.366 . S
C336 C340 1.385 . S
C337 H318 0.951 . S
C337 C335 1.388 . S
C337 C338 1.366 . S
C338 C337 1.366 . S
C338 C339 1.414 . S
C338 C341 1.499 . S
C339 H319 0.950 . S
C339 C338 1.414 . S
C339 C340 1.374 . S
C340 H320 0.950 . S
C340 C336 1.385 . S
C340 C339 1.374 . S
C341 C338 1.499 . S
C341 C342 1.373 . S
C341 C343 1.389 . S
C342 H321 0.950 . S
C342 C341 1.373 . S
C342 C358 1.377 . S
C343 C341 1.389 . S
C343 C344 1.524 . S
C343 C357 1.377 . S
C344 C343 1.524 . S
C344 C345 1.397 . S
C344 C349 1.363 . S
C345 H322 0.950 . S
C345 C344 1.397 . S
C345 C346 1.334 . S
C346 H323 0.950 . S
C346 C345 1.334 . S
C346 C347 1.287 . S
C347 C346 1.287 . S
C347 C348 1.524 . S
C347 H366 0.913 . S
C348 H324 0.950 . S
C348 C347 1.524 . S
C348 C349 1.415 . S
C349 H325 0.950 . S
C349 C344 1.363 . S
C349 C348 1.415 . S
C350 H326 0.951 . S
C350 C351 1.366 . S
C350 C352 1.388 . S
C351 C350 1.366 . S
C351 C355 1.385 . S
C352 H327 0.951 . S
C352 C350 1.388 . S
C352 C353 1.366 . S
C353 C352 1.366 . S
C353 C354 1.414 . S
C353 C356 1.499 . S
C354 H328 0.950 . S
C354 C353 1.414 . S
C354 C355 1.374 . S
C355 H329 0.950 . S
C355 C351 1.385 . S
C355 C354 1.374 . S
C356 C353 1.499 . S
C356 C357 1.373 . S
C356 C358 1.389 . S
C357 H330 0.950 . S
C357 C343 1.377 . S
C357 C356 1.373 . S
C358 C342 1.377 . S
C358 C356 1.389 . S
C358 C359 1.524 . S
C359 C358 1.524 . S
C359 C360 1.397 . S
C359 C364 1.363 . S
C360 H331 0.950 . S
C360 C359 1.397 . S
C360 C361 1.334 . S
C361 H332 0.950 . S
C361 C360 1.334 . S
C361 C362 1.287 . S
C362 C361 1.287 . S
C362 C363 1.524 . S
C362 H365 0.999 . S
C363 H333 0.950 . S
C363 C362 1.524 . S
C363 C364 1.415 . S
C364 H334 0.950 . S
C364 C359 1.363 . S
C364 C363 1.415 . S
H365 C362 0.999 . S
H366 C347 0.913 . S
H367 C385 0.951 . S
H368 C387 0.951 . S
H369 C389 0.950 . S
H370 C390 0.950 . S
H371 C392 0.950 . S
H372 C395 0.950 . S
H373 C396 0.950 . S
H374 C398 0.950 . S
H375 C399 0.950 . S
H376 C400 0.951 . S
H377 C402 0.951 . S
H378 C404 0.950 . S
H379 C405 0.950 . S
H380 C407 0.950 . S
H381 C410 0.950 . S
H382 C411 0.950 . S
H383 C413 0.950 . S
H384 C414 0.950 . S
C385 H367 0.951 . S
C385 C386 1.366 . S
C385 C387 1.388 . S
C386 C385 1.366 . S
C386 C390 1.385 . S
C387 H368 0.951 . S
C387 C385 1.388 . S
C387 C388 1.366 . S
C388 C387 1.366 . S
C388 C389 1.414 . S
C388 C391 1.499 . S
C389 H369 0.950 . S
C389 C388 1.414 . S
C389 C390 1.374 . S
C390 H370 0.950 . S
C390 C386 1.385 . S
C390 C389 1.374 . S
C391 C388 1.499 . S
C391 C392 1.373 . S
C391 C393 1.389 . S
C392 H371 0.950 . S
C392 C391 1.373 . S
C392 C408 1.377 . S
C393 C391 1.389 . S
C393 C394 1.524 . S
C393 C407 1.377 . S
C394 C393 1.524 . S
C394 C395 1.397 . S
C394 C399 1.363 . S
C395 H372 0.950 . S
C395 C394 1.397 . S
C395 C396 1.334 . S
C396 H373 0.950 . S
C396 C395 1.334 . S
C396 C397 1.287 . S
C397 C396 1.287 . S
C397 C398 1.524 . S
C397 H416 0.913 . S
C398 H374 0.950 . S
C398 C397 1.524 . S
C398 C399 1.415 . S
C399 H375 0.950 . S
C399 C394 1.363 . S
C399 C398 1.415 . S
C400 H376 0.951 . S
C400 C401 1.366 . S
C400 C402 1.388 . S
C401 C400 1.366 . S
C401 C405 1.385 . S
C402 H377 0.951 . S
C402 C400 1.388 . S
C402 C403 1.366 . S
C403 C402 1.366 . S
C403 C404 1.414 . S
C403 C406 1.499 . S
C404 H378 0.950 . S
C404 C403 1.414 . S
C404 C405 1.374 . S
C405 H379 0.950 . S
C405 C401 1.385 . S
C405 C404 1.374 . S
C406 C403 1.499 . S
C406 C407 1.373 . S
C406 C408 1.389 . S
C407 H380 0.950 . S
C407 C393 1.377 . S
C407 C406 1.373 . S
C408 C392 1.377 . S
C408 C406 1.389 . S
C408 C409 1.524 . S
C409 C408 1.524 . S
C409 C410 1.397 . S
C409 C414 1.363 . S
C410 H381 0.950 . S
C410 C409 1.397 . S
C410 C411 1.334 . S
C411 H382 0.950 . S
C411 C410 1.334 . S
C411 C412 1.287 . S
C412 C411 1.287 . S
C412 C413 1.524 . S
C412 H415 0.999 . S
C413 H383 0.950 . S
C413 C412 1.524 . S
C413 C414 1.415 . S
C414 H384 0.950 . S
C414 C409 1.363 . S
C414 C413 1.415 . S
H415 C412 0.999 . S
H416 C397 0.913 . S
H417 C435 0.951 . S
H418 C437 0.951 . S
H419 C439 0.950 . S
H420 C440 0.950 . S
H421 C442 0.950 . S
H422 C445 0.950 . S
H423 C446 0.950 . S
H424 C448 0.950 . S
H425 C449 0.950 . S
H426 C450 0.951 . S
H427 C452 0.951 . S
H428 C454 0.950 . S
H429 C455 0.950 . S
H430 C457 0.950 . S
H431 C460 0.950 . S
H432 C461 0.950 . S
H433 C463 0.950 . S
H434 C464 0.950 . S
C435 H417 0.951 . S
C435 C436 1.366 . S
C435 C437 1.388 . S
C436 C435 1.366 . S
C436 C440 1.385 . S
C437 H418 0.951 . S
C437 C435 1.388 . S
C437 C438 1.366 . S
C438 C437 1.366 . S
C438 C439 1.414 . S
C438 C441 1.499 . S
C439 H419 0.950 . S
C439 C438 1.414 . S
C439 C440 1.374 . S
C440 H420 0.950 . S
C440 C436 1.385 . S
C440 C439 1.374 . S
C441 C438 1.499 . S
C441 C442 1.373 . S
C441 C443 1.389 . S
C442 H421 0.950 . S
C442 C441 1.373 . S
C442 C458 1.377 . S
C443 C441 1.389 . S
C443 C444 1.524 . S
C443 C457 1.377 . S
C444 C443 1.524 . S
C444 C445 1.397 . S
C444 C449 1.363 . S
C445 H422 0.950 . S
C445 C444 1.397 . S
C445 C446 1.334 . S
C446 H423 0.950 . S
C446 C445 1.334 . S
C446 C447 1.287 . S
C447 C446 1.287 . S
C447 C448 1.524 . S
C447 H466 0.913 . S
C448 H424 0.950 . S
C448 C447 1.524 . S
C448 C449 1.415 . S
C449 H425 0.950 . S
C449 C444 1.363 . S
C449 C448 1.415 . S
C450 H426 0.951 . S
C450 C451 1.366 . S
C450 C452 1.388 . S
C451 C450 1.366 . S
C451 C455 1.385 . S
C452 H427 0.951 . S
C452 C450 1.388 . S
C452 C453 1.366 . S
C453 C452 1.366 . S
C453 C454 1.414 . S
C453 C456 1.499 . S
C454 H428 0.950 . S
C454 C453 1.414 . S
C454 C455 1.374 . S
C455 H429 0.950 . S
C455 C451 1.385 . S
C455 C454 1.374 . S
C456 C453 1.499 . S
C456 C457 1.373 . S
C456 C458 1.389 . S
C457 H430 0.950 . S
C457 C443 1.377 . S
C457 C456 1.373 . S
C458 C442 1.377 . S
C458 C456 1.389 . S
C458 C459 1.524 . S
C459 C458 1.524 . S
C459 C460 1.397 . S
C459 C464 1.363 . S
C460 H431 0.950 . S
C460 C459 1.397 . S
C460 C461 1.334 . S
C461 H432 0.950 . S
C461 C460 1.334 . S
C461 C462 1.287 . S
C462 C461 1.287 . S
C462 C463 1.524 . S
C462 H465 0.999 . S
C463 H433 0.950 . S
C463 C462 1.524 . S
C463 C464 1.415 . S
C464 H434 0.950 . S
C464 C459 1.363 . S
C464 C463 1.415 . S
H465 C462 0.999 . S
H466 C447 0.913 . S
H467 C485 0.951 . S
H468 C487 0.951 . S
H469 C489 0.950 . S
H470 C490 0.950 . S
H471 C492 0.950 . S
H472 C495 0.950 . S
H473 C496 0.950 . S
H474 C498 0.950 . S
H475 C499 0.950 . S
H476 C500 0.951 . S
H477 C502 0.951 . S
H478 C504 0.950 . S
H479 C505 0.950 . S
H480 C507 0.950 . S
H481 C510 0.950 . S
H482 C511 0.950 . S
H483 C513 0.950 . S
H484 C514 0.950 . S
C485 H467 0.951 . S
C485 C486 1.366 . S
C485 C487 1.388 . S
C486 C485 1.366 . S
C486 C490 1.385 . S
C487 H468 0.951 . S
C487 C485 1.388 . S
C487 C488 1.366 . S
C488 C487 1.366 . S
C488 C489 1.414 . S
C488 C491 1.499 . S
C489 H469 0.950 . S
C489 C488 1.414 . S
C489 C490 1.374 . S
C490 H470 0.950 . S
C490 C486 1.385 . S
C490 C489 1.374 . S
C491 C488 1.499 . S
C491 C492 1.373 . S
C491 C493 1.389 . S
C492 H471 0.950 . S
C492 C491 1.373 . S
C492 C508 1.377 . S
C493 C491 1.389 . S
C493 C494 1.524 . S
C493 C507 1.377 . S
C494 C493 1.524 . S
C494 C495 1.397 . S
C494 C499 1.363 . S
C495 H472 0.950 . S
C495 C494 1.397 . S
C495 C496 1.334 . S
C496 H473 0.950 . S
C496 C495 1.334 . S
C496 C497 1.287 . S
C497 C496 1.287 . S
C497 C498 1.524 . S
C497 H516 0.913 . S
C498 H474 0.950 . S
C498 C497 1.524 . S
C498 C499 1.415 . S
C499 H475 0.950 . S
C499 C494 1.363 . S
C499 C498 1.415 . S
C500 H476 0.951 . S
C500 C501 1.366 . S
C500 C502 1.388 . S
C501 C500 1.366 . S
C501 C505 1.385 . S
C502 H477 0.951 . S
C502 C500 1.388 . S
C502 C503 1.366 . S
C503 C502 1.366 . S
C503 C504 1.414 . S
C503 C506 1.499 . S
C504 H478 0.950 . S
C504 C503 1.414 . S
C504 C505 1.374 . S
C505 H479 0.950 . S
C505 C501 1.385 . S
C505 C504 1.374 . S
C506 C503 1.499 . S
C506 C507 1.373 . S
C506 C508 1.389 . S
C507 H480 0.950 . S
C507 C493 1.377 . S
C507 C506 1.373 . S
C508 C492 1.377 . S
C508 C506 1.389 . S
C508 C509 1.524 . S
C509 C508 1.524 . S
C509 C510 1.397 . S
C509 C514 1.363 . S
C510 H481 0.950 . S
C510 C509 1.397 . S
C510 C511 1.334 . S
C511 H482 0.950 . S
C511 C510 1.334 . S
C511 C512 1.287 . S
C512 C511 1.287 . S
C512 C513 1.524 . S
C512 H515 0.999 . S
C513 H483 0.950 . S
C513 C512 1.524 . S
C513 C514 1.415 . S
C514 H484 0.950 . S
C514 C509 1.363 . S
C514 C513 1.415 . S
H515 C512 0.999 . S
H516 C497 0.913 . S
H517 C535 0.951 . S
H518 C537 0.951 . S
H519 C539 0.950 . S
H520 C540 0.950 . S
H521 C542 0.950 . S
H522 C545 0.950 . S
H523 C546 0.950 . S
H524 C548 0.950 . S
H525 C549 0.950 . S
H526 C550 0.951 . S
H527 C552 0.951 . S
H528 C554 0.950 . S
H529 C555 0.950 . S
H530 C557 0.950 . S
H531 C560 0.950 . S
H532 C561 0.950 . S
H533 C563 0.950 . S
H534 C564 0.950 . S
C535 H517 0.951 . S
C535 C536 1.366 . S
C535 C537 1.388 . S
C536 C535 1.366 . S
C536 C540 1.385 . S
C537 H518 0.951 . S
C537 C535 1.388 . S
C537 C538 1.366 . S
C538 C537 1.366 . S
C538 C539 1.414 . S
C538 C541 1.499 . S
C539 H519 0.950 . S
C539 C538 1.414 . S
C539 C540 1.374 . S
C540 H520 0.950 . S
C540 C536 1.385 . S
C540 C539 1.374 . S
C541 C538 1.499 . S
C541 C542 1.373 . S
C541 C543 1.389 . S
C542 H521 0.950 . S
C542 C541 1.373 . S
C542 C558 1.377 . S
C543 C541 1.389 . S
C543 C544 1.524 . S
C543 C557 1.377 . S
C544 C543 1.524 . S
C544 C545 1.397 . S
C544 C549 1.363 . S
C545 H522 0.950 . S
C545 C544 1.397 . S
C545 C546 1.334 . S
C546 H523 0.950 . S
C546 C545 1.334 . S
C546 C547 1.287 . S
C547 C546 1.287 . S
C547 C548 1.524 . S
C547 H566 0.913 . S
C548 H524 0.950 . S
C548 C547 1.524 . S
C548 C549 1.415 . S
C549 H525 0.950 . S
C549 C544 1.363 . S
C549 C548 1.415 . S
C550 H526 0.951 . S
C550 C551 1.366 . S
C550 C552 1.388 . S
C551 C550 1.366 . S
C551 C555 1.385 . S
C552 H527 0.951 . S
C552 C550 1.388 . S
C552 C553 1.366 . S
C553 C552 1.366 . S
C553 C554 1.414 . S
C553 C556 1.499 . S
C554 H528 0.950 . S
C554 C553 1.414 . S
C554 C555 1.374 . S
C555 H529 0.950 . S
C555 C551 1.385 . S
C555 C554 1.374 . S
C556 C553 1.499 . S
C556 C557 1.373 . S
C556 C558 1.389 . S
C557 H530 0.950 . S
C557 C543 1.377 . S
C557 C556 1.373 . S
C558 C542 1.377 . S
C558 C556 1.389 . S
C558 C559 1.524 . S
C559 C558 1.524 . S
C559 C560 1.397 . S
C559 C564 1.363 . S
C560 H531 0.950 . S
C560 C559 1.397 . S
C560 C561 1.334 . S
C561 H532 0.950 . S
C561 C560 1.334 . S
C561 C562 1.287 . S
C562 C561 1.287 . S
C562 C563 1.524 . S
C562 H565 0.999 . S
C563 H533 0.950 . S
C563 C562 1.524 . S
C563 C564 1.415 . S
C564 H534 0.950 . S
C564 C559 1.363 . S
C564 C563 1.415 . S
H565 C562 0.999 . S
H566 C547 0.913 . S
H567 C585 0.951 . S
H568 C587 0.951 . S
H569 C589 0.950 . S
H570 C590 0.950 . S
H571 C592 0.950 . S
H572 C595 0.950 . S
H573 C596 0.950 . S
H574 C598 0.950 . S
H575 C599 0.950 . S
H576 C600 0.951 . S
H577 C602 0.951 . S
H578 C604 0.950 . S
H579 C605 0.950 . S
H580 C607 0.950 . S
H581 C610 0.950 . S
H582 C611 0.950 . S
H583 C613 0.950 . S
H584 C614 0.950 . S
C585 H567 0.951 . S
C585 C586 1.366 . S
C585 C587 1.388 . S
C586 C585 1.366 . S
C586 C590 1.385 . S
C587 H568 0.951 . S
C587 C585 1.388 . S
C587 C588 1.366 . S
C588 C587 1.366 . S
C588 C589 1.414 . S
C588 C591 1.499 . S
C589 H569 0.950 . S
C589 C588 1.414 . S
C589 C590 1.374 . S
C590 H570 0.950 . S
C590 C586 1.385 . S
C590 C589 1.374 . S
C591 C588 1.499 . S
C591 C592 1.373 . S
C591 C593 1.389 . S
C592 H571 0.950 . S
C592 C591 1.373 . S
C592 C608 1.377 . S
C593 C591 1.389 . S
C593 C594 1.524 . S
C593 C607 1.377 . S
C594 C593 1.524 . S
C594 C595 1.397 . S
C594 C599 1.363 . S
C595 H572 0.950 . S
C595 C594 1.397 . S
C595 C596 1.334 1_455 S
C596 H573 0.950 . S
C596 C595 1.334 1_655 S
C596 C597 1.287 . S
C597 C596 1.287 . S
C597 C598 1.524 . S
C597 H616 0.913 . S
C598 H574 0.950 . S
C598 C597 1.524 . S
C598 C599 1.415 1_655 S
C599 H575 0.950 . S
C599 C594 1.363 . S
C599 C598 1.415 1_455 S
C600 H576 0.951 . S
C600 C601 1.366 . S
C600 C602 1.388 . S
C601 C600 1.366 . S
C601 C605 1.385 . S
C602 H577 0.951 . S
C602 C600 1.388 . S
C602 C603 1.366 . S
C603 C602 1.366 . S
C603 C604 1.414 . S
C603 C606 1.499 . S
C604 H578 0.950 . S
C604 C603 1.414 . S
C604 C605 1.374 . S
C605 H579 0.950 . S
C605 C601 1.385 . S
C605 C604 1.374 . S
C606 C603 1.499 . S
C606 C607 1.373 . S
C606 C608 1.389 . S
C607 H580 0.950 . S
C607 C593 1.377 . S
C607 C606 1.373 . S
C608 C592 1.377 . S
C608 C606 1.389 . S
C608 C609 1.524 . S
C609 C608 1.524 . S
C609 C610 1.397 . S
C609 C614 1.363 . S
C610 H581 0.950 . S
C610 C609 1.397 . S
C610 C611 1.334 . S
C611 H582 0.950 . S
C611 C610 1.334 . S
C611 C612 1.287 . S
C612 C611 1.287 . S
C612 C613 1.524 . S
C612 H615 0.999 . S
C613 H583 0.950 . S
C613 C612 1.524 . S
C613 C614 1.415 . S
C614 H584 0.950 . S
C614 C609 1.363 . S
C614 C613 1.415 . S
H615 C612 0.999 . S
H616 C597 0.913 . S
H617 C635 0.951 . S
H618 C637 0.951 . S
H619 C639 0.950 . S
H620 C640 0.950 . S
H621 C642 0.950 . S
H622 C645 0.950 . S
H623 C646 0.950 . S
H624 C648 0.950 . S
H625 C649 0.950 . S
H626 C650 0.951 . S
H627 C652 0.951 . S
H628 C654 0.950 . S
H629 C655 0.950 . S
H630 C657 0.950 . S
H631 C660 0.950 . S
H632 C661 0.950 . S
H633 C663 0.950 . S
H634 C664 0.950 . S
C635 H617 0.951 . S
C635 C636 1.366 . S
C635 C637 1.388 . S
C636 C635 1.366 . S
C636 C640 1.385 . S
C637 H618 0.951 . S
C637 C635 1.388 . S
C637 C638 1.366 . S
C638 C637 1.366 . S
C638 C639 1.414 . S
C638 C641 1.499 . S
C639 H619 0.950 . S
C639 C638 1.414 . S
C639 C640 1.374 . S
C640 H620 0.950 . S
C640 C636 1.385 . S
C640 C639 1.374 . S
C641 C638 1.499 . S
C641 C642 1.373 . S
C641 C643 1.389 . S
C642 H621 0.950 . S
C642 C641 1.373 . S
C642 C658 1.377 . S
C643 C641 1.389 . S
C643 C644 1.524 . S
C643 C657 1.377 . S
C644 C643 1.524 . S
C644 C645 1.397 . S
C644 C649 1.363 . S
C645 H622 0.950 . S
C645 C644 1.397 . S
C645 C646 1.334 . S
C646 H623 0.950 . S
C646 C645 1.334 . S
C646 C647 1.287 . S
C647 C646 1.287 . S
C647 C648 1.524 . S
C647 H666 0.913 . S
C648 H624 0.950 . S
C648 C647 1.524 . S
C648 C649 1.415 . S
C649 H625 0.950 . S
C649 C644 1.363 . S
C649 C648 1.415 . S
C650 H626 0.951 . S
C650 C651 1.366 . S
C650 C652 1.388 . S
C651 C650 1.366 . S
C651 C655 1.385 . S
C652 H627 0.951 . S
C652 C650 1.388 . S
C652 C653 1.366 . S
C653 C652 1.366 . S
C653 C654 1.414 . S
C653 C656 1.499 . S
C654 H628 0.950 . S
C654 C653 1.414 . S
C654 C655 1.374 . S
C655 H629 0.950 . S
C655 C651 1.385 . S
C655 C654 1.374 . S
C656 C653 1.499 . S
C656 C657 1.373 . S
C656 C658 1.389 . S
C657 H630 0.950 . S
C657 C643 1.377 . S
C657 C656 1.373 . S
C658 C642 1.377 . S
C658 C656 1.389 . S
C658 C659 1.524 . S
C659 C658 1.524 . S
C659 C660 1.397 . S
C659 C664 1.363 . S
C660 H631 0.950 . S
C660 C659 1.397 . S
C660 C661 1.334 . S
C661 H632 0.950 . S
C661 C660 1.334 . S
C661 C662 1.287 . S
C662 C661 1.287 . S
C662 C663 1.524 . S
C662 H665 0.999 . S
C663 H633 0.950 . S
C663 C662 1.524 . S
C663 C664 1.415 . S
C664 H634 0.950 . S
C664 C659 1.363 . S
C664 C663 1.415 . S
H665 C662 0.999 . S
H666 C647 0.913 . S
H667 C685 0.951 . S
H668 C687 0.951 . S
H669 C689 0.950 . S
H670 C690 0.950 . S
H671 C692 0.950 . S
H672 C695 0.950 . S
H673 C696 0.950 . S
H674 C698 0.950 . S
H675 C699 0.950 . S
H676 C700 0.951 . S
H677 C702 0.951 . S
H678 C704 0.950 . S
H679 C705 0.950 . S
H680 C707 0.950 . S
H681 C710 0.950 . S
H682 C711 0.950 . S
H683 C713 0.950 . S
H684 C714 0.950 . S
C685 H667 0.951 . S
C685 C686 1.366 . S
C685 C687 1.388 . S
C686 C685 1.366 . S
C686 C690 1.385 . S
C687 H668 0.951 . S
C687 C685 1.388 . S
C687 C688 1.366 . S
C688 C687 1.366 . S
C688 C689 1.414 . S
C688 C691 1.499 . S
C689 H669 0.950 . S
C689 C688 1.414 . S
C689 C690 1.374 . S
C690 H670 0.950 . S
C690 C686 1.385 . S
C690 C689 1.374 . S
C691 C688 1.499 . S
C691 C692 1.373 . S
C691 C693 1.389 . S
C692 H671 0.950 . S
C692 C691 1.373 . S
C692 C708 1.377 . S
C693 C691 1.389 . S
C693 C694 1.524 . S
C693 C707 1.377 . S
C694 C693 1.524 . S
C694 C695 1.397 . S
C694 C699 1.363 . S
C695 H672 0.950 . S
C695 C694 1.397 . S
C695 C696 1.334 1_565 S
C696 H673 0.950 . S
C696 C695 1.334 1_545 S
C696 C697 1.287 . S
C697 C696 1.287 . S
C697 C698 1.524 1_545 S
C697 H716 0.913 . S
C698 H674 0.950 . S
C698 C697 1.524 1_565 S
C698 C699 1.415 . S
C699 H675 0.950 . S
C699 C694 1.363 . S
C699 C698 1.415 . S
C700 H676 0.951 . S
C700 C701 1.366 . S
C700 C702 1.388 . S
C701 C700 1.366 . S
C701 C705 1.385 . S
C702 H677 0.951 . S
C702 C700 1.388 . S
C702 C703 1.366 . S
C703 C702 1.366 . S
C703 C704 1.414 . S
C703 C706 1.499 . S
C704 H678 0.950 . S
C704 C703 1.414 . S
C704 C705 1.374 . S
C705 H679 0.950 . S
C705 C701 1.385 . S
C705 C704 1.374 . S
C706 C703 1.499 . S
C706 C707 1.373 . S
C706 C708 1.389 . S
C707 H680 0.950 . S
C707 C693 1.377 . S
C707 C706 1.373 . S
C708 C692 1.377 . S
C708 C706 1.389 . S
C708 C709 1.524 . S
C709 C708 1.524 . S
C709 C710 1.397 . S
C709 C714 1.363 . S
C710 H681 0.950 . S
C710 C709 1.397 . S
C710 C711 1.334 . S
C711 H682 0.950 . S
C711 C710 1.334 . S
C711 C712 1.287 . S
C712 C711 1.287 . S
C712 C713 1.524 . S
C712 H715 0.999 . S
C713 H683 0.950 . S
C713 C712 1.524 . S
C713 C714 1.415 . S
C714 H684 0.950 . S
C714 C709 1.363 . S
C714 C713 1.415 . S
H715 C712 0.999 . S
H716 C697 0.913 . S
H717 C735 0.951 . S
H718 C737 0.951 . S
H719 C739 0.950 . S
H720 C740 0.950 . S
H721 C742 0.950 . S
H722 C745 0.950 . S
H723 C746 0.950 . S
H724 C748 0.950 . S
H725 C749 0.950 . S
H726 C750 0.936 1_565 S
H727 C752 0.951 . S
H728 C754 0.950 . S
H729 C755 0.950 . S
H730 C757 0.950 . S
H731 C760 0.950 . S
H732 C761 0.950 . S
H733 C763 0.950 . S
H734 C764 0.950 . S
C735 H717 0.951 . S
C735 C736 1.366 . S
C735 C737 1.388 . S
C736 C735 1.366 . S
C736 C740 1.385 . S
C737 H718 0.951 . S
C737 C735 1.388 . S
C737 C738 1.366 . S
C738 C737 1.366 . S
C738 C739 1.414 . S
C738 C741 1.499 . S
C739 H719 0.950 . S
C739 C738 1.414 . S
C739 C740 1.374 . S
C740 H720 0.950 . S
C740 C736 1.385 . S
C740 C739 1.374 . S
C741 C738 1.499 . S
C741 C742 1.373 . S
C741 C743 1.389 . S
C742 H721 0.950 . S
C742 C741 1.373 . S
C742 C758 1.377 . S
C743 C741 1.389 . S
C743 C744 1.524 . S
C743 C757 1.377 . S
C744 C743 1.524 . S
C744 C745 1.397 . S
C744 C749 1.363 . S
C745 H722 0.950 . S
C745 C744 1.397 . S
C745 C746 1.334 . S
C746 H723 0.950 . S
C746 C745 1.334 . S
C746 C747 1.287 . S
C747 C746 1.287 . S
C747 C748 1.524 . S
C747 H766 0.913 . S
C748 H724 0.950 . S
C748 C747 1.524 . S
C748 C749 1.415 . S
C749 H725 0.950 . S
C749 C744 1.363 . S
C749 C748 1.415 . S
C750 H726 0.936 1_545 S
C750 C751 1.366 . S
C750 C752 1.388 . S
C751 C750 1.366 . S
C751 C755 1.385 . S
C752 H727 0.951 . S
C752 C750 1.388 . S
C752 C753 1.366 . S
C753 C752 1.366 . S
C753 C754 1.414 . S
C753 C756 1.499 . S
C754 H728 0.950 . S
C754 C753 1.414 . S
C754 C755 1.374 . S
C755 H729 0.950 . S
C755 C751 1.385 . S
C755 C754 1.374 . S
C756 C753 1.499 . S
C756 C757 1.373 . S
C756 C758 1.389 . S
C757 H730 0.950 . S
C757 C743 1.377 . S
C757 C756 1.373 . S
C758 C742 1.377 . S
C758 C756 1.389 . S
C758 C759 1.524 . S
C759 C758 1.524 . S
C759 C760 1.397 . S
C759 C764 1.363 1_545 S
C760 H731 0.950 . S
C760 C759 1.397 . S
C760 C761 1.334 1_545 S
C761 H732 0.950 . S
C761 C760 1.334 1_565 S
C761 C762 1.287 . S
C762 C761 1.287 . S
C762 C763 1.524 . S
C762 H765 0.999 . S
C763 H733 0.950 . S
C763 C762 1.524 . S
C763 C764 1.415 . S
C764 H734 0.950 . S
C764 C759 1.363 1_565 S
C764 C763 1.415 . S
H765 C762 0.999 . S
H766 C747 0.913 . S
H767 C785 0.951 . S
H768 C787 0.951 . S
H769 C789 0.950 . S
H770 C790 0.950 . S
H771 C792 0.950 . S
H772 C795 0.950 . S
H773 C796 0.950 . S
H774 C798 0.950 . S
H775 C799 0.950 . S
H776 C800 0.951 . S
H777 C802 0.951 . S
H778 C804 0.950 . S
H779 C805 0.950 . S
H780 C807 0.950 . S
H781 C810 0.950 . S
H782 C811 0.950 . S
H783 C813 0.950 . S
H784 C814 0.950 . S
C785 H767 0.951 . S
C785 C786 1.366 1_655 S
C785 C787 1.388 . S
C786 C785 1.366 1_455 S
C786 C790 1.385 . S
C787 H768 0.951 . S
C787 C785 1.388 . S
C787 C788 1.366 . S
C788 C787 1.366 . S
C788 C789 1.414 1_655 S
C788 C791 1.499 . S
C789 H769 0.950 . S
C789 C788 1.414 1_455 S
C789 C790 1.374 . S
C790 H770 0.950 . S
C790 C786 1.385 . S
C790 C789 1.374 . S
C791 C788 1.499 . S
C791 C792 1.373 . S
C791 C793 1.389 . S
C792 H771 0.950 . S
C792 C791 1.373 . S
C792 C808 1.377 . S
C793 C791 1.389 . S
C793 C794 1.524 . S
C793 C807 1.377 . S
C794 C793 1.524 . S
C794 C795 1.397 . S
C794 C799 1.363 . S
C795 H772 0.950 . S
C795 C794 1.397 . S
C795 C796 1.334 . S
C796 H773 0.950 . S
C796 C795 1.334 . S
C796 C797 1.287 . S
C797 C796 1.287 . S
C797 C798 1.524 . S
C797 H816 0.913 . S
C798 H774 0.950 . S
C798 C797 1.524 . S
C798 C799 1.415 . S
C799 H775 0.950 . S
C799 C794 1.363 . S
C799 C798 1.415 . S
C800 H776 0.951 . S
C800 C801 1.366 . S
C800 C802 1.388 . S
C801 C800 1.366 . S
C801 C805 1.385 . S
C802 H777 0.951 . S
C802 C800 1.388 . S
C802 C803 1.366 . S
C803 C802 1.366 . S
C803 C804 1.414 . S
C803 C806 1.499 . S
C804 H778 0.950 . S
C804 C803 1.414 . S
C804 C805 1.374 . S
C805 H779 0.950 . S
C805 C801 1.385 . S
C805 C804 1.374 . S
C806 C803 1.499 . S
C806 C807 1.373 . S
C806 C808 1.389 . S
C807 H780 0.950 . S
C807 C793 1.377 . S
C807 C806 1.373 . S
C808 C792 1.377 . S
C808 C806 1.389 . S
C808 C809 1.524 . S
C809 C808 1.524 . S
C809 C810 1.397 . S
C809 C814 1.363 1_655 S
C810 H781 0.950 . S
C810 C809 1.397 . S
C810 C811 1.334 . S
C811 H782 0.950 . S
C811 C810 1.334 . S
C811 C812 1.287 . S
C812 C811 1.287 . S
C812 C813 1.524 1_655 S
C812 H815 0.999 . S
C813 H783 0.950 . S
C813 C812 1.524 1_455 S
C813 C814 1.415 . S
C814 H784 0.950 . S
C814 C809 1.363 1_455 S
C814 C813 1.415 . S
H815 C812 0.999 . S
H816 C797 0.913 . S
H817 C835 0.951 . S
H818 C837 0.951 . S
H819 C839 0.950 . S
H820 C840 0.950 . S
H821 C842 0.950 . S
H822 C845 0.950 . S
H823 C846 0.950 . S
H824 C848 0.950 . S
H825 C849 0.950 . S
H826 C850 0.951 . S
H827 C852 0.951 . S
H828 C854 0.950 . S
H829 C855 0.950 . S
H830 C857 0.950 . S
H831 C860 0.950 . S
H832 C861 0.950 . S
H833 C863 0.950 . S
H834 C864 0.950 . S
C835 H817 0.951 . S
C835 C836 1.366 . S
C835 C837 1.388 . S
C836 C835 1.366 . S
C836 C840 1.385 . S
C837 H818 0.951 . S
C837 C835 1.388 . S
C837 C838 1.366 . S
C838 C837 1.366 . S
C838 C839 1.414 . S
C838 C841 1.499 . S
C839 H819 0.950 . S
C839 C838 1.414 . S
C839 C840 1.374 . S
C840 H820 0.950 . S
C840 C836 1.385 . S
C840 C839 1.374 . S
C841 C838 1.499 . S
C841 C842 1.373 . S
C841 C843 1.389 . S
C842 H821 0.950 . S
C842 C841 1.373 . S
C842 C858 1.377 . S
C843 C841 1.389 . S
C843 C844 1.524 . S
C843 C857 1.377 . S
C844 C843 1.524 . S
C844 C845 1.397 . S
C844 C849 1.363 . S
C845 H822 0.950 . S
C845 C844 1.397 . S
C845 C846 1.334 . S
C846 H823 0.950 . S
C846 C845 1.334 . S
C846 C847 1.287 . S
C847 C846 1.287 . S
C847 C848 1.524 . S
C847 H866 0.913 . S
C848 H824 0.950 . S
C848 C847 1.524 . S
C848 C849 1.415 . S
C849 H825 0.950 . S
C849 C844 1.363 . S
C849 C848 1.415 . S
C850 H826 0.951 . S
C850 C851 1.366 . S
C850 C852 1.388 . S
C851 C850 1.366 . S
C851 C855 1.385 . S
C852 H827 0.951 . S
C852 C850 1.388 . S
C852 C853 1.366 . S
C853 C852 1.366 . S
C853 C854 1.414 . S
C853 C856 1.499 . S
C854 H828 0.950 . S
C854 C853 1.414 . S
C854 C855 1.374 . S
C855 H829 0.950 . S
C855 C851 1.385 . S
C855 C854 1.374 . S
C856 C853 1.499 . S
C856 C857 1.373 . S
C856 C858 1.389 . S
C857 H830 0.950 . S
C857 C843 1.377 . S
C857 C856 1.373 . S
C858 C842 1.377 . S
C858 C856 1.389 . S
C858 C859 1.524 . S
C859 C858 1.524 . S
C859 C860 1.397 . S
C859 C864 1.363 . S
C860 H831 0.950 . S
C860 C859 1.397 . S
C860 C861 1.334 . S
C861 H832 0.950 . S
C861 C860 1.334 . S
C861 C862 1.287 . S
C862 C861 1.287 . S
C862 C863 1.524 . S
C862 H865 0.999 . S
C863 H833 0.950 . S
C863 C862 1.524 . S
C863 C864 1.415 . S
C864 H834 0.950 . S
C864 C859 1.363 . S
C864 C863 1.415 . S
H865 C862 0.999 . S
H866 C847 0.913 . S
H867 C885 0.951 . S
H868 C887 0.951 . S
H869 C889 0.950 . S
H870 C890 0.950 . S
H871 C892 0.950 . S
H872 C895 0.950 . S
H873 C896 0.950 . S
H874 C898 0.950 . S
H875 C899 0.950 . S
H876 C900 0.951 . S
H877 C902 0.951 . S
H878 C904 0.989 . S
H879 C905 0.950 . S
H880 C907 0.950 . S
H881 C910 0.950 . S
H882 C911 0.950 . S
H883 C913 0.950 . S
H884 C914 0.950 . S
C885 H867 0.951 . S
C885 C886 1.366 . S
C885 C887 1.388 . S
C886 C885 1.366 . S
C886 C890 1.385 . S
C887 H868 0.951 . S
C887 C885 1.388 . S
C887 C888 1.366 . S
C888 C887 1.366 . S
C888 C889 1.414 . S
C888 C891 1.499 . S
C889 H869 0.950 . S
C889 C888 1.414 . S
C889 C890 1.374 . S
C890 H870 0.950 . S
C890 C886 1.385 . S
C890 C889 1.374 . S
C891 C888 1.499 . S
C891 C892 1.373 . S
C891 C893 1.389 . S
C892 H871 0.950 . S
C892 C891 1.373 . S
C892 C908 1.377 . S
C893 C891 1.389 . S
C893 C894 1.524 . S
C893 C907 1.377 . S
C894 C893 1.524 . S
C894 C895 1.397 . S
C894 C899 1.363 . S
C895 H872 0.950 . S
C895 C894 1.397 . S
C895 C896 1.334 . S
C896 H873 0.950 . S
C896 C895 1.334 . S
C896 C897 1.287 . S
C897 C896 1.287 . S
C897 C898 1.524 . S
C897 H916 0.913 . S
C898 H874 0.950 . S
C898 C897 1.524 . S
C898 C899 1.415 . S
C899 H875 0.950 . S
C899 C894 1.363 . S
C899 C898 1.415 . S
C900 H876 0.951 . S
C900 C901 1.366 . S
C900 C902 1.388 . S
C901 C900 1.366 . S
C901 C905 1.385 . S
C902 H877 0.951 . S
C902 C900 1.388 . S
C902 C903 1.366 . S
C903 C902 1.366 . S
C903 C904 1.414 . S
C903 C906 1.499 1_655 S
C904 H878 0.989 . S
C904 C903 1.414 . S
C904 C905 1.374 . S
C905 H879 0.950 . S
C905 C901 1.385 . S
C905 C904 1.374 . S
C906 C903 1.499 1_455 S
C906 C907 1.373 . S
C906 C908 1.389 . S
C907 H880 0.950 . S
C907 C893 1.377 . S
C907 C906 1.373 . S
C908 C892 1.377 . S
C908 C906 1.389 . S
C908 C909 1.524 1_455 S
C909 C908 1.524 1_655 S
C909 C910 1.397 . S
C909 C914 1.363 . S
C910 H881 0.950 . S
C910 C909 1.397 . S
C910 C911 1.334 . S
C911 H882 0.950 . S
C911 C910 1.334 . S
C911 C912 1.287 . S
C912 C911 1.287 . S
C912 C913 1.524 . S
C912 H915 0.999 . S
C913 H883 0.950 . S
C913 C912 1.524 . S
C913 C914 1.415 . S
C914 H884 0.950 . S
C914 C909 1.363 . S
C914 C913 1.415 . S
H915 C912 0.999 . S
H916 C897 0.913 . S
H917 C935 0.951 . S
H918 C937 0.951 . S
H919 C939 0.950 . S
H920 C940 0.950 . S
H921 C942 0.950 . S
H922 C945 0.950 . S
H923 C946 0.950 . S
H924 C948 0.950 . S
H925 C949 0.950 . S
H926 C950 0.951 . S
H927 C952 0.951 . S
H928 C954 0.950 . S
H929 C955 0.950 . S
H930 C957 0.950 . S
H931 C960 0.950 . S
H932 C961 0.950 . S
H933 C963 0.950 . S
H934 C964 0.950 . S
C935 H917 0.951 . S
C935 C936 1.366 . S
C935 C937 1.388 . S
C936 C935 1.366 . S
C936 C940 1.385 . S
C937 H918 0.951 . S
C937 C935 1.388 . S
C937 C938 1.366 . S
C938 C937 1.366 . S
C938 C939 1.414 . S
C938 C941 1.499 . S
C939 H919 0.950 . S
C939 C938 1.414 . S
C939 C940 1.374 . S
C940 H920 0.950 . S
C940 C936 1.385 . S
C940 C939 1.374 . S
C941 C938 1.499 . S
C941 C942 1.373 . S
C941 C943 1.389 . S
C942 H921 0.950 . S
C942 C941 1.373 . S
C942 C958 1.377 . S
C943 C941 1.389 . S
C943 C944 1.524 . S
C943 C957 1.377 . S
C944 C943 1.524 . S
C944 C945 1.397 . S
C944 C949 1.363 . S
C945 H922 0.950 . S
C945 C944 1.397 . S
C945 C946 1.334 . S
C946 H923 0.950 . S
C946 C945 1.334 . S
C946 C947 1.287 . S
C947 C946 1.287 . S
C947 C948 1.524 . S
C947 H966 0.913 . S
C948 H924 0.950 . S
C948 C947 1.524 . S
C948 C949 1.415 . S
C949 H925 0.950 . S
C949 C944 1.363 . S
C949 C948 1.415 . S
C950 H926 0.951 . S
C950 C951 1.366 . S
C950 C952 1.388 . S
C951 C950 1.366 . S
C951 C955 1.385 . S
C952 H927 0.951 . S
C952 C950 1.388 . S
C952 C953 1.366 . S
C953 C952 1.366 . S
C953 C954 1.414 . S
C953 C956 1.499 . S
C954 H928 0.950 . S
C954 C953 1.414 . S
C954 C955 1.374 . S
C955 H929 0.950 . S
C955 C951 1.385 . S
C955 C954 1.374 . S
C956 C953 1.499 . S
C956 C957 1.373 . S
C956 C958 1.389 . S
C957 H930 0.950 . S
C957 C943 1.377 . S
C957 C956 1.373 . S
C958 C942 1.377 . S
C958 C956 1.389 . S
C958 C959 1.524 . S
C959 C958 1.524 . S
C959 C960 1.397 . S
C959 C964 1.363 . S
C960 H931 0.950 . S
C960 C959 1.397 . S
C960 C961 1.334 . S
C961 H932 0.950 . S
C961 C960 1.334 . S
C961 C962 1.287 . S
C962 C961 1.287 . S
C962 C963 1.524 . S
C962 H965 0.999 . S
C963 H933 0.950 . S
C963 C962 1.524 . S
C963 C964 1.415 . S
C964 H934 0.950 . S
C964 C959 1.363 . S
C964 C963 1.415 . S
H965 C962 0.999 . S
H966 C947 0.913 . S
H967 C985 0.951 . S
H968 C987 0.951 . S
H969 C989 0.950 . S
H970 C990 0.950 . S
H971 C992 0.950 . S
H972 C995 0.950 . S
H973 C996 0.950 . S
H974 C998 0.950 . S
H975 C999 0.950 . S
H976 C1000 0.951 . S
H977 C1002 0.951 . S
H978 C1004 0.950 . S
H979 C1005 0.950 . S
H980 C1007 0.950 . S
H981 C1010 0.950 . S
H982 C1011 0.950 . S
H983 C1013 0.950 . S
H984 C1014 0.950 . S
C985 H967 0.951 . S
C985 C986 1.366 . S
C985 C987 1.388 . S
C986 C985 1.366 . S
C986 C990 1.385 . S
C987 H968 0.951 . S
C987 C985 1.388 . S
C987 C988 1.366 . S
C988 C987 1.366 . S
C988 C989 1.414 . S
C988 C991 1.499 . S
C989 H969 0.950 . S
C989 C988 1.414 . S
C989 C990 1.374 . S
C990 H970 0.950 . S
C990 C986 1.385 . S
C990 C989 1.374 . S
C991 C988 1.499 . S
C991 C992 1.373 1_565 S
C991 C993 1.389 . S
C992 H971 0.950 . S
C992 C991 1.373 1_545 S
C992 C1008 1.377 . S
C993 C991 1.389 . S
C993 C994 1.524 . S
C993 C1007 1.377 1_565 S
C994 C993 1.524 . S
C994 C995 1.397 . S
C994 C999 1.363 . S
C995 H972 0.950 . S
C995 C994 1.397 . S
C995 C996 1.334 . S
C996 H973 0.950 . S
C996 C995 1.334 . S
C996 C997 1.287 . S
C997 C996 1.287 . S
C997 C998 1.524 . S
C997 H1016 0.913 . S
C998 H974 0.950 . S
C998 C997 1.524 . S
C998 C999 1.415 . S
C999 H975 0.950 . S
C999 C994 1.363 . S
C999 C998 1.415 . S
C1000 H976 0.951 . S
C1000 C1001 1.366 . S
C1000 C1002 1.388 . S
C1001 C1000 1.366 . S
C1001 C1005 1.385 . S
C1002 H977 0.951 . S
C1002 C1000 1.388 . S
C1002 C1003 1.366 . S
C1003 C1002 1.366 . S
C1003 C1004 1.414 . S
C1003 C1006 1.499 . S
C1004 H978 0.950 . S
C1004 C1003 1.414 . S
C1004 C1005 1.374 . S
C1005 H979 0.950 . S
C1005 C1001 1.385 . S
C1005 C1004 1.374 . S
C1006 C1003 1.499 . S
C1006 C1007 1.373 . S
C1006 C1008 1.389 . S
C1007 H980 0.950 . S
C1007 C993 1.377 1_545 S
C1007 C1006 1.373 . S
C1008 C992 1.377 . S
C1008 C1006 1.389 . S
C1008 C1009 1.524 . S
C1009 C1008 1.524 . S
C1009 C1010 1.397 . S
C1009 C1014 1.363 . S
C1010 H981 0.950 . S
C1010 C1009 1.397 . S
C1010 C1011 1.334 . S
C1011 H982 0.950 . S
C1011 C1010 1.334 . S
C1011 C1012 1.287 . S
C1012 C1011 1.287 . S
C1012 C1013 1.524 . S
C1012 H1015 0.999 . S
C1013 H983 0.950 . S
C1013 C1012 1.524 . S
C1013 C1014 1.415 . S
C1014 H984 0.950 . S
C1014 C1009 1.363 . S
C1014 C1013 1.415 . S
H1015 C1012 0.999 . S
H1016 C997 0.913 . S
C136 C31 0.780 . S
C151 C10 0.787 . S
C186 C18 0.794 . S
C201 C5 0.795 . S
C236 C23 0.779 . S
C251 C36 0.779 . S
C286 C75 0.760 . S
C301 C49 0.760 . S
C336 C57 0.756 . S
C351 C44 0.756 . S
C386 C62 0.789 . S
C401 C70 0.779 . S
C436 C88 0.769 . S
C451 C109 0.764 . S
C486 C83 0.721 . S
C501 C96 0.720 . S
C536 C101 0.759 . S
C551 C114 0.760 . S
C586 C0 1.239 . S
C601 C91 1.250 . S
C636 C21 1.254 . S
C651 C112 1.253 . S
C686 C86 1.182 . S
C701 C26 1.187 . S
C736 C60 1.187 . S
C751 C34 1.190 . S
C786 C8 1.231 . S
C801 C73 1.237 . S
C836 C39 1.238 . S
C851 C13 1.233 . S
C886 C99 1.210 . S
C901 C65 1.208 . S
C936 C47 1.250 . S
C951 C104 1.250 . S
C986 C78 1.255 . S
C1001 C52 1.250 . S
