# Generated by pormake.
# Topology wjg, (4)-cn, num edge types: 1
# Building blocks:
#     Node 0, Type 0, BuildingBlock: AZAVOO_clean_sbu_0, # of connection points: 4
#     Node 1, Type 0, BuildingBlock: AZAVOO_clean_sbu_0, # of connection points: 4
#     Node 2, Type 0, BuildingBlock: AZAVOO_clean_sbu_0, # of connection points: 4
#     Node 3, Type 0, BuildingBlock: AZAVOO_clean_sbu_0, # of connection points: 4
#     Node 4, Type 0, BuildingBlock: AZAVOO_clean_sbu_0, # of connection points: 4
#     Node 5, Type 0, BuildingBlock: AZAVOO_clean_sbu_0, # of connection points: 4
#     Node 6, Type 0, BuildingBlock: AZAVOO_clean_sbu_0, # of connection points: 4
#     Node 7, Type 0, BuildingBlock: AZAVOO_clean_sbu_0, # of connection points: 4
#     Node 8, Type 0, BuildingBlock: AZAVOO_clean_sbu_0, # of connection points: 4
#     Node 9, Type 0, BuildingBlock: AZAVOO_clean_sbu_0, # of connection points: 4
#     Node 10, Type 0, BuildingBlock: AZAVOO_clean_sbu_0, # of connection points: 4
#     Node 11, Type 0, BuildingBlock: AZAVOO_clean_sbu_0, # of connection points: 4
#     Edge 12, Type (0, 0), BuildingBlock: TEMPAE_clean_linker_10, # of connection points: 2
#     Edge 13, Type (0, 0), BuildingBlock: TEMPAE_clean_linker_10, # of connection points: 2
#     Edge 14, Type (0, 0), BuildingBlock: TEMPAE_clean_linker_10, # of connection points: 2
#     Edge 15, Type (0, 0), BuildingBlock: TEMPAE_clean_linker_10, # of connection points: 2
#     Edge 16, Type (0, 0), BuildingBlock: TEMPAE_clean_linker_10, # of connection points: 2
#     Edge 17, Type (0, 0), BuildingBlock: TEMPAE_clean_linker_10, # of connection points: 2
#     Edge 18, Type (0, 0), BuildingBlock: TEMPAE_clean_linker_10, # of connection points: 2
#     Edge 19, Type (0, 0), BuildingBlock: TEMPAE_clean_linker_10, # of connection points: 2
#     Edge 20, Type (0, 0), BuildingBlock: TEMPAE_clean_linker_10, # of connection points: 2
#     Edge 21, Type (0, 0), BuildingBlock: TEMPAE_clean_linker_10, # of connection points: 2
#     Edge 22, Type (0, 0), BuildingBlock: TEMPAE_clean_linker_10, # of connection points: 2
#     Edge 23, Type (0, 0), BuildingBlock: TEMPAE_clean_linker_10, # of connection points: 2
#     Edge 24, Type (0, 0), BuildingBlock: TEMPAE_clean_linker_10, # of connection points: 2
#     Edge 25, Type (0, 0), BuildingBlock: TEMPAE_clean_linker_10, # of connection points: 2
#     Edge 26, Type (0, 0), BuildingBlock: TEMPAE_clean_linker_10, # of connection points: 2
#     Edge 27, Type (0, 0), BuildingBlock: TEMPAE_clean_linker_10, # of connection points: 2
#     Edge 28, Type (0, 0), BuildingBlock: TEMPAE_clean_linker_10, # of connection points: 2
#     Edge 29, Type (0, 0), BuildingBlock: TEMPAE_clean_linker_10, # of connection points: 2
#     Edge 30, Type (0, 0), BuildingBlock: TEMPAE_clean_linker_10, # of connection points: 2
#     Edge 31, Type (0, 0), BuildingBlock: TEMPAE_clean_linker_10, # of connection points: 2
#     Edge 32, Type (0, 0), BuildingBlock: TEMPAE_clean_linker_10, # of connection points: 2
#     Edge 33, Type (0, 0), BuildingBlock: TEMPAE_clean_linker_10, # of connection points: 2
#     Edge 34, Type (0, 0), BuildingBlock: TEMPAE_clean_linker_10, # of connection points: 2
#     Edge 35, Type (0, 0), BuildingBlock: TEMPAE_clean_linker_10, # of connection points: 2
# Relax obj value: 0.275
# Max RMSD: 0.124
# Mean RMSD: 0.124
data_MOF--net-wjg--node1-AZAVOO_clean_sbu_0--edge1-TEMPAE_clean_linker_10
_symmetry_space_group_name_H-M    P1
_symmetry_Int_Tables_number       1
_symmetry_cell_setting            triclinic
loop_
_symmetry_equiv_pos_as_xyz
'x, y, z'
_cell_length_a     35.312692
_cell_length_b     35.318364
_cell_length_c     37.747639
_cell_angle_alpha  89.988279
_cell_angle_beta   90.075799
_cell_angle_gamma 120.16152
loop_
_atom_site_label
_atom_site_type_symbol
_atom_site_fract_x
_atom_site_fract_y
_atom_site_fract_z
_atom_type_partial_charge
Mg0 Mg 0.14474 0.36831 0.3363 0.0
O1 O 0.19266 0.34695 0.31534 0.0
O2 O 0.23285 0.35783 0.36424 0.0
Mg3 Mg 0.21785 0.38707 0.41199 0.0
C4 C 0.22353 0.34555 0.33206 0.0
C5 C 0.09712 0.33476 0.26534 0.0
O6 O 0.09505 0.29966 0.27926 0.0
O7 O 0.20005 0.44178 0.33536 0.0
O8 O 0.2451 0.45038 0.38059 0.0
O9 O 0.10527 0.38571 0.37242 0.0
O10 O 0.15337 0.36691 0.39003 0.0
C11 C 0.2345 0.46534 0.35395 0.0
C12 C 0.12714 0.38086 0.39777 0.0
O13 O 0.11911 0.3712 0.28133 0.0
Mg14 Mg 0.73435 0.08695 0.68513 0.0
O15 O 0.80872 0.13905 0.68857 0.0
O16 O 0.81389 0.16823 0.74228 0.0
Mg17 Mg 0.74906 0.14059 0.77163 0.0
C18 C 0.83123 0.16543 0.71353 0.0
C19 C 0.71834 0.03068 0.62018 0.0
O20 O 0.70454 0.00413 0.64756 0.0
O21 O 0.72164 0.14424 0.67368 0.0
O22 O 0.72945 0.17181 0.72845 0.0
O23 O 0.74945 0.03985 0.7148 0.0
O24 O 0.72883 0.08259 0.74014 0.0
C25 C 0.72117 0.17173 0.6956 0.0
C26 C 0.74329 0.056 0.7435 0.0
O27 O 0.73649 0.07175 0.6259 0.0
Mg28 Mg 0.58766 0.72675 0.98872 0.0
O29 O 0.61072 0.80127 0.98769 0.0
O30 O 0.58081 0.81281 0.03593 0.0
Mg31 Mg 0.53611 0.74919 0.06449 0.0
C32 C 0.60523 0.82686 0.00853 0.0
C33 C 0.65563 0.73467 0.93255 0.0
O34 O 0.67983 0.75162 0.96096 0.0
O35 O 0.51959 0.71097 0.96688 0.0
O36 O 0.49324 0.72691 0.0151 0.0
O37 O 0.6445 0.74464 0.02532 0.0
O38 O 0.57796 0.72609 0.04323 0.0
C39 C 0.48947 0.71432 0.983 0.0
C40 C 0.61877 0.7424 0.0505 0.0
O41 O 0.61582 0.72563 0.93341 0.0
Mg42 Mg 0.84545 0.6386 0.29458 0.0
O43 O 0.80717 0.66151 0.25662 0.0
O44 O 0.78736 0.65089 0.31041 0.0
Mg45 Mg 0.7601 0.6351 0.36282 0.0
C46 C 0.78191 0.66187 0.28013 0.0
C47 C 0.91649 0.63528 0.24928 0.0
O48 O 0.9361 0.64968 0.27999 0.0
O49 O 0.78428 0.56689 0.30023 0.0
O50 O 0.73725 0.56611 0.34149 0.0
O51 O 0.87582 0.62642 0.34259 0.0
O52 O 0.82774 0.64868 0.34762 0.0
C53 C 0.749 0.54675 0.31896 0.0
C54 C 0.85186 0.63558 0.36265 0.0
O55 O 0.87635 0.62453 0.24646 0.0
Mg56 Mg 0.28572 0.93028 0.69002 0.0
O57 O 0.22231 0.86386 0.68695 0.0
O58 O 0.22173 0.83329 0.7393 0.0
Mg59 Mg 0.27154 0.88243 0.77976 0.0
C60 C 0.20572 0.83135 0.7084 0.0
C61 C 0.3049 0.9814 0.62172 0.0
O62 O 0.31003 0.00834 0.64771 0.0
O63 O 0.31868 0.887 0.68946 0.0
O64 O 0.33023 0.90299 0.74517 0.0
O65 O 0.24375 0.95932 0.70786 0.0
O66 O 0.27207 0.93213 0.74459 0.0
C67 C 0.32805 0.87847 0.71998 0.0
C68 C 0.24562 0.94643 0.73953 0.0
O69 O 0.29279 0.94176 0.62951 0.0
Mg70 Mg 0.39284 0.2485 0.98835 0.0
O71 O 0.37236 0.1754 0.9791 0.0
O72 O 0.39401 0.15573 0.02821 0.0
Mg73 Mg 0.42999 0.21325 0.06598 0.0
C74 C 0.37514 0.14663 -0.00204 0.0
C75 C 0.39204 0.30194 0.92702 0.0
O76 O 0.41771 0.32913 0.95159 0.0
O77 O 0.46506 0.26972 0.97504 0.0
O78 O 0.48324 0.24723 0.02445 0.0
O79 O 0.32865 0.22283 0.01719 0.0
O80 O 0.39158 0.239 0.04237 0.0
C81 C 0.49279 0.26555 0.99413 0.0
C82 C 0.34989 0.22176 0.04475 0.0
O83 O 0.37655 0.26104 0.93196 0.0
Mg84 Mg 0.55985 0.86087 0.31065 0.0
O85 O 0.58536 0.81273 0.3021 0.0
O86 O 0.56263 0.78461 0.24779 0.0
Mg87 Mg 0.52265 0.81149 0.22241 0.0
C88 C 0.58317 0.78787 0.27652 0.0
C89 C 0.61968 0.89044 0.37818 0.0
O90 O 0.64865 0.89885 0.35313 0.0
O91 O 0.49011 0.80134 0.32129 0.0
O92 O 0.47297 0.77656 0.26586 0.0
O93 O 0.62172 0.91069 0.28378 0.0
O94 O 0.55965 0.86893 0.25557 0.0
C95 C 0.46333 0.77381 0.29864 0.0
C96 C 0.60134 0.89474 0.25422 0.0
O97 O 0.57922 0.87108 0.36983 0.0
Mg98 Mg 0.78602 0.5602 0.68937 0.0
O99 O 0.86276 0.58989 0.69291 0.0
O100 O 0.88495 0.56292 0.64832 0.0
Mg101 Mg 0.82656 0.5063 0.62047 0.0
C102 C 0.89315 0.58897 0.67461 0.0
C103 C 0.74706 0.57964 0.75682 0.0
O104 O 0.71731 0.53865 0.75062 0.0
O105 O 0.76735 0.49534 0.72181 0.0
O106 O 0.797 0.50063 0.67174 0.0
O107 O 0.79843 0.60671 0.64451 0.0
O108 O 0.79064 0.5415 0.63525 0.0
C109 C 0.77622 0.47654 0.69732 0.0
C110 C 0.79914 0.57879 0.62276 0.0
O111 O 0.7816 0.5975 0.73792 0.0
Mg112 Mg 0.1298 0.72265 0.95685 0.0
O113 O 0.18168 0.79663 0.95884 0.0
O114 O 0.20933 0.81479 0.90399 0.0
Mg115 Mg 0.17676 0.75503 0.8679 0.0
C116 C 0.2075 0.82484 0.9362 0.0
C117 C 0.09484 0.67903 0.02857 0.0
O118 O 0.08019 0.64609 0.00622 0.0
O119 O 0.18555 0.70576 0.95604 0.0
O120 O 0.20914 0.72457 0.9004 0.0
O121 O 0.08108 0.74265 0.94126 0.0
O122 O 0.1202 0.72886 0.90333 0.0
C123 C 0.21088 0.70898 0.93046 0.0
C124 C 0.09474 0.74449 0.90919 0.0
O125 O 0.12138 0.71736 0.01718 0.0
Mg126 Mg 0.43407 0.13726 0.30187 0.0
O127 O 0.39989 0.17804 0.29551 0.0
O128 O 0.4133 0.20394 0.24 0.0
Mg129 Mg 0.4566 0.18302 0.21158 0.0
C130 C 0.39558 0.19982 0.27028 0.0
C131 C 0.38104 0.10543 0.37256 0.0
O132 O 0.34946 0.09216 0.34901 0.0
O133 O 0.50113 0.20251 0.30787 0.0
O134 O 0.50924 0.22433 0.25151 0.0
O135 O 0.37293 0.08072 0.27823 0.0
O136 O 0.43036 0.12707 0.24704 0.0
C137 C 0.52301 0.2302 0.28339 0.0
C138 C 0.39014 0.09627 0.24764 0.0
O139 O 0.42057 0.12843 0.36211 0.0
Mg140 Mg 0.23863 0.48446 0.71092 0.0
O141 O 0.16613 0.43439 0.72358 0.0
O142 O 0.12475 0.45678 0.6959 0.0
Mg143 Mg 0.16839 0.51863 0.66487 0.0
C144 C 0.12878 0.42939 0.71518 0.0
C145 C 0.28552 0.43931 0.7458 0.0
O146 O 0.29686 0.44222 0.71233 0.0
O147 O 0.24294 0.54046 0.74611 0.0
O148 O 0.2018 0.55899 0.71362 0.0
O149 O 0.23138 0.44357 0.66357 0.0
O150 O 0.21818 0.49839 0.66278 0.0
C151 C 0.22658 0.56504 0.74012 0.0
C152 C 0.21707 0.46576 0.64663 0.0
O153 O 0.26152 0.45506 0.75515 0.0
Mg154 Mg 0.85237 0.25379 0.98969 0.0
O155 O 0.79763 0.18091 0.99243 0.0
O156 O 0.76919 0.16474 0.93758 0.0
Mg157 Mg 0.80189 0.22454 0.90173 0.0
C158 C 0.77104 0.15371 0.9695 0.0
C159 C 0.90741 0.2903 0.05119 0.0
O160 O 0.92775 0.30978 0.02176 0.0
O161 O 0.80013 0.27541 0.99158 0.0
O162 O 0.77473 0.25838 0.93609 0.0
O163 O 0.89595 0.2282 0.97235 0.0
O164 O 0.85866 0.24664 0.93607 0.0
C165 C 0.77516 0.27441 0.96646 0.0
C166 C 0.88082 0.2272 0.94096 0.0
O167 O 0.86692 0.26136 0.04918 0.0
C168 C 0.24739 0.54089 0.34368 0.0
C169 C 0.26356 0.51194 0.3453 0.0
C170 C 0.27606 0.58621 0.33945 0.0
C171 C 0.32162 0.60249 0.33561 0.0
C172 C 0.33779 0.57302 0.33677 0.0
C173 C 0.30864 0.52826 0.34226 0.0
C174 C 0.25775 0.6167 0.33951 0.0
C175 C 0.38585 0.58861 0.33164 0.0
C176 C 0.39383 0.70547 0.28349 0.0
C177 C 0.42204 0.734 0.30977 0.0
C178 C 0.35968 0.66343 0.2918 0.0
C179 C 0.35234 0.64962 0.32751 0.0
C180 C 0.37802 0.67948 0.35458 0.0
C181 C 0.41295 0.72126 0.34539 0.0
C182 C 0.33381 0.63265 0.26195 0.0
C183 C 0.37018 0.66644 0.39309 0.0
H184 H 0.21256 0.52824 0.34693 0.0
H185 H 0.32105 0.50577 0.34386 0.0
H186 H 0.27467 0.64247 0.35992 0.0
H187 H 0.2638 0.63347 0.31355 0.0
H188 H 0.22198 0.5992 0.34485 0.0
H189 H 0.39299 0.56138 0.33294 0.0
H190 H 0.39682 0.60497 0.30551 0.0
H191 H 0.40554 0.61308 0.35223 0.0
H192 H 0.39986 0.71498 0.25586 0.0
H193 H 0.4342 0.74303 0.36594 0.0
H194 H 0.29816 0.61735 0.26685 0.0
H195 H 0.34153 0.60586 0.26047 0.0
H196 H 0.34132 0.64945 0.23586 0.0
H197 H 0.33461 0.64887 0.39911 0.0
H198 H 0.38711 0.69526 0.41093 0.0
H199 H 0.38256 0.6438 0.39896 0.0
C200 C 0.68513 0.2163 0.68981 0.0
C201 C 0.72125 0.21112 0.68315 0.0
C202 C 0.68955 0.25818 0.69005 0.0
C203 C 0.73148 0.29563 0.68504 0.0
C204 C 0.76763 0.29022 0.67685 0.0
C205 C 0.76189 0.24795 0.67559 0.0
C206 C 0.64991 0.26245 0.69759 0.0
C207 C 0.81306 0.32915 0.67196 0.0
C208 C 0.7496 0.40817 0.66284 0.0
C209 C 0.76077 0.42916 0.69593 0.0
C210 C 0.73771 0.36408 0.65927 0.0
C211 C 0.73825 0.34059 0.68938 0.0
C212 C 0.74843 0.36128 0.72312 0.0
C213 C 0.75896 0.40531 0.72609 0.0
C214 C 0.72577 0.34305 0.62306 0.0
C215 C 0.75011 0.33751 0.75578 0.0
H216 H 0.65402 0.18785 0.69675 0.0
H217 H 0.79011 0.24392 0.67172 0.0
H218 H 0.6526 0.27602 0.72457 0.0
H219 H 0.64806 0.28548 0.67861 0.0
H220 H 0.619 0.23041 0.69598 0.0
H221 H 0.83745 0.31929 0.66493 0.0
H222 H 0.81295 0.35093 0.65085 0.0
H223 H 0.82382 0.34856 0.69681 0.0
H224 H 0.75036 0.42644 0.63949 0.0
H225 H 0.76764 0.42157 0.75162 0.0
H226 H 0.69449 0.31138 0.62432 0.0
H227 H 0.75139 0.33596 0.61385 0.0
H228 H 0.72242 0.36433 0.60312 0.0
H229 H 0.71861 0.30652 0.75923 0.0
H230 H 0.757 0.35757 0.78016 0.0
H231 H 0.77604 0.32878 0.75263 0.0
C232 C 0.41356 0.66537 0.96056 0.0
C233 C 0.44988 0.70749 0.96433 0.0
C234 C 0.37195 0.65941 0.95229 0.0
C235 C 0.36679 0.69649 0.9481 0.0
C236 C 0.40408 0.73902 0.95002 0.0
C237 C 0.44505 0.74394 0.95831 0.0
C238 C 0.33317 0.61357 0.95006 0.0
C239 C 0.40032 0.7795 0.94542 0.0
C240 C 0.26808 0.69431 0.90587 0.0
C241 C 0.24612 0.69804 0.93557 0.0
C242 C 0.30586 0.69097 0.90954 0.0
C243 C 0.32245 0.69156 0.94378 0.0
C244 C 0.29894 0.6925 0.97394 0.0
C245 C 0.26098 0.69561 0.96949 0.0
C246 C 0.32942 0.68963 0.87661 0.0
C247 C 0.31533 0.69286 0.01095 0.0
H248 H 0.41715 0.63723 0.96615 0.0
H249 H 0.47307 0.7765 0.96202 0.0
H250 H 0.31147 0.60737 0.97319 0.0
H251 H 0.31365 0.60972 0.92588 0.0
H252 H 0.34328 0.58843 0.94978 0.0
H253 H 0.43279 0.81002 0.94559 0.0
H254 H 0.38353 0.7778 0.92012 0.0
H255 H 0.38022 0.78142 0.96716 0.0
H256 H 0.25662 0.69551 0.87947 0.0
H257 H 0.24428 0.69836 0.99256 0.0
H258 H 0.34079 0.66568 0.87956 0.0
H259 H 0.35876 0.72232 0.8723 0.0
H260 H 0.30831 0.68098 0.85267 0.0
H261 H 0.32293 0.66615 0.01415 0.0
H262 H 0.29117 0.68908 0.0315 0.0
H263 H 0.34612 0.72428 0.01562 0.0
C264 C 0.57835 0.28654 0.32596 0.0
C265 C 0.56333 0.27283 0.29128 0.0
C266 C 0.61292 0.3295 0.33273 0.0
C267 C 0.63216 0.35952 0.30428 0.0
C268 C 0.61851 0.3451 0.26922 0.0
C269 C 0.58492 0.30205 0.26318 0.0
C270 C 0.62755 0.34332 0.37043 0.0
C271 C 0.6373 0.37596 0.23805 0.0
C272 C 0.67448 0.48067 0.31869 0.0
C273 C 0.71986 0.49882 0.315 0.0
C274 C 0.64582 0.43535 0.31618 0.0
C275 C 0.66293 0.40711 0.31083 0.0
C276 C 0.70889 0.42513 0.30809 0.0
C277 C 0.73682 0.47091 0.30963 0.0
C278 C 0.59706 0.41787 0.31812 0.0
C279 C 0.72847 0.39608 0.30331 0.0
H280 H 0.56227 0.26432 0.34785 0.0
H281 H 0.57427 0.29202 0.23614 0.0
H282 H 0.66384 0.36195 0.37211 0.0
H283 H 0.61558 0.36527 0.37965 0.0
H284 H 0.61479 0.3148 0.38863 0.0
H285 H 0.6248 0.359 0.21226 0.0
H286 H 0.6287 0.40208 0.24031 0.0
H287 H 0.67353 0.39216 0.23794 0.0
H288 H 0.66123 0.50215 0.32284 0.0
H289 H 0.77195 0.48478 0.30741 0.0
H290 H 0.58232 0.39306 0.33945 0.0
H291 H 0.58138 0.40141 0.29282 0.0
H292 H 0.58912 0.44409 0.32321 0.0
H293 H 0.71521 0.36971 0.32353 0.0
H294 H 0.76476 0.41465 0.30538 0.0
H295 H 0.71931 0.38005 0.27696 0.0
C296 C 0.30596 0.80114 0.70248 0.0
C297 C 0.31927 0.83357 0.72861 0.0
C298 C 0.29385 0.75779 0.7114 0.0
C299 C 0.29485 0.74643 0.74735 0.0
C300 C 0.30915 0.77919 0.77373 0.0
C301 C 0.32146 0.82229 0.76404 0.0
C302 C 0.27879 0.72381 0.6824 0.0
C303 C 0.31011 0.76842 0.81233 0.0
C304 C 0.2168 0.62552 0.76223 0.0
C305 C 0.24457 0.60829 0.75734 0.0
C306 C 0.23331 0.67091 0.7624 0.0
C307 C 0.2787 0.69975 0.75714 0.0
C308 C 0.30743 0.68265 0.75659 0.0
C309 C 0.28999 0.63697 0.75695 0.0
C310 C 0.20137 0.68739 0.76411 0.0
C311 C 0.35608 0.71216 0.75159 0.0
H312 H 0.30409 0.80937 0.67512 0.0
H313 H 0.33178 0.84702 0.78455 0.0
H314 H 0.29788 0.70669 0.6833 0.0
H315 H 0.24385 0.69883 0.68653 0.0
H316 H 0.2823 0.7383 0.65564 0.0
H317 H 0.32258 0.79773 0.82964 0.0
H318 H 0.27665 0.74385 0.82119 0.0
H319 H 0.33111 0.75365 0.816 0.0
H320 H 0.18163 0.60345 0.76239 0.0
H321 H 0.3116 0.62389 0.75274 0.0
H322 H 0.19402 0.69342 0.73678 0.0
H323 H 0.21515 0.71863 0.779 0.0
H324 H 0.17008 0.66303 0.77673 0.0
H325 H 0.36269 0.72322 0.7236 0.0
H326 H 0.37447 0.69508 0.75783 0.0
H327 H 0.3687 0.74177 0.76847 0.0
C328 C 0.71833 0.27808 0.00369 0.0
C329 C 0.74249 0.28837 0.97224 0.0
C330 C 0.68027 0.28139 0.0058 0.0
C331 C 0.66661 0.29598 0.97593 0.0
C332 C 0.6931 0.30994 0.94524 0.0
C333 C 0.73044 0.3056 0.94367 0.0
C334 C 0.65291 0.26612 0.03903 0.0
C335 C 0.68044 0.32661 0.91312 0.0
C336 C 0.54347 0.24578 0.96616 0.0
C337 C 0.53667 0.27828 0.98075 0.0
C338 C 0.58581 0.25187 0.96327 0.0
C339 C 0.62226 0.29154 0.97526 0.0
C340 C 0.61569 0.32552 0.98806 0.0
C341 C 0.57279 0.31825 0.99108 0.0
C342 C 0.59118 0.2147 0.94947 0.0
C343 C 0.65362 0.36854 0.00049 0.0
H344 H 0.72731 0.26444 0.0257 0.0
H345 H 0.74925 0.3139 0.91934 0.0
H346 H 0.64426 0.29076 0.04787 0.0
H347 H 0.62183 0.23534 0.03341 0.0
H348 H 0.67005 0.25993 0.06101 0.0
H349 H 0.70758 0.34221 0.89363 0.0
H350 H 0.65187 0.29892 0.89989 0.0
H351 H 0.67059 0.3507 0.92099 0.0
H352 H 0.51534 0.21442 0.95918 0.0
H353 H 0.56731 0.34287 0.00331 0.0
H354 H 0.60403 0.20267 0.97087 0.0
H355 H 0.6153 0.22626 0.92753 0.0
H356 H 0.55982 0.18682 0.93972 0.0
H357 H 0.6666 0.36347 0.02572 0.0
H358 H 0.64385 0.39355 0.00494 0.0
H359 H 0.68066 0.3814 0.98089 0.0
C360 C 0.29168 0.34196 0.32774 0.0
C361 C 0.24927 0.32802 0.31514 0.0
C362 C 0.31475 0.32132 0.31712 0.0
C363 C 0.29496 0.2857 0.29327 0.0
C364 C 0.25312 0.27292 0.27883 0.0
C365 C 0.23069 0.29441 0.2899 0.0
C366 C 0.35952 0.33642 0.3328 0.0
C367 C 0.23129 0.23531 0.25303 0.0
C368 C 0.37396 0.25469 0.25324 0.0
C369 C 0.36874 0.22074 0.27573 0.0
C370 C 0.34849 0.2746 0.25741 0.0
C371 C 0.31758 0.26082 0.28521 0.0
C372 C 0.31173 0.2262 0.30778 0.0
C373 C 0.33742 0.20657 0.30278 0.0
C374 C 0.3558 0.31141 0.23283 0.0
C375 C 0.2792 0.21074 0.33786 0.0
H376 H 0.30644 0.36837 0.34692 0.0
H377 H 0.19787 0.28348 0.2802 0.0
H378 H 0.35845 0.30999 0.34944 0.0
H379 H 0.38375 0.34352 0.31146 0.0
H380 H 0.37126 0.36622 0.34942 0.0
H381 H 0.20092 0.23231 0.24155 0.0
H382 H 0.25402 0.23941 0.23117 0.0
H383 H 0.22276 0.20425 0.26678 0.0
H384 H 0.39864 0.26637 0.23266 0.0
H385 H 0.33299 0.18015 0.32008 0.0
H386 H 0.37146 0.3428 0.24765 0.0
H387 H 0.3241 0.30616 0.22249 0.0
H388 H 0.37712 0.3146 0.21006 0.0
H389 H 0.28944 0.23735 0.35767 0.0
H390 H 0.27633 0.18146 0.35137 0.0
H391 H 0.24641 0.20269 0.3279 0.0
C392 C 0.90549 0.20114 0.73985 0.0
C393 C 0.87903 0.19478 0.71019 0.0
C394 C 0.94841 0.23645 0.74183 0.0
C395 C 0.96597 0.26538 0.71276 0.0
C396 C 0.94084 0.25662 0.68126 0.0
C397 C 0.89732 0.22148 0.68043 0.0
C398 C 0.97356 0.24457 0.77606 0.0
C399 C 0.95895 0.28594 0.64927 0.0
C400 C 0.04932 0.38516 0.7294 0.0
C401 C 0.08878 0.38679 0.72128 0.0
C402 C 0.00933 0.34551 0.72789 0.0
C403 C 0.00867 0.30688 0.71667 0.0
C404 C 0.0486 0.30817 0.70922 0.0
C405 C 0.08829 0.34807 0.71211 0.0
C406 C 0.96765 0.34526 0.7373 0.0
C407 C 0.04923 0.26805 0.69629 0.0
H408 H 0.89188 0.17948 0.76231 0.0
H409 H 0.87694 0.21658 0.65743 0.0
H410 H 0.00664 0.24949 0.77093 0.0
H411 H 0.978 0.27496 0.78861 0.0
H412 H 0.95643 0.21717 0.79517 0.0
H413 H 0.93807 0.27127 0.62546 0.0
H414 H 0.96102 0.31778 0.65482 0.0
H415 H 0.99257 0.29275 0.64333 0.0
H416 H 0.04969 0.41521 0.73608 0.0
H417 H 0.1187 0.34952 0.70486 0.0
H418 H 0.94895 0.31957 0.75737 0.0
H419 H 0.94656 0.33733 0.71347 0.0
H420 H 0.9741 0.37731 0.74791 0.0
H421 H 0.03054 0.2401 0.71452 0.0
H422 H 0.08307 0.2738 0.69379 0.0
H423 H 0.03304 0.2583 0.67 0.0
C424 C 0.70687 0.07948 0.95843 0.0
C425 C 0.74432 0.1067 0.97851 0.0
C426 C 0.68419 0.03396 0.96307 0.0
C427 C 0.69929 0.01509 0.98844 0.0
C428 C 0.73648 0.04241 0.00943 0.0
C429 C 0.7585 0.088 0.0043 0.0
C430 C 0.64453 0.006 0.94031 0.0
C431 C 0.75357 0.0234 0.03669 0.0
C432 C 0.61805 0.90161 0.02213 0.0
C433 C 0.62884 0.87482 0.00209 0.0
C434 C 0.64091 0.94719 0.01811 0.0
C435 C 0.67552 0.96676 0.99337 0.0
C436 C 0.68661 0.9401 0.97287 0.0
C437 C 0.66307 0.89437 0.97744 0.0
C438 C 0.62786 0.97439 0.04029 0.0
C439 C 0.7236 0.95998 0.94638 0.0
H440 H 0.69573 0.09377 0.93847 0.0
H441 H 0.78776 0.10881 0.01956 0.0
H442 H 0.65048 0.98345 0.92391 0.0
H443 H 0.61571 0.98553 0.95729 0.0
H444 H 0.63641 0.02591 0.92243 0.0
H445 H 0.78228 0.04914 0.05137 0.0
H446 H 0.72745 0.00322 0.056 0.0
H447 H 0.76328 0.00148 0.02352 0.0
H448 H 0.59155 0.88698 0.04117 0.0
H449 H 0.67189 0.87404 0.96206 0.0
H450 H 0.61746 0.99278 0.02281 0.0
H451 H 0.65631 0.99882 0.05594 0.0
H452 H 0.60067 0.95412 0.05882 0.0
H453 H 0.71791 0.98008 0.92685 0.0
H454 H 0.72744 0.93474 0.93189 0.0
H455 H 0.7548 0.98214 0.96022 0.0
C456 C 0.64819 0.78344 0.29674 0.0
C457 C 0.60845 0.76498 0.27825 0.0
C458 C 0.67527 0.765 0.29454 0.0
C459 C 0.66223 0.72733 0.27329 0.0
C460 C 0.62174 0.70814 0.25511 0.0
C461 C 0.59512 0.72692 0.25816 0.0
C462 C 0.71806 0.78611 0.31463 0.0
C463 C 0.60679 0.66815 0.23207 0.0
C464 C 0.75241 0.70351 0.24749 0.0
C465 C 0.74784 0.67367 0.27393 0.0
C466 C 0.72374 0.7203 0.24608 0.0
C467 C 0.68999 0.70675 0.27167 0.0
C468 C 0.68388 0.67476 0.29705 0.0
C469 C 0.71276 0.65854 0.29775 0.0
C470 C 0.73079 0.754 0.21832 0.0
C471 C 0.64811 0.65911 0.3246 0.0
H472 H 0.65879 0.81311 0.31201 0.0
H473 H 0.56418 0.71238 0.24406 0.0
H474 H 0.71878 0.76211 0.3332 0.0
H475 H 0.7457 0.79635 0.2959 0.0
H476 H 0.72337 0.81522 0.32999 0.0
H477 H 0.57478 0.65782 0.2191 0.0
H478 H 0.6315 0.67492 0.21121 0.0
H479 H 0.60377 0.64049 0.24818 0.0
H480 H 0.77955 0.71529 0.22909 0.0
H481 H 0.70852 0.63474 0.31776 0.0
H482 H 0.74237 0.78622 0.23123 0.0
H483 H 0.69952 0.74503 0.20469 0.0
H484 H 0.75532 0.75764 0.1982 0.0
H485 H 0.65404 0.68678 0.34214 0.0
H486 H 0.64635 0.63234 0.34126 0.0
H487 H 0.61585 0.64724 0.31169 0.0
C488 C 0.13407 0.79529 0.67604 0.0
C489 C 0.16293 0.79219 0.69982 0.0
C490 C 0.09065 0.76087 0.67238 0.0
C491 C 0.07561 0.72255 0.69318 0.0
C492 C 0.10505 0.71867 0.71633 0.0
C493 C 0.14853 0.75318 0.71883 0.0
C494 C 0.06045 0.76608 0.64704 0.0
C495 C 0.09069 0.67852 0.73903 0.0
C496 C 0.95226 0.65423 0.70761 0.0
C497 C 0.94005 0.62117 0.68206 0.0
C498 C 0.99644 0.68688 0.71213 0.0
C499 C 0.0291 0.68662 0.69049 0.0
C500 C 0.01718 0.65267 0.66552 0.0
C501 C 0.973 0.62042 0.66169 0.0
C502 C 0.00822 0.722 0.73977 0.0
C503 C 0.05103 0.651 0.64218 0.0
H504 H 0.14482 0.82535 0.66132 0.0
H505 H 0.17079 0.75041 0.737 0.0
H506 H 0.04571 0.73822 0.62816 0.0
H507 H 0.03321 0.76567 0.66198 0.0
H508 H 0.07763 0.79708 0.63173 0.0
H509 H 0.11345 0.68516 0.76156 0.0
H510 H 0.05733 0.66628 0.74983 0.0
H511 H 0.08993 0.65207 0.72265 0.0
H512 H 0.92727 0.65513 0.72361 0.0
H513 H 0.96428 0.59501 0.642 0.0
H514 H 0.02354 0.75465 0.72692 0.0
H515 H 0.03268 0.72236 0.75849 0.0
H516 H 0.97924 0.71708 0.75508 0.0
H517 H 0.06763 0.68103 0.6257 0.0
H518 H 0.0365 0.62202 0.62437 0.0
H519 H 0.07651 0.65006 0.65875 0.0
C520 C 0.36314 0.07085 0.00348 0.0
C521 C 0.35356 0.10026 0.98612 0.0
C522 C 0.34063 0.02609 0.99525 0.0
C523 C 0.30733 0.00999 0.96918 0.0
C524 C 0.2979 0.03945 0.95104 0.0
C525 C 0.32131 0.08433 0.9596 0.0
C526 C 0.35209 0.99589 0.01488 0.0
C527 C 0.26246 0.02339 0.92315 0.0
C528 C 0.27259 0.89931 0.92745 0.0
C529 C 0.2345 0.87145 0.94655 0.0
C530 C 0.29663 0.94439 0.93457 0.0
C531 C 0.28211 0.96218 0.96132 0.0
C532 C 0.244 0.93415 0.98105 0.0
C533 C 0.22078 0.88904 0.97357 0.0
C534 C 0.3373 0.97303 0.91318 0.0
C535 C 0.22736 0.95196 0.00966 0.0
H536 H 0.38809 0.08274 0.02393 0.0
H537 H 0.31344 0.10668 0.94624 0.0
H538 H 0.32328 0.97138 0.0301 0.0
H539 H 0.36081 0.97762 -0.00422 0.0
H540 H 0.37988 0.01383 0.03354 0.0
H541 H 0.25888 0.05039 0.91165 0.0
H542 H 0.26987 0.00694 0.90145 0.0
H543 H 0.23063 0.99876 0.93477 0.0
H544 H 0.28339 0.8859 0.90654 0.0
H545 H 0.19113 0.86776 0.98815 0.0
H546 H 0.36585 0.99097 0.93108 0.0
H547 H 0.33314 0.99785 0.89841 0.0
H548 H 0.34476 0.9539 0.89392 0.0
H549 H 0.25291 0.96883 0.03025 0.0
H550 H 0.19723 0.92587 0.02255 0.0
H551 H 0.22015 0.9766 -0.0018 0.0
C552 C 0.9133 0.2812 0.11695 0.0
C553 C 0.93319 0.29938 0.08438 0.0
C554 C 0.93877 0.28825 0.14766 0.0
C555 C 0.98511 0.31343 0.14552 0.0
C556 C 0.00517 0.33235 0.11283 0.0
C557 C 0.97904 0.32541 0.08286 0.0
C558 C 0.91619 0.26819 0.18225 0.0
C559 C 0.05443 0.35888 0.10918 0.0
C560 C 0.05714 0.36149 0.22721 0.0
C561 C 0.06999 0.33048 0.23394 0.0
C562 C 0.02847 0.35574 0.19916 0.0
C563 C 0.01305 0.31859 0.17688 0.0
C564 C 0.02642 0.28752 0.1833 0.0
C565 C 0.05435 0.29363 0.21194 0.0
C566 C 0.01453 0.3893 0.19346 0.0
C567 C 0.01162 0.24804 0.15966 0.0
H568 H 0.87794 0.2612 0.11839 0.0
H569 H 0.9949 0.33962 0.05786 0.0
H570 H 0.92475 0.24341 0.19096 0.0
H571 H 0.92766 0.29368 0.20316 0.0
H572 H 0.87999 0.25214 0.18009 0.0
H573 H 0.06487 0.37214 0.08202 0.0
H574 H 0.06821 0.38663 0.12814 0.0
H575 H 0.06888 0.33816 0.11571 0.0
H576 H 0.06864 0.38976 0.24441 0.0
H577 H 0.06417 0.26956 0.217 0.0
H578 H 0.97826 0.37307 0.19348 0.0
H579 H 0.02597 0.40506 0.1672 0.0
H580 H 0.02771 0.4152 0.21414 0.0
H581 H 0.97534 0.22829 0.15922 0.0
H582 H 0.02467 0.22676 0.16842 0.0
H583 H 0.02259 0.2588 0.13207 0.0
C584 C 0.69503 0.96729 0.57903 0.0
C585 C 0.70876 0.01181 0.58382 0.0
C586 C 0.68172 0.94714 0.5457 0.0
C587 C 0.6817 0.97191 0.51624 0.0
C588 C 0.69646 0.01713 0.52064 0.0
C589 C 0.71002 0.03662 0.55434 0.0
C590 C 0.66685 0.89905 0.54221 0.0
C591 C 0.69684 0.04467 0.48992 0.0
C592 C 0.67922 0.92785 0.42352 0.0
C593 C 0.63472 0.90851 0.41443 0.0
C594 C 0.69491 0.94846 0.45648 0.0
C595 C 0.66551 0.95014 0.48104 0.0
C596 C 0.62045 0.93019 0.47225 0.0
C597 C 0.60558 0.90949 0.43916 0.0
C598 C 0.74306 0.96873 0.46492 0.0
C599 C 0.58799 0.93123 0.49765 0.0
H600 H 0.69413 0.94782 0.60156 0.0
H601 H 0.72033 0.07093 0.5578 0.0
H602 H 0.63193 0.88065 0.53407 0.0
H603 H 0.68597 0.8941 0.52127 0.0
H604 H 0.6705 0.88482 0.56734 0.0
H605 H 0.71033 0.07955 0.49741 0.0
H606 H 0.71664 0.04295 0.46786 0.0
H607 H 0.66301 0.03163 0.4798 0.0
H608 H 0.70207 0.92729 0.40467 0.0
H609 H 0.57122 0.89492 0.43238 0.0
H610 H 0.74744 0.95401 0.48944 0.0
H611 H 0.75751 0.00431 0.46993 0.0
H612 H 0.76157 0.96423 0.44315 0.0
H613 H 0.58793 0.91518 0.52293 0.0
H614 H 0.55416 0.91452 0.48679 0.0
H615 H 0.59778 0.96566 0.5039 0.0
C616 C 0.71171 0.71836 0.90807 0.0
C617 C 0.67243 0.71877 0.9033 0.0
C618 C 0.72572 0.69818 0.88345 0.0
C619 C 0.70043 0.67861 0.85268 0.0
C620 C 0.6619 0.68083 0.84671 0.0
C621 C 0.6481 0.70047 0.87225 0.0
C622 C 0.76654 0.696 0.89129 0.0
C623 C 0.63455 0.66128 0.81383 0.0
C624 C 0.75551 0.65095 0.77803 0.0
C625 C 0.73756 0.60566 0.78252 0.0
C626 C 0.74314 0.67501 0.80017 0.0
C627 C 0.71298 0.65351 0.82807 0.0
C628 C 0.69563 0.60798 0.83319 0.0
C629 C 0.70766 0.58457 0.81011 0.0
C630 C 0.76173 0.72326 0.79332 0.0
C631 C 0.66434 0.58391 0.86315 0.0
H632 H 0.73085 0.73225 0.93194 0.0
H633 H 0.61782 0.7007 0.86823 0.0
H634 H 0.75777 0.66133 0.89481 0.0
H635 H 0.78969 0.70928 0.86873 0.0
H636 H 0.78361 0.71448 0.91559 0.0
H637 H 0.60818 0.66955 0.81132 0.0
H638 H 0.65551 0.67304 0.78987 0.0
H639 H 0.61926 0.62512 0.81453 0.0
H640 H 0.77814 0.66736 0.75644 0.0
H641 H 0.69368 0.5496 0.81374 0.0
H642 H 0.78004 0.74251 0.81691 0.0
H643 H 0.73468 0.73007 0.7886 0.0
H644 H 0.78404 0.73494 0.77011 0.0
H645 H 0.67966 0.59925 0.88885 0.0
H646 H 0.65463 0.54873 0.86407 0.0
H647 H 0.63435 0.5863 0.86027 0.0
C648 C 0.04888 0.62944 0.07752 0.0
C649 C 0.07449 0.67208 0.06417 0.0
C650 C 0.02433 0.62138 0.10874 0.0
C651 C 0.02491 0.65673 0.1269 0.0
C652 C 0.05192 0.70002 0.11427 0.0
C653 C 0.07661 0.7072 0.08321 0.0
C654 C 0.99666 0.57484 0.12162 0.0
C655 C 0.05338 0.73862 0.13278 0.0
C656 C 0.92643 0.63436 0.18344 0.0
C657 C 0.94249 0.63669 0.21786 0.0
C658 C 0.95274 0.64036 0.15363 0.0
C659 C 0.996 0.64833 0.15828 0.0
C660 C 0.01183 0.64919 0.19291 0.0
C661 C 0.98503 0.64362 0.22223 0.0
C662 C 0.93466 0.63938 0.11716 0.0
C663 C 0.05743 0.65685 0.19903 0.0
H664 H 0.04719 0.6021 0.06309 0.0
H665 H 0.09608 0.74021 0.07302 0.0
H666 H 0.00369 0.57246 0.14993 0.0
H667 H 0.96147 0.56472 0.11962 0.0
H668 H 0.00238 0.55146 0.1061 0.0
H669 H 0.07739 0.77034 0.12052 0.0
H670 H 0.02049 0.73546 0.13185 0.0
H671 H 0.06206 0.73918 0.1611 0.0
H672 H 0.89372 0.62923 0.17978 0.0
H673 H 0.99769 0.64527 0.24871 0.0
H674 H 0.93633 0.61438 0.10052 0.0
H675 H 0.95486 0.67153 0.10402 0.0
H676 H 0.90015 0.63196 0.11797 0.0
H677 H 0.06228 0.63281 0.18371 0.0
H678 H 0.06397 0.65421 0.22745 0.0
H679 H 0.08199 0.68994 0.18946 0.0
C680 C 0.32656 0.06581 0.4209 0.0
C681 C 0.37041 0.08932 0.40975 0.0
C682 C 0.3153 0.04741 0.45498 0.0
C683 C 0.34861 0.05233 0.47867 0.0
C684 C 0.39299 0.07636 0.46775 0.0
C685 C 0.40336 0.09468 0.43351 0.0
C686 C 0.26764 0.02255 0.46561 0.0
C687 C 0.42951 0.08241 0.49216 0.0
C688 C 0.32385 0.0411 0.5775 0.0
C689 C 0.31477 0.99829 0.5847 0.0
C690 C 0.33479 0.0589 0.54326 0.0
C691 C 0.33702 0.0335 0.51523 0.0
C692 C 0.3277 0.99015 0.52217 0.0
C693 C 0.31654 0.973 0.55679 0.0
C694 C 0.34403 0.10505 0.5371 0.0
C695 C 0.32979 0.96201 0.49304 0.0
H696 H 0.30078 0.06144 0.40284 0.0
H697 H 0.4373 0.11251 0.42515 0.0
H698 H 0.25802 0.98844 0.47289 0.0
H699 H 0.26245 0.03795 0.48932 0.0
H700 H 0.24565 0.02157 0.44411 0.0
H701 H 0.46225 0.10146 0.47959 0.0
H702 H 0.42916 0.09964 0.51662 0.0
H703 H 0.42451 0.05001 0.50026 0.0
H704 H 0.32247 0.061 0.59876 0.0
H705 H 0.30974 0.93999 0.56205 0.0
H706 H 0.32118 0.10499 0.51687 0.0
H707 H 0.37772 0.12565 0.52669 0.0
H708 H 0.34069 0.12044 0.56166 0.0
H709 H 0.30651 0.95783 0.47158 0.0
H710 H 0.32188 0.92912 0.5027 0.0
H711 H 0.36307 0.97837 0.48126 0.0
C712 C 0.39964 0.36459 0.89073 0.0
C713 C 0.37776 0.31927 0.89704 0.0
C714 C 0.38433 0.38289 0.86543 0.0
C715 C 0.34592 0.35535 0.84585 0.0
C716 C 0.32424 0.30942 0.85136 0.0
C717 C 0.34049 0.29188 0.8768 0.0
C718 C 0.40886 0.43194 0.86018 0.0
C719 C 0.28323 0.27892 0.83101 0.0
C720 C 0.28556 0.41016 0.80682 0.0
C721 C 0.30013 0.41725 0.77157 0.0
C722 C 0.29934 0.38912 0.83104 0.0
C723 C 0.32858 0.37499 0.81987 0.0
C724 C 0.34309 0.38175 0.78428 0.0
C725 C 0.32867 0.40265 0.76063 0.0
C726 C 0.28299 0.38247 0.86873 0.0
C727 C 0.3745 0.36758 0.77127 0.0
H728 H 0.42857 0.38608 0.90607 0.0
H729 H 0.32321 0.2569 0.88161 0.0
H730 H 0.41827 0.43991 0.83196 0.0
H731 H 0.38737 0.44539 0.867 0.0
H732 H 0.43893 0.44868 0.87671 0.0
H733 H 0.27101 0.24397 0.83747 0.0
H734 H 0.2571 0.28662 0.83712 0.0
H735 H 0.28952 0.28367 0.80211 0.0
H736 H 0.26337 0.42107 0.81553 0.0
H737 H 0.34016 0.40784 0.73349 0.0
H738 H 0.31096 0.40095 0.88706 0.0
H739 H 0.26749 0.34735 0.87599 0.0
H740 H 0.25885 0.39345 0.87286 0.0
H741 H 0.4059 0.38551 0.78596 0.0
H742 H 0.3814 0.3737 0.74249 0.0
H743 H 0.36097 0.33217 0.77644 0.0
C744 C 0.16814 0.4361 0.44304 0.0
C745 C 0.12946 0.39845 0.43316 0.0
C746 C 0.17818 0.44711 0.47869 0.0
C747 C 0.14794 0.42027 0.50487 0.0
C748 C 0.10687 0.38434 0.49478 0.0
C749 C 0.09832 0.37335 0.45876 0.0
C750 C 0.22256 0.4854 0.48827 0.0
C751 C 0.07323 0.35608 0.52203 0.0
C752 C 0.19973 0.41929 0.59244 0.0
C753 C 0.19712 0.4522 0.61108 0.0
C754 C 0.18257 0.40753 0.55808 0.0
C755 C 0.16114 0.42826 0.54257 0.0
C756 C 0.15669 0.46003 0.56182 0.0
C757 C 0.17574 0.47242 0.59542 0.0
C758 C 0.18904 0.37433 0.53784 0.0
C759 C 0.13304 0.482 0.54649 0.0
H760 H 0.19181 0.4555 0.42294 0.0
H761 H 0.06855 0.34393 0.45083 0.0
H762 H 0.21895 0.50833 0.50608 0.0
H763 H 0.24184 0.47339 0.50277 0.0
H764 H 0.24149 0.50382 0.46456 0.0
H765 H 0.08425 0.33558 0.53585 0.0
H766 H 0.0695 0.3767 0.54233 0.0
H767 H 0.04076 0.33409 0.50981 0.0
H768 H 0.21637 0.40364 0.60424 0.0
H769 H 0.17422 0.49845 0.60897 0.0
H770 H 0.20953 0.39005 0.5141 0.0
H771 H 0.15708 0.34727 0.52839 0.0
H772 H 0.20517 0.36022 0.55411 0.0
H773 H 0.15308 0.5049 0.52516 0.0
H774 H 0.12655 0.50078 0.56682 0.0
H775 H 0.10141 0.45733 0.53453 0.0
C776 C 0.86826 0.15317 0.92413 0.0
C777 C 0.87724 0.19522 0.91425 0.0
C778 C 0.84987 0.11829 0.89962 0.0
C779 C 0.83962 0.12586 0.86496 0.0
C780 C 0.85192 0.16924 0.8547 0.0
C781 C 0.87158 0.20331 0.87911 0.0
C782 C 0.83776 0.07306 0.91217 0.0
C783 C 0.83934 0.17983 0.8196 0.0
C784 C 0.80507 0.06207 0.78014 0.0
C785 C 0.76211 0.05435 0.77805 0.0
C786 C 0.82981 0.07927 0.81138 0.0
C787 C 0.81101 0.08913 0.84058 0.0
C788 C 0.76557 0.07423 0.8403 0.0
C789 C 0.74171 0.05726 0.8089 0.0
C790 C 0.87771 0.09311 0.81124 0.0
C791 C 0.74354 0.08209 0.87134 0.0
H792 H 0.8721 0.14662 0.95156 0.0
H793 H 0.87838 0.23579 0.87152 0.0
H794 H 0.80545 0.05799 0.92555 0.0
H795 H 0.83566 0.05147 0.89 0.0
H796 H 0.86198 0.07476 0.93186 0.0
H797 H 0.86492 0.21258 0.81001 0.0
H798 H 0.83385 0.15512 0.79947 0.0
H799 H 0.80852 0.18063 0.82288 0.0
H800 H 0.82095 0.05968 0.75637 0.0
H801 H 0.70821 0.05059 0.80747 0.0
H802 H 0.8877 0.0866 0.8374 0.0
H803 H 0.89742 0.12887 0.80626 0.0
H804 H 0.88538 0.07589 0.7903 0.0
H805 H 0.75474 0.07499 0.89661 0.0
H806 H 0.70729 0.06157 0.86979 0.0
H807 H 0.7524 0.11703 0.87169 0.0
C808 C 0.65866 0.88309 0.22665 0.0
C809 C 0.62484 0.89266 0.22264 0.0
C810 C 0.67049 0.86503 0.19851 0.0
C811 C 0.64836 0.85711 0.16563 0.0
C812 C 0.61806 0.8718 0.1604 0.0
C813 C 0.60633 0.88897 0.18911 0.0
C814 C 0.70295 0.84995 0.20534 0.0
C815 C 0.59432 0.86491 0.12559 0.0
C816 C 0.67013 0.81188 0.08156 0.0
C817 C 0.63581 0.76828 0.08312 0.0
C818 C 0.67722 0.84108 0.10954 0.0
C819 C 0.64939 0.82596 0.13952 0.0
C820 C 0.61751 0.78092 0.14224 0.0
C821 C 0.61101 0.75273 0.11398 0.0
C822 C 0.71177 0.88864 0.10551 0.0
C823 C 0.58758 0.76306 0.17374 0.0
H824 H 0.67269 0.88534 0.25268 0.0
H825 H 0.58015 0.89632 0.18603 0.0
H826 H 0.68495 0.81455 0.21197 0.0
H827 H 0.72319 0.85442 0.18153 0.0
H828 H 0.72488 0.8678 0.22796 0.0
H829 H 0.57693 0.88376 0.12412 0.0
H830 H 0.61757 0.87474 0.10311 0.0
H831 H 0.56989 0.82961 0.12231 0.0
H832 H 0.68891 0.82413 0.05734 0.0
H833 H 0.5844 0.71904 0.11503 0.0
H834 H 0.72764 0.90304 0.13128 0.0
H835 H 0.69625 0.90724 0.09566 0.0
H836 H 0.73732 0.8929 0.08618 0.0
H837 H 0.6072 0.77484 0.19828 0.0
H838 H 0.56876 0.72668 0.17412 0.0
H839 H 0.56411 0.77527 0.17346 0.0
C840 C 0.8085 0.61116 0.41809 0.0
C841 C 0.84894 0.62768 0.40114 0.0
C842 C 0.80488 0.60671 0.45484 0.0
C843 C 0.84254 0.61732 0.4752 0.0
C844 C 0.88342 0.63238 0.45823 0.0
C845 C 0.8862 0.63758 0.42119 0.0
C846 C 0.76051 0.5902 0.47177 0.0
C847 C 0.92393 0.64272 0.47916 0.0
C848 C 0.82913 0.63277 0.57279 0.0
C849 C 0.81315 0.59012 0.58553 0.0
C850 C 0.84115 0.6429 0.53708 0.0
C851 C 0.83769 0.60973 0.51394 0.0
C852 C 0.82327 0.56717 0.52705 0.0
C853 C 0.8103 0.55769 0.56242 0.0
C854 C 0.85537 0.6884 0.52374 0.0
C855 C 0.81943 0.53093 0.50331 0.0
H856 H 0.77923 0.60066 0.4027 0.0
H857 H 0.91748 0.64992 0.40801 0.0
H858 H 0.76269 0.61294 0.493 0.0
H859 H 0.7353 0.58673 0.45232 0.0
H860 H 0.74933 0.55783 0.4842 0.0
H861 H 0.93054 0.66818 0.49931 0.0
H862 H 0.91863 0.61307 0.4936 0.0
H863 H 0.95327 0.6544 0.46202 0.0
H864 H 0.83137 0.65798 0.59049 0.0
H865 H 0.79677 0.52435 0.57159 0.0
H866 H 0.86058 0.71153 0.54566 0.0
H867 H 0.82992 0.68713 0.50569 0.0
H868 H 0.88611 0.70138 0.50828 0.0
H869 H 0.79136 0.52052 0.48494 0.0
H870 H 0.8142 0.50185 0.51867 0.0
H871 H 0.84934 0.54262 0.48696 0.0
C872 C 0.1026 0.77035 0.84745 0.0
C873 C 0.09194 0.77357 0.88247 0.0
C874 C 0.11683 0.80573 0.82422 0.0
C875 C 0.11797 0.84458 0.83568 0.0
C876 C 0.0998 0.84486 0.86909 0.0
C877 C 0.08768 0.80953 0.8925 0.0
C878 C 0.13489 0.80262 0.78887 0.0
C879 C 0.09583 0.88327 0.88149 0.0
C880 C 0.22331 0.93678 0.80216 0.0
C881 C 0.21217 0.93742 0.7667 0.0
C882 C 0.19125 0.91132 0.82713 0.0
C883 C 0.14689 0.8861 0.81621 0.0
C884 C 0.13488 0.8933 0.78208 0.0
C885 C 0.16789 0.91861 0.75735 0.0
C886 C 0.20592 0.90701 0.86373 0.0
C887 C 0.08775 0.87073 0.77023 0.0
H888 H 0.10396 0.74163 0.83922 0.0
H889 H 0.07814 0.81176 0.91936 0.0
H890 H 0.1119 0.79948 0.76753 0.0
H891 H 0.1669 0.83233 0.78371 0.0
H892 H 0.13956 0.77385 0.78753 0.0
H893 H 0.06227 0.87137 0.89182 0.0
H894 H 0.11874 0.89976 0.90387 0.0
H895 H 0.10248 0.90745 0.86016 0.0
H896 H 0.25763 0.95244 0.80951 0.0
H897 H 0.15899 0.91968 0.73002 0.0
H898 H 0.19716 0.8726 0.86856 0.0
H899 H 0.1892 0.91611 0.88396 0.0
H900 H 0.2418 0.92834 0.86744 0.0
H901 H 0.08102 0.84302 0.75244 0.0
H902 H 0.08153 0.89377 0.75468 0.0
H903 H 0.06469 0.85819 0.79293 0.0
C904 C 0.38302 0.09742 0.18253 0.0
C905 C 0.36305 0.08954 0.21581 0.0
C906 C 0.3656 0.10799 0.15333 0.0
C907 C 0.32699 0.11043 0.15753 0.0
C908 C 0.30333 0.09617 0.18972 0.0
C909 C 0.32184 0.08612 0.21875 0.0
C910 C 0.39185 0.12216 0.11946 0.0
C911 C 0.26095 0.09609 0.19475 0.0
C912 C 0.34455 0.21081 0.10891 0.0
C913 C 0.32816 0.19368 0.07545 0.0
C914 C 0.33992 0.1833 0.13722 0.0
C915 C 0.31836 0.13736 0.13186 0.0
C916 C 0.29685 0.11967 0.09917 0.0
C917 C 0.30223 0.14823 0.07108 0.0
C918 C 0.3636 0.20415 0.17123 0.0
C919 C 0.27216 0.07101 0.0924 0.0
H920 H 0.4146 0.09945 0.18013 0.0
H921 H 0.30606 0.07982 0.24442 0.0
H922 H 0.37028 0.10792 0.09605 0.0
H923 H 0.40842 0.15834 0.11726 0.0
H924 H 0.41727 0.11244 0.11876 0.0
H925 H 0.2409 0.07315 0.21614 0.0
H926 H 0.26817 0.12942 0.20234 0.0
H927 H 0.24152 0.08684 0.16988 0.0
H928 H 0.36488 0.24601 0.11202 0.0
H929 H 0.28999 0.13493 0.04494 0.0
H930 H 0.39381 0.20193 0.17265 0.0
H931 H 0.34299 0.18692 0.19448 0.0
H932 H 0.37312 0.23924 0.17276 0.0
H933 H 0.29466 0.06113 0.08059 0.0
H934 H 0.24506 0.06214 0.07323 0.0
H935 H 0.25847 0.05213 0.11721 0.0
loop_
_geom_bond_atom_site_label_1
_geom_bond_atom_site_label_2
_geom_bond_distance
_geom_bond_site_symmetry_2
_ccdc_geom_bond_type
Mg0 O1 2.028 . S
Mg0 O7 1.986 . S
Mg0 O9 2.114 . S
Mg0 O10 2.251 . S
Mg0 O13 2.010 . S
O1 Mg0 2.028 . S
O1 C4 1.250 . S
O2 Mg3 2.028 . S
O2 C4 1.248 . S
Mg3 O2 2.028 . S
Mg3 O8 2.032 . S
Mg3 O10 2.079 . S
C4 O1 1.250 . S
C4 O2 1.248 . S
C5 O6 1.264 . S
C5 O13 1.249 . S
O6 C5 1.264 . S
O7 Mg0 1.986 . S
O7 C11 1.246 . S
O8 Mg3 2.032 . S
O8 C11 1.259 . S
O9 Mg0 2.114 . S
O9 C12 1.252 . S
O10 Mg0 2.251 . S
O10 Mg3 2.079 . S
O10 C12 1.273 . S
C11 O7 1.246 . S
C11 O8 1.259 . S
C12 O9 1.252 . S
C12 O10 1.273 . S
O13 Mg0 2.010 . S
O13 C5 1.249 . S
Mg14 O15 2.028 . S
Mg14 O21 1.986 . S
Mg14 O23 2.114 . S
Mg14 O24 2.251 . S
Mg14 O27 2.010 . S
O15 Mg14 2.028 . S
O15 C18 1.250 . S
O16 Mg17 2.028 . S
O16 C18 1.248 . S
Mg17 O16 2.028 . S
Mg17 O22 2.032 . S
Mg17 O24 2.079 . S
C18 O15 1.250 . S
C18 O16 1.248 . S
C19 O20 1.264 . S
C19 O27 1.249 . S
O20 C19 1.264 . S
O21 Mg14 1.986 . S
O21 C25 1.246 . S
O22 Mg17 2.032 . S
O22 C25 1.259 . S
O23 Mg14 2.114 . S
O23 C26 1.252 . S
O24 Mg14 2.251 . S
O24 Mg17 2.079 . S
O24 C26 1.273 . S
C25 O21 1.246 . S
C25 O22 1.259 . S
C26 O23 1.252 . S
C26 O24 1.273 . S
O27 Mg14 2.010 . S
O27 C19 1.249 . S
Mg28 O29 2.028 1_554 S
Mg28 O35 1.986 1_554 S
Mg28 O37 2.114 . S
Mg28 O38 2.251 . S
Mg28 O41 2.010 1_554 S
O29 Mg28 2.028 1_556 S
O29 C32 1.248 1_556 S
O30 Mg31 2.028 . S
O30 C32 1.253 . S
Mg31 O30 2.028 . S
Mg31 O36 2.032 . S
Mg31 O38 2.079 . S
C32 O29 1.248 1_554 S
C32 O30 1.253 . S
C33 O34 1.264 . S
C33 O41 1.249 . S
O34 C33 1.264 . S
O35 Mg28 1.986 1_556 S
O35 C39 1.246 . S
O36 Mg31 2.032 . S
O36 C39 1.259 1_554 S
O37 Mg28 2.114 . S
O37 C40 1.252 . S
O38 Mg28 2.251 . S
O38 Mg31 2.079 . S
O38 C40 1.273 . S
C39 O35 1.246 . S
C39 O36 1.259 1_556 S
C40 O37 1.252 . S
C40 O38 1.273 . S
O41 Mg28 2.010 1_556 S
O41 C33 1.249 . S
Mg42 O43 2.028 . S
Mg42 O49 1.986 . S
Mg42 O51 2.114 . S
Mg42 O52 2.251 . S
Mg42 O55 2.010 . S
O43 Mg42 2.028 . S
O43 C46 1.250 . S
O44 Mg45 2.028 . S
O44 C46 1.248 . S
Mg45 O44 2.028 . S
Mg45 O50 2.032 . S
Mg45 O52 2.079 . S
C46 O43 1.250 . S
C46 O44 1.248 . S
C47 O48 1.264 . S
C47 O55 1.249 . S
O48 C47 1.264 . S
O49 Mg42 1.986 . S
O49 C53 1.246 . S
O50 Mg45 2.032 . S
O50 C53 1.259 . S
O51 Mg42 2.114 . S
O51 C54 1.252 . S
O52 Mg42 2.251 . S
O52 Mg45 2.079 . S
O52 C54 1.273 . S
C53 O49 1.246 . S
C53 O50 1.259 . S
C54 O51 1.252 . S
C54 O52 1.273 . S
O55 Mg42 2.010 . S
O55 C47 1.249 . S
Mg56 O57 2.028 . S
Mg56 O63 1.986 . S
Mg56 O65 2.114 . S
Mg56 O66 2.251 . S
Mg56 O69 2.010 . S
O57 Mg56 2.028 . S
O57 C60 1.250 . S
O58 Mg59 2.028 . S
O58 C60 1.248 . S
Mg59 O58 2.028 . S
Mg59 O64 2.032 . S
Mg59 O66 2.079 . S
C60 O57 1.250 . S
C60 O58 1.248 . S
C61 O62 1.264 . S
C61 O69 1.249 . S
O62 C61 1.264 . S
O63 Mg56 1.986 . S
O63 C67 1.246 . S
O64 Mg59 2.032 . S
O64 C67 1.259 . S
O65 Mg56 2.114 . S
O65 C68 1.252 . S
O66 Mg56 2.251 . S
O66 Mg59 2.079 . S
O66 C68 1.273 . S
C67 O63 1.246 . S
C67 O64 1.259 . S
C68 O65 1.252 . S
C68 O66 1.273 . S
O69 Mg56 2.010 . S
O69 C61 1.249 . S
Mg70 O71 2.028 1_554 S
Mg70 O77 1.986 1_554 S
Mg70 O79 2.114 . S
Mg70 O80 2.251 . S
Mg70 O83 2.010 1_554 S
O71 Mg70 2.028 1_556 S
O71 C74 1.248 1_556 S
O72 Mg73 2.028 . S
O72 C74 1.253 . S
Mg73 O72 2.028 . S
Mg73 O78 2.032 . S
Mg73 O80 2.079 . S
C74 O71 1.248 1_554 S
C74 O72 1.253 . S
C75 O76 1.264 . S
C75 O83 1.249 . S
O76 C75 1.264 . S
O77 Mg70 1.986 1_556 S
O77 C81 1.246 . S
O78 Mg73 2.032 . S
O78 C81 1.259 1_554 S
O79 Mg70 2.114 . S
O79 C82 1.252 . S
O80 Mg70 2.251 . S
O80 Mg73 2.079 . S
O80 C82 1.273 . S
C81 O77 1.246 . S
C81 O78 1.259 1_556 S
C82 O79 1.252 . S
C82 O80 1.273 . S
O83 Mg70 2.010 1_556 S
O83 C75 1.249 . S
Mg84 O85 2.028 . S
Mg84 O91 1.986 . S
Mg84 O93 2.114 . S
Mg84 O94 2.251 . S
Mg84 O97 2.010 . S
O85 Mg84 2.028 . S
O85 C88 1.250 . S
O86 Mg87 2.028 . S
O86 C88 1.248 . S
Mg87 O86 2.028 . S
Mg87 O92 2.032 . S
Mg87 O94 2.079 . S
C88 O85 1.250 . S
C88 O86 1.248 . S
C89 O90 1.264 . S
C89 O97 1.249 . S
O90 C89 1.264 . S
O91 Mg84 1.986 . S
O91 C95 1.246 . S
O92 Mg87 2.032 . S
O92 C95 1.259 . S
O93 Mg84 2.114 . S
O93 C96 1.252 . S
O94 Mg84 2.251 . S
O94 Mg87 2.079 . S
O94 C96 1.273 . S
C95 O91 1.246 . S
C95 O92 1.259 . S
C96 O93 1.252 . S
C96 O94 1.273 . S
O97 Mg84 2.010 . S
O97 C89 1.249 . S
Mg98 O99 2.028 . S
Mg98 O105 1.986 . S
Mg98 O107 2.114 . S
Mg98 O108 2.251 . S
Mg98 O111 2.010 . S
O99 Mg98 2.028 . S
O99 C102 1.250 . S
O100 Mg101 2.028 . S
O100 C102 1.248 . S
Mg101 O100 2.028 . S
Mg101 O106 2.032 . S
Mg101 O108 2.079 . S
C102 O99 1.250 . S
C102 O100 1.248 . S
C103 O104 1.264 . S
C103 O111 1.249 . S
O104 C103 1.264 . S
O105 Mg98 1.986 . S
O105 C109 1.246 . S
O106 Mg101 2.032 . S
O106 C109 1.259 . S
O107 Mg98 2.114 . S
O107 C110 1.252 . S
O108 Mg98 2.251 . S
O108 Mg101 2.079 . S
O108 C110 1.273 . S
C109 O105 1.246 . S
C109 O106 1.259 . S
C110 O107 1.252 . S
C110 O108 1.273 . S
O111 Mg98 2.010 . S
O111 C103 1.249 . S
Mg112 O113 2.028 1_556 S
Mg112 O119 1.986 1_556 S
Mg112 O121 2.114 . S
Mg112 O122 2.251 . S
Mg112 O125 2.010 1_556 S
O113 Mg112 2.028 1_554 S
O113 C116 1.245 1_554 S
O114 Mg115 2.028 . S
O114 C116 1.258 . S
Mg115 O114 2.028 . S
Mg115 O120 2.032 . S
Mg115 O122 2.079 . S
C116 O113 1.245 1_556 S
C116 O114 1.258 . S
C117 O118 1.264 . S
C117 O125 1.249 . S
O118 C117 1.264 . S
O119 Mg112 1.986 1_554 S
O119 C123 1.246 . S
O120 Mg115 2.032 . S
O120 C123 1.259 1_556 S
O121 Mg112 2.114 . S
O121 C124 1.252 . S
O122 Mg112 2.251 . S
O122 Mg115 2.079 . S
O122 C124 1.273 . S
C123 O119 1.246 . S
C123 O120 1.259 1_554 S
C124 O121 1.252 . S
C124 O122 1.273 . S
O125 Mg112 2.010 1_554 S
O125 C117 1.249 . S
Mg126 O127 2.028 . S
Mg126 O133 1.986 . S
Mg126 O135 2.114 . S
Mg126 O136 2.251 . S
Mg126 O139 2.010 . S
O127 Mg126 2.028 . S
O127 C130 1.250 . S
O128 Mg129 2.028 . S
O128 C130 1.248 . S
Mg129 O128 2.028 . S
Mg129 O134 2.032 . S
Mg129 O136 2.079 . S
C130 O127 1.250 . S
C130 O128 1.248 . S
C131 O132 1.264 . S
C131 O139 1.249 . S
O132 C131 1.264 . S
O133 Mg126 1.986 . S
O133 C137 1.246 . S
O134 Mg129 2.032 . S
O134 C137 1.259 . S
O135 Mg126 2.114 . S
O135 C138 1.252 . S
O136 Mg126 2.251 . S
O136 Mg129 2.079 . S
O136 C138 1.273 . S
C137 O133 1.246 . S
C137 O134 1.259 . S
C138 O135 1.252 . S
C138 O136 1.273 . S
O139 Mg126 2.010 . S
O139 C131 1.249 . S
Mg140 O141 2.028 . S
Mg140 O147 1.986 . S
Mg140 O149 2.114 . S
Mg140 O150 2.251 . S
Mg140 O153 2.010 . S
O141 Mg140 2.028 . S
O141 C144 1.250 . S
O142 Mg143 2.028 . S
O142 C144 1.248 . S
Mg143 O142 2.028 . S
Mg143 O148 2.032 . S
Mg143 O150 2.079 . S
C144 O141 1.250 . S
C144 O142 1.248 . S
C145 O146 1.264 . S
C145 O153 1.249 . S
O146 C145 1.264 . S
O147 Mg140 1.986 . S
O147 C151 1.246 . S
O148 Mg143 2.032 . S
O148 C151 1.259 . S
O149 Mg140 2.114 . S
O149 C152 1.252 . S
O150 Mg140 2.251 . S
O150 Mg143 2.079 . S
O150 C152 1.273 . S
C151 O147 1.246 . S
C151 O148 1.259 . S
C152 O149 1.252 . S
C152 O150 1.273 . S
O153 Mg140 2.010 . S
O153 C145 1.249 . S
Mg154 O155 2.028 1_556 S
Mg154 O161 1.986 1_556 S
Mg154 O163 2.114 . S
Mg154 O164 2.251 . S
Mg154 O167 2.010 1_556 S
O155 Mg154 2.028 1_554 S
O155 C158 1.245 1_554 S
O156 Mg157 2.028 . S
O156 C158 1.258 . S
Mg157 O156 2.028 . S
Mg157 O162 2.032 . S
Mg157 O164 2.079 . S
C158 O155 1.245 1_556 S
C158 O156 1.258 . S
C159 O160 1.264 . S
C159 O167 1.249 . S
O160 C159 1.264 . S
O161 Mg154 1.986 1_554 S
O161 C165 1.246 . S
O162 Mg157 2.032 . S
O162 C165 1.259 1_556 S
O163 Mg154 2.114 . S
O163 C166 1.252 . S
O164 Mg154 2.251 . S
O164 Mg157 2.079 . S
O164 C166 1.273 . S
C165 O161 1.246 . S
C165 O162 1.259 1_554 S
C166 O163 1.252 . S
C166 O164 1.273 . S
O167 Mg154 2.010 1_554 S
O167 C159 1.249 . S
C168 C169 1.391 . S
C168 C170 1.394 . S
C168 H184 0.931 . S
C169 C168 1.391 . S
C169 C173 1.376 . S
C170 C168 1.394 . S
C170 C171 1.369 . S
C170 C174 1.531 . S
C171 C170 1.369 . S
C171 C172 1.410 . S
C171 C179 1.503 . S
C172 C171 1.410 . S
C172 C173 1.392 . S
C172 C175 1.511 . S
C173 C169 1.376 . S
C173 C172 1.392 . S
C173 H185 0.929 . S
C174 C170 1.531 . S
C174 H186 0.960 . S
C174 H187 0.962 . S
C174 H188 0.960 . S
C175 C172 1.511 . S
C175 H189 0.961 . S
C175 H190 0.961 . S
C175 H191 0.961 . S
C176 C177 1.370 . S
C176 C178 1.363 . S
C176 H192 0.931 . S
C177 C176 1.370 . S
C177 C181 1.408 . S
C178 C176 1.363 . S
C178 C179 1.370 . S
C178 C182 1.524 . S
C179 C171 1.503 . S
C179 C178 1.370 . S
C179 C180 1.403 . S
C180 C179 1.403 . S
C180 C181 1.404 . S
C180 C183 1.539 . S
C181 C177 1.408 . S
C181 C180 1.404 . S
C181 H193 0.930 . S
C182 C178 1.524 . S
C182 H194 0.956 . S
C182 H195 0.961 . S
C182 H196 0.961 . S
C183 C180 1.539 . S
C183 H197 0.958 . S
C183 H198 0.961 . S
C183 H199 0.960 . S
H184 C168 0.931 . S
H185 C173 0.929 . S
H186 C174 0.960 . S
H187 C174 0.962 . S
H188 C174 0.960 . S
H189 C175 0.961 . S
H190 C175 0.961 . S
H191 C175 0.961 . S
H192 C176 0.931 . S
H193 C181 0.930 . S
H194 C182 0.956 . S
H195 C182 0.961 . S
H196 C182 0.961 . S
H197 C183 0.958 . S
H198 C183 0.961 . S
H199 C183 0.960 . S
C200 C201 1.391 . S
C200 C202 1.394 . S
C200 H216 0.931 . S
C201 C200 1.391 . S
C201 C205 1.376 . S
C202 C200 1.394 . S
C202 C203 1.369 . S
C202 C206 1.531 . S
C203 C202 1.369 . S
C203 C204 1.410 . S
C203 C211 1.503 . S
C204 C203 1.410 . S
C204 C205 1.392 . S
C204 C207 1.511 . S
C205 C201 1.376 . S
C205 C204 1.392 . S
C205 H217 0.929 . S
C206 C202 1.531 . S
C206 H218 0.960 . S
C206 H219 0.962 . S
C206 H220 0.960 . S
C207 C204 1.511 . S
C207 H221 0.961 . S
C207 H222 0.961 . S
C207 H223 0.961 . S
C208 C209 1.370 . S
C208 C210 1.363 . S
C208 H224 0.931 . S
C209 C208 1.370 . S
C209 C213 1.408 . S
C210 C208 1.363 . S
C210 C211 1.370 . S
C210 C214 1.524 . S
C211 C203 1.503 . S
C211 C210 1.370 . S
C211 C212 1.403 . S
C212 C211 1.403 . S
C212 C213 1.404 . S
C212 C215 1.539 . S
C213 C209 1.408 . S
C213 C212 1.404 . S
C213 H225 0.930 . S
C214 C210 1.524 . S
C214 H226 0.956 . S
C214 H227 0.961 . S
C214 H228 0.961 . S
C215 C212 1.539 . S
C215 H229 0.958 . S
C215 H230 0.961 . S
C215 H231 0.960 . S
H216 C200 0.931 . S
H217 C205 0.929 . S
H218 C206 0.960 . S
H219 C206 0.962 . S
H220 C206 0.960 . S
H221 C207 0.961 . S
H222 C207 0.961 . S
H223 C207 0.961 . S
H224 C208 0.931 . S
H225 C213 0.930 . S
H226 C214 0.956 . S
H227 C214 0.961 . S
H228 C214 0.961 . S
H229 C215 0.958 . S
H230 C215 0.961 . S
H231 C215 0.960 . S
C232 C233 1.391 . S
C232 C234 1.394 . S
C232 H248 0.931 . S
C233 C232 1.391 . S
C233 C237 1.376 1_556 S
C234 C232 1.394 . S
C234 C235 1.369 . S
C234 C238 1.531 . S
C235 C234 1.369 . S
C235 C236 1.410 1_556 S
C235 C243 1.503 1_556 S
C236 C235 1.410 1_554 S
C236 C237 1.392 . S
C236 C239 1.511 . S
C237 C233 1.376 1_554 S
C237 C236 1.392 . S
C237 H249 0.929 . S
C238 C234 1.531 . S
C238 H250 0.960 . S
C238 H251 0.962 . S
C238 H252 0.960 . S
C239 C236 1.511 . S
C239 H253 0.961 . S
C239 H254 0.961 . S
C239 H255 0.961 . S
C240 C241 1.370 . S
C240 C242 1.363 . S
C240 H256 0.931 . S
C241 C240 1.370 . S
C241 C245 1.408 . S
C242 C240 1.363 . S
C242 C243 1.370 . S
C242 C246 1.524 . S
C243 C235 1.503 1_554 S
C243 C242 1.370 . S
C243 C244 1.403 1_554 S
C244 C243 1.403 1_556 S
C244 C245 1.404 1_556 S
C244 C247 1.539 . S
C245 C241 1.408 . S
C245 C244 1.404 1_554 S
C245 H257 0.930 . S
C246 C242 1.524 . S
C246 H258 0.956 1_554 S
C246 H259 0.961 . S
C246 H260 0.961 . S
C247 C244 1.539 . S
C247 H261 0.958 . S
C247 H262 0.961 1_556 S
C247 H263 0.960 1_556 S
H248 C232 0.931 . S
H249 C237 0.929 . S
H250 C238 0.960 . S
H251 C238 0.962 . S
H252 C238 0.960 . S
H253 C239 0.961 . S
H254 C239 0.961 . S
H255 C239 0.961 . S
H256 C240 0.931 . S
H257 C245 0.930 . S
H258 C246 0.956 1_556 S
H259 C246 0.961 . S
H260 C246 0.961 . S
H261 C247 0.958 . S
H262 C247 0.961 1_554 S
H263 C247 0.960 1_554 S
C264 C265 1.391 . S
C264 C266 1.394 . S
C264 H280 0.931 . S
C265 C264 1.391 . S
C265 C269 1.376 . S
C266 C264 1.394 . S
C266 C267 1.369 . S
C266 C270 1.531 . S
C267 C266 1.369 . S
C267 C268 1.410 . S
C267 C275 1.503 . S
C268 C267 1.410 . S
C268 C269 1.392 . S
C268 C271 1.511 . S
C269 C265 1.376 . S
C269 C268 1.392 . S
C269 H281 0.929 . S
C270 C266 1.531 . S
C270 H282 0.960 . S
C270 H283 0.962 . S
C270 H284 0.960 . S
C271 C268 1.511 . S
C271 H285 0.961 . S
C271 H286 0.961 . S
C271 H287 0.961 . S
C272 C273 1.370 . S
C272 C274 1.363 . S
C272 H288 0.931 . S
C273 C272 1.370 . S
C273 C277 1.408 . S
C274 C272 1.363 . S
C274 C275 1.370 . S
C274 C278 1.524 . S
C275 C267 1.503 . S
C275 C274 1.370 . S
C275 C276 1.403 . S
C276 C275 1.403 . S
C276 C277 1.404 . S
C276 C279 1.539 . S
C277 C273 1.408 . S
C277 C276 1.404 . S
C277 H289 0.930 . S
C278 C274 1.524 . S
C278 H290 0.956 . S
C278 H291 0.961 . S
C278 H292 0.961 . S
C279 C276 1.539 . S
C279 H293 0.958 . S
C279 H294 0.961 . S
C279 H295 0.960 . S
H280 C264 0.931 . S
H281 C269 0.929 . S
H282 C270 0.960 . S
H283 C270 0.962 . S
H284 C270 0.960 . S
H285 C271 0.961 . S
H286 C271 0.961 . S
H287 C271 0.961 . S
H288 C272 0.931 . S
H289 C277 0.930 . S
H290 C278 0.956 . S
H291 C278 0.961 . S
H292 C278 0.961 . S
H293 C279 0.958 . S
H294 C279 0.961 . S
H295 C279 0.960 . S
C296 C297 1.391 . S
C296 C298 1.394 . S
C296 H312 0.931 . S
C297 C296 1.391 . S
C297 C301 1.376 . S
C298 C296 1.394 . S
C298 C299 1.369 . S
C298 C302 1.531 . S
C299 C298 1.369 . S
C299 C300 1.410 . S
C299 C307 1.503 . S
C300 C299 1.410 . S
C300 C301 1.392 . S
C300 C303 1.511 . S
C301 C297 1.376 . S
C301 C300 1.392 . S
C301 H313 0.929 . S
C302 C298 1.531 . S
C302 H314 0.960 . S
C302 H315 0.962 . S
C302 H316 0.960 . S
C303 C300 1.511 . S
C303 H317 0.961 . S
C303 H318 0.961 . S
C303 H319 0.961 . S
C304 C305 1.370 . S
C304 C306 1.363 . S
C304 H320 0.931 . S
C305 C304 1.370 . S
C305 C309 1.408 . S
C306 C304 1.363 . S
C306 C307 1.370 . S
C306 C310 1.524 . S
C307 C299 1.503 . S
C307 C306 1.370 . S
C307 C308 1.403 . S
C308 C307 1.403 . S
C308 C309 1.404 . S
C308 C311 1.539 . S
C309 C305 1.408 . S
C309 C308 1.404 . S
C309 H321 0.930 . S
C310 C306 1.524 . S
C310 H322 0.956 . S
C310 H323 0.961 . S
C310 H324 0.961 . S
C311 C308 1.539 . S
C311 H325 0.958 . S
C311 H326 0.961 . S
C311 H327 0.960 . S
H312 C296 0.931 . S
H313 C301 0.929 . S
H314 C302 0.960 . S
H315 C302 0.962 . S
H316 C302 0.960 . S
H317 C303 0.961 . S
H318 C303 0.961 . S
H319 C303 0.961 . S
H320 C304 0.931 . S
H321 C309 0.930 . S
H322 C310 0.956 . S
H323 C310 0.961 . S
H324 C310 0.961 . S
H325 C311 0.958 . S
H326 C311 0.961 . S
H327 C311 0.960 . S
C328 C329 1.391 . S
C328 C330 1.394 . S
C328 H344 0.931 . S
C329 C328 1.391 . S
C329 C333 1.376 1_554 S
C330 C328 1.394 . S
C330 C331 1.369 . S
C330 C334 1.531 . S
C331 C330 1.369 . S
C331 C332 1.410 1_554 S
C331 C339 1.503 1_554 S
C332 C331 1.410 1_556 S
C332 C333 1.392 . S
C332 C335 1.511 . S
C333 C329 1.376 1_556 S
C333 C332 1.392 . S
C333 H345 0.929 . S
C334 C330 1.531 . S
C334 H346 0.960 . S
C334 H347 0.962 . S
C334 H348 0.960 . S
C335 C332 1.511 . S
C335 H349 0.961 . S
C335 H350 0.961 . S
C335 H351 0.961 . S
C336 C337 1.370 . S
C336 C338 1.363 . S
C336 H352 0.931 . S
C337 C336 1.370 . S
C337 C341 1.408 . S
C338 C336 1.363 . S
C338 C339 1.370 . S
C338 C342 1.524 1_556 S
C339 C331 1.503 1_556 S
C339 C338 1.370 . S
C339 C340 1.403 . S
C340 C339 1.403 . S
C340 C341 1.404 . S
C340 C343 1.539 . S
C341 C337 1.408 . S
C341 C340 1.404 . S
C341 H353 0.930 . S
C342 C338 1.524 1_554 S
C342 H354 0.956 . S
C342 H355 0.961 1_554 S
C342 H356 0.963 . S
C343 C340 1.539 . S
C343 H357 0.958 1_556 S
C343 H358 0.961 . S
C343 H359 0.960 . S
H344 C328 0.931 . S
H345 C333 0.929 . S
H346 C334 0.960 . S
H347 C334 0.962 . S
H348 C334 0.960 . S
H349 C335 0.961 . S
H350 C335 0.961 . S
H351 C335 0.961 . S
H352 C336 0.931 . S
H353 C341 0.930 . S
H354 C342 0.956 . S
H355 C342 0.961 1_556 S
H356 C342 0.963 . S
H357 C343 0.958 1_554 S
H358 C343 0.961 . S
H359 C343 0.960 . S
C360 C361 1.391 . S
C360 C362 1.394 . S
C360 H376 0.931 . S
C361 C360 1.391 . S
C361 C365 1.376 . S
C362 C360 1.394 . S
C362 C363 1.369 . S
C362 C366 1.531 . S
C363 C362 1.369 . S
C363 C364 1.410 . S
C363 C371 1.503 . S
C364 C363 1.410 . S
C364 C365 1.392 . S
C364 C367 1.511 . S
C365 C361 1.376 . S
C365 C364 1.392 . S
C365 H377 0.929 . S
C366 C362 1.531 . S
C366 H378 0.960 . S
C366 H379 0.962 . S
C366 H380 0.960 . S
C367 C364 1.511 . S
C367 H381 0.961 . S
C367 H382 0.961 . S
C367 H383 0.961 . S
C368 C369 1.370 . S
C368 C370 1.363 . S
C368 H384 0.931 . S
C369 C368 1.370 . S
C369 C373 1.408 . S
C370 C368 1.363 . S
C370 C371 1.370 . S
C370 C374 1.524 . S
C371 C363 1.503 . S
C371 C370 1.370 . S
C371 C372 1.403 . S
C372 C371 1.403 . S
C372 C373 1.404 . S
C372 C375 1.539 . S
C373 C369 1.408 . S
C373 C372 1.404 . S
C373 H385 0.930 . S
C374 C370 1.524 . S
C374 H386 0.956 . S
C374 H387 0.961 . S
C374 H388 0.961 . S
C375 C372 1.539 . S
C375 H389 0.958 . S
C375 H390 0.961 . S
C375 H391 0.960 . S
H376 C360 0.931 . S
H377 C365 0.929 . S
H378 C366 0.960 . S
H379 C366 0.962 . S
H380 C366 0.960 . S
H381 C367 0.961 . S
H382 C367 0.961 . S
H383 C367 0.961 . S
H384 C368 0.931 . S
H385 C373 0.930 . S
H386 C374 0.956 . S
H387 C374 0.961 . S
H388 C374 0.961 . S
H389 C375 0.958 . S
H390 C375 0.961 . S
H391 C375 0.960 . S
C392 C393 1.391 . S
C392 C394 1.394 . S
C392 H408 0.931 . S
C393 C392 1.391 . S
C393 C397 1.376 . S
C394 C392 1.394 . S
C394 C395 1.369 . S
C394 C398 1.531 . S
C395 C394 1.369 . S
C395 C396 1.410 . S
C395 C403 1.503 1_655 S
C396 C395 1.410 . S
C396 C397 1.392 . S
C396 C399 1.511 . S
C397 C393 1.376 . S
C397 C396 1.392 . S
C397 H409 0.929 . S
C398 C394 1.531 . S
C398 H410 0.960 1_655 S
C398 H411 0.962 . S
C398 H412 0.960 . S
C399 C396 1.511 . S
C399 H413 0.961 . S
C399 H414 0.961 1_655 S
C399 H415 0.961 . S
C400 C401 1.370 . S
C400 C402 1.363 . S
C400 H416 0.931 . S
C401 C400 1.370 . S
C401 C405 1.408 . S
C402 C400 1.363 . S
C402 C403 1.370 . S
C402 C406 1.524 . S
C403 C395 1.503 1_455 S
C403 C402 1.370 . S
C403 C404 1.403 . S
C404 C403 1.403 . S
C404 C405 1.404 . S
C404 C407 1.539 . S
C405 C401 1.408 . S
C405 C404 1.404 . S
C405 H417 0.930 . S
C406 C402 1.524 . S
C406 H418 0.956 1_455 S
C406 H419 0.961 1_455 S
C406 H420 0.961 . S
C407 C404 1.539 . S
C407 H421 0.958 . S
C407 H422 0.961 . S
C407 H423 0.960 . S
H408 C392 0.931 . S
H409 C397 0.929 . S
H410 C398 0.960 1_455 S
H411 C398 0.962 . S
H412 C398 0.960 . S
H413 C399 0.961 . S
H414 C399 0.961 1_455 S
H415 C399 0.961 . S
H416 C400 0.931 . S
H417 C405 0.930 . S
H418 C406 0.956 1_655 S
H419 C406 0.961 1_655 S
H420 C406 0.961 . S
H421 C407 0.958 . S
H422 C407 0.961 . S
H423 C407 0.960 . S
C424 C425 1.391 1_556 S
C424 C426 1.394 . S
C424 H440 0.931 . S
C425 C424 1.391 1_554 S
C425 C429 1.376 . S
C426 C424 1.394 . S
C426 C427 1.395 . S
C426 C430 1.531 . S
C427 C426 1.395 . S
C427 C428 1.380 1_556 S
C427 C435 1.506 1_545 S
C428 C427 1.380 1_554 S
C428 C429 1.392 . S
C428 C431 1.511 . S
C429 C425 1.376 . S
C429 C428 1.392 . S
C429 H441 0.929 . S
C430 C426 1.531 . S
C430 H442 0.960 . S
C430 H443 0.962 . S
C430 H444 0.960 . S
C431 C428 1.511 . S
C431 H445 0.961 . S
C431 H446 0.961 1_545 S
C431 H447 0.961 . S
C432 C433 1.369 1_554 S
C432 C434 1.363 . S
C432 H448 0.931 . S
C433 C432 1.369 1_556 S
C433 C437 1.408 . S
C434 C432 1.363 . S
C434 C435 1.370 1_554 S
C434 C438 1.524 . S
C435 C427 1.506 1_565 S
C435 C434 1.370 1_556 S
C435 C436 1.403 . S
C436 C435 1.403 . S
C436 C437 1.404 . S
C436 C439 1.539 . S
C437 C433 1.408 . S
C437 C436 1.404 . S
C437 H449 0.930 . S
C438 C434 1.524 . S
C438 H450 0.956 1_554 S
C438 H451 0.961 . S
C438 H452 0.961 . S
C439 C436 1.539 . S
C439 H453 0.958 . S
C439 H454 0.961 . S
C439 H455 0.957 . S
H440 C424 0.931 . S
H441 C429 0.929 . S
H442 C430 0.960 . S
H443 C430 0.962 . S
H444 C430 0.960 . S
H445 C431 0.961 . S
H446 C431 0.961 1_565 S
H447 C431 0.961 . S
H448 C432 0.931 . S
H449 C437 0.930 . S
H450 C438 0.956 1_556 S
H451 C438 0.961 . S
H452 C438 0.961 . S
H453 C439 0.958 . S
H454 C439 0.961 . S
H455 C439 0.957 . S
C456 C457 1.391 . S
C456 C458 1.394 . S
C456 H472 0.931 . S
C457 C456 1.391 . S
C457 C461 1.376 . S
C458 C456 1.394 . S
C458 C459 1.369 . S
C458 C462 1.531 . S
C459 C458 1.369 . S
C459 C460 1.410 . S
C459 C467 1.503 . S
C460 C459 1.410 . S
C460 C461 1.392 . S
C460 C463 1.511 . S
C461 C457 1.376 . S
C461 C460 1.392 . S
C461 H473 0.929 . S
C462 C458 1.531 . S
C462 H474 0.960 . S
C462 H475 0.962 . S
C462 H476 0.960 . S
C463 C460 1.511 . S
C463 H477 0.961 . S
C463 H478 0.961 . S
C463 H479 0.961 . S
C464 C465 1.370 . S
C464 C466 1.363 . S
C464 H480 0.931 . S
C465 C464 1.370 . S
C465 C469 1.408 . S
C466 C464 1.363 . S
C466 C467 1.370 . S
C466 C470 1.524 . S
C467 C459 1.503 . S
C467 C466 1.370 . S
C467 C468 1.403 . S
C468 C467 1.403 . S
C468 C469 1.404 . S
C468 C471 1.539 . S
C469 C465 1.408 . S
C469 C468 1.404 . S
C469 H481 0.930 . S
C470 C466 1.524 . S
C470 H482 0.956 . S
C470 H483 0.961 . S
C470 H484 0.961 . S
C471 C468 1.539 . S
C471 H485 0.958 . S
C471 H486 0.961 . S
C471 H487 0.960 . S
H472 C456 0.931 . S
H473 C461 0.929 . S
H474 C462 0.960 . S
H475 C462 0.962 . S
H476 C462 0.960 . S
H477 C463 0.961 . S
H478 C463 0.961 . S
H479 C463 0.961 . S
H480 C464 0.931 . S
H481 C469 0.930 . S
H482 C470 0.956 . S
H483 C470 0.961 . S
H484 C470 0.961 . S
H485 C471 0.958 . S
H486 C471 0.961 . S
H487 C471 0.960 . S
C488 C489 1.391 . S
C488 C490 1.394 . S
C488 H504 0.931 . S
C489 C488 1.391 . S
C489 C493 1.376 . S
C490 C488 1.394 . S
C490 C491 1.369 . S
C490 C494 1.531 . S
C491 C490 1.369 . S
C491 C492 1.410 . S
C491 C499 1.503 1_455 S
C492 C491 1.410 . S
C492 C493 1.392 . S
C492 C495 1.511 . S
C493 C489 1.376 . S
C493 C492 1.392 . S
C493 H505 0.929 . S
C494 C490 1.531 . S
C494 H506 0.960 1_455 S
C494 H507 0.962 . S
C494 H508 0.960 . S
C495 C492 1.511 . S
C495 H509 0.961 . S
C495 H510 0.961 1_455 S
C495 H511 0.961 . S
C496 C497 1.370 . S
C496 C498 1.363 . S
C496 H512 0.931 . S
C497 C496 1.370 . S
C497 C501 1.408 . S
C498 C496 1.363 . S
C498 C499 1.370 . S
C498 C502 1.524 . S
C499 C491 1.503 1_655 S
C499 C498 1.370 . S
C499 C500 1.403 . S
C500 C499 1.403 . S
C500 C501 1.404 . S
C500 C503 1.539 . S
C501 C497 1.408 . S
C501 C500 1.404 . S
C501 H513 0.930 . S
C502 C498 1.524 . S
C502 H514 0.956 1_655 S
C502 H515 0.961 1_655 S
C502 H516 0.961 . S
C503 C500 1.539 . S
C503 H517 0.958 . S
C503 H518 0.961 . S
C503 H519 0.960 . S
H504 C488 0.931 . S
H505 C493 0.929 . S
H506 C494 0.960 1_655 S
H507 C494 0.962 . S
H508 C494 0.960 . S
H509 C495 0.961 . S
H510 C495 0.961 1_655 S
H511 C495 0.961 . S
H512 C496 0.931 . S
H513 C501 0.930 . S
H514 C502 0.956 1_455 S
H515 C502 0.961 1_455 S
H516 C502 0.961 . S
H517 C503 0.958 . S
H518 C503 0.961 . S
H519 C503 0.960 . S
C520 C521 1.391 1_554 S
C520 C522 1.394 . S
C520 H536 0.931 . S
C521 C520 1.391 1_556 S
C521 C525 1.376 . S
C522 C520 1.394 . S
C522 C523 1.369 . S
C522 C526 1.531 . S
C523 C522 1.369 . S
C523 C524 1.410 1_554 S
C523 C531 1.503 1_545 S
C524 C523 1.410 1_556 S
C524 C525 1.392 . S
C524 C527 1.511 . S
C525 C521 1.376 . S
C525 C524 1.392 . S
C525 H537 0.929 . S
C526 C522 1.531 . S
C526 H538 0.960 . S
C526 H539 0.962 . S
C526 H540 0.960 . S
C527 C524 1.511 . S
C527 H541 0.961 . S
C527 H542 0.961 1_545 S
C527 H543 0.961 . S
C528 C529 1.370 1_556 S
C528 C530 1.363 . S
C528 H544 0.931 . S
C529 C528 1.370 1_554 S
C529 C533 1.408 . S
C530 C528 1.363 . S
C530 C531 1.370 1_556 S
C530 C534 1.524 . S
C531 C523 1.503 1_565 S
C531 C530 1.370 1_554 S
C531 C532 1.403 . S
C532 C531 1.403 . S
C532 C533 1.404 . S
C532 C535 1.539 . S
C533 C529 1.408 . S
C533 C532 1.404 . S
C533 H545 0.930 . S
C534 C530 1.524 . S
C534 H546 0.956 . S
C534 H547 0.961 . S
C534 H548 0.961 . S
C535 C532 1.539 . S
C535 H549 0.958 . S
C535 H550 0.961 . S
C535 H551 0.960 1_565 S
H536 C520 0.931 . S
H537 C525 0.929 . S
H538 C526 0.960 . S
H539 C526 0.962 . S
H540 C526 0.960 . S
H541 C527 0.961 . S
H542 C527 0.961 1_565 S
H543 C527 0.961 . S
H544 C528 0.931 . S
H545 C533 0.930 . S
H546 C534 0.956 . S
H547 C534 0.961 . S
H548 C534 0.961 . S
H549 C535 0.958 . S
H550 C535 0.961 . S
H551 C535 0.960 1_545 S
C552 C553 1.391 . S
C552 C554 1.394 . S
C552 H568 0.931 . S
C553 C552 1.391 . S
C553 C557 1.376 . S
C554 C552 1.394 . S
C554 C555 1.369 . S
C554 C558 1.531 . S
C555 C554 1.369 . S
C555 C556 1.410 1_655 S
C555 C563 1.503 1_655 S
C556 C555 1.410 1_455 S
C556 C557 1.392 1_455 S
C556 C559 1.511 . S
C557 C553 1.376 . S
C557 C556 1.392 1_655 S
C557 H569 0.929 . S
C558 C554 1.531 . S
C558 H570 0.960 . S
C558 H571 0.962 . S
C558 H572 0.960 . S
C559 C556 1.511 . S
C559 H573 0.961 . S
C559 H574 0.961 . S
C559 H575 0.961 . S
C560 C561 1.370 . S
C560 C562 1.363 . S
C560 H576 0.931 . S
C561 C560 1.370 . S
C561 C565 1.408 . S
C562 C560 1.363 . S
C562 C563 1.370 . S
C562 C566 1.524 1_455 S
C563 C555 1.503 1_455 S
C563 C562 1.370 . S
C563 C564 1.403 . S
C564 C563 1.403 . S
C564 C565 1.404 . S
C564 C567 1.539 . S
C565 C561 1.408 . S
C565 C564 1.404 . S
C565 H577 0.930 . S
C566 C562 1.524 1_655 S
C566 H578 0.956 . S
C566 H579 0.961 1_655 S
C566 H580 0.961 1_655 S
C567 C564 1.539 . S
C567 H581 0.958 . S
C567 H582 0.961 . S
C567 H583 0.960 . S
H568 C552 0.931 . S
H569 C557 0.929 . S
H570 C558 0.960 . S
H571 C558 0.962 . S
H572 C558 0.960 . S
H573 C559 0.961 . S
H574 C559 0.961 . S
H575 C559 0.961 . S
H576 C560 0.931 . S
H577 C565 0.930 . S
H578 C566 0.956 . S
H579 C566 0.961 1_455 S
H580 C566 0.961 1_455 S
H581 C567 0.958 . S
H582 C567 0.961 . S
H583 C567 0.960 . S
C584 C585 1.391 . S
C584 C586 1.394 1_545 S
C584 H600 0.931 . S
C585 C584 1.391 . S
C585 C589 1.376 . S
C586 C584 1.394 1_565 S
C586 C587 1.369 1_565 S
C586 C590 1.531 . S
C587 C586 1.369 1_545 S
C587 C588 1.410 . S
C587 C595 1.503 1_545 S
C588 C587 1.410 . S
C588 C589 1.392 . S
C588 C591 1.511 . S
C589 C585 1.376 . S
C589 C588 1.392 . S
C589 H601 0.929 . S
C590 C586 1.531 . S
C590 H602 0.960 . S
C590 H603 0.962 . S
C590 H604 0.960 . S
C591 C588 1.511 . S
C591 H605 0.961 . S
C591 H606 0.961 . S
C591 H607 0.961 . S
C592 C593 1.370 . S
C592 C594 1.363 . S
C592 H608 0.931 . S
C593 C592 1.370 . S
C593 C597 1.408 . S
C594 C592 1.363 . S
C594 C595 1.370 . S
C594 C598 1.524 . S
C595 C587 1.503 1_565 S
C595 C594 1.370 . S
C595 C596 1.403 . S
C596 C595 1.403 . S
C596 C597 1.404 . S
C596 C599 1.539 . S
C597 C593 1.408 . S
C597 C596 1.404 . S
C597 H609 0.930 . S
C598 C594 1.524 . S
C598 H610 0.956 . S
C598 H611 0.961 1_565 S
C598 H612 0.961 . S
C599 C596 1.539 . S
C599 H613 0.958 . S
C599 H614 0.961 . S
C599 H615 0.960 1_565 S
H600 C584 0.931 . S
H601 C589 0.929 . S
H602 C590 0.960 . S
H603 C590 0.962 . S
H604 C590 0.960 . S
H605 C591 0.961 . S
H606 C591 0.961 . S
H607 C591 0.961 . S
H608 C592 0.931 . S
H609 C597 0.930 . S
H610 C598 0.956 . S
H611 C598 0.961 1_545 S
H612 C598 0.961 . S
H613 C599 0.958 . S
H614 C599 0.961 . S
H615 C599 0.960 1_545 S
C616 C617 1.391 . S
C616 C618 1.394 . S
C616 H632 0.931 . S
C617 C616 1.391 . S
C617 C621 1.376 . S
C618 C616 1.394 . S
C618 C619 1.369 . S
C618 C622 1.531 . S
C619 C618 1.369 . S
C619 C620 1.410 . S
C619 C627 1.503 . S
C620 C619 1.410 . S
C620 C621 1.392 . S
C620 C623 1.511 . S
C621 C617 1.376 . S
C621 C620 1.392 . S
C621 H633 0.929 . S
C622 C618 1.531 . S
C622 H634 0.960 . S
C622 H635 0.962 . S
C622 H636 0.960 . S
C623 C620 1.511 . S
C623 H637 0.961 . S
C623 H638 0.961 . S
C623 H639 0.961 . S
C624 C625 1.370 . S
C624 C626 1.363 . S
C624 H640 0.931 . S
C625 C624 1.370 . S
C625 C629 1.408 . S
C626 C624 1.363 . S
C626 C627 1.370 . S
C626 C630 1.524 . S
C627 C619 1.503 . S
C627 C626 1.370 . S
C627 C628 1.403 . S
C628 C627 1.403 . S
C628 C629 1.404 . S
C628 C631 1.539 . S
C629 C625 1.408 . S
C629 C628 1.404 . S
C629 H641 0.930 . S
C630 C626 1.524 . S
C630 H642 0.956 . S
C630 H643 0.961 . S
C630 H644 0.961 . S
C631 C628 1.539 . S
C631 H645 0.958 . S
C631 H646 0.961 . S
C631 H647 0.960 . S
H632 C616 0.931 . S
H633 C621 0.929 . S
H634 C622 0.960 . S
H635 C622 0.962 . S
H636 C622 0.960 . S
H637 C623 0.961 . S
H638 C623 0.961 . S
H639 C623 0.961 . S
H640 C624 0.931 . S
H641 C629 0.930 . S
H642 C630 0.956 . S
H643 C630 0.961 . S
H644 C630 0.961 . S
H645 C631 0.958 . S
H646 C631 0.961 . S
H647 C631 0.960 . S
C648 C649 1.391 . S
C648 C650 1.394 . S
C648 H664 0.931 . S
C649 C648 1.391 . S
C649 C653 1.376 . S
C650 C648 1.394 . S
C650 C651 1.369 . S
C650 C654 1.531 1_455 S
C651 C650 1.369 . S
C651 C652 1.410 . S
C651 C659 1.503 1_455 S
C652 C651 1.410 . S
C652 C653 1.392 . S
C652 C655 1.511 . S
C653 C649 1.376 . S
C653 C652 1.392 . S
C653 H665 0.929 . S
C654 C650 1.531 1_655 S
C654 H666 0.960 . S
C654 H667 0.962 . S
C654 H668 0.960 . S
C655 C652 1.511 . S
C655 H669 0.961 . S
C655 H670 0.961 . S
C655 H671 0.961 . S
C656 C657 1.370 . S
C656 C658 1.363 . S
C656 H672 0.931 . S
C657 C656 1.370 . S
C657 C661 1.408 . S
C658 C656 1.363 . S
C658 C659 1.370 . S
C658 C662 1.524 . S
C659 C651 1.503 1_655 S
C659 C658 1.370 . S
C659 C660 1.403 . S
C660 C659 1.403 . S
C660 C661 1.404 . S
C660 C663 1.539 1_655 S
C661 C657 1.408 . S
C661 C660 1.404 . S
C661 H673 0.930 . S
C662 C658 1.524 . S
C662 H674 0.956 . S
C662 H675 0.961 . S
C662 H676 0.961 . S
C663 C660 1.539 1_455 S
C663 H677 0.958 . S
C663 H678 0.961 . S
C663 H679 0.960 . S
H664 C648 0.931 . S
H665 C653 0.929 . S
H666 C654 0.960 . S
H667 C654 0.962 . S
H668 C654 0.960 . S
H669 C655 0.961 . S
H670 C655 0.961 . S
H671 C655 0.961 . S
H672 C656 0.931 . S
H673 C661 0.930 . S
H674 C662 0.956 . S
H675 C662 0.961 . S
H676 C662 0.961 . S
H677 C663 0.958 . S
H678 C663 0.961 . S
H679 C663 0.960 . S
C680 C681 1.391 . S
C680 C682 1.394 . S
C680 H696 0.931 . S
C681 C680 1.391 . S
C681 C685 1.376 . S
C682 C680 1.394 . S
C682 C683 1.369 . S
C682 C686 1.531 1_545 S
C683 C682 1.369 . S
C683 C684 1.410 . S
C683 C691 1.503 1_545 S
C684 C683 1.410 . S
C684 C685 1.392 . S
C684 C687 1.511 . S
C685 C681 1.376 . S
C685 C684 1.392 . S
C685 H697 0.929 . S
C686 C682 1.531 1_565 S
C686 H698 0.960 . S
C686 H699 0.962 . S
C686 H700 0.960 . S
C687 C684 1.511 . S
C687 H701 0.961 . S
C687 H702 0.961 . S
C687 H703 0.961 . S
C688 C689 1.370 . S
C688 C690 1.363 . S
C688 H704 0.931 . S
C689 C688 1.370 . S
C689 C693 1.408 . S
C690 C688 1.363 . S
C690 C691 1.370 . S
C690 C694 1.524 1_565 S
C691 C683 1.503 1_565 S
C691 C690 1.370 . S
C691 C692 1.403 . S
C692 C691 1.403 . S
C692 C693 1.404 . S
C692 C695 1.539 . S
C693 C689 1.408 . S
C693 C692 1.404 . S
C693 H705 0.930 . S
C694 C690 1.524 1_545 S
C694 H706 0.956 . S
C694 H707 0.961 . S
C694 H708 0.961 . S
C695 C692 1.539 . S
C695 H709 0.958 . S
C695 H710 0.961 . S
C695 H711 0.960 . S
H696 C680 0.931 . S
H697 C685 0.929 . S
H698 C686 0.960 . S
H699 C686 0.962 . S
H700 C686 0.960 . S
H701 C687 0.961 . S
H702 C687 0.961 . S
H703 C687 0.961 . S
H704 C688 0.931 . S
H705 C693 0.930 . S
H706 C694 0.956 . S
H707 C694 0.961 . S
H708 C694 0.961 . S
H709 C695 0.958 . S
H710 C695 0.961 . S
H711 C695 0.960 . S
C712 C713 1.391 . S
C712 C714 1.394 . S
C712 H728 0.931 . S
C713 C712 1.391 . S
C713 C717 1.376 . S
C714 C712 1.394 . S
C714 C715 1.369 . S
C714 C718 1.531 . S
C715 C714 1.369 . S
C715 C716 1.410 . S
C715 C723 1.503 . S
C716 C715 1.410 . S
C716 C717 1.392 . S
C716 C719 1.511 . S
C717 C713 1.376 . S
C717 C716 1.392 . S
C717 H729 0.929 . S
C718 C714 1.531 . S
C718 H730 0.960 . S
C718 H731 0.962 . S
C718 H732 0.960 . S
C719 C716 1.511 . S
C719 H733 0.961 . S
C719 H734 0.961 . S
C719 H735 0.961 . S
C720 C721 1.370 . S
C720 C722 1.363 . S
C720 H736 0.931 . S
C721 C720 1.370 . S
C721 C725 1.408 . S
C722 C720 1.363 . S
C722 C723 1.370 . S
C722 C726 1.524 . S
C723 C715 1.503 . S
C723 C722 1.370 . S
C723 C724 1.403 . S
C724 C723 1.403 . S
C724 C725 1.404 . S
C724 C727 1.539 . S
C725 C721 1.408 . S
C725 C724 1.404 . S
C725 H737 0.930 . S
C726 C722 1.524 . S
C726 H738 0.956 . S
C726 H739 0.961 . S
C726 H740 0.961 . S
C727 C724 1.539 . S
C727 H741 0.958 . S
C727 H742 0.961 . S
C727 H743 0.960 . S
H728 C712 0.931 . S
H729 C717 0.929 . S
H730 C718 0.960 . S
H731 C718 0.962 . S
H732 C718 0.960 . S
H733 C719 0.961 . S
H734 C719 0.961 . S
H735 C719 0.961 . S
H736 C720 0.931 . S
H737 C725 0.930 . S
H738 C726 0.956 . S
H739 C726 0.961 . S
H740 C726 0.961 . S
H741 C727 0.958 . S
H742 C727 0.961 . S
H743 C727 0.960 . S
C744 C745 1.391 . S
C744 C746 1.394 . S
C744 H760 0.931 . S
C745 C744 1.391 . S
C745 C749 1.376 . S
C746 C744 1.394 . S
C746 C747 1.369 . S
C746 C750 1.531 . S
C747 C746 1.369 . S
C747 C748 1.410 . S
C747 C755 1.503 . S
C748 C747 1.410 . S
C748 C749 1.392 . S
C748 C751 1.511 . S
C749 C745 1.376 . S
C749 C748 1.392 . S
C749 H761 0.929 . S
C750 C746 1.531 . S
C750 H762 0.960 . S
C750 H763 0.962 . S
C750 H764 0.960 . S
C751 C748 1.511 . S
C751 H765 0.961 . S
C751 H766 0.961 . S
C751 H767 0.961 . S
C752 C753 1.370 . S
C752 C754 1.363 . S
C752 H768 0.931 . S
C753 C752 1.370 . S
C753 C757 1.408 . S
C754 C752 1.363 . S
C754 C755 1.370 . S
C754 C758 1.524 . S
C755 C747 1.503 . S
C755 C754 1.370 . S
C755 C756 1.403 . S
C756 C755 1.403 . S
C756 C757 1.404 . S
C756 C759 1.539 . S
C757 C753 1.408 . S
C757 C756 1.404 . S
C757 H769 0.930 . S
C758 C754 1.524 . S
C758 H770 0.956 . S
C758 H771 0.961 . S
C758 H772 0.961 . S
C759 C756 1.539 . S
C759 H773 0.958 . S
C759 H774 0.961 . S
C759 H775 0.960 . S
H760 C744 0.931 . S
H761 C749 0.929 . S
H762 C750 0.960 . S
H763 C750 0.962 . S
H764 C750 0.960 . S
H765 C751 0.961 . S
H766 C751 0.961 . S
H767 C751 0.961 . S
H768 C752 0.931 . S
H769 C757 0.930 . S
H770 C758 0.956 . S
H771 C758 0.961 . S
H772 C758 0.961 . S
H773 C759 0.958 . S
H774 C759 0.961 . S
H775 C759 0.960 . S
C776 C777 1.391 . S
C776 C778 1.394 . S
C776 H792 0.931 . S
C777 C776 1.391 . S
C777 C781 1.376 . S
C778 C776 1.394 . S
C778 C779 1.369 . S
C778 C782 1.531 . S
C779 C778 1.369 . S
C779 C780 1.410 . S
C779 C787 1.503 . S
C780 C779 1.410 . S
C780 C781 1.392 . S
C780 C783 1.511 . S
C781 C777 1.376 . S
C781 C780 1.392 . S
C781 H793 0.929 . S
C782 C778 1.531 . S
C782 H794 0.960 . S
C782 H795 0.962 . S
C782 H796 0.960 . S
C783 C780 1.511 . S
C783 H797 0.961 . S
C783 H798 0.961 . S
C783 H799 0.961 . S
C784 C785 1.370 . S
C784 C786 1.363 . S
C784 H800 0.931 . S
C785 C784 1.370 . S
C785 C789 1.408 . S
C786 C784 1.363 . S
C786 C787 1.370 . S
C786 C790 1.524 . S
C787 C779 1.503 . S
C787 C786 1.370 . S
C787 C788 1.403 . S
C788 C787 1.403 . S
C788 C789 1.404 . S
C788 C791 1.539 . S
C789 C785 1.408 . S
C789 C788 1.404 . S
C789 H801 0.930 . S
C790 C786 1.524 . S
C790 H802 0.956 . S
C790 H803 0.961 . S
C790 H804 0.961 . S
C791 C788 1.539 . S
C791 H805 0.958 . S
C791 H806 0.961 . S
C791 H807 0.960 . S
H792 C776 0.931 . S
H793 C781 0.929 . S
H794 C782 0.960 . S
H795 C782 0.962 . S
H796 C782 0.960 . S
H797 C783 0.961 . S
H798 C783 0.961 . S
H799 C783 0.961 . S
H800 C784 0.931 . S
H801 C789 0.930 . S
H802 C790 0.956 . S
H803 C790 0.961 . S
H804 C790 0.961 . S
H805 C791 0.958 . S
H806 C791 0.961 . S
H807 C791 0.960 . S
C808 C809 1.391 . S
C808 C810 1.394 . S
C808 H824 0.931 . S
C809 C808 1.391 . S
C809 C813 1.376 . S
C810 C808 1.394 . S
C810 C811 1.369 . S
C810 C814 1.531 . S
C811 C810 1.369 . S
C811 C812 1.410 . S
C811 C819 1.503 . S
C812 C811 1.410 . S
C812 C813 1.392 . S
C812 C815 1.511 . S
C813 C809 1.376 . S
C813 C812 1.392 . S
C813 H825 0.929 . S
C814 C810 1.531 . S
C814 H826 0.960 . S
C814 H827 0.962 . S
C814 H828 0.960 . S
C815 C812 1.511 . S
C815 H829 0.961 . S
C815 H830 0.961 . S
C815 H831 0.961 . S
C816 C817 1.370 . S
C816 C818 1.363 . S
C816 H832 0.931 . S
C817 C816 1.370 . S
C817 C821 1.408 . S
C818 C816 1.363 . S
C818 C819 1.370 . S
C818 C822 1.524 . S
C819 C811 1.503 . S
C819 C818 1.370 . S
C819 C820 1.403 . S
C820 C819 1.403 . S
C820 C821 1.404 . S
C820 C823 1.539 . S
C821 C817 1.408 . S
C821 C820 1.404 . S
C821 H833 0.930 . S
C822 C818 1.524 . S
C822 H834 0.956 . S
C822 H835 0.961 . S
C822 H836 0.961 . S
C823 C820 1.539 . S
C823 H837 0.958 . S
C823 H838 0.961 . S
C823 H839 0.960 . S
H824 C808 0.931 . S
H825 C813 0.929 . S
H826 C814 0.960 . S
H827 C814 0.962 . S
H828 C814 0.960 . S
H829 C815 0.961 . S
H830 C815 0.961 . S
H831 C815 0.961 . S
H832 C816 0.931 . S
H833 C821 0.930 . S
H834 C822 0.956 . S
H835 C822 0.961 . S
H836 C822 0.961 . S
H837 C823 0.958 . S
H838 C823 0.961 . S
H839 C823 0.960 . S
C840 C841 1.391 . S
C840 C842 1.394 . S
C840 H856 0.931 . S
C841 C840 1.391 . S
C841 C845 1.376 . S
C842 C840 1.394 . S
C842 C843 1.369 . S
C842 C846 1.531 . S
C843 C842 1.369 . S
C843 C844 1.410 . S
C843 C851 1.503 . S
C844 C843 1.410 . S
C844 C845 1.392 . S
C844 C847 1.511 . S
C845 C841 1.376 . S
C845 C844 1.392 . S
C845 H857 0.929 . S
C846 C842 1.531 . S
C846 H858 0.960 . S
C846 H859 0.962 . S
C846 H860 0.960 . S
C847 C844 1.511 . S
C847 H861 0.961 . S
C847 H862 0.961 . S
C847 H863 0.961 . S
C848 C849 1.370 . S
C848 C850 1.363 . S
C848 H864 0.931 . S
C849 C848 1.370 . S
C849 C853 1.408 . S
C850 C848 1.363 . S
C850 C851 1.370 . S
C850 C854 1.524 . S
C851 C843 1.503 . S
C851 C850 1.370 . S
C851 C852 1.403 . S
C852 C851 1.403 . S
C852 C853 1.404 . S
C852 C855 1.539 . S
C853 C849 1.408 . S
C853 C852 1.404 . S
C853 H865 0.930 . S
C854 C850 1.524 . S
C854 H866 0.956 . S
C854 H867 0.961 . S
C854 H868 0.961 . S
C855 C852 1.539 . S
C855 H869 0.958 . S
C855 H870 0.961 . S
C855 H871 0.960 . S
H856 C840 0.931 . S
H857 C845 0.929 . S
H858 C846 0.960 . S
H859 C846 0.962 . S
H860 C846 0.960 . S
H861 C847 0.961 . S
H862 C847 0.961 . S
H863 C847 0.961 . S
H864 C848 0.931 . S
H865 C853 0.930 . S
H866 C854 0.956 . S
H867 C854 0.961 . S
H868 C854 0.961 . S
H869 C855 0.958 . S
H870 C855 0.961 . S
H871 C855 0.960 . S
C872 C873 1.391 . S
C872 C874 1.394 . S
C872 H888 0.931 . S
C873 C872 1.391 . S
C873 C877 1.376 . S
C874 C872 1.394 . S
C874 C875 1.369 . S
C874 C878 1.531 . S
C875 C874 1.369 . S
C875 C876 1.410 . S
C875 C883 1.503 . S
C876 C875 1.410 . S
C876 C877 1.392 . S
C876 C879 1.511 . S
C877 C873 1.376 . S
C877 C876 1.392 . S
C877 H889 0.929 . S
C878 C874 1.531 . S
C878 H890 0.960 . S
C878 H891 0.962 . S
C878 H892 0.960 . S
C879 C876 1.511 . S
C879 H893 0.961 . S
C879 H894 0.961 . S
C879 H895 0.961 . S
C880 C881 1.370 . S
C880 C882 1.363 . S
C880 H896 0.931 . S
C881 C880 1.370 . S
C881 C885 1.408 . S
C882 C880 1.363 . S
C882 C883 1.370 . S
C882 C886 1.524 . S
C883 C875 1.503 . S
C883 C882 1.370 . S
C883 C884 1.403 . S
C884 C883 1.403 . S
C884 C885 1.404 . S
C884 C887 1.539 . S
C885 C881 1.408 . S
C885 C884 1.404 . S
C885 H897 0.930 . S
C886 C882 1.524 . S
C886 H898 0.956 . S
C886 H899 0.961 . S
C886 H900 0.961 . S
C887 C884 1.539 . S
C887 H901 0.958 . S
C887 H902 0.961 . S
C887 H903 0.960 . S
H888 C872 0.931 . S
H889 C877 0.929 . S
H890 C878 0.960 . S
H891 C878 0.962 . S
H892 C878 0.960 . S
H893 C879 0.961 . S
H894 C879 0.961 . S
H895 C879 0.961 . S
H896 C880 0.931 . S
H897 C885 0.930 . S
H898 C886 0.956 . S
H899 C886 0.961 . S
H900 C886 0.961 . S
H901 C887 0.958 . S
H902 C887 0.961 . S
H903 C887 0.960 . S
C904 C905 1.391 . S
C904 C906 1.394 . S
C904 H920 0.931 . S
C905 C904 1.391 . S
C905 C909 1.376 . S
C906 C904 1.394 . S
C906 C907 1.369 . S
C906 C910 1.531 . S
C907 C906 1.369 . S
C907 C908 1.410 . S
C907 C915 1.503 . S
C908 C907 1.410 . S
C908 C909 1.392 . S
C908 C911 1.511 . S
C909 C905 1.376 . S
C909 C908 1.392 . S
C909 H921 0.929 . S
C910 C906 1.531 . S
C910 H922 0.960 . S
C910 H923 0.962 . S
C910 H924 0.960 . S
C911 C908 1.511 . S
C911 H925 0.961 . S
C911 H926 0.961 . S
C911 H927 0.961 . S
C912 C913 1.370 . S
C912 C914 1.363 . S
C912 H928 0.931 . S
C913 C912 1.370 . S
C913 C917 1.408 . S
C914 C912 1.363 . S
C914 C915 1.370 . S
C914 C918 1.524 . S
C915 C907 1.503 . S
C915 C914 1.370 . S
C915 C916 1.403 . S
C916 C915 1.403 . S
C916 C917 1.404 . S
C916 C919 1.539 . S
C917 C913 1.408 . S
C917 C916 1.404 . S
C917 H929 0.930 . S
C918 C914 1.524 . S
C918 H930 0.956 . S
C918 H931 0.961 . S
C918 H932 0.961 . S
C919 C916 1.539 . S
C919 H933 0.958 . S
C919 H934 0.961 . S
C919 H935 0.960 . S
H920 C904 0.931 . S
H921 C909 0.929 . S
H922 C910 0.960 . S
H923 C910 0.962 . S
H924 C910 0.960 . S
H925 C911 0.961 . S
H926 C911 0.961 . S
H927 C911 0.961 . S
H928 C912 0.931 . S
H929 C917 0.930 . S
H930 C918 0.956 . S
H931 C918 0.961 . S
H932 C918 0.961 . S
H933 C919 0.958 . S
H934 C919 0.961 . S
H935 C919 0.960 . S
C169 C11 1.276 . S
C177 C95 1.325 . S
C201 C25 1.319 . S
C209 C109 1.339 . S
C233 C39 1.348 . S
C241 C123 1.333 . S
C265 C137 1.300 . S
C273 C53 1.338 . S
C297 C67 1.317 . S
C305 C151 1.339 . S
C329 C165 1.341 . S
C337 C81 1.336 . S
C361 C4 0.715 . S
C369 C130 0.771 . S
C393 C18 0.800 . S
C401 C144 0.712 . S
C425 C158 0.771 1_554 S
C433 C32 0.760 1_556 S
C457 C88 0.737 . S
C465 C46 0.708 . S
C489 C60 0.791 . S
C497 C102 0.709 . S
C521 C74 0.745 1_556 S
C529 C116 0.763 1_554 S
C553 C159 1.667 . S
C561 C5 1.650 . S
C585 C19 1.582 . S
C593 C89 1.612 . S
C617 C33 1.582 . S
C625 C103 1.612 . S
C649 C117 1.599 . S
C657 C47 1.614 . S
C681 C131 1.599 . S
C689 C61 1.626 . S
C713 C75 1.582 . S
C721 C145 1.613 . S
C745 C12 0.656 . S
C753 C152 0.566 . S
C777 C166 0.638 . S
C785 C26 0.572 . S
C809 C96 0.577 . S
C817 C40 0.596 . S
C841 C54 0.651 . S
C849 C110 0.568 . S
C873 C124 0.694 . S
C881 C68 0.560 . S
C905 C138 0.695 . S
C913 C82 0.570 . S
