# Generated by pormake.
# Topology yfb, (5)-cn, num edge types: 1
# Building blocks:
#     Node 0, Type 0, BuildingBlock: XOMCOT_clean_sbu_1, # of connection points: 5
#     Node 1, Type 0, BuildingBlock: XOMCOT_clean_sbu_1, # of connection points: 5
#     Node 2, Type 0, BuildingBlock: XOMCOT_clean_sbu_1, # of connection points: 5
#     Node 3, Type 0, BuildingBlock: XOMCOT_clean_sbu_1, # of connection points: 5
#     Node 4, Type 0, BuildingBlock: XOMCOT_clean_sbu_1, # of connection points: 5
#     Node 5, Type 0, BuildingBlock: XOMCOT_clean_sbu_1, # of connection points: 5
#     Node 6, Type 0, BuildingBlock: XOMCOT_clean_sbu_1, # of connection points: 5
#     Node 7, Type 0, BuildingBlock: XOMCOT_clean_sbu_1, # of connection points: 5
#     Node 8, Type 0, BuildingBlock: XOMCOT_clean_sbu_1, # of connection points: 5
#     Node 9, Type 0, BuildingBlock: XOMCOT_clean_sbu_1, # of connection points: 5
#     Node 10, Type 0, BuildingBlock: XOMCOT_clean_sbu_1, # of connection points: 5
#     Node 11, Type 0, BuildingBlock: XOMCOT_clean_sbu_1, # of connection points: 5
#     Node 12, Type 0, BuildingBlock: XOMCOT_clean_sbu_1, # of connection points: 5
#     Node 13, Type 0, BuildingBlock: XOMCOT_clean_sbu_1, # of connection points: 5
#     Node 14, Type 0, BuildingBlock: XOMCOT_clean_sbu_1, # of connection points: 5
#     Node 15, Type 0, BuildingBlock: XOMCOT_clean_sbu_1, # of connection points: 5
#     Edge 16, Type (0, 0), BuildingBlock: OJICUG_clean_linker_0, # of connection points: 2
#     Edge 17, Type (0, 0), BuildingBlock: OJICUG_clean_linker_0, # of connection points: 2
#     Edge 18, Type (0, 0), BuildingBlock: OJICUG_clean_linker_0, # of connection points: 2
#     Edge 19, Type (0, 0), BuildingBlock: OJICUG_clean_linker_0, # of connection points: 2
#     Edge 20, Type (0, 0), BuildingBlock: OJICUG_clean_linker_0, # of connection points: 2
#     Edge 21, Type (0, 0), BuildingBlock: OJICUG_clean_linker_0, # of connection points: 2
#     Edge 22, Type (0, 0), BuildingBlock: OJICUG_clean_linker_0, # of connection points: 2
#     Edge 23, Type (0, 0), BuildingBlock: OJICUG_clean_linker_0, # of connection points: 2
#     Edge 24, Type (0, 0), BuildingBlock: OJICUG_clean_linker_0, # of connection points: 2
#     Edge 25, Type (0, 0), BuildingBlock: OJICUG_clean_linker_0, # of connection points: 2
#     Edge 26, Type (0, 0), BuildingBlock: OJICUG_clean_linker_0, # of connection points: 2
#     Edge 27, Type (0, 0), BuildingBlock: OJICUG_clean_linker_0, # of connection points: 2
#     Edge 28, Type (0, 0), BuildingBlock: OJICUG_clean_linker_0, # of connection points: 2
#     Edge 29, Type (0, 0), BuildingBlock: OJICUG_clean_linker_0, # of connection points: 2
#     Edge 30, Type (0, 0), BuildingBlock: OJICUG_clean_linker_0, # of connection points: 2
#     Edge 31, Type (0, 0), BuildingBlock: OJICUG_clean_linker_0, # of connection points: 2
#     Edge 32, Type (0, 0), BuildingBlock: OJICUG_clean_linker_0, # of connection points: 2
#     Edge 33, Type (0, 0), BuildingBlock: OJICUG_clean_linker_0, # of connection points: 2
#     Edge 34, Type (0, 0), BuildingBlock: OJICUG_clean_linker_0, # of connection points: 2
#     Edge 35, Type (0, 0), BuildingBlock: OJICUG_clean_linker_0, # of connection points: 2
#     Edge 36, Type (0, 0), BuildingBlock: OJICUG_clean_linker_0, # of connection points: 2
#     Edge 37, Type (0, 0), BuildingBlock: OJICUG_clean_linker_0, # of connection points: 2
#     Edge 38, Type (0, 0), BuildingBlock: OJICUG_clean_linker_0, # of connection points: 2
#     Edge 39, Type (0, 0), BuildingBlock: OJICUG_clean_linker_0, # of connection points: 2
#     Edge 40, Type (0, 0), BuildingBlock: OJICUG_clean_linker_0, # of connection points: 2
#     Edge 41, Type (0, 0), BuildingBlock: OJICUG_clean_linker_0, # of connection points: 2
#     Edge 42, Type (0, 0), BuildingBlock: OJICUG_clean_linker_0, # of connection points: 2
#     Edge 43, Type (0, 0), BuildingBlock: OJICUG_clean_linker_0, # of connection points: 2
#     Edge 44, Type (0, 0), BuildingBlock: OJICUG_clean_linker_0, # of connection points: 2
#     Edge 45, Type (0, 0), BuildingBlock: OJICUG_clean_linker_0, # of connection points: 2
#     Edge 46, Type (0, 0), BuildingBlock: OJICUG_clean_linker_0, # of connection points: 2
#     Edge 47, Type (0, 0), BuildingBlock: OJICUG_clean_linker_0, # of connection points: 2
#     Edge 48, Type (0, 0), BuildingBlock: OJICUG_clean_linker_0, # of connection points: 2
#     Edge 49, Type (0, 0), BuildingBlock: OJICUG_clean_linker_0, # of connection points: 2
#     Edge 50, Type (0, 0), BuildingBlock: OJICUG_clean_linker_0, # of connection points: 2
#     Edge 51, Type (0, 0), BuildingBlock: OJICUG_clean_linker_0, # of connection points: 2
#     Edge 52, Type (0, 0), BuildingBlock: OJICUG_clean_linker_0, # of connection points: 2
#     Edge 53, Type (0, 0), BuildingBlock: OJICUG_clean_linker_0, # of connection points: 2
#     Edge 54, Type (0, 0), BuildingBlock: OJICUG_clean_linker_0, # of connection points: 2
#     Edge 55, Type (0, 0), BuildingBlock: OJICUG_clean_linker_0, # of connection points: 2
# Relax obj value: 0.755
# Max RMSD: 0.276
# Mean RMSD: 0.276
data_MOF--net-yfb--node1-XOMCOT_clean_sbu_1--edge1-OJICUG_clean_linker_0
_symmetry_space_group_name_H-M    P1
_symmetry_Int_Tables_number       1
_symmetry_cell_setting            triclinic
loop_
_symmetry_equiv_pos_as_xyz
'x, y, z'
_cell_length_a     32.904324
_cell_length_b     33.04406
_cell_length_c     30.484892
_cell_angle_alpha  89.982203
_cell_angle_beta   89.839066
_cell_angle_gamma 89.956165
loop_
_atom_site_label
_atom_site_type_symbol
_atom_site_fract_x
_atom_site_fract_y
_atom_site_fract_z
_atom_type_partial_charge
C0 C 0.63168 0.98156 0.12131 0.0
C1 C 0.59697 0.96621 0.10208 0.0
N2 N 0.56937 0.99612 0.09881 0.0
N3 N 0.62682 0.02156 0.12979 0.0
C4 C 0.58757 0.02833 0.11769 0.0
H5 H 0.66026 0.96551 0.12269 0.0
Co6 Co 0.66763 0.06425 0.12926 0.0
C7 C 0.61649 0.11899 0.11192 0.0
O8 O 0.63391 0.10676 0.07538 0.0
N9 N 0.70586 0.10701 0.12591 0.0
C10 C 0.75082 0.15055 0.09848 0.0
C11 C 0.73105 0.1146 0.09179 0.0
C12 C 0.70989 0.13981 0.15223 0.0
N13 N 0.73737 0.16651 0.13634 0.0
O14 O 0.68708 0.05407 0.1911 0.0
H15 H 0.73312 0.09662 0.06233 0.0
H16 H 0.6913 0.14521 0.18099 0.0
O17 O 0.62738 0.10259 0.14805 0.0
C18 C 0.69701 0.02203 0.21243 0.0
O19 O 0.69021 0.98661 0.19454 0.0
N20 N 0.70613 0.02912 0.10444 0.0
C21 C 0.76708 0.01634 0.04277 0.0
C22 C 0.72618 0.01271 1.03086 0.0
C23 C 0.69616 0.02025 0.06207 0.0
C24 C 0.74536 0.02567 0.11831 0.0
C25 C 0.77646 0.0192 0.08778 0.0
H26 H 0.66527 0.02448 0.05096 0.0
H27 H 0.75373 0.03466 0.15109 0.0
H28 H 0.57328 0.05737 0.11858 0.0
H29 H 0.59384 0.93628 0.08809 0.0
H30 H 0.7708 0.16561 0.07538 0.0
H31 H 0.71746 0.00956 0.99681 0.0
H32 H 0.80752 0.02245 0.09884 0.0
C33 C 0.501 0.60776 0.15974 0.0
C34 C 0.51515 0.57211 0.14105 0.0
N35 N 0.49884 0.56802 0.10063 0.0
N36 N 0.47646 0.62673 0.13096 0.0
C37 C 0.47569 0.60149 0.0959 0.0
H38 H 0.5058 0.61712 0.19328 0.0
Co39 Co 0.43622 0.66762 0.13428 0.0
C40 C 0.38098 0.61447 0.12092 0.0
O41 O 0.38692 0.63337 0.08353 0.0
N42 N 0.39385 0.70573 0.13488 0.0
C43 C 0.34781 0.75005 0.11182 0.0
C44 C 0.38383 0.73117 0.10195 0.0
C45 C 0.36266 0.70871 0.1637 0.0
N46 N 0.33444 0.73575 0.15054 0.0
O47 O 0.44961 0.68528 0.19568 0.0
H48 H 0.40016 0.73381 0.07127 0.0
H49 H 0.35914 0.68924 0.19202 0.0
O50 O 0.39946 0.62694 0.155 0.0
C51 C 0.48214 0.69876 0.21366 0.0
O52 O 0.51655 0.69638 0.19181 0.0
N53 N 0.47151 0.7068 0.10883 0.0
C54 C 0.48368 0.76898 0.04871 0.0
C55 C 0.49058 0.72883 1.03654 0.0
C56 C 0.48389 0.69815 0.06703 0.0
C57 C 0.47228 0.74598 0.12323 0.0
C58 C 0.47833 0.77765 0.09355 0.0
H59 H 0.48308 0.66786 0.05461 0.0
H60 H 0.46106 0.75368 0.15547 0.0
H61 H 0.45649 0.60692 0.06794 0.0
H62 H 0.53398 0.54991 0.15735 0.0
H63 H 0.33069 0.76966 0.09018 0.0
H64 H 0.49582 0.72083 1.00253 0.0
H65 H 0.47267 0.80823 0.10476 0.0
C66 C 0.87242 0.51673 0.12138 0.0
C67 C 0.90742 0.53197 0.10246 0.0
N68 N 0.93437 0.50162 0.09784 0.0
N69 N 0.87647 0.47642 0.12851 0.0
C70 C 0.91548 0.46917 0.11556 0.0
H71 H 0.84416 0.53328 0.12314 0.0
Co72 Co 0.83488 0.43443 0.12771 0.0
C73 C 0.88535 0.37825 0.11072 0.0
O74 O 0.86882 0.39081 0.07394 0.0
N75 N 0.79603 0.39238 0.12401 0.0
C76 C 0.75116 0.34929 0.09593 0.0
C77 C 0.7718 0.38479 0.08926 0.0
C78 C 0.79057 0.36004 0.15074 0.0
N79 N 0.76313 0.33358 0.13445 0.0
O80 O 0.81468 0.44492 0.18969 0.0
H81 H 0.77101 0.40248 0.05951 0.0
H82 H 0.80813 0.35477 0.18017 0.0
O83 O 0.87441 0.39516 0.14665 0.0
C84 C 0.80376 0.47727 0.20998 0.0
O85 O 0.81017 0.51232 0.19104 0.0
N86 N 0.79721 0.47034 0.10257 0.0
C87 C 0.73817 0.48316 1.03923 0.0
C88 C 0.77935 0.48748 1.02866 0.0
C89 C 0.80842 0.47977 0.06065 0.0
C90 C 0.75752 0.4736 0.11529 0.0
C91 C 0.72731 0.48012 0.08385 0.0
H92 H 0.8396 0.47559 0.05028 0.0
H93 H 0.74817 0.46421 0.1477 0.0
H94 H 0.929 0.43978 0.11485 0.0
H95 H 0.91114 0.56225 0.08954 0.0
H96 H 0.7316 0.33432 0.07248 0.0
H97 H 0.78907 0.49059 0.99484 0.0
H98 H 0.69588 0.47642 0.09369 0.0
C99 C 0.99335 0.87913 0.1382 0.0
C100 C 0.98001 0.91374 0.11684 0.0
N101 N 0.01124 0.92923 0.09371 0.0
N102 N 0.03288 0.87252 0.12827 0.0
C103 C 0.04255 0.90382 0.10126 0.0
H104 H 0.97437 0.85931 0.15732 0.0
Co105 Co 0.07059 0.82901 0.13304 0.0
C106 C 0.13593 0.87494 0.12927 0.0
O107 O 0.13477 0.85649 0.09112 0.0
N108 N 0.1101 0.78764 0.13442 0.0
C109 C 0.15371 0.74124 0.11042 0.0
C110 C 0.11949 0.76296 0.10056 0.0
C111 C 0.14001 0.78117 0.16401 0.0
N112 N 0.16696 0.75299 0.15012 0.0
O113 O 0.05329 0.81046 0.19348 0.0
H114 H 0.10435 0.76297 0.06915 0.0
H115 H 0.14389 0.79915 0.19338 0.0
O116 O 0.10896 0.86642 0.15791 0.0
C117 C 0.02129 0.79489 0.2109 0.0
O118 O 0.98754 0.79381 0.18808 0.0
N119 N 0.03447 0.79379 0.10384 0.0
C120 C 0.0206 0.73658 1.03872 0.0
C121 C 0.0186 0.77792 1.02898 0.0
C122 C 0.02614 0.80607 0.06202 0.0
C123 C 0.02942 0.75414 0.1153 0.0
C124 C 0.02216 0.72501 0.08315 0.0
H125 H 0.03112 0.83707 0.05238 0.0
H126 H 0.03812 0.74361 0.14745 0.0
H127 H 0.07115 0.90598 0.08402 0.0
H128 H 0.94944 0.92587 0.11727 0.0
H129 H 0.17014 0.72165 0.08806 0.0
H130 H 0.01654 0.7883 0.99535 0.0
H131 H 0.02419 0.6935 0.09261 0.0
C132 C 0.63704 0.52471 0.46121 0.0
C133 C 0.60397 0.54193 0.48216 0.0
N134 N 0.57444 0.51399 0.48528 0.0
N135 N 0.62929 0.48532 0.45192 0.0
C136 C 0.58993 0.48094 0.46527 0.0
H137 H 0.66663 0.53876 0.45932 0.0
Co138 Co 0.66747 0.44021 0.45064 0.0
C139 C 0.61294 0.38839 0.46691 0.0
O140 O 0.6304 0.39928 0.50381 0.0
N141 N 0.70293 0.39531 0.45228 0.0
C142 C 0.74573 0.3486 0.47723 0.0
C143 C 0.72747 0.38502 0.48597 0.0
C144 C 0.70576 0.36375 0.4241 0.0
N145 N 0.73197 0.33518 0.43842 0.0
O146 O 0.68743 0.4503 0.3888 0.0
H147 H 0.73028 0.40168 0.51626 0.0
H148 H 0.68735 0.3607 0.39491 0.0
O149 O 0.62494 0.40482 0.43117 0.0
C150 C 0.69984 0.4818 0.36806 0.0
O151 O 0.69543 0.51734 0.38662 0.0
N152 N 0.70831 0.47228 0.47593 0.0
C153 C 0.77035 0.48031 0.53693 0.0
C154 C 0.7298 0.48599 0.54955 0.0
C155 C 0.69918 0.48085 0.51864 0.0
C156 C 0.74764 0.47358 0.4616 0.0
C157 C 0.77929 0.47771 0.4918 0.0
H158 H 0.66816 0.47823 0.53012 0.0
H159 H 0.75531 0.46466 0.42856 0.0
H160 H 0.5737 0.45286 0.46495 0.0
H161 H 0.6032 0.57147 0.4975 0.0
H162 H 0.76499 0.33162 0.49936 0.0
H163 H 0.72154 0.48877 0.58384 0.0
H164 H 0.81009 0.47286 0.48037 0.0
C165 C 0.00785 0.60386 0.42149 0.0
C166 C 0.99403 0.56747 0.43849 0.0
N167 N 0.00414 0.56541 0.48134 0.0
N168 N 0.02596 0.62536 0.45359 0.0
C169 C 0.02314 0.60085 0.48927 0.0
H170 H 0.00839 0.61171 0.38709 0.0
Co171 Co 0.06633 0.66632 0.45268 0.0
C172 C 0.11894 0.61287 0.47184 0.0
O173 O 0.10948 0.63212 0.50818 0.0
N174 N 0.10875 0.70443 0.45497 0.0
C175 C 0.1526 0.74889 0.48229 0.0
C176 C 0.11627 0.72954 0.48896 0.0
C177 C 0.1419 0.70792 0.42885 0.0
N178 N 0.1688 0.73512 0.44464 0.0
O179 O 0.05627 0.6831 0.38993 0.0
H180 H 0.09788 0.73173 0.51827 0.0
H181 H 0.14748 0.68898 0.40049 0.0
O182 O 0.10434 0.62548 0.43565 0.0
C183 C 0.02355 0.6942 0.37033 0.0
O184 O 0.98863 0.68967 0.3908 0.0
N185 N 0.02961 0.70593 0.47445 0.0
C186 C 0.01736 0.77079 0.531 0.0
C187 C 0.00901 0.7313 0.5449 0.0
C188 C 0.01574 0.69918 0.5161 0.0
C189 C 0.0298 0.74444 0.45807 0.0
C190 C 0.0236 0.77736 0.48585 0.0
H191 H 0.01561 0.6693 0.52982 0.0
H192 H 0.04229 0.75076 0.42605 0.0
H193 H 0.03895 0.60691 0.51952 0.0
H194 H 0.9801 0.5434 0.4198 0.0
H195 H 0.16776 0.7687 0.50533 0.0
H196 H 0.00266 0.7248 0.57906 0.0
H197 H 0.03026 0.80716 0.47299 0.0
C198 C 0.88346 0.99877 0.4406 0.0
C199 C 0.91794 0.9857 0.4626 0.0
N200 N 0.92831 0.01378 0.49267 0.0
N201 N 0.87165 0.03483 0.45707 0.0
C202 C 0.90002 0.04313 0.48815 0.0
H203 H 0.8682 0.98248 0.41484 0.0
Co204 Co 0.82773 0.07173 0.45135 0.0
C205 C 0.8745 0.13708 0.45496 0.0
O206 O 0.85489 0.13784 0.49255 0.0
N207 N 0.78603 0.11104 0.44941 0.0
C208 C 0.73884 0.15383 0.47358 0.0
C209 C 0.76035 0.11941 0.48287 0.0
C210 C 0.78041 0.14185 0.42073 0.0
N211 N 0.75173 0.16827 0.43473 0.0
O212 O 0.81066 0.05474 0.39055 0.0
H213 H 0.75955 0.1034 0.51378 0.0
H214 H 0.79938 0.14676 0.39215 0.0
O215 O 0.86571 0.10973 0.42718 0.0
C216 C 0.79626 0.02241 0.37309 0.0
O217 O 0.79603 0.9888 0.39611 0.0
N218 N 0.79165 0.03498 0.47926 0.0
C219 C 0.73272 0.01743 0.54198 0.0
C220 C 0.774 0.01437 0.55238 0.0
C221 C 0.80298 0.02412 0.52071 0.0
C222 C 0.75212 0.03033 0.46652 0.0
C223 C 0.72208 0.02143 0.4975 0.0
H224 H 0.83375 0.02835 0.53161 0.0
H225 H 0.74236 0.04036 0.43453 0.0
H226 H 0.89858 0.0696 0.50894 0.0
H227 H 0.93413 0.95767 0.4568 0.0
H228 H 0.71861 0.16954 0.49593 0.0
H229 H 0.78368 0.01019 0.58602 0.0
H230 H 0.69064 0.0241 0.48753 0.0
C231 C 0.49443 0.89389 0.42208 0.0
C232 C 0.50733 0.93049 0.43937 0.0
N233 N 0.49596 0.93263 0.48196 0.0
N234 N 0.47574 0.87228 0.45377 0.0
C235 C 0.47708 0.89694 0.48936 0.0
H236 H 0.49515 0.8858 0.38775 0.0
Co237 Co 0.4371 0.82979 0.45322 0.0
C238 C 0.38109 0.88154 0.47168 0.0
O239 O 0.39051 0.86341 0.50864 0.0
N240 N 0.39623 0.79014 0.45591 0.0
C241 C 0.35369 0.74445 0.48351 0.0
C242 C 0.38938 0.76497 0.49005 0.0
C243 C 0.36342 0.78539 0.42975 0.0
N244 N 0.33722 0.75753 0.44576 0.0
O245 O 0.44761 0.81323 0.39057 0.0
H246 H 0.4078 0.76348 0.5193 0.0
H247 H 0.35748 0.80394 0.40119 0.0
O248 O 0.39744 0.86919 0.43617 0.0
C249 C 0.48041 0.80253 0.37071 0.0
O250 O 0.51536 0.80782 0.39067 0.0
N251 N 0.47553 0.79155 0.47476 0.0
C252 C 0.4918 0.72824 0.53203 0.0
C253 C 0.49944 0.76818 0.54465 0.0
C254 C 0.49062 0.79951 0.51557 0.0
C255 C 0.47629 0.75274 0.45916 0.0
C256 C 0.48451 0.72051 0.48739 0.0
H257 H 0.49032 0.82957 0.5287 0.0
H258 H 0.46323 0.74551 0.4277 0.0
H259 H 0.46148 0.88982 0.51951 0.0
H260 H 0.52118 0.95472 0.42077 0.0
H261 H 0.33907 0.7243 0.50671 0.0
H262 H 0.50635 0.77547 0.57847 0.0
H263 H 0.47845 0.69015 0.47576 0.0
C264 C 0.36801 0.02036 0.96174 0.0
C265 C 0.40296 0.03612 0.98016 0.0
N266 N 0.43051 0.00623 0.98399 0.0
N267 N 0.37271 0.98013 0.95453 0.0
C268 C 0.41205 0.9736 0.96635 0.0
H269 H 0.3394 0.03633 0.96064 0.0
Co270 Co 0.33223 0.93719 0.95716 0.0
C271 C 0.38394 0.88257 0.97182 0.0
O272 O 0.36787 0.89489 1.00903 0.0
N273 N 0.29456 0.89425 0.96212 0.0
C274 C 0.2523 0.84924 0.99159 0.0
C275 C 0.27214 0.88521 0.99799 0.0
C276 C 0.28891 0.86235 0.93491 0.0
N277 N 0.26303 0.83476 0.95203 0.0
O278 O 0.31006 0.94744 0.89634 0.0
H279 H 0.27227 0.90223 1.02817 0.0
H280 H 0.30536 0.85819 0.90444 0.0
O281 O 0.37187 0.89904 0.93613 0.0
C282 C 0.29569 0.97905 0.87737 0.0
O283 O 0.29841 0.01399 0.89754 0.0
N284 N 0.2948 0.97201 0.98494 0.0
C285 C 0.24023 0.9817 0.0537 0.0
C286 C 0.28179 0.98743 0.06058 0.0
C287 C 0.30863 0.98128 1.02593 0.0
C288 C 0.2542 0.97393 0.97592 0.0
C289 C 0.22614 0.97887 1.01024 0.0
H290 H 0.3405 0.97778 1.03359 0.0
H291 H 0.24296 0.96458 0.94425 0.0
H292 H 0.42619 0.94452 0.96648 0.0
H293 H 0.40624 0.06631 0.99343 0.0
H294 H 0.23427 0.83315 1.01572 0.0
H295 H 0.29379 0.98979 0.09354 0.0
H296 H 0.1942 0.97394 1.00357 0.0
C297 C 0.50907 0.39341 0.92105 0.0
C298 C 0.49576 0.42961 0.93917 0.0
N299 N 0.51025 0.43271 0.98048 0.0
N300 N 0.53113 0.37308 0.95108 0.0
C301 C 0.53146 0.39814 0.98632 0.0
H302 H 0.50562 0.38456 0.88715 0.0
Co303 Co 0.56963 0.33047 0.94946 0.0
C304 C 0.62655 0.38177 0.96393 0.0
O305 O 0.6189 0.364 1.0016 0.0
N306 N 0.61054 0.29055 0.9511 0.0
C307 C 0.65336 0.24486 0.97812 0.0
C308 C 0.61792 0.26568 0.98535 0.0
C309 C 0.64294 0.28538 0.92418 0.0
N310 N 0.66925 0.25744 0.93981 0.0
O311 O 0.55713 0.31322 0.88772 0.0
H312 H 0.60012 0.26466 1.01518 0.0
H313 H 0.64857 0.30369 0.89535 0.0
O314 O 0.60855 0.36924 0.92961 0.0
C315 C 0.52409 0.30205 0.86895 0.0
O316 O 0.48953 0.30643 0.89016 0.0
N317 N 0.53183 0.29295 0.97362 0.0
C318 C 0.51623 0.23116 1.03313 0.0
C319 C 0.50957 0.27146 0.045 0.0
C320 C 0.51805 0.30197 1.01482 0.0
C321 C 0.5302 0.25385 0.95906 0.0
C322 C 0.52244 0.22236 0.98845 0.0
H323 H 0.5191 0.33225 1.02725 0.0
H324 H 0.54218 0.24585 0.92722 0.0
H325 H 0.54901 0.39177 1.01531 0.0
H326 H 0.479 0.45287 0.92198 0.0
H327 H 0.6683 0.22488 1.00119 0.0
H328 H 0.50344 0.2796 0.0788 0.0
H329 H 0.52776 0.19168 0.97735 0.0
C330 C 0.13645 0.48085 0.95928 0.0
C331 C 0.10183 0.46473 0.97831 0.0
N332 N 0.07425 0.49447 0.98322 0.0
N333 N 0.13141 0.52109 0.95238 0.0
C334 C 0.09245 0.52745 0.96584 0.0
H335 H 0.16511 0.46502 0.95726 0.0
Co336 Co 0.17147 0.56428 0.95323 0.0
C337 C 0.1185 0.62056 0.966 0.0
O338 O 0.13382 0.61072 1.00433 0.0
N339 N 0.20893 0.60758 0.95726 0.0
C340 C 0.25253 0.65167 0.98591 0.0
C341 C 0.23303 0.61548 0.99206 0.0
C342 C 0.2133 0.64046 0.93106 0.0
N343 N 0.23999 0.66748 0.94768 0.0
O344 O 0.19287 0.55389 0.89199 0.0
H345 H 0.23449 0.59749 1.02157 0.0
H346 H 0.1954 0.64569 0.90186 0.0
O347 O 0.13123 0.60184 0.93194 0.0
C348 C 0.20497 0.52222 0.87129 0.0
O349 O 0.19996 0.4867 0.88971 0.0
N350 N 0.2098 0.5298 0.97965 0.0
C351 C 0.26884 0.5164 0.04308 0.0
C352 C 0.22757 0.51228 0.05352 0.0
C353 C 0.19852 0.52016 1.02149 0.0
C354 C 0.24955 0.52691 0.96708 0.0
C355 C 0.27971 0.52014 0.99851 0.0
H356 H 0.16723 0.5239 1.03166 0.0
H357 H 0.25895 0.53647 0.93476 0.0
H358 H 0.07868 0.55661 0.96761 0.0
H359 H 0.09878 0.43431 0.99106 0.0
H360 H 0.27159 0.66699 1.00958 0.0
H361 H 0.21775 0.50854 0.08722 0.0
H362 H 0.31113 0.52381 0.98867 0.0
C363 C 0.02355 0.12773 0.95198 0.0
C364 C 0.0406 0.09312 0.96939 0.0
N365 N 0.01105 0.06553 0.97568 0.0
N366 N 0.98301 0.12263 0.94672 0.0
C367 C 0.97717 0.08375 0.96023 0.0
H368 H 0.0393 0.1563 0.94977 0.0
Co369 Co 0.93984 0.16283 0.94702 0.0
C370 C 0.88489 0.11149 0.96446 0.0
O371 O 0.89722 0.12835 1.00114 0.0
N372 N 0.89658 0.20048 0.95028 0.0
C373 C 0.85221 0.24448 0.978 0.0
C374 C 0.88822 0.22467 0.98489 0.0
C375 C 0.86413 0.20505 0.92345 0.0
N376 N 0.83695 0.23201 0.93949 0.0
O377 O 0.94997 0.18213 0.88481 0.0
H378 H 0.90574 0.22599 1.01471 0.0
H379 H 0.85932 0.18721 0.89414 0.0
O380 O 0.90163 0.12242 0.92843 0.0
C381 C 0.98204 0.1929 0.86365 0.0
O382 O 0.01759 0.18771 0.88207 0.0
N383 N 0.97478 0.20153 0.97152 0.0
C384 C 0.98452 0.26244 1.03331 0.0
C385 C 0.9896 0.22184 0.04528 0.0
C386 C 0.98391 0.19176 1.01388 0.0
C387 C 0.977 0.24074 0.95769 0.0
C388 C 0.98199 0.27183 0.98828 0.0
H389 H 0.98083 0.1608 1.02491 0.0
H390 H 0.96789 0.2489 0.92488 0.0
H391 H 0.94795 0.06994 0.9631 0.0
H392 H 0.07174 0.09017 0.9802 0.0
H393 H 0.8366 0.2638 1.0013 0.0
H394 H 0.99247 0.21321 0.07941 0.0
H395 H 0.9777 0.30267 0.97722 0.0
C396 C 0.39998 0.51682 0.6637 0.0
C397 C 0.43805 0.50581 0.64817 0.0
N398 N 0.43821 0.50921 0.60414 0.0
N399 N 0.37586 0.52713 0.62964 0.0
C400 C 0.40043 0.52199 0.59402 0.0
H401 H 0.39262 0.52225 0.69777 0.0
Co402 Co 0.33361 0.56655 0.62827 0.0
C403 C 0.38793 0.61789 0.60776 0.0
O404 O 0.37042 0.60614 0.57125 0.0
N405 N 0.29469 0.6081 0.62384 0.0
C406 C 0.24996 0.65071 0.59456 0.0
C407 C 0.26999 0.61459 0.58922 0.0
C408 C 0.29021 0.64155 0.64905 0.0
N409 N 0.26289 0.66777 0.63204 0.0
O410 O 0.31637 0.55827 0.69121 0.0
H411 H 0.26843 0.59548 0.56052 0.0
H412 H 0.30842 0.64773 0.6778 0.0
O413 O 0.3736 0.60558 0.64423 0.0
C414 C 0.3067 0.52573 0.71181 0.0
O415 O 0.31331 0.49077 0.69252 0.0
N416 N 0.29444 0.52848 0.60781 0.0
C417 C 0.23029 0.51279 0.55115 0.0
C418 C 0.27019 0.50401 0.53849 0.0
C419 C 0.30191 0.51246 0.56727 0.0
C420 C 0.25545 0.52913 0.62357 0.0
C421 C 0.22279 0.52135 0.5956 0.0
H422 H 0.33199 0.51164 0.55397 0.0
H423 H 0.24863 0.54284 0.65487 0.0
H424 H 0.39323 0.53352 0.56181 0.0
H425 H 0.4645 0.49927 0.668 0.0
H426 H 0.23011 0.665 0.57087 0.0
H427 H 0.27727 0.49623 0.5048 0.0
H428 H 0.19245 0.52839 0.60715 0.0
C429 C 0.99968 0.38608 0.65533 0.0
C430 C 0.01288 0.42317 0.63913 0.0
N431 N 0.99932 0.42745 0.59762 0.0
N432 N 0.97829 0.36677 0.62395 0.0
C433 C 0.97845 0.39314 0.58983 0.0
H434 H 0.00274 0.37579 0.68881 0.0
Co435 Co 0.93926 0.32463 0.62309 0.0
C436 C 0.88352 0.37703 0.6085 0.0
O437 O 0.89188 0.3598 0.5707 0.0
N438 N 0.89782 0.28572 0.61948 0.0
C439 C 0.85276 0.24359 0.59031 0.0
C440 C 0.88883 0.26348 0.58369 0.0
C441 C 0.8659 0.28 0.64686 0.0
N442 N 0.83817 0.25428 0.6299 0.0
O443 O 0.95009 0.30535 0.68446 0.0
H444 H 0.90594 0.264 0.55344 0.0
H445 H 0.86156 0.29671 0.67706 0.0
O446 O 0.90038 0.36352 0.64311 0.0
C447 C 0.98238 0.29172 0.70279 0.0
O448 O 0.01712 0.29479 0.68167 0.0
N449 N 0.97721 0.28699 0.59812 0.0
C450 C 0.98912 0.23027 0.53229 0.0
C451 C 1.00034 0.27049 0.52552 0.0
C452 C 0.99379 0.29852 0.55887 0.0
C453 C 0.97574 0.24668 0.60841 0.0
C454 C 0.98133 0.21753 0.57549 0.0
H455 H 0.99629 0.3297 0.54988 0.0
H456 H 0.96263 0.23692 0.63918 0.0
H457 H 0.96094 0.38836 0.56038 0.0
H458 H 0.02958 0.44583 0.65726 0.0
H459 H 0.83652 0.22586 0.56616 0.0
H460 H 0.00735 0.28133 0.49281 0.0
H461 H 0.97271 0.1865 0.58223 0.0
C462 C 0.13106 0.02073 0.62861 0.0
C463 C 0.09526 0.03736 0.61339 0.0
N464 N 0.06788 0.00757 0.60732 0.0
N465 N 0.12718 0.98013 0.6327 0.0
C466 C 0.08778 0.97374 0.62063 0.0
H467 H 0.15936 0.03713 0.63063 0.0
Co468 Co 0.16903 0.93809 0.63131 0.0
C469 C 0.11978 0.88365 0.60961 0.0
O470 O 0.13821 0.89802 0.57459 0.0
N471 N 0.20795 0.89591 0.62704 0.0
C472 C 0.25239 0.8528 0.59773 0.0
C473 C 0.23272 0.88903 0.59239 0.0
C474 C 0.21208 0.86239 0.65228 0.0
N475 N 0.23923 0.83592 0.63524 0.0
O476 O 0.18702 0.94622 0.69432 0.0
H477 H 0.23415 0.90754 0.56329 0.0
H478 H 0.19352 0.85623 0.68089 0.0
O479 O 0.12907 0.89844 0.64706 0.0
C480 C 0.19716 0.97796 0.71607 0.0
O481 O 0.19161 0.01352 0.69803 0.0
N482 N 0.20768 0.97478 0.60908 0.0
C483 C 0.26926 0.98539 0.54776 0.0
C484 C 0.22865 0.99167 0.53593 0.0
C485 C 0.19819 0.98541 0.56705 0.0
C486 C 0.24702 0.97647 0.6231 0.0
C487 C 0.2785 0.98188 0.59269 0.0
H488 H 0.1672 0.98276 0.55571 0.0
H489 H 0.25497 0.96634 0.65563 0.0
H490 H 0.07443 0.94432 0.61845 0.0
H491 H 0.0915 0.0686 0.60368 0.0
H492 H 0.27188 0.83816 0.57383 0.0
H493 H 0.22019 0.99526 0.50183 0.0
H494 H 0.3094 0.9768 0.60353 0.0
C495 C 0.50392 0.11064 0.65796 0.0
C496 C 0.49047 0.07423 0.64058 0.0
N497 N 0.50397 0.07087 0.59879 0.0
N498 N 0.52514 0.13088 0.62707 0.0
C499 C 0.52459 0.10567 0.59195 0.0
H500 H 0.50168 0.11944 0.69201 0.0
Co501 Co 0.56556 0.17165 0.62831 0.0
C502 C 0.61964 0.11685 0.61472 0.0
O503 O 0.61308 0.13418 0.5766 0.0
N504 N 0.60829 0.20949 0.62629 0.0
C505 C 0.65339 0.25289 0.599 0.0
C506 C 0.61651 0.23464 0.59245 0.0
C507 C 0.64154 0.21194 0.65223 0.0
N508 N 0.66923 0.23842 0.63643 0.0
O509 O 0.55379 0.1899 0.68988 0.0
H510 H 0.59837 0.23734 0.56311 0.0
H511 H 0.64678 0.19245 0.6802 0.0
O512 O 0.60243 0.13123 0.64873 0.0
C513 C 0.52134 0.20218 0.7092 0.0
O514 O 0.48643 0.1988 0.68868 0.0
N515 N 0.5297 0.21086 0.60383 0.0
C516 C 0.51554 0.27368 0.54495 0.0
C517 C 0.50877 0.23356 0.53249 0.0
C518 C 0.51643 0.20256 0.56235 0.0
C519 C 0.52899 0.24991 0.61871 0.0
C520 C 0.5219 0.28186 0.58968 0.0
H521 H 0.51716 0.17238 0.54961 0.0
H522 H 0.54092 0.25737 0.65063 0.0
H523 H 0.54209 0.11161 0.56276 0.0
H524 H 0.47457 0.05097 0.65871 0.0
H525 H 0.66924 0.27213 0.57583 0.0
H526 H 0.50282 0.22589 0.49856 0.0
H527 H 0.52754 0.31236 0.60109 0.0
C528 C 0.7323 0.98752 0.27561 0.0
C529 C 0.72178 0.02377 0.25406 0.0
H530 H 0.76387 0.95864 0.32829 0.0
C531 C 0.73737 0.06022 0.27141 0.0
H532 H 0.72138 0.9587 0.26355 0.0
C533 C 0.76242 0.06015 0.3092 0.0
C534 C 0.77267 0.02363 0.33066 0.0
H535 H 0.73043 0.08878 0.25568 0.0
H536 H 0.7733 0.08875 0.3219 0.0
C537 C 0.75713 0.98745 0.31298 0.0
C538 C 0.51622 0.7654 0.30937 0.0
C539 C 0.47947 0.77726 0.32947 0.0
H540 H 0.54588 0.73154 0.2587 0.0
C541 C 0.44302 0.76199 0.31158 0.0
H542 H 0.54502 0.77605 0.32198 0.0
C543 C 0.44355 0.73579 0.2748 0.0
C544 C 0.48053 0.72402 0.25488 0.0
H545 H 0.41408 0.76991 0.32626 0.0
H546 H 0.41493 0.72508 0.26175 0.0
C547 C 0.51674 0.7394 0.27293 0.0
C548 C 0.73744 0.44159 0.30792 0.0
C549 C 0.72531 0.47881 0.32677 0.0
H550 H 0.77165 0.41137 0.25678 0.0
C551 C 0.7402 0.51449 0.3072 0.0
H552 H 0.72708 0.41336 0.3221 0.0
C553 C 0.76603 0.51333 0.27054 0.0
C554 C 0.77822 0.47644 0.25134 0.0
H555 H 0.73211 0.54384 0.3204 0.0
H556 H 0.77627 0.54188 0.25704 0.0
C557 C 0.76342 0.44042 0.27063 0.0
C558 C 0.98779 0.72988 0.30828 0.0
C559 C 0.02455 0.71888 0.32866 0.0
H560 H 0.95795 0.76234 0.25688 0.0
C561 C 0.0609 0.73444 0.31055 0.0
H562 H 0.95905 0.719 0.32103 0.0
C563 C 0.06024 0.76004 0.27323 0.0
C564 C 0.02321 0.77081 0.25295 0.0
H565 H 0.08984 0.72718 0.32545 0.0
H566 H 0.08876 0.77093 0.25995 0.0
C567 C 0.98713 0.7552 0.2713 0.0
C568 C 0.26148 0.94012 0.81419 0.0
C569 C 0.27113 0.97683 0.83558 0.0
H570 H 0.23052 0.9111 0.76012 0.0
C571 C 0.25498 0.01273 0.81778 0.0
H572 H 0.27293 0.91173 0.82692 0.0
C573 C 0.23046 0.0123 0.78027 0.0
C574 C 0.22088 0.97599 0.75843 0.0
H575 H 0.26116 0.0417 0.83295 0.0
H576 H 0.21921 0.04101 0.76817 0.0
C577 C 0.23676 0.93971 0.77604 0.0
C578 C 0.4877 0.26553 0.80787 0.0
C579 C 0.5246 0.27775 0.82709 0.0
H580 H 0.45776 0.23229 0.75712 0.0
C581 C 0.561 0.26394 0.80753 0.0
H582 H 0.45895 0.27511 0.82178 0.0
C583 C 0.56031 0.23875 0.76998 0.0
C584 C 0.52319 0.2266 0.75093 0.0
H585 H 0.59007 0.27223 0.82146 0.0
H586 H 0.58887 0.2291 0.75567 0.0
C587 C 0.48701 0.24054 0.77062 0.0
C588 C 0.26749 0.56271 0.77291 0.0
C589 C 0.28197 0.52654 0.75364 0.0
H590 H 0.23187 0.5902 0.82465 0.0
C591 C 0.27012 0.48978 0.77327 0.0
H592 H 0.27551 0.59167 0.75869 0.0
C593 C 0.24481 0.48893 0.81038 0.0
C594 C 0.2302 0.52479 0.82987 0.0
H595 H 0.28015 0.46117 0.75972 0.0
H596 H 0.23686 0.45968 0.82393 0.0
C597 C 0.24207 0.56185 0.81058 0.0
C598 C 0.01673 0.22729 0.80001 0.0
C599 C 0.98023 0.21691 0.82154 0.0
H600 H 0.04603 0.25873 0.74744 0.0
C601 C 0.94367 0.23216 0.80383 0.0
H602 H 0.04565 0.21653 0.81227 0.0
C603 C 0.94393 0.25701 0.76587 0.0
C604 C 0.98075 0.26738 0.74468 0.0
H605 H 0.91493 0.22529 0.81952 0.0
H606 H 0.91528 0.26788 0.75301 0.0
C607 C 0.01699 0.25194 0.76255 0.0
C608 C 0.49758 0.97663 1.00428 0.0
C609 C 0.46645 0.00514 1.01178 0.0
H610 H 0.55404 0.95107 1.02563 0.0
C611 C 0.46953 0.02994 0.04923 0.0
H612 H 0.49656 0.95718 0.97575 0.0
C613 C 0.50246 0.02614 0.07828 0.0
C614 C 0.53358 0.99759 0.07079 0.0
H615 H 0.44595 0.05168 0.05685 0.0
H616 H 0.50343 0.04555 0.10684 0.0
C617 C 0.53051 0.97285 1.03329 0.0
C618 C 0.53287 0.46974 0.04789 0.0
C619 C 0.50735 0.46682 1.01077 0.0
H620 H 0.55085 0.50352 0.10447 0.0
C621 C 0.47904 0.49809 1.00405 0.0
H622 H 0.55548 0.44692 0.05474 0.0
C623 C 0.47637 0.53098 1.0331 0.0
C624 C 0.50189 0.53394 0.07025 0.0
H625 H 0.45843 0.49714 0.9765 0.0
H626 H 0.45374 0.55372 1.02614 0.0
C627 C 0.53025 0.50266 0.07693 0.0
C628 C 0.007 0.52344 1.00421 0.0
C629 C 0.0381 0.49478 1.01098 0.0
H630 H 0.95035 0.54842 1.02608 0.0
C631 C 0.03452 0.46876 0.04744 0.0
H632 H 0.00821 0.54358 0.97625 0.0
C633 C 1.00118 0.47163 0.07633 0.0
C634 C 0.97028 0.50056 0.06974 0.0
H635 H 0.05797 0.44673 0.0544 0.0
H636 H 0.9998 0.45131 0.10414 0.0
C637 C 0.97378 0.5264 1.03312 0.0
C638 C 0.04337 0.02437 1.03478 0.0
C639 C 0.01239 0.02955 1.00341 0.0
H640 H 0.06631 0.98955 0.0885 0.0
C641 C 0.98102 0.00037 1.00232 0.0
H642 H 0.06772 0.04614 1.0377 0.0
C643 C 0.98013 0.96796 1.03231 0.0
C644 C 0.01104 0.96325 0.06363 0.0
H645 H 0.95701 0.00248 0.9783 0.0
H646 H 0.95562 0.94618 1.03062 0.0
C647 C 0.04267 0.99174 0.06423 0.0
C648 C 0.50975 0.52807 0.58688 0.0
C649 C 0.47298 0.50952 0.57467 0.0
H650 H 0.57029 0.54509 0.56768 0.0
C651 C 0.4699 0.49352 0.532 0.0
H652 H 0.51292 0.54127 0.61918 0.0
C653 C 0.50293 0.49529 0.50263 0.0
C654 C 0.53952 0.51431 0.5146 0.0
H655 H 0.44194 0.47925 0.52158 0.0
H656 H 0.49988 0.48198 0.47036 0.0
C657 C 0.54238 0.53084 0.55709 0.0
C658 C 0.99748 0.45758 0.52277 0.0
C659 C 1.0017 0.46233 0.56853 0.0
H660 H 0.99502 0.48572 0.45959 0.0
C661 C 0.00638 0.50181 0.58498 0.0
H662 H 0.99441 0.42774 0.50858 0.0
C663 C 0.00647 0.53542 0.55662 0.0
C664 C 0.00218 0.53067 0.5108 0.0
H665 H 0.00912 0.50691 0.6199 0.0
H666 H 0.00952 0.56524 0.57085 0.0
C667 C 0.99769 0.4911 0.49444 0.0
C668 C 0.97499 0.97568 0.54193 0.0
C669 C 0.96164 0.01252 0.52399 0.0
H670 H 0.01554 0.94557 0.58535 0.0
C671 C 0.98127 0.04816 0.53776 0.0
H672 H 0.95969 0.94774 0.53362 0.0
C673 C 0.01511 0.0468 0.56583 0.0
C674 C 0.02989 0.0097 0.58237 0.0
H675 H 0.97116 0.07724 0.52611 0.0
H676 H 0.02972 0.07506 0.57401 0.0
C677 C 0.00776 0.97445 0.57145 0.0
C678 C 0.47673 0.96805 0.55187 0.0
C679 C 0.49838 0.96723 0.51172 0.0
H680 H 0.46069 0.0008 0.60992 0.0
C681 C 0.52198 0.00139 0.50119 0.0
H682 H 0.45791 0.94295 0.56192 0.0
C683 C 0.52361 0.03504 0.52927 0.0
C684 C 0.50178 0.036 0.56932 0.0
H685 H 0.53962 0.00229 0.47123 0.0
H686 H 0.54252 0.06003 0.51914 0.0
C687 C 0.47827 0.00176 0.57994 0.0
C688 C 0.5562 0.21326 0.10028 0.0
C689 C 0.52911 0.2012 0.0668 0.0
H690 H 0.60523 0.19544 0.14245 0.0
C691 C 0.52373 0.15975 0.05904 0.0
H692 H 0.56151 0.24496 0.10712 0.0
C693 C 0.54967 0.13175 0.07851 0.0
C694 C 0.58017 0.14442 0.10765 0.0
H695 H 0.50277 0.14935 1.03414 0.0
H696 H 0.54864 0.10084 0.0669 0.0
C697 C 0.5815 0.18493 0.12069 0.0
C698 C 0.28588 0.55742 0.10961 0.0
C699 C 0.29824 0.52901 0.07759 0.0
H700 H 0.30396 0.60666 0.15085 0.0
C701 C 0.33999 0.52124 0.07257 0.0
H702 H 0.25408 0.56458 0.11453 0.0
C703 C 0.36846 0.54584 0.09356 0.0
C704 C 0.35562 0.57813 0.12014 0.0
H705 H 0.35062 0.49911 0.04898 0.0
H706 H 0.40024 0.54263 0.08497 0.0
C707 C 0.31446 0.58177 0.13073 0.0
C708 C 0.97783 0.33396 0.05962 0.0
C709 C 0.97043 0.29264 0.06634 0.0
H710 H 0.95565 0.39387 0.06821 0.0
C711 C 0.94142 0.28127 0.09836 0.0
H712 H 1.00024 0.34386 1.03584 0.0
C713 C 0.9168 0.31042 0.11862 0.0
C714 C 0.92062 0.35115 0.10691 0.0
H715 H 0.93442 0.24973 0.10428 0.0
H716 H 0.89186 0.30063 0.13931 0.0
C717 C 0.95263 0.36283 0.07897 0.0
C718 C 0.17416 0.97382 0.09465 0.0
C719 C 0.21541 0.96405 0.08964 0.0
H720 H 0.11606 0.95331 0.11729 0.0
C721 C 0.2309 0.9301 0.1121 0.0
H722 H 0.16142 0.99986 0.07802 0.0
C723 C 0.20466 0.90302 0.13278 0.0
C724 C 0.16279 0.9101 0.13271 0.0
H725 H 0.26253 0.92147 0.10889 0.0
H726 H 0.21661 0.8743 0.14385 0.0
C727 C 0.14823 0.94731 0.1171 0.0
C728 C 0.57928 0.32218 0.45714 0.0
C729 C 0.57678 0.36264 0.47024 0.0
H730 H 0.56119 0.26155 0.47076 0.0
C731 C 0.54584 0.37445 0.49948 0.0
H732 H 0.60328 0.31239 0.43519 0.0
C733 C 0.52114 0.34556 0.51955 0.0
C734 C 0.52777 0.30427 0.5116 0.0
H735 H 0.54361 0.40547 0.51065 0.0
H736 H 0.50003 0.35525 0.54478 0.0
C737 C 0.55497 0.29308 0.47774 0.0
C738 C 0.13031 0.54615 0.50508 0.0
C739 C 0.14361 0.57621 0.47579 0.0
H740 H 0.1477 0.50052 0.55122 0.0
C741 C 0.18437 0.57712 0.46289 0.0
H742 H 0.09882 0.5452 0.51558 0.0
C743 C 0.21249 0.55188 0.48365 0.0
C744 C 0.20006 0.52559 0.5177 0.0
H745 H 0.19526 0.60055 0.44092 0.0
H746 H 0.24441 0.55673 0.47669 0.0
C747 C 0.15831 0.5208 0.52572 0.0
C748 C 0.90822 0.20307 0.4526 0.0
C749 C 0.91184 0.16095 0.45202 0.0
H750 H 0.93188 0.25858 0.47693 0.0
C751 C 0.94801 0.14307 0.46679 0.0
H752 H 0.88045 0.2175 0.44177 0.0
C753 C 0.97654 0.16617 0.48989 0.0
C754 C 0.97014 0.20781 0.49561 0.0
H755 H 0.95158 0.1106 0.46539 0.0
H756 H 1.00147 0.1511 0.50631 0.0
C757 C 0.93766 0.22647 0.47333 0.0
C758 C 0.31383 0.91409 0.46438 0.0
C759 C 0.35513 0.91749 0.47426 0.0
H760 H 0.25381 0.93375 0.47967 0.0
C761 C 0.36855 0.95018 0.4998 0.0
H762 H 0.30282 0.88864 0.44544 0.0
C763 C 0.34061 0.97624 0.51975 0.0
C764 C 0.29872 0.96972 0.51464 0.0
H765 H 0.4004 0.95308 0.50792 0.0
H766 H 0.35164 0.99895 0.54238 0.0
C767 C 0.28579 0.94013 0.48426 0.0
C768 C 0.44254 0.78731 0.98253 0.0
C769 C 0.47042 0.79904 1.01537 0.0
H770 H 0.39322 0.80589 0.94115 0.0
C771 C 0.47683 0.8404 1.02267 0.0
H772 H 0.43646 0.75567 0.97614 0.0
C773 C 0.45137 0.86885 1.00322 0.0
C774 C 0.42006 0.85665 0.97481 0.0
H775 H 0.49836 0.85049 0.04716 0.0
H776 H 0.45334 0.8998 1.01451 0.0
C777 C 0.41758 0.81606 0.96228 0.0
C778 C 0.66754 0.47672 1.00895 0.0
C779 C 0.7093 0.46864 1.0052 0.0
H780 H 0.60743 0.45514 0.99609 0.0
C781 C 0.7222 0.43836 0.97553 0.0
H782 H 0.6566 0.50006 1.03097 0.0
C783 C 0.69397 0.4129 0.95548 0.0
C784 C 0.6526 0.41756 0.9645 0.0
H785 H 0.75406 0.43086 0.9719 0.0
H786 H 0.70476 0.38673 0.93748 0.0
C787 C 0.63939 0.45122 0.98875 0.0
C788 C 0.06362 0.71786 0.97377 0.0
C789 C 0.0332 0.707 1.0044 0.0
H790 H 0.11425 0.69742 0.93517 0.0
C791 C 0.02379 0.66588 1.00953 0.0
H792 H 0.07196 0.7492 0.96875 0.0
C793 C 0.04911 0.63647 0.99137 0.0
C794 C 0.08302 0.64755 0.96594 0.0
H795 H 1.00005 0.65641 1.03197 0.0
H796 H 0.04468 0.60554 1.00174 0.0
C797 C 0.08821 0.68818 0.95445 0.0
C798 C 0.83923 0.02092 1.01672 0.0
C799 C 0.7979 0.02875 1.00947 0.0
H800 H 0.89973 0.0422 1.00826 0.0
C801 C 0.78721 0.05684 0.97642 0.0
H802 H 0.84866 0.99905 0.04114 0.0
C803 C 0.81698 0.08042 0.95582 0.0
C804 C 0.85762 0.07656 0.96833 0.0
H805 H 0.75573 0.06413 0.96989 0.0
H806 H 0.80769 0.1048 0.93431 0.0
C807 C 0.86872 0.04521 0.99709 0.0
C808 C 0.45086 0.71051 0.5985 0.0
C809 C 0.47812 0.69811 0.56519 0.0
H810 H 0.40038 0.69366 0.63933 0.0
C811 C 0.48255 0.65656 0.55686 0.0
H812 H 0.44629 0.74226 0.60578 0.0
C813 C 0.45564 0.62899 0.57578 0.0
C814 C 0.42479 0.6424 0.60417 0.0
H815 H 0.50365 0.64591 0.53206 0.0
H816 H 0.45626 0.59787 0.56467 0.0
C817 C 0.4243 0.68272 0.61789 0.0
C818 C 0.7883 0.43555 0.60024 0.0
C819 C 0.80045 0.46512 0.56939 0.0
H820 H 0.80641 0.38422 0.63853 0.0
C821 C 0.84218 0.47203 0.56313 0.0
H822 H 0.75647 0.42895 0.60578 0.0
C823 C 0.87067 0.446 0.58199 0.0
C824 C 0.85788 0.41318 0.60783 0.0
H825 H 0.8526 0.49485 0.54022 0.0
H826 H 0.90231 0.44892 0.57253 0.0
C827 C 0.81689 0.40973 0.61929 0.0
C828 C 0.05603 0.79059 0.5988 0.0
C829 C 0.03123 0.80197 0.56296 0.0
H830 H 0.10348 0.80857 0.64312 0.0
C831 C 0.02916 0.84304 0.55159 0.0
H832 H 0.0589 0.75922 0.60851 0.0
C833 C 0.05634 0.87042 0.56983 0.0
C834 C 0.08387 0.85826 0.60235 0.0
H835 H 0.00989 0.85321 0.52503 0.0
H836 H 0.05847 0.90026 0.55541 0.0
C837 C 0.08194 0.81877 0.61867 0.0
C838 C 0.6324 0.04751 0.58959 0.0
C839 C 0.6448 0.08041 0.61536 0.0
H840 H 0.65111 0.9993 0.54729 0.0
C841 C 0.68556 0.08379 0.62743 0.0
H842 H 0.60087 0.04448 0.58001 0.0
C843 C 0.71453 0.05854 0.60805 0.0
C844 C 0.70286 0.02962 0.57635 0.0
H845 H 0.69565 0.10911 0.64713 0.0
H846 H 0.74621 0.06557 0.61368 0.0
C847 C 0.66123 0.02191 0.57055 0.0
C848 C 0.71647 0.27664 0.14691 0.0
C849 C 0.75613 0.29234 0.14733 0.0
H850 H 0.67934 0.22328 0.14456 0.0
C851 C 0.78907 0.26566 0.1518 0.0
H852 H 0.69074 0.29675 0.1429 0.0
C853 C 0.78261 0.2238 0.15178 0.0
C854 C 0.7431 0.20808 0.14851 0.0
H855 H 0.81988 0.27707 0.15134 0.0
H856 H 0.80853 0.2036 0.15146 0.0
C857 C 0.70995 0.23481 0.14803 0.0
C858 C 0.23294 0.78051 0.17298 0.0
C859 C 0.20795 0.74694 0.16482 0.0
H860 H 0.29413 0.80313 0.17399 0.0
C861 C 0.22573 0.70844 0.16129 0.0
H862 H 0.21989 0.81042 0.1757 0.0
C863 C 0.26795 0.70415 0.16163 0.0
C864 C 0.29295 0.73837 0.16463 0.0
H865 H 0.20699 0.68221 0.15472 0.0
H866 H 0.28111 0.67477 0.1551 0.0
C867 C 0.27524 0.77637 0.17207 0.0
C868 C 0.70212 0.26877 0.42271 0.0
C869 C 0.73621 0.2942 0.42363 0.0
H870 H 0.68064 0.20749 0.42557 0.0
C871 C 0.77513 0.2772 0.41941 0.0
H872 H 0.67194 0.28129 0.42676 0.0
C873 C 0.78006 0.23519 0.41769 0.0
C874 C 0.74619 0.20962 0.42146 0.0
H875 H 0.80176 0.2964 0.42064 0.0
H876 H 0.81044 0.22269 0.4178 0.0
C877 C 0.7071 0.22673 0.42213 0.0
C878 C 0.26937 0.78466 0.42924 0.0
C879 C 0.29551 0.75134 0.43374 0.0
H880 H 0.20745 0.80525 0.42955 0.0
C881 C 0.27901 0.71215 0.43442 0.0
H882 H 0.28141 0.81514 0.42945 0.0
C883 C 0.2369 0.7065 0.43343 0.0
C884 C 0.21073 0.74003 0.43281 0.0
H885 H 0.29871 0.68614 0.43836 0.0
H886 H 0.22472 0.67623 0.43698 0.0
C887 C 0.22725 0.77906 0.42938 0.0
C888 C 0.21741 0.77733 0.93878 0.0
C889 C 0.25678 0.79364 0.93849 0.0
H890 H 0.18125 0.72339 0.94052 0.0
C891 C 0.29019 0.76758 0.9336 0.0
H892 H 0.19135 0.79697 0.94324 0.0
C893 C 0.28443 0.72562 0.93296 0.0
C894 C 0.24516 0.70924 0.936 0.0
H895 H 0.32081 0.77952 0.93425 0.0
H896 H 0.31067 0.70582 0.93298 0.0
C897 C 0.21162 0.73544 0.93702 0.0
C898 C 0.77959 0.27742 0.92435 0.0
C899 C 0.79544 0.23801 0.92668 0.0
H900 H 0.72601 0.31446 0.92524 0.0
C901 C 0.76869 0.20499 0.92573 0.0
H902 H 0.79981 0.30323 0.92578 0.0
C903 C 0.72665 0.21139 0.92647 0.0
C904 C 0.7108 0.25087 0.92709 0.0
H905 H 0.78029 0.17445 0.92845 0.0
H906 H 0.70647 0.18565 0.92946 0.0
C907 C 0.73755 0.2838 0.92396 0.0
C908 C 0.28976 0.73564 0.64815 0.0
C909 C 0.25646 0.70945 0.64362 0.0
H910 H 0.31001 0.79744 0.64869 0.0
C911 C 0.21701 0.72573 0.64314 0.0
H912 H 0.32045 0.72377 0.64772 0.0
C913 C 0.21103 0.76765 0.64479 0.0
C914 C 0.24451 0.79391 0.64585 0.0
H915 H 0.191 0.70602 0.63915 0.0
H916 H 0.18055 0.77966 0.64162 0.0
C917 C 0.28383 0.77759 0.64864 0.0
C918 C 0.77851 0.21056 0.64004 0.0
C919 C 0.79665 0.24888 0.64331 0.0
H920 H 0.72273 0.1772 0.63662 0.0
C921 C 0.77208 0.28277 0.6518 0.0
H922 H 0.79695 0.18418 0.63298 0.0
C923 C 0.72977 0.27885 0.65303 0.0
C924 C 0.71156 0.24088 0.64706 0.0
H925 H 0.78539 0.31265 0.65365 0.0
H926 H 0.71108 0.30572 0.65588 0.0
C927 C 0.73627 0.20654 0.64238 0.0
loop_
_geom_bond_atom_site_label_1
_geom_bond_atom_site_label_2
_geom_bond_distance
_geom_bond_site_symmetry_2
_ccdc_geom_bond_type
C0 C1 1.351 1_545 S
C0 N3 1.368 . S
C0 H5 0.931 . S
C1 C0 1.351 1_565 S
C1 N2 1.373 . S
C1 H29 0.930 . S
N2 C1 1.373 . S
N2 C4 1.340 1_565 S
N3 C0 1.368 . S
N3 C4 1.321 . S
N3 Co6 2.135 . S
C4 N2 1.340 1_545 S
C4 N3 1.321 . S
C4 H28 0.930 . S
H5 C0 0.931 . S
Co6 N3 2.135 . S
Co6 N9 2.121 . S
Co6 O14 2.055 . S
Co6 O17 2.039 . S
Co6 N20 2.140 . S
C7 O8 1.227 . S
C7 O17 1.265 . S
O8 C7 1.227 . S
N9 Co6 2.121 . S
N9 C11 1.375 . S
N9 C12 1.313 . S
C10 C11 1.338 . S
C10 N13 1.377 . S
C10 H30 0.930 . S
C11 N9 1.375 . S
C11 C10 1.338 . S
C11 H15 0.931 . S
C12 N9 1.313 . S
C12 N13 1.344 . S
C12 H16 0.930 . S
N13 C10 1.377 . S
N13 C12 1.344 . S
O14 Co6 2.055 . S
O14 C18 1.253 . S
H15 C11 0.931 . S
H16 C12 0.930 . S
O17 Co6 2.039 . S
O17 C7 1.265 . S
C18 O14 1.253 . S
C18 O19 1.227 . S
O19 C18 1.227 . S
N20 Co6 2.140 . S
N20 C23 1.346 . S
N20 C24 1.345 . S
C21 C22 1.387 . S
C21 C25 1.391 . S
C22 C21 1.387 . S
C22 C23 1.369 . S
C22 H31 0.929 1_554 S
C23 N20 1.346 . S
C23 C22 1.369 . S
C23 H26 0.928 . S
C24 N20 1.345 . S
C24 C25 1.371 . S
C24 H27 0.931 . S
C25 C21 1.391 . S
C25 C24 1.371 . S
C25 H32 0.930 . S
H26 C23 0.928 . S
H27 C24 0.931 . S
H28 C4 0.930 . S
H29 C1 0.930 . S
H30 C10 0.930 . S
H31 C22 0.929 1_556 S
H32 C25 0.930 . S
C33 C34 1.351 . S
C33 N36 1.368 . S
C33 H38 0.931 . S
C34 C33 1.351 . S
C34 N35 1.373 . S
C34 H62 0.930 . S
N35 C34 1.373 . S
N35 C37 1.340 . S
N36 C33 1.368 . S
N36 C37 1.321 . S
N36 Co39 2.135 . S
C37 N35 1.340 . S
C37 N36 1.321 . S
C37 H61 0.930 . S
H38 C33 0.931 . S
Co39 N36 2.135 . S
Co39 N42 2.121 . S
Co39 O47 2.055 . S
Co39 O50 2.039 . S
Co39 N53 2.140 . S
C40 O41 1.227 . S
C40 O50 1.265 . S
O41 C40 1.227 . S
N42 Co39 2.121 . S
N42 C44 1.375 . S
N42 C45 1.313 . S
C43 C44 1.338 . S
C43 N46 1.377 . S
C43 H63 0.930 . S
C44 N42 1.375 . S
C44 C43 1.338 . S
C44 H48 0.931 . S
C45 N42 1.313 . S
C45 N46 1.344 . S
C45 H49 0.930 . S
N46 C43 1.377 . S
N46 C45 1.344 . S
O47 Co39 2.055 . S
O47 C51 1.253 . S
H48 C44 0.931 . S
H49 C45 0.930 . S
O50 Co39 2.039 . S
O50 C40 1.265 . S
C51 O47 1.253 . S
C51 O52 1.227 . S
O52 C51 1.227 . S
N53 Co39 2.140 . S
N53 C56 1.346 . S
N53 C57 1.345 . S
C54 C55 1.387 . S
C54 C58 1.391 . S
C55 C54 1.387 . S
C55 C56 1.369 . S
C55 H64 0.929 1_554 S
C56 N53 1.346 . S
C56 C55 1.369 . S
C56 H59 0.928 . S
C57 N53 1.345 . S
C57 C58 1.371 . S
C57 H60 0.931 . S
C58 C54 1.391 . S
C58 C57 1.371 . S
C58 H65 0.930 . S
H59 C56 0.928 . S
H60 C57 0.931 . S
H61 C37 0.930 . S
H62 C34 0.930 . S
H63 C43 0.930 . S
H64 C55 0.929 1_556 S
H65 C58 0.930 . S
C66 C67 1.351 . S
C66 N69 1.368 . S
C66 H71 0.931 . S
C67 C66 1.351 . S
C67 N68 1.373 . S
C67 H95 0.930 . S
N68 C67 1.373 . S
N68 C70 1.340 . S
N69 C66 1.368 . S
N69 C70 1.321 . S
N69 Co72 2.135 . S
C70 N68 1.340 . S
C70 N69 1.321 . S
C70 H94 0.930 . S
H71 C66 0.931 . S
Co72 N69 2.135 . S
Co72 N75 2.121 . S
Co72 O80 2.055 . S
Co72 O83 2.039 . S
Co72 N86 2.140 . S
C73 O74 1.227 . S
C73 O83 1.265 . S
O74 C73 1.227 . S
N75 Co72 2.121 . S
N75 C77 1.375 . S
N75 C78 1.313 . S
C76 C77 1.338 . S
C76 N79 1.377 . S
C76 H96 0.930 . S
C77 N75 1.375 . S
C77 C76 1.338 . S
C77 H81 0.931 . S
C78 N75 1.313 . S
C78 N79 1.344 . S
C78 H82 0.930 . S
N79 C76 1.377 . S
N79 C78 1.344 . S
O80 Co72 2.055 . S
O80 C84 1.253 . S
H81 C77 0.931 . S
H82 C78 0.930 . S
O83 Co72 2.039 . S
O83 C73 1.265 . S
C84 O80 1.253 . S
C84 O85 1.227 . S
O85 C84 1.227 . S
N86 Co72 2.140 . S
N86 C89 1.346 . S
N86 C90 1.345 . S
C87 C88 1.387 . S
C87 C91 1.391 . S
C88 C87 1.387 . S
C88 C89 1.369 . S
C88 H97 0.929 1_554 S
C89 N86 1.346 . S
C89 C88 1.369 . S
C89 H92 0.928 . S
C90 N86 1.345 . S
C90 C91 1.371 . S
C90 H93 0.931 . S
C91 C87 1.391 . S
C91 C90 1.371 . S
C91 H98 0.930 . S
H92 C89 0.928 . S
H93 C90 0.931 . S
H94 C70 0.930 . S
H95 C67 0.930 . S
H96 C76 0.930 . S
H97 C88 0.929 1_556 S
H98 C91 0.930 . S
C99 C100 1.351 1_455 S
C99 N102 1.368 . S
C99 H104 0.931 . S
C100 C99 1.351 1_655 S
C100 N101 1.373 . S
C100 H128 0.930 . S
N101 C100 1.373 . S
N101 C103 1.340 1_655 S
N102 C99 1.368 . S
N102 C103 1.321 . S
N102 Co105 2.135 . S
C103 N101 1.340 1_455 S
C103 N102 1.321 . S
C103 H127 0.930 . S
H104 C99 0.931 . S
Co105 N102 2.135 . S
Co105 N108 2.121 . S
Co105 O113 2.055 . S
Co105 O116 2.039 . S
Co105 N119 2.140 . S
C106 O107 1.227 . S
C106 O116 1.265 . S
O107 C106 1.227 . S
N108 Co105 2.121 . S
N108 C110 1.375 . S
N108 C111 1.313 . S
C109 C110 1.338 . S
C109 N112 1.377 . S
C109 H129 0.930 . S
C110 N108 1.375 . S
C110 C109 1.338 . S
C110 H114 0.931 . S
C111 N108 1.313 . S
C111 N112 1.344 . S
C111 H115 0.930 . S
N112 C109 1.377 . S
N112 C111 1.344 . S
O113 Co105 2.055 . S
O113 C117 1.253 . S
H114 C110 0.931 . S
H115 C111 0.930 . S
O116 Co105 2.039 . S
O116 C106 1.265 . S
C117 O113 1.253 . S
C117 O118 1.227 . S
O118 C117 1.227 . S
N119 Co105 2.140 . S
N119 C122 1.346 . S
N119 C123 1.345 . S
C120 C121 1.387 . S
C120 C124 1.391 . S
C121 C120 1.387 . S
C121 C122 1.369 . S
C121 H130 0.929 1_554 S
C122 N119 1.346 . S
C122 C121 1.369 . S
C122 H125 0.928 . S
C123 N119 1.345 . S
C123 C124 1.371 . S
C123 H126 0.931 . S
C124 C120 1.391 . S
C124 C123 1.371 . S
C124 H131 0.930 . S
H125 C122 0.928 . S
H126 C123 0.931 . S
H127 C103 0.930 . S
H128 C100 0.930 . S
H129 C109 0.930 . S
H130 C121 0.929 1_556 S
H131 C124 0.930 . S
C132 C133 1.351 . S
C132 N135 1.368 . S
C132 H137 0.931 . S
C133 C132 1.351 . S
C133 N134 1.373 . S
C133 H161 0.930 . S
N134 C133 1.373 . S
N134 C136 1.340 . S
N135 C132 1.368 . S
N135 C136 1.321 . S
N135 Co138 2.135 . S
C136 N134 1.340 . S
C136 N135 1.321 . S
C136 H160 0.930 . S
H137 C132 0.931 . S
Co138 N135 2.135 . S
Co138 N141 2.121 . S
Co138 O146 2.055 . S
Co138 O149 2.039 . S
Co138 N152 2.140 . S
C139 O140 1.227 . S
C139 O149 1.265 . S
O140 C139 1.227 . S
N141 Co138 2.121 . S
N141 C143 1.375 . S
N141 C144 1.313 . S
C142 C143 1.338 . S
C142 N145 1.377 . S
C142 H162 0.930 . S
C143 N141 1.375 . S
C143 C142 1.338 . S
C143 H147 0.931 . S
C144 N141 1.313 . S
C144 N145 1.344 . S
C144 H148 0.930 . S
N145 C142 1.377 . S
N145 C144 1.344 . S
O146 Co138 2.055 . S
O146 C150 1.253 . S
H147 C143 0.931 . S
H148 C144 0.930 . S
O149 Co138 2.039 . S
O149 C139 1.265 . S
C150 O146 1.253 . S
C150 O151 1.227 . S
O151 C150 1.227 . S
N152 Co138 2.140 . S
N152 C155 1.346 . S
N152 C156 1.345 . S
C153 C154 1.387 . S
C153 C157 1.391 . S
C154 C153 1.387 . S
C154 C155 1.369 . S
C154 H163 0.929 . S
C155 N152 1.346 . S
C155 C154 1.369 . S
C155 H158 0.928 . S
C156 N152 1.345 . S
C156 C157 1.371 . S
C156 H159 0.931 . S
C157 C153 1.391 . S
C157 C156 1.371 . S
C157 H164 0.930 . S
H158 C155 0.928 . S
H159 C156 0.931 . S
H160 C136 0.930 . S
H161 C133 0.930 . S
H162 C142 0.930 . S
H163 C154 0.929 . S
H164 C157 0.930 . S
C165 C166 1.351 1_455 S
C165 N168 1.368 . S
C165 H170 0.931 . S
C166 C165 1.351 1_655 S
C166 N167 1.373 . S
C166 H194 0.930 . S
N167 C166 1.373 . S
N167 C169 1.340 1_655 S
N168 C165 1.368 . S
N168 C169 1.321 . S
N168 Co171 2.135 . S
C169 N167 1.340 1_455 S
C169 N168 1.321 . S
C169 H193 0.930 . S
H170 C165 0.931 . S
Co171 N168 2.135 . S
Co171 N174 2.121 . S
Co171 O179 2.055 . S
Co171 O182 2.039 . S
Co171 N185 2.140 . S
C172 O173 1.227 . S
C172 O182 1.265 . S
O173 C172 1.227 . S
N174 Co171 2.121 . S
N174 C176 1.375 . S
N174 C177 1.313 . S
C175 C176 1.338 . S
C175 N178 1.377 . S
C175 H195 0.930 . S
C176 N174 1.375 . S
C176 C175 1.338 . S
C176 H180 0.931 . S
C177 N174 1.313 . S
C177 N178 1.344 . S
C177 H181 0.930 . S
N178 C175 1.377 . S
N178 C177 1.344 . S
O179 Co171 2.055 . S
O179 C183 1.253 . S
H180 C176 0.931 . S
H181 C177 0.930 . S
O182 Co171 2.039 . S
O182 C172 1.265 . S
C183 O179 1.253 . S
C183 O184 1.227 . S
O184 C183 1.227 . S
N185 Co171 2.140 . S
N185 C188 1.346 . S
N185 C189 1.345 . S
C186 C187 1.387 . S
C186 C190 1.391 . S
C187 C186 1.387 . S
C187 C188 1.369 . S
C187 H196 0.929 . S
C188 N185 1.346 . S
C188 C187 1.369 . S
C188 H191 0.928 . S
C189 N185 1.345 . S
C189 C190 1.371 . S
C189 H192 0.931 . S
C190 C186 1.391 . S
C190 C189 1.371 . S
C190 H197 0.930 . S
H191 C188 0.928 . S
H192 C189 0.931 . S
H193 C169 0.930 . S
H194 C166 0.930 . S
H195 C175 0.930 . S
H196 C187 0.929 . S
H197 C190 0.930 . S
C198 C199 1.351 1_545 S
C198 N201 1.368 . S
C198 H203 0.931 . S
C199 C198 1.351 1_565 S
C199 N200 1.373 . S
C199 H227 0.930 . S
N200 C199 1.373 . S
N200 C202 1.340 1_565 S
N201 C198 1.368 . S
N201 C202 1.321 . S
N201 Co204 2.135 . S
C202 N200 1.340 1_545 S
C202 N201 1.321 . S
C202 H226 0.930 . S
H203 C198 0.931 . S
Co204 N201 2.135 . S
Co204 N207 2.121 . S
Co204 O212 2.055 . S
Co204 O215 2.039 . S
Co204 N218 2.140 . S
C205 O206 1.227 . S
C205 O215 1.265 . S
O206 C205 1.227 . S
N207 Co204 2.121 . S
N207 C209 1.375 . S
N207 C210 1.313 . S
C208 C209 1.338 . S
C208 N211 1.377 . S
C208 H228 0.930 . S
C209 N207 1.375 . S
C209 C208 1.338 . S
C209 H213 0.931 . S
C210 N207 1.313 . S
C210 N211 1.344 . S
C210 H214 0.930 . S
N211 C208 1.377 . S
N211 C210 1.344 . S
O212 Co204 2.055 . S
O212 C216 1.253 . S
H213 C209 0.931 . S
H214 C210 0.930 . S
O215 Co204 2.039 . S
O215 C205 1.265 . S
C216 O212 1.253 . S
C216 O217 1.227 . S
O217 C216 1.227 . S
N218 Co204 2.140 . S
N218 C221 1.346 . S
N218 C222 1.345 . S
C219 C220 1.387 . S
C219 C223 1.391 . S
C220 C219 1.387 . S
C220 C221 1.369 . S
C220 H229 0.929 . S
C221 N218 1.346 . S
C221 C220 1.369 . S
C221 H224 0.928 . S
C222 N218 1.345 . S
C222 C223 1.371 . S
C222 H225 0.931 . S
C223 C219 1.391 . S
C223 C222 1.371 . S
C223 H230 0.930 . S
H224 C221 0.928 . S
H225 C222 0.931 . S
H226 C202 0.930 . S
H227 C199 0.930 . S
H228 C208 0.930 . S
H229 C220 0.929 . S
H230 C223 0.930 . S
C231 C232 1.351 . S
C231 N234 1.368 . S
C231 H236 0.931 . S
C232 C231 1.351 . S
C232 N233 1.373 . S
C232 H260 0.930 . S
N233 C232 1.373 . S
N233 C235 1.340 . S
N234 C231 1.368 . S
N234 C235 1.321 . S
N234 Co237 2.135 . S
C235 N233 1.340 . S
C235 N234 1.321 . S
C235 H259 0.930 . S
H236 C231 0.931 . S
Co237 N234 2.135 . S
Co237 N240 2.121 . S
Co237 O245 2.055 . S
Co237 O248 2.039 . S
Co237 N251 2.140 . S
C238 O239 1.227 . S
C238 O248 1.265 . S
O239 C238 1.227 . S
N240 Co237 2.121 . S
N240 C242 1.375 . S
N240 C243 1.313 . S
C241 C242 1.338 . S
C241 N244 1.377 . S
C241 H261 0.930 . S
C242 N240 1.375 . S
C242 C241 1.338 . S
C242 H246 0.931 . S
C243 N240 1.313 . S
C243 N244 1.344 . S
C243 H247 0.930 . S
N244 C241 1.377 . S
N244 C243 1.344 . S
O245 Co237 2.055 . S
O245 C249 1.253 . S
H246 C242 0.931 . S
H247 C243 0.930 . S
O248 Co237 2.039 . S
O248 C238 1.265 . S
C249 O245 1.253 . S
C249 O250 1.227 . S
O250 C249 1.227 . S
N251 Co237 2.140 . S
N251 C254 1.346 . S
N251 C255 1.345 . S
C252 C253 1.387 . S
C252 C256 1.391 . S
C253 C252 1.387 . S
C253 C254 1.369 . S
C253 H262 0.929 . S
C254 N251 1.346 . S
C254 C253 1.369 . S
C254 H257 0.928 . S
C255 N251 1.345 . S
C255 C256 1.371 . S
C255 H258 0.931 . S
C256 C252 1.391 . S
C256 C255 1.371 . S
C256 H263 0.930 . S
H257 C254 0.928 . S
H258 C255 0.931 . S
H259 C235 0.930 . S
H260 C232 0.930 . S
H261 C241 0.930 . S
H262 C253 0.929 . S
H263 C256 0.930 . S
C264 C265 1.351 1_565 S
C264 N267 1.368 . S
C264 H269 0.931 . S
C265 C264 1.351 1_545 S
C265 N266 1.373 . S
C265 H293 0.930 . S
N266 C265 1.373 . S
N266 C268 1.340 1_545 S
N267 C264 1.368 . S
N267 C268 1.321 . S
N267 Co270 2.135 . S
C268 N266 1.340 1_565 S
C268 N267 1.321 . S
C268 H292 0.930 . S
H269 C264 0.931 . S
Co270 N267 2.135 . S
Co270 N273 2.121 . S
Co270 O278 2.055 . S
Co270 O281 2.039 . S
Co270 N284 2.140 . S
C271 O272 1.227 . S
C271 O281 1.265 . S
O272 C271 1.227 . S
N273 Co270 2.121 . S
N273 C275 1.375 . S
N273 C276 1.313 . S
C274 C275 1.338 . S
C274 N277 1.377 . S
C274 H294 0.930 . S
C275 N273 1.375 . S
C275 C274 1.338 . S
C275 H279 0.931 . S
C276 N273 1.313 . S
C276 N277 1.344 . S
C276 H280 0.930 . S
N277 C274 1.377 . S
N277 C276 1.344 . S
O278 Co270 2.055 . S
O278 C282 1.253 . S
H279 C275 0.931 . S
H280 C276 0.930 . S
O281 Co270 2.039 . S
O281 C271 1.265 . S
C282 O278 1.253 . S
C282 O283 1.227 . S
O283 C282 1.227 . S
N284 Co270 2.140 . S
N284 C287 1.346 . S
N284 C288 1.345 . S
C285 C286 1.387 . S
C285 C289 1.391 . S
C286 C285 1.387 . S
C286 C287 1.369 . S
C286 H295 0.929 1_556 S
C287 N284 1.346 . S
C287 C286 1.369 . S
C287 H290 0.928 . S
C288 N284 1.345 . S
C288 C289 1.371 . S
C288 H291 0.931 . S
C289 C285 1.391 . S
C289 C288 1.371 . S
C289 H296 0.930 . S
H290 C287 0.928 . S
H291 C288 0.931 . S
H292 C268 0.930 . S
H293 C265 0.930 . S
H294 C274 0.930 . S
H295 C286 0.929 1_554 S
H296 C289 0.930 . S
C297 C298 1.351 . S
C297 N300 1.368 . S
C297 H302 0.931 . S
C298 C297 1.351 . S
C298 N299 1.373 . S
C298 H326 0.930 . S
N299 C298 1.373 . S
N299 C301 1.340 . S
N300 C297 1.368 . S
N300 C301 1.321 . S
N300 Co303 2.135 . S
C301 N299 1.340 . S
C301 N300 1.321 . S
C301 H325 0.930 . S
H302 C297 0.931 . S
Co303 N300 2.135 . S
Co303 N306 2.121 . S
Co303 O311 2.055 . S
Co303 O314 2.039 . S
Co303 N317 2.140 . S
C304 O305 1.227 . S
C304 O314 1.265 . S
O305 C304 1.227 . S
N306 Co303 2.121 . S
N306 C308 1.375 . S
N306 C309 1.313 . S
C307 C308 1.338 . S
C307 N310 1.377 . S
C307 H327 0.930 . S
C308 N306 1.375 . S
C308 C307 1.338 . S
C308 H312 0.931 . S
C309 N306 1.313 . S
C309 N310 1.344 . S
C309 H313 0.930 . S
N310 C307 1.377 . S
N310 C309 1.344 . S
O311 Co303 2.055 . S
O311 C315 1.253 . S
H312 C308 0.931 . S
H313 C309 0.930 . S
O314 Co303 2.039 . S
O314 C304 1.265 . S
C315 O311 1.253 . S
C315 O316 1.227 . S
O316 C315 1.227 . S
N317 Co303 2.140 . S
N317 C320 1.346 . S
N317 C321 1.345 . S
C318 C319 1.387 . S
C318 C322 1.391 . S
C319 C318 1.387 . S
C319 C320 1.369 . S
C319 H328 0.929 1_556 S
C320 N317 1.346 . S
C320 C319 1.369 . S
C320 H323 0.928 . S
C321 N317 1.345 . S
C321 C322 1.371 . S
C321 H324 0.931 . S
C322 C318 1.391 . S
C322 C321 1.371 . S
C322 H329 0.930 . S
H323 C320 0.928 . S
H324 C321 0.931 . S
H325 C301 0.930 . S
H326 C298 0.930 . S
H327 C307 0.930 . S
H328 C319 0.929 1_554 S
H329 C322 0.930 . S
C330 C331 1.351 . S
C330 N333 1.368 . S
C330 H335 0.931 . S
C331 C330 1.351 . S
C331 N332 1.373 . S
C331 H359 0.930 . S
N332 C331 1.373 . S
N332 C334 1.340 . S
N333 C330 1.368 . S
N333 C334 1.321 . S
N333 Co336 2.135 . S
C334 N332 1.340 . S
C334 N333 1.321 . S
C334 H358 0.930 . S
H335 C330 0.931 . S
Co336 N333 2.135 . S
Co336 N339 2.121 . S
Co336 O344 2.055 . S
Co336 O347 2.039 . S
Co336 N350 2.140 . S
C337 O338 1.227 . S
C337 O347 1.265 . S
O338 C337 1.227 . S
N339 Co336 2.121 . S
N339 C341 1.375 . S
N339 C342 1.313 . S
C340 C341 1.338 . S
C340 N343 1.377 . S
C340 H360 0.930 . S
C341 N339 1.375 . S
C341 C340 1.338 . S
C341 H345 0.931 . S
C342 N339 1.313 . S
C342 N343 1.344 . S
C342 H346 0.930 . S
N343 C340 1.377 . S
N343 C342 1.344 . S
O344 Co336 2.055 . S
O344 C348 1.253 . S
H345 C341 0.931 . S
H346 C342 0.930 . S
O347 Co336 2.039 . S
O347 C337 1.265 . S
C348 O344 1.253 . S
C348 O349 1.227 . S
O349 C348 1.227 . S
N350 Co336 2.140 . S
N350 C353 1.346 . S
N350 C354 1.345 . S
C351 C352 1.387 . S
C351 C355 1.391 . S
C352 C351 1.387 . S
C352 C353 1.369 . S
C352 H361 0.929 1_556 S
C353 N350 1.346 . S
C353 C352 1.369 . S
C353 H356 0.928 . S
C354 N350 1.345 . S
C354 C355 1.371 . S
C354 H357 0.931 . S
C355 C351 1.391 . S
C355 C354 1.371 . S
C355 H362 0.930 . S
H356 C353 0.928 . S
H357 C354 0.931 . S
H358 C334 0.930 . S
H359 C331 0.930 . S
H360 C340 0.930 . S
H361 C352 0.929 1_554 S
H362 C355 0.930 . S
C363 C364 1.351 1_655 S
C363 N366 1.368 . S
C363 H368 0.931 . S
C364 C363 1.351 1_455 S
C364 N365 1.373 . S
C364 H392 0.930 . S
N365 C364 1.373 . S
N365 C367 1.340 1_455 S
N366 C363 1.368 . S
N366 C367 1.321 . S
N366 Co369 2.135 . S
C367 N365 1.340 1_655 S
C367 N366 1.321 . S
C367 H391 0.930 . S
H368 C363 0.931 . S
Co369 N366 2.135 . S
Co369 N372 2.121 . S
Co369 O377 2.055 . S
Co369 O380 2.039 . S
Co369 N383 2.140 . S
C370 O371 1.227 . S
C370 O380 1.265 . S
O371 C370 1.227 . S
N372 Co369 2.121 . S
N372 C374 1.375 . S
N372 C375 1.313 . S
C373 C374 1.338 . S
C373 N376 1.377 . S
C373 H393 0.930 . S
C374 N372 1.375 . S
C374 C373 1.338 . S
C374 H378 0.931 . S
C375 N372 1.313 . S
C375 N376 1.344 . S
C375 H379 0.930 . S
N376 C373 1.377 . S
N376 C375 1.344 . S
O377 Co369 2.055 . S
O377 C381 1.253 . S
H378 C374 0.931 . S
H379 C375 0.930 . S
O380 Co369 2.039 . S
O380 C370 1.265 . S
C381 O377 1.253 . S
C381 O382 1.227 . S
O382 C381 1.227 . S
N383 Co369 2.140 . S
N383 C386 1.346 . S
N383 C387 1.345 . S
C384 C385 1.387 . S
C384 C388 1.391 . S
C385 C384 1.387 . S
C385 C386 1.369 . S
C385 H394 0.929 1_556 S
C386 N383 1.346 . S
C386 C385 1.369 . S
C386 H389 0.928 . S
C387 N383 1.345 . S
C387 C388 1.371 . S
C387 H390 0.931 . S
C388 C384 1.391 . S
C388 C387 1.371 . S
C388 H395 0.930 . S
H389 C386 0.928 . S
H390 C387 0.931 . S
H391 C367 0.930 . S
H392 C364 0.930 . S
H393 C373 0.930 . S
H394 C385 0.929 1_554 S
H395 C388 0.930 . S
C396 C397 1.351 . S
C396 N399 1.368 . S
C396 H401 0.931 . S
C397 C396 1.351 . S
C397 N398 1.373 . S
C397 H425 0.930 . S
N398 C397 1.373 . S
N398 C400 1.340 . S
N399 C396 1.368 . S
N399 C400 1.321 . S
N399 Co402 2.135 . S
C400 N398 1.340 . S
C400 N399 1.321 . S
C400 H424 0.930 . S
H401 C396 0.931 . S
Co402 N399 2.135 . S
Co402 N405 2.121 . S
Co402 O410 2.055 . S
Co402 O413 2.039 . S
Co402 N416 2.140 . S
C403 O404 1.227 . S
C403 O413 1.265 . S
O404 C403 1.227 . S
N405 Co402 2.121 . S
N405 C407 1.375 . S
N405 C408 1.313 . S
C406 C407 1.338 . S
C406 N409 1.377 . S
C406 H426 0.930 . S
C407 N405 1.375 . S
C407 C406 1.338 . S
C407 H411 0.931 . S
C408 N405 1.313 . S
C408 N409 1.344 . S
C408 H412 0.930 . S
N409 C406 1.377 . S
N409 C408 1.344 . S
O410 Co402 2.055 . S
O410 C414 1.253 . S
H411 C407 0.931 . S
H412 C408 0.930 . S
O413 Co402 2.039 . S
O413 C403 1.265 . S
C414 O410 1.253 . S
C414 O415 1.227 . S
O415 C414 1.227 . S
N416 Co402 2.140 . S
N416 C419 1.346 . S
N416 C420 1.345 . S
C417 C418 1.387 . S
C417 C421 1.391 . S
C418 C417 1.387 . S
C418 C419 1.369 . S
C418 H427 0.929 . S
C419 N416 1.346 . S
C419 C418 1.369 . S
C419 H422 0.928 . S
C420 N416 1.345 . S
C420 C421 1.371 . S
C420 H423 0.931 . S
C421 C417 1.391 . S
C421 C420 1.371 . S
C421 H428 0.930 . S
H422 C419 0.928 . S
H423 C420 0.931 . S
H424 C400 0.930 . S
H425 C397 0.930 . S
H426 C406 0.930 . S
H427 C418 0.929 . S
H428 C421 0.930 . S
C429 C430 1.351 1_655 S
C429 N432 1.368 . S
C429 H434 0.931 . S
C430 C429 1.351 1_455 S
C430 N431 1.373 . S
C430 H458 0.930 . S
N431 C430 1.373 . S
N431 C433 1.340 1_455 S
N432 C429 1.368 . S
N432 C433 1.321 . S
N432 Co435 2.135 . S
C433 N431 1.340 1_655 S
C433 N432 1.321 . S
C433 H457 0.930 . S
H434 C429 0.931 . S
Co435 N432 2.135 . S
Co435 N438 2.121 . S
Co435 O443 2.055 . S
Co435 O446 2.039 . S
Co435 N449 2.140 . S
C436 O437 1.227 . S
C436 O446 1.265 . S
O437 C436 1.227 . S
N438 Co435 2.121 . S
N438 C440 1.375 . S
N438 C441 1.313 . S
C439 C440 1.338 . S
C439 N442 1.377 . S
C439 H459 0.930 . S
C440 N438 1.375 . S
C440 C439 1.338 . S
C440 H444 0.931 . S
C441 N438 1.313 . S
C441 N442 1.344 . S
C441 H445 0.930 . S
N442 C439 1.377 . S
N442 C441 1.344 . S
O443 Co435 2.055 . S
O443 C447 1.253 . S
H444 C440 0.931 . S
H445 C441 0.930 . S
O446 Co435 2.039 . S
O446 C436 1.265 . S
C447 O443 1.253 . S
C447 O448 1.227 . S
O448 C447 1.227 . S
N449 Co435 2.140 . S
N449 C452 1.346 . S
N449 C453 1.345 . S
C450 C451 1.387 . S
C450 C454 1.391 . S
C451 C450 1.387 . S
C451 C452 1.369 . S
C451 H460 0.929 . S
C452 N449 1.346 . S
C452 C451 1.369 . S
C452 H455 0.928 . S
C453 N449 1.345 . S
C453 C454 1.371 . S
C453 H456 0.931 . S
C454 C450 1.391 . S
C454 C453 1.371 . S
C454 H461 0.930 . S
H455 C452 0.928 . S
H456 C453 0.931 . S
H457 C433 0.930 . S
H458 C430 0.930 . S
H459 C439 0.930 . S
H460 C451 0.929 . S
H461 C454 0.930 . S
C462 C463 1.351 1_565 S
C462 N465 1.368 . S
C462 H467 0.931 . S
C463 C462 1.351 1_545 S
C463 N464 1.373 . S
C463 H491 0.930 . S
N464 C463 1.373 . S
N464 C466 1.340 1_545 S
N465 C462 1.368 . S
N465 C466 1.321 . S
N465 Co468 2.135 . S
C466 N464 1.340 1_565 S
C466 N465 1.321 . S
C466 H490 0.930 . S
H467 C462 0.931 . S
Co468 N465 2.135 . S
Co468 N471 2.121 . S
Co468 O476 2.055 . S
Co468 O479 2.039 . S
Co468 N482 2.140 . S
C469 O470 1.227 . S
C469 O479 1.265 . S
O470 C469 1.227 . S
N471 Co468 2.121 . S
N471 C473 1.375 . S
N471 C474 1.313 . S
C472 C473 1.338 . S
C472 N475 1.377 . S
C472 H492 0.930 . S
C473 N471 1.375 . S
C473 C472 1.338 . S
C473 H477 0.931 . S
C474 N471 1.313 . S
C474 N475 1.344 . S
C474 H478 0.930 . S
N475 C472 1.377 . S
N475 C474 1.344 . S
O476 Co468 2.055 . S
O476 C480 1.253 . S
H477 C473 0.931 . S
H478 C474 0.930 . S
O479 Co468 2.039 . S
O479 C469 1.265 . S
C480 O476 1.253 . S
C480 O481 1.227 . S
O481 C480 1.227 . S
N482 Co468 2.140 . S
N482 C485 1.346 . S
N482 C486 1.345 . S
C483 C484 1.387 . S
C483 C487 1.391 . S
C484 C483 1.387 . S
C484 C485 1.369 . S
C484 H493 0.929 . S
C485 N482 1.346 . S
C485 C484 1.369 . S
C485 H488 0.928 . S
C486 N482 1.345 . S
C486 C487 1.371 . S
C486 H489 0.931 . S
C487 C483 1.391 . S
C487 C486 1.371 . S
C487 H494 0.930 . S
H488 C485 0.928 . S
H489 C486 0.931 . S
H490 C466 0.930 . S
H491 C463 0.930 . S
H492 C472 0.930 . S
H493 C484 0.929 . S
H494 C487 0.930 . S
C495 C496 1.351 . S
C495 N498 1.368 . S
C495 H500 0.931 . S
C496 C495 1.351 . S
C496 N497 1.373 . S
C496 H524 0.930 . S
N497 C496 1.373 . S
N497 C499 1.340 . S
N498 C495 1.368 . S
N498 C499 1.321 . S
N498 Co501 2.135 . S
C499 N497 1.340 . S
C499 N498 1.321 . S
C499 H523 0.930 . S
H500 C495 0.931 . S
Co501 N498 2.135 . S
Co501 N504 2.121 . S
Co501 O509 2.055 . S
Co501 O512 2.039 . S
Co501 N515 2.140 . S
C502 O503 1.227 . S
C502 O512 1.265 . S
O503 C502 1.227 . S
N504 Co501 2.121 . S
N504 C506 1.375 . S
N504 C507 1.313 . S
C505 C506 1.338 . S
C505 N508 1.377 . S
C505 H525 0.930 . S
C506 N504 1.375 . S
C506 C505 1.338 . S
C506 H510 0.931 . S
C507 N504 1.313 . S
C507 N508 1.344 . S
C507 H511 0.930 . S
N508 C505 1.377 . S
N508 C507 1.344 . S
O509 Co501 2.055 . S
O509 C513 1.253 . S
H510 C506 0.931 . S
H511 C507 0.930 . S
O512 Co501 2.039 . S
O512 C502 1.265 . S
C513 O509 1.253 . S
C513 O514 1.227 . S
O514 C513 1.227 . S
N515 Co501 2.140 . S
N515 C518 1.346 . S
N515 C519 1.345 . S
C516 C517 1.387 . S
C516 C520 1.391 . S
C517 C516 1.387 . S
C517 C518 1.369 . S
C517 H526 0.929 . S
C518 N515 1.346 . S
C518 C517 1.369 . S
C518 H521 0.928 . S
C519 N515 1.345 . S
C519 C520 1.371 . S
C519 H522 0.931 . S
C520 C516 1.391 . S
C520 C519 1.371 . S
C520 H527 0.930 . S
H521 C518 0.928 . S
H522 C519 0.931 . S
H523 C499 0.930 . S
H524 C496 0.930 . S
H525 C505 0.930 . S
H526 C517 0.929 . S
H527 C520 0.930 . S
C528 C529 1.387 . S
C528 H532 0.950 . S
C528 C537 1.390 . S
C529 C528 1.387 . S
C529 C531 1.387 . S
H530 C537 0.950 . S
C531 C529 1.387 . S
C531 C533 1.390 . S
C531 H535 0.950 . S
H532 C528 0.950 . S
C533 C531 1.390 . S
C533 C534 1.387 . S
C533 H536 0.950 . S
C534 C533 1.387 . S
C534 C537 1.387 . S
H535 C531 0.950 . S
H536 C533 0.950 . S
C537 C528 1.390 . S
C537 H530 0.950 . S
C537 C534 1.387 . S
C538 C539 1.387 . S
C538 H542 0.950 . S
C538 C547 1.390 . S
C539 C538 1.387 . S
C539 C541 1.387 . S
H540 C547 0.950 . S
C541 C539 1.387 . S
C541 C543 1.390 . S
C541 H545 0.950 . S
H542 C538 0.950 . S
C543 C541 1.390 . S
C543 C544 1.387 . S
C543 H546 0.950 . S
C544 C543 1.387 . S
C544 C547 1.387 . S
H545 C541 0.950 . S
H546 C543 0.950 . S
C547 C538 1.390 . S
C547 H540 0.950 . S
C547 C544 1.387 . S
C548 C549 1.387 . S
C548 H552 0.950 . S
C548 C557 1.390 . S
C549 C548 1.387 . S
C549 C551 1.387 . S
H550 C557 0.950 . S
C551 C549 1.387 . S
C551 C553 1.390 . S
C551 H555 0.950 . S
H552 C548 0.950 . S
C553 C551 1.390 . S
C553 C554 1.387 . S
C553 H556 0.950 . S
C554 C553 1.387 . S
C554 C557 1.387 . S
H555 C551 0.950 . S
H556 C553 0.950 . S
C557 C548 1.390 . S
C557 H550 0.950 . S
C557 C554 1.387 . S
C558 C559 1.387 . S
C558 H562 0.950 . S
C558 C567 1.390 . S
C559 C558 1.387 . S
C559 C561 1.387 . S
H560 C567 0.950 . S
C561 C559 1.387 . S
C561 C563 1.390 . S
C561 H565 0.950 . S
H562 C558 0.950 . S
C563 C561 1.390 . S
C563 C564 1.387 . S
C563 H566 0.950 . S
C564 C563 1.387 . S
C564 C567 1.387 . S
H565 C561 0.950 . S
H566 C563 0.950 . S
C567 C558 1.390 . S
C567 H560 0.950 . S
C567 C564 1.387 . S
C568 C569 1.387 . S
C568 H572 0.950 . S
C568 C577 1.390 . S
C569 C568 1.387 . S
C569 C571 1.387 . S
H570 C577 0.950 . S
C571 C569 1.387 . S
C571 C573 1.390 . S
C571 H575 0.950 . S
H572 C568 0.950 . S
C573 C571 1.390 . S
C573 C574 1.387 . S
C573 H576 0.950 . S
C574 C573 1.387 . S
C574 C577 1.387 . S
H575 C571 0.950 . S
H576 C573 0.950 . S
C577 C568 1.390 . S
C577 H570 0.950 . S
C577 C574 1.387 . S
C578 C579 1.387 . S
C578 H582 0.950 . S
C578 C587 1.390 . S
C579 C578 1.387 . S
C579 C581 1.387 . S
H580 C587 0.950 . S
C581 C579 1.387 . S
C581 C583 1.390 . S
C581 H585 0.950 . S
H582 C578 0.950 . S
C583 C581 1.390 . S
C583 C584 1.387 . S
C583 H586 0.950 . S
C584 C583 1.387 . S
C584 C587 1.387 . S
H585 C581 0.950 . S
H586 C583 0.950 . S
C587 C578 1.390 . S
C587 H580 0.950 . S
C587 C584 1.387 . S
C588 C589 1.387 . S
C588 H592 0.950 . S
C588 C597 1.390 . S
C589 C588 1.387 . S
C589 C591 1.387 . S
H590 C597 0.950 . S
C591 C589 1.387 . S
C591 C593 1.390 . S
C591 H595 0.950 . S
H592 C588 0.950 . S
C593 C591 1.390 . S
C593 C594 1.387 . S
C593 H596 0.950 . S
C594 C593 1.387 . S
C594 C597 1.387 . S
H595 C591 0.950 . S
H596 C593 0.950 . S
C597 C588 1.390 . S
C597 H590 0.950 . S
C597 C594 1.387 . S
C598 C599 1.387 . S
C598 H602 0.950 . S
C598 C607 1.390 . S
C599 C598 1.387 . S
C599 C601 1.387 . S
H600 C607 0.950 . S
C601 C599 1.387 . S
C601 C603 1.390 . S
C601 H605 0.950 . S
H602 C598 0.950 . S
C603 C601 1.390 . S
C603 C604 1.387 . S
C603 H606 0.950 . S
C604 C603 1.387 . S
C604 C607 1.387 . S
H605 C601 0.950 . S
H606 C603 0.950 . S
C607 C598 1.390 . S
C607 H600 0.950 . S
C607 C604 1.387 . S
C608 C609 1.387 1_565 S
C608 H612 0.950 . S
C608 C617 1.390 . S
C609 C608 1.387 1_545 S
C609 C611 1.387 1_556 S
H610 C617 0.950 . S
C611 C609 1.387 1_554 S
C611 C613 1.390 . S
C611 H615 0.950 . S
H612 C608 0.950 . S
C613 C611 1.390 . S
C613 C614 1.387 1_545 S
C613 H616 0.950 . S
C614 C613 1.387 1_565 S
C614 C617 1.387 1_554 S
H615 C611 0.950 . S
H616 C613 0.950 . S
C617 C608 1.390 . S
C617 H610 0.950 . S
C617 C614 1.387 1_556 S
C618 C619 1.387 . S
C618 H622 0.950 . S
C618 C627 1.390 . S
C619 C618 1.387 . S
C619 C621 1.387 1_556 S
H620 C627 0.950 . S
C621 C619 1.387 1_554 S
C621 C623 1.390 . S
C621 H625 0.950 . S
H622 C618 0.950 . S
C623 C621 1.390 . S
C623 C624 1.387 . S
C623 H626 0.950 . S
C624 C623 1.387 . S
C624 C627 1.387 1_554 S
H625 C621 0.950 . S
H626 C623 0.950 . S
C627 C618 1.390 . S
C627 H620 0.950 . S
C627 C624 1.387 1_556 S
C628 C629 1.387 . S
C628 H632 0.950 . S
C628 C637 1.390 1_456 S
C629 C628 1.387 . S
C629 C631 1.387 . S
H630 C637 0.950 . S
C631 C629 1.387 . S
C631 C633 1.390 1_456 S
C631 H635 0.950 . S
H632 C628 0.950 . S
C633 C631 1.390 1_654 S
C633 C634 1.387 . S
C633 H636 0.950 . S
C634 C633 1.387 . S
C634 C637 1.387 . S
H635 C631 0.950 . S
H636 C633 0.950 . S
C637 C628 1.390 1_654 S
C637 H630 0.950 . S
C637 C634 1.387 . S
C638 C639 1.387 1_565 S
C638 H642 0.950 . S
C638 C647 1.387 1_556 S
C639 C638 1.387 1_545 S
C639 C641 1.391 1_455 S
H640 C647 0.950 . S
C641 C639 1.391 1_655 S
C641 C643 1.387 1_556 S
C641 H645 0.950 . S
H642 C638 0.950 . S
C643 C641 1.387 1_554 S
C643 C644 1.387 1_545 S
C643 H646 0.950 . S
C644 C643 1.387 1_565 S
C644 C647 1.391 1_655 S
H645 C641 0.950 . S
H646 C643 0.950 . S
C647 C638 1.387 1_554 S
C647 H640 0.950 . S
C647 C644 1.391 1_455 S
C648 C649 1.387 . S
C648 H652 0.950 . S
C648 C657 1.390 . S
C649 C648 1.387 . S
C649 C651 1.387 . S
H650 C657 0.950 . S
C651 C649 1.387 . S
C651 C653 1.390 . S
C651 H655 0.950 . S
H652 C648 0.950 . S
C653 C651 1.390 . S
C653 C654 1.387 . S
C653 H656 0.950 . S
C654 C653 1.387 . S
C654 C657 1.387 . S
H655 C651 0.950 . S
H656 C653 0.950 . S
C657 C648 1.390 . S
C657 H650 0.950 . S
C657 C654 1.387 . S
C658 C659 1.387 1_655 S
C658 H662 0.950 . S
C658 C667 1.390 . S
C659 C658 1.387 1_455 S
C659 C661 1.387 . S
H660 C667 0.950 . S
C661 C659 1.387 . S
C661 C663 1.390 . S
C661 H665 0.950 . S
H662 C658 0.950 . S
C663 C661 1.390 . S
C663 C664 1.387 1_455 S
C663 H666 0.950 . S
C664 C663 1.387 1_655 S
C664 C667 1.387 . S
H665 C661 0.950 . S
H666 C663 0.950 . S
C667 C658 1.390 . S
C667 H660 0.950 . S
C667 C664 1.387 . S
C668 C669 1.387 . S
C668 H672 0.950 . S
C668 C677 1.390 1_655 S
C669 C668 1.387 . S
C669 C671 1.387 1_565 S
H670 C677 0.950 . S
C671 C669 1.387 1_545 S
C671 C673 1.390 1_655 S
C671 H675 0.950 . S
H672 C668 0.950 . S
C673 C671 1.390 1_455 S
C673 C674 1.387 . S
C673 H676 0.950 . S
C674 C673 1.387 . S
C674 C677 1.387 1_545 S
H675 C671 0.950 . S
H676 C673 0.950 . S
C677 C668 1.390 1_455 S
C677 H670 0.950 . S
C677 C674 1.387 1_565 S
C678 C679 1.387 . S
C678 H682 0.950 . S
C678 C687 1.390 . S
C679 C678 1.387 . S
C679 C681 1.387 1_565 S
H680 C687 0.950 . S
C681 C679 1.387 1_545 S
C681 C683 1.390 . S
C681 H685 0.950 . S
H682 C678 0.950 . S
C683 C681 1.390 . S
C683 C684 1.387 . S
C683 H686 0.950 . S
C684 C683 1.387 . S
C684 C687 1.387 1_545 S
H685 C681 0.950 . S
H686 C683 0.950 . S
C687 C678 1.390 . S
C687 H680 0.950 . S
C687 C684 1.387 1_565 S
C688 C689 1.387 1_554 S
C688 H692 0.950 . S
C688 C697 1.390 . S
C689 C688 1.387 1_556 S
C689 C691 1.387 . S
H690 C697 0.950 . S
C691 C689 1.387 . S
C691 C693 1.390 1_556 S
C691 H695 0.950 . S
H692 C688 0.950 . S
C693 C691 1.390 1_554 S
C693 C694 1.387 . S
C693 H696 0.950 . S
C694 C693 1.387 . S
C694 C697 1.387 . S
H695 C691 0.950 . S
H696 C693 0.950 . S
C697 C688 1.390 . S
C697 H690 0.950 . S
C697 C694 1.387 . S
C698 C699 1.387 . S
C698 H702 0.950 . S
C698 C707 1.390 1_556 S
C699 C698 1.387 . S
C699 C701 1.387 1_556 S
H700 C707 0.950 . S
C701 C699 1.387 1_554 S
C701 C703 1.390 . S
C701 H705 0.950 . S
H702 C698 0.950 . S
C703 C701 1.390 . S
C703 C704 1.387 . S
C703 H706 0.950 . S
C704 C703 1.387 . S
C704 C707 1.387 . S
H705 C701 0.950 . S
H706 C703 0.950 . S
C707 C698 1.390 1_554 S
C707 H700 0.950 . S
C707 C704 1.387 . S
C708 C709 1.392 . S
C708 H712 0.950 . S
C708 C717 1.390 1_556 S
C709 C708 1.392 . S
C709 C711 1.368 1_556 S
H710 C717 0.950 . S
C711 C709 1.368 1_554 S
C711 C713 1.390 . S
C711 H715 0.950 . S
H712 C708 0.950 . S
C713 C711 1.390 . S
C713 C714 1.387 . S
C713 H716 0.950 . S
C714 C713 1.387 . S
C714 C717 1.387 . S
H715 C711 0.950 . S
H716 C713 0.950 . S
C717 C708 1.390 1_554 S
C717 H710 0.950 . S
C717 C714 1.387 . S
C718 C719 1.367 1_554 S
C718 H722 0.967 . S
C718 C727 1.390 . S
C719 C718 1.367 1_556 S
C719 C721 1.393 . S
H720 C727 0.950 . S
C721 C719 1.393 . S
C721 C723 1.390 1_556 S
C721 H725 0.950 . S
H722 C718 0.967 . S
C723 C721 1.390 1_554 S
C723 C724 1.387 . S
C723 H726 0.950 . S
C724 C723 1.387 . S
C724 C727 1.387 . S
H725 C721 0.950 . S
H726 C723 0.950 . S
C727 C718 1.390 . S
C727 H720 0.950 . S
C727 C724 1.387 . S
C728 C729 1.387 . S
C728 H732 0.950 . S
C728 C737 1.390 . S
C729 C728 1.387 . S
C729 C731 1.387 . S
H730 C737 0.950 . S
C731 C729 1.387 . S
C731 C733 1.390 . S
C731 H735 0.950 . S
H732 C728 0.950 . S
C733 C731 1.390 . S
C733 C734 1.387 . S
C733 H736 0.950 . S
C734 C733 1.387 . S
C734 C737 1.387 . S
H735 C731 0.950 . S
H736 C733 0.950 . S
C737 C728 1.390 . S
C737 H730 0.950 . S
C737 C734 1.387 . S
C738 C739 1.387 . S
C738 H742 0.950 . S
C738 C747 1.390 . S
C739 C738 1.387 . S
C739 C741 1.387 . S
H740 C747 0.950 . S
C741 C739 1.387 . S
C741 C743 1.390 . S
C741 H745 0.950 . S
H742 C738 0.950 . S
C743 C741 1.390 . S
C743 C744 1.387 . S
C743 H746 0.950 . S
C744 C743 1.387 . S
C744 C747 1.387 . S
H745 C741 0.950 . S
H746 C743 0.950 . S
C747 C738 1.390 . S
C747 H740 0.950 . S
C747 C744 1.387 . S
C748 C749 1.387 . S
C748 H752 0.950 . S
C748 C757 1.390 . S
C749 C748 1.387 . S
C749 C751 1.387 . S
H750 C757 0.950 . S
C751 C749 1.387 . S
C751 C753 1.390 . S
C751 H755 0.950 . S
H752 C748 0.950 . S
C753 C751 1.390 . S
C753 C754 1.387 . S
C753 H756 0.950 . S
C754 C753 1.387 . S
C754 C757 1.387 . S
H755 C751 0.950 . S
H756 C753 0.950 . S
C757 C748 1.390 . S
C757 H750 0.950 . S
C757 C754 1.387 . S
C758 C759 1.387 . S
C758 H762 0.950 . S
C758 C767 1.390 . S
C759 C758 1.387 . S
C759 C761 1.387 . S
H760 C767 0.950 . S
C761 C759 1.387 . S
C761 C763 1.390 . S
C761 H765 0.950 . S
H762 C758 0.950 . S
C763 C761 1.390 . S
C763 C764 1.387 . S
C763 H766 0.950 1_565 S
C764 C763 1.387 . S
C764 C767 1.387 . S
H765 C761 0.950 . S
H766 C763 0.950 1_545 S
C767 C758 1.390 . S
C767 H760 0.950 . S
C767 C764 1.387 . S
C768 C769 1.387 1_556 S
C768 H772 0.950 . S
C768 C777 1.390 . S
C769 C768 1.387 1_554 S
C769 C771 1.387 . S
H770 C777 0.950 . S
C771 C769 1.387 . S
C771 C773 1.390 1_554 S
C771 H775 0.950 . S
H772 C768 0.950 . S
C773 C771 1.390 1_556 S
C773 C774 1.387 . S
C773 H776 0.950 1_556 S
C774 C773 1.387 . S
C774 C777 1.387 . S
H775 C771 0.950 . S
H776 C773 0.950 1_554 S
C777 C768 1.390 . S
C777 H770 0.950 . S
C777 C774 1.387 . S
C778 C779 1.387 1_556 S
C778 H782 0.950 . S
C778 C787 1.390 . S
C779 C778 1.387 1_554 S
C779 C781 1.387 . S
H780 C787 0.950 . S
C781 C779 1.387 . S
C781 C783 1.390 1_554 S
C781 H785 0.950 . S
H782 C778 0.950 . S
C783 C781 1.390 1_556 S
C783 C784 1.387 . S
C783 H786 0.950 . S
C784 C783 1.387 . S
C784 C787 1.387 . S
H785 C781 0.950 . S
H786 C783 0.950 . S
C787 C778 1.390 . S
C787 H780 0.950 . S
C787 C784 1.387 . S
C788 C789 1.364 1_556 S
C788 H792 0.950 . S
C788 C797 1.390 . S
C789 C788 1.364 1_554 S
C789 C791 1.395 . S
H790 C797 0.950 . S
C791 C789 1.395 . S
C791 C793 1.390 1_554 S
C791 H795 0.950 . S
H792 C788 0.950 . S
C793 C791 1.390 1_556 S
C793 C794 1.387 . S
C793 H796 0.950 . S
C794 C793 1.387 . S
C794 C797 1.387 . S
H795 C791 0.950 . S
H796 C793 0.950 . S
C797 C788 1.390 . S
C797 H790 0.950 . S
C797 C794 1.387 . S
C798 C799 1.395 . S
C798 H802 0.950 . S
C798 C807 1.390 1_554 S
C799 C798 1.395 . S
C799 C801 1.364 1_554 S
H800 C807 0.950 . S
C801 C799 1.364 1_556 S
C801 C803 1.390 . S
C801 H805 0.950 . S
H802 C798 0.950 . S
C803 C801 1.390 . S
C803 C804 1.387 . S
C803 H806 0.950 . S
C804 C803 1.387 . S
C804 C807 1.387 . S
H805 C801 0.950 . S
H806 C803 0.950 . S
C807 C798 1.390 1_556 S
C807 H800 0.950 . S
C807 C804 1.387 . S
C808 C809 1.387 . S
C808 H812 0.950 . S
C808 C817 1.390 . S
C809 C808 1.387 . S
C809 C811 1.387 . S
H810 C817 0.950 . S
C811 C809 1.387 . S
C811 C813 1.390 . S
C811 H815 0.950 . S
H812 C808 0.950 . S
C813 C811 1.390 . S
C813 C814 1.387 . S
C813 H816 0.950 . S
C814 C813 1.387 . S
C814 C817 1.387 . S
H815 C811 0.950 . S
H816 C813 0.950 . S
C817 C808 1.390 . S
C817 H810 0.950 . S
C817 C814 1.387 . S
C818 C819 1.387 . S
C818 H822 0.950 . S
C818 C827 1.390 . S
C819 C818 1.387 . S
C819 C821 1.387 . S
H820 C827 0.950 . S
C821 C819 1.387 . S
C821 C823 1.390 . S
C821 H825 0.950 . S
H822 C818 0.950 . S
C823 C821 1.390 . S
C823 C824 1.387 . S
C823 H826 0.950 . S
C824 C823 1.387 . S
C824 C827 1.387 . S
H825 C821 0.950 . S
H826 C823 0.950 . S
C827 C818 1.390 . S
C827 H820 0.950 . S
C827 C824 1.387 . S
C828 C829 1.387 . S
C828 H832 0.950 . S
C828 C837 1.390 . S
C829 C828 1.387 . S
C829 C831 1.387 . S
H830 C837 0.950 . S
C831 C829 1.387 . S
C831 C833 1.390 . S
C831 H835 0.950 . S
H832 C828 0.950 . S
C833 C831 1.390 . S
C833 C834 1.387 . S
C833 H836 0.950 . S
C834 C833 1.387 . S
C834 C837 1.387 . S
H835 C831 0.950 . S
H836 C833 0.950 . S
C837 C828 1.390 . S
C837 H830 0.950 . S
C837 C834 1.387 . S
C838 C839 1.387 . S
C838 H842 0.950 . S
C838 C847 1.390 . S
C839 C838 1.387 . S
C839 C841 1.387 . S
H840 C847 0.950 1_565 S
C841 C839 1.387 . S
C841 C843 1.390 . S
C841 H845 0.950 . S
H842 C838 0.950 . S
C843 C841 1.390 . S
C843 C844 1.387 . S
C843 H846 0.950 . S
C844 C843 1.387 . S
C844 C847 1.387 . S
H845 C841 0.950 . S
H846 C843 0.950 . S
C847 C838 1.390 . S
C847 H840 0.950 1_545 S
C847 C844 1.387 . S
C848 C849 1.387 . S
C848 H852 0.950 . S
C848 C857 1.390 . S
C849 C848 1.387 . S
C849 C851 1.387 . S
H850 C857 0.950 . S
C851 C849 1.387 . S
C851 C853 1.390 . S
C851 H855 0.950 . S
H852 C848 0.950 . S
C853 C851 1.390 . S
C853 C854 1.387 . S
C853 H856 0.950 . S
C854 C853 1.387 . S
C854 C857 1.387 . S
H855 C851 0.950 . S
H856 C853 0.950 . S
C857 C848 1.390 . S
C857 H850 0.950 . S
C857 C854 1.387 . S
C858 C859 1.387 . S
C858 H862 0.950 . S
C858 C867 1.390 . S
C859 C858 1.387 . S
C859 C861 1.387 . S
H860 C867 0.950 . S
C861 C859 1.387 . S
C861 C863 1.390 . S
C861 H865 0.950 . S
H862 C858 0.950 . S
C863 C861 1.390 . S
C863 C864 1.387 . S
C863 H866 0.950 . S
C864 C863 1.387 . S
C864 C867 1.387 . S
H865 C861 0.950 . S
H866 C863 0.950 . S
C867 C858 1.390 . S
C867 H860 0.950 . S
C867 C864 1.387 . S
C868 C869 1.387 . S
C868 H872 0.950 . S
C868 C877 1.390 . S
C869 C868 1.387 . S
C869 C871 1.387 . S
H870 C877 0.950 . S
C871 C869 1.387 . S
C871 C873 1.390 . S
C871 H875 0.950 . S
H872 C868 0.950 . S
C873 C871 1.390 . S
C873 C874 1.387 . S
C873 H876 0.950 . S
C874 C873 1.387 . S
C874 C877 1.387 . S
H875 C871 0.950 . S
H876 C873 0.950 . S
C877 C868 1.390 . S
C877 H870 0.950 . S
C877 C874 1.387 . S
C878 C879 1.387 . S
C878 H882 0.950 . S
C878 C887 1.390 . S
C879 C878 1.387 . S
C879 C881 1.387 . S
H880 C887 0.950 . S
C881 C879 1.387 . S
C881 C883 1.390 . S
C881 H885 0.950 . S
H882 C878 0.950 . S
C883 C881 1.390 . S
C883 C884 1.387 . S
C883 H886 0.950 . S
C884 C883 1.387 . S
C884 C887 1.387 . S
H885 C881 0.950 . S
H886 C883 0.950 . S
C887 C878 1.390 . S
C887 H880 0.950 . S
C887 C884 1.387 . S
C888 C889 1.387 . S
C888 H892 0.950 . S
C888 C897 1.390 . S
C889 C888 1.387 . S
C889 C891 1.387 . S
H890 C897 0.950 . S
C891 C889 1.387 . S
C891 C893 1.390 . S
C891 H895 0.950 . S
H892 C888 0.950 . S
C893 C891 1.390 . S
C893 C894 1.387 . S
C893 H896 0.950 . S
C894 C893 1.387 . S
C894 C897 1.387 . S
H895 C891 0.950 . S
H896 C893 0.950 . S
C897 C888 1.390 . S
C897 H890 0.950 . S
C897 C894 1.387 . S
C898 C899 1.387 . S
C898 H902 0.950 . S
C898 C907 1.390 . S
C899 C898 1.387 . S
C899 C901 1.387 . S
H900 C907 0.950 . S
C901 C899 1.387 . S
C901 C903 1.390 . S
C901 H905 0.950 . S
H902 C898 0.950 . S
C903 C901 1.390 . S
C903 C904 1.387 . S
C903 H906 0.950 . S
C904 C903 1.387 . S
C904 C907 1.387 . S
H905 C901 0.950 . S
H906 C903 0.950 . S
C907 C898 1.390 . S
C907 H900 0.950 . S
C907 C904 1.387 . S
C908 C909 1.387 . S
C908 H912 0.950 . S
C908 C917 1.390 . S
C909 C908 1.387 . S
C909 C911 1.387 . S
H910 C917 0.950 . S
C911 C909 1.387 . S
C911 C913 1.390 . S
C911 H915 0.950 . S
H912 C908 0.950 . S
C913 C911 1.390 . S
C913 C914 1.387 . S
C913 H916 0.950 . S
C914 C913 1.387 . S
C914 C917 1.387 . S
H915 C911 0.950 . S
H916 C913 0.950 . S
C917 C908 1.390 . S
C917 H910 0.950 . S
C917 C914 1.387 . S
C918 C919 1.387 . S
C918 H922 0.950 . S
C918 C927 1.390 . S
C919 C918 1.387 . S
C919 C921 1.387 . S
H920 C927 0.950 . S
C921 C919 1.387 . S
C921 C923 1.390 . S
C921 H925 0.950 . S
H922 C918 0.950 . S
C923 C921 1.390 . S
C923 C924 1.387 . S
C923 H926 0.950 . S
C924 C923 1.387 . S
C924 C927 1.387 . S
H925 C921 0.950 . S
H926 C923 0.950 . S
C927 C918 1.390 . S
C927 H920 0.950 . S
C927 C924 1.387 . S
C529 C18 1.889 . S
C534 C216 1.889 . S
C539 C249 1.889 . S
C544 C51 1.889 . S
C549 C150 1.885 . S
C554 C84 1.885 . S
C559 C183 1.889 . S
C564 C117 1.889 . S
C569 C282 1.889 . S
C574 C480 1.889 . S
C579 C315 1.885 . S
C584 C513 1.885 . S
C589 C414 1.889 . S
C594 C348 1.889 . S
C599 C381 1.885 . S
C604 C447 1.885 . S
C609 N266 2.403 . S
C614 N2 2.403 . S
C619 N299 2.403 . S
C624 N35 2.403 . S
C629 N332 2.403 . S
C634 N68 2.403 . S
C639 N365 2.403 . S
C644 N101 2.403 . S
C649 N398 2.403 . S
C654 N134 2.403 . S
C659 N431 2.403 . S
C664 N167 2.403 . S
C669 N200 2.403 . S
C674 N464 2.403 . S
C679 N233 2.403 . S
C684 N497 2.403 . S
C689 C318 1.018 . S
C694 C7 1.080 . S
C699 C351 1.022 . S
C704 C40 1.079 . S
C709 C384 1.041 . S
C714 C73 1.077 . S
C719 C285 1.037 . S
C724 C106 1.078 . S
C729 C139 1.080 . S
C734 C516 1.019 . S
C739 C172 1.077 . S
C744 C417 1.021 . S
C749 C205 1.080 . S
C754 C450 1.018 . S
C759 C238 1.079 . S
C764 C483 1.022 . S
C769 C54 1.023 . S
C774 C271 1.078 . S
C779 C87 1.022 . S
C784 C304 1.079 . S
C789 C120 1.041 . S
C794 C337 1.077 . S
C799 C21 1.037 . S
C804 C370 1.078 . S
C809 C252 1.024 . S
C814 C403 1.077 . S
C819 C153 1.020 . S
C824 C436 1.078 . S
C829 C186 1.024 . S
C834 C469 1.077 . S
C839 C502 1.079 . S
C844 C219 1.021 . S
C849 N79 0.751 . S
C854 N13 0.751 . S
C859 N112 0.751 . S
C864 N46 0.751 . S
C869 N145 0.758 . S
C874 N211 0.758 . S
C879 N244 0.758 . S
C884 N178 0.758 . S
C889 N277 0.758 . S
C894 N343 0.758 . S
C899 N376 0.751 . S
C904 N310 0.751 . S
C909 N409 0.758 . S
C914 N475 0.758 . S
C919 N442 0.751 . S
C924 N508 0.751 . S
