# Generated by pormake.
# Topology wme, (6)-cn, num edge types: 1
# Building blocks:
#     Node 0, Type 0, BuildingBlock: JUFBIX_clean_sbu_0, # of connection points: 6
#     Node 1, Type 0, BuildingBlock: JUFBIX_clean_sbu_0, # of connection points: 6
#     Node 2, Type 0, BuildingBlock: JUFBIX_clean_sbu_0, # of connection points: 6
#     Node 3, Type 0, BuildingBlock: JUFBIX_clean_sbu_0, # of connection points: 6
#     Node 4, Type 0, BuildingBlock: JUFBIX_clean_sbu_0, # of connection points: 6
#     Node 5, Type 0, BuildingBlock: JUFBIX_clean_sbu_0, # of connection points: 6
#     Node 6, Type 0, BuildingBlock: JUFBIX_clean_sbu_0, # of connection points: 6
#     Node 7, Type 0, BuildingBlock: JUFBIX_clean_sbu_0, # of connection points: 6
#     Node 8, Type 0, BuildingBlock: JUFBIX_clean_sbu_0, # of connection points: 6
#     Node 9, Type 0, BuildingBlock: JUFBIX_clean_sbu_0, # of connection points: 6
#     Node 10, Type 0, BuildingBlock: JUFBIX_clean_sbu_0, # of connection points: 6
#     Node 11, Type 0, BuildingBlock: JUFBIX_clean_sbu_0, # of connection points: 6
#     Edge 12, Type (0, 0), BuildingBlock: KIFKEQ_clean_linker_1, # of connection points: 2
#     Edge 13, Type (0, 0), BuildingBlock: KIFKEQ_clean_linker_1, # of connection points: 2
#     Edge 14, Type (0, 0), BuildingBlock: KIFKEQ_clean_linker_1, # of connection points: 2
#     Edge 15, Type (0, 0), BuildingBlock: KIFKEQ_clean_linker_1, # of connection points: 2
#     Edge 16, Type (0, 0), BuildingBlock: KIFKEQ_clean_linker_1, # of connection points: 2
#     Edge 17, Type (0, 0), BuildingBlock: KIFKEQ_clean_linker_1, # of connection points: 2
#     Edge 18, Type (0, 0), BuildingBlock: KIFKEQ_clean_linker_1, # of connection points: 2
#     Edge 19, Type (0, 0), BuildingBlock: KIFKEQ_clean_linker_1, # of connection points: 2
#     Edge 20, Type (0, 0), BuildingBlock: KIFKEQ_clean_linker_1, # of connection points: 2
#     Edge 21, Type (0, 0), BuildingBlock: KIFKEQ_clean_linker_1, # of connection points: 2
#     Edge 22, Type (0, 0), BuildingBlock: KIFKEQ_clean_linker_1, # of connection points: 2
#     Edge 23, Type (0, 0), BuildingBlock: KIFKEQ_clean_linker_1, # of connection points: 2
#     Edge 24, Type (0, 0), BuildingBlock: KIFKEQ_clean_linker_1, # of connection points: 2
#     Edge 25, Type (0, 0), BuildingBlock: KIFKEQ_clean_linker_1, # of connection points: 2
#     Edge 26, Type (0, 0), BuildingBlock: KIFKEQ_clean_linker_1, # of connection points: 2
#     Edge 27, Type (0, 0), BuildingBlock: KIFKEQ_clean_linker_1, # of connection points: 2
#     Edge 28, Type (0, 0), BuildingBlock: KIFKEQ_clean_linker_1, # of connection points: 2
#     Edge 29, Type (0, 0), BuildingBlock: KIFKEQ_clean_linker_1, # of connection points: 2
#     Edge 30, Type (0, 0), BuildingBlock: KIFKEQ_clean_linker_1, # of connection points: 2
#     Edge 31, Type (0, 0), BuildingBlock: KIFKEQ_clean_linker_1, # of connection points: 2
#     Edge 32, Type (0, 0), BuildingBlock: KIFKEQ_clean_linker_1, # of connection points: 2
#     Edge 33, Type (0, 0), BuildingBlock: KIFKEQ_clean_linker_1, # of connection points: 2
#     Edge 34, Type (0, 0), BuildingBlock: KIFKEQ_clean_linker_1, # of connection points: 2
#     Edge 35, Type (0, 0), BuildingBlock: KIFKEQ_clean_linker_1, # of connection points: 2
#     Edge 36, Type (0, 0), BuildingBlock: KIFKEQ_clean_linker_1, # of connection points: 2
#     Edge 37, Type (0, 0), BuildingBlock: KIFKEQ_clean_linker_1, # of connection points: 2
#     Edge 38, Type (0, 0), BuildingBlock: KIFKEQ_clean_linker_1, # of connection points: 2
#     Edge 39, Type (0, 0), BuildingBlock: KIFKEQ_clean_linker_1, # of connection points: 2
#     Edge 40, Type (0, 0), BuildingBlock: KIFKEQ_clean_linker_1, # of connection points: 2
#     Edge 41, Type (0, 0), BuildingBlock: KIFKEQ_clean_linker_1, # of connection points: 2
#     Edge 42, Type (0, 0), BuildingBlock: KIFKEQ_clean_linker_1, # of connection points: 2
#     Edge 43, Type (0, 0), BuildingBlock: KIFKEQ_clean_linker_1, # of connection points: 2
#     Edge 44, Type (0, 0), BuildingBlock: KIFKEQ_clean_linker_1, # of connection points: 2
#     Edge 45, Type (0, 0), BuildingBlock: KIFKEQ_clean_linker_1, # of connection points: 2
#     Edge 46, Type (0, 0), BuildingBlock: KIFKEQ_clean_linker_1, # of connection points: 2
#     Edge 47, Type (0, 0), BuildingBlock: KIFKEQ_clean_linker_1, # of connection points: 2
# Relax obj value: 0.306
# Max RMSD: 0.231
# Mean RMSD: 0.231
data_MOF--net-wme--node1-JUFBIX_clean_sbu_0--edge1-KIFKEQ_clean_linker_1
_symmetry_space_group_name_H-M    P1
_symmetry_Int_Tables_number       1
_symmetry_cell_setting            triclinic
loop_
_symmetry_equiv_pos_as_xyz
'x, y, z'
_cell_length_a     33.87084
_cell_length_b     33.85142
_cell_length_c     55.469546
_cell_angle_alpha  90.016115
_cell_angle_beta   90.028588
_cell_angle_gamma 120.27892
loop_
_atom_site_label
_atom_site_type_symbol
_atom_site_fract_x
_atom_site_fract_y
_atom_site_fract_z
_atom_type_partial_charge
Co0 Co 0.17735 0.3486 0.12904 0.0
C1 C 0.20234 0.30507 0.09453 0.0
Co2 Co 0.2065 0.30897 0.14441 0.0
C3 C 0.15557 0.42074 0.12664 0.0
C4 C 0.12751 0.37437 0.09694 0.0
N5 N 0.15382 0.38345 0.11674 0.0
N6 N 0.13108 0.43515 0.11396 0.0
C7 C 0.11357 0.40606 0.09516 0.0
H8 H 0.17336 0.43609 0.1433 0.0
H9 H 0.11812 0.34586 0.08489 0.0
C10 C 0.18274 0.34949 0.17966 0.0
N11 N 0.22759 0.27238 0.15667 0.0
C12 C 0.20841 0.22761 0.1514 0.0
C13 C 0.25949 0.28036 0.17353 0.0
N14 N 0.22602 0.20681 0.16453 0.0
C15 C 0.25874 0.2399 0.17835 0.0
C16 C 0.27153 0.39852 0.13482 0.0
O17 O 0.16873 0.36356 0.16209 0.0
O18 O 0.20168 0.32626 0.17527 0.0
O19 O 0.26773 0.36094 0.14204 0.0
O20 O 0.23593 0.39944 0.12865 0.0
O21 O 0.21159 0.29071 0.11352 0.0
H22 H 0.28067 0.31294 0.18232 0.0
H23 H 0.18129 0.21031 0.1383 0.0
O24 O 0.1871 0.33262 0.0964 0.0
O25 O 0.11821 0.29803 0.12953 0.0
O26 O 0.14476 0.25836 0.14698 0.0
C27 C 0.11095 0.26118 0.13925 0.0
H28 H 0.09218 0.40741 0.08107 0.0
H29 H 0.27931 0.23487 0.19157 0.0
Co30 Co 0.85432 0.16371 0.63486 0.0
C31 C 0.84817 0.19592 0.6816 0.0
Co32 Co 0.88272 0.23803 0.63917 0.0
C33 C 0.83644 0.06849 0.6299 0.0
C34 C 0.78182 0.07556 0.64438 0.0
N35 N 0.8244 0.10005 0.63522 0.0
N36 N 0.80261 0.02542 0.63534 0.0
C37 C 0.7685 0.03031 0.64449 0.0
H38 H 0.8695 0.07706 0.62269 0.0
H39 H 0.76203 0.08989 0.65154 0.0
C40 C 0.89312 0.20774 0.59307 0.0
N41 N 0.90899 0.30108 0.63914 0.0
C42 C 0.88678 0.32439 0.6425 0.0
C43 C 0.94952 0.3317 0.62936 0.0
N44 N 0.91084 0.3676 0.63422 0.0
C45 C 0.9506 0.37258 0.62615 0.0
C46 C 0.94443 0.20785 0.64722 0.0
O47 O 0.87238 0.16723 0.60163 0.0
O48 O 0.89733 0.24051 0.60614 0.0
O49 O 0.94015 0.24315 0.64677 0.0
O50 O 0.9096 0.16852 0.6438 0.0
O51 O 0.8688 0.23558 0.67233 0.0
H52 H 0.97467 0.3236 0.62276 0.0
H53 H 0.85162 0.30867 0.64843 0.0
O54 O 0.83839 0.16151 0.66834 0.0
O55 O 0.79883 0.15927 0.62528 0.0
O56 O 0.82499 0.23186 0.63127 0.0
C57 C 0.79224 0.19283 0.62546 0.0
H58 H 0.73671 0.00341 0.6519 0.0
H59 H 0.97699 0.40241 0.61691 0.0
Co60 Co 0.64134 0.83703 0.13257 0.0
C61 C 0.68907 0.90663 0.09946 0.0
Co62 Co 0.68051 0.90475 0.14948 0.0
C63 C 0.56925 0.74301 0.12876 0.0
C64 C 0.61688 0.76256 0.09966 0.0
N65 N 0.60685 0.77914 0.11937 0.0
N66 N 0.55559 0.70434 0.11588 0.0
C67 C 0.58544 0.71667 0.09744 0.0
H68 H 0.55325 0.74477 0.14528 0.0
H69 H 0.646 0.78223 0.08805 0.0
C70 C 0.63464 0.83849 0.18318 0.0
N71 N 0.71735 0.96221 0.16243 0.0
C72 C 0.76234 0.98739 0.15758 0.0
C73 C 0.7092 0.98738 0.17835 0.0
N74 N 0.78307 0.0269 0.16996 0.0
C75 C 0.74976 0.02754 0.18295 0.0
C76 C 0.59242 0.88214 0.13758 0.0
O77 O 0.62397 0.81177 0.16507 0.0
O78 O 0.65895 0.88125 0.18003 0.0
O79 O 0.62988 0.91551 0.14551 0.0
O80 O 0.59108 0.84537 0.13142 0.0
O81 O 0.70253 0.92931 0.11884 0.0
H82 H 0.67624 0.97693 0.18635 0.0
H83 H 0.77969 0.9769 0.14497 0.0
O84 O 0.65976 0.86401 0.10058 0.0
O85 O 0.69085 0.82803 0.13361 0.0
O86 O 0.72994 0.892 0.15352 0.0
C87 C 0.72709 0.85617 0.14442 0.0
H88 H 0.58486 0.69421 0.08339 0.0
H89 H 0.75455 0.05446 0.19523 0.0
Co90 Co 0.83121 0.67409 0.6241 0.0
C91 C 0.79958 0.63227 0.66949 0.0
Co92 Co 0.75666 0.63152 0.62759 0.0
C93 C 0.92809 0.74766 0.62066 0.0
C94 C 0.9171 0.68076 0.62774 0.0
N95 N 0.89468 0.70348 0.623 0.0
N96 N 0.97021 0.75281 0.62356 0.0
C97 C 0.96299 0.7106 0.62796 0.0
H98 H 0.92156 0.77546 0.61773 0.0
H99 H 0.90111 0.64481 0.63214 0.0
C100 C 0.78731 0.67611 0.58299 0.0
N101 N 0.69315 0.5977 0.629 0.0
C102 C 0.66779 0.5522 0.63283 0.0
C103 C 0.66248 0.61055 0.62334 0.0
N104 N 0.62284 0.53586 0.62923 0.0
C105 C 0.61911 0.57252 0.62356 0.0
C106 C 0.79426 0.7244 0.63924 0.0
O107 O 0.82706 0.69431 0.59242 0.0
O108 O 0.75325 0.64514 0.59457 0.0
O109 O 0.7571 0.68654 0.63615 0.0
O110 O 0.83238 0.7261 0.63671 0.0
O111 O 0.76019 0.61898 0.66072 0.0
H112 H 0.67123 0.64481 0.61813 0.0
H113 H 0.68209 0.5309 0.63737 0.0
O114 O 0.83439 0.65461 0.65613 0.0
O115 O 0.82984 0.62227 0.61098 0.0
O116 O 0.75783 0.57718 0.61886 0.0
C117 C 0.79555 0.58242 0.61151 0.0
H118 H 0.98884 0.70207 0.63262 0.0
H119 H 0.58773 0.57148 0.61848 0.0
Co120 Co 0.15467 0.81344 0.12967 0.0
C121 C 0.08815 0.78854 0.0933 0.0
Co122 Co 0.08435 0.78286 0.14336 0.0
C123 C 0.24951 0.83732 0.12856 0.0
C124 C 0.23234 0.86699 0.09927 0.0
N125 N 0.21414 0.83898 0.1184 0.0
N126 N 0.28922 0.86349 0.11665 0.0
C127 C 0.27837 0.88203 0.09812 0.0
H128 H 0.24633 0.81833 0.14483 0.0
H129 H 0.21356 0.87672 0.08723 0.0
C130 C 0.14723 0.80746 0.18026 0.0
N131 N 0.02564 0.75973 0.15473 0.0
C132 C -0.00262 0.77433 0.14724 0.0
C133 C 0.00417 0.73215 0.17366 0.0
N134 N 0.95944 0.75775 0.16082 0.0
C135 C 0.96337 0.7311 0.17756 0.0
C136 C 0.11128 0.71931 0.13468 0.0
O137 O 0.17649 0.82168 0.16319 0.0
O138 O 0.10523 0.78831 0.17494 0.0
O139 O 0.07675 0.72233 0.14123 0.0
O140 O 0.14811 0.7554 0.12905 0.0
O141 O 0.06249 0.77739 0.11163 0.0
H142 H 0.01827 0.7158 0.18462 0.0
H143 H 0.00595 0.79921 0.13299 0.0
O144 O 0.13096 0.80457 0.09647 0.0
O145 O 0.16191 0.87162 0.13037 0.0
O146 O 0.09353 0.84383 0.14566 0.0
C147 C 0.13099 0.87812 0.13882 0.0
H148 H 0.30189 0.90478 0.08462 0.0
H149 H 0.93918 0.7132 0.19191 0.0
Co150 Co 0.29999 0.12975 0.64306 0.0
C151 C 0.35088 0.13764 0.68516 0.0
Co152 Co 0.35137 0.10909 0.63937 0.0
C153 C 0.24417 0.17305 0.63896 0.0
C154 C 0.23483 0.13576 0.67171 0.0
N155 N 0.25703 0.14609 0.65037 0.0
N156 N 0.21578 0.18056 0.65276 0.0
C157 C 0.20969 0.15698 0.67325 0.0
H158 H 0.2561 0.18763 0.62124 0.0
H159 H 0.23745 0.1147 0.68556 0.0
C160 C 0.29897 0.09828 0.59752 0.0
N161 N 0.39476 0.09278 0.63307 0.0
C162 C 0.44053 0.11831 0.6357 0.0
C163 C 0.38753 0.05461 0.62153 0.0
N164 N 0.46215 0.09792 0.62588 0.0
C165 C 0.42888 0.05767 0.61709 0.0
C166 C 0.26739 0.03795 0.65194 0.0
O167 O 0.27694 0.11149 0.6107 0.0
O168 O 0.33393 0.09873 0.60625 0.0
O169 O 0.30716 0.04699 0.6458 0.0
O170 O 0.25853 0.06999 0.65325 0.0
O171 O 0.36833 0.11863 0.67283 0.0
H172 H 0.35446 0.02721 0.61573 0.0
H173 H 0.4578 0.15227 0.64347 0.0
O174 O 0.32277 0.14666 0.67505 0.0
O175 O 0.34152 0.19011 0.6328 0.0
O176 O 0.39502 0.1718 0.63276 0.0
C177 C 0.3833 0.20187 0.63035 0.0
H178 H 0.18778 0.15455 0.68807 0.0
H179 H 0.43408 0.03267 0.60765 0.0
Co180 Co 0.67725 0.83493 0.40551 0.0
C181 C 0.63244 0.79453 0.36141 0.0
Co182 Co 0.63249 0.76057 0.40562 0.0
C183 C 0.75243 0.93165 0.40612 0.0
C184 C 0.68764 0.91986 0.39356 0.0
N185 N 0.70863 0.89816 0.40259 0.0
N186 N 0.75908 0.97325 0.39966 0.0
C187 C 0.71818 0.96545 0.39173 0.0
H188 H 0.7788 0.92547 0.41287 0.0
H189 H 0.65232 0.90329 0.38782 0.0
C190 C 0.67941 0.79898 0.44911 0.0
N191 N 0.59711 0.69784 0.40821 0.0
C192 C 0.55214 0.673 0.40312 0.0
C193 C 0.60677 0.66893 0.42004 0.0
N194 N 0.53281 0.63025 0.41201 0.0
C195 C 0.56712 0.6273 0.42253 0.0
C196 C 0.7237 0.79223 0.39355 0.0
O197 O 0.69917 0.8369 0.43773 0.0
O198 O 0.64725 0.76383 0.43888 0.0
O199 O 0.68553 0.75656 0.39836 0.0
O200 O 0.72697 0.83127 0.39387 0.0
O201 O 0.61827 0.75685 0.37231 0.0
H202 H 0.63961 0.67852 0.42795 0.0
H203 H 0.53302 0.68729 0.39499 0.0
O204 O 0.65613 0.83153 0.37304 0.0
O205 O 0.62751 0.83886 0.41767 0.0
O206 O 0.58006 0.76598 0.41302 0.0
C207 C 0.58716 0.80538 0.41847 0.0
H208 H 0.71093 0.9905 0.38408 0.0
H209 H 0.56336 0.59811 0.4325 0.0
Co210 Co 0.87621 0.69563 0.89102 0.0
C211 C 0.8635 0.6461 0.84739 0.0
Co212 Co 0.8986 0.64491 0.89116 0.0
C213 C 0.83442 0.75283 0.8988 0.0
C214 C 0.86885 0.76276 0.86503 0.0
N215 N 0.85968 0.73949 0.88601 0.0
N216 N 0.82686 0.78252 0.88615 0.0
C217 C 0.84864 0.78891 0.86503 0.0
H218 H 0.82103 0.74033 0.91665 0.0
H219 H 0.8885 0.76029 0.85034 0.0
C220 C 0.91436 0.69542 0.93458 0.0
N221 N 0.91527 0.60107 0.89508 0.0
C222 C 0.88815 0.55521 0.89367 0.0
C223 C 0.95489 0.60783 0.90458 0.0
N224 N 0.90885 0.53316 0.90249 0.0
C225 C 0.95098 0.56611 0.90922 0.0
C226 C 0.96753 0.72966 0.87757 0.0
O227 O 0.89669 0.71613 0.92374 0.0
O228 O 0.91512 0.66264 0.92383 0.0
O229 O 0.95998 0.68949 0.88173 0.0
O230 O 0.93519 0.73784 0.88008 0.0
O231 O 0.88301 0.6276 0.85829 0.0
H232 H 0.98367 0.64087 0.90931 0.0
H233 H 0.85277 0.53825 0.88797 0.0
O234 O 0.85689 0.6749 0.85868 0.0
O235 O 0.81672 0.6534 0.90181 0.0
O236 O 0.83648 0.601 0.9005 0.0
C237 C 0.80586 0.61176 0.90386 0.0
H238 H 0.8504 0.81159 0.85077 0.0
H239 H 0.9764 0.56044 0.91782 0.0
Co240 Co 0.16341 0.86071 0.40465 0.0
C241 C 0.20142 0.855 0.35995 0.0
Co242 Co 0.2378 0.89124 0.40385 0.0
C243 C 0.06748 0.83991 0.40727 0.0
C244 C 0.07723 0.78634 0.39359 0.0
N245 N 0.10016 0.82926 0.40254 0.0
N246 N 0.02519 0.80493 0.40165 0.0
C247 C 0.03165 0.77146 0.39299 0.0
H248 H 0.07465 0.87261 0.41443 0.0
H249 H 0.09286 0.76717 0.38726 0.0
C250 C 0.20152 0.90044 0.44803 0.0
N251 N 0.30062 0.91784 0.40554 0.0
C252 C 0.32351 0.89581 0.40062 0.0
C253 C 0.33156 0.95718 0.41628 0.0
N254 N 0.36689 0.91864 0.40869 0.0
C255 C 0.3725 0.95779 0.41823 0.0
C256 C 0.20657 0.95042 0.3919 0.0
O257 O 0.16316 0.88149 0.43703 0.0
O258 O 0.2364 0.9041 0.43726 0.0
O259 O 0.24246 0.94838 0.39633 0.0
O260 O 0.16753 0.91437 0.39288 0.0
O261 O 0.23957 0.8795 0.37034 0.0
H262 H 0.32387 0.98196 0.42392 0.0
H263 H 0.30775 0.86209 0.3926 0.0
O264 O 0.16498 0.84169 0.37204 0.0
O265 O 0.159 0.80704 0.41688 0.0
O266 O 0.23163 0.83308 0.41158 0.0
C267 C 0.19253 0.80058 0.41748 0.0
H268 H 0.00552 0.73897 0.38578 0.0
H269 H 0.4027 0.98315 0.42768 0.0
Co270 Co 0.31879 0.1659 0.90981 0.0
C271 C 0.35738 0.18882 0.8641 0.0
Co272 Co 0.36587 0.24022 0.9051 0.0
C273 C 0.25632 0.06912 0.89934 0.0
C274 C 0.27568 0.08267 0.93646 0.0
N275 N 0.28101 0.10351 0.91503 0.0
N276 N 0.23587 0.02758 0.91019 0.0
C277 C 0.24794 0.03638 0.93361 0.0
H278 H 0.25429 0.07455 0.88028 0.0
H279 H 0.29161 0.09994 0.95314 0.0
C280 C 0.32495 0.21929 0.94993 0.0
N281 N 0.40567 0.3032 0.90117 0.0
C282 C 0.45176 0.3258 0.8987 0.0
C283 C 0.39542 0.3365 0.90448 0.0
N284 N 0.47066 0.37163 0.90086 0.0
C285 C 0.43511 0.3784 0.90429 0.0
C286 C 0.27435 0.20958 0.89408 0.0
O287 O 0.30511 0.17875 0.94155 0.0
O288 O 0.35611 0.25128 0.93748 0.0
O289 O 0.31381 0.2453 0.89597 0.0
O290 O 0.26956 0.17048 0.89804 0.0
O291 O 0.37482 0.22927 0.87247 0.0
H292 H 0.36155 0.33069 0.90818 0.0
H293 H 0.47147 0.30888 0.89688 0.0
O294 O 0.33235 0.15501 0.87776 0.0
O295 O 0.36785 0.16069 0.92163 0.0
O296 O 0.41621 0.23286 0.91444 0.0
C297 C 0.40859 0.19377 0.92117 0.0
H298 H 0.23732 0.01137 0.94791 0.0
H299 H 0.43762 0.4112 0.90725 0.0
Co300 Co 0.13765 0.32113 0.4024 0.0
C301 C 0.1465 0.36751 0.35807 0.0
Co302 Co 0.10858 0.36603 0.40097 0.0
C303 C 0.1582 0.24583 0.40489 0.0
C304 C 0.2121 0.31001 0.39189 0.0
N305 N 0.16894 0.2894 0.40047 0.0
N306 N 0.19334 0.23898 0.39944 0.0
C307 C 0.227 0.27945 0.39119 0.0
H308 H 0.12531 0.21981 0.41171 0.0
H309 H 0.23145 0.34515 0.38588 0.0
C310 C 0.09519 0.31799 0.4446 0.0
N311 N 0.08209 0.40203 0.40261 0.0
C312 C 0.10454 0.44741 0.39853 0.0
C313 C 0.04187 0.39263 0.41244 0.0
N314 N 0.08106 0.46726 0.4063 0.0
C315 C 0.04113 0.43286 0.41473 0.0
C316 C 0.04905 0.27539 0.38793 0.0
O317 O 0.11515 0.29886 0.4345 0.0
O318 O 0.09338 0.34989 0.43352 0.0
O319 O 0.05173 0.31373 0.3921 0.0
O320 O 0.08447 0.27178 0.3898 0.0
O321 O 0.12245 0.38158 0.36825 0.0
H322 H 0.01639 0.35945 0.41922 0.0
H323 H 0.13886 0.4661 0.39131 0.0
O324 O 0.15816 0.34301 0.37007 0.0
O325 O 0.19077 0.37007 0.41545 0.0
O326 O 0.16648 0.41787 0.41015 0.0
C327 C 0.1981 0.41042 0.41644 0.0
H328 H 0.25968 0.28637 0.3842 0.0
H329 H 0.01499 0.43692 0.42366 0.0
Co330 Co 0.83397 0.14154 0.90762 0.0
C331 C 0.80268 0.14697 0.86079 0.0
Co332 Co 0.75942 0.11123 0.90319 0.0
C333 C 0.93038 0.16205 0.91247 0.0
C334 C 0.92151 0.21679 0.89992 0.0
N335 N 0.89789 0.17324 0.90798 0.0
N336 N 0.97308 0.19735 0.90768 0.0
C337 C 0.96704 0.23153 0.89979 0.0
H338 H 0.92276 0.12849 0.91843 0.0
H339 H 0.90649 0.2363 0.89329 0.0
C340 C 0.78887 0.10208 0.94943 0.0
N341 N 0.69636 0.08397 0.90217 0.0
C342 C 0.6735 0.10608 0.89732 0.0
C343 C 0.6647 0.04342 0.91152 0.0
N344 N 0.62944 0.08215 0.90428 0.0
C345 C 0.62342 0.04221 0.91282 0.0
C346 C 0.79233 0.05127 0.8956 0.0
O347 O 0.82935 0.12323 0.9408 0.0
O348 O 0.75573 0.09682 0.93634 0.0
O349 O 0.75619 0.05416 0.89607 0.0
O350 O 0.83109 0.08703 0.89878 0.0
O351 O 0.76299 0.125 0.86993 0.0
H352 H 0.67205 0.01827 0.91894 0.0
H353 H 0.68969 0.14066 0.89042 0.0
O354 O 0.83719 0.15791 0.87417 0.0
O355 O 0.83637 0.19598 0.91711 0.0
O356 O 0.76389 0.16876 0.9106 0.0
C357 C 0.80253 0.202 0.91654 0.0
H358 H 0.99339 0.26428 0.893 0.0
H359 H 0.59268 0.0159 0.92145 0.0
H360 H 0.07992 0.90785 0.16298 0.0
H361 H 0.20572 0.95577 0.12319 0.0
H362 H 0.1022 0.98724 0.17218 0.0
H363 H 0.22744 0.03427 0.13214 0.0
H364 H 0.27687 0.1668 0.17191 0.0
H365 H 0.25145 0.08548 0.16737 0.0
H366 H 0.11474 0.05719 0.15139 0.0
H367 H 0.13982 0.13786 0.15664 0.0
C368 C 0.11196 0.93523 0.15599 0.0
C369 C 0.14109 0.92553 0.14244 0.0
C370 C 0.12478 0.9806 0.16131 0.0
C371 C 0.16694 0.01688 0.15321 0.0
C372 C 0.19531 0.00704 0.13915 0.0
C373 C 0.18255 0.96198 0.13381 0.0
C374 C 0.24131 0.14301 0.16783 0.0
C375 C 0.21056 0.1587 0.16422 0.0
C376 C 0.2268 0.09661 0.16502 0.0
C377 C 0.18121 0.0651 0.15871 0.0
C378 C 0.15001 0.08057 0.15629 0.0
C379 C 0.16455 0.12687 0.159 0.0
H380 H 0.20428 0.238 0.68121 0.0
H381 H 0.17145 0.17357 0.61132 0.0
H382 H 0.14339 0.25619 0.67692 0.0
H383 H 0.11029 0.19165 0.60688 0.0
H384 H 0.96469 0.14118 0.6388 0.0
H385 H 0.0396 0.14916 0.63499 0.0
H386 H 0.10323 0.29279 0.65233 0.0
H387 H 0.02739 0.28519 0.65583 0.0
C388 C 0.1851 0.22947 0.66452 0.0
C389 C 0.19169 0.20383 0.64674 0.0
C390 C 0.15049 0.24 0.66202 0.0
C391 C 0.12181 0.22451 0.64178 0.0
C392 C 0.13185 0.20351 0.62276 0.0
C393 C 0.16688 0.19345 0.62517 0.0
C394 C 0.99447 0.17454 0.64194 0.0
C395 C 0.99009 0.21253 0.64778 0.0
C396 C 0.03741 0.17921 0.63934 0.0
C397 C 0.07703 0.22181 0.64279 0.0
C398 C 0.07301 0.25974 0.64926 0.0
C399 C 0.02976 0.25525 0.65149 0.0
H400 H 0.85231 0.01036 0.16323 0.0
H401 H 0.82255 0.11884 0.17461 0.0
H402 H 0.93236 0.06644 0.15641 0.0
H403 H 0.90345 0.17544 0.1686 0.0
H404 H 0.03307 0.25776 0.12376 0.0
H405 H 0.95464 0.20135 0.13376 0.0
H406 H 0.00227 0.12553 0.17528 0.0
H407 H 0.08122 0.18187 0.1649 0.0
C408 C 0.86302 0.04631 0.16444 0.0
C409 C 0.83106 0.0603 0.16904 0.0
C410 C 0.90902 0.07843 0.16081 0.0
C411 C 0.92418 0.12537 0.16172 0.0
C412 C 0.8926 0.13944 0.16739 0.0
C413 C 0.84644 0.10716 0.17109 0.0
C414 C 0.02691 0.22891 0.13489 0.0
C415 C 0.0634 0.22429 0.14354 0.0
C416 C 0.98192 0.19685 0.14084 0.0
C417 C 0.97226 0.15935 0.1556 0.0
C418 C 0.00864 0.15405 0.16382 0.0
C419 C 0.05382 0.18623 0.15785 0.0
H420 H 0.85835 0.80484 0.65987 0.0
H421 H 0.73016 0.74156 0.62132 0.0
H422 H 0.86131 0.87839 0.65822 0.0
H423 H 0.73445 0.81489 0.61795 0.0
H424 H 0.72835 0.94027 0.63451 0.0
H425 H 0.72655 0.86878 0.6379 0.0
H426 H 0.87418 0.93968 0.63359 0.0
H427 H 0.87605 0.01272 0.63271 0.0
C428 C 0.83065 0.80671 0.65122 0.0
C429 C 0.79356 0.76743 0.64117 0.0
C430 C 0.83267 0.84897 0.64988 0.0
C431 C 0.79818 0.853 0.63791 0.0
C432 C 0.76111 0.81333 0.62791 0.0
C433 C 0.75852 0.77104 0.62983 0.0
C434 C 0.76066 0.94109 0.63467 0.0
C435 C 0.80243 0.98272 0.63391 0.0
C436 C 0.75957 0.89956 0.63615 0.0
C437 C 0.80019 0.89795 0.63605 0.0
C438 C 0.84213 0.93946 0.63424 0.0
C439 C 0.84326 0.98144 0.63331 0.0
H440 H 0.92947 0.77664 0.11999 0.0
H441 H 0.91315 0.76964 0.19732 0.0
H442 H 0.87627 0.80479 0.1164 0.0
H443 H 0.85882 0.79718 0.19371 0.0
H444 H 0.80065 0.89358 0.17544 0.0
H445 H 0.85805 0.87002 0.18022 0.0
H446 H 0.79291 0.77049 0.12338 0.0
H447 H 0.73646 0.79377 0.11851 0.0
C448 C 0.91434 0.78104 0.13622 0.0
C449 C 0.92528 0.77086 0.15892 0.0
C450 C 0.88381 0.797 0.13416 0.0
C451 C 0.86358 0.80327 0.15479 0.0
C452 C 0.87436 0.79306 0.17756 0.0
C453 C 0.90481 0.7767 0.1796 0.0
C454 C 0.79903 0.86701 0.16388 0.0
C455 C 0.76411 0.84551 0.14664 0.0
C456 C 0.83151 0.85329 0.16675 0.0
C457 C 0.82977 0.81843 0.15217 0.0
C458 C 0.79532 0.79771 0.13471 0.0
C459 C 0.76288 0.811 0.13201 0.0
H460 H 0.98678 0.83779 0.63551 0.0
H461 H 0.05315 0.76181 0.61602 0.0
H462 H 0.06117 0.90479 0.64365 0.0
H463 H 0.12669 0.82693 0.62611 0.0
H464 H 0.25548 0.96835 0.62308 0.0
H465 H 0.18322 0.89923 0.6147 0.0
H466 H 0.1196 0.93272 0.67267 0.0
H467 H 0.19155 0.00337 0.67989 0.0
C468 C 0.01715 0.8354 0.63284 0.0
C469 C 0.01388 0.79419 0.62547 0.0
C470 C 0.05982 0.87352 0.63797 0.0
C471 C 0.10001 0.87104 0.63609 0.0
C472 C 0.09669 0.83034 0.62776 0.0
C473 C 0.05428 0.79266 0.62224 0.0
C474 C 0.22636 0.96007 0.63451 0.0
C475 C 0.22892 0.99085 0.65219 0.0
C476 C 0.18475 0.92057 0.62962 0.0
C477 C 0.14519 0.91072 0.64271 0.0
C478 C 0.14894 0.93992 0.66172 0.0
C479 C 0.1903 0.97989 0.66622 0.0
H480 H 0.01003 0.87667 0.40174 0.0
H481 H 0.94145 0.72904 0.40389 0.0
H482 H 0.93602 0.87233 0.39964 0.0
H483 H 0.86855 0.72456 0.39962 0.0
H484 H 0.74044 0.73001 0.41469 0.0
H485 H 0.81394 0.73446 0.41876 0.0
H486 H 0.87557 0.85393 0.3727 0.0
H487 H 0.80222 0.85084 0.36999 0.0
C488 C 0.97932 0.84337 0.40181 0.0
C489 C 0.98187 0.80325 0.40261 0.0
C490 C 0.93685 0.84079 0.40019 0.0
C491 C 0.89615 0.79804 0.39908 0.0
C492 C 0.89889 0.75811 0.40061 0.0
C493 C 0.94104 0.76071 0.40267 0.0
C494 C 0.76954 0.75662 0.40504 0.0
C495 C 0.7657 0.78984 0.39185 0.0
C496 C 0.81182 0.75933 0.40741 0.0
C497 C 0.85098 0.79476 0.39617 0.0
C498 C 0.8465 0.82685 0.3821 0.0
C499 C 0.80437 0.82469 0.38018 0.0
H500 H 0.98872 0.81157 0.85852 0.0
H501 H 0.0508 0.7368 0.88674 0.0
H502 H 0.06102 0.88207 0.86108 0.0
H503 H 0.12477 0.80786 0.88827 0.0
H504 H 0.21245 0.9444 0.92918 0.0
H505 H 0.15446 0.87041 0.91471 0.0
H506 H 0.13657 0.93362 0.85115 0.0
H507 H 0.19242 0.00849 0.86662 0.0
C508 C 0.01834 0.81002 0.86457 0.0
C509 C 0.01386 0.76875 0.8729 0.0
C510 C 0.06018 0.85065 0.86584 0.0
C511 C 0.09892 0.85114 0.87531 0.0
C512 C 0.09541 0.80901 0.88144 0.0
C513 C 0.05318 0.76814 0.88029 0.0
C514 C 0.19614 0.94291 0.91218 0.0
C515 C 0.20634 0.98307 0.89957 0.0
C516 C 0.1633 0.89997 0.90356 0.0
C517 C 0.1401 0.89571 0.88184 0.0
C518 C 0.15287 0.93553 0.86825 0.0
C519 C 0.18534 0.97867 0.87707 0.0
H520 H 0.26931 0.23182 0.40135 0.0
H521 H 0.12173 0.15135 0.3995 0.0
H522 H 0.2739 0.16359 0.39685 0.0
H523 H 0.12623 0.08179 0.39732 0.0
H524 H 0.14725 0.96898 0.36842 0.0
H525 H 0.14408 0.03926 0.37074 0.0
H526 H 0.26485 0.09959 0.41591 0.0
H527 H 0.26942 0.03061 0.41213 0.0
C528 C 0.23766 0.19948 0.40013 0.0
C529 C 0.1951 0.19735 0.40022 0.0
C530 C 0.24033 0.16 0.39796 0.0
C531 C 0.20048 0.11695 0.39655 0.0
C532 C 0.15772 0.11446 0.39777 0.0
C533 C 0.15505 0.1543 0.39945 0.0
C534 C 0.17367 0.99786 0.37831 0.0
C535 C 0.2089 0.99476 0.38984 0.0
C536 C 0.17146 0.03783 0.38001 0.0
C537 C 0.20388 0.07509 0.39374 0.0
C538 C 0.2397 0.07207 0.4048 0.0
C539 C 0.24248 0.03253 0.40262 0.0
H540 H 0.19483 0.15093 0.87131 0.0
H541 H 0.25964 0.27366 0.91444 0.0
H542 H 0.12168 0.14799 0.87515 0.0
H543 H 0.18646 0.26924 0.91999 0.0
H544 H 0.05708 0.27284 0.91059 0.0
H545 H 0.1296 0.27774 0.90428 0.0
H546 H 0.06219 0.13002 0.90169 0.0
H547 H 0.98827 0.1255 0.90554 0.0
C548 C 0.19338 0.17765 0.88133 0.0
C549 C 0.23287 0.21299 0.89221 0.0
C550 C 0.15131 0.17553 0.88398 0.0
C551 C 0.14759 0.20799 0.89817 0.0
C552 C 0.18768 0.24402 0.90852 0.0
C553 C 0.2299 0.2468 0.9053 0.0
C554 C 0.05736 0.24125 0.90834 0.0
C555 C 0.01642 0.19877 0.90796 0.0
C556 C 0.09944 0.24407 0.90512 0.0
C557 C 0.10228 0.20436 0.90223 0.0
C558 C 0.06149 0.16153 0.90318 0.0
C559 C 0.01899 0.15878 0.90585 0.0
H560 H 0.02988 0.19607 0.36556 0.0
H561 H 0.96852 0.25965 0.40655 0.0
H562 H 0.95905 0.1226 0.3683 0.0
H563 H 0.899 0.18622 0.41076 0.0
H564 H 0.76673 0.05682 0.39864 0.0
H565 H 0.83494 0.12947 0.39242 0.0
H566 H 0.91622 0.06385 0.39586 0.0
H567 H 0.84662 0.98968 0.39974 0.0
C568 C 0.00093 0.19431 0.37488 0.0
C569 C 0.00434 0.23348 0.38559 0.0
C570 C 0.96063 0.15212 0.37684 0.0
C571 C 0.92331 0.14813 0.39002 0.0
C572 C 0.92655 0.18786 0.4001 0.0
C573 C 0.96642 0.23015 0.39766 0.0
C574 C 0.79891 0.05744 0.39768 0.0
C575 C 0.80083 0.01694 0.39917 0.0
C576 C 0.83841 0.09957 0.39452 0.0
C577 C 0.88134 0.10283 0.39349 0.0
C578 C 0.88365 0.0626 0.39598 0.0
C579 C 0.84377 0.02005 0.39865 0.0
H580 H 0.84056 0.82999 0.92725 0.0
H581 H 0.765 0.79185 0.86057 0.0
H582 H 0.82252 0.89107 0.93286 0.0
H583 H 0.74682 0.85256 0.86599 0.0
H584 H 0.86195 0.03453 0.90223 0.0
H585 H 0.85773 0.96112 0.9053 0.0
H586 H 0.71259 0.89201 0.89133 0.0
H587 H 0.71647 0.9663 0.88849 0.0
C588 C 0.81838 0.83345 0.91442 0.0
C589 C 0.80445 0.80688 0.89341 0.0
C590 C 0.80841 0.86851 0.91745 0.0
C591 C 0.784 0.87693 0.8996 0.0
C592 C 0.76563 0.84681 0.88001 0.0
C593 C 0.77604 0.8122 0.87689 0.0
C594 C 0.82902 0.00385 0.8997 0.0
C595 C 0.78954 0.00631 0.89494 0.0
C596 C 0.82654 0.96173 0.90187 0.0
C597 C 0.78467 0.92093 0.89909 0.0
C598 C 0.7452 0.92308 0.89381 0.0
C599 C 0.74753 0.96549 0.89197 0.0
H600 H 0.03775 0.63141 0.13982 0.0
H601 H 0.18363 0.7074 0.12735 0.0
H602 H 0.03924 0.55963 0.13726 0.0
H603 H 0.18484 0.63688 0.12451 0.0
H604 H 0.18543 0.50926 0.14161 0.0
H605 H 0.17612 0.57461 0.14967 0.0
H606 H 0.05329 0.5142 0.10645 0.0
H607 H 0.06139 0.44758 0.09921 0.0
C608 C 0.06998 0.63284 0.13661 0.0
C609 C 0.11047 0.67514 0.13375 0.0
C610 C 0.07084 0.59184 0.13505 0.0
C611 C 0.11226 0.59259 0.13087 0.0
C612 C 0.15252 0.63497 0.1282 0.0
C613 C 0.15166 0.67554 0.12962 0.0
C614 C 0.15597 0.50933 0.13413 0.0
C615 C 0.12448 0.47315 0.11951 0.0
C616 C 0.15084 0.54708 0.13859 0.0
C617 C 0.11421 0.54985 0.12849 0.0
C618 C 0.08176 0.51304 0.11459 0.0
C619 C 0.08684 0.47513 0.11015 0.0
H620 H 0.71903 0.11504 0.60874 0.0
H621 H 0.76035 0.25211 0.63265 0.0
H622 H 0.64028 0.09708 0.60666 0.0
H623 H 0.6808 0.23419 0.63006 0.0
H624 H 0.52835 0.15617 0.65641 0.0
H625 H 0.61038 0.18524 0.65295 0.0
H626 H 0.58753 0.11279 0.58553 0.0
H627 H 0.50578 0.08343 0.58922 0.0
C628 C 0.71139 0.14167 0.61314 0.0
C629 C 0.74587 0.18491 0.62101 0.0
C630 C 0.66618 0.13142 0.61179 0.0
C631 C 0.65426 0.16418 0.61825 0.0
C632 C 0.68895 0.20811 0.62523 0.0
C633 C 0.73446 0.21846 0.62653 0.0
C634 C 0.54103 0.14693 0.64076 0.0
C635 C 0.51064 0.11692 0.62331 0.0
C636 C 0.58798 0.16376 0.63869 0.0
C637 C 0.60539 0.15104 0.61904 0.0
C638 C 0.57508 0.1225 0.60112 0.0
C639 C 0.52824 0.10551 0.60328 0.0
H640 H 0.54465 0.62251 0.1014 0.0
H641 H 0.48046 0.68329 0.14257 0.0
H642 H 0.47818 0.54682 0.10823 0.0
H643 H 0.41539 0.60783 0.15021 0.0
H644 H 0.28448 0.48266 0.12561 0.0
H645 H 0.35524 0.55459 0.12319 0.0
H646 H 0.43104 0.48665 0.13954 0.0
H647 H 0.35886 0.41296 0.14175 0.0
C648 C 0.5166 0.61984 0.11199 0.0
C649 C 0.51776 0.65925 0.12113 0.0
C650 C 0.47883 0.57636 0.1162 0.0
C651 C 0.44145 0.57142 0.1296 0.0
C652 C 0.44345 0.61059 0.13953 0.0
C653 C 0.48101 0.65393 0.1353 0.0
C654 C 0.31603 0.48261 0.12875 0.0
C655 C 0.31593 0.44185 0.13386 0.0
C656 C 0.35672 0.52417 0.12756 0.0
C657 C 0.3987 0.52645 0.13144 0.0
C658 C 0.39905 0.48582 0.13645 0.0
C659 C 0.35787 0.44378 0.13779 0.0
H660 H 0.7419 0.49331 0.62634 0.0
H661 H 0.86758 0.58453 0.58918 0.0
H662 H 0.76578 0.43622 0.62916 0.0
H663 H 0.89223 0.52918 0.59291 0.0
H664 H 0.92205 0.41523 0.59334 0.0
H665 H 0.88584 0.45943 0.583 0.0
H666 H 0.82038 0.42885 0.65289 0.0
H667 H 0.85534 0.38287 0.66261 0.0
C668 C 0.77401 0.50069 0.61824 0.0
C669 C 0.80305 0.54352 0.60775 0.0
C670 C 0.78808 0.46833 0.62019 0.0
C671 C 0.83139 0.47837 0.6117 0.0
C672 C 0.85858 0.51988 0.59954 0.0
C673 C 0.84446 0.55187 0.59747 0.0
C674 C 0.9003 0.41844 0.60655 0.0
C675 C 0.89209 0.39642 0.62895 0.0
C676 C 0.8793 0.44356 0.6006 0.0
C677 C 0.85016 0.44792 0.6171 0.0
C678 C 0.84186 0.42561 0.63953 0.0
C679 C 0.86234 0.39983 0.64528 0.0
H680 H 0.57856 0.95505 0.14584 0.0
H681 H 0.50857 0.81206 0.12581 0.0
H682 H 0.50549 0.9541 0.14329 0.0
H683 H 0.4372 0.81143 0.12317 0.0
H684 H 0.30807 0.80684 0.14238 0.0
H685 H 0.38283 0.81606 0.15032 0.0
H686 H 0.44703 0.94417 0.11164 0.0
H687 H 0.3721 0.9359 0.10443 0.0
C688 C 0.54783 0.92361 0.14092 0.0
C689 C 0.54953 0.88372 0.13605 0.0
C690 C 0.50611 0.92306 0.13941 0.0
C691 C 0.4655 0.8825 0.13331 0.0
C692 C 0.46757 0.84296 0.1284 0.0
C693 C 0.50883 0.84355 0.12973 0.0
C694 C 0.338 0.8374 0.13591 0.0
C695 C 0.33381 0.8703 0.12249 0.0
C696 C 0.38093 0.84254 0.14031 0.0
C697 C 0.42082 0.88062 0.13136 0.0
C698 C 0.41696 0.91454 0.11883 0.0
C699 C 0.3739 0.9094 0.11441 0.0
H700 H 0.63208 0.46626 0.61239 0.0
H701 H 0.53427 0.49826 0.64266 0.0
H702 H 0.57372 0.38591 0.61019 0.0
H703 H 0.47562 0.41714 0.64145 0.0
H704 H 0.37017 0.27297 0.61859 0.0
H705 H 0.42757 0.35409 0.61666 0.0
H706 H 0.53254 0.32208 0.63475 0.0
H707 H 0.4756 0.24122 0.63554 0.0
C708 C 0.59809 0.45588 0.61891 0.0
C709 C 0.58778 0.48838 0.62797 0.0
C710 C 0.56455 0.40972 0.6177 0.0
C711 C 0.51986 0.39466 0.62585 0.0
C712 C 0.50943 0.42741 0.63469 0.0
C713 C 0.54299 0.47384 0.63555 0.0
C714 C 0.40564 0.28332 0.62183 0.0
C715 C 0.41835 0.25063 0.62713 0.0
C716 C 0.43853 0.3299 0.62097 0.0
C717 C 0.48484 0.34494 0.62566 0.0
C718 C 0.49746 0.31198 0.6306 0.0
C719 C 0.4647 0.26544 0.63115 0.0
H720 H 0.3421 0.83002 0.41597 0.0
H721 H 0.45924 0.96554 0.40796 0.0
H722 H 0.39226 0.79885 0.42158 0.0
H723 H 0.50984 0.93429 0.41308 0.0
H724 H 0.59112 0.8761 0.44336 0.0
H725 H 0.53558 0.90152 0.44281 0.0
H726 H 0.44418 0.78307 0.40028 0.0
H727 H 0.49942 0.75684 0.40164 0.0
C728 C 0.37866 0.8531 0.41501 0.0
C729 C 0.39683 0.90028 0.41129 0.0
C730 C 0.40743 0.83518 0.4183 0.0
C731 C 0.45509 0.86398 0.41786 0.0
C732 C 0.47326 0.91119 0.41402 0.0
C733 C 0.44441 0.92916 0.41092 0.0
C734 C 0.55867 0.85495 0.43437 0.0
C735 C 0.54957 0.81461 0.42245 0.0
C736 C 0.52709 0.86982 0.43379 0.0
C737 C 0.48589 0.84496 0.42101 0.0
C738 C 0.47554 0.80302 0.41035 0.0
C739 C 0.50707 0.78784 0.41118 0.0
H740 H 0.76904 0.51864 0.90713 0.0
H741 H 0.73187 0.6234 0.9071 0.0
H742 H 0.6882 0.45981 0.90777 0.0
H743 H 0.6515 0.56495 0.90695 0.0
H744 H 0.5097 0.45093 0.92628 0.0
H745 H 0.59055 0.50742 0.92948 0.0
H746 H 0.62251 0.42611 0.88205 0.0
H747 H 0.54129 0.36902 0.87927 0.0
C748 C 0.74368 0.52917 0.90748 0.0
C749 C 0.7571 0.57584 0.90712 0.0
C750 C 0.69724 0.49538 0.90757 0.0
C751 C 0.66301 0.5074 0.90724 0.0
C752 C 0.67662 0.55416 0.90754 0.0
C753 C 0.72293 0.58784 0.90755 0.0
C754 C 0.53385 0.44522 0.91634 0.0
C755 C 0.5188 0.40549 0.90235 0.0
C756 C 0.58041 0.47771 0.9182 0.0
C757 C 0.61339 0.47165 0.90597 0.0
C758 C 0.59834 0.43174 0.89205 0.0
C759 C 0.55168 0.39903 0.89034 0.0
H760 H 0.24211 0.7624 0.40143 0.0
H761 H 0.12177 0.73316 0.44222 0.0
H762 H 0.21639 0.68079 0.40022 0.0
H763 H 0.0968 0.65206 0.44173 0.0
H764 H 0.16899 0.53122 0.41567 0.0
H765 H 0.19987 0.61264 0.42199 0.0
H766 H 0.06526 0.59433 0.41098 0.0
H767 H 0.03428 0.5124 0.40502 0.0
C768 C 0.21097 0.73867 0.41079 0.0
C769 C 0.18367 0.75391 0.4217 0.0
C770 C 0.19611 0.69191 0.41006 0.0
C771 C 0.15398 0.65984 0.42043 0.0
C772 C 0.12868 0.67572 0.43295 0.0
C773 C 0.14325 0.72221 0.43348 0.0
C774 C 0.14605 0.54463 0.41431 0.0
C775 C 0.0992 0.51553 0.40957 0.0
C776 C 0.16379 0.59132 0.41803 0.0
C777 C 0.1351 0.61002 0.41705 0.0
C778 C 0.08819 0.58088 0.41231 0.0
C779 C 0.0704 0.53405 0.40875 0.0
H780 H 0.53707 0.03528 0.90267 0.0
H781 H 0.65379 0.16993 0.9142 0.0
H782 H 0.48616 0.06564 0.90978 0.0
H783 H 0.60335 0.20012 0.92165 0.0
H784 H 0.4047 0.12082 0.94394 0.0
H785 H 0.46019 0.09541 0.94142 0.0
H786 H 0.55144 0.21753 0.90145 0.0
H787 H 0.49636 0.24357 0.90463 0.0
C788 C 0.55176 0.07127 0.90676 0.0
C789 C 0.59934 0.10019 0.90757 0.0
C790 C 0.52273 0.08869 0.91101 0.0
C791 C 0.54071 0.13536 0.9164 0.0
C792 C 0.58835 0.16422 0.9172 0.0
C793 C 0.61729 0.14687 0.91281 0.0
C794 C 0.4371 0.14275 0.93511 0.0
C795 C 0.44613 0.18408 0.92438 0.0
C796 C 0.46865 0.1279 0.9334 0.0
C797 C 0.5098 0.15388 0.92076 0.0
C798 C 0.52011 0.1967 0.91138 0.0
C799 C 0.48863 0.21175 0.91326 0.0
H800 H 0.2373 0.50188 0.40593 0.0
H801 H 0.26491 0.40232 0.43846 0.0
H802 H 0.31907 0.55867 0.40735 0.0
H803 H 0.34582 0.45792 0.43921 0.0
H804 H 0.48894 0.57503 0.44986 0.0
H805 H 0.40659 0.52719 0.45522 0.0
H806 H 0.38485 0.56808 0.38493 0.0
H807 H 0.46733 0.61664 0.3799 0.0
C808 C 0.26064 0.49247 0.41386 0.0
C809 C 0.24485 0.44763 0.42187 0.0
C810 C 0.30747 0.52472 0.4144 0.0
C811 C 0.33905 0.51259 0.42306 0.0
C812 C 0.32259 0.46862 0.43258 0.0
C813 C 0.27609 0.4366 0.43204 0.0
C814 C 0.46655 0.5733 0.43546 0.0
C815 C 0.48449 0.59917 0.41435 0.0
C816 C 0.41936 0.54618 0.43858 0.0
C817 C 0.38907 0.544 0.42056 0.0
C818 C 0.40712 0.56975 0.39939 0.0
C819 C 0.45432 0.59714 0.39637 0.0
H820 H 0.92167 0.49377 0.9416 0.0
H821 H 0.84755 0.46398 0.87453 0.0
H822 H 0.88778 0.4123 0.94948 0.0
H823 H 0.81464 0.38203 0.88182 0.0
H824 H 0.74494 0.2348 0.90587 0.0
H825 H 0.76487 0.31517 0.90554 0.0
H826 H 0.8989 0.35425 0.9335 0.0
H827 H 0.87863 0.27493 0.93459 0.0
C828 C 0.89839 0.46963 0.92844 0.0
C829 C 0.88786 0.48501 0.90724 0.0
C830 C 0.87883 0.42296 0.93295 0.0
C831 C 0.84887 0.39052 0.91615 0.0
C832 C 0.83714 0.40598 0.89529 0.0
C833 C 0.85625 0.45283 0.89096 0.0
C834 C 0.77817 0.26061 0.9125 0.0
C835 C 0.81032 0.24861 0.9201 0.0
C836 C 0.78977 0.30664 0.91208 0.0
C837 C 0.83363 0.34126 0.91931 0.0
C838 C 0.86463 0.32867 0.92809 0.0
C839 C 0.85308 0.28301 0.92856 0.0
H840 H 0.21194 0.36002 0.33349 0.0
H841 H 0.10582 0.39381 0.32394 0.0
H842 H 0.22327 0.36331 0.29008 0.0
H843 H 0.11593 0.39534 0.2802 0.0
H844 H 0.16868 0.41636 0.20018 0.0
H845 H 0.16426 0.42917 0.24365 0.0
H846 H 0.17609 0.31062 0.25961 0.0
H847 H 0.1814 0.29871 0.21724 0.0
C848 C 0.19125 0.36848 0.3221 0.0
C849 C 0.15755 0.37596 0.3321 0.0
C850 C 0.19755 0.37017 0.29719 0.0
C851 C 0.16971 0.3785 0.28159 0.0
C852 C 0.13793 0.38886 0.29167 0.0
C853 C 0.13203 0.38777 0.31673 0.0
C854 C 0.17018 0.39319 0.21311 0.0
C855 C 0.17614 0.35703 0.20528 0.0
C856 C 0.16771 0.40047 0.23793 0.0
C857 C 0.17106 0.3716 0.25515 0.0
C858 C 0.17511 0.33457 0.24702 0.0
C859 C 0.17781 0.32755 0.22257 0.0
H860 H 0.82869 0.12129 0.70884 0.0
H861 H 0.84548 0.25638 0.71363 0.0
H862 H 0.81724 0.11231 0.75246 0.0
H863 H 0.83276 0.24649 0.75739 0.0
H864 H 0.74126 0.14855 0.82915 0.0
H865 H 0.7508 0.1627 0.7855 0.0
H866 H 0.8866 0.1823 0.7898 0.0
H867 H 0.87791 0.1694 0.83338 0.0
C868 C 0.82934 0.14882 0.71912 0.0
C869 C 0.83807 0.18962 0.70777 0.0
C870 C 0.8229 0.14364 0.74406 0.0
C871 C 0.82414 0.17871 0.75807 0.0
C872 C 0.83159 0.21901 0.74681 0.0
C873 C 0.83892 0.22462 0.72186 0.0
C874 C 0.7733 0.1563 0.82081 0.0
C875 C 0.80883 0.15781 0.8347 0.0
C876 C 0.77871 0.16449 0.79593 0.0
C877 C 0.81938 0.17353 0.78452 0.0
C878 C 0.855 0.17548 0.79834 0.0
C879 C 0.84998 0.16816 0.82323 0.0
H880 H 0.6313 0.76429 0.2055 0.0
H881 H 0.60675 0.87614 0.2169 0.0
H882 H 0.62378 0.74887 0.24905 0.0
H883 H 0.59735 0.85991 0.25985 0.0
H884 H 0.65991 0.87008 0.33354 0.0
H885 H 0.6521 0.87392 0.29035 0.0
H886 H 0.5782 0.7263 0.28625 0.0
H887 H 0.58713 0.72244 0.32989 0.0
C888 C 0.62284 0.78453 0.21723 0.0
C889 C 0.62013 0.82169 0.20799 0.0
C890 C 0.61855 0.77581 0.24215 0.0
C891 C 0.61103 0.80388 0.25806 0.0
C892 C 0.60454 0.8385 0.2483 0.0
C893 C 0.60952 0.84758 0.22365 0.0
C894 C 0.64162 0.83832 0.32356 0.0
C895 C 0.62411 0.79596 0.33524 0.0
C896 C 0.63683 0.8405 0.2987 0.0
C897 C 0.61413 0.80038 0.28473 0.0
C898 C 0.59609 0.75785 0.29642 0.0
C899 C 0.60095 0.75566 0.32144 0.0
H900 H 0.73514 0.60119 0.70533 0.0
H901 H 0.8777 0.64755 0.69226 0.0
H902 H 0.74724 0.59754 0.74852 0.0
H903 H 0.88969 0.64395 0.7354 0.0
H904 H 0.88818 0.60212 0.81417 0.0
H905 H 0.86962 0.59153 0.77106 0.0
H906 H 0.78961 0.65743 0.77957 0.0
H907 H 0.80801 0.66802 0.82235 0.0
C908 C 0.7689 0.61001 0.71161 0.0
C909 C 0.8055 0.62498 0.69534 0.0
C910 C 0.77588 0.60814 0.73638 0.0
C911 C 0.8195 0.62072 0.74542 0.0
C912 C 0.85561 0.63369 0.72903 0.0
C913 C 0.84876 0.636 0.7043 0.0
C914 C 0.86623 0.61387 0.80685 0.0
C915 C 0.84974 0.63606 0.82169 0.0
C916 C 0.85579 0.60801 0.78216 0.0
C917 C 0.82811 0.62362 0.77189 0.0
C918 C 0.81055 0.64451 0.78692 0.0
C919 C 0.82138 0.65085 0.81146 0.0
H920 H 0.09193 0.79748 0.21771 0.0
H921 H 0.23103 0.83339 0.20201 0.0
H922 H 0.10883 0.80727 0.26013 0.0
H923 H 0.24794 0.8418 0.24553 0.0
H924 H 0.26636 0.89981 0.32486 0.0
H925 H 0.25708 0.88738 0.28122 0.0
H926 H 0.12162 0.77168 0.29271 0.0
H927 H 0.13018 0.78557 0.33588 0.0
C928 C 0.12624 0.80696 0.22332 0.0
C929 C 0.16001 0.81419 0.20628 0.0
C930 C 0.13587 0.81224 0.2479 0.0
C931 C 0.17953 0.82438 0.25657 0.0
C932 C 0.21386 0.83239 0.23958 0.0
C933 C 0.20421 0.82744 0.21465 0.0
C934 C 0.23481 0.87147 0.318 0.0
C935 C 0.19872 0.8441 0.33382 0.0
C936 C 0.22954 0.86421 0.29295 0.0
C937 C 0.18822 0.82908 0.28322 0.0
C938 C 0.15341 0.80003 0.29933 0.0
C939 C 0.15838 0.80774 0.32419 0.0
H940 H 0.32721 0.10752 0.83998 0.0
H941 H 0.40304 0.25404 0.82974 0.0
H942 H 0.33291 0.09663 0.79674 0.0
H943 H 0.40861 0.24301 0.78675 0.0
H944 H 0.34132 0.20003 0.71119 0.0
H945 H 0.34897 0.21266 0.75448 0.0
H946 H 0.38889 0.11062 0.76195 0.0
H947 H 0.38145 0.09804 0.71809 0.0
C948 C 0.34556 0.13738 0.8286 0.0
C949 C 0.36428 0.18167 0.83834 0.0
C950 C 0.34905 0.13111 0.80385 0.0
C951 C 0.37097 0.16896 0.78831 0.0
C952 C 0.39108 0.21315 0.79821 0.0
C953 C 0.38794 0.21944 0.8229 0.0
C954 C 0.35232 0.18063 0.72195 0.0
C955 C 0.36081 0.14803 0.71118 0.0
C956 C 0.3569 0.18803 0.7468 0.0
C957 C 0.36956 0.16267 0.76167 0.0
C958 C 0.37887 0.13053 0.75094 0.0
C959 C 0.37498 0.12359 0.72586 0.0
H960 H 0.35583 0.30336 0.97074 0.0
H961 H 0.25192 0.16104 0.97793 0.0
H962 H 0.32111 0.32301 1.00367 0.0
H963 H 0.21665 0.18081 1.01043 0.0
H964 H 0.20187 0.22638 0.0861 0.0
H965 H 0.23044 0.20564 0.05124 0.0
H966 H 0.25412 0.32857 1.01488 0.0
H967 H 0.22604 0.35008 0.05059 0.0
C968 C 0.32581 0.27615 0.97947 0.0
C969 C 0.30706 0.23046 0.97182 0.0
C970 C 0.30546 0.28757 0.99814 0.0
C971 C 0.26581 0.25364 1.00968 0.0
C972 C 0.2474 0.20789 1.00217 0.0
C973 C 0.26776 0.19646 0.98355 0.0
C974 C 0.2125 0.24882 0.07056 0.0
C975 C 0.21177 0.29002 0.07117 0.0
C976 C 0.22877 0.23673 0.05044 0.0
C977 C 0.24494 0.26545 0.03019 0.0
C978 C 0.24251 0.30591 0.03031 0.0
C979 C 0.22586 0.31799 0.05059 0.0
H980 H 0.08459 0.24766 0.47498 0.0
H981 H 0.04157 0.34696 0.46474 0.0
H982 H 0.03378 0.21729 0.51029 0.0
H983 H 0.99003 0.31552 0.49812 0.0
H984 H 0.90445 0.15135 0.56072 0.0
H985 H 0.95429 0.17559 0.52495 0.0
H986 H 0.99287 0.31599 0.53949 0.0
H987 H 0.94217 0.29206 0.57344 0.0
C988 C 0.0647 0.26316 0.48028 0.0
C989 C 0.06804 0.30038 0.4672 0.0
C990 C 0.03508 0.24538 0.50028 0.0
C991 C 0.008 0.26422 0.50738 0.0
C992 C 0.01112 0.3008 0.49388 0.0
C993 C 0.04091 0.31888 0.47446 0.0
C994 C 0.92287 0.18719 0.55582 0.0
C995 C 0.91856 0.21952 0.56983 0.0
C996 C 0.95199 0.20121 0.53556 0.0
C997 C 0.97752 0.24782 0.52907 0.0
C998 C 0.97306 0.27971 0.5433 0.0
C999 C 0.94379 0.26582 0.56304 0.0
H1000 H 0.76825 0.98681 0.09298 0.0
H1001 H 0.65115 0.88345 0.05396 0.0
H1002 H 0.79479 0.03414 0.05699 0.0
H1003 H 0.67808 0.93119 1.01759 0.0
H1004 H 0.70571 0.05527 0.97122 0.0
H1005 H 0.68419 0.0052 1.00602 0.0
H1006 H 0.82472 0.04031 1.01541 0.0
H1007 H 0.84663 0.09081 0.98017 0.0
C1008 C 0.7484 0.97388 0.07657 0.0
C1009 C 0.7073 0.93143 0.07638 0.0
C1010 C 0.76387 0.00102 0.05589 0.0
C1011 C 0.73844 0.98672 0.03446 0.0
C1012 C 0.69817 0.94344 0.03395 0.0
C1013 C 0.6829 0.9159 0.05468 0.0
C1014 C 0.73233 0.05284 0.98075 0.0
C1015 C 0.77808 0.07734 0.97284 0.0
C1016 C 0.71975 0.02355 1.00058 0.0
C1017 C 0.75251 0.01807 1.01327 0.0
C1018 C 0.7986 0.04372 1.00597 0.0
C1019 C 0.81123 0.0729 0.98589 0.0
H1020 H 0.83695 0.76366 0.56557 0.0
H1021 H 0.71612 0.63323 0.55167 0.0
H1022 H 0.81285 0.79922 0.53498 0.0
H1023 H 0.69297 0.6679 0.52051 0.0
H1024 H 0.63178 0.74221 0.48595 0.0
H1025 H 0.66152 0.71525 0.5179 0.0
H1026 H 0.79934 0.80844 0.49378 0.0
H1027 H 0.76912 0.83687 0.46242 0.0
C1028 C 0.80597 0.7423 0.55544 0.0
C1029 C 0.77847 0.69557 0.56103 0.0
C1030 C 0.79196 0.76274 0.53796 0.0
C1031 C 0.75029 0.73683 0.52552 0.0
C1032 C 0.72442 0.6895 0.5302 0.0
C1033 C 0.73806 0.66931 0.54783 0.0
C1034 C 0.66849 0.75793 0.48797 0.0
C1035 C 0.69808 0.79196 0.47183 0.0
C1036 C 0.68565 0.74187 0.50602 0.0
C1037 C 0.73295 0.75857 0.50813 0.0
C1038 C 0.76277 0.79467 0.49284 0.0
C1039 C 0.7455 0.81132 0.47494 0.0
H1040 H 0.9209 0.76328 0.96532 0.0
H1041 H 0.96496 0.66443 0.95721 0.0
H1042 H 0.96607 0.79105 1.0026 0.0
H1043 H 0.00977 0.69219 0.99389 0.0
H1044 H 0.12022 0.7795 0.04891 0.0
H1045 H 0.0793 0.76051 1.0102 0.0
H1046 H 0.96616 0.76313 0.04433 0.0
H1047 H 0.00658 0.78177 0.08267 0.0
C1048 C 0.93986 0.74729 0.97148 0.0
C1049 C 0.93881 0.71135 0.9582 0.0
C1050 C 0.96589 0.76327 0.99282 0.0
C1051 C 0.99208 0.74421 1.00117 0.0
C1052 C 0.99082 0.7083 0.98787 0.0
C1053 C 0.9645 0.69201 0.96687 0.0
C1054 C 0.08691 0.77659 0.04804 0.0
C1055 C 0.0667 0.78188 0.06898 0.0
C1056 C 0.06326 0.76542 0.0259 0.0
C1057 C 0.0192 0.76004 0.02411 0.0
C1058 C 2e-05 0.76728 0.04489 0.0
C1059 C 0.02323 0.77771 0.06697 0.0
H1060 H 0.15157 0.93584 0.46832 0.0
H1061 H 0.26824 0.91954 0.48096 0.0
H1062 H 0.17275 0.98668 0.50343 0.0
H1063 H 0.28843 0.96845 0.51622 0.0
H1064 H 0.34874 0.0953 0.55996 0.0
H1065 H 0.32128 0.04664 0.52449 0.0
H1066 H 0.18181 0.99772 0.54654 0.0
H1067 H 0.20982 0.04831 0.58181 0.0
C1068 C 0.181 0.9421 0.47896 0.0
C1069 C 0.20826 0.92366 0.47177 0.0
C1070 C 0.19332 0.97145 0.49907 0.0
C1071 C 0.23306 0.98284 0.5125 0.0
C1072 C 0.25853 0.96202 0.50598 0.0
C1073 C 0.24657 0.93329 0.48587 0.0
C1074 C 0.31219 0.07495 0.55698 0.0
C1075 C 0.28154 0.07589 0.5737 0.0
C1076 C 0.2963 0.04636 0.53676 0.0
C1077 C 0.24915 0.01699 0.53279 0.0
C1078 C 0.21832 0.01971 0.54887 0.0
C1079 C 0.23436 0.04895 0.56906 0.0
loop_
_geom_bond_atom_site_label_1
_geom_bond_atom_site_label_2
_geom_bond_distance
_geom_bond_site_symmetry_2
_ccdc_geom_bond_type
Co0 N5 2.057 . S
Co0 O17 2.021 . S
Co0 O20 2.062 . S
Co0 O24 2.117 . S
Co0 O25 2.020 . S
C1 O21 1.259 . S
C1 O24 1.258 . S
Co2 N11 2.057 . S
Co2 O18 2.117 . S
Co2 O19 2.020 . S
Co2 O21 2.021 . S
Co2 O26 2.062 . S
C3 N5 1.316 . S
C3 N6 1.347 . S
C3 H8 0.931 . S
C4 N5 1.375 . S
C4 C7 1.350 . S
C4 H9 0.930 . S
N5 Co0 2.057 . S
N5 C3 1.316 . S
N5 C4 1.375 . S
N6 C3 1.347 . S
N6 C7 1.373 . S
C7 C4 1.350 . S
C7 N6 1.373 . S
C7 H28 0.931 . S
H8 C3 0.931 . S
H9 C4 0.930 . S
C10 O17 1.259 . S
C10 O18 1.258 . S
N11 Co2 2.057 . S
N11 C12 1.316 . S
N11 C13 1.375 . S
C12 N11 1.316 . S
C12 N14 1.347 . S
C12 H23 0.931 . S
C13 N11 1.375 . S
C13 C15 1.350 . S
C13 H22 0.930 . S
N14 C12 1.347 . S
N14 C15 1.373 . S
C15 C13 1.350 . S
C15 N14 1.373 . S
C15 H29 0.931 . S
C16 O19 1.256 . S
C16 O20 1.255 . S
O17 Co0 2.021 . S
O17 C10 1.259 . S
O18 Co2 2.117 . S
O18 C10 1.258 . S
O19 Co2 2.020 . S
O19 C16 1.256 . S
O20 Co0 2.062 . S
O20 C16 1.255 . S
O21 C1 1.259 . S
O21 Co2 2.021 . S
H22 C13 0.930 . S
H23 C12 0.931 . S
O24 Co0 2.117 . S
O24 C1 1.258 . S
O25 Co0 2.020 . S
O25 C27 1.256 . S
O26 Co2 2.062 . S
O26 C27 1.255 . S
C27 O25 1.256 . S
C27 O26 1.255 . S
H28 C7 0.931 . S
H29 C15 0.931 . S
Co30 N35 2.057 . S
Co30 O47 2.021 . S
Co30 O50 2.062 . S
Co30 O54 2.117 . S
Co30 O55 2.020 . S
C31 O51 1.259 . S
C31 O54 1.258 . S
Co32 N41 2.057 . S
Co32 O48 2.117 . S
Co32 O49 2.020 . S
Co32 O51 2.021 . S
Co32 O56 2.062 . S
C33 N35 1.316 . S
C33 N36 1.347 . S
C33 H38 0.931 . S
C34 N35 1.375 . S
C34 C37 1.350 . S
C34 H39 0.930 . S
N35 Co30 2.057 . S
N35 C33 1.316 . S
N35 C34 1.375 . S
N36 C33 1.347 . S
N36 C37 1.373 . S
C37 C34 1.350 . S
C37 N36 1.373 . S
C37 H58 0.931 1_545 S
H38 C33 0.931 . S
H39 C34 0.930 . S
C40 O47 1.259 . S
C40 O48 1.258 . S
N41 Co32 2.057 . S
N41 C42 1.316 . S
N41 C43 1.375 . S
C42 N41 1.316 . S
C42 N44 1.347 . S
C42 H53 0.931 . S
C43 N41 1.375 . S
C43 C45 1.350 . S
C43 H52 0.930 . S
N44 C42 1.347 . S
N44 C45 1.373 . S
C45 C43 1.350 . S
C45 N44 1.373 . S
C45 H59 0.931 . S
C46 O49 1.256 . S
C46 O50 1.255 . S
O47 Co30 2.021 . S
O47 C40 1.259 . S
O48 Co32 2.117 . S
O48 C40 1.258 . S
O49 Co32 2.020 . S
O49 C46 1.256 . S
O50 Co30 2.062 . S
O50 C46 1.255 . S
O51 C31 1.259 . S
O51 Co32 2.021 . S
H52 C43 0.930 . S
H53 C42 0.931 . S
O54 Co30 2.117 . S
O54 C31 1.258 . S
O55 Co30 2.020 . S
O55 C57 1.256 . S
O56 Co32 2.062 . S
O56 C57 1.255 . S
C57 O55 1.256 . S
C57 O56 1.255 . S
H58 C37 0.931 1_565 S
H59 C45 0.931 . S
Co60 N65 2.057 . S
Co60 O77 2.021 . S
Co60 O80 2.062 . S
Co60 O84 2.117 . S
Co60 O85 2.020 . S
C61 O81 1.259 . S
C61 O84 1.258 . S
Co62 N71 2.057 . S
Co62 O78 2.117 . S
Co62 O79 2.020 . S
Co62 O81 2.021 . S
Co62 O86 2.062 . S
C63 N65 1.316 . S
C63 N66 1.347 . S
C63 H68 0.931 . S
C64 N65 1.375 . S
C64 C67 1.350 . S
C64 H69 0.930 . S
N65 Co60 2.057 . S
N65 C63 1.316 . S
N65 C64 1.375 . S
N66 C63 1.347 . S
N66 C67 1.373 . S
C67 C64 1.350 . S
C67 N66 1.373 . S
C67 H88 0.931 . S
H68 C63 0.931 . S
H69 C64 0.930 . S
C70 O77 1.259 . S
C70 O78 1.258 . S
N71 Co62 2.057 . S
N71 C72 1.316 1_565 S
N71 C73 1.375 . S
C72 N71 1.316 1_545 S
C72 N74 1.347 . S
C72 H83 0.931 . S
C73 N71 1.375 . S
C73 C75 1.350 1_565 S
C73 H82 0.930 . S
N74 C72 1.347 . S
N74 C75 1.373 . S
C75 C73 1.350 1_545 S
C75 N74 1.373 . S
C75 H89 0.931 . S
C76 O79 1.256 . S
C76 O80 1.255 . S
O77 Co60 2.021 . S
O77 C70 1.259 . S
O78 Co62 2.117 . S
O78 C70 1.258 . S
O79 Co62 2.020 . S
O79 C76 1.256 . S
O80 Co60 2.062 . S
O80 C76 1.255 . S
O81 C61 1.259 . S
O81 Co62 2.021 . S
H82 C73 0.930 . S
H83 C72 0.931 . S
O84 Co60 2.117 . S
O84 C61 1.258 . S
O85 Co60 2.020 . S
O85 C87 1.256 . S
O86 Co62 2.062 . S
O86 C87 1.255 . S
C87 O85 1.256 . S
C87 O86 1.255 . S
H88 C67 0.931 . S
H89 C75 0.931 . S
Co90 N95 2.057 . S
Co90 O107 2.021 . S
Co90 O110 2.062 . S
Co90 O114 2.117 . S
Co90 O115 2.020 . S
C91 O111 1.259 . S
C91 O114 1.258 . S
Co92 N101 2.057 . S
Co92 O108 2.117 . S
Co92 O109 2.020 . S
Co92 O111 2.021 . S
Co92 O116 2.062 . S
C93 N95 1.316 . S
C93 N96 1.347 . S
C93 H98 0.931 . S
C94 N95 1.375 . S
C94 C97 1.350 . S
C94 H99 0.930 . S
N95 Co90 2.057 . S
N95 C93 1.316 . S
N95 C94 1.375 . S
N96 C93 1.347 . S
N96 C97 1.373 . S
C97 C94 1.350 . S
C97 N96 1.373 . S
C97 H118 0.931 1_655 S
H98 C93 0.931 . S
H99 C94 0.930 . S
C100 O107 1.259 . S
C100 O108 1.258 . S
N101 Co92 2.057 . S
N101 C102 1.316 . S
N101 C103 1.375 . S
C102 N101 1.316 . S
C102 N104 1.347 . S
C102 H113 0.931 . S
C103 N101 1.375 . S
C103 C105 1.350 . S
C103 H112 0.930 . S
N104 C102 1.347 . S
N104 C105 1.373 . S
C105 C103 1.350 . S
C105 N104 1.373 . S
C105 H119 0.931 . S
C106 O109 1.256 . S
C106 O110 1.255 . S
O107 Co90 2.021 . S
O107 C100 1.259 . S
O108 Co92 2.117 . S
O108 C100 1.258 . S
O109 Co92 2.020 . S
O109 C106 1.256 . S
O110 Co90 2.062 . S
O110 C106 1.255 . S
O111 C91 1.259 . S
O111 Co92 2.021 . S
H112 C103 0.930 . S
H113 C102 0.931 . S
O114 Co90 2.117 . S
O114 C91 1.258 . S
O115 Co90 2.020 . S
O115 C117 1.256 . S
O116 Co92 2.062 . S
O116 C117 1.255 . S
C117 O115 1.256 . S
C117 O116 1.255 . S
H118 C97 0.931 1_455 S
H119 C105 0.931 . S
Co120 N125 2.057 . S
Co120 O137 2.021 . S
Co120 O140 2.062 . S
Co120 O144 2.117 . S
Co120 O145 2.020 . S
C121 O141 1.259 . S
C121 O144 1.258 . S
Co122 N131 2.057 . S
Co122 O138 2.117 . S
Co122 O139 2.020 . S
Co122 O141 2.021 . S
Co122 O146 2.062 . S
C123 N125 1.316 . S
C123 N126 1.347 . S
C123 H128 0.931 . S
C124 N125 1.375 . S
C124 C127 1.350 . S
C124 H129 0.930 . S
N125 Co120 2.057 . S
N125 C123 1.316 . S
N125 C124 1.375 . S
N126 C123 1.347 . S
N126 C127 1.373 . S
C127 C124 1.350 . S
C127 N126 1.373 . S
C127 H148 0.931 . S
H128 C123 0.931 . S
H129 C124 0.930 . S
C130 O137 1.259 . S
C130 O138 1.258 . S
N131 Co122 2.057 . S
N131 C132 1.316 1_455 S
N131 C133 1.375 . S
C132 N131 1.316 1_655 S
C132 N134 1.347 . S
C132 H143 0.931 . S
C133 N131 1.375 . S
C133 C135 1.350 1_455 S
C133 H142 0.930 . S
N134 C132 1.347 . S
N134 C135 1.373 . S
C135 C133 1.350 1_655 S
C135 N134 1.373 . S
C135 H149 0.931 . S
C136 O139 1.256 . S
C136 O140 1.255 . S
O137 Co120 2.021 . S
O137 C130 1.259 . S
O138 Co122 2.117 . S
O138 C130 1.258 . S
O139 Co122 2.020 . S
O139 C136 1.256 . S
O140 Co120 2.062 . S
O140 C136 1.255 . S
O141 C121 1.259 . S
O141 Co122 2.021 . S
H142 C133 0.930 . S
H143 C132 0.931 . S
O144 Co120 2.117 . S
O144 C121 1.258 . S
O145 Co120 2.020 . S
O145 C147 1.256 . S
O146 Co122 2.062 . S
O146 C147 1.255 . S
C147 O145 1.256 . S
C147 O146 1.255 . S
H148 C127 0.931 . S
H149 C135 0.931 . S
Co150 N155 2.057 . S
Co150 O167 2.021 . S
Co150 O170 2.062 . S
Co150 O174 2.117 . S
Co150 O175 2.020 . S
C151 O171 1.259 . S
C151 O174 1.258 . S
Co152 N161 2.057 . S
Co152 O168 2.117 . S
Co152 O169 2.020 . S
Co152 O171 2.021 . S
Co152 O176 2.062 . S
C153 N155 1.316 . S
C153 N156 1.347 . S
C153 H158 0.931 . S
C154 N155 1.375 . S
C154 C157 1.350 . S
C154 H159 0.930 . S
N155 Co150 2.057 . S
N155 C153 1.316 . S
N155 C154 1.375 . S
N156 C153 1.347 . S
N156 C157 1.373 . S
C157 C154 1.350 . S
C157 N156 1.373 . S
C157 H178 0.931 . S
H158 C153 0.931 . S
H159 C154 0.930 . S
C160 O167 1.259 . S
C160 O168 1.258 . S
N161 Co152 2.057 . S
N161 C162 1.316 . S
N161 C163 1.375 . S
C162 N161 1.316 . S
C162 N164 1.347 . S
C162 H173 0.931 . S
C163 N161 1.375 . S
C163 C165 1.350 . S
C163 H172 0.930 . S
N164 C162 1.347 . S
N164 C165 1.373 . S
C165 C163 1.350 . S
C165 N164 1.373 . S
C165 H179 0.931 . S
C166 O169 1.256 . S
C166 O170 1.255 . S
O167 Co150 2.021 . S
O167 C160 1.259 . S
O168 Co152 2.117 . S
O168 C160 1.258 . S
O169 Co152 2.020 . S
O169 C166 1.256 . S
O170 Co150 2.062 . S
O170 C166 1.255 . S
O171 C151 1.259 . S
O171 Co152 2.021 . S
H172 C163 0.930 . S
H173 C162 0.931 . S
O174 Co150 2.117 . S
O174 C151 1.258 . S
O175 Co150 2.020 . S
O175 C177 1.256 . S
O176 Co152 2.062 . S
O176 C177 1.255 . S
C177 O175 1.256 . S
C177 O176 1.255 . S
H178 C157 0.931 . S
H179 C165 0.931 . S
Co180 N185 2.057 . S
Co180 O197 2.021 . S
Co180 O200 2.062 . S
Co180 O204 2.117 . S
Co180 O205 2.020 . S
C181 O201 1.259 . S
C181 O204 1.258 . S
Co182 N191 2.057 . S
Co182 O198 2.117 . S
Co182 O199 2.020 . S
Co182 O201 2.021 . S
Co182 O206 2.062 . S
C183 N185 1.316 . S
C183 N186 1.347 . S
C183 H188 0.931 . S
C184 N185 1.375 . S
C184 C187 1.350 . S
C184 H189 0.930 . S
N185 Co180 2.057 . S
N185 C183 1.316 . S
N185 C184 1.375 . S
N186 C183 1.347 . S
N186 C187 1.373 . S
C187 C184 1.350 . S
C187 N186 1.373 . S
C187 H208 0.931 1_565 S
H188 C183 0.931 . S
H189 C184 0.930 . S
C190 O197 1.259 . S
C190 O198 1.258 . S
N191 Co182 2.057 . S
N191 C192 1.316 . S
N191 C193 1.375 . S
C192 N191 1.316 . S
C192 N194 1.347 . S
C192 H203 0.931 . S
C193 N191 1.375 . S
C193 C195 1.350 . S
C193 H202 0.930 . S
N194 C192 1.347 . S
N194 C195 1.373 . S
C195 C193 1.350 . S
C195 N194 1.373 . S
C195 H209 0.931 . S
C196 O199 1.256 . S
C196 O200 1.255 . S
O197 Co180 2.021 . S
O197 C190 1.259 . S
O198 Co182 2.117 . S
O198 C190 1.258 . S
O199 Co182 2.020 . S
O199 C196 1.256 . S
O200 Co180 2.062 . S
O200 C196 1.255 . S
O201 C181 1.259 . S
O201 Co182 2.021 . S
H202 C193 0.930 . S
H203 C192 0.931 . S
O204 Co180 2.117 . S
O204 C181 1.258 . S
O205 Co180 2.020 . S
O205 C207 1.256 . S
O206 Co182 2.062 . S
O206 C207 1.255 . S
C207 O205 1.256 . S
C207 O206 1.255 . S
H208 C187 0.931 1_545 S
H209 C195 0.931 . S
Co210 N215 2.057 . S
Co210 O227 2.021 . S
Co210 O230 2.062 . S
Co210 O234 2.117 . S
Co210 O235 2.020 . S
C211 O231 1.259 . S
C211 O234 1.258 . S
Co212 N221 2.057 . S
Co212 O228 2.117 . S
Co212 O229 2.020 . S
Co212 O231 2.021 . S
Co212 O236 2.062 . S
C213 N215 1.316 . S
C213 N216 1.347 . S
C213 H218 0.931 . S
C214 N215 1.375 . S
C214 C217 1.350 . S
C214 H219 0.930 . S
N215 Co210 2.057 . S
N215 C213 1.316 . S
N215 C214 1.375 . S
N216 C213 1.347 . S
N216 C217 1.373 . S
C217 C214 1.350 . S
C217 N216 1.373 . S
C217 H238 0.931 . S
H218 C213 0.931 . S
H219 C214 0.930 . S
C220 O227 1.259 . S
C220 O228 1.258 . S
N221 Co212 2.057 . S
N221 C222 1.316 . S
N221 C223 1.375 . S
C222 N221 1.316 . S
C222 N224 1.347 . S
C222 H233 0.931 . S
C223 N221 1.375 . S
C223 C225 1.350 . S
C223 H232 0.930 . S
N224 C222 1.347 . S
N224 C225 1.373 . S
C225 C223 1.350 . S
C225 N224 1.373 . S
C225 H239 0.931 . S
C226 O229 1.256 . S
C226 O230 1.255 . S
O227 Co210 2.021 . S
O227 C220 1.259 . S
O228 Co212 2.117 . S
O228 C220 1.258 . S
O229 Co212 2.020 . S
O229 C226 1.256 . S
O230 Co210 2.062 . S
O230 C226 1.255 . S
O231 C211 1.259 . S
O231 Co212 2.021 . S
H232 C223 0.930 . S
H233 C222 0.931 . S
O234 Co210 2.117 . S
O234 C211 1.258 . S
O235 Co210 2.020 . S
O235 C237 1.256 . S
O236 Co212 2.062 . S
O236 C237 1.255 . S
C237 O235 1.256 . S
C237 O236 1.255 . S
H238 C217 0.931 . S
H239 C225 0.931 . S
Co240 N245 2.057 . S
Co240 O257 2.021 . S
Co240 O260 2.062 . S
Co240 O264 2.117 . S
Co240 O265 2.020 . S
C241 O261 1.259 . S
C241 O264 1.258 . S
Co242 N251 2.057 . S
Co242 O258 2.117 . S
Co242 O259 2.020 . S
Co242 O261 2.021 . S
Co242 O266 2.062 . S
C243 N245 1.316 . S
C243 N246 1.347 . S
C243 H248 0.931 . S
C244 N245 1.375 . S
C244 C247 1.350 . S
C244 H249 0.930 . S
N245 Co240 2.057 . S
N245 C243 1.316 . S
N245 C244 1.375 . S
N246 C243 1.347 . S
N246 C247 1.373 . S
C247 C244 1.350 . S
C247 N246 1.373 . S
C247 H268 0.931 1_455 S
H248 C243 0.931 . S
H249 C244 0.930 . S
C250 O257 1.259 . S
C250 O258 1.258 . S
N251 Co242 2.057 . S
N251 C252 1.316 . S
N251 C253 1.375 . S
C252 N251 1.316 . S
C252 N254 1.347 . S
C252 H263 0.931 . S
C253 N251 1.375 . S
C253 C255 1.350 . S
C253 H262 0.930 . S
N254 C252 1.347 . S
N254 C255 1.373 . S
C255 C253 1.350 . S
C255 N254 1.373 . S
C255 H269 0.931 . S
C256 O259 1.256 . S
C256 O260 1.255 . S
O257 Co240 2.021 . S
O257 C250 1.259 . S
O258 Co242 2.117 . S
O258 C250 1.258 . S
O259 Co242 2.020 . S
O259 C256 1.256 . S
O260 Co240 2.062 . S
O260 C256 1.255 . S
O261 C241 1.259 . S
O261 Co242 2.021 . S
H262 C253 0.930 . S
H263 C252 0.931 . S
O264 Co240 2.117 . S
O264 C241 1.258 . S
O265 Co240 2.020 . S
O265 C267 1.256 . S
O266 Co242 2.062 . S
O266 C267 1.255 . S
C267 O265 1.256 . S
C267 O266 1.255 . S
H268 C247 0.931 1_655 S
H269 C255 0.931 . S
Co270 N275 2.057 . S
Co270 O287 2.021 . S
Co270 O290 2.062 . S
Co270 O294 2.117 . S
Co270 O295 2.020 . S
C271 O291 1.259 . S
C271 O294 1.258 . S
Co272 N281 2.057 . S
Co272 O288 2.117 . S
Co272 O289 2.020 . S
Co272 O291 2.021 . S
Co272 O296 2.062 . S
C273 N275 1.316 . S
C273 N276 1.347 . S
C273 H278 0.931 . S
C274 N275 1.375 . S
C274 C277 1.350 . S
C274 H279 0.930 . S
N275 Co270 2.057 . S
N275 C273 1.316 . S
N275 C274 1.375 . S
N276 C273 1.347 . S
N276 C277 1.373 . S
C277 C274 1.350 . S
C277 N276 1.373 . S
C277 H298 0.931 1_545 S
H278 C273 0.931 . S
H279 C274 0.930 . S
C280 O287 1.259 . S
C280 O288 1.258 . S
N281 Co272 2.057 . S
N281 C282 1.316 . S
N281 C283 1.375 . S
C282 N281 1.316 . S
C282 N284 1.347 . S
C282 H293 0.931 . S
C283 N281 1.375 . S
C283 C285 1.350 . S
C283 H292 0.930 . S
N284 C282 1.347 . S
N284 C285 1.373 . S
C285 C283 1.350 . S
C285 N284 1.373 . S
C285 H299 0.931 . S
C286 O289 1.256 . S
C286 O290 1.255 . S
O287 Co270 2.021 . S
O287 C280 1.259 . S
O288 Co272 2.117 . S
O288 C280 1.258 . S
O289 Co272 2.020 . S
O289 C286 1.256 . S
O290 Co270 2.062 . S
O290 C286 1.255 . S
O291 C271 1.259 . S
O291 Co272 2.021 . S
H292 C283 0.930 . S
H293 C282 0.931 . S
O294 Co270 2.117 . S
O294 C271 1.258 . S
O295 Co270 2.020 . S
O295 C297 1.256 . S
O296 Co272 2.062 . S
O296 C297 1.255 . S
C297 O295 1.256 . S
C297 O296 1.255 . S
H298 C277 0.931 1_565 S
H299 C285 0.931 . S
Co300 N305 2.057 . S
Co300 O317 2.021 . S
Co300 O320 2.062 . S
Co300 O324 2.117 . S
Co300 O325 2.020 . S
C301 O321 1.259 . S
C301 O324 1.258 . S
Co302 N311 2.057 . S
Co302 O318 2.117 . S
Co302 O319 2.020 . S
Co302 O321 2.021 . S
Co302 O326 2.062 . S
C303 N305 1.316 . S
C303 N306 1.347 . S
C303 H308 0.931 . S
C304 N305 1.375 . S
C304 C307 1.350 . S
C304 H309 0.930 . S
N305 Co300 2.057 . S
N305 C303 1.316 . S
N305 C304 1.375 . S
N306 C303 1.347 . S
N306 C307 1.373 . S
C307 C304 1.350 . S
C307 N306 1.373 . S
C307 H328 0.931 . S
H308 C303 0.931 . S
H309 C304 0.930 . S
C310 O317 1.259 . S
C310 O318 1.258 . S
N311 Co302 2.057 . S
N311 C312 1.316 . S
N311 C313 1.375 . S
C312 N311 1.316 . S
C312 N314 1.347 . S
C312 H323 0.931 . S
C313 N311 1.375 . S
C313 C315 1.350 . S
C313 H322 0.930 . S
N314 C312 1.347 . S
N314 C315 1.373 . S
C315 C313 1.350 . S
C315 N314 1.373 . S
C315 H329 0.931 . S
C316 O319 1.256 . S
C316 O320 1.255 . S
O317 Co300 2.021 . S
O317 C310 1.259 . S
O318 Co302 2.117 . S
O318 C310 1.258 . S
O319 Co302 2.020 . S
O319 C316 1.256 . S
O320 Co300 2.062 . S
O320 C316 1.255 . S
O321 C301 1.259 . S
O321 Co302 2.021 . S
H322 C313 0.930 . S
H323 C312 0.931 . S
O324 Co300 2.117 . S
O324 C301 1.258 . S
O325 Co300 2.020 . S
O325 C327 1.256 . S
O326 Co302 2.062 . S
O326 C327 1.255 . S
C327 O325 1.256 . S
C327 O326 1.255 . S
H328 C307 0.931 . S
H329 C315 0.931 . S
Co330 N335 2.057 . S
Co330 O347 2.021 . S
Co330 O350 2.062 . S
Co330 O354 2.117 . S
Co330 O355 2.020 . S
C331 O351 1.259 . S
C331 O354 1.258 . S
Co332 N341 2.057 . S
Co332 O348 2.117 . S
Co332 O349 2.020 . S
Co332 O351 2.021 . S
Co332 O356 2.062 . S
C333 N335 1.316 . S
C333 N336 1.347 . S
C333 H338 0.931 . S
C334 N335 1.375 . S
C334 C337 1.350 . S
C334 H339 0.930 . S
N335 Co330 2.057 . S
N335 C333 1.316 . S
N335 C334 1.375 . S
N336 C333 1.347 . S
N336 C337 1.373 . S
C337 C334 1.350 . S
C337 N336 1.373 . S
C337 H358 0.931 1_655 S
H338 C333 0.931 . S
H339 C334 0.930 . S
C340 O347 1.259 . S
C340 O348 1.258 . S
N341 Co332 2.057 . S
N341 C342 1.316 . S
N341 C343 1.375 . S
C342 N341 1.316 . S
C342 N344 1.347 . S
C342 H353 0.931 . S
C343 N341 1.375 . S
C343 C345 1.350 . S
C343 H352 0.930 . S
N344 C342 1.347 . S
N344 C345 1.373 . S
C345 C343 1.350 . S
C345 N344 1.373 . S
C345 H359 0.931 . S
C346 O349 1.256 . S
C346 O350 1.255 . S
O347 Co330 2.021 . S
O347 C340 1.259 . S
O348 Co332 2.117 . S
O348 C340 1.258 . S
O349 Co332 2.020 . S
O349 C346 1.256 . S
O350 Co330 2.062 . S
O350 C346 1.255 . S
O351 C331 1.259 . S
O351 Co332 2.021 . S
H352 C343 0.930 . S
H353 C342 0.931 . S
O354 Co330 2.117 . S
O354 C331 1.258 . S
O355 Co330 2.020 . S
O355 C357 1.256 . S
O356 Co332 2.062 . S
O356 C357 1.255 . S
C357 O355 1.256 . S
C357 O356 1.255 . S
H358 C337 0.931 1_455 S
H359 C345 0.931 . S
H360 C368 0.950 . S
H361 C373 0.950 . S
H362 C370 0.950 . S
H363 C372 0.949 1_545 S
H364 C374 0.950 . S
H365 C376 0.950 . S
H366 C378 0.950 . S
H367 C379 0.950 . S
C368 H360 0.950 . S
C368 C369 1.386 . S
C368 C370 1.391 . S
C369 C368 1.386 . S
C369 C373 1.393 . S
C370 H362 0.950 . S
C370 C368 1.391 . S
C370 C371 1.400 1_565 S
C371 C370 1.400 1_545 S
C371 C372 1.395 1_545 S
C371 C377 1.491 . S
C372 H363 0.949 1_565 S
C372 C371 1.395 1_565 S
C372 C373 1.395 . S
C373 H361 0.950 . S
C373 C369 1.393 . S
C373 C372 1.395 . S
C374 H364 0.950 . S
C374 C375 1.386 . S
C374 C376 1.391 . S
C375 C374 1.386 . S
C375 C379 1.393 . S
C376 H365 0.950 . S
C376 C374 1.391 . S
C376 C377 1.400 . S
C377 C371 1.491 . S
C377 C376 1.400 . S
C377 C378 1.398 . S
C378 H366 0.950 . S
C378 C377 1.398 . S
C378 C379 1.391 . S
C379 H367 0.950 . S
C379 C375 1.393 . S
C379 C378 1.391 . S
H380 C388 0.950 . S
H381 C393 0.950 . S
H382 C390 0.950 . S
H383 C392 0.950 . S
H384 C394 0.950 . S
H385 C396 0.950 1_655 S
H386 C398 0.950 . S
H387 C399 0.950 . S
C388 H380 0.950 . S
C388 C389 1.386 . S
C388 C390 1.391 . S
C389 C388 1.386 . S
C389 C393 1.393 . S
C390 H382 0.950 . S
C390 C388 1.391 . S
C390 C391 1.400 . S
C391 C390 1.400 . S
C391 C392 1.398 . S
C391 C397 1.491 . S
C392 H383 0.950 . S
C392 C391 1.398 . S
C392 C393 1.391 . S
C393 H381 0.950 . S
C393 C389 1.393 . S
C393 C392 1.391 . S
C394 H384 0.950 . S
C394 C395 1.386 . S
C394 C396 1.391 1_655 S
C395 C394 1.386 . S
C395 C399 1.393 1_655 S
C396 H385 0.950 1_455 S
C396 C394 1.391 1_455 S
C396 C397 1.400 . S
C397 C391 1.491 . S
C397 C396 1.400 . S
C397 C398 1.398 . S
C398 H386 0.950 . S
C398 C397 1.398 . S
C398 C399 1.391 . S
C399 H387 0.950 . S
C399 C395 1.393 1_455 S
C399 C398 1.391 . S
H400 C408 0.950 . S
H401 C413 0.950 . S
H402 C410 0.950 . S
H403 C412 0.950 . S
H404 C414 0.950 . S
H405 C416 0.923 1_655 S
H406 C418 0.950 . S
H407 C419 0.950 . S
C408 H400 0.950 . S
C408 C409 1.386 . S
C408 C410 1.391 . S
C409 C408 1.386 . S
C409 C413 1.393 . S
C410 H402 0.950 . S
C410 C408 1.391 . S
C410 C411 1.400 . S
C411 C410 1.400 . S
C411 C412 1.398 . S
C411 C417 1.491 . S
C412 H403 0.950 . S
C412 C411 1.398 . S
C412 C413 1.391 . S
C413 H401 0.950 . S
C413 C409 1.393 . S
C413 C412 1.391 . S
C414 H404 0.950 . S
C414 C415 1.386 . S
C414 C416 1.413 . S
C415 C414 1.386 . S
C415 C419 1.393 . S
C416 H405 0.923 1_455 S
C416 C414 1.413 . S
C416 C417 1.405 1_455 S
C417 C411 1.491 . S
C417 C416 1.405 1_655 S
C417 C418 1.398 1_655 S
C418 H406 0.950 . S
C418 C417 1.398 1_455 S
C418 C419 1.391 . S
C419 H407 0.950 . S
C419 C415 1.393 . S
C419 C418 1.391 . S
H420 C428 0.950 . S
H421 C433 0.950 . S
H422 C430 0.950 . S
H423 C432 0.950 . S
H424 C434 0.950 . S
H425 C436 0.950 . S
H426 C438 0.950 . S
H427 C439 0.950 . S
C428 H420 0.950 . S
C428 C429 1.386 . S
C428 C430 1.391 . S
C429 C428 1.386 . S
C429 C433 1.393 . S
C430 H422 0.950 . S
C430 C428 1.391 . S
C430 C431 1.400 . S
C431 C430 1.400 . S
C431 C432 1.398 . S
C431 C437 1.491 . S
C432 H423 0.950 . S
C432 C431 1.398 . S
C432 C433 1.391 . S
C433 H421 0.950 . S
C433 C429 1.393 . S
C433 C432 1.391 . S
C434 H424 0.950 . S
C434 C435 1.386 . S
C434 C436 1.391 . S
C435 C434 1.386 . S
C435 C439 1.393 . S
C436 H425 0.950 . S
C436 C434 1.391 . S
C436 C437 1.400 . S
C437 C431 1.491 . S
C437 C436 1.400 . S
C437 C438 1.398 . S
C438 H426 0.950 . S
C438 C437 1.398 . S
C438 C439 1.391 . S
C439 H427 0.950 . S
C439 C435 1.393 . S
C439 C438 1.391 . S
H440 C448 0.950 . S
H441 C453 0.950 . S
H442 C450 0.950 . S
H443 C452 0.950 . S
H444 C454 0.950 . S
H445 C456 0.950 . S
H446 C458 0.950 . S
H447 C459 0.950 . S
C448 H440 0.950 . S
C448 C449 1.386 . S
C448 C450 1.391 . S
C449 C448 1.386 . S
C449 C453 1.393 . S
C450 H442 0.950 . S
C450 C448 1.391 . S
C450 C451 1.400 . S
C451 C450 1.400 . S
C451 C452 1.398 . S
C451 C457 1.491 . S
C452 H443 0.950 . S
C452 C451 1.398 . S
C452 C453 1.391 . S
C453 H441 0.950 . S
C453 C449 1.393 . S
C453 C452 1.391 . S
C454 H444 0.950 . S
C454 C455 1.386 . S
C454 C456 1.391 . S
C455 C454 1.386 . S
C455 C459 1.393 . S
C456 H445 0.950 . S
C456 C454 1.391 . S
C456 C457 1.400 . S
C457 C451 1.491 . S
C457 C456 1.400 . S
C457 C458 1.398 . S
C458 H446 0.950 . S
C458 C457 1.398 . S
C458 C459 1.391 . S
C459 H447 0.950 . S
C459 C455 1.393 . S
C459 C458 1.391 . S
H460 C468 0.950 . S
H461 C473 0.950 . S
H462 C470 0.950 . S
H463 C472 0.950 . S
H464 C474 0.950 . S
H465 C476 0.950 . S
H466 C478 0.950 . S
H467 C479 0.950 . S
C468 H460 0.950 . S
C468 C469 1.386 . S
C468 C470 1.391 . S
C469 C468 1.386 . S
C469 C473 1.393 . S
C470 H462 0.950 . S
C470 C468 1.391 . S
C470 C471 1.400 . S
C471 C470 1.400 . S
C471 C472 1.398 . S
C471 C477 1.491 . S
C472 H463 0.950 . S
C472 C471 1.398 . S
C472 C473 1.391 . S
C473 H461 0.950 . S
C473 C469 1.393 . S
C473 C472 1.391 . S
C474 H464 0.950 . S
C474 C475 1.386 . S
C474 C476 1.391 1_545 S
C475 C474 1.386 . S
C475 C479 1.393 . S
C476 H465 0.950 . S
C476 C474 1.391 1_565 S
C476 C477 1.400 . S
C477 C471 1.491 . S
C477 C476 1.400 . S
C477 C478 1.398 . S
C478 H466 0.950 . S
C478 C477 1.398 . S
C478 C479 1.391 1_565 S
C479 H467 0.950 . S
C479 C475 1.393 . S
C479 C478 1.391 1_545 S
H480 C488 0.950 1_455 S
H481 C493 0.950 . S
H482 C490 0.950 . S
H483 C492 0.950 . S
H484 C494 0.950 . S
H485 C496 0.950 . S
H486 C498 0.950 . S
H487 C499 0.950 . S
C488 H480 0.950 1_655 S
C488 C489 1.386 . S
C488 C490 1.391 . S
C489 C488 1.386 . S
C489 C493 1.393 . S
C490 H482 0.950 . S
C490 C488 1.391 . S
C490 C491 1.400 . S
C491 C490 1.400 . S
C491 C492 1.398 . S
C491 C497 1.491 . S
C492 H483 0.950 . S
C492 C491 1.398 . S
C492 C493 1.391 . S
C493 H481 0.950 . S
C493 C489 1.393 . S
C493 C492 1.391 . S
C494 H484 0.950 . S
C494 C495 1.386 . S
C494 C496 1.391 . S
C495 C494 1.386 . S
C495 C499 1.393 . S
C496 H485 0.950 . S
C496 C494 1.391 . S
C496 C497 1.400 . S
C497 C491 1.491 . S
C497 C496 1.400 . S
C497 C498 1.398 . S
C498 H486 0.950 . S
C498 C497 1.398 . S
C498 C499 1.391 . S
C499 H487 0.950 . S
C499 C495 1.393 . S
C499 C498 1.391 . S
H500 C508 0.950 . S
H501 C513 0.950 . S
H502 C510 0.950 1_655 S
H503 C512 0.950 . S
H504 C514 0.950 . S
H505 C516 0.950 . S
H506 C518 0.950 . S
H507 C519 0.958 . S
C508 H500 0.950 . S
C508 C509 1.386 . S
C508 C510 1.391 1_655 S
C509 C508 1.386 . S
C509 C513 1.393 1_655 S
C510 H502 0.950 1_455 S
C510 C508 1.391 1_455 S
C510 C511 1.400 . S
C511 C510 1.400 . S
C511 C512 1.398 . S
C511 C517 1.491 . S
C512 H503 0.950 . S
C512 C511 1.398 . S
C512 C513 1.391 . S
C513 H501 0.950 . S
C513 C509 1.393 1_455 S
C513 C512 1.391 . S
C514 H504 0.950 . S
C514 C515 1.386 . S
C514 C516 1.391 . S
C515 C514 1.386 . S
C515 C519 1.393 . S
C516 H505 0.950 . S
C516 C514 1.391 . S
C516 C517 1.400 . S
C517 C511 1.491 . S
C517 C516 1.400 . S
C517 C518 1.398 . S
C518 H506 0.950 . S
C518 C517 1.398 . S
C518 C519 1.391 . S
C519 H507 0.958 . S
C519 C515 1.393 . S
C519 C518 1.391 . S
H520 C528 0.950 . S
H521 C533 0.950 . S
H522 C530 0.950 . S
H523 C532 0.950 . S
H524 C534 0.950 . S
H525 C536 0.950 . S
H526 C538 0.950 . S
H527 C539 0.950 . S
C528 H520 0.950 . S
C528 C529 1.386 . S
C528 C530 1.391 . S
C529 C528 1.386 . S
C529 C533 1.393 . S
C530 H522 0.950 . S
C530 C528 1.391 . S
C530 C531 1.400 . S
C531 C530 1.400 . S
C531 C532 1.398 . S
C531 C537 1.491 . S
C532 H523 0.950 . S
C532 C531 1.398 . S
C532 C533 1.391 . S
C533 H521 0.950 . S
C533 C529 1.393 . S
C533 C532 1.391 . S
C534 H524 0.950 . S
C534 C535 1.386 . S
C534 C536 1.391 1_565 S
C535 C534 1.386 . S
C535 C539 1.393 1_565 S
C536 H525 0.950 . S
C536 C534 1.391 1_545 S
C536 C537 1.400 . S
C537 C531 1.491 . S
C537 C536 1.400 . S
C537 C538 1.398 . S
C538 H526 0.950 . S
C538 C537 1.398 . S
C538 C539 1.391 . S
C539 H527 0.950 . S
C539 C535 1.393 1_545 S
C539 C538 1.391 . S
H540 C548 0.950 . S
H541 C553 0.950 . S
H542 C550 0.950 . S
H543 C552 0.950 . S
H544 C554 0.950 . S
H545 C556 0.950 . S
H546 C558 0.950 . S
H547 C559 0.950 1_655 S
C548 H540 0.950 . S
C548 C549 1.386 . S
C548 C550 1.391 . S
C549 C548 1.386 . S
C549 C553 1.393 . S
C550 H542 0.950 . S
C550 C548 1.391 . S
C550 C551 1.400 . S
C551 C550 1.400 . S
C551 C552 1.398 . S
C551 C557 1.491 . S
C552 H543 0.950 . S
C552 C551 1.398 . S
C552 C553 1.391 . S
C553 H541 0.950 . S
C553 C549 1.393 . S
C553 C552 1.391 . S
C554 H544 0.950 . S
C554 C555 1.386 . S
C554 C556 1.391 . S
C555 C554 1.386 . S
C555 C559 1.393 . S
C556 H545 0.950 . S
C556 C554 1.391 . S
C556 C557 1.400 . S
C557 C551 1.491 . S
C557 C556 1.400 . S
C557 C558 1.398 . S
C558 H546 0.950 . S
C558 C557 1.398 . S
C558 C559 1.391 . S
C559 H547 0.950 1_455 S
C559 C555 1.393 . S
C559 C558 1.391 . S
H560 C568 0.950 . S
H561 C573 0.950 . S
H562 C570 0.953 . S
H563 C572 0.950 . S
H564 C574 0.950 . S
H565 C576 0.950 . S
H566 C578 0.950 . S
H567 C579 0.950 1_565 S
C568 H560 0.950 . S
C568 C569 1.386 . S
C568 C570 1.391 1_455 S
C569 C568 1.386 . S
C569 C573 1.393 1_455 S
C570 H562 0.953 . S
C570 C568 1.391 1_655 S
C570 C571 1.400 . S
C571 C570 1.400 . S
C571 C572 1.398 . S
C571 C577 1.491 . S
C572 H563 0.950 . S
C572 C571 1.398 . S
C572 C573 1.391 . S
C573 H561 0.950 . S
C573 C569 1.393 1_655 S
C573 C572 1.391 . S
C574 H564 0.950 . S
C574 C575 1.386 . S
C574 C576 1.391 . S
C575 C574 1.386 . S
C575 C579 1.393 . S
C576 H565 0.950 . S
C576 C574 1.391 . S
C576 C577 1.400 . S
C577 C571 1.491 . S
C577 C576 1.400 . S
C577 C578 1.398 . S
C578 H566 0.950 . S
C578 C577 1.398 . S
C578 C579 1.391 . S
C579 H567 0.950 1_545 S
C579 C575 1.393 . S
C579 C578 1.391 . S
H580 C588 0.950 . S
H581 C593 0.950 . S
H582 C590 0.950 . S
H583 C592 0.950 . S
H584 C594 0.950 . S
H585 C596 0.950 . S
H586 C598 0.958 1_545 S
H587 C599 0.950 . S
C588 H580 0.950 . S
C588 C589 1.386 . S
C588 C590 1.391 . S
C589 C588 1.386 . S
C589 C593 1.393 . S
C590 H582 0.950 . S
C590 C588 1.391 . S
C590 C591 1.400 . S
C591 C590 1.400 . S
C591 C592 1.398 . S
C591 C597 1.491 . S
C592 H583 0.950 . S
C592 C591 1.398 . S
C592 C593 1.391 . S
C593 H581 0.950 . S
C593 C589 1.393 . S
C593 C592 1.391 . S
C594 H584 0.950 . S
C594 C595 1.386 1_565 S
C594 C596 1.391 . S
C595 C594 1.386 1_545 S
C595 C599 1.393 . S
C596 H585 0.950 . S
C596 C594 1.391 . S
C596 C597 1.400 . S
C597 C591 1.491 . S
C597 C596 1.400 . S
C597 C598 1.398 . S
C598 H586 0.958 1_565 S
C598 C597 1.398 . S
C598 C599 1.391 1_565 S
C599 H587 0.950 . S
C599 C595 1.393 . S
C599 C598 1.391 1_545 S
H600 C608 0.950 . S
H601 C613 0.950 . S
H602 C610 0.950 . S
H603 C612 0.950 . S
H604 C614 0.950 . S
H605 C616 0.950 . S
H606 C618 0.950 . S
H607 C619 0.950 . S
C608 H600 0.950 . S
C608 C609 1.386 . S
C608 C610 1.391 . S
C609 C608 1.386 . S
C609 C613 1.393 . S
C610 H602 0.950 . S
C610 C608 1.391 . S
C610 C611 1.400 . S
C611 C610 1.400 . S
C611 C612 1.398 . S
C611 C617 1.491 . S
C612 H603 0.950 . S
C612 C611 1.398 . S
C612 C613 1.391 . S
C613 H601 0.950 . S
C613 C609 1.393 . S
C613 C612 1.391 . S
C614 H604 0.950 . S
C614 C615 1.386 . S
C614 C616 1.391 . S
C615 C614 1.386 . S
C615 C619 1.393 . S
C616 H605 0.950 . S
C616 C614 1.391 . S
C616 C617 1.400 . S
C617 C611 1.491 . S
C617 C616 1.400 . S
C617 C618 1.398 . S
C618 H606 0.950 . S
C618 C617 1.398 . S
C618 C619 1.391 . S
C619 H607 0.950 . S
C619 C615 1.393 . S
C619 C618 1.391 . S
H620 C628 0.950 . S
H621 C633 0.950 . S
H622 C630 0.950 . S
H623 C632 0.950 . S
H624 C634 0.950 . S
H625 C636 0.950 . S
H626 C638 0.950 . S
H627 C639 0.950 . S
C628 H620 0.950 . S
C628 C629 1.386 . S
C628 C630 1.391 . S
C629 C628 1.386 . S
C629 C633 1.393 . S
C630 H622 0.950 . S
C630 C628 1.391 . S
C630 C631 1.400 . S
C631 C630 1.400 . S
C631 C632 1.398 . S
C631 C637 1.491 . S
C632 H623 0.950 . S
C632 C631 1.398 . S
C632 C633 1.391 . S
C633 H621 0.950 . S
C633 C629 1.393 . S
C633 C632 1.391 . S
C634 H624 0.950 . S
C634 C635 1.386 . S
C634 C636 1.391 . S
C635 C634 1.386 . S
C635 C639 1.393 . S
C636 H625 0.950 . S
C636 C634 1.391 . S
C636 C637 1.400 . S
C637 C631 1.491 . S
C637 C636 1.400 . S
C637 C638 1.398 . S
C638 H626 0.950 . S
C638 C637 1.398 . S
C638 C639 1.391 . S
C639 H627 0.950 . S
C639 C635 1.393 . S
C639 C638 1.391 . S
H640 C648 0.950 . S
H641 C653 0.950 . S
H642 C650 0.950 . S
H643 C652 0.950 . S
H644 C654 0.950 . S
H645 C656 0.950 . S
H646 C658 0.950 . S
H647 C659 0.950 . S
C648 H640 0.950 . S
C648 C649 1.386 . S
C648 C650 1.391 . S
C649 C648 1.386 . S
C649 C653 1.393 . S
C650 H642 0.950 . S
C650 C648 1.391 . S
C650 C651 1.400 . S
C651 C650 1.400 . S
C651 C652 1.398 . S
C651 C657 1.491 . S
C652 H643 0.950 . S
C652 C651 1.398 . S
C652 C653 1.391 . S
C653 H641 0.950 . S
C653 C649 1.393 . S
C653 C652 1.391 . S
C654 H644 0.950 . S
C654 C655 1.386 . S
C654 C656 1.391 . S
C655 C654 1.386 . S
C655 C659 1.393 . S
C656 H645 0.950 . S
C656 C654 1.391 . S
C656 C657 1.400 . S
C657 C651 1.491 . S
C657 C656 1.400 . S
C657 C658 1.398 . S
C658 H646 0.950 . S
C658 C657 1.398 . S
C658 C659 1.391 . S
C659 H647 0.950 . S
C659 C655 1.393 . S
C659 C658 1.391 . S
H660 C668 0.950 . S
H661 C673 0.950 . S
H662 C670 0.950 . S
H663 C672 0.950 . S
H664 C674 0.950 . S
H665 C676 0.950 . S
H666 C678 0.950 . S
H667 C679 0.950 . S
C668 H660 0.950 . S
C668 C669 1.386 . S
C668 C670 1.391 . S
C669 C668 1.386 . S
C669 C673 1.393 . S
C670 H662 0.950 . S
C670 C668 1.391 . S
C670 C671 1.400 . S
C671 C670 1.400 . S
C671 C672 1.398 . S
C671 C677 1.491 . S
C672 H663 0.950 . S
C672 C671 1.398 . S
C672 C673 1.391 . S
C673 H661 0.950 . S
C673 C669 1.393 . S
C673 C672 1.391 . S
C674 H664 0.950 . S
C674 C675 1.386 . S
C674 C676 1.391 . S
C675 C674 1.386 . S
C675 C679 1.393 . S
C676 H665 0.950 . S
C676 C674 1.391 . S
C676 C677 1.400 . S
C677 C671 1.491 . S
C677 C676 1.400 . S
C677 C678 1.398 . S
C678 H666 0.950 . S
C678 C677 1.398 . S
C678 C679 1.391 . S
C679 H667 0.950 . S
C679 C675 1.393 . S
C679 C678 1.391 . S
H680 C688 0.950 . S
H681 C693 0.950 . S
H682 C690 0.950 . S
H683 C692 0.950 . S
H684 C694 0.950 . S
H685 C696 0.950 . S
H686 C698 0.950 . S
H687 C699 0.950 . S
C688 H680 0.950 . S
C688 C689 1.386 . S
C688 C690 1.391 . S
C689 C688 1.386 . S
C689 C693 1.393 . S
C690 H682 0.950 . S
C690 C688 1.391 . S
C690 C691 1.400 . S
C691 C690 1.400 . S
C691 C692 1.398 . S
C691 C697 1.491 . S
C692 H683 0.950 . S
C692 C691 1.398 . S
C692 C693 1.391 . S
C693 H681 0.950 . S
C693 C689 1.393 . S
C693 C692 1.391 . S
C694 H684 0.950 . S
C694 C695 1.386 . S
C694 C696 1.391 . S
C695 C694 1.386 . S
C695 C699 1.393 . S
C696 H685 0.950 . S
C696 C694 1.391 . S
C696 C697 1.400 . S
C697 C691 1.491 . S
C697 C696 1.400 . S
C697 C698 1.398 . S
C698 H686 0.950 . S
C698 C697 1.398 . S
C698 C699 1.391 . S
C699 H687 0.950 . S
C699 C695 1.393 . S
C699 C698 1.391 . S
H700 C708 0.950 . S
H701 C713 0.950 . S
H702 C710 0.950 . S
H703 C712 0.950 . S
H704 C714 0.950 . S
H705 C716 0.950 . S
H706 C718 0.950 . S
H707 C719 0.950 . S
C708 H700 0.950 . S
C708 C709 1.386 . S
C708 C710 1.391 . S
C709 C708 1.386 . S
C709 C713 1.393 . S
C710 H702 0.950 . S
C710 C708 1.391 . S
C710 C711 1.400 . S
C711 C710 1.400 . S
C711 C712 1.398 . S
C711 C717 1.491 . S
C712 H703 0.950 . S
C712 C711 1.398 . S
C712 C713 1.391 . S
C713 H701 0.950 . S
C713 C709 1.393 . S
C713 C712 1.391 . S
C714 H704 0.950 . S
C714 C715 1.386 . S
C714 C716 1.391 . S
C715 C714 1.386 . S
C715 C719 1.393 . S
C716 H705 0.950 . S
C716 C714 1.391 . S
C716 C717 1.400 . S
C717 C711 1.491 . S
C717 C716 1.400 . S
C717 C718 1.398 . S
C718 H706 0.950 . S
C718 C717 1.398 . S
C718 C719 1.391 . S
C719 H707 0.950 . S
C719 C715 1.393 . S
C719 C718 1.391 . S
H720 C728 0.950 . S
H721 C733 0.950 . S
H722 C730 0.950 . S
H723 C732 0.950 . S
H724 C734 0.950 . S
H725 C736 0.950 . S
H726 C738 0.950 . S
H727 C739 0.950 . S
C728 H720 0.950 . S
C728 C729 1.386 . S
C728 C730 1.391 . S
C729 C728 1.386 . S
C729 C733 1.393 . S
C730 H722 0.950 . S
C730 C728 1.391 . S
C730 C731 1.400 . S
C731 C730 1.400 . S
C731 C732 1.398 . S
C731 C737 1.491 . S
C732 H723 0.950 . S
C732 C731 1.398 . S
C732 C733 1.391 . S
C733 H721 0.950 . S
C733 C729 1.393 . S
C733 C732 1.391 . S
C734 H724 0.950 . S
C734 C735 1.386 . S
C734 C736 1.391 . S
C735 C734 1.386 . S
C735 C739 1.393 . S
C736 H725 0.950 . S
C736 C734 1.391 . S
C736 C737 1.400 . S
C737 C731 1.491 . S
C737 C736 1.400 . S
C737 C738 1.398 . S
C738 H726 0.950 . S
C738 C737 1.398 . S
C738 C739 1.391 . S
C739 H727 0.950 . S
C739 C735 1.393 . S
C739 C738 1.391 . S
H740 C748 0.950 . S
H741 C753 0.950 . S
H742 C750 0.950 . S
H743 C752 0.950 . S
H744 C754 0.950 . S
H745 C756 0.950 . S
H746 C758 0.950 . S
H747 C759 0.950 . S
C748 H740 0.950 . S
C748 C749 1.386 . S
C748 C750 1.391 . S
C749 C748 1.386 . S
C749 C753 1.393 . S
C750 H742 0.950 . S
C750 C748 1.391 . S
C750 C751 1.400 . S
C751 C750 1.400 . S
C751 C752 1.398 . S
C751 C757 1.491 . S
C752 H743 0.950 . S
C752 C751 1.398 . S
C752 C753 1.391 . S
C753 H741 0.950 . S
C753 C749 1.393 . S
C753 C752 1.391 . S
C754 H744 0.950 . S
C754 C755 1.386 . S
C754 C756 1.391 . S
C755 C754 1.386 . S
C755 C759 1.393 . S
C756 H745 0.950 . S
C756 C754 1.391 . S
C756 C757 1.400 . S
C757 C751 1.491 . S
C757 C756 1.400 . S
C757 C758 1.398 . S
C758 H746 0.950 . S
C758 C757 1.398 . S
C758 C759 1.391 . S
C759 H747 0.950 . S
C759 C755 1.393 . S
C759 C758 1.391 . S
H760 C768 0.950 . S
H761 C773 0.950 . S
H762 C770 0.950 . S
H763 C772 0.950 . S
H764 C774 0.950 . S
H765 C776 0.950 . S
H766 C778 0.950 . S
H767 C779 0.950 . S
C768 H760 0.950 . S
C768 C769 1.386 . S
C768 C770 1.391 . S
C769 C768 1.386 . S
C769 C773 1.393 . S
C770 H762 0.950 . S
C770 C768 1.391 . S
C770 C771 1.400 . S
C771 C770 1.400 . S
C771 C772 1.398 . S
C771 C777 1.491 . S
C772 H763 0.950 . S
C772 C771 1.398 . S
C772 C773 1.391 . S
C773 H761 0.950 . S
C773 C769 1.393 . S
C773 C772 1.391 . S
C774 H764 0.950 . S
C774 C775 1.386 . S
C774 C776 1.391 . S
C775 C774 1.386 . S
C775 C779 1.393 . S
C776 H765 0.950 . S
C776 C774 1.391 . S
C776 C777 1.400 . S
C777 C771 1.491 . S
C777 C776 1.400 . S
C777 C778 1.398 . S
C778 H766 0.950 . S
C778 C777 1.398 . S
C778 C779 1.391 . S
C779 H767 0.950 . S
C779 C775 1.393 . S
C779 C778 1.391 . S
H780 C788 0.950 . S
H781 C793 0.950 . S
H782 C790 0.950 . S
H783 C792 0.950 . S
H784 C794 0.950 . S
H785 C796 0.950 . S
H786 C798 0.950 . S
H787 C799 0.950 . S
C788 H780 0.950 . S
C788 C789 1.386 . S
C788 C790 1.391 . S
C789 C788 1.386 . S
C789 C793 1.393 . S
C790 H782 0.950 . S
C790 C788 1.391 . S
C790 C791 1.400 . S
C791 C790 1.400 . S
C791 C792 1.398 . S
C791 C797 1.491 . S
C792 H783 0.950 . S
C792 C791 1.398 . S
C792 C793 1.391 . S
C793 H781 0.950 . S
C793 C789 1.393 . S
C793 C792 1.391 . S
C794 H784 0.950 . S
C794 C795 1.386 . S
C794 C796 1.391 . S
C795 C794 1.386 . S
C795 C799 1.393 . S
C796 H785 0.950 . S
C796 C794 1.391 . S
C796 C797 1.400 . S
C797 C791 1.491 . S
C797 C796 1.400 . S
C797 C798 1.398 . S
C798 H786 0.950 . S
C798 C797 1.398 . S
C798 C799 1.391 . S
C799 H787 0.950 . S
C799 C795 1.393 . S
C799 C798 1.391 . S
H800 C808 0.950 . S
H801 C813 0.950 . S
H802 C810 0.950 . S
H803 C812 0.950 . S
H804 C814 0.950 . S
H805 C816 0.950 . S
H806 C818 0.950 . S
H807 C819 0.950 . S
C808 H800 0.950 . S
C808 C809 1.386 . S
C808 C810 1.391 . S
C809 C808 1.386 . S
C809 C813 1.393 . S
C810 H802 0.950 . S
C810 C808 1.391 . S
C810 C811 1.400 . S
C811 C810 1.400 . S
C811 C812 1.398 . S
C811 C817 1.491 . S
C812 H803 0.950 . S
C812 C811 1.398 . S
C812 C813 1.391 . S
C813 H801 0.950 . S
C813 C809 1.393 . S
C813 C812 1.391 . S
C814 H804 0.950 . S
C814 C815 1.386 . S
C814 C816 1.391 . S
C815 C814 1.386 . S
C815 C819 1.393 . S
C816 H805 0.950 . S
C816 C814 1.391 . S
C816 C817 1.400 . S
C817 C811 1.491 . S
C817 C816 1.400 . S
C817 C818 1.398 . S
C818 H806 0.950 . S
C818 C817 1.398 . S
C818 C819 1.391 . S
C819 H807 0.950 . S
C819 C815 1.393 . S
C819 C818 1.391 . S
H820 C828 0.950 . S
H821 C833 0.950 . S
H822 C830 0.950 . S
H823 C832 0.950 . S
H824 C834 0.950 . S
H825 C836 0.950 . S
H826 C838 0.950 . S
H827 C839 0.950 . S
C828 H820 0.950 . S
C828 C829 1.386 . S
C828 C830 1.391 . S
C829 C828 1.386 . S
C829 C833 1.393 . S
C830 H822 0.950 . S
C830 C828 1.391 . S
C830 C831 1.400 . S
C831 C830 1.400 . S
C831 C832 1.398 . S
C831 C837 1.491 . S
C832 H823 0.950 . S
C832 C831 1.398 . S
C832 C833 1.391 . S
C833 H821 0.950 . S
C833 C829 1.393 . S
C833 C832 1.391 . S
C834 H824 0.950 . S
C834 C835 1.386 . S
C834 C836 1.391 . S
C835 C834 1.386 . S
C835 C839 1.393 . S
C836 H825 0.950 . S
C836 C834 1.391 . S
C836 C837 1.400 . S
C837 C831 1.491 . S
C837 C836 1.400 . S
C837 C838 1.398 . S
C838 H826 0.950 . S
C838 C837 1.398 . S
C838 C839 1.391 . S
C839 H827 0.950 . S
C839 C835 1.393 . S
C839 C838 1.391 . S
H840 C848 0.950 . S
H841 C853 0.950 . S
H842 C850 0.950 . S
H843 C852 0.950 . S
H844 C854 0.950 . S
H845 C856 0.950 . S
H846 C858 0.950 . S
H847 C859 0.950 . S
C848 H840 0.950 . S
C848 C849 1.386 . S
C848 C850 1.391 . S
C849 C848 1.386 . S
C849 C853 1.393 . S
C850 H842 0.950 . S
C850 C848 1.391 . S
C850 C851 1.400 . S
C851 C850 1.400 . S
C851 C852 1.398 . S
C851 C857 1.491 . S
C852 H843 0.950 . S
C852 C851 1.398 . S
C852 C853 1.391 . S
C853 H841 0.950 . S
C853 C849 1.393 . S
C853 C852 1.391 . S
C854 H844 0.950 . S
C854 C855 1.386 . S
C854 C856 1.391 . S
C855 C854 1.386 . S
C855 C859 1.393 . S
C856 H845 0.950 . S
C856 C854 1.391 . S
C856 C857 1.400 . S
C857 C851 1.491 . S
C857 C856 1.400 . S
C857 C858 1.398 . S
C858 H846 0.950 . S
C858 C857 1.398 . S
C858 C859 1.391 . S
C859 H847 0.950 . S
C859 C855 1.393 . S
C859 C858 1.391 . S
H860 C868 0.950 . S
H861 C873 0.950 . S
H862 C870 0.950 . S
H863 C872 0.950 . S
H864 C874 0.950 . S
H865 C876 0.950 . S
H866 C878 0.950 . S
H867 C879 0.950 . S
C868 H860 0.950 . S
C868 C869 1.386 . S
C868 C870 1.391 . S
C869 C868 1.386 . S
C869 C873 1.393 . S
C870 H862 0.950 . S
C870 C868 1.391 . S
C870 C871 1.400 . S
C871 C870 1.400 . S
C871 C872 1.398 . S
C871 C877 1.491 . S
C872 H863 0.950 . S
C872 C871 1.398 . S
C872 C873 1.391 . S
C873 H861 0.950 . S
C873 C869 1.393 . S
C873 C872 1.391 . S
C874 H864 0.950 . S
C874 C875 1.386 . S
C874 C876 1.391 . S
C875 C874 1.386 . S
C875 C879 1.393 . S
C876 H865 0.950 . S
C876 C874 1.391 . S
C876 C877 1.400 . S
C877 C871 1.491 . S
C877 C876 1.400 . S
C877 C878 1.398 . S
C878 H866 0.950 . S
C878 C877 1.398 . S
C878 C879 1.391 . S
C879 H867 0.950 . S
C879 C875 1.393 . S
C879 C878 1.391 . S
H880 C888 0.950 . S
H881 C893 0.950 . S
H882 C890 0.950 . S
H883 C892 0.950 . S
H884 C894 0.950 . S
H885 C896 0.950 . S
H886 C898 0.950 . S
H887 C899 0.950 . S
C888 H880 0.950 . S
C888 C889 1.386 . S
C888 C890 1.391 . S
C889 C888 1.386 . S
C889 C893 1.393 . S
C890 H882 0.950 . S
C890 C888 1.391 . S
C890 C891 1.400 . S
C891 C890 1.400 . S
C891 C892 1.398 . S
C891 C897 1.491 . S
C892 H883 0.950 . S
C892 C891 1.398 . S
C892 C893 1.391 . S
C893 H881 0.950 . S
C893 C889 1.393 . S
C893 C892 1.391 . S
C894 H884 0.950 . S
C894 C895 1.386 . S
C894 C896 1.391 . S
C895 C894 1.386 . S
C895 C899 1.393 . S
C896 H885 0.950 . S
C896 C894 1.391 . S
C896 C897 1.400 . S
C897 C891 1.491 . S
C897 C896 1.400 . S
C897 C898 1.398 . S
C898 H886 0.950 . S
C898 C897 1.398 . S
C898 C899 1.391 . S
C899 H887 0.950 . S
C899 C895 1.393 . S
C899 C898 1.391 . S
H900 C908 0.950 . S
H901 C913 0.950 . S
H902 C910 0.950 . S
H903 C912 0.950 . S
H904 C914 0.950 . S
H905 C916 0.950 . S
H906 C918 0.950 . S
H907 C919 0.950 . S
C908 H900 0.950 . S
C908 C909 1.386 . S
C908 C910 1.391 . S
C909 C908 1.386 . S
C909 C913 1.393 . S
C910 H902 0.950 . S
C910 C908 1.391 . S
C910 C911 1.400 . S
C911 C910 1.400 . S
C911 C912 1.398 . S
C911 C917 1.491 . S
C912 H903 0.950 . S
C912 C911 1.398 . S
C912 C913 1.391 . S
C913 H901 0.950 . S
C913 C909 1.393 . S
C913 C912 1.391 . S
C914 H904 0.950 . S
C914 C915 1.386 . S
C914 C916 1.391 . S
C915 C914 1.386 . S
C915 C919 1.393 . S
C916 H905 0.950 . S
C916 C914 1.391 . S
C916 C917 1.400 . S
C917 C911 1.491 . S
C917 C916 1.400 . S
C917 C918 1.398 . S
C918 H906 0.950 . S
C918 C917 1.398 . S
C918 C919 1.391 . S
C919 H907 0.950 . S
C919 C915 1.393 . S
C919 C918 1.391 . S
H920 C928 0.950 . S
H921 C933 0.950 . S
H922 C930 0.950 . S
H923 C932 0.950 . S
H924 C934 0.950 . S
H925 C936 0.950 . S
H926 C938 0.950 . S
H927 C939 0.950 . S
C928 H920 0.950 . S
C928 C929 1.386 . S
C928 C930 1.391 . S
C929 C928 1.386 . S
C929 C933 1.393 . S
C930 H922 0.950 . S
C930 C928 1.391 . S
C930 C931 1.400 . S
C931 C930 1.400 . S
C931 C932 1.398 . S
C931 C937 1.491 . S
C932 H923 0.950 . S
C932 C931 1.398 . S
C932 C933 1.391 . S
C933 H921 0.950 . S
C933 C929 1.393 . S
C933 C932 1.391 . S
C934 H924 0.950 . S
C934 C935 1.386 . S
C934 C936 1.391 . S
C935 C934 1.386 . S
C935 C939 1.393 . S
C936 H925 0.950 . S
C936 C934 1.391 . S
C936 C937 1.400 . S
C937 C931 1.491 . S
C937 C936 1.400 . S
C937 C938 1.398 . S
C938 H926 0.950 . S
C938 C937 1.398 . S
C938 C939 1.391 . S
C939 H927 0.950 . S
C939 C935 1.393 . S
C939 C938 1.391 . S
H940 C948 0.950 . S
H941 C953 0.950 . S
H942 C950 0.950 . S
H943 C952 0.950 . S
H944 C954 0.950 . S
H945 C956 0.950 . S
H946 C958 0.950 . S
H947 C959 0.950 . S
C948 H940 0.950 . S
C948 C949 1.386 . S
C948 C950 1.391 . S
C949 C948 1.386 . S
C949 C953 1.393 . S
C950 H942 0.950 . S
C950 C948 1.391 . S
C950 C951 1.400 . S
C951 C950 1.400 . S
C951 C952 1.398 . S
C951 C957 1.491 . S
C952 H943 0.950 . S
C952 C951 1.398 . S
C952 C953 1.391 . S
C953 H941 0.950 . S
C953 C949 1.393 . S
C953 C952 1.391 . S
C954 H944 0.950 . S
C954 C955 1.386 . S
C954 C956 1.391 . S
C955 C954 1.386 . S
C955 C959 1.393 . S
C956 H945 0.950 . S
C956 C954 1.391 . S
C956 C957 1.400 . S
C957 C951 1.491 . S
C957 C956 1.400 . S
C957 C958 1.398 . S
C958 H946 0.950 . S
C958 C957 1.398 . S
C958 C959 1.391 . S
C959 H947 0.950 . S
C959 C955 1.393 . S
C959 C958 1.391 . S
H960 C968 0.950 . S
H961 C973 0.950 . S
H962 C970 0.950 . S
H963 C972 0.950 1_554 S
H964 C974 0.950 . S
H965 C976 0.950 . S
H966 C978 0.950 1_556 S
H967 C979 0.950 . S
C968 H960 0.950 . S
C968 C969 1.386 . S
C968 C970 1.391 . S
C969 C968 1.386 . S
C969 C973 1.393 . S
C970 H962 0.950 . S
C970 C968 1.391 . S
C970 C971 1.400 . S
C971 C970 1.400 . S
C971 C972 1.398 . S
C971 C977 1.491 1_556 S
C972 H963 0.950 1_556 S
C972 C971 1.398 . S
C972 C973 1.391 . S
C973 H961 0.950 . S
C973 C969 1.393 . S
C973 C972 1.391 . S
C974 H964 0.950 . S
C974 C975 1.386 . S
C974 C976 1.391 . S
C975 C974 1.386 . S
C975 C979 1.393 . S
C976 H965 0.950 . S
C976 C974 1.391 . S
C976 C977 1.400 . S
C977 C971 1.491 1_554 S
C977 C976 1.400 . S
C977 C978 1.398 . S
C978 H966 0.950 1_554 S
C978 C977 1.398 . S
C978 C979 1.391 . S
C979 H967 0.950 . S
C979 C975 1.393 . S
C979 C978 1.391 . S
H980 C988 0.950 . S
H981 C993 0.950 . S
H982 C990 0.950 . S
H983 C992 0.950 1_655 S
H984 C994 0.950 . S
H985 C996 0.950 . S
H986 C998 0.950 1_455 S
H987 C999 0.950 . S
C988 H980 0.950 . S
C988 C989 1.386 . S
C988 C990 1.391 . S
C989 C988 1.386 . S
C989 C993 1.393 . S
C990 H982 0.950 . S
C990 C988 1.391 . S
C990 C991 1.400 . S
C991 C990 1.400 . S
C991 C992 1.398 . S
C991 C997 1.491 1_455 S
C992 H983 0.950 1_455 S
C992 C991 1.398 . S
C992 C993 1.391 . S
C993 H981 0.950 . S
C993 C989 1.393 . S
C993 C992 1.391 . S
C994 H984 0.950 . S
C994 C995 1.386 . S
C994 C996 1.391 . S
C995 C994 1.386 . S
C995 C999 1.393 . S
C996 H985 0.950 . S
C996 C994 1.391 . S
C996 C997 1.400 . S
C997 C991 1.491 1_655 S
C997 C996 1.400 . S
C997 C998 1.398 . S
C998 H986 0.950 1_655 S
C998 C997 1.398 . S
C998 C999 1.391 . S
C999 H987 0.950 . S
C999 C995 1.393 . S
C999 C998 1.391 . S
H1000 C1008 0.950 . S
H1001 C1013 0.950 . S
H1002 C1010 0.950 . S
H1003 C1012 0.950 . S
H1004 C1014 0.950 . S
H1005 C1016 0.950 . S
H1006 C1018 0.950 . S
H1007 C1019 0.950 . S
C1008 H1000 0.950 . S
C1008 C1009 1.386 . S
C1008 C1010 1.391 . S
C1009 C1008 1.386 . S
C1009 C1013 1.393 . S
C1010 H1002 0.950 . S
C1010 C1008 1.391 . S
C1010 C1011 1.400 . S
C1011 C1010 1.400 . S
C1011 C1012 1.398 . S
C1011 C1017 1.491 1_564 S
C1012 H1003 0.950 . S
C1012 C1011 1.398 . S
C1012 C1013 1.391 . S
C1013 H1001 0.950 . S
C1013 C1009 1.393 . S
C1013 C1012 1.391 . S
C1014 H1004 0.950 . S
C1014 C1015 1.386 . S
C1014 C1016 1.391 . S
C1015 C1014 1.386 . S
C1015 C1019 1.393 . S
C1016 H1005 0.950 . S
C1016 C1014 1.391 . S
C1016 C1017 1.400 . S
C1017 C1011 1.491 1_546 S
C1017 C1016 1.400 . S
C1017 C1018 1.398 . S
C1018 H1006 0.950 . S
C1018 C1017 1.398 . S
C1018 C1019 1.391 . S
C1019 H1007 0.950 . S
C1019 C1015 1.393 . S
C1019 C1018 1.391 . S
H1020 C1028 0.950 . S
H1021 C1033 0.950 . S
H1022 C1030 0.950 . S
H1023 C1032 0.950 . S
H1024 C1034 0.950 . S
H1025 C1036 0.950 . S
H1026 C1038 0.950 . S
H1027 C1039 0.950 . S
C1028 H1020 0.950 . S
C1028 C1029 1.386 . S
C1028 C1030 1.391 . S
C1029 C1028 1.386 . S
C1029 C1033 1.393 . S
C1030 H1022 0.950 . S
C1030 C1028 1.391 . S
C1030 C1031 1.400 . S
C1031 C1030 1.400 . S
C1031 C1032 1.398 . S
C1031 C1037 1.491 . S
C1032 H1023 0.950 . S
C1032 C1031 1.398 . S
C1032 C1033 1.391 . S
C1033 H1021 0.950 . S
C1033 C1029 1.393 . S
C1033 C1032 1.391 . S
C1034 H1024 0.950 . S
C1034 C1035 1.386 . S
C1034 C1036 1.391 . S
C1035 C1034 1.386 . S
C1035 C1039 1.393 . S
C1036 H1025 0.950 . S
C1036 C1034 1.391 . S
C1036 C1037 1.400 . S
C1037 C1031 1.491 . S
C1037 C1036 1.400 . S
C1037 C1038 1.398 . S
C1038 H1026 0.950 . S
C1038 C1037 1.398 . S
C1038 C1039 1.391 . S
C1039 H1027 0.950 . S
C1039 C1035 1.393 . S
C1039 C1038 1.391 . S
H1040 C1048 0.950 . S
H1041 C1053 0.950 . S
H1042 C1050 0.950 1_554 S
H1043 C1052 0.950 1_455 S
H1044 C1054 0.950 . S
H1045 C1056 0.950 1_556 S
H1046 C1058 0.950 1_655 S
H1047 C1059 0.950 . S
C1048 H1040 0.950 . S
C1048 C1049 1.386 . S
C1048 C1050 1.391 . S
C1049 C1048 1.386 . S
C1049 C1053 1.393 . S
C1050 H1042 0.950 1_556 S
C1050 C1048 1.391 . S
C1050 C1051 1.400 . S
C1051 C1050 1.400 . S
C1051 C1052 1.398 . S
C1051 C1057 1.491 1_656 S
C1052 H1043 0.950 1_655 S
C1052 C1051 1.398 . S
C1052 C1053 1.391 . S
C1053 H1041 0.950 . S
C1053 C1049 1.393 . S
C1053 C1052 1.391 . S
C1054 H1044 0.950 . S
C1054 C1055 1.386 . S
C1054 C1056 1.391 . S
C1055 C1054 1.386 . S
C1055 C1059 1.393 . S
C1056 H1045 0.950 1_554 S
C1056 C1054 1.391 . S
C1056 C1057 1.400 . S
C1057 C1051 1.491 1_454 S
C1057 C1056 1.400 . S
C1057 C1058 1.398 . S
C1058 H1046 0.950 1_455 S
C1058 C1057 1.398 . S
C1058 C1059 1.391 . S
C1059 H1047 0.950 . S
C1059 C1055 1.393 . S
C1059 C1058 1.391 . S
H1060 C1068 0.950 . S
H1061 C1073 0.950 . S
H1062 C1070 0.950 . S
H1063 C1072 0.950 . S
H1064 C1074 0.950 . S
H1065 C1076 0.950 . S
H1066 C1078 0.950 . S
H1067 C1079 0.950 . S
C1068 H1060 0.950 . S
C1068 C1069 1.386 . S
C1068 C1070 1.391 . S
C1069 C1068 1.386 . S
C1069 C1073 1.393 . S
C1070 H1062 0.950 . S
C1070 C1068 1.391 . S
C1070 C1071 1.400 . S
C1071 C1070 1.400 . S
C1071 C1072 1.398 . S
C1071 C1077 1.491 1_565 S
C1072 H1063 0.950 . S
C1072 C1071 1.398 . S
C1072 C1073 1.391 . S
C1073 H1061 0.950 . S
C1073 C1069 1.393 . S
C1073 C1072 1.391 . S
C1074 H1064 0.950 . S
C1074 C1075 1.386 . S
C1074 C1076 1.391 . S
C1075 C1074 1.386 . S
C1075 C1079 1.393 . S
C1076 H1065 0.950 . S
C1076 C1074 1.391 . S
C1076 C1077 1.400 . S
C1077 C1071 1.491 1_545 S
C1077 C1076 1.400 . S
C1077 C1078 1.398 . S
C1078 H1066 0.950 . S
C1078 C1077 1.398 . S
C1078 C1079 1.391 . S
C1079 H1067 0.950 . S
C1079 C1075 1.393 . S
C1079 C1078 1.391 . S
C369 C147 0.916 . S
C375 N14 0.929 . S
C389 N156 0.817 . S
C395 C46 0.811 . S
C409 N74 0.931 . S
C415 C27 0.918 . S
C429 C106 0.783 . S
C435 N36 0.776 1_565 S
C449 N134 0.934 . S
C455 C87 0.926 . S
C469 N96 0.782 1_455 S
C475 C166 0.785 . S
C489 N246 0.769 1_655 S
C495 C196 0.781 . S
C509 C226 0.795 . S
C515 N276 0.780 1_565 S
C529 N306 0.821 . S
C535 C256 0.819 . S
C549 C286 0.781 . S
C555 N336 0.769 1_455 S
C569 C316 0.785 . S
C575 N186 0.770 1_545 S
C589 N216 0.777 . S
C595 C346 0.793 . S
C609 C136 1.143 . S
C615 N6 1.151 . S
C629 C57 1.229 . S
C635 N164 1.192 . S
C649 N66 1.162 . S
C655 C16 1.145 . S
C669 C117 1.237 . S
C675 N44 1.206 . S
C689 C76 1.134 . S
C695 N126 1.152 . S
C709 N104 1.214 . S
C715 C177 1.241 . S
C729 N254 1.207 . S
C735 C207 1.237 . S
C749 C237 1.241 . S
C755 N284 1.215 . S
C769 C267 1.234 . S
C775 N314 1.202 . S
C789 N344 1.193 . S
C795 C297 1.230 . S
C809 C327 1.238 . S
C815 N194 1.212 . S
C829 N224 1.192 . S
C835 C357 1.229 . S
C849 C301 1.616 . S
C855 C10 1.632 . S
C869 C31 1.615 . S
C875 C331 1.615 . S
C889 C70 1.631 . S
C895 C181 1.620 . S
C909 C91 1.621 . S
C915 C211 1.620 . S
C929 C130 1.633 . S
C935 C241 1.615 . S
C949 C271 1.621 . S
C955 C151 1.622 . S
C969 C280 1.906 . S
C975 C1 1.843 . S
C989 C310 1.911 . S
C995 C40 1.906 . S
C1009 C61 1.859 . S
C1015 C340 1.919 . S
C1029 C100 1.912 . S
C1035 C190 1.908 . S
C1049 C220 1.913 . S
C1055 C121 1.847 . S
C1069 C250 1.918 . S
C1075 C160 1.919 . S
