# Generated by pormake.
# Topology yfg, (5)-cn, num edge types: 1
# Building blocks:
#     Node 0, Type 0, BuildingBlock: BEQFEK_clean_sbu_0, # of connection points: 5
#     Node 1, Type 0, BuildingBlock: BEQFEK_clean_sbu_0, # of connection points: 5
#     Node 2, Type 0, BuildingBlock: BEQFEK_clean_sbu_0, # of connection points: 5
#     Node 3, Type 0, BuildingBlock: BEQFEK_clean_sbu_0, # of connection points: 5
#     Node 4, Type 0, BuildingBlock: BEQFEK_clean_sbu_0, # of connection points: 5
#     Node 5, Type 0, BuildingBlock: BEQFEK_clean_sbu_0, # of connection points: 5
#     Node 6, Type 0, BuildingBlock: BEQFEK_clean_sbu_0, # of connection points: 5
#     Node 7, Type 0, BuildingBlock: BEQFEK_clean_sbu_0, # of connection points: 5
#     Edge 8, Type (0, 0), BuildingBlock: MIFKUJ_clean_linker_0, # of connection points: 2
#     Edge 9, Type (0, 0), BuildingBlock: MIFKUJ_clean_linker_0, # of connection points: 2
#     Edge 10, Type (0, 0), BuildingBlock: MIFKUJ_clean_linker_0, # of connection points: 2
#     Edge 11, Type (0, 0), BuildingBlock: MIFKUJ_clean_linker_0, # of connection points: 2
#     Edge 12, Type (0, 0), BuildingBlock: MIFKUJ_clean_linker_0, # of connection points: 2
#     Edge 13, Type (0, 0), BuildingBlock: MIFKUJ_clean_linker_0, # of connection points: 2
#     Edge 14, Type (0, 0), BuildingBlock: MIFKUJ_clean_linker_0, # of connection points: 2
#     Edge 15, Type (0, 0), BuildingBlock: MIFKUJ_clean_linker_0, # of connection points: 2
#     Edge 16, Type (0, 0), BuildingBlock: MIFKUJ_clean_linker_0, # of connection points: 2
#     Edge 17, Type (0, 0), BuildingBlock: MIFKUJ_clean_linker_0, # of connection points: 2
#     Edge 18, Type (0, 0), BuildingBlock: MIFKUJ_clean_linker_0, # of connection points: 2
#     Edge 19, Type (0, 0), BuildingBlock: MIFKUJ_clean_linker_0, # of connection points: 2
#     Edge 20, Type (0, 0), BuildingBlock: MIFKUJ_clean_linker_0, # of connection points: 2
#     Edge 21, Type (0, 0), BuildingBlock: MIFKUJ_clean_linker_0, # of connection points: 2
#     Edge 22, Type (0, 0), BuildingBlock: MIFKUJ_clean_linker_0, # of connection points: 2
#     Edge 23, Type (0, 0), BuildingBlock: MIFKUJ_clean_linker_0, # of connection points: 2
#     Edge 24, Type (0, 0), BuildingBlock: MIFKUJ_clean_linker_0, # of connection points: 2
#     Edge 25, Type (0, 0), BuildingBlock: MIFKUJ_clean_linker_0, # of connection points: 2
#     Edge 26, Type (0, 0), BuildingBlock: MIFKUJ_clean_linker_0, # of connection points: 2
#     Edge 27, Type (0, 0), BuildingBlock: MIFKUJ_clean_linker_0, # of connection points: 2
# Relax obj value: 0.509
# Max RMSD: 0.212
# Mean RMSD: 0.212
data_MOF--net-yfg--node1-BEQFEK_clean_sbu_0--edge1-MIFKUJ_clean_linker_0
_symmetry_space_group_name_H-M    P1
_symmetry_Int_Tables_number       1
_symmetry_cell_setting            triclinic
loop_
_symmetry_equiv_pos_as_xyz
'x, y, z'
_cell_length_a     42.115921
_cell_length_b     42.135877
_cell_length_c     55.318357
_cell_angle_alpha  90.053079
_cell_angle_beta   90.019896
_cell_angle_gamma 90.002627
loop_
_atom_site_label
_atom_site_type_symbol
_atom_site_fract_x
_atom_site_fract_y
_atom_site_fract_z
_atom_type_partial_charge
Co0 Co 0.22965 0.45073 0.0857 0.0
Co1 Co 0.25777 0.46139 0.034 0.0
C2 C 0.27061 0.5073 0.07348 0.0
O3 O 0.25442 0.49039 0.08793 0.0
O4 O 0.27392 0.49936 0.05144 0.0
C5 C 0.19332 0.47404 0.12383 0.0
O6 O 0.19343 0.49899 0.1096 0.0
C7 C 0.27001 0.49351 0.98839 0.0
C8 C 0.28206 0.45406 0.96371 0.0
C9 C 0.27883 0.4868 0.96471 0.0
N10 N 0.26841 0.46613 0.00072 0.0
N11 N 0.27564 0.4426 0.98591 0.0
C12 C 0.2608 0.52495 0.99894 0.0
H13 H 0.24374 0.52164 0.014 0.0
H14 H 0.24993 0.54046 0.985 0.0
H15 H 0.28226 0.53679 0.0063 0.0
C16 C 0.16978 0.44899 0.05837 0.0
N17 N 0.20155 0.45157 0.05938 0.0
N18 N 0.21276 0.45694 0.03756 0.0
C19 C 0.18812 0.45855 0.02194 0.0
C20 C 0.16008 0.45382 0.03474 0.0
C21 C 0.14916 0.44053 0.07945 0.0
H22 H 0.16191 0.42412 0.09173 0.0
H23 H 0.14301 0.46242 0.08956 0.0
H24 H 0.1268 0.42911 0.07334 0.0
O25 O 0.25925 0.41493 0.083 0.0
O26 O 0.28143 0.42388 0.04713 0.0
H27 H 0.20699 0.44882 0.98681 0.0
H28 H 0.1681 0.46705 0.98631 0.0
C29 C 0.19133 0.46649 0.99569 0.0
H30 H 0.2025 0.49013 0.99383 0.0
H31 H 0.27611 0.41874 0.99093 0.0
O32 O 0.20673 0.44868 0.1167 0.0
C33 C 0.27929 0.40787 0.06663 0.0
Co34 Co 0.54931 0.23267 0.3341 0.0
Co35 Co 0.54082 0.26137 0.28199 0.0
C36 C 0.49281 0.27259 0.32075 0.0
O37 O 0.50911 0.25632 0.33554 0.0
O38 O 0.50192 0.27644 0.29903 0.0
C39 C 0.52569 0.19609 0.3721 0.0
O40 O 0.5009 0.19628 0.35767 0.0
C41 C 0.51129 0.26971 0.23404 0.0
C42 C 0.55053 0.29085 0.21303 0.0
C43 C 0.51915 0.28119 0.21122 0.0
N44 N 0.53695 0.27218 0.24845 0.0
N45 N 0.56035 0.28469 0.23572 0.0
C46 C 0.47943 0.25832 0.24245 0.0
H47 H 0.47845 0.25638 0.26232 0.0
H48 H 0.47477 0.23435 0.23501 0.0
H49 H 0.46047 0.27455 0.23599 0.0
C50 C 0.55539 0.1734 0.30596 0.0
N51 N 0.55074 0.20496 0.30737 0.0
N52 N 0.54705 0.21661 0.28547 0.0
C53 C 0.5491 0.19257 0.26938 0.0
C54 C 0.55439 0.16451 0.28185 0.0
C55 C 0.55883 0.1521 0.32747 0.0
H56 H 0.5353 0.14919 0.33616 0.0
H57 H 0.56763 0.12821 0.32255 0.0
H58 H 0.5753 0.16297 0.34075 0.0
O59 O 0.58409 0.26377 0.33239 0.0
O60 O 0.57735 0.28552 0.29608 0.0
H61 H 0.55538 0.17459 0.23304 0.0
H62 H 0.52248 0.20136 0.23725 0.0
C63 C 0.54735 0.19637 0.24253 0.0
H64 H 0.56238 0.21658 0.2368 0.0
H65 H 0.58292 0.28943 0.24262 0.0
O66 O 0.55114 0.20954 0.36518 0.0
C67 C 0.59199 0.28387 0.31627 0.0
Co68 Co 0.76809 0.55056 0.5881 0.0
Co69 Co 0.73879 0.53911 0.53659 0.0
C70 C 0.72953 0.49214 0.57561 0.0
O71 O 0.74521 0.50991 0.58979 0.0
O72 O 0.72501 0.4999 0.55365 0.0
C73 C 0.80621 0.52641 0.62456 0.0
O74 O 0.80644 0.50281 0.60901 0.0
C75 C 0.72305 0.50909 0.49031 0.0
C76 C 0.71567 0.55035 0.46633 0.0
C77 C 0.71546 0.51749 0.46678 0.0
N78 N 0.72742 0.53573 0.50325 0.0
N79 N 0.72286 0.56033 0.48884 0.0
C80 C 0.72827 0.47636 0.50001 0.0
H81 H 0.74797 0.47655 0.51334 0.0
H82 H 0.7339 0.45937 0.48528 0.0
H83 H 0.70639 0.46833 0.50936 0.0
C84 C 0.82681 0.55635 0.55934 0.0
N85 N 0.79529 0.55175 0.56114 0.0
N86 N 0.7835 0.54569 0.53959 0.0
C87 C 0.80746 0.54549 0.5234 0.0
C88 C 0.83562 0.55232 0.53539 0.0
C89 C 0.84824 0.56215 0.58052 0.0
H90 H 0.85404 0.53911 0.58912 0.0
H91 H 0.87085 0.57348 0.57515 0.0
H92 H 0.83615 0.57746 0.59397 0.0
O93 O 0.73648 0.58489 0.58652 0.0
O94 O 0.71433 0.57529 0.55072 0.0
H95 H 0.82631 0.54022 0.4871 0.0
H96 H 0.79233 0.51564 0.4943 0.0
C97 C 0.80338 0.53928 0.49694 0.0
H98 H 0.78728 0.55739 0.48917 0.0
H99 H 0.72494 0.58395 0.49432 0.0
O100 O 0.79186 0.55192 0.61893 0.0
C101 C 0.71583 0.59115 0.57036 0.0
Co102 Co 0.45601 0.76803 0.83746 0.0
Co103 Co 0.45884 0.73907 0.78499 0.0
C104 C 0.50934 0.72612 0.82183 0.0
O105 O 0.49605 0.74404 0.83726 0.0
O106 O 0.49726 0.72143 0.80106 0.0
C107 C 0.48151 0.80443 0.87522 0.0
O108 O 0.50602 0.8042 0.86053 0.0
C109 C 0.48539 0.71894 0.73827 0.0
C110 C 0.44576 0.72845 0.71312 0.0
C111 C 0.47725 0.71901 0.71393 0.0
N112 N 0.46024 0.72898 0.75116 0.0
N113 N 0.43645 0.73407 0.73604 0.0
C114 C 0.51571 0.70744 0.7494 0.0
H115 H 0.51016 0.6906 0.76418 0.0
H116 H 0.52883 0.72788 0.75719 0.0
H117 H 0.53097 0.69481 0.73622 0.0
C118 C 0.453 0.82767 0.81003 0.0
N119 N 0.45442 0.79582 0.81103 0.0
N120 N 0.45717 0.78428 0.78899 0.0
C121 C 0.45847 0.80879 0.77329 0.0
C122 C 0.45583 0.83694 0.78617 0.0
C123 C 0.4477 0.84884 0.8314 0.0
H124 H 0.43206 0.83699 0.84473 0.0
H125 H 0.47086 0.85411 0.84007 0.0
H126 H 0.4367 0.87163 0.82584 0.0
O127 O 0.42012 0.73828 0.83662 0.0
O128 O 0.42087 0.718 0.79952 0.0
H129 H 0.44238 0.79849 0.73755 0.0
H130 H 0.47288 0.82837 0.73885 0.0
C131 C 0.46464 0.80562 0.74676 0.0
H132 H 0.48291 0.78719 0.74352 0.0
H133 H 0.41416 0.74238 0.74131 0.0
O134 O 0.45592 0.79099 0.8686 0.0
C135 C 0.40866 0.71985 0.82058 0.0
Co136 Co 0.22828 0.54516 0.41188 0.0
Co137 Co 0.25942 0.53593 0.46282 0.0
C138 C 0.27103 0.4898 0.42307 0.0
O139 O 0.25384 0.50637 0.40911 0.0
O140 O 0.27524 0.49786 0.44501 0.0
C141 C 0.19141 0.51974 0.37529 0.0
O142 O 0.1932 0.49563 0.39029 0.0
C143 C 0.27217 0.50362 0.50805 0.0
C144 C 0.2886 0.54213 0.53211 0.0
C145 C 0.28284 0.50972 0.53137 0.0
N146 N 0.27189 0.531 0.49567 0.0
N147 N 0.28177 0.55398 0.51009 0.0
C148 C 0.26005 0.47295 0.49791 0.0
H149 H 0.24269 0.47752 0.48322 0.0
H150 H 0.24861 0.45844 0.5122 0.0
H151 H 0.28018 0.45938 0.49012 0.0
C152 C 0.16987 0.54539 0.44115 0.0
N153 N 0.20163 0.54369 0.43908 0.0
N154 N 0.21428 0.53988 0.46066 0.0
C155 C 0.19069 0.53915 0.4772 0.0
C156 C 0.1619 0.54222 0.46525 0.0
C157 C 0.14748 0.55113 0.42059 0.0
H158 H 0.15831 0.5676 0.40734 0.0
H159 H 0.14232 0.52826 0.41146 0.0
H160 H 0.12471 0.56129 0.42711 0.0
O161 O 0.25765 0.58137 0.41364 0.0
O162 O 0.28137 0.57394 0.44912 0.0
H163 H 0.21398 0.55111 0.51041 0.0
H164 H 0.17318 0.53861 0.51404 0.0
C165 C 0.19544 0.53458 0.50378 0.0
H166 H 0.2035 0.50997 0.50721 0.0
H167 H 0.28371 0.57772 0.50494 0.0
O168 O 0.20383 0.54605 0.38141 0.0
C169 C 0.2782 0.58939 0.42943 0.0
Co170 Co 0.45768 0.23119 0.66246 0.0
Co171 Co 0.45947 0.26057 0.71473 0.0
C172 C 0.50853 0.2769 0.67804 0.0
O173 O 0.49449 0.25947 0.66267 0.0
O174 O 0.49837 0.27934 0.69963 0.0
C175 C 0.48718 0.20061 0.62322 0.0
O176 O 0.51245 0.20702 0.63627 0.0
C177 C 0.48542 0.27237 0.76272 0.0
C178 C 0.44276 0.28256 0.78468 0.0
C179 C 0.47544 0.27921 0.78607 0.0
N180 N 0.45976 0.271 0.74834 0.0
N181 N 0.43432 0.27721 0.76152 0.0
C182 C 0.51873 0.26995 0.75335 0.0
H183 H 0.52372 0.29108 0.74205 0.0
H184 H 0.52095 0.24866 0.74165 0.0
H185 H 0.53679 0.26924 0.76785 0.0
C186 C 0.45693 0.17178 0.69016 0.0
N187 N 0.45812 0.20361 0.68902 0.0
N188 N 0.45862 0.21546 0.71104 0.0
C189 C 0.45775 0.19125 0.727 0.0
C190 C 0.45661 0.16286 0.71426 0.0
C191 C 0.45756 0.15056 0.66842 0.0
H192 H 0.48018 0.15427 0.6586 0.0
H193 H 0.45589 0.12511 0.67322 0.0
H194 H 0.4378 0.15699 0.65609 0.0
O195 O 0.41954 0.25785 0.66302 0.0
O196 O 0.42136 0.28054 0.69931 0.0
H197 H 0.45122 0.17245 0.76314 0.0
H198 H 0.4791 0.20481 0.76049 0.0
C199 C 0.45617 0.19523 0.75386 0.0
H200 H 0.43717 0.21237 0.75849 0.0
H201 H 0.4112 0.27763 0.75473 0.0
O202 O 0.45989 0.2078 0.63142 0.0
C203 C 0.40827 0.27698 0.67866 0.0
Co204 Co 0.76627 0.45257 0.91179 0.0
Co205 Co 0.73596 0.46002 0.96339 0.0
C206 C 0.72627 0.50903 0.92546 0.0
O207 O 0.74306 0.49324 0.91065 0.0
O208 O 0.72129 0.49914 0.94685 0.0
C209 C 0.80328 0.47681 0.87413 0.0
O210 O 0.80172 0.50196 0.88813 0.0
C211 C 0.72349 0.48979 0.01005 0.0
C212 C 0.70743 0.44953 0.03253 0.0
C213 C 0.71306 0.48193 0.03308 0.0
N214 N 0.72438 0.4632 0.99665 0.0
N215 N 0.71489 0.43918 0.01019 0.0
C216 C 0.72952 0.52219 -0.0001 0.0
H217 H 0.70852 0.52958 0.98917 0.0
H218 H 0.75024 0.52142 0.98752 0.0
H219 H 0.73355 0.54022 0.01412 0.0
C220 C 0.82488 0.44815 0.94073 0.0
N221 N 0.79318 0.45106 0.93885 0.0
N222 N 0.78087 0.45465 0.96057 0.0
C223 C 0.80465 0.45437 0.97695 0.0
C224 C 0.83312 0.45026 0.96482 0.0
C225 C 0.84708 0.44407 0.91985 0.0
H226 H 0.85097 0.46743 0.91112 0.0
H227 H 0.87041 0.43473 0.9259 0.0
H228 H 0.83663 0.42762 0.90637 0.0
O229 O 0.73524 0.41744 0.91266 0.0
O230 O 0.71238 0.42385 0.94863 0.0
H231 H 0.78278 0.44187 0.01051 0.0
H232 H 0.8232 0.45588 0.01342 0.0
C233 C 0.80047 0.45906 0.00356 0.0
H234 H 0.79142 0.48336 0.00699 0.0
H235 H 0.71311 0.41581 0.00408 0.0
O236 O 0.79053 0.45107 0.88119 0.0
C237 C 0.71475 0.40939 0.92845 0.0
Co238 Co 0.54619 0.77008 0.16391 0.0
Co239 Co 0.54143 0.739 0.21523 0.0
C240 C 0.49547 0.72259 0.17624 0.0
O241 O 0.51002 0.74072 0.16166 0.0
O242 O 0.50418 0.72008 0.19819 0.0
C243 C 0.51812 0.80378 0.12598 0.0
O244 O 0.49283 0.79817 0.13921 0.0
C245 C 0.51142 0.72302 0.26075 0.0
C246 C 0.55167 0.71078 0.28458 0.0
C247 C 0.51881 0.71275 0.2839 0.0
N248 N 0.5385 0.72659 0.24827 0.0
N249 N 0.56255 0.71933 0.26259 0.0
C250 C 0.4794 0.73151 0.25092 0.0
H251 H 0.48165 0.75019 0.23689 0.0
H252 H 0.46347 0.73997 0.26555 0.0
H253 H 0.46866 0.71023 0.24241 0.0
C254 C 0.54312 0.8286 0.19298 0.0
N255 N 0.5432 0.79679 0.19104 0.0
N256 N 0.5416 0.78414 0.21276 0.0
C257 C 0.54053 0.80774 0.22928 0.0
C258 C 0.54112 0.83658 0.21718 0.0
C259 C 0.54697 0.85094 0.17215 0.0
H260 H 0.56476 0.84146 0.15927 0.0
H261 H 0.52392 0.85325 0.1626 0.0
H262 H 0.55463 0.87483 0.17829 0.0
O263 O 0.58488 0.74416 0.16517 0.0
O264 O 0.58054 0.71989 0.20071 0.0
H265 H 0.55809 0.78702 0.26194 0.0
H266 H 0.53983 0.82554 0.26605 0.0
C267 C 0.53851 0.80279 0.25601 0.0
H268 H 0.51572 0.79103 0.26041 0.0
H269 H 0.58633 0.72008 0.25734 0.0
O270 O 0.54512 0.79467 0.13356 0.0
C271 C 0.59503 0.72431 0.18072 0.0
H272 H 0.17887 0.56474 0.34087 0.0
H273 H 0.16734 0.55531 0.29801 0.0
H274 H 0.16665 0.45439 0.31079 0.0
H275 H 0.17756 0.46347 0.35357 0.0
H276 H 0.21259 0.47902 0.27559 0.0
H277 H 0.10137 0.48286 0.29622 0.0
H278 H 0.05339 0.50709 0.31386 0.0
H279 H 0.06281 0.58689 0.26618 0.0
H280 H 0.11116 0.56335 0.2485 0.0
H281 H 0.18915 0.42715 0.15775 0.0
H282 H 0.17772 0.43364 0.20075 0.0
H283 H 0.15987 0.53337 0.18958 0.0
H284 H 0.17073 0.52703 0.14648 0.0
H285 H 0.12068 0.50896 0.22426 0.0
H286 H 0.23132 0.51157 0.20621 0.0
H287 H 0.28173 0.49295 0.18858 0.0
H288 H 0.27705 0.40833 0.23163 0.0
H289 H 0.22626 0.42624 0.24925 0.0
C290 C 0.17555 0.54059 0.33464 0.0
C291 C 0.17944 0.51484 0.35051 0.0
C292 C 0.16886 0.53527 0.31022 0.0
C293 C 0.16624 0.50418 0.30139 0.0
C294 C 0.16854 0.47854 0.31739 0.0
C295 C 0.17477 0.48382 0.34181 0.0
C296 C 0.1652 0.4982 0.27515 0.0
C297 C 0.19226 0.48496 0.26441 0.0
C298 C 0.13917 0.50732 0.26062 0.0
C299 C 0.11009 0.52148 0.27121 0.0
C300 C 0.09341 0.50572 0.28966 0.0
C301 C 0.06609 0.5193 0.29963 0.0
C302 C 0.05511 0.54855 0.29119 0.0
C303 C 0.07137 0.56425 0.27272 0.0
C304 C 0.09871 0.55078 0.2627 0.0
C305 C 0.1822 0.45034 0.16435 0.0
C306 C 0.18139 0.4767 0.14882 0.0
C307 C 0.17568 0.454 0.18891 0.0
C308 C 0.16856 0.4841 0.19835 0.0
C309 C 0.16542 0.50998 0.18263 0.0
C310 C 0.1718 0.50631 0.15802 0.0
C311 C 0.16787 0.48918 0.22478 0.0
C312 C 0.14079 0.50258 0.23551 0.0
C313 C 0.19423 0.48098 0.23936 0.0
C314 C 0.22478 0.47007 0.22883 0.0
C315 C 0.24088 0.48885 0.21176 0.0
C316 C 0.26956 0.47846 0.2018 0.0
C317 C 0.28256 0.44944 0.20893 0.0
C318 C 0.26692 0.43078 0.22609 0.0
C319 C 0.23818 0.44104 0.23607 0.0
H320 H 0.30478 0.44144 0.20122 0.0
H321 H 0.03395 0.55902 0.29893 0.0
H322 H 0.5706 0.19611 0.40789 0.0
H323 H 0.56263 0.18297 0.45045 0.0
H324 H 0.46624 0.15475 0.4351 0.0
H325 H 0.47389 0.16807 0.39256 0.0
H326 H 0.46917 0.19885 0.47004 0.0
H327 H 0.52017 0.10012 0.45352 0.0
H328 H 0.56191 0.06483 0.43758 0.0
H329 H 0.63039 0.10824 0.48468 0.0
H330 H 0.58916 0.14413 0.50066 0.0
H331 H 0.44109 0.17578 0.59392 0.0
H332 H 0.4463 0.16122 0.55127 0.0
H333 H 0.5462 0.18382 0.55384 0.0
H334 H 0.54141 0.19731 0.59654 0.0
H335 H 0.53685 0.13472 0.5248 0.0
H336 H 0.49009 0.23866 0.53546 0.0
H337 H 0.45045 0.27678 0.5508 0.0
H338 H 0.37641 0.22625 0.51376 0.0
H339 H 0.4156 0.18758 0.49846 0.0
C340 C 0.54791 0.1865 0.41347 0.0
C341 C 0.52275 0.18351 0.39692 0.0
C342 C 0.54345 0.17882 0.43779 0.0
C343 C 0.51384 0.16782 0.44591 0.0
C344 C 0.48925 0.16321 0.42918 0.0
C345 C 0.49368 0.17086 0.40488 0.0
C346 C 0.50745 0.16502 0.47213 0.0
C347 C 0.48346 0.18419 0.48195 0.0
C348 C 0.5267 0.14661 0.48768 0.0
C349 C 0.55157 0.12497 0.47818 0.0
C350 C 0.54417 0.10232 0.46035 0.0
C351 C 0.56774 0.08217 0.45133 0.0
C352 C 0.59879 0.08433 0.46008 0.0
C353 C 0.60632 0.1066 0.47791 0.0
C354 C 0.58285 0.12682 0.48699 0.0
C355 C 0.46424 0.17715 0.58546 0.0
C356 C 0.49074 0.1881 0.59846 0.0
C357 C 0.46718 0.16886 0.56111 0.0
C358 C 0.49651 0.17206 0.54926 0.0
C359 C 0.52333 0.18121 0.56259 0.0
C360 C 0.52051 0.18906 0.587 0.0
C361 C 0.49884 0.16883 0.52263 0.0
C362 C 0.52212 0.14876 0.51279 0.0
C363 C 0.47923 0.18674 0.50696 0.0
C364 C 0.45569 0.21003 0.51607 0.0
C365 C 0.46532 0.23557 0.53074 0.0
C366 C 0.44294 0.25728 0.5394 0.0
C367 C 0.41091 0.25388 0.53332 0.0
C368 C 0.40121 0.22881 0.5185 0.0
C369 C 0.42349 0.20699 0.50983 0.0
H370 H 0.39363 0.27072 0.54005 0.0
H371 H 0.617 0.06871 0.45307 0.0
H372 H 0.83212 0.47245 0.64322 0.0
H373 H 0.84479 0.46179 0.6855 0.0
H374 H 0.82167 0.55851 0.70396 0.0
H375 H 0.80883 0.56949 0.66162 0.0
H376 H 0.87476 0.5324 0.7303 0.0
H377 H 0.76638 0.50672 0.70727 0.0
H378 H 0.72574 0.47947 0.68279 0.0
H379 H 0.76283 0.38906 0.70473 0.0
H380 H 0.80435 0.4158 0.72876 0.0
H381 H 0.81759 0.53103 0.84977 0.0
H382 H 0.83119 0.53621 0.80724 0.0
H383 H 0.8326 0.43419 0.80001 0.0
H384 H 0.81768 0.42888 0.84257 0.0
H385 H 0.79753 0.45761 0.76688 0.0
H386 H 0.9016 0.48173 0.79406 0.0
H387 H 0.94306 0.50776 0.81851 0.0
H388 H 0.91618 0.59846 0.78972 0.0
H389 H 0.87423 0.57306 0.76534 0.0
C390 C 0.83032 0.49168 0.65615 0.0
C391 C 0.81896 0.5217 0.64916 0.0
C392 C 0.83763 0.48552 0.68028 0.0
C393 C 0.83377 0.50926 0.69779 0.0
C394 C 0.82477 0.5399 0.69064 0.0
C395 C 0.81728 0.54607 0.66649 0.0
C396 C 0.83524 0.50123 0.72375 0.0
C397 C 0.8579 0.51615 0.73844 0.0
C398 C 0.81374 0.47929 0.73405 0.0
C399 C 0.78874 0.46327 0.71957 0.0
C400 C 0.76611 0.48104 0.70665 0.0
C401 C 0.74288 0.46568 0.69289 0.0
C402 C 0.74168 0.43255 0.69223 0.0
C403 C 0.76381 0.41472 0.70524 0.0
C404 C 0.78724 0.42996 0.71889 0.0
C405 C 0.82138 0.50965 0.83928 0.0
C406 C 0.81629 0.47954 0.84945 0.0
C407 C 0.82942 0.51265 0.81494 0.0
C408 C 0.83324 0.48559 0.8004 0.0
C409 C 0.82977 0.45541 0.81087 0.0
C410 C 0.82125 0.4524 0.83517 0.0
C411 C 0.83697 0.48899 0.77385 0.0
C412 C 0.81502 0.47334 0.75891 0.0
C413 C 0.85933 0.51003 0.76338 0.0
C414 C 0.88461 0.52547 0.77796 0.0
C415 C 0.90437 0.50725 0.79306 0.0
C416 C 0.92799 0.5219 0.80689 0.0
C417 C 0.93222 0.55474 0.8057 0.0
C418 C 0.91287 0.57301 0.79063 0.0
C419 C 0.8892 0.55849 0.77677 0.0
H420 H 0.95052 0.56604 0.81642 0.0
H421 H 0.72356 0.42067 0.68174 0.0
H422 H 0.43649 0.8061 0.91081 0.0
H423 H 0.44439 0.82012 0.95322 0.0
H424 H 0.54156 0.84567 0.93808 0.0
H425 H 0.53399 0.8314 0.89566 0.0
H426 H 0.53704 0.80271 0.97382 0.0
H427 H 0.48824 0.90215 0.95504 0.0
H428 H 0.44719 0.93741 0.93808 0.0
H429 H 0.37753 0.89665 0.98545 0.0
H430 H 0.41805 0.86081 0.00246 0.0
H431 H 0.56462 0.82819 0.09702 0.0
H432 H 0.55985 0.84271 0.05436 0.0
H433 H 0.45948 0.82227 0.05671 0.0
H434 H 0.46386 0.80885 0.09946 0.0
H435 H 0.47027 0.87035 0.02682 0.0
H436 H 0.51362 0.76584 0.03979 0.0
H437 H 0.55163 0.72724 0.05657 0.0
H438 H 0.62805 0.77357 0.01924 0.0
H439 H 0.59047 0.81285 0.00257 0.0
C440 C 0.45938 0.81527 0.9164 0.0
C441 C 0.48473 0.81729 0.89995 0.0
C442 C 0.46379 0.82348 0.94062 0.0
C443 C 0.49354 0.83406 0.94876 0.0
C444 C 0.51842 0.83759 0.93213 0.0
C445 C 0.51403 0.8294 0.90791 0.0
C446 C 0.49966 0.8376 0.97497 0.0
C447 C 0.52299 0.81815 0.98533 0.0
C448 C 0.4806 0.85695 0.99002 0.0
C449 C 0.45619 0.87864 0.97993 0.0
C450 C 0.46413 0.90054 0.96173 0.0
C451 C 0.44095 0.92066 0.95213 0.0
C452 C 0.40977 0.91924 0.96066 0.0
C453 C 0.4017 0.89773 0.97886 0.0
C454 C 0.42478 0.87754 0.98852 0.0
C455 C 0.54145 0.82738 0.08853 0.0
C456 C 0.51471 0.81693 0.10143 0.0
C457 C 0.53876 0.83566 0.06418 0.0
C458 C 0.50944 0.83291 0.05225 0.0
C459 C 0.48235 0.82452 0.06554 0.0
C460 C 0.48493 0.81671 0.08996 0.0
C461 C 0.50747 0.8353 0.02558 0.0
C462 C 0.48482 0.85558 0.01518 0.0
C463 C 0.52675 0.81628 0.01041 0.0
C464 C 0.54932 0.7925 0.02019 0.0
C465 C 0.53857 0.76792 0.0353 0.0
C466 C 0.56003 0.74591 0.04478 0.0
C467 C 0.59227 0.74798 0.03904 0.0
C468 C 0.60308 0.77203 0.02372 0.0
C469 C 0.58172 0.79419 0.01426 0.0
H470 H 0.60887 0.73094 0.0464 0.0
H471 H 0.39186 0.93483 0.95319 0.0
H472 H 0.13215 0.42309 0.99667 0.0
H473 H 0.07598 0.42544 0.98466 0.0
H474 H 0.05735 0.49135 0.04266 0.0
H475 H 0.11344 0.48993 0.05412 0.0
H476 H 0.01518 0.43968 0.04119 0.0
H477 H 0.05839 0.51982 0.98951 0.0
H478 H 0.09511 0.54182 0.95915 0.0
H479 H 0.06238 0.47371 0.907 0.0
H480 H 0.0258 0.45095 0.93721 0.0
H481 H 0.87022 0.50235 0.96676 0.0
H482 H 0.92593 0.50527 0.97965 0.0
H483 H 0.92444 0.40507 0.99595 0.0
H484 H 0.86848 0.40248 0.9835 0.0
H485 H 0.9767 0.47665 0.96124 0.0
H486 H 0.97515 0.39036 0.04254 0.0
H487 H 0.93804 0.37191 0.07403 0.0
H488 H 0.88651 0.45962 0.06926 0.0
H489 H 0.92357 0.47877 0.038 0.0
C490 C 0.11611 0.43852 0.00648 0.0
C491 C 0.12696 0.4564 0.02624 0.0
C492 C 0.08412 0.4397 -0.00026 0.0
C493 C 0.06264 0.45851 0.01286 0.0
C494 C 0.07357 0.47656 0.03244 0.0
C495 C 0.10552 0.4757 0.03896 0.0
C496 C 0.02856 0.45887 0.00659 0.0
C497 C 0.0067 0.44769 0.0237 0.0
C498 C 0.01766 0.46983 0.98394 0.0
C499 C 0.03962 0.48344 0.96572 0.0
C500 C 0.05925 0.50932 0.97165 0.0
C501 C 0.07999 0.52197 0.95445 0.0
C502 C 0.08115 0.5091 0.93118 0.0
C503 C 0.0615 0.48361 0.92505 0.0
C504 C 0.04075 0.47083 0.9422 0.0
C505 C 0.88184 0.48118 0.97348 0.0
C506 C 0.86543 0.45231 0.97455 0.0
C507 C 0.91357 0.48276 0.98064 0.0
C508 C 0.92926 0.45544 0.98888 0.0
C509 C 0.91265 0.42653 0.99001 0.0
C510 C 0.88083 0.42502 0.98295 0.0
C511 C 0.9632 0.45707 0.99574 0.0
C512 C 0.9851 0.46855 0.97872 0.0
C513 C 0.97409 0.44686 0.01865 0.0
C514 C 0.95198 0.43585 0.03776 0.0
C515 C 0.95599 0.40576 0.0483 0.0
C516 C 0.93495 0.39518 0.06609 0.0
C517 C 0.90988 0.41454 0.07359 0.0
C518 C 0.90587 0.4446 0.06338 0.0
C519 C 0.92687 0.45531 0.0456 0.0
H520 H 0.89359 0.40628 0.08734 0.0
H521 H 0.09721 0.51895 0.91788 0.0
H522 H 0.50892 0.135 0.2554 0.0
H523 H 0.50727 0.07886 0.2437 0.0
H524 H 0.59986 0.0648 0.27542 0.0
H525 H 0.60185 0.12117 0.28647 0.0
H526 H 0.59363 0.03134 0.23414 0.0
H527 H 0.53384 0.04689 0.3069 0.0
H528 H 0.49302 0.07178 0.33261 0.0
H529 H 0.42012 0.0401 0.28395 0.0
H530 H 0.46059 0.01546 0.25771 0.0
H531 H 0.58416 0.86403 0.24729 0.0
H532 H 0.58642 0.92023 0.2592 0.0
H533 H 0.49902 0.93772 0.22073 0.0
H534 H 0.49691 0.88168 0.20872 0.0
H535 H 0.503 0.96889 0.26622 0.0
H536 H 0.56386 0.95376 0.19335 0.0
H537 H 0.60517 0.92835 0.16841 0.0
H538 H 0.67683 0.95879 0.21857 0.0
H539 H 0.63582 0.98389 0.24408 0.0
C540 C 0.5291 0.11995 0.25942 0.0
C541 C 0.55529 0.13197 0.27212 0.0
C542 C 0.52808 0.08794 0.25292 0.0
C543 C 0.55315 0.06756 0.25919 0.0
C544 C 0.58017 0.08007 0.27059 0.0
C545 C 0.58123 0.11211 0.27699 0.0
C546 C 0.55051 0.03294 0.25505 0.0
C547 C 0.57402 0.01763 0.24139 0.0
C548 C 0.52471 0.01514 0.26432 0.0
C549 C 0.50028 0.02958 0.28022 0.0
C550 C 0.50912 0.04541 0.30159 0.0
C551 C 0.48605 0.05946 0.31627 0.0
C552 C 0.454 0.05758 0.30989 0.0
C553 C 0.44496 0.04157 0.28885 0.0
C554 C 0.46795 0.02755 0.27407 0.0
C555 C 0.56518 0.87986 0.24188 0.0
C556 C 0.54032 0.86888 0.22724 0.0
C557 C 0.56654 0.91183 0.24853 0.0
C558 C 0.54299 0.93303 0.24066 0.0
C559 C 0.51735 0.92167 0.22698 0.0
C560 C 0.51618 0.88982 0.22014 0.0
C561 C 0.54605 0.96743 0.2453 0.0
C562 C 0.52261 0.98266 0.25904 0.0
C563 C 0.572 0.98511 0.23624 0.0
C564 C 0.59673 0.97041 0.22076 0.0
C565 C 0.58839 0.95481 0.19918 0.0
C566 C 0.61175 0.94049 0.18492 0.0
C567 C 0.6436 0.94189 0.19193 0.0
C568 C 0.65214 0.95769 0.21319 0.0
C569 C 0.62885 0.97196 0.22755 0.0
H570 H 0.66166 0.9308 0.18087 0.0
H571 H 0.43616 0.06847 0.32128 0.0
H572 H 0.13363 0.58239 0.49714 0.0
H573 H 0.07775 0.58208 0.50967 0.0
H574 H 0.06207 0.49704 0.46765 0.0
H575 H 0.11763 0.49808 0.4546 0.0
H576 H 0.01735 0.53692 0.4586 0.0
H577 H 0.06386 0.4965 0.53054 0.0
H578 H 0.10079 0.49431 0.56508 0.0
H579 H 0.06415 0.58282 0.59163 0.0
H580 H 0.0273 0.58579 0.55702 0.0
H581 H 0.8649 0.50349 0.51237 0.0
H582 H 0.92079 0.50062 0.49986 0.0
H583 H 0.93548 0.59637 0.5252 0.0
H584 H 0.87938 0.59965 0.53692 0.0
H585 H 0.97998 0.54883 0.54316 0.0
H586 H 0.93336 0.58709 0.46862 0.0
H587 H 0.89559 0.58485 0.43459 0.0
H588 H 0.93211 0.49361 0.41398 0.0
H589 H 0.96979 0.49509 0.44814 0.0
C590 C 0.11823 0.56342 0.49101 0.0
C591 C 0.1296 0.54014 0.47514 0.0
C592 C 0.08641 0.56318 0.49814 0.0
C593 C 0.06576 0.53935 0.48976 0.0
C594 C 0.07752 0.51566 0.47431 0.0
C595 C 0.10917 0.51615 0.46697 0.0
C596 C 0.03155 0.54006 0.49602 0.0
C597 C 0.00923 0.53903 0.47715 0.0
C598 C 0.0209 0.54318 0.52017 0.0
C599 C 0.04302 0.54152 0.54104 0.0
C600 C 0.06386 0.51564 0.54363 0.0
C601 C 0.08475 0.51423 0.56324 0.0
C602 C 0.08487 0.53845 0.5805 0.0
C603 C 0.06405 0.5641 0.57822 0.0
C604 C 0.04314 0.56564 0.55861 0.0
C605 C 0.88001 0.52405 0.51481 0.0
C606 C 0.86818 0.5517 0.52572 0.0
C607 C 0.91182 0.52235 0.50782 0.0
C608 C 0.93213 0.54823 0.51181 0.0
C609 C 0.92013 0.57611 0.52219 0.0
C610 C 0.88824 0.57795 0.52886 0.0
C611 C 0.96616 0.54594 0.50576 0.0
C612 C 0.98832 0.54663 0.52468 0.0
C613 C 0.97664 0.54184 0.48173 0.0
C614 C 0.95416 0.54106 0.46108 0.0
C615 C 0.93314 0.56642 0.45696 0.0
C616 C 0.91179 0.56531 0.43763 0.0
C617 C 0.91139 0.53906 0.42218 0.0
C618 C 0.93241 0.51391 0.42599 0.0
C619 C 0.95379 0.51488 0.44532 0.0
H620 H 0.89483 0.53825 0.40721 0.0
H621 H 0.10105 0.53731 0.59568 0.0
H622 H 0.41238 0.11801 0.70416 0.0
H623 H 0.41228 0.06251 0.71709 0.0
H624 H 0.49654 0.07952 0.75968 0.0
H625 H 0.49731 0.13487 0.74587 0.0
H626 H 0.50311 0.02732 0.73393 0.0
H627 H 0.42307 0.06899 0.78612 0.0
H628 H 0.37438 0.09822 0.79694 0.0
H629 H 0.31884 0.03456 0.75345 0.0
H630 H 0.36727 0.00521 0.74208 0.0
H631 H 0.49553 0.88349 0.80117 0.0
H632 H 0.49567 0.93918 0.78855 0.0
H633 H 0.4196 0.91977 0.73838 0.0
H634 H 0.41938 0.86386 0.75112 0.0
H635 H 0.40896 0.97284 0.76832 0.0
H636 H 0.4908 0.93121 0.71667 0.0
H637 H 0.54012 0.90204 0.70756 0.0
H638 H 0.59303 0.96617 0.75252 0.0
H639 H 0.54393 0.99546 0.7622 0.0
C640 C 0.43078 0.1098 0.71634 0.0
C641 C 0.45498 0.13036 0.72394 0.0
C642 C 0.43058 0.07824 0.72387 0.0
C643 C 0.45427 0.06694 0.73951 0.0
C644 C 0.47806 0.08777 0.7476 0.0
C645 C 0.47838 0.11932 0.73988 0.0
C646 C 0.45498 0.03302 0.74647 0.0
C647 C 0.48268 0.01554 0.74181 0.0
C648 C 0.42807 0.01751 0.75623 0.0
C649 C 0.39886 0.03507 0.76307 0.0
C650 C 0.40051 0.06137 0.77871 0.0
C651 C 0.37295 0.07794 0.78497 0.0
C652 C 0.34355 0.0683 0.77585 0.0
C653 C 0.34164 0.04202 0.76049 0.0
C654 C 0.36913 0.02539 0.75415 0.0
C655 C 0.479 0.89117 0.78735 0.0
C656 C 0.45741 0.8697 0.77707 0.0
C657 C 0.47918 0.92283 0.78011 0.0
C658 C 0.45771 0.93345 0.7625 0.0
C659 C 0.43633 0.91191 0.75199 0.0
C660 C 0.43634 0.88011 0.75912 0.0
C661 C 0.457 0.96731 0.75571 0.0
C662 C 0.42933 0.98473 0.76044 0.0
C663 C 0.48402 0.98283 0.74625 0.0
C664 C 0.51362 0.96536 0.74034 0.0
C665 C 0.51291 0.93894 0.72478 0.0
C666 C 0.54083 0.92241 0.71948 0.0
C667 C 0.56968 0.9322 0.7295 0.0
C668 C 0.57067 0.9586 0.74479 0.0
C669 C 0.5428 0.97519 0.75017 0.0
H670 H 0.59128 0.91938 0.72538 0.0
H671 H 0.32224 0.08115 0.78072 0.0
H672 H 0.48522 0.70518 0.12964 0.0
H673 H 0.44267 0.67228 0.11363 0.0
H674 H 0.40284 0.66328 0.18519 0.0
H675 H 0.44649 0.69532 0.20157 0.0
H676 H 0.40092 0.60864 0.16373 0.0
H677 H 0.36936 0.71291 0.14042 0.0
H678 H 0.37652 0.7662 0.12286 0.0
H679 H 0.39506 0.72477 0.05335 0.0
H680 H 0.38844 0.67119 0.07055 0.0
H681 H 0.26339 0.53485 0.11784 0.0
H682 H 0.2963 0.57611 0.13601 0.0
H683 H 0.35008 0.58371 0.06992 0.0
H684 H 0.31682 0.54276 0.05135 0.0
H685 H 0.34034 0.6417 0.091 0.0
H686 H 0.37647 0.5374 0.11634 0.0
H687 H 0.36859 0.48446 0.13439 0.0
H688 H 0.33939 0.52751 0.20116 0.0
H689 H 0.34679 0.58074 0.18341 0.0
C690 C 0.4673 0.69641 0.14199 0.0
C691 C 0.46902 0.70309 0.16686 0.0
C692 C 0.44285 0.67769 0.13277 0.0
C693 C 0.41903 0.66591 0.14808 0.0
C694 C 0.42082 0.67229 0.17299 0.0
C695 C 0.44572 0.69061 0.18234 0.0
C696 C 0.39292 0.64619 0.13799 0.0
C697 C 0.38726 0.61619 0.14813 0.0
C698 C 0.37533 0.65576 0.11739 0.0
C699 C 0.37859 0.688 0.10683 0.0
C700 C 0.37509 0.71515 0.12141 0.0
C701 C 0.37906 0.74541 0.11152 0.0
C702 C 0.38631 0.74887 0.08702 0.0
C703 C 0.38945 0.72206 0.07233 0.0
C704 C 0.38554 0.69173 0.08213 0.0
C705 C 0.28195 0.54555 0.10701 0.0
C706 C 0.28778 0.53518 0.08323 0.0
C707 C 0.30078 0.5691 0.11747 0.0
C708 C 0.32604 0.58248 0.10449 0.0
C709 C 0.33079 0.57355 0.0803 0.0
C710 C 0.31179 0.5501 0.06972 0.0
C711 C 0.34878 0.60418 0.11658 0.0
C712 C 0.35378 0.63446 0.10679 0.0
C713 C 0.36558 0.59501 0.13762 0.0
C714 C 0.36192 0.56303 0.14849 0.0
C715 C 0.36826 0.53557 0.13484 0.0
C716 C 0.36389 0.50552 0.14502 0.0
C717 C 0.35344 0.50263 0.16889 0.0
C718 C 0.34748 0.52979 0.18267 0.0
C719 C 0.35179 0.5599 0.17257 0.0
H720 H 0.34998 0.47935 0.17672 0.0
H721 H 0.38945 0.77232 0.07941 0.0
H722 H 0.44677 0.30332 0.29445 0.0
H723 H 0.4024 0.33467 0.31024 0.0
H724 H 0.43078 0.31168 0.38314 0.0
H725 H 0.47407 0.27944 0.36759 0.0
H726 H 0.36954 0.3126 0.38132 0.0
H727 H 0.45264 0.3831 0.35406 0.0
H728 H 0.49005 0.4056 0.32435 0.0
H729 H 0.41211 0.43205 0.27853 0.0
H730 H 0.37425 0.40938 0.30788 0.0
H731 H 0.31211 0.44884 0.44592 0.0
H732 H 0.34362 0.40651 0.42722 0.0
H733 H 0.29977 0.42593 0.35835 0.0
H734 H 0.26827 0.46798 0.37669 0.0
H735 H 0.36475 0.42537 0.35594 0.0
H736 H 0.2815 0.35948 0.38721 0.0
H737 H 0.24578 0.3384 0.41863 0.0
H738 H 0.32609 0.30483 0.45904 0.0
H739 H 0.36234 0.32613 0.42801 0.0
C740 C 0.44328 0.30466 0.31382 0.0
C741 C 0.46417 0.28917 0.32975 0.0
C742 C 0.418 0.32269 0.32284 0.0
C743 C 0.41363 0.3261 0.34792 0.0
C744 C 0.43364 0.3095 0.36374 0.0
C745 C 0.45853 0.29113 0.35477 0.0
C746 C 0.38954 0.34827 0.35792 0.0
C747 C 0.36864 0.3373 0.37587 0.0
C748 C 0.38797 0.38044 0.35059 0.0
C749 C 0.41067 0.39425 0.33302 0.0
C750 C 0.44351 0.39355 0.33758 0.0
C751 C 0.46479 0.40636 0.32082 0.0
C752 C 0.45347 0.42017 0.29954 0.0
C753 C 0.42084 0.4213 0.29501 0.0
C754 C 0.39947 0.4085 0.3117 0.0
C755 C 0.30887 0.44381 0.42688 0.0
C756 C 0.28784 0.46199 0.4128 0.0
C757 C 0.32682 0.41957 0.41624 0.0
C758 C 0.32399 0.41314 0.3914 0.0
C759 C 0.30235 0.43059 0.37752 0.0
C760 C 0.28434 0.45462 0.3881 0.0
C761 C 0.34506 0.38975 0.37947 0.0
C762 C 0.36544 0.40057 0.36119 0.0
C763 C 0.34641 0.35764 0.38675 0.0
C764 C 0.32465 0.34466 0.40538 0.0
C765 C 0.29157 0.34784 0.40289 0.0
C766 C 0.27122 0.3358 0.42061 0.0
C767 C 0.28366 0.32035 0.44085 0.0
C768 C 0.31648 0.31683 0.44336 0.0
C769 C 0.33694 0.32885 0.4257 0.0
H770 H 0.26786 0.31105 0.45455 0.0
H771 H 0.46998 0.43006 0.28659 0.0
H772 H 0.52285 0.29273 0.63191 0.0
H773 H 0.56724 0.32394 0.61736 0.0
H774 H 0.60208 0.33404 0.69036 0.0
H775 H 0.55639 0.3036 0.70532 0.0
H776 H 0.60619 0.38803 0.66826 0.0
H777 H 0.63923 0.28391 0.64757 0.0
H778 H 0.63366 0.2298 0.63111 0.0
H779 H 0.61783 0.26791 0.56018 0.0
H780 H 0.62285 0.32229 0.57624 0.0
H781 H 0.74052 0.46518 0.61965 0.0
H782 H 0.71048 0.4227 0.63888 0.0
H783 H 0.65398 0.41173 0.57441 0.0
H784 H 0.68424 0.4541 0.55474 0.0
H785 H 0.66825 0.35414 0.59647 0.0
H786 H 0.62915 0.45837 0.61983 0.0
H787 H 0.63458 0.51198 0.63729 0.0
H788 H 0.66351 0.47164 0.70507 0.0
H789 H 0.6588 0.4178 0.68787 0.0
C790 C 0.54002 0.30136 0.64494 0.0
C791 C 0.53621 0.29551 0.66979 0.0
C792 C 0.5656 0.31905 0.63654 0.0
C793 C 0.58857 0.33063 0.65265 0.0
C794 C 0.58481 0.32507 0.67756 0.0
C795 C 0.55872 0.30772 0.68609 0.0
C796 C 0.61539 0.34989 0.64325 0.0
C797 C 0.62029 0.38026 0.65295 0.0
C798 C 0.6336 0.33996 0.62305 0.0
C799 C 0.63129 0.30723 0.61316 0.0
C800 C 0.63444 0.28078 0.62847 0.0
C801 C 0.63138 0.25004 0.61921 0.0
C802 C 0.62535 0.24542 0.59462 0.0
C803 C 0.62251 0.27153 0.57922 0.0
C804 C 0.62553 0.30232 0.58839 0.0
C805 C 0.722 0.45348 0.60936 0.0
C806 C 0.71443 0.46337 0.58574 0.0
C807 C 0.70485 0.42922 0.62045 0.0
C808 C 0.67964 0.41456 0.60826 0.0
C809 C 0.6733 0.42291 0.58416 0.0
C810 C 0.69056 0.44714 0.57296 0.0
C811 C 0.65834 0.39234 0.62116 0.0
C812 C 0.65455 0.3615 0.6121 0.0
C813 C 0.64141 0.40168 0.64212 0.0
C814 C 0.64402 0.43408 0.65246 0.0
C815 C 0.63694 0.46095 0.63839 0.0
C816 C 0.63985 0.49137 0.64825 0.0
C817 C 0.64948 0.49522 0.67225 0.0
C818 C 0.65608 0.46864 0.68647 0.0
C819 C 0.65333 0.43817 0.67667 0.0
H820 H 0.65174 0.51879 0.67985 0.0
H821 H 0.62291 0.22161 0.5875 0.0
H822 H 0.74641 0.54896 0.88996 0.0
H823 H 0.71761 0.59378 0.87254 0.0
H824 H 0.64058 0.57765 0.92258 0.0
H825 H 0.67022 0.53415 0.94095 0.0
H826 H 0.66818 0.59513 0.84849 0.0
H827 H 0.59587 0.64081 0.9321 0.0
H828 H 0.60425 0.64976 0.9757 0.0
H829 H 0.70489 0.65577 0.96424 0.0
H830 H 0.69711 0.64735 0.92053 0.0
H831 H 0.52581 0.66551 0.81055 0.0
H832 H 0.56977 0.6349 0.82737 0.0
H833 H 0.60289 0.71825 0.86534 0.0
H834 H 0.55741 0.74813 0.84996 0.0
H835 H 0.60585 0.67469 0.8944 0.0
H836 H 0.64326 0.68215 0.81415 0.0
H837 H 0.64161 0.67966 0.76964 0.0
H838 H 0.62391 0.5794 0.77277 0.0
H839 H 0.62499 0.58134 0.81732 0.0
C840 C 0.7236 0.55547 0.89755 0.0
C841 C 0.71054 0.53816 0.91683 0.0
C842 C 0.70709 0.581 0.88751 0.0
C843 C 0.67692 0.58937 0.89626 0.0
C844 C 0.66413 0.57235 0.91585 0.0
C845 C 0.68101 0.54733 0.92629 0.0
C846 C 0.65781 0.61419 0.88382 0.0
C847 C 0.6548 0.61274 0.85854 0.0
C848 C 0.64105 0.63789 0.89672 0.0
C849 C 0.64589 0.64319 0.92302 0.0
C850 C 0.61978 0.6442 0.93885 0.0
C851 C 0.62442 0.64915 0.9636 0.0
C852 C 0.65508 0.65324 0.97275 0.0
C853 C 0.68116 0.65248 0.95715 0.0
C854 C 0.67664 0.64758 0.93239 0.0
C855 C 0.54281 0.67733 0.82219 0.0
C856 C 0.53834 0.70908 0.829 0.0
C857 C 0.56809 0.6599 0.83172 0.0
C858 C 0.5901 0.67426 0.84745 0.0
C859 C 0.58626 0.70648 0.85339 0.0
C860 C 0.56039 0.7236 0.8445 0.0
C861 C 0.61559 0.65513 0.85911 0.0
C862 C 0.61969 0.65753 0.88427 0.0
C863 C 0.63449 0.63333 0.84595 0.0
C864 C 0.63402 0.63194 0.81912 0.0
C865 C 0.63883 0.6596 0.80536 0.0
C866 C 0.63801 0.65828 0.78011 0.0
C867 C 0.6326 0.6294 0.76838 0.0
C868 C 0.62808 0.60176 0.78188 0.0
C869 C 0.62884 0.60294 0.80714 0.0
H870 H 0.63196 0.62844 0.74884 0.0
H871 H 0.65863 0.65705 0.99191 0.0
H872 H 0.3417 0.40847 0.05413 0.0
H873 H 0.38391 0.37703 0.07243 0.0
H874 H 0.31389 0.32117 0.11038 0.0
H875 H 0.27174 0.35405 0.09321 0.0
H876 H 0.35273 0.34042 0.14088 0.0
H877 H 0.3674 0.29041 0.0647 0.0
H878 H 0.37473 0.28614 0.02061 0.0
H879 H 0.46247 0.33757 0.02579 0.0
H880 H 0.45547 0.34257 0.06989 0.0
H881 H 0.4703 0.24319 0.19482 0.0
H882 H 0.43106 0.25644 0.16399 0.0
H883 H 0.48305 0.34149 0.14663 0.0
H884 H 0.52153 0.3294 0.17855 0.0
H885 H 0.45325 0.30135 0.10478 0.0
H886 H 0.43127 0.35645 0.18117 0.0
H887 H 0.42403 0.35647 0.22542 0.0
H888 H 0.34797 0.28919 0.21851 0.0
H889 H 0.35517 0.28839 0.17422 0.0
C890 C 0.3353 0.38884 0.06578 0.0
C891 C 0.30351 0.38374 0.07236 0.0
C892 C 0.3595 0.37073 0.07622 0.0
C893 C 0.35224 0.34655 0.09285 0.0
C894 C 0.3202 0.33982 0.0978 0.0
C895 C 0.29609 0.35847 0.08788 0.0
C896 C 0.3778 0.33144 0.10747 0.0
C897 C 0.37431 0.33125 0.13275 0.0
C898 C 0.40645 0.31996 0.09717 0.0
C899 C 0.41077 0.31707 0.07062 0.0
C900 C 0.38814 0.30103 0.05643 0.0
C901 C 0.39226 0.29844 0.03143 0.0
C902 C 0.41901 0.31163 0.0204 0.0
C903 C 0.44175 0.32739 0.03436 0.0
C904 C 0.43774 0.33007 0.05937 0.0
C905 C 0.47319 0.26498 0.18483 0.0
C906 C 0.49816 0.28607 0.19002 0.0
C907 C 0.45111 0.27213 0.16681 0.0
C908 C 0.4541 0.30004 0.15327 0.0
C909 C 0.48045 0.31979 0.15694 0.0
C910 C 0.50229 0.3129 0.17523 0.0
C911 C 0.42771 0.31064 0.13767 0.0
C912 C 0.43125 0.31011 0.11248 0.0
C913 C 0.39883 0.32101 0.14791 0.0
C914 C 0.39399 0.32209 0.17445 0.0
C915 C 0.41318 0.34147 0.18912 0.0
C916 C 0.40906 0.34165 0.2142 0.0
C917 C 0.38562 0.32276 0.22479 0.0
C918 C 0.36616 0.30376 0.21029 0.0
C919 C 0.37023 0.30345 0.1852 0.0
H920 H 0.38249 0.32291 0.24421 0.0
H921 H 0.42216 0.3096 0.00104 0.0
H922 H 0.60113 0.34182 0.29499 0.0
H923 H 0.63145 0.38639 0.31156 0.0
H924 H 0.6656 0.32647 0.36914 0.0
H925 H 0.63552 0.28195 0.35277 0.0
H926 H 0.61769 0.41028 0.35567 0.0
H927 H 0.73558 0.354 0.39034 0.0
H928 H 0.77523 0.3149 0.37662 0.0
H929 H 0.74936 0.33245 0.30275 0.0
H930 H 0.70987 0.372 0.31598 0.0
H931 H 0.67505 0.46722 0.46699 0.0
H932 H 0.66123 0.43256 0.43303 0.0
H933 H 0.72387 0.48565 0.38653 0.0
H934 H 0.73744 0.52089 0.42054 0.0
H935 H 0.72884 0.41415 0.38533 0.0
H936 H 0.65547 0.49989 0.3756 0.0
H937 H 0.61578 0.53907 0.38913 0.0
H938 H 0.55336 0.46375 0.41084 0.0
H939 H 0.59291 0.42409 0.3978 0.0
C940 C 0.61588 0.33787 0.31075 0.0
C941 C 0.61566 0.30843 0.32272 0.0
C942 C 0.63308 0.36341 0.32024 0.0
C943 C 0.65075 0.35976 0.34158 0.0
C944 C 0.65243 0.32977 0.35251 0.0
C945 C 0.63506 0.30435 0.34318 0.0
C946 C 0.66364 0.38782 0.35445 0.0
C947 C 0.64213 0.41137 0.36181 0.0
C948 C 0.69559 0.38937 0.36233 0.0
C949 C 0.71962 0.36589 0.35419 0.0
C950 C 0.73848 0.34969 0.37116 0.0
C951 C 0.7609 0.32739 0.36347 0.0
C952 C 0.76477 0.32115 0.33884 0.0
C953 C 0.74627 0.33724 0.32184 0.0
C954 C 0.72382 0.35956 0.32943 0.0
C955 C 0.68607 0.47131 0.44959 0.0
C956 C 0.70757 0.4964 0.44636 0.0
C957 C 0.67805 0.45166 0.43021 0.0
C958 C 0.6916 0.45661 0.40737 0.0
C959 C 0.71328 0.4815 0.40409 0.0
C960 C 0.72089 0.50158 0.42342 0.0
C961 C 0.68257 0.43567 0.38705 0.0
C962 C 0.70467 0.4134 0.37857 0.0
C963 C 0.65119 0.43528 0.37804 0.0
C964 C 0.62727 0.45902 0.38587 0.0
C965 C 0.6334 0.49168 0.38346 0.0
C966 C 0.61091 0.51397 0.391 0.0
C967 C 0.58209 0.50391 0.40088 0.0
C968 C 0.5757 0.47151 0.4032 0.0
C969 C 0.59813 0.44911 0.3957 0.0
H970 H 0.56469 0.52121 0.4067 0.0
H971 H 0.78213 0.30387 0.33292 0.0
H972 H 0.46142 0.68949 0.67167 0.0
H973 H 0.49673 0.67637 0.63785 0.0
H974 H 0.57469 0.72164 0.67505 0.0
H975 H 0.53906 0.73678 0.70774 0.0
H976 H 0.58131 0.73183 0.62979 0.0
H977 H 0.55876 0.63819 0.6777 0.0
H978 H 0.52432 0.59766 0.69633 0.0
H979 H 0.48909 0.57124 0.62628 0.0
H980 H 0.52309 0.6119 0.60727 0.0
H981 H 0.71642 0.63691 0.60536 0.0
H982 H 0.67114 0.66759 0.61997 0.0
H983 H 0.6125 0.62798 0.56359 0.0
H984 H 0.65779 0.59733 0.54868 0.0
H985 H 0.58976 0.61729 0.61009 0.0
H986 H 0.62493 0.70515 0.56301 0.0
H987 H 0.66357 0.7438 0.5471 0.0
H988 H 0.67988 0.77933 0.61881 0.0
H989 H 0.64168 0.74059 0.63522 0.0
C990 C 0.48604 0.69686 0.67243 0.0
C991 C 0.49791 0.71275 0.69284 0.0
C992 C 0.50622 0.68925 0.65318 0.0
C993 C 0.53865 0.69712 0.65421 0.0
C994 C 0.54992 0.71486 0.67392 0.0
C995 C 0.52966 0.72294 0.69287 0.0
C996 C 0.5615 0.68532 0.63581 0.0
C997 C 0.58318 0.70677 0.6255 0.0
C998 C 0.56356 0.65272 0.62971 0.0
C999 C 0.54311 0.62833 0.64111 0.0
C1000 C 0.54349 0.62388 0.6663 0.0
C1001 C 0.52408 0.60087 0.67692 0.0
C1002 C 0.50444 0.58196 0.6625 0.0
C1003 C 0.50425 0.58596 0.63743 0.0
C1004 C 0.52357 0.60898 0.62672 0.0
C1005 C 0.69412 0.63533 0.59567 0.0
C1006 C 0.69062 0.61446 0.57601 0.0
C1007 C 0.66829 0.65301 0.60397 0.0
C1008 C 0.6385 0.65003 0.59285 0.0
C1009 C 0.63535 0.63065 0.57236 0.0
C1010 C 0.66129 0.61323 0.56384 0.0
C1011 C 0.61009 0.66364 0.60472 0.0
C1012 C 0.58739 0.64246 0.61386 0.0
C1013 C 0.60761 0.69632 0.61016 0.0
C1014 C 0.63051 0.71981 0.60036 0.0
C1015 C 0.63691 0.72104 0.57542 0.0
C1016 C 0.65871 0.743 0.56631 0.0
C1017 C 0.67419 0.76398 0.58194 0.0
C1018 C 0.66786 0.76307 0.60672 0.0
C1019 C 0.64609 0.74115 0.61593 0.0
H1020 H 0.69107 0.78095 0.57485 0.0
H1021 H 0.48944 0.56415 0.67076 0.0
H1022 H 0.30352 0.54696 0.96668 0.0
H1023 H 0.31146 0.58375 0.93343 0.0
H1024 H 0.27839 0.5131 0.88294 0.0
H1025 H 0.26874 0.47627 0.9166 0.0
H1026 H 0.33847 0.54446 0.87129 0.0
H1027 H 0.23116 0.57012 0.88945 0.0
H1028 H 0.18571 0.58193 0.91605 0.0
H1029 H 0.2329 0.66563 0.94199 0.0
H1030 H 0.27886 0.65407 0.91584 0.0
H1031 H 0.38163 0.6716 0.79394 0.0
H1032 H 0.34588 0.63016 0.80894 0.0
H1033 H 0.34301 0.67635 0.87858 0.0
H1034 H 0.37743 0.71804 0.86364 0.0
H1035 H 0.28791 0.65082 0.87 0.0
H1036 H 0.39888 0.61619 0.86323 0.0
H1037 H 0.44771 0.60431 0.84028 0.0
H1038 H 0.39633 0.53801 0.79609 0.0
H1039 H 0.34712 0.54979 0.81866 0.0
C1040 C 0.29678 0.53948 0.94871 0.0
C1041 C 0.28427 0.50908 0.94444 0.0
C1042 C 0.30172 0.56046 0.92964 0.0
C1043 C 0.29488 0.55132 0.90584 0.0
C1044 C 0.2834 0.52066 0.90127 0.0
C1045 C 0.278 0.49971 0.92047 0.0
C1046 C 0.30137 0.57381 0.88596 0.0
C1047 C 0.32683 0.5674 0.87042 0.0
C1048 C 0.28634 0.60378 0.88516 0.0
C1049 C 0.25852 0.61116 0.90069 0.0
C1050 C 0.23193 0.59096 0.90092 0.0
C1051 C 0.20606 0.59761 0.91592 0.0
C1052 C 0.20642 0.6245 0.93071 0.0
C1053 C 0.23263 0.64482 0.9305 0.0
C1054 C 0.25858 0.63826 0.91555 0.0
C1055 C 0.37275 0.67329 0.81227 0.0
C1056 C 0.38287 0.69786 0.82772 0.0
C1057 C 0.35243 0.64951 0.82084 0.0
C1058 C 0.3423 0.64976 0.84505 0.0
C1059 C 0.35053 0.67553 0.85985 0.0
C1060 C 0.37048 0.69933 0.85129 0.0
C1061 C 0.32612 0.62207 0.85616 0.0
C1062 C 0.29879 0.62748 0.87011 0.0
C1063 C 0.33977 0.59132 0.85582 0.0
C1064 C 0.36932 0.58415 0.84239 0.0
C1065 C 0.398 0.59922 0.84853 0.0
C1066 C 0.42572 0.5925 0.8356 0.0
C1067 C 0.42509 0.5705 0.81668 0.0
C1068 C 0.39676 0.5551 0.81071 0.0
C1069 C 0.36896 0.56179 0.82355 0.0
H1070 H 0.44658 0.56532 0.8067 0.0
H1071 H 0.18638 0.6296 0.94232 0.0
H1072 H 0.33346 0.60464 0.45315 0.0
H1073 H 0.3784 0.63415 0.43624 0.0
H1074 H 0.3225 0.6574 0.37348 0.0
H1075 H 0.27746 0.62854 0.39016 0.0
H1076 H 0.38935 0.61036 0.37719 0.0
H1077 H 0.33412 0.71465 0.38693 0.0
H1078 H 0.31041 0.75579 0.41304 0.0
H1079 H 0.39702 0.7618 0.4538 0.0
H1080 H 0.42104 0.72032 0.42808 0.0
H1081 H 0.46268 0.68098 0.27975 0.0
H1082 H 0.42602 0.66642 0.31178 0.0
H1083 H 0.4893 0.70681 0.36489 0.0
H1084 H 0.52587 0.72277 0.33241 0.0
H1085 H 0.42685 0.72195 0.37435 0.0
H1086 H 0.48631 0.62838 0.35948 0.0
H1087 H 0.51203 0.58631 0.33546 0.0
H1088 H 0.42128 0.5571 0.30793 0.0
H1089 H 0.39502 0.5993 0.3315 0.0
C1090 C 0.3303 0.61703 0.43618 0.0
C1091 C 0.302 0.61379 0.42282 0.0
C1092 C 0.35601 0.63391 0.42659 0.0
C1093 C 0.35357 0.648 0.40373 0.0
C1094 C 0.3246 0.647 0.39132 0.0
C1095 C 0.29893 0.63031 0.40086 0.0
C1096 C 0.38232 0.6578 0.39052 0.0
C1097 C 0.39764 0.63473 0.37652 0.0
C1098 C 0.39364 0.6893 0.39049 0.0
C1099 C 0.37915 0.71408 0.40587 0.0
C1100 C 0.34793 0.72445 0.40166 0.0
C1101 C 0.33448 0.74791 0.41632 0.0
C1102 C 0.35214 0.76131 0.43514 0.0
C1103 C 0.38333 0.75134 0.43927 0.0
C1104 C 0.39686 0.72787 0.42466 0.0
C1105 C 0.46853 0.68753 0.29813 0.0
C1106 C 0.49676 0.70375 0.30352 0.0
C1107 C 0.44776 0.67872 0.3165 0.0
C1108 C 0.45505 0.68531 0.34074 0.0
C1109 C 0.48324 0.70153 0.34629 0.0
C1110 C 0.50412 0.71046 0.32778 0.0
C1111 C 0.43301 0.67471 0.35998 0.0
C1112 C 0.41905 0.69744 0.37525 0.0
C1113 C 0.42306 0.64268 0.36139 0.0
C1114 C 0.43871 0.61715 0.34719 0.0
C1115 C 0.47184 0.61313 0.34817 0.0
C1116 C 0.48652 0.58923 0.33466 0.0
C1117 C 0.46831 0.56907 0.32016 0.0
C1118 C 0.43536 0.57274 0.31917 0.0
C1119 C 0.42056 0.59662 0.33264 0.0
H1120 H 0.47971 0.55058 0.30971 0.0
H1121 H 0.3417 0.77948 0.44646 0.0
H1122 H 0.30304 0.44794 0.5289 0.0
H1123 H 0.31043 0.4109 0.56208 0.0
H1124 H 0.28473 0.48384 0.61315 0.0
H1125 H 0.27585 0.52106 0.57965 0.0
H1126 H 0.34201 0.45043 0.62388 0.0
H1127 H 0.23366 0.42746 0.60661 0.0
H1128 H 0.18768 0.41626 0.58037 0.0
H1129 H 0.2323 0.33063 0.55549 0.0
H1130 H 0.27878 0.34155 0.58129 0.0
H1131 H 0.38152 0.32638 0.70413 0.0
H1132 H 0.34639 0.36754 0.68796 0.0
H1133 H 0.3421 0.31765 0.61987 0.0
H1134 H 0.3759 0.27619 0.63601 0.0
H1135 H 0.28806 0.34582 0.6272 0.0
H1136 H 0.39987 0.3764 0.63305 0.0
H1137 H 0.44945 0.38731 0.65536 0.0
H1138 H 0.40146 0.45774 0.69799 0.0
H1139 H 0.3515 0.44694 0.67608 0.0
C1140 C 0.2978 0.45594 0.54702 0.0
C1141 C 0.28768 0.48715 0.55154 0.0
C1142 C 0.30238 0.43477 0.56604 0.0
C1143 C 0.29744 0.44447 0.58999 0.0
C1144 C 0.28823 0.47585 0.59473 0.0
C1145 C 0.28327 0.49702 0.57561 0.0
C1146 C 0.30382 0.42189 0.60986 0.0
C1147 C 0.32965 0.42789 0.62516 0.0
C1148 C 0.28793 0.39239 0.61117 0.0
C1149 C 0.25977 0.3854 0.59588 0.0
C1150 C 0.23375 0.40632 0.59546 0.0
C1151 C 0.20758 0.40001 0.58066 0.0
C1152 C 0.20707 0.37276 0.56626 0.0
C1153 C 0.23271 0.35172 0.56667 0.0
C1154 C 0.25895 0.35793 0.58142 0.0
C1155 C 0.37238 0.32377 0.68594 0.0
C1156 C 0.38208 0.2983 0.67121 0.0
C1157 C 0.35242 0.34741 0.67669 0.0
C1158 C 0.34226 0.34611 0.6525 0.0
C1159 C 0.34973 0.31932 0.63854 0.0
C1160 C 0.3693 0.29564 0.6478 0.0
C1161 C 0.32719 0.37378 0.64049 0.0
C1162 C 0.29971 0.36876 0.62661 0.0
C1163 C 0.34194 0.40402 0.64012 0.0
C1164 C 0.37193 0.41059 0.65319 0.0
C1165 C 0.39989 0.39407 0.64729 0.0
C1166 C 0.42804 0.40024 0.65984 0.0
C1167 C 0.42858 0.42313 0.67814 0.0
C1168 C 0.40098 0.43996 0.68386 0.0
C1169 C 0.37275 0.43382 0.6714 0.0
H1170 H 0.45039 0.42788 0.68784 0.0
H1171 H 0.18681 0.36793 0.5548 0.0
H1172 H 0.65244 0.40888 0.94107 0.0
H1173 H 0.61046 0.37686 0.9231 0.0
H1174 H 0.68056 0.32361 0.883 0.0
H1175 H 0.72243 0.35733 0.89973 0.0
H1176 H 0.63954 0.33982 0.85378 0.0
H1177 H 0.6302 0.29128 0.93081 0.0
H1178 H 0.62535 0.28759 0.97513 0.0
H1179 H 0.53595 0.33642 0.97227 0.0
H1180 H 0.54045 0.34082 0.92795 0.0
H1181 H 0.52271 0.24072 0.80269 0.0
H1182 H 0.56156 0.25341 0.83425 0.0
H1183 H 0.50978 0.33875 0.85146 0.0
H1184 H 0.47157 0.32683 0.81916 0.0
H1185 H 0.54193 0.29925 0.89338 0.0
H1186 H 0.55963 0.35328 0.81538 0.0
H1187 H 0.56386 0.35066 0.77094 0.0
H1188 H 0.64002 0.2834 0.77708 0.0
H1189 H 0.63575 0.28516 0.82159 0.0
C1190 C 0.65893 0.38981 0.92888 0.0
C1191 C 0.69063 0.3856 0.92171 0.0
C1192 C 0.63487 0.37131 0.91868 0.0
C1193 C 0.64216 0.34748 0.90174 0.0
C1194 C 0.67418 0.34192 0.89587 0.0
C1195 C 0.69814 0.36106 0.90552 0.0
C1196 C 0.61639 0.33121 0.88805 0.0
C1197 C 0.61864 0.33037 0.86269 0.0
C1198 C 0.58863 0.31914 0.89935 0.0
C1199 C 0.5858 0.31658 0.92603 0.0
C1200 C 0.60962 0.30145 0.93964 0.0
C1201 C 0.60691 0.29919 0.96476 0.0
C1202 C 0.58039 0.31182 0.97651 0.0
C1203 C 0.55649 0.32666 0.96314 0.0
C1204 C 0.55909 0.32901 0.93801 0.0
C1205 C 0.51964 0.26216 0.81325 0.0
C1206 C 0.49515 0.28362 0.80786 0.0
C1207 C 0.54147 0.26906 0.83149 0.0
C1208 C 0.53858 0.29712 0.84494 0.0
C1209 C 0.51227 0.31695 0.84124 0.0
C1210 C 0.49064 0.31024 0.82275 0.0
C1211 C 0.56555 0.30836 0.85967 0.0
C1212 C 0.56331 0.30834 0.88492 0.0
C1213 C 0.59365 0.31907 0.84844 0.0
C1214 C 0.59718 0.31914 0.82176 0.0
C1215 C 0.57716 0.33782 0.80724 0.0
C1216 C 0.57956 0.33648 0.78205 0.0
C1217 C 0.60215 0.31682 0.77119 0.0
C1218 C 0.6225 0.29859 0.78551 0.0
C1219 C 0.62011 0.29975 0.81072 0.0
H1220 H 0.60391 0.31576 0.75168 0.0
H1221 H 0.57834 0.31004 0.99596 0.0
H1222 H 0.63448 0.72964 0.14179 0.0
H1223 H 0.66353 0.68646 0.12255 0.0
H1224 H 0.64181 0.62514 0.18264 0.0
H1225 H 0.61256 0.66827 0.20217 0.0
H1226 H 0.70274 0.61226 0.15858 0.0
H1227 H 0.59085 0.62579 0.14211 0.0
H1228 H 0.5436 0.65688 0.13058 0.0
H1229 H 0.58535 0.67681 0.06142 0.0
H1230 H 0.63326 0.64673 0.07286 0.0
H1231 H 0.65907 0.48457 0.05963 0.0
H1232 H 0.64561 0.52293 0.09134 0.0
H1233 H 0.73823 0.56574 0.08418 0.0
H1234 H 0.75204 0.52671 0.05302 0.0
H1235 H 0.64084 0.58507 0.08501 0.0
H1236 H 0.75858 0.60106 0.13819 0.0
H1237 H 0.80459 0.56895 0.15097 0.0
H1238 H 0.7475 0.48458 0.14846 0.0
H1239 H 0.70106 0.51621 0.13601 0.0
C1240 C 0.63672 0.70734 0.15137 0.0
C1241 C 0.6205 0.70216 0.17324 0.0
C1242 C 0.65343 0.6827 0.14034 0.0
C1243 C 0.65417 0.65253 0.15097 0.0
C1244 C 0.64135 0.64829 0.17414 0.0
C1245 C 0.62458 0.67299 0.18524 0.0
C1246 C 0.6629 0.62466 0.13613 0.0
C1247 C 0.68936 0.60626 0.14245 0.0
C1248 C 0.64483 0.61649 0.11546 0.0
C1249 C 0.61582 0.63431 0.10846 0.0
C1250 C 0.59011 0.63712 0.12455 0.0
C1251 C 0.56321 0.65458 0.11804 0.0
C1252 C 0.56154 0.66897 0.09533 0.0
C1253 C 0.58674 0.66585 0.07907 0.0
C1254 C 0.61379 0.64863 0.08557 0.0
C1255 C 0.67665 0.50192 0.06511 0.0
C1256 C 0.70621 0.50339 0.0535 0.0
C1257 C 0.66895 0.52383 0.08313 0.0
C1258 C 0.69086 0.54727 0.09007 0.0
C1259 C 0.721 0.54778 0.07923 0.0
C1260 C 0.72869 0.52583 0.0612 0.0
C1261 C 0.68118 0.57272 0.10707 0.0
C1262 C 0.65436 0.59084 0.10113 0.0
C1263 C 0.69872 0.58023 0.12818 0.0
C1264 C 0.72641 0.56101 0.13594 0.0
C1265 C 0.75581 0.57567 0.14046 0.0
C1266 C 0.78197 0.55755 0.14763 0.0
C1267 C 0.77899 0.52473 0.15045 0.0
C1268 C 0.74981 0.50998 0.14618 0.0
C1269 C 0.72357 0.528 0.13903 0.0
H1270 H 0.79928 0.51075 0.15599 0.0
H1271 H 0.54066 0.68242 0.0903 0.0
loop_
_geom_bond_atom_site_label_1
_geom_bond_atom_site_label_2
_geom_bond_distance
_geom_bond_site_symmetry_2
_ccdc_geom_bond_type
Co0 O3 1.970 . S
Co0 N17 1.989 . S
Co0 O25 1.967 . S
Co0 O32 1.920 . S
Co1 O4 1.966 . S
Co1 N10 2.022 1_554 S
Co1 N18 1.993 . S
Co1 O26 1.941 . S
C2 O3 1.258 . S
C2 O4 1.263 . S
O3 Co0 1.970 . S
O3 C2 1.258 . S
O4 Co1 1.966 . S
O4 C2 1.263 . S
C5 O6 1.235 . S
C5 O32 1.289 . S
O6 C5 1.235 . S
C7 C9 1.400 . S
C7 N10 1.351 . S
C7 C12 1.519 . S
C8 C9 1.387 . S
C8 N11 1.341 . S
C9 C7 1.400 . S
C9 C8 1.387 . S
N10 Co1 2.022 1_556 S
N10 C7 1.351 . S
N10 N11 1.365 . S
N11 C8 1.341 . S
N11 N10 1.365 . S
N11 H31 0.862 . S
C12 C7 1.519 . S
C12 H13 0.924 1_556 S
C12 H14 0.970 . S
C12 H15 0.971 . S
H13 C12 0.924 1_554 S
H14 C12 0.970 . S
H15 C12 0.971 . S
C16 N17 1.342 . S
C16 C20 1.401 . S
C16 C21 1.499 . S
N17 Co0 1.989 . S
N17 C16 1.342 . S
N17 N18 1.388 . S
N18 Co1 1.993 . S
N18 N17 1.388 . S
N18 C19 1.346 . S
C19 N18 1.346 . S
C19 C20 1.396 . S
C19 C29 1.510 1_554 S
C20 C16 1.401 . S
C20 C19 1.396 . S
C21 C16 1.499 . S
C21 H22 0.959 . S
C21 H23 0.960 . S
C21 H24 0.961 . S
H22 C21 0.959 . S
H23 C21 0.960 . S
H24 C21 0.961 . S
O25 Co0 1.967 . S
O25 C33 1.258 . S
O26 Co1 1.941 . S
O26 C33 1.266 . S
H27 C29 0.959 . S
H28 C29 0.961 . S
C29 C19 1.510 1_556 S
C29 H27 0.959 . S
C29 H28 0.961 . S
C29 H30 0.960 . S
H30 C29 0.960 . S
H31 N11 0.862 . S
O32 Co0 1.920 . S
O32 C5 1.289 . S
C33 O25 1.258 . S
C33 O26 1.266 . S
Co34 O37 1.970 . S
Co34 N51 1.989 . S
Co34 O59 1.967 . S
Co34 O66 1.920 . S
Co35 O38 1.966 . S
Co35 N44 2.022 . S
Co35 N52 1.993 . S
Co35 O60 1.941 . S
C36 O37 1.258 . S
C36 O38 1.263 . S
O37 Co34 1.970 . S
O37 C36 1.258 . S
O38 Co35 1.966 . S
O38 C36 1.263 . S
C39 O40 1.235 . S
C39 O66 1.289 . S
O40 C39 1.235 . S
C41 C43 1.400 . S
C41 N44 1.351 . S
C41 C46 1.501 . S
C42 C43 1.387 . S
C42 N45 1.341 . S
C43 C41 1.400 . S
C43 C42 1.387 . S
N44 Co35 2.022 . S
N44 C41 1.351 . S
N44 N45 1.365 . S
N45 C42 1.341 . S
N45 N44 1.365 . S
N45 H65 0.862 . S
C46 C41 1.501 . S
C46 H47 0.961 . S
C46 H48 0.961 . S
C46 H49 0.960 . S
H47 C46 0.961 . S
H48 C46 0.961 . S
H49 C46 0.960 . S
C50 N51 1.342 . S
C50 C54 1.401 . S
C50 C55 1.499 . S
N51 Co34 1.989 . S
N51 C50 1.342 . S
N51 N52 1.388 . S
N52 Co35 1.993 . S
N52 N51 1.388 . S
N52 C53 1.346 . S
C53 N52 1.346 . S
C53 C54 1.396 . S
C53 C63 1.510 . S
C54 C50 1.401 . S
C54 C53 1.396 . S
C55 C50 1.499 . S
C55 H56 0.959 . S
C55 H57 0.960 . S
C55 H58 0.961 . S
H56 C55 0.959 . S
H57 C55 0.960 . S
H58 C55 0.961 . S
O59 Co34 1.967 . S
O59 C67 1.258 . S
O60 Co35 1.941 . S
O60 C67 1.266 . S
H61 C63 0.959 . S
H62 C63 0.961 . S
C63 C53 1.510 . S
C63 H61 0.959 . S
C63 H62 0.961 . S
C63 H64 0.960 . S
H64 C63 0.960 . S
H65 N45 0.862 . S
O66 Co34 1.920 . S
O66 C39 1.289 . S
C67 O59 1.258 . S
C67 O60 1.266 . S
Co68 O71 1.970 . S
Co68 N85 1.989 . S
Co68 O93 1.967 . S
Co68 O100 1.920 . S
Co69 O72 1.966 . S
Co69 N78 2.022 . S
Co69 N86 1.993 . S
Co69 O94 1.941 . S
C70 O71 1.258 . S
C70 O72 1.263 . S
O71 Co68 1.970 . S
O71 C70 1.258 . S
O72 Co69 1.966 . S
O72 C70 1.263 . S
C73 O74 1.235 . S
C73 O100 1.289 . S
O74 C73 1.235 . S
C75 C77 1.400 . S
C75 N78 1.351 . S
C75 C80 1.501 . S
C76 C77 1.387 . S
C76 N79 1.341 . S
C77 C75 1.400 . S
C77 C76 1.387 . S
N78 Co69 2.022 . S
N78 C75 1.351 . S
N78 N79 1.365 . S
N79 C76 1.341 . S
N79 N78 1.365 . S
N79 H99 0.862 . S
C80 C75 1.501 . S
C80 H81 0.961 . S
C80 H82 0.961 . S
C80 H83 0.960 . S
H81 C80 0.961 . S
H82 C80 0.961 . S
H83 C80 0.960 . S
C84 N85 1.342 . S
C84 C88 1.401 . S
C84 C89 1.499 . S
N85 Co68 1.989 . S
N85 C84 1.342 . S
N85 N86 1.388 . S
N86 Co69 1.993 . S
N86 N85 1.388 . S
N86 C87 1.346 . S
C87 N86 1.346 . S
C87 C88 1.396 . S
C87 C97 1.510 . S
C88 C84 1.401 . S
C88 C87 1.396 . S
C89 C84 1.499 . S
C89 H90 0.959 . S
C89 H91 0.960 . S
C89 H92 0.961 . S
H90 C89 0.959 . S
H91 C89 0.960 . S
H92 C89 0.961 . S
O93 Co68 1.967 . S
O93 C101 1.258 . S
O94 Co69 1.941 . S
O94 C101 1.266 . S
H95 C97 0.959 . S
H96 C97 0.961 . S
C97 C87 1.510 . S
C97 H95 0.959 . S
C97 H96 0.961 . S
C97 H98 0.960 . S
H98 C97 0.960 . S
H99 N79 0.862 . S
O100 Co68 1.920 . S
O100 C73 1.289 . S
C101 O93 1.258 . S
C101 O94 1.266 . S
Co102 O105 1.970 . S
Co102 N119 1.989 . S
Co102 O127 1.967 . S
Co102 O134 1.920 . S
Co103 O106 1.966 . S
Co103 N112 2.022 . S
Co103 N120 1.993 . S
Co103 O128 1.941 . S
C104 O105 1.258 . S
C104 O106 1.263 . S
O105 Co102 1.970 . S
O105 C104 1.258 . S
O106 Co103 1.966 . S
O106 C104 1.263 . S
C107 O108 1.235 . S
C107 O134 1.289 . S
O108 C107 1.235 . S
C109 C111 1.400 . S
C109 N112 1.351 . S
C109 C114 1.501 . S
C110 C111 1.387 . S
C110 N113 1.341 . S
C111 C109 1.400 . S
C111 C110 1.387 . S
N112 Co103 2.022 . S
N112 C109 1.351 . S
N112 N113 1.365 . S
N113 C110 1.341 . S
N113 N112 1.365 . S
N113 H133 0.862 . S
C114 C109 1.501 . S
C114 H115 0.961 . S
C114 H116 0.961 . S
C114 H117 0.960 . S
H115 C114 0.961 . S
H116 C114 0.961 . S
H117 C114 0.960 . S
C118 N119 1.342 . S
C118 C122 1.401 . S
C118 C123 1.499 . S
N119 Co102 1.989 . S
N119 C118 1.342 . S
N119 N120 1.388 . S
N120 Co103 1.993 . S
N120 N119 1.388 . S
N120 C121 1.346 . S
C121 N120 1.346 . S
C121 C122 1.396 . S
C121 C131 1.510 . S
C122 C118 1.401 . S
C122 C121 1.396 . S
C123 C118 1.499 . S
C123 H124 0.959 . S
C123 H125 0.960 . S
C123 H126 0.961 . S
H124 C123 0.959 . S
H125 C123 0.960 . S
H126 C123 0.961 . S
O127 Co102 1.967 . S
O127 C135 1.258 . S
O128 Co103 1.941 . S
O128 C135 1.266 . S
H129 C131 0.959 . S
H130 C131 0.961 . S
C131 C121 1.510 . S
C131 H129 0.959 . S
C131 H130 0.961 . S
C131 H132 0.960 . S
H132 C131 0.960 . S
H133 N113 0.862 . S
O134 Co102 1.920 . S
O134 C107 1.289 . S
C135 O127 1.258 . S
C135 O128 1.266 . S
Co136 O139 1.970 . S
Co136 N153 1.989 . S
Co136 O161 1.967 . S
Co136 O168 1.920 . S
Co137 O140 1.966 . S
Co137 N146 2.022 . S
Co137 N154 1.993 . S
Co137 O162 1.941 . S
C138 O139 1.258 . S
C138 O140 1.263 . S
O139 Co136 1.970 . S
O139 C138 1.258 . S
O140 Co137 1.966 . S
O140 C138 1.263 . S
C141 O142 1.235 . S
C141 O168 1.289 . S
O142 C141 1.235 . S
C143 C145 1.400 . S
C143 N146 1.351 . S
C143 C148 1.501 . S
C144 C145 1.387 . S
C144 N147 1.341 . S
C145 C143 1.400 . S
C145 C144 1.387 . S
N146 Co137 2.022 . S
N146 C143 1.351 . S
N146 N147 1.365 . S
N147 C144 1.341 . S
N147 N146 1.365 . S
N147 H167 0.862 . S
C148 C143 1.501 . S
C148 H149 0.961 . S
C148 H150 0.961 . S
C148 H151 0.960 . S
H149 C148 0.961 . S
H150 C148 0.961 . S
H151 C148 0.960 . S
C152 N153 1.342 . S
C152 C156 1.401 . S
C152 C157 1.499 . S
N153 Co136 1.989 . S
N153 C152 1.342 . S
N153 N154 1.388 . S
N154 Co137 1.993 . S
N154 N153 1.388 . S
N154 C155 1.346 . S
C155 N154 1.346 . S
C155 C156 1.396 . S
C155 C165 1.510 . S
C156 C152 1.401 . S
C156 C155 1.396 . S
C157 C152 1.499 . S
C157 H158 0.959 . S
C157 H159 0.960 . S
C157 H160 0.961 . S
H158 C157 0.959 . S
H159 C157 0.960 . S
H160 C157 0.961 . S
O161 Co136 1.967 . S
O161 C169 1.258 . S
O162 Co137 1.941 . S
O162 C169 1.266 . S
H163 C165 0.959 . S
H164 C165 0.961 . S
C165 C155 1.510 . S
C165 H163 0.959 . S
C165 H164 0.961 . S
C165 H166 0.960 . S
H166 C165 0.960 . S
H167 N147 0.862 . S
O168 Co136 1.920 . S
O168 C141 1.289 . S
C169 O161 1.258 . S
C169 O162 1.266 . S
Co170 O173 1.970 . S
Co170 N187 1.989 . S
Co170 O195 1.967 . S
Co170 O202 1.920 . S
Co171 O174 1.966 . S
Co171 N180 2.022 . S
Co171 N188 1.993 . S
Co171 O196 1.941 . S
C172 O173 1.258 . S
C172 O174 1.263 . S
O173 Co170 1.970 . S
O173 C172 1.258 . S
O174 Co171 1.966 . S
O174 C172 1.263 . S
C175 O176 1.235 . S
C175 O202 1.289 . S
O176 C175 1.235 . S
C177 C179 1.400 . S
C177 N180 1.351 . S
C177 C182 1.501 . S
C178 C179 1.387 . S
C178 N181 1.341 . S
C179 C177 1.400 . S
C179 C178 1.387 . S
N180 Co171 2.022 . S
N180 C177 1.351 . S
N180 N181 1.365 . S
N181 C178 1.341 . S
N181 N180 1.365 . S
N181 H201 0.862 . S
C182 C177 1.501 . S
C182 H183 0.961 . S
C182 H184 0.961 . S
C182 H185 0.960 . S
H183 C182 0.961 . S
H184 C182 0.961 . S
H185 C182 0.960 . S
C186 N187 1.342 . S
C186 C190 1.401 . S
C186 C191 1.499 . S
N187 Co170 1.989 . S
N187 C186 1.342 . S
N187 N188 1.388 . S
N188 Co171 1.993 . S
N188 N187 1.388 . S
N188 C189 1.346 . S
C189 N188 1.346 . S
C189 C190 1.396 . S
C189 C199 1.510 . S
C190 C186 1.401 . S
C190 C189 1.396 . S
C191 C186 1.499 . S
C191 H192 0.959 . S
C191 H193 0.960 . S
C191 H194 0.961 . S
H192 C191 0.959 . S
H193 C191 0.960 . S
H194 C191 0.961 . S
O195 Co170 1.967 . S
O195 C203 1.258 . S
O196 Co171 1.941 . S
O196 C203 1.266 . S
H197 C199 0.959 . S
H198 C199 0.961 . S
C199 C189 1.510 . S
C199 H197 0.959 . S
C199 H198 0.961 . S
C199 H200 0.960 . S
H200 C199 0.960 . S
H201 N181 0.862 . S
O202 Co170 1.920 . S
O202 C175 1.289 . S
C203 O195 1.258 . S
C203 O196 1.266 . S
Co204 O207 1.970 . S
Co204 N221 1.989 . S
Co204 O229 1.967 . S
Co204 O236 1.920 . S
Co205 O208 1.966 . S
Co205 N214 2.022 1_556 S
Co205 N222 1.993 . S
Co205 O230 1.941 . S
C206 O207 1.258 . S
C206 O208 1.263 . S
O207 Co204 1.970 . S
O207 C206 1.258 . S
O208 Co205 1.966 . S
O208 C206 1.263 . S
C209 O210 1.235 . S
C209 O236 1.289 . S
O210 C209 1.235 . S
C211 C213 1.400 . S
C211 N214 1.351 . S
C211 C216 1.519 . S
C212 C213 1.387 . S
C212 N215 1.341 . S
C213 C211 1.400 . S
C213 C212 1.387 . S
N214 Co205 2.022 1_554 S
N214 C211 1.351 . S
N214 N215 1.365 . S
N215 C212 1.341 . S
N215 N214 1.365 . S
N215 H235 0.862 . S
C216 C211 1.519 . S
C216 H217 0.924 1_554 S
C216 H218 0.970 . S
C216 H219 0.971 . S
H217 C216 0.924 1_556 S
H218 C216 0.970 . S
H219 C216 0.971 . S
C220 N221 1.342 . S
C220 C224 1.401 . S
C220 C225 1.499 . S
N221 Co204 1.989 . S
N221 C220 1.342 . S
N221 N222 1.388 . S
N222 Co205 1.993 . S
N222 N221 1.388 . S
N222 C223 1.346 . S
C223 N222 1.346 . S
C223 C224 1.396 . S
C223 C233 1.510 1_556 S
C224 C220 1.401 . S
C224 C223 1.396 . S
C225 C220 1.499 . S
C225 H226 0.959 . S
C225 H227 0.960 . S
C225 H228 0.961 . S
H226 C225 0.959 . S
H227 C225 0.960 . S
H228 C225 0.961 . S
O229 Co204 1.967 . S
O229 C237 1.258 . S
O230 Co205 1.941 . S
O230 C237 1.266 . S
H231 C233 0.959 . S
H232 C233 0.961 . S
C233 C223 1.510 1_554 S
C233 H231 0.959 . S
C233 H232 0.961 . S
C233 H234 0.960 . S
H234 C233 0.960 . S
H235 N215 0.862 . S
O236 Co204 1.920 . S
O236 C209 1.289 . S
C237 O229 1.258 . S
C237 O230 1.266 . S
Co238 O241 1.970 . S
Co238 N255 1.989 . S
Co238 O263 1.967 . S
Co238 O270 1.920 . S
Co239 O242 1.966 . S
Co239 N248 2.022 . S
Co239 N256 1.993 . S
Co239 O264 1.941 . S
C240 O241 1.258 . S
C240 O242 1.263 . S
O241 Co238 1.970 . S
O241 C240 1.258 . S
O242 Co239 1.966 . S
O242 C240 1.263 . S
C243 O244 1.235 . S
C243 O270 1.289 . S
O244 C243 1.235 . S
C245 C247 1.400 . S
C245 N248 1.351 . S
C245 C250 1.501 . S
C246 C247 1.387 . S
C246 N249 1.341 . S
C247 C245 1.400 . S
C247 C246 1.387 . S
N248 Co239 2.022 . S
N248 C245 1.351 . S
N248 N249 1.365 . S
N249 C246 1.341 . S
N249 N248 1.365 . S
N249 H269 0.862 . S
C250 C245 1.501 . S
C250 H251 0.961 . S
C250 H252 0.961 . S
C250 H253 0.960 . S
H251 C250 0.961 . S
H252 C250 0.961 . S
H253 C250 0.960 . S
C254 N255 1.342 . S
C254 C258 1.401 . S
C254 C259 1.499 . S
N255 Co238 1.989 . S
N255 C254 1.342 . S
N255 N256 1.388 . S
N256 Co239 1.993 . S
N256 N255 1.388 . S
N256 C257 1.346 . S
C257 N256 1.346 . S
C257 C258 1.396 . S
C257 C267 1.510 . S
C258 C254 1.401 . S
C258 C257 1.396 . S
C259 C254 1.499 . S
C259 H260 0.959 . S
C259 H261 0.960 . S
C259 H262 0.961 . S
H260 C259 0.959 . S
H261 C259 0.960 . S
H262 C259 0.961 . S
O263 Co238 1.967 . S
O263 C271 1.258 . S
O264 Co239 1.941 . S
O264 C271 1.266 . S
H265 C267 0.959 . S
H266 C267 0.961 . S
C267 C257 1.510 . S
C267 H265 0.959 . S
C267 H266 0.961 . S
C267 H268 0.960 . S
H268 C267 0.960 . S
H269 N249 0.862 . S
O270 Co238 1.920 . S
O270 C243 1.289 . S
C271 O263 1.258 . S
C271 O264 1.266 . S
H272 C290 0.951 . S
H273 C292 0.951 . S
H274 C294 0.950 . S
H275 C295 0.950 . S
H276 C297 0.950 . S
H277 C300 0.950 . S
H278 C301 0.950 . S
H279 C303 0.950 . S
H280 C304 0.950 . S
H281 C305 0.951 . S
H282 C307 0.951 . S
H283 C309 0.950 . S
H284 C310 0.950 . S
H285 C312 0.950 . S
H286 C315 0.950 . S
H287 C316 0.950 . S
H288 C318 0.950 . S
H289 C319 0.950 . S
C290 H272 0.951 . S
C290 C291 1.366 . S
C290 C292 1.388 . S
C291 C290 1.366 . S
C291 C295 1.385 . S
C292 H273 0.951 . S
C292 C290 1.388 . S
C292 C293 1.366 . S
C293 C292 1.366 . S
C293 C294 1.414 . S
C293 C296 1.499 . S
C294 H274 0.950 . S
C294 C293 1.414 . S
C294 C295 1.374 . S
C295 H275 0.950 . S
C295 C291 1.385 . S
C295 C294 1.374 . S
C296 C293 1.499 . S
C296 C297 1.373 . S
C296 C298 1.389 . S
C297 H276 0.950 . S
C297 C296 1.373 . S
C297 C313 1.377 . S
C298 C296 1.389 . S
C298 C299 1.524 . S
C298 C312 1.377 . S
C299 C298 1.524 . S
C299 C300 1.397 . S
C299 C304 1.363 . S
C300 H277 0.950 . S
C300 C299 1.397 . S
C300 C301 1.334 . S
C301 H278 0.950 . S
C301 C300 1.334 . S
C301 C302 1.287 . S
C302 C301 1.287 . S
C302 C303 1.524 . S
C302 H321 0.913 . S
C303 H279 0.950 . S
C303 C302 1.524 . S
C303 C304 1.415 . S
C304 H280 0.950 . S
C304 C299 1.363 . S
C304 C303 1.415 . S
C305 H281 0.951 . S
C305 C306 1.366 . S
C305 C307 1.388 . S
C306 C305 1.366 . S
C306 C310 1.385 . S
C307 H282 0.951 . S
C307 C305 1.388 . S
C307 C308 1.366 . S
C308 C307 1.366 . S
C308 C309 1.414 . S
C308 C311 1.499 . S
C309 H283 0.950 . S
C309 C308 1.414 . S
C309 C310 1.374 . S
C310 H284 0.950 . S
C310 C306 1.385 . S
C310 C309 1.374 . S
C311 C308 1.499 . S
C311 C312 1.373 . S
C311 C313 1.389 . S
C312 H285 0.950 . S
C312 C298 1.377 . S
C312 C311 1.373 . S
C313 C297 1.377 . S
C313 C311 1.389 . S
C313 C314 1.524 . S
C314 C313 1.524 . S
C314 C315 1.397 . S
C314 C319 1.363 . S
C315 H286 0.950 . S
C315 C314 1.397 . S
C315 C316 1.334 . S
C316 H287 0.950 . S
C316 C315 1.334 . S
C316 C317 1.287 . S
C317 C316 1.287 . S
C317 C318 1.524 . S
C317 H320 0.999 . S
C318 H288 0.950 . S
C318 C317 1.524 . S
C318 C319 1.415 . S
C319 H289 0.950 . S
C319 C314 1.363 . S
C319 C318 1.415 . S
H320 C317 0.999 . S
H321 C302 0.913 . S
H322 C340 0.951 . S
H323 C342 0.951 . S
H324 C344 0.950 . S
H325 C345 0.950 . S
H326 C347 0.950 . S
H327 C350 0.950 . S
H328 C351 0.950 . S
H329 C353 0.950 . S
H330 C354 0.950 . S
H331 C355 0.951 . S
H332 C357 0.951 . S
H333 C359 0.950 . S
H334 C360 0.950 . S
H335 C362 0.950 . S
H336 C365 0.950 . S
H337 C366 0.950 . S
H338 C368 0.950 . S
H339 C369 0.950 . S
C340 H322 0.951 . S
C340 C341 1.366 . S
C340 C342 1.388 . S
C341 C340 1.366 . S
C341 C345 1.385 . S
C342 H323 0.951 . S
C342 C340 1.388 . S
C342 C343 1.366 . S
C343 C342 1.366 . S
C343 C344 1.414 . S
C343 C346 1.499 . S
C344 H324 0.950 . S
C344 C343 1.414 . S
C344 C345 1.374 . S
C345 H325 0.950 . S
C345 C341 1.385 . S
C345 C344 1.374 . S
C346 C343 1.499 . S
C346 C347 1.373 . S
C346 C348 1.389 . S
C347 H326 0.950 . S
C347 C346 1.373 . S
C347 C363 1.377 . S
C348 C346 1.389 . S
C348 C349 1.524 . S
C348 C362 1.377 . S
C349 C348 1.524 . S
C349 C350 1.397 . S
C349 C354 1.363 . S
C350 H327 0.950 . S
C350 C349 1.397 . S
C350 C351 1.334 . S
C351 H328 0.950 . S
C351 C350 1.334 . S
C351 C352 1.287 . S
C352 C351 1.287 . S
C352 C353 1.524 . S
C352 H371 0.913 . S
C353 H329 0.950 . S
C353 C352 1.524 . S
C353 C354 1.415 . S
C354 H330 0.950 . S
C354 C349 1.363 . S
C354 C353 1.415 . S
C355 H331 0.951 . S
C355 C356 1.366 . S
C355 C357 1.388 . S
C356 C355 1.366 . S
C356 C360 1.385 . S
C357 H332 0.951 . S
C357 C355 1.388 . S
C357 C358 1.366 . S
C358 C357 1.366 . S
C358 C359 1.414 . S
C358 C361 1.499 . S
C359 H333 0.950 . S
C359 C358 1.414 . S
C359 C360 1.374 . S
C360 H334 0.950 . S
C360 C356 1.385 . S
C360 C359 1.374 . S
C361 C358 1.499 . S
C361 C362 1.373 . S
C361 C363 1.389 . S
C362 H335 0.950 . S
C362 C348 1.377 . S
C362 C361 1.373 . S
C363 C347 1.377 . S
C363 C361 1.389 . S
C363 C364 1.524 . S
C364 C363 1.524 . S
C364 C365 1.397 . S
C364 C369 1.363 . S
C365 H336 0.950 . S
C365 C364 1.397 . S
C365 C366 1.334 . S
C366 H337 0.950 . S
C366 C365 1.334 . S
C366 C367 1.287 . S
C367 C366 1.287 . S
C367 C368 1.524 . S
C367 H370 0.999 . S
C368 H338 0.950 . S
C368 C367 1.524 . S
C368 C369 1.415 . S
C369 H339 0.950 . S
C369 C364 1.363 . S
C369 C368 1.415 . S
H370 C367 0.999 . S
H371 C352 0.913 . S
H372 C390 0.951 . S
H373 C392 0.951 . S
H374 C394 0.950 . S
H375 C395 0.950 . S
H376 C397 0.950 . S
H377 C400 0.950 . S
H378 C401 0.950 . S
H379 C403 0.950 . S
H380 C404 0.950 . S
H381 C405 0.951 . S
H382 C407 0.951 . S
H383 C409 0.950 . S
H384 C410 0.950 . S
H385 C412 0.950 . S
H386 C415 0.950 . S
H387 C416 0.950 . S
H388 C418 0.950 . S
H389 C419 0.950 . S
C390 H372 0.951 . S
C390 C391 1.366 . S
C390 C392 1.388 . S
C391 C390 1.366 . S
C391 C395 1.385 . S
C392 H373 0.951 . S
C392 C390 1.388 . S
C392 C393 1.366 . S
C393 C392 1.366 . S
C393 C394 1.414 . S
C393 C396 1.499 . S
C394 H374 0.950 . S
C394 C393 1.414 . S
C394 C395 1.374 . S
C395 H375 0.950 . S
C395 C391 1.385 . S
C395 C394 1.374 . S
C396 C393 1.499 . S
C396 C397 1.373 . S
C396 C398 1.389 . S
C397 H376 0.950 . S
C397 C396 1.373 . S
C397 C413 1.377 . S
C398 C396 1.389 . S
C398 C399 1.524 . S
C398 C412 1.377 . S
C399 C398 1.524 . S
C399 C400 1.397 . S
C399 C404 1.363 . S
C400 H377 0.950 . S
C400 C399 1.397 . S
C400 C401 1.334 . S
C401 H378 0.950 . S
C401 C400 1.334 . S
C401 C402 1.287 . S
C402 C401 1.287 . S
C402 C403 1.524 . S
C402 H421 0.913 . S
C403 H379 0.950 . S
C403 C402 1.524 . S
C403 C404 1.415 . S
C404 H380 0.950 . S
C404 C399 1.363 . S
C404 C403 1.415 . S
C405 H381 0.951 . S
C405 C406 1.366 . S
C405 C407 1.388 . S
C406 C405 1.366 . S
C406 C410 1.385 . S
C407 H382 0.951 . S
C407 C405 1.388 . S
C407 C408 1.366 . S
C408 C407 1.366 . S
C408 C409 1.414 . S
C408 C411 1.499 . S
C409 H383 0.950 . S
C409 C408 1.414 . S
C409 C410 1.374 . S
C410 H384 0.950 . S
C410 C406 1.385 . S
C410 C409 1.374 . S
C411 C408 1.499 . S
C411 C412 1.373 . S
C411 C413 1.389 . S
C412 H385 0.950 . S
C412 C398 1.377 . S
C412 C411 1.373 . S
C413 C397 1.377 . S
C413 C411 1.389 . S
C413 C414 1.524 . S
C414 C413 1.524 . S
C414 C415 1.397 . S
C414 C419 1.363 . S
C415 H386 0.950 . S
C415 C414 1.397 . S
C415 C416 1.334 . S
C416 H387 0.950 . S
C416 C415 1.334 . S
C416 C417 1.287 . S
C417 C416 1.287 . S
C417 C418 1.524 . S
C417 H420 0.999 . S
C418 H388 0.950 . S
C418 C417 1.524 . S
C418 C419 1.415 . S
C419 H389 0.950 . S
C419 C414 1.363 . S
C419 C418 1.415 . S
H420 C417 0.999 . S
H421 C402 0.913 . S
H422 C440 0.951 . S
H423 C442 0.951 . S
H424 C444 0.950 . S
H425 C445 0.950 . S
H426 C447 0.950 . S
H427 C450 0.950 . S
H428 C451 0.950 . S
H429 C453 0.950 . S
H430 C454 0.950 . S
H431 C455 0.951 . S
H432 C457 0.951 . S
H433 C459 0.950 . S
H434 C460 0.950 . S
H435 C462 0.950 . S
H436 C465 0.950 . S
H437 C466 0.950 . S
H438 C468 0.950 . S
H439 C469 0.950 . S
C440 H422 0.951 . S
C440 C441 1.366 . S
C440 C442 1.388 . S
C441 C440 1.366 . S
C441 C445 1.385 . S
C442 H423 0.951 . S
C442 C440 1.388 . S
C442 C443 1.366 . S
C443 C442 1.366 . S
C443 C444 1.414 . S
C443 C446 1.499 . S
C444 H424 0.950 . S
C444 C443 1.414 . S
C444 C445 1.374 . S
C445 H425 0.950 . S
C445 C441 1.385 . S
C445 C444 1.374 . S
C446 C443 1.499 . S
C446 C447 1.373 . S
C446 C448 1.389 . S
C447 H426 0.950 . S
C447 C446 1.373 . S
C447 C463 1.377 1_556 S
C448 C446 1.389 . S
C448 C449 1.524 . S
C448 C462 1.377 1_556 S
C449 C448 1.524 . S
C449 C450 1.397 . S
C449 C454 1.363 . S
C450 H427 0.950 . S
C450 C449 1.397 . S
C450 C451 1.334 . S
C451 H428 0.950 . S
C451 C450 1.334 . S
C451 C452 1.287 . S
C452 C451 1.287 . S
C452 C453 1.524 . S
C452 H471 0.913 . S
C453 H429 0.950 . S
C453 C452 1.524 . S
C453 C454 1.415 . S
C454 H430 0.950 . S
C454 C449 1.363 . S
C454 C453 1.415 . S
C455 H431 0.951 . S
C455 C456 1.366 . S
C455 C457 1.388 . S
C456 C455 1.366 . S
C456 C460 1.385 . S
C457 H432 0.951 . S
C457 C455 1.388 . S
C457 C458 1.366 . S
C458 C457 1.366 . S
C458 C459 1.414 . S
C458 C461 1.499 . S
C459 H433 0.950 . S
C459 C458 1.414 . S
C459 C460 1.374 . S
C460 H434 0.950 . S
C460 C456 1.385 . S
C460 C459 1.374 . S
C461 C458 1.499 . S
C461 C462 1.373 . S
C461 C463 1.389 . S
C462 H435 0.950 . S
C462 C448 1.377 1_554 S
C462 C461 1.373 . S
C463 C447 1.377 1_554 S
C463 C461 1.389 . S
C463 C464 1.524 . S
C464 C463 1.524 . S
C464 C465 1.397 . S
C464 C469 1.363 . S
C465 H436 0.950 . S
C465 C464 1.397 . S
C465 C466 1.334 . S
C466 H437 0.950 . S
C466 C465 1.334 . S
C466 C467 1.287 . S
C467 C466 1.287 . S
C467 C468 1.524 . S
C467 H470 0.999 . S
C468 H438 0.950 . S
C468 C467 1.524 . S
C468 C469 1.415 . S
C469 H439 0.950 . S
C469 C464 1.363 . S
C469 C468 1.415 . S
H470 C467 0.999 . S
H471 C452 0.913 . S
H472 C490 0.941 1_556 S
H473 C492 0.951 . S
H474 C494 0.950 . S
H475 C495 0.950 . S
H476 C497 0.950 . S
H477 C500 0.901 1_554 S
H478 C501 0.950 . S
H479 C503 0.950 . S
H480 C504 0.950 . S
H481 C505 0.941 1_554 S
H482 C507 0.951 . S
H483 C509 0.950 . S
H484 C510 0.950 . S
H485 C512 0.950 . S
H486 C515 0.901 1_556 S
H487 C516 0.950 . S
H488 C518 0.950 . S
H489 C519 0.950 . S
C490 H472 0.941 1_554 S
C490 C491 1.379 . S
C490 C492 1.385 1_554 S
C491 C490 1.379 . S
C491 C495 1.385 . S
C492 H473 0.951 . S
C492 C490 1.385 1_556 S
C492 C493 1.366 1_556 S
C493 C492 1.366 1_554 S
C493 C494 1.414 . S
C493 C496 1.499 . S
C494 H474 0.950 . S
C494 C493 1.414 . S
C494 C495 1.374 . S
C495 H475 0.950 . S
C495 C491 1.385 . S
C495 C494 1.374 . S
C496 C493 1.499 . S
C496 C497 1.373 . S
C496 C498 1.389 1_554 S
C497 H476 0.950 . S
C497 C496 1.373 . S
C497 C513 1.377 1_455 S
C498 C496 1.389 1_556 S
C498 C499 1.524 . S
C498 C512 1.377 1_455 S
C499 C498 1.524 . S
C499 C500 1.397 . S
C499 C504 1.363 . S
C500 H477 0.901 1_556 S
C500 C499 1.397 . S
C500 C501 1.334 . S
C501 H478 0.950 . S
C501 C500 1.334 . S
C501 C502 1.287 . S
C502 C501 1.287 . S
C502 C503 1.524 . S
C502 H521 0.913 . S
C503 H479 0.950 . S
C503 C502 1.524 . S
C503 C504 1.415 . S
C504 H480 0.950 . S
C504 C499 1.363 . S
C504 C503 1.415 . S
C505 H481 0.941 1_556 S
C505 C506 1.379 . S
C505 C507 1.385 1_556 S
C506 C505 1.379 . S
C506 C510 1.385 . S
C507 H482 0.951 . S
C507 C505 1.385 1_554 S
C507 C508 1.366 1_554 S
C508 C507 1.366 1_556 S
C508 C509 1.414 . S
C508 C511 1.499 . S
C509 H483 0.950 . S
C509 C508 1.414 . S
C509 C510 1.374 . S
C510 H484 0.950 . S
C510 C506 1.385 . S
C510 C509 1.374 . S
C511 C508 1.499 . S
C511 C512 1.373 . S
C511 C513 1.389 1_556 S
C512 H485 0.950 . S
C512 C498 1.377 1_655 S
C512 C511 1.373 . S
C513 C497 1.377 1_655 S
C513 C511 1.389 1_554 S
C513 C514 1.524 . S
C514 C513 1.524 . S
C514 C515 1.397 . S
C514 C519 1.363 . S
C515 H486 0.901 1_554 S
C515 C514 1.397 . S
C515 C516 1.334 . S
C516 H487 0.950 . S
C516 C515 1.334 . S
C516 C517 1.287 . S
C517 C516 1.287 . S
C517 C518 1.524 . S
C517 H520 0.999 . S
C518 H488 0.950 . S
C518 C517 1.524 . S
C518 C519 1.415 . S
C519 H489 0.950 . S
C519 C514 1.363 . S
C519 C518 1.415 . S
H520 C517 0.999 . S
H521 C502 0.913 . S
H522 C540 0.951 . S
H523 C542 0.951 . S
H524 C544 0.950 . S
H525 C545 0.950 . S
H526 C547 0.950 . S
H527 C550 0.950 . S
H528 C551 0.950 . S
H529 C553 0.950 . S
H530 C554 0.950 . S
H531 C555 0.951 . S
H532 C557 0.951 . S
H533 C559 0.950 . S
H534 C560 0.950 . S
H535 C562 0.950 . S
H536 C565 0.950 . S
H537 C566 0.950 . S
H538 C568 0.950 . S
H539 C569 0.950 . S
C540 H522 0.951 . S
C540 C541 1.366 . S
C540 C542 1.388 . S
C541 C540 1.366 . S
C541 C545 1.385 . S
C542 H523 0.951 . S
C542 C540 1.388 . S
C542 C543 1.366 . S
C543 C542 1.366 . S
C543 C544 1.414 . S
C543 C546 1.499 . S
C544 H524 0.950 . S
C544 C543 1.414 . S
C544 C545 1.374 . S
C545 H525 0.950 . S
C545 C541 1.385 . S
C545 C544 1.374 . S
C546 C543 1.499 . S
C546 C547 1.373 . S
C546 C548 1.389 . S
C547 H526 0.950 . S
C547 C546 1.373 . S
C547 C563 1.377 1_545 S
C548 C546 1.389 . S
C548 C549 1.524 . S
C548 C562 1.377 1_545 S
C549 C548 1.524 . S
C549 C550 1.397 . S
C549 C554 1.363 . S
C550 H527 0.950 . S
C550 C549 1.397 . S
C550 C551 1.334 . S
C551 H528 0.950 . S
C551 C550 1.334 . S
C551 C552 1.287 . S
C552 C551 1.287 . S
C552 C553 1.524 . S
C552 H571 0.913 . S
C553 H529 0.950 . S
C553 C552 1.524 . S
C553 C554 1.415 . S
C554 H530 0.950 . S
C554 C549 1.363 . S
C554 C553 1.415 . S
C555 H531 0.951 . S
C555 C556 1.366 . S
C555 C557 1.388 . S
C556 C555 1.366 . S
C556 C560 1.385 . S
C557 H532 0.951 . S
C557 C555 1.388 . S
C557 C558 1.366 . S
C558 C557 1.366 . S
C558 C559 1.414 . S
C558 C561 1.499 . S
C559 H533 0.950 . S
C559 C558 1.414 . S
C559 C560 1.374 . S
C560 H534 0.950 . S
C560 C556 1.385 . S
C560 C559 1.374 . S
C561 C558 1.499 . S
C561 C562 1.373 . S
C561 C563 1.389 . S
C562 H535 0.950 . S
C562 C548 1.377 1_565 S
C562 C561 1.373 . S
C563 C547 1.377 1_565 S
C563 C561 1.389 . S
C563 C564 1.524 . S
C564 C563 1.524 . S
C564 C565 1.397 . S
C564 C569 1.363 . S
C565 H536 0.950 . S
C565 C564 1.397 . S
C565 C566 1.334 . S
C566 H537 0.950 . S
C566 C565 1.334 . S
C566 C567 1.287 . S
C567 C566 1.287 . S
C567 C568 1.524 . S
C567 H570 0.999 . S
C568 H538 0.950 . S
C568 C567 1.524 . S
C568 C569 1.415 . S
C569 H539 0.950 . S
C569 C564 1.363 . S
C569 C568 1.415 . S
H570 C567 0.999 . S
H571 C552 0.913 . S
H572 C590 0.951 . S
H573 C592 0.951 . S
H574 C594 0.950 . S
H575 C595 0.950 . S
H576 C597 0.950 . S
H577 C600 0.950 . S
H578 C601 0.950 . S
H579 C603 0.950 . S
H580 C604 0.950 . S
H581 C605 0.951 . S
H582 C607 0.951 . S
H583 C609 0.950 . S
H584 C610 0.950 . S
H585 C612 0.950 . S
H586 C615 0.950 . S
H587 C616 0.950 . S
H588 C618 0.950 . S
H589 C619 0.950 . S
C590 H572 0.951 . S
C590 C591 1.366 . S
C590 C592 1.388 . S
C591 C590 1.366 . S
C591 C595 1.385 . S
C592 H573 0.951 . S
C592 C590 1.388 . S
C592 C593 1.366 . S
C593 C592 1.366 . S
C593 C594 1.414 . S
C593 C596 1.499 . S
C594 H574 0.950 . S
C594 C593 1.414 . S
C594 C595 1.374 . S
C595 H575 0.950 . S
C595 C591 1.385 . S
C595 C594 1.374 . S
C596 C593 1.499 . S
C596 C597 1.373 . S
C596 C598 1.389 . S
C597 H576 0.950 . S
C597 C596 1.373 . S
C597 C613 1.377 1_455 S
C598 C596 1.389 . S
C598 C599 1.524 . S
C598 C612 1.377 1_455 S
C599 C598 1.524 . S
C599 C600 1.397 . S
C599 C604 1.363 . S
C600 H577 0.950 . S
C600 C599 1.397 . S
C600 C601 1.334 . S
C601 H578 0.950 . S
C601 C600 1.334 . S
C601 C602 1.287 . S
C602 C601 1.287 . S
C602 C603 1.524 . S
C602 H621 0.913 . S
C603 H579 0.950 . S
C603 C602 1.524 . S
C603 C604 1.415 . S
C604 H580 0.950 . S
C604 C599 1.363 . S
C604 C603 1.415 . S
C605 H581 0.951 . S
C605 C606 1.366 . S
C605 C607 1.388 . S
C606 C605 1.366 . S
C606 C610 1.385 . S
C607 H582 0.951 . S
C607 C605 1.388 . S
C607 C608 1.366 . S
C608 C607 1.366 . S
C608 C609 1.414 . S
C608 C611 1.499 . S
C609 H583 0.950 . S
C609 C608 1.414 . S
C609 C610 1.374 . S
C610 H584 0.950 . S
C610 C606 1.385 . S
C610 C609 1.374 . S
C611 C608 1.499 . S
C611 C612 1.373 . S
C611 C613 1.389 . S
C612 H585 0.950 . S
C612 C598 1.377 1_655 S
C612 C611 1.373 . S
C613 C597 1.377 1_655 S
C613 C611 1.389 . S
C613 C614 1.524 . S
C614 C613 1.524 . S
C614 C615 1.397 . S
C614 C619 1.363 . S
C615 H586 0.950 . S
C615 C614 1.397 . S
C615 C616 1.334 . S
C616 H587 0.950 . S
C616 C615 1.334 . S
C616 C617 1.287 . S
C617 C616 1.287 . S
C617 C618 1.524 . S
C617 H620 0.999 . S
C618 H588 0.950 . S
C618 C617 1.524 . S
C618 C619 1.415 . S
C619 H589 0.950 . S
C619 C614 1.363 . S
C619 C618 1.415 . S
H620 C617 0.999 . S
H621 C602 0.913 . S
H622 C640 0.951 . S
H623 C642 0.951 . S
H624 C644 0.950 . S
H625 C645 0.950 . S
H626 C647 0.950 . S
H627 C650 0.950 . S
H628 C651 0.950 . S
H629 C653 0.950 . S
H630 C654 0.950 1_565 S
H631 C655 0.951 . S
H632 C657 0.951 . S
H633 C659 0.950 . S
H634 C660 0.950 . S
H635 C662 0.950 . S
H636 C665 0.950 . S
H637 C666 0.950 . S
H638 C668 0.950 . S
H639 C669 0.950 1_545 S
C640 H622 0.951 . S
C640 C641 1.366 . S
C640 C642 1.388 . S
C641 C640 1.366 . S
C641 C645 1.385 . S
C642 H623 0.951 . S
C642 C640 1.388 . S
C642 C643 1.366 . S
C643 C642 1.366 . S
C643 C644 1.414 . S
C643 C646 1.499 . S
C644 H624 0.950 . S
C644 C643 1.414 . S
C644 C645 1.374 . S
C645 H625 0.950 . S
C645 C641 1.385 . S
C645 C644 1.374 . S
C646 C643 1.499 . S
C646 C647 1.373 . S
C646 C648 1.389 . S
C647 H626 0.950 . S
C647 C646 1.373 . S
C647 C663 1.377 1_545 S
C648 C646 1.389 . S
C648 C649 1.524 . S
C648 C662 1.377 1_545 S
C649 C648 1.524 . S
C649 C650 1.397 . S
C649 C654 1.363 . S
C650 H627 0.950 . S
C650 C649 1.397 . S
C650 C651 1.334 . S
C651 H628 0.950 . S
C651 C650 1.334 . S
C651 C652 1.287 . S
C652 C651 1.287 . S
C652 C653 1.524 . S
C652 H671 0.913 . S
C653 H629 0.950 . S
C653 C652 1.524 . S
C653 C654 1.415 . S
C654 H630 0.950 1_545 S
C654 C649 1.363 . S
C654 C653 1.415 . S
C655 H631 0.951 . S
C655 C656 1.366 . S
C655 C657 1.388 . S
C656 C655 1.366 . S
C656 C660 1.385 . S
C657 H632 0.951 . S
C657 C655 1.388 . S
C657 C658 1.366 . S
C658 C657 1.366 . S
C658 C659 1.414 . S
C658 C661 1.499 . S
C659 H633 0.950 . S
C659 C658 1.414 . S
C659 C660 1.374 . S
C660 H634 0.950 . S
C660 C656 1.385 . S
C660 C659 1.374 . S
C661 C658 1.499 . S
C661 C662 1.373 . S
C661 C663 1.389 . S
C662 H635 0.950 . S
C662 C648 1.377 1_565 S
C662 C661 1.373 . S
C663 C647 1.377 1_565 S
C663 C661 1.389 . S
C663 C664 1.524 . S
C664 C663 1.524 . S
C664 C665 1.397 . S
C664 C669 1.363 . S
C665 H636 0.950 . S
C665 C664 1.397 . S
C665 C666 1.334 . S
C666 H637 0.950 . S
C666 C665 1.334 . S
C666 C667 1.287 . S
C667 C666 1.287 . S
C667 C668 1.524 . S
C667 H670 0.999 . S
C668 H638 0.950 . S
C668 C667 1.524 . S
C668 C669 1.415 . S
C669 H639 0.950 1_565 S
C669 C664 1.363 . S
C669 C668 1.415 . S
H670 C667 0.999 . S
H671 C652 0.913 . S
H672 C690 0.951 . S
H673 C692 0.951 . S
H674 C694 0.950 . S
H675 C695 0.950 . S
H676 C697 0.950 . S
H677 C700 0.950 . S
H678 C701 0.950 . S
H679 C703 0.950 . S
H680 C704 0.950 . S
H681 C705 0.951 . S
H682 C707 0.951 . S
H683 C709 0.950 . S
H684 C710 0.950 . S
H685 C712 0.950 . S
H686 C715 0.950 . S
H687 C716 0.950 . S
H688 C718 0.950 . S
H689 C719 0.950 . S
C690 H672 0.951 . S
C690 C691 1.366 . S
C690 C692 1.388 . S
C691 C690 1.366 . S
C691 C695 1.385 . S
C692 H673 0.951 . S
C692 C690 1.388 . S
C692 C693 1.366 . S
C693 C692 1.366 . S
C693 C694 1.414 . S
C693 C696 1.499 . S
C694 H674 0.950 . S
C694 C693 1.414 . S
C694 C695 1.374 . S
C695 H675 0.950 . S
C695 C691 1.385 . S
C695 C694 1.374 . S
C696 C693 1.499 . S
C696 C697 1.373 . S
C696 C698 1.389 . S
C697 H676 0.950 . S
C697 C696 1.373 . S
C697 C713 1.377 . S
C698 C696 1.389 . S
C698 C699 1.524 . S
C698 C712 1.377 . S
C699 C698 1.524 . S
C699 C700 1.397 . S
C699 C704 1.363 . S
C700 H677 0.950 . S
C700 C699 1.397 . S
C700 C701 1.334 . S
C701 H678 0.950 . S
C701 C700 1.334 . S
C701 C702 1.287 . S
C702 C701 1.287 . S
C702 C703 1.524 . S
C702 H721 0.913 . S
C703 H679 0.950 . S
C703 C702 1.524 . S
C703 C704 1.415 . S
C704 H680 0.950 . S
C704 C699 1.363 . S
C704 C703 1.415 . S
C705 H681 0.951 . S
C705 C706 1.366 . S
C705 C707 1.388 . S
C706 C705 1.366 . S
C706 C710 1.385 . S
C707 H682 0.951 . S
C707 C705 1.388 . S
C707 C708 1.366 . S
C708 C707 1.366 . S
C708 C709 1.414 . S
C708 C711 1.499 . S
C709 H683 0.950 . S
C709 C708 1.414 . S
C709 C710 1.374 . S
C710 H684 0.950 . S
C710 C706 1.385 . S
C710 C709 1.374 . S
C711 C708 1.499 . S
C711 C712 1.373 . S
C711 C713 1.389 . S
C712 H685 0.950 . S
C712 C698 1.377 . S
C712 C711 1.373 . S
C713 C697 1.377 . S
C713 C711 1.389 . S
C713 C714 1.524 . S
C714 C713 1.524 . S
C714 C715 1.397 . S
C714 C719 1.363 . S
C715 H686 0.950 . S
C715 C714 1.397 . S
C715 C716 1.334 . S
C716 H687 0.950 . S
C716 C715 1.334 . S
C716 C717 1.287 . S
C717 C716 1.287 . S
C717 C718 1.524 . S
C717 H720 0.999 . S
C718 H688 0.950 . S
C718 C717 1.524 . S
C718 C719 1.415 . S
C719 H689 0.950 . S
C719 C714 1.363 . S
C719 C718 1.415 . S
H720 C717 0.999 . S
H721 C702 0.913 . S
H722 C740 0.951 . S
H723 C742 0.951 . S
H724 C744 0.950 . S
H725 C745 0.950 . S
H726 C747 0.950 . S
H727 C750 0.950 . S
H728 C751 0.950 . S
H729 C753 0.950 . S
H730 C754 0.950 . S
H731 C755 0.951 . S
H732 C757 0.951 . S
H733 C759 0.950 . S
H734 C760 0.950 . S
H735 C762 0.950 . S
H736 C765 0.950 . S
H737 C766 0.950 . S
H738 C768 0.950 . S
H739 C769 0.950 . S
C740 H722 0.951 . S
C740 C741 1.366 . S
C740 C742 1.388 . S
C741 C740 1.366 . S
C741 C745 1.385 . S
C742 H723 0.951 . S
C742 C740 1.388 . S
C742 C743 1.366 . S
C743 C742 1.366 . S
C743 C744 1.414 . S
C743 C746 1.499 . S
C744 H724 0.950 . S
C744 C743 1.414 . S
C744 C745 1.374 . S
C745 H725 0.950 . S
C745 C741 1.385 . S
C745 C744 1.374 . S
C746 C743 1.499 . S
C746 C747 1.373 . S
C746 C748 1.389 . S
C747 H726 0.950 . S
C747 C746 1.373 . S
C747 C763 1.377 . S
C748 C746 1.389 . S
C748 C749 1.524 . S
C748 C762 1.377 . S
C749 C748 1.524 . S
C749 C750 1.397 . S
C749 C754 1.363 . S
C750 H727 0.950 . S
C750 C749 1.397 . S
C750 C751 1.334 . S
C751 H728 0.950 . S
C751 C750 1.334 . S
C751 C752 1.287 . S
C752 C751 1.287 . S
C752 C753 1.524 . S
C752 H771 0.913 . S
C753 H729 0.950 . S
C753 C752 1.524 . S
C753 C754 1.415 . S
C754 H730 0.950 . S
C754 C749 1.363 . S
C754 C753 1.415 . S
C755 H731 0.951 . S
C755 C756 1.366 . S
C755 C757 1.388 . S
C756 C755 1.366 . S
C756 C760 1.385 . S
C757 H732 0.951 . S
C757 C755 1.388 . S
C757 C758 1.366 . S
C758 C757 1.366 . S
C758 C759 1.414 . S
C758 C761 1.499 . S
C759 H733 0.950 . S
C759 C758 1.414 . S
C759 C760 1.374 . S
C760 H734 0.950 . S
C760 C756 1.385 . S
C760 C759 1.374 . S
C761 C758 1.499 . S
C761 C762 1.373 . S
C761 C763 1.389 . S
C762 H735 0.950 . S
C762 C748 1.377 . S
C762 C761 1.373 . S
C763 C747 1.377 . S
C763 C761 1.389 . S
C763 C764 1.524 . S
C764 C763 1.524 . S
C764 C765 1.397 . S
C764 C769 1.363 . S
C765 H736 0.950 . S
C765 C764 1.397 . S
C765 C766 1.334 . S
C766 H737 0.950 . S
C766 C765 1.334 . S
C766 C767 1.287 . S
C767 C766 1.287 . S
C767 C768 1.524 . S
C767 H770 0.999 . S
C768 H738 0.950 . S
C768 C767 1.524 . S
C768 C769 1.415 . S
C769 H739 0.950 . S
C769 C764 1.363 . S
C769 C768 1.415 . S
H770 C767 0.999 . S
H771 C752 0.913 . S
H772 C790 0.951 . S
H773 C792 0.951 . S
H774 C794 0.950 . S
H775 C795 0.950 . S
H776 C797 0.950 . S
H777 C800 0.950 . S
H778 C801 0.950 . S
H779 C803 0.950 . S
H780 C804 0.950 . S
H781 C805 0.951 . S
H782 C807 0.951 . S
H783 C809 0.950 . S
H784 C810 0.950 . S
H785 C812 0.950 . S
H786 C815 0.950 . S
H787 C816 0.950 . S
H788 C818 0.950 . S
H789 C819 0.950 . S
C790 H772 0.951 . S
C790 C791 1.366 . S
C790 C792 1.388 . S
C791 C790 1.366 . S
C791 C795 1.385 . S
C792 H773 0.951 . S
C792 C790 1.388 . S
C792 C793 1.366 . S
C793 C792 1.366 . S
C793 C794 1.414 . S
C793 C796 1.499 . S
C794 H774 0.950 . S
C794 C793 1.414 . S
C794 C795 1.374 . S
C795 H775 0.950 . S
C795 C791 1.385 . S
C795 C794 1.374 . S
C796 C793 1.499 . S
C796 C797 1.373 . S
C796 C798 1.389 . S
C797 H776 0.950 . S
C797 C796 1.373 . S
C797 C813 1.377 . S
C798 C796 1.389 . S
C798 C799 1.524 . S
C798 C812 1.377 . S
C799 C798 1.524 . S
C799 C800 1.397 . S
C799 C804 1.363 . S
C800 H777 0.950 . S
C800 C799 1.397 . S
C800 C801 1.334 . S
C801 H778 0.950 . S
C801 C800 1.334 . S
C801 C802 1.287 . S
C802 C801 1.287 . S
C802 C803 1.524 . S
C802 H821 0.913 . S
C803 H779 0.950 . S
C803 C802 1.524 . S
C803 C804 1.415 . S
C804 H780 0.950 . S
C804 C799 1.363 . S
C804 C803 1.415 . S
C805 H781 0.951 . S
C805 C806 1.366 . S
C805 C807 1.388 . S
C806 C805 1.366 . S
C806 C810 1.385 . S
C807 H782 0.951 . S
C807 C805 1.388 . S
C807 C808 1.366 . S
C808 C807 1.366 . S
C808 C809 1.414 . S
C808 C811 1.499 . S
C809 H783 0.950 . S
C809 C808 1.414 . S
C809 C810 1.374 . S
C810 H784 0.950 . S
C810 C806 1.385 . S
C810 C809 1.374 . S
C811 C808 1.499 . S
C811 C812 1.373 . S
C811 C813 1.389 . S
C812 H785 0.950 . S
C812 C798 1.377 . S
C812 C811 1.373 . S
C813 C797 1.377 . S
C813 C811 1.389 . S
C813 C814 1.524 . S
C814 C813 1.524 . S
C814 C815 1.397 . S
C814 C819 1.363 . S
C815 H786 0.950 . S
C815 C814 1.397 . S
C815 C816 1.334 . S
C816 H787 0.950 . S
C816 C815 1.334 . S
C816 C817 1.287 . S
C817 C816 1.287 . S
C817 C818 1.524 . S
C817 H820 0.999 . S
C818 H788 0.950 . S
C818 C817 1.524 . S
C818 C819 1.415 . S
C819 H789 0.950 . S
C819 C814 1.363 . S
C819 C818 1.415 . S
H820 C817 0.999 . S
H821 C802 0.913 . S
H822 C840 0.951 . S
H823 C842 0.951 . S
H824 C844 0.950 . S
H825 C845 0.950 . S
H826 C847 0.950 . S
H827 C850 0.950 . S
H828 C851 0.950 . S
H829 C853 0.950 . S
H830 C854 0.950 . S
H831 C855 0.951 . S
H832 C857 0.951 . S
H833 C859 0.950 . S
H834 C860 0.950 . S
H835 C862 0.950 . S
H836 C865 0.950 . S
H837 C866 0.950 . S
H838 C868 0.950 . S
H839 C869 0.950 . S
C840 H822 0.951 . S
C840 C841 1.366 . S
C840 C842 1.388 . S
C841 C840 1.366 . S
C841 C845 1.385 . S
C842 H823 0.951 . S
C842 C840 1.388 . S
C842 C843 1.366 . S
C843 C842 1.366 . S
C843 C844 1.414 . S
C843 C846 1.499 . S
C844 H824 0.950 . S
C844 C843 1.414 . S
C844 C845 1.374 . S
C845 H825 0.950 . S
C845 C841 1.385 . S
C845 C844 1.374 . S
C846 C843 1.499 . S
C846 C847 1.373 . S
C846 C848 1.389 . S
C847 H826 0.950 . S
C847 C846 1.373 . S
C847 C863 1.377 . S
C848 C846 1.389 . S
C848 C849 1.524 . S
C848 C862 1.377 . S
C849 C848 1.524 . S
C849 C850 1.397 . S
C849 C854 1.363 . S
C850 H827 0.950 . S
C850 C849 1.397 . S
C850 C851 1.334 . S
C851 H828 0.950 . S
C851 C850 1.334 . S
C851 C852 1.287 . S
C852 C851 1.287 . S
C852 C853 1.524 . S
C852 H871 0.913 . S
C853 H829 0.950 . S
C853 C852 1.524 . S
C853 C854 1.415 . S
C854 H830 0.950 . S
C854 C849 1.363 . S
C854 C853 1.415 . S
C855 H831 0.951 . S
C855 C856 1.366 . S
C855 C857 1.388 . S
C856 C855 1.366 . S
C856 C860 1.385 . S
C857 H832 0.951 . S
C857 C855 1.388 . S
C857 C858 1.366 . S
C858 C857 1.366 . S
C858 C859 1.414 . S
C858 C861 1.499 . S
C859 H833 0.950 . S
C859 C858 1.414 . S
C859 C860 1.374 . S
C860 H834 0.950 . S
C860 C856 1.385 . S
C860 C859 1.374 . S
C861 C858 1.499 . S
C861 C862 1.373 . S
C861 C863 1.389 . S
C862 H835 0.950 . S
C862 C848 1.377 . S
C862 C861 1.373 . S
C863 C847 1.377 . S
C863 C861 1.389 . S
C863 C864 1.524 . S
C864 C863 1.524 . S
C864 C865 1.397 . S
C864 C869 1.363 . S
C865 H836 0.950 . S
C865 C864 1.397 . S
C865 C866 1.334 . S
C866 H837 0.950 . S
C866 C865 1.334 . S
C866 C867 1.287 . S
C867 C866 1.287 . S
C867 C868 1.524 . S
C867 H870 0.999 . S
C868 H838 0.950 . S
C868 C867 1.524 . S
C868 C869 1.415 . S
C869 H839 0.950 . S
C869 C864 1.363 . S
C869 C868 1.415 . S
H870 C867 0.999 . S
H871 C852 0.913 . S
H872 C890 0.951 . S
H873 C892 0.951 . S
H874 C894 0.950 . S
H875 C895 0.950 . S
H876 C897 0.950 . S
H877 C900 0.950 . S
H878 C901 0.950 . S
H879 C903 0.950 . S
H880 C904 0.950 . S
H881 C905 0.951 . S
H882 C907 0.951 . S
H883 C909 0.950 . S
H884 C910 0.950 . S
H885 C912 0.950 . S
H886 C915 0.950 . S
H887 C916 0.950 . S
H888 C918 0.950 . S
H889 C919 0.950 . S
C890 H872 0.951 . S
C890 C891 1.366 . S
C890 C892 1.388 . S
C891 C890 1.366 . S
C891 C895 1.385 . S
C892 H873 0.951 . S
C892 C890 1.388 . S
C892 C893 1.366 . S
C893 C892 1.366 . S
C893 C894 1.414 . S
C893 C896 1.499 . S
C894 H874 0.950 . S
C894 C893 1.414 . S
C894 C895 1.374 . S
C895 H875 0.950 . S
C895 C891 1.385 . S
C895 C894 1.374 . S
C896 C893 1.499 . S
C896 C897 1.373 . S
C896 C898 1.389 . S
C897 H876 0.950 . S
C897 C896 1.373 . S
C897 C913 1.377 . S
C898 C896 1.389 . S
C898 C899 1.524 . S
C898 C912 1.377 . S
C899 C898 1.524 . S
C899 C900 1.397 . S
C899 C904 1.363 . S
C900 H877 0.950 . S
C900 C899 1.397 . S
C900 C901 1.334 . S
C901 H878 0.950 . S
C901 C900 1.334 . S
C901 C902 1.287 . S
C902 C901 1.287 . S
C902 C903 1.524 . S
C902 H921 0.913 . S
C903 H879 0.950 . S
C903 C902 1.524 . S
C903 C904 1.415 . S
C904 H880 0.950 . S
C904 C899 1.363 . S
C904 C903 1.415 . S
C905 H881 0.951 . S
C905 C906 1.366 . S
C905 C907 1.388 . S
C906 C905 1.366 . S
C906 C910 1.385 . S
C907 H882 0.951 . S
C907 C905 1.388 . S
C907 C908 1.366 . S
C908 C907 1.366 . S
C908 C909 1.414 . S
C908 C911 1.499 . S
C909 H883 0.950 . S
C909 C908 1.414 . S
C909 C910 1.374 . S
C910 H884 0.950 . S
C910 C906 1.385 . S
C910 C909 1.374 . S
C911 C908 1.499 . S
C911 C912 1.373 . S
C911 C913 1.389 . S
C912 H885 0.950 . S
C912 C898 1.377 . S
C912 C911 1.373 . S
C913 C897 1.377 . S
C913 C911 1.389 . S
C913 C914 1.524 . S
C914 C913 1.524 . S
C914 C915 1.397 . S
C914 C919 1.363 . S
C915 H886 0.950 . S
C915 C914 1.397 . S
C915 C916 1.334 . S
C916 H887 0.950 . S
C916 C915 1.334 . S
C916 C917 1.287 . S
C917 C916 1.287 . S
C917 C918 1.524 . S
C917 H920 0.999 . S
C918 H888 0.950 . S
C918 C917 1.524 . S
C918 C919 1.415 . S
C919 H889 0.950 . S
C919 C914 1.363 . S
C919 C918 1.415 . S
H920 C917 0.999 . S
H921 C902 0.913 . S
H922 C940 0.951 . S
H923 C942 0.951 . S
H924 C944 0.950 . S
H925 C945 0.950 . S
H926 C947 0.950 . S
H927 C950 0.950 . S
H928 C951 0.950 . S
H929 C953 0.950 . S
H930 C954 0.950 . S
H931 C955 0.951 . S
H932 C957 0.951 . S
H933 C959 0.950 . S
H934 C960 0.950 . S
H935 C962 0.950 . S
H936 C965 0.950 . S
H937 C966 0.950 . S
H938 C968 0.950 . S
H939 C969 0.950 . S
C940 H922 0.951 . S
C940 C941 1.366 . S
C940 C942 1.388 . S
C941 C940 1.366 . S
C941 C945 1.385 . S
C942 H923 0.951 . S
C942 C940 1.388 . S
C942 C943 1.366 . S
C943 C942 1.366 . S
C943 C944 1.414 . S
C943 C946 1.499 . S
C944 H924 0.950 . S
C944 C943 1.414 . S
C944 C945 1.374 . S
C945 H925 0.950 . S
C945 C941 1.385 . S
C945 C944 1.374 . S
C946 C943 1.499 . S
C946 C947 1.373 . S
C946 C948 1.389 . S
C947 H926 0.950 . S
C947 C946 1.373 . S
C947 C963 1.377 . S
C948 C946 1.389 . S
C948 C949 1.524 . S
C948 C962 1.377 . S
C949 C948 1.524 . S
C949 C950 1.397 . S
C949 C954 1.363 . S
C950 H927 0.950 . S
C950 C949 1.397 . S
C950 C951 1.334 . S
C951 H928 0.950 . S
C951 C950 1.334 . S
C951 C952 1.287 . S
C952 C951 1.287 . S
C952 C953 1.524 . S
C952 H971 0.913 . S
C953 H929 0.950 . S
C953 C952 1.524 . S
C953 C954 1.415 . S
C954 H930 0.950 . S
C954 C949 1.363 . S
C954 C953 1.415 . S
C955 H931 0.951 . S
C955 C956 1.366 . S
C955 C957 1.388 . S
C956 C955 1.366 . S
C956 C960 1.385 . S
C957 H932 0.951 . S
C957 C955 1.388 . S
C957 C958 1.366 . S
C958 C957 1.366 . S
C958 C959 1.414 . S
C958 C961 1.499 . S
C959 H933 0.950 . S
C959 C958 1.414 . S
C959 C960 1.374 . S
C960 H934 0.950 . S
C960 C956 1.385 . S
C960 C959 1.374 . S
C961 C958 1.499 . S
C961 C962 1.373 . S
C961 C963 1.389 . S
C962 H935 0.950 . S
C962 C948 1.377 . S
C962 C961 1.373 . S
C963 C947 1.377 . S
C963 C961 1.389 . S
C963 C964 1.524 . S
C964 C963 1.524 . S
C964 C965 1.397 . S
C964 C969 1.363 . S
C965 H936 0.950 . S
C965 C964 1.397 . S
C965 C966 1.334 . S
C966 H937 0.950 . S
C966 C965 1.334 . S
C966 C967 1.287 . S
C967 C966 1.287 . S
C967 C968 1.524 . S
C967 H970 0.999 . S
C968 H938 0.950 . S
C968 C967 1.524 . S
C968 C969 1.415 . S
C969 H939 0.950 . S
C969 C964 1.363 . S
C969 C968 1.415 . S
H970 C967 0.999 . S
H971 C952 0.913 . S
H972 C990 0.951 . S
H973 C992 0.951 . S
H974 C994 0.950 . S
H975 C995 0.950 . S
H976 C997 0.950 . S
H977 C1000 0.950 . S
H978 C1001 0.950 . S
H979 C1003 0.950 . S
H980 C1004 0.950 . S
H981 C1005 0.951 . S
H982 C1007 0.951 . S
H983 C1009 0.950 . S
H984 C1010 0.950 . S
H985 C1012 0.950 . S
H986 C1015 0.950 . S
H987 C1016 0.950 . S
H988 C1018 0.950 . S
H989 C1019 0.950 . S
C990 H972 0.951 . S
C990 C991 1.366 . S
C990 C992 1.388 . S
C991 C990 1.366 . S
C991 C995 1.385 . S
C992 H973 0.951 . S
C992 C990 1.388 . S
C992 C993 1.366 . S
C993 C992 1.366 . S
C993 C994 1.414 . S
C993 C996 1.499 . S
C994 H974 0.950 . S
C994 C993 1.414 . S
C994 C995 1.374 . S
C995 H975 0.950 . S
C995 C991 1.385 . S
C995 C994 1.374 . S
C996 C993 1.499 . S
C996 C997 1.373 . S
C996 C998 1.389 . S
C997 H976 0.950 . S
C997 C996 1.373 . S
C997 C1013 1.377 . S
C998 C996 1.389 . S
C998 C999 1.524 . S
C998 C1012 1.377 . S
C999 C998 1.524 . S
C999 C1000 1.397 . S
C999 C1004 1.363 . S
C1000 H977 0.950 . S
C1000 C999 1.397 . S
C1000 C1001 1.334 . S
C1001 H978 0.950 . S
C1001 C1000 1.334 . S
C1001 C1002 1.287 . S
C1002 C1001 1.287 . S
C1002 C1003 1.524 . S
C1002 H1021 0.913 . S
C1003 H979 0.950 . S
C1003 C1002 1.524 . S
C1003 C1004 1.415 . S
C1004 H980 0.950 . S
C1004 C999 1.363 . S
C1004 C1003 1.415 . S
C1005 H981 0.951 . S
C1005 C1006 1.366 . S
C1005 C1007 1.388 . S
C1006 C1005 1.366 . S
C1006 C1010 1.385 . S
C1007 H982 0.951 . S
C1007 C1005 1.388 . S
C1007 C1008 1.366 . S
C1008 C1007 1.366 . S
C1008 C1009 1.414 . S
C1008 C1011 1.499 . S
C1009 H983 0.950 . S
C1009 C1008 1.414 . S
C1009 C1010 1.374 . S
C1010 H984 0.950 . S
C1010 C1006 1.385 . S
C1010 C1009 1.374 . S
C1011 C1008 1.499 . S
C1011 C1012 1.373 . S
C1011 C1013 1.389 . S
C1012 H985 0.950 . S
C1012 C998 1.377 . S
C1012 C1011 1.373 . S
C1013 C997 1.377 . S
C1013 C1011 1.389 . S
C1013 C1014 1.524 . S
C1014 C1013 1.524 . S
C1014 C1015 1.397 . S
C1014 C1019 1.363 . S
C1015 H986 0.950 . S
C1015 C1014 1.397 . S
C1015 C1016 1.334 . S
C1016 H987 0.950 . S
C1016 C1015 1.334 . S
C1016 C1017 1.287 . S
C1017 C1016 1.287 . S
C1017 C1018 1.524 . S
C1017 H1020 0.999 . S
C1018 H988 0.950 . S
C1018 C1017 1.524 . S
C1018 C1019 1.415 . S
C1019 H989 0.950 . S
C1019 C1014 1.363 . S
C1019 C1018 1.415 . S
H1020 C1017 0.999 . S
H1021 C1002 0.913 . S
H1022 C1040 0.951 . S
H1023 C1042 0.951 . S
H1024 C1044 0.950 . S
H1025 C1045 0.950 . S
H1026 C1047 0.950 . S
H1027 C1050 0.950 . S
H1028 C1051 0.950 . S
H1029 C1053 0.950 . S
H1030 C1054 0.950 . S
H1031 C1055 0.951 . S
H1032 C1057 0.951 . S
H1033 C1059 0.950 . S
H1034 C1060 0.950 . S
H1035 C1062 0.950 . S
H1036 C1065 0.950 . S
H1037 C1066 0.950 . S
H1038 C1068 0.950 . S
H1039 C1069 0.950 . S
C1040 H1022 0.951 . S
C1040 C1041 1.366 . S
C1040 C1042 1.388 . S
C1041 C1040 1.366 . S
C1041 C1045 1.385 . S
C1042 H1023 0.951 . S
C1042 C1040 1.388 . S
C1042 C1043 1.366 . S
C1043 C1042 1.366 . S
C1043 C1044 1.414 . S
C1043 C1046 1.499 . S
C1044 H1024 0.950 . S
C1044 C1043 1.414 . S
C1044 C1045 1.374 . S
C1045 H1025 0.950 . S
C1045 C1041 1.385 . S
C1045 C1044 1.374 . S
C1046 C1043 1.499 . S
C1046 C1047 1.373 . S
C1046 C1048 1.389 . S
C1047 H1026 0.950 . S
C1047 C1046 1.373 . S
C1047 C1063 1.377 . S
C1048 C1046 1.389 . S
C1048 C1049 1.524 . S
C1048 C1062 1.377 . S
C1049 C1048 1.524 . S
C1049 C1050 1.397 . S
C1049 C1054 1.363 . S
C1050 H1027 0.950 . S
C1050 C1049 1.397 . S
C1050 C1051 1.334 . S
C1051 H1028 0.950 . S
C1051 C1050 1.334 . S
C1051 C1052 1.287 . S
C1052 C1051 1.287 . S
C1052 C1053 1.524 . S
C1052 H1071 0.913 . S
C1053 H1029 0.950 . S
C1053 C1052 1.524 . S
C1053 C1054 1.415 . S
C1054 H1030 0.950 . S
C1054 C1049 1.363 . S
C1054 C1053 1.415 . S
C1055 H1031 0.951 . S
C1055 C1056 1.366 . S
C1055 C1057 1.388 . S
C1056 C1055 1.366 . S
C1056 C1060 1.385 . S
C1057 H1032 0.951 . S
C1057 C1055 1.388 . S
C1057 C1058 1.366 . S
C1058 C1057 1.366 . S
C1058 C1059 1.414 . S
C1058 C1061 1.499 . S
C1059 H1033 0.950 . S
C1059 C1058 1.414 . S
C1059 C1060 1.374 . S
C1060 H1034 0.950 . S
C1060 C1056 1.385 . S
C1060 C1059 1.374 . S
C1061 C1058 1.499 . S
C1061 C1062 1.373 . S
C1061 C1063 1.389 . S
C1062 H1035 0.950 . S
C1062 C1048 1.377 . S
C1062 C1061 1.373 . S
C1063 C1047 1.377 . S
C1063 C1061 1.389 . S
C1063 C1064 1.524 . S
C1064 C1063 1.524 . S
C1064 C1065 1.397 . S
C1064 C1069 1.363 . S
C1065 H1036 0.950 . S
C1065 C1064 1.397 . S
C1065 C1066 1.334 . S
C1066 H1037 0.950 . S
C1066 C1065 1.334 . S
C1066 C1067 1.287 . S
C1067 C1066 1.287 . S
C1067 C1068 1.524 . S
C1067 H1070 0.999 . S
C1068 H1038 0.950 . S
C1068 C1067 1.524 . S
C1068 C1069 1.415 . S
C1069 H1039 0.950 . S
C1069 C1064 1.363 . S
C1069 C1068 1.415 . S
H1070 C1067 0.999 . S
H1071 C1052 0.913 . S
H1072 C1090 0.951 . S
H1073 C1092 0.951 . S
H1074 C1094 0.950 . S
H1075 C1095 0.950 . S
H1076 C1097 0.950 . S
H1077 C1100 0.950 . S
H1078 C1101 0.950 . S
H1079 C1103 0.950 . S
H1080 C1104 0.950 . S
H1081 C1105 0.951 . S
H1082 C1107 0.951 . S
H1083 C1109 0.950 . S
H1084 C1110 0.950 . S
H1085 C1112 0.950 . S
H1086 C1115 0.950 . S
H1087 C1116 0.950 . S
H1088 C1118 0.950 . S
H1089 C1119 0.950 . S
C1090 H1072 0.951 . S
C1090 C1091 1.366 . S
C1090 C1092 1.388 . S
C1091 C1090 1.366 . S
C1091 C1095 1.385 . S
C1092 H1073 0.951 . S
C1092 C1090 1.388 . S
C1092 C1093 1.366 . S
C1093 C1092 1.366 . S
C1093 C1094 1.414 . S
C1093 C1096 1.499 . S
C1094 H1074 0.950 . S
C1094 C1093 1.414 . S
C1094 C1095 1.374 . S
C1095 H1075 0.950 . S
C1095 C1091 1.385 . S
C1095 C1094 1.374 . S
C1096 C1093 1.499 . S
C1096 C1097 1.373 . S
C1096 C1098 1.389 . S
C1097 H1076 0.950 . S
C1097 C1096 1.373 . S
C1097 C1113 1.377 . S
C1098 C1096 1.389 . S
C1098 C1099 1.524 . S
C1098 C1112 1.377 . S
C1099 C1098 1.524 . S
C1099 C1100 1.397 . S
C1099 C1104 1.363 . S
C1100 H1077 0.950 . S
C1100 C1099 1.397 . S
C1100 C1101 1.334 . S
C1101 H1078 0.950 . S
C1101 C1100 1.334 . S
C1101 C1102 1.287 . S
C1102 C1101 1.287 . S
C1102 C1103 1.524 . S
C1102 H1121 0.913 . S
C1103 H1079 0.950 . S
C1103 C1102 1.524 . S
C1103 C1104 1.415 . S
C1104 H1080 0.950 . S
C1104 C1099 1.363 . S
C1104 C1103 1.415 . S
C1105 H1081 0.951 . S
C1105 C1106 1.366 . S
C1105 C1107 1.388 . S
C1106 C1105 1.366 . S
C1106 C1110 1.385 . S
C1107 H1082 0.951 . S
C1107 C1105 1.388 . S
C1107 C1108 1.366 . S
C1108 C1107 1.366 . S
C1108 C1109 1.414 . S
C1108 C1111 1.499 . S
C1109 H1083 0.950 . S
C1109 C1108 1.414 . S
C1109 C1110 1.374 . S
C1110 H1084 0.950 . S
C1110 C1106 1.385 . S
C1110 C1109 1.374 . S
C1111 C1108 1.499 . S
C1111 C1112 1.373 . S
C1111 C1113 1.389 . S
C1112 H1085 0.950 . S
C1112 C1098 1.377 . S
C1112 C1111 1.373 . S
C1113 C1097 1.377 . S
C1113 C1111 1.389 . S
C1113 C1114 1.524 . S
C1114 C1113 1.524 . S
C1114 C1115 1.397 . S
C1114 C1119 1.363 . S
C1115 H1086 0.950 . S
C1115 C1114 1.397 . S
C1115 C1116 1.334 . S
C1116 H1087 0.950 . S
C1116 C1115 1.334 . S
C1116 C1117 1.287 . S
C1117 C1116 1.287 . S
C1117 C1118 1.524 . S
C1117 H1120 0.999 . S
C1118 H1088 0.950 . S
C1118 C1117 1.524 . S
C1118 C1119 1.415 . S
C1119 H1089 0.950 . S
C1119 C1114 1.363 . S
C1119 C1118 1.415 . S
H1120 C1117 0.999 . S
H1121 C1102 0.913 . S
H1122 C1140 0.951 . S
H1123 C1142 0.951 . S
H1124 C1144 0.950 . S
H1125 C1145 0.950 . S
H1126 C1147 0.950 . S
H1127 C1150 0.950 . S
H1128 C1151 0.950 . S
H1129 C1153 0.950 . S
H1130 C1154 0.950 . S
H1131 C1155 0.951 . S
H1132 C1157 0.951 . S
H1133 C1159 0.950 . S
H1134 C1160 0.950 . S
H1135 C1162 0.950 . S
H1136 C1165 0.950 . S
H1137 C1166 0.950 . S
H1138 C1168 0.950 . S
H1139 C1169 0.950 . S
C1140 H1122 0.951 . S
C1140 C1141 1.366 . S
C1140 C1142 1.388 . S
C1141 C1140 1.366 . S
C1141 C1145 1.385 . S
C1142 H1123 0.951 . S
C1142 C1140 1.388 . S
C1142 C1143 1.366 . S
C1143 C1142 1.366 . S
C1143 C1144 1.414 . S
C1143 C1146 1.499 . S
C1144 H1124 0.950 . S
C1144 C1143 1.414 . S
C1144 C1145 1.374 . S
C1145 H1125 0.950 . S
C1145 C1141 1.385 . S
C1145 C1144 1.374 . S
C1146 C1143 1.499 . S
C1146 C1147 1.373 . S
C1146 C1148 1.389 . S
C1147 H1126 0.950 . S
C1147 C1146 1.373 . S
C1147 C1163 1.377 . S
C1148 C1146 1.389 . S
C1148 C1149 1.524 . S
C1148 C1162 1.377 . S
C1149 C1148 1.524 . S
C1149 C1150 1.397 . S
C1149 C1154 1.363 . S
C1150 H1127 0.950 . S
C1150 C1149 1.397 . S
C1150 C1151 1.334 . S
C1151 H1128 0.950 . S
C1151 C1150 1.334 . S
C1151 C1152 1.287 . S
C1152 C1151 1.287 . S
C1152 C1153 1.524 . S
C1152 H1171 0.913 . S
C1153 H1129 0.950 . S
C1153 C1152 1.524 . S
C1153 C1154 1.415 . S
C1154 H1130 0.950 . S
C1154 C1149 1.363 . S
C1154 C1153 1.415 . S
C1155 H1131 0.951 . S
C1155 C1156 1.366 . S
C1155 C1157 1.388 . S
C1156 C1155 1.366 . S
C1156 C1160 1.385 . S
C1157 H1132 0.951 . S
C1157 C1155 1.388 . S
C1157 C1158 1.366 . S
C1158 C1157 1.366 . S
C1158 C1159 1.414 . S
C1158 C1161 1.499 . S
C1159 H1133 0.950 . S
C1159 C1158 1.414 . S
C1159 C1160 1.374 . S
C1160 H1134 0.950 . S
C1160 C1156 1.385 . S
C1160 C1159 1.374 . S
C1161 C1158 1.499 . S
C1161 C1162 1.373 . S
C1161 C1163 1.389 . S
C1162 H1135 0.950 . S
C1162 C1148 1.377 . S
C1162 C1161 1.373 . S
C1163 C1147 1.377 . S
C1163 C1161 1.389 . S
C1163 C1164 1.524 . S
C1164 C1163 1.524 . S
C1164 C1165 1.397 . S
C1164 C1169 1.363 . S
C1165 H1136 0.950 . S
C1165 C1164 1.397 . S
C1165 C1166 1.334 . S
C1166 H1137 0.950 . S
C1166 C1165 1.334 . S
C1166 C1167 1.287 . S
C1167 C1166 1.287 . S
C1167 C1168 1.524 . S
C1167 H1170 0.999 . S
C1168 H1138 0.950 . S
C1168 C1167 1.524 . S
C1168 C1169 1.415 . S
C1169 H1139 0.950 . S
C1169 C1164 1.363 . S
C1169 C1168 1.415 . S
H1170 C1167 0.999 . S
H1171 C1152 0.913 . S
H1172 C1190 0.951 . S
H1173 C1192 0.951 . S
H1174 C1194 0.950 . S
H1175 C1195 0.950 . S
H1176 C1197 0.950 . S
H1177 C1200 0.950 . S
H1178 C1201 0.950 . S
H1179 C1203 0.950 . S
H1180 C1204 0.950 . S
H1181 C1205 0.951 . S
H1182 C1207 0.951 . S
H1183 C1209 0.950 . S
H1184 C1210 0.950 . S
H1185 C1212 0.950 . S
H1186 C1215 0.950 . S
H1187 C1216 0.950 . S
H1188 C1218 0.950 . S
H1189 C1219 0.950 . S
C1190 H1172 0.951 . S
C1190 C1191 1.366 . S
C1190 C1192 1.388 . S
C1191 C1190 1.366 . S
C1191 C1195 1.385 . S
C1192 H1173 0.951 . S
C1192 C1190 1.388 . S
C1192 C1193 1.366 . S
C1193 C1192 1.366 . S
C1193 C1194 1.414 . S
C1193 C1196 1.499 . S
C1194 H1174 0.950 . S
C1194 C1193 1.414 . S
C1194 C1195 1.374 . S
C1195 H1175 0.950 . S
C1195 C1191 1.385 . S
C1195 C1194 1.374 . S
C1196 C1193 1.499 . S
C1196 C1197 1.373 . S
C1196 C1198 1.389 . S
C1197 H1176 0.950 . S
C1197 C1196 1.373 . S
C1197 C1213 1.377 . S
C1198 C1196 1.389 . S
C1198 C1199 1.524 . S
C1198 C1212 1.377 . S
C1199 C1198 1.524 . S
C1199 C1200 1.397 . S
C1199 C1204 1.363 . S
C1200 H1177 0.950 . S
C1200 C1199 1.397 . S
C1200 C1201 1.334 . S
C1201 H1178 0.950 . S
C1201 C1200 1.334 . S
C1201 C1202 1.287 . S
C1202 C1201 1.287 . S
C1202 C1203 1.524 . S
C1202 H1221 0.913 . S
C1203 H1179 0.950 . S
C1203 C1202 1.524 . S
C1203 C1204 1.415 . S
C1204 H1180 0.950 . S
C1204 C1199 1.363 . S
C1204 C1203 1.415 . S
C1205 H1181 0.951 . S
C1205 C1206 1.366 . S
C1205 C1207 1.388 . S
C1206 C1205 1.366 . S
C1206 C1210 1.385 . S
C1207 H1182 0.951 . S
C1207 C1205 1.388 . S
C1207 C1208 1.366 . S
C1208 C1207 1.366 . S
C1208 C1209 1.414 . S
C1208 C1211 1.499 . S
C1209 H1183 0.950 . S
C1209 C1208 1.414 . S
C1209 C1210 1.374 . S
C1210 H1184 0.950 . S
C1210 C1206 1.385 . S
C1210 C1209 1.374 . S
C1211 C1208 1.499 . S
C1211 C1212 1.373 . S
C1211 C1213 1.389 . S
C1212 H1185 0.950 . S
C1212 C1198 1.377 . S
C1212 C1211 1.373 . S
C1213 C1197 1.377 . S
C1213 C1211 1.389 . S
C1213 C1214 1.524 . S
C1214 C1213 1.524 . S
C1214 C1215 1.397 . S
C1214 C1219 1.363 . S
C1215 H1186 0.950 . S
C1215 C1214 1.397 . S
C1215 C1216 1.334 . S
C1216 H1187 0.950 . S
C1216 C1215 1.334 . S
C1216 C1217 1.287 . S
C1217 C1216 1.287 . S
C1217 C1218 1.524 . S
C1217 H1220 0.999 . S
C1218 H1188 0.950 . S
C1218 C1217 1.524 . S
C1218 C1219 1.415 . S
C1219 H1189 0.950 . S
C1219 C1214 1.363 . S
C1219 C1218 1.415 . S
H1220 C1217 0.999 . S
H1221 C1202 0.913 . S
H1222 C1240 0.951 . S
H1223 C1242 0.951 . S
H1224 C1244 0.950 . S
H1225 C1245 0.950 . S
H1226 C1247 0.950 . S
H1227 C1250 0.950 . S
H1228 C1251 0.950 . S
H1229 C1253 0.950 . S
H1230 C1254 0.950 . S
H1231 C1255 0.951 . S
H1232 C1257 0.951 . S
H1233 C1259 0.950 . S
H1234 C1260 0.950 . S
H1235 C1262 0.950 . S
H1236 C1265 0.950 . S
H1237 C1266 0.950 . S
H1238 C1268 0.950 . S
H1239 C1269 0.950 . S
C1240 H1222 0.951 . S
C1240 C1241 1.366 . S
C1240 C1242 1.388 . S
C1241 C1240 1.366 . S
C1241 C1245 1.385 . S
C1242 H1223 0.951 . S
C1242 C1240 1.388 . S
C1242 C1243 1.366 . S
C1243 C1242 1.366 . S
C1243 C1244 1.414 . S
C1243 C1246 1.499 . S
C1244 H1224 0.950 . S
C1244 C1243 1.414 . S
C1244 C1245 1.374 . S
C1245 H1225 0.950 . S
C1245 C1241 1.385 . S
C1245 C1244 1.374 . S
C1246 C1243 1.499 . S
C1246 C1247 1.373 . S
C1246 C1248 1.389 . S
C1247 H1226 0.950 . S
C1247 C1246 1.373 . S
C1247 C1263 1.377 . S
C1248 C1246 1.389 . S
C1248 C1249 1.524 . S
C1248 C1262 1.377 . S
C1249 C1248 1.524 . S
C1249 C1250 1.397 . S
C1249 C1254 1.363 . S
C1250 H1227 0.950 . S
C1250 C1249 1.397 . S
C1250 C1251 1.334 . S
C1251 H1228 0.950 . S
C1251 C1250 1.334 . S
C1251 C1252 1.287 . S
C1252 C1251 1.287 . S
C1252 C1253 1.524 . S
C1252 H1271 0.913 . S
C1253 H1229 0.950 . S
C1253 C1252 1.524 . S
C1253 C1254 1.415 . S
C1254 H1230 0.950 . S
C1254 C1249 1.363 . S
C1254 C1253 1.415 . S
C1255 H1231 0.951 . S
C1255 C1256 1.366 . S
C1255 C1257 1.388 . S
C1256 C1255 1.366 . S
C1256 C1260 1.385 . S
C1257 H1232 0.951 . S
C1257 C1255 1.388 . S
C1257 C1258 1.366 . S
C1258 C1257 1.366 . S
C1258 C1259 1.414 . S
C1258 C1261 1.499 . S
C1259 H1233 0.950 . S
C1259 C1258 1.414 . S
C1259 C1260 1.374 . S
C1260 H1234 0.950 . S
C1260 C1256 1.385 . S
C1260 C1259 1.374 . S
C1261 C1258 1.499 . S
C1261 C1262 1.373 . S
C1261 C1263 1.389 . S
C1262 H1235 0.950 . S
C1262 C1248 1.377 . S
C1262 C1261 1.373 . S
C1263 C1247 1.377 . S
C1263 C1261 1.389 . S
C1263 C1264 1.524 . S
C1264 C1263 1.524 . S
C1264 C1265 1.397 . S
C1264 C1269 1.363 . S
C1265 H1236 0.950 . S
C1265 C1264 1.397 . S
C1265 C1266 1.334 . S
C1266 H1237 0.950 . S
C1266 C1265 1.334 . S
C1266 C1267 1.287 . S
C1267 C1266 1.287 . S
C1267 C1268 1.524 . S
C1267 H1270 0.999 . S
C1268 H1238 0.950 . S
C1268 C1267 1.524 . S
C1268 C1269 1.415 . S
C1269 H1239 0.950 . S
C1269 C1264 1.363 . S
C1269 C1268 1.415 . S
H1270 C1267 0.999 . S
H1271 C1252 0.913 . S
C291 C141 1.138 . S
C306 C5 1.139 . S
C341 C39 1.138 . S
C356 C175 1.138 . S
C391 C73 1.139 . S
C406 C209 1.138 . S
C441 C107 1.138 . S
C456 C243 1.138 . S
C491 C20 1.107 . S
C506 C224 1.107 . S
C541 C54 1.108 . S
C556 C258 1.107 . S
C591 C156 1.107 . S
C606 C88 1.107 . S
C641 C190 1.107 . S
C656 C122 1.107 . S
C691 C240 0.554 . S
C706 C2 0.554 . S
C741 C36 0.554 . S
C756 C138 0.553 . S
C791 C172 0.554 . S
C806 C70 0.554 . S
C841 C206 0.553 . S
C856 C104 0.553 . S
C891 C33 1.272 . S
C906 C43 1.275 . S
C941 C67 1.273 . S
C956 C77 1.275 . S
C991 C111 1.275 . S
C1006 C101 1.272 . S
C1041 C9 1.275 . S
C1056 C135 1.273 . S
C1091 C169 1.272 . S
C1106 C247 1.276 . S
C1141 C145 1.275 . S
C1156 C203 1.273 . S
C1191 C237 1.272 . S
C1206 C179 1.275 . S
C1241 C271 1.273 . S
C1256 C213 1.274 . S
