# Generated by pormake.
# Topology smu, (6)-cn, num edge types: 1
# Building blocks:
#     Node 0, Type 0, BuildingBlock: NUHQIS_clean_sbu_0, # of connection points: 6
#     Node 1, Type 0, BuildingBlock: NUHQIS_clean_sbu_0, # of connection points: 6
#     Node 2, Type 0, BuildingBlock: NUHQIS_clean_sbu_0, # of connection points: 6
#     Node 3, Type 0, BuildingBlock: NUHQIS_clean_sbu_0, # of connection points: 6
#     Node 4, Type 0, BuildingBlock: NUHQIS_clean_sbu_0, # of connection points: 6
#     Node 5, Type 0, BuildingBlock: NUHQIS_clean_sbu_0, # of connection points: 6
#     Edge 6, Type (0, 0), BuildingBlock: KIFKEQ_clean_linker_1, # of connection points: 2
#     Edge 7, Type (0, 0), BuildingBlock: KIFKEQ_clean_linker_1, # of connection points: 2
#     Edge 8, Type (0, 0), BuildingBlock: KIFKEQ_clean_linker_1, # of connection points: 2
#     Edge 9, Type (0, 0), BuildingBlock: KIFKEQ_clean_linker_1, # of connection points: 2
#     Edge 10, Type (0, 0), BuildingBlock: KIFKEQ_clean_linker_1, # of connection points: 2
#     Edge 11, Type (0, 0), BuildingBlock: KIFKEQ_clean_linker_1, # of connection points: 2
#     Edge 12, Type (0, 0), BuildingBlock: KIFKEQ_clean_linker_1, # of connection points: 2
#     Edge 13, Type (0, 0), BuildingBlock: KIFKEQ_clean_linker_1, # of connection points: 2
#     Edge 14, Type (0, 0), BuildingBlock: KIFKEQ_clean_linker_1, # of connection points: 2
#     Edge 15, Type (0, 0), BuildingBlock: KIFKEQ_clean_linker_1, # of connection points: 2
#     Edge 16, Type (0, 0), BuildingBlock: KIFKEQ_clean_linker_1, # of connection points: 2
#     Edge 17, Type (0, 0), BuildingBlock: KIFKEQ_clean_linker_1, # of connection points: 2
#     Edge 18, Type (0, 0), BuildingBlock: KIFKEQ_clean_linker_1, # of connection points: 2
#     Edge 19, Type (0, 0), BuildingBlock: KIFKEQ_clean_linker_1, # of connection points: 2
#     Edge 20, Type (0, 0), BuildingBlock: KIFKEQ_clean_linker_1, # of connection points: 2
#     Edge 21, Type (0, 0), BuildingBlock: KIFKEQ_clean_linker_1, # of connection points: 2
#     Edge 22, Type (0, 0), BuildingBlock: KIFKEQ_clean_linker_1, # of connection points: 2
#     Edge 23, Type (0, 0), BuildingBlock: KIFKEQ_clean_linker_1, # of connection points: 2
# Relax obj value: 0.221
# Max RMSD: 0.312
# Mean RMSD: 0.312
data_MOF--net-smu--node1-NUHQIS_clean_sbu_0--edge1-KIFKEQ_clean_linker_1
_symmetry_space_group_name_H-M    P1
_symmetry_Int_Tables_number       1
_symmetry_cell_setting            triclinic
loop_
_symmetry_equiv_pos_as_xyz
'x, y, z'
_cell_length_a     40.195186
_cell_length_b     40.194085
_cell_length_c     28.356804
_cell_angle_alpha  90.050916
_cell_angle_beta   90.252281
_cell_angle_gamma 119.95814
loop_
_atom_site_label
_atom_site_type_symbol
_atom_site_fract_x
_atom_site_fract_y
_atom_site_fract_z
_atom_type_partial_charge
Tb0 Tb 0.32063 0.11656 0.26575 0.0
Eu1 Eu 0.3847 0.08788 0.2633 0.0
C2 C 0.33833 0.08305 0.35749 0.0
C3 C 0.40821 0.17493 0.26973 0.0
C4 C 0.24905 0.15587 0.25757 0.0
C5 C 0.193 0.15868 0.28419 0.0
C6 C 0.21916 0.14569 0.28987 0.0
C7 C 0.25126 0.17818 0.21822 0.0
C8 C 0.22485 0.19108 0.21234 0.0
C9 C 0.19588 0.18225 0.2459 0.0
C10 C 0.28123 0.14959 0.27079 0.0
O11 O 0.32388 0.10509 0.18986 0.0
O12 O 0.35858 0.07323 0.19116 0.0
O13 O 0.32565 0.03332 0.26955 0.0
O14 O 0.28525 0.05675 0.24769 0.0
C15 C 0.33722 0.08454 0.16901 0.0
O16 O 0.42335 0.07278 0.22707 0.0
O17 O 0.42464 0.0761 0.30298 0.0
O18 O 0.37221 0.09312 0.33971 0.0
O19 O 0.31241 0.08648 0.33282 0.0
O20 O 0.37596 0.16132 0.29279 0.0
O21 O 0.4152 0.15119 0.24614 0.0
C22 C 0.29149 0.02829 0.25727 0.0
O23 O 0.27413 0.11927 0.2952 0.0
O24 O 0.31036 0.16039 0.24243 0.0
C25 C 0.48428 0.09425 0.26494 0.0
C26 C 0.56602 0.13129 0.26396 0.0
C27 C 0.54524 0.13041 0.22336 0.0
C28 C 0.50498 0.11214 0.2238 0.0
C29 C 0.50499 0.09542 0.30562 0.0
C30 C 0.54524 0.11376 0.30522 0.0
C31 C 0.4414 0.07288 0.26542 0.0
H32 H 0.17171 0.15177 0.31137 0.0
H33 H 0.2172 0.12938 0.32118 0.0
H34 H 0.27431 0.18704 0.193 0.0
H35 H 0.2277 0.2087 0.18208 0.0
H36 H 0.56008 0.14396 0.19106 0.0
H37 H 0.49013 0.11182 0.1917 0.0
H38 H 0.48996 0.08161 0.33775 0.0
H39 H 0.56 0.11327 0.33702 0.0
Tb40 Tb 0.82164 0.71078 0.25914 0.0
Eu41 Eu 0.72963 0.64604 0.27054 0.0
C42 C 0.7808 0.69533 0.35807 0.0
C43 C 0.79388 0.62297 0.25902 0.0
C44 C 0.93253 0.78454 0.25466 0.0
C45 C 0.9919 0.8154 0.30081 0.0
C46 C 0.95215 0.79015 0.29779 0.0
C47 C 0.95313 0.80619 0.21544 0.0
C48 C 0.99278 0.83127 0.2184 0.0
C49 C 1.01291 0.83526 0.26069 0.0
C50 C 0.89344 0.75135 0.24707 0.0
O51 O 0.7966 0.69462 0.18731 0.0
O52 O 0.7347 0.67791 0.20432 0.0
O53 O 0.73214 0.70397 0.28083 0.0
O54 O 0.7964 0.74718 0.26341 0.0
C55 C 0.76333 0.69133 0.17471 0.0
O56 O 0.67432 0.60582 0.23848 0.0
O57 O 0.68065 0.6069 0.31426 0.0
O58 O 0.75739 0.66028 0.34261 0.0
O59 O 0.80699 0.72142 0.33009 0.0
O60 O 0.81624 0.65612 0.27906 0.0
O61 O 0.76009 0.61522 0.24324 0.0
C62 C 0.76119 0.73926 0.27343 0.0
O63 O 0.87745 0.7262 0.28055 0.0
O64 O 0.86832 0.75448 0.22104 0.0
C65 C 0.63685 0.54607 0.27795 0.0
C66 C 0.59173 0.46432 0.27742 0.0
C67 C 0.59357 0.48585 0.23737 0.0
C68 C 0.61565 0.52606 0.23771 0.0
C69 C 0.63528 0.52466 0.318 0.0
C70 C 0.61307 0.48436 0.3177 0.0
C71 C 0.65863 0.58899 0.27811 0.0
H72 H 1.00646 0.81772 0.33392 0.0
H73 H 0.93723 0.77357 0.32858 0.0
H74 H 0.93893 0.80216 0.18162 0.0
H75 H 1.00789 0.8467 0.18705 0.0
H76 H 0.57713 0.47171 0.20595 0.0
H77 H 0.6157 0.54158 0.20647 0.0
H78 H 0.65098 0.53899 0.34977 0.0
H79 H 0.61277 0.4689 0.34909 0.0
Tb80 Tb 0.91341 0.20853 0.26102 0.0
Eu81 Eu 0.94303 0.30132 0.26525 0.0
C82 C 0.95222 0.25795 0.35524 0.0
C83 C 0.85552 0.23773 0.26092 0.0
C84 C 0.87337 0.09725 0.2679 0.0
C85 C 0.84345 0.03975 0.31694 0.0
C86 C 0.85647 0.07906 0.31067 0.0
C87 C 0.87784 0.07561 0.23223 0.0
C88 C 0.86463 0.03649 0.23826 0.0
C89 C 0.84665 0.01769 0.28039 0.0
C90 C 0.88005 0.13603 0.25593 0.0
O91 O 0.94002 0.23076 0.19216 0.0
O92 O 0.93332 0.28409 0.18864 0.0
O93 O 0.99722 0.29644 0.25463 0.0
O94 O 0.97398 0.23208 0.2733 0.0
C95 C 0.94268 0.26034 0.16885 0.0
O96 O 0.962 0.35655 0.23001 0.0
O97 O 0.95017 0.35115 0.30474 0.0
O98 O 0.9658 0.29025 0.33182 0.0
O99 O 0.92577 0.22464 0.3369 0.0
O100 O 0.86828 0.21908 0.2362 0.0
O101 O 0.88006 0.26799 0.28487 0.0
C102 C 1.00228 0.26677 0.26357 0.0
O103 O 0.87024 0.15461 0.28538 0.0
O104 O 0.90977 0.15898 0.23065 0.0
C105 C 0.93607 0.39403 0.26195 0.0
C106 C 0.89958 0.43911 0.25384 0.0
C107 C 0.9273 0.44256 0.22088 0.0
C108 C 0.94533 0.42044 0.22499 0.0
C109 C 0.9078 0.38989 0.29438 0.0
C110 C 0.88984 0.41209 0.29037 0.0
C111 C 0.95741 0.37268 0.2675 0.0
H112 H 0.83028 0.02656 0.35012 0.0
H113 H 0.85211 0.0948 0.33867 0.0
H114 H 0.88985 0.08853 0.19845 0.0
H115 H 0.86701 0.02069 0.20879 0.0
H116 H 0.93523 0.46248 0.19178 0.0
H117 H 0.96696 0.42437 0.19946 0.0
H118 H 0.89993 0.36995 0.32346 0.0
H119 H 0.86909 0.40881 0.31683 0.0
Tb120 Tb 0.12271 0.3145 0.76899 0.0
Eu121 Eu 0.09403 0.37838 0.76198 0.0
C122 C 0.08287 0.32304 0.67424 0.0
C123 C 0.18118 0.40151 0.76903 0.0
C124 C 0.16542 0.24472 0.7664 0.0
C125 C 0.20292 0.2213 0.72502 0.0
C126 C 0.18736 0.24574 0.72729 0.0
C127 C 0.15822 0.21779 0.80214 0.0
C128 C 0.17402 0.19374 0.80011 0.0
C129 C 0.19741 0.19589 0.7622 0.0
C130 C 0.15631 0.27568 0.77537 0.0
O131 O 0.09749 0.31172 0.8383 0.0
O132 O 0.09945 0.36991 0.83968 0.0
O133 O 0.03905 0.32018 0.77172 0.0
O134 O 0.06157 0.27711 0.76197 0.0
C135 C 0.09255 0.33779 0.86036 0.0
O136 O 0.07681 0.41684 0.79483 0.0
O137 O 0.08659 0.41968 0.71973 0.0
O138 O 0.07043 0.34315 0.69677 0.0
O139 O 0.10887 0.31568 0.69299 0.0
O140 O 0.16786 0.37021 0.79398 0.0
O141 O 0.15718 0.40707 0.7437 0.0
C142 C 0.03367 0.28483 0.76828 0.0
O143 O 0.16613 0.30368 0.74539 0.0
O144 O 0.12617 0.26869 0.7999 0.0
C145 C 0.10217 0.47873 0.75822 0.0
C146 C 0.13942 0.5605 0.76109 0.0
C147 C 0.12688 0.53864 0.80279 0.0
C148 C 0.10843 0.49838 0.80136 0.0
C149 C 0.11503 0.50054 0.71661 0.0
C150 C 0.13345 0.54077 0.71802 0.0
C151 C 0.08051 0.43584 0.75603 0.0
H152 H 0.22086 0.22367 0.69537 0.0
H153 H 0.19397 0.26656 0.6995 0.0
H154 H 0.14195 0.21664 0.83307 0.0
H155 H 0.16874 0.17407 0.82895 0.0
H156 H 0.1313 0.55262 0.83674 0.0
H157 H 0.09872 0.48265 0.83412 0.0
H158 H 0.11028 0.48647 0.68264 0.0
H159 H 0.14201 0.55632 0.68506 0.0
Tb160 Tb 0.21659 0.9101 0.75971 0.0
Eu161 Eu 0.30865 0.93679 0.77322 0.0
C162 C 0.27526 0.94665 0.67547 0.0
C163 C 0.24396 0.8497 0.76201 0.0
C164 C 0.10581 0.87317 0.75434 0.0
C165 C 0.04411 0.85703 0.71924 0.0
C166 C 0.08353 0.87087 0.71494 0.0
C167 C 0.08807 0.86286 0.79875 0.0
C168 C 0.04852 0.84911 0.80316 0.0
C169 C 0.02577 0.84512 0.76323 0.0
C170 C 0.14479 0.87903 0.74633 0.0
O171 O 0.23074 0.93562 0.83074 0.0
O172 O 0.28191 0.92654 0.84561 0.0
O173 O 0.30681 0.99273 0.77983 0.0
O174 O 0.24205 0.97178 0.76468 0.0
C175 C 0.25698 0.93657 0.85982 0.0
O176 O 0.35685 0.9447 0.81806 0.0
O177 O 0.36449 0.95289 0.74283 0.0
O178 O 0.30394 0.96204 0.7054 0.0
O179 O 0.2415 0.91778 0.68829 0.0
O180 O 0.22163 0.86088 0.78102 0.0
O181 O 0.27792 0.8753 0.74684 0.0
C182 C 0.27769 0.99905 0.77301 0.0
O183 O 0.16995 0.90797 0.7216 0.0
O184 O 0.16074 0.86906 0.77924 0.0
C185 C 0.40113 0.92874 0.78156 0.0
C186 C 0.44728 0.89306 0.78007 0.0
C187 C 0.43468 0.90063 0.82301 0.0
C188 C 0.41209 0.91832 0.82373 0.0
C189 C 0.41334 0.92081 0.73863 0.0
C190 C 0.43596 0.90321 0.7379 0.0
C191 C 0.37946 0.95006 0.78243 0.0
H192 H 0.02774 0.85394 0.68749 0.0
H193 H 0.09624 0.87783 0.68015 0.0
H194 H 0.10438 0.86394 0.82979 0.0
H195 H 0.03565 0.84089 0.83773 0.0
H196 H 0.44226 0.8929 0.85627 0.0
H197 H 0.40358 0.92426 0.85747 0.0
H198 H 0.40603 0.92885 0.70537 0.0
H199 H 0.44546 0.89858 0.70412 0.0
Tb200 Tb 0.71952 0.81444 0.76176 0.0
Eu201 Eu 0.65319 0.72253 0.76683 0.0
C202 C 0.70167 0.75921 0.67171 0.0
C203 C 0.63272 0.78892 0.7675 0.0
C204 C 0.78818 0.92832 0.75686 0.0
C205 C 0.80653 0.99057 0.72205 0.0
C206 C 0.78426 0.95039 0.72117 0.0
C207 C 0.81518 0.94719 0.79305 0.0
C208 C 0.83719 0.9873 0.79415 0.0
C209 C 0.83289 1.00954 0.75893 0.0
C210 C 0.76257 0.88609 0.75832 0.0
O211 O 0.72661 0.79581 0.83209 0.0
O212 O 0.66603 0.74433 0.84167 0.0
O213 O 0.71139 0.72528 0.77713 0.0
O214 O 0.75308 0.787 0.74988 0.0
C215 C 0.7004 0.7683 0.8585 0.0
O216 O 0.61391 0.67125 0.80713 0.0
O217 O 0.61155 0.66958 0.73103 0.0
O218 O 0.68233 0.72869 0.698 0.0
O219 O 0.71198 0.79415 0.68745 0.0
O220 O 0.66621 0.80909 0.78802 0.0
O221 O 0.62422 0.7565 0.74677 0.0
C222 C 0.74594 0.75289 0.76388 0.0
O223 O 0.73229 0.86758 0.73139 0.0
O224 O 0.76906 0.86406 0.78602 0.0
C225 C 0.55236 0.63019 0.77063 0.0
C226 C 0.47058 0.58555 0.7716 0.0
C227 C 0.49124 0.60743 0.81128 0.0
C228 C 0.53156 0.62943 0.81083 0.0
C229 C 0.53175 0.60852 0.73098 0.0
C230 C 0.49153 0.58666 0.73137 0.0
C231 C 0.59524 0.6516 0.76984 0.0
H232 H 0.80241 1.00683 0.69449 0.0
H233 H 0.76357 0.93665 0.69291 0.0
H234 H 0.8188 0.93101 0.82114 0.0
H235 H 0.85766 1.00093 0.82264 0.0
H236 H 0.47625 0.60772 0.84277 0.0
H237 H 0.54638 0.6456 0.84213 0.0
H238 H 0.54684 0.60805 0.69965 0.0
H239 H 0.47693 0.5698 0.70039 0.0
H240 H 0.30411 0.93829 0.93097 0.0
H241 H 0.22323 0.97591 0.89779 0.0
H242 H 0.32129 0.97514 1.00361 0.0
H243 H 0.24201 0.01481 0.96978 0.0
H244 H 0.26665 0.05838 0.12622 0.0
H245 H 0.24358 0.02055 0.05327 0.0
H246 H 0.35734 0.03813 0.02903 0.0
H247 H 0.37939 0.07397 0.10242 0.0
C248 C 0.28982 0.95437 0.93915 0.0
C249 C 0.26257 0.95434 0.90781 0.0
C250 C 0.30014 0.97614 0.98081 0.0
C251 C 0.28407 0.99925 0.99249 0.0
C252 C 0.25529 0.99767 0.96233 0.0
C253 C 0.24452 0.97534 0.92078 0.0
C254 C 0.28681 0.05478 0.10463 0.0
C255 C 0.3249 0.06927 0.12019 0.0
C256 C 0.27356 0.03286 0.0628 0.0
C257 C 0.29821 0.02519 0.03525 0.0
C258 C 0.33689 0.04193 0.0497 0.0
C259 C 0.34985 0.06316 0.09161 0.0
H260 H 0.7028 0.69532 0.64335 0.0
H261 H 0.73321 0.80886 0.59505 0.0
H262 H 0.72524 0.68282 0.5707 0.0
H263 H 0.75467 0.79545 0.51977 0.0
H264 H 0.81817 0.76615 0.40309 0.0
H265 H 0.80094 0.78417 0.47799 0.0
H266 H 0.70668 0.66808 0.49277 0.0
H267 H 0.7247 0.65001 0.42017 0.0
C268 C 0.71369 0.71762 0.61683 0.0
C269 C 0.71534 0.75298 0.62518 0.0
C270 C 0.72658 0.71026 0.57462 0.0
C271 C 0.74118 0.73765 0.53835 0.0
C272 C 0.74368 0.77353 0.54674 0.0
C273 C 0.73108 0.78118 0.58978 0.0
C274 C 0.79424 0.74436 0.42291 0.0
C275 C 0.77335 0.70638 0.40567 0.0
C276 C 0.78399 0.75484 0.46563 0.0
C277 C 0.75249 0.72764 0.49215 0.0
C278 C 0.73171 0.68982 0.47448 0.0
C279 C 0.74207 0.67936 0.43236 0.0
H280 H 0.97614 0.33003 0.12503 0.0
H281 H 0.95462 0.21434 0.10701 0.0
H282 H 1.01432 0.34952 0.05399 0.0
H283 H 0.99091 0.23309 0.03363 0.0
H284 H 0.08568 0.28281 0.92389 0.0
H285 H 0.0497 0.26416 0.99746 0.0
H286 H 1.01716 0.35051 0.97448 0.0
H287 H 0.05502 0.37046 0.90317 0.0
C288 C 0.9787 0.30839 0.10517 0.0
C289 C 0.96185 0.27044 0.12179 0.0
C290 C 1.00072 0.3196 0.06393 0.0
C291 C 1.0061 0.2931 0.03708 0.0
C292 C 0.98841 0.25481 0.0533 0.0
C293 C 0.96699 0.24378 0.09525 0.0
C294 C 0.07139 0.29824 0.93511 0.0
C295 C 0.07383 0.32854 0.9077 0.0
C296 C 0.05014 0.28716 0.97718 0.0
C297 C 0.02994 0.3055 0.99269 0.0
C298 C 0.03272 0.33597 0.96507 0.0
C299 C 0.05456 0.34751 0.92368 0.0
H300 H 0.26999 0.0543 0.40605 0.0
H301 H 0.38297 0.06688 0.41548 0.0
H302 H 0.2528 0.01962 0.48106 0.0
H303 H 0.36556 0.03148 0.48893 0.0
H304 H 0.34174 1.00658 0.64296 0.0
H305 H 0.35476 0.03896 0.56825 0.0
H306 H 0.23886 0.96042 0.52188 0.0
H307 H 0.2251 0.92805 0.59887 0.0
C308 C 0.29128 0.04993 0.42415 0.0
C309 C 0.32816 0.06407 0.40477 0.0
C310 C 0.28121 0.02955 0.46698 0.0
C311 C 0.30773 0.02271 0.4916 0.0
C312 C 0.34446 0.03671 0.47186 0.0
C313 C 0.35452 0.05711 0.42939 0.0
C314 C 0.31877 0.99569 0.61707 0.0
C315 C 0.2823 0.96418 0.62731 0.0
C316 C 0.32646 0.01439 0.57367 0.0
C317 C 0.29816 1.00228 0.53829 0.0
C318 C 0.26143 0.9708 0.54825 0.0
C319 C 0.25359 0.95195 0.59226 0.0
H320 H 0.65375 0.7142 0.92225 0.0
H321 H 0.77144 0.80359 0.90259 0.0
H322 H 0.67133 0.6963 0.99584 0.0
H323 H 0.789 0.78624 0.97778 0.0
H324 H 0.81054 0.71619 0.09533 0.0
H325 H 0.7971 0.73684 0.01928 0.0
H326 H 0.68898 0.71825 0.07369 0.0
H327 H 0.70153 0.697 0.14751 0.0
C328 C 0.68335 0.73059 0.93396 0.0
C329 C 0.71098 0.76073 0.90638 0.0
C330 C 0.69352 0.7203 0.97652 0.0
C331 C 0.73167 0.73988 0.99336 0.0
C332 C 0.75942 0.77023 0.96595 0.0
C333 C 0.7492 0.78054 0.92307 0.0
C334 C 0.78384 0.7163 0.09075 0.0
C335 C 0.75694 0.70414 0.1276 0.0
C336 C 0.77621 0.72843 0.04726 0.0
C337 C 0.74158 0.72877 0.03977 0.0
C338 C 0.71541 0.71746 0.0772 0.0
C339 C 0.72283 0.70528 0.12002 0.0
H340 H 0.02668 0.30574 0.37897 0.0
H341 H 0.92087 0.21506 0.43639 0.0
H342 H 0.05828 0.31455 0.45516 0.0
H343 H 0.95263 0.22461 0.51378 0.0
H344 H 1.01092 0.30468 0.64747 0.0
H345 H 0.97922 0.28179 0.57169 0.0
H346 H 0.07952 0.28193 0.51802 0.0
H347 H 0.11134 0.304 0.59552 0.0
C348 C 1.01012 0.28747 0.40792 0.0
C349 C 0.971 0.25994 0.4016 0.0
C350 C 0.02848 0.29232 0.45157 0.0
C351 C 1.00813 0.27037 0.49072 0.0
C352 C 0.96916 0.24208 0.48431 0.0
C353 C 0.95093 0.23653 0.44003 0.0
C354 C 0.02624 0.2993 0.61994 0.0
C355 C 0.0639 0.30638 0.62783 0.0
C356 C 1.00779 0.28588 0.57639 0.0
C357 C 0.02662 0.27986 0.53865 0.0
C358 C 0.06415 0.28627 0.54643 0.0
C359 C 0.0824 0.29885 0.59079 0.0
H360 H 0.61882 0.17403 0.33315 0.0
H361 H 0.61103 0.1295 0.1924 0.0
H362 H 0.68829 0.20066 0.33243 0.0
H363 H 0.68041 0.15752 0.19085 0.0
H364 H 0.79778 0.17167 0.22244 0.0
H365 H 0.72914 0.14777 0.22346 0.0
H366 H 0.74849 0.24894 0.29998 0.0
H367 H 0.81769 0.27253 0.30001 0.0
C368 C 0.63184 0.16995 0.30196 0.0
C369 C 0.60897 0.14934 0.26291 0.0
C370 C 0.67189 0.1857 0.30133 0.0
C371 C 0.69031 0.18124 0.26166 0.0
C372 C 0.66744 0.16116 0.22237 0.0
C373 C 0.62749 0.14545 0.22301 0.0
C374 C 0.78757 0.18904 0.23936 0.0
C375 C 0.8135 0.22418 0.26101 0.0
C376 C 0.74798 0.17535 0.23971 0.0
C377 C 0.73289 0.1964 0.26151 0.0
C378 C 0.75884 0.23164 0.28324 0.0
C379 C 0.79862 0.24533 0.28304 0.0
H380 H 0.5797 0.41326 0.20545 0.0
H381 H 0.54707 0.4175 0.34924 0.0
H382 H 0.53672 0.34389 0.20412 0.0
H383 H 0.50534 0.34803 0.34856 0.0
H384 H 0.40065 0.23135 0.31376 0.0
H385 H 0.44567 0.30003 0.3159 0.0
H386 H 0.5261 0.28308 0.23339 0.0
H387 H 0.48042 0.21404 0.23041 0.0
C388 C 0.56347 0.39947 0.23689 0.0
C389 C 0.56691 0.42134 0.27739 0.0
C390 C 0.53908 0.35946 0.2363 0.0
C391 C 0.51726 0.34002 0.27617 0.0
C392 C 0.52117 0.36184 0.3169 0.0
C393 C 0.54559 0.40181 0.3175 0.0
C394 C 0.42799 0.24211 0.29619 0.0
C395 C 0.4368 0.21691 0.27198 0.0
C396 C 0.45403 0.28169 0.29766 0.0
C397 C 0.48982 0.29746 0.275 0.0
C398 C 0.49872 0.27222 0.25085 0.0
C399 C 0.47258 0.2325 0.24937 0.0
H400 H 0.93431 0.51507 0.22815 0.0
H401 H 0.82519 0.42139 0.27382 0.0
H402 H 0.90716 0.55718 0.22607 0.0
H403 H 0.79841 0.46425 0.27363 0.0
H404 H 0.75451 0.54724 0.22828 0.0
H405 H 0.77847 0.50179 0.22452 0.0
H406 H 0.88746 0.58877 0.28136 0.0
H407 H 0.86408 0.6338 0.28436 0.0
C408 C 0.90441 0.50324 0.23744 0.0
C409 C 0.88213 0.46458 0.25122 0.0
C410 C 0.8889 0.52767 0.23684 0.0
C411 C 0.85057 0.5144 0.25012 0.0
C412 C 0.82794 0.47555 0.26292 0.0
C413 C 0.84351 0.45103 0.26357 0.0
C414 C 0.78359 0.55661 0.23984 0.0
C415 C 0.80727 0.59434 0.25652 0.0
C416 C 0.79731 0.53048 0.23793 0.0
C417 C 0.83512 0.54155 0.25229 0.0
C418 C 0.8585 0.57923 0.26912 0.0
C419 C 0.84486 0.60511 0.27119 0.0
H420 H 0.19848 0.61474 0.70669 0.0
H421 H 0.12086 0.60416 0.81807 0.0
H422 H 0.22459 0.68413 0.70584 0.0
H423 H 0.14827 0.67338 0.81898 0.0
H424 H 0.17114 0.79065 0.77474 0.0
H425 H 0.14787 0.72221 0.7741 0.0
H426 H 0.26267 0.74416 0.74613 0.0
H427 H 0.2859 0.81336 0.74528 0.0
C428 C 0.187 0.62711 0.73114 0.0
C429 C 0.15726 0.60345 0.76228 0.0
C430 C 0.20239 0.66713 0.73105 0.0
C431 C 0.18851 0.68473 0.76209 0.0
C432 C 0.15936 0.66108 0.79388 0.0
C433 C 0.14394 0.62118 0.79386 0.0
C434 C 0.1916 0.78105 0.76849 0.0
C435 C 0.23054 0.80774 0.76037 0.0
C436 C 0.1782 0.74156 0.76844 0.0
C437 C 0.20332 0.72724 0.76073 0.0
C438 C 0.2423 0.75391 0.7519 0.0
C439 C 0.25572 0.79367 0.75158 0.0
H440 H 0.50546 0.90543 0.84192 0.0
H441 H 0.44792 0.84144 0.71616 0.0
H442 H 0.54781 0.87857 0.84 0.0
H443 H 0.49179 0.81619 0.71273 0.0
H444 H 0.55601 0.75046 0.74238 0.0
H445 H 0.51036 0.77382 0.74658 0.0
H446 H 0.60053 0.88295 0.79927 0.0
H447 H 0.64545 0.85921 0.7965 0.0
C448 C 0.50161 0.8855 0.81389 0.0
C449 C 0.47298 0.87579 0.77922 0.0
C450 C 0.52645 0.87044 0.81236 0.0
C451 C 0.52373 0.84527 0.77596 0.0
C452 C 0.49479 0.83515 0.74159 0.0
C453 C 0.46982 0.85013 0.74322 0.0
C454 C 0.56602 0.7794 0.75494 0.0
C455 C 0.60447 0.80279 0.76933 0.0
C456 C 0.53985 0.79296 0.75714 0.0
C457 C 0.55143 0.83039 0.77351 0.0
C458 C 0.59004 0.85374 0.78745 0.0
C459 C 0.61603 0.84013 0.78556 0.0
H460 H 0.23817 0.39525 0.81383 0.0
H461 H 0.21969 0.47279 0.72699 0.0
H462 H 0.30679 0.4405 0.81481 0.0
H463 H 0.28869 0.51879 0.72887 0.0
H464 H 0.41867 0.57249 0.70013 0.0
H465 H 0.34933 0.52949 0.7 0.0
H466 H 0.35508 0.50058 0.84531 0.0
H467 H 0.42454 0.54226 0.84478 0.0
C468 C 0.24867 0.42216 0.79524 0.0
C469 C 0.22316 0.43025 0.77036 0.0
C470 C 0.28822 0.44836 0.79605 0.0
C471 C 0.30367 0.48363 0.77211 0.0
C472 C 0.27811 0.49182 0.74731 0.0
C473 C 0.23841 0.46549 0.74643 0.0
C474 C 0.40524 0.55679 0.73202 0.0
C475 C 0.42758 0.56088 0.77238 0.0
C476 C 0.36523 0.53239 0.73212 0.0
C477 C 0.34624 0.51121 0.77258 0.0
C478 C 0.36852 0.51586 0.8132 0.0
C479 C 0.4085 0.54027 0.8131 0.0
H480 H 0.21316 0.25457 0.2161 0.0
H481 H 0.11977 0.1482 0.26946 0.0
H482 H 0.17214 0.2836 0.21974 0.0
H483 H 0.07983 0.17769 0.27465 0.0
H484 H 0.03459 0.24864 0.33452 0.0
H485 H 0.08537 0.23266 0.32756 0.0
H486 H 0.10533 0.27332 0.18397 0.0
H487 H 0.05403 0.2896 0.19122 0.0
C488 C 0.18385 0.23716 0.22801 0.0
C489 C 0.17006 0.19905 0.2431 0.0
C490 C 0.16051 0.25396 0.23035 0.0
C491 C 0.12312 0.23317 0.2484 0.0
C492 C 0.10889 0.19474 0.26165 0.0
C493 C 0.13188 0.17785 0.25876 0.0
C494 C 0.05091 0.25569 0.30212 0.0
C495 C 0.04073 0.2707 0.26358 0.0
C496 C 0.07962 0.24606 0.29791 0.0
C497 C 0.09871 0.25099 0.25492 0.0
C498 C 0.09102 0.26923 0.21751 0.0
C499 C 0.06202 0.27892 0.22177 0.0
H500 H 0.06312 0.83713 0.19459 0.0
H501 H 0.0599 0.88483 0.32984 0.0
H502 H 0.13289 0.87594 0.19445 0.0
H503 H 0.12993 0.92403 0.32958 0.0
H504 H 0.25867 0.97815 0.33004 0.0
H505 H 0.1917 0.92565 0.33276 0.0
H506 H 0.1786 0.94297 0.18495 0.0
H507 H 0.24507 0.99466 0.18262 0.0
C508 C 0.07729 0.8561 0.22423 0.0
C509 C 0.05576 0.85827 0.26189 0.0
C510 C 0.11738 0.87824 0.22425 0.0
C511 C 0.13719 0.90331 0.26189 0.0
C512 C 0.11576 0.90466 0.30029 0.0
C513 C 0.07555 0.88235 0.30033 0.0
C514 C 0.24181 0.96937 0.2978 0.0
C515 C 0.25709 0.98982 0.25589 0.0
C516 C 0.20328 0.93986 0.29949 0.0
C517 C 0.17952 0.93025 0.25919 0.0
C518 C 0.19594 0.94914 0.21657 0.0
C519 C 0.23415 0.9787 0.21507 0.0
H520 H 0.78031 0.96488 0.32598 0.0
H521 H 0.87489 0.97327 0.24451 0.0
H522 H 0.75088 0.89477 0.32655 0.0
H523 H 0.84455 0.90369 0.24344 0.0
H524 H 0.76418 0.78309 0.20066 0.0
H525 H 0.78087 0.85034 0.20528 0.0
H526 H 0.76848 0.84124 0.35654 0.0
H527 H 0.75189 0.7735 0.35171 0.0
C528 C 0.7951 0.95203 0.3086 0.0
C529 C 0.82992 0.97509 0.28465 0.0
C530 C 0.77799 0.9118 0.3087 0.0
C531 C 0.79501 0.89376 0.28424 0.0
C532 C 0.83027 0.91675 0.26165 0.0
C533 C 0.84761 0.95675 0.26217 0.0
C534 C 0.76329 0.79498 0.23466 0.0
C535 C 0.75607 0.77302 0.27572 0.0
C536 C 0.77338 0.83359 0.2374 0.0
C537 C 0.77657 0.85118 0.28133 0.0
C538 C 0.76611 0.82837 0.32221 0.0
C539 C 0.7562 0.78955 0.31945 0.0
H540 H 0.23707 0.18779 0.83536 0.0
H541 H 0.20345 0.15281 0.69099 0.0
H542 H 0.26742 0.14845 0.83901 0.0
H543 H 0.23264 0.11219 0.69486 0.0
H544 H 0.26273 0.03117 0.84731 0.0
H545 H 0.24892 0.08349 0.8442 0.0
H546 H 0.28801 0.1058 0.69975 0.0
H547 H 0.30024 0.05191 0.70303 0.0
C548 C 0.236 0.17146 0.80441 0.0
C549 C 0.21739 0.17304 0.76307 0.0
C550 C 0.25341 0.14881 0.80648 0.0
C551 C 0.25236 0.12666 0.76741 0.0
C552 C 0.23466 0.12917 0.72553 0.0
C553 C 0.21762 0.15226 0.72331 0.0
C554 C 0.26976 0.04827 0.81562 0.0
C555 C 0.28327 0.03808 0.77583 0.0
C556 C 0.26172 0.07832 0.81359 0.0
C557 C 0.26689 0.09892 0.77148 0.0
C558 C 0.28298 0.09026 0.73254 0.0
C559 C 0.29082 0.05994 0.73462 0.0
H560 H 0.97852 0.86426 0.71461 0.0
H561 H 0.97555 0.78478 0.81933 0.0
H562 H 0.90884 0.83213 0.7152 0.0
H563 H 0.90539 0.75315 0.82066 0.0
H564 H 0.78636 0.75174 0.68925 0.0
H565 H 0.85396 0.76956 0.69057 0.0
H566 H 0.85188 0.76632 0.84278 0.0
H567 H 0.78373 0.74789 0.84108 0.0
C568 C 0.9631 0.8398 0.73761 0.0
C569 C 0.983 0.82706 0.76656 0.0
C570 C 0.923 0.82128 0.73789 0.0
C571 C 0.90141 0.78958 0.76738 0.0
C572 C 0.92113 0.77742 0.79747 0.0
C573 C 0.96143 0.7958 0.7969 0.0
C574 C 0.7999 0.75298 0.72286 0.0
C575 C 0.77971 0.74773 0.765 0.0
C576 C 0.8388 0.7639 0.72372 0.0
C577 C 0.85858 0.77025 0.76681 0.0
C578 C 0.83751 0.76162 0.809 0.0
C579 C 0.79836 0.7506 0.80809 0.0
H580 H 0.97284 0.25779 0.70687 0.0
H581 H 1.00999 0.23409 0.83899 0.0
H582 H 0.91771 0.19221 0.70534 0.0
H583 H 0.95575 0.16889 0.8377 0.0
H584 H 0.87001 0.06 0.68682 0.0
H585 H 0.91137 0.12957 0.69186 0.0
H586 H 0.88816 0.12547 0.841 0.0
H587 H 0.84733 0.05592 0.83597 0.0
C588 C 0.96835 0.23897 0.73636 0.0
C589 C 0.99519 0.25097 0.77336 0.0
C590 C 0.93718 0.20125 0.73524 0.0
C591 C 0.93238 0.175 0.77118 0.0
C592 C 0.95806 0.1882 0.80967 0.0
C593 C 0.98916 0.22564 0.81057 0.0
C594 C 0.87331 0.07404 0.72053 0.0
C595 C 0.85577 0.05231 0.7611 0.0
C596 C 0.89688 0.11401 0.72341 0.0
C597 C 0.90334 0.13327 0.76692 0.0
C598 C 0.88444 0.11161 0.80708 0.0
C599 C 0.86108 0.07169 0.80423 0.0
loop_
_geom_bond_atom_site_label_1
_geom_bond_atom_site_label_2
_geom_bond_distance
_geom_bond_site_symmetry_2
_ccdc_geom_bond_type
Tb0 C10 2.825 . S
Tb0 O11 2.347 . S
Tb0 O14 2.366 . S
Tb0 O19 2.418 . S
Tb0 O20 2.384 . S
Tb0 O23 2.479 . S
Tb0 O24 2.471 . S
Eu1 O12 2.418 . S
Eu1 O13 2.384 . S
Eu1 O16 2.479 . S
Eu1 O17 2.471 . S
Eu1 O18 2.347 . S
Eu1 O21 2.366 . S
Eu1 C31 2.825 . S
C2 O18 1.259 . S
C2 O19 1.265 . S
C3 O20 1.255 . S
C3 O21 1.265 . S
C4 C6 1.380 . S
C4 C7 1.374 . S
C4 C10 1.507 . S
C5 C6 1.384 . S
C5 C9 1.387 . S
C5 H32 0.930 . S
C6 C4 1.380 . S
C6 C5 1.384 . S
C6 H33 0.931 . S
C7 C4 1.374 . S
C7 C8 1.390 . S
C7 H34 0.930 . S
C8 C7 1.390 . S
C8 C9 1.391 . S
C8 H35 0.930 . S
C9 C5 1.387 . S
C9 C8 1.391 . S
C10 Tb0 2.825 . S
C10 C4 1.507 . S
C10 O23 1.238 . S
C10 O24 1.247 . S
O11 Tb0 2.347 . S
O11 C15 1.259 . S
O12 Eu1 2.418 . S
O12 C15 1.265 . S
O13 Eu1 2.384 . S
O13 C22 1.255 . S
O14 Tb0 2.366 . S
O14 C22 1.265 . S
C15 O11 1.259 . S
C15 O12 1.265 . S
O16 Eu1 2.479 . S
O16 C31 1.238 . S
O17 Eu1 2.471 . S
O17 C31 1.247 . S
O18 Eu1 2.347 . S
O18 C2 1.259 . S
O19 Tb0 2.418 . S
O19 C2 1.265 . S
O20 Tb0 2.384 . S
O20 C3 1.255 . S
O21 Eu1 2.366 . S
O21 C3 1.265 . S
C22 O13 1.255 . S
C22 O14 1.265 . S
O23 Tb0 2.479 . S
O23 C10 1.238 . S
O24 Tb0 2.471 . S
O24 C10 1.247 . S
C25 C28 1.380 . S
C25 C29 1.374 . S
C25 C31 1.507 . S
C26 C27 1.387 . S
C26 C30 1.391 . S
C27 C26 1.387 . S
C27 C28 1.384 . S
C27 H36 0.930 . S
C28 C25 1.380 . S
C28 C27 1.384 . S
C28 H37 0.931 . S
C29 C25 1.374 . S
C29 C30 1.390 . S
C29 H38 0.930 . S
C30 C26 1.391 . S
C30 C29 1.390 . S
C30 H39 0.930 . S
C31 Eu1 2.825 . S
C31 O16 1.238 . S
C31 O17 1.247 . S
C31 C25 1.507 . S
H32 C5 0.930 . S
H33 C6 0.931 . S
H34 C7 0.930 . S
H35 C8 0.930 . S
H36 C27 0.930 . S
H37 C28 0.931 . S
H38 C29 0.930 . S
H39 C30 0.930 . S
Tb40 C50 2.825 . S
Tb40 O51 2.347 . S
Tb40 O54 2.366 . S
Tb40 O59 2.418 . S
Tb40 O60 2.384 . S
Tb40 O63 2.479 . S
Tb40 O64 2.471 . S
Eu41 O52 2.418 . S
Eu41 O53 2.384 . S
Eu41 O56 2.479 . S
Eu41 O57 2.471 . S
Eu41 O58 2.347 . S
Eu41 O61 2.366 . S
Eu41 C71 2.825 . S
C42 O58 1.259 . S
C42 O59 1.265 . S
C43 O60 1.255 . S
C43 O61 1.265 . S
C44 C46 1.380 . S
C44 C47 1.374 . S
C44 C50 1.507 . S
C45 C46 1.384 . S
C45 C49 1.387 . S
C45 H72 0.930 1_655 S
C46 C44 1.380 . S
C46 C45 1.384 . S
C46 H73 0.931 . S
C47 C44 1.374 . S
C47 C48 1.390 . S
C47 H74 0.930 . S
C48 C47 1.390 . S
C48 C49 1.391 . S
C48 H75 0.930 . S
C49 C45 1.387 . S
C49 C48 1.391 . S
C50 Tb40 2.825 . S
C50 C44 1.507 . S
C50 O63 1.238 . S
C50 O64 1.247 . S
O51 Tb40 2.347 . S
O51 C55 1.259 . S
O52 Eu41 2.418 . S
O52 C55 1.265 . S
O53 Eu41 2.384 . S
O53 C62 1.255 . S
O54 Tb40 2.366 . S
O54 C62 1.265 . S
C55 O51 1.259 . S
C55 O52 1.265 . S
O56 Eu41 2.479 . S
O56 C71 1.238 . S
O57 Eu41 2.471 . S
O57 C71 1.247 . S
O58 Eu41 2.347 . S
O58 C42 1.259 . S
O59 Tb40 2.418 . S
O59 C42 1.265 . S
O60 Tb40 2.384 . S
O60 C43 1.255 . S
O61 Eu41 2.366 . S
O61 C43 1.265 . S
C62 O53 1.255 . S
C62 O54 1.265 . S
O63 Tb40 2.479 . S
O63 C50 1.238 . S
O64 Tb40 2.471 . S
O64 C50 1.247 . S
C65 C68 1.380 . S
C65 C69 1.374 . S
C65 C71 1.507 . S
C66 C67 1.387 . S
C66 C70 1.391 . S
C67 C66 1.387 . S
C67 C68 1.384 . S
C67 H76 0.930 . S
C68 C65 1.380 . S
C68 C67 1.384 . S
C68 H77 0.931 . S
C69 C65 1.374 . S
C69 C70 1.390 . S
C69 H78 0.930 . S
C70 C66 1.391 . S
C70 C69 1.390 . S
C70 H79 0.930 . S
C71 Eu41 2.825 . S
C71 O56 1.238 . S
C71 O57 1.247 . S
C71 C65 1.507 . S
H72 C45 0.930 1_455 S
H73 C46 0.931 . S
H74 C47 0.930 . S
H75 C48 0.930 . S
H76 C67 0.930 . S
H77 C68 0.931 . S
H78 C69 0.930 . S
H79 C70 0.930 . S
Tb80 C90 2.825 . S
Tb80 O91 2.347 . S
Tb80 O94 2.366 . S
Tb80 O99 2.418 . S
Tb80 O100 2.384 . S
Tb80 O103 2.479 . S
Tb80 O104 2.471 . S
Eu81 O92 2.418 . S
Eu81 O93 2.384 . S
Eu81 O96 2.479 . S
Eu81 O97 2.471 . S
Eu81 O98 2.347 . S
Eu81 O101 2.366 . S
Eu81 C111 2.825 . S
C82 O98 1.259 . S
C82 O99 1.265 . S
C83 O100 1.255 . S
C83 O101 1.265 . S
C84 C86 1.380 . S
C84 C87 1.374 . S
C84 C90 1.507 . S
C85 C86 1.384 . S
C85 C89 1.387 . S
C85 H112 0.930 1_545 S
C86 C84 1.380 . S
C86 C85 1.384 . S
C86 H113 0.931 . S
C87 C84 1.374 . S
C87 C88 1.390 . S
C87 H114 0.930 . S
C88 C87 1.390 . S
C88 C89 1.391 . S
C88 H115 0.930 . S
C89 C85 1.387 . S
C89 C88 1.391 . S
C90 Tb80 2.825 . S
C90 C84 1.507 . S
C90 O103 1.238 . S
C90 O104 1.247 . S
O91 Tb80 2.347 . S
O91 C95 1.259 . S
O92 Eu81 2.418 . S
O92 C95 1.265 . S
O93 Eu81 2.384 . S
O93 C102 1.255 . S
O94 Tb80 2.366 . S
O94 C102 1.265 . S
C95 O91 1.259 . S
C95 O92 1.265 . S
O96 Eu81 2.479 . S
O96 C111 1.238 . S
O97 Eu81 2.471 . S
O97 C111 1.247 . S
O98 Eu81 2.347 . S
O98 C82 1.259 . S
O99 Tb80 2.418 . S
O99 C82 1.265 . S
O100 Tb80 2.384 . S
O100 C83 1.255 . S
O101 Eu81 2.366 . S
O101 C83 1.265 . S
C102 O93 1.255 . S
C102 O94 1.265 . S
O103 Tb80 2.479 . S
O103 C90 1.238 . S
O104 Tb80 2.471 . S
O104 C90 1.247 . S
C105 C108 1.380 . S
C105 C109 1.374 . S
C105 C111 1.507 . S
C106 C107 1.387 . S
C106 C110 1.391 . S
C107 C106 1.387 . S
C107 C108 1.384 . S
C107 H116 0.930 . S
C108 C105 1.380 . S
C108 C107 1.384 . S
C108 H117 0.931 . S
C109 C105 1.374 . S
C109 C110 1.390 . S
C109 H118 0.930 . S
C110 C106 1.391 . S
C110 C109 1.390 . S
C110 H119 0.930 . S
C111 Eu81 2.825 . S
C111 O96 1.238 . S
C111 O97 1.247 . S
C111 C105 1.507 . S
H112 C85 0.930 1_565 S
H113 C86 0.931 . S
H114 C87 0.930 . S
H115 C88 0.930 . S
H116 C107 0.930 . S
H117 C108 0.931 . S
H118 C109 0.930 . S
H119 C110 0.930 . S
Tb120 C130 2.825 . S
Tb120 O131 2.347 . S
Tb120 O134 2.366 . S
Tb120 O139 2.418 . S
Tb120 O140 2.384 . S
Tb120 O143 2.479 . S
Tb120 O144 2.471 . S
Eu121 O132 2.418 . S
Eu121 O133 2.384 . S
Eu121 O136 2.479 . S
Eu121 O137 2.471 . S
Eu121 O138 2.347 . S
Eu121 O141 2.366 . S
Eu121 C151 2.825 . S
C122 O138 1.259 . S
C122 O139 1.265 . S
C123 O140 1.255 . S
C123 O141 1.265 . S
C124 C126 1.380 . S
C124 C127 1.374 . S
C124 C130 1.507 . S
C125 C126 1.384 . S
C125 C129 1.387 . S
C125 H152 0.930 . S
C126 C124 1.380 . S
C126 C125 1.384 . S
C126 H153 0.931 . S
C127 C124 1.374 . S
C127 C128 1.390 . S
C127 H154 0.930 . S
C128 C127 1.390 . S
C128 C129 1.391 . S
C128 H155 0.930 . S
C129 C125 1.387 . S
C129 C128 1.391 . S
C130 Tb120 2.825 . S
C130 C124 1.507 . S
C130 O143 1.238 . S
C130 O144 1.247 . S
O131 Tb120 2.347 . S
O131 C135 1.259 . S
O132 Eu121 2.418 . S
O132 C135 1.265 . S
O133 Eu121 2.384 . S
O133 C142 1.255 . S
O134 Tb120 2.366 . S
O134 C142 1.265 . S
C135 O131 1.259 . S
C135 O132 1.265 . S
O136 Eu121 2.479 . S
O136 C151 1.238 . S
O137 Eu121 2.471 . S
O137 C151 1.247 . S
O138 Eu121 2.347 . S
O138 C122 1.259 . S
O139 Tb120 2.418 . S
O139 C122 1.265 . S
O140 Tb120 2.384 . S
O140 C123 1.255 . S
O141 Eu121 2.366 . S
O141 C123 1.265 . S
C142 O133 1.255 . S
C142 O134 1.265 . S
O143 Tb120 2.479 . S
O143 C130 1.238 . S
O144 Tb120 2.471 . S
O144 C130 1.247 . S
C145 C148 1.380 . S
C145 C149 1.374 . S
C145 C151 1.507 . S
C146 C147 1.387 . S
C146 C150 1.391 . S
C147 C146 1.387 . S
C147 C148 1.384 . S
C147 H156 0.930 . S
C148 C145 1.380 . S
C148 C147 1.384 . S
C148 H157 0.931 . S
C149 C145 1.374 . S
C149 C150 1.390 . S
C149 H158 0.930 . S
C150 C146 1.391 . S
C150 C149 1.390 . S
C150 H159 0.930 . S
C151 Eu121 2.825 . S
C151 O136 1.238 . S
C151 O137 1.247 . S
C151 C145 1.507 . S
H152 C125 0.930 . S
H153 C126 0.931 . S
H154 C127 0.930 . S
H155 C128 0.930 . S
H156 C147 0.930 . S
H157 C148 0.931 . S
H158 C149 0.930 . S
H159 C150 0.930 . S
Tb160 C170 2.825 . S
Tb160 O171 2.347 . S
Tb160 O174 2.366 . S
Tb160 O179 2.418 . S
Tb160 O180 2.384 . S
Tb160 O183 2.479 . S
Tb160 O184 2.471 . S
Eu161 O172 2.418 . S
Eu161 O173 2.384 . S
Eu161 O176 2.479 . S
Eu161 O177 2.471 . S
Eu161 O178 2.347 . S
Eu161 O181 2.366 . S
Eu161 C191 2.825 . S
C162 O178 1.259 . S
C162 O179 1.265 . S
C163 O180 1.255 . S
C163 O181 1.265 . S
C164 C166 1.380 . S
C164 C167 1.374 . S
C164 C170 1.507 . S
C165 C166 1.384 . S
C165 C169 1.387 . S
C165 H192 0.930 1_455 S
C166 C164 1.380 . S
C166 C165 1.384 . S
C166 H193 0.931 . S
C167 C164 1.374 . S
C167 C168 1.390 . S
C167 H194 0.930 . S
C168 C167 1.390 . S
C168 C169 1.391 . S
C168 H195 0.930 . S
C169 C165 1.387 . S
C169 C168 1.391 . S
C170 Tb160 2.825 . S
C170 C164 1.507 . S
C170 O183 1.238 . S
C170 O184 1.247 . S
O171 Tb160 2.347 . S
O171 C175 1.259 . S
O172 Eu161 2.418 . S
O172 C175 1.265 . S
O173 Eu161 2.384 . S
O173 C182 1.255 . S
O174 Tb160 2.366 . S
O174 C182 1.265 . S
C175 O171 1.259 . S
C175 O172 1.265 . S
O176 Eu161 2.479 . S
O176 C191 1.238 . S
O177 Eu161 2.471 . S
O177 C191 1.247 . S
O178 Eu161 2.347 . S
O178 C162 1.259 . S
O179 Tb160 2.418 . S
O179 C162 1.265 . S
O180 Tb160 2.384 . S
O180 C163 1.255 . S
O181 Eu161 2.366 . S
O181 C163 1.265 . S
C182 O173 1.255 . S
C182 O174 1.265 . S
O183 Tb160 2.479 . S
O183 C170 1.238 . S
O184 Tb160 2.471 . S
O184 C170 1.247 . S
C185 C188 1.380 . S
C185 C189 1.374 . S
C185 C191 1.507 . S
C186 C187 1.387 . S
C186 C190 1.391 . S
C187 C186 1.387 . S
C187 C188 1.384 . S
C187 H196 0.930 . S
C188 C185 1.380 . S
C188 C187 1.384 . S
C188 H197 0.931 . S
C189 C185 1.374 . S
C189 C190 1.390 . S
C189 H198 0.930 . S
C190 C186 1.391 . S
C190 C189 1.390 . S
C190 H199 0.930 . S
C191 Eu161 2.825 . S
C191 O176 1.238 . S
C191 O177 1.247 . S
C191 C185 1.507 . S
H192 C165 0.930 1_655 S
H193 C166 0.931 . S
H194 C167 0.930 . S
H195 C168 0.930 . S
H196 C187 0.930 . S
H197 C188 0.931 . S
H198 C189 0.930 . S
H199 C190 0.930 . S
Tb200 C210 2.825 . S
Tb200 O211 2.347 . S
Tb200 O214 2.366 . S
Tb200 O219 2.418 . S
Tb200 O220 2.384 . S
Tb200 O223 2.479 . S
Tb200 O224 2.471 . S
Eu201 O212 2.418 . S
Eu201 O213 2.384 . S
Eu201 O216 2.479 . S
Eu201 O217 2.471 . S
Eu201 O218 2.347 . S
Eu201 O221 2.366 . S
Eu201 C231 2.825 . S
C202 O218 1.259 . S
C202 O219 1.265 . S
C203 O220 1.255 . S
C203 O221 1.265 . S
C204 C206 1.380 . S
C204 C207 1.374 . S
C204 C210 1.507 . S
C205 C206 1.384 . S
C205 C209 1.387 . S
C205 H232 0.930 1_565 S
C206 C204 1.380 . S
C206 C205 1.384 . S
C206 H233 0.931 . S
C207 C204 1.374 . S
C207 C208 1.390 . S
C207 H234 0.930 . S
C208 C207 1.390 . S
C208 C209 1.391 . S
C208 H235 0.930 . S
C209 C205 1.387 . S
C209 C208 1.391 . S
C210 Tb200 2.825 . S
C210 C204 1.507 . S
C210 O223 1.238 . S
C210 O224 1.247 . S
O211 Tb200 2.347 . S
O211 C215 1.259 . S
O212 Eu201 2.418 . S
O212 C215 1.265 . S
O213 Eu201 2.384 . S
O213 C222 1.255 . S
O214 Tb200 2.366 . S
O214 C222 1.265 . S
C215 O211 1.259 . S
C215 O212 1.265 . S
O216 Eu201 2.479 . S
O216 C231 1.238 . S
O217 Eu201 2.471 . S
O217 C231 1.247 . S
O218 Eu201 2.347 . S
O218 C202 1.259 . S
O219 Tb200 2.418 . S
O219 C202 1.265 . S
O220 Tb200 2.384 . S
O220 C203 1.255 . S
O221 Eu201 2.366 . S
O221 C203 1.265 . S
C222 O213 1.255 . S
C222 O214 1.265 . S
O223 Tb200 2.479 . S
O223 C210 1.238 . S
O224 Tb200 2.471 . S
O224 C210 1.247 . S
C225 C228 1.380 . S
C225 C229 1.374 . S
C225 C231 1.507 . S
C226 C227 1.387 . S
C226 C230 1.391 . S
C227 C226 1.387 . S
C227 C228 1.384 . S
C227 H236 0.930 . S
C228 C225 1.380 . S
C228 C227 1.384 . S
C228 H237 0.931 . S
C229 C225 1.374 . S
C229 C230 1.390 . S
C229 H238 0.930 . S
C230 C226 1.391 . S
C230 C229 1.390 . S
C230 H239 0.930 . S
C231 Eu201 2.825 . S
C231 O216 1.238 . S
C231 O217 1.247 . S
C231 C225 1.507 . S
H232 C205 0.930 1_545 S
H233 C206 0.931 . S
H234 C207 0.930 . S
H235 C208 0.930 . S
H236 C227 0.930 . S
H237 C228 0.931 . S
H238 C229 0.930 . S
H239 C230 0.930 . S
H240 C248 0.950 . S
H241 C253 0.950 . S
H242 C250 0.951 1_554 S
H243 C252 0.950 1_545 S
H244 C254 0.950 . S
H245 C256 0.951 1_556 S
H246 C258 0.950 1_565 S
H247 C259 0.950 . S
C248 H240 0.950 . S
C248 C249 1.386 . S
C248 C250 1.391 . S
C249 C248 1.386 . S
C249 C253 1.393 . S
C250 H242 0.951 1_556 S
C250 C248 1.391 . S
C250 C251 1.400 . S
C251 C250 1.400 . S
C251 C252 1.398 . S
C251 C257 1.491 1_566 S
C252 H243 0.950 1_565 S
C252 C251 1.398 . S
C252 C253 1.391 . S
C253 H241 0.950 . S
C253 C249 1.393 . S
C253 C252 1.391 . S
C254 H244 0.950 . S
C254 C255 1.386 . S
C254 C256 1.391 . S
C255 C254 1.386 . S
C255 C259 1.393 . S
C256 H245 0.951 1_554 S
C256 C254 1.391 . S
C256 C257 1.400 . S
C257 C251 1.491 1_544 S
C257 C256 1.400 . S
C257 C258 1.398 . S
C258 H246 0.950 1_545 S
C258 C257 1.398 . S
C258 C259 1.391 . S
C259 H247 0.950 . S
C259 C255 1.393 . S
C259 C258 1.391 . S
H260 C268 0.950 . S
H261 C273 0.950 . S
H262 C270 0.950 . S
H263 C272 0.950 . S
H264 C274 0.950 . S
H265 C276 0.950 . S
H266 C278 0.950 . S
H267 C279 0.950 . S
C268 H260 0.950 . S
C268 C269 1.386 . S
C268 C270 1.391 . S
C269 C268 1.386 . S
C269 C273 1.393 . S
C270 H262 0.950 . S
C270 C268 1.391 . S
C270 C271 1.400 . S
C271 C270 1.400 . S
C271 C272 1.398 . S
C271 C277 1.491 . S
C272 H263 0.950 . S
C272 C271 1.398 . S
C272 C273 1.391 . S
C273 H261 0.950 . S
C273 C269 1.393 . S
C273 C272 1.391 . S
C274 H264 0.950 . S
C274 C275 1.386 . S
C274 C276 1.391 . S
C275 C274 1.386 . S
C275 C279 1.393 . S
C276 H265 0.950 . S
C276 C274 1.391 . S
C276 C277 1.400 . S
C277 C271 1.491 . S
C277 C276 1.400 . S
C277 C278 1.398 . S
C278 H266 0.950 . S
C278 C277 1.398 . S
C278 C279 1.391 . S
C279 H267 0.950 . S
C279 C275 1.393 . S
C279 C278 1.391 . S
H280 C288 0.950 . S
H281 C293 0.950 . S
H282 C290 0.950 1_556 S
H283 C292 0.950 1_455 S
H284 C294 0.950 . S
H285 C296 0.950 1_554 S
H286 C298 0.950 1_655 S
H287 C299 0.950 . S
C288 H280 0.950 . S
C288 C289 1.386 . S
C288 C290 1.391 . S
C289 C288 1.386 . S
C289 C293 1.393 . S
C290 H282 0.950 1_554 S
C290 C288 1.391 . S
C290 C291 1.400 . S
C291 C290 1.400 . S
C291 C292 1.398 . S
C291 C297 1.491 1_654 S
C292 H283 0.950 1_655 S
C292 C291 1.398 . S
C292 C293 1.391 . S
C293 H281 0.950 . S
C293 C289 1.393 . S
C293 C292 1.391 . S
C294 H284 0.950 . S
C294 C295 1.386 . S
C294 C296 1.391 . S
C295 C294 1.386 . S
C295 C299 1.393 . S
C296 H285 0.950 1_556 S
C296 C294 1.391 . S
C296 C297 1.400 . S
C297 C291 1.491 1_456 S
C297 C296 1.400 . S
C297 C298 1.398 . S
C298 H286 0.950 1_455 S
C298 C297 1.398 . S
C298 C299 1.391 . S
C299 H287 0.950 . S
C299 C295 1.393 . S
C299 C298 1.391 . S
H300 C308 0.950 . S
H301 C313 0.950 . S
H302 C310 0.950 1_565 S
H303 C312 0.950 . S
H304 C314 0.950 . S
H305 C316 0.950 1_545 S
H306 C318 0.950 . S
H307 C319 0.950 . S
C308 H300 0.950 . S
C308 C309 1.386 . S
C308 C310 1.391 . S
C309 C308 1.386 . S
C309 C313 1.393 . S
C310 H302 0.950 1_545 S
C310 C308 1.391 . S
C310 C311 1.400 . S
C311 C310 1.400 . S
C311 C312 1.398 . S
C311 C317 1.491 1_545 S
C312 H303 0.950 . S
C312 C311 1.398 . S
C312 C313 1.391 . S
C313 H301 0.950 . S
C313 C309 1.393 . S
C313 C312 1.391 . S
C314 H304 0.950 . S
C314 C315 1.386 . S
C314 C316 1.391 . S
C315 C314 1.386 . S
C315 C319 1.393 . S
C316 H305 0.950 1_565 S
C316 C314 1.391 . S
C316 C317 1.400 . S
C317 C311 1.491 1_565 S
C317 C316 1.400 . S
C317 C318 1.398 . S
C318 H306 0.950 . S
C318 C317 1.398 . S
C318 C319 1.391 . S
C319 H307 0.950 . S
C319 C315 1.393 . S
C319 C318 1.391 . S
H320 C328 0.950 . S
H321 C333 0.950 . S
H322 C330 0.950 1_554 S
H323 C332 0.950 . S
H324 C334 0.950 . S
H325 C336 0.950 1_556 S
H326 C338 0.950 . S
H327 C339 0.950 . S
C328 H320 0.950 . S
C328 C329 1.386 . S
C328 C330 1.391 . S
C329 C328 1.386 . S
C329 C333 1.393 . S
C330 H322 0.950 1_556 S
C330 C328 1.391 . S
C330 C331 1.400 . S
C331 C330 1.400 . S
C331 C332 1.398 . S
C331 C337 1.491 1_556 S
C332 H323 0.950 . S
C332 C331 1.398 . S
C332 C333 1.391 . S
C333 H321 0.950 . S
C333 C329 1.393 . S
C333 C332 1.391 . S
C334 H324 0.950 . S
C334 C335 1.386 . S
C334 C336 1.391 . S
C335 C334 1.386 . S
C335 C339 1.393 . S
C336 H325 0.950 1_554 S
C336 C334 1.391 . S
C336 C337 1.400 . S
C337 C331 1.491 1_554 S
C337 C336 1.400 . S
C337 C338 1.398 . S
C338 H326 0.950 . S
C338 C337 1.398 . S
C338 C339 1.391 . S
C339 H327 0.950 . S
C339 C335 1.393 . S
C339 C338 1.391 . S
H340 C348 0.950 . S
H341 C353 0.950 . S
H342 C350 0.950 1_455 S
H343 C352 0.950 . S
H344 C354 0.950 . S
H345 C356 0.950 1_655 S
H346 C358 0.950 . S
H347 C359 0.950 . S
C348 H340 0.950 . S
C348 C349 1.386 . S
C348 C350 1.391 . S
C349 C348 1.386 . S
C349 C353 1.393 . S
C350 H342 0.950 1_655 S
C350 C348 1.391 . S
C350 C351 1.400 . S
C351 C350 1.400 . S
C351 C352 1.398 . S
C351 C357 1.491 1_655 S
C352 H343 0.950 . S
C352 C351 1.398 . S
C352 C353 1.391 . S
C353 H341 0.950 . S
C353 C349 1.393 . S
C353 C352 1.391 . S
C354 H344 0.950 . S
C354 C355 1.386 . S
C354 C356 1.391 . S
C355 C354 1.386 . S
C355 C359 1.393 . S
C356 H345 0.950 1_455 S
C356 C354 1.391 . S
C356 C357 1.400 . S
C357 C351 1.491 1_455 S
C357 C356 1.400 . S
C357 C358 1.398 . S
C358 H346 0.950 . S
C358 C357 1.398 . S
C358 C359 1.391 . S
C359 H347 0.950 . S
C359 C355 1.393 . S
C359 C358 1.391 . S
H360 C368 0.950 . S
H361 C373 0.950 . S
H362 C370 0.950 . S
H363 C372 0.950 . S
H364 C374 0.950 . S
H365 C376 0.950 . S
H366 C378 0.950 . S
H367 C379 0.950 . S
C368 H360 0.950 . S
C368 C369 1.386 . S
C368 C370 1.391 . S
C369 C368 1.386 . S
C369 C373 1.393 . S
C370 H362 0.950 . S
C370 C368 1.391 . S
C370 C371 1.400 . S
C371 C370 1.400 . S
C371 C372 1.398 . S
C371 C377 1.491 . S
C372 H363 0.950 . S
C372 C371 1.398 . S
C372 C373 1.391 . S
C373 H361 0.950 . S
C373 C369 1.393 . S
C373 C372 1.391 . S
C374 H364 0.950 . S
C374 C375 1.386 . S
C374 C376 1.391 . S
C375 C374 1.386 . S
C375 C379 1.393 . S
C376 H365 0.950 . S
C376 C374 1.391 . S
C376 C377 1.400 . S
C377 C371 1.491 . S
C377 C376 1.400 . S
C377 C378 1.398 . S
C378 H366 0.950 . S
C378 C377 1.398 . S
C378 C379 1.391 . S
C379 H367 0.950 . S
C379 C375 1.393 . S
C379 C378 1.391 . S
H380 C388 0.950 . S
H381 C393 0.950 . S
H382 C390 0.950 . S
H383 C392 0.950 . S
H384 C394 0.950 . S
H385 C396 0.950 . S
H386 C398 0.950 . S
H387 C399 0.950 . S
C388 H380 0.950 . S
C388 C389 1.386 . S
C388 C390 1.391 . S
C389 C388 1.386 . S
C389 C393 1.393 . S
C390 H382 0.950 . S
C390 C388 1.391 . S
C390 C391 1.400 . S
C391 C390 1.400 . S
C391 C392 1.398 . S
C391 C397 1.491 . S
C392 H383 0.950 . S
C392 C391 1.398 . S
C392 C393 1.391 . S
C393 H381 0.950 . S
C393 C389 1.393 . S
C393 C392 1.391 . S
C394 H384 0.950 . S
C394 C395 1.386 . S
C394 C396 1.391 . S
C395 C394 1.386 . S
C395 C399 1.393 . S
C396 H385 0.950 . S
C396 C394 1.391 . S
C396 C397 1.400 . S
C397 C391 1.491 . S
C397 C396 1.400 . S
C397 C398 1.398 . S
C398 H386 0.950 . S
C398 C397 1.398 . S
C398 C399 1.391 . S
C399 H387 0.950 . S
C399 C395 1.393 . S
C399 C398 1.391 . S
H400 C408 0.950 . S
H401 C413 0.950 . S
H402 C410 0.950 . S
H403 C412 0.950 . S
H404 C414 0.950 . S
H405 C416 0.950 . S
H406 C418 0.950 . S
H407 C419 0.950 . S
C408 H400 0.950 . S
C408 C409 1.386 . S
C408 C410 1.391 . S
C409 C408 1.386 . S
C409 C413 1.393 . S
C410 H402 0.950 . S
C410 C408 1.391 . S
C410 C411 1.400 . S
C411 C410 1.400 . S
C411 C412 1.398 . S
C411 C417 1.491 . S
C412 H403 0.950 . S
C412 C411 1.398 . S
C412 C413 1.391 . S
C413 H401 0.950 . S
C413 C409 1.393 . S
C413 C412 1.391 . S
C414 H404 0.950 . S
C414 C415 1.386 . S
C414 C416 1.391 . S
C415 C414 1.386 . S
C415 C419 1.393 . S
C416 H405 0.950 . S
C416 C414 1.391 . S
C416 C417 1.400 . S
C417 C411 1.491 . S
C417 C416 1.400 . S
C417 C418 1.398 . S
C418 H406 0.950 . S
C418 C417 1.398 . S
C418 C419 1.391 . S
C419 H407 0.950 . S
C419 C415 1.393 . S
C419 C418 1.391 . S
H420 C428 0.950 . S
H421 C433 0.950 . S
H422 C430 0.950 . S
H423 C432 0.950 . S
H424 C434 0.950 . S
H425 C436 0.950 . S
H426 C438 0.950 . S
H427 C439 0.950 . S
C428 H420 0.950 . S
C428 C429 1.386 . S
C428 C430 1.391 . S
C429 C428 1.386 . S
C429 C433 1.393 . S
C430 H422 0.950 . S
C430 C428 1.391 . S
C430 C431 1.400 . S
C431 C430 1.400 . S
C431 C432 1.398 . S
C431 C437 1.491 . S
C432 H423 0.950 . S
C432 C431 1.398 . S
C432 C433 1.391 . S
C433 H421 0.950 . S
C433 C429 1.393 . S
C433 C432 1.391 . S
C434 H424 0.950 . S
C434 C435 1.386 . S
C434 C436 1.391 . S
C435 C434 1.386 . S
C435 C439 1.393 . S
C436 H425 0.950 . S
C436 C434 1.391 . S
C436 C437 1.400 . S
C437 C431 1.491 . S
C437 C436 1.400 . S
C437 C438 1.398 . S
C438 H426 0.950 . S
C438 C437 1.398 . S
C438 C439 1.391 . S
C439 H427 0.950 . S
C439 C435 1.393 . S
C439 C438 1.391 . S
H440 C448 0.950 . S
H441 C453 0.950 . S
H442 C450 0.950 . S
H443 C452 0.950 . S
H444 C454 0.950 . S
H445 C456 0.950 . S
H446 C458 0.950 . S
H447 C459 0.950 . S
C448 H440 0.950 . S
C448 C449 1.386 . S
C448 C450 1.391 . S
C449 C448 1.386 . S
C449 C453 1.393 . S
C450 H442 0.950 . S
C450 C448 1.391 . S
C450 C451 1.400 . S
C451 C450 1.400 . S
C451 C452 1.398 . S
C451 C457 1.491 . S
C452 H443 0.950 . S
C452 C451 1.398 . S
C452 C453 1.391 . S
C453 H441 0.950 . S
C453 C449 1.393 . S
C453 C452 1.391 . S
C454 H444 0.950 . S
C454 C455 1.386 . S
C454 C456 1.391 . S
C455 C454 1.386 . S
C455 C459 1.393 . S
C456 H445 0.950 . S
C456 C454 1.391 . S
C456 C457 1.400 . S
C457 C451 1.491 . S
C457 C456 1.400 . S
C457 C458 1.398 . S
C458 H446 0.950 . S
C458 C457 1.398 . S
C458 C459 1.391 . S
C459 H447 0.950 . S
C459 C455 1.393 . S
C459 C458 1.391 . S
H460 C468 0.950 . S
H461 C473 0.950 . S
H462 C470 0.950 . S
H463 C472 0.950 . S
H464 C474 0.950 . S
H465 C476 0.950 . S
H466 C478 0.950 . S
H467 C479 0.950 . S
C468 H460 0.950 . S
C468 C469 1.386 . S
C468 C470 1.391 . S
C469 C468 1.386 . S
C469 C473 1.393 . S
C470 H462 0.950 . S
C470 C468 1.391 . S
C470 C471 1.400 . S
C471 C470 1.400 . S
C471 C472 1.398 . S
C471 C477 1.491 . S
C472 H463 0.950 . S
C472 C471 1.398 . S
C472 C473 1.391 . S
C473 H461 0.950 . S
C473 C469 1.393 . S
C473 C472 1.391 . S
C474 H464 0.950 . S
C474 C475 1.386 . S
C474 C476 1.391 . S
C475 C474 1.386 . S
C475 C479 1.393 . S
C476 H465 0.950 . S
C476 C474 1.391 . S
C476 C477 1.400 . S
C477 C471 1.491 . S
C477 C476 1.400 . S
C477 C478 1.398 . S
C478 H466 0.950 . S
C478 C477 1.398 . S
C478 C479 1.391 . S
C479 H467 0.950 . S
C479 C475 1.393 . S
C479 C478 1.391 . S
H480 C488 0.950 . S
H481 C493 0.950 . S
H482 C490 0.950 . S
H483 C492 0.950 . S
H484 C494 0.950 . S
H485 C496 0.950 . S
H486 C498 0.950 . S
H487 C499 0.950 . S
C488 H480 0.950 . S
C488 C489 1.386 . S
C488 C490 1.391 . S
C489 C488 1.386 . S
C489 C493 1.393 . S
C490 H482 0.950 . S
C490 C488 1.391 . S
C490 C491 1.400 . S
C491 C490 1.400 . S
C491 C492 1.398 . S
C491 C497 1.491 . S
C492 H483 0.950 . S
C492 C491 1.398 . S
C492 C493 1.391 . S
C493 H481 0.950 . S
C493 C489 1.393 . S
C493 C492 1.391 . S
C494 H484 0.950 . S
C494 C495 1.386 . S
C494 C496 1.391 . S
C495 C494 1.386 . S
C495 C499 1.393 1_655 S
C496 H485 0.950 . S
C496 C494 1.391 . S
C496 C497 1.400 1_655 S
C497 C491 1.491 . S
C497 C496 1.400 1_455 S
C497 C498 1.398 . S
C498 H486 0.950 . S
C498 C497 1.398 . S
C498 C499 1.391 . S
C499 H487 0.950 . S
C499 C495 1.393 1_455 S
C499 C498 1.391 . S
H500 C508 0.950 . S
H501 C513 0.950 . S
H502 C510 0.950 . S
H503 C512 0.950 . S
H504 C514 0.950 . S
H505 C516 0.950 . S
H506 C518 0.950 . S
H507 C519 0.950 . S
C508 H500 0.950 . S
C508 C509 1.386 . S
C508 C510 1.391 . S
C509 C508 1.386 . S
C509 C513 1.393 . S
C510 H502 0.950 . S
C510 C508 1.391 . S
C510 C511 1.400 . S
C511 C510 1.400 . S
C511 C512 1.398 . S
C511 C517 1.491 . S
C512 H503 0.950 . S
C512 C511 1.398 . S
C512 C513 1.391 . S
C513 H501 0.950 . S
C513 C509 1.393 . S
C513 C512 1.391 . S
C514 H504 0.950 . S
C514 C515 1.386 . S
C514 C516 1.391 1_545 S
C515 C514 1.386 . S
C515 C519 1.393 1_545 S
C516 H505 0.950 . S
C516 C514 1.391 1_565 S
C516 C517 1.400 . S
C517 C511 1.491 . S
C517 C516 1.400 . S
C517 C518 1.398 . S
C518 H506 0.950 . S
C518 C517 1.398 . S
C518 C519 1.391 . S
C519 H507 0.950 . S
C519 C515 1.393 1_565 S
C519 C518 1.391 . S
H520 C528 0.950 . S
H521 C533 0.950 . S
H522 C530 0.950 . S
H523 C532 0.950 . S
H524 C534 0.950 . S
H525 C536 0.950 . S
H526 C538 0.950 . S
H527 C539 0.950 . S
C528 H520 0.950 . S
C528 C529 1.386 . S
C528 C530 1.391 . S
C529 C528 1.386 . S
C529 C533 1.393 . S
C530 H522 0.950 . S
C530 C528 1.391 . S
C530 C531 1.400 . S
C531 C530 1.400 . S
C531 C532 1.398 . S
C531 C537 1.491 . S
C532 H523 0.950 . S
C532 C531 1.398 . S
C532 C533 1.391 . S
C533 H521 0.950 . S
C533 C529 1.393 . S
C533 C532 1.391 . S
C534 H524 0.950 . S
C534 C535 1.386 . S
C534 C536 1.391 . S
C535 C534 1.386 . S
C535 C539 1.393 . S
C536 H525 0.950 . S
C536 C534 1.391 . S
C536 C537 1.400 . S
C537 C531 1.491 . S
C537 C536 1.400 . S
C537 C538 1.398 . S
C538 H526 0.950 . S
C538 C537 1.398 . S
C538 C539 1.391 . S
C539 H527 0.950 . S
C539 C535 1.393 . S
C539 C538 1.391 . S
H540 C548 0.950 . S
H541 C553 0.950 . S
H542 C550 0.950 . S
H543 C552 0.950 . S
H544 C554 0.950 . S
H545 C556 0.950 . S
H546 C558 0.950 . S
H547 C559 0.950 . S
C548 H540 0.950 . S
C548 C549 1.386 . S
C548 C550 1.391 . S
C549 C548 1.386 . S
C549 C553 1.393 . S
C550 H542 0.950 . S
C550 C548 1.391 . S
C550 C551 1.400 . S
C551 C550 1.400 . S
C551 C552 1.398 . S
C551 C557 1.491 . S
C552 H543 0.950 . S
C552 C551 1.398 . S
C552 C553 1.391 . S
C553 H541 0.950 . S
C553 C549 1.393 . S
C553 C552 1.391 . S
C554 H544 0.950 . S
C554 C555 1.386 . S
C554 C556 1.391 . S
C555 C554 1.386 . S
C555 C559 1.393 1_565 S
C556 H545 0.950 . S
C556 C554 1.391 . S
C556 C557 1.400 1_565 S
C557 C551 1.491 . S
C557 C556 1.400 1_545 S
C557 C558 1.398 . S
C558 H546 0.950 . S
C558 C557 1.398 . S
C558 C559 1.391 . S
C559 H547 0.950 . S
C559 C555 1.393 1_545 S
C559 C558 1.391 . S
H560 C568 0.950 . S
H561 C573 0.950 . S
H562 C570 0.950 . S
H563 C572 0.950 . S
H564 C574 0.950 . S
H565 C576 0.950 . S
H566 C578 0.950 . S
H567 C579 0.950 . S
C568 H560 0.950 . S
C568 C569 1.386 . S
C568 C570 1.391 . S
C569 C568 1.386 . S
C569 C573 1.393 . S
C570 H562 0.950 . S
C570 C568 1.391 . S
C570 C571 1.400 . S
C571 C570 1.400 . S
C571 C572 1.398 . S
C571 C577 1.491 . S
C572 H563 0.950 . S
C572 C571 1.398 . S
C572 C573 1.391 . S
C573 H561 0.950 . S
C573 C569 1.393 . S
C573 C572 1.391 . S
C574 H564 0.950 . S
C574 C575 1.386 . S
C574 C576 1.391 . S
C575 C574 1.386 . S
C575 C579 1.393 . S
C576 H565 0.950 . S
C576 C574 1.391 . S
C576 C577 1.400 . S
C577 C571 1.491 . S
C577 C576 1.400 . S
C577 C578 1.398 . S
C578 H566 0.950 . S
C578 C577 1.398 . S
C578 C579 1.391 . S
C579 H567 0.950 . S
C579 C575 1.393 . S
C579 C578 1.391 . S
H580 C588 0.950 . S
H581 C593 0.950 . S
H582 C590 0.950 . S
H583 C592 0.950 . S
H584 C594 0.950 . S
H585 C596 0.950 1_455 S
H586 C598 0.950 . S
H587 C599 0.950 . S
C588 H580 0.950 . S
C588 C589 1.386 1_655 S
C588 C590 1.391 . S
C589 C588 1.386 1_455 S
C589 C593 1.393 . S
C590 H582 0.950 . S
C590 C588 1.391 . S
C590 C591 1.400 . S
C591 C590 1.400 . S
C591 C592 1.398 1_655 S
C591 C597 1.491 . S
C592 H583 0.950 . S
C592 C591 1.398 1_455 S
C592 C593 1.391 . S
C593 H581 0.950 . S
C593 C589 1.393 . S
C593 C592 1.391 . S
C594 H584 0.950 . S
C594 C595 1.386 . S
C594 C596 1.391 . S
C595 C594 1.386 . S
C595 C599 1.393 . S
C596 H585 0.950 1_655 S
C596 C594 1.391 . S
C596 C597 1.400 . S
C597 C591 1.491 . S
C597 C596 1.400 . S
C597 C598 1.398 . S
C598 H586 0.950 . S
C598 C597 1.398 . S
C598 C599 1.391 . S
C599 H587 0.950 . S
C599 C595 1.393 . S
C599 C598 1.391 . S
C249 C175 2.386 . S
C255 C15 2.391 . S
C269 C202 2.454 . S
C275 C42 2.452 . S
C289 C95 2.388 . S
C295 C135 2.398 . S
C309 C2 2.446 . S
C315 C162 2.438 . S
C329 C215 2.389 . S
C335 C55 2.401 . S
C349 C82 2.455 . S
C355 C122 2.443 . S
C369 C26 1.925 . S
C375 C83 1.880 . S
C389 C66 1.919 . S
C395 C3 1.868 . S
C409 C106 1.913 . S
C415 C43 1.864 . S
C429 C146 1.923 . S
C435 C163 1.874 . S
C449 C186 1.913 . S
C455 C203 1.865 . S
C469 C123 1.864 . S
C475 C226 1.913 . S
C489 C9 1.191 . S
C495 C102 1.245 . S
C509 C49 1.193 1_455 S
C515 C22 1.246 . S
C529 C89 1.163 1_565 S
C535 C62 1.228 . S
C549 C129 1.189 . S
C555 C182 1.244 . S
C569 C169 1.155 1_655 S
C575 C222 1.224 . S
C589 C142 1.237 . S
C595 C209 1.178 1_545 S
