# Generated by pormake.
# Topology wgc, (5)-cn, num edge types: 1
# Building blocks:
#     Node 0, Type 0, BuildingBlock: BEQFEK_clean_sbu_0, # of connection points: 5
#     Node 1, Type 0, BuildingBlock: BEQFEK_clean_sbu_0, # of connection points: 5
#     Node 2, Type 0, BuildingBlock: BEQFEK_clean_sbu_0, # of connection points: 5
#     Node 3, Type 0, BuildingBlock: BEQFEK_clean_sbu_0, # of connection points: 5
#     Node 4, Type 0, BuildingBlock: BEQFEK_clean_sbu_0, # of connection points: 5
#     Node 5, Type 0, BuildingBlock: BEQFEK_clean_sbu_0, # of connection points: 5
#     Node 6, Type 0, BuildingBlock: BEQFEK_clean_sbu_0, # of connection points: 5
#     Node 7, Type 0, BuildingBlock: BEQFEK_clean_sbu_0, # of connection points: 5
#     Node 8, Type 0, BuildingBlock: BEQFEK_clean_sbu_0, # of connection points: 5
#     Node 9, Type 0, BuildingBlock: BEQFEK_clean_sbu_0, # of connection points: 5
#     Node 10, Type 0, BuildingBlock: BEQFEK_clean_sbu_0, # of connection points: 5
#     Node 11, Type 0, BuildingBlock: BEQFEK_clean_sbu_0, # of connection points: 5
#     Node 12, Type 0, BuildingBlock: BEQFEK_clean_sbu_0, # of connection points: 5
#     Node 13, Type 0, BuildingBlock: BEQFEK_clean_sbu_0, # of connection points: 5
#     Node 14, Type 0, BuildingBlock: BEQFEK_clean_sbu_0, # of connection points: 5
#     Node 15, Type 0, BuildingBlock: BEQFEK_clean_sbu_0, # of connection points: 5
#     Edge 16, Type (0, 0), BuildingBlock: AJUNOK_clean_linker_0, # of connection points: 2
#     Edge 17, Type (0, 0), BuildingBlock: AJUNOK_clean_linker_0, # of connection points: 2
#     Edge 18, Type (0, 0), BuildingBlock: AJUNOK_clean_linker_0, # of connection points: 2
#     Edge 19, Type (0, 0), BuildingBlock: AJUNOK_clean_linker_0, # of connection points: 2
#     Edge 20, Type (0, 0), BuildingBlock: AJUNOK_clean_linker_0, # of connection points: 2
#     Edge 21, Type (0, 0), BuildingBlock: AJUNOK_clean_linker_0, # of connection points: 2
#     Edge 22, Type (0, 0), BuildingBlock: AJUNOK_clean_linker_0, # of connection points: 2
#     Edge 23, Type (0, 0), BuildingBlock: AJUNOK_clean_linker_0, # of connection points: 2
#     Edge 24, Type (0, 0), BuildingBlock: AJUNOK_clean_linker_0, # of connection points: 2
#     Edge 25, Type (0, 0), BuildingBlock: AJUNOK_clean_linker_0, # of connection points: 2
#     Edge 26, Type (0, 0), BuildingBlock: AJUNOK_clean_linker_0, # of connection points: 2
#     Edge 27, Type (0, 0), BuildingBlock: AJUNOK_clean_linker_0, # of connection points: 2
#     Edge 28, Type (0, 0), BuildingBlock: AJUNOK_clean_linker_0, # of connection points: 2
#     Edge 29, Type (0, 0), BuildingBlock: AJUNOK_clean_linker_0, # of connection points: 2
#     Edge 30, Type (0, 0), BuildingBlock: AJUNOK_clean_linker_0, # of connection points: 2
#     Edge 31, Type (0, 0), BuildingBlock: AJUNOK_clean_linker_0, # of connection points: 2
#     Edge 32, Type (0, 0), BuildingBlock: AJUNOK_clean_linker_0, # of connection points: 2
#     Edge 33, Type (0, 0), BuildingBlock: AJUNOK_clean_linker_0, # of connection points: 2
#     Edge 34, Type (0, 0), BuildingBlock: AJUNOK_clean_linker_0, # of connection points: 2
#     Edge 35, Type (0, 0), BuildingBlock: AJUNOK_clean_linker_0, # of connection points: 2
#     Edge 36, Type (0, 0), BuildingBlock: AJUNOK_clean_linker_0, # of connection points: 2
#     Edge 37, Type (0, 0), BuildingBlock: AJUNOK_clean_linker_0, # of connection points: 2
#     Edge 38, Type (0, 0), BuildingBlock: AJUNOK_clean_linker_0, # of connection points: 2
#     Edge 39, Type (0, 0), BuildingBlock: AJUNOK_clean_linker_0, # of connection points: 2
#     Edge 40, Type (0, 0), BuildingBlock: AJUNOK_clean_linker_0, # of connection points: 2
#     Edge 41, Type (0, 0), BuildingBlock: AJUNOK_clean_linker_0, # of connection points: 2
#     Edge 42, Type (0, 0), BuildingBlock: AJUNOK_clean_linker_0, # of connection points: 2
#     Edge 43, Type (0, 0), BuildingBlock: AJUNOK_clean_linker_0, # of connection points: 2
#     Edge 44, Type (0, 0), BuildingBlock: AJUNOK_clean_linker_0, # of connection points: 2
#     Edge 45, Type (0, 0), BuildingBlock: AJUNOK_clean_linker_0, # of connection points: 2
#     Edge 46, Type (0, 0), BuildingBlock: AJUNOK_clean_linker_0, # of connection points: 2
#     Edge 47, Type (0, 0), BuildingBlock: AJUNOK_clean_linker_0, # of connection points: 2
#     Edge 48, Type (0, 0), BuildingBlock: AJUNOK_clean_linker_0, # of connection points: 2
#     Edge 49, Type (0, 0), BuildingBlock: AJUNOK_clean_linker_0, # of connection points: 2
#     Edge 50, Type (0, 0), BuildingBlock: AJUNOK_clean_linker_0, # of connection points: 2
#     Edge 51, Type (0, 0), BuildingBlock: AJUNOK_clean_linker_0, # of connection points: 2
#     Edge 52, Type (0, 0), BuildingBlock: AJUNOK_clean_linker_0, # of connection points: 2
#     Edge 53, Type (0, 0), BuildingBlock: AJUNOK_clean_linker_0, # of connection points: 2
#     Edge 54, Type (0, 0), BuildingBlock: AJUNOK_clean_linker_0, # of connection points: 2
#     Edge 55, Type (0, 0), BuildingBlock: AJUNOK_clean_linker_0, # of connection points: 2
# Relax obj value: 0.146
# Max RMSD: 0.139
# Mean RMSD: 0.139
data_MOF--net-wgc--node1-BEQFEK_clean_sbu_0--edge1-AJUNOK_clean_linker_0
_symmetry_space_group_name_H-M    P1
_symmetry_Int_Tables_number       1
_symmetry_cell_setting            triclinic
loop_
_symmetry_equiv_pos_as_xyz
'x, y, z'
_cell_length_a     31.682911
_cell_length_b     31.652171
_cell_length_c     40.88053
_cell_angle_alpha  89.980728
_cell_angle_beta   89.984337
_cell_angle_gamma 90.103151
loop_
_atom_site_label
_atom_site_type_symbol
_atom_site_fract_x
_atom_site_fract_y
_atom_site_fract_z
_atom_type_partial_charge
Co0 Co 0.20569 0.11806 0.01453 0.0
Co1 Co 0.30032 0.08984 0.0109 0.0
C2 C 0.25319 0.11012 0.95065 0.0
O3 O 0.22084 0.11735 0.96808 0.0
O4 O 0.28862 0.10043 0.96359 0.0
C5 C 0.14044 0.17411 0.99788 0.0
O6 O 0.17048 0.19151 0.98026 0.0
C7 C 0.38641 0.05428 0.00047 0.0
C8 C 0.40415 0.04305 0.05202 0.0
C9 C 0.41715 0.03606 0.02019 0.0
N10 N 0.3566 0.07128 0.02 0.0
N11 N 0.36772 0.06454 0.05071 0.0
C12 C 0.38218 0.05027 0.96422 0.0
H13 H 0.35522 0.02905 0.95862 0.0
H14 H 0.37506 0.08171 0.95356 0.0
H15 H 0.41129 0.0373 0.95298 0.0
C16 C 0.24048 0.17926 0.06121 0.0
N17 N 0.24551 0.14769 0.03961 0.0
N18 N 0.2858 0.13796 0.03738 0.0
C19 C 0.30786 0.16446 0.05698 0.0
C20 C 0.27976 0.19104 0.07286 0.0
C21 C 0.19859 0.19709 0.07092 0.0
H22 H 0.18624 0.21661 0.05053 0.0
H23 H 0.201 0.2172 0.09306 0.0
H24 H 0.17586 0.171 0.07536 0.0
O25 O 0.20024 0.05979 0.02859 0.0
O26 O 0.26634 0.03917 0.02249 0.0
H27 H 0.36341 0.14554 0.08258 0.0
H28 H 0.36631 0.19733 0.06508 0.0
C29 C 0.35477 0.16464 0.06085 0.0
H30 H 0.37024 0.15139 0.03881 0.0
H31 H 0.3489 0.07207 0.07082 0.0
O32 O 0.14924 0.14313 0.01636 0.0
C33 C 0.22793 0.03093 0.02895 0.0
Co34 Co 0.11881 0.79408 0.9954 0.0
Co35 Co 0.09068 0.69959 0.99467 0.0
C36 C 0.1152 0.73894 0.05645 0.0
O37 O 0.11992 0.77283 0.04024 0.0
O38 O 0.10561 0.70421 0.04224 0.0
C39 C 0.17742 0.8566 0.01553 0.0
O40 O 0.19754 0.82479 0.029 0.0
C41 C 0.06245 0.60876 0.99521 0.0
C42 C 0.02579 0.61037 0.94922 0.0
C43 C 0.03529 0.58461 0.97561 0.0
N44 N 0.06754 0.64686 0.98096 0.0
N45 N 0.04579 0.64725 0.95344 0.0
C46 C 0.08508 0.59605 0.02573 0.0
H47 H 0.11529 0.61368 0.02777 0.0
H48 H 0.09141 0.56157 0.02585 0.0
H49 H 0.0655 0.6044 0.04728 0.0
C50 C 0.17789 0.76349 0.94504 0.0
N51 N 0.14671 0.75698 0.96675 0.0
N52 N 0.13589 0.71683 0.96655 0.0
C53 C 0.16023 0.69636 0.94456 0.0
C54 C 0.18791 0.72525 0.93035 0.0
C55 C 0.19597 0.80609 0.93737 0.0
H56 H 0.17068 0.83026 0.93802 0.0
H57 H 0.21972 0.81442 0.95624 0.0
H58 H 0.2114 0.80647 0.91299 0.0
O59 O 0.05979 0.80275 0.98346 0.0
O60 O 0.04078 0.73591 0.98836 0.0
H61 H 0.1309 0.64422 0.9206 0.0
H62 H 0.18699 0.63817 0.92651 0.0
C63 C 0.15741 0.65004 0.93776 0.0
H64 H 0.15077 0.63258 0.96074 0.0
H65 H 0.04365 0.67336 0.93794 0.0
O66 O 0.14515 0.84976 0.9979 0.0
C67 C 0.03148 0.77436 0.98347 0.0
Co68 Co 0.78838 0.87589 0.00628 0.0
Co69 Co 0.69362 0.903 0.00421 0.0
C70 C 0.73707 0.87712 0.9437 0.0
O71 O 0.77043 0.87244 0.96052 0.0
O72 O 0.70216 0.88761 0.95712 0.0
C73 C 0.855 0.82087 0.98959 0.0
O74 O 0.82558 0.80239 0.97203 0.0
C75 C 0.60404 0.93116 0.99587 0.0
C76 C 0.58785 0.94245 0.04774 0.0
C77 C 0.5718 0.94476 0.01637 0.0
N78 N 0.6374 0.92047 0.01458 0.0
N79 N 0.62751 0.92793 0.04545 0.0
C80 C 0.60361 0.92884 0.95937 0.0
H81 H 0.62988 0.94823 0.94944 0.0
H82 H 0.6092 0.8957 0.9517 0.0
H83 H 0.57312 0.93997 0.94918 0.0
C84 C 0.75695 0.81809 0.05694 0.0
N85 N 0.75055 0.84814 0.03425 0.0
N86 N 0.71006 0.85715 0.03262 0.0
C87 C 0.68919 0.83148 0.05367 0.0
C88 C 0.71835 0.80645 0.06999 0.0
C89 C 0.79942 0.80069 0.06555 0.0
H90 H 0.82213 0.82703 0.06905 0.0
H91 H 0.81093 0.78101 0.04496 0.0
H92 H 0.79826 0.78089 0.08793 0.0
O93 O 0.79388 0.93512 0.01715 0.0
O94 O 0.72751 0.95547 0.01205 0.0
H95 H 0.63362 0.85093 0.07906 0.0
H96 H 0.63169 0.79783 0.0642 0.0
C97 C 0.64236 0.83033 0.0582 0.0
H98 H 0.62608 0.84129 0.03576 0.0
H99 H 0.64834 0.92402 0.06498 0.0
O100 O 0.84528 0.85187 0.00775 0.0
C101 C 0.76629 0.96406 0.01687 0.0
Co102 Co 0.87616 0.2055 0.99386 0.0
Co103 Co 0.90662 0.29964 0.99533 0.0
C104 C 0.87537 0.25994 0.05539 0.0
O105 O 0.87091 0.22618 0.03889 0.0
O106 O 0.88743 0.2944 0.04186 0.0
C107 C 0.817 0.14011 0.00982 0.0
O108 O 0.79693 0.16961 0.02617 0.0
C109 C 0.93518 0.39094 0.99574 0.0
C110 C 0.97742 0.38668 0.9528 0.0
C111 C 0.96446 0.41409 0.9772 0.0
N112 N 0.93217 0.35185 0.98279 0.0
N113 N 0.95729 0.34993 0.95709 0.0
C114 C 0.90859 0.40554 0.02373 0.0
H115 H 0.87859 0.38737 0.02443 0.0
H116 H 0.90169 0.4398 0.02163 0.0
H117 H 0.92555 0.39946 0.047 0.0
C118 C 0.82391 0.23826 0.93981 0.0
N119 N 0.85243 0.24374 0.96377 0.0
N120 N 0.86384 0.28371 0.96484 0.0
C121 C 0.84234 0.30515 0.94167 0.0
C122 C 0.81653 0.27693 0.92492 0.0
C123 C 0.80335 0.19679 0.93221 0.0
H124 H 0.82793 0.17215 0.92931 0.0
H125 H 0.78301 0.18747 0.95309 0.0
H126 H 0.78369 0.19837 0.90981 0.0
O127 O 0.93628 0.19592 0.98565 0.0
O128 O 0.95611 0.26237 0.99145 0.0
H129 H 0.87801 0.35626 0.92182 0.0
H130 H 0.82167 0.36373 0.91969 0.0
C131 C 0.84778 0.35128 0.93497 0.0
H132 H 0.84942 0.36889 0.95841 0.0
H133 H 0.96121 0.323 0.94269 0.0
O134 O 0.84915 0.14977 0.99282 0.0
C135 C 0.96507 0.22376 0.9871 0.0
Co136 Co 0.20091 0.38274 0.23582 0.0
Co137 Co 0.29483 0.4139 0.23874 0.0
C138 C 0.25197 0.38844 0.29885 0.0
O139 O 0.21942 0.3825 0.28133 0.0
O140 O 0.28748 0.39867 0.28604 0.0
C141 C 0.13716 0.32381 0.25417 0.0
O142 O 0.16736 0.30558 0.27102 0.0
C143 C 0.38638 0.44364 0.2381 0.0
C144 C 0.38238 0.47873 0.19152 0.0
C145 C 0.40985 0.46925 0.21679 0.0
N146 N 0.3473 0.43857 0.22546 0.0
N147 N 0.34555 0.45962 0.19763 0.0
C148 C 0.40059 0.42367 0.26932 0.0
H149 H 0.38007 0.39634 0.27549 0.0
H150 H 0.43394 0.4133 0.26727 0.0
H151 H 0.39828 0.44717 0.28937 0.0
C152 C 0.23686 0.32388 0.1878 0.0
N153 N 0.24072 0.35604 0.209 0.0
N154 N 0.28045 0.36811 0.21036 0.0
C155 C 0.30326 0.34371 0.18986 0.0
C156 C 0.27637 0.31469 0.1751 0.0
C157 C 0.19571 0.30337 0.17921 0.0
H158 H 0.17054 0.3276 0.17771 0.0
H159 H 0.18703 0.28066 0.19878 0.0
H160 H 0.19773 0.28618 0.1556 0.0
O161 O 0.19139 0.44151 0.22367 0.0
O162 O 0.25704 0.46247 0.23187 0.0
H163 H 0.35659 0.37443 0.16865 0.0
H164 H 0.36321 0.31828 0.1743 0.0
C165 C 0.34992 0.34747 0.18523 0.0
H166 H 0.36539 0.35403 0.20906 0.0
H167 H 0.31868 0.46142 0.18293 0.0
O168 O 0.14578 0.35488 0.23569 0.0
C169 C 0.21876 0.47069 0.22547 0.0
Co170 Co 0.38081 0.7925 0.76168 0.0
Co171 Co 0.40323 0.69594 0.75773 0.0
C172 C 0.37995 0.7425 0.6981 0.0
O173 O 0.37701 0.7753 0.71579 0.0
O174 O 0.3883 0.7065 0.71074 0.0
C175 C 0.33179 0.86305 0.7432 0.0
O176 O 0.3141 0.83498 0.72389 0.0
C177 C 0.43494 0.60845 0.74668 0.0
C178 C 0.44257 0.58739 0.79782 0.0
C179 C 0.4496 0.57526 0.76582 0.0
N180 N 0.41901 0.63841 0.76662 0.0
N181 N 0.42385 0.62543 0.79712 0.0
C182 C 0.44065 0.61401 0.71065 0.0
H183 H 0.46089 0.64207 0.70608 0.0
H184 H 0.40953 0.62022 0.69918 0.0
H185 H 0.45519 0.58566 0.69934 0.0
C186 C 0.32172 0.76237 0.81171 0.0
N187 N 0.35134 0.75498 0.78891 0.0
N188 N 0.35809 0.71403 0.7865 0.0
C189 C 0.33117 0.69401 0.80711 0.0
C190 C 0.30792 0.72405 0.82409 0.0
C191 C 0.30682 0.80556 0.82104 0.0
H192 H 0.33444 0.82599 0.82648 0.0
H193 H 0.28982 0.81971 0.80002 0.0
H194 H 0.28531 0.80471 0.84246 0.0
O195 O 0.44002 0.79473 0.7728 0.0
O196 O 0.45706 0.72765 0.76595 0.0
H197 H 0.34447 0.63636 0.83223 0.0
H198 H 0.29313 0.63853 0.81417 0.0
C199 C 0.32675 0.64716 0.81038 0.0
H200 H 0.3388 0.63096 0.78824 0.0
H201 H 0.41709 0.64386 0.81761 0.0
O202 O 0.35954 0.85102 0.76358 0.0
C203 C 0.46755 0.76577 0.77183 0.0
Co204 Co 0.79053 0.62216 0.24243 0.0
Co205 Co 0.6959 0.59297 0.24393 0.0
C206 C 0.73647 0.61971 0.30446 0.0
O207 O 0.76937 0.62428 0.28712 0.0
O208 O 0.70123 0.60911 0.29141 0.0
C209 C 0.85175 0.68473 0.25916 0.0
O210 O 0.81951 0.70496 0.27185 0.0
C211 C 0.60425 0.56345 0.24106 0.0
C212 C 0.61006 0.52917 0.19426 0.0
C213 C 0.58163 0.53817 0.219 0.0
N214 N 0.64379 0.56879 0.22935 0.0
N215 N 0.64661 0.54823 0.20137 0.0
C216 C 0.58888 0.58282 0.27217 0.0
H217 H 0.60919 0.61001 0.27911 0.0
H218 H 0.55564 0.59328 0.2695 0.0
H219 H 0.59042 0.55893 0.292 0.0
C220 C 0.75812 0.67857 0.19109 0.0
N221 N 0.75252 0.64835 0.21376 0.0
N222 N 0.71241 0.63759 0.21487 0.0
C223 C 0.69107 0.66105 0.19279 0.0
C224 C 0.71941 0.68788 0.17704 0.0
C225 C 0.80022 0.69673 0.1821 0.0
H226 H 0.82508 0.67231 0.18454 0.0
H227 H 0.80776 0.72308 0.19901 0.0
H228 H 0.80014 0.70907 0.15668 0.0
O229 O 0.79969 0.56266 0.23181 0.0
O230 O 0.73313 0.54348 0.2384 0.0
H231 H 0.63729 0.63142 0.17132 0.0
H232 H 0.63228 0.68785 0.17607 0.0
C233 C 0.64442 0.65853 0.18761 0.0
H234 H 0.62821 0.65303 0.21131 0.0
H235 H 0.67402 0.54671 0.18726 0.0
O236 O 0.84568 0.65022 0.24399 0.0
C237 C 0.77147 0.53419 0.23311 0.0
Co238 Co 0.61588 0.20706 0.76469 0.0
Co239 Co 0.59103 0.30274 0.76037 0.0
C240 C 0.61231 0.25519 0.7006 0.0
O241 O 0.61721 0.22294 0.71859 0.0
O242 O 0.6033 0.29112 0.71304 0.0
C243 C 0.67003 0.13994 0.74743 0.0
O244 O 0.6899 0.16989 0.73133 0.0
C245 C 0.55933 0.39003 0.74819 0.0
C246 C 0.56003 0.41568 0.79842 0.0
C247 C 0.54958 0.42569 0.76653 0.0
N248 N 0.57585 0.36066 0.76836 0.0
N249 N 0.57553 0.37618 0.79838 0.0
C250 C 0.55155 0.38314 0.71253 0.0
H251 H 0.53211 0.35426 0.70921 0.0
H252 H 0.58216 0.37766 0.70005 0.0
H253 H 0.53551 0.41065 0.70122 0.0
C254 C 0.67819 0.23943 0.81127 0.0
N255 N 0.64616 0.24561 0.79032 0.0
N256 N 0.63841 0.28632 0.78755 0.0
C257 C 0.66696 0.30749 0.80602 0.0
C258 C 0.69263 0.27837 0.82196 0.0
C259 C 0.69354 0.19678 0.82164 0.0
H260 H 0.66688 0.17404 0.82227 0.0
H261 H 0.71713 0.18536 0.80365 0.0
H262 H 0.70859 0.19806 0.84613 0.0
O263 O 0.55742 0.20377 0.77792 0.0
O264 O 0.53828 0.27047 0.77159 0.0
H265 H 0.65713 0.36856 0.82713 0.0
H266 H 0.70724 0.36217 0.80761 0.0
C267 C 0.67315 0.35437 0.80569 0.0
H268 H 0.66011 0.36825 0.78293 0.0
H269 H 0.58413 0.35907 0.81913 0.0
O270 O 0.63899 0.14952 0.76562 0.0
C271 C 0.52918 0.23209 0.77798 0.0
Co272 Co 0.70735 0.61895 0.50904 0.0
Co273 Co 0.80257 0.59273 0.50649 0.0
C274 C 0.75753 0.61643 0.44603 0.0
O275 O 0.72441 0.62115 0.46313 0.0
O276 O 0.79285 0.6067 0.45919 0.0
C277 C 0.64058 0.6749 0.49302 0.0
O278 O 0.67024 0.69587 0.47746 0.0
C279 C 0.89144 0.56219 0.49762 0.0
C280 C 0.91059 0.55728 0.54947 0.0
C281 C 0.9246 0.55026 0.51792 0.0
N282 N 0.85944 0.57611 0.51653 0.0
N283 N 0.87113 0.5725 0.54744 0.0
C284 C 0.88971 0.55981 0.46114 0.0
H285 H 0.86523 0.53654 0.45383 0.0
H286 H 0.88018 0.59098 0.45118 0.0
H287 H 0.92065 0.55047 0.45068 0.0
C288 C 0.73932 0.68054 0.55659 0.0
N289 N 0.74547 0.64831 0.53576 0.0
N290 N 0.78602 0.63959 0.53394 0.0
C291 C 0.80714 0.66746 0.55306 0.0
C292 C 0.77818 0.6941 0.56808 0.0
C293 C 0.69671 0.69664 0.5663 0.0
H294 H 0.67388 0.67008 0.56761 0.0
H295 H 0.68546 0.71931 0.54755 0.0
H296 H 0.69787 0.71293 0.59032 0.0
O297 O 0.70262 0.56002 0.52126 0.0
O298 O 0.76912 0.54026 0.51577 0.0
H299 H 0.86562 0.65385 0.57677 0.0
H300 H 0.86348 0.70489 0.55794 0.0
C301 C 0.85413 0.67128 0.55499 0.0
H302 H 0.86911 0.65821 0.53268 0.0
H303 H 0.85162 0.57936 0.5673 0.0
O304 O 0.65032 0.64275 0.50998 0.0
C305 C 0.73053 0.53137 0.52126 0.0
Co306 Co 0.62328 0.28901 0.49716 0.0
Co307 Co 0.59418 0.19426 0.49643 0.0
C308 C 0.61625 0.23635 0.55872 0.0
O309 O 0.62328 0.26992 0.54257 0.0
O310 O 0.60573 0.20201 0.54437 0.0
C311 C 0.68105 0.35505 0.51442 0.0
O312 O 0.7026 0.32498 0.52892 0.0
C313 C 0.56473 0.10446 0.50281 0.0
C314 C 0.55361 0.09022 0.45058 0.0
C315 C 0.55019 0.07321 0.48163 0.0
N316 N 0.57638 0.13828 0.48483 0.0
N317 N 0.56923 0.12947 0.45372 0.0
C318 C 0.56778 0.10239 0.53924 0.0
H319 H 0.54384 0.12375 0.55011 0.0
H320 H 0.59933 0.1138 0.54706 0.0
H321 H 0.56265 0.06975 0.54835 0.0
C322 C 0.6842 0.25767 0.44884 0.0
N323 N 0.65234 0.25123 0.46997 0.0
N324 N 0.64209 0.21089 0.47027 0.0
C325 C 0.66833 0.19017 0.44968 0.0
C326 C 0.69571 0.21917 0.43542 0.0
C327 C 0.70095 0.30045 0.43999 0.0
H328 H 0.67494 0.32385 0.43994 0.0
H329 H 0.72452 0.31033 0.45854 0.0
H330 H 0.71632 0.30021 0.41559 0.0
O331 O 0.56484 0.29554 0.48369 0.0
O332 O 0.5434 0.22905 0.48603 0.0
H333 H 0.64875 0.1352 0.42347 0.0
H334 H 0.70144 0.13245 0.43926 0.0
C335 C 0.66891 0.14337 0.44472 0.0
H336 H 0.65691 0.12687 0.46678 0.0
H337 H 0.5741 0.15078 0.43461 0.0
O338 O 0.64833 0.34577 0.49797 0.0
C339 C 0.53575 0.2681 0.48157 0.0
Co340 Co 0.29038 0.36883 0.49931 0.0
Co341 Co 0.19788 0.40361 0.50551 0.0
C342 C 0.23642 0.37925 0.44069 0.0
O343 O 0.27043 0.36994 0.45522 0.0
O344 O 0.20372 0.39125 0.45667 0.0
C345 C 0.35973 0.31716 0.47719 0.0
O346 O 0.33346 0.3024 0.45511 0.0
C347 C 0.1101 0.43916 0.49964 0.0
C348 C 0.10467 0.46707 0.54902 0.0
C349 C 0.08405 0.46405 0.5193 0.0
N350 N 0.14416 0.42766 0.51742 0.0
N351 N 0.14055 0.44483 0.54675 0.0
C352 C 0.10639 0.43221 0.46358 0.0
H353 H 0.13625 0.44184 0.45151 0.0
H354 H 0.10166 0.39802 0.45879 0.0
H355 H 0.07993 0.45046 0.45287 0.0
C356 C 0.25845 0.30522 0.54431 0.0
N357 N 0.25191 0.34018 0.52655 0.0
N358 N 0.21434 0.35579 0.5329 0.0
C359 C 0.19706 0.3323 0.55732 0.0
C360 C 0.22521 0.30008 0.5663 0.0
C361 C 0.29163 0.2735 0.53537 0.0
H362 H 0.29225 0.26964 0.50842 0.0
H363 H 0.28525 0.24217 0.54655 0.0
H364 H 0.32316 0.2852 0.54295 0.0
O365 O 0.30044 0.42782 0.51256 0.0
O366 O 0.2352 0.45209 0.51387 0.0
H367 H 0.15632 0.3406 0.59882 0.0
H368 H 0.13286 0.3139 0.5644 0.0
C369 C 0.15436 0.33991 0.57172 0.0
H370 H 0.14047 0.36946 0.56276 0.0
H371 H 0.16367 0.44289 0.56488 0.0
O372 O 0.34677 0.34294 0.49877 0.0
C373 C 0.27467 0.45811 0.51616 0.0
Co374 Co 0.37636 0.70422 0.49492 0.0
Co375 Co 0.40505 0.79923 0.4946 0.0
C376 C 0.37762 0.75857 0.55608 0.0
O377 O 0.3723 0.72449 0.54014 0.0
O378 O 0.38904 0.79264 0.54173 0.0
C379 C 0.32536 0.63418 0.51453 0.0
O380 O 0.30815 0.66154 0.53465 0.0
C381 C 0.44147 0.88616 0.50103 0.0
C382 C 0.45401 0.89923 0.44881 0.0
C383 C 0.46 0.91539 0.4799 0.0
N384 N 0.42495 0.85453 0.48293 0.0
N385 N 0.43273 0.86275 0.45181 0.0
C386 C 0.44465 0.88507 0.53752 0.0
H387 H 0.45035 0.85224 0.54592 0.0
H388 H 0.41424 0.89572 0.54814 0.0
H389 H 0.47031 0.90602 0.54644 0.0
C390 C 0.32015 0.73433 0.44276 0.0
N391 N 0.34983 0.7414 0.4656 0.0
N392 N 0.35947 0.78189 0.46621 0.0
C393 C 0.33461 0.80211 0.4443 0.0
C394 C 0.30957 0.7725 0.42835 0.0
C395 C 0.30195 0.6917 0.43547 0.0
H396 H 0.28571 0.67958 0.45762 0.0
H397 H 0.27904 0.69276 0.41497 0.0
H398 H 0.32786 0.66944 0.42952 0.0
O399 O 0.43578 0.69778 0.48494 0.0
O400 O 0.45667 0.76424 0.4881 0.0
H401 H 0.35387 0.85631 0.41693 0.0
H402 H 0.30168 0.85974 0.43336 0.0
C403 C 0.33422 0.84879 0.43862 0.0
H404 H 0.34655 0.86583 0.4603 0.0
H405 H 0.42585 0.84205 0.43268 0.0
O406 O 0.35279 0.64663 0.49402 0.0
C407 C 0.46494 0.72521 0.4845 0.0
Co408 Co 0.70442 0.87546 0.73941 0.0
Co409 Co 0.79775 0.90792 0.74241 0.0
C410 C 0.75644 0.87699 0.80197 0.0
O411 O 0.72393 0.87149 0.7844 0.0
O412 O 0.79123 0.88952 0.7893 0.0
C413 C 0.64258 0.81352 0.75552 0.0
O414 O 0.67422 0.79299 0.7688 0.0
C415 C 0.88624 0.94088 0.74907 0.0
C416 C 0.89195 0.97165 0.70066 0.0
C417 C 0.91257 0.96637 0.73017 0.0
N418 N 0.85139 0.93204 0.73142 0.0
N419 N 0.85533 0.95037 0.70252 0.0
C420 C 0.8919 0.92864 0.7841 0.0
H421 H 0.86491 0.94076 0.79862 0.0
H422 H 0.89151 0.89367 0.78612 0.0
H423 H 0.92185 0.94123 0.79427 0.0
C424 C 0.73875 0.82321 0.68647 0.0
N425 N 0.74355 0.85191 0.71037 0.0
N426 N 0.78334 0.86376 0.712 0.0
C427 C 0.8054 0.84197 0.68926 0.0
C428 C 0.77772 0.81589 0.67223 0.0
C429 C 0.69746 0.80302 0.67787 0.0
H430 H 0.67263 0.82759 0.67615 0.0
H431 H 0.68835 0.78086 0.69768 0.0
H432 H 0.69922 0.78518 0.65456 0.0
O433 O 0.69438 0.93511 0.73065 0.0
O434 O 0.75992 0.95757 0.73737 0.0
H435 H 0.8567 0.8735 0.66588 0.0
H436 H 0.86498 0.81788 0.67203 0.0
C437 C 0.85165 0.84694 0.68316 0.0
H438 H 0.86833 0.85418 0.70635 0.0
H439 H 0.83212 0.94964 0.68442 0.0
O440 O 0.64943 0.84714 0.73937 0.0
C441 C 0.72095 0.96502 0.7327 0.0
Co442 Co 0.87401 0.29226 0.26041 0.0
Co443 Co 0.90249 0.19775 0.25646 0.0
C444 C 0.87399 0.24143 0.19713 0.0
O445 O 0.86973 0.27403 0.21486 0.0
O446 O 0.88494 0.20602 0.20964 0.0
C447 C 0.81756 0.35779 0.24386 0.0
O448 O 0.79935 0.32781 0.22669 0.0
C449 C 0.93934 0.1111 0.24873 0.0
C450 C 0.95463 0.0987 0.30061 0.0
C451 C 0.95924 0.0824 0.26945 0.0
N452 N 0.92346 0.14268 0.26715 0.0
N453 N 0.93278 0.13481 0.29806 0.0
C454 C 0.94029 0.1116 0.21217 0.0
H455 H 0.94639 0.14418 0.20329 0.0
H456 H 0.90893 0.10169 0.20282 0.0
H457 H 0.9647 0.08981 0.20249 0.0
C458 C 0.82001 0.25932 0.31267 0.0
N459 N 0.84845 0.25357 0.28873 0.0
N460 N 0.85792 0.2132 0.2864 0.0
C461 C 0.83416 0.19173 0.3084 0.0
C462 C 0.81003 0.22039 0.32601 0.0
C463 C 0.80283 0.30154 0.32232 0.0
H464 H 0.82926 0.32414 0.32583 0.0
H465 H 0.78277 0.31374 0.3022 0.0
H466 H 0.78358 0.29972 0.34495 0.0
O467 O 0.9333 0.29928 0.27004 0.0
O468 O 0.95405 0.23337 0.26248 0.0
H469 H 0.85494 0.13642 0.33357 0.0
H470 H 0.80188 0.13351 0.31875 0.0
C471 C 0.83414 0.14483 0.31275 0.0
H472 H 0.84539 0.12889 0.29024 0.0
H473 H 0.9265 0.15552 0.31729 0.0
O474 O 0.84869 0.34868 0.26209 0.0
C475 C 0.96245 0.27208 0.26787 0.0
Co476 Co 0.28686 0.12837 0.75397 0.0
Co477 Co 0.19754 0.0873 0.74409 0.0
C478 C 0.23119 0.11338 0.81024 0.0
O479 O 0.26519 0.12605 0.79729 0.0
O480 O 0.20041 0.09916 0.79316 0.0
C481 C 0.35243 0.18509 0.77666 0.0
O482 O 0.3244 0.20048 0.79708 0.0
C483 C 0.10646 0.06247 0.74622 0.0
C484 C 0.10661 0.01345 0.70766 0.0
C485 C 0.08153 0.03174 0.73137 0.0
N486 N 0.14477 0.06202 0.73189 0.0
N487 N 0.14436 0.03279 0.70878 0.0
C488 C 0.09601 0.08809 0.77582 0.0
H489 H 0.11008 0.07272 0.79764 0.0
H490 H 0.11013 0.12008 0.77355 0.0
H491 H 0.0614 0.0904 0.77947 0.0
C492 C 0.25405 0.18848 0.70663 0.0
N493 N 0.24826 0.1543 0.72541 0.0
N494 N 0.21355 0.13455 0.71672 0.0
C495 C 0.1984 0.15351 0.68943 0.0
C496 C 0.22407 0.18832 0.68163 0.0
C497 C 0.28338 0.22355 0.71633 0.0
H498 H 0.28117 0.22863 0.74312 0.0
H499 H 0.27539 0.25359 0.70379 0.0
H500 H 0.31644 0.2145 0.71089 0.0
O501 O 0.30059 0.06922 0.74188 0.0
O502 O 0.23703 0.04094 0.73708 0.0
H503 H 0.16789 0.14141 0.64323 0.0
H504 H 0.13299 0.15286 0.67694 0.0
C505 C 0.16245 0.13637 0.66976 0.0
H506 H 0.15837 0.1022 0.67436 0.0
H507 H 0.1705 0.02488 0.69452 0.0
O508 O 0.34169 0.15731 0.75582 0.0
C509 C 0.27687 0.03741 0.73697 0.0
Co510 Co 0.11254 0.70808 0.2618 0.0
Co511 Co 0.09189 0.80426 0.25817 0.0
C512 C 0.11347 0.7583 0.1983 0.0
O513 O 0.1154 0.72561 0.21611 0.0
O514 O 0.10629 0.79455 0.21091 0.0
C515 C 0.16787 0.64419 0.24375 0.0
O516 O 0.18727 0.6764 0.23009 0.0
C517 C 0.06377 0.89359 0.24914 0.0
C518 C 0.05818 0.91277 0.30093 0.0
C519 C 0.05168 0.92685 0.26931 0.0
N520 N 0.0771 0.86149 0.2682 0.0
N521 N 0.07323 0.87322 0.29907 0.0
C522 C 0.06217 0.89186 0.21262 0.0
H523 H 0.03638 0.87022 0.20504 0.0
H524 H 0.09222 0.87877 0.20309 0.0
H525 H 0.05668 0.92364 0.20197 0.0
C526 C 0.17411 0.7366 0.3104 0.0
N527 N 0.14329 0.74457 0.28873 0.0
N528 N 0.13704 0.78556 0.28657 0.0
C529 C 0.16513 0.80513 0.30646 0.0
C530 C 0.18933 0.77468 0.32226 0.0
C531 C 0.18715 0.6931 0.3206 0.0
H532 H 0.15936 0.67174 0.32077 0.0
H533 H 0.21035 0.68064 0.30272 0.0
H534 H 0.20191 0.69334 0.34522 0.0
O535 O 0.05367 0.7055 0.27401 0.0
O536 O 0.0379 0.77286 0.26639 0.0
H537 H 0.15406 0.86411 0.33029 0.0
H538 H 0.20523 0.85948 0.31205 0.0
C539 C 0.17128 0.85189 0.30866 0.0
H540 H 0.15941 0.8677 0.28627 0.0
H541 H 0.07942 0.85357 0.31898 0.0
O542 O 0.1354 0.65079 0.26121 0.0
C543 C 0.02671 0.73505 0.27269 0.0
C544 C 0.21214 0.13037 0.90056 0.0
C545 C 0.24756 0.11013 0.91466 0.0
C546 C 0.20492 0.12949 0.86665 0.0
C547 C 0.23277 0.10813 0.8459 0.0
H548 H 0.1901 0.14763 0.91576 0.0
H549 H 0.17848 0.14683 0.85659 0.0
S550 S 0.32751 0.0468 0.87016 0.0
N551 N 0.30888 0.0658 0.90486 0.0
N552 N 0.2953 0.06411 0.84142 0.0
C553 C 0.26733 0.08663 0.85967 0.0
C554 C 0.27481 0.0877 0.89396 0.0
C555 C 0.11527 0.78266 0.10735 0.0
C556 C 0.11774 0.74232 0.09263 0.0
C557 C 0.11483 0.78766 0.14136 0.0
C558 C 0.11723 0.75261 0.16227 0.0
H559 H 0.11256 0.81088 0.09251 0.0
H560 H 0.11189 0.81927 0.15126 0.0
S561 S 0.12758 0.64016 0.13619 0.0
N562 N 0.12476 0.66689 0.1016 0.0
N563 N 0.12457 0.67579 0.16556 0.0
C564 C 0.12116 0.71203 0.14788 0.0
C565 C 0.12119 0.70701 0.11312 0.0
C566 C 0.7812 0.87713 0.89294 0.0
C567 C 0.74099 0.87347 0.90764 0.0
C568 C 0.78622 0.87702 0.85887 0.0
C569 C 0.7513 0.87269 0.83802 0.0
H570 H 0.80917 0.88142 0.90782 0.0
H571 H 0.81762 0.88119 0.84888 0.0
S572 S 0.63936 0.85849 0.86429 0.0
N573 N 0.66597 0.86312 0.89879 0.0
N574 N 0.67486 0.86214 0.8349 0.0
C575 C 0.71095 0.86729 0.85249 0.0
C576 C 0.70592 0.86795 0.88721 0.0
C577 C 0.87247 0.21627 0.10632 0.0
C578 C 0.87063 0.25654 0.09143 0.0
C579 C 0.87228 0.21149 0.14037 0.0
C580 C 0.86971 0.24671 0.1611 0.0
H581 H 0.87554 0.18799 0.0916 0.0
H582 H 0.87508 0.17996 0.15045 0.0
S583 S 0.8602 0.35901 0.13443 0.0
N584 N 0.86355 0.33203 0.1 0.0
N585 N 0.86246 0.32356 0.16397 0.0
C586 C 0.86595 0.28718 0.14649 0.0
C587 C 0.86665 0.29197 0.11173 0.0
C588 C 0.28218 0.37938 0.35484 0.0
C589 C 0.24681 0.38493 0.3348 0.0
C590 C 0.27792 0.37653 0.3888 0.0
C591 C 0.23813 0.37964 0.40438 0.0
H592 H 0.31346 0.37715 0.34426 0.0
H593 H 0.30657 0.37261 0.40293 0.0
S594 S 0.13527 0.39426 0.36287 0.0
N595 N 0.17016 0.39324 0.33289 0.0
N596 N 0.16265 0.38814 0.39688 0.0
C597 C 0.20239 0.38496 0.38464 0.0
C598 C 0.20661 0.38751 0.34988 0.0
C599 C 0.37265 0.71215 0.64176 0.0
C600 C 0.37606 0.74771 0.66208 0.0
C601 C 0.37154 0.71635 0.60767 0.0
C602 C 0.3743 0.75628 0.59231 0.0
H603 H 0.37136 0.68071 0.65219 0.0
H604 H 0.36971 0.68768 0.59327 0.0
S605 S 0.38173 0.8598 0.63439 0.0
N606 N 0.38058 0.82474 0.66425 0.0
N607 N 0.37878 0.83219 0.60024 0.0
C608 C 0.37663 0.79222 0.61231 0.0
C609 C 0.37744 0.78805 0.64711 0.0
C610 C 0.71303 0.61356 0.39557 0.0
C611 C 0.75301 0.62 0.41005 0.0
C612 C 0.7075 0.61482 0.36156 0.0
C613 C 0.74163 0.62305 0.34059 0.0
H614 H 0.68577 0.60634 0.41058 0.0
H615 H 0.67643 0.60839 0.35169 0.0
S616 S 0.85222 0.6462 0.36658 0.0
N617 N 0.82666 0.63737 0.40108 0.0
N618 N 0.81678 0.64072 0.33732 0.0
C619 C 0.7816 0.63125 0.35496 0.0
C620 C 0.78718 0.62938 0.38959 0.0
C621 C 0.61638 0.27987 0.60974 0.0
C622 C 0.6174 0.23954 0.59495 0.0
C623 C 0.61516 0.28471 0.64376 0.0
C624 C 0.61535 0.24946 0.66457 0.0
H625 H 0.61564 0.30825 0.59494 0.0
H626 H 0.61378 0.31638 0.65375 0.0
S627 S 0.61964 0.13674 0.63835 0.0
N628 N 0.61971 0.16376 0.60383 0.0
N629 N 0.61777 0.17237 0.66777 0.0
C630 C 0.61724 0.20881 0.65014 0.0
C631 C 0.61813 0.20398 0.61539 0.0
C632 C 0.24461 0.95364 0.03023 0.0
C633 C 0.21433 0.98623 0.03146 0.0
C634 C 0.23249 0.91135 0.0262 0.0
C635 C 0.1898 0.90039 0.02277 0.0
H636 H 0.27801 0.9609 0.0311 0.0
H637 H 0.25674 0.88738 0.02432 0.0
S638 S 0.09779 0.97219 0.02932 0.0
N639 N 0.1393 0.0034 0.03288 0.0
N640 N 0.11695 0.92413 0.0247 0.0
C641 C 0.15912 0.93208 0.02594 0.0
C642 C 0.17129 0.97496 0.03054 0.0
C643 C 0.97417 0.827 0.9916 0.0
C644 C 0.98657 0.7864 0.9816 0.0
C645 C 0.93152 0.83764 0.9942 0.0
C646 C 0.89963 0.80833 0.98643 0.0
H647 H 0.99752 0.85037 0.99858 0.0
H648 H 0.92354 0.86918 0.00242 0.0
S649 S 0.91542 0.69856 0.95718 0.0
N650 N 0.96362 0.71716 0.96264 0.0
N651 N 0.88327 0.7375 0.96712 0.0
C652 C 0.91152 0.76805 0.97538 0.0
C653 C 0.95503 0.757 0.97309 0.0
C654 C 0.75052 0.04147 0.0218 0.0
C655 C 0.78027 0.00876 0.0182 0.0
C656 C 0.76264 0.08405 0.01965 0.0
C657 C 0.80474 0.09533 0.01318 0.0
H658 H 0.71751 0.03419 0.02585 0.0
H659 H 0.7387 0.10822 0.02221 0.0
S660 S 0.8955 0.02229 0.00395 0.0
N661 N 0.85439 0.99111 0.00965 0.0
N662 N 0.8767 0.07081 0.0052 0.0
C663 C 0.83497 0.0631 0.01037 0.0
C664 C 0.82287 0.01991 0.01303 0.0
C665 C 0.06343 0.15893 0.00135 0.0
C666 C 0.09616 0.18757 0.99413 0.0
C667 C 0.02108 0.17033 0.99761 0.0
C668 C 0.00987 0.21103 0.98702 0.0
H669 H 0.07051 0.1273 0.00985 0.0
H670 H 0.997 0.14743 0.00402 0.0
S671 S 0.08365 0.29746 0.96417 0.0
N672 N 0.11463 0.25799 0.97506 0.0
N673 N 0.03492 0.27976 0.96849 0.0
C674 C 0.04231 0.23983 0.97931 0.0
C675 C 0.08548 0.22802 0.98273 0.0
C676 C 0.15234 0.56722 0.2411 0.0
C677 C 0.18125 0.60054 0.23677 0.0
C678 C 0.16401 0.52536 0.23526 0.0
C679 C 0.20522 0.51521 0.22532 0.0
H680 H 0.12044 0.5734 0.24934 0.0
H681 H 0.14104 0.50071 0.24002 0.0
S682 S 0.29197 0.59101 0.20815 0.0
N683 N 0.25212 0.62089 0.21998 0.0
N684 N 0.2743 0.54194 0.20937 0.0
C685 C 0.23403 0.54832 0.21973 0.0
C686 C 0.22199 0.59106 0.22538 0.0
C687 C 0.58671 0.75851 0.76308 0.0
C688 C 0.5988 0.80118 0.76277 0.0
C689 C 0.54433 0.74698 0.76772 0.0
C690 C 0.51285 0.77777 0.77277 0.0
H691 H 0.60981 0.73404 0.75843 0.0
H692 H 0.53608 0.71381 0.76621 0.0
S693 S 0.53059 0.8937 0.77974 0.0
N694 N 0.57758 0.87399 0.77157 0.0
N695 N 0.49833 0.85275 0.78106 0.0
C696 C 0.52545 0.82047 0.77481 0.0
C697 C 0.56833 0.83208 0.76955 0.0
C698 C 0.83424 0.43456 0.24723 0.0
C699 C 0.80513 0.40237 0.23967 0.0
C700 C 0.8238 0.47717 0.2434 0.0
C701 C 0.7836 0.48922 0.23235 0.0
H702 H 0.86547 0.42687 0.25621 0.0
H703 H 0.84693 0.5008 0.25029 0.0
S704 S 0.69656 0.41727 0.20776 0.0
N705 N 0.73501 0.3854 0.21925 0.0
N706 N 0.71506 0.46567 0.21253 0.0
C707 C 0.75446 0.45739 0.22401 0.0
C708 C 0.7653 0.41392 0.22753 0.0
C709 C 0.4097 0.23836 0.78568 0.0
C710 C 0.3973 0.19645 0.7797 0.0
C711 C 0.4526 0.24962 0.78618 0.0
C712 C 0.4844 0.21911 0.78146 0.0
H713 H 0.38614 0.26278 0.78882 0.0
H714 H 0.46083 0.28254 0.78966 0.0
S715 S 0.46746 0.1039 0.76857 0.0
N716 N 0.41954 0.12386 0.77138 0.0
N717 N 0.49986 0.14437 0.77291 0.0
C718 C 0.47205 0.17662 0.77713 0.0
C719 C 0.42856 0.16547 0.77606 0.0
C720 C 0.74743 0.45402 0.52458 0.0
C721 C 0.71706 0.4865 0.52351 0.0
C722 C 0.73557 0.41137 0.52245 0.0
C723 C 0.69305 0.39977 0.5186 0.0
H724 H 0.78072 0.46155 0.52632 0.0
H725 H 0.75998 0.38744 0.52274 0.0
S726 S 0.60073 0.47176 0.51761 0.0
N727 N 0.64198 0.50335 0.52094 0.0
N728 N 0.62018 0.42348 0.51642 0.0
C729 C 0.66225 0.43164 0.51871 0.0
C730 C 0.67413 0.47492 0.52136 0.0
C731 C 0.45997 0.25311 0.4682 0.0
C732 C 0.49153 0.28222 0.47736 0.0
C733 C 0.41731 0.26486 0.46729 0.0
C734 C 0.40475 0.30579 0.47621 0.0
H735 H 0.46818 0.22084 0.46214 0.0
H736 H 0.39393 0.2414 0.46057 0.0
S737 S 0.4747 0.39478 0.49987 0.0
N738 N 0.507 0.35473 0.49369 0.0
N739 N 0.42693 0.37623 0.4925 0.0
C740 C 0.4359 0.3355 0.48455 0.0
C741 C 0.47928 0.32388 0.48493 0.0
C742 C 0.2746 0.57669 0.52878 0.0
C743 C 0.31424 0.58894 0.51662 0.0
C744 C 0.26273 0.53408 0.52979 0.0
C745 C 0.29035 0.50203 0.5192 0.0
H746 H 0.25206 0.60027 0.53672 0.0
H747 H 0.23129 0.52629 0.53834 0.0
S748 S 0.39957 0.51747 0.48829 0.0
N749 N 0.38233 0.56567 0.49585 0.0
N750 N 0.3603 0.48553 0.49808 0.0
C751 C 0.3309 0.51379 0.5084 0.0
C752 C 0.34273 0.55725 0.50694 0.0
C753 C 0.5423 0.74098 0.48035 0.0
C754 C 0.50952 0.71111 0.48354 0.0
C755 C 0.58474 0.72897 0.48291 0.0
C756 C 0.59588 0.68684 0.4893 0.0
H757 H 0.53519 0.77405 0.47637 0.0
H758 H 0.60892 0.75306 0.48071 0.0
S759 S 0.52271 0.59566 0.49721 0.0
N760 N 0.49166 0.63678 0.49143 0.0
N761 N 0.57123 0.61464 0.49664 0.0
C762 C 0.56363 0.65643 0.49164 0.0
C763 C 0.52052 0.66845 0.48859 0.0
C764 C 0.73503 0.04257 0.72863 0.0
C765 C 0.70611 0.00932 0.73351 0.0
C766 C 0.72298 0.08478 0.73283 0.0
C767 C 0.68181 0.09526 0.74266 0.0
H768 H 0.76744 0.03596 0.72191 0.0
H769 H 0.74638 0.1093 0.72906 0.0
S770 S 0.59336 0.02038 0.75702 0.0
N771 N 0.63379 0.99004 0.74735 0.0
N772 N 0.6114 0.06929 0.75556 0.0
C773 C 0.65229 0.06247 0.74695 0.0
C774 C 0.66435 0.01953 0.74222 0.0
C775 C 0.08227 0.26961 0.26753 0.0
C776 C 0.09276 0.31135 0.25905 0.0
C777 C 0.04 0.25726 0.27131 0.0
C778 C 0.0069 0.28649 0.26743 0.0
H779 H 0.10678 0.24609 0.27045 0.0
H780 H 0.03322 0.22449 0.2769 0.0
S781 S 0.01837 0.40067 0.24781 0.0
N782 N 0.06711 0.38248 0.24864 0.0
N783 N 0.98797 0.35969 0.2561 0.0
C784 C 0.01728 0.32877 0.26015 0.0
C785 C 0.06013 0.34108 0.25582 0.0
C786 C 0.28336 0.91953 0.72346 0.0
C787 C 0.32026 0.90819 0.74037 0.0
C788 C 0.27076 0.96173 0.72109 0.0
C789 C 0.29483 0.9944 0.73516 0.0
H790 H 0.26334 0.89556 0.7126 0.0
H791 H 0.24131 0.9687 0.70875 0.0
S792 S 0.39594 0.98196 0.77996 0.0
N793 N 0.38218 0.93334 0.76989 0.0
N794 N 0.3585 0.01281 0.76528 0.0
C795 C 0.33279 0.98377 0.75097 0.0
C796 C 0.34543 0.94063 0.75371 0.0
C797 C 0.96986 0.68094 0.26991 0.0
C798 C 0.98135 0.72367 0.27353 0.0
C799 C 0.92787 0.66899 0.26551 0.0
C800 C 0.89539 0.6991 0.26506 0.0
H801 H 0.99358 0.65635 0.26919 0.0
H802 H 0.92092 0.63572 0.26222 0.0
S803 S 0.90767 0.81473 0.27622 0.0
N804 N 0.95628 0.79613 0.2782 0.0
N805 N 0.87682 0.77325 0.27053 0.0
C806 C 0.90588 0.74174 0.27018 0.0
C807 C 0.94898 0.75413 0.27424 0.0
C808 C 0.48774 0.02412 0.994 0.0
C809 C 0.45274 0.00823 0.01129 0.0
C810 C 0.52585 0.0013 0.99274 0.0
C811 C 0.52974 0.96209 0.00871 0.0
H812 H 0.48665 0.05555 0.98354 0.0
H813 H 0.55321 0.01585 0.98149 0.0
S814 S 0.44529 0.90424 0.05259 0.0
N815 N 0.42286 0.94889 0.04106 0.0
N816 N 0.49428 0.90641 0.03888 0.0
C817 C 0.49395 0.94461 0.02369 0.0
C818 C 0.45543 0.96761 0.02493 0.0
C819 C 0.01041 0.5184 0.94965 0.0
C820 C 0.01842 0.54079 0.9787 0.0
C821 C 0.99169 0.47852 0.94996 0.0
C822 C 0.98033 0.45837 0.97935 0.0
H823 H 0.01863 0.53181 0.9261 0.0
H824 H 0.98632 0.46324 0.92661 0.0
S825 S 0.99404 0.50305 0.06268 0.0
N826 N 0.01127 0.54061 0.038 0.0
N827 N 0.9799 0.46347 0.03875 0.0
C828 C 0.98836 0.48001 0.00883 0.0
C829 C 0.0066 0.52161 0.00847 0.0
C830 C 0.51554 0.51251 0.24841 0.0
C831 C 0.53719 0.52222 0.21921 0.0
C832 C 0.4747 0.4946 0.24788 0.0
C833 C 0.4543 0.48501 0.21814 0.0
H834 H 0.53026 0.51794 0.27187 0.0
H835 H 0.45897 0.48908 0.27095 0.0
S836 S 0.49754 0.50364 0.13476 0.0
N837 N 0.53435 0.52144 0.15969 0.0
N838 N 0.45969 0.48582 0.15875 0.0
C839 C 0.47597 0.49416 0.18887 0.0
C840 C 0.51679 0.51309 0.18939 0.0
C841 C 0.48391 0.46308 0.74893 0.0
C842 C 0.52704 0.46468 0.7571 0.0
C843 C 0.45913 0.49997 0.7489 0.0
C844 C 0.47695 0.53941 0.7567 0.0
H845 H 0.46863 0.43285 0.74502 0.0
H846 H 0.42543 0.49724 0.74494 0.0
S847 S 0.58914 0.56084 0.77603 0.0
N848 N 0.58701 0.50917 0.77048 0.0
N849 N 0.5407 0.57838 0.76987 0.0
C850 C 0.52053 0.54167 0.76254 0.0
C851 C 0.54554 0.50428 0.76288 0.0
C852 C 0.00252 0.5508 0.5225 0.0
C853 C 0.96604 0.53135 0.51012 0.0
C854 C 0.04125 0.52961 0.52301 0.0
C855 C 0.04502 0.4879 0.51144 0.0
H856 H 0.00064 0.58195 0.5334 0.0
H857 H 0.06809 0.54536 0.53403 0.0
S858 S 0.95877 0.42313 0.47603 0.0
N859 N 0.93604 0.46864 0.48499 0.0
N860 N 0.00891 0.42825 0.48649 0.0
C861 C 0.00917 0.46869 0.49757 0.0
C862 C 0.96961 0.49056 0.49682 0.0
C863 C 0.54636 0.99659 0.46985 0.0
C864 C 0.53186 0.03104 0.4883 0.0
C865 C 0.5242 0.95834 0.46922 0.0
C866 C 0.48647 0.953 0.48691 0.0
H867 H 0.57406 -0.0001 0.4545 0.0
H868 H 0.53577 0.93329 0.45356 0.0
S869 S 0.43547 0.03323 0.53971 0.0
N870 N 0.4781 0.05718 0.52552 0.0
N871 N 0.4362 0.98498 0.52429 0.0
C872 C 0.47263 0.98644 0.5068 0.0
C873 C 0.49538 0.0256 0.50749 0.0
C874 C 0.98834 0.95948 0.74615 0.0
C875 C 0.95401 0.98542 0.73799 0.0
C876 C 0.0297 0.97556 0.7461 0.0
C877 C 0.03788 0.01822 0.73861 0.0
H878 H 0.98354 0.92602 0.75036 0.0
H879 H 0.05566 0.95404 0.75048 0.0
S880 S 0.95847 0.09971 0.71825 0.0
N881 N 0.93053 0.05624 0.72413 0.0
N882 N 0.0082 0.08646 0.72463 0.0
C883 C 0.00361 0.04497 0.73241 0.0
C884 C 0.96164 0.02852 0.73193 0.0
C885 C 0.02559 0.04219 0.27711 0.0
C886 C 0.98593 0.04534 0.26188 0.0
C887 C 0.04825 0.00431 0.27693 0.0
C888 C 0.03224 0.96808 0.26145 0.0
H889 H 0.03829 0.06869 0.29073 0.0
H890 H 0.07757 0.00275 0.29052 0.0
S891 S 0.93056 0.96006 0.21698 0.0
N892 N 0.9323 0.0096 0.22967 0.0
N893 N 0.97494 0.93796 0.22948 0.0
C894 C 0.99372 0.97131 0.24453 0.0
C895 C 0.97054 0.01012 0.24468 0.0
C896 C 0.30014 0.2922 0.11946 0.0
C897 C 0.2862 0.28137 0.15103 0.0
C898 C 0.30084 0.26192 0.0943 0.0
C899 C 0.28794 0.22014 0.10027 0.0
H900 H 0.30798 0.3247 0.11372 0.0
H901 H 0.30924 0.27172 0.06975 0.0
S902 S 0.25367 0.17511 0.17954 0.0
N903 N 0.26306 0.22542 0.18753 0.0
N904 N 0.26442 0.16866 0.14031 0.0
C905 C 0.27669 0.20846 0.13217 0.0
C906 C 0.27584 0.23911 0.15761 0.0
C907 C 0.23809 0.70259 0.84784 0.0
C908 C 0.2794 0.71779 0.8523 0.0
C909 C 0.20893 0.70272 0.87382 0.0
C910 C 0.22036 0.7182 0.90485 0.0
H911 H 0.22778 0.69236 0.82385 0.0
H912 H 0.17678 0.69267 0.86921 0.0
S913 S 0.32612 0.75672 0.92967 0.0
N914 N 0.33125 0.74526 0.89045 0.0
N915 N 0.27676 0.74522 0.93923 0.0
C916 C 0.26224 0.73118 0.9099 0.0
C917 C 0.29172 0.73107 0.8836 0.0
C918 C 0.72588 0.78973 0.12906 0.0
C919 C 0.71136 0.77776 0.09796 0.0
C920 C 0.726 0.76098 0.1551 0.0
C921 C 0.71165 0.71928 0.15089 0.0
H922 H 0.73879 0.82107 0.13289 0.0
H923 H 0.73892 0.77093 0.1784 0.0
S924 S 0.66923 0.67295 0.07442 0.0
N925 N 0.681 0.7222 0.06449 0.0
N926 N 0.68129 0.66786 0.11355 0.0
C927 C 0.69535 0.70747 0.12027 0.0
C928 C 0.69527 0.73682 0.09371 0.0
C929 C 0.76622 0.26658 0.84159 0.0
C930 C 0.72668 0.28582 0.84611 0.0
C931 C 0.79633 0.2661 0.8667 0.0
C932 C 0.78793 0.28497 0.89709 0.0
H933 H 0.77317 0.25016 0.81897 0.0
H934 H 0.82564 0.24923 0.86286 0.0
S935 S 0.69015 0.34095 0.92088 0.0
N936 N 0.68138 0.3255 0.88287 0.0
N937 N 0.73833 0.3249 0.93 0.0
C938 C 0.74949 0.30617 0.9014 0.0
C939 C 0.71874 0.30658 0.87585 0.0
C940 C 0.80514 0.71912 0.62227 0.0
C941 C 0.7859 0.72826 0.59209 0.0
C942 C 0.80509 0.7489 0.6478 0.0
C943 C 0.78603 0.7886 0.64367 0.0
H944 H 0.81795 0.68796 0.62684 0.0
H945 H 0.81785 0.74001 0.6714 0.0
S946 S 0.73681 0.82975 0.568 0.0
N947 N 0.75155 0.78126 0.55844 0.0
N948 N 0.75123 0.83697 0.60643 0.0
C949 C 0.76938 0.79902 0.61295 0.0
C950 C 0.76939 0.76887 0.58709 0.0
C951 C 0.7432 0.19543 0.35235 0.0
C952 C 0.78385 0.21278 0.3553 0.0
C953 C 0.71539 0.19503 0.37915 0.0
C954 C 0.72754 0.21215 0.40949 0.0
H955 H 0.73216 0.18411 0.32884 0.0
H956 H 0.6835 0.18352 0.37562 0.0
S957 S 0.83242 0.2564 0.43044 0.0
N958 N 0.8362 0.24387 0.39133 0.0
N959 N 0.78417 0.24287 0.44171 0.0
C960 C 0.76899 0.2271 0.41312 0.0
C961 C 0.79713 0.22751 0.38596 0.0
C962 C 0.18637 0.22802 0.63614 0.0
C963 C 0.22415 0.21537 0.65143 0.0
C964 C 0.18664 0.25426 0.60824 0.0
C965 C 0.22449 0.27152 0.59578 0.0
H966 H 0.15621 0.21782 0.64573 0.0
H967 H 0.15681 0.26068 0.59658 0.0
S968 S 0.3322 0.24914 0.62747 0.0
N969 N 0.30086 0.21792 0.64868 0.0
N970 N 0.30048 0.27698 0.60399 0.0
C971 C 0.2622 0.26058 0.61204 0.0
C972 C 0.26225 0.23019 0.6378 0.0
C973 C 0.24282 0.79965 0.40301 0.0
C974 C 0.28169 0.77874 0.39976 0.0
C975 C 0.21376 0.80054 0.377 0.0
C976 C 0.22282 0.78041 0.34714 0.0
H977 H 0.23408 0.81371 0.42619 0.0
H978 H 0.18325 0.81512 0.38083 0.0
S979 S 0.32239 0.72606 0.32531 0.0
N980 N 0.32924 0.74088 0.36368 0.0
N981 N 0.2749 0.74273 0.31484 0.0
C982 C 0.26256 0.76158 0.34312 0.0
C983 C 0.29195 0.76066 0.36947 0.0
loop_
_geom_bond_atom_site_label_1
_geom_bond_atom_site_label_2
_geom_bond_distance
_geom_bond_site_symmetry_2
_ccdc_geom_bond_type
Co0 O3 1.970 1_554 S
Co0 N17 1.989 . S
Co0 O25 1.967 . S
Co0 O32 1.920 . S
Co1 O4 1.966 1_554 S
Co1 N10 2.022 . S
Co1 N18 1.993 . S
Co1 O26 1.941 . S
C2 O3 1.258 . S
C2 O4 1.263 . S
O3 Co0 1.970 1_556 S
O3 C2 1.258 . S
O4 Co1 1.966 1_556 S
O4 C2 1.263 . S
C5 O6 1.235 . S
C5 O32 1.289 1_556 S
O6 C5 1.235 . S
C7 C9 1.400 . S
C7 N10 1.351 . S
C7 C12 1.501 1_554 S
C8 C9 1.387 . S
C8 N11 1.341 . S
C9 C7 1.400 . S
C9 C8 1.387 . S
N10 Co1 2.022 . S
N10 C7 1.351 . S
N10 N11 1.365 . S
N11 C8 1.341 . S
N11 N10 1.365 . S
N11 H31 0.862 . S
C12 C7 1.501 1_556 S
C12 H13 0.961 . S
C12 H14 0.961 . S
C12 H15 0.960 . S
H13 C12 0.961 . S
H14 C12 0.961 . S
H15 C12 0.960 . S
C16 N17 1.342 . S
C16 C20 1.401 . S
C16 C21 1.499 . S
N17 Co0 1.989 . S
N17 C16 1.342 . S
N17 N18 1.388 . S
N18 Co1 1.993 . S
N18 N17 1.388 . S
N18 C19 1.346 . S
C19 N18 1.346 . S
C19 C20 1.396 . S
C19 C29 1.510 . S
C20 C16 1.401 . S
C20 C19 1.396 . S
C21 C16 1.499 . S
C21 H22 0.959 . S
C21 H23 0.960 . S
C21 H24 0.961 . S
H22 C21 0.959 . S
H23 C21 0.960 . S
H24 C21 0.961 . S
O25 Co0 1.967 . S
O25 C33 1.258 . S
O26 Co1 1.941 . S
O26 C33 1.266 . S
H27 C29 0.959 . S
H28 C29 0.961 . S
C29 C19 1.510 . S
C29 H27 0.959 . S
C29 H28 0.961 . S
C29 H30 0.960 . S
H30 C29 0.960 . S
H31 N11 0.862 . S
O32 Co0 1.920 . S
O32 C5 1.289 1_554 S
C33 O25 1.258 . S
C33 O26 1.266 . S
Co34 O37 1.970 1_556 S
Co34 N51 1.989 . S
Co34 O59 1.967 . S
Co34 O66 1.920 . S
Co35 O38 1.966 1_556 S
Co35 N44 2.022 . S
Co35 N52 1.993 . S
Co35 O60 1.941 . S
C36 O37 1.258 . S
C36 O38 1.263 . S
O37 Co34 1.970 1_554 S
O37 C36 1.258 . S
O38 Co35 1.966 1_554 S
O38 C36 1.263 . S
C39 O40 1.235 . S
C39 O66 1.289 1_554 S
O40 C39 1.235 . S
C41 C43 1.400 . S
C41 N44 1.351 . S
C41 C46 1.501 1_556 S
C42 C43 1.387 . S
C42 N45 1.341 . S
C43 C41 1.400 . S
C43 C42 1.387 . S
N44 Co35 2.022 . S
N44 C41 1.351 . S
N44 N45 1.365 . S
N45 C42 1.341 . S
N45 N44 1.365 . S
N45 H65 0.862 . S
C46 C41 1.501 1_554 S
C46 H47 0.961 . S
C46 H48 0.961 . S
C46 H49 0.960 . S
H47 C46 0.961 . S
H48 C46 0.961 . S
H49 C46 0.960 . S
C50 N51 1.342 . S
C50 C54 1.401 . S
C50 C55 1.499 . S
N51 Co34 1.989 . S
N51 C50 1.342 . S
N51 N52 1.388 . S
N52 Co35 1.993 . S
N52 N51 1.388 . S
N52 C53 1.346 . S
C53 N52 1.346 . S
C53 C54 1.396 . S
C53 C63 1.510 . S
C54 C50 1.401 . S
C54 C53 1.396 . S
C55 C50 1.499 . S
C55 H56 0.959 . S
C55 H57 0.960 . S
C55 H58 0.961 . S
H56 C55 0.959 . S
H57 C55 0.960 . S
H58 C55 0.961 . S
O59 Co34 1.967 . S
O59 C67 1.258 . S
O60 Co35 1.941 . S
O60 C67 1.266 . S
H61 C63 0.959 . S
H62 C63 0.961 . S
C63 C53 1.510 . S
C63 H61 0.959 . S
C63 H62 0.961 . S
C63 H64 0.960 . S
H64 C63 0.960 . S
H65 N45 0.862 . S
O66 Co34 1.920 . S
O66 C39 1.289 1_556 S
C67 O59 1.258 . S
C67 O60 1.266 . S
Co68 O71 1.970 1_554 S
Co68 N85 1.989 . S
Co68 O93 1.967 . S
Co68 O100 1.920 . S
Co69 O72 1.966 1_554 S
Co69 N78 2.022 . S
Co69 N86 1.993 . S
Co69 O94 1.941 . S
C70 O71 1.258 . S
C70 O72 1.263 . S
O71 Co68 1.970 1_556 S
O71 C70 1.258 . S
O72 Co69 1.966 1_556 S
O72 C70 1.263 . S
C73 O74 1.235 . S
C73 O100 1.289 1_556 S
O74 C73 1.235 . S
C75 C77 1.400 . S
C75 N78 1.351 . S
C75 C80 1.501 1_554 S
C76 C77 1.387 . S
C76 N79 1.341 . S
C77 C75 1.400 . S
C77 C76 1.387 . S
N78 Co69 2.022 . S
N78 C75 1.351 . S
N78 N79 1.365 . S
N79 C76 1.341 . S
N79 N78 1.365 . S
N79 H99 0.862 . S
C80 C75 1.501 1_556 S
C80 H81 0.961 . S
C80 H82 0.961 . S
C80 H83 0.960 . S
H81 C80 0.961 . S
H82 C80 0.961 . S
H83 C80 0.960 . S
C84 N85 1.342 . S
C84 C88 1.401 . S
C84 C89 1.499 . S
N85 Co68 1.989 . S
N85 C84 1.342 . S
N85 N86 1.388 . S
N86 Co69 1.993 . S
N86 N85 1.388 . S
N86 C87 1.346 . S
C87 N86 1.346 . S
C87 C88 1.396 . S
C87 C97 1.510 . S
C88 C84 1.401 . S
C88 C87 1.396 . S
C89 C84 1.499 . S
C89 H90 0.959 . S
C89 H91 0.960 . S
C89 H92 0.961 . S
H90 C89 0.959 . S
H91 C89 0.960 . S
H92 C89 0.961 . S
O93 Co68 1.967 . S
O93 C101 1.258 . S
O94 Co69 1.941 . S
O94 C101 1.266 . S
H95 C97 0.959 . S
H96 C97 0.961 . S
C97 C87 1.510 . S
C97 H95 0.959 . S
C97 H96 0.961 . S
C97 H98 0.960 . S
H98 C97 0.960 . S
H99 N79 0.862 . S
O100 Co68 1.920 . S
O100 C73 1.289 1_554 S
C101 O93 1.258 . S
C101 O94 1.266 . S
Co102 O105 1.970 1_556 S
Co102 N119 1.989 . S
Co102 O127 1.967 . S
Co102 O134 1.920 . S
Co103 O106 1.966 1_556 S
Co103 N112 2.022 . S
Co103 N120 1.993 . S
Co103 O128 1.941 . S
C104 O105 1.258 . S
C104 O106 1.263 . S
O105 Co102 1.970 1_554 S
O105 C104 1.258 . S
O106 Co103 1.966 1_554 S
O106 C104 1.263 . S
C107 O108 1.235 . S
C107 O134 1.289 1_554 S
O108 C107 1.235 . S
C109 C111 1.400 . S
C109 N112 1.351 . S
C109 C114 1.501 1_556 S
C110 C111 1.387 . S
C110 N113 1.341 . S
C111 C109 1.400 . S
C111 C110 1.387 . S
N112 Co103 2.022 . S
N112 C109 1.351 . S
N112 N113 1.365 . S
N113 C110 1.341 . S
N113 N112 1.365 . S
N113 H133 0.862 . S
C114 C109 1.501 1_554 S
C114 H115 0.961 . S
C114 H116 0.961 . S
C114 H117 0.960 . S
H115 C114 0.961 . S
H116 C114 0.961 . S
H117 C114 0.960 . S
C118 N119 1.342 . S
C118 C122 1.401 . S
C118 C123 1.499 . S
N119 Co102 1.989 . S
N119 C118 1.342 . S
N119 N120 1.388 . S
N120 Co103 1.993 . S
N120 N119 1.388 . S
N120 C121 1.346 . S
C121 N120 1.346 . S
C121 C122 1.396 . S
C121 C131 1.510 . S
C122 C118 1.401 . S
C122 C121 1.396 . S
C123 C118 1.499 . S
C123 H124 0.959 . S
C123 H125 0.960 . S
C123 H126 0.961 . S
H124 C123 0.959 . S
H125 C123 0.960 . S
H126 C123 0.961 . S
O127 Co102 1.967 . S
O127 C135 1.258 . S
O128 Co103 1.941 . S
O128 C135 1.266 . S
H129 C131 0.959 . S
H130 C131 0.961 . S
C131 C121 1.510 . S
C131 H129 0.959 . S
C131 H130 0.961 . S
C131 H132 0.960 . S
H132 C131 0.960 . S
H133 N113 0.862 . S
O134 Co102 1.920 . S
O134 C107 1.289 1_556 S
C135 O127 1.258 . S
C135 O128 1.266 . S
Co136 O139 1.970 . S
Co136 N153 1.989 . S
Co136 O161 1.967 . S
Co136 O168 1.920 . S
Co137 O140 1.966 . S
Co137 N146 2.022 . S
Co137 N154 1.993 . S
Co137 O162 1.941 . S
C138 O139 1.258 . S
C138 O140 1.263 . S
O139 Co136 1.970 . S
O139 C138 1.258 . S
O140 Co137 1.966 . S
O140 C138 1.263 . S
C141 O142 1.235 . S
C141 O168 1.289 . S
O142 C141 1.235 . S
C143 C145 1.400 . S
C143 N146 1.351 . S
C143 C148 1.501 . S
C144 C145 1.387 . S
C144 N147 1.341 . S
C145 C143 1.400 . S
C145 C144 1.387 . S
N146 Co137 2.022 . S
N146 C143 1.351 . S
N146 N147 1.365 . S
N147 C144 1.341 . S
N147 N146 1.365 . S
N147 H167 0.862 . S
C148 C143 1.501 . S
C148 H149 0.961 . S
C148 H150 0.961 . S
C148 H151 0.960 . S
H149 C148 0.961 . S
H150 C148 0.961 . S
H151 C148 0.960 . S
C152 N153 1.342 . S
C152 C156 1.401 . S
C152 C157 1.499 . S
N153 Co136 1.989 . S
N153 C152 1.342 . S
N153 N154 1.388 . S
N154 Co137 1.993 . S
N154 N153 1.388 . S
N154 C155 1.346 . S
C155 N154 1.346 . S
C155 C156 1.396 . S
C155 C165 1.510 . S
C156 C152 1.401 . S
C156 C155 1.396 . S
C157 C152 1.499 . S
C157 H158 0.959 . S
C157 H159 0.960 . S
C157 H160 0.961 . S
H158 C157 0.959 . S
H159 C157 0.960 . S
H160 C157 0.961 . S
O161 Co136 1.967 . S
O161 C169 1.258 . S
O162 Co137 1.941 . S
O162 C169 1.266 . S
H163 C165 0.959 . S
H164 C165 0.961 . S
C165 C155 1.510 . S
C165 H163 0.959 . S
C165 H164 0.961 . S
C165 H166 0.960 . S
H166 C165 0.960 . S
H167 N147 0.862 . S
O168 Co136 1.920 . S
O168 C141 1.289 . S
C169 O161 1.258 . S
C169 O162 1.266 . S
Co170 O173 1.970 . S
Co170 N187 1.989 . S
Co170 O195 1.967 . S
Co170 O202 1.920 . S
Co171 O174 1.966 . S
Co171 N180 2.022 . S
Co171 N188 1.993 . S
Co171 O196 1.941 . S
C172 O173 1.258 . S
C172 O174 1.263 . S
O173 Co170 1.970 . S
O173 C172 1.258 . S
O174 Co171 1.966 . S
O174 C172 1.263 . S
C175 O176 1.235 . S
C175 O202 1.289 . S
O176 C175 1.235 . S
C177 C179 1.400 . S
C177 N180 1.351 . S
C177 C182 1.501 . S
C178 C179 1.387 . S
C178 N181 1.341 . S
C179 C177 1.400 . S
C179 C178 1.387 . S
N180 Co171 2.022 . S
N180 C177 1.351 . S
N180 N181 1.365 . S
N181 C178 1.341 . S
N181 N180 1.365 . S
N181 H201 0.862 . S
C182 C177 1.501 . S
C182 H183 0.961 . S
C182 H184 0.961 . S
C182 H185 0.960 . S
H183 C182 0.961 . S
H184 C182 0.961 . S
H185 C182 0.960 . S
C186 N187 1.342 . S
C186 C190 1.401 . S
C186 C191 1.499 . S
N187 Co170 1.989 . S
N187 C186 1.342 . S
N187 N188 1.388 . S
N188 Co171 1.993 . S
N188 N187 1.388 . S
N188 C189 1.346 . S
C189 N188 1.346 . S
C189 C190 1.396 . S
C189 C199 1.510 . S
C190 C186 1.401 . S
C190 C189 1.396 . S
C191 C186 1.499 . S
C191 H192 0.959 . S
C191 H193 0.960 . S
C191 H194 0.961 . S
H192 C191 0.959 . S
H193 C191 0.960 . S
H194 C191 0.961 . S
O195 Co170 1.967 . S
O195 C203 1.258 . S
O196 Co171 1.941 . S
O196 C203 1.266 . S
H197 C199 0.959 . S
H198 C199 0.961 . S
C199 C189 1.510 . S
C199 H197 0.959 . S
C199 H198 0.961 . S
C199 H200 0.960 . S
H200 C199 0.960 . S
H201 N181 0.862 . S
O202 Co170 1.920 . S
O202 C175 1.289 . S
C203 O195 1.258 . S
C203 O196 1.266 . S
Co204 O207 1.970 . S
Co204 N221 1.989 . S
Co204 O229 1.967 . S
Co204 O236 1.920 . S
Co205 O208 1.966 . S
Co205 N214 2.022 . S
Co205 N222 1.993 . S
Co205 O230 1.941 . S
C206 O207 1.258 . S
C206 O208 1.263 . S
O207 Co204 1.970 . S
O207 C206 1.258 . S
O208 Co205 1.966 . S
O208 C206 1.263 . S
C209 O210 1.235 . S
C209 O236 1.289 . S
O210 C209 1.235 . S
C211 C213 1.400 . S
C211 N214 1.351 . S
C211 C216 1.501 . S
C212 C213 1.387 . S
C212 N215 1.341 . S
C213 C211 1.400 . S
C213 C212 1.387 . S
N214 Co205 2.022 . S
N214 C211 1.351 . S
N214 N215 1.365 . S
N215 C212 1.341 . S
N215 N214 1.365 . S
N215 H235 0.862 . S
C216 C211 1.501 . S
C216 H217 0.961 . S
C216 H218 0.961 . S
C216 H219 0.960 . S
H217 C216 0.961 . S
H218 C216 0.961 . S
H219 C216 0.960 . S
C220 N221 1.342 . S
C220 C224 1.401 . S
C220 C225 1.499 . S
N221 Co204 1.989 . S
N221 C220 1.342 . S
N221 N222 1.388 . S
N222 Co205 1.993 . S
N222 N221 1.388 . S
N222 C223 1.346 . S
C223 N222 1.346 . S
C223 C224 1.396 . S
C223 C233 1.510 . S
C224 C220 1.401 . S
C224 C223 1.396 . S
C225 C220 1.499 . S
C225 H226 0.959 . S
C225 H227 0.960 . S
C225 H228 0.961 . S
H226 C225 0.959 . S
H227 C225 0.960 . S
H228 C225 0.961 . S
O229 Co204 1.967 . S
O229 C237 1.258 . S
O230 Co205 1.941 . S
O230 C237 1.266 . S
H231 C233 0.959 . S
H232 C233 0.961 . S
C233 C223 1.510 . S
C233 H231 0.959 . S
C233 H232 0.961 . S
C233 H234 0.960 . S
H234 C233 0.960 . S
H235 N215 0.862 . S
O236 Co204 1.920 . S
O236 C209 1.289 . S
C237 O229 1.258 . S
C237 O230 1.266 . S
Co238 O241 1.970 . S
Co238 N255 1.989 . S
Co238 O263 1.967 . S
Co238 O270 1.920 . S
Co239 O242 1.966 . S
Co239 N248 2.022 . S
Co239 N256 1.993 . S
Co239 O264 1.941 . S
C240 O241 1.258 . S
C240 O242 1.263 . S
O241 Co238 1.970 . S
O241 C240 1.258 . S
O242 Co239 1.966 . S
O242 C240 1.263 . S
C243 O244 1.235 . S
C243 O270 1.289 . S
O244 C243 1.235 . S
C245 C247 1.400 . S
C245 N248 1.351 . S
C245 C250 1.501 . S
C246 C247 1.387 . S
C246 N249 1.341 . S
C247 C245 1.400 . S
C247 C246 1.387 . S
N248 Co239 2.022 . S
N248 C245 1.351 . S
N248 N249 1.365 . S
N249 C246 1.341 . S
N249 N248 1.365 . S
N249 H269 0.862 . S
C250 C245 1.501 . S
C250 H251 0.961 . S
C250 H252 0.961 . S
C250 H253 0.960 . S
H251 C250 0.961 . S
H252 C250 0.961 . S
H253 C250 0.960 . S
C254 N255 1.342 . S
C254 C258 1.401 . S
C254 C259 1.499 . S
N255 Co238 1.989 . S
N255 C254 1.342 . S
N255 N256 1.388 . S
N256 Co239 1.993 . S
N256 N255 1.388 . S
N256 C257 1.346 . S
C257 N256 1.346 . S
C257 C258 1.396 . S
C257 C267 1.510 . S
C258 C254 1.401 . S
C258 C257 1.396 . S
C259 C254 1.499 . S
C259 H260 0.959 . S
C259 H261 0.960 . S
C259 H262 0.961 . S
H260 C259 0.959 . S
H261 C259 0.960 . S
H262 C259 0.961 . S
O263 Co238 1.967 . S
O263 C271 1.258 . S
O264 Co239 1.941 . S
O264 C271 1.266 . S
H265 C267 0.959 . S
H266 C267 0.961 . S
C267 C257 1.510 . S
C267 H265 0.959 . S
C267 H266 0.961 . S
C267 H268 0.960 . S
H268 C267 0.960 . S
H269 N249 0.862 . S
O270 Co238 1.920 . S
O270 C243 1.289 . S
C271 O263 1.258 . S
C271 O264 1.266 . S
Co272 O275 1.970 . S
Co272 N289 1.989 . S
Co272 O297 1.967 . S
Co272 O304 1.920 . S
Co273 O276 1.966 . S
Co273 N282 2.022 . S
Co273 N290 1.993 . S
Co273 O298 1.941 . S
C274 O275 1.258 . S
C274 O276 1.263 . S
O275 Co272 1.970 . S
O275 C274 1.258 . S
O276 Co273 1.966 . S
O276 C274 1.263 . S
C277 O278 1.235 . S
C277 O304 1.289 . S
O278 C277 1.235 . S
C279 C281 1.400 . S
C279 N282 1.351 . S
C279 C284 1.501 . S
C280 C281 1.387 . S
C280 N283 1.341 . S
C281 C279 1.400 . S
C281 C280 1.387 . S
N282 Co273 2.022 . S
N282 C279 1.351 . S
N282 N283 1.365 . S
N283 C280 1.341 . S
N283 N282 1.365 . S
N283 H303 0.862 . S
C284 C279 1.501 . S
C284 H285 0.961 . S
C284 H286 0.961 . S
C284 H287 0.960 . S
H285 C284 0.961 . S
H286 C284 0.961 . S
H287 C284 0.960 . S
C288 N289 1.342 . S
C288 C292 1.401 . S
C288 C293 1.499 . S
N289 Co272 1.989 . S
N289 C288 1.342 . S
N289 N290 1.388 . S
N290 Co273 1.993 . S
N290 N289 1.388 . S
N290 C291 1.346 . S
C291 N290 1.346 . S
C291 C292 1.396 . S
C291 C301 1.510 . S
C292 C288 1.401 . S
C292 C291 1.396 . S
C293 C288 1.499 . S
C293 H294 0.959 . S
C293 H295 0.960 . S
C293 H296 0.961 . S
H294 C293 0.959 . S
H295 C293 0.960 . S
H296 C293 0.961 . S
O297 Co272 1.967 . S
O297 C305 1.258 . S
O298 Co273 1.941 . S
O298 C305 1.266 . S
H299 C301 0.959 . S
H300 C301 0.961 . S
C301 C291 1.510 . S
C301 H299 0.959 . S
C301 H300 0.961 . S
C301 H302 0.960 . S
H302 C301 0.960 . S
H303 N283 0.862 . S
O304 Co272 1.920 . S
O304 C277 1.289 . S
C305 O297 1.258 . S
C305 O298 1.266 . S
Co306 O309 1.970 . S
Co306 N323 1.989 . S
Co306 O331 1.967 . S
Co306 O338 1.920 . S
Co307 O310 1.966 . S
Co307 N316 2.022 . S
Co307 N324 1.993 . S
Co307 O332 1.941 . S
C308 O309 1.258 . S
C308 O310 1.263 . S
O309 Co306 1.970 . S
O309 C308 1.258 . S
O310 Co307 1.966 . S
O310 C308 1.263 . S
C311 O312 1.235 . S
C311 O338 1.289 . S
O312 C311 1.235 . S
C313 C315 1.400 . S
C313 N316 1.351 . S
C313 C318 1.501 . S
C314 C315 1.387 . S
C314 N317 1.341 . S
C315 C313 1.400 . S
C315 C314 1.387 . S
N316 Co307 2.022 . S
N316 C313 1.351 . S
N316 N317 1.365 . S
N317 C314 1.341 . S
N317 N316 1.365 . S
N317 H337 0.862 . S
C318 C313 1.501 . S
C318 H319 0.961 . S
C318 H320 0.961 . S
C318 H321 0.960 . S
H319 C318 0.961 . S
H320 C318 0.961 . S
H321 C318 0.960 . S
C322 N323 1.342 . S
C322 C326 1.401 . S
C322 C327 1.499 . S
N323 Co306 1.989 . S
N323 C322 1.342 . S
N323 N324 1.388 . S
N324 Co307 1.993 . S
N324 N323 1.388 . S
N324 C325 1.346 . S
C325 N324 1.346 . S
C325 C326 1.396 . S
C325 C335 1.510 . S
C326 C322 1.401 . S
C326 C325 1.396 . S
C327 C322 1.499 . S
C327 H328 0.959 . S
C327 H329 0.960 . S
C327 H330 0.961 . S
H328 C327 0.959 . S
H329 C327 0.960 . S
H330 C327 0.961 . S
O331 Co306 1.967 . S
O331 C339 1.258 . S
O332 Co307 1.941 . S
O332 C339 1.266 . S
H333 C335 0.959 . S
H334 C335 0.961 . S
C335 C325 1.510 . S
C335 H333 0.959 . S
C335 H334 0.961 . S
C335 H336 0.960 . S
H336 C335 0.960 . S
H337 N317 0.862 . S
O338 Co306 1.920 . S
O338 C311 1.289 . S
C339 O331 1.258 . S
C339 O332 1.266 . S
Co340 O343 1.970 . S
Co340 N357 1.989 . S
Co340 O365 1.967 . S
Co340 O372 1.920 . S
Co341 O344 1.966 . S
Co341 N350 2.022 . S
Co341 N358 1.993 . S
Co341 O366 1.941 . S
C342 O343 1.258 . S
C342 O344 1.263 . S
O343 Co340 1.970 . S
O343 C342 1.258 . S
O344 Co341 1.966 . S
O344 C342 1.263 . S
C345 O346 1.235 . S
C345 O372 1.289 . S
O346 C345 1.235 . S
C347 C349 1.400 . S
C347 N350 1.351 . S
C347 C352 1.501 . S
C348 C349 1.387 . S
C348 N351 1.341 . S
C349 C347 1.400 . S
C349 C348 1.387 . S
N350 Co341 2.022 . S
N350 C347 1.351 . S
N350 N351 1.365 . S
N351 C348 1.341 . S
N351 N350 1.365 . S
N351 H371 0.862 . S
C352 C347 1.501 . S
C352 H353 0.961 . S
C352 H354 0.961 . S
C352 H355 0.960 . S
H353 C352 0.961 . S
H354 C352 0.961 . S
H355 C352 0.960 . S
C356 N357 1.342 . S
C356 C360 1.401 . S
C356 C361 1.499 . S
N357 Co340 1.989 . S
N357 C356 1.342 . S
N357 N358 1.388 . S
N358 Co341 1.993 . S
N358 N357 1.388 . S
N358 C359 1.346 . S
C359 N358 1.346 . S
C359 C360 1.396 . S
C359 C369 1.510 . S
C360 C356 1.401 . S
C360 C359 1.396 . S
C361 C356 1.499 . S
C361 H362 0.959 . S
C361 H363 0.960 . S
C361 H364 0.961 . S
H362 C361 0.959 . S
H363 C361 0.960 . S
H364 C361 0.961 . S
O365 Co340 1.967 . S
O365 C373 1.258 . S
O366 Co341 1.941 . S
O366 C373 1.266 . S
H367 C369 0.959 . S
H368 C369 0.961 . S
C369 C359 1.510 . S
C369 H367 0.959 . S
C369 H368 0.961 . S
C369 H370 0.960 . S
H370 C369 0.960 . S
H371 N351 0.862 . S
O372 Co340 1.920 . S
O372 C345 1.289 . S
C373 O365 1.258 . S
C373 O366 1.266 . S
Co374 O377 1.970 . S
Co374 N391 1.989 . S
Co374 O399 1.967 . S
Co374 O406 1.920 . S
Co375 O378 1.966 . S
Co375 N384 2.022 . S
Co375 N392 1.993 . S
Co375 O400 1.941 . S
C376 O377 1.258 . S
C376 O378 1.263 . S
O377 Co374 1.970 . S
O377 C376 1.258 . S
O378 Co375 1.966 . S
O378 C376 1.263 . S
C379 O380 1.235 . S
C379 O406 1.289 . S
O380 C379 1.235 . S
C381 C383 1.400 . S
C381 N384 1.351 . S
C381 C386 1.501 . S
C382 C383 1.387 . S
C382 N385 1.341 . S
C383 C381 1.400 . S
C383 C382 1.387 . S
N384 Co375 2.022 . S
N384 C381 1.351 . S
N384 N385 1.365 . S
N385 C382 1.341 . S
N385 N384 1.365 . S
N385 H405 0.862 . S
C386 C381 1.501 . S
C386 H387 0.961 . S
C386 H388 0.961 . S
C386 H389 0.960 . S
H387 C386 0.961 . S
H388 C386 0.961 . S
H389 C386 0.960 . S
C390 N391 1.342 . S
C390 C394 1.401 . S
C390 C395 1.499 . S
N391 Co374 1.989 . S
N391 C390 1.342 . S
N391 N392 1.388 . S
N392 Co375 1.993 . S
N392 N391 1.388 . S
N392 C393 1.346 . S
C393 N392 1.346 . S
C393 C394 1.396 . S
C393 C403 1.510 . S
C394 C390 1.401 . S
C394 C393 1.396 . S
C395 C390 1.499 . S
C395 H396 0.959 . S
C395 H397 0.960 . S
C395 H398 0.961 . S
H396 C395 0.959 . S
H397 C395 0.960 . S
H398 C395 0.961 . S
O399 Co374 1.967 . S
O399 C407 1.258 . S
O400 Co375 1.941 . S
O400 C407 1.266 . S
H401 C403 0.959 . S
H402 C403 0.961 . S
C403 C393 1.510 . S
C403 H401 0.959 . S
C403 H402 0.961 . S
C403 H404 0.960 . S
H404 C403 0.960 . S
H405 N385 0.862 . S
O406 Co374 1.920 . S
O406 C379 1.289 . S
C407 O399 1.258 . S
C407 O400 1.266 . S
Co408 O411 1.970 . S
Co408 N425 1.989 . S
Co408 O433 1.967 . S
Co408 O440 1.920 . S
Co409 O412 1.966 . S
Co409 N418 2.022 . S
Co409 N426 1.993 . S
Co409 O434 1.941 . S
C410 O411 1.258 . S
C410 O412 1.263 . S
O411 Co408 1.970 . S
O411 C410 1.258 . S
O412 Co409 1.966 . S
O412 C410 1.263 . S
C413 O414 1.235 . S
C413 O440 1.289 . S
O414 C413 1.235 . S
C415 C417 1.400 . S
C415 N418 1.351 . S
C415 C420 1.501 . S
C416 C417 1.387 . S
C416 N419 1.341 . S
C417 C415 1.400 . S
C417 C416 1.387 . S
N418 Co409 2.022 . S
N418 C415 1.351 . S
N418 N419 1.365 . S
N419 C416 1.341 . S
N419 N418 1.365 . S
N419 H439 0.862 . S
C420 C415 1.501 . S
C420 H421 0.961 . S
C420 H422 0.961 . S
C420 H423 0.960 . S
H421 C420 0.961 . S
H422 C420 0.961 . S
H423 C420 0.960 . S
C424 N425 1.342 . S
C424 C428 1.401 . S
C424 C429 1.499 . S
N425 Co408 1.989 . S
N425 C424 1.342 . S
N425 N426 1.388 . S
N426 Co409 1.993 . S
N426 N425 1.388 . S
N426 C427 1.346 . S
C427 N426 1.346 . S
C427 C428 1.396 . S
C427 C437 1.510 . S
C428 C424 1.401 . S
C428 C427 1.396 . S
C429 C424 1.499 . S
C429 H430 0.959 . S
C429 H431 0.960 . S
C429 H432 0.961 . S
H430 C429 0.959 . S
H431 C429 0.960 . S
H432 C429 0.961 . S
O433 Co408 1.967 . S
O433 C441 1.258 . S
O434 Co409 1.941 . S
O434 C441 1.266 . S
H435 C437 0.959 . S
H436 C437 0.961 . S
C437 C427 1.510 . S
C437 H435 0.959 . S
C437 H436 0.961 . S
C437 H438 0.960 . S
H438 C437 0.960 . S
H439 N419 0.862 . S
O440 Co408 1.920 . S
O440 C413 1.289 . S
C441 O433 1.258 . S
C441 O434 1.266 . S
Co442 O445 1.970 . S
Co442 N459 1.989 . S
Co442 O467 1.967 . S
Co442 O474 1.920 . S
Co443 O446 1.966 . S
Co443 N452 2.022 . S
Co443 N460 1.993 . S
Co443 O468 1.941 . S
C444 O445 1.258 . S
C444 O446 1.263 . S
O445 Co442 1.970 . S
O445 C444 1.258 . S
O446 Co443 1.966 . S
O446 C444 1.263 . S
C447 O448 1.235 . S
C447 O474 1.289 . S
O448 C447 1.235 . S
C449 C451 1.400 . S
C449 N452 1.351 . S
C449 C454 1.501 . S
C450 C451 1.387 . S
C450 N453 1.341 . S
C451 C449 1.400 . S
C451 C450 1.387 . S
N452 Co443 2.022 . S
N452 C449 1.351 . S
N452 N453 1.365 . S
N453 C450 1.341 . S
N453 N452 1.365 . S
N453 H473 0.862 . S
C454 C449 1.501 . S
C454 H455 0.961 . S
C454 H456 0.961 . S
C454 H457 0.960 . S
H455 C454 0.961 . S
H456 C454 0.961 . S
H457 C454 0.960 . S
C458 N459 1.342 . S
C458 C462 1.401 . S
C458 C463 1.499 . S
N459 Co442 1.989 . S
N459 C458 1.342 . S
N459 N460 1.388 . S
N460 Co443 1.993 . S
N460 N459 1.388 . S
N460 C461 1.346 . S
C461 N460 1.346 . S
C461 C462 1.396 . S
C461 C471 1.510 . S
C462 C458 1.401 . S
C462 C461 1.396 . S
C463 C458 1.499 . S
C463 H464 0.959 . S
C463 H465 0.960 . S
C463 H466 0.961 . S
H464 C463 0.959 . S
H465 C463 0.960 . S
H466 C463 0.961 . S
O467 Co442 1.967 . S
O467 C475 1.258 . S
O468 Co443 1.941 . S
O468 C475 1.266 . S
H469 C471 0.959 . S
H470 C471 0.961 . S
C471 C461 1.510 . S
C471 H469 0.959 . S
C471 H470 0.961 . S
C471 H472 0.960 . S
H472 C471 0.960 . S
H473 N453 0.862 . S
O474 Co442 1.920 . S
O474 C447 1.289 . S
C475 O467 1.258 . S
C475 O468 1.266 . S
Co476 O479 1.970 . S
Co476 N493 1.989 . S
Co476 O501 1.967 . S
Co476 O508 1.920 . S
Co477 O480 1.966 . S
Co477 N486 2.022 . S
Co477 N494 1.993 . S
Co477 O502 1.941 . S
C478 O479 1.258 . S
C478 O480 1.263 . S
O479 Co476 1.970 . S
O479 C478 1.258 . S
O480 Co477 1.966 . S
O480 C478 1.263 . S
C481 O482 1.235 . S
C481 O508 1.289 . S
O482 C481 1.235 . S
C483 C485 1.400 . S
C483 N486 1.351 . S
C483 C488 1.501 . S
C484 C485 1.387 . S
C484 N487 1.341 . S
C485 C483 1.400 . S
C485 C484 1.387 . S
N486 Co477 2.022 . S
N486 C483 1.351 . S
N486 N487 1.365 . S
N487 C484 1.341 . S
N487 N486 1.365 . S
N487 H507 0.862 . S
C488 C483 1.501 . S
C488 H489 0.961 . S
C488 H490 0.961 . S
C488 H491 0.960 . S
H489 C488 0.961 . S
H490 C488 0.961 . S
H491 C488 0.960 . S
C492 N493 1.342 . S
C492 C496 1.401 . S
C492 C497 1.499 . S
N493 Co476 1.989 . S
N493 C492 1.342 . S
N493 N494 1.388 . S
N494 Co477 1.993 . S
N494 N493 1.388 . S
N494 C495 1.346 . S
C495 N494 1.346 . S
C495 C496 1.396 . S
C495 C505 1.510 . S
C496 C492 1.401 . S
C496 C495 1.396 . S
C497 C492 1.499 . S
C497 H498 0.959 . S
C497 H499 0.960 . S
C497 H500 0.961 . S
H498 C497 0.959 . S
H499 C497 0.960 . S
H500 C497 0.961 . S
O501 Co476 1.967 . S
O501 C509 1.258 . S
O502 Co477 1.941 . S
O502 C509 1.266 . S
H503 C505 0.959 . S
H504 C505 0.961 . S
C505 C495 1.510 . S
C505 H503 0.959 . S
C505 H504 0.961 . S
C505 H506 0.960 . S
H506 C505 0.960 . S
H507 N487 0.862 . S
O508 Co476 1.920 . S
O508 C481 1.289 . S
C509 O501 1.258 . S
C509 O502 1.266 . S
Co510 O513 1.970 . S
Co510 N527 1.989 . S
Co510 O535 1.967 . S
Co510 O542 1.920 . S
Co511 O514 1.966 . S
Co511 N520 2.022 . S
Co511 N528 1.993 . S
Co511 O536 1.941 . S
C512 O513 1.258 . S
C512 O514 1.263 . S
O513 Co510 1.970 . S
O513 C512 1.258 . S
O514 Co511 1.966 . S
O514 C512 1.263 . S
C515 O516 1.235 . S
C515 O542 1.289 . S
O516 C515 1.235 . S
C517 C519 1.400 . S
C517 N520 1.351 . S
C517 C522 1.501 . S
C518 C519 1.387 . S
C518 N521 1.341 . S
C519 C517 1.400 . S
C519 C518 1.387 . S
N520 Co511 2.022 . S
N520 C517 1.351 . S
N520 N521 1.365 . S
N521 C518 1.341 . S
N521 N520 1.365 . S
N521 H541 0.862 . S
C522 C517 1.501 . S
C522 H523 0.961 . S
C522 H524 0.961 . S
C522 H525 0.960 . S
H523 C522 0.961 . S
H524 C522 0.961 . S
H525 C522 0.960 . S
C526 N527 1.342 . S
C526 C530 1.401 . S
C526 C531 1.499 . S
N527 Co510 1.989 . S
N527 C526 1.342 . S
N527 N528 1.388 . S
N528 Co511 1.993 . S
N528 N527 1.388 . S
N528 C529 1.346 . S
C529 N528 1.346 . S
C529 C530 1.396 . S
C529 C539 1.510 . S
C530 C526 1.401 . S
C530 C529 1.396 . S
C531 C526 1.499 . S
C531 H532 0.959 . S
C531 H533 0.960 . S
C531 H534 0.961 . S
H532 C531 0.959 . S
H533 C531 0.960 . S
H534 C531 0.961 . S
O535 Co510 1.967 . S
O535 C543 1.258 . S
O536 Co511 1.941 . S
O536 C543 1.266 . S
H537 C539 0.959 . S
H538 C539 0.961 . S
C539 C529 1.510 . S
C539 H537 0.959 . S
C539 H538 0.961 . S
C539 H540 0.960 . S
H540 C539 0.960 . S
H541 N521 0.862 . S
O542 Co510 1.920 . S
O542 C515 1.289 . S
C543 O535 1.258 . S
C543 O536 1.266 . S
C544 C545 1.369 . S
C544 C546 1.419 . S
C544 H548 0.930 . S
C545 C544 1.369 . S
C545 C554 1.429 . S
C546 C544 1.419 . S
C546 C547 1.363 . S
C546 H549 0.929 . S
C547 C546 1.363 . S
C547 C553 1.428 . S
H548 C544 0.930 . S
H549 C546 0.929 . S
S550 N551 1.613 1_565 S
S550 N552 1.610 1_565 S
N551 S550 1.613 1_545 S
N551 C554 1.350 . S
N552 S550 1.610 1_545 S
N552 C553 1.351 . S
C553 C547 1.428 . S
C553 N552 1.351 . S
C553 C554 1.434 . S
C554 C545 1.429 . S
C554 N551 1.350 . S
C554 C553 1.434 . S
C555 C556 1.369 . S
C555 C557 1.419 . S
C555 H559 0.930 . S
C556 C555 1.369 . S
C556 C565 1.429 . S
C557 C555 1.419 . S
C557 C558 1.363 . S
C557 H560 0.929 . S
C558 C557 1.363 . S
C558 C564 1.428 . S
H559 C555 0.930 . S
H560 C557 0.929 . S
S561 N562 1.613 . S
S561 N563 1.610 . S
N562 S561 1.613 . S
N562 C565 1.350 . S
N563 S561 1.610 . S
N563 C564 1.351 . S
C564 C558 1.428 . S
C564 N563 1.351 . S
C564 C565 1.434 . S
C565 C556 1.429 . S
C565 N562 1.350 . S
C565 C564 1.434 . S
C566 C567 1.369 . S
C566 C568 1.419 . S
C566 H570 0.930 . S
C567 C566 1.369 . S
C567 C576 1.429 . S
C568 C566 1.419 . S
C568 C569 1.363 . S
C568 H571 0.929 . S
C569 C568 1.363 . S
C569 C575 1.428 . S
H570 C566 0.930 . S
H571 C568 0.929 . S
S572 N573 1.613 . S
S572 N574 1.610 . S
N573 S572 1.613 . S
N573 C576 1.350 . S
N574 S572 1.610 . S
N574 C575 1.351 . S
C575 C569 1.428 . S
C575 N574 1.351 . S
C575 C576 1.434 . S
C576 C567 1.429 . S
C576 N573 1.350 . S
C576 C575 1.434 . S
C577 C578 1.369 . S
C577 C579 1.419 . S
C577 H581 0.930 . S
C578 C577 1.369 . S
C578 C587 1.429 . S
C579 C577 1.419 . S
C579 C580 1.363 . S
C579 H582 0.929 . S
C580 C579 1.363 . S
C580 C586 1.428 . S
H581 C577 0.930 . S
H582 C579 0.929 . S
S583 N584 1.613 . S
S583 N585 1.610 . S
N584 S583 1.613 . S
N584 C587 1.350 . S
N585 S583 1.610 . S
N585 C586 1.351 . S
C586 C580 1.428 . S
C586 N585 1.351 . S
C586 C587 1.434 . S
C587 C578 1.429 . S
C587 N584 1.350 . S
C587 C586 1.434 . S
C588 C589 1.369 . S
C588 C590 1.419 . S
C588 H592 0.930 . S
C589 C588 1.369 . S
C589 C598 1.429 . S
C590 C588 1.419 . S
C590 C591 1.363 . S
C590 H593 0.929 . S
C591 C590 1.363 . S
C591 C597 1.428 . S
H592 C588 0.930 . S
H593 C590 0.929 . S
S594 N595 1.613 . S
S594 N596 1.610 . S
N595 S594 1.613 . S
N595 C598 1.350 . S
N596 S594 1.610 . S
N596 C597 1.351 . S
C597 C591 1.428 . S
C597 N596 1.351 . S
C597 C598 1.434 . S
C598 C589 1.429 . S
C598 N595 1.350 . S
C598 C597 1.434 . S
C599 C600 1.369 . S
C599 C601 1.419 . S
C599 H603 0.930 . S
C600 C599 1.369 . S
C600 C609 1.429 . S
C601 C599 1.419 . S
C601 C602 1.363 . S
C601 H604 0.929 . S
C602 C601 1.363 . S
C602 C608 1.428 . S
H603 C599 0.930 . S
H604 C601 0.929 . S
S605 N606 1.613 . S
S605 N607 1.610 . S
N606 S605 1.613 . S
N606 C609 1.350 . S
N607 S605 1.610 . S
N607 C608 1.351 . S
C608 C602 1.428 . S
C608 N607 1.351 . S
C608 C609 1.434 . S
C609 C600 1.429 . S
C609 N606 1.350 . S
C609 C608 1.434 . S
C610 C611 1.369 . S
C610 C612 1.419 . S
C610 H614 0.930 . S
C611 C610 1.369 . S
C611 C620 1.429 . S
C612 C610 1.419 . S
C612 C613 1.363 . S
C612 H615 0.929 . S
C613 C612 1.363 . S
C613 C619 1.428 . S
H614 C610 0.930 . S
H615 C612 0.929 . S
S616 N617 1.613 . S
S616 N618 1.610 . S
N617 S616 1.613 . S
N617 C620 1.350 . S
N618 S616 1.610 . S
N618 C619 1.351 . S
C619 C613 1.428 . S
C619 N618 1.351 . S
C619 C620 1.434 . S
C620 C611 1.429 . S
C620 N617 1.350 . S
C620 C619 1.434 . S
C621 C622 1.369 . S
C621 C623 1.419 . S
C621 H625 0.930 . S
C622 C621 1.369 . S
C622 C631 1.429 . S
C623 C621 1.419 . S
C623 C624 1.363 . S
C623 H626 0.929 . S
C624 C623 1.363 . S
C624 C630 1.428 . S
H625 C621 0.930 . S
H626 C623 0.929 . S
S627 N628 1.613 . S
S627 N629 1.610 . S
N628 S627 1.613 . S
N628 C631 1.350 . S
N629 S627 1.610 . S
N629 C630 1.351 . S
C630 C624 1.428 . S
C630 N629 1.351 . S
C630 C631 1.434 . S
C631 C622 1.429 . S
C631 N628 1.350 . S
C631 C630 1.434 . S
C632 C633 1.369 . S
C632 C634 1.419 1_554 S
C632 H636 0.926 1_554 S
C633 C632 1.369 . S
C633 C642 1.429 . S
C634 C632 1.419 1_556 S
C634 C635 1.363 1_556 S
C634 H637 0.929 . S
C635 C634 1.363 1_554 S
C635 C641 1.428 . S
H636 C632 0.926 1_556 S
H637 C634 0.929 . S
S638 N639 1.613 . S
S638 N640 1.610 . S
N639 S638 1.613 . S
N639 C642 1.350 . S
N640 S638 1.610 . S
N640 C641 1.351 . S
C641 C635 1.428 . S
C641 N640 1.351 . S
C641 C642 1.434 . S
C642 C633 1.429 . S
C642 N639 1.350 . S
C642 C641 1.434 . S
C643 C644 1.369 . S
C643 C645 1.422 . S
C643 H647 0.930 . S
C644 C643 1.369 . S
C644 C653 1.429 . S
C645 C643 1.422 . S
C645 C646 1.366 . S
C645 H648 0.924 1_556 S
C646 C645 1.366 . S
C646 C652 1.428 . S
H647 C643 0.930 . S
H648 C645 0.924 1_554 S
S649 N650 1.613 . S
S649 N651 1.610 . S
N650 S649 1.613 . S
N650 C653 1.350 . S
N651 S649 1.610 . S
N651 C652 1.351 . S
C652 C646 1.428 . S
C652 N651 1.351 . S
C652 C653 1.434 . S
C653 C644 1.429 . S
C653 N650 1.350 . S
C653 C652 1.434 . S
C654 C655 1.369 . S
C654 C656 1.419 . S
C654 H658 0.930 . S
C655 C654 1.369 . S
C655 C664 1.429 1_554 S
C656 C654 1.419 . S
C656 C657 1.363 . S
C656 H659 0.929 . S
C657 C656 1.363 . S
C657 C663 1.428 1_554 S
H658 C654 0.930 . S
H659 C656 0.929 . S
S660 N661 1.613 1_545 S
S660 N662 1.610 . S
N661 S660 1.613 1_565 S
N661 C664 1.350 1_565 S
N662 S660 1.610 . S
N662 C663 1.351 . S
C663 C657 1.428 1_556 S
C663 N662 1.351 . S
C663 C664 1.434 . S
C664 C655 1.429 1_556 S
C664 N661 1.350 1_545 S
C664 C663 1.434 . S
C665 C666 1.369 . S
C665 C667 1.419 . S
C665 H669 0.930 . S
C666 C665 1.369 . S
C666 C675 1.429 1_556 S
C667 C665 1.419 . S
C667 C668 1.363 . S
C667 H670 0.929 . S
C668 C667 1.363 . S
C668 C674 1.428 1_556 S
H669 C665 0.930 . S
H670 C667 0.929 . S
S671 N672 1.613 . S
S671 N673 1.610 . S
N672 S671 1.613 . S
N672 C675 1.350 . S
N673 S671 1.610 . S
N673 C674 1.351 . S
C674 C668 1.428 1_554 S
C674 N673 1.351 . S
C674 C675 1.434 . S
C675 C666 1.429 1_554 S
C675 N672 1.350 . S
C675 C674 1.434 . S
C676 C677 1.369 . S
C676 C678 1.419 . S
C676 H680 0.930 . S
C677 C676 1.369 . S
C677 C686 1.429 . S
C678 C676 1.419 . S
C678 C679 1.363 . S
C678 H681 0.929 . S
C679 C678 1.363 . S
C679 C685 1.428 . S
H680 C676 0.930 . S
H681 C678 0.929 . S
S682 N683 1.613 . S
S682 N684 1.610 . S
N683 S682 1.613 . S
N683 C686 1.350 . S
N684 S682 1.610 . S
N684 C685 1.351 . S
C685 C679 1.428 . S
C685 N684 1.351 . S
C685 C686 1.434 . S
C686 C677 1.429 . S
C686 N683 1.350 . S
C686 C685 1.434 . S
C687 C688 1.369 . S
C687 C689 1.419 . S
C687 H691 0.930 . S
C688 C687 1.369 . S
C688 C697 1.429 . S
C689 C687 1.419 . S
C689 C690 1.363 . S
C689 H692 0.929 . S
C690 C689 1.363 . S
C690 C696 1.428 . S
H691 C687 0.930 . S
H692 C689 0.929 . S
S693 N694 1.613 . S
S693 N695 1.610 . S
N694 S693 1.613 . S
N694 C697 1.350 . S
N695 S693 1.610 . S
N695 C696 1.351 . S
C696 C690 1.428 . S
C696 N695 1.351 . S
C696 C697 1.434 . S
C697 C688 1.429 . S
C697 N694 1.350 . S
C697 C696 1.434 . S
C698 C699 1.369 . S
C698 C700 1.419 . S
C698 H702 0.930 . S
C699 C698 1.369 . S
C699 C708 1.429 . S
C700 C698 1.419 . S
C700 C701 1.363 . S
C700 H703 0.929 . S
C701 C700 1.363 . S
C701 C707 1.428 . S
H702 C698 0.930 . S
H703 C700 0.929 . S
S704 N705 1.613 . S
S704 N706 1.610 . S
N705 S704 1.613 . S
N705 C708 1.350 . S
N706 S704 1.610 . S
N706 C707 1.351 . S
C707 C701 1.428 . S
C707 N706 1.351 . S
C707 C708 1.434 . S
C708 C699 1.429 . S
C708 N705 1.350 . S
C708 C707 1.434 . S
C709 C710 1.369 . S
C709 C711 1.419 . S
C709 H713 0.930 . S
C710 C709 1.369 . S
C710 C719 1.429 . S
C711 C709 1.419 . S
C711 C712 1.363 . S
C711 H714 0.929 . S
C712 C711 1.363 . S
C712 C718 1.428 . S
H713 C709 0.930 . S
H714 C711 0.929 . S
S715 N716 1.613 . S
S715 N717 1.610 . S
N716 S715 1.613 . S
N716 C719 1.350 . S
N717 S715 1.610 . S
N717 C718 1.351 . S
C718 C712 1.428 . S
C718 N717 1.351 . S
C718 C719 1.434 . S
C719 C710 1.429 . S
C719 N716 1.350 . S
C719 C718 1.434 . S
C720 C721 1.369 . S
C720 C722 1.419 . S
C720 H724 0.930 . S
C721 C720 1.369 . S
C721 C730 1.429 . S
C722 C720 1.419 . S
C722 C723 1.363 . S
C722 H725 0.929 . S
C723 C722 1.363 . S
C723 C729 1.428 . S
H724 C720 0.930 . S
H725 C722 0.929 . S
S726 N727 1.613 . S
S726 N728 1.610 . S
N727 S726 1.613 . S
N727 C730 1.350 . S
N728 S726 1.610 . S
N728 C729 1.351 . S
C729 C723 1.428 . S
C729 N728 1.351 . S
C729 C730 1.434 . S
C730 C721 1.429 . S
C730 N727 1.350 . S
C730 C729 1.434 . S
C731 C732 1.369 . S
C731 C733 1.419 . S
C731 H735 0.930 . S
C732 C731 1.369 . S
C732 C741 1.429 . S
C733 C731 1.419 . S
C733 C734 1.363 . S
C733 H736 0.929 . S
C734 C733 1.363 . S
C734 C740 1.428 . S
H735 C731 0.930 . S
H736 C733 0.929 . S
S737 N738 1.613 . S
S737 N739 1.610 . S
N738 S737 1.613 . S
N738 C741 1.350 . S
N739 S737 1.610 . S
N739 C740 1.351 . S
C740 C734 1.428 . S
C740 N739 1.351 . S
C740 C741 1.434 . S
C741 C732 1.429 . S
C741 N738 1.350 . S
C741 C740 1.434 . S
C742 C743 1.369 . S
C742 C744 1.419 . S
C742 H746 0.930 . S
C743 C742 1.369 . S
C743 C752 1.429 . S
C744 C742 1.419 . S
C744 C745 1.363 . S
C744 H747 0.929 . S
C745 C744 1.363 . S
C745 C751 1.428 . S
H746 C742 0.930 . S
H747 C744 0.929 . S
S748 N749 1.613 . S
S748 N750 1.610 . S
N749 S748 1.613 . S
N749 C752 1.350 . S
N750 S748 1.610 . S
N750 C751 1.351 . S
C751 C745 1.428 . S
C751 N750 1.351 . S
C751 C752 1.434 . S
C752 C743 1.429 . S
C752 N749 1.350 . S
C752 C751 1.434 . S
C753 C754 1.369 . S
C753 C755 1.419 . S
C753 H757 0.930 . S
C754 C753 1.369 . S
C754 C763 1.429 . S
C755 C753 1.419 . S
C755 C756 1.363 . S
C755 H758 0.929 . S
C756 C755 1.363 . S
C756 C762 1.428 . S
H757 C753 0.930 . S
H758 C755 0.929 . S
S759 N760 1.613 . S
S759 N761 1.610 . S
N760 S759 1.613 . S
N760 C763 1.350 . S
N761 S759 1.610 . S
N761 C762 1.351 . S
C762 C756 1.428 . S
C762 N761 1.351 . S
C762 C763 1.434 . S
C763 C754 1.429 . S
C763 N760 1.350 . S
C763 C762 1.434 . S
C764 C765 1.369 . S
C764 C766 1.419 . S
C764 H768 0.930 . S
C765 C764 1.369 . S
C765 C774 1.429 . S
C766 C764 1.419 . S
C766 C767 1.363 . S
C766 H769 0.929 . S
C767 C766 1.363 . S
C767 C773 1.428 . S
H768 C764 0.930 . S
H769 C766 0.929 . S
S770 N771 1.613 1_545 S
S770 N772 1.610 . S
N771 S770 1.613 1_565 S
N771 C774 1.350 1_565 S
N772 S770 1.610 . S
N772 C773 1.351 . S
C773 C767 1.428 . S
C773 N772 1.351 . S
C773 C774 1.434 . S
C774 C765 1.429 . S
C774 N771 1.350 1_545 S
C774 C773 1.434 . S
C775 C776 1.369 . S
C775 C777 1.419 . S
C775 H779 0.930 . S
C776 C775 1.369 . S
C776 C785 1.429 . S
C777 C775 1.419 . S
C777 C778 1.363 . S
C777 H780 0.929 . S
C778 C777 1.363 . S
C778 C784 1.428 . S
H779 C775 0.930 . S
H780 C777 0.929 . S
S781 N782 1.613 . S
S781 N783 1.610 1_455 S
N782 S781 1.613 . S
N782 C785 1.350 . S
N783 S781 1.610 1_655 S
N783 C784 1.351 1_655 S
C784 C778 1.428 . S
C784 N783 1.351 1_455 S
C784 C785 1.434 . S
C785 C776 1.429 . S
C785 N782 1.350 . S
C785 C784 1.434 . S
C786 C787 1.369 . S
C786 C788 1.419 . S
C786 H790 0.930 . S
C787 C786 1.369 . S
C787 C796 1.429 . S
C788 C786 1.419 . S
C788 C789 1.363 . S
C788 H791 0.929 . S
C789 C788 1.363 . S
C789 C795 1.428 . S
H790 C786 0.930 . S
H791 C788 0.929 . S
S792 N793 1.613 . S
S792 N794 1.610 . S
N793 S792 1.613 . S
N793 C796 1.350 . S
N794 S792 1.610 . S
N794 C795 1.351 . S
C795 C789 1.428 . S
C795 N794 1.351 . S
C795 C796 1.434 . S
C796 C787 1.429 . S
C796 N793 1.350 . S
C796 C795 1.434 . S
C797 C798 1.369 . S
C797 C799 1.419 . S
C797 H801 0.930 . S
C798 C797 1.369 . S
C798 C807 1.429 . S
C799 C797 1.419 . S
C799 C800 1.363 . S
C799 H802 0.929 . S
C800 C799 1.363 . S
C800 C806 1.428 . S
H801 C797 0.930 . S
H802 C799 0.929 . S
S803 N804 1.613 . S
S803 N805 1.610 . S
N804 S803 1.613 . S
N804 C807 1.350 . S
N805 S803 1.610 . S
N805 C806 1.351 . S
C806 C800 1.428 . S
C806 N805 1.351 . S
C806 C807 1.434 . S
C807 C798 1.429 . S
C807 N804 1.350 . S
C807 C806 1.434 . S
C808 C809 1.369 . S
C808 C810 1.419 . S
C808 H812 0.930 . S
C809 C808 1.369 . S
C809 C818 1.429 1_545 S
C810 C808 1.419 . S
C810 C811 1.363 1_545 S
C810 H813 0.929 . S
C811 C810 1.363 1_565 S
C811 C817 1.428 . S
H812 C808 0.930 . S
H813 C810 0.929 . S
S814 N815 1.613 . S
S814 N816 1.610 . S
N815 S814 1.613 . S
N815 C818 1.350 . S
N816 S814 1.610 . S
N816 C817 1.351 . S
C817 C811 1.428 . S
C817 N816 1.351 . S
C817 C818 1.434 . S
C818 C809 1.429 1_565 S
C818 N815 1.350 . S
C818 C817 1.434 . S
C819 C820 1.369 . S
C819 C821 1.419 1_455 S
C819 H823 0.930 . S
C820 C819 1.369 . S
C820 C829 1.429 1_556 S
C821 C819 1.419 1_655 S
C821 C822 1.363 . S
C821 H824 0.929 . S
C822 C821 1.363 . S
C822 C828 1.428 1_556 S
H823 C819 0.930 . S
H824 C821 0.929 . S
S825 N826 1.613 . S
S825 N827 1.610 1_455 S
N826 S825 1.613 . S
N826 C829 1.350 . S
N827 S825 1.610 1_655 S
N827 C828 1.351 . S
C828 C822 1.428 1_554 S
C828 N827 1.351 . S
C828 C829 1.434 1_655 S
C829 C820 1.429 1_554 S
C829 N826 1.350 . S
C829 C828 1.434 1_455 S
C830 C831 1.369 . S
C830 C832 1.419 . S
C830 H834 0.930 . S
C831 C830 1.369 . S
C831 C840 1.429 . S
C832 C830 1.419 . S
C832 C833 1.363 . S
C832 H835 0.929 . S
C833 C832 1.363 . S
C833 C839 1.428 . S
H834 C830 0.930 . S
H835 C832 0.929 . S
S836 N837 1.613 . S
S836 N838 1.610 . S
N837 S836 1.613 . S
N837 C840 1.350 . S
N838 S836 1.610 . S
N838 C839 1.351 . S
C839 C833 1.428 . S
C839 N838 1.351 . S
C839 C840 1.434 . S
C840 C831 1.429 . S
C840 N837 1.350 . S
C840 C839 1.434 . S
C841 C842 1.369 . S
C841 C843 1.419 . S
C841 H845 0.930 . S
C842 C841 1.369 . S
C842 C851 1.429 . S
C843 C841 1.419 . S
C843 C844 1.363 . S
C843 H846 0.929 . S
C844 C843 1.363 . S
C844 C850 1.428 . S
H845 C841 0.930 . S
H846 C843 0.929 . S
S847 N848 1.613 . S
S847 N849 1.610 . S
N848 S847 1.613 . S
N848 C851 1.350 . S
N849 S847 1.610 . S
N849 C850 1.351 . S
C850 C844 1.428 . S
C850 N849 1.351 . S
C850 C851 1.434 . S
C851 C842 1.429 . S
C851 N848 1.350 . S
C851 C850 1.434 . S
C852 C853 1.369 . S
C852 C854 1.419 1_655 S
C852 H856 0.930 . S
C853 C852 1.369 . S
C853 C862 1.429 . S
C854 C852 1.419 1_455 S
C854 C855 1.363 . S
C854 H857 0.929 . S
C855 C854 1.363 . S
C855 C861 1.438 . S
H856 C852 0.930 . S
H857 C854 0.929 . S
S858 N859 1.613 . S
S858 N860 1.610 . S
N859 S858 1.613 . S
N859 C862 1.350 . S
N860 S858 1.610 . S
N860 C861 1.350 1_655 S
C861 C855 1.438 . S
C861 N860 1.350 1_455 S
C861 C862 1.425 1_455 S
C862 C853 1.429 . S
C862 N859 1.350 . S
C862 C861 1.425 1_655 S
C863 C864 1.371 . S
C863 C865 1.417 1_545 S
C863 H867 0.930 1_545 S
C864 C863 1.371 . S
C864 C873 1.429 . S
C865 C863 1.417 1_565 S
C865 C866 1.363 . S
C865 H868 0.929 . S
C866 C865 1.363 . S
C866 C872 1.417 1_565 S
H867 C863 0.930 1_565 S
H868 C865 0.929 . S
S869 N870 1.613 . S
S869 N871 1.610 . S
N870 S869 1.613 . S
N870 C873 1.350 . S
N871 S869 1.610 . S
N871 C872 1.353 . S
C872 C866 1.417 1_545 S
C872 N871 1.353 . S
C872 C873 1.445 . S
C873 C864 1.429 . S
C873 N870 1.350 . S
C873 C872 1.445 . S
C874 C875 1.369 1_455 S
C874 C876 1.419 . S
C874 H878 0.930 . S
C875 C874 1.369 1_655 S
C875 C884 1.429 1_565 S
C876 C874 1.419 . S
C876 C877 1.363 1_565 S
C876 H879 0.929 . S
C877 C876 1.363 1_545 S
C877 C883 1.428 1_455 S
H878 C874 0.930 . S
H879 C876 0.929 . S
S880 N881 1.613 . S
S880 N882 1.610 . S
N881 S880 1.613 . S
N881 C884 1.350 . S
N882 S880 1.610 . S
N882 C883 1.351 . S
C883 C877 1.428 1_655 S
C883 N882 1.351 . S
C883 C884 1.434 . S
C884 C875 1.429 1_545 S
C884 N881 1.350 . S
C884 C883 1.434 . S
C885 C886 1.369 1_455 S
C885 C887 1.419 . S
C885 H889 0.930 . S
C886 C885 1.369 1_655 S
C886 C895 1.429 1_545 S
C887 C885 1.419 . S
C887 C888 1.363 1_545 S
C887 H890 0.929 . S
C888 C887 1.363 1_565 S
C888 C894 1.428 1_455 S
H889 C885 0.930 . S
H890 C887 0.929 . S
S891 N892 1.613 . S
S891 N893 1.610 . S
N892 S891 1.613 . S
N892 C895 1.350 . S
N893 S891 1.610 . S
N893 C894 1.351 . S
C894 C888 1.428 1_655 S
C894 N893 1.351 . S
C894 C895 1.434 . S
C895 C886 1.429 1_565 S
C895 N892 1.350 . S
C895 C894 1.434 . S
C896 C897 1.369 . S
C896 C898 1.419 . S
C896 H900 0.930 . S
C897 C896 1.369 . S
C897 C906 1.429 . S
C898 C896 1.419 . S
C898 C899 1.363 . S
C898 H901 0.929 . S
C899 C898 1.363 . S
C899 C905 1.428 . S
H900 C896 0.930 . S
H901 C898 0.929 . S
S902 N903 1.613 . S
S902 N904 1.610 . S
N903 S902 1.613 . S
N903 C906 1.350 . S
N904 S902 1.610 . S
N904 C905 1.351 . S
C905 C899 1.428 . S
C905 N904 1.351 . S
C905 C906 1.434 . S
C906 C897 1.429 . S
C906 N903 1.350 . S
C906 C905 1.434 . S
C907 C908 1.369 . S
C907 C909 1.419 . S
C907 H911 0.930 . S
C908 C907 1.369 . S
C908 C917 1.429 . S
C909 C907 1.419 . S
C909 C910 1.363 . S
C909 H912 0.929 . S
C910 C909 1.363 . S
C910 C916 1.428 . S
H911 C907 0.930 . S
H912 C909 0.929 . S
S913 N914 1.613 . S
S913 N915 1.610 . S
N914 S913 1.613 . S
N914 C917 1.350 . S
N915 S913 1.610 . S
N915 C916 1.351 . S
C916 C910 1.428 . S
C916 N915 1.351 . S
C916 C917 1.434 . S
C917 C908 1.429 . S
C917 N914 1.350 . S
C917 C916 1.434 . S
C918 C919 1.369 . S
C918 C920 1.419 . S
C918 H922 0.930 . S
C919 C918 1.369 . S
C919 C928 1.429 . S
C920 C918 1.419 . S
C920 C921 1.363 . S
C920 H923 0.929 . S
C921 C920 1.363 . S
C921 C927 1.428 . S
H922 C918 0.930 . S
H923 C920 0.929 . S
S924 N925 1.613 . S
S924 N926 1.610 . S
N925 S924 1.613 . S
N925 C928 1.350 . S
N926 S924 1.610 . S
N926 C927 1.351 . S
C927 C921 1.428 . S
C927 N926 1.351 . S
C927 C928 1.434 . S
C928 C919 1.429 . S
C928 N925 1.350 . S
C928 C927 1.434 . S
C929 C930 1.369 . S
C929 C931 1.419 . S
C929 H933 0.930 . S
C930 C929 1.369 . S
C930 C939 1.429 . S
C931 C929 1.419 . S
C931 C932 1.363 . S
C931 H934 0.929 . S
C932 C931 1.363 . S
C932 C938 1.428 . S
H933 C929 0.930 . S
H934 C931 0.929 . S
S935 N936 1.613 . S
S935 N937 1.610 . S
N936 S935 1.613 . S
N936 C939 1.350 . S
N937 S935 1.610 . S
N937 C938 1.351 . S
C938 C932 1.428 . S
C938 N937 1.351 . S
C938 C939 1.434 . S
C939 C930 1.429 . S
C939 N936 1.350 . S
C939 C938 1.434 . S
C940 C941 1.369 . S
C940 C942 1.419 . S
C940 H944 0.930 . S
C941 C940 1.369 . S
C941 C950 1.429 . S
C942 C940 1.419 . S
C942 C943 1.363 . S
C942 H945 0.929 . S
C943 C942 1.363 . S
C943 C949 1.428 . S
H944 C940 0.930 . S
H945 C942 0.929 . S
S946 N947 1.613 . S
S946 N948 1.610 . S
N947 S946 1.613 . S
N947 C950 1.350 . S
N948 S946 1.610 . S
N948 C949 1.351 . S
C949 C943 1.428 . S
C949 N948 1.351 . S
C949 C950 1.434 . S
C950 C941 1.429 . S
C950 N947 1.350 . S
C950 C949 1.434 . S
C951 C952 1.369 . S
C951 C953 1.419 . S
C951 H955 0.930 . S
C952 C951 1.369 . S
C952 C961 1.429 . S
C953 C951 1.419 . S
C953 C954 1.363 . S
C953 H956 0.929 . S
C954 C953 1.363 . S
C954 C960 1.428 . S
H955 C951 0.930 . S
H956 C953 0.929 . S
S957 N958 1.613 . S
S957 N959 1.610 . S
N958 S957 1.613 . S
N958 C961 1.350 . S
N959 S957 1.610 . S
N959 C960 1.351 . S
C960 C954 1.428 . S
C960 N959 1.351 . S
C960 C961 1.434 . S
C961 C952 1.429 . S
C961 N958 1.350 . S
C961 C960 1.434 . S
C962 C963 1.369 . S
C962 C964 1.419 . S
C962 H966 0.930 . S
C963 C962 1.369 . S
C963 C972 1.429 . S
C964 C962 1.419 . S
C964 C965 1.363 . S
C964 H967 0.929 . S
C965 C964 1.363 . S
C965 C971 1.428 . S
H966 C962 0.930 . S
H967 C964 0.929 . S
S968 N969 1.613 . S
S968 N970 1.610 . S
N969 S968 1.613 . S
N969 C972 1.350 . S
N970 S968 1.610 . S
N970 C971 1.351 . S
C971 C965 1.428 . S
C971 N970 1.351 . S
C971 C972 1.434 . S
C972 C963 1.429 . S
C972 N969 1.350 . S
C972 C971 1.434 . S
C973 C974 1.369 . S
C973 C975 1.419 . S
C973 H977 0.930 . S
C974 C973 1.369 . S
C974 C983 1.429 . S
C975 C973 1.419 . S
C975 C976 1.363 . S
C975 H978 0.929 . S
C976 C975 1.363 . S
C976 C982 1.428 . S
H977 C973 0.930 . S
H978 C975 0.929 . S
S979 N980 1.613 . S
S979 N981 1.610 . S
N980 S979 1.613 . S
N980 C983 1.350 . S
N981 S979 1.610 . S
N981 C982 1.351 . S
C982 C976 1.428 . S
C982 N981 1.351 . S
C982 C983 1.434 . S
C983 C974 1.429 . S
C983 N980 1.350 . S
C983 C982 1.434 . S
C545 C2 1.550 . S
C547 C478 1.548 . S
C556 C36 1.550 . S
C558 C512 1.547 . S
C567 C70 1.550 . S
C569 C410 1.547 . S
C578 C104 1.550 . S
C580 C444 1.547 . S
C589 C138 1.549 . S
C591 C342 1.549 . S
C600 C172 1.547 . S
C602 C376 1.549 . S
C611 C274 1.549 . S
C613 C206 1.548 . S
C622 C308 1.551 . S
C624 C240 1.547 . S
C633 C33 1.084 1_565 S
C635 C39 1.090 . S
C644 C67 1.081 1_655 S
C646 C73 1.089 . S
C655 C101 1.082 1_545 S
C657 C107 1.092 . S
C666 C5 1.092 . S
C668 C135 1.077 1_455 S
C677 C515 1.088 . S
C679 C169 1.082 . S
C688 C413 1.091 . S
C690 C203 1.082 . S
C699 C447 1.088 . S
C701 C237 1.082 . S
C710 C481 1.090 . S
C712 C271 1.083 . S
C721 C305 1.084 . S
C723 C311 1.090 . S
C732 C339 1.084 . S
C734 C345 1.091 . S
C743 C379 1.093 . S
C745 C373 1.080 . S
C754 C407 1.081 . S
C756 C277 1.092 . S
C765 C441 1.082 1_545 S
C767 C243 1.092 . S
C776 C141 1.093 . S
C778 C475 1.080 1_455 S
C787 C175 1.091 . S
C789 C509 1.083 1_565 S
C798 C543 1.084 1_655 S
C800 C209 1.089 . S
C809 C9 1.478 . S
C811 C77 1.489 . S
C820 C43 1.491 . S
C822 C111 1.485 . S
C831 C213 1.485 . S
C833 C145 1.483 . S
C842 C247 1.491 . S
C844 C179 1.480 . S
C853 C281 1.481 . S
C855 C349 1.491 . S
C864 C315 1.486 . S
C866 C383 1.489 . S
C875 C417 1.479 . S
C877 C485 1.488 . S
C886 C451 1.493 . S
C888 C519 1.480 . S
C897 C156 1.963 . S
C899 C20 1.967 . S
C908 C190 1.969 . S
C910 C54 1.963 . S
C919 C88 1.965 . S
C921 C224 1.969 . S
C930 C258 1.969 . S
C932 C122 1.964 . S
C941 C292 1.963 . S
C943 C428 1.969 . S
C952 C462 1.970 . S
C954 C326 1.963 . S
C963 C496 1.963 . S
C965 C360 1.966 . S
C974 C394 1.968 . S
C976 C530 1.963 . S
