# Generated by pormake.
# Topology zfi, (5)-cn, num edge types: 1
# Building blocks:
#     Node 0, Type 0, BuildingBlock: BEQFEK_clean_sbu_0, # of connection points: 5
#     Node 1, Type 0, BuildingBlock: BEQFEK_clean_sbu_0, # of connection points: 5
#     Node 2, Type 0, BuildingBlock: BEQFEK_clean_sbu_0, # of connection points: 5
#     Node 3, Type 0, BuildingBlock: BEQFEK_clean_sbu_0, # of connection points: 5
#     Node 4, Type 0, BuildingBlock: BEQFEK_clean_sbu_0, # of connection points: 5
#     Node 5, Type 0, BuildingBlock: BEQFEK_clean_sbu_0, # of connection points: 5
#     Node 6, Type 0, BuildingBlock: BEQFEK_clean_sbu_0, # of connection points: 5
#     Node 7, Type 0, BuildingBlock: BEQFEK_clean_sbu_0, # of connection points: 5
#     Node 8, Type 0, BuildingBlock: BEQFEK_clean_sbu_0, # of connection points: 5
#     Node 9, Type 0, BuildingBlock: BEQFEK_clean_sbu_0, # of connection points: 5
#     Node 10, Type 0, BuildingBlock: BEQFEK_clean_sbu_0, # of connection points: 5
#     Node 11, Type 0, BuildingBlock: BEQFEK_clean_sbu_0, # of connection points: 5
#     Node 12, Type 0, BuildingBlock: BEQFEK_clean_sbu_0, # of connection points: 5
#     Node 13, Type 0, BuildingBlock: BEQFEK_clean_sbu_0, # of connection points: 5
#     Node 14, Type 0, BuildingBlock: BEQFEK_clean_sbu_0, # of connection points: 5
#     Node 15, Type 0, BuildingBlock: BEQFEK_clean_sbu_0, # of connection points: 5
#     Edge 16, Type (0, 0), BuildingBlock: AJUNOK_clean_linker_0, # of connection points: 2
#     Edge 17, Type (0, 0), BuildingBlock: AJUNOK_clean_linker_0, # of connection points: 2
#     Edge 18, Type (0, 0), BuildingBlock: AJUNOK_clean_linker_0, # of connection points: 2
#     Edge 19, Type (0, 0), BuildingBlock: AJUNOK_clean_linker_0, # of connection points: 2
#     Edge 20, Type (0, 0), BuildingBlock: AJUNOK_clean_linker_0, # of connection points: 2
#     Edge 21, Type (0, 0), BuildingBlock: AJUNOK_clean_linker_0, # of connection points: 2
#     Edge 22, Type (0, 0), BuildingBlock: AJUNOK_clean_linker_0, # of connection points: 2
#     Edge 23, Type (0, 0), BuildingBlock: AJUNOK_clean_linker_0, # of connection points: 2
#     Edge 24, Type (0, 0), BuildingBlock: AJUNOK_clean_linker_0, # of connection points: 2
#     Edge 25, Type (0, 0), BuildingBlock: AJUNOK_clean_linker_0, # of connection points: 2
#     Edge 26, Type (0, 0), BuildingBlock: AJUNOK_clean_linker_0, # of connection points: 2
#     Edge 27, Type (0, 0), BuildingBlock: AJUNOK_clean_linker_0, # of connection points: 2
#     Edge 28, Type (0, 0), BuildingBlock: AJUNOK_clean_linker_0, # of connection points: 2
#     Edge 29, Type (0, 0), BuildingBlock: AJUNOK_clean_linker_0, # of connection points: 2
#     Edge 30, Type (0, 0), BuildingBlock: AJUNOK_clean_linker_0, # of connection points: 2
#     Edge 31, Type (0, 0), BuildingBlock: AJUNOK_clean_linker_0, # of connection points: 2
#     Edge 32, Type (0, 0), BuildingBlock: AJUNOK_clean_linker_0, # of connection points: 2
#     Edge 33, Type (0, 0), BuildingBlock: AJUNOK_clean_linker_0, # of connection points: 2
#     Edge 34, Type (0, 0), BuildingBlock: AJUNOK_clean_linker_0, # of connection points: 2
#     Edge 35, Type (0, 0), BuildingBlock: AJUNOK_clean_linker_0, # of connection points: 2
#     Edge 36, Type (0, 0), BuildingBlock: AJUNOK_clean_linker_0, # of connection points: 2
#     Edge 37, Type (0, 0), BuildingBlock: AJUNOK_clean_linker_0, # of connection points: 2
#     Edge 38, Type (0, 0), BuildingBlock: AJUNOK_clean_linker_0, # of connection points: 2
#     Edge 39, Type (0, 0), BuildingBlock: AJUNOK_clean_linker_0, # of connection points: 2
#     Edge 40, Type (0, 0), BuildingBlock: AJUNOK_clean_linker_0, # of connection points: 2
#     Edge 41, Type (0, 0), BuildingBlock: AJUNOK_clean_linker_0, # of connection points: 2
#     Edge 42, Type (0, 0), BuildingBlock: AJUNOK_clean_linker_0, # of connection points: 2
#     Edge 43, Type (0, 0), BuildingBlock: AJUNOK_clean_linker_0, # of connection points: 2
#     Edge 44, Type (0, 0), BuildingBlock: AJUNOK_clean_linker_0, # of connection points: 2
#     Edge 45, Type (0, 0), BuildingBlock: AJUNOK_clean_linker_0, # of connection points: 2
#     Edge 46, Type (0, 0), BuildingBlock: AJUNOK_clean_linker_0, # of connection points: 2
#     Edge 47, Type (0, 0), BuildingBlock: AJUNOK_clean_linker_0, # of connection points: 2
#     Edge 48, Type (0, 0), BuildingBlock: AJUNOK_clean_linker_0, # of connection points: 2
#     Edge 49, Type (0, 0), BuildingBlock: AJUNOK_clean_linker_0, # of connection points: 2
#     Edge 50, Type (0, 0), BuildingBlock: AJUNOK_clean_linker_0, # of connection points: 2
#     Edge 51, Type (0, 0), BuildingBlock: AJUNOK_clean_linker_0, # of connection points: 2
#     Edge 52, Type (0, 0), BuildingBlock: AJUNOK_clean_linker_0, # of connection points: 2
#     Edge 53, Type (0, 0), BuildingBlock: AJUNOK_clean_linker_0, # of connection points: 2
#     Edge 54, Type (0, 0), BuildingBlock: AJUNOK_clean_linker_0, # of connection points: 2
#     Edge 55, Type (0, 0), BuildingBlock: AJUNOK_clean_linker_0, # of connection points: 2
# Relax obj value: 0.237
# Max RMSD: 0.202
# Mean RMSD: 0.202
data_MOF--net-zfi--node1-BEQFEK_clean_sbu_0--edge1-AJUNOK_clean_linker_0
_symmetry_space_group_name_H-M    P1
_symmetry_Int_Tables_number       1
_symmetry_cell_setting            triclinic
loop_
_symmetry_equiv_pos_as_xyz
'x, y, z'
_cell_length_a     29.411265
_cell_length_b     29.447855
_cell_length_c     42.496393
_cell_angle_alpha  89.894273
_cell_angle_beta   89.923361
_cell_angle_gamma 90.153966
loop_
_atom_site_label
_atom_site_type_symbol
_atom_site_fract_x
_atom_site_fract_y
_atom_site_fract_z
_atom_type_partial_charge
Co0 Co 0.63929 0.08329 0.13422 0.0
Co1 Co 0.59055 0.99119 0.14762 0.0
C2 C 0.59918 0.04948 0.19985 0.0
O3 O 0.62076 0.0767 0.18131 0.0
O4 O 0.58059 0.0133 0.18949 0.0
C5 C 0.69889 0.15492 0.11107 0.0
O6 O 0.71591 0.12175 0.09417 0.0
C7 C 0.54978 0.89777 0.14993 0.0
C8 C 0.58029 0.87288 0.10547 0.0
C9 C 0.55299 0.86018 0.1304 0.0
N10 N 0.57441 0.93133 0.13689 0.0
N11 N 0.59237 0.91613 0.1104 0.0
C12 C 0.52529 0.90134 0.18065 0.0
H13 H 0.54078 0.92829 0.19541 0.0
H14 H 0.48931 0.91048 0.17611 0.0
H15 H 0.52586 0.8683 0.19327 0.0
C16 C 0.57384 0.07305 0.07684 0.0
N17 N 0.59024 0.06358 0.10602 0.0
N18 N 0.56605 0.02963 0.11728 0.0
C19 C 0.53209 0.01905 0.09755 0.0
C20 C 0.53621 0.04491 0.07068 0.0
C21 C 0.59573 0.10539 0.05432 0.0
H22 H 0.61572 0.13136 0.06723 0.0
H23 H 0.56958 0.12184 0.03936 0.0
H24 H 0.6191 0.08624 0.03873 0.0
O25 O 0.69358 0.04473 0.12973 0.0
O26 O 0.65542 0.98446 0.14473 0.0
H27 H 0.50939 0.95086 0.08952 0.0
H28 H 0.4645 0.99103 0.09444 0.0
C29 C 0.49871 0.98128 0.10296 0.0
H30 H 0.49631 0.97307 0.12837 0.0
H31 H 0.6132 0.9355 0.09565 0.0
O32 O 0.66319 0.14717 0.12748 0.0
C33 C 0.69254 0.00325 0.13754 0.0
Co34 Co 0.3884 0.62674 0.14128 0.0
Co35 Co 0.48343 0.58529 0.15399 0.0
C36 C 0.42527 0.5971 0.20771 0.0
O37 O 0.39475 0.61358 0.18928 0.0
O38 O 0.46265 0.58196 0.19686 0.0
C39 C 0.31843 0.68853 0.147 0.0
O40 O 0.34797 0.70079 0.16857 0.0
C41 C 0.57245 0.5394 0.16182 0.0
C42 C 0.60057 0.55432 0.11445 0.0
C43 C 0.60945 0.53196 0.14232 0.0
N44 N 0.54243 0.5645 0.1457 0.0
N45 N 0.55969 0.57371 0.11766 0.0
C46 C 0.56437 0.52114 0.1942 0.0
H47 H 0.52818 0.51104 0.19689 0.0
H48 H 0.58683 0.49176 0.19917 0.0
H49 H 0.57141 0.54833 0.21158 0.0
C50 C 0.4014 0.55901 0.08558 0.0
N51 N 0.40935 0.57654 0.11466 0.0
N52 N 0.44396 0.55433 0.12659 0.0
C53 C 0.45546 0.51957 0.10775 0.0
C54 C 0.43063 0.52205 0.08033 0.0
C55 C 0.37027 0.58 0.06199 0.0
H56 H 0.34436 0.60128 0.07391 0.0
H57 H 0.35363 0.55319 0.04769 0.0
H58 H 0.39049 0.60184 0.04587 0.0
O59 O 0.42569 0.68014 0.13291 0.0
O60 O 0.49175 0.64974 0.1445 0.0
H61 H 0.52277 0.49387 0.10006 0.0
H62 H 0.48114 0.45137 0.10828 0.0
C63 C 0.49243 0.4861 0.11463 0.0
H64 H 0.50107 0.48622 0.13998 0.0
H65 H 0.54291 0.59252 0.1004 0.0
O66 O 0.32612 0.65199 0.13169 0.0
C67 C 0.46817 0.68366 0.13649 0.0
Co68 Co 0.86209 0.3932 0.13874 0.0
Co69 Co 0.8847 0.49317 0.15882 0.0
C70 C 0.89708 0.41724 0.20378 0.0
O71 O 0.88227 0.38725 0.18458 0.0
O72 O 0.90182 0.45833 0.19541 0.0
C73 C 0.80978 0.31574 0.13909 0.0
O74 O 0.79879 0.33784 0.16483 0.0
C75 C 0.94202 0.57119 0.17344 0.0
C76 C 0.89232 0.6271 0.16902 0.0
C77 C 0.9376 0.61779 0.17485 0.0
N78 N 0.90106 0.55371 0.16655 0.0
N79 N 0.87139 0.58716 0.16433 0.0
C80 C 0.98364 0.54344 0.17949 0.0
H81 H 0.9812 0.51029 0.16721 0.0
H82 H 0.01482 0.56186 0.17211 0.0
H83 H 0.98614 0.53675 0.20514 0.0
C84 C 0.92748 0.42239 0.08505 0.0
N85 N 0.90434 0.42881 0.1124 0.0
N86 N 0.91048 0.47141 0.12101 0.0
C87 C 0.93597 0.4933 0.0994 0.0
C88 C 0.94893 0.46318 0.07628 0.0
C89 C 0.92826 0.37853 0.06746 0.0
H90 H 0.92643 0.34957 0.08418 0.0
H91 H 0.9593 0.37607 0.05267 0.0
H92 H 0.89802 0.37683 0.05192 0.0
O93 O 0.80242 0.42466 0.14006 0.0
O94 O 0.81933 0.4934 0.15733 0.0
H95 H 0.91325 0.56163 0.10771 0.0
H96 H 0.94958 0.55578 0.07409 0.0
C97 C 0.94337 0.54362 0.09846 0.0
H98 H 0.97368 0.55204 0.11269 0.0
H99 H 0.83706 0.58281 0.15892 0.0
O100 O 0.84229 0.33163 0.12229 0.0
C101 C 0.79043 0.46371 0.14946 0.0
Co102 Co 0.09302 0.8584 0.15557 0.0
Co103 Co 0.99142 0.87955 0.17078 0.0
C104 C 0.05631 0.89574 0.21996 0.0
O105 O 0.08755 0.87957 0.20195 0.0
O106 O 0.0161 0.90225 0.2098 0.0
C107 C 0.16479 0.81123 0.12545 0.0
O108 O 0.13057 0.79756 0.10802 0.0
C109 C 0.89507 0.90991 0.17598 0.0
C110 C 0.86614 0.86287 0.14065 0.0
C111 C 0.85563 0.89941 0.15962 0.0
N112 N 0.92782 0.88156 0.16612 0.0
N113 N 0.9099 0.8529 0.14569 0.0
C114 C 0.90147 0.94572 0.20055 0.0
H115 H 0.92903 0.93573 0.2169 0.0
H116 H 0.91111 0.97839 0.1894 0.0
H117 H 0.86937 0.95099 0.21381 0.0
C118 C 0.0678 0.91949 0.09847 0.0
N119 N 0.05994 0.89786 0.12631 0.0
N120 N 0.018 0.90715 0.135 0.0
C121 C -0.00133 0.93532 0.11395 0.0
C122 C 0.02862 0.94359 0.08966 0.0
C123 C 0.11104 0.91556 0.08023 0.0
H124 H 0.11461 0.88017 0.07168 0.0
H125 H 0.14032 0.92264 0.09594 0.0
H126 H 0.11152 0.93912 0.05982 0.0
O127 O 0.0678 0.79625 0.15574 0.0
O128 O 0.00012 0.81474 0.17346 0.0
H129 H 0.9261 0.93312 0.11128 0.0
H130 H 0.94987 0.98825 0.10332 0.0
C131 C 0.95326 0.95731 0.11806 0.0
H132 H 0.94907 0.96732 0.14289 0.0
H133 H 0.92833 0.82797 0.13383 0.0
O134 O 0.15811 0.84389 0.1447 0.0
C135 C 0.02946 0.78513 0.16676 0.0
Co136 Co 0.14043 0.89939 0.41606 0.0
Co137 Co 0.1103 -0.00474 0.39404 0.0
C138 C 0.08826 0.91887 0.35449 0.0
O139 O 0.1123 0.89255 0.37182 0.0
O140 O 0.07962 0.95927 0.36285 0.0
C141 C 0.19685 0.82384 0.41627 0.0
O142 O 0.20976 0.84673 0.39126 0.0
C143 C 0.05733 0.07641 0.38102 0.0
C144 C 0.11085 0.12917 0.38441 0.0
C145 C 0.06477 0.12267 0.37978 0.0
N146 N 0.09736 0.05643 0.38675 0.0
N147 N 0.12932 0.08796 0.38828 0.0
C148 C 0.01385 0.05114 0.37556 0.0
H149 H 0.01181 0.02117 0.39138 0.0
H150 H 0.98374 0.07323 0.37871 0.0
H151 H 0.01376 0.03848 0.351 0.0
C152 C 0.08463 0.93122 0.47431 0.0
N153 N 0.10331 0.93604 0.44518 0.0
N154 N 0.09503 0.97779 0.43556 0.0
C155 C 0.07248 0.00074 0.45807 0.0
C156 C 0.06381 0.9722 0.48319 0.0
C157 C 0.08616 0.88824 0.49299 0.0
H158 H 0.08681 0.85848 0.477 0.0
H159 H 0.05664 0.88597 0.50924 0.0
H160 H 0.11781 0.88786 0.50718 0.0
O161 O 0.19969 0.93055 0.40898 0.0
O162 O 0.17399 0.99092 0.3841 0.0
H163 H 0.05686 0.06468 0.48077 0.0
H164 H 0.03078 0.05571 0.44313 0.0
C165 C 0.06222 0.05048 0.45689 0.0
H166 H 0.09074 0.06922 0.44588 0.0
H167 H 0.16354 0.08142 0.39282 0.0
O168 O 0.16239 0.83792 0.43189 0.0
C169 C 0.20628 0.96505 0.39175 0.0
Co170 Co 0.58811 0.13214 0.39539 0.0
Co171 Co 0.49349 0.10178 0.36935 0.0
C172 C 0.57643 0.08154 0.33364 0.0
O173 O 0.60148 0.10422 0.35254 0.0
O174 O 0.53478 0.07426 0.33958 0.0
C175 C 0.6616 0.19113 0.40009 0.0
O176 O 0.64114 0.20443 0.37427 0.0
C177 C 0.41694 0.04127 0.35711 0.0
C178 C 0.36253 0.09107 0.34774 0.0
C179 C 0.3709 0.04507 0.35107 0.0
N180 N 0.43465 0.08328 0.35793 0.0
N181 N 0.40224 0.11284 0.35156 0.0
C182 C 0.44418 -0.00121 0.36118 0.0
H183 H 0.47558 0.00586 0.3748 0.0
H184 H 0.424 0.97159 0.37269 0.0
H185 H 0.4544 0.98634 0.33758 0.0
C186 C 0.55103 0.07729 0.45207 0.0
N187 N 0.54865 0.09495 0.42257 0.0
N188 N 0.5071 0.08786 0.41193 0.0
C189 C 0.48155 0.06839 0.43466 0.0
C190 C 0.50838 0.05987 0.46058 0.0
C191 C 0.59287 0.0776 0.47193 0.0
H192 H 0.61446 0.10735 0.46597 0.0
H193 H 0.61262 0.04632 0.4671 0.0
H194 H 0.58383 0.07796 0.49731 0.0
O195 O 0.55605 0.18988 0.38624 0.0
O196 O 0.49446 0.16635 0.36155 0.0
H197 H 0.41499 0.08293 0.41623 0.0
H198 H 0.41486 0.06068 0.45545 0.0
C199 C 0.43175 0.0585 0.4322 0.0
H200 H 0.42715 0.02335 0.42363 0.0
H201 H 0.40681 0.14798 0.35114 0.0
O202 O 0.6469 0.15574 0.41443 0.0
C203 C 0.52085 0.19797 0.37003 0.0
Co204 Co 0.36116 0.58694 0.40891 0.0
Co205 Co 0.39695 0.49594 0.38123 0.0
C206 C 0.40539 0.57573 0.34293 0.0
O207 O 0.38178 0.59819 0.36295 0.0
O208 O 0.41924 0.53591 0.34897 0.0
C209 C 0.29866 0.65825 0.41737 0.0
O210 O 0.27847 0.63296 0.39617 0.0
C211 C 0.44891 0.41579 0.36065 0.0
C212 C 0.39538 0.36338 0.36592 0.0
C213 C 0.44013 0.36997 0.35714 0.0
N214 N 0.41067 0.43552 0.3711 0.0
N215 N 0.37876 0.40406 0.37384 0.0
C216 C 0.49216 0.44048 0.35334 0.0
H217 H 0.49047 0.47614 0.36168 0.0
H218 H 0.52143 0.42294 0.36436 0.0
H219 H 0.49773 0.44027 0.32751 0.0
C220 C 0.42169 0.55295 0.46402 0.0
N221 N 0.40449 0.55113 0.43434 0.0
N222 N 0.41748 0.51227 0.42181 0.0
C223 C 0.4428 0.48875 0.44261 0.0
C224 C 0.44677 0.51344 0.47002 0.0
C225 C 0.41157 0.58981 0.48703 0.0
H226 H 0.40026 0.62097 0.47461 0.0
H227 H 0.44208 0.59711 0.50155 0.0
H228 H 0.38402 0.57825 0.50304 0.0
O229 O 0.30444 0.55124 0.40621 0.0
O230 O 0.33128 0.49523 0.37776 0.0
H231 H 0.43304 0.41906 0.42977 0.0
H232 H 0.47711 0.42756 0.45855 0.0
C233 C 0.46098 0.44195 0.43718 0.0
H234 H 0.48696 0.44332 0.41837 0.0
H235 H 0.34578 0.4101 0.38182 0.0
O236 O 0.33839 0.64704 0.42699 0.0
C237 C 0.29804 0.5165 0.38933 0.0
Co238 Co 0.89947 0.35458 0.4046 0.0
Co239 Co -0.00452 0.38782 0.38373 0.0
C240 C 0.92418 0.3952 0.33874 0.0
O241 O 0.89762 0.37387 0.35772 0.0
O242 O 0.96333 0.40848 0.34738 0.0
C243 C 0.82576 0.29567 0.40524 0.0
O244 O 0.85329 0.27807 0.38424 0.0
C245 C 0.08273 0.43352 0.3696 0.0
C246 C 0.1294 0.38392 0.39162 0.0
C247 C 0.12791 0.42514 0.37617 0.0
N248 N 0.05829 0.3987 0.38113 0.0
N249 N 0.08646 0.36892 0.39378 0.0
C250 C 0.06326 0.47363 0.35273 0.0
H251 H 0.02588 0.47522 0.35604 0.0
H252 H 0.07933 0.5055 0.36112 0.0
H253 H 0.07082 0.47048 0.32724 0.0
C254 C 0.9253 0.41624 0.46095 0.0
N255 N 0.93129 0.39795 0.43188 0.0
N256 N 0.97151 0.41113 0.42153 0.0
C257 C 0.99148 0.4384 0.44282 0.0
C258 C 0.96372 0.44208 0.46882 0.0
C259 C 0.88543 0.40676 0.48175 0.0
H260 H 0.86111 0.38336 0.47011 0.0
H261 H 0.86817 0.43918 0.4875 0.0
H262 H 0.89736 0.39166 0.50421 0.0
O263 O 0.93335 0.29706 0.40611 0.0
O264 O 0.99413 0.32234 0.38146 0.0
H265 H 0.06401 0.43688 0.43877 0.0
H266 H 0.04255 0.48822 0.45626 0.0
C267 C 0.03609 0.46206 0.43806 0.0
H268 H 0.03597 0.47918 0.41491 0.0
H269 H 0.0762 0.33893 0.40484 0.0
O270 O 0.83643 0.33364 0.41792 0.0
C271 C 0.97026 0.28987 0.39174 0.0
Co272 Co 0.35747 0.90722 0.89593 0.0
Co273 Co 0.38672 0.00532 0.8747 0.0
C274 C 0.40203 0.92913 0.83213 0.0
O275 O 0.38247 0.90122 0.85094 0.0
O276 O 0.40851 0.97023 0.83975 0.0
C277 C 0.30599 0.83154 0.88977 0.0
O278 O 0.30157 0.85596 0.86405 0.0
C279 C 0.44063 0.08676 0.85995 0.0
C280 C 0.38831 0.13973 0.86654 0.0
C281 C 0.4336 0.13311 0.85922 0.0
N282 N 0.40108 0.06678 0.8677 0.0
N283 N 0.36984 0.09857 0.87112 0.0
C284 C 0.48363 0.06184 0.85271 0.0
H285 H 0.48078 0.02567 0.85987 0.0
H286 H 0.51292 0.07803 0.86473 0.0
H287 H 0.49014 0.06368 0.82701 0.0
C288 C 0.41672 0.93693 0.95268 0.0
N289 N 0.39797 0.9425 0.92371 0.0
N290 N 0.40816 0.98396 0.91398 0.0
C291 C 0.43258 0.0057 0.93615 0.0
C292 C 0.43949 0.97687 0.96124 0.0
C293 C 0.4107 0.89558 0.97263 0.0
H294 H 0.39802 0.86671 0.95834 0.0
H295 H 0.44343 0.88661 0.98403 0.0
H296 H 0.38578 0.90302 0.99155 0.0
O297 O 0.29869 0.93941 0.89241 0.0
O298 O 0.32134 0.00482 0.87258 0.0
H299 H 0.41811 0.07588 0.92698 0.0
H300 H 0.4596 0.06732 0.95738 0.0
C301 C 0.44705 0.05449 0.93446 0.0
H302 H 0.47514 0.05789 0.91731 0.0
H303 H 0.3361 0.09229 0.87743 0.0
O304 O 0.33423 0.84539 0.91055 0.0
C305 C 0.28989 0.97788 0.88058 0.0
Co306 Co 0.59331 0.3613 0.90688 0.0
Co307 Co 0.50193 0.39743 0.8798 0.0
C308 C 0.58315 0.41426 0.84415 0.0
O309 O 0.60576 0.38912 0.86312 0.0
O310 O 0.54238 0.42541 0.84996 0.0
C311 C 0.65697 0.30304 0.93962 0.0
O312 O 0.61971 0.28251 0.94915 0.0
C313 C 0.42248 0.45181 0.8619 0.0
C314 C 0.36876 0.39942 0.86622 0.0
C315 C 0.37598 0.44498 0.85998 0.0
N316 N 0.44164 0.41198 0.86961 0.0
N317 N 0.4095 0.38068 0.8715 0.0
C318 C 0.44867 0.49442 0.85522 0.0
H319 H 0.47798 0.49741 0.87151 0.0
H320 H 0.42675 0.52492 0.85662 0.0
H321 H 0.46269 0.49234 0.83101 0.0
C322 C 0.55498 0.41252 0.96487 0.0
N323 N 0.55438 0.39873 0.93433 0.0
N324 N 0.51576 0.41252 0.92186 0.0
C325 C 0.49108 0.43489 0.9436 0.0
C326 C 0.51484 0.43626 0.97148 0.0
C327 C 0.59195 0.40129 0.9876 0.0
H328 H 0.62515 0.39975 0.97522 0.0
H329 H 0.59322 0.42663 1.0069 0.0
H330 H 0.58497 0.36737 0.998 0.0
O331 O 0.56281 0.30309 0.89725 0.0
O332 O 0.50401 0.33246 0.87245 0.0
H333 H 0.42213 0.42615 0.92852 0.0
H334 H 0.42838 0.46524 0.96062 0.0
C335 C 0.44418 0.45299 0.93851 0.0
H336 H 0.44619 0.48188 0.92195 0.0
H337 H 0.41519 0.34683 0.87757 0.0
O338 O 0.65339 0.34071 0.92482 0.0
C339 C 0.52771 0.29849 0.88025 0.0
Co340 Co 0.13732 0.59552 0.90229 0.0
Co341 Co 0.11075 0.49593 0.88389 0.0
C342 C 0.08829 0.57073 0.84113 0.0
O343 O 0.10853 0.59962 0.8587 0.0
O344 O 0.08286 0.52987 0.8499 0.0
C345 C 0.18612 0.6725 0.89316 0.0
O346 O 0.18862 0.6482 0.86732 0.0
C347 C 0.05257 0.41638 0.87618 0.0
C348 C 0.10363 0.3614 0.87797 0.0
C349 C 0.05742 0.3697 0.87606 0.0
N350 N 0.09421 0.43477 0.8788 0.0
N351 N 0.12461 0.40185 0.87935 0.0
C352 C 0.00979 0.44342 0.87298 0.0
H353 H 0.01112 0.46275 0.85057 0.0
H354 H 0.00754 0.46868 0.89225 0.0
H355 H 0.97917 0.42135 0.87291 0.0
C356 C 0.07929 0.56655 0.96034 0.0
N357 N 0.10035 0.56007 0.93217 0.0
N358 N 0.09498 0.51702 0.92447 0.0
C359 C 0.07338 0.49476 0.9478 0.0
C360 C 0.06071 0.5252 0.97071 0.0
C361 C 0.07635 0.61117 0.97681 0.0
H362 H 0.08882 0.63903 0.9614 0.0
H363 H 0.04066 0.61765 0.98403 0.0
H364 H 0.09729 0.60989 0.9985 0.0
O365 O 0.19664 0.56462 0.89527 0.0
O366 O 0.17526 0.49802 0.87641 0.0
H367 H 0.0989 0.42751 0.93914 0.0
H368 H 0.06777 0.43332 0.97537 0.0
C369 C 0.06938 0.44421 0.95036 0.0
H370 H 0.03763 0.43308 0.93895 0.0
H371 H 0.15957 0.40697 0.88158 0.0
O372 O 0.16045 0.65797 0.91534 0.0
C373 C 0.20591 0.52691 0.88242 0.0
Co374 Co 0.89505 0.13867 0.92031 0.0
Co375 Co 0.99073 0.10788 0.89752 0.0
C376 C 0.91454 0.09228 0.85628 0.0
O377 O 0.88802 0.11408 0.87487 0.0
O378 O 0.95517 0.08319 0.86398 0.0
C379 C 0.81846 0.19164 0.91915 0.0
O380 O 0.84026 0.20061 0.89285 0.0
C381 C 0.07355 0.06019 0.87861 0.0
C382 C 0.12521 0.10987 0.89459 0.0
C383 C 0.11974 0.06787 0.88067 0.0
N384 N 0.05247 0.09615 0.89122 0.0
N385 N 0.08342 0.12594 0.90033 0.0
C386 C 0.04974 0.02042 0.86414 0.0
H387 H 0.0169 0.01397 0.87626 0.0
H388 H 0.07129 0.98959 0.86475 0.0
H389 H 0.04227 0.02851 0.83917 0.0
C390 C 0.92693 0.08007 0.97743 0.0
N391 N 0.93114 0.0988 0.94825 0.0
N392 N 0.97161 0.08766 0.93739 0.0
C393 C 0.99389 0.0621 0.95865 0.0
C394 C 0.96697 0.05658 0.98497 0.0
C395 C 0.88638 0.08565 0.99823 0.0
H396 H 0.85988 0.10634 0.98646 0.0
H397 H 0.87237 0.05172 1.00432 0.0
H398 H 0.89688 0.10222 1.02052 0.0
O399 O 0.92648 0.19816 0.91559 0.0
O400 O 0.98837 0.17268 0.8925 0.0
H401 H 0.06561 0.06824 0.95093 0.0
H402 H 0.04978 0.01808 0.97268 0.0
C403 C 0.03962 0.04113 0.95329 0.0
H404 H 0.03871 0.021 0.93139 0.0
H405 H 0.07597 0.15687 0.91109 0.0
O406 O 0.83388 0.15993 0.93672 0.0
C407 C 0.96315 0.20518 0.9007 0.0
Co408 Co 0.86495 0.09304 0.65516 0.0
Co409 Co 0.89223 0.99375 0.67249 0.0
C410 C 0.89517 0.06568 0.72105 0.0
O411 O 0.88062 0.09659 0.70239 0.0
O412 O 0.90279 0.02602 0.71097 0.0
C413 C 0.80856 0.16795 0.65398 0.0
O414 O 0.79241 0.14255 0.67688 0.0
C415 C 0.95124 0.91619 0.68565 0.0
C416 C 0.90195 0.86 0.67967 0.0
C417 C 0.94714 0.86947 0.68573 0.0
N418 N 0.9101 0.93353 0.67928 0.0
N419 N 0.88068 0.89985 0.67629 0.0
C420 C 0.99275 0.94401 0.69231 0.0
H421 H 0.98845 0.97918 0.68337 0.0
H422 H 0.02345 0.92827 0.68187 0.0
H423 H -0.00211 0.94542 0.71815 0.0
C424 C 0.93433 0.07119 0.60179 0.0
N425 N 0.91134 0.06225 0.62897 0.0
N426 N 0.9198 0.01972 0.63673 0.0
C427 C 0.94633 0.00032 0.61474 0.0
C428 C 0.95816 0.03219 0.59238 0.0
C429 C 0.93169 0.11511 0.58429 0.0
H430 H 0.92309 0.14322 0.60059 0.0
H431 H 0.96433 0.12223 0.57206 0.0
H432 H 0.90455 0.11256 0.56626 0.0
O433 O 0.80651 0.05825 0.65217 0.0
O434 O 0.82805 0.98985 0.66694 0.0
H435 H 0.96172 0.94005 0.58759 0.0
H436 H 0.98489 0.94216 0.62649 0.0
C437 C 0.95471 0.9504 0.61221 0.0
H438 H 0.92487 0.93093 0.62064 0.0
H439 H 0.84635 0.90393 0.67092 0.0
O440 O 0.84493 0.15505 0.64015 0.0
C441 C 0.79724 0.01721 0.65883 0.0
Co442 Co 0.39048 0.86287 0.6345 0.0
Co443 Co 0.49197 0.89055 0.64614 0.0
C444 C 0.42737 0.90078 0.69762 0.0
O445 O 0.39545 0.88439 0.68049 0.0
O446 O 0.46695 0.90752 0.6865 0.0
C447 C 0.31756 0.81 0.64744 0.0
O448 O 0.3463 0.80563 0.67088 0.0
C449 C 0.58004 0.93641 0.65538 0.0
C450 C 0.62342 0.89266 0.62555 0.0
C451 C 0.62375 0.93086 0.64431 0.0
N452 N 0.55435 0.90327 0.64299 0.0
N453 N 0.5805 0.87717 0.62534 0.0
C454 C 0.56325 0.9716 0.67784 0.0
H455 H 0.52615 0.97674 0.6749 0.0
H456 H 0.58159 0.00419 0.67435 0.0
H457 H 0.56987 0.95981 0.70221 0.0
C458 C 0.4081 0.92599 0.57705 0.0
N459 N 0.41881 0.90556 0.6048 0.0
N460 N 0.46077 0.91758 0.61203 0.0
C461 C 0.47704 0.94663 0.59023 0.0
C462 C 0.445 0.95259 0.56705 0.0
C463 C 0.36488 0.91823 0.55948 0.0
H464 H 0.33964 0.9003 0.57449 0.0
H465 H 0.35096 0.95122 0.55134 0.0
H466 H 0.37212 0.89742 0.53832 0.0
O467 O 0.42235 0.80457 0.63218 0.0
O468 O 0.49191 0.8247 0.64521 0.0
H469 H 0.54949 0.94311 0.58612 0.0
H470 H 0.52618 -0.00359 0.57355 0.0
C471 C 0.52296 0.96872 0.59116 0.0
H472 H 0.52865 0.98353 0.61472 0.0
H473 H 0.56887 0.84891 0.61291 0.0
O474 O 0.32667 0.83941 0.62612 0.0
C475 C 0.46282 0.79437 0.63916 0.0
Co476 Co 0.63862 0.4006 0.64428 0.0
Co477 Co 0.58435 0.48884 0.65442 0.0
C478 C 0.60096 0.43759 0.7095 0.0
O479 O 0.6224 0.40929 0.69182 0.0
O480 O 0.57994 0.47129 0.69771 0.0
C481 C 0.70378 0.33185 0.6251 0.0
O482 O 0.72216 0.36621 0.60998 0.0
C483 C 0.53512 0.57651 0.65751 0.0
C484 C 0.5433 0.59703 0.60759 0.0
C485 C 0.52479 0.61024 0.63595 0.0
N486 N 0.55826 0.54418 0.64223 0.0
N487 N 0.56332 0.55685 0.61256 0.0
C488 C 0.52338 0.5747 0.69171 0.0
H489 H 0.51257 0.53977 0.6982 0.0
H490 H 0.49609 0.59927 0.69753 0.0
H491 H 0.55415 0.58303 0.70567 0.0
C492 C 0.57582 0.40849 0.5854 0.0
N493 N 0.58846 0.4153 0.6158 0.0
N494 N 0.55965 0.44424 0.62801 0.0
C495 C 0.52545 0.45224 0.60785 0.0
C496 C 0.53521 0.4322 0.57935 0.0
C497 C 0.60456 0.3843 0.56182 0.0
H498 H 0.61992 0.35371 0.57275 0.0
H499 H 0.58425 0.37473 0.54084 0.0
H500 H 0.63271 0.40707 0.55434 0.0
O501 O 0.68906 0.44238 0.63715 0.0
O502 O 0.64886 0.5032 0.64782 0.0
H503 H 0.48601 0.51239 0.59902 0.0
H504 H 0.45371 0.46352 0.60991 0.0
C505 C 0.48565 0.48234 0.61479 0.0
H506 H 0.48541 0.49289 0.63983 0.0
H507 H 0.58064 0.53789 0.59566 0.0
O508 O 0.66569 0.33778 0.63905 0.0
C509 C 0.68656 0.48482 0.64131 0.0
Co510 Co 0.08951 0.63292 0.64178 0.0
Co511 Co 0.98969 0.6078 0.66004 0.0
C512 C 0.05626 0.59132 0.70649 0.0
O513 O 0.08505 0.61048 0.68789 0.0
O514 O 0.01623 0.58125 0.69731 0.0
C515 C 0.1671 0.68013 0.65159 0.0
O516 O 0.1418 0.68515 0.67682 0.0
C517 C 0.89345 0.57761 0.66767 0.0
C518 C 0.86168 0.6267 0.63493 0.0
C519 C 0.85252 0.58927 0.65356 0.0
N520 N 0.92558 0.60627 0.65697 0.0
N521 N 0.90608 0.63606 0.63805 0.0
C522 C 0.90182 0.54047 0.69105 0.0
H523 H 0.93081 0.54952 0.70651 0.0
H524 H 0.91039 0.50855 0.67864 0.0
H525 H 0.87089 0.53427 0.70545 0.0
C526 C 0.06253 0.57393 0.58453 0.0
N527 N 0.05597 0.594 0.61295 0.0
N528 N 0.0146 0.58369 0.62254 0.0
C529 C 0.99434 0.55637 0.60142 0.0
C530 C 0.02316 0.54974 0.57627 0.0
C531 C 0.10489 0.57881 0.56539 0.0
H532 H 0.12199 0.61153 0.57076 0.0
H533 H 0.12846 0.55082 0.57154 0.0
H534 H 0.09707 0.57652 0.53988 0.0
O535 O 0.0625 0.69352 0.64209 0.0
O536 O -4e-05 0.67207 0.66634 0.0
H537 H 0.92165 0.55776 0.60078 0.0
H538 H 0.94537 0.50325 0.59115 0.0
C539 C 0.94934 0.5336 0.60634 0.0
H540 H 0.94649 0.5226 0.63111 0.0
H541 H 0.92364 0.66164 0.62608 0.0
O542 O 0.15372 0.65215 0.63054 0.0
C543 C 0.02747 0.70278 0.65797 0.0
C544 C 0.48545 0.81084 0.1393 0.0
C545 C 0.53228 0.81517 0.13378 0.0
C546 C 0.46462 0.76808 0.13928 0.0
C547 C 0.49019 0.72842 0.13408 0.0
H548 H 0.46463 0.84069 0.14283 0.0
H549 H 0.4284 0.76607 0.14378 0.0
S550 S 0.61428 0.72235 0.1187 0.0
N551 N 0.60375 0.77701 0.12303 0.0
N552 N 0.56486 0.69644 0.12324 0.0
C553 C 0.53719 0.73251 0.1287 0.0
C554 C 0.55818 0.776 0.12845 0.0
C555 C 0.71165 0.45883 0.12865 0.0
C556 C 0.74212 0.47553 0.15125 0.0
C557 C 0.6672 0.47535 0.12716 0.0
C558 C 0.65181 0.50797 0.14875 0.0
H559 H 0.72294 0.43497 0.11092 0.0
H560 H 0.64529 0.46398 0.10825 0.0
S561 S 0.71673 0.55837 0.21457 0.0
N562 N 0.7528 0.52342 0.19736 0.0
N563 N 0.66886 0.55405 0.19454 0.0
C564 C 0.68087 0.52258 0.17272 0.0
C565 C 0.72627 0.50639 0.17398 0.0
C566 C 0.98903 0.72772 0.19836 0.0
C567 C 0.01737 0.73758 0.17255 0.0
C568 C 0.96687 0.68602 0.20077 0.0
C569 C 0.97261 0.65285 0.17758 0.0
H570 H 0.98152 0.75354 0.21574 0.0
H571 H 0.94245 0.681 0.2196 0.0
S572 S 0.04757 0.65988 0.10752 0.0
N573 N 0.05407 0.70936 0.12525 0.0
N574 N 0.01165 0.63055 0.12957 0.0
C575 C 0.00402 0.66059 0.15318 0.0
C576 C 0.02681 0.70322 0.15076 0.0
C577 C 0.81565 0.97342 0.15283 0.0
C578 C 0.81373 0.92594 0.15631 0.0
C579 C 0.77656 -0.00161 0.1456 0.0
C580 C 0.73446 0.97655 0.14146 0.0
H581 H 0.84768 0.99136 0.15475 0.0
H582 H 0.77928 0.03498 0.14364 0.0
S583 S 0.71245 0.85224 0.14649 0.0
N584 N 0.7671 0.85788 0.15433 0.0
N585 N 0.69377 0.9042 0.14011 0.0
C586 C 0.73248 0.92884 0.14431 0.0
C587 C 0.77209 0.9037 0.15188 0.0
C588 C 0.01659 0.23616 0.3609 0.0
C589 C 0.98665 0.24359 0.38622 0.0
C590 C 0.03897 0.1949 0.35745 0.0
C591 C 0.03184 0.15964 0.379 0.0
H592 H 0.02437 0.26309 0.34432 0.0
H593 H 0.06386 0.19138 0.33878 0.0
S594 S 0.95434 0.16047 0.44789 0.0
N595 N 0.94836 0.21122 0.43183 0.0
N596 N 0.99133 0.13335 0.42555 0.0
C597 C -0.00014 0.16536 0.40326 0.0
C598 C 0.97686 0.20752 0.40677 0.0
C599 C 0.29029 0.97232 0.39741 0.0
C600 C 0.25129 0.97491 0.37859 0.0
C601 C 0.33143 0.99106 0.38689 0.0
C602 C 0.33458 0.01202 0.35714 0.0
H603 H 0.28815 0.9592 0.42121 0.0
H604 H 0.35946 0.99267 0.40326 0.0
S605 S 0.24429 0.01858 0.2968 0.0
N606 N 0.21983 0.9934 0.3272 0.0
N607 N 0.29734 0.02845 0.30756 0.0
C608 C 0.29697 0.01054 0.33707 0.0
C609 C 0.25519 0.99191 0.34777 0.0
C610 C 0.52321 0.2812 0.38066 0.0
C611 C 0.50909 0.24489 0.36155 0.0
C612 C 0.50458 0.32451 0.37665 0.0
C613 C 0.47191 0.33247 0.35321 0.0
H614 H 0.54591 0.27543 0.40032 0.0
H615 H 0.51246 0.35052 0.39381 0.0
S616 S 0.43165 0.25166 0.2928 0.0
N617 N 0.46673 0.22183 0.31494 0.0
N618 N 0.4315 0.3033 0.30786 0.0
C619 C 0.46139 0.29786 0.33195 0.0
C620 C 0.48011 0.25392 0.33598 0.0
C621 C 0.20452 0.44259 0.35676 0.0
C622 C 0.16666 0.45595 0.3743 0.0
C623 C 0.24634 0.46409 0.36081 0.0
C624 C 0.25186 0.49917 0.38305 0.0
H625 H 0.20232 0.41383 0.34094 0.0
H626 H 0.27494 0.45168 0.34727 0.0
S627 S 0.16133 0.54761 0.43371 0.0
N628 N 0.13568 0.50717 0.4135 0.0
N629 N 0.21464 0.54804 0.42142 0.0
C630 C 0.21336 0.5144 0.39959 0.0
C631 C 0.1706 0.49254 0.39519 0.0
C632 C 0.49922 0.17345 0.8828 0.0
C633 C 0.46706 0.16988 0.85849 0.0
C634 C 0.52168 0.21465 0.88851 0.0
C635 C 0.51205 0.25326 0.87021 0.0
H636 H 0.50422 0.14556 0.89908 0.0
H637 H 0.54401 0.21708 0.90869 0.0
S638 S 0.43635 0.25818 0.80038 0.0
N639 N 0.43087 0.20578 0.81376 0.0
N640 N 0.47335 0.28315 0.8239 0.0
C641 C 0.48299 0.24861 0.84408 0.0
C642 C 0.46027 0.20686 0.83841 0.0
C643 C 0.30167 0.46916 0.84024 0.0
C644 C 0.3389 0.47806 0.85981 0.0
C645 C 0.25922 0.48784 0.84669 0.0
C646 C 0.25263 0.51599 0.873 0.0
H647 H 0.30454 0.44474 0.82128 0.0
H648 H 0.23078 0.47809 0.83196 0.0
S649 S 0.34064 0.55403 0.92934 0.0
N650 N 0.36776 0.52004 0.90485 0.0
N651 N 0.28762 0.55605 0.91667 0.0
C652 C 0.29043 0.52865 0.89105 0.0
C653 C 0.33382 0.50936 0.88453 0.0
C654 C 0.00494 0.25593 0.86455 0.0
C655 C 0.97761 0.25111 0.89156 0.0
C656 C 0.02732 0.29656 0.85802 0.0
C657 C 0.02281 0.33392 0.87807 0.0
H658 H 0.01112 0.22728 0.84916 0.0
H659 H 0.05059 0.29787 0.83823 0.0
S660 S 0.95084 0.34065 0.94967 0.0
N661 N 0.94341 0.2883 0.93672 0.0
N662 N 0.98588 0.3653 0.92444 0.0
C663 C 0.99256 0.33098 0.90368 0.0
C664 C 0.96967 0.28931 0.9104 0.0
C665 C 0.23429 0.0293 0.85549 0.0
C666 C 0.24275 0.99321 0.87645 0.0
C667 C 0.19226 0.0509 0.85491 0.0
C668 C 0.15719 0.03668 0.87488 0.0
H669 H 0.26106 0.04264 0.84053 0.0
H670 H 0.18802 0.08061 0.84011 0.0
S671 S 0.15989 0.9412 0.93169 0.0
N672 N 0.21111 0.94163 0.91567 0.0
N673 N 0.13163 0.98283 0.91455 0.0
C674 C 0.16372 -0.00142 0.89421 0.0
C675 C 0.20672 0.97651 0.89492 0.0
C676 C 0.99469 0.7552 0.69694 0.0
C677 C 0.01855 0.74914 0.66856 0.0
C678 C 0.97677 0.79732 0.70488 0.0
C679 C 0.98225 0.83458 0.68473 0.0
H680 H 0.98726 0.72654 0.71216 0.0
H681 H 0.9549 0.79973 0.72536 0.0
S682 S 0.04894 0.83809 0.6106 0.0
N683 N 0.05275 0.78491 0.6227 0.0
N684 N 0.01817 0.86449 0.63742 0.0
C685 C 0.01034 0.83021 0.65811 0.0
C686 C 0.02883 0.78717 0.65004 0.0
C687 C 0.74144 0.95671 0.67127 0.0
C688 C 0.75034 -0.00043 0.65769 0.0
C689 C 0.69929 0.93581 0.66808 0.0
C690 C 0.66427 0.95725 0.6517 0.0
H691 H 0.76761 0.93829 0.68382 0.0
H692 H 0.69444 0.90202 0.67771 0.0
S693 S 0.66782 0.07042 0.61371 0.0
N694 N 0.71921 0.06381 0.6287 0.0
N695 N 0.63917 0.02389 0.6229 0.0
C696 C 0.67136 0.00085 0.63929 0.0
C697 C 0.71466 0.02228 0.64234 0.0
C698 C 0.46823 0.66878 0.62238 0.0
C699 C 0.50471 0.6548 0.64126 0.0
C700 C 0.45369 0.71391 0.62262 0.0
C701 C 0.47617 0.74646 0.6411 0.0
H702 H 0.45176 0.64494 0.60666 0.0
H703 H 0.42598 0.72368 0.60728 0.0
S704 S 0.57257 0.72581 0.69559 0.0
N705 N 0.56196 0.67579 0.67968 0.0
N706 N 0.53509 0.76101 0.68014 0.0
C707 C 0.51188 0.73239 0.66085 0.0
C708 C 0.52608 0.68633 0.66093 0.0
C709 C 0.81116 0.51589 0.64764 0.0
C710 C 0.80992 0.56312 0.65207 0.0
C711 C 0.77117 0.49101 0.64308 0.0
C712 C 0.72849 0.51251 0.64269 0.0
H713 H 0.84325 0.49806 0.64681 0.0
H714 H 0.77382 0.45457 0.64019 0.0
S715 S 0.7076 0.6363 0.65175 0.0
N716 N 0.76327 0.63089 0.65483 0.0
N717 N 0.68781 0.58447 0.64606 0.0
C718 C 0.72699 0.56005 0.6465 0.0
C719 C 0.76778 0.58525 0.65119 0.0
C720 C 0.71527 0.22685 0.14063 0.0
C721 C 0.72553 0.19784 0.11538 0.0
C722 C 0.74275 0.26445 0.14774 0.0
C723 C 0.78184 0.27533 0.12987 0.0
H724 H 0.68637 0.21986 0.15573 0.0
H725 H 0.73315 0.28501 0.16777 0.0
S726 S 0.82223 0.21233 0.05968 0.0
N727 N 0.77665 0.18397 0.07128 0.0
N728 N 0.82801 0.25491 0.08462 0.0
C729 C 0.79185 0.2475 0.1039 0.0
C730 C 0.76385 0.20883 0.09669 0.0
C731 C 0.27238 0.75804 0.1589 0.0
C732 C 0.27934 0.71932 0.13996 0.0
C733 C 0.23677 0.78859 0.15314 0.0
C734 C 0.20617 0.782 0.12814 0.0
H735 H 0.29442 0.76483 0.17875 0.0
H736 H 0.23258 0.81697 0.16905 0.0
S737 S 0.21099 0.68785 0.06992 0.0
N738 N 0.25373 0.67749 0.09402 0.0
N739 N 0.1868 0.73466 0.08309 0.0
C740 C 0.2134 0.74408 0.10839 0.0
C741 C 0.24981 0.71284 0.11433 0.0
C742 C 0.29668 0.74291 0.42098 0.0
C743 C 0.27559 0.7009 0.42661 0.0
C744 C 0.271 0.78312 0.41989 0.0
C745 C 0.22352 0.78292 0.42499 0.0
H746 H 0.3324 0.74431 0.41477 0.0
H747 H 0.28815 0.81437 0.41338 0.0
S748 S 0.15347 0.68223 0.44482 0.0
N749 N 0.20534 0.66185 0.44018 0.0
N750 N 0.15755 0.73761 0.43907 0.0
C751 C 0.20283 0.7417 0.43336 0.0
C752 C 0.22878 0.70063 0.43386 0.0
C753 C 0.78443 0.2226 0.41361 0.0
C754 C 0.78326 0.27053 0.41255 0.0
C755 C 0.74435 0.19648 0.41297 0.0
C756 C 0.70174 0.21745 0.41058 0.0
H757 H 0.81678 0.20507 0.41325 0.0
H758 H 0.74697 0.15984 0.41175 0.0
S759 S 0.67962 0.34148 0.41038 0.0
N760 N 0.7356 0.33763 0.41217 0.0
N761 N 0.6603 0.28874 0.40998 0.0
C762 C 0.69994 0.26526 0.41161 0.0
C763 C 0.7407 0.29181 0.41291 0.0
C764 C 0.22771 0.735 0.86639 0.0
C765 C 0.21441 0.7146 0.89492 0.0
C766 C 0.25791 0.77165 0.8655 0.0
C767 C 0.27688 0.79009 0.89308 0.0
H768 H 0.2148 0.72238 0.84418 0.0
H769 H 0.2665 0.78558 0.84263 0.0
S770 S 0.25339 0.74967 0.97431 0.0
N771 N 0.22257 0.71567 0.95186 0.0
N772 N 0.27967 0.78526 0.9502 0.0
C773 C 0.26402 0.7703 0.92202 0.0
C774 C 0.23261 0.73263 0.92295 0.0
C775 C 0.73458 0.28976 0.91711 0.0
C776 C 0.70073 0.2773 0.93889 0.0
C777 C 0.77248 0.2621 0.91163 0.0
C778 C 0.77887 0.22077 0.92789 0.0
H779 H 0.73094 0.32023 0.90302 0.0
H780 H 0.79668 0.27314 0.89395 0.0
S781 S 0.70333 0.17511 0.99043 0.0
N782 N 0.6781 0.22238 0.97893 0.0
N783 N 0.74994 0.17083 0.9689 0.0
C784 C 0.74676 0.20905 0.9511 0.0
C785 C 0.70763 0.23713 0.95649 0.0
C786 C 0.73749 0.21464 0.65512 0.0
C787 C 0.78255 0.20917 0.64432 0.0
C788 C 0.71193 0.25344 0.64787 0.0
C789 C 0.73015 0.28888 0.62952 0.0
H790 H 0.72161 0.18877 0.66961 0.0
H791 H 0.67782 0.25595 0.65734 0.0
S792 S 0.84618 0.2909 0.59434 0.0
N793 N 0.84386 0.24205 0.61342 0.0
N794 N 0.79622 0.31512 0.59978 0.0
C795 C 0.7749 0.28342 0.61784 0.0
C796 C 0.80093 0.24363 0.6252 0.0
C797 C 0.26337 0.75844 0.67488 0.0
C798 C 0.27781 0.77841 0.64643 0.0
C799 C 0.22906 0.7255 0.67572 0.0
C800 C 0.20757 0.71026 0.64814 0.0
H801 H 0.27865 0.76843 0.697 0.0
H802 H 0.21899 0.71206 0.69846 0.0
S803 S 0.23251 0.75094 0.56722 0.0
N804 N 0.26796 0.78015 0.58962 0.0
N805 N 0.20305 0.71782 0.59125 0.0
C806 C 0.22171 0.72943 0.61932 0.0
C807 C 0.25671 0.76369 0.61847 0.0
C808 C 0.53468 0.00534 1.01846 0.0
C809 C 0.51278 0.03312 0.04073 0.0
C810 C 0.51023 0.98468 0.99375 0.0
C811 C 0.46287 0.99018 0.99088 0.0
H812 H 0.57073 -0.0014 0.02065 0.0
H813 H 0.52857 0.96477 0.97651 0.0
S814 S 0.38985 0.06031 0.04255 0.0
N815 N 0.44122 0.0656 0.05783 0.0
N816 N 0.39547 0.02666 1.01172 0.0
C817 C 0.44078 0.01804 1.01287 0.0
C818 C 0.46565 0.03947 0.03769 0.0
C819 C 0.47403 0.52574 0.02949 0.0
C820 C 0.44649 0.50069 0.05042 0.0
C821 C 0.4984 0.50425 1.00508 0.0
C822 C 0.49707 0.45677 1.00111 0.0
H823 H 0.47774 0.56207 0.03253 0.0
H824 H 0.51805 0.525 0.98894 0.0
S825 S 0.42867 0.37602 0.04861 0.0
N826 N 0.41834 0.42594 0.06479 0.0
N827 N 0.46415 0.38581 1.01917 0.0
C828 C 0.46927 0.43151 0.0216 0.0
C829 C 0.44412 0.45336 0.04618 0.0
C830 C 0.02042 0.49735 0.05389 0.0
C831 C 0.97822 0.47546 0.04875 0.0
C832 C 0.04606 0.5159 0.02888 0.0
C833 C 0.03033 0.51353 0.99776 0.0
H834 H 0.03352 0.50052 0.0776 0.0
H835 H 0.07884 0.53111 0.03385 0.0
S836 S 0.92101 0.46259 0.97172 0.0
N837 N 0.92133 0.45444 1.01019 0.0
N838 N 0.96913 0.489 0.96329 0.0
C839 C 0.98796 0.49229 0.99238 0.0
C840 C 0.96208 0.47323 1.01778 0.0
C841 C 0.96044 0.98782 1.01989 0.0
C842 C 0.98039 0.03025 1.01358 0.0
C843 C 0.97827 0.95882 0.04322 0.0
C844 C 0.01697 0.97086 0.06106 0.0
H845 H 0.93149 0.97651 1.00623 0.0
H846 H 0.96111 0.92687 0.04778 0.0
S847 S 0.08126 0.07869 0.05396 0.0
N848 N 0.04088 0.08301 0.02712 0.0
N849 N 0.07375 0.02883 0.07114 0.0
C850 C 0.03714 0.0132 0.05497 0.0
C851 C 0.01896 0.04278 0.03128 0.0
C852 C 0.96956 0.02405 0.53376 0.0
C853 C 0.98742 0.02221 0.56437 0.0
C854 C 0.99375 0.00595 0.50799 0.0
C855 C 0.03673 0.98517 0.51171 0.0
H856 H 0.93607 0.03816 0.52984 0.0
H857 H 0.97868 0.00834 0.4848 0.0
S858 S 0.09905 0.9732 0.58691 0.0
N859 N 0.05125 -0.00115 0.59682 0.0
N860 N 0.0964 0.9653 0.54848 0.0
C861 C 0.05503 0.9835 0.54213 0.0
C862 C 0.03058 0.00206 0.56833 0.0
C863 C 0.4618 0.05036 0.50995 0.0
C864 C 0.49382 0.03273 0.48851 0.0
C865 C 0.44272 0.02311 0.53394 0.0
C866 C 0.4544 0.97703 0.53703 0.0
H867 H 0.4514 0.08553 0.50809 0.0
H868 H 0.41996 0.03858 0.55085 0.0
S869 S 0.53603 0.91441 0.48675 0.0
N870 N 0.53562 0.96621 0.47173 0.0
N871 N 0.50026 0.91523 0.51676 0.0
C872 C 0.48596 0.95902 0.51551 0.0
C873 C 0.50555 0.98677 0.49132 0.0
C874 C 0.44584 0.46513 0.51873 0.0
C875 C 0.46891 0.49646 0.49935 0.0
C876 C 0.46832 0.4421 0.54329 0.0
C877 C 0.51504 0.44871 0.54913 0.0
H878 H 0.41022 0.45792 0.51455 0.0
H879 H 0.44881 0.4194 0.5582 0.0
S880 S 0.59099 0.52676 0.50487 0.0
N881 N 0.54121 0.53223 0.48729 0.0
N882 N 0.58326 0.48963 0.5336 0.0
C883 C 0.53852 0.47966 0.52971 0.0
C884 C 0.51555 0.50327 0.50481 0.0
C885 C 0.9706 0.53429 0.53111 0.0
C886 C 0.01093 0.5235 0.54749 0.0
C887 C 0.95368 0.50635 0.50693 0.0
C888 C 0.97632 0.46637 0.4983 0.0
H889 H 0.95169 0.56451 0.53732 0.0
H890 H 0.92343 0.51674 0.49434 0.0
S891 S 0.08209 0.42176 0.53443 0.0
N892 N 0.07212 0.4693 0.55382 0.0
N893 N 0.0407 0.41687 0.50839 0.0
C894 C 0.01638 0.45495 0.51471 0.0
C895 C 0.03369 0.48353 0.53917 0.0
C896 C 0.57183 0.03217 0.28654 0.0
C897 C 0.59178 0.06984 0.30142 0.0
C898 C 0.57489 0.02609 0.25398 0.0
C899 C 0.59788 0.05755 0.23454 0.0
H900 H 0.55182 0.00808 0.30006 0.0
H901 H 0.55797 -0.00324 0.24401 0.0
S902 S 0.65879 0.16071 0.26225 0.0
N903 N 0.63738 0.13809 0.29466 0.0
N904 N 0.64362 0.12663 0.23324 0.0
C905 C 0.61986 0.09444 0.24931 0.0
C906 C 0.61684 0.1005 0.28275 0.0
C907 C 0.45186 0.57807 0.29429 0.0
C908 C 0.41219 0.59162 0.31009 0.0
C909 C 0.45551 0.5808 0.26155 0.0
C910 C 0.4195 0.59702 0.24272 0.0
H911 H 0.47979 0.56318 0.30731 0.0
H912 H 0.48677 0.5688 0.25098 0.0
S913 S 0.30909 0.64001 0.2728 0.0
N914 N 0.33679 0.62425 0.3048 0.0
N915 N 0.34362 0.62988 0.24293 0.0
C916 C 0.38027 0.61287 0.25832 0.0
C917 C 0.37667 0.61018 0.29201 0.0
C918 C 0.93355 0.43657 0.2547 0.0
C919 C 0.90497 0.4072 0.23763 0.0
C920 C 0.93754 0.43345 0.28735 0.0
C921 C 0.91318 0.40077 0.30479 0.0
H922 H 0.95291 0.4628 0.24273 0.0
H923 H 0.96043 0.4569 0.299 0.0
S924 S 0.83348 0.31538 0.27168 0.0
N925 N 0.85138 0.3443 0.24067 0.0
N926 N 0.85948 0.33785 0.30242 0.0
C927 C 0.88434 0.37097 0.28818 0.0
C928 C 0.88032 0.37413 0.25456 0.0
C929 C 0.10734 0.88297 0.30241 0.0
C930 C 0.07643 0.90688 0.32151 0.0
C931 C 0.1015 0.88052 0.2695 0.0
C932 C 0.06453 0.90189 0.25442 0.0
H933 H 0.13726 0.86766 0.31275 0.0
H934 H 0.12612 0.86164 0.25584 0.0
S935 S 0.97317 0.96749 0.29429 0.0
N936 N 0.00668 0.95072 0.32312 0.0
N937 N -0.00381 0.94726 0.26181 0.0
C938 C 0.03306 0.92523 0.27353 0.0
C939 C 0.03883 0.92734 0.30685 0.0
C940 C 0.38269 0.88856 0.78179 0.0
C941 C 0.41218 0.91692 0.79899 0.0
C942 C 0.38675 0.8844 0.74885 0.0
C943 C 0.42058 0.90829 0.73199 0.0
H944 H 0.35523 0.87086 0.79364 0.0
H945 H 0.36342 0.86211 0.73658 0.0
S946 S 0.50705 0.98596 0.76643 0.0
N947 N 0.47714 0.96798 0.79687 0.0
N948 N 0.48432 0.96098 0.73549 0.0
C949 C 0.45063 0.93613 0.74918 0.0
C950 C 0.44661 0.94015 0.78248 0.0
C951 C 0.61675 0.39316 0.75948 0.0
C952 C 0.60251 0.43353 0.7446 0.0
C953 C 0.61514 0.38842 0.79252 0.0
C954 C 0.59945 0.42396 0.81182 0.0
H955 H 0.62737 0.36434 0.74551 0.0
H956 H 0.62315 0.35571 0.80279 0.0
S957 S 0.56518 0.53886 0.7855 0.0
N958 N 0.57759 0.51168 0.75269 0.0
N959 N 0.57409 0.50207 0.81414 0.0
C960 C 0.58823 0.46533 0.79746 0.0
C961 C 0.58983 0.47029 0.76407 0.0
C962 C 0.03935 0.55724 0.75925 0.0
C963 C 0.06646 0.58629 0.74066 0.0
C964 C 0.04499 0.55451 0.79193 0.0
C965 C 0.07757 0.58116 0.80772 0.0
H966 H 0.01355 0.53609 0.74845 0.0
H967 H 0.02405 0.5306 0.80491 0.0
S968 S 0.15627 0.66412 0.77044 0.0
N969 N 0.12651 0.64338 0.74083 0.0
N970 N 0.13694 0.63825 0.80229 0.0
C971 C 0.1043 0.61115 0.78963 0.0
C972 C 0.09894 0.61355 0.75615 0.0
C973 C 0.8806 0.11498 0.80409 0.0
C974 C 0.90208 0.08221 0.82315 0.0
C975 C 0.87915 0.11032 0.771 0.0
C976 C 0.89931 0.07282 0.75581 0.0
H977 H 0.86668 0.14538 0.81465 0.0
H978 H 0.8623 0.13631 0.75727 0.0
S979 S 0.95819 0.97673 0.79579 0.0
N980 N 0.94186 0.01023 0.82469 0.0
N981 N 0.94069 0.00179 0.76329 0.0
C982 C 0.92006 0.03948 0.775 0.0
C983 C 0.92093 0.04403 0.80838 0.0
loop_
_geom_bond_atom_site_label_1
_geom_bond_atom_site_label_2
_geom_bond_distance
_geom_bond_site_symmetry_2
_ccdc_geom_bond_type
Co0 O3 1.970 . S
Co0 N17 1.989 . S
Co0 O25 1.967 . S
Co0 O32 1.920 . S
Co1 O4 1.966 1_565 S
Co1 N10 2.022 . S
Co1 N18 1.993 1_565 S
Co1 O26 1.941 . S
C2 O3 1.258 . S
C2 O4 1.263 . S
O3 Co0 1.970 . S
O3 C2 1.258 . S
O4 Co1 1.966 1_545 S
O4 C2 1.263 . S
C5 O6 1.235 . S
C5 O32 1.289 . S
O6 C5 1.235 . S
C7 C9 1.400 . S
C7 N10 1.351 . S
C7 C12 1.501 . S
C8 C9 1.387 . S
C8 N11 1.341 . S
C9 C7 1.400 . S
C9 C8 1.387 . S
N10 Co1 2.022 . S
N10 C7 1.351 . S
N10 N11 1.365 . S
N11 C8 1.341 . S
N11 N10 1.365 . S
N11 H31 0.862 . S
C12 C7 1.501 . S
C12 H13 0.961 . S
C12 H14 0.961 . S
C12 H15 0.960 . S
H13 C12 0.961 . S
H14 C12 0.961 . S
H15 C12 0.960 . S
C16 N17 1.342 . S
C16 C20 1.401 . S
C16 C21 1.499 . S
N17 Co0 1.989 . S
N17 C16 1.342 . S
N17 N18 1.388 . S
N18 Co1 1.993 1_545 S
N18 N17 1.388 . S
N18 C19 1.346 . S
C19 N18 1.346 . S
C19 C20 1.396 . S
C19 C29 1.510 1_545 S
C20 C16 1.401 . S
C20 C19 1.396 . S
C21 C16 1.499 . S
C21 H22 0.959 . S
C21 H23 0.960 . S
C21 H24 0.961 . S
H22 C21 0.959 . S
H23 C21 0.960 . S
H24 C21 0.961 . S
O25 Co0 1.967 . S
O25 C33 1.258 . S
O26 Co1 1.941 . S
O26 C33 1.266 1_565 S
H27 C29 0.959 . S
H28 C29 0.961 . S
C29 C19 1.510 1_565 S
C29 H27 0.959 . S
C29 H28 0.961 . S
C29 H30 0.960 . S
H30 C29 0.960 . S
H31 N11 0.862 . S
O32 Co0 1.920 . S
O32 C5 1.289 . S
C33 O25 1.258 . S
C33 O26 1.266 1_545 S
Co34 O37 1.970 . S
Co34 N51 1.989 . S
Co34 O59 1.967 . S
Co34 O66 1.920 . S
Co35 O38 1.966 . S
Co35 N44 2.022 . S
Co35 N52 1.993 . S
Co35 O60 1.941 . S
C36 O37 1.258 . S
C36 O38 1.263 . S
O37 Co34 1.970 . S
O37 C36 1.258 . S
O38 Co35 1.966 . S
O38 C36 1.263 . S
C39 O40 1.235 . S
C39 O66 1.289 . S
O40 C39 1.235 . S
C41 C43 1.400 . S
C41 N44 1.351 . S
C41 C46 1.501 . S
C42 C43 1.387 . S
C42 N45 1.341 . S
C43 C41 1.400 . S
C43 C42 1.387 . S
N44 Co35 2.022 . S
N44 C41 1.351 . S
N44 N45 1.365 . S
N45 C42 1.341 . S
N45 N44 1.365 . S
N45 H65 0.862 . S
C46 C41 1.501 . S
C46 H47 0.961 . S
C46 H48 0.961 . S
C46 H49 0.960 . S
H47 C46 0.961 . S
H48 C46 0.961 . S
H49 C46 0.960 . S
C50 N51 1.342 . S
C50 C54 1.401 . S
C50 C55 1.499 . S
N51 Co34 1.989 . S
N51 C50 1.342 . S
N51 N52 1.388 . S
N52 Co35 1.993 . S
N52 N51 1.388 . S
N52 C53 1.346 . S
C53 N52 1.346 . S
C53 C54 1.396 . S
C53 C63 1.510 . S
C54 C50 1.401 . S
C54 C53 1.396 . S
C55 C50 1.499 . S
C55 H56 0.959 . S
C55 H57 0.960 . S
C55 H58 0.961 . S
H56 C55 0.959 . S
H57 C55 0.960 . S
H58 C55 0.961 . S
O59 Co34 1.967 . S
O59 C67 1.258 . S
O60 Co35 1.941 . S
O60 C67 1.266 . S
H61 C63 0.959 . S
H62 C63 0.961 . S
C63 C53 1.510 . S
C63 H61 0.959 . S
C63 H62 0.961 . S
C63 H64 0.960 . S
H64 C63 0.960 . S
H65 N45 0.862 . S
O66 Co34 1.920 . S
O66 C39 1.289 . S
C67 O59 1.258 . S
C67 O60 1.266 . S
Co68 O71 1.970 . S
Co68 N85 1.989 . S
Co68 O93 1.967 . S
Co68 O100 1.920 . S
Co69 O72 1.966 . S
Co69 N78 2.022 . S
Co69 N86 1.993 . S
Co69 O94 1.941 . S
C70 O71 1.258 . S
C70 O72 1.263 . S
O71 Co68 1.970 . S
O71 C70 1.258 . S
O72 Co69 1.966 . S
O72 C70 1.263 . S
C73 O74 1.235 . S
C73 O100 1.289 . S
O74 C73 1.235 . S
C75 C77 1.400 . S
C75 N78 1.351 . S
C75 C80 1.501 . S
C76 C77 1.387 . S
C76 N79 1.341 . S
C77 C75 1.400 . S
C77 C76 1.387 . S
N78 Co69 2.022 . S
N78 C75 1.351 . S
N78 N79 1.365 . S
N79 C76 1.341 . S
N79 N78 1.365 . S
N79 H99 0.862 . S
C80 C75 1.501 . S
C80 H81 0.961 . S
C80 H82 0.961 1_655 S
C80 H83 0.960 . S
H81 C80 0.961 . S
H82 C80 0.961 1_455 S
H83 C80 0.960 . S
C84 N85 1.342 . S
C84 C88 1.401 . S
C84 C89 1.499 . S
N85 Co68 1.989 . S
N85 C84 1.342 . S
N85 N86 1.388 . S
N86 Co69 1.993 . S
N86 N85 1.388 . S
N86 C87 1.346 . S
C87 N86 1.346 . S
C87 C88 1.396 . S
C87 C97 1.510 . S
C88 C84 1.401 . S
C88 C87 1.396 . S
C89 C84 1.499 . S
C89 H90 0.959 . S
C89 H91 0.960 . S
C89 H92 0.961 . S
H90 C89 0.959 . S
H91 C89 0.960 . S
H92 C89 0.961 . S
O93 Co68 1.967 . S
O93 C101 1.258 . S
O94 Co69 1.941 . S
O94 C101 1.266 . S
H95 C97 0.959 . S
H96 C97 0.959 1_455 S
C97 C87 1.510 . S
C97 H95 0.959 . S
C97 H96 0.959 1_655 S
C97 H98 0.960 . S
H98 C97 0.960 . S
H99 N79 0.862 . S
O100 Co68 1.920 . S
O100 C73 1.289 . S
C101 O93 1.258 . S
C101 O94 1.266 . S
Co102 O105 1.970 . S
Co102 N119 1.989 . S
Co102 O127 1.967 . S
Co102 O134 1.920 . S
Co103 O106 1.966 1_655 S
Co103 N112 2.022 . S
Co103 N120 1.993 1_655 S
Co103 O128 1.941 . S
C104 O105 1.258 . S
C104 O106 1.263 . S
O105 Co102 1.970 . S
O105 C104 1.258 . S
O106 Co103 1.966 1_455 S
O106 C104 1.263 . S
C107 O108 1.235 . S
C107 O134 1.289 . S
O108 C107 1.235 . S
C109 C111 1.400 . S
C109 N112 1.351 . S
C109 C114 1.501 . S
C110 C111 1.387 . S
C110 N113 1.341 . S
C111 C109 1.400 . S
C111 C110 1.387 . S
N112 Co103 2.022 . S
N112 C109 1.351 . S
N112 N113 1.365 . S
N113 C110 1.341 . S
N113 N112 1.365 . S
N113 H133 0.862 . S
C114 C109 1.501 . S
C114 H115 0.961 . S
C114 H116 0.961 1_565 S
C114 H117 0.960 . S
H115 C114 0.961 . S
H116 C114 0.961 1_545 S
H117 C114 0.960 . S
C118 N119 1.342 . S
C118 C122 1.401 . S
C118 C123 1.499 . S
N119 Co102 1.989 . S
N119 C118 1.342 . S
N119 N120 1.388 . S
N120 Co103 1.993 1_455 S
N120 N119 1.388 . S
N120 C121 1.346 . S
C121 N120 1.346 . S
C121 C122 1.396 . S
C121 C131 1.510 1_455 S
C122 C118 1.401 . S
C122 C121 1.396 . S
C123 C118 1.499 . S
C123 H124 0.959 . S
C123 H125 0.960 . S
C123 H126 0.961 . S
H124 C123 0.959 . S
H125 C123 0.960 . S
H126 C123 0.961 . S
O127 Co102 1.967 . S
O127 C135 1.258 . S
O128 Co103 1.941 . S
O128 C135 1.266 1_655 S
H129 C131 0.959 . S
H130 C131 0.959 1_545 S
C131 C121 1.510 1_655 S
C131 H129 0.959 . S
C131 H130 0.959 1_565 S
C131 H132 0.960 . S
H132 C131 0.960 . S
H133 N113 0.862 . S
O134 Co102 1.920 . S
O134 C107 1.289 . S
C135 O127 1.258 . S
C135 O128 1.266 1_455 S
Co136 O139 1.970 . S
Co136 N153 1.989 . S
Co136 O161 1.967 . S
Co136 O168 1.920 . S
Co137 O140 1.966 1_545 S
Co137 N146 2.022 . S
Co137 N154 1.993 1_545 S
Co137 O162 1.941 . S
C138 O139 1.258 . S
C138 O140 1.263 . S
O139 Co136 1.970 . S
O139 C138 1.258 . S
O140 Co137 1.966 1_565 S
O140 C138 1.263 . S
C141 O142 1.235 . S
C141 O168 1.289 . S
O142 C141 1.235 . S
C143 C145 1.400 . S
C143 N146 1.351 . S
C143 C148 1.501 . S
C144 C145 1.387 . S
C144 N147 1.341 . S
C145 C143 1.400 . S
C145 C144 1.387 . S
N146 Co137 2.022 . S
N146 C143 1.351 . S
N146 N147 1.365 . S
N147 C144 1.341 . S
N147 N146 1.365 . S
N147 H167 0.862 . S
C148 C143 1.501 . S
C148 H149 0.961 . S
C148 H150 0.961 1_455 S
C148 H151 0.960 . S
H149 C148 0.961 . S
H150 C148 0.961 1_655 S
H151 C148 0.960 . S
C152 N153 1.342 . S
C152 C156 1.401 . S
C152 C157 1.499 . S
N153 Co136 1.989 . S
N153 C152 1.342 . S
N153 N154 1.388 . S
N154 Co137 1.993 1_565 S
N154 N153 1.388 . S
N154 C155 1.346 . S
C155 N154 1.346 . S
C155 C156 1.396 . S
C155 C165 1.510 1_565 S
C156 C152 1.401 . S
C156 C155 1.396 . S
C157 C152 1.499 . S
C157 H158 0.959 . S
C157 H159 0.960 . S
C157 H160 0.961 . S
H158 C157 0.959 . S
H159 C157 0.960 . S
H160 C157 0.961 . S
O161 Co136 1.967 . S
O161 C169 1.258 . S
O162 Co137 1.941 . S
O162 C169 1.266 1_545 S
H163 C165 0.959 . S
H164 C165 0.959 1_655 S
C165 C155 1.510 1_545 S
C165 H163 0.959 . S
C165 H164 0.959 1_455 S
C165 H166 0.960 . S
H166 C165 0.960 . S
H167 N147 0.862 . S
O168 Co136 1.920 . S
O168 C141 1.289 . S
C169 O161 1.258 . S
C169 O162 1.266 1_565 S
Co170 O173 1.970 . S
Co170 N187 1.989 . S
Co170 O195 1.967 . S
Co170 O202 1.920 . S
Co171 O174 1.966 . S
Co171 N180 2.022 . S
Co171 N188 1.993 . S
Co171 O196 1.941 . S
C172 O173 1.258 . S
C172 O174 1.263 . S
O173 Co170 1.970 . S
O173 C172 1.258 . S
O174 Co171 1.966 . S
O174 C172 1.263 . S
C175 O176 1.235 . S
C175 O202 1.289 . S
O176 C175 1.235 . S
C177 C179 1.400 . S
C177 N180 1.351 . S
C177 C182 1.501 . S
C178 C179 1.387 . S
C178 N181 1.341 . S
C179 C177 1.400 . S
C179 C178 1.387 . S
N180 Co171 2.022 . S
N180 C177 1.351 . S
N180 N181 1.365 . S
N181 C178 1.341 . S
N181 N180 1.365 . S
N181 H201 0.862 . S
C182 C177 1.501 . S
C182 H183 0.961 . S
C182 H184 0.961 1_545 S
C182 H185 0.960 . S
H183 C182 0.961 . S
H184 C182 0.961 1_565 S
H185 C182 0.960 . S
C186 N187 1.342 . S
C186 C190 1.401 . S
C186 C191 1.499 . S
N187 Co170 1.989 . S
N187 C186 1.342 . S
N187 N188 1.388 . S
N188 Co171 1.993 . S
N188 N187 1.388 . S
N188 C189 1.346 . S
C189 N188 1.346 . S
C189 C190 1.396 . S
C189 C199 1.510 . S
C190 C186 1.401 . S
C190 C189 1.396 . S
C191 C186 1.499 . S
C191 H192 0.959 . S
C191 H193 0.960 . S
C191 H194 0.961 . S
H192 C191 0.959 . S
H193 C191 0.960 . S
H194 C191 0.961 . S
O195 Co170 1.967 . S
O195 C203 1.258 . S
O196 Co171 1.941 . S
O196 C203 1.266 . S
H197 C199 0.959 . S
H198 C199 0.959 1_565 S
C199 C189 1.510 . S
C199 H197 0.959 . S
C199 H198 0.959 1_545 S
C199 H200 0.960 . S
H200 C199 0.960 . S
H201 N181 0.862 . S
O202 Co170 1.920 . S
O202 C175 1.289 . S
C203 O195 1.258 . S
C203 O196 1.266 . S
Co204 O207 1.970 . S
Co204 N221 1.989 . S
Co204 O229 1.967 . S
Co204 O236 1.920 . S
Co205 O208 1.966 . S
Co205 N214 2.022 . S
Co205 N222 1.993 . S
Co205 O230 1.941 . S
C206 O207 1.258 . S
C206 O208 1.263 . S
O207 Co204 1.970 . S
O207 C206 1.258 . S
O208 Co205 1.966 . S
O208 C206 1.263 . S
C209 O210 1.235 . S
C209 O236 1.289 . S
O210 C209 1.235 . S
C211 C213 1.400 . S
C211 N214 1.351 . S
C211 C216 1.501 . S
C212 C213 1.387 . S
C212 N215 1.341 . S
C213 C211 1.400 . S
C213 C212 1.387 . S
N214 Co205 2.022 . S
N214 C211 1.351 . S
N214 N215 1.365 . S
N215 C212 1.341 . S
N215 N214 1.365 . S
N215 H235 0.862 . S
C216 C211 1.501 . S
C216 H217 0.961 . S
C216 H218 0.961 . S
C216 H219 0.960 . S
H217 C216 0.961 . S
H218 C216 0.961 . S
H219 C216 0.960 . S
C220 N221 1.342 . S
C220 C224 1.401 . S
C220 C225 1.499 . S
N221 Co204 1.989 . S
N221 C220 1.342 . S
N221 N222 1.388 . S
N222 Co205 1.993 . S
N222 N221 1.388 . S
N222 C223 1.346 . S
C223 N222 1.346 . S
C223 C224 1.396 . S
C223 C233 1.510 . S
C224 C220 1.401 . S
C224 C223 1.396 . S
C225 C220 1.499 . S
C225 H226 0.959 . S
C225 H227 0.960 . S
C225 H228 0.961 . S
H226 C225 0.959 . S
H227 C225 0.960 . S
H228 C225 0.961 . S
O229 Co204 1.967 . S
O229 C237 1.258 . S
O230 Co205 1.941 . S
O230 C237 1.266 . S
H231 C233 0.959 . S
H232 C233 0.961 . S
C233 C223 1.510 . S
C233 H231 0.959 . S
C233 H232 0.961 . S
C233 H234 0.960 . S
H234 C233 0.960 . S
H235 N215 0.862 . S
O236 Co204 1.920 . S
O236 C209 1.289 . S
C237 O229 1.258 . S
C237 O230 1.266 . S
Co238 O241 1.970 . S
Co238 N255 1.989 . S
Co238 O263 1.967 . S
Co238 O270 1.920 . S
Co239 O242 1.966 1_455 S
Co239 N248 2.022 . S
Co239 N256 1.993 1_455 S
Co239 O264 1.941 . S
C240 O241 1.258 . S
C240 O242 1.263 . S
O241 Co238 1.970 . S
O241 C240 1.258 . S
O242 Co239 1.966 1_655 S
O242 C240 1.263 . S
C243 O244 1.235 . S
C243 O270 1.289 . S
O244 C243 1.235 . S
C245 C247 1.400 . S
C245 N248 1.351 . S
C245 C250 1.501 . S
C246 C247 1.387 . S
C246 N249 1.341 . S
C247 C245 1.400 . S
C247 C246 1.387 . S
N248 Co239 2.022 . S
N248 C245 1.351 . S
N248 N249 1.365 . S
N249 C246 1.341 . S
N249 N248 1.365 . S
N249 H269 0.862 . S
C250 C245 1.501 . S
C250 H251 0.961 . S
C250 H252 0.961 . S
C250 H253 0.960 . S
H251 C250 0.961 . S
H252 C250 0.961 . S
H253 C250 0.960 . S
C254 N255 1.342 . S
C254 C258 1.401 . S
C254 C259 1.499 . S
N255 Co238 1.989 . S
N255 C254 1.342 . S
N255 N256 1.388 . S
N256 Co239 1.993 1_655 S
N256 N255 1.388 . S
N256 C257 1.346 . S
C257 N256 1.346 . S
C257 C258 1.396 . S
C257 C267 1.510 1_655 S
C258 C254 1.401 . S
C258 C257 1.396 . S
C259 C254 1.499 . S
C259 H260 0.959 . S
C259 H261 0.960 . S
C259 H262 0.961 . S
H260 C259 0.959 . S
H261 C259 0.960 . S
H262 C259 0.961 . S
O263 Co238 1.967 . S
O263 C271 1.258 . S
O264 Co239 1.941 . S
O264 C271 1.266 1_455 S
H265 C267 0.959 . S
H266 C267 0.961 . S
C267 C257 1.510 1_455 S
C267 H265 0.959 . S
C267 H266 0.961 . S
C267 H268 0.960 . S
H268 C267 0.960 . S
H269 N249 0.862 . S
O270 Co238 1.920 . S
O270 C243 1.289 . S
C271 O263 1.258 . S
C271 O264 1.266 1_655 S
Co272 O275 1.970 . S
Co272 N289 1.989 . S
Co272 O297 1.967 . S
Co272 O304 1.920 . S
Co273 O276 1.966 1_545 S
Co273 N282 2.022 . S
Co273 N290 1.993 1_545 S
Co273 O298 1.941 . S
C274 O275 1.258 . S
C274 O276 1.263 . S
O275 Co272 1.970 . S
O275 C274 1.258 . S
O276 Co273 1.966 1_565 S
O276 C274 1.263 . S
C277 O278 1.235 . S
C277 O304 1.289 . S
O278 C277 1.235 . S
C279 C281 1.400 . S
C279 N282 1.351 . S
C279 C284 1.501 . S
C280 C281 1.387 . S
C280 N283 1.341 . S
C281 C279 1.400 . S
C281 C280 1.387 . S
N282 Co273 2.022 . S
N282 C279 1.351 . S
N282 N283 1.365 . S
N283 C280 1.341 . S
N283 N282 1.365 . S
N283 H303 0.862 . S
C284 C279 1.501 . S
C284 H285 0.961 . S
C284 H286 0.961 . S
C284 H287 0.960 . S
H285 C284 0.961 . S
H286 C284 0.961 . S
H287 C284 0.960 . S
C288 N289 1.342 . S
C288 C292 1.401 . S
C288 C293 1.499 . S
N289 Co272 1.989 . S
N289 C288 1.342 . S
N289 N290 1.388 . S
N290 Co273 1.993 1_565 S
N290 N289 1.388 . S
N290 C291 1.346 . S
C291 N290 1.346 . S
C291 C292 1.396 . S
C291 C301 1.510 1_565 S
C292 C288 1.401 . S
C292 C291 1.396 . S
C293 C288 1.499 . S
C293 H294 0.959 . S
C293 H295 0.960 . S
C293 H296 0.961 . S
H294 C293 0.959 . S
H295 C293 0.960 . S
H296 C293 0.961 . S
O297 Co272 1.967 . S
O297 C305 1.258 . S
O298 Co273 1.941 . S
O298 C305 1.266 1_545 S
H299 C301 0.959 . S
H300 C301 0.961 . S
C301 C291 1.510 1_545 S
C301 H299 0.959 . S
C301 H300 0.961 . S
C301 H302 0.960 . S
H302 C301 0.960 . S
H303 N283 0.862 . S
O304 Co272 1.920 . S
O304 C277 1.289 . S
C305 O297 1.258 . S
C305 O298 1.266 1_565 S
Co306 O309 1.970 . S
Co306 N323 1.989 . S
Co306 O331 1.967 . S
Co306 O338 1.920 . S
Co307 O310 1.966 . S
Co307 N316 2.022 . S
Co307 N324 1.993 . S
Co307 O332 1.941 . S
C308 O309 1.258 . S
C308 O310 1.263 . S
O309 Co306 1.970 . S
O309 C308 1.258 . S
O310 Co307 1.966 . S
O310 C308 1.263 . S
C311 O312 1.235 . S
C311 O338 1.289 . S
O312 C311 1.235 . S
C313 C315 1.400 . S
C313 N316 1.351 . S
C313 C318 1.501 . S
C314 C315 1.387 . S
C314 N317 1.341 . S
C315 C313 1.400 . S
C315 C314 1.387 . S
N316 Co307 2.022 . S
N316 C313 1.351 . S
N316 N317 1.365 . S
N317 C314 1.341 . S
N317 N316 1.365 . S
N317 H337 0.862 . S
C318 C313 1.501 . S
C318 H319 0.961 . S
C318 H320 0.961 . S
C318 H321 0.960 . S
H319 C318 0.961 . S
H320 C318 0.961 . S
H321 C318 0.960 . S
C322 N323 1.342 . S
C322 C326 1.401 . S
C322 C327 1.499 . S
N323 Co306 1.989 . S
N323 C322 1.342 . S
N323 N324 1.388 . S
N324 Co307 1.993 . S
N324 N323 1.388 . S
N324 C325 1.346 . S
C325 N324 1.346 . S
C325 C326 1.396 . S
C325 C335 1.510 . S
C326 C322 1.401 . S
C326 C325 1.396 . S
C327 C322 1.499 . S
C327 H328 0.959 . S
C327 H329 0.960 . S
C327 H330 0.961 . S
H328 C327 0.959 . S
H329 C327 0.960 . S
H330 C327 0.961 . S
O331 Co306 1.967 . S
O331 C339 1.258 . S
O332 Co307 1.941 . S
O332 C339 1.266 . S
H333 C335 0.959 . S
H334 C335 0.961 . S
C335 C325 1.510 . S
C335 H333 0.959 . S
C335 H334 0.961 . S
C335 H336 0.960 . S
H336 C335 0.960 . S
H337 N317 0.862 . S
O338 Co306 1.920 . S
O338 C311 1.289 . S
C339 O331 1.258 . S
C339 O332 1.266 . S
Co340 O343 1.970 . S
Co340 N357 1.989 . S
Co340 O365 1.967 . S
Co340 O372 1.920 . S
Co341 O344 1.966 . S
Co341 N350 2.022 . S
Co341 N358 1.993 . S
Co341 O366 1.941 . S
C342 O343 1.258 . S
C342 O344 1.263 . S
O343 Co340 1.970 . S
O343 C342 1.258 . S
O344 Co341 1.966 . S
O344 C342 1.263 . S
C345 O346 1.235 . S
C345 O372 1.289 . S
O346 C345 1.235 . S
C347 C349 1.400 . S
C347 N350 1.351 . S
C347 C352 1.501 . S
C348 C349 1.387 . S
C348 N351 1.341 . S
C349 C347 1.400 . S
C349 C348 1.387 . S
N350 Co341 2.022 . S
N350 C347 1.351 . S
N350 N351 1.365 . S
N351 C348 1.341 . S
N351 N350 1.365 . S
N351 H371 0.862 . S
C352 C347 1.501 . S
C352 H353 0.961 . S
C352 H354 0.961 1_455 S
C352 H355 0.960 . S
H353 C352 0.961 . S
H354 C352 0.961 1_655 S
H355 C352 0.960 . S
C356 N357 1.342 . S
C356 C360 1.401 . S
C356 C361 1.499 . S
N357 Co340 1.989 . S
N357 C356 1.342 . S
N357 N358 1.388 . S
N358 Co341 1.993 . S
N358 N357 1.388 . S
N358 C359 1.346 . S
C359 N358 1.346 . S
C359 C360 1.396 . S
C359 C369 1.510 . S
C360 C356 1.401 . S
C360 C359 1.396 . S
C361 C356 1.499 . S
C361 H362 0.959 . S
C361 H363 0.960 . S
C361 H364 0.961 . S
H362 C361 0.959 . S
H363 C361 0.960 . S
H364 C361 0.961 . S
O365 Co340 1.967 . S
O365 C373 1.258 . S
O366 Co341 1.941 . S
O366 C373 1.266 . S
H367 C369 0.959 . S
H368 C369 0.959 1_655 S
C369 C359 1.510 . S
C369 H367 0.959 . S
C369 H368 0.959 1_455 S
C369 H370 0.960 . S
H370 C369 0.960 . S
H371 N351 0.862 . S
O372 Co340 1.920 . S
O372 C345 1.289 . S
C373 O365 1.258 . S
C373 O366 1.266 . S
Co374 O377 1.970 . S
Co374 N391 1.989 . S
Co374 O399 1.967 . S
Co374 O406 1.920 . S
Co375 O378 1.966 1_455 S
Co375 N384 2.022 . S
Co375 N392 1.993 1_455 S
Co375 O400 1.941 . S
C376 O377 1.258 . S
C376 O378 1.263 . S
O377 Co374 1.970 . S
O377 C376 1.258 . S
O378 Co375 1.966 1_655 S
O378 C376 1.263 . S
C379 O380 1.235 . S
C379 O406 1.289 . S
O380 C379 1.235 . S
C381 C383 1.400 . S
C381 N384 1.351 . S
C381 C386 1.501 . S
C382 C383 1.387 . S
C382 N385 1.341 . S
C383 C381 1.400 . S
C383 C382 1.387 . S
N384 Co375 2.022 . S
N384 C381 1.351 . S
N384 N385 1.365 . S
N385 C382 1.341 . S
N385 N384 1.365 . S
N385 H405 0.862 . S
C386 C381 1.501 . S
C386 H387 0.961 . S
C386 H388 0.961 1_545 S
C386 H389 0.960 . S
H387 C386 0.961 . S
H388 C386 0.961 1_565 S
H389 C386 0.960 . S
C390 N391 1.342 . S
C390 C394 1.401 . S
C390 C395 1.499 . S
N391 Co374 1.989 . S
N391 C390 1.342 . S
N391 N392 1.388 . S
N392 Co375 1.993 1_655 S
N392 N391 1.388 . S
N392 C393 1.346 . S
C393 N392 1.346 . S
C393 C394 1.396 . S
C393 C403 1.510 1_655 S
C394 C390 1.401 . S
C394 C393 1.396 . S
C395 C390 1.499 . S
C395 H396 0.959 . S
C395 H397 0.960 . S
C395 H398 0.961 . S
H396 C395 0.959 . S
H397 C395 0.960 . S
H398 C395 0.961 . S
O399 Co374 1.967 . S
O399 C407 1.258 . S
O400 Co375 1.941 . S
O400 C407 1.266 1_455 S
H401 C403 0.959 . S
H402 C403 0.959 1_565 S
C403 C393 1.510 1_455 S
C403 H401 0.959 . S
C403 H402 0.959 1_545 S
C403 H404 0.960 . S
H404 C403 0.960 . S
H405 N385 0.862 . S
O406 Co374 1.920 . S
O406 C379 1.289 . S
C407 O399 1.258 . S
C407 O400 1.266 1_655 S
Co408 O411 1.970 . S
Co408 N425 1.989 . S
Co408 O433 1.967 . S
Co408 O440 1.920 . S
Co409 O412 1.966 1_565 S
Co409 N418 2.022 . S
Co409 N426 1.993 1_565 S
Co409 O434 1.941 . S
C410 O411 1.258 . S
C410 O412 1.263 . S
O411 Co408 1.970 . S
O411 C410 1.258 . S
O412 Co409 1.966 1_545 S
O412 C410 1.263 . S
C413 O414 1.235 . S
C413 O440 1.289 . S
O414 C413 1.235 . S
C415 C417 1.400 . S
C415 N418 1.351 . S
C415 C420 1.501 . S
C416 C417 1.387 . S
C416 N419 1.341 . S
C417 C415 1.400 . S
C417 C416 1.387 . S
N418 Co409 2.022 . S
N418 C415 1.351 . S
N418 N419 1.365 . S
N419 C416 1.341 . S
N419 N418 1.365 . S
N419 H439 0.862 . S
C420 C415 1.501 . S
C420 H421 0.961 . S
C420 H422 0.961 1_655 S
C420 H423 0.960 . S
H421 C420 0.961 . S
H422 C420 0.961 1_455 S
H423 C420 0.960 . S
C424 N425 1.342 . S
C424 C428 1.401 . S
C424 C429 1.499 . S
N425 Co408 1.989 . S
N425 C424 1.342 . S
N425 N426 1.388 . S
N426 Co409 1.993 1_545 S
N426 N425 1.388 . S
N426 C427 1.346 . S
C427 N426 1.346 . S
C427 C428 1.396 . S
C427 C437 1.510 1_545 S
C428 C424 1.401 . S
C428 C427 1.396 . S
C429 C424 1.499 . S
C429 H430 0.959 . S
C429 H431 0.960 . S
C429 H432 0.961 . S
H430 C429 0.959 . S
H431 C429 0.960 . S
H432 C429 0.961 . S
O433 Co408 1.967 . S
O433 C441 1.258 . S
O434 Co409 1.941 . S
O434 C441 1.266 1_565 S
H435 C437 0.959 . S
H436 C437 0.959 1_455 S
C437 C427 1.510 1_565 S
C437 H435 0.959 . S
C437 H436 0.959 1_655 S
C437 H438 0.960 . S
H438 C437 0.960 . S
H439 N419 0.862 . S
O440 Co408 1.920 . S
O440 C413 1.289 . S
C441 O433 1.258 . S
C441 O434 1.266 1_545 S
Co442 O445 1.970 . S
Co442 N459 1.989 . S
Co442 O467 1.967 . S
Co442 O474 1.920 . S
Co443 O446 1.966 . S
Co443 N452 2.022 . S
Co443 N460 1.993 . S
Co443 O468 1.941 . S
C444 O445 1.258 . S
C444 O446 1.263 . S
O445 Co442 1.970 . S
O445 C444 1.258 . S
O446 Co443 1.966 . S
O446 C444 1.263 . S
C447 O448 1.235 . S
C447 O474 1.289 . S
O448 C447 1.235 . S
C449 C451 1.400 . S
C449 N452 1.351 . S
C449 C454 1.501 . S
C450 C451 1.387 . S
C450 N453 1.341 . S
C451 C449 1.400 . S
C451 C450 1.387 . S
N452 Co443 2.022 . S
N452 C449 1.351 . S
N452 N453 1.365 . S
N453 C450 1.341 . S
N453 N452 1.365 . S
N453 H473 0.862 . S
C454 C449 1.501 . S
C454 H455 0.961 . S
C454 H456 0.961 1_565 S
C454 H457 0.960 . S
H455 C454 0.961 . S
H456 C454 0.961 1_545 S
H457 C454 0.960 . S
C458 N459 1.342 . S
C458 C462 1.401 . S
C458 C463 1.499 . S
N459 Co442 1.989 . S
N459 C458 1.342 . S
N459 N460 1.388 . S
N460 Co443 1.993 . S
N460 N459 1.388 . S
N460 C461 1.346 . S
C461 N460 1.346 . S
C461 C462 1.396 . S
C461 C471 1.510 . S
C462 C458 1.401 . S
C462 C461 1.396 . S
C463 C458 1.499 . S
C463 H464 0.959 . S
C463 H465 0.960 . S
C463 H466 0.961 . S
H464 C463 0.959 . S
H465 C463 0.960 . S
H466 C463 0.961 . S
O467 Co442 1.967 . S
O467 C475 1.258 . S
O468 Co443 1.941 . S
O468 C475 1.266 . S
H469 C471 0.959 . S
H470 C471 0.959 1_545 S
C471 C461 1.510 . S
C471 H469 0.959 . S
C471 H470 0.959 1_565 S
C471 H472 0.960 . S
H472 C471 0.960 . S
H473 N453 0.862 . S
O474 Co442 1.920 . S
O474 C447 1.289 . S
C475 O467 1.258 . S
C475 O468 1.266 . S
Co476 O479 1.970 . S
Co476 N493 1.989 . S
Co476 O501 1.967 . S
Co476 O508 1.920 . S
Co477 O480 1.966 . S
Co477 N486 2.022 . S
Co477 N494 1.993 . S
Co477 O502 1.941 . S
C478 O479 1.258 . S
C478 O480 1.263 . S
O479 Co476 1.970 . S
O479 C478 1.258 . S
O480 Co477 1.966 . S
O480 C478 1.263 . S
C481 O482 1.235 . S
C481 O508 1.289 . S
O482 C481 1.235 . S
C483 C485 1.400 . S
C483 N486 1.351 . S
C483 C488 1.501 . S
C484 C485 1.387 . S
C484 N487 1.341 . S
C485 C483 1.400 . S
C485 C484 1.387 . S
N486 Co477 2.022 . S
N486 C483 1.351 . S
N486 N487 1.365 . S
N487 C484 1.341 . S
N487 N486 1.365 . S
N487 H507 0.862 . S
C488 C483 1.501 . S
C488 H489 0.961 . S
C488 H490 0.961 . S
C488 H491 0.960 . S
H489 C488 0.961 . S
H490 C488 0.961 . S
H491 C488 0.960 . S
C492 N493 1.342 . S
C492 C496 1.401 . S
C492 C497 1.499 . S
N493 Co476 1.989 . S
N493 C492 1.342 . S
N493 N494 1.388 . S
N494 Co477 1.993 . S
N494 N493 1.388 . S
N494 C495 1.346 . S
C495 N494 1.346 . S
C495 C496 1.396 . S
C495 C505 1.510 . S
C496 C492 1.401 . S
C496 C495 1.396 . S
C497 C492 1.499 . S
C497 H498 0.959 . S
C497 H499 0.960 . S
C497 H500 0.961 . S
H498 C497 0.959 . S
H499 C497 0.960 . S
H500 C497 0.961 . S
O501 Co476 1.967 . S
O501 C509 1.258 . S
O502 Co477 1.941 . S
O502 C509 1.266 . S
H503 C505 0.959 . S
H504 C505 0.961 . S
C505 C495 1.510 . S
C505 H503 0.959 . S
C505 H504 0.961 . S
C505 H506 0.960 . S
H506 C505 0.960 . S
H507 N487 0.862 . S
O508 Co476 1.920 . S
O508 C481 1.289 . S
C509 O501 1.258 . S
C509 O502 1.266 . S
Co510 O513 1.970 . S
Co510 N527 1.989 . S
Co510 O535 1.967 . S
Co510 O542 1.920 . S
Co511 O514 1.966 1_655 S
Co511 N520 2.022 . S
Co511 N528 1.993 1_655 S
Co511 O536 1.941 . S
C512 O513 1.258 . S
C512 O514 1.263 . S
O513 Co510 1.970 . S
O513 C512 1.258 . S
O514 Co511 1.966 1_455 S
O514 C512 1.263 . S
C515 O516 1.235 . S
C515 O542 1.289 . S
O516 C515 1.235 . S
C517 C519 1.400 . S
C517 N520 1.351 . S
C517 C522 1.501 . S
C518 C519 1.387 . S
C518 N521 1.341 . S
C519 C517 1.400 . S
C519 C518 1.387 . S
N520 Co511 2.022 . S
N520 C517 1.351 . S
N520 N521 1.365 . S
N521 C518 1.341 . S
N521 N520 1.365 . S
N521 H541 0.862 . S
C522 C517 1.501 . S
C522 H523 0.961 . S
C522 H524 0.961 . S
C522 H525 0.960 . S
H523 C522 0.961 . S
H524 C522 0.961 . S
H525 C522 0.960 . S
C526 N527 1.342 . S
C526 C530 1.401 . S
C526 C531 1.499 . S
N527 Co510 1.989 . S
N527 C526 1.342 . S
N527 N528 1.388 . S
N528 Co511 1.993 1_455 S
N528 N527 1.388 . S
N528 C529 1.346 . S
C529 N528 1.346 . S
C529 C530 1.396 . S
C529 C539 1.510 1_455 S
C530 C526 1.401 . S
C530 C529 1.396 . S
C531 C526 1.499 . S
C531 H532 0.959 . S
C531 H533 0.960 . S
C531 H534 0.961 . S
H532 C531 0.959 . S
H533 C531 0.960 . S
H534 C531 0.961 . S
O535 Co510 1.967 . S
O535 C543 1.258 . S
O536 Co511 1.941 . S
O536 C543 1.266 1_655 S
H537 C539 0.959 . S
H538 C539 0.961 . S
C539 C529 1.510 1_655 S
C539 H537 0.959 . S
C539 H538 0.961 . S
C539 H540 0.960 . S
H540 C539 0.960 . S
H541 N521 0.862 . S
O542 Co510 1.920 . S
O542 C515 1.289 . S
C543 O535 1.258 . S
C543 O536 1.266 1_455 S
C544 C545 1.369 . S
C544 C546 1.419 . S
C544 H548 0.930 . S
C545 C544 1.369 . S
C545 C554 1.429 . S
C546 C544 1.419 . S
C546 C547 1.363 . S
C546 H549 0.929 . S
C547 C546 1.363 . S
C547 C553 1.428 . S
H548 C544 0.930 . S
H549 C546 0.929 . S
S550 N551 1.613 . S
S550 N552 1.610 . S
N551 S550 1.613 . S
N551 C554 1.350 . S
N552 S550 1.610 . S
N552 C553 1.351 . S
C553 C547 1.428 . S
C553 N552 1.351 . S
C553 C554 1.434 . S
C554 C545 1.429 . S
C554 N551 1.350 . S
C554 C553 1.434 . S
C555 C556 1.369 . S
C555 C557 1.419 . S
C555 H559 0.930 . S
C556 C555 1.369 . S
C556 C565 1.429 . S
C557 C555 1.419 . S
C557 C558 1.363 . S
C557 H560 0.929 . S
C558 C557 1.363 . S
C558 C564 1.428 . S
H559 C555 0.930 . S
H560 C557 0.929 . S
S561 N562 1.613 . S
S561 N563 1.610 . S
N562 S561 1.613 . S
N562 C565 1.350 . S
N563 S561 1.610 . S
N563 C564 1.351 . S
C564 C558 1.428 . S
C564 N563 1.351 . S
C564 C565 1.434 . S
C565 C556 1.429 . S
C565 N562 1.350 . S
C565 C564 1.434 . S
C566 C567 1.369 . S
C566 C568 1.419 . S
C566 H570 0.930 . S
C567 C566 1.369 . S
C567 C576 1.429 1_655 S
C568 C566 1.419 . S
C568 C569 1.363 . S
C568 H571 0.929 . S
C569 C568 1.363 . S
C569 C575 1.428 1_655 S
H570 C566 0.930 . S
H571 C568 0.929 . S
S572 N573 1.613 . S
S572 N574 1.610 . S
N573 S572 1.613 . S
N573 C576 1.350 . S
N574 S572 1.610 . S
N574 C575 1.351 . S
C575 C569 1.428 1_455 S
C575 N574 1.351 . S
C575 C576 1.434 . S
C576 C567 1.429 1_455 S
C576 N573 1.350 . S
C576 C575 1.434 . S
C577 C578 1.369 1_545 S
C577 C579 1.419 . S
C577 H581 0.930 . S
C578 C577 1.369 1_565 S
C578 C587 1.429 . S
C579 C577 1.419 . S
C579 C580 1.363 1_545 S
C579 H582 0.929 . S
C580 C579 1.363 1_565 S
C580 C586 1.428 . S
H581 C577 0.930 . S
H582 C579 0.929 . S
S583 N584 1.613 . S
S583 N585 1.610 . S
N584 S583 1.613 . S
N584 C587 1.350 . S
N585 S583 1.610 . S
N585 C586 1.351 . S
C586 C580 1.428 . S
C586 N585 1.351 . S
C586 C587 1.434 . S
C587 C578 1.429 . S
C587 N584 1.350 . S
C587 C586 1.434 . S
C588 C589 1.369 . S
C588 C590 1.419 . S
C588 H592 0.930 . S
C589 C588 1.369 . S
C589 C598 1.429 1_455 S
C590 C588 1.419 . S
C590 C591 1.363 . S
C590 H593 0.929 . S
C591 C590 1.363 . S
C591 C597 1.428 1_455 S
H592 C588 0.930 . S
H593 C590 0.929 . S
S594 N595 1.613 . S
S594 N596 1.610 . S
N595 S594 1.613 . S
N595 C598 1.350 . S
N596 S594 1.610 . S
N596 C597 1.351 . S
C597 C591 1.428 1_655 S
C597 N596 1.351 . S
C597 C598 1.434 . S
C598 C589 1.429 1_655 S
C598 N595 1.350 . S
C598 C597 1.434 . S
C599 C600 1.369 1_565 S
C599 C601 1.419 . S
C599 H603 0.930 . S
C600 C599 1.369 1_545 S
C600 C609 1.429 . S
C601 C599 1.419 . S
C601 C602 1.363 1_565 S
C601 H604 0.929 . S
C602 C601 1.363 1_545 S
C602 C608 1.428 . S
H603 C599 0.930 . S
H604 C601 0.929 . S
S605 N606 1.613 . S
S605 N607 1.610 . S
N606 S605 1.613 . S
N606 C609 1.350 . S
N607 S605 1.610 . S
N607 C608 1.351 . S
C608 C602 1.428 . S
C608 N607 1.351 . S
C608 C609 1.434 . S
C609 C600 1.429 . S
C609 N606 1.350 . S
C609 C608 1.434 . S
C610 C611 1.369 . S
C610 C612 1.419 . S
C610 H614 0.930 . S
C611 C610 1.369 . S
C611 C620 1.429 . S
C612 C610 1.419 . S
C612 C613 1.363 . S
C612 H615 0.929 . S
C613 C612 1.363 . S
C613 C619 1.428 . S
H614 C610 0.930 . S
H615 C612 0.929 . S
S616 N617 1.613 . S
S616 N618 1.610 . S
N617 S616 1.613 . S
N617 C620 1.350 . S
N618 S616 1.610 . S
N618 C619 1.351 . S
C619 C613 1.428 . S
C619 N618 1.351 . S
C619 C620 1.434 . S
C620 C611 1.429 . S
C620 N617 1.350 . S
C620 C619 1.434 . S
C621 C622 1.369 . S
C621 C623 1.419 . S
C621 H625 0.930 . S
C622 C621 1.369 . S
C622 C631 1.429 . S
C623 C621 1.419 . S
C623 C624 1.363 . S
C623 H626 0.929 . S
C624 C623 1.363 . S
C624 C630 1.428 . S
H625 C621 0.930 . S
H626 C623 0.929 . S
S627 N628 1.613 . S
S627 N629 1.610 . S
N628 S627 1.613 . S
N628 C631 1.350 . S
N629 S627 1.610 . S
N629 C630 1.351 . S
C630 C624 1.428 . S
C630 N629 1.351 . S
C630 C631 1.434 . S
C631 C622 1.429 . S
C631 N628 1.350 . S
C631 C630 1.434 . S
C632 C633 1.369 . S
C632 C634 1.419 . S
C632 H636 0.930 . S
C633 C632 1.369 . S
C633 C642 1.429 . S
C634 C632 1.419 . S
C634 C635 1.363 . S
C634 H637 0.929 . S
C635 C634 1.363 . S
C635 C641 1.428 . S
H636 C632 0.930 . S
H637 C634 0.929 . S
S638 N639 1.613 . S
S638 N640 1.610 . S
N639 S638 1.613 . S
N639 C642 1.350 . S
N640 S638 1.610 . S
N640 C641 1.351 . S
C641 C635 1.428 . S
C641 N640 1.351 . S
C641 C642 1.434 . S
C642 C633 1.429 . S
C642 N639 1.350 . S
C642 C641 1.434 . S
C643 C644 1.369 . S
C643 C645 1.419 . S
C643 H647 0.930 . S
C644 C643 1.369 . S
C644 C653 1.429 . S
C645 C643 1.419 . S
C645 C646 1.363 . S
C645 H648 0.929 . S
C646 C645 1.363 . S
C646 C652 1.428 . S
H647 C643 0.930 . S
H648 C645 0.929 . S
S649 N650 1.613 . S
S649 N651 1.610 . S
N650 S649 1.613 . S
N650 C653 1.350 . S
N651 S649 1.610 . S
N651 C652 1.351 . S
C652 C646 1.428 . S
C652 N651 1.351 . S
C652 C653 1.434 . S
C653 C644 1.429 . S
C653 N650 1.350 . S
C653 C652 1.434 . S
C654 C655 1.369 . S
C654 C656 1.419 . S
C654 H658 0.930 . S
C655 C654 1.369 . S
C655 C664 1.429 1_455 S
C656 C654 1.419 . S
C656 C657 1.382 . S
C656 H659 0.929 . S
C657 C656 1.382 . S
C657 C663 1.409 1_455 S
H658 C654 0.930 . S
H659 C656 0.929 . S
S660 N661 1.613 . S
S660 N662 1.610 . S
N661 S660 1.613 . S
N661 C664 1.350 . S
N662 S660 1.610 . S
N662 C663 1.351 . S
C663 C657 1.409 1_655 S
C663 N662 1.351 . S
C663 C664 1.434 . S
C664 C655 1.429 1_655 S
C664 N661 1.350 . S
C664 C663 1.434 . S
C665 C666 1.369 . S
C665 C667 1.419 . S
C665 H669 0.930 . S
C666 C665 1.369 . S
C666 C675 1.429 1_545 S
C667 C665 1.419 . S
C667 C668 1.363 . S
C667 H670 0.929 . S
C668 C667 1.363 . S
C668 C674 1.428 1_545 S
H669 C665 0.930 . S
H670 C667 0.929 . S
S671 N672 1.613 . S
S671 N673 1.610 . S
N672 S671 1.613 . S
N672 C675 1.350 . S
N673 S671 1.610 . S
N673 C674 1.351 . S
C674 C668 1.428 1_565 S
C674 N673 1.351 . S
C674 C675 1.434 . S
C675 C666 1.429 1_565 S
C675 N672 1.350 . S
C675 C674 1.434 . S
C676 C677 1.369 . S
C676 C678 1.419 . S
C676 H680 0.930 . S
C677 C676 1.369 . S
C677 C686 1.429 1_655 S
C678 C676 1.419 . S
C678 C679 1.376 . S
C678 H681 0.929 . S
C679 C678 1.376 . S
C679 C685 1.416 1_655 S
H680 C676 0.930 . S
H681 C678 0.929 . S
S682 N683 1.613 . S
S682 N684 1.610 . S
N683 S682 1.613 . S
N683 C686 1.350 . S
N684 S682 1.610 . S
N684 C685 1.351 . S
C685 C679 1.416 1_455 S
C685 N684 1.351 . S
C685 C686 1.434 . S
C686 C677 1.429 1_455 S
C686 N683 1.350 . S
C686 C685 1.434 . S
C687 C688 1.369 . S
C687 C689 1.419 . S
C687 H691 0.930 . S
C688 C687 1.369 . S
C688 C697 1.429 1_565 S
C689 C687 1.419 . S
C689 C690 1.377 . S
C689 H692 0.929 . S
C690 C689 1.377 . S
C690 C696 1.415 1_565 S
H691 C687 0.930 . S
H692 C689 0.929 . S
S693 N694 1.613 . S
S693 N695 1.610 . S
N694 S693 1.613 . S
N694 C697 1.350 . S
N695 S693 1.610 . S
N695 C696 1.351 . S
C696 C690 1.415 1_545 S
C696 N695 1.351 . S
C696 C697 1.434 . S
C697 C688 1.429 1_545 S
C697 N694 1.350 . S
C697 C696 1.434 . S
C698 C699 1.369 . S
C698 C700 1.419 . S
C698 H702 0.930 . S
C699 C698 1.369 . S
C699 C708 1.429 . S
C700 C698 1.419 . S
C700 C701 1.363 . S
C700 H703 0.929 . S
C701 C700 1.363 . S
C701 C707 1.428 . S
H702 C698 0.930 . S
H703 C700 0.929 . S
S704 N705 1.613 . S
S704 N706 1.610 . S
N705 S704 1.613 . S
N705 C708 1.350 . S
N706 S704 1.610 . S
N706 C707 1.351 . S
C707 C701 1.428 . S
C707 N706 1.351 . S
C707 C708 1.434 . S
C708 C699 1.429 . S
C708 N705 1.350 . S
C708 C707 1.434 . S
C709 C710 1.369 . S
C709 C711 1.419 . S
C709 H713 0.930 . S
C710 C709 1.369 . S
C710 C719 1.429 . S
C711 C709 1.419 . S
C711 C712 1.363 . S
C711 H714 0.929 . S
C712 C711 1.363 . S
C712 C718 1.428 . S
H713 C709 0.930 . S
H714 C711 0.929 . S
S715 N716 1.613 . S
S715 N717 1.610 . S
N716 S715 1.613 . S
N716 C719 1.350 . S
N717 S715 1.610 . S
N717 C718 1.351 . S
C718 C712 1.428 . S
C718 N717 1.351 . S
C718 C719 1.434 . S
C719 C710 1.429 . S
C719 N716 1.350 . S
C719 C718 1.434 . S
C720 C721 1.369 . S
C720 C722 1.419 . S
C720 H724 0.930 . S
C721 C720 1.369 . S
C721 C730 1.429 . S
C722 C720 1.419 . S
C722 C723 1.363 . S
C722 H725 0.929 . S
C723 C722 1.363 . S
C723 C729 1.428 . S
H724 C720 0.930 . S
H725 C722 0.929 . S
S726 N727 1.613 . S
S726 N728 1.610 . S
N727 S726 1.613 . S
N727 C730 1.350 . S
N728 S726 1.610 . S
N728 C729 1.351 . S
C729 C723 1.428 . S
C729 N728 1.351 . S
C729 C730 1.434 . S
C730 C721 1.429 . S
C730 N727 1.350 . S
C730 C729 1.434 . S
C731 C732 1.369 . S
C731 C733 1.419 . S
C731 H735 0.930 . S
C732 C731 1.369 . S
C732 C741 1.429 . S
C733 C731 1.419 . S
C733 C734 1.363 . S
C733 H736 0.929 . S
C734 C733 1.363 . S
C734 C740 1.428 . S
H735 C731 0.930 . S
H736 C733 0.929 . S
S737 N738 1.613 . S
S737 N739 1.610 . S
N738 S737 1.613 . S
N738 C741 1.350 . S
N739 S737 1.610 . S
N739 C740 1.351 . S
C740 C734 1.428 . S
C740 N739 1.351 . S
C740 C741 1.434 . S
C741 C732 1.429 . S
C741 N738 1.350 . S
C741 C740 1.434 . S
C742 C743 1.369 . S
C742 C744 1.419 . S
C742 H746 0.930 . S
C743 C742 1.369 . S
C743 C752 1.429 . S
C744 C742 1.419 . S
C744 C745 1.363 . S
C744 H747 0.929 . S
C745 C744 1.363 . S
C745 C751 1.428 . S
H746 C742 0.930 . S
H747 C744 0.929 . S
S748 N749 1.613 . S
S748 N750 1.610 . S
N749 S748 1.613 . S
N749 C752 1.350 . S
N750 S748 1.610 . S
N750 C751 1.351 . S
C751 C745 1.428 . S
C751 N750 1.351 . S
C751 C752 1.434 . S
C752 C743 1.429 . S
C752 N749 1.350 . S
C752 C751 1.434 . S
C753 C754 1.369 . S
C753 C755 1.419 . S
C753 H757 0.930 . S
C754 C753 1.369 . S
C754 C763 1.429 . S
C755 C753 1.419 . S
C755 C756 1.363 . S
C755 H758 0.929 . S
C756 C755 1.363 . S
C756 C762 1.428 . S
H757 C753 0.930 . S
H758 C755 0.929 . S
S759 N760 1.613 . S
S759 N761 1.610 . S
N760 S759 1.613 . S
N760 C763 1.350 . S
N761 S759 1.610 . S
N761 C762 1.351 . S
C762 C756 1.428 . S
C762 N761 1.351 . S
C762 C763 1.434 . S
C763 C754 1.429 . S
C763 N760 1.350 . S
C763 C762 1.434 . S
C764 C765 1.369 . S
C764 C766 1.419 . S
C764 H768 0.930 . S
C765 C764 1.369 . S
C765 C774 1.429 . S
C766 C764 1.419 . S
C766 C767 1.363 . S
C766 H769 0.929 . S
C767 C766 1.363 . S
C767 C773 1.428 . S
H768 C764 0.930 . S
H769 C766 0.929 . S
S770 N771 1.613 . S
S770 N772 1.610 . S
N771 S770 1.613 . S
N771 C774 1.350 . S
N772 S770 1.610 . S
N772 C773 1.351 . S
C773 C767 1.428 . S
C773 N772 1.351 . S
C773 C774 1.434 . S
C774 C765 1.429 . S
C774 N771 1.350 . S
C774 C773 1.434 . S
C775 C776 1.369 . S
C775 C777 1.419 . S
C775 H779 0.930 . S
C776 C775 1.369 . S
C776 C785 1.429 . S
C777 C775 1.419 . S
C777 C778 1.363 . S
C777 H780 0.929 . S
C778 C777 1.363 . S
C778 C784 1.428 . S
H779 C775 0.930 . S
H780 C777 0.929 . S
S781 N782 1.613 . S
S781 N783 1.610 . S
N782 S781 1.613 . S
N782 C785 1.350 . S
N783 S781 1.610 . S
N783 C784 1.351 . S
C784 C778 1.428 . S
C784 N783 1.351 . S
C784 C785 1.434 . S
C785 C776 1.429 . S
C785 N782 1.350 . S
C785 C784 1.434 . S
C786 C787 1.369 . S
C786 C788 1.419 . S
C786 H790 0.930 . S
C787 C786 1.369 . S
C787 C796 1.429 . S
C788 C786 1.419 . S
C788 C789 1.363 . S
C788 H791 0.929 . S
C789 C788 1.363 . S
C789 C795 1.428 . S
H790 C786 0.930 . S
H791 C788 0.929 . S
S792 N793 1.613 . S
S792 N794 1.610 . S
N793 S792 1.613 . S
N793 C796 1.350 . S
N794 S792 1.610 . S
N794 C795 1.351 . S
C795 C789 1.428 . S
C795 N794 1.351 . S
C795 C796 1.434 . S
C796 C787 1.429 . S
C796 N793 1.350 . S
C796 C795 1.434 . S
C797 C798 1.369 . S
C797 C799 1.419 . S
C797 H801 0.930 . S
C798 C797 1.369 . S
C798 C807 1.429 . S
C799 C797 1.419 . S
C799 C800 1.363 . S
C799 H802 0.929 . S
C800 C799 1.363 . S
C800 C806 1.428 . S
H801 C797 0.930 . S
H802 C799 0.929 . S
S803 N804 1.613 . S
S803 N805 1.610 . S
N804 S803 1.613 . S
N804 C807 1.350 . S
N805 S803 1.610 . S
N805 C806 1.351 . S
C806 C800 1.428 . S
C806 N805 1.351 . S
C806 C807 1.434 . S
C807 C798 1.429 . S
C807 N804 1.350 . S
C807 C806 1.434 . S
C808 C809 1.369 1_565 S
C808 C810 1.419 1_554 S
C808 H812 0.930 . S
C809 C808 1.369 1_545 S
C809 C818 1.429 . S
C810 C808 1.419 1_556 S
C810 C811 1.363 . S
C810 H813 0.929 . S
C811 C810 1.363 . S
C811 C817 1.428 1_565 S
H812 C808 0.930 . S
H813 C810 0.929 . S
S814 N815 1.613 1_556 S
S814 N816 1.610 . S
N815 S814 1.613 1_554 S
N815 C818 1.350 . S
N816 S814 1.610 . S
N816 C817 1.351 . S
C817 C811 1.428 1_545 S
C817 N816 1.351 . S
C817 C818 1.434 1_556 S
C818 C809 1.429 . S
C818 N815 1.350 . S
C818 C817 1.434 1_554 S
C819 C820 1.362 1_556 S
C819 C821 1.425 . S
C819 H823 0.931 . S
C820 C819 1.362 1_554 S
C820 C829 1.429 . S
C821 C819 1.425 . S
C821 C822 1.363 . S
C821 H824 0.929 . S
C822 C821 1.363 . S
C822 C828 1.428 1_556 S
H823 C819 0.931 . S
H824 C821 0.929 . S
S825 N826 1.613 . S
S825 N827 1.610 . S
N826 S825 1.613 . S
N826 C829 1.350 . S
N827 S825 1.610 . S
N827 C828 1.351 . S
C828 C822 1.428 1_554 S
C828 N827 1.351 . S
C828 C829 1.434 . S
C829 C820 1.429 . S
C829 N826 1.350 . S
C829 C828 1.434 . S
C830 C831 1.369 1_455 S
C830 C832 1.419 . S
C830 H834 0.930 . S
C831 C830 1.369 1_655 S
C831 C840 1.429 1_554 S
C832 C830 1.419 . S
C832 C833 1.363 1_554 S
C832 H835 0.929 . S
C833 C832 1.363 1_556 S
C833 C839 1.428 1_455 S
H834 C830 0.930 . S
H835 C832 0.929 . S
S836 N837 1.613 . S
S836 N838 1.610 . S
N837 S836 1.613 . S
N837 C840 1.350 . S
N838 S836 1.610 . S
N838 C839 1.351 . S
C839 C833 1.428 1_655 S
C839 N838 1.351 . S
C839 C840 1.434 . S
C840 C831 1.429 1_556 S
C840 N837 1.350 . S
C840 C839 1.434 . S
C841 C842 1.369 1_554 S
C841 C843 1.419 1_545 S
C841 H845 0.930 . S
C842 C841 1.369 1_556 S
C842 C851 1.429 1_655 S
C843 C841 1.419 1_565 S
C843 C844 1.363 1_655 S
C843 H846 0.929 . S
C844 C843 1.363 1_455 S
C844 C850 1.428 1_554 S
H845 C841 0.930 . S
H846 C843 0.929 . S
S847 N848 1.613 . S
S847 N849 1.610 1_545 S
N848 S847 1.613 . S
N848 C851 1.350 . S
N849 S847 1.610 1_565 S
N849 C850 1.351 . S
C850 C844 1.428 1_556 S
C850 N849 1.351 . S
C850 C851 1.434 1_565 S
C851 C842 1.429 1_455 S
C851 N848 1.350 . S
C851 C850 1.434 1_545 S
C852 C853 1.369 . S
C852 C854 1.419 . S
C852 H856 0.930 . S
C853 C852 1.369 . S
C853 C862 1.429 1_645 S
C854 C852 1.419 . S
C854 C855 1.363 1_645 S
C854 H857 0.929 . S
C855 C854 1.363 1_465 S
C855 C861 1.428 . S
H856 C852 0.930 . S
H857 C854 0.929 . S
S858 N859 1.613 . S
S858 N860 1.610 . S
N859 S858 1.613 . S
N859 C862 1.350 . S
N860 S858 1.610 . S
N860 C861 1.351 . S
C861 C855 1.428 . S
C861 N860 1.351 . S
C861 C862 1.434 . S
C862 C853 1.429 1_465 S
C862 N859 1.350 . S
C862 C861 1.434 . S
C863 C864 1.369 . S
C863 C865 1.419 1_545 S
C863 H867 0.930 . S
C864 C863 1.369 . S
C864 C873 1.429 . S
C865 C863 1.419 1_565 S
C865 C866 1.363 . S
C865 H868 0.929 . S
C866 C865 1.363 . S
C866 C872 1.428 . S
H867 C863 0.930 . S
H868 C865 0.929 . S
S869 N870 1.611 1_565 S
S869 N871 1.612 . S
N870 S869 1.611 1_545 S
N870 C873 1.350 . S
N871 S869 1.612 . S
N871 C872 1.351 . S
C872 C866 1.428 . S
C872 N871 1.351 . S
C872 C873 1.434 1_565 S
C873 C864 1.429 . S
C873 N870 1.350 . S
C873 C872 1.434 1_545 S
C874 C875 1.369 . S
C874 C876 1.419 . S
C874 H878 0.930 . S
C875 C874 1.369 . S
C875 C884 1.429 . S
C876 C874 1.419 . S
C876 C877 1.363 . S
C876 H879 0.929 . S
C877 C876 1.363 . S
C877 C883 1.428 . S
H878 C874 0.930 . S
H879 C876 0.929 . S
S880 N881 1.613 . S
S880 N882 1.610 . S
N881 S880 1.613 . S
N881 C884 1.350 . S
N882 S880 1.610 . S
N882 C883 1.351 . S
C883 C877 1.428 . S
C883 N882 1.351 . S
C883 C884 1.434 . S
C884 C875 1.429 . S
C884 N881 1.350 . S
C884 C883 1.434 . S
C885 C886 1.369 1_655 S
C885 C887 1.419 . S
C885 H889 0.930 . S
C886 C885 1.369 1_455 S
C886 C895 1.429 . S
C887 C885 1.419 . S
C887 C888 1.363 . S
C887 H890 0.929 . S
C888 C887 1.363 . S
C888 C894 1.428 1_655 S
H889 C885 0.930 . S
H890 C887 0.929 . S
S891 N892 1.613 . S
S891 N893 1.610 . S
N892 S891 1.613 . S
N892 C895 1.350 . S
N893 S891 1.610 . S
N893 C894 1.351 . S
C894 C888 1.428 1_455 S
C894 N893 1.351 . S
C894 C895 1.434 . S
C895 C886 1.429 . S
C895 N892 1.350 . S
C895 C894 1.434 . S
C896 C897 1.369 . S
C896 C898 1.419 . S
C896 H900 0.930 . S
C897 C896 1.369 . S
C897 C906 1.429 . S
C898 C896 1.419 . S
C898 C899 1.363 . S
C898 H901 0.929 1_545 S
C899 C898 1.363 . S
C899 C905 1.428 . S
H900 C896 0.930 . S
H901 C898 0.929 1_565 S
S902 N903 1.613 . S
S902 N904 1.610 . S
N903 S902 1.613 . S
N903 C906 1.350 . S
N904 S902 1.610 . S
N904 C905 1.351 . S
C905 C899 1.428 . S
C905 N904 1.351 . S
C905 C906 1.434 . S
C906 C897 1.429 . S
C906 N903 1.350 . S
C906 C905 1.434 . S
C907 C908 1.369 . S
C907 C909 1.419 . S
C907 H911 0.930 . S
C908 C907 1.369 . S
C908 C917 1.429 . S
C909 C907 1.419 . S
C909 C910 1.363 . S
C909 H912 0.929 . S
C910 C909 1.363 . S
C910 C916 1.428 . S
H911 C907 0.930 . S
H912 C909 0.929 . S
S913 N914 1.613 . S
S913 N915 1.610 . S
N914 S913 1.613 . S
N914 C917 1.350 . S
N915 S913 1.610 . S
N915 C916 1.351 . S
C916 C910 1.428 . S
C916 N915 1.351 . S
C916 C917 1.434 . S
C917 C908 1.429 . S
C917 N914 1.350 . S
C917 C916 1.434 . S
C918 C919 1.369 . S
C918 C920 1.419 . S
C918 H922 0.930 . S
C919 C918 1.369 . S
C919 C928 1.429 . S
C920 C918 1.419 . S
C920 C921 1.363 . S
C920 H923 0.929 . S
C921 C920 1.363 . S
C921 C927 1.428 . S
H922 C918 0.930 . S
H923 C920 0.929 . S
S924 N925 1.613 . S
S924 N926 1.610 . S
N925 S924 1.613 . S
N925 C928 1.350 . S
N926 S924 1.610 . S
N926 C927 1.351 . S
C927 C921 1.428 . S
C927 N926 1.351 . S
C927 C928 1.434 . S
C928 C919 1.429 . S
C928 N925 1.350 . S
C928 C927 1.434 . S
C929 C930 1.369 . S
C929 C931 1.419 . S
C929 H933 0.930 . S
C930 C929 1.369 . S
C930 C939 1.429 . S
C931 C929 1.419 . S
C931 C932 1.363 . S
C931 H934 0.929 . S
C932 C931 1.363 . S
C932 C938 1.428 . S
H933 C929 0.930 . S
H934 C931 0.929 . S
S935 N936 1.613 1_655 S
S935 N937 1.610 . S
N936 S935 1.613 1_455 S
N936 C939 1.350 . S
N937 S935 1.610 . S
N937 C938 1.351 1_655 S
C938 C932 1.428 . S
C938 N937 1.351 1_455 S
C938 C939 1.434 . S
C939 C930 1.429 . S
C939 N936 1.350 . S
C939 C938 1.434 . S
C940 C941 1.369 . S
C940 C942 1.419 . S
C940 H944 0.930 . S
C941 C940 1.369 . S
C941 C950 1.429 . S
C942 C940 1.419 . S
C942 C943 1.363 . S
C942 H945 0.929 . S
C943 C942 1.363 . S
C943 C949 1.428 . S
H944 C940 0.930 . S
H945 C942 0.929 . S
S946 N947 1.613 . S
S946 N948 1.610 1_545 S
N947 S946 1.613 . S
N947 C950 1.350 1_545 S
N948 S946 1.610 1_565 S
N948 C949 1.351 . S
C949 C943 1.428 . S
C949 N948 1.351 . S
C949 C950 1.434 . S
C950 C941 1.429 . S
C950 N947 1.350 1_565 S
C950 C949 1.434 . S
C951 C952 1.369 . S
C951 C953 1.419 . S
C951 H955 0.930 . S
C952 C951 1.369 . S
C952 C961 1.429 . S
C953 C951 1.419 . S
C953 C954 1.363 . S
C953 H956 0.929 . S
C954 C953 1.363 . S
C954 C960 1.428 . S
H955 C951 0.930 . S
H956 C953 0.929 . S
S957 N958 1.613 . S
S957 N959 1.610 . S
N958 S957 1.613 . S
N958 C961 1.350 . S
N959 S957 1.610 . S
N959 C960 1.351 . S
C960 C954 1.428 . S
C960 N959 1.351 . S
C960 C961 1.434 . S
C961 C952 1.429 . S
C961 N958 1.350 . S
C961 C960 1.434 . S
C962 C963 1.369 . S
C962 C964 1.419 . S
C962 H966 0.930 . S
C963 C962 1.369 . S
C963 C972 1.429 . S
C964 C962 1.419 . S
C964 C965 1.363 . S
C964 H967 0.929 . S
C965 C964 1.363 . S
C965 C971 1.428 . S
H966 C962 0.930 . S
H967 C964 0.929 . S
S968 N969 1.613 . S
S968 N970 1.610 . S
N969 S968 1.613 . S
N969 C972 1.350 . S
N970 S968 1.610 . S
N970 C971 1.351 . S
C971 C965 1.428 . S
C971 N970 1.351 . S
C971 C972 1.434 . S
C972 C963 1.429 . S
C972 N969 1.350 . S
C972 C971 1.434 . S
C973 C974 1.369 . S
C973 C975 1.419 . S
C973 H977 0.930 . S
C974 C973 1.369 . S
C974 C983 1.429 . S
C975 C973 1.419 . S
C975 C976 1.363 . S
C975 H978 0.929 . S
C976 C975 1.363 . S
C976 C982 1.428 . S
H977 C973 0.930 . S
H978 C975 0.929 . S
S979 N980 1.613 1_565 S
S979 N981 1.610 1_565 S
N980 S979 1.613 1_545 S
N980 C983 1.350 . S
N981 S979 1.610 1_545 S
N981 C982 1.351 . S
C982 C976 1.428 . S
C982 N981 1.351 . S
C982 C983 1.434 . S
C983 C974 1.429 . S
C983 N980 1.350 . S
C983 C982 1.434 . S
C545 C9 0.930 . S
C547 C67 1.082 . S
C556 C101 1.077 . S
C558 C43 0.951 . S
C567 C135 1.080 1_655 S
C569 C77 0.941 . S
C578 C111 0.930 . S
C580 C33 1.082 1_565 S
C589 C271 1.080 1_455 S
C591 C145 0.941 . S
C600 C169 1.080 1_545 S
C602 C179 0.943 . S
C611 C203 1.083 . S
C613 C213 0.932 . S
C622 C247 0.942 . S
C624 C237 1.079 . S
C633 C281 0.929 . S
C635 C339 1.082 . S
C644 C315 0.930 . S
C646 C373 1.082 . S
C655 C407 1.077 1_455 S
C657 C349 0.967 . S
C666 C305 1.078 1_545 S
C668 C383 0.943 . S
C677 C543 1.077 1_655 S
C679 C417 0.964 . S
C688 C441 1.077 1_565 S
C690 C451 0.964 . S
C699 C485 0.937 . S
C701 C475 1.081 . S
C710 C519 0.931 . S
C712 C509 1.082 . S
C721 C5 2.240 . S
C723 C73 2.246 . S
C732 C39 2.241 . S
C734 C107 2.246 . S
C743 C209 2.241 . S
C745 C141 2.246 . S
C754 C243 2.246 . S
C756 C175 2.243 . S
C765 C345 2.247 . S
C767 C277 2.242 . S
C776 C311 2.240 . S
C778 C379 2.246 . S
C787 C413 2.247 . S
C789 C481 2.242 . S
C798 C447 2.245 . S
C800 C515 2.244 . S
C809 C20 1.836 . S
C811 C292 1.833 . S
C820 C54 1.832 . S
C822 C326 1.836 . S
C831 C88 1.837 . S
C833 C360 1.832 . S
C842 C394 1.830 . S
C844 C122 1.837 . S
C853 C428 1.831 . S
C855 C156 1.837 . S
C864 C190 1.837 . S
C866 C462 1.832 . S
C875 C224 1.832 . S
C877 C496 1.836 . S
C886 C530 1.837 . S
C888 C258 1.832 . S
C897 C172 1.631 . S
C899 C2 1.629 . S
C908 C206 1.629 . S
C910 C36 1.629 . S
C919 C70 1.631 . S
C921 C240 1.629 . S
C930 C138 1.628 . S
C932 C104 1.631 . S
C941 C274 1.631 . S
C943 C444 1.629 . S
C952 C478 1.631 . S
C954 C308 1.629 . S
C963 C512 1.629 . S
C965 C342 1.630 . S
C974 C376 1.629 . S
C976 C410 1.631 . S
