# Generated by pormake.
# Topology wmi, (6)-cn, num edge types: 1
# Building blocks:
#     Node 0, Type 0, BuildingBlock: PAMTUU_clean_sbu_0, # of connection points: 6
#     Node 1, Type 0, BuildingBlock: PAMTUU_clean_sbu_0, # of connection points: 6
#     Node 2, Type 0, BuildingBlock: PAMTUU_clean_sbu_0, # of connection points: 6
#     Node 3, Type 0, BuildingBlock: PAMTUU_clean_sbu_0, # of connection points: 6
#     Node 4, Type 0, BuildingBlock: PAMTUU_clean_sbu_0, # of connection points: 6
#     Node 5, Type 0, BuildingBlock: PAMTUU_clean_sbu_0, # of connection points: 6
#     Node 6, Type 0, BuildingBlock: PAMTUU_clean_sbu_0, # of connection points: 6
#     Node 7, Type 0, BuildingBlock: PAMTUU_clean_sbu_0, # of connection points: 6
#     Node 8, Type 0, BuildingBlock: PAMTUU_clean_sbu_0, # of connection points: 6
#     Node 9, Type 0, BuildingBlock: PAMTUU_clean_sbu_0, # of connection points: 6
#     Node 10, Type 0, BuildingBlock: PAMTUU_clean_sbu_0, # of connection points: 6
#     Node 11, Type 0, BuildingBlock: PAMTUU_clean_sbu_0, # of connection points: 6
#     Node 12, Type 0, BuildingBlock: PAMTUU_clean_sbu_0, # of connection points: 6
#     Node 13, Type 0, BuildingBlock: PAMTUU_clean_sbu_0, # of connection points: 6
#     Node 14, Type 0, BuildingBlock: PAMTUU_clean_sbu_0, # of connection points: 6
#     Node 15, Type 0, BuildingBlock: PAMTUU_clean_sbu_0, # of connection points: 6
#     Node 16, Type 0, BuildingBlock: PAMTUU_clean_sbu_0, # of connection points: 6
#     Node 17, Type 0, BuildingBlock: PAMTUU_clean_sbu_0, # of connection points: 6
#     Edge 18, Type (0, 0), BuildingBlock: AJUNOK_clean_linker_0, # of connection points: 2
#     Edge 19, Type (0, 0), BuildingBlock: AJUNOK_clean_linker_0, # of connection points: 2
#     Edge 20, Type (0, 0), BuildingBlock: AJUNOK_clean_linker_0, # of connection points: 2
#     Edge 21, Type (0, 0), BuildingBlock: AJUNOK_clean_linker_0, # of connection points: 2
#     Edge 22, Type (0, 0), BuildingBlock: AJUNOK_clean_linker_0, # of connection points: 2
#     Edge 23, Type (0, 0), BuildingBlock: AJUNOK_clean_linker_0, # of connection points: 2
#     Edge 24, Type (0, 0), BuildingBlock: AJUNOK_clean_linker_0, # of connection points: 2
#     Edge 25, Type (0, 0), BuildingBlock: AJUNOK_clean_linker_0, # of connection points: 2
#     Edge 26, Type (0, 0), BuildingBlock: AJUNOK_clean_linker_0, # of connection points: 2
#     Edge 27, Type (0, 0), BuildingBlock: AJUNOK_clean_linker_0, # of connection points: 2
#     Edge 28, Type (0, 0), BuildingBlock: AJUNOK_clean_linker_0, # of connection points: 2
#     Edge 29, Type (0, 0), BuildingBlock: AJUNOK_clean_linker_0, # of connection points: 2
#     Edge 30, Type (0, 0), BuildingBlock: AJUNOK_clean_linker_0, # of connection points: 2
#     Edge 31, Type (0, 0), BuildingBlock: AJUNOK_clean_linker_0, # of connection points: 2
#     Edge 32, Type (0, 0), BuildingBlock: AJUNOK_clean_linker_0, # of connection points: 2
#     Edge 33, Type (0, 0), BuildingBlock: AJUNOK_clean_linker_0, # of connection points: 2
#     Edge 34, Type (0, 0), BuildingBlock: AJUNOK_clean_linker_0, # of connection points: 2
#     Edge 35, Type (0, 0), BuildingBlock: AJUNOK_clean_linker_0, # of connection points: 2
#     Edge 36, Type (0, 0), BuildingBlock: AJUNOK_clean_linker_0, # of connection points: 2
#     Edge 37, Type (0, 0), BuildingBlock: AJUNOK_clean_linker_0, # of connection points: 2
#     Edge 38, Type (0, 0), BuildingBlock: AJUNOK_clean_linker_0, # of connection points: 2
#     Edge 39, Type (0, 0), BuildingBlock: AJUNOK_clean_linker_0, # of connection points: 2
#     Edge 40, Type (0, 0), BuildingBlock: AJUNOK_clean_linker_0, # of connection points: 2
#     Edge 41, Type (0, 0), BuildingBlock: AJUNOK_clean_linker_0, # of connection points: 2
#     Edge 42, Type (0, 0), BuildingBlock: AJUNOK_clean_linker_0, # of connection points: 2
#     Edge 43, Type (0, 0), BuildingBlock: AJUNOK_clean_linker_0, # of connection points: 2
#     Edge 44, Type (0, 0), BuildingBlock: AJUNOK_clean_linker_0, # of connection points: 2
#     Edge 45, Type (0, 0), BuildingBlock: AJUNOK_clean_linker_0, # of connection points: 2
#     Edge 46, Type (0, 0), BuildingBlock: AJUNOK_clean_linker_0, # of connection points: 2
#     Edge 47, Type (0, 0), BuildingBlock: AJUNOK_clean_linker_0, # of connection points: 2
#     Edge 48, Type (0, 0), BuildingBlock: AJUNOK_clean_linker_0, # of connection points: 2
#     Edge 49, Type (0, 0), BuildingBlock: AJUNOK_clean_linker_0, # of connection points: 2
#     Edge 50, Type (0, 0), BuildingBlock: AJUNOK_clean_linker_0, # of connection points: 2
#     Edge 51, Type (0, 0), BuildingBlock: AJUNOK_clean_linker_0, # of connection points: 2
#     Edge 52, Type (0, 0), BuildingBlock: AJUNOK_clean_linker_0, # of connection points: 2
#     Edge 53, Type (0, 0), BuildingBlock: AJUNOK_clean_linker_0, # of connection points: 2
#     Edge 54, Type (0, 0), BuildingBlock: AJUNOK_clean_linker_0, # of connection points: 2
#     Edge 55, Type (0, 0), BuildingBlock: AJUNOK_clean_linker_0, # of connection points: 2
#     Edge 56, Type (0, 0), BuildingBlock: AJUNOK_clean_linker_0, # of connection points: 2
#     Edge 57, Type (0, 0), BuildingBlock: AJUNOK_clean_linker_0, # of connection points: 2
#     Edge 58, Type (0, 0), BuildingBlock: AJUNOK_clean_linker_0, # of connection points: 2
#     Edge 59, Type (0, 0), BuildingBlock: AJUNOK_clean_linker_0, # of connection points: 2
#     Edge 60, Type (0, 0), BuildingBlock: AJUNOK_clean_linker_0, # of connection points: 2
#     Edge 61, Type (0, 0), BuildingBlock: AJUNOK_clean_linker_0, # of connection points: 2
#     Edge 62, Type (0, 0), BuildingBlock: AJUNOK_clean_linker_0, # of connection points: 2
#     Edge 63, Type (0, 0), BuildingBlock: AJUNOK_clean_linker_0, # of connection points: 2
#     Edge 64, Type (0, 0), BuildingBlock: AJUNOK_clean_linker_0, # of connection points: 2
#     Edge 65, Type (0, 0), BuildingBlock: AJUNOK_clean_linker_0, # of connection points: 2
#     Edge 66, Type (0, 0), BuildingBlock: AJUNOK_clean_linker_0, # of connection points: 2
#     Edge 67, Type (0, 0), BuildingBlock: AJUNOK_clean_linker_0, # of connection points: 2
#     Edge 68, Type (0, 0), BuildingBlock: AJUNOK_clean_linker_0, # of connection points: 2
#     Edge 69, Type (0, 0), BuildingBlock: AJUNOK_clean_linker_0, # of connection points: 2
#     Edge 70, Type (0, 0), BuildingBlock: AJUNOK_clean_linker_0, # of connection points: 2
#     Edge 71, Type (0, 0), BuildingBlock: AJUNOK_clean_linker_0, # of connection points: 2
# Relax obj value: 0.090
# Max RMSD: 0.227
# Mean RMSD: 0.227
data_MOF--net-wmi--node1-PAMTUU_clean_sbu_0--edge1-AJUNOK_clean_linker_0
_symmetry_space_group_name_H-M    P1
_symmetry_Int_Tables_number       1
_symmetry_cell_setting            triclinic
loop_
_symmetry_equiv_pos_as_xyz
'x, y, z'
_cell_length_a     31.633333
_cell_length_b     31.715108
_cell_length_c     57.761637
_cell_angle_alpha  90.00723
_cell_angle_beta   90.126163
_cell_angle_gamma 120.27362
loop_
_atom_site_label
_atom_site_type_symbol
_atom_site_fract_x
_atom_site_fract_y
_atom_site_fract_z
_atom_type_partial_charge
Tb0 Tb 0.46797 1.02221 0.0911 0.0
Tb1 Tb 0.57677 0.08648 0.11494 0.0
C2 C 0.55881 0.07186 0.06074 0.0
C3 C 0.3509 0.91286 0.07805 0.0
C4 C 0.28889 0.81208 0.08625 0.0
C5 C 0.26925 0.84276 0.08283 0.0
C6 C 0.30003 0.89274 0.07877 0.0
C7 C 0.37058 0.88214 0.08118 0.0
C8 C 0.3398 0.83214 0.08506 0.0
C9 C 0.38338 0.96604 0.07536 0.0
O10 O 0.50509 0.97975 0.08849 0.0
O11 O 0.55543 1.01057 0.12006 0.0
O12 O 0.51953 0.0689 0.14156 0.0
O13 O 0.4636 0.99616 0.12574 0.0
O14 O 0.64634 0.09605 0.12181 0.0
O15 O 0.62669 0.14753 0.13469 0.0
O16 O 0.5619 0.13788 0.09751 0.0
O17 O 0.47835 0.09443 0.10062 0.0
O18 O 0.51573 0.06708 0.064 0.0
O19 O 0.58666 0.07406 0.07826 0.0
C20 C 0.5347 0.9773 0.10382 0.0
O21 O 0.39177 0.99184 0.0942 0.0
O22 O 0.42339 0.9798 0.06358 0.0
C23 C 0.47874 1.02618 0.14319 0.0
C24 C 0.71063 0.17783 0.12592 0.0
C25 C 0.80621 0.25343 0.11411 0.0
C26 C 0.79483 0.23589 0.13696 0.0
C27 C 0.74766 0.19848 0.14275 0.0
C28 C 0.72149 0.1953 0.1031 0.0
C29 C 0.76879 0.23284 0.09727 0.0
C30 C 0.66163 0.13738 0.13253 0.0
C31 C 0.51982 0.13647 0.09847 0.0
H32 H 0.23005 0.82805 0.08337 0.0
H33 H 0.28415 0.91579 0.0765 0.0
H34 H 0.4098 0.89689 0.08096 0.0
H35 H 0.35585 0.80934 0.08772 0.0
H36 H 0.82218 0.25173 0.15052 0.0
H37 H 0.74005 0.18565 0.16048 0.0
H38 H 0.69347 0.17984 0.0898 0.0
H39 H 0.77621 0.2456 0.07954 0.0
Tb40 Tb 0.11185 0.49277 0.0903 0.0
Tb41 Tb 1.04509 0.53415 0.11331 0.0
C42 C 0.06167 0.53163 0.05913 0.0
C43 C 0.22196 0.48552 0.08039 0.0
C44 C 0.32238 0.52495 0.09014 0.0
C45 C 0.29069 0.4741 0.08916 0.0
C46 C 0.24089 0.45457 0.08431 0.0
C47 C 0.25356 0.53637 0.08149 0.0
C48 C 0.30339 0.55589 0.08613 0.0
C49 C 0.169 0.46464 0.07655 0.0
O50 O 0.15362 0.57278 0.08751 0.0
O51 O 0.12038 0.5911 0.11837 0.0
O52 O 0.06426 0.49569 0.14014 0.0
O53 O 0.13779 0.51828 0.1245 0.0
O54 O 1.03484 0.59344 0.12043 0.0
O55 O 0.98215 0.52105 0.13182 0.0
O56 O 0.9951 0.46684 0.09585 0.0
O57 O 1.04051 0.42982 0.10047 0.0
O58 O 0.0672 0.49395 0.06264 0.0
O59 O 0.05773 0.55637 0.07656 0.0
C60 C 0.15418 0.6047 0.10237 0.0
O61 O 0.15617 0.49053 0.06392 0.0
O62 O 0.1418 0.44734 0.09498 0.0
C63 C 0.10785 0.49944 0.14173 0.0
C64 C 0.95182 0.57458 0.12155 0.0
C65 C 0.87578 0.59315 0.10857 0.0
C66 C 0.92436 0.63165 0.11088 0.0
C67 C 0.96182 0.62249 0.1173 0.0
C68 C 0.90318 0.53607 0.11938 0.0
C69 C 0.86571 0.54526 0.11303 0.0
C70 C 0.9918 0.56599 0.12952 0.0
C71 C 0.99761 0.42708 0.09812 0.0
H72 H 0.30457 0.44948 0.09191 0.0
H73 H 0.21707 0.4153 0.08377 0.0
H74 H 0.23971 0.56108 0.07894 0.0
H75 H 0.32703 0.59517 0.08689 0.0
H76 H 0.93349 0.66894 0.10766 0.0
H77 H 0.99873 0.6531 0.11914 0.0
H78 H 0.89381 0.4988 0.12288 0.0
H79 H 0.82856 0.51479 0.1121 0.0
Tb80 Tb 0.64108 0.66568 0.08768 0.0
Tb81 Tb 0.60125 0.55747 0.11137 0.0
C82 C 0.59811 0.57383 0.05706 0.0
C83 C 0.64741 0.78289 0.07855 0.0
C84 C 0.60711 0.84294 0.08789 0.0
C85 C 0.63522 0.8502 0.06785 0.0
C86 C 0.65529 0.82047 0.06326 0.0
C87 C 0.6188 0.77514 0.09841 0.0
C88 C 0.59894 0.80492 0.10305 0.0
C89 C 0.66711 0.7505 0.07337 0.0
O90 O 0.56101 0.62707 0.08695 0.0
O91 O 0.54489 0.57573 0.11775 0.0
O92 O 0.64272 0.61566 0.13745 0.0
O93 O 0.62076 0.66817 0.12272 0.0
O94 O 0.61656 0.5095 0.13008 0.0
O95 O 0.54297 0.48772 0.11963 0.0
O96 O 0.66603 0.57417 0.09194 0.0
O97 O 0.70483 0.65719 0.09577 0.0
O98 O 0.6341 0.61896 0.05923 0.0
O99 O 0.57642 0.5453 0.07503 0.0
C100 C 0.53044 0.59636 0.10241 0.0
O101 O 0.68814 0.74149 0.09061 0.0
O102 O 0.63777 0.71086 0.06194 0.0
C103 C 0.63884 0.65504 0.13957 0.0
C104 C 0.56236 0.42492 0.12266 0.0
C105 C 0.54194 0.32941 0.11114 0.0
C106 C 0.54145 0.34278 0.13432 0.0
C107 C 0.5516 0.38996 0.13999 0.0
C108 C 0.56254 0.41183 0.09944 0.0
C109 C 0.55235 0.36451 0.09373 0.0
C110 C 0.57124 0.47388 0.12925 0.0
C111 C 0.7064 0.61661 0.093 0.0
H112 H 0.64211 0.87923 0.05586 0.0
H113 H 0.67681 0.82673 0.04773 0.0
H114 H 0.61154 0.74584 0.11029 0.0
H115 H 0.57666 0.7978 0.11838 0.0
H116 H 0.53398 0.31691 0.14816 0.0
H117 H 0.55098 0.39916 0.15801 0.0
H118 H 0.57027 0.43807 0.08575 0.0
H119 H 0.55225 0.35529 0.07567 0.0
Tb120 Tb 1.03292 0.45526 0.93324 0.0
Tb121 Tb 0.09565 0.56238 0.90827 0.0
C122 C 0.08645 0.54771 0.96289 0.0
C123 C 0.925 0.33642 0.9439 0.0
C124 C 0.82529 0.27248 0.93346 0.0
C125 C 0.8571 0.25425 0.9372 0.0
C126 C 0.90657 0.286 0.94237 0.0
C127 C 0.89329 0.35472 0.94007 0.0
C128 C 0.84382 0.32299 0.93508 0.0
C129 C 0.97769 0.37 0.94795 0.0
O130 O 0.99039 0.49229 0.93648 0.0
O131 O 1.01942 0.54118 0.90448 0.0
O132 O 0.07636 0.50324 0.88227 0.0
O133 O 1.0045 0.45118 0.89918 0.0
O134 O 0.10451 0.63127 0.90087 0.0
O135 O 0.15631 0.61185 0.88817 0.0
O136 O 0.14834 0.54882 0.92536 0.0
O137 O 0.10484 0.46553 0.92302 0.0
O138 O 0.07854 0.50329 0.96026 0.0
O139 O 0.08699 0.57433 0.9452 0.0
C140 C 0.9872 0.52143 0.92118 0.0
O141 O 1.00539 0.37984 0.92973 0.0
O142 O 0.98918 0.40923 0.95999 0.0
C143 C 1.03336 0.46234 0.8815 0.0
C144 C 0.18685 0.69551 0.89765 0.0
C145 C 0.26334 0.79016 0.91067 0.0
C146 C 0.25044 0.77809 0.88725 0.0
C147 C 0.21273 0.73135 0.88084 0.0
C148 C 0.19918 0.70738 0.92109 0.0
C149 C 0.23685 0.7542 0.92752 0.0
C150 C 0.14625 0.64677 0.89045 0.0
C151 C 0.14706 0.50695 0.92459 0.0
H152 H 0.84359 0.21538 0.93634 0.0
H153 H 0.93051 0.27122 0.94502 0.0
H154 H 0.90684 0.39362 0.94073 0.0
H155 H 0.82014 0.33798 0.93217 0.0
H156 H 0.27014 0.80459 0.87379 0.0
H157 H 0.20376 0.72318 0.86267 0.0
H158 H 0.1795 0.68052 0.93442 0.0
H159 H 0.24502 0.76233 0.94574 0.0
Tb160 Tb 0.67511 0.62367 0.92863 0.0
Tb161 Tb 0.56251 0.57376 0.90721 0.0
C162 C 0.58459 0.56416 0.95946 0.0
C163 C 0.79431 0.63612 0.94325 0.0
C164 C 0.85413 0.59429 0.93887 0.0
C165 C 0.87492 0.64528 0.93967 0.0
C166 C 0.84522 0.666 0.94178 0.0
C167 C 0.77355 0.58514 0.94378 0.0
C168 C 0.80334 0.56434 0.94174 0.0
C169 C 0.76332 0.65806 0.94024 0.0
O170 O 0.6589 0.55305 0.91385 0.0
O171 O 0.57466 0.51333 0.9111 0.0
O172 O 0.6166 0.59121 0.87917 0.0
O173 O 0.67241 0.65902 0.89743 0.0
O174 O 0.4908 0.51441 0.90574 0.0
O175 O 0.51213 0.57803 0.88463 0.0
O176 O 0.58297 0.64824 0.91521 0.0
O177 O 0.65091 0.67492 0.93912 0.0
O178 O 0.62699 0.57017 0.95327 0.0
O179 O 0.5583 0.57437 0.94521 0.0
C180 C 0.61586 0.51304 0.91125 0.0
O181 O 0.7486 0.65645 0.91899 0.0
O182 O 0.72802 0.6462 0.95516 0.0
C183 C 0.65781 0.63353 0.87853 0.0
C184 C 0.42948 0.53395 0.89776 0.0
C185 C 0.33722 0.52231 0.90965 0.0
C186 C 0.34667 0.51315 0.88696 0.0
C187 C 0.39227 0.51891 0.8811 0.0
C188 C 0.42045 0.54341 0.92043 0.0
C189 C 0.37474 0.53746 0.92634 0.0
C190 C 0.47592 0.53615 0.89154 0.0
C191 C 0.61546 0.68001 0.92974 0.0
H192 H 0.91408 0.66912 0.93782 0.0
H193 H 0.86183 0.70535 0.94112 0.0
H194 H 0.73422 0.56148 0.94463 0.0
H195 H 0.78648 0.52497 0.94118 0.0
H196 H 0.31884 0.50185 0.87365 0.0
H197 H 0.3983 0.5111 0.86355 0.0
H198 H 0.44848 0.55463 0.93365 0.0
H199 H 0.36855 0.544 0.94407 0.0
Tb200 Tb 0.50672 0.0953 0.93233 0.0
Tb201 Tb 0.54407 1.02404 0.91061 0.0
C202 C 0.544 0.04419 0.96456 0.0
C203 C 0.50861 0.21069 0.93799 0.0
C204 C 0.55644 0.31101 0.92625 0.0
C205 C 0.53695 0.29517 0.94855 0.0
C206 C 0.51321 0.24548 0.95434 0.0
C207 C 0.52896 0.22658 0.91584 0.0
C208 C 0.5525 0.27616 0.91002 0.0
C209 C 0.48523 0.15848 0.94445 0.0
O210 O 0.58678 0.13447 0.9342 0.0
O211 O 0.60327 0.09777 0.90422 0.0
O212 O 0.5056 0.0414 0.88321 0.0
O213 O 0.53003 0.11675 0.89746 0.0
O214 O 0.60101 1.00989 0.90393 0.0
O215 O 0.5271 0.95841 0.89356 0.0
O216 O 0.4775 0.97789 0.92941 0.0
O217 O 0.44124 1.02379 0.92408 0.0
O218 O 0.50901 0.0543 0.96148 0.0
O219 O 0.56736 0.03824 0.94712 0.0
C220 C 0.61776 0.13338 0.91934 0.0
O221 O 0.46269 0.12689 0.92785 0.0
O222 O 0.51204 0.14668 0.95699 0.0
C223 C 0.51144 0.08541 0.88066 0.0
C224 C 0.5772 0.92548 0.90545 0.0
C225 C 0.5907 0.84772 0.92068 0.0
C226 C 0.55162 0.83891 0.90587 0.0
C227 C 0.54497 0.87721 0.89838 0.0
C228 C 0.61634 0.93441 0.92029 0.0
C229 C 0.62302 0.89601 0.92776 0.0
C230 C 0.57148 0.96615 0.89604 0.0
C231 C 0.43791 0.98091 0.92731 0.0
H232 H 0.53921 0.32115 0.96137 0.0
H233 H 0.49842 0.23421 0.97159 0.0
H234 H 0.52676 0.2007 0.90298 0.0
H235 H 0.56771 0.28726 0.89283 0.0
H236 H 0.5268 0.80243 0.8995 0.0
H237 H 0.51502 0.86913 0.88667 0.0
H238 H 0.64228 0.97116 0.92594 0.0
H239 H 0.6536 0.90412 0.93905 0.0
Tb240 Tb 0.12372 0.34492 0.42186 0.0
Tb241 Tb 0.2334 0.40778 0.44532 0.0
C242 C 0.21464 0.39304 0.39085 0.0
C243 C 1.00509 0.23698 0.41076 0.0
C244 C 0.9429 0.13703 0.42067 0.0
C245 C 0.99361 0.15646 0.41865 0.0
C246 C 1.02446 0.20603 0.41391 0.0
C247 C 0.9544 0.21755 0.41243 0.0
C248 C 0.92351 0.16794 0.41732 0.0
C249 C 1.03794 0.28982 0.40724 0.0
O250 O 0.15917 0.30099 0.41926 0.0
O251 O 0.21049 0.33158 0.45057 0.0
O252 O 0.17615 0.39166 0.47184 0.0
O253 O 0.11961 0.31905 0.45655 0.0
O254 O 0.30311 0.4171 0.45165 0.0
O255 O 0.28361 0.46796 0.46553 0.0
O256 O 0.21964 0.45964 0.42768 0.0
O257 O 0.13629 0.41792 0.43131 0.0
O258 O 0.17072 0.38653 0.39381 0.0
O259 O 0.24303 0.39649 0.40843 0.0
C260 C 0.18843 0.29799 0.43457 0.0
O261 O 1.04801 0.31672 0.42579 0.0
O262 O 0.07704 0.3022 0.39495 0.0
C263 C 0.13441 0.34971 0.47374 0.0
C264 C 0.36801 0.49866 0.45705 0.0
C265 C 0.46463 0.57497 0.44674 0.0
C266 C 0.45136 0.557 0.46945 0.0
C267 C 0.40376 0.51928 0.47449 0.0
C268 C 0.38073 0.51656 0.43436 0.0
C269 C 0.42848 0.55438 0.42927 0.0
C270 C 0.31848 0.4578 0.46298 0.0
C271 C 0.17822 0.45942 0.4291 0.0
H272 H 1.00949 0.13349 0.42123 0.0
H273 H 0.06356 0.22027 0.413 0.0
H274 H 0.93879 0.24085 0.4102 0.0
H275 H 0.88444 0.1537 0.41845 0.0
H276 H 0.47752 0.57275 0.48349 0.0
H277 H 0.39482 0.5062 0.49214 0.0
H278 H 0.35382 0.50122 0.42058 0.0
H279 H 0.43722 0.56737 0.41162 0.0
Tb280 Tb 0.77147 0.81899 0.42695 0.0
Tb281 Tb 0.7013 0.85803 0.44861 0.0
C282 C 0.71693 0.85219 0.39472 0.0
C283 C 0.88641 0.81988 0.41922 0.0
C284 C 0.98688 0.86368 0.4305 0.0
C285 C 0.96077 0.81561 0.42184 0.0
C286 C 0.91105 0.79397 0.41623 0.0
C287 C 0.91232 0.86799 0.42778 0.0
C288 C 0.96219 0.88979 0.43328 0.0
C289 C 0.83349 0.79618 0.41427 0.0
O290 O 0.80983 0.89851 0.42346 0.0
O291 O 0.77612 0.9158 0.45433 0.0
O292 O 0.71792 0.81836 0.47564 0.0
O293 O 0.79336 0.84296 0.46184 0.0
O294 O 0.69022 0.91695 0.45526 0.0
O295 O 0.63662 0.84419 0.46567 0.0
O296 O 0.65281 0.78977 0.43141 0.0
O297 O 0.6999 0.75412 0.43565 0.0
O298 O 0.72681 0.81734 0.39851 0.0
O299 O 0.71304 0.87789 0.41167 0.0
C300 C 0.80997 0.93003 0.43834 0.0
O301 O 0.80475 0.77663 0.43207 0.0
O302 O 0.8199 0.82126 0.40153 0.0
C303 C 0.76128 0.82213 0.47816 0.0
C304 C 0.60766 0.89769 0.45471 0.0
C305 C 0.53364 0.91583 0.43816 0.0
C306 C 0.5546 0.93198 0.46024 0.0
C307 C 0.59108 0.92296 0.4684 0.0
C308 C 0.58761 0.88218 0.43247 0.0
C309 C 0.55094 0.89113 0.42428 0.0
C310 C 0.6467 0.8893 0.46378 0.0
C311 C 0.65651 0.75056 0.43336 0.0
H312 H 0.97892 0.79469 0.41943 0.0
H313 H 0.89174 0.75683 0.40975 0.0
H314 H 0.89382 0.88849 0.43046 0.0
H315 H 0.98113 0.92656 0.4402 0.0
H316 H 0.54196 0.95069 0.47147 0.0
H317 H 0.60622 0.93557 0.48554 0.0
H318 H 0.60028 0.86313 0.42148 0.0
H319 H 0.53619 0.8788 0.40708 0.0
Tb320 Tb 0.29997 0.9881 0.42854 0.0
Tb321 Tb 0.25601 0.87723 0.45012 0.0
C322 C 0.24556 0.89649 0.39759 0.0
C323 C 0.30027 0.10192 0.41765 0.0
C324 C 0.25532 0.15905 0.42177 0.0
C325 C 0.29126 0.16999 0.4048 0.0
C326 C 0.31373 0.14168 0.40282 0.0
C327 C 0.26287 0.08987 0.43392 0.0
C328 C 0.24056 0.11803 0.43591 0.0
C329 C 0.32698 0.07488 0.4174 0.0
O330 O 0.22964 0.96809 0.44509 0.0
O331 O 0.19322 0.88468 0.44398 0.0
O332 O 0.27291 0.93147 0.47815 0.0
O333 O 0.33878 0.98887 0.45912 0.0
O334 O 0.1968 0.80598 0.45367 0.0
O335 O 0.26465 0.82788 0.47146 0.0
O336 O 0.33092 0.9003 0.44128 0.0
O337 O 0.35478 0.96829 0.41789 0.0
O338 O 0.24894 0.93787 0.40349 0.0
O339 O 0.25714 0.87182 0.41217 0.0
C340 C 0.19032 0.92421 0.44556 0.0
O341 O 0.3339 0.06175 0.43778 0.0
O342 O 0.31298 0.03965 0.40226 0.0
C343 C 0.31474 0.97321 0.47829 0.0
C344 C 0.21717 0.74476 0.45942 0.0
C345 C 0.20131 0.65163 0.44636 0.0
C346 C 0.19551 0.66165 0.4695 0.0
C347 C 0.20336 0.70768 0.47593 0.0
C348 C 0.22332 0.73517 0.4363 0.0
C349 C 0.21531 0.68903 0.42982 0.0
C350 C 0.22125 0.79162 0.46632 0.0
C351 C 0.36189 0.93387 0.42696 0.0
H352 H 0.30324 0.20149 0.39368 0.0
H353 H 0.34248 0.15163 0.39017 0.0
H354 H 0.25177 0.05946 0.44562 0.0
H355 H 0.21238 0.1083 0.44884 0.0
H356 H 0.18518 0.63391 0.48269 0.0
H357 H 0.19804 0.71415 0.49382 0.0
H358 H 0.23349 0.76308 0.42319 0.0
H359 H 0.2193 0.68242 0.41179 0.0
Tb360 Tb 0.69791 0.77971 0.26356 0.0
Tb361 Tb 0.76811 0.89151 0.24492 0.0
C362 C 0.74602 0.86374 0.29812 0.0
C363 C 0.58352 0.66455 0.26879 0.0
C364 C 0.48294 0.61013 0.25758 0.0
C365 C 0.50729 0.58712 0.26696 0.0
C366 C 0.55711 0.61412 0.27258 0.0
C367 C 0.55938 0.68773 0.25943 0.0
C368 C 0.50941 0.66081 0.25401 0.0
C369 C 0.63632 0.69292 0.27404 0.0
O370 O 0.65757 0.81848 0.26801 0.0
O371 O 0.6935 0.87488 0.23914 0.0
O372 O 0.75289 0.83872 0.21633 0.0
O373 O 0.67677 0.78551 0.22906 0.0
O374 O 0.77847 0.96147 0.23898 0.0
O375 O 0.83359 0.94424 0.22906 0.0
O376 O 0.81576 0.87105 0.26213 0.0
O377 O 0.77042 0.78895 0.25509 0.0
O378 O 0.73955 0.82062 0.2931 0.0
O379 O 0.7531 0.89589 0.28185 0.0
C380 C 0.65825 0.85194 0.25428 0.0
O381 O 0.66531 0.70476 0.25618 0.0
O382 O 0.6497 0.72982 0.28804 0.0
C383 C 0.70912 0.80037 0.21269 0.0
C384 C 0.86024 1.02635 0.23982 0.0
C385 C 0.93275 0.11961 0.25589 0.0
C386 C 0.9082 0.11445 0.23481 0.0
C387 C 0.87232 0.06837 0.22692 0.0
C388 C 0.88407 1.03111 0.26103 0.0
C389 C 0.92023 0.07735 0.26893 0.0
C390 C 0.82234 0.97841 0.23077 0.0
C391 C 0.81323 0.82894 0.25882 0.0
H392 H 0.48768 0.54808 0.26996 0.0
H393 H 0.57506 0.59558 0.2797 0.0
H394 H 0.57936 0.72661 0.25608 0.0
H395 H 0.49177 0.67937 0.24655 0.0
H396 H 0.91783 0.14592 0.22401 0.0
H397 H 0.85434 0.06549 0.21052 0.0
H398 H 0.87503 0.99911 0.27133 0.0
H399 H 0.93868 0.08009 0.28516 0.0
Tb400 Tb 0.34711 0.95747 0.26872 0.0
Tb401 Tb 0.23705 0.91319 0.24576 0.0
C402 C 0.25636 0.91336 0.29997 0.0
C403 C 0.46463 0.96566 0.27891 0.0
C404 C 0.52493 0.92544 0.27043 0.0
C405 C 0.47434 0.89787 0.2662 0.0
C406 C 0.4445 0.91784 0.27035 0.0
C407 C 0.51511 0.99341 0.28305 0.0
C408 C 0.54509 0.97351 0.27877 0.0
C409 C 0.43297 0.98663 0.28283 0.0
O410 O 0.31038 0.8779 0.27057 0.0
O411 O 0.25799 0.85873 0.23976 0.0
O412 O 0.29395 0.95413 0.2191 0.0
O413 O 0.34939 0.93581 0.23382 0.0
O414 O 0.16727 0.85332 0.23853 0.0
O415 O 0.18704 0.92538 0.22684 0.0
O416 O 0.25302 0.97856 0.26442 0.0
O417 O 0.33614 1.01896 0.25986 0.0
O418 O 0.30061 0.9507 0.29722 0.0
O419 O 0.22721 0.89012 0.2823 0.0
C420 C 0.28011 0.84629 0.25527 0.0
O421 O 0.42296 1.00398 0.26448 0.0
O422 O 0.39392 0.95992 0.29516 0.0
C423 C 0.33426 0.95172 0.21682 0.0
C424 C 0.10256 0.8701 0.23454 0.0
C425 C 1.00602 0.84831 0.24547 0.0
C426 C 1.01772 0.8398 0.22311 0.0
C427 C 0.06533 0.85045 0.21776 0.0
C428 C 0.09134 0.87885 0.25691 0.0
C429 C 1.04359 0.8682 0.26229 0.0
C430 C 0.15215 0.8799 0.22828 0.0
C431 C 0.29496 1.01938 0.26278 0.0
H432 H 0.45797 0.86112 0.25935 0.0
H433 H 0.40566 0.89601 0.26674 0.0
H434 H 0.53133 1.03046 0.2895 0.0
H435 H 0.584 0.99554 0.28215 0.0
H436 H 0.99032 0.82588 0.20953 0.0
H437 H 0.07314 0.84347 0.20038 0.0
H438 H 0.11944 0.89386 0.27017 0.0
H439 H 1.03599 0.8754 0.27966 0.0
Tb440 Tb 0.16901 0.42461 0.2605 0.0
Tb441 Tb 0.21282 0.35662 0.24047 0.0
C442 C 0.22263 0.38852 0.29273 0.0
C443 C 0.16718 0.53766 0.27021 0.0
C444 C 0.2118 0.6398 0.26627 0.0
C445 C 0.17545 0.61442 0.28302 0.0
C446 C 0.1531 0.56358 0.28491 0.0
C447 C 0.20496 0.5634 0.25414 0.0
C448 C 0.22702 0.61396 0.25218 0.0
C449 C 0.14102 0.4839 0.27063 0.0
O450 O 0.23967 0.47476 0.24412 0.0
O451 O 0.27534 0.4274 0.24655 0.0
O452 O 0.19742 0.39331 0.21175 0.0
O453 O 0.13132 0.38527 0.22982 0.0
O454 O 0.2731 0.34649 0.23702 0.0
O455 O 0.20455 0.29717 0.22042 0.0
O456 O 0.13774 0.30513 0.24942 0.0
O457 O 0.11456 0.3507 0.27202 0.0
O458 O 0.21907 0.42621 0.28636 0.0
O459 O 0.21177 0.35188 0.27845 0.0
C460 C 0.27864 0.46986 0.244 0.0
O461 O 0.13491 0.46347 0.25038 0.0
O462 O 0.15501 0.46347 0.28615 0.0
C463 C 0.15654 0.3948 0.21094 0.0
C464 C 0.25521 0.26484 0.23307 0.0
C465 C 0.27135 0.18768 0.24606 0.0
C466 C 0.31061 0.23589 0.24451 0.0
C467 C 0.30264 0.2739 0.23806 0.0
C468 C 0.21585 0.21661 0.23449 0.0
C469 C 0.22387 0.17849 0.24084 0.0
C470 C 0.24853 0.30593 0.22548 0.0
C471 C 0.10703 0.30863 0.26351 0.0
H472 H 0.16319 0.63373 0.29408 0.0
H473 H 0.12411 0.54443 0.29742 0.0
H474 H 0.21662 0.5443 0.24263 0.0
H475 H 0.25548 0.63284 0.23939 0.0
H476 H 0.34758 0.2443 0.24838 0.0
H477 H 0.33381 0.31057 0.23686 0.0
H478 H 0.17893 0.20816 0.23047 0.0
H479 H 0.19291 0.14162 0.24122 0.0
Tb480 Tb 0.7987 0.68021 0.75644 0.0
Tb481 Tb 0.90833 0.74427 0.78 0.0
C482 C 0.88978 0.72798 0.7258 0.0
C483 C 0.67798 0.57333 0.74603 0.0
C484 C 0.61732 0.47235 0.7543 0.0
C485 C 0.62744 0.4905 0.73154 0.0
C486 C 0.65751 0.54054 0.72746 0.0
C487 C 0.66725 0.55523 0.7688 0.0
C488 C 0.63702 0.50528 0.77288 0.0
C489 C 0.71324 0.6254 0.74146 0.0
O490 O 0.83391 0.63601 0.75481 0.0
O491 O 0.88604 0.66845 0.78577 0.0
O492 O 0.85074 0.72745 0.80646 0.0
O493 O 0.79455 0.65457 0.79109 0.0
O494 O 0.97799 0.75385 0.78676 0.0
O495 O 0.95873 0.80572 0.79947 0.0
O496 O 0.89379 0.79536 0.76204 0.0
O497 O 0.81059 0.75268 0.76619 0.0
O498 O 0.84618 0.72225 0.72866 0.0
O499 O 0.91784 0.73109 0.74342 0.0
C500 C 0.86387 0.6341 0.77009 0.0
O501 O 0.72356 0.65559 0.75878 0.0
O502 O 0.75244 0.6341 0.73013 0.0
C503 C 0.80927 0.68517 0.8083 0.0
C504 C 1.04292 0.83573 0.79073 0.0
C505 C 0.13926 0.91078 0.77905 0.0
C506 C 0.12702 0.89423 0.80202 0.0
C507 C 0.07955 0.85713 0.80774 0.0
C508 C 0.05463 0.85224 0.76778 0.0
C509 C 0.10223 0.88946 0.76203 0.0
C510 C 0.99358 0.7954 0.79733 0.0
C511 C 0.85204 0.79441 0.76361 0.0
H512 H 0.61197 0.46599 0.7169 0.0
H513 H 0.66542 0.55358 0.70977 0.0
H514 H 0.68281 0.57951 0.7835 0.0
H515 H 0.62982 0.49226 0.79058 0.0
H516 H 0.15393 0.91059 0.81573 0.0
H517 H 0.07141 0.84512 0.82557 0.0
H518 H 1.02703 0.83625 0.75433 0.0
H519 H 0.11018 0.90136 0.74419 0.0
Tb520 Tb 0.44628 0.15309 0.75771 0.0
Tb521 Tb 0.37467 0.19083 0.77904 0.0
C522 C 0.39484 0.18977 0.72503 0.0
C523 C 0.56227 0.15584 0.75127 0.0
C524 C 0.66282 0.20199 0.76278 0.0
C525 C 0.63874 0.15538 0.75243 0.0
C526 C 0.58901 0.13261 0.74667 0.0
C527 C 0.58616 0.20255 0.76148 0.0
C528 C 0.63612 0.2256 0.76706 0.0
C529 C 0.50934 0.13087 0.74607 0.0
O530 O 0.48509 0.23246 0.75448 0.0
O531 O 0.44889 0.25104 0.78395 0.0
O532 O 0.39292 0.15323 0.80645 0.0
O533 O 0.46856 0.1793 0.79224 0.0
O534 O 0.36241 0.24853 0.7869 0.0
O535 O 0.30853 0.17449 0.79536 0.0
O536 O 0.32809 0.12366 0.76065 0.0
O537 O 0.3747 0.08808 0.76613 0.0
O538 O 0.40621 0.15574 0.72823 0.0
O539 O 0.38626 0.21172 0.74228 0.0
C540 C 0.48405 0.26437 0.76866 0.0
O541 O 0.48037 0.11181 0.76383 0.0
O542 O 0.49527 0.15471 0.73275 0.0
C543 C 0.43748 0.16026 0.80907 0.0
C544 C 0.27983 0.22886 0.78579 0.0
C545 C 0.2064 0.24829 0.76986 0.0
C546 C 0.22886 0.26537 0.79158 0.0
C547 C 0.26505 0.2557 0.79944 0.0
C548 C 0.25836 0.21249 0.76386 0.0
C549 C 0.22193 0.22207 0.75598 0.0
C550 C 0.31843 0.21967 0.79462 0.0
C551 C 0.33144 0.0844 0.76315 0.0
H552 H 0.65848 0.13639 0.74888 0.0
H553 H 0.57131 0.09661 0.73888 0.0
H554 H 0.56599 0.22089 0.76543 0.0
H555 H 0.6535 0.26116 0.77528 0.0
H556 H 0.21755 0.28525 0.80279 0.0
H557 H 0.28135 0.26898 0.81633 0.0
H558 H 0.26966 0.19224 0.75289 0.0
H559 H 0.2059 0.20895 0.73904 0.0
Tb560 Tb 0.97656 0.32559 0.76272 0.0
Tb561 Tb 0.92959 0.21349 0.78277 0.0
C562 C 0.92296 0.23596 0.73013 0.0
C563 C 0.98002 0.44144 0.75511 0.0
C564 C 0.93248 0.49609 0.75959 0.0
C565 C 0.94984 0.49137 0.73792 0.0
C566 C 0.97362 0.46437 0.73572 0.0
C567 C 0.96128 0.44519 0.77664 0.0
C568 C 0.93811 0.47248 0.77885 0.0
C569 C 1.00555 0.41327 0.75298 0.0
O570 O 0.90556 0.30645 0.77837 0.0
O571 O 0.8683 0.22307 0.77595 0.0
O572 O 0.94358 0.26563 0.81143 0.0
O573 O 1.01141 0.32287 0.79413 0.0
O574 O 0.86915 0.14251 0.78516 0.0
O575 O 0.93561 0.16245 0.80392 0.0
O576 O 1.00496 0.23647 0.77503 0.0
O577 O 1.03012 0.30463 0.75167 0.0
O578 O 0.92792 0.27793 0.73626 0.0
O579 O 0.93183 0.20932 0.74478 0.0
C580 C 0.86589 0.26278 0.7782 0.0
O581 O 1.01523 0.39908 0.77243 0.0
O582 O 0.98903 0.37872 0.73739 0.0
C583 C 0.98483 0.30785 0.81263 0.0
C584 C 0.88715 0.07929 0.79081 0.0
C585 C 0.87348 0.98631 0.77884 0.0
C586 C 0.92063 1.02608 0.78353 0.0
C587 C 0.92744 0.07209 0.78935 0.0
C588 C 0.84013 0.03957 0.78626 0.0
C589 C 0.83337 0.99376 0.78031 0.0
C590 C 0.89244 0.12684 0.79784 0.0
C591 C 1.03634 0.26966 0.7607 0.0
H592 H 0.94629 0.50974 0.72287 0.0
H593 H 0.98743 0.46179 0.71895 0.0
H594 H 0.96484 0.42744 0.79193 0.0
H595 H 0.92487 0.47551 0.7957 0.0
H596 H 0.95229 1.02148 0.78318 0.0
H597 H 0.96413 0.10174 0.79293 0.0
H598 H 0.80834 0.0439 0.78743 0.0
H599 H 0.79663 0.96413 0.77678 0.0
Tb600 Tb 0.36236 0.11169 0.59447 0.0
Tb601 Tb 0.43052 0.22386 0.57502 0.0
C602 C 0.39828 0.20097 0.62724 0.0
C603 C 0.24682 0.99669 0.60158 0.0
C604 C 0.14379 0.93928 0.59772 0.0
C605 C 0.1679 0.93956 0.61833 0.0
C606 C 0.21892 0.96781 0.62019 0.0
C607 C 0.22258 0.99819 0.58137 0.0
C608 C 0.17173 0.9695 0.5794 0.0
C609 C 0.30093 1.02394 0.60296 0.0
O610 O 0.3129 0.13261 0.57791 0.0
O611 O 0.36028 0.21552 0.58199 0.0
O612 O 0.39495 0.1713 0.54607 0.0
O613 O 0.40443 0.1149 0.56484 0.0
O614 O 0.43909 0.29322 0.56998 0.0
O615 O 0.4927 0.27675 0.55687 0.0
O616 O 0.48242 0.2017 0.58492 0.0
O617 O 0.43626 0.13084 0.60633 0.0
O618 O 0.36121 0.15879 0.62096 0.0
O619 O 0.43468 0.22789 0.613 0.0
C620 C 0.31784 0.17638 0.57867 0.0
O621 O 0.32346 0.03929 0.58322 0.0
O622 O 0.32116 0.05704 0.61918 0.0
C623 C 0.39611 0.13037 0.54563 0.0
C624 C 0.52059 0.35806 0.56958 0.0
C625 C 0.59133 0.45089 0.58706 0.0
C626 C 0.57727 0.44472 0.5636 0.0
C627 C 0.54232 0.39886 0.55499 0.0
C628 C 0.53424 0.36382 0.59306 0.0
C629 C 0.56925 0.40983 0.60172 0.0
C630 C 0.48174 0.31076 0.56031 0.0
C631 C 0.47869 0.16685 0.59861 0.0
H632 H 0.14734 0.91686 0.63283 0.0
H633 H 0.23664 0.96634 0.63599 0.0
H634 H 0.24296 1.02045 0.56672 0.0
H635 H 0.15466 0.96942 0.56312 0.0
H636 H 0.5939 0.47532 0.55176 0.0
H637 H 0.53207 0.39531 0.53687 0.0
H638 H 0.51749 0.33287 0.6047 0.0
H639 H 0.57873 0.41333 0.61992 0.0
Tb640 Tb 1.01336 0.2898 0.59653 0.0
Tb641 Tb 0.89838 0.24422 0.57933 0.0
C642 C 0.92669 0.23606 0.63093 0.0
C643 C 0.12949 0.2914 0.60428 0.0
C644 C 0.18279 0.24379 0.59509 0.0
C645 C 0.20713 0.29418 0.59999 0.0
C646 C 0.1807 0.3178 0.60434 0.0
C647 C 0.10504 0.24054 0.60096 0.0
C648 C 0.13148 0.21686 0.59644 0.0
C649 C 0.10226 0.31781 0.60394 0.0
O650 O 0.99026 0.21805 0.58094 0.0
O651 O 0.90683 0.18185 0.58441 0.0
O652 O 0.94769 0.25946 0.54916 0.0
O653 O 1.00784 0.32614 0.56634 0.0
O654 O 0.82686 0.1843 0.57785 0.0
O655 O 0.84465 0.25159 0.56086 0.0
O656 O 0.92244 0.31926 0.58809 0.0
O657 O 0.99638 0.34647 0.60739 0.0
O658 O 0.96865 0.24201 0.62387 0.0
O659 O 0.89902 0.24589 0.6174 0.0
C660 C 0.94623 0.17903 0.58155 0.0
O661 O 0.08431 0.31835 0.58369 0.0
O662 O 0.0706 0.30849 0.62049 0.0
C663 C 0.98978 0.30088 0.54759 0.0
C664 C 0.76322 0.20351 0.57639 0.0
C665 C 0.67111 0.18952 0.59107 0.0
C666 C 0.70465 0.23201 0.57901 0.0
C667 C 0.75007 0.23894 0.5718 0.0
C668 C 0.72971 0.16106 0.58847 0.0
C669 C 0.68436 0.1542 0.59573 0.0
C670 C 0.80955 0.20845 0.56712 0.0
C671 C 0.95951 0.35212 0.60038 0.0
H672 H 0.24673 0.31567 0.59976 0.0
H673 H 0.20026 0.35703 0.60679 0.0
H674 H 0.0655 0.21952 0.60082 0.0
H675 H 0.11176 0.17799 0.59294 0.0
H676 H 0.69522 0.25938 0.57446 0.0
H677 H 0.7744 0.27162 0.56218 0.0
H678 H 0.73815 0.13256 0.59202 0.0
H679 H 0.65947 0.12101 0.60487 0.0
Tb680 Tb 0.82954 0.75458 0.59439 0.0
Tb681 Tb 0.86638 0.6791 0.57625 0.0
C682 C 0.87944 0.71591 0.62863 0.0
C683 C 0.83317 0.8732 0.60174 0.0
C684 C 0.88032 0.97503 0.59433 0.0
C685 C 0.82944 0.94749 0.59797 0.0
C686 C 0.80613 0.89709 0.60151 0.0
C687 C 0.88436 0.90083 0.59946 0.0
C688 C 0.90783 0.9515 0.59592 0.0
C689 C 0.80679 0.8194 0.60106 0.0
O690 O 0.90323 0.79751 0.57932 0.0
O691 O 0.93126 0.74497 0.58628 0.0
O692 O 0.85091 0.71447 0.54676 0.0
O693 O 0.78756 0.7113 0.56542 0.0
O694 O 0.9231 0.66817 0.56403 0.0
O695 O 0.84909 0.60862 0.56578 0.0
O696 O 0.79066 0.63263 0.58573 0.0
O697 O 0.77061 0.68296 0.60645 0.0
O698 O 0.87201 0.75166 0.62278 0.0
O699 O 0.87152 0.67993 0.61433 0.0
C700 C 0.93953 0.78928 0.58321 0.0
O701 O 0.80682 0.80107 0.58087 0.0
O702 O 0.81464 0.79648 0.61783 0.0
C703 C 0.81025 0.71646 0.5461 0.0
C704 C 0.91171 0.58934 0.57189 0.0
C705 C 0.93833 0.52166 0.58884 0.0
C706 C 0.949 0.53903 0.56593 0.0
C707 C 0.93577 0.57233 0.55758 0.0
C708 C 0.90254 0.57362 0.59505 0.0
C709 C 0.91579 0.54021 0.60344 0.0
C710 C 0.89446 0.62123 0.56191 0.0
C711 C 0.76133 0.63934 0.59933 0.0
H712 H 0.80743 0.96482 0.59749 0.0
H713 H 0.76664 0.87646 0.60317 0.0
H714 H 0.90584 0.88294 0.59957 0.0
H715 H 0.94709 0.97193 0.59347 0.0
H716 H 0.96593 0.52538 0.55414 0.0
H717 H 0.94323 0.58387 0.53967 0.0
H718 H 0.88427 0.58642 0.6065 0.0
H719 H 0.90774 0.52837 0.62128 0.0
C720 C 0.54155 0.91502 0.07982 0.0
C721 C 0.54938 0.93971 0.10109 0.0
C722 C 0.55996 0.8836 0.07576 0.0
C723 C 0.58642 0.87504 0.0929 0.0
H724 H 0.5223 0.92107 0.06586 0.0
H725 H 0.5536 0.866 0.05901 0.0
S726 S 0.61551 0.92876 0.1519 0.0
N727 N 0.58429 0.95186 0.13982 0.0
N728 N 0.61875 0.89293 0.13211 0.0
C729 C 0.59342 0.89835 0.11445 0.0
C730 C 0.57498 0.93062 0.11855 0.0
C731 C 0.25863 0.7235 0.07816 0.0
C732 C 0.25636 0.75942 0.09149 0.0
C733 C 0.22651 0.67355 0.08223 0.0
C734 C 0.1912 0.65758 0.09996 0.0
H735 H 0.28458 0.73411 0.06407 0.0
H736 H 0.22882 0.64737 0.07105 0.0
S737 S 0.17412 0.73787 0.14126 0.0
N738 N 0.21869 0.77604 0.12408 0.0
N739 N 0.15855 0.68268 0.13198 0.0
C740 C 0.19005 0.69346 0.114 0.0
C741 C 0.22248 0.74418 0.10969 0.0
C742 C 0.41022 0.57977 0.07939 0.0
C743 C 0.37539 0.54568 0.09477 0.0
C744 C 0.46038 0.59734 0.08251 0.0
C745 C 0.47773 0.58163 0.1012 0.0
H746 H 0.39851 0.59182 0.06441 0.0
H747 H 0.4855 0.62241 0.06976 0.0
S748 S 0.40118 0.49729 0.14804 0.0
N749 N 0.3615 0.50015 0.13045 0.0
N750 N 0.45558 0.53296 0.13651 0.0
C751 C 0.44318 0.54918 0.11733 0.0
C752 C 0.3921 0.5312 0.11404 0.0
C753 C 0.918 0.51995 0.94332 0.0
C754 C 0.94947 0.53599 0.92399 0.0
C755 C 0.88636 0.53801 0.94786 0.0
C756 C 0.88517 0.57287 0.93327 0.0
H757 H 0.91866 0.49423 0.95544 0.0
H758 H 0.86376 0.52571 0.96323 0.0
S759 S 0.95461 0.62198 0.87876 0.0
N760 N 0.97339 0.58556 0.88894 0.0
N761 N 0.91407 0.61905 0.89759 0.0
C762 C 0.91447 0.58739 0.91334 0.0
C763 C 0.94649 0.56901 0.90864 0.0
C764 C 0.61372 0.40054 0.93411 0.0
C765 C 0.57847 0.36345 0.91974 0.0
C766 C 0.63008 0.45014 0.92985 0.0
C767 C 0.61122 0.46424 0.91124 0.0
H768 H 0.62741 0.39101 0.94925 0.0
H769 H 0.65475 0.47717 0.94217 0.0
S770 S 0.52121 0.38211 0.86756 0.0
N771 N 0.52786 0.34496 0.88526 0.0
N772 N 0.55808 0.43777 0.87751 0.0
C773 C 0.57806 0.42781 0.89608 0.0
C774 C 0.56183 0.37754 0.90024 0.0
C775 C 0.68668 0.20762 0.93819 0.0
C776 C 0.67064 0.17114 0.92099 0.0
C777 C 0.73661 0.24078 0.94178 0.0
C778 C 0.77261 0.2388 0.92838 0.0
H779 H 0.6606 0.2101 0.94938 0.0
H780 H 0.74717 0.26735 0.9556 0.0
S781 S 0.75075 0.15452 0.87943 0.0
N782 N 0.69548 0.13791 0.88916 0.0
N783 N 0.78912 0.20044 0.89602 0.0
C784 C 0.7573 0.20395 0.91056 0.0
C785 C 0.70643 0.17019 0.90681 0.0
C786 C 0.21471 0.20454 0.40729 0.0
C787 C 0.2353 0.19189 0.42568 0.0
C788 C 0.19736 0.23704 0.41061 0.0
C789 C 0.20091 0.25889 0.43232 0.0
H790 H 0.21223 0.18939 0.39019 0.0
H791 H 0.18259 0.24628 0.39583 0.0
S792 S 0.25004 0.23596 0.48627 0.0
N793 N 0.25672 0.20216 0.46653 0.0
N794 N 0.22462 0.2635 0.47275 0.0
C795 C 0.22043 0.24557 0.45096 0.0
C796 C 0.2375 0.21204 0.44764 0.0
C797 C 0.9128 0.04842 0.41326 0.0
C798 C 0.9104 0.08458 0.42631 0.0
C799 C 0.88125 0.99864 0.41776 0.0
C800 C 0.84618 0.98298 0.43559 0.0
H801 H 0.93848 0.05868 0.39907 0.0
H802 H 0.88385 0.97231 0.40681 0.0
S803 S 0.82861 0.0639 0.47617 0.0
N804 N 0.87281 0.1018 0.45876 0.0
N805 N 0.81338 1.00851 0.46732 0.0
C806 C 0.84471 1.01903 0.44931 0.0
C807 C 0.87674 0.0697 0.44461 0.0
C808 C 0.10233 0.87359 0.4556 0.0
C809 C 0.14014 0.91687 0.44579 0.0
C810 C 0.05302 0.85806 0.45141 0.0
C811 C 1.03926 0.88516 0.43724 0.0
H812 H 0.11091 0.85011 0.46575 0.0
H813 H 1.02539 0.82359 0.45868 0.0
S814 S 0.12375 1.00326 0.40891 0.0
N815 N 0.16036 0.98831 0.42247 0.0
N816 N 0.06735 0.95934 0.4147 0.0
C817 C 0.07649 0.9302 0.42854 0.0
C818 C 0.12702 0.94603 0.4328 0.0
C819 C 0.59899 0.93053 0.25207 0.0
C820 C 0.55689 0.90455 0.26575 0.0
C821 C 0.63044 0.91229 0.24781 0.0
C822 C 0.62144 0.86756 0.25729 0.0
H823 H 0.60774 0.96534 0.24461 0.0
H824 H 0.66275 0.93423 0.23744 0.0
S825 S 0.51528 0.78492 0.29401 0.0
N826 N 0.5071 0.83139 0.28843 0.0
N827 N 0.56627 0.79715 0.28062 0.0
C828 C 0.57894 0.84083 0.27075 0.0
C829 C 0.54666 0.85927 0.2749 0.0
C830 C 0.27103 0.77556 0.27838 0.0
C831 C 0.267 0.79449 0.25695 0.0
C832 C 0.25344 0.72552 0.28126 0.0
C833 C 0.23212 0.69279 0.26271 0.0
H834 H 0.28633 0.79921 0.29329 0.0
H835 H 0.25626 0.71227 0.29816 0.0
S836 S 0.21554 0.7238 0.20274 0.0
N837 N 0.2418 0.77655 0.21661 0.0
N838 N 0.20932 0.68264 0.22202 0.0
C839 C 0.22935 0.71133 0.24101 0.0
C840 C 0.24664 0.76214 0.23813 0.0
C841 C 0.41542 0.53879 0.23699 0.0
C842 C 0.43047 0.58032 0.25088 0.0
C843 C 0.36579 0.50563 0.23309 0.0
C844 C 0.329 0.51241 0.24299 0.0
H845 H 0.44226 0.53084 0.22978 0.0
H846 H 0.35611 0.47289 0.22322 0.0
S847 S 0.34907 0.61795 0.27881 0.0
N848 N 0.40484 0.62891 0.27294 0.0
N849 N 0.3111 0.56593 0.26575 0.0
C850 C 0.34344 0.55557 0.25554 0.0
C851 C 0.39432 0.58966 0.25948 0.0
C852 C 0.91635 0.59946 0.78167 0.0
C853 C 0.87697 0.59529 0.7684 0.0
C854 C 0.93334 0.56671 0.77889 0.0
C855 C 0.91189 0.52856 0.76268 0.0
H856 H 0.93527 0.62903 0.79395 0.0
H857 H 0.96442 0.57206 0.78914 0.0
S858 S 0.80423 0.4973 0.72564 0.0
N859 N 0.81413 0.54671 0.73983 0.0
N860 N 0.84695 0.4856 0.7345 0.0
C861 C 0.87153 0.52266 0.74984 0.0
C862 C 0.8538 0.55583 0.75277 0.0
C863 C 0.54597 0.40243 0.774 0.0
C864 C 0.58575 0.41921 0.75871 0.0
C865 C 0.51428 0.35238 0.77765 0.0
C866 C 0.52116 0.31704 0.76621 0.0
H867 H 0.5385 0.42818 0.78275 0.0
H868 H 0.48342 0.34146 0.78911 0.0
S869 S 0.62372 0.34259 0.72651 0.0
N870 N 0.63296 0.39707 0.73357 0.0
N871 N 0.57354 0.30301 0.74028 0.0
C872 C 0.56206 0.33354 0.75153 0.0
C873 C 0.59424 0.38456 0.7478 0.0
C874 C 0.72864 0.19583 0.78351 0.0
C875 C 0.71494 0.2239 0.77006 0.0
C876 C 0.77788 0.21141 0.78784 0.0
C877 C 0.81577 0.25567 0.77881 0.0
H878 H 0.70104 0.16049 0.79001 0.0
H879 H 0.78638 0.18713 0.79734 0.0
S880 S 0.79939 0.34565 0.74487 0.0
N881 N 0.74298 0.30056 0.74964 0.0
N882 N 0.83606 0.32973 0.75766 0.0
C883 C 0.80267 0.28602 0.76684 0.0
C884 C 0.75211 0.27011 0.76245 0.0
C885 C 0.20488 0.17775 0.59843 0.0
C886 C 0.21121 0.22042 0.58759 0.0
C887 C 0.23664 0.15976 0.5937 0.0
C888 C 0.27541 0.18385 0.57792 0.0
H889 H 0.17719 0.15996 0.61165 0.0
H890 H 0.23317 0.1293 0.60372 0.0
S891 S 0.30228 0.29155 0.54214 0.0
N892 N 0.25489 0.28178 0.55804 0.0
N893 N 0.31467 0.24864 0.54954 0.0
C894 C 0.27939 0.22392 0.56565 0.0
C895 C 0.2473 0.24207 0.57039 0.0
C896 C 0.94393 0.06376 0.60063 0.0
C897 C 0.9036 1.02768 0.58806 0.0
C898 C 0.96125 0.11382 0.59699 0.0
C899 C 0.93892 0.1292 0.58056 0.0
H900 H 0.96026 0.05322 0.61429 0.0
H901 H 0.98971 0.14028 0.60824 0.0
S902 S 0.83786 0.04975 0.54063 0.0
N903 N 0.8464 1.01136 0.55648 0.0
N904 N 0.87828 0.10486 0.54999 0.0
C905 C 0.90112 0.09361 0.56679 0.0
C906 C 0.88365 0.04301 0.57043 0.0
C907 C 0.07288 0.85477 0.60123 0.0
C908 C 0.09074 0.90337 0.59449 0.0
C909 C 1.02423 0.81891 0.59739 0.0
C910 C 0.99079 0.82966 0.58653 0.0
H911 H 0.097 0.8439 0.60915 0.0
H912 H 1.01295 0.78221 0.60311 0.0
S913 S 1.01871 0.95166 0.56574 0.0
N914 N 0.07096 0.96101 0.5768 0.0
N915 N 0.97913 0.89287 0.56913 0.0
C916 C 1.00785 0.87821 0.57979 0.0
C917 C 0.05785 0.91512 0.58378 0.0
C918 C 0.53519 1.01568 0.02758 0.0
C919 C 0.56838 0.0616 0.03714 0.0
C920 C 0.53116 1.00826 1.0036 0.0
C921 C 0.56069 0.04636 0.98847 0.0
H922 H 0.50924 0.98649 0.03864 0.0
H923 H 0.50213 0.97385 0.99683 0.0
S924 S 0.65672 0.1717 1.00484 0.0
N925 N 0.63385 0.14433 0.02984 0.0
N926 N 0.62704 0.13019 0.98458 0.0
C927 C 0.59693 0.0911 0.99785 0.0
C928 C 0.60069 0.09881 0.02232 0.0
C929 C 0.1241 0.56564 1.00158 0.0
C930 C 0.08775 0.56356 0.9869 0.0
C931 C 0.11694 0.56034 0.02551 0.0
C932 C 0.07294 0.55213 0.03557 0.0
H933 H 0.15636 0.56702 0.99434 0.0
H934 H 0.14451 0.55876 0.03605 0.0
S935 S 0.96896 0.54962 1.00489 0.0
N936 N 1.00849 0.55812 0.98418 0.0
N937 N 0.99481 0.54746 0.02944 0.0
C938 C 1.03821 0.5545 0.0214 0.0
C939 C 1.04571 0.56035 0.99692 0.0
C940 C 0.59022 0.52747 0.9966 0.0
C941 C 0.57225 0.55368 0.98428 0.0
C942 C 0.59377 0.52958 0.02084 0.0
C943 C 0.57935 0.55789 0.03347 0.0
H944 H 0.60515 0.5082 0.98734 0.0
H945 H 0.61161 0.51242 0.02951 0.0
S946 S 0.52385 0.62779 1.01005 0.0
N947 N 0.53479 0.60416 0.98692 0.0
N948 N 0.54179 0.60835 0.03247 0.0
C949 C 0.55731 0.58058 0.02161 0.0
C950 C 0.5534 0.57822 0.99697 0.0
C951 C 0.26006 0.43062 0.35435 0.0
C952 C 0.22788 0.3888 0.3669 0.0
C953 C 0.26172 0.42908 0.33007 0.0
C954 C 0.23158 0.38561 0.31766 0.0
H955 H 0.28109 0.46538 0.36313 0.0
H956 H 0.28433 0.46291 0.32084 0.0
S957 S 0.1444 0.26538 0.34305 0.0
N958 N 0.16775 0.30226 0.36555 0.0
N959 N 0.17179 0.29909 0.32006 0.0
C960 C 0.20236 0.34278 0.33025 0.0
C961 C 0.20013 0.34454 0.35487 0.0
C962 C 0.68259 0.82895 0.35555 0.0
C963 C 0.71645 0.86521 0.37041 0.0
C964 C 0.69095 0.83149 0.33173 0.0
C965 C 0.73381 0.87003 0.32198 0.0
H966 H 0.65137 0.79653 0.36257 0.0
H967 H 0.66514 0.80132 0.32103 0.0
S968 S 0.83125 0.97672 0.35331 0.0
N969 N 0.7921 0.94314 0.37372 0.0
N970 N 0.80802 0.94769 0.32861 0.0
C971 C 0.76593 0.90869 0.33634 0.0
C972 C 0.7572 0.90624 0.36073 0.0
C973 C 0.20836 0.90052 0.33611 0.0
C974 C 0.24287 0.89438 0.32369 0.0
C975 C 0.20562 0.8957 0.36032 0.0
C976 C 0.2369 0.88407 0.37274 0.0
H977 H 0.18634 0.91301 0.32736 0.0
H978 H 0.18142 0.90472 0.36954 0.0
S979 S 0.32911 0.85841 0.34752 0.0
N980 N 0.30564 0.87176 0.32504 0.0
N981 N 0.29964 0.86161 0.37041 0.0
C982 C 0.26818 0.87333 0.36019 0.0
C983 C 0.27152 0.879 0.33565 0.0
C984 C 0.92626 0.76591 0.68821 0.0
C985 C 0.90298 0.72388 0.70191 0.0
C986 C 0.92271 0.76245 0.66402 0.0
C987 C 0.89528 0.71687 0.65281 0.0
H988 H 0.94358 0.80171 0.69621 0.0
H989 H 0.93841 0.79599 0.65411 0.0
S990 S 0.83281 0.59586 0.68121 0.0
N991 N 0.85618 0.63528 0.70281 0.0
N992 N 0.84938 0.62877 0.65727 0.0
C993 C 0.87593 0.67443 0.66629 0.0
C994 C 0.87961 0.678 0.69094 0.0
C995 C 0.35592 0.19553 0.66429 0.0
C996 C 0.40028 0.21333 0.65203 0.0
C997 C 0.35456 0.1923 0.68852 0.0
C998 C 0.39753 0.20669 0.70115 0.0
H999 H 0.32152 0.18066 0.65499 0.0
H1000 H 0.31944 0.17491 0.69719 0.0
S1001 S 0.52356 0.26238 0.67791 0.0
N1002 N 0.4887 0.25103 0.65475 0.0
N1003 N 0.48604 0.24446 0.70029 0.0
C1004 C 0.44248 0.22856 0.68937 0.0
C1005 C 0.44395 0.23228 0.66474 0.0
C1006 C 0.88995 0.24334 0.66793 0.0
C1007 C 0.91478 0.2241 0.65576 0.0
C1008 C 0.88919 0.24308 0.69222 0.0
C1009 C 0.91284 0.22322 0.70524 0.0
H1010 H 0.87419 0.26197 0.65878 0.0
H1011 H 0.87238 0.26125 0.70087 0.0
S1012 S 0.97473 0.15992 0.68145 0.0
N1013 N 0.95728 0.17808 0.6584 0.0
N1014 N 0.95588 0.17792 0.70402 0.0
C1015 C 0.93348 0.19953 0.69325 0.0
C1016 C 0.93453 0.20001 0.66851 0.0
C1017 C 0.38754 0.94345 0.1879 0.0
C1018 C 0.3672 0.97085 0.19648 0.0
C1019 C 0.4253 0.96284 0.17152 0.0
C1020 C 0.44565 1.01109 0.16351 0.0
H1021 H 0.37427 0.9066 0.19406 0.0
H1022 H 0.43859 0.93965 0.16492 0.0
S1023 S 0.40634 0.09872 0.18074 0.0
N1024 N 0.37053 0.04906 0.19588 0.0
N1025 N 0.4422 0.08584 0.16517 0.0
C1026 C 0.42609 0.03923 0.17204 0.0
C1027 C 0.38669 1.01903 0.18848 0.0
C1028 C 0.08609 0.44123 0.17549 0.0
C1029 C 0.12124 0.47455 0.16001 0.0
C1030 C 0.09751 0.41432 0.19115 0.0
C1031 C 0.14449 0.41913 0.19196 0.0
H1032 H 1.04927 0.4354 0.17538 0.0
H1033 H 0.06915 0.38965 0.2029 0.0
S1034 S 0.25034 0.50175 0.15532 0.0
N1035 N 0.20595 0.51117 0.14681 0.0
N1036 N 0.2264 0.46017 0.1759 0.0
C1037 C 0.17988 0.45199 0.1765 0.0
C1038 C 0.16859 0.47982 0.16071 0.0
C1039 C 0.6476 0.7465 0.18382 0.0
C1040 C 0.69583 0.76778 0.19225 0.0
C1041 C 0.62909 0.7083 0.16772 0.0
C1042 C 0.65748 0.68865 0.15968 0.0
H1043 H 0.62358 0.75917 0.19 0.0
H1044 H 0.59208 0.69414 0.16136 0.0
S1045 S 0.78619 0.73112 0.1761 0.0
N1046 N 0.77193 0.76639 0.1913 0.0
N1047 N 0.73686 0.69411 0.16086 0.0
C1048 C 0.70583 0.70936 0.16789 0.0
C1049 C 0.7251 0.74909 0.18417 0.0
C1050 C 0.05419 0.42646 0.84728 0.0
C1051 C 1.01963 0.42364 0.86334 0.0
C1052 C 1.04291 0.38802 0.83169 0.0
C1053 C 0.99652 0.34473 0.83141 0.0
H1054 H 0.09059 0.45835 0.84689 0.0
H1055 H 0.07097 0.39254 0.81959 0.0
S1056 S 0.89224 0.31863 0.86973 0.0
N1057 N 0.93611 0.37339 0.87776 0.0
N1058 N 0.91571 0.3018 0.84864 0.0
C1059 C 0.96163 0.34127 0.8474 0.0
C1060 C 0.97286 0.38046 0.86323 0.0
C1061 C 0.69617 0.61215 0.84587 0.0
C1062 C 0.69451 0.64782 0.85958 0.0
C1063 C 0.73476 0.62463 0.83025 0.0
C1064 C 0.77335 0.67338 0.82747 0.0
H1065 H 0.6682 0.5741 0.84764 0.0
H1066 H 0.73412 0.59554 0.82014 0.0
S1067 S 0.78495 0.78101 0.85853 0.0
N1068 N 0.73438 0.73443 0.86898 0.0
N1069 N 0.8062 0.75759 0.83943 0.0
C1070 C 0.77197 0.70945 0.84098 0.0
C1071 C 0.73271 0.69676 0.85696 0.0
C1072 C 0.42508 0.09345 0.83697 0.0
C1073 C 0.45342 0.14188 0.82896 0.0
C1074 C 0.44486 0.07336 0.85254 0.0
C1075 C 0.49361 0.10104 0.86046 0.0
H1076 H 0.38797 0.07064 0.83072 0.0
H1077 H 0.42152 0.03661 0.85893 0.0
S1078 S 0.58269 0.22925 0.84459 0.0
N1079 N 0.53251 0.21652 0.83018 0.0
N1080 N 0.56928 0.17915 0.85904 0.0
C1081 C 0.52197 0.14926 0.85243 0.0
C1082 C 0.50202 0.16954 0.83683 0.0
C1083 C 1.02185 0.27876 0.51237 0.0
C1084 C 1.02371 0.31451 0.52736 0.0
C1085 C 0.05857 0.29046 0.49567 0.0
C1086 C 0.09897 0.33843 0.49319 0.0
H1087 H 0.99266 0.24115 0.51397 0.0
H1088 H 0.05521 0.26133 0.48461 0.0
S1089 S 0.11912 0.44632 0.52711 0.0
N1090 N 0.06819 0.40071 0.53783 0.0
N1091 N 0.13671 0.42224 0.50662 0.0
C1092 C 0.10074 0.37465 0.50782 0.0
C1093 C 0.06328 0.36284 0.52476 0.0
C1094 C 0.82087 0.80423 0.49855 0.0
C1095 C 0.77226 0.79475 0.49603 0.0
C1096 C 0.83278 0.7767 0.51352 0.0
C1097 C 0.79661 0.73837 0.5267 0.0
H1098 H 0.85038 0.83355 0.4889 0.0
H1099 H 0.87082 0.78682 0.51544 0.0
S1100 S 0.6634 0.69551 0.52544 0.0
N1101 N 0.68748 0.74194 0.50724 0.0
N1102 N 0.70966 0.6906 0.53548 0.0
C1103 C 0.74773 0.72765 0.524 0.0
C1104 C 0.73562 0.7557 0.50873 0.0
C1105 C 0.30661 1.03256 0.50411 0.0
C1106 C 0.33227 1.00871 0.49767 0.0
C1107 C 0.32859 0.07463 0.51834 0.0
C1108 C 0.37704 0.09438 0.52641 0.0
H1109 H 0.26994 1.01948 0.49757 0.0
H1110 H 0.30713 0.09092 0.52359 0.0
S1111 S 0.45971 0.04597 0.51415 0.0
N1112 N 0.40884 1.00879 0.50001 0.0
N1113 N 0.44938 0.08637 0.52707 0.0
C1114 C 0.4027 0.07068 0.52005 0.0
C1115 C 0.38062 1.0284 0.50556 0.0
C1116 C 0.49399 0.23751 0.11563 0.0
C1117 C 0.53322 0.27951 0.10547 0.0
C1118 C 0.48781 0.19069 0.11217 0.0
C1119 C 0.52104 0.18411 0.09868 0.0
H1120 H 0.46832 0.24098 0.1267 0.0
H1121 H 0.4582 0.15987 0.12103 0.0
S1122 S 0.62838 0.28142 0.06726 0.0
N1123 N 0.60457 0.31066 0.08057 0.0
N1124 N 0.59297 0.2233 0.07399 0.0
C1125 C 0.55932 0.22553 0.08776 0.0
C1126 C 0.56539 0.27297 0.09114 0.0
C1127 C 0.86091 0.3351 0.0957 0.0
C1128 C 0.85612 0.29488 0.10823 0.0
C1129 C 0.90694 0.37657 0.09176 0.0
C1130 C 0.9505 0.37971 0.09995 0.0
H1131 H 0.82864 0.33538 0.08962 0.0
H1132 H 0.90817 0.407 0.08262 0.0
S1133 S 0.95862 0.28268 0.13206 0.0
N1134 N 0.89939 0.25947 0.1275 0.0
N1135 N 0.9858 0.33749 0.12018 0.0
C1136 C 0.9465 0.33893 0.11165 0.0
C1137 C 0.89943 0.29667 0.11582 0.0
C1138 C 0.79117 0.64714 0.10905 0.0
C1139 C 0.75337 0.61637 0.09376 0.0
C1140 C 0.83139 0.64047 0.11323 0.0
C1141 C 0.83544 0.60289 0.10221 0.0
H1142 H 0.78839 0.67482 0.11881 0.0
H1143 H 0.85841 0.66362 0.12594 0.0
S1144 S 0.75007 0.51772 0.05779 0.0
N1145 N 0.72521 0.55037 0.06576 0.0
N1146 N 0.80082 0.53861 0.07317 0.0
C1147 C 0.79932 0.57398 0.08582 0.0
C1148 C 0.75839 0.58055 0.0817 0.0
C1149 C 0.2447 0.47531 0.90824 0.0
C1150 C 0.28859 0.51675 0.9156 0.0
C1151 C 0.19872 0.47093 0.91228 0.0
C1152 C 0.1948 0.5081 0.92362 0.0
H1153 H 0.24592 0.44621 0.89901 0.0
H1154 H 0.16626 0.43911 0.90564 0.0
S1155 S 0.29828 0.62309 0.94732 0.0
N1156 N 0.32472 0.59494 0.93543 0.0
N1157 N 0.23895 0.58663 0.9433 0.0
C1158 C 0.23833 0.54896 0.93174 0.0
C1159 C 0.28497 0.5533 0.92769 0.0
C1160 C 0.64539 0.81136 0.9251 0.0
C1161 C 0.59885 0.80683 0.92758 0.0
C1162 C 0.65205 0.77093 0.92805 0.0
C1163 C 0.61242 0.72462 0.93361 0.0
H1164 H 0.67627 0.84564 0.91946 0.0
H1165 H 0.68753 0.77517 0.92429 0.0
S1166 S 0.4853 0.6949 0.94591 0.0
N1167 N 0.5142 0.75344 0.93908 0.0
N1168 N 0.52655 0.67774 0.94406 0.0
C1169 C 0.56671 0.72048 0.93779 0.0
C1170 C 0.55995 0.76145 0.93491 0.0
C1171 C 0.35186 0.92883 0.91177 0.0
C1172 C 0.39009 0.93393 0.92622 0.0
C1173 C 0.31052 0.88255 0.90726 0.0
C1174 C 0.30538 0.83951 0.91722 0.0
H1175 H 0.35494 0.96043 0.90298 0.0
H1176 H 0.28271 0.88035 0.89553 0.0
S1177 S 0.39384 0.83337 0.95745 0.0
N1178 N 0.41865 0.89201 0.95148 0.0
N1179 N 0.34185 0.80579 0.94285 0.0
C1180 C 0.34248 0.84452 0.93242 0.0
C1181 C 0.38449 0.89142 0.93693 0.0
C1182 C 0.15207 0.55942 0.4478 0.0
C1183 C 0.19343 0.60248 0.43977 0.0
C1184 C 0.14573 0.51294 0.44317 0.0
C1185 C 0.18079 0.50765 0.43054 0.0
H1186 H 0.12464 0.56169 0.45804 0.0
H1187 H 0.11421 0.48114 0.4504 0.0
S1188 S 0.29457 0.60852 0.40473 0.0
N1189 N 0.26917 0.63636 0.41794 0.0
N1190 N 0.25718 0.54962 0.40901 0.0
C1191 C 0.22145 0.55034 0.42176 0.0
C1192 C 0.22778 0.59751 0.42641 0.0
C1193 C 0.56664 0.69852 0.42507 0.0
C1194 C 0.60974 0.70255 0.43449 0.0
C1195 C 0.52051 0.65669 0.42843 0.0
C1196 C 0.51501 0.6169 0.44161 0.0
H1197 H 0.56827 0.72857 0.41539 0.0
H1198 H 0.48863 0.65642 0.42137 0.0
S1199 S 0.61638 0.60721 0.46884 0.0
N1200 N 0.644 0.66175 0.45668 0.0
N1201 N 0.55752 0.58304 0.46292 0.0
C1202 C 0.558 0.61962 0.45047 0.0
C1203 C 0.60519 0.66228 0.44689 0.0
C1204 C 0.49447 0.96806 0.4336 0.0
C1205 C 0.49217 0.92274 0.43048 0.0
C1206 C 0.45321 0.97326 0.42992 0.0
C1207 C 0.40799 0.93322 0.42317 0.0
H1208 H 0.52792 0.99929 0.43987 0.0
H1209 H 0.45581 1.0078 0.43409 0.0
S1210 S 0.38279 0.80772 0.4111 0.0
N1211 N 0.44105 0.83795 0.41879 0.0
N1212 N 0.36406 0.84776 0.41207 0.0
C1213 C 0.40595 0.8886 0.41872 0.0
C1214 C 0.44784 0.88334 0.42228 0.0
C1215 C 0.90404 0.87076 0.26536 0.0
C1216 C 0.86065 0.82911 0.25765 0.0
C1217 C 0.95032 0.87573 0.26205 0.0
C1218 C 0.95572 0.83945 0.25074 0.0
H1219 H 0.90258 0.90068 0.27359 0.0
H1220 H 0.98232 0.90925 0.26766 0.0
S1221 S 0.85403 0.72101 0.22916 0.0
N1222 N 0.82626 0.74926 0.23952 0.0
N1223 N 0.91317 0.75845 0.23344 0.0
C1224 C 0.91263 0.79667 0.24376 0.0
C1225 C 0.86525 0.79148 0.24724 0.0
C1226 C 0.32519 0.10336 0.24655 0.0
C1227 C 0.29358 0.0655 0.26148 0.0
C1228 C 0.31851 0.14327 0.24207 0.0
C1229 C 0.28014 0.14699 0.25244 0.0
H1230 H 0.35375 0.10099 0.23737 0.0
H1231 H 0.34249 0.17048 0.22969 0.0
S1232 S 0.19217 0.06115 0.29565 0.0
N1233 N 0.22561 0.03668 0.2884 0.0
N1234 N 0.21383 0.11189 0.2804 0.0
C1235 C 0.25012 0.11069 0.2684 0.0
C1236 C 0.25669 0.07 0.27283 0.0
C1237 C 1.02001 0.17302 0.2683 0.0
C1238 C 0.97446 0.16833 0.26287 0.0
C1239 C 0.06226 0.21909 0.27054 0.0
C1240 C 0.06065 0.26239 0.26779 0.0
H1241 H 1.02376 0.14095 0.26928 0.0
H1242 H 0.09705 0.22085 0.27317 0.0
S1243 S 0.94949 0.27032 0.25667 0.0
N1244 N 0.9294 0.21108 0.25729 0.0
N1245 N 1.00905 0.29769 0.26152 0.0
C1246 C 1.01484 0.25835 0.26419 0.0
C1247 C 0.97174 0.21133 0.26166 0.0
C1248 C 0.8218 0.84813 0.77965 0.0
C1249 C 0.85361 0.84202 0.76488 0.0
C1250 C 0.82789 0.89465 0.78374 0.0
C1251 C 0.86584 0.93687 0.7731 0.0
H1252 H 0.79339 0.81713 0.78895 0.0
H1253 H 0.80365 0.89773 0.79595 0.0
S1254 S 0.95455 0.9393 0.73037 0.0
N1255 N 0.92169 0.8814 0.73802 0.0
N1256 N 0.9323 0.96824 0.7452 0.0
C1257 C 0.89628 0.93071 0.7574 0.0
C1258 C 0.89034 0.88351 0.75341 0.0
C1259 C 0.24113 1.03266 0.75569 0.0
C1260 C 0.28446 0.0366 0.76478 0.0
C1261 C 0.19493 0.99134 0.75968 0.0
C1262 C 0.18958 0.952 0.77318 0.0
H1263 H 0.24266 0.06245 0.74583 0.0
H1264 H 0.16291 0.99117 0.75287 0.0
S1265 S 0.29138 0.94193 0.7996 0.0
N1266 N 0.31897 0.99593 0.78691 0.0
N1267 N 0.23233 0.91822 0.79432 0.0
C1268 C 0.23271 0.95451 0.78167 0.0
C1269 C 0.27998 0.99663 0.77744 0.0
C1270 C 0.16867 0.30168 0.76522 0.0
C1271 C 0.16505 0.25566 0.76265 0.0
C1272 C 0.12771 0.30759 0.76213 0.0
C1273 C 0.08154 0.26756 0.75657 0.0
H1274 H 0.203 0.33298 0.77061 0.0
H1275 H 0.13143 0.34281 0.76579 0.0
S1276 S 0.05279 0.14033 0.74617 0.0
N1277 N 0.11169 0.17018 0.75268 0.0
N1278 N 1.03525 0.1813 0.74698 0.0
C1279 C 0.07811 0.22214 0.7526 0.0
C1280 C 0.11968 0.21617 0.75559 0.0
C1281 C 0.53171 0.12935 0.5952 0.0
C1282 C 0.52532 0.16773 0.60304 0.0
C1283 C 0.57893 0.13582 0.59248 0.0
C1284 C 0.62144 0.18093 0.59748 0.0
H1285 H 0.50034 0.09543 0.58946 0.0
H1286 H 0.58214 0.10619 0.58506 0.0
S1287 S 0.62352 0.29015 0.62205 0.0
N1288 N 0.56484 0.25049 0.618 0.0
N1289 N 0.65306 0.26223 0.61364 0.0
C1290 C 0.61506 0.2182 0.60701 0.0
C1291 C 0.56718 0.21169 0.6096 0.0
C1292 C 0.99801 0.44273 0.59497 0.0
C1293 C 0.95978 0.39872 0.60393 0.0
C1294 C 0.99186 0.48335 0.59128 0.0
C1295 C 0.94742 0.48166 0.59657 0.0
H1296 H 1.03144 0.44462 0.58913 0.0
H1297 H 1.02143 0.51565 0.58329 0.0
S1298 S 0.83749 0.37568 0.62205 0.0
N1299 N 0.87729 0.35683 0.61937 0.0
N1300 N 0.86569 0.43251 0.61255 0.0
C1301 C 0.91017 0.43873 0.60691 0.0
C1302 C 0.91637 0.39751 0.61051 0.0
C1303 C 0.6304 0.5426 0.58906 0.0
C1304 C 0.63059 0.49976 0.59555 0.0
C1305 C 0.67121 0.5893 0.59309 0.0
C1306 C 0.7137 0.59478 0.60371 0.0
H1307 H 0.59944 0.53995 0.5797 0.0
H1308 H 0.67104 0.62088 0.58605 0.0
S1309 S 0.73182 0.49539 0.62597 0.0
N1310 N 0.67607 0.46676 0.61484 0.0
N1311 N 0.75229 0.5542 0.6223 0.0
C1312 C 0.71303 0.55264 0.61179 0.0
C1313 C 0.67161 0.50521 0.60778 0.0
loop_
_geom_bond_atom_site_label_1
_geom_bond_atom_site_label_2
_geom_bond_distance
_geom_bond_site_symmetry_2
_ccdc_geom_bond_type
Tb0 C9 2.764 . S
Tb0 O10 2.325 . S
Tb0 O13 2.303 . S
Tb0 O17 2.322 1_565 S
Tb0 O18 2.349 . S
Tb0 O21 2.415 . S
Tb0 O22 2.399 . S
Tb1 O11 2.322 1_545 S
Tb1 O12 2.349 . S
Tb1 O14 2.415 . S
Tb1 O15 2.399 . S
Tb1 O16 2.325 . S
Tb1 O19 2.303 . S
Tb1 C30 2.764 . S
C2 O18 1.261 1_545 S
C2 O19 1.257 . S
C3 C6 1.358 . S
C3 C7 1.332 . S
C3 C9 1.504 . S
C4 C5 1.373 . S
C4 C8 1.308 . S
C5 C4 1.373 . S
C5 C6 1.429 . S
C5 H32 0.932 . S
C6 C3 1.358 . S
C6 C5 1.429 . S
C6 H33 0.930 . S
C7 C3 1.332 . S
C7 C8 1.394 . S
C7 H34 0.932 . S
C8 C4 1.308 . S
C8 C7 1.394 . S
C8 H35 0.929 . S
C9 Tb0 2.764 . S
C9 C3 1.504 . S
C9 O21 1.239 . S
C9 O22 1.263 . S
O10 Tb0 2.325 . S
O10 C20 1.236 . S
O11 Tb1 2.322 1_565 S
O11 C20 1.257 . S
O12 Tb1 2.349 . S
O12 C23 1.264 . S
O13 Tb0 2.303 . S
O13 C23 1.257 1_565 S
O14 Tb1 2.415 . S
O14 C30 1.239 . S
O15 Tb1 2.399 . S
O15 C30 1.263 . S
O16 Tb1 2.325 . S
O16 C31 1.236 . S
O17 Tb0 2.322 1_545 S
O17 C31 1.257 . S
O18 Tb0 2.349 . S
O18 C2 1.261 1_565 S
O19 Tb1 2.303 . S
O19 C2 1.257 . S
C20 O10 1.236 . S
C20 O11 1.257 . S
O21 Tb0 2.415 . S
O21 C9 1.239 . S
O22 Tb0 2.399 . S
O22 C9 1.263 . S
C23 O12 1.264 . S
C23 O13 1.257 1_545 S
C24 C27 1.358 . S
C24 C28 1.332 . S
C24 C30 1.504 . S
C25 C26 1.373 . S
C25 C29 1.308 . S
C26 C25 1.373 . S
C26 C27 1.429 . S
C26 H36 0.932 . S
C27 C24 1.358 . S
C27 C26 1.429 . S
C27 H37 0.930 . S
C28 C24 1.332 . S
C28 C29 1.394 . S
C28 H38 0.932 . S
C29 C25 1.308 . S
C29 C28 1.394 . S
C29 H39 0.929 . S
C30 Tb1 2.764 . S
C30 O14 1.239 . S
C30 O15 1.263 . S
C30 C24 1.504 . S
C31 O16 1.236 . S
C31 O17 1.257 . S
H32 C5 0.932 . S
H33 C6 0.930 . S
H34 C7 0.932 . S
H35 C8 0.929 . S
H36 C26 0.932 . S
H37 C27 0.930 . S
H38 C28 0.932 . S
H39 C29 0.929 . S
Tb40 C49 2.764 . S
Tb40 O50 2.325 . S
Tb40 O53 2.303 . S
Tb40 O57 2.322 1_455 S
Tb40 O58 2.349 . S
Tb40 O61 2.415 . S
Tb40 O62 2.399 . S
Tb41 O51 2.322 1_655 S
Tb41 O52 2.349 1_655 S
Tb41 O54 2.415 . S
Tb41 O55 2.399 . S
Tb41 O56 2.325 . S
Tb41 O59 2.303 1_655 S
Tb41 C70 2.764 . S
C42 O58 1.261 . S
C42 O59 1.257 . S
C43 C46 1.358 . S
C43 C47 1.332 . S
C43 C49 1.504 . S
C44 C45 1.373 . S
C44 C48 1.308 . S
C45 C44 1.373 . S
C45 C46 1.429 . S
C45 H72 0.932 . S
C46 C43 1.358 . S
C46 C45 1.429 . S
C46 H73 0.930 . S
C47 C43 1.332 . S
C47 C48 1.394 . S
C47 H74 0.932 . S
C48 C44 1.308 . S
C48 C47 1.394 . S
C48 H75 0.929 . S
C49 Tb40 2.764 . S
C49 C43 1.504 . S
C49 O61 1.239 . S
C49 O62 1.263 . S
O50 Tb40 2.325 . S
O50 C60 1.236 . S
O51 Tb41 2.322 1_455 S
O51 C60 1.257 . S
O52 Tb41 2.349 1_455 S
O52 C63 1.261 . S
O53 Tb40 2.303 . S
O53 C63 1.257 . S
O54 Tb41 2.415 . S
O54 C70 1.239 . S
O55 Tb41 2.399 . S
O55 C70 1.263 . S
O56 Tb41 2.325 . S
O56 C71 1.236 . S
O57 Tb40 2.322 1_655 S
O57 C71 1.257 . S
O58 Tb40 2.349 . S
O58 C42 1.261 . S
O59 Tb41 2.303 1_455 S
O59 C42 1.257 . S
C60 O50 1.236 . S
C60 O51 1.257 . S
O61 Tb40 2.415 . S
O61 C49 1.239 . S
O62 Tb40 2.399 . S
O62 C49 1.263 . S
C63 O52 1.261 . S
C63 O53 1.257 . S
C64 C67 1.358 . S
C64 C68 1.332 . S
C64 C70 1.504 . S
C65 C66 1.373 . S
C65 C69 1.308 . S
C66 C65 1.373 . S
C66 C67 1.429 . S
C66 H76 0.932 . S
C67 C64 1.358 . S
C67 C66 1.429 . S
C67 H77 0.930 . S
C68 C64 1.332 . S
C68 C69 1.394 . S
C68 H78 0.932 . S
C69 C65 1.308 . S
C69 C68 1.394 . S
C69 H79 0.929 . S
C70 Tb41 2.764 . S
C70 O54 1.239 . S
C70 O55 1.263 . S
C70 C64 1.504 . S
C71 O56 1.236 . S
C71 O57 1.257 . S
H72 C45 0.932 . S
H73 C46 0.930 . S
H74 C47 0.932 . S
H75 C48 0.929 . S
H76 C66 0.932 . S
H77 C67 0.930 . S
H78 C68 0.932 . S
H79 C69 0.929 . S
Tb80 C89 2.764 . S
Tb80 O90 2.325 . S
Tb80 O93 2.303 . S
Tb80 O97 2.322 . S
Tb80 O98 2.349 . S
Tb80 O101 2.415 . S
Tb80 O102 2.399 . S
Tb81 O91 2.322 . S
Tb81 O92 2.349 . S
Tb81 O94 2.415 . S
Tb81 O95 2.399 . S
Tb81 O96 2.325 . S
Tb81 O99 2.303 . S
Tb81 C110 2.764 . S
C82 O98 1.261 . S
C82 O99 1.257 . S
C83 C86 1.358 . S
C83 C87 1.332 . S
C83 C89 1.504 . S
C84 C85 1.373 . S
C84 C88 1.308 . S
C85 C84 1.373 . S
C85 C86 1.429 . S
C85 H112 0.932 . S
C86 C83 1.358 . S
C86 C85 1.429 . S
C86 H113 0.930 . S
C87 C83 1.332 . S
C87 C88 1.394 . S
C87 H114 0.932 . S
C88 C84 1.308 . S
C88 C87 1.394 . S
C88 H115 0.929 . S
C89 Tb80 2.764 . S
C89 C83 1.504 . S
C89 O101 1.239 . S
C89 O102 1.263 . S
O90 Tb80 2.325 . S
O90 C100 1.236 . S
O91 Tb81 2.322 . S
O91 C100 1.257 . S
O92 Tb81 2.349 . S
O92 C103 1.261 . S
O93 Tb80 2.303 . S
O93 C103 1.257 . S
O94 Tb81 2.415 . S
O94 C110 1.239 . S
O95 Tb81 2.399 . S
O95 C110 1.263 . S
O96 Tb81 2.325 . S
O96 C111 1.236 . S
O97 Tb80 2.322 . S
O97 C111 1.257 . S
O98 Tb80 2.349 . S
O98 C82 1.261 . S
O99 Tb81 2.303 . S
O99 C82 1.257 . S
C100 O90 1.236 . S
C100 O91 1.257 . S
O101 Tb80 2.415 . S
O101 C89 1.239 . S
O102 Tb80 2.399 . S
O102 C89 1.263 . S
C103 O92 1.261 . S
C103 O93 1.257 . S
C104 C107 1.358 . S
C104 C108 1.332 . S
C104 C110 1.504 . S
C105 C106 1.373 . S
C105 C109 1.308 . S
C106 C105 1.373 . S
C106 C107 1.429 . S
C106 H116 0.932 . S
C107 C104 1.358 . S
C107 C106 1.429 . S
C107 H117 0.930 . S
C108 C104 1.332 . S
C108 C109 1.394 . S
C108 H118 0.932 . S
C109 C105 1.308 . S
C109 C108 1.394 . S
C109 H119 0.929 . S
C110 Tb81 2.764 . S
C110 O94 1.239 . S
C110 O95 1.263 . S
C110 C104 1.504 . S
C111 O96 1.236 . S
C111 O97 1.257 . S
H112 C85 0.932 . S
H113 C86 0.930 . S
H114 C87 0.932 . S
H115 C88 0.929 . S
H116 C106 0.932 . S
H117 C107 0.930 . S
H118 C108 0.932 . S
H119 C109 0.929 . S
Tb120 C129 2.764 . S
Tb120 O130 2.325 . S
Tb120 O133 2.303 . S
Tb120 O137 2.322 1_655 S
Tb120 O138 2.349 . S
Tb120 O141 2.415 . S
Tb120 O142 2.399 . S
Tb121 O131 2.322 1_455 S
Tb121 O132 2.349 . S
Tb121 O134 2.415 . S
Tb121 O135 2.399 . S
Tb121 O136 2.325 . S
Tb121 O139 2.303 . S
Tb121 C150 2.764 . S
C122 O138 1.261 1_455 S
C122 O139 1.257 . S
C123 C126 1.358 . S
C123 C127 1.332 . S
C123 C129 1.504 . S
C124 C125 1.373 . S
C124 C128 1.308 . S
C125 C124 1.373 . S
C125 C126 1.429 . S
C125 H152 0.932 . S
C126 C123 1.358 . S
C126 C125 1.429 . S
C126 H153 0.930 . S
C127 C123 1.332 . S
C127 C128 1.394 . S
C127 H154 0.932 . S
C128 C124 1.308 . S
C128 C127 1.394 . S
C128 H155 0.929 . S
C129 Tb120 2.764 . S
C129 C123 1.504 . S
C129 O141 1.239 . S
C129 O142 1.263 . S
O130 Tb120 2.325 . S
O130 C140 1.236 . S
O131 Tb121 2.322 1_655 S
O131 C140 1.257 . S
O132 Tb121 2.349 . S
O132 C143 1.264 . S
O133 Tb120 2.303 . S
O133 C143 1.257 1_655 S
O134 Tb121 2.415 . S
O134 C150 1.239 . S
O135 Tb121 2.399 . S
O135 C150 1.263 . S
O136 Tb121 2.325 . S
O136 C151 1.236 . S
O137 Tb120 2.322 1_455 S
O137 C151 1.257 . S
O138 Tb120 2.349 . S
O138 C122 1.261 1_655 S
O139 Tb121 2.303 . S
O139 C122 1.257 . S
C140 O130 1.236 . S
C140 O131 1.257 . S
O141 Tb120 2.415 . S
O141 C129 1.239 . S
O142 Tb120 2.399 . S
O142 C129 1.263 . S
C143 O132 1.264 . S
C143 O133 1.257 1_455 S
C144 C147 1.358 . S
C144 C148 1.332 . S
C144 C150 1.504 . S
C145 C146 1.373 . S
C145 C149 1.308 . S
C146 C145 1.373 . S
C146 C147 1.429 . S
C146 H156 0.932 . S
C147 C144 1.358 . S
C147 C146 1.429 . S
C147 H157 0.930 . S
C148 C144 1.332 . S
C148 C149 1.394 . S
C148 H158 0.932 . S
C149 C145 1.308 . S
C149 C148 1.394 . S
C149 H159 0.929 . S
C150 Tb121 2.764 . S
C150 O134 1.239 . S
C150 O135 1.263 . S
C150 C144 1.504 . S
C151 O136 1.236 . S
C151 O137 1.257 . S
H152 C125 0.932 . S
H153 C126 0.930 . S
H154 C127 0.932 . S
H155 C128 0.929 . S
H156 C146 0.932 . S
H157 C147 0.930 . S
H158 C148 0.932 . S
H159 C149 0.929 . S
Tb160 C169 2.764 . S
Tb160 O170 2.325 . S
Tb160 O173 2.303 . S
Tb160 O177 2.322 . S
Tb160 O178 2.349 . S
Tb160 O181 2.415 . S
Tb160 O182 2.399 . S
Tb161 O171 2.322 . S
Tb161 O172 2.349 . S
Tb161 O174 2.415 . S
Tb161 O175 2.399 . S
Tb161 O176 2.325 . S
Tb161 O179 2.303 . S
Tb161 C190 2.764 . S
C162 O178 1.261 . S
C162 O179 1.257 . S
C163 C166 1.358 . S
C163 C167 1.332 . S
C163 C169 1.504 . S
C164 C165 1.373 . S
C164 C168 1.308 . S
C165 C164 1.373 . S
C165 C166 1.429 . S
C165 H192 0.932 . S
C166 C163 1.358 . S
C166 C165 1.429 . S
C166 H193 0.930 . S
C167 C163 1.332 . S
C167 C168 1.394 . S
C167 H194 0.932 . S
C168 C164 1.308 . S
C168 C167 1.394 . S
C168 H195 0.929 . S
C169 Tb160 2.764 . S
C169 C163 1.504 . S
C169 O181 1.239 . S
C169 O182 1.263 . S
O170 Tb160 2.325 . S
O170 C180 1.236 . S
O171 Tb161 2.322 . S
O171 C180 1.257 . S
O172 Tb161 2.349 . S
O172 C183 1.261 . S
O173 Tb160 2.303 . S
O173 C183 1.257 . S
O174 Tb161 2.415 . S
O174 C190 1.239 . S
O175 Tb161 2.399 . S
O175 C190 1.263 . S
O176 Tb161 2.325 . S
O176 C191 1.236 . S
O177 Tb160 2.322 . S
O177 C191 1.257 . S
O178 Tb160 2.349 . S
O178 C162 1.261 . S
O179 Tb161 2.303 . S
O179 C162 1.257 . S
C180 O170 1.236 . S
C180 O171 1.257 . S
O181 Tb160 2.415 . S
O181 C169 1.239 . S
O182 Tb160 2.399 . S
O182 C169 1.263 . S
C183 O172 1.261 . S
C183 O173 1.257 . S
C184 C187 1.358 . S
C184 C188 1.332 . S
C184 C190 1.504 . S
C185 C186 1.373 . S
C185 C189 1.308 . S
C186 C185 1.373 . S
C186 C187 1.429 . S
C186 H196 0.932 . S
C187 C184 1.358 . S
C187 C186 1.429 . S
C187 H197 0.930 . S
C188 C184 1.332 . S
C188 C189 1.394 . S
C188 H198 0.932 . S
C189 C185 1.308 . S
C189 C188 1.394 . S
C189 H199 0.929 . S
C190 Tb161 2.764 . S
C190 O174 1.239 . S
C190 O175 1.263 . S
C190 C184 1.504 . S
C191 O176 1.236 . S
C191 O177 1.257 . S
H192 C165 0.932 . S
H193 C166 0.930 . S
H194 C167 0.932 . S
H195 C168 0.929 . S
H196 C186 0.932 . S
H197 C187 0.930 . S
H198 C188 0.932 . S
H199 C189 0.929 . S
Tb200 C209 2.764 . S
Tb200 O210 2.325 . S
Tb200 O213 2.303 . S
Tb200 O217 2.322 1_545 S
Tb200 O218 2.349 . S
Tb200 O221 2.415 . S
Tb200 O222 2.399 . S
Tb201 O211 2.322 1_565 S
Tb201 O212 2.349 1_565 S
Tb201 O214 2.415 . S
Tb201 O215 2.399 . S
Tb201 O216 2.325 . S
Tb201 O219 2.303 1_565 S
Tb201 C230 2.764 . S
C202 O218 1.261 . S
C202 O219 1.257 . S
C203 C206 1.358 . S
C203 C207 1.332 . S
C203 C209 1.504 . S
C204 C205 1.373 . S
C204 C208 1.308 . S
C205 C204 1.373 . S
C205 C206 1.429 . S
C205 H232 0.932 . S
C206 C203 1.358 . S
C206 C205 1.429 . S
C206 H233 0.930 . S
C207 C203 1.332 . S
C207 C208 1.394 . S
C207 H234 0.932 . S
C208 C204 1.308 . S
C208 C207 1.394 . S
C208 H235 0.929 . S
C209 Tb200 2.764 . S
C209 C203 1.504 . S
C209 O221 1.239 . S
C209 O222 1.263 . S
O210 Tb200 2.325 . S
O210 C220 1.236 . S
O211 Tb201 2.322 1_545 S
O211 C220 1.257 . S
O212 Tb201 2.349 1_545 S
O212 C223 1.261 . S
O213 Tb200 2.303 . S
O213 C223 1.257 . S
O214 Tb201 2.415 . S
O214 C230 1.239 . S
O215 Tb201 2.399 . S
O215 C230 1.263 . S
O216 Tb201 2.325 . S
O216 C231 1.236 . S
O217 Tb200 2.322 1_565 S
O217 C231 1.257 . S
O218 Tb200 2.349 . S
O218 C202 1.261 . S
O219 Tb201 2.303 1_545 S
O219 C202 1.257 . S
C220 O210 1.236 . S
C220 O211 1.257 . S
O221 Tb200 2.415 . S
O221 C209 1.239 . S
O222 Tb200 2.399 . S
O222 C209 1.263 . S
C223 O212 1.261 . S
C223 O213 1.257 . S
C224 C227 1.358 . S
C224 C228 1.332 . S
C224 C230 1.504 . S
C225 C226 1.373 . S
C225 C229 1.308 . S
C226 C225 1.373 . S
C226 C227 1.429 . S
C226 H236 0.932 . S
C227 C224 1.358 . S
C227 C226 1.429 . S
C227 H237 0.930 . S
C228 C224 1.332 . S
C228 C229 1.394 . S
C228 H238 0.932 . S
C229 C225 1.308 . S
C229 C228 1.394 . S
C229 H239 0.929 . S
C230 Tb201 2.764 . S
C230 O214 1.239 . S
C230 O215 1.263 . S
C230 C224 1.504 . S
C231 O216 1.236 . S
C231 O217 1.257 . S
H232 C205 0.932 . S
H233 C206 0.930 . S
H234 C207 0.932 . S
H235 C208 0.929 . S
H236 C226 0.932 . S
H237 C227 0.930 . S
H238 C228 0.932 . S
H239 C229 0.929 . S
Tb240 C249 2.764 . S
Tb240 O250 2.325 . S
Tb240 O253 2.303 . S
Tb240 O257 2.322 . S
Tb240 O258 2.349 . S
Tb240 O261 2.415 . S
Tb240 O262 2.399 . S
Tb241 O251 2.322 . S
Tb241 O252 2.349 . S
Tb241 O254 2.415 . S
Tb241 O255 2.399 . S
Tb241 O256 2.325 . S
Tb241 O259 2.303 . S
Tb241 C270 2.764 . S
C242 O258 1.261 . S
C242 O259 1.257 . S
C243 C246 1.358 . S
C243 C247 1.332 . S
C243 C249 1.504 1_655 S
C244 C245 1.373 . S
C244 C248 1.308 . S
C245 C244 1.373 . S
C245 C246 1.429 . S
C245 H272 0.932 . S
C246 C243 1.358 . S
C246 C245 1.429 . S
C246 H273 0.930 . S
C247 C243 1.332 . S
C247 C248 1.394 . S
C247 H274 0.932 . S
C248 C244 1.308 . S
C248 C247 1.394 . S
C248 H275 0.929 . S
C249 Tb240 2.764 . S
C249 C243 1.504 1_455 S
C249 O261 1.239 . S
C249 O262 1.263 . S
O250 Tb240 2.325 . S
O250 C260 1.236 . S
O251 Tb241 2.322 . S
O251 C260 1.257 . S
O252 Tb241 2.349 . S
O252 C263 1.261 . S
O253 Tb240 2.303 . S
O253 C263 1.257 . S
O254 Tb241 2.415 . S
O254 C270 1.239 . S
O255 Tb241 2.399 . S
O255 C270 1.263 . S
O256 Tb241 2.325 . S
O256 C271 1.236 . S
O257 Tb240 2.322 . S
O257 C271 1.257 . S
O258 Tb240 2.349 . S
O258 C242 1.261 . S
O259 Tb241 2.303 . S
O259 C242 1.257 . S
C260 O250 1.236 . S
C260 O251 1.257 . S
O261 Tb240 2.415 . S
O261 C249 1.239 . S
O262 Tb240 2.399 . S
O262 C249 1.263 . S
C263 O252 1.261 . S
C263 O253 1.257 . S
C264 C267 1.358 . S
C264 C268 1.332 . S
C264 C270 1.504 . S
C265 C266 1.373 . S
C265 C269 1.308 . S
C266 C265 1.373 . S
C266 C267 1.429 . S
C266 H276 0.932 . S
C267 C264 1.358 . S
C267 C266 1.429 . S
C267 H277 0.930 . S
C268 C264 1.332 . S
C268 C269 1.394 . S
C268 H278 0.932 . S
C269 C265 1.308 . S
C269 C268 1.394 . S
C269 H279 0.929 . S
C270 Tb241 2.764 . S
C270 O254 1.239 . S
C270 O255 1.263 . S
C270 C264 1.504 . S
C271 O256 1.236 . S
C271 O257 1.257 . S
H272 C245 0.932 . S
H273 C246 0.930 . S
H274 C247 0.932 . S
H275 C248 0.929 . S
H276 C266 0.932 . S
H277 C267 0.930 . S
H278 C268 0.932 . S
H279 C269 0.929 . S
Tb280 C289 2.764 . S
Tb280 O290 2.325 . S
Tb280 O293 2.303 . S
Tb280 O297 2.322 . S
Tb280 O298 2.349 . S
Tb280 O301 2.415 . S
Tb280 O302 2.399 . S
Tb281 O291 2.322 . S
Tb281 O292 2.349 . S
Tb281 O294 2.415 . S
Tb281 O295 2.399 . S
Tb281 O296 2.325 . S
Tb281 O299 2.303 . S
Tb281 C310 2.764 . S
C282 O298 1.261 . S
C282 O299 1.257 . S
C283 C286 1.358 . S
C283 C287 1.332 . S
C283 C289 1.504 . S
C284 C285 1.373 . S
C284 C288 1.308 . S
C285 C284 1.373 . S
C285 C286 1.429 . S
C285 H312 0.932 . S
C286 C283 1.358 . S
C286 C285 1.429 . S
C286 H313 0.930 . S
C287 C283 1.332 . S
C287 C288 1.394 . S
C287 H314 0.932 . S
C288 C284 1.308 . S
C288 C287 1.394 . S
C288 H315 0.929 . S
C289 Tb280 2.764 . S
C289 C283 1.504 . S
C289 O301 1.239 . S
C289 O302 1.263 . S
O290 Tb280 2.325 . S
O290 C300 1.236 . S
O291 Tb281 2.322 . S
O291 C300 1.257 . S
O292 Tb281 2.349 . S
O292 C303 1.261 . S
O293 Tb280 2.303 . S
O293 C303 1.257 . S
O294 Tb281 2.415 . S
O294 C310 1.239 . S
O295 Tb281 2.399 . S
O295 C310 1.263 . S
O296 Tb281 2.325 . S
O296 C311 1.236 . S
O297 Tb280 2.322 . S
O297 C311 1.257 . S
O298 Tb280 2.349 . S
O298 C282 1.261 . S
O299 Tb281 2.303 . S
O299 C282 1.257 . S
C300 O290 1.236 . S
C300 O291 1.257 . S
O301 Tb280 2.415 . S
O301 C289 1.239 . S
O302 Tb280 2.399 . S
O302 C289 1.263 . S
C303 O292 1.261 . S
C303 O293 1.257 . S
C304 C307 1.358 . S
C304 C308 1.332 . S
C304 C310 1.504 . S
C305 C306 1.373 . S
C305 C309 1.308 . S
C306 C305 1.373 . S
C306 C307 1.429 . S
C306 H316 0.932 . S
C307 C304 1.358 . S
C307 C306 1.429 . S
C307 H317 0.930 . S
C308 C304 1.332 . S
C308 C309 1.394 . S
C308 H318 0.932 . S
C309 C305 1.308 . S
C309 C308 1.394 . S
C309 H319 0.929 . S
C310 Tb281 2.764 . S
C310 O294 1.239 . S
C310 O295 1.263 . S
C310 C304 1.504 . S
C311 O296 1.236 . S
C311 O297 1.257 . S
H312 C285 0.932 . S
H313 C286 0.930 . S
H314 C287 0.932 . S
H315 C288 0.929 . S
H316 C306 0.932 . S
H317 C307 0.930 . S
H318 C308 0.932 . S
H319 C309 0.929 . S
Tb320 C329 2.764 1_565 S
Tb320 O330 2.325 . S
Tb320 O333 2.303 . S
Tb320 O337 2.322 . S
Tb320 O338 2.349 . S
Tb320 O341 2.415 1_565 S
Tb320 O342 2.399 1_565 S
Tb321 O331 2.322 . S
Tb321 O332 2.349 . S
Tb321 O334 2.415 . S
Tb321 O335 2.399 . S
Tb321 O336 2.325 . S
Tb321 O339 2.303 . S
Tb321 C350 2.764 . S
C322 O338 1.261 . S
C322 O339 1.257 . S
C323 C326 1.358 . S
C323 C327 1.332 . S
C323 C329 1.504 . S
C324 C325 1.373 . S
C324 C328 1.308 . S
C325 C324 1.373 . S
C325 C326 1.429 . S
C325 H352 0.932 . S
C326 C323 1.358 . S
C326 C325 1.429 . S
C326 H353 0.930 . S
C327 C323 1.332 . S
C327 C328 1.394 . S
C327 H354 0.932 . S
C328 C324 1.308 . S
C328 C327 1.394 . S
C328 H355 0.929 . S
C329 Tb320 2.764 1_545 S
C329 C323 1.504 . S
C329 O341 1.239 . S
C329 O342 1.263 . S
O330 Tb320 2.325 . S
O330 C340 1.236 . S
O331 Tb321 2.322 . S
O331 C340 1.257 . S
O332 Tb321 2.349 . S
O332 C343 1.261 . S
O333 Tb320 2.303 . S
O333 C343 1.257 . S
O334 Tb321 2.415 . S
O334 C350 1.239 . S
O335 Tb321 2.399 . S
O335 C350 1.263 . S
O336 Tb321 2.325 . S
O336 C351 1.236 . S
O337 Tb320 2.322 . S
O337 C351 1.257 . S
O338 Tb320 2.349 . S
O338 C322 1.261 . S
O339 Tb321 2.303 . S
O339 C322 1.257 . S
C340 O330 1.236 . S
C340 O331 1.257 . S
O341 Tb320 2.415 1_545 S
O341 C329 1.239 . S
O342 Tb320 2.399 1_545 S
O342 C329 1.263 . S
C343 O332 1.261 . S
C343 O333 1.257 . S
C344 C347 1.358 . S
C344 C348 1.332 . S
C344 C350 1.504 . S
C345 C346 1.373 . S
C345 C349 1.308 . S
C346 C345 1.373 . S
C346 C347 1.429 . S
C346 H356 0.932 . S
C347 C344 1.358 . S
C347 C346 1.429 . S
C347 H357 0.930 . S
C348 C344 1.332 . S
C348 C349 1.394 . S
C348 H358 0.932 . S
C349 C345 1.308 . S
C349 C348 1.394 . S
C349 H359 0.929 . S
C350 Tb321 2.764 . S
C350 O334 1.239 . S
C350 O335 1.263 . S
C350 C344 1.504 . S
C351 O336 1.236 . S
C351 O337 1.257 . S
H352 C325 0.932 . S
H353 C326 0.930 . S
H354 C327 0.932 . S
H355 C328 0.929 . S
H356 C346 0.932 . S
H357 C347 0.930 . S
H358 C348 0.932 . S
H359 C349 0.929 . S
Tb360 C369 2.764 . S
Tb360 O370 2.325 . S
Tb360 O373 2.303 . S
Tb360 O377 2.322 . S
Tb360 O378 2.349 . S
Tb360 O381 2.415 . S
Tb360 O382 2.399 . S
Tb361 O371 2.322 . S
Tb361 O372 2.349 . S
Tb361 O374 2.415 . S
Tb361 O375 2.399 . S
Tb361 O376 2.325 . S
Tb361 O379 2.303 . S
Tb361 C390 2.764 . S
C362 O378 1.261 . S
C362 O379 1.257 . S
C363 C366 1.358 . S
C363 C367 1.332 . S
C363 C369 1.504 . S
C364 C365 1.373 . S
C364 C368 1.308 . S
C365 C364 1.373 . S
C365 C366 1.429 . S
C365 H392 0.932 . S
C366 C363 1.358 . S
C366 C365 1.429 . S
C366 H393 0.930 . S
C367 C363 1.332 . S
C367 C368 1.394 . S
C367 H394 0.932 . S
C368 C364 1.308 . S
C368 C367 1.394 . S
C368 H395 0.929 . S
C369 Tb360 2.764 . S
C369 C363 1.504 . S
C369 O381 1.239 . S
C369 O382 1.263 . S
O370 Tb360 2.325 . S
O370 C380 1.236 . S
O371 Tb361 2.322 . S
O371 C380 1.257 . S
O372 Tb361 2.349 . S
O372 C383 1.261 . S
O373 Tb360 2.303 . S
O373 C383 1.257 . S
O374 Tb361 2.415 . S
O374 C390 1.239 . S
O375 Tb361 2.399 . S
O375 C390 1.263 . S
O376 Tb361 2.325 . S
O376 C391 1.236 . S
O377 Tb360 2.322 . S
O377 C391 1.257 . S
O378 Tb360 2.349 . S
O378 C362 1.261 . S
O379 Tb361 2.303 . S
O379 C362 1.257 . S
C380 O370 1.236 . S
C380 O371 1.257 . S
O381 Tb360 2.415 . S
O381 C369 1.239 . S
O382 Tb360 2.399 . S
O382 C369 1.263 . S
C383 O372 1.261 . S
C383 O373 1.257 . S
C384 C387 1.358 . S
C384 C388 1.332 . S
C384 C390 1.504 1_545 S
C385 C386 1.373 . S
C385 C389 1.308 . S
C386 C385 1.373 . S
C386 C387 1.429 . S
C386 H396 0.932 . S
C387 C384 1.358 . S
C387 C386 1.429 . S
C387 H397 0.930 . S
C388 C384 1.332 . S
C388 C389 1.394 . S
C388 H398 0.932 1_545 S
C389 C385 1.308 . S
C389 C388 1.394 . S
C389 H399 0.929 . S
C390 Tb361 2.764 . S
C390 O374 1.239 . S
C390 O375 1.263 . S
C390 C384 1.504 1_565 S
C391 O376 1.236 . S
C391 O377 1.257 . S
H392 C365 0.932 . S
H393 C366 0.930 . S
H394 C367 0.932 . S
H395 C368 0.929 . S
H396 C386 0.932 . S
H397 C387 0.930 . S
H398 C388 0.932 1_565 S
H399 C389 0.929 . S
Tb400 C409 2.764 . S
Tb400 O410 2.325 . S
Tb400 O413 2.303 . S
Tb400 O417 2.322 . S
Tb400 O418 2.349 . S
Tb400 O421 2.415 . S
Tb400 O422 2.399 . S
Tb401 O411 2.322 . S
Tb401 O412 2.349 . S
Tb401 O414 2.415 . S
Tb401 O415 2.399 . S
Tb401 O416 2.325 . S
Tb401 O419 2.303 . S
Tb401 C430 2.764 . S
C402 O418 1.261 . S
C402 O419 1.257 . S
C403 C406 1.358 . S
C403 C407 1.332 . S
C403 C409 1.504 . S
C404 C405 1.373 . S
C404 C408 1.308 . S
C405 C404 1.373 . S
C405 C406 1.429 . S
C405 H432 0.932 . S
C406 C403 1.358 . S
C406 C405 1.429 . S
C406 H433 0.930 . S
C407 C403 1.332 . S
C407 C408 1.394 . S
C407 H434 0.932 . S
C408 C404 1.308 . S
C408 C407 1.394 . S
C408 H435 0.929 . S
C409 Tb400 2.764 . S
C409 C403 1.504 . S
C409 O421 1.239 . S
C409 O422 1.263 . S
O410 Tb400 2.325 . S
O410 C420 1.236 . S
O411 Tb401 2.322 . S
O411 C420 1.257 . S
O412 Tb401 2.349 . S
O412 C423 1.261 . S
O413 Tb400 2.303 . S
O413 C423 1.257 . S
O414 Tb401 2.415 . S
O414 C430 1.239 . S
O415 Tb401 2.399 . S
O415 C430 1.263 . S
O416 Tb401 2.325 . S
O416 C431 1.236 . S
O417 Tb400 2.322 . S
O417 C431 1.257 . S
O418 Tb400 2.349 . S
O418 C402 1.261 . S
O419 Tb401 2.303 . S
O419 C402 1.257 . S
C420 O410 1.236 . S
C420 O411 1.257 . S
O421 Tb400 2.415 . S
O421 C409 1.239 . S
O422 Tb400 2.399 . S
O422 C409 1.263 . S
C423 O412 1.261 . S
C423 O413 1.257 . S
C424 C427 1.358 . S
C424 C428 1.332 . S
C424 C430 1.504 . S
C425 C426 1.373 . S
C425 C429 1.308 . S
C426 C425 1.373 . S
C426 C427 1.429 1_655 S
C426 H436 0.932 . S
C427 C424 1.358 . S
C427 C426 1.429 1_455 S
C427 H437 0.930 . S
C428 C424 1.332 . S
C428 C429 1.394 1_455 S
C428 H438 0.932 . S
C429 C425 1.308 . S
C429 C428 1.394 1_655 S
C429 H439 0.929 . S
C430 Tb401 2.764 . S
C430 O414 1.239 . S
C430 O415 1.263 . S
C430 C424 1.504 . S
C431 O416 1.236 . S
C431 O417 1.257 . S
H432 C405 0.932 . S
H433 C406 0.930 . S
H434 C407 0.932 . S
H435 C408 0.929 . S
H436 C426 0.932 . S
H437 C427 0.930 . S
H438 C428 0.932 . S
H439 C429 0.929 . S
Tb440 C449 2.764 . S
Tb440 O450 2.325 . S
Tb440 O453 2.303 . S
Tb440 O457 2.322 . S
Tb440 O458 2.349 . S
Tb440 O461 2.415 . S
Tb440 O462 2.399 . S
Tb441 O451 2.322 . S
Tb441 O452 2.349 . S
Tb441 O454 2.415 . S
Tb441 O455 2.399 . S
Tb441 O456 2.325 . S
Tb441 O459 2.303 . S
Tb441 C470 2.764 . S
C442 O458 1.261 . S
C442 O459 1.257 . S
C443 C446 1.358 . S
C443 C447 1.332 . S
C443 C449 1.504 . S
C444 C445 1.373 . S
C444 C448 1.308 . S
C445 C444 1.373 . S
C445 C446 1.429 . S
C445 H472 0.932 . S
C446 C443 1.358 . S
C446 C445 1.429 . S
C446 H473 0.930 . S
C447 C443 1.332 . S
C447 C448 1.394 . S
C447 H474 0.932 . S
C448 C444 1.308 . S
C448 C447 1.394 . S
C448 H475 0.929 . S
C449 Tb440 2.764 . S
C449 C443 1.504 . S
C449 O461 1.239 . S
C449 O462 1.263 . S
O450 Tb440 2.325 . S
O450 C460 1.236 . S
O451 Tb441 2.322 . S
O451 C460 1.257 . S
O452 Tb441 2.349 . S
O452 C463 1.261 . S
O453 Tb440 2.303 . S
O453 C463 1.257 . S
O454 Tb441 2.415 . S
O454 C470 1.239 . S
O455 Tb441 2.399 . S
O455 C470 1.263 . S
O456 Tb441 2.325 . S
O456 C471 1.236 . S
O457 Tb440 2.322 . S
O457 C471 1.257 . S
O458 Tb440 2.349 . S
O458 C442 1.261 . S
O459 Tb441 2.303 . S
O459 C442 1.257 . S
C460 O450 1.236 . S
C460 O451 1.257 . S
O461 Tb440 2.415 . S
O461 C449 1.239 . S
O462 Tb440 2.399 . S
O462 C449 1.263 . S
C463 O452 1.261 . S
C463 O453 1.257 . S
C464 C467 1.358 . S
C464 C468 1.332 . S
C464 C470 1.504 . S
C465 C466 1.373 . S
C465 C469 1.308 . S
C466 C465 1.373 . S
C466 C467 1.429 . S
C466 H476 0.932 . S
C467 C464 1.358 . S
C467 C466 1.429 . S
C467 H477 0.930 . S
C468 C464 1.332 . S
C468 C469 1.394 . S
C468 H478 0.932 . S
C469 C465 1.308 . S
C469 C468 1.394 . S
C469 H479 0.929 . S
C470 Tb441 2.764 . S
C470 O454 1.239 . S
C470 O455 1.263 . S
C470 C464 1.504 . S
C471 O456 1.236 . S
C471 O457 1.257 . S
H472 C445 0.932 . S
H473 C446 0.930 . S
H474 C447 0.932 . S
H475 C448 0.929 . S
H476 C466 0.932 . S
H477 C467 0.930 . S
H478 C468 0.932 . S
H479 C469 0.929 . S
Tb480 C489 2.764 . S
Tb480 O490 2.325 . S
Tb480 O493 2.303 . S
Tb480 O497 2.322 . S
Tb480 O498 2.349 . S
Tb480 O501 2.415 . S
Tb480 O502 2.399 . S
Tb481 O491 2.322 . S
Tb481 O492 2.349 . S
Tb481 O494 2.415 . S
Tb481 O495 2.399 . S
Tb481 O496 2.325 . S
Tb481 O499 2.303 . S
Tb481 C510 2.764 . S
C482 O498 1.261 . S
C482 O499 1.257 . S
C483 C486 1.358 . S
C483 C487 1.332 . S
C483 C489 1.504 . S
C484 C485 1.373 . S
C484 C488 1.308 . S
C485 C484 1.373 . S
C485 C486 1.429 . S
C485 H512 0.932 . S
C486 C483 1.358 . S
C486 C485 1.429 . S
C486 H513 0.930 . S
C487 C483 1.332 . S
C487 C488 1.394 . S
C487 H514 0.932 . S
C488 C484 1.308 . S
C488 C487 1.394 . S
C488 H515 0.929 . S
C489 Tb480 2.764 . S
C489 C483 1.504 . S
C489 O501 1.239 . S
C489 O502 1.263 . S
O490 Tb480 2.325 . S
O490 C500 1.236 . S
O491 Tb481 2.322 . S
O491 C500 1.257 . S
O492 Tb481 2.349 . S
O492 C503 1.261 . S
O493 Tb480 2.303 . S
O493 C503 1.257 . S
O494 Tb481 2.415 . S
O494 C510 1.239 . S
O495 Tb481 2.399 . S
O495 C510 1.263 . S
O496 Tb481 2.325 . S
O496 C511 1.236 . S
O497 Tb480 2.322 . S
O497 C511 1.257 . S
O498 Tb480 2.349 . S
O498 C482 1.261 . S
O499 Tb481 2.303 . S
O499 C482 1.257 . S
C500 O490 1.236 . S
C500 O491 1.257 . S
O501 Tb480 2.415 . S
O501 C489 1.239 . S
O502 Tb480 2.399 . S
O502 C489 1.263 . S
C503 O492 1.261 . S
C503 O493 1.257 . S
C504 C507 1.358 . S
C504 C508 1.332 . S
C504 C510 1.504 1_455 S
C505 C506 1.373 . S
C505 C509 1.308 . S
C506 C505 1.373 . S
C506 C507 1.429 . S
C506 H516 0.932 . S
C507 C504 1.358 . S
C507 C506 1.429 . S
C507 H517 0.930 . S
C508 C504 1.332 . S
C508 C509 1.394 . S
C508 H518 0.932 1_455 S
C509 C505 1.308 . S
C509 C508 1.394 . S
C509 H519 0.929 . S
C510 Tb481 2.764 . S
C510 O494 1.239 . S
C510 O495 1.263 . S
C510 C504 1.504 1_655 S
C511 O496 1.236 . S
C511 O497 1.257 . S
H512 C485 0.932 . S
H513 C486 0.930 . S
H514 C487 0.932 . S
H515 C488 0.929 . S
H516 C506 0.932 . S
H517 C507 0.930 . S
H518 C508 0.932 1_655 S
H519 C509 0.929 . S
Tb520 C529 2.764 . S
Tb520 O530 2.325 . S
Tb520 O533 2.303 . S
Tb520 O537 2.322 . S
Tb520 O538 2.349 . S
Tb520 O541 2.415 . S
Tb520 O542 2.399 . S
Tb521 O531 2.322 . S
Tb521 O532 2.349 . S
Tb521 O534 2.415 . S
Tb521 O535 2.399 . S
Tb521 O536 2.325 . S
Tb521 O539 2.303 . S
Tb521 C550 2.764 . S
C522 O538 1.261 . S
C522 O539 1.257 . S
C523 C526 1.358 . S
C523 C527 1.332 . S
C523 C529 1.504 . S
C524 C525 1.373 . S
C524 C528 1.308 . S
C525 C524 1.373 . S
C525 C526 1.429 . S
C525 H552 0.932 . S
C526 C523 1.358 . S
C526 C525 1.429 . S
C526 H553 0.930 . S
C527 C523 1.332 . S
C527 C528 1.394 . S
C527 H554 0.932 . S
C528 C524 1.308 . S
C528 C527 1.394 . S
C528 H555 0.929 . S
C529 Tb520 2.764 . S
C529 C523 1.504 . S
C529 O541 1.239 . S
C529 O542 1.263 . S
O530 Tb520 2.325 . S
O530 C540 1.236 . S
O531 Tb521 2.322 . S
O531 C540 1.257 . S
O532 Tb521 2.349 . S
O532 C543 1.261 . S
O533 Tb520 2.303 . S
O533 C543 1.257 . S
O534 Tb521 2.415 . S
O534 C550 1.239 . S
O535 Tb521 2.399 . S
O535 C550 1.263 . S
O536 Tb521 2.325 . S
O536 C551 1.236 . S
O537 Tb520 2.322 . S
O537 C551 1.257 . S
O538 Tb520 2.349 . S
O538 C522 1.261 . S
O539 Tb521 2.303 . S
O539 C522 1.257 . S
C540 O530 1.236 . S
C540 O531 1.257 . S
O541 Tb520 2.415 . S
O541 C529 1.239 . S
O542 Tb520 2.399 . S
O542 C529 1.263 . S
C543 O532 1.261 . S
C543 O533 1.257 . S
C544 C547 1.358 . S
C544 C548 1.332 . S
C544 C550 1.504 . S
C545 C546 1.373 . S
C545 C549 1.308 . S
C546 C545 1.373 . S
C546 C547 1.429 . S
C546 H556 0.932 . S
C547 C544 1.358 . S
C547 C546 1.429 . S
C547 H557 0.930 . S
C548 C544 1.332 . S
C548 C549 1.394 . S
C548 H558 0.932 . S
C549 C545 1.308 . S
C549 C548 1.394 . S
C549 H559 0.929 . S
C550 Tb521 2.764 . S
C550 O534 1.239 . S
C550 O535 1.263 . S
C550 C544 1.504 . S
C551 O536 1.236 . S
C551 O537 1.257 . S
H552 C525 0.932 . S
H553 C526 0.930 . S
H554 C527 0.932 . S
H555 C528 0.929 . S
H556 C546 0.932 . S
H557 C547 0.930 . S
H558 C548 0.932 . S
H559 C549 0.929 . S
Tb560 C569 2.764 . S
Tb560 O570 2.325 . S
Tb560 O573 2.303 . S
Tb560 O577 2.322 . S
Tb560 O578 2.349 . S
Tb560 O581 2.415 . S
Tb560 O582 2.399 . S
Tb561 O571 2.322 . S
Tb561 O572 2.349 . S
Tb561 O574 2.415 . S
Tb561 O575 2.399 . S
Tb561 O576 2.325 . S
Tb561 O579 2.303 . S
Tb561 C590 2.764 . S
C562 O578 1.261 . S
C562 O579 1.257 . S
C563 C566 1.358 . S
C563 C567 1.332 . S
C563 C569 1.504 . S
C564 C565 1.373 . S
C564 C568 1.308 . S
C565 C564 1.373 . S
C565 C566 1.429 . S
C565 H592 0.932 . S
C566 C563 1.358 . S
C566 C565 1.429 . S
C566 H593 0.930 . S
C567 C563 1.332 . S
C567 C568 1.394 . S
C567 H594 0.932 . S
C568 C564 1.308 . S
C568 C567 1.394 . S
C568 H595 0.929 . S
C569 Tb560 2.764 . S
C569 C563 1.504 . S
C569 O581 1.239 . S
C569 O582 1.263 . S
O570 Tb560 2.325 . S
O570 C580 1.236 . S
O571 Tb561 2.322 . S
O571 C580 1.257 . S
O572 Tb561 2.349 . S
O572 C583 1.261 . S
O573 Tb560 2.303 . S
O573 C583 1.257 . S
O574 Tb561 2.415 . S
O574 C590 1.239 . S
O575 Tb561 2.399 . S
O575 C590 1.263 . S
O576 Tb561 2.325 . S
O576 C591 1.236 . S
O577 Tb560 2.322 . S
O577 C591 1.257 . S
O578 Tb560 2.349 . S
O578 C562 1.261 . S
O579 Tb561 2.303 . S
O579 C562 1.257 . S
C580 O570 1.236 . S
C580 O571 1.257 . S
O581 Tb560 2.415 . S
O581 C569 1.239 . S
O582 Tb560 2.399 . S
O582 C569 1.263 . S
C583 O572 1.261 . S
C583 O573 1.257 . S
C584 C587 1.358 . S
C584 C588 1.332 . S
C584 C590 1.504 . S
C585 C586 1.373 . S
C585 C589 1.308 . S
C586 C585 1.373 . S
C586 C587 1.429 1_565 S
C586 H596 0.932 . S
C587 C584 1.358 . S
C587 C586 1.429 1_545 S
C587 H597 0.930 . S
C588 C584 1.332 . S
C588 C589 1.394 1_545 S
C588 H598 0.932 . S
C589 C585 1.308 . S
C589 C588 1.394 1_565 S
C589 H599 0.929 . S
C590 Tb561 2.764 . S
C590 O574 1.239 . S
C590 O575 1.263 . S
C590 C584 1.504 . S
C591 O576 1.236 . S
C591 O577 1.257 . S
H592 C565 0.932 . S
H593 C566 0.930 . S
H594 C567 0.932 . S
H595 C568 0.929 . S
H596 C586 0.932 . S
H597 C587 0.930 . S
H598 C588 0.932 . S
H599 C589 0.929 . S
Tb600 C609 2.764 . S
Tb600 O610 2.325 . S
Tb600 O613 2.303 . S
Tb600 O617 2.322 . S
Tb600 O618 2.349 . S
Tb600 O621 2.415 . S
Tb600 O622 2.399 . S
Tb601 O611 2.322 . S
Tb601 O612 2.349 . S
Tb601 O614 2.415 . S
Tb601 O615 2.399 . S
Tb601 O616 2.325 . S
Tb601 O619 2.303 . S
Tb601 C630 2.764 . S
C602 O618 1.261 . S
C602 O619 1.257 . S
C603 C606 1.358 . S
C603 C607 1.332 . S
C603 C609 1.504 1_565 S
C604 C605 1.373 . S
C604 C608 1.308 . S
C605 C604 1.373 . S
C605 C606 1.429 . S
C605 H632 0.932 . S
C606 C603 1.358 . S
C606 C605 1.429 . S
C606 H633 0.930 . S
C607 C603 1.332 . S
C607 C608 1.394 . S
C607 H634 0.932 . S
C608 C604 1.308 . S
C608 C607 1.394 . S
C608 H635 0.929 . S
C609 Tb600 2.764 . S
C609 C603 1.504 1_545 S
C609 O621 1.239 . S
C609 O622 1.263 . S
O610 Tb600 2.325 . S
O610 C620 1.236 . S
O611 Tb601 2.322 . S
O611 C620 1.257 . S
O612 Tb601 2.349 . S
O612 C623 1.261 . S
O613 Tb600 2.303 . S
O613 C623 1.257 . S
O614 Tb601 2.415 . S
O614 C630 1.239 . S
O615 Tb601 2.399 . S
O615 C630 1.263 . S
O616 Tb601 2.325 . S
O616 C631 1.236 . S
O617 Tb600 2.322 . S
O617 C631 1.257 . S
O618 Tb600 2.349 . S
O618 C602 1.261 . S
O619 Tb601 2.303 . S
O619 C602 1.257 . S
C620 O610 1.236 . S
C620 O611 1.257 . S
O621 Tb600 2.415 . S
O621 C609 1.239 . S
O622 Tb600 2.399 . S
O622 C609 1.263 . S
C623 O612 1.261 . S
C623 O613 1.257 . S
C624 C627 1.358 . S
C624 C628 1.332 . S
C624 C630 1.504 . S
C625 C626 1.373 . S
C625 C629 1.308 . S
C626 C625 1.373 . S
C626 C627 1.429 . S
C626 H636 0.932 . S
C627 C624 1.358 . S
C627 C626 1.429 . S
C627 H637 0.930 . S
C628 C624 1.332 . S
C628 C629 1.394 . S
C628 H638 0.932 . S
C629 C625 1.308 . S
C629 C628 1.394 . S
C629 H639 0.929 . S
C630 Tb601 2.764 . S
C630 O614 1.239 . S
C630 O615 1.263 . S
C630 C624 1.504 . S
C631 O616 1.236 . S
C631 O617 1.257 . S
H632 C605 0.932 . S
H633 C606 0.930 . S
H634 C607 0.932 . S
H635 C608 0.929 . S
H636 C626 0.932 . S
H637 C627 0.930 . S
H638 C628 0.932 . S
H639 C629 0.929 . S
Tb640 C649 2.764 1_655 S
Tb640 O650 2.325 . S
Tb640 O653 2.303 . S
Tb640 O657 2.322 . S
Tb640 O658 2.349 . S
Tb640 O661 2.415 1_655 S
Tb640 O662 2.399 1_655 S
Tb641 O651 2.322 . S
Tb641 O652 2.349 . S
Tb641 O654 2.415 . S
Tb641 O655 2.399 . S
Tb641 O656 2.325 . S
Tb641 O659 2.303 . S
Tb641 C670 2.764 . S
C642 O658 1.261 . S
C642 O659 1.257 . S
C643 C646 1.358 . S
C643 C647 1.332 . S
C643 C649 1.504 . S
C644 C645 1.373 . S
C644 C648 1.308 . S
C645 C644 1.373 . S
C645 C646 1.429 . S
C645 H672 0.932 . S
C646 C643 1.358 . S
C646 C645 1.429 . S
C646 H673 0.930 . S
C647 C643 1.332 . S
C647 C648 1.394 . S
C647 H674 0.932 . S
C648 C644 1.308 . S
C648 C647 1.394 . S
C648 H675 0.929 . S
C649 Tb640 2.764 1_455 S
C649 C643 1.504 . S
C649 O661 1.239 . S
C649 O662 1.263 . S
O650 Tb640 2.325 . S
O650 C660 1.236 . S
O651 Tb641 2.322 . S
O651 C660 1.257 . S
O652 Tb641 2.349 . S
O652 C663 1.261 . S
O653 Tb640 2.303 . S
O653 C663 1.257 . S
O654 Tb641 2.415 . S
O654 C670 1.239 . S
O655 Tb641 2.399 . S
O655 C670 1.263 . S
O656 Tb641 2.325 . S
O656 C671 1.236 . S
O657 Tb640 2.322 . S
O657 C671 1.257 . S
O658 Tb640 2.349 . S
O658 C642 1.261 . S
O659 Tb641 2.303 . S
O659 C642 1.257 . S
C660 O650 1.236 . S
C660 O651 1.257 . S
O661 Tb640 2.415 1_455 S
O661 C649 1.239 . S
O662 Tb640 2.399 1_455 S
O662 C649 1.263 . S
C663 O652 1.261 . S
C663 O653 1.257 . S
C664 C667 1.358 . S
C664 C668 1.332 . S
C664 C670 1.504 . S
C665 C666 1.373 . S
C665 C669 1.308 . S
C666 C665 1.373 . S
C666 C667 1.429 . S
C666 H676 0.932 . S
C667 C664 1.358 . S
C667 C666 1.429 . S
C667 H677 0.930 . S
C668 C664 1.332 . S
C668 C669 1.394 . S
C668 H678 0.932 . S
C669 C665 1.308 . S
C669 C668 1.394 . S
C669 H679 0.929 . S
C670 Tb641 2.764 . S
C670 O654 1.239 . S
C670 O655 1.263 . S
C670 C664 1.504 . S
C671 O656 1.236 . S
C671 O657 1.257 . S
H672 C645 0.932 . S
H673 C646 0.930 . S
H674 C647 0.932 . S
H675 C648 0.929 . S
H676 C666 0.932 . S
H677 C667 0.930 . S
H678 C668 0.932 . S
H679 C669 0.929 . S
Tb680 C689 2.764 . S
Tb680 O690 2.325 . S
Tb680 O693 2.303 . S
Tb680 O697 2.322 . S
Tb680 O698 2.349 . S
Tb680 O701 2.415 . S
Tb680 O702 2.399 . S
Tb681 O691 2.322 . S
Tb681 O692 2.349 . S
Tb681 O694 2.415 . S
Tb681 O695 2.399 . S
Tb681 O696 2.325 . S
Tb681 O699 2.303 . S
Tb681 C710 2.764 . S
C682 O698 1.261 . S
C682 O699 1.257 . S
C683 C686 1.358 . S
C683 C687 1.332 . S
C683 C689 1.504 . S
C684 C685 1.373 . S
C684 C688 1.308 . S
C685 C684 1.373 . S
C685 C686 1.429 . S
C685 H712 0.932 . S
C686 C683 1.358 . S
C686 C685 1.429 . S
C686 H713 0.930 . S
C687 C683 1.332 . S
C687 C688 1.394 . S
C687 H714 0.932 . S
C688 C684 1.308 . S
C688 C687 1.394 . S
C688 H715 0.929 . S
C689 Tb680 2.764 . S
C689 C683 1.504 . S
C689 O701 1.239 . S
C689 O702 1.263 . S
O690 Tb680 2.325 . S
O690 C700 1.236 . S
O691 Tb681 2.322 . S
O691 C700 1.257 . S
O692 Tb681 2.349 . S
O692 C703 1.261 . S
O693 Tb680 2.303 . S
O693 C703 1.257 . S
O694 Tb681 2.415 . S
O694 C710 1.239 . S
O695 Tb681 2.399 . S
O695 C710 1.263 . S
O696 Tb681 2.325 . S
O696 C711 1.236 . S
O697 Tb680 2.322 . S
O697 C711 1.257 . S
O698 Tb680 2.349 . S
O698 C682 1.261 . S
O699 Tb681 2.303 . S
O699 C682 1.257 . S
C700 O690 1.236 . S
C700 O691 1.257 . S
O701 Tb680 2.415 . S
O701 C689 1.239 . S
O702 Tb680 2.399 . S
O702 C689 1.263 . S
C703 O692 1.261 . S
C703 O693 1.257 . S
C704 C707 1.358 . S
C704 C708 1.332 . S
C704 C710 1.504 . S
C705 C706 1.373 . S
C705 C709 1.308 . S
C706 C705 1.373 . S
C706 C707 1.429 . S
C706 H716 0.932 . S
C707 C704 1.358 . S
C707 C706 1.429 . S
C707 H717 0.930 . S
C708 C704 1.332 . S
C708 C709 1.394 . S
C708 H718 0.932 . S
C709 C705 1.308 . S
C709 C708 1.394 . S
C709 H719 0.929 . S
C710 Tb681 2.764 . S
C710 O694 1.239 . S
C710 O695 1.263 . S
C710 C704 1.504 . S
C711 O696 1.236 . S
C711 O697 1.257 . S
H712 C685 0.932 . S
H713 C686 0.930 . S
H714 C687 0.932 . S
H715 C688 0.929 . S
H716 C706 0.932 . S
H717 C707 0.930 . S
H718 C708 0.932 . S
H719 C709 0.929 . S
C720 C721 1.369 . S
C720 C722 1.419 . S
C720 H724 0.930 . S
C721 C720 1.369 . S
C721 C730 1.429 . S
C722 C720 1.419 . S
C722 C723 1.363 . S
C722 H725 0.929 . S
C723 C722 1.363 . S
C723 C729 1.428 . S
H724 C720 0.930 . S
H725 C722 0.929 . S
S726 N727 1.613 . S
S726 N728 1.610 . S
N727 S726 1.613 . S
N727 C730 1.350 . S
N728 S726 1.610 . S
N728 C729 1.351 . S
C729 C723 1.428 . S
C729 N728 1.351 . S
C729 C730 1.434 . S
C730 C721 1.429 . S
C730 N727 1.350 . S
C730 C729 1.434 . S
C731 C732 1.369 . S
C731 C733 1.419 . S
C731 H735 0.930 . S
C732 C731 1.369 . S
C732 C741 1.429 . S
C733 C731 1.419 . S
C733 C734 1.363 . S
C733 H736 0.929 . S
C734 C733 1.363 . S
C734 C740 1.428 . S
H735 C731 0.930 . S
H736 C733 0.929 . S
S737 N738 1.613 . S
S737 N739 1.610 . S
N738 S737 1.613 . S
N738 C741 1.350 . S
N739 S737 1.610 . S
N739 C740 1.351 . S
C740 C734 1.428 . S
C740 N739 1.351 . S
C740 C741 1.434 . S
C741 C732 1.429 . S
C741 N738 1.350 . S
C741 C740 1.434 . S
C742 C743 1.369 . S
C742 C744 1.419 . S
C742 H746 0.930 . S
C743 C742 1.369 . S
C743 C752 1.429 . S
C744 C742 1.419 . S
C744 C745 1.363 . S
C744 H747 0.929 . S
C745 C744 1.363 . S
C745 C751 1.428 . S
H746 C742 0.930 . S
H747 C744 0.929 . S
S748 N749 1.613 . S
S748 N750 1.610 . S
N749 S748 1.613 . S
N749 C752 1.350 . S
N750 S748 1.610 . S
N750 C751 1.351 . S
C751 C745 1.428 . S
C751 N750 1.351 . S
C751 C752 1.434 . S
C752 C743 1.429 . S
C752 N749 1.350 . S
C752 C751 1.434 . S
C753 C754 1.369 . S
C753 C755 1.419 . S
C753 H757 0.930 . S
C754 C753 1.369 . S
C754 C763 1.429 . S
C755 C753 1.419 . S
C755 C756 1.363 . S
C755 H758 0.929 . S
C756 C755 1.363 . S
C756 C762 1.428 . S
H757 C753 0.930 . S
H758 C755 0.929 . S
S759 N760 1.613 . S
S759 N761 1.610 . S
N760 S759 1.613 . S
N760 C763 1.350 . S
N761 S759 1.610 . S
N761 C762 1.351 . S
C762 C756 1.428 . S
C762 N761 1.351 . S
C762 C763 1.434 . S
C763 C754 1.429 . S
C763 N760 1.350 . S
C763 C762 1.434 . S
C764 C765 1.369 . S
C764 C766 1.419 . S
C764 H768 0.930 . S
C765 C764 1.369 . S
C765 C774 1.429 . S
C766 C764 1.419 . S
C766 C767 1.363 . S
C766 H769 0.929 . S
C767 C766 1.363 . S
C767 C773 1.428 . S
H768 C764 0.930 . S
H769 C766 0.929 . S
S770 N771 1.613 . S
S770 N772 1.610 . S
N771 S770 1.613 . S
N771 C774 1.350 . S
N772 S770 1.610 . S
N772 C773 1.351 . S
C773 C767 1.428 . S
C773 N772 1.351 . S
C773 C774 1.434 . S
C774 C765 1.429 . S
C774 N771 1.350 . S
C774 C773 1.434 . S
C775 C776 1.369 . S
C775 C777 1.419 . S
C775 H779 0.930 . S
C776 C775 1.369 . S
C776 C785 1.429 . S
C777 C775 1.419 . S
C777 C778 1.363 . S
C777 H780 0.929 . S
C778 C777 1.363 . S
C778 C784 1.428 . S
H779 C775 0.930 . S
H780 C777 0.929 . S
S781 N782 1.613 . S
S781 N783 1.610 . S
N782 S781 1.613 . S
N782 C785 1.350 . S
N783 S781 1.610 . S
N783 C784 1.351 . S
C784 C778 1.428 . S
C784 N783 1.351 . S
C784 C785 1.434 . S
C785 C776 1.429 . S
C785 N782 1.350 . S
C785 C784 1.434 . S
C786 C787 1.369 . S
C786 C788 1.419 . S
C786 H790 0.930 . S
C787 C786 1.369 . S
C787 C796 1.429 . S
C788 C786 1.419 . S
C788 C789 1.363 . S
C788 H791 0.929 . S
C789 C788 1.363 . S
C789 C795 1.428 . S
H790 C786 0.930 . S
H791 C788 0.929 . S
S792 N793 1.613 . S
S792 N794 1.610 . S
N793 S792 1.613 . S
N793 C796 1.350 . S
N794 S792 1.610 . S
N794 C795 1.351 . S
C795 C789 1.428 . S
C795 N794 1.351 . S
C795 C796 1.434 . S
C796 C787 1.429 . S
C796 N793 1.350 . S
C796 C795 1.434 . S
C797 C798 1.369 . S
C797 C799 1.419 1_545 S
C797 H801 0.930 . S
C798 C797 1.369 . S
C798 C807 1.429 . S
C799 C797 1.419 1_565 S
C799 C800 1.363 . S
C799 H802 0.929 . S
C800 C799 1.363 . S
C800 C806 1.428 . S
H801 C797 0.930 . S
H802 C799 0.929 . S
S803 N804 1.613 . S
S803 N805 1.610 1_545 S
N804 S803 1.613 . S
N804 C807 1.350 . S
N805 S803 1.610 1_565 S
N805 C806 1.351 . S
C806 C800 1.428 . S
C806 N805 1.351 . S
C806 C807 1.434 1_565 S
C807 C798 1.429 . S
C807 N804 1.350 . S
C807 C806 1.434 1_545 S
C808 C809 1.369 . S
C808 C810 1.419 . S
C808 H812 0.930 . S
C809 C808 1.369 . S
C809 C818 1.429 . S
C810 C808 1.419 . S
C810 C811 1.363 1_455 S
C810 H813 0.929 1_455 S
C811 C810 1.363 1_655 S
C811 C817 1.428 1_655 S
H812 C808 0.930 . S
H813 C810 0.929 1_655 S
S814 N815 1.613 . S
S814 N816 1.610 . S
N815 S814 1.613 . S
N815 C818 1.350 . S
N816 S814 1.610 . S
N816 C817 1.351 . S
C817 C811 1.428 1_455 S
C817 N816 1.351 . S
C817 C818 1.434 . S
C818 C809 1.429 . S
C818 N815 1.350 . S
C818 C817 1.434 . S
C819 C820 1.369 . S
C819 C821 1.419 . S
C819 H823 0.930 . S
C820 C819 1.369 . S
C820 C829 1.429 . S
C821 C819 1.419 . S
C821 C822 1.363 . S
C821 H824 0.929 . S
C822 C821 1.363 . S
C822 C828 1.428 . S
H823 C819 0.930 . S
H824 C821 0.929 . S
S825 N826 1.613 . S
S825 N827 1.610 . S
N826 S825 1.613 . S
N826 C829 1.350 . S
N827 S825 1.610 . S
N827 C828 1.351 . S
C828 C822 1.428 . S
C828 N827 1.351 . S
C828 C829 1.434 . S
C829 C820 1.429 . S
C829 N826 1.350 . S
C829 C828 1.434 . S
C830 C831 1.369 . S
C830 C832 1.419 . S
C830 H834 0.930 . S
C831 C830 1.369 . S
C831 C840 1.429 . S
C832 C830 1.419 . S
C832 C833 1.363 . S
C832 H835 0.929 . S
C833 C832 1.363 . S
C833 C839 1.428 . S
H834 C830 0.930 . S
H835 C832 0.929 . S
S836 N837 1.613 . S
S836 N838 1.610 . S
N837 S836 1.613 . S
N837 C840 1.350 . S
N838 S836 1.610 . S
N838 C839 1.351 . S
C839 C833 1.428 . S
C839 N838 1.351 . S
C839 C840 1.434 . S
C840 C831 1.429 . S
C840 N837 1.350 . S
C840 C839 1.434 . S
C841 C842 1.369 . S
C841 C843 1.419 . S
C841 H845 0.930 . S
C842 C841 1.369 . S
C842 C851 1.429 . S
C843 C841 1.419 . S
C843 C844 1.363 . S
C843 H846 0.929 . S
C844 C843 1.363 . S
C844 C850 1.428 . S
H845 C841 0.930 . S
H846 C843 0.929 . S
S847 N848 1.613 . S
S847 N849 1.610 . S
N848 S847 1.613 . S
N848 C851 1.350 . S
N849 S847 1.610 . S
N849 C850 1.351 . S
C850 C844 1.428 . S
C850 N849 1.351 . S
C850 C851 1.434 . S
C851 C842 1.429 . S
C851 N848 1.350 . S
C851 C850 1.434 . S
C852 C853 1.369 . S
C852 C854 1.419 . S
C852 H856 0.930 . S
C853 C852 1.369 . S
C853 C862 1.429 . S
C854 C852 1.419 . S
C854 C855 1.363 . S
C854 H857 0.929 . S
C855 C854 1.363 . S
C855 C861 1.428 . S
H856 C852 0.930 . S
H857 C854 0.929 . S
S858 N859 1.613 . S
S858 N860 1.610 . S
N859 S858 1.613 . S
N859 C862 1.350 . S
N860 S858 1.610 . S
N860 C861 1.351 . S
C861 C855 1.428 . S
C861 N860 1.351 . S
C861 C862 1.434 . S
C862 C853 1.429 . S
C862 N859 1.350 . S
C862 C861 1.434 . S
C863 C864 1.369 . S
C863 C865 1.419 . S
C863 H867 0.930 . S
C864 C863 1.369 . S
C864 C873 1.429 . S
C865 C863 1.419 . S
C865 C866 1.363 . S
C865 H868 0.929 . S
C866 C865 1.363 . S
C866 C872 1.428 . S
H867 C863 0.930 . S
H868 C865 0.929 . S
S869 N870 1.613 . S
S869 N871 1.610 . S
N870 S869 1.613 . S
N870 C873 1.350 . S
N871 S869 1.610 . S
N871 C872 1.351 . S
C872 C866 1.428 . S
C872 N871 1.351 . S
C872 C873 1.434 . S
C873 C864 1.429 . S
C873 N870 1.350 . S
C873 C872 1.434 . S
C874 C875 1.369 . S
C874 C876 1.419 . S
C874 H878 0.930 . S
C875 C874 1.369 . S
C875 C884 1.429 . S
C876 C874 1.419 . S
C876 C877 1.363 . S
C876 H879 0.929 . S
C877 C876 1.363 . S
C877 C883 1.428 . S
H878 C874 0.930 . S
H879 C876 0.929 . S
S880 N881 1.613 . S
S880 N882 1.610 . S
N881 S880 1.613 . S
N881 C884 1.350 . S
N882 S880 1.610 . S
N882 C883 1.351 . S
C883 C877 1.428 . S
C883 N882 1.351 . S
C883 C884 1.434 . S
C884 C875 1.429 . S
C884 N881 1.350 . S
C884 C883 1.434 . S
C885 C886 1.369 . S
C885 C887 1.419 . S
C885 H889 0.930 . S
C886 C885 1.369 . S
C886 C895 1.429 . S
C887 C885 1.419 . S
C887 C888 1.363 . S
C887 H890 0.929 . S
C888 C887 1.363 . S
C888 C894 1.428 . S
H889 C885 0.930 . S
H890 C887 0.929 . S
S891 N892 1.613 . S
S891 N893 1.610 . S
N892 S891 1.613 . S
N892 C895 1.350 . S
N893 S891 1.610 . S
N893 C894 1.351 . S
C894 C888 1.428 . S
C894 N893 1.351 . S
C894 C895 1.434 . S
C895 C886 1.429 . S
C895 N892 1.350 . S
C895 C894 1.434 . S
C896 C897 1.369 1_545 S
C896 C898 1.419 . S
C896 H900 0.930 . S
C897 C896 1.369 1_565 S
C897 C906 1.429 1_565 S
C898 C896 1.419 . S
C898 C899 1.363 . S
C898 H901 0.929 . S
C899 C898 1.363 . S
C899 C905 1.428 . S
H900 C896 0.930 . S
H901 C898 0.929 . S
S902 N903 1.613 1_545 S
S902 N904 1.610 . S
N903 S902 1.613 1_565 S
N903 C906 1.350 1_565 S
N904 S902 1.610 . S
N904 C905 1.351 . S
C905 C899 1.428 . S
C905 N904 1.351 . S
C905 C906 1.434 . S
C906 C897 1.429 1_545 S
C906 N903 1.350 1_545 S
C906 C905 1.434 . S
C907 C908 1.369 . S
C907 C909 1.419 1_455 S
C907 H911 0.930 . S
C908 C907 1.369 . S
C908 C917 1.429 . S
C909 C907 1.419 1_655 S
C909 C910 1.363 . S
C909 H912 0.929 . S
C910 C909 1.363 . S
C910 C916 1.428 . S
H911 C907 0.930 . S
H912 C909 0.929 . S
S913 N914 1.613 . S
S913 N915 1.610 1_455 S
N914 S913 1.613 . S
N914 C917 1.350 . S
N915 S913 1.610 1_655 S
N915 C916 1.351 . S
C916 C910 1.428 . S
C916 N915 1.351 . S
C916 C917 1.434 1_655 S
C917 C908 1.429 . S
C917 N914 1.350 . S
C917 C916 1.434 1_455 S
C918 C919 1.369 1_565 S
C918 C920 1.419 1_554 S
C918 H922 0.930 . S
C919 C918 1.369 1_545 S
C919 C928 1.429 . S
C920 C918 1.419 1_556 S
C920 C921 1.363 1_565 S
C920 H923 0.929 . S
C921 C920 1.363 1_545 S
C921 C927 1.428 . S
H922 C918 0.930 . S
H923 C920 0.929 . S
S924 N925 1.613 1_556 S
S924 N926 1.610 . S
N925 S924 1.613 1_554 S
N925 C928 1.350 . S
N926 S924 1.610 . S
N926 C927 1.351 . S
C927 C921 1.428 . S
C927 N926 1.351 . S
C927 C928 1.434 1_556 S
C928 C919 1.429 . S
C928 N925 1.350 . S
C928 C927 1.434 1_554 S
C929 C930 1.369 . S
C929 C931 1.419 1_556 S
C929 H933 0.930 . S
C930 C929 1.369 . S
C930 C939 1.429 1_455 S
C931 C929 1.419 1_554 S
C931 C932 1.363 . S
C931 H934 0.929 . S
C932 C931 1.363 . S
C932 C938 1.428 1_455 S
H933 C929 0.930 . S
H934 C931 0.929 . S
S935 N936 1.613 . S
S935 N937 1.610 1_556 S
N936 S935 1.613 . S
N936 C939 1.350 . S
N937 S935 1.610 1_554 S
N937 C938 1.351 . S
C938 C932 1.428 1_655 S
C938 N937 1.351 . S
C938 C939 1.434 1_554 S
C939 C930 1.429 1_655 S
C939 N936 1.350 . S
C939 C938 1.434 1_556 S
C940 C941 1.369 . S
C940 C942 1.419 1_556 S
C940 H944 0.930 . S
C941 C940 1.369 . S
C941 C950 1.429 . S
C942 C940 1.419 1_554 S
C942 C943 1.363 . S
C942 H945 0.929 . S
C943 C942 1.363 . S
C943 C949 1.428 . S
H944 C940 0.930 . S
H945 C942 0.929 . S
S946 N947 1.613 1_554 S
S946 N948 1.610 . S
N947 S946 1.613 1_556 S
N947 C950 1.350 . S
N948 S946 1.610 . S
N948 C949 1.351 . S
C949 C943 1.428 . S
C949 N948 1.351 . S
C949 C950 1.434 1_554 S
C950 C941 1.429 . S
C950 N947 1.350 . S
C950 C949 1.434 1_556 S
C951 C952 1.369 . S
C951 C953 1.419 . S
C951 H955 0.930 . S
C952 C951 1.369 . S
C952 C961 1.429 . S
C953 C951 1.419 . S
C953 C954 1.363 . S
C953 H956 0.929 . S
C954 C953 1.363 . S
C954 C960 1.428 . S
H955 C951 0.930 . S
H956 C953 0.929 . S
S957 N958 1.613 . S
S957 N959 1.610 . S
N958 S957 1.613 . S
N958 C961 1.350 . S
N959 S957 1.610 . S
N959 C960 1.351 . S
C960 C954 1.428 . S
C960 N959 1.351 . S
C960 C961 1.434 . S
C961 C952 1.429 . S
C961 N958 1.350 . S
C961 C960 1.434 . S
C962 C963 1.369 . S
C962 C964 1.419 . S
C962 H966 0.930 . S
C963 C962 1.369 . S
C963 C972 1.429 . S
C964 C962 1.419 . S
C964 C965 1.363 . S
C964 H967 0.929 . S
C965 C964 1.363 . S
C965 C971 1.428 . S
H966 C962 0.930 . S
H967 C964 0.929 . S
S968 N969 1.613 . S
S968 N970 1.610 . S
N969 S968 1.613 . S
N969 C972 1.350 . S
N970 S968 1.610 . S
N970 C971 1.351 . S
C971 C965 1.428 . S
C971 N970 1.351 . S
C971 C972 1.434 . S
C972 C963 1.429 . S
C972 N969 1.350 . S
C972 C971 1.434 . S
C973 C974 1.369 . S
C973 C975 1.419 . S
C973 H977 0.930 . S
C974 C973 1.369 . S
C974 C983 1.429 . S
C975 C973 1.419 . S
C975 C976 1.363 . S
C975 H978 0.929 . S
C976 C975 1.363 . S
C976 C982 1.428 . S
H977 C973 0.930 . S
H978 C975 0.929 . S
S979 N980 1.613 . S
S979 N981 1.610 . S
N980 S979 1.613 . S
N980 C983 1.350 . S
N981 S979 1.610 . S
N981 C982 1.351 . S
C982 C976 1.428 . S
C982 N981 1.351 . S
C982 C983 1.434 . S
C983 C974 1.429 . S
C983 N980 1.350 . S
C983 C982 1.434 . S
C984 C985 1.369 . S
C984 C986 1.419 . S
C984 H988 0.930 . S
C985 C984 1.369 . S
C985 C994 1.429 . S
C986 C984 1.419 . S
C986 C987 1.363 . S
C986 H989 0.929 . S
C987 C986 1.363 . S
C987 C993 1.428 . S
H988 C984 0.930 . S
H989 C986 0.929 . S
S990 N991 1.613 . S
S990 N992 1.610 . S
N991 S990 1.613 . S
N991 C994 1.350 . S
N992 S990 1.610 . S
N992 C993 1.351 . S
C993 C987 1.428 . S
C993 N992 1.351 . S
C993 C994 1.434 . S
C994 C985 1.429 . S
C994 N991 1.350 . S
C994 C993 1.434 . S
C995 C996 1.369 . S
C995 C997 1.419 . S
C995 H999 0.930 . S
C996 C995 1.369 . S
C996 C1005 1.429 . S
C997 C995 1.419 . S
C997 C998 1.363 . S
C997 H1000 0.929 . S
C998 C997 1.363 . S
C998 C1004 1.428 . S
H999 C995 0.930 . S
H1000 C997 0.929 . S
S1001 N1002 1.613 . S
S1001 N1003 1.610 . S
N1002 S1001 1.613 . S
N1002 C1005 1.350 . S
N1003 S1001 1.610 . S
N1003 C1004 1.351 . S
C1004 C998 1.428 . S
C1004 N1003 1.351 . S
C1004 C1005 1.434 . S
C1005 C996 1.429 . S
C1005 N1002 1.350 . S
C1005 C1004 1.434 . S
C1006 C1007 1.369 . S
C1006 C1008 1.419 . S
C1006 H1010 0.930 . S
C1007 C1006 1.369 . S
C1007 C1016 1.429 . S
C1008 C1006 1.419 . S
C1008 C1009 1.363 . S
C1008 H1011 0.929 . S
C1009 C1008 1.363 . S
C1009 C1015 1.428 . S
H1010 C1006 0.930 . S
H1011 C1008 0.929 . S
S1012 N1013 1.613 . S
S1012 N1014 1.610 . S
N1013 S1012 1.613 . S
N1013 C1016 1.350 . S
N1014 S1012 1.610 . S
N1014 C1015 1.351 . S
C1015 C1009 1.428 . S
C1015 N1014 1.351 . S
C1015 C1016 1.434 . S
C1016 C1007 1.429 . S
C1016 N1013 1.350 . S
C1016 C1015 1.434 . S
C1017 C1018 1.369 . S
C1017 C1019 1.419 . S
C1017 H1021 0.930 . S
C1018 C1017 1.369 . S
C1018 C1027 1.429 . S
C1019 C1017 1.419 . S
C1019 C1020 1.363 . S
C1019 H1022 0.929 . S
C1020 C1019 1.363 . S
C1020 C1026 1.428 . S
H1021 C1017 0.930 . S
H1022 C1019 0.929 . S
S1023 N1024 1.613 1_545 S
S1023 N1025 1.610 . S
N1024 S1023 1.613 1_565 S
N1024 C1027 1.350 . S
N1025 S1023 1.610 . S
N1025 C1026 1.351 1_545 S
C1026 C1020 1.428 . S
C1026 N1025 1.351 1_565 S
C1026 C1027 1.434 . S
C1027 C1018 1.429 . S
C1027 N1024 1.350 . S
C1027 C1026 1.434 . S
C1028 C1029 1.369 . S
C1028 C1030 1.419 . S
C1028 H1032 0.930 . S
C1029 C1028 1.369 . S
C1029 C1038 1.429 . S
C1030 C1028 1.419 . S
C1030 C1031 1.363 . S
C1030 H1033 0.929 . S
C1031 C1030 1.363 . S
C1031 C1037 1.428 . S
H1032 C1028 0.930 . S
H1033 C1030 0.929 . S
S1034 N1035 1.613 . S
S1034 N1036 1.610 . S
N1035 S1034 1.613 . S
N1035 C1038 1.350 . S
N1036 S1034 1.610 . S
N1036 C1037 1.351 . S
C1037 C1031 1.428 . S
C1037 N1036 1.351 . S
C1037 C1038 1.434 . S
C1038 C1029 1.429 . S
C1038 N1035 1.350 . S
C1038 C1037 1.434 . S
C1039 C1040 1.369 . S
C1039 C1041 1.419 . S
C1039 H1043 0.930 . S
C1040 C1039 1.369 . S
C1040 C1049 1.429 . S
C1041 C1039 1.419 . S
C1041 C1042 1.363 . S
C1041 H1044 0.929 . S
C1042 C1041 1.363 . S
C1042 C1048 1.428 . S
H1043 C1039 0.930 . S
H1044 C1041 0.929 . S
S1045 N1046 1.613 . S
S1045 N1047 1.610 . S
N1046 S1045 1.613 . S
N1046 C1049 1.350 . S
N1047 S1045 1.610 . S
N1047 C1048 1.351 . S
C1048 C1042 1.428 . S
C1048 N1047 1.351 . S
C1048 C1049 1.434 . S
C1049 C1040 1.429 . S
C1049 N1046 1.350 . S
C1049 C1048 1.434 . S
C1050 C1051 1.369 . S
C1050 C1052 1.419 . S
C1050 H1054 0.930 . S
C1051 C1050 1.369 . S
C1051 C1060 1.429 . S
C1052 C1050 1.419 . S
C1052 C1053 1.363 . S
C1052 H1055 0.929 . S
C1053 C1052 1.363 . S
C1053 C1059 1.428 . S
H1054 C1050 0.930 . S
H1055 C1052 0.929 . S
S1056 N1057 1.613 . S
S1056 N1058 1.610 . S
N1057 S1056 1.613 . S
N1057 C1060 1.350 . S
N1058 S1056 1.610 . S
N1058 C1059 1.351 . S
C1059 C1053 1.428 . S
C1059 N1058 1.351 . S
C1059 C1060 1.434 . S
C1060 C1051 1.429 . S
C1060 N1057 1.350 . S
C1060 C1059 1.434 . S
C1061 C1062 1.369 . S
C1061 C1063 1.419 . S
C1061 H1065 0.930 . S
C1062 C1061 1.369 . S
C1062 C1071 1.429 . S
C1063 C1061 1.419 . S
C1063 C1064 1.363 . S
C1063 H1066 0.929 . S
C1064 C1063 1.363 . S
C1064 C1070 1.428 . S
H1065 C1061 0.930 . S
H1066 C1063 0.929 . S
S1067 N1068 1.613 . S
S1067 N1069 1.610 . S
N1068 S1067 1.613 . S
N1068 C1071 1.350 . S
N1069 S1067 1.610 . S
N1069 C1070 1.351 . S
C1070 C1064 1.428 . S
C1070 N1069 1.351 . S
C1070 C1071 1.434 . S
C1071 C1062 1.429 . S
C1071 N1068 1.350 . S
C1071 C1070 1.434 . S
C1072 C1073 1.369 . S
C1072 C1074 1.419 . S
C1072 H1076 0.930 . S
C1073 C1072 1.369 . S
C1073 C1082 1.429 . S
C1074 C1072 1.419 . S
C1074 C1075 1.363 . S
C1074 H1077 0.929 . S
C1075 C1074 1.363 . S
C1075 C1081 1.428 . S
H1076 C1072 0.930 . S
H1077 C1074 0.929 . S
S1078 N1079 1.613 . S
S1078 N1080 1.610 . S
N1079 S1078 1.613 . S
N1079 C1082 1.350 . S
N1080 S1078 1.610 . S
N1080 C1081 1.351 . S
C1081 C1075 1.428 . S
C1081 N1080 1.351 . S
C1081 C1082 1.434 . S
C1082 C1073 1.429 . S
C1082 N1079 1.350 . S
C1082 C1081 1.434 . S
C1083 C1084 1.369 . S
C1083 C1085 1.419 1_655 S
C1083 H1087 0.930 . S
C1084 C1083 1.369 . S
C1084 C1093 1.429 1_655 S
C1085 C1083 1.419 1_455 S
C1085 C1086 1.363 . S
C1085 H1088 0.929 . S
C1086 C1085 1.363 . S
C1086 C1092 1.428 . S
H1087 C1083 0.930 . S
H1088 C1085 0.929 . S
S1089 N1090 1.613 . S
S1089 N1091 1.610 . S
N1090 S1089 1.613 . S
N1090 C1093 1.350 . S
N1091 S1089 1.610 . S
N1091 C1092 1.351 . S
C1092 C1086 1.428 . S
C1092 N1091 1.351 . S
C1092 C1093 1.434 . S
C1093 C1084 1.429 1_455 S
C1093 N1090 1.350 . S
C1093 C1092 1.434 . S
C1094 C1095 1.369 . S
C1094 C1096 1.419 . S
C1094 H1098 0.930 . S
C1095 C1094 1.369 . S
C1095 C1104 1.429 . S
C1096 C1094 1.419 . S
C1096 C1097 1.363 . S
C1096 H1099 0.929 . S
C1097 C1096 1.363 . S
C1097 C1103 1.428 . S
H1098 C1094 0.930 . S
H1099 C1096 0.929 . S
S1100 N1101 1.613 . S
S1100 N1102 1.610 . S
N1101 S1100 1.613 . S
N1101 C1104 1.350 . S
N1102 S1100 1.610 . S
N1102 C1103 1.351 . S
C1103 C1097 1.428 . S
C1103 N1102 1.351 . S
C1103 C1104 1.434 . S
C1104 C1095 1.429 . S
C1104 N1101 1.350 . S
C1104 C1103 1.434 . S
C1105 C1106 1.369 1_545 S
C1105 C1107 1.419 . S
C1105 H1109 0.930 . S
C1106 C1105 1.369 1_565 S
C1106 C1115 1.429 . S
C1107 C1105 1.419 . S
C1107 C1108 1.363 . S
C1107 H1110 0.929 . S
C1108 C1107 1.363 . S
C1108 C1114 1.428 . S
H1109 C1105 0.930 . S
H1110 C1107 0.929 . S
S1111 N1112 1.613 . S
S1111 N1113 1.610 1_565 S
N1112 S1111 1.613 . S
N1112 C1115 1.350 . S
N1113 S1111 1.610 1_545 S
N1113 C1114 1.351 . S
C1114 C1108 1.428 . S
C1114 N1113 1.351 . S
C1114 C1115 1.434 1_545 S
C1115 C1106 1.429 . S
C1115 N1112 1.350 . S
C1115 C1114 1.434 1_565 S
C1116 C1117 1.369 . S
C1116 C1118 1.419 . S
C1116 H1120 0.930 . S
C1117 C1116 1.369 . S
C1117 C1126 1.429 . S
C1118 C1116 1.419 . S
C1118 C1119 1.363 . S
C1118 H1121 0.929 . S
C1119 C1118 1.363 . S
C1119 C1125 1.428 . S
H1120 C1116 0.930 . S
H1121 C1118 0.929 . S
S1122 N1123 1.613 . S
S1122 N1124 1.610 . S
N1123 S1122 1.613 . S
N1123 C1126 1.350 . S
N1124 S1122 1.610 . S
N1124 C1125 1.351 . S
C1125 C1119 1.428 . S
C1125 N1124 1.351 . S
C1125 C1126 1.434 . S
C1126 C1117 1.429 . S
C1126 N1123 1.350 . S
C1126 C1125 1.434 . S
C1127 C1128 1.369 . S
C1127 C1129 1.419 . S
C1127 H1131 0.930 . S
C1128 C1127 1.369 . S
C1128 C1137 1.429 . S
C1129 C1127 1.419 . S
C1129 C1130 1.363 . S
C1129 H1132 0.929 . S
C1130 C1129 1.363 . S
C1130 C1136 1.428 . S
H1131 C1127 0.930 . S
H1132 C1129 0.929 . S
S1133 N1134 1.613 . S
S1133 N1135 1.610 . S
N1134 S1133 1.613 . S
N1134 C1137 1.350 . S
N1135 S1133 1.610 . S
N1135 C1136 1.351 . S
C1136 C1130 1.428 . S
C1136 N1135 1.351 . S
C1136 C1137 1.434 . S
C1137 C1128 1.429 . S
C1137 N1134 1.350 . S
C1137 C1136 1.434 . S
C1138 C1139 1.369 . S
C1138 C1140 1.419 . S
C1138 H1142 0.930 . S
C1139 C1138 1.369 . S
C1139 C1148 1.429 . S
C1140 C1138 1.419 . S
C1140 C1141 1.363 . S
C1140 H1143 0.929 . S
C1141 C1140 1.363 . S
C1141 C1147 1.428 . S
H1142 C1138 0.930 . S
H1143 C1140 0.929 . S
S1144 N1145 1.613 . S
S1144 N1146 1.610 . S
N1145 S1144 1.613 . S
N1145 C1148 1.350 . S
N1146 S1144 1.610 . S
N1146 C1147 1.351 . S
C1147 C1141 1.428 . S
C1147 N1146 1.351 . S
C1147 C1148 1.434 . S
C1148 C1139 1.429 . S
C1148 N1145 1.350 . S
C1148 C1147 1.434 . S
C1149 C1150 1.369 . S
C1149 C1151 1.419 . S
C1149 H1153 0.930 . S
C1150 C1149 1.369 . S
C1150 C1159 1.429 . S
C1151 C1149 1.419 . S
C1151 C1152 1.363 . S
C1151 H1154 0.929 . S
C1152 C1151 1.363 . S
C1152 C1158 1.428 . S
H1153 C1149 0.930 . S
H1154 C1151 0.929 . S
S1155 N1156 1.613 . S
S1155 N1157 1.610 . S
N1156 S1155 1.613 . S
N1156 C1159 1.350 . S
N1157 S1155 1.610 . S
N1157 C1158 1.351 . S
C1158 C1152 1.428 . S
C1158 N1157 1.351 . S
C1158 C1159 1.434 . S
C1159 C1150 1.429 . S
C1159 N1156 1.350 . S
C1159 C1158 1.434 . S
C1160 C1161 1.369 . S
C1160 C1162 1.419 . S
C1160 H1164 0.930 . S
C1161 C1160 1.369 . S
C1161 C1170 1.429 . S
C1162 C1160 1.419 . S
C1162 C1163 1.363 . S
C1162 H1165 0.929 . S
C1163 C1162 1.363 . S
C1163 C1169 1.428 . S
H1164 C1160 0.930 . S
H1165 C1162 0.929 . S
S1166 N1167 1.613 . S
S1166 N1168 1.610 . S
N1167 S1166 1.613 . S
N1167 C1170 1.350 . S
N1168 S1166 1.610 . S
N1168 C1169 1.351 . S
C1169 C1163 1.428 . S
C1169 N1168 1.351 . S
C1169 C1170 1.434 . S
C1170 C1161 1.429 . S
C1170 N1167 1.350 . S
C1170 C1169 1.434 . S
C1171 C1172 1.369 . S
C1171 C1173 1.419 . S
C1171 H1175 0.930 . S
C1172 C1171 1.369 . S
C1172 C1181 1.429 . S
C1173 C1171 1.419 . S
C1173 C1174 1.363 . S
C1173 H1176 0.929 . S
C1174 C1173 1.363 . S
C1174 C1180 1.428 . S
H1175 C1171 0.930 . S
H1176 C1173 0.929 . S
S1177 N1178 1.613 . S
S1177 N1179 1.610 . S
N1178 S1177 1.613 . S
N1178 C1181 1.350 . S
N1179 S1177 1.610 . S
N1179 C1180 1.351 . S
C1180 C1174 1.428 . S
C1180 N1179 1.351 . S
C1180 C1181 1.434 . S
C1181 C1172 1.429 . S
C1181 N1178 1.350 . S
C1181 C1180 1.434 . S
C1182 C1183 1.369 . S
C1182 C1184 1.419 . S
C1182 H1186 0.930 . S
C1183 C1182 1.369 . S
C1183 C1192 1.429 . S
C1184 C1182 1.419 . S
C1184 C1185 1.363 . S
C1184 H1187 0.929 . S
C1185 C1184 1.363 . S
C1185 C1191 1.428 . S
H1186 C1182 0.930 . S
H1187 C1184 0.929 . S
S1188 N1189 1.613 . S
S1188 N1190 1.610 . S
N1189 S1188 1.613 . S
N1189 C1192 1.350 . S
N1190 S1188 1.610 . S
N1190 C1191 1.351 . S
C1191 C1185 1.428 . S
C1191 N1190 1.351 . S
C1191 C1192 1.434 . S
C1192 C1183 1.429 . S
C1192 N1189 1.350 . S
C1192 C1191 1.434 . S
C1193 C1194 1.369 . S
C1193 C1195 1.419 . S
C1193 H1197 0.930 . S
C1194 C1193 1.369 . S
C1194 C1203 1.429 . S
C1195 C1193 1.419 . S
C1195 C1196 1.363 . S
C1195 H1198 0.929 . S
C1196 C1195 1.363 . S
C1196 C1202 1.428 . S
H1197 C1193 0.930 . S
H1198 C1195 0.929 . S
S1199 N1200 1.613 . S
S1199 N1201 1.610 . S
N1200 S1199 1.613 . S
N1200 C1203 1.350 . S
N1201 S1199 1.610 . S
N1201 C1202 1.351 . S
C1202 C1196 1.428 . S
C1202 N1201 1.351 . S
C1202 C1203 1.434 . S
C1203 C1194 1.429 . S
C1203 N1200 1.350 . S
C1203 C1202 1.434 . S
C1204 C1205 1.369 . S
C1204 C1206 1.419 . S
C1204 H1208 0.930 . S
C1205 C1204 1.369 . S
C1205 C1214 1.429 . S
C1206 C1204 1.419 . S
C1206 C1207 1.363 . S
C1206 H1209 0.929 . S
C1207 C1206 1.363 . S
C1207 C1213 1.428 . S
H1208 C1204 0.930 . S
H1209 C1206 0.929 . S
S1210 N1211 1.613 . S
S1210 N1212 1.610 . S
N1211 S1210 1.613 . S
N1211 C1214 1.350 . S
N1212 S1210 1.610 . S
N1212 C1213 1.351 . S
C1213 C1207 1.428 . S
C1213 N1212 1.351 . S
C1213 C1214 1.434 . S
C1214 C1205 1.429 . S
C1214 N1211 1.350 . S
C1214 C1213 1.434 . S
C1215 C1216 1.369 . S
C1215 C1217 1.419 . S
C1215 H1219 0.930 . S
C1216 C1215 1.369 . S
C1216 C1225 1.429 . S
C1217 C1215 1.419 . S
C1217 C1218 1.363 . S
C1217 H1220 0.929 . S
C1218 C1217 1.363 . S
C1218 C1224 1.428 . S
H1219 C1215 0.930 . S
H1220 C1217 0.929 . S
S1221 N1222 1.613 . S
S1221 N1223 1.610 . S
N1222 S1221 1.613 . S
N1222 C1225 1.350 . S
N1223 S1221 1.610 . S
N1223 C1224 1.351 . S
C1224 C1218 1.428 . S
C1224 N1223 1.351 . S
C1224 C1225 1.434 . S
C1225 C1216 1.429 . S
C1225 N1222 1.350 . S
C1225 C1224 1.434 . S
C1226 C1227 1.369 . S
C1226 C1228 1.419 1_565 S
C1226 H1230 0.930 . S
C1227 C1226 1.369 . S
C1227 C1236 1.429 1_565 S
C1228 C1226 1.419 1_545 S
C1228 C1229 1.363 . S
C1228 H1231 0.929 . S
C1229 C1228 1.363 . S
C1229 C1235 1.428 . S
H1230 C1226 0.930 . S
H1231 C1228 0.929 . S
S1232 N1233 1.613 . S
S1232 N1234 1.610 . S
N1233 S1232 1.613 . S
N1233 C1236 1.350 . S
N1234 S1232 1.610 . S
N1234 C1235 1.351 . S
C1235 C1229 1.428 . S
C1235 N1234 1.351 . S
C1235 C1236 1.434 . S
C1236 C1227 1.429 1_545 S
C1236 N1233 1.350 . S
C1236 C1235 1.434 . S
C1237 C1238 1.369 1_455 S
C1237 C1239 1.419 . S
C1237 H1241 0.930 . S
C1238 C1237 1.369 1_655 S
C1238 C1247 1.429 . S
C1239 C1237 1.419 . S
C1239 C1240 1.363 . S
C1239 H1242 0.929 . S
C1240 C1239 1.363 . S
C1240 C1246 1.428 . S
H1241 C1237 0.930 . S
H1242 C1239 0.929 . S
S1243 N1244 1.613 . S
S1243 N1245 1.610 1_655 S
N1244 S1243 1.613 . S
N1244 C1247 1.350 . S
N1245 S1243 1.610 1_455 S
N1245 C1246 1.351 . S
C1246 C1240 1.428 . S
C1246 N1245 1.351 . S
C1246 C1247 1.434 1_455 S
C1247 C1238 1.429 . S
C1247 N1244 1.350 . S
C1247 C1246 1.434 1_655 S
C1248 C1249 1.369 . S
C1248 C1250 1.419 . S
C1248 H1252 0.930 . S
C1249 C1248 1.369 . S
C1249 C1258 1.429 . S
C1250 C1248 1.419 . S
C1250 C1251 1.363 . S
C1250 H1253 0.929 . S
C1251 C1250 1.363 . S
C1251 C1257 1.428 . S
H1252 C1248 0.930 . S
H1253 C1250 0.929 . S
S1254 N1255 1.613 . S
S1254 N1256 1.610 . S
N1255 S1254 1.613 . S
N1255 C1258 1.350 . S
N1256 S1254 1.610 . S
N1256 C1257 1.351 . S
C1257 C1251 1.428 . S
C1257 N1256 1.351 . S
C1257 C1258 1.434 . S
C1258 C1249 1.429 . S
C1258 N1255 1.350 . S
C1258 C1257 1.434 . S
C1259 C1260 1.369 . S
C1259 C1261 1.419 . S
C1259 H1263 0.930 . S
C1260 C1259 1.369 . S
C1260 C1269 1.429 1_545 S
C1261 C1259 1.419 . S
C1261 C1262 1.363 1_545 S
C1261 H1264 0.929 . S
C1262 C1261 1.363 1_565 S
C1262 C1268 1.428 . S
H1263 C1259 0.930 . S
H1264 C1261 0.929 . S
S1265 N1266 1.613 . S
S1265 N1267 1.610 . S
N1266 S1265 1.613 . S
N1266 C1269 1.350 . S
N1267 S1265 1.610 . S
N1267 C1268 1.351 . S
C1268 C1262 1.428 . S
C1268 N1267 1.351 . S
C1268 C1269 1.434 . S
C1269 C1260 1.429 1_565 S
C1269 N1266 1.350 . S
C1269 C1268 1.434 . S
C1270 C1271 1.369 . S
C1270 C1272 1.419 . S
C1270 H1274 0.930 . S
C1271 C1270 1.369 . S
C1271 C1280 1.429 . S
C1272 C1270 1.419 . S
C1272 C1273 1.363 1_455 S
C1272 H1275 0.929 . S
C1273 C1272 1.363 1_655 S
C1273 C1279 1.428 . S
H1274 C1270 0.930 . S
H1275 C1272 0.929 . S
S1276 N1277 1.613 . S
S1276 N1278 1.610 . S
N1277 S1276 1.613 . S
N1277 C1280 1.350 1_655 S
N1278 S1276 1.610 . S
N1278 C1279 1.351 . S
C1279 C1273 1.428 . S
C1279 N1278 1.351 . S
C1279 C1280 1.434 1_655 S
C1280 C1271 1.429 . S
C1280 N1277 1.350 1_455 S
C1280 C1279 1.434 1_455 S
C1281 C1282 1.369 . S
C1281 C1283 1.419 . S
C1281 H1285 0.930 . S
C1282 C1281 1.369 . S
C1282 C1291 1.429 . S
C1283 C1281 1.419 . S
C1283 C1284 1.363 . S
C1283 H1286 0.929 . S
C1284 C1283 1.363 . S
C1284 C1290 1.428 . S
H1285 C1281 0.930 . S
H1286 C1283 0.929 . S
S1287 N1288 1.613 . S
S1287 N1289 1.610 . S
N1288 S1287 1.613 . S
N1288 C1291 1.350 . S
N1289 S1287 1.610 . S
N1289 C1290 1.351 . S
C1290 C1284 1.428 . S
C1290 N1289 1.351 . S
C1290 C1291 1.434 . S
C1291 C1282 1.429 . S
C1291 N1288 1.350 . S
C1291 C1290 1.434 . S
C1292 C1293 1.369 . S
C1292 C1294 1.419 . S
C1292 H1296 0.930 . S
C1293 C1292 1.369 . S
C1293 C1302 1.429 . S
C1294 C1292 1.419 . S
C1294 C1295 1.363 . S
C1294 H1297 0.929 . S
C1295 C1294 1.363 . S
C1295 C1301 1.428 . S
H1296 C1292 0.930 . S
H1297 C1294 0.929 . S
S1298 N1299 1.613 . S
S1298 N1300 1.610 . S
N1299 S1298 1.613 . S
N1299 C1302 1.350 . S
N1300 S1298 1.610 . S
N1300 C1301 1.351 . S
C1301 C1295 1.428 . S
C1301 N1300 1.351 . S
C1301 C1302 1.434 . S
C1302 C1293 1.429 . S
C1302 N1299 1.350 . S
C1302 C1301 1.434 . S
C1303 C1304 1.369 . S
C1303 C1305 1.419 . S
C1303 H1307 0.930 . S
C1304 C1303 1.369 . S
C1304 C1313 1.429 . S
C1305 C1303 1.419 . S
C1305 C1306 1.363 . S
C1305 H1308 0.929 . S
C1306 C1305 1.363 . S
C1306 C1312 1.428 . S
H1307 C1303 0.930 . S
H1308 C1305 0.929 . S
S1309 N1310 1.613 . S
S1309 N1311 1.610 . S
N1310 S1309 1.613 . S
N1310 C1313 1.350 . S
N1311 S1309 1.610 . S
N1311 C1312 1.351 . S
C1312 C1306 1.428 . S
C1312 N1311 1.351 . S
C1312 C1313 1.434 . S
C1313 C1304 1.429 . S
C1313 N1310 1.350 . S
C1313 C1312 1.434 . S
C721 C20 1.243 . S
C723 C84 1.244 . S
C732 C4 1.250 . S
C734 C60 1.235 . S
C743 C44 1.244 . S
C745 C100 1.240 . S
C754 C140 1.233 . S
C756 C164 1.251 . S
C765 C204 1.240 . S
C767 C180 1.243 . S
C776 C220 1.234 . S
C778 C124 1.249 . S
C787 C324 1.240 . S
C789 C260 1.243 . S
C798 C244 1.240 . S
C800 C300 1.243 . S
C809 C340 1.244 . S
C811 C284 1.242 . S
C820 C404 1.253 . S
C822 C380 1.233 . S
C831 C420 1.240 . S
C833 C444 1.245 . S
C842 C364 1.245 . S
C844 C460 1.240 . S
C853 C500 1.241 . S
C855 C564 1.245 . S
C864 C484 1.253 . S
C866 C540 1.233 . S
C875 C524 1.241 . S
C877 C580 1.243 . S
C886 C644 1.241 . S
C888 C620 1.243 . S
C897 C684 1.247 . S
C899 C660 1.238 . S
C908 C604 1.241 . S
C910 C700 1.243 . S
C919 C2 1.691 . S
C921 C202 1.684 . S
C930 C122 1.688 . S
C932 C42 1.690 . S
C941 C162 1.691 . S
C943 C82 1.683 . S
C952 C242 1.682 . S
C954 C442 1.689 . S
C963 C282 1.683 . S
C965 C362 1.690 . S
C974 C402 1.683 . S
C976 C322 1.684 . S
C985 C482 1.681 . S
C987 C682 1.687 . S
C996 C602 1.684 . S
C998 C522 1.683 . S
C1007 C642 1.687 . S
C1009 C562 1.691 . S
C1018 C423 2.462 . S
C1020 C23 2.460 1_565 S
C1029 C63 2.460 . S
C1031 C463 2.465 . S
C1040 C383 2.464 . S
C1042 C103 2.461 . S
C1051 C143 2.459 1_655 S
C1053 C583 2.464 . S
C1062 C183 2.464 . S
C1064 C503 2.461 . S
C1073 C543 2.461 . S
C1075 C223 2.465 . S
C1084 C663 2.460 . S
C1086 C263 2.464 . S
C1095 C303 2.465 . S
C1097 C703 2.461 . S
C1106 C343 2.465 . S
C1108 C623 2.461 . S
C1117 C105 1.749 . S
C1119 C31 1.742 . S
C1128 C25 1.748 . S
C1130 C71 1.742 . S
C1139 C111 1.747 . S
C1141 C65 1.745 . S
C1150 C185 1.746 . S
C1152 C151 1.745 . S
C1161 C225 1.749 . S
C1163 C191 1.742 . S
C1172 C231 1.741 . S
C1174 C145 1.749 . S
C1183 C345 1.744 . S
C1185 C271 1.746 . S
C1194 C311 1.742 . S
C1196 C265 1.748 . S
C1205 C305 1.744 . S
C1207 C351 1.746 . S
C1216 C391 1.742 . S
C1218 C425 1.748 . S
C1227 C431 1.747 . S
C1229 C465 1.745 . S
C1238 C385 1.749 . S
C1240 C471 1.741 . S
C1249 C511 1.740 . S
C1251 C585 1.750 . S
C1260 C551 1.745 . S
C1262 C505 1.745 . S
C1271 C545 1.748 . S
C1273 C591 1.743 . S
C1282 C631 1.739 . S
C1284 C665 1.750 . S
C1293 C671 1.745 . S
C1295 C705 1.746 . S
C1304 C625 1.746 . S
C1306 C711 1.744 . S
