# Generated by pormake.
# Topology snz, (6)-cn, num edge types: 1
# Building blocks:
#     Node 0, Type 0, BuildingBlock: HISSIN_clean_sbu_0, # of connection points: 6
#     Node 1, Type 0, BuildingBlock: HISSIN_clean_sbu_0, # of connection points: 6
#     Node 2, Type 0, BuildingBlock: HISSIN_clean_sbu_0, # of connection points: 6
#     Node 3, Type 0, BuildingBlock: HISSIN_clean_sbu_0, # of connection points: 6
#     Node 4, Type 0, BuildingBlock: HISSIN_clean_sbu_0, # of connection points: 6
#     Node 5, Type 0, BuildingBlock: HISSIN_clean_sbu_0, # of connection points: 6
#     Node 6, Type 0, BuildingBlock: HISSIN_clean_sbu_0, # of connection points: 6
#     Node 7, Type 0, BuildingBlock: HISSIN_clean_sbu_0, # of connection points: 6
#     Node 8, Type 0, BuildingBlock: HISSIN_clean_sbu_0, # of connection points: 6
#     Edge 9, Type (0, 0), BuildingBlock: XUDNAN_clean_linker_2, # of connection points: 2
#     Edge 10, Type (0, 0), BuildingBlock: XUDNAN_clean_linker_2, # of connection points: 2
#     Edge 11, Type (0, 0), BuildingBlock: XUDNAN_clean_linker_2, # of connection points: 2
#     Edge 12, Type (0, 0), BuildingBlock: XUDNAN_clean_linker_2, # of connection points: 2
#     Edge 13, Type (0, 0), BuildingBlock: XUDNAN_clean_linker_2, # of connection points: 2
#     Edge 14, Type (0, 0), BuildingBlock: XUDNAN_clean_linker_2, # of connection points: 2
#     Edge 15, Type (0, 0), BuildingBlock: XUDNAN_clean_linker_2, # of connection points: 2
#     Edge 16, Type (0, 0), BuildingBlock: XUDNAN_clean_linker_2, # of connection points: 2
#     Edge 17, Type (0, 0), BuildingBlock: XUDNAN_clean_linker_2, # of connection points: 2
#     Edge 18, Type (0, 0), BuildingBlock: XUDNAN_clean_linker_2, # of connection points: 2
#     Edge 19, Type (0, 0), BuildingBlock: XUDNAN_clean_linker_2, # of connection points: 2
#     Edge 20, Type (0, 0), BuildingBlock: XUDNAN_clean_linker_2, # of connection points: 2
#     Edge 21, Type (0, 0), BuildingBlock: XUDNAN_clean_linker_2, # of connection points: 2
#     Edge 22, Type (0, 0), BuildingBlock: XUDNAN_clean_linker_2, # of connection points: 2
#     Edge 23, Type (0, 0), BuildingBlock: XUDNAN_clean_linker_2, # of connection points: 2
#     Edge 24, Type (0, 0), BuildingBlock: XUDNAN_clean_linker_2, # of connection points: 2
#     Edge 25, Type (0, 0), BuildingBlock: XUDNAN_clean_linker_2, # of connection points: 2
#     Edge 26, Type (0, 0), BuildingBlock: XUDNAN_clean_linker_2, # of connection points: 2
#     Edge 27, Type (0, 0), BuildingBlock: XUDNAN_clean_linker_2, # of connection points: 2
#     Edge 28, Type (0, 0), BuildingBlock: XUDNAN_clean_linker_2, # of connection points: 2
#     Edge 29, Type (0, 0), BuildingBlock: XUDNAN_clean_linker_2, # of connection points: 2
#     Edge 30, Type (0, 0), BuildingBlock: XUDNAN_clean_linker_2, # of connection points: 2
#     Edge 31, Type (0, 0), BuildingBlock: XUDNAN_clean_linker_2, # of connection points: 2
#     Edge 32, Type (0, 0), BuildingBlock: XUDNAN_clean_linker_2, # of connection points: 2
#     Edge 33, Type (0, 0), BuildingBlock: XUDNAN_clean_linker_2, # of connection points: 2
#     Edge 34, Type (0, 0), BuildingBlock: XUDNAN_clean_linker_2, # of connection points: 2
#     Edge 35, Type (0, 0), BuildingBlock: XUDNAN_clean_linker_2, # of connection points: 2
# Relax obj value: 0.396
# Max RMSD: 0.228
# Mean RMSD: 0.150
data_MOF--net-snz--node1-HISSIN_clean_sbu_0--edge1-XUDNAN_clean_linker_2
_symmetry_space_group_name_H-M    P1
_symmetry_Int_Tables_number       1
_symmetry_cell_setting            triclinic
loop_
_symmetry_equiv_pos_as_xyz
'x, y, z'
_cell_length_a     69.392892
_cell_length_b     54.833842
_cell_length_c     16.266478
_cell_angle_alpha  95.671536
_cell_angle_beta   97.046956
_cell_angle_gamma 121.22662
loop_
_atom_site_label
_atom_site_type_symbol
_atom_site_fract_x
_atom_site_fract_y
_atom_site_fract_z
_atom_type_partial_charge
Eu0 Eu 0.11076 0.48981 0.25392 0.0
Eu1 Eu 0.07054 0.50379 0.23675 0.0
C2 C 0.08949 0.49683 0.42647 0.0
C3 C 0.15362 0.46036 0.3043 0.0
C4 C 0.14481 0.4305 0.28256 0.0
C5 C 0.18814 0.46671 0.38771 0.0
C6 C 0.15755 0.41883 0.31287 0.0
C7 C 0.17564 0.47841 0.35552 0.0
C8 C 0.17924 0.43658 0.36803 0.0
C9 C 0.13851 0.47173 0.28686 0.0
O10 O 0.10268 0.54955 0.26529 0.0
O11 O 0.13098 0.53961 0.29417 0.0
C12 C 0.12446 0.55845 0.29113 0.0
O13 O 0.10796 0.49487 0.11149 0.0
O14 O 0.05231 0.52252 0.28733 0.0
O15 O 0.0392 0.49693 0.16081 0.0
O16 O 0.07882 0.50368 0.10289 0.0
C17 C 0.09331 0.49968 1.06579 0.0
O18 O 0.07854 0.44922 0.17213 0.0
O19 O 0.05221 0.45462 0.22723 0.0
O20 O 0.07598 0.5024 0.37831 0.0
O21 O 0.14515 0.49622 0.26067 0.0
O22 O 0.1168 0.45669 0.29076 0.0
O23 O 0.10325 0.49081 0.39148 0.0
C24 C 0.03023 0.53318 0.19207 0.0
C25 C 0.03159 0.54094 0.11216 0.0
C26 C 1.01398 0.56214 0.22526 0.0
C27 C 0.02407 0.55911 0.08897 0.0
C28 C 0.02139 0.54399 0.24816 0.0
C29 C 1.01516 0.56991 0.14536 0.0
C30 C 0.03684 0.51301 0.21828 0.0
C31 C 0.05743 0.43801 0.18412 0.0
H32 H 0.12777 0.41599 0.24364 0.0
H33 H 0.2044 0.48137 0.4311 0.0
H34 H 0.15011 0.39576 0.29375 0.0
H35 H 0.18263 0.5014 0.37502 0.0
H36 H 0.03833 0.53291 1.06756 0.0
H37 H 1.00687 0.5696 0.26973 0.0
H38 H 0.02538 0.56486 1.02719 0.0
H39 H 0.01993 0.53807 0.30976 0.0
Eu40 Eu 0.6212 0.51626 1.03006 0.0
Eu41 Eu 0.57408 0.51711 1.01157 0.0
C42 C 0.59798 0.51911 0.8401 0.0
C43 C 0.68398 0.53855 1.0226 0.0
C44 C 0.68997 0.53005 0.95028 0.0
C45 C 0.72281 0.58217 1.0602 0.0
C46 C 0.71203 0.5475 0.93282 0.0
C47 C 0.70082 0.56478 0.07757 0.0
C48 C 0.72878 0.57395 0.98732 0.0
C49 C 0.66076 0.51952 1.04254 0.0
O50 O 0.56032 0.4686 1.00031 0.0
O51 O 0.59277 0.46792 0.99055 0.0
C52 C 0.57026 0.45411 0.98561 0.0
O53 O 0.61296 0.51197 0.16414 0.0
O54 O 0.53818 0.49831 0.95016 0.0
O55 O 0.55427 0.53467 1.05421 0.0
O56 O 0.58182 0.51658 0.15564 0.0
C57 C 0.59771 0.51407 0.20142 0.0
O58 O 0.63422 0.56438 1.04894 0.0
O59 O 0.60163 0.56607 1.03523 0.0
O60 O 0.5805 0.5175 0.87151 0.0
O61 O 0.6551 0.53036 0.10311 0.0
O62 O 0.64332 0.50348 0.97967 0.0
O63 O 0.61505 0.52058 0.89161 0.0
C64 C 0.5155 0.49819 1.04701 0.0
C65 C 0.51724 0.48377 0.11155 0.0
C66 C 0.47632 0.4816 1.06136 0.0
C67 C 0.49866 0.4684 0.15086 0.0
C68 C 0.49494 0.49705 1.02236 0.0
C69 C 0.4779 0.46699 0.12597 0.0
C70 C 0.53498 0.51416 1.00502 0.0
C71 C 0.62428 0.57935 1.04973 0.0
H72 H 0.67757 0.50983 0.90701 0.0
H73 H 0.73526 0.602 0.10486 0.0
H74 H 0.71581 0.54044 0.87583 0.0
H75 H 0.6971 0.57192 0.13464 0.0
H76 H 0.53295 0.48425 0.13122 0.0
H77 H 0.46072 0.4813 1.04135 0.0
H78 H 0.50042 0.45718 0.19962 0.0
H79 H 0.49327 0.50807 0.97282 0.0
Eu80 Eu 0.56344 0.04373 0.84952 0.0
Eu81 Eu 0.61649 0.10091 0.89327 0.0
C82 C 0.59093 0.07755 1.05422 0.0
C83 C 0.50672 0.98996 0.90105 0.0
C84 C 0.51249 1.00963 0.97566 0.0
C85 C 0.47377 0.95322 0.95045 0.0
C86 C 0.49919 1.00111 1.03753 0.0
C87 C 0.48718 0.96177 0.88859 0.0
C88 C 0.47977 0.9727 1.02624 0.0
C89 C 0.52189 0.99846 0.8392 0.0
O90 O 0.61757 0.06163 0.92014 0.0
O91 O 0.58545 0.02564 0.82819 0.0
C92 C 0.60482 0.03458 0.87987 0.0
O93 O 0.56908 0.05085 0.71162 0.0
O94 O 0.65181 0.12509 0.96937 0.0
O95 O 0.64613 0.13482 0.84819 0.0
O96 O 0.60749 0.08659 0.7474 0.0
C97 C 0.58862 0.06911 0.6881 0.0
O98 O 0.55761 0.08043 0.85238 0.0
O99 O 0.59423 0.12182 0.89023 0.0
O100 O 0.60756 0.0994 1.02623 0.0
O101 O 0.52604 0.02167 0.81015 0.0
O102 O 0.54059 0.99839 0.85967 0.0
O103 O 0.57387 0.05452 0.99843 0.0
C104 C 0.68255 0.13899 0.89297 0.0
C105 C 0.68162 0.11305 0.86733 0.0
C106 C 0.72407 0.16561 0.89017 0.0
C107 C 0.70153 0.11335 0.85405 0.0
C108 C 0.70409 0.16526 0.90339 0.0
C109 C 0.72338 0.13962 0.86626 0.0
C110 C 0.66165 0.13901 0.91153 0.0
C111 C 0.5713 0.10883 0.86953 0.0
H112 H 0.52749 0.03152 0.98661 0.0
H113 H 0.45909 0.93111 0.93996 0.0
H114 H 0.50417 0.01684 0.09439 0.0
H115 H 0.48254 0.9462 0.83172 0.0
H116 H 0.66544 0.09238 0.85817 0.0
H117 H 0.74023 0.18635 0.90117 0.0
H118 H 0.69966 0.0927 0.83393 0.0
H119 H 0.70559 0.18573 0.92321 0.0
Eu120 Eu 0.77187 0.8571 0.28024 0.0
Eu121 Eu 0.72791 0.86357 0.2587 0.0
C122 C 0.74715 0.85721 0.44897 0.0
C123 C 0.81766 0.83631 0.33577 0.0
C124 C 0.81352 0.82562 0.411 0.0
C125 C 0.84373 0.81966 0.32442 0.0
C126 C 0.82474 0.81233 0.44328 0.0
C127 C 0.83251 0.83272 0.29224 0.0
C128 C 0.84037 0.80981 0.4011 0.0
C129 C 0.80783 0.85243 0.30205 0.0
O130 O 0.7591 0.90542 0.3428 0.0
O131 O 0.7867 0.90505 0.28335 0.0
C132 C 0.78012 0.91943 0.32855 0.0
O133 O 0.76738 0.85966 0.1395 0.0
O134 O 0.69362 0.85884 0.2532 0.0
O135 O 0.72221 0.89508 0.21219 0.0
O136 O 0.73471 0.86069 0.12037 0.0
C137 C 0.7512 0.85999 0.08835 0.0
O138 O 0.74154 0.81054 0.25021 0.0
O139 O 0.70962 0.81353 0.21883 0.0
O140 O 0.73063 0.85833 0.40099 0.0
O141 O 0.79113 0.83891 0.23593 0.0
O142 O 0.80505 0.86927 0.3551 0.0
O143 O 0.76342 0.85688 0.41399 0.0
C144 C 0.68762 0.8961 0.19697 0.0
C145 C 0.69929 0.92421 0.17803 0.0
C146 C 0.65136 0.89283 0.14972 0.0
C147 C 0.68727 0.93622 0.14406 0.0
C148 C 0.66348 0.88077 0.18405 0.0
C149 C 0.66307 0.92057 0.1276 0.0
C150 C 0.70086 0.88242 0.22074 0.0
C151 C 0.71921 0.79794 0.22258 0.0
H152 H 0.80204 0.82807 0.44551 0.0
H153 H 0.85537 0.81765 0.28978 0.0
H154 H 0.82187 0.80503 0.50264 0.0
H155 H 0.83584 0.84066 0.23389 0.0
H156 H 0.71789 0.93679 0.18691 0.0
H157 H 0.63275 0.88018 0.13944 0.0
H158 H 0.69704 0.95738 0.12735 0.0
H159 H 0.65392 0.85908 0.19759 0.0
Eu160 Eu 0.26943 0.84183 0.50562 0.0
Eu161 Eu 0.21993 0.83655 0.48313 0.0
C162 C 0.2448 0.8412 0.31348 0.0
C163 C 0.32925 0.86242 0.47542 0.0
C164 C 0.32788 0.87591 0.40783 0.0
C165 C 0.36824 0.87724 0.46306 0.0
C166 C 0.34656 0.8899 0.36789 0.0
C167 C 0.34953 0.86318 0.50266 0.0
C168 C 0.36703 0.89082 0.39517 0.0
C169 C 0.30957 0.84727 0.51707 0.0
O170 O 0.20899 0.78864 0.46019 0.0
O171 O 0.24397 0.79299 0.48882 0.0
C172 C 0.22131 0.77671 0.46679 0.0
O173 O 0.26277 0.84242 0.64227 0.0
O174 O 0.1839 0.81551 0.41831 0.0
O175 O 0.19828 0.85221 0.51958 0.0
O176 O 0.22582 0.83221 0.62483 0.0
C177 C 0.2447 0.83742 0.67528 0.0
O178 O 0.28042 0.88883 0.50752 0.0
O179 O 0.24736 0.88558 0.5306 0.0
O180 O 0.22834 0.84188 0.34658 0.0
O181 O 0.30571 0.86367 0.56701 0.0
O182 O 0.2906 0.82564 0.46899 0.0
O183 O 0.26089 0.84026 0.36333 0.0
C184 C 0.15831 0.81673 0.50078 0.0
C185 C 0.15713 0.80275 0.56945 0.0
C186 C 0.11877 0.80372 0.49795 0.0
C187 C 0.13707 0.78971 0.60275 0.0
C188 C 0.13887 0.8168 0.46477 0.0
C189 C 0.11767 0.79034 0.56831 0.0
C190 C 0.17968 0.83174 0.46702 0.0
C191 C 0.26963 0.90142 0.52976 0.0
H192 H 0.31237 0.87565 0.38606 0.0
H193 H 0.38358 0.87716 0.48504 0.0
H194 H 0.3451 0.90038 0.31653 0.0
H195 H 0.35088 0.85279 0.55446 0.0
H196 H 0.17182 0.80219 0.59793 0.0
H197 H 0.10436 0.80493 0.47007 0.0
H198 H 0.13683 0.77921 0.65593 0.0
H199 H 0.13936 0.82741 0.4116 0.0
Eu200 Eu 0.22317 0.25592 0.61395 0.0
Eu201 Eu 0.27745 0.31121 0.65365 0.0
C202 C 0.25362 0.28588 0.81748 0.0
C203 C 0.15481 0.21843 0.59979 0.0
C204 C 0.15157 0.24128 0.62577 0.0
C205 C 0.11293 0.18483 0.5825 0.0
C206 C 0.12945 0.23586 0.63173 0.0
C207 C 0.13493 0.19025 0.57627 0.0
C208 C 0.10971 0.20733 0.61303 0.0
C209 C 0.17848 0.22254 0.61371 0.0
O210 O 0.28042 0.2725 0.62502 0.0
O211 O 0.24449 0.23398 0.63127 0.0
C212 C 0.26678 0.24513 0.62964 0.0
O213 O 0.2302 0.25911 0.47486 0.0
O214 O 0.31451 0.3317 0.69891 0.0
O215 O 0.3018 0.35561 0.64002 0.0
O216 O 0.26658 0.30055 0.50844 0.0
C217 C 0.24869 0.27984 0.45024 0.0
O218 O 0.22389 0.29544 0.57906 0.0
O219 O 0.25662 0.33134 0.66893 0.0
O220 O 0.27215 0.30415 0.78923 0.0
O221 O 0.18768 0.21828 0.55224 0.0
O222 O 0.19405 0.24357 0.67427 0.0
O223 O 0.23415 0.26709 0.76225 0.0
C224 C 0.33612 0.36217 0.60895 0.0
C225 C 0.33099 0.34193 0.53667 0.0
C226 C 0.37003 0.39813 0.56225 0.0
C227 C 0.34502 0.34987 0.47692 0.0
C228 C 0.35588 0.3902 0.62186 0.0
C229 C 0.36453 0.37822 0.48821 0.0
C230 C 0.31988 0.35475 0.66671 0.0
C231 C 0.2374 0.32271 0.61679 0.0
H232 H 0.16634 0.26332 0.64555 0.0
H233 H 0.09839 0.16257 0.5656 0.0
H234 H 0.12807 0.25391 0.6556 0.0
H235 H 0.13651 0.17199 0.55705 0.0
H236 H 0.3158 0.32017 0.52546 0.0
H237 H 0.38477 0.4202 0.57258 0.0
H238 H 0.34042 0.33386 0.42127 0.0
H239 H 0.36003 0.40619 0.67692 0.0
Eu240 Eu 0.42208 0.17788 0.67306 0.0
Eu241 Eu 0.41695 0.17996 0.85774 0.0
C242 C 0.38523 0.11654 0.72403 0.0
C243 C 0.44679 0.22173 0.52302 0.0
C244 C 0.44578 0.24302 0.57499 0.0
C245 C 0.48071 0.26003 0.48376 0.0
C246 C 0.46203 0.27254 0.58105 0.0
C247 C 0.46446 0.23048 0.47784 0.0
C248 C 0.47973 0.28139 0.53573 0.0
C249 C 0.43232 0.19105 0.53012 0.0
O250 O 0.45041 0.18051 0.85582 0.0
O251 O 0.44142 0.15685 0.72139 0.0
C252 C 0.45441 0.16608 0.79758 0.0
O253 O 0.45358 0.22075 0.74704 0.0
O254 O 0.42711 0.1763 0.98646 0.0
O255 O 0.40523 0.19306 0.96181 0.0
O256 O 0.43591 0.22791 0.84389 0.0
C257 C 0.4531 0.2388 0.80449 0.0
O258 O 0.39749 0.19447 0.68614 0.0
O259 O 0.38282 0.17195 0.79224 0.0
O260 O 0.39253 0.13089 0.80344 0.0
O261 O 0.44298 0.18238 0.5787 0.0
O262 O 0.412 0.1827 0.54579 0.0
O263 O 0.39356 0.13014 0.66203 0.0
C264 C 0.43734 0.2206 1.06975 0.0
C265 C 0.45762 0.23837 1.04085 0.0
C266 C 0.4475 0.26149 0.17709 0.0
C267 C 0.47256 0.26758 0.07893 0.0
C268 C 0.4324 0.23236 0.13814 0.0
C269 C 0.46763 0.27959 0.14725 0.0
C270 C 0.41971 0.19204 1.01806 0.0
C271 C 0.38107 0.18476 0.73041 0.0
H272 H 0.43272 0.23686 0.61276 0.0
H273 H 0.49375 0.26615 0.44591 0.0
H274 H 0.46072 0.28844 0.62091 0.0
H275 H 0.46593 0.21448 0.43922 0.0
H276 H 0.46159 0.22986 0.98701 0.0
H277 H 0.44349 0.2697 0.23142 0.0
H278 H 0.48787 0.28079 1.05451 0.0
H279 H 0.41666 0.2192 0.16028 0.0
Eu280 Eu 0.91978 0.15986 0.83952 0.0
Eu281 Eu 0.91892 0.19472 0.69109 0.0
C282 C 0.94941 0.23204 0.87643 0.0
C283 C 0.89967 0.10538 0.97818 0.0
C284 C 0.87839 0.08955 0.92091 0.0
C285 C 0.88056 0.08289 0.08907 0.0
C286 C 0.85818 0.07169 0.94864 0.0
C287 C 0.90078 0.10081 1.06127 0.0
C288 C 0.85895 0.06961 1.03421 0.0
C289 C 0.91944 0.13019 0.95556 0.0
O290 O 0.95266 0.1963 0.68467 0.0
O291 O 0.951 0.16879 0.78463 0.0
C292 C 0.96121 0.18346 0.72718 0.0
O293 O 0.89284 0.12298 0.7324 0.0
O294 O 0.91904 0.20208 0.56167 0.0
O295 O 0.91285 0.2276 0.65214 0.0
O296 O 0.8986 0.14737 0.62242 0.0
C297 C 0.88874 0.12292 0.65129 0.0
O298 O 0.88443 0.15265 0.8323 0.0
O299 O 0.88672 0.18427 0.74658 0.0
O300 O 0.94693 0.23149 0.79481 0.0
O301 O 0.92352 0.12562 0.88126 0.0
O302 O 0.92029 0.15458 0.97077 0.0
O303 O 0.93829 0.20777 0.9061 0.0
C304 C 0.8882 0.20715 0.51764 0.0
C305 C 0.88626 0.20336 0.43001 0.0
C306 C 0.84695 0.17244 0.49793 0.0
C307 C 0.86508 0.18291 0.377 0.0
C308 C 0.86808 0.19311 0.55079 0.0
C309 C 0.84562 0.16574 0.41116 0.0
C310 C 0.91079 0.21856 0.57239 0.0
C311 C 0.87549 0.16576 0.79512 0.0
H312 H 0.87713 0.09282 0.85639 0.0
H313 H 0.88175 0.08206 0.15566 0.0
H314 H 0.8418 0.06177 0.9051 0.0
H315 H 0.91703 0.11294 0.10635 0.0
H316 H 0.9015 0.21385 0.40308 0.0
H317 H 0.83221 0.15973 0.5258 0.0
H318 H 0.8647 0.17818 0.31035 0.0
H319 H 0.86896 0.19588 0.61817 0.0
Eu320 Eu 0.91314 0.6615 0.71869 0.0
Eu321 Eu 0.93786 0.72027 0.86427 0.0
C322 C 0.91158 0.7166 0.68376 0.0
C323 C 0.90803 0.60259 0.56506 0.0
C324 C 0.9316 0.61489 0.59614 0.0
C325 C 0.91189 0.58507 0.42954 0.0
C326 C 0.94556 0.61471 0.54149 0.0
C327 C 0.89791 0.58549 0.48393 0.0
C328 C 0.93601 0.603 0.45528 0.0
C329 C 0.89607 0.61415 0.60686 0.0
O330 O 0.89971 0.6998 0.85865 0.0
O331 O 0.88719 0.65272 0.8027 0.0
C332 C 0.88374 0.67184 0.8423 0.0
O333 O 0.93619 0.65661 0.81582 0.0
O334 O 0.94234 0.74491 0.9866 0.0
O335 O 0.96448 0.76653 0.90072 0.0
O336 O 0.939 0.68662 0.93124 0.0
C337 C 0.94144 0.66581 0.8976 0.0
O338 O 0.94894 0.69194 0.6907 0.0
O339 O 0.96627 0.71655 0.82611 0.0
O340 O 0.93068 0.73224 0.74088 0.0
O341 O 0.89752 0.61454 0.68773 0.0
O342 O 0.90002 0.63872 0.58776 0.0
O343 O 0.89904 0.68821 0.67502 0.0
C344 C 0.98157 0.7759 1.04381 0.0
C345 C 0.98353 0.78841 0.12612 0.0
C346 C 1.00625 0.75951 0.0976 0.0
C347 C 0.99537 0.78448 0.19419 0.0
C348 C 0.99479 0.76387 1.02974 0.0
C349 C 1.00439 0.76692 0.17999 0.0
C350 C 0.96155 0.76772 0.97839 0.0
C351 C 0.96775 0.70897 0.74945 0.0
H352 H 0.93971 0.62797 0.6591 0.0
H353 H 0.90414 0.57549 0.36346 0.0
H354 H 0.96407 0.62837 0.56339 0.0
H355 H 0.8797 0.5756 0.45922 0.0
H356 H 0.97364 0.798 0.13834 0.0
H357 H 1.01323 0.74619 0.08438 0.0
H358 H 0.99411 0.79093 0.25747 0.0
H359 H 0.99381 0.7544 0.96664 0.0
H360 H 0.11636 0.48891 0.93913 0.0
H361 H 0.06629 0.51254 0.96609 0.0
H362 H 0.06083 0.51383 0.81562 0.0
H363 H 0.14141 0.53436 0.77962 0.0
H364 H 0.14508 0.50848 0.71772 0.0
H365 H 0.14584 0.50918 0.8292 0.0
H366 H 0.1135 0.45489 0.79785 0.0
H367 H 0.11264 0.45405 0.68629 0.0
H368 H 0.08682 0.44274 0.72685 0.0
H369 H 0.05947 0.51254 0.6584 0.0
H370 H 0.06283 0.50945 0.51014 0.0
H371 H 0.11381 0.48693 0.56731 0.0
C372 C 0.10429 0.49449 0.91381 0.0
C373 C 0.09184 0.50065 0.96906 0.0
C374 C 0.07627 0.50764 0.92935 0.0
C375 C 0.07293 0.50846 0.84213 0.0
C376 C 0.08515 0.50228 0.79047 0.0
C377 C 0.10063 0.49547 0.82445 0.0
C378 C 0.11135 0.48981 0.75207 0.0
C379 C 0.13748 0.51176 0.77079 0.0
C380 C 0.10575 0.45851 0.74008 0.0
C381 C 0.09947 0.49446 0.67316 0.0
C382 C 0.08442 0.50163 0.69812 0.0
C383 C 0.07128 0.50695 0.63892 0.0
C384 C 0.07337 0.50508 0.55318 0.0
C385 C 0.08856 0.49789 0.52268 0.0
C386 C 0.10188 0.49249 0.58561 0.0
H387 H 0.56794 0.5159 0.68796 0.0
H388 H 0.63242 0.52151 0.7683 0.0
H389 H 0.63793 0.52028 0.623 0.0
H390 H 0.5508 0.46707 0.4814 0.0
H391 H 0.53903 0.48428 0.42294 0.0
H392 H 0.53908 0.48536 0.53414 0.0
H393 H 0.56099 0.54132 0.5601 0.0
H394 H 0.56095 0.54036 0.44892 0.0
H395 H 0.58774 0.5615 0.52503 0.0
H396 H 0.63756 0.51777 0.46583 0.0
H397 H 0.63179 0.51601 0.31296 0.0
H398 H 0.56821 0.51312 0.31714 0.0
C399 C 0.58328 0.51695 0.67543 0.0
C400 C 0.59969 0.51887 0.74437 0.0
C401 C 0.6193 0.52008 0.72087 0.0
C402 C 0.62271 0.51935 0.63671 0.0
C403 C 0.60654 0.51742 0.57166 0.0
C404 C 0.58715 0.51634 0.58939 0.0
C405 C 0.5728 0.51457 0.5051 0.0
C406 C 0.54901 0.48614 0.4847 0.0
C407 C 0.57047 0.54101 0.5101 0.0
C408 C 0.58719 0.51495 0.43851 0.0
C409 C 0.60651 0.51642 0.47953 0.0
C410 C 0.62245 0.51671 0.43376 0.0
C411 C 0.61892 0.51563 0.34527 0.0
C412 C 0.59955 0.51442 0.29879 0.0
C413 C 0.58338 0.51408 0.34807 0.0
H414 H 0.55664 0.03664 0.52318 0.0
H415 H 0.6262 0.10921 0.63223 0.0
H416 H 0.63289 0.11811 0.49112 0.0
H417 H 0.57158 1.01185 0.33332 0.0
H418 H 0.54579 1.00236 0.26109 0.0
H419 H 0.54541 1.00083 0.37116 0.0
H420 H 0.53027 0.03483 0.37897 0.0
H421 H 0.53099 0.03701 0.26937 0.0
H422 H 0.54629 0.06973 0.34882 0.0
H423 H 0.63323 0.12139 0.3357 0.0
H424 H 0.62757 0.117 0.18167 0.0
H425 H 0.55853 0.04163 0.15559 0.0
C426 C 0.57334 0.05441 0.51782 0.0
C427 C 0.59083 0.07209 0.59362 0.0
C428 C 0.61221 0.09492 0.57926 0.0
C429 C 0.61631 0.10036 0.49764 0.0
C430 C 0.59908 0.08294 0.42586 0.0
C431 C 0.57795 0.06019 0.43443 0.0
C432 C 0.56278 0.04486 0.34431 0.0
C433 C 0.55598 1.01308 0.32641 0.0
C434 C 0.54129 0.0467 0.33483 0.0
C435 C 0.57867 0.06247 0.28494 0.0
C436 C 0.59947 0.08447 0.33464 0.0
C437 C 0.61696 0.10407 0.29685 0.0
C438 C 0.61348 0.10138 0.2076 0.0
C439 C 0.59262 0.07903 0.15219 0.0
C440 C 0.57488 0.05916 0.19342 0.0
H441 H 0.72048 0.86113 0.57202 0.0
H442 H 0.7785 0.85215 0.55304 0.0
H443 H 0.78467 0.85208 0.70412 0.0
H444 H 0.74581 0.90874 0.78335 0.0
H445 H 0.7194 0.89249 0.82204 0.0
H446 H 0.71858 0.89177 0.71052 0.0
H447 H 0.69145 0.83596 0.68055 0.0
H448 H 0.69219 0.83654 0.79198 0.0
H449 H 0.70002 0.81458 0.73288 0.0
H450 H 0.78604 0.85334 0.86128 0.0
H451 H 0.782 0.85511 1.0089 0.0
H452 H 0.72306 0.86285 0.9438 0.0
C453 C 0.73446 0.85903 0.59923 0.0
C454 C 0.74892 0.85662 0.54599 0.0
C455 C 0.76691 0.85407 0.58813 0.0
C456 C 0.77069 0.854 0.67575 0.0
C457 C 0.75648 0.85647 0.72541 0.0
C458 C 0.7386 0.85888 0.68906 0.0
C459 C 0.72611 0.8612 0.75968 0.0
C460 C 0.72755 0.89028 0.76945 0.0
C461 C 0.70094 0.83555 0.74009 0.0
C462 C 0.73975 0.85973 0.8403 0.0
C463 C 0.75721 0.85704 0.81772 0.0
C464 C 0.77234 0.85541 0.8789 0.0
C465 C 0.76984 0.85648 0.96423 0.0
C466 C 0.75222 0.85914 0.99229 0.0
C467 C 0.73685 0.86077 0.92735 0.0
H468 H 0.21356 0.832 0.78926 0.0
H469 H 0.28074 0.8447 0.78926 0.0
H470 H 0.28683 0.8472 0.9423 0.0
H471 H 0.23057 0.88079 0.99487 0.0
H472 H 0.20414 0.85845 1.02973 0.0
H473 H 0.20409 0.85725 0.91848 0.0
H474 H 0.18572 0.80181 0.89514 0.0
H475 H 0.18568 0.80283 1.00629 0.0
H476 H 0.19953 0.78719 0.95561 0.0
H477 H 0.28691 0.84874 0.09902 0.0
H478 H 0.28096 0.84863 0.2439 0.0
H479 H 0.21365 0.83515 0.16043 0.0
C480 C 0.22957 0.83523 0.82112 0.0
C481 C 0.24663 0.83806 0.77285 0.0
C482 C 0.26716 0.84237 0.82067 0.0
C483 C 0.27088 0.84387 0.90932 0.0
C484 C 0.25407 0.84113 0.95409 0.0
C485 C 0.23371 0.83686 0.91194 0.0
C486 C 0.21873 0.8347 0.97797 0.0
C487 C 0.21409 0.85925 0.98038 0.0
C488 C 0.19605 0.80486 0.95751 0.0
C489 C 0.23381 0.83838 1.06295 0.0
C490 C 0.25412 0.84206 1.04621 0.0
C491 C 0.27099 0.84582 0.11197 0.0
C492 C 0.26731 0.84571 0.19581 0.0
C493 C 0.24679 0.84191 0.21825 0.0
C494 C 0.22973 0.83828 0.1487 0.0
H495 H 0.21987 0.25299 0.91816 0.0
H496 H 0.29154 0.32169 0.94498 0.0
H497 H 0.29674 0.32597 0.09897 0.0
H498 H 0.21029 0.28424 0.10974 0.0
H499 H 0.19218 0.25 0.14046 0.0
H500 H 0.19329 0.25143 1.03074 0.0
H501 H 0.2045 0.21331 1.02188 0.0
H502 H 0.20343 0.21177 0.1316 0.0
H503 H 0.22921 0.21991 0.09472 0.0
H504 H 0.29528 0.32393 0.25415 0.0
H505 H 0.2876 0.31639 0.39467 0.0
H506 H 0.21647 0.24853 0.28473 0.0
C507 C 0.23672 0.26898 0.95613 0.0
C508 C 0.25533 0.28704 0.91523 0.0
C509 C 0.27682 0.30743 0.97072 0.0
C510 C 0.28002 0.31008 1.05991 0.0
C511 C 0.26165 0.29226 0.09737 0.0
C512 C 0.24031 0.27201 1.04747 0.0
C513 C 0.22366 0.2558 0.10644 0.0
C514 C 0.20365 0.26064 0.0962 0.0
C515 C 0.21465 0.22325 0.0875 0.0
C516 C 0.23892 0.27008 0.19657 0.0
C517 C 0.26078 0.29106 0.18837 0.0
C518 C 0.27815 0.3075 0.26031 0.0
C519 C 0.27342 0.30287 0.34167 0.0
C520 C 0.25131 0.28172 0.35568 0.0
C521 C 0.23372 0.26492 0.2797 0.0
H522 H 0.467 0.3193 0.51167 0.0
H523 H 0.52644 0.31261 0.54552 0.0
H524 H 0.54419 0.34859 0.45734 0.0
H525 H 0.4487 0.30855 0.35961 0.0
H526 H 0.44516 0.33553 0.31728 0.0
H527 H 0.44845 0.33631 0.42834 0.0
H528 H 0.47899 0.38808 0.34214 0.0
H529 H 0.50641 0.39922 0.4051 0.0
H530 H 0.48215 0.38909 0.45439 0.0
H531 H 0.53893 0.34513 0.31012 0.0
H532 H 0.51469 0.30786 0.18555 0.0
H533 H 0.4587 0.31903 0.21526 0.0
C534 C 0.48453 0.32746 0.50505 0.0
C535 C 0.4949 0.3124 0.53059 0.0
C536 C 0.51785 0.32325 0.52344 0.0
C537 C 0.52811 0.34401 0.47348 0.0
C538 C 0.51491 0.35294 0.42956 0.0
C539 C 0.49439 0.34748 0.45174 0.0
C540 C 0.48062 0.35202 0.3819 0.0
C541 C 0.45418 0.33178 0.37109 0.0
C542 C 0.48748 0.38398 0.39676 0.0
C543 C 0.49018 0.34625 0.30868 0.0
C544 C 0.51208 0.35172 0.33822 0.0
C545 C 0.52198 0.34098 0.28745 0.0
C546 C 0.50793 0.31941 0.21615 0.0
C547 C 0.48446 0.30972 0.19425 0.0
C548 C 0.47655 0.32588 0.23396 0.0
H549 H 0.82243 0.15349 0.25015 0.0
H550 H 0.82917 0.11345 0.45828 0.0
H551 H 0.81507 0.06825 0.36058 0.0
H552 H 0.77398 0.07581 0.09185 0.0
H553 H 0.78732 0.09034 1.00559 0.0
H554 H 0.78432 0.11306 0.08445 0.0
H555 H 0.82759 0.15127 0.11437 0.0
H556 H 0.83119 0.13025 1.03464 0.0
H557 H 0.84787 0.14056 0.14026 0.0
H558 H 0.82123 0.04141 0.25382 0.0
H559 H 0.84313 0.03566 0.15395 0.0
H560 H 0.83054 0.08849 1.00325 0.0
C561 C 0.81924 0.13435 0.27451 0.0
C562 C 0.82706 0.13696 0.36089 0.0
C563 C 0.82308 0.11193 0.39224 0.0
C564 C 0.81507 0.08598 0.33664 0.0
C565 C 0.81069 0.08522 0.25004 0.0
C566 C 0.81154 0.1084 0.2189 0.0
C567 C 0.81159 0.10525 0.1253 0.0
C568 C 0.78788 0.09556 1.07385 0.0
C569 C 0.83073 0.13346 0.10258 0.0
C570 C 0.81581 0.08076 0.11365 0.0
C571 C 0.81365 0.06813 0.18448 0.0
C572 C 0.82199 0.05009 0.19662 0.0
C573 C 0.83451 0.04695 0.13964 0.0
C574 C 0.83841 0.06163 1.071 0.0
C575 C 0.82721 0.07646 1.05414 0.0
H576 H 0.92445 0.63359 0.36871 0.0
H577 H 0.97814 0.61562 0.41968 0.0
H578 H 1.00364 0.65759 0.35608 0.0
H579 H 0.93719 0.66329 0.17662 0.0
H580 H 0.93055 0.68992 0.2105 0.0
H581 H 0.91614 0.65511 0.24161 0.0
H582 H 0.92941 0.68154 0.39785 0.0
H583 H 0.94511 0.71653 0.36867 0.0
H584 H 0.95971 0.70584 0.44195 0.0
H585 H 0.02389 0.70564 0.2945 0.0
H586 H 0.0344 0.7495 0.23201 0.0
H587 H 0.96811 0.73677 0.25013 0.0
C588 C 0.94115 0.63745 0.36278 0.0
C589 C 0.94908 0.6208 0.39628 0.0
C590 C 0.97155 0.62764 0.39165 0.0
C591 C 0.98613 0.65155 0.35632 0.0
C592 C 0.97819 0.66889 0.32981 0.0
C593 C 0.95605 0.66172 0.33237 0.0
C594 C 0.95186 0.68472 0.30978 0.0
C595 C 0.93284 0.67255 0.22987 0.0
C596 C 0.9462 0.69792 0.38399 0.0
C597 C 0.97508 0.70626 0.29367 0.0
C598 C 0.99024 0.69712 0.30503 0.0
C599 C 1.01222 0.71314 0.28699 0.0
C600 C 1.01814 0.73812 0.25226 0.0
C601 C 1.00234 0.74706 0.23852 0.0
C602 C 0.98101 0.73137 0.26284 0.0
H603 H 0.19555 0.31434 0.54539 0.0
H604 H 0.26829 0.38067 0.62688 0.0
H605 H 0.26144 0.4163 0.57054 0.0
H606 H 0.18561 0.33634 0.35385 0.0
H607 H 0.1577 0.32952 0.36341 0.0
H608 H 0.16803 0.30902 0.41087 0.0
H609 H 0.16222 0.3248 0.55632 0.0
H610 H 0.1516 0.34506 0.50914 0.0
H611 H 0.17546 0.36292 0.59819 0.0
H612 H 0.24727 0.44373 0.49429 0.0
H613 H 0.22639 0.46295 0.42162 0.0
H614 H 0.16188 0.38066 0.40281 0.0
C615 C 0.20999 0.33644 0.55213 0.0
C616 C 0.2325 0.34464 0.5908 0.0
C617 C 0.25088 0.37383 0.59837 0.0
C618 C 0.24718 0.39423 0.56594 0.0
C619 C 0.22491 0.38537 0.52715 0.0
C620 C 0.20652 0.35734 0.52161 0.0
C621 C 0.18422 0.35376 0.47875 0.0
C622 C 0.17325 0.3308 0.39686 0.0
C623 C 0.16738 0.34619 0.53922 0.0
C624 C 0.19299 0.38405 0.46015 0.0
C625 C 0.21655 0.40177 0.48768 0.0
C626 C 0.22873 0.43022 0.47425 0.0
C627 C 0.21654 0.44106 0.43323 0.0
C628 C 0.19215 0.42386 0.40708 0.0
C629 C 0.18041 0.39474 0.42074 0.0
H630 H 0.6159 0.62375 0.10339 0.0
H631 H 0.66911 0.61078 1.03638 0.0
H632 H 0.69677 0.66334 1.06904 0.0
H633 H 0.63549 0.69189 1.02126 0.0
H634 H 0.62968 0.70922 0.10624 0.0
H635 H 0.61292 0.67017 0.07518 0.0
H636 H 0.62358 0.66555 0.2282 0.0
H637 H 0.64039 0.70457 0.25969 0.0
H638 H 0.65348 0.68406 0.27921 0.0
H639 H 0.71966 0.71649 0.11112 0.0
H640 H 0.73716 0.76835 0.1611 0.0
H641 H 0.67141 0.7524 0.2056 0.0
C642 C 0.6333 0.63201 0.09472 0.0
C643 C 0.63999 0.61237 1.06663 0.0
C644 C 0.66317 0.62462 1.05763 0.0
C645 C 0.6792 0.65477 0.07604 0.0
C646 C 0.67226 0.67329 0.10413 0.0
C647 C 0.64992 0.66265 0.11362 0.0
C648 C 0.64776 0.68822 0.14724 0.0
C649 C 0.63042 0.68997 0.08369 0.0
C650 C 0.64089 0.68543 0.23373 0.0
C651 C 0.67234 0.71461 0.15513 0.0
C652 C 0.68592 0.70498 0.12946 0.0
C653 C 0.70916 0.72424 0.13134 0.0
C654 C 0.71902 0.754 0.16059 0.0
C655 C 0.70605 0.76529 0.18857 0.0
C656 C 0.68205 0.74498 0.18467 0.0
H657 H 0.43255 0.93816 1.01059 0.0
H658 H 0.49663 0.98566 0.19671 0.0
H659 H 0.47484 0.97079 0.31043 0.0
H660 H 0.3992 0.95426 0.13288 0.0
H661 H 0.37324 0.91881 0.09756 0.0
H662 H 0.3938 0.93346 1.03034 0.0
H663 H 0.39644 0.88786 1.01954 0.0
H664 H 0.37582 0.87303 0.08649 0.0
H665 H 0.40353 0.87739 0.11473 0.0
H666 H 0.44617 0.95033 0.40432 0.0
H667 H 0.41267 0.92579 0.47165 0.0
H668 H 0.36704 0.89057 0.22515 0.0
C669 C 0.44202 0.9453 0.07521 0.0
C670 C 0.46637 0.96332 0.09448 0.0
C671 C 0.47801 0.97235 0.18016 0.0
C672 C 0.46578 0.96385 0.2453 0.0
C673 C 0.44184 0.94622 0.22411 0.0
C674 C 0.43006 0.93702 0.14119 0.0
C675 C 0.40427 0.91803 0.13574 0.0
C676 C 0.39191 0.93198 0.09683 0.0
C677 C 0.39444 0.88725 0.0862 0.0
C678 C 0.40342 0.91794 0.22849 0.0
C679 C 0.42529 0.93434 0.27832 0.0
C680 C 0.42896 0.93737 0.36588 0.0
C681 C 0.4098 0.92318 0.40354 0.0
C682 C 0.38716 0.9061 0.35391 0.0
C683 C 0.38405 0.90366 0.26509 0.0
H684 H 0.52973 0.09157 0.76751 0.0
H685 H 0.58374 0.16257 0.9624 0.0
H686 H 0.5602 0.18468 0.96496 0.0
H687 H 0.51382 0.13563 0.65528 0.0
H688 H 0.48366 0.10743 0.62853 0.0
H689 H 0.50501 0.09799 0.64155 0.0
H690 H 0.48576 0.06793 0.75289 0.0
H691 H 0.46445 0.07745 0.74076 0.0
H692 H 0.48162 0.08505 0.84359 0.0
H693 H 0.52796 0.1968 0.95313 0.0
H694 H 0.49402 0.20063 0.91863 0.0
H695 H 0.46182 0.12353 0.72326 0.0
C696 C 0.53688 0.11202 0.81028 0.0
C697 C 0.55897 0.12521 0.86486 0.0
C698 C 0.56725 0.15198 0.91928 0.0
C699 C 0.55377 0.16461 0.92146 0.0
C700 C 0.53195 0.15066 0.86787 0.0
C701 C 0.52382 0.12515 0.81208 0.0
C702 C 0.5 0.11449 0.76 0.0
C703 C 0.50067 0.11385 0.66574 0.0
C704 C 0.48189 0.08445 0.77523 0.0
C705 C 0.49565 0.1377 0.79541 0.0
C706 C 0.51421 0.15823 0.85837 0.0
C707 C 0.51364 0.18093 0.90314 0.0
C708 C 0.49406 0.18288 0.88311 0.0
C709 C 0.47492 0.16263 0.81749 0.0
C710 C 0.47603 0.13973 0.77305 0.0
H711 H 0.98771 0.28342 0.85378 0.0
H712 H 0.94469 0.24708 1.0356 0.0
H713 H 0.96699 0.29505 0.13157 0.0
H714 H 0.04134 0.32976 1.0115 0.0
H715 H 0.05287 0.3589 0.95331 0.0
H716 H 0.03324 0.32196 0.89795 0.0
H717 H 1.00655 0.33678 0.82556 0.0
H718 H 0.02606 0.37373 0.88097 0.0
H719 H 0.99624 0.35456 0.88952 0.0
H720 H 0.99264 0.34874 0.20482 0.0
H721 H 0.02205 0.40106 0.25598 0.0
H722 H 0.05157 0.40247 1.03531 0.0
C723 C 0.983 0.28551 0.91392 0.0
C724 C 0.96415 0.26111 0.93639 0.0
C725 C 0.95893 0.26507 1.01639 0.0
C726 C 0.97151 0.29243 1.07141 0.0
C727 C 0.98981 0.31597 1.04719 0.0
C728 C 0.99585 0.31265 0.97091 0.0
C729 C 1.01689 0.34125 0.96174 0.0
C730 C 0.03729 0.33775 0.95577 0.0
C731 C 1.01108 0.35222 0.88488 0.0
C732 C 0.02157 0.36126 1.04407 0.0
C733 C 1.00549 0.34629 0.09183 0.0
C734 C 1.00547 0.36043 0.16822 0.0
C735 C 0.02227 0.39032 0.19684 0.0
C736 C 0.03945 0.40614 0.15076 0.0
C737 C 0.03899 0.39111 1.07313 0.0
H738 H 0.84674 0.61542 0.83261 0.0
H739 H 0.86938 0.70588 0.91041 0.0
H740 H 0.83248 0.69059 0.9529 0.0
H741 H 0.78693 0.58894 0.74937 0.0
H742 H 0.7758 0.55522 0.78703 0.0
H743 H 0.80397 0.57299 0.76153 0.0
H744 H 0.82171 0.57334 0.91157 0.0
H745 H 0.79359 0.55551 0.93746 0.0
H746 H 0.81675 0.58944 1.00213 0.0
H747 H 0.79311 0.66592 0.987 0.0
H748 H 0.75429 0.63355 1.01302 0.0
H749 H 0.75659 0.5585 0.91726 0.0
C750 C 0.84395 0.63203 0.85847 0.0
C751 C 0.86118 0.66198 0.86796 0.0
C752 C 0.85667 0.68287 0.90242 0.0
C753 C 0.83566 0.67439 0.92673 0.0
C754 C 0.81913 0.64484 0.91662 0.0
C755 C 0.82299 0.62393 0.88353 0.0
C756 C 0.8023 0.59361 0.88058 0.0
C757 C 0.79162 0.57669 0.78918 0.0
C758 C 0.80899 0.577 0.93626 0.0
C759 C 0.78627 0.6008 0.91719 0.0
C760 C 0.79637 0.63052 0.93729 0.0
C761 C 0.78509 0.6426 0.97195 0.0
C762 C 0.76301 0.62394 0.98712 0.0
C763 C 0.75221 0.59329 0.96823 0.0
C764 C 0.76412 0.58172 0.93207 0.0
H765 H 0.94513 0.61911 0.8517 0.0
H766 H 0.96401 0.68743 1.06361 0.0
H767 H 0.98553 0.67068 0.14734 0.0
H768 H 0.93741 0.56412 0.97378 0.0
H769 H 0.9493 0.54945 0.90679 0.0
H770 H 0.93507 0.5664 0.86355 0.0
H771 H 0.97154 0.60142 0.80939 0.0
H772 H 0.98598 0.58478 0.85317 0.0
H773 H 0.99877 0.6234 0.88278 0.0
H774 H 1.00617 0.6482 0.20768 0.0
H775 H 0.02197 0.61843 0.24339 0.0
H776 H 0.98934 0.56438 0.99335 0.0
C777 C 0.95361 0.63048 0.91615 0.0
C778 C 0.95275 0.65453 0.95111 0.0
C779 C 0.96417 0.6688 1.03552 0.0
C780 C 0.97654 0.65958 0.08366 0.0
C781 C 0.97729 0.63612 1.04706 0.0
C782 C 0.96598 0.62157 0.96541 0.0
C783 C 0.96952 0.59696 0.94102 0.0
C784 C 0.94645 0.56749 0.92008 0.0
C785 C 0.98221 0.60195 0.86722 0.0
C786 C 0.98455 0.59988 1.02205 0.0
C787 C 0.98894 0.62275 0.08216 0.0
C788 C 1.00253 0.62993 0.16179 0.0
C789 C 1.01143 0.61287 0.18137 0.0
C790 C 1.00678 0.58888 0.12149 0.0
C791 C 0.99336 0.58265 1.04037 0.0
H792 H 0.52439 0.41371 0.99846 0.0
H793 H 0.58228 0.41894 0.9063 0.0
H794 H 0.55881 0.36619 0.85106 0.0
H795 H 0.50454 0.34389 1.06439 0.0
H796 H 0.47428 0.33025 1.03446 0.0
H797 H 0.49496 0.3688 1.06602 0.0
H798 H 0.48022 0.37747 0.92527 0.0
H799 H 0.45922 0.33904 0.89321 0.0
H800 H 0.47915 0.358 0.82702 0.0
H801 H 0.52849 0.3128 0.79733 0.0
H802 H 0.49527 0.26234 0.76269 0.0
H803 H 0.45637 0.28807 0.89698 0.0
C804 C 0.53219 0.40377 0.96698 0.0
C805 C 0.55554 0.42116 0.95723 0.0
C806 C 0.56474 0.40672 0.91563 0.0
C807 C 0.5514 0.37652 0.88339 0.0
C808 C 0.52862 0.36021 0.89351 0.0
C809 C 0.5191 0.37319 0.93539 0.0
C810 C 0.49429 0.35007 0.93952 0.0
C811 C 0.49186 0.34814 1.0316 0.0
C812 C 0.47721 0.35654 0.89352 0.0
C813 C 0.49133 0.32224 0.8929 0.0
C814 C 0.51138 0.32888 0.86617 0.0
C815 C 0.51286 0.30742 0.81905 0.0
C816 C 0.49369 0.27857 0.79939 0.0
C817 C 0.47291 0.27053 0.82717 0.0
C818 C 0.47189 0.29303 0.87502 0.0
H819 H 0.85199 0.19513 0.76721 0.0
H820 H 0.84417 0.11847 0.85243 0.0
H821 H 0.80568 0.10401 0.87584 0.0
H822 H 0.82309 0.20971 0.92027 0.0
H823 H 0.80905 0.22156 0.84885 0.0
H824 H 0.83599 0.22601 0.83486 0.0
H825 H 0.81739 0.19737 0.68157 0.0
H826 H 0.7904 0.19292 0.69503 0.0
H827 H 0.79168 0.16152 0.66188 0.0
H828 H 0.76727 0.09671 0.89001 0.0
H829 H 0.73333 0.09879 0.90315 0.0
H830 H 0.76384 0.18022 0.81222 0.0
C831 C 0.84217 0.17527 0.7906 0.0
C832 C 0.85165 0.15807 0.80763 0.0
C833 C 0.83787 0.13233 0.83878 0.0
C834 C 0.81572 0.12377 0.85231 0.0
C835 C 0.80703 0.14113 0.8358 0.0
C836 C 0.81982 0.16647 0.80607 0.0
C837 C 0.80624 0.1813 0.79582 0.0
C838 C 0.81938 0.21144 0.85337 0.0
C839 C 0.80113 0.18341 0.70306 0.0
C840 C 0.784 0.1604 0.82447 0.0
C841 C 0.78492 0.13729 0.84649 0.0
C842 C 0.76658 0.11492 0.87377 0.0
C843 C 0.74698 0.11614 0.87986 0.0
C844 C 0.74514 0.13945 0.85814 0.0
C845 C 0.76429 0.16201 0.83017 0.0
H846 H 0.64232 0.04434 0.99405 0.0
H847 H 0.58091 0.97589 0.81643 0.0
H848 H 0.58885 0.93966 0.86098 0.0
H849 H 0.67759 1.01383 0.96696 0.0
H850 H 0.69151 0.02514 0.07685 0.0
H851 H 0.68142 0.04577 1.02865 0.0
H852 H 0.6573 0.04008 0.14316 0.0
H853 H 0.66715 0.01922 0.19125 0.0
H854 H 0.63673 1.00422 0.15903 0.0
H855 H 0.60279 0.91027 0.92889 0.0
H856 H 0.62262 0.89068 1.00819 0.0
H857 H 0.67473 0.97794 0.14399 0.0
C858 C 0.63065 0.02178 0.96364 0.0
C859 C 0.61097 1.01314 0.90114 0.0
C860 C 0.59615 0.98326 0.8639 0.0
C861 C 0.60048 0.96242 0.8891 0.0
C862 C 0.61977 0.97161 0.95174 0.0
C863 C 0.63473 1.00063 0.98807 0.0
C864 C 0.6541 1.00471 1.05471 0.0
C865 C 0.67754 0.02348 1.03032 0.0
C866 C 0.65379 0.01783 0.14221 0.0
C867 C 0.64765 0.97347 1.05052 0.0
C868 C 0.62776 0.95472 0.9908 0.0
C869 C 0.61837 0.92481 0.97581 0.0
C870 C 0.6297 0.91382 1.02204 0.0
C871 C 0.65033 0.93254 0.08313 0.0
C872 C 0.65919 0.96285 0.09744 0.0
H873 H 0.1744 0.73231 0.40477 0.0
H874 H 0.2418 0.74549 0.48185 0.0
H875 H 0.2247 0.69277 0.44549 0.0
H876 H 0.14209 0.66439 0.48227 0.0
H877 H 0.11778 0.64778 0.39513 0.0
H878 H 0.13504 0.68674 0.42801 0.0
H879 H 0.14201 0.69206 0.27647 0.0
H880 H 0.12484 0.65311 0.24325 0.0
H881 H 0.15395 0.67348 0.22697 0.0
H882 H 0.20053 0.6378 0.39869 0.0
H883 H 0.17124 0.58563 0.34845 0.0
H884 H 0.11855 0.6057 0.30015 0.0
C885 C 0.18558 0.72415 0.41457 0.0
C886 C 0.20973 0.74378 0.44693 0.0
C887 C 0.22342 0.73158 0.45769 0.0
C888 C 0.2138 0.70137 0.43696 0.0
C889 C 0.19018 0.68282 0.40495 0.0
C890 C 0.17617 0.69368 0.39395 0.0
C891 C 0.15125 0.66863 0.35794 0.0
C892 C 0.13562 0.66678 0.41951 0.0
C893 C 0.1425 0.67203 0.27099 0.0
C894 C 0.15351 0.64217 0.3504 0.0
C895 C 0.17619 0.65099 0.37793 0.0
C896 C 0.18272 0.63077 0.37714 0.0
C897 C 0.16583 0.60093 0.34814 0.0
C898 C 0.14229 0.59088 0.31965 0.0
C899 C 0.13625 0.6122 0.321 0.0
H900 H 0.47783 0.46403 0.29465 0.0
H901 H 0.43246 0.43139 1.04803 0.0
H902 H 0.39897 0.40421 0.11345 0.0
H903 H 0.44589 0.39746 0.37835 0.0
H904 H 0.45125 0.41688 0.48302 0.0
H905 H 0.47175 0.43288 0.41626 0.0
H906 H 0.46894 0.47837 0.43497 0.0
H907 H 0.4483 0.46239 0.50117 0.0
H908 H 0.44119 0.47405 0.4087 0.0
H909 H 0.37026 0.38139 0.20531 0.0
H910 H 0.34817 0.36533 0.31775 0.0
H911 H 0.41188 0.41226 0.50574 0.0
C912 C 0.46088 0.45089 0.25425 0.0
C913 C 0.45783 0.45001 0.16601 0.0
C914 C 0.43527 0.43282 0.11576 0.0
C915 C 0.41613 0.4171 0.1523 0.0
C916 C 0.41973 0.41866 0.23933 0.0
C917 C 0.44153 0.43508 0.28977 0.0
C918 C 0.44052 0.43359 0.382 0.0
C919 C 0.4531 0.41936 0.41695 0.0
C920 C 0.45031 0.4639 0.4348 0.0
C921 C 0.41472 0.41418 0.37559 0.0
C922 C 0.4031 0.40559 0.29256 0.0
C923 C 0.37919 0.38783 0.27051 0.0
C924 C 0.36678 0.37867 0.33492 0.0
C925 C 0.37823 0.38735 0.42075 0.0
C926 C 0.40258 0.40535 0.44092 0.0
H927 H 0.86767 0.70406 0.62872 0.0
H928 H 0.9393 0.76439 0.62225 0.0
H929 H 0.92842 0.79343 0.54511 0.0
H930 H 0.84233 0.70821 0.42179 0.0
H931 H 0.81849 0.70711 0.45873 0.0
H932 H 0.83151 0.68937 0.5063 0.0
H933 H 0.83855 0.71896 0.65321 0.0
H934 H 0.82576 0.73697 0.60607 0.0
H935 H 0.8545 0.75808 0.66956 0.0
H936 H 0.9105 0.81702 0.47483 0.0
H937 H 0.88649 0.83454 0.41589 0.0
H938 H 0.82616 0.76064 0.47173 0.0
C939 C 0.88092 0.72303 0.60923 0.0
C940 C 0.90431 0.73186 0.63034 0.0
C941 C 0.9213 0.75724 0.60622 0.0
C942 C 0.91528 0.77384 0.56238 0.0
C943 C 0.8922 0.76499 0.54399 0.0
C944 C 0.87523 0.74025 0.56661 0.0
C945 C 0.85193 0.7368 0.54362 0.0
C946 C 0.83507 0.7087 0.47874 0.0
C947 C 0.84211 0.73776 0.62284 0.0
C948 C 0.85853 0.76353 0.50496 0.0
C949 C 0.88184 0.77926 0.50534 0.0
C950 C 0.8922 0.80482 0.47366 0.0
C951 C 0.8784 0.81454 0.44007 0.0
C952 C 0.85443 0.79889 0.43862 0.0
C953 C 0.84443 0.77311 0.47221 0.0
H954 H 0.37857 0.07 0.60643 0.0
H955 H 0.34745 0.09009 0.79566 0.0
H956 H 0.31449 0.03906 0.76233 0.0
H957 H 0.32615 0.01677 0.4548 0.0
H958 H 0.3356 0.99251 0.42829 0.0
H959 H 0.35641 0.03087 0.4636 0.0
H960 H 0.37757 0.02016 0.58285 0.0
H961 H 0.3569 0.98176 0.54753 0.0
H962 H 0.36175 0.99849 0.65537 0.0
H963 H 0.28321 0.9853 0.70283 0.0
H964 H 0.25955 0.93305 0.63823 0.0
H965 H 0.31189 0.9448 0.49699 0.0
C966 C 0.3648 0.06367 0.6408 0.0
C967 C 0.3658 0.08462 0.70381 0.0
C968 C 0.34739 0.07489 0.74759 0.0
C969 C 0.32841 0.04577 0.72861 0.0
C970 C 0.3279 0.02578 0.66645 0.0
C971 C 0.34588 0.03417 0.62433 0.0
C972 C 0.34159 1.00776 0.56395 0.0
C973 C 0.33984 1.01226 0.47221 0.0
C974 C 0.36058 1.00168 0.58892 0.0
C975 C 0.31837 0.98338 0.57789 0.0
C976 C 0.31064 0.99445 0.63635 0.0
C977 C 0.28932 0.97651 0.65765 0.0
C978 C 0.27582 0.94665 0.61994 0.0
C979 C 0.28352 0.9342 0.56199 0.0
C980 C 0.30527 0.95322 0.54096 0.0
H981 H 0.99879 0.22252 0.6544 0.0
H982 H 0.97251 0.14447 0.76189 0.0
H983 H 1.00626 0.14271 0.74306 0.0
H984 H 0.02463 0.20175 0.49825 0.0
H985 H 0.04988 0.2377 0.51091 0.0
H986 H 0.02324 0.23318 0.52975 0.0
H987 H 0.04382 0.26421 0.6795 0.0
H988 H 0.0705 0.26878 0.66112 0.0
H989 H 0.05927 0.25403 0.75081 0.0
H990 H 0.04271 0.14827 0.71457 0.0
H991 H 0.08006 0.16159 0.68082 0.0
H992 H 0.08618 0.23706 0.59276 0.0
C993 C 1.00006 0.20495 0.6734 0.0
C994 C 0.98243 0.18357 0.71 0.0
C995 C 0.98535 0.16128 0.73433 0.0
C996 C 1.00464 0.15999 0.72365 0.0
C997 C 0.0216 0.18124 0.68864 0.0
C998 C 0.01971 0.20345 0.66393 0.0
C999 C 0.04115 0.22373 0.62976 0.0
C1000 C 0.03431 0.22412 0.53662 0.0
C1001 C 0.05447 0.25452 0.6835 0.0
C1002 C 0.05515 0.20937 0.63933 0.0
C1003 C 0.04324 0.18476 0.67305 0.0
C1004 C 0.05209 0.16745 0.68772 0.0
C1005 C 0.07347 0.17518 0.6675 0.0
C1006 C 0.08648 0.20025 0.63259 0.0
C1007 C 0.077 0.21773 0.61917 0.0
H1008 H 0.37611 0.22594 0.65301 0.0
H1009 H 0.33885 0.15162 0.77068 0.0
H1010 H 0.30524 0.15648 0.75068 0.0
H1011 H 0.35469 0.26722 0.74839 0.0
H1012 H 0.35295 0.28283 0.65745 0.0
H1013 H 0.37363 0.27248 0.67604 0.0
H1014 H 0.35703 0.23995 0.5274 0.0
H1015 H 0.33625 0.25016 0.50861 0.0
H1016 H 0.32673 0.21234 0.49798 0.0
H1017 H 0.27448 0.17004 0.71861 0.0
H1018 H 0.2522 0.193 0.68751 0.0
H1019 H 0.30939 0.25956 0.59578 0.0
C1020 C 0.3608 0.21045 0.67368 0.0
C1021 C 0.36045 0.1881 0.71305 0.0
C1022 C 0.33993 0.16888 0.74029 0.0
C1023 C 0.32054 0.17144 0.72896 0.0
C1024 C 0.32145 0.19366 0.69072 0.0
C1025 C 0.34119 0.21301 0.66405 0.0
C1026 C 0.33807 0.23587 0.62874 0.0
C1027 C 0.35589 0.26641 0.68075 0.0
C1028 C 0.33961 0.23449 0.53512 0.0
C1029 C 0.31366 0.22641 0.63962 0.0
C1030 C 0.30421 0.20182 0.67476 0.0
C1031 C 0.28187 0.18931 0.69096 0.0
C1032 C 0.26913 0.20243 0.67247 0.0
C1033 C 0.27858 0.22818 0.63846 0.0
C1034 C 0.30123 0.23986 0.62135 0.0
H1035 H 0.78905 0.95133 0.48923 0.0
H1036 H 0.80957 0.96021 0.24738 0.0
H1037 H 0.83792 1.01261 0.30131 0.0
H1038 H 0.7965 0.02262 0.54353 0.0
H1039 H 0.80872 0.02837 0.65335 0.0
H1040 H 0.78874 0.99197 0.59455 0.0
H1041 H 0.81872 0.97835 0.63535 0.0
H1042 H 0.83875 1.01471 0.69419 0.0
H1043 H 0.847 0.99966 0.61214 0.0
H1044 H 0.8631 0.06526 0.37975 0.0
H1045 H 0.88725 0.11167 0.48169 0.0
H1046 H 0.8542 0.06911 0.67966 0.0
C1047 C 0.79927 0.96445 0.4473 0.0
C1048 C 0.79664 0.9515 0.36298 0.0
C1049 C 0.81097 0.96943 0.3115 0.0
C1050 C 0.82711 0.99937 0.34165 0.0
C1051 C 0.82927 1.01148 0.42459 0.0
C1052 C 0.81605 0.99448 0.47739 0.0
C1053 C 0.82325 1.01264 0.56596 0.0
C1054 C 0.8031 1.01397 0.5908 0.0
C1055 C 0.83248 1.00062 0.63074 0.0
C1056 C 0.84241 0.04242 0.55455 0.0
C1057 C 0.84524 0.0413 0.4719 0.0
C1058 C 0.86121 0.06617 0.44485 0.0
C1059 C 0.87488 0.09262 0.50352 0.0
C1060 C 0.87308 0.09439 0.58963 0.0
C1061 C 0.8564 0.06869 0.61488 0.0
H1062 H 0.98297 0.71135 0.5961 0.0
H1063 H 1.00675 0.73162 0.86823 0.0
H1064 H 0.04659 0.75416 0.85053 0.0
H1065 H 0.02709 0.69485 0.55445 0.0
H1066 H 0.02918 0.70861 0.45772 0.0
H1067 H 1.00268 0.69355 0.49676 0.0
H1068 H 1.00448 0.74157 0.48567 0.0
H1069 H 0.0319 0.75739 0.45462 0.0
H1070 H 0.02893 0.77526 0.54681 0.0
H1071 H 0.0842 0.77618 0.80647 0.0
H1072 H 0.11738 0.79468 0.73711 0.0
H1073 H 0.07099 0.75974 0.49198 0.0
C1074 C 0.99656 0.72042 0.65179 0.0
C1075 C 0.99146 0.71999 0.73369 0.0
C1076 C 1.00992 0.73199 0.80473 0.0
C1077 C 0.03279 0.74488 0.79552 0.0
C1078 C 0.03731 0.74562 0.71466 0.0
C1079 C 0.01982 0.73355 0.64387 0.0
C1080 C 0.02979 0.7367 0.56447 0.0
C1081 C 0.02173 0.70664 0.51516 0.0
C1082 C 0.02339 0.75375 0.50968 0.0
C1083 C 0.05552 0.75357 0.60188 0.0
C1084 C 0.05932 0.75803 0.68883 0.0
C1085 C 0.08144 0.77262 0.73829 0.0
C1086 C 0.10024 0.78289 0.69808 0.0
C1087 C 0.09703 0.7786 0.60881 0.0
C1088 C 0.0742 0.76368 0.56027 0.0
loop_
_geom_bond_atom_site_label_1
_geom_bond_atom_site_label_2
_geom_bond_distance
_geom_bond_site_symmetry_2
_ccdc_geom_bond_type
Eu0 C9 2.828 . S
Eu0 O11 2.392 . S
Eu0 O13 2.418 1_554 S
Eu0 O18 2.373 . S
Eu0 O21 2.488 . S
Eu0 O22 2.471 . S
Eu0 O23 2.349 . S
Eu1 O10 2.373 . S
Eu1 O14 2.488 1_455 S
Eu1 O15 2.471 1_554 S
Eu1 O16 2.349 1_554 S
Eu1 O19 2.392 . S
Eu1 O20 2.418 . S
Eu1 C30 2.828 1_455 S
C2 O20 1.244 . S
C2 O23 1.265 . S
C3 C4 1.379 . S
C3 C7 1.373 . S
C3 C9 1.505 . S
C4 C3 1.379 . S
C4 C6 1.369 . S
C4 H32 0.930 . S
C5 C7 1.383 . S
C5 C8 1.382 . S
C5 H33 0.930 . S
C6 C4 1.369 . S
C6 C8 1.392 . S
C6 H34 0.930 . S
C7 C3 1.373 . S
C7 C5 1.383 . S
C7 H35 0.931 . S
C8 C5 1.382 . S
C8 C6 1.392 . S
C9 Eu0 2.828 . S
C9 C3 1.505 . S
C9 O21 1.249 . S
C9 O22 1.244 . S
O10 Eu1 2.373 . S
O10 C12 1.258 . S
O11 Eu0 2.392 . S
O11 C12 1.242 . S
C12 O10 1.258 . S
C12 O11 1.242 . S
O13 Eu0 2.418 1_556 S
O13 C17 1.244 . S
O14 Eu1 2.488 1_655 S
O14 C30 1.249 . S
O15 Eu1 2.471 1_556 S
O15 C30 1.244 1_456 S
O16 Eu1 2.349 1_556 S
O16 C17 1.265 . S
C17 O13 1.244 . S
C17 O16 1.265 . S
O18 Eu0 2.373 . S
O18 C31 1.258 . S
O19 Eu1 2.392 . S
O19 C31 1.242 . S
O20 Eu1 2.418 . S
O20 C2 1.244 . S
O21 Eu0 2.488 . S
O21 C9 1.249 . S
O22 Eu0 2.471 . S
O22 C9 1.244 . S
O23 Eu0 2.349 . S
O23 C2 1.265 . S
C24 C25 1.379 1_554 S
C24 C28 1.373 . S
C24 C30 1.505 . S
C25 C24 1.379 1_556 S
C25 C27 1.369 . S
C25 H36 0.930 1_655 S
C26 C28 1.383 . S
C26 C29 1.382 1_554 S
C26 H37 0.930 . S
C27 C25 1.369 . S
C27 C29 1.392 . S
C27 H38 0.930 . S
C28 C24 1.373 . S
C28 C26 1.383 . S
C28 H39 0.931 . S
C29 C26 1.382 1_556 S
C29 C27 1.392 . S
C30 Eu1 2.828 1_655 S
C30 O14 1.249 . S
C30 O15 1.244 1_654 S
C30 C24 1.505 . S
C31 O18 1.258 . S
C31 O19 1.242 . S
H32 C4 0.930 . S
H33 C5 0.930 . S
H34 C6 0.930 . S
H35 C7 0.931 . S
H36 C25 0.930 1_455 S
H37 C26 0.930 . S
H38 C27 0.930 . S
H39 C28 0.931 . S
Eu40 C49 2.828 . S
Eu40 O51 2.392 . S
Eu40 O53 2.418 . S
Eu40 O58 2.373 . S
Eu40 O61 2.488 . S
Eu40 O62 2.471 . S
Eu40 O63 2.349 . S
Eu41 O50 2.373 . S
Eu41 O54 2.488 . S
Eu41 O55 2.471 . S
Eu41 O56 2.349 . S
Eu41 O59 2.392 . S
Eu41 O60 2.418 1_554 S
Eu41 C70 2.828 . S
C42 O60 1.244 . S
C42 O63 1.265 1_556 S
C43 C44 1.379 . S
C43 C47 1.373 . S
C43 C49 1.505 . S
C44 C43 1.379 . S
C44 C46 1.369 . S
C44 H72 0.930 . S
C45 C47 1.383 . S
C45 C48 1.382 . S
C45 H73 0.930 . S
C46 C44 1.369 . S
C46 C48 1.392 . S
C46 H74 0.930 . S
C47 C43 1.373 . S
C47 C45 1.383 . S
C47 H75 0.931 . S
C48 C45 1.382 . S
C48 C46 1.392 . S
C49 Eu40 2.828 . S
C49 C43 1.505 . S
C49 O61 1.249 . S
C49 O62 1.244 . S
O50 Eu41 2.373 . S
O50 C52 1.258 . S
O51 Eu40 2.392 . S
O51 C52 1.242 . S
C52 O50 1.258 . S
C52 O51 1.242 . S
O53 Eu40 2.418 . S
O53 C57 1.244 . S
O54 Eu41 2.488 . S
O54 C70 1.249 . S
O55 Eu41 2.471 . S
O55 C70 1.244 . S
O56 Eu41 2.349 . S
O56 C57 1.265 . S
C57 O53 1.244 . S
C57 O56 1.265 . S
O58 Eu40 2.373 . S
O58 C71 1.258 . S
O59 Eu41 2.392 . S
O59 C71 1.242 . S
O60 Eu41 2.418 1_556 S
O60 C42 1.244 . S
O61 Eu40 2.488 . S
O61 C49 1.249 . S
O62 Eu40 2.471 . S
O62 C49 1.244 . S
O63 Eu40 2.349 . S
O63 C42 1.265 1_554 S
C64 C65 1.379 . S
C64 C68 1.373 . S
C64 C70 1.505 . S
C65 C64 1.379 . S
C65 C67 1.369 . S
C65 H76 0.930 . S
C66 C68 1.383 . S
C66 C69 1.382 . S
C66 H77 0.930 . S
C67 C65 1.369 . S
C67 C69 1.392 . S
C67 H78 0.930 . S
C68 C64 1.373 . S
C68 C66 1.383 . S
C68 H79 0.931 . S
C69 C66 1.382 . S
C69 C67 1.392 . S
C70 Eu41 2.828 . S
C70 O54 1.249 . S
C70 O55 1.244 . S
C70 C64 1.505 . S
C71 O58 1.258 . S
C71 O59 1.242 . S
H72 C44 0.930 . S
H73 C45 0.930 . S
H74 C46 0.930 . S
H75 C47 0.931 . S
H76 C65 0.930 . S
H77 C66 0.930 . S
H78 C67 0.930 . S
H79 C68 0.931 . S
Eu80 C89 2.828 . S
Eu80 O91 2.392 . S
Eu80 O93 2.418 1_554 S
Eu80 O98 2.373 . S
Eu80 O101 2.488 . S
Eu80 O102 2.471 . S
Eu80 O103 2.349 . S
Eu81 O90 2.373 . S
Eu81 O94 2.488 . S
Eu81 O95 2.471 . S
Eu81 O96 2.349 . S
Eu81 O99 2.392 . S
Eu81 O100 2.418 . S
Eu81 C110 2.828 . S
C82 O100 1.244 . S
C82 O103 1.265 . S
C83 C84 1.379 . S
C83 C87 1.373 . S
C83 C89 1.505 . S
C84 C83 1.379 . S
C84 C86 1.369 . S
C84 H112 0.930 . S
C85 C87 1.383 . S
C85 C88 1.382 . S
C85 H113 0.930 1_545 S
C86 C84 1.369 . S
C86 C88 1.392 . S
C86 H114 0.930 . S
C87 C83 1.373 . S
C87 C85 1.383 . S
C87 H115 0.931 . S
C88 C85 1.382 . S
C88 C86 1.392 . S
C89 Eu80 2.828 . S
C89 C83 1.505 . S
C89 O101 1.249 . S
C89 O102 1.244 . S
O90 Eu81 2.373 . S
O90 C92 1.258 . S
O91 Eu80 2.392 . S
O91 C92 1.242 . S
C92 O90 1.258 . S
C92 O91 1.242 . S
O93 Eu80 2.418 1_556 S
O93 C97 1.244 . S
O94 Eu81 2.488 . S
O94 C110 1.249 . S
O95 Eu81 2.471 . S
O95 C110 1.244 . S
O96 Eu81 2.349 . S
O96 C97 1.265 1_554 S
C97 O93 1.244 . S
C97 O96 1.265 1_556 S
O98 Eu80 2.373 . S
O98 C111 1.258 . S
O99 Eu81 2.392 . S
O99 C111 1.242 . S
O100 Eu81 2.418 . S
O100 C82 1.244 . S
O101 Eu80 2.488 . S
O101 C89 1.249 . S
O102 Eu80 2.471 . S
O102 C89 1.244 . S
O103 Eu80 2.349 . S
O103 C82 1.265 . S
C104 C105 1.379 . S
C104 C108 1.373 . S
C104 C110 1.505 . S
C105 C104 1.379 . S
C105 C107 1.369 . S
C105 H116 0.930 . S
C106 C108 1.383 . S
C106 C109 1.382 . S
C106 H117 0.930 . S
C107 C105 1.369 . S
C107 C109 1.392 . S
C107 H118 0.930 . S
C108 C104 1.373 . S
C108 C106 1.383 . S
C108 H119 0.931 . S
C109 C106 1.382 . S
C109 C107 1.392 . S
C110 Eu81 2.828 . S
C110 O94 1.249 . S
C110 O95 1.244 . S
C110 C104 1.505 . S
C111 O98 1.258 . S
C111 O99 1.242 . S
H112 C84 0.930 . S
H113 C85 0.930 1_565 S
H114 C86 0.930 . S
H115 C87 0.931 . S
H116 C105 0.930 . S
H117 C106 0.930 . S
H118 C107 0.930 . S
H119 C108 0.931 . S
Eu120 C129 2.828 . S
Eu120 O131 2.392 . S
Eu120 O133 2.418 . S
Eu120 O138 2.373 . S
Eu120 O141 2.488 . S
Eu120 O142 2.471 . S
Eu120 O143 2.349 . S
Eu121 O130 2.373 . S
Eu121 O134 2.488 . S
Eu121 O135 2.471 . S
Eu121 O136 2.349 . S
Eu121 O139 2.392 . S
Eu121 O140 2.418 . S
Eu121 C150 2.828 . S
C122 O140 1.244 . S
C122 O143 1.265 . S
C123 C124 1.379 . S
C123 C127 1.373 . S
C123 C129 1.505 . S
C124 C123 1.379 . S
C124 C126 1.369 . S
C124 H152 0.930 . S
C125 C127 1.383 . S
C125 C128 1.382 . S
C125 H153 0.930 . S
C126 C124 1.369 . S
C126 C128 1.392 . S
C126 H154 0.930 . S
C127 C123 1.373 . S
C127 C125 1.383 . S
C127 H155 0.931 . S
C128 C125 1.382 . S
C128 C126 1.392 . S
C129 Eu120 2.828 . S
C129 C123 1.505 . S
C129 O141 1.249 . S
C129 O142 1.244 . S
O130 Eu121 2.373 . S
O130 C132 1.258 . S
O131 Eu120 2.392 . S
O131 C132 1.242 . S
C132 O130 1.258 . S
C132 O131 1.242 . S
O133 Eu120 2.418 . S
O133 C137 1.244 . S
O134 Eu121 2.488 . S
O134 C150 1.249 . S
O135 Eu121 2.471 . S
O135 C150 1.244 . S
O136 Eu121 2.349 . S
O136 C137 1.265 . S
C137 O133 1.244 . S
C137 O136 1.265 . S
O138 Eu120 2.373 . S
O138 C151 1.258 . S
O139 Eu121 2.392 . S
O139 C151 1.242 . S
O140 Eu121 2.418 . S
O140 C122 1.244 . S
O141 Eu120 2.488 . S
O141 C129 1.249 . S
O142 Eu120 2.471 . S
O142 C129 1.244 . S
O143 Eu120 2.349 . S
O143 C122 1.265 . S
C144 C145 1.379 . S
C144 C148 1.373 . S
C144 C150 1.505 . S
C145 C144 1.379 . S
C145 C147 1.369 . S
C145 H156 0.930 . S
C146 C148 1.383 . S
C146 C149 1.382 . S
C146 H157 0.930 . S
C147 C145 1.369 . S
C147 C149 1.392 . S
C147 H158 0.930 . S
C148 C144 1.373 . S
C148 C146 1.383 . S
C148 H159 0.931 . S
C149 C146 1.382 . S
C149 C147 1.392 . S
C150 Eu121 2.828 . S
C150 O134 1.249 . S
C150 O135 1.244 . S
C150 C144 1.505 . S
C151 O138 1.258 . S
C151 O139 1.242 . S
H152 C124 0.930 . S
H153 C125 0.930 . S
H154 C126 0.930 . S
H155 C127 0.931 . S
H156 C145 0.930 . S
H157 C146 0.930 . S
H158 C147 0.930 . S
H159 C148 0.931 . S
Eu160 C169 2.828 . S
Eu160 O171 2.392 . S
Eu160 O173 2.418 . S
Eu160 O178 2.373 . S
Eu160 O181 2.488 . S
Eu160 O182 2.471 . S
Eu160 O183 2.349 . S
Eu161 O170 2.373 . S
Eu161 O174 2.488 . S
Eu161 O175 2.471 . S
Eu161 O176 2.349 . S
Eu161 O179 2.392 . S
Eu161 O180 2.418 . S
Eu161 C190 2.828 . S
C162 O180 1.244 . S
C162 O183 1.265 . S
C163 C164 1.379 . S
C163 C167 1.373 . S
C163 C169 1.505 . S
C164 C163 1.379 . S
C164 C166 1.369 . S
C164 H192 0.930 . S
C165 C167 1.383 . S
C165 C168 1.382 . S
C165 H193 0.930 . S
C166 C164 1.369 . S
C166 C168 1.392 . S
C166 H194 0.930 . S
C167 C163 1.373 . S
C167 C165 1.383 . S
C167 H195 0.931 . S
C168 C165 1.382 . S
C168 C166 1.392 . S
C169 Eu160 2.828 . S
C169 C163 1.505 . S
C169 O181 1.249 . S
C169 O182 1.244 . S
O170 Eu161 2.373 . S
O170 C172 1.258 . S
O171 Eu160 2.392 . S
O171 C172 1.242 . S
C172 O170 1.258 . S
C172 O171 1.242 . S
O173 Eu160 2.418 . S
O173 C177 1.244 . S
O174 Eu161 2.488 . S
O174 C190 1.249 . S
O175 Eu161 2.471 . S
O175 C190 1.244 . S
O176 Eu161 2.349 . S
O176 C177 1.265 . S
C177 O173 1.244 . S
C177 O176 1.265 . S
O178 Eu160 2.373 . S
O178 C191 1.258 . S
O179 Eu161 2.392 . S
O179 C191 1.242 . S
O180 Eu161 2.418 . S
O180 C162 1.244 . S
O181 Eu160 2.488 . S
O181 C169 1.249 . S
O182 Eu160 2.471 . S
O182 C169 1.244 . S
O183 Eu160 2.349 . S
O183 C162 1.265 . S
C184 C185 1.379 . S
C184 C188 1.373 . S
C184 C190 1.505 . S
C185 C184 1.379 . S
C185 C187 1.369 . S
C185 H196 0.930 . S
C186 C188 1.383 . S
C186 C189 1.382 . S
C186 H197 0.930 . S
C187 C185 1.369 . S
C187 C189 1.392 . S
C187 H198 0.930 . S
C188 C184 1.373 . S
C188 C186 1.383 . S
C188 H199 0.931 . S
C189 C186 1.382 . S
C189 C187 1.392 . S
C190 Eu161 2.828 . S
C190 O174 1.249 . S
C190 O175 1.244 . S
C190 C184 1.505 . S
C191 O178 1.258 . S
C191 O179 1.242 . S
H192 C164 0.930 . S
H193 C165 0.930 . S
H194 C166 0.930 . S
H195 C167 0.931 . S
H196 C185 0.930 . S
H197 C186 0.930 . S
H198 C187 0.930 . S
H199 C188 0.931 . S
Eu200 C209 2.828 . S
Eu200 O211 2.392 . S
Eu200 O213 2.418 . S
Eu200 O218 2.373 . S
Eu200 O221 2.488 . S
Eu200 O222 2.471 . S
Eu200 O223 2.349 . S
Eu201 O210 2.373 . S
Eu201 O214 2.488 . S
Eu201 O215 2.471 . S
Eu201 O216 2.349 . S
Eu201 O219 2.392 . S
Eu201 O220 2.418 . S
Eu201 C230 2.828 . S
C202 O220 1.244 . S
C202 O223 1.265 . S
C203 C204 1.379 . S
C203 C207 1.373 . S
C203 C209 1.505 . S
C204 C203 1.379 . S
C204 C206 1.369 . S
C204 H232 0.930 . S
C205 C207 1.383 . S
C205 C208 1.382 . S
C205 H233 0.930 . S
C206 C204 1.369 . S
C206 C208 1.392 . S
C206 H234 0.930 . S
C207 C203 1.373 . S
C207 C205 1.383 . S
C207 H235 0.931 . S
C208 C205 1.382 . S
C208 C206 1.392 . S
C209 Eu200 2.828 . S
C209 C203 1.505 . S
C209 O221 1.249 . S
C209 O222 1.244 . S
O210 Eu201 2.373 . S
O210 C212 1.258 . S
O211 Eu200 2.392 . S
O211 C212 1.242 . S
C212 O210 1.258 . S
C212 O211 1.242 . S
O213 Eu200 2.418 . S
O213 C217 1.244 . S
O214 Eu201 2.488 . S
O214 C230 1.249 . S
O215 Eu201 2.471 . S
O215 C230 1.244 . S
O216 Eu201 2.349 . S
O216 C217 1.265 . S
C217 O213 1.244 . S
C217 O216 1.265 . S
O218 Eu200 2.373 . S
O218 C231 1.258 . S
O219 Eu201 2.392 . S
O219 C231 1.242 . S
O220 Eu201 2.418 . S
O220 C202 1.244 . S
O221 Eu200 2.488 . S
O221 C209 1.249 . S
O222 Eu200 2.471 . S
O222 C209 1.244 . S
O223 Eu200 2.349 . S
O223 C202 1.265 . S
C224 C225 1.379 . S
C224 C228 1.373 . S
C224 C230 1.505 . S
C225 C224 1.379 . S
C225 C227 1.369 . S
C225 H236 0.930 . S
C226 C228 1.383 . S
C226 C229 1.382 . S
C226 H237 0.930 . S
C227 C225 1.369 . S
C227 C229 1.392 . S
C227 H238 0.930 . S
C228 C224 1.373 . S
C228 C226 1.383 . S
C228 H239 0.931 . S
C229 C226 1.382 . S
C229 C227 1.392 . S
C230 Eu201 2.828 . S
C230 O214 1.249 . S
C230 O215 1.244 . S
C230 C224 1.505 . S
C231 O218 1.258 . S
C231 O219 1.242 . S
H232 C204 0.930 . S
H233 C205 0.930 . S
H234 C206 0.930 . S
H235 C207 0.931 . S
H236 C225 0.930 . S
H237 C226 0.930 . S
H238 C227 0.930 . S
H239 C228 0.931 . S
Eu240 C249 2.828 . S
Eu240 O251 2.392 . S
Eu240 O253 2.418 . S
Eu240 O258 2.373 . S
Eu240 O261 2.488 . S
Eu240 O262 2.471 . S
Eu240 O263 2.349 . S
Eu241 O250 2.373 . S
Eu241 O254 2.488 . S
Eu241 O255 2.471 . S
Eu241 O256 2.349 . S
Eu241 O259 2.392 . S
Eu241 O260 2.418 . S
Eu241 C270 2.828 . S
C242 O260 1.244 . S
C242 O263 1.265 . S
C243 C244 1.379 . S
C243 C247 1.373 . S
C243 C249 1.505 . S
C244 C243 1.379 . S
C244 C246 1.369 . S
C244 H272 0.930 . S
C245 C247 1.383 . S
C245 C248 1.382 . S
C245 H273 0.930 . S
C246 C244 1.369 . S
C246 C248 1.392 . S
C246 H274 0.930 . S
C247 C243 1.373 . S
C247 C245 1.383 . S
C247 H275 0.931 . S
C248 C245 1.382 . S
C248 C246 1.392 . S
C249 Eu240 2.828 . S
C249 C243 1.505 . S
C249 O261 1.249 . S
C249 O262 1.244 . S
O250 Eu241 2.373 . S
O250 C252 1.258 . S
O251 Eu240 2.392 . S
O251 C252 1.242 . S
C252 O250 1.258 . S
C252 O251 1.242 . S
O253 Eu240 2.418 . S
O253 C257 1.244 . S
O254 Eu241 2.488 . S
O254 C270 1.249 . S
O255 Eu241 2.471 . S
O255 C270 1.244 . S
O256 Eu241 2.349 . S
O256 C257 1.265 . S
C257 O253 1.244 . S
C257 O256 1.265 . S
O258 Eu240 2.373 . S
O258 C271 1.258 . S
O259 Eu241 2.392 . S
O259 C271 1.242 . S
O260 Eu241 2.418 . S
O260 C242 1.244 . S
O261 Eu240 2.488 . S
O261 C249 1.249 . S
O262 Eu240 2.471 . S
O262 C249 1.244 . S
O263 Eu240 2.349 . S
O263 C242 1.265 . S
C264 C265 1.379 1_556 S
C264 C268 1.373 1_556 S
C264 C270 1.505 . S
C265 C264 1.379 1_554 S
C265 C267 1.369 . S
C265 H276 0.930 . S
C266 C268 1.383 . S
C266 C269 1.382 . S
C266 H277 0.930 . S
C267 C265 1.369 . S
C267 C269 1.392 . S
C267 H278 0.930 . S
C268 C264 1.373 1_554 S
C268 C266 1.383 . S
C268 H279 0.931 1_554 S
C269 C266 1.382 . S
C269 C267 1.392 . S
C270 Eu241 2.828 . S
C270 O254 1.249 . S
C270 O255 1.244 . S
C270 C264 1.505 . S
C271 O258 1.258 . S
C271 O259 1.242 . S
H272 C244 0.930 . S
H273 C245 0.930 . S
H274 C246 0.930 . S
H275 C247 0.931 . S
H276 C265 0.930 . S
H277 C266 0.930 . S
H278 C267 0.930 . S
H279 C268 0.931 1_556 S
Eu280 C289 2.828 . S
Eu280 O291 2.392 . S
Eu280 O293 2.418 . S
Eu280 O298 2.373 . S
Eu280 O301 2.488 . S
Eu280 O302 2.471 . S
Eu280 O303 2.349 . S
Eu281 O290 2.373 . S
Eu281 O294 2.488 . S
Eu281 O295 2.471 . S
Eu281 O296 2.349 . S
Eu281 O299 2.392 . S
Eu281 O300 2.418 . S
Eu281 C310 2.828 . S
C282 O300 1.244 . S
C282 O303 1.265 . S
C283 C284 1.379 1_556 S
C283 C287 1.373 1_556 S
C283 C289 1.505 . S
C284 C283 1.379 1_554 S
C284 C286 1.369 . S
C284 H312 0.930 . S
C285 C287 1.383 . S
C285 C288 1.382 . S
C285 H313 0.930 . S
C286 C284 1.369 . S
C286 C288 1.392 . S
C286 H314 0.930 . S
C287 C283 1.373 1_554 S
C287 C285 1.383 . S
C287 H315 0.931 1_554 S
C288 C285 1.382 . S
C288 C286 1.392 . S
C289 Eu280 2.828 . S
C289 C283 1.505 . S
C289 O301 1.249 . S
C289 O302 1.244 . S
O290 Eu281 2.373 . S
O290 C292 1.258 . S
O291 Eu280 2.392 . S
O291 C292 1.242 . S
C292 O290 1.258 . S
C292 O291 1.242 . S
O293 Eu280 2.418 . S
O293 C297 1.244 . S
O294 Eu281 2.488 . S
O294 C310 1.249 . S
O295 Eu281 2.471 . S
O295 C310 1.244 . S
O296 Eu281 2.349 . S
O296 C297 1.265 . S
C297 O293 1.244 . S
C297 O296 1.265 . S
O298 Eu280 2.373 . S
O298 C311 1.258 . S
O299 Eu281 2.392 . S
O299 C311 1.242 . S
O300 Eu281 2.418 . S
O300 C282 1.244 . S
O301 Eu280 2.488 . S
O301 C289 1.249 . S
O302 Eu280 2.471 . S
O302 C289 1.244 . S
O303 Eu280 2.349 . S
O303 C282 1.265 . S
C304 C305 1.379 . S
C304 C308 1.373 . S
C304 C310 1.505 . S
C305 C304 1.379 . S
C305 C307 1.369 . S
C305 H316 0.930 . S
C306 C308 1.383 . S
C306 C309 1.382 . S
C306 H317 0.930 . S
C307 C305 1.369 . S
C307 C309 1.392 . S
C307 H318 0.930 . S
C308 C304 1.373 . S
C308 C306 1.383 . S
C308 H319 0.931 . S
C309 C306 1.382 . S
C309 C307 1.392 . S
C310 Eu281 2.828 . S
C310 O294 1.249 . S
C310 O295 1.244 . S
C310 C304 1.505 . S
C311 O298 1.258 . S
C311 O299 1.242 . S
H312 C284 0.930 . S
H313 C285 0.930 . S
H314 C286 0.930 . S
H315 C287 0.931 1_556 S
H316 C305 0.930 . S
H317 C306 0.930 . S
H318 C307 0.930 . S
H319 C308 0.931 . S
Eu320 C329 2.828 . S
Eu320 O331 2.392 . S
Eu320 O333 2.418 . S
Eu320 O338 2.373 . S
Eu320 O341 2.488 . S
Eu320 O342 2.471 . S
Eu320 O343 2.349 . S
Eu321 O330 2.373 . S
Eu321 O334 2.488 . S
Eu321 O335 2.471 . S
Eu321 O336 2.349 . S
Eu321 O339 2.392 . S
Eu321 O340 2.418 . S
Eu321 C350 2.828 . S
C322 O340 1.244 . S
C322 O343 1.265 . S
C323 C324 1.379 . S
C323 C327 1.373 . S
C323 C329 1.505 . S
C324 C323 1.379 . S
C324 C326 1.369 . S
C324 H352 0.930 . S
C325 C327 1.383 . S
C325 C328 1.382 . S
C325 H353 0.930 . S
C326 C324 1.369 . S
C326 C328 1.392 . S
C326 H354 0.930 . S
C327 C323 1.373 . S
C327 C325 1.383 . S
C327 H355 0.931 . S
C328 C325 1.382 . S
C328 C326 1.392 . S
C329 Eu320 2.828 . S
C329 C323 1.505 . S
C329 O341 1.249 . S
C329 O342 1.244 . S
O330 Eu321 2.373 . S
O330 C332 1.258 . S
O331 Eu320 2.392 . S
O331 C332 1.242 . S
C332 O330 1.258 . S
C332 O331 1.242 . S
O333 Eu320 2.418 . S
O333 C337 1.244 . S
O334 Eu321 2.488 . S
O334 C350 1.249 . S
O335 Eu321 2.471 . S
O335 C350 1.244 . S
O336 Eu321 2.349 . S
O336 C337 1.265 . S
C337 O333 1.244 . S
C337 O336 1.265 . S
O338 Eu320 2.373 . S
O338 C351 1.258 . S
O339 Eu321 2.392 . S
O339 C351 1.242 . S
O340 Eu321 2.418 . S
O340 C322 1.244 . S
O341 Eu320 2.488 . S
O341 C329 1.249 . S
O342 Eu320 2.471 . S
O342 C329 1.244 . S
O343 Eu320 2.349 . S
O343 C322 1.265 . S
C344 C345 1.379 . S
C344 C348 1.373 . S
C344 C350 1.505 1_554 S
C345 C344 1.379 . S
C345 C347 1.369 . S
C345 H356 0.930 . S
C346 C348 1.383 . S
C346 C349 1.382 . S
C346 H357 0.930 . S
C347 C345 1.369 . S
C347 C349 1.392 . S
C347 H358 0.930 . S
C348 C344 1.373 . S
C348 C346 1.383 . S
C348 H359 0.931 . S
C349 C346 1.382 . S
C349 C347 1.392 . S
C350 Eu321 2.828 . S
C350 O334 1.249 . S
C350 O335 1.244 . S
C350 C344 1.505 1_556 S
C351 O338 1.258 . S
C351 O339 1.242 . S
H352 C324 0.930 . S
H353 C325 0.930 . S
H354 C326 0.930 . S
H355 C327 0.931 . S
H356 C345 0.930 . S
H357 C346 0.930 . S
H358 C347 0.930 . S
H359 C348 0.931 . S
H360 C372 0.930 . S
H361 C374 0.930 . S
H362 C375 0.930 . S
H363 C379 0.959 . S
H364 C379 0.959 . S
H365 C379 0.961 . S
H366 C380 0.960 . S
H367 C380 0.961 . S
H368 C380 0.959 . S
H369 C383 0.929 . S
H370 C384 0.931 . S
H371 C386 0.930 . S
C372 H360 0.930 . S
C372 C373 1.399 . S
C372 C377 1.399 . S
C373 C372 1.399 . S
C373 C374 1.376 . S
C374 H361 0.930 . S
C374 C373 1.376 . S
C374 C375 1.388 . S
C375 H362 0.930 . S
C375 C374 1.388 . S
C375 C376 1.390 . S
C376 C375 1.390 . S
C376 C377 1.394 . S
C376 C382 1.465 . S
C377 C372 1.399 . S
C377 C376 1.394 . S
C377 C378 1.516 . S
C378 C377 1.516 . S
C378 C379 1.502 . S
C378 C380 1.561 . S
C378 C381 1.526 . S
C379 H363 0.959 . S
C379 H364 0.959 . S
C379 H365 0.961 . S
C379 C378 1.502 . S
C380 H366 0.960 . S
C380 H367 0.961 . S
C380 H368 0.959 . S
C380 C378 1.561 . S
C381 C378 1.526 . S
C381 C382 1.396 . S
C381 C386 1.390 . S
C382 C376 1.465 . S
C382 C381 1.396 . S
C382 C383 1.399 . S
C383 H369 0.929 . S
C383 C382 1.399 . S
C383 C384 1.385 . S
C384 H370 0.931 . S
C384 C383 1.385 . S
C384 C385 1.389 . S
C385 C384 1.389 . S
C385 C386 1.387 . S
C386 H371 0.930 . S
C386 C381 1.390 . S
C386 C385 1.387 . S
H387 C399 0.930 . S
H388 C401 0.930 . S
H389 C402 0.930 . S
H390 C406 0.959 . S
H391 C406 0.959 . S
H392 C406 0.961 . S
H393 C407 0.960 . S
H394 C407 0.961 . S
H395 C407 0.959 . S
H396 C410 0.929 . S
H397 C411 0.931 . S
H398 C413 0.930 . S
C399 H387 0.930 . S
C399 C400 1.399 . S
C399 C404 1.399 . S
C400 C399 1.399 . S
C400 C401 1.376 . S
C401 H388 0.930 . S
C401 C400 1.376 . S
C401 C402 1.388 . S
C402 H389 0.930 . S
C402 C401 1.388 . S
C402 C403 1.390 . S
C403 C402 1.390 . S
C403 C404 1.394 . S
C403 C409 1.465 . S
C404 C399 1.399 . S
C404 C403 1.394 . S
C404 C405 1.516 . S
C405 C404 1.516 . S
C405 C406 1.502 . S
C405 C407 1.561 . S
C405 C408 1.526 . S
C406 H390 0.959 . S
C406 H391 0.959 . S
C406 H392 0.961 . S
C406 C405 1.502 . S
C407 H393 0.960 . S
C407 H394 0.961 . S
C407 H395 0.959 . S
C407 C405 1.561 . S
C408 C405 1.526 . S
C408 C409 1.396 . S
C408 C413 1.390 . S
C409 C403 1.465 . S
C409 C408 1.396 . S
C409 C410 1.399 . S
C410 H396 0.929 . S
C410 C409 1.399 . S
C410 C411 1.385 . S
C411 H397 0.931 . S
C411 C410 1.385 . S
C411 C412 1.389 . S
C412 C411 1.389 . S
C412 C413 1.387 . S
C413 H398 0.930 . S
C413 C408 1.390 . S
C413 C412 1.387 . S
H414 C426 0.930 . S
H415 C428 0.930 . S
H416 C429 0.930 . S
H417 C433 0.959 . S
H418 C433 0.959 . S
H419 C433 0.961 . S
H420 C434 0.960 . S
H421 C434 0.961 . S
H422 C434 0.959 . S
H423 C437 0.929 . S
H424 C438 0.931 . S
H425 C440 0.930 . S
C426 H414 0.930 . S
C426 C427 1.399 . S
C426 C431 1.399 . S
C427 C426 1.399 . S
C427 C428 1.376 . S
C428 H415 0.930 . S
C428 C427 1.376 . S
C428 C429 1.388 . S
C429 H416 0.930 . S
C429 C428 1.388 . S
C429 C430 1.390 . S
C430 C429 1.390 . S
C430 C431 1.394 . S
C430 C436 1.465 . S
C431 C426 1.399 . S
C431 C430 1.394 . S
C431 C432 1.516 . S
C432 C431 1.516 . S
C432 C433 1.502 . S
C432 C434 1.561 . S
C432 C435 1.526 . S
C433 H417 0.959 . S
C433 H418 0.959 . S
C433 H419 0.961 . S
C433 C432 1.502 . S
C434 H420 0.960 . S
C434 H421 0.961 . S
C434 H422 0.959 . S
C434 C432 1.561 . S
C435 C432 1.526 . S
C435 C436 1.396 . S
C435 C440 1.390 . S
C436 C430 1.465 . S
C436 C435 1.396 . S
C436 C437 1.399 . S
C437 H423 0.929 . S
C437 C436 1.399 . S
C437 C438 1.385 . S
C438 H424 0.931 . S
C438 C437 1.385 . S
C438 C439 1.389 . S
C439 C438 1.389 . S
C439 C440 1.387 . S
C440 H425 0.930 . S
C440 C435 1.390 . S
C440 C439 1.387 . S
H441 C453 0.930 . S
H442 C455 0.930 . S
H443 C456 0.930 . S
H444 C460 0.959 . S
H445 C460 0.959 . S
H446 C460 0.961 . S
H447 C461 0.960 . S
H448 C461 0.961 . S
H449 C461 0.959 . S
H450 C464 0.929 . S
H451 C465 0.931 1_554 S
H452 C467 0.930 . S
C453 H441 0.930 . S
C453 C454 1.399 . S
C453 C458 1.399 . S
C454 C453 1.399 . S
C454 C455 1.376 . S
C455 H442 0.930 . S
C455 C454 1.376 . S
C455 C456 1.388 . S
C456 H443 0.930 . S
C456 C455 1.388 . S
C456 C457 1.390 . S
C457 C456 1.390 . S
C457 C458 1.394 . S
C457 C463 1.465 . S
C458 C453 1.399 . S
C458 C457 1.394 . S
C458 C459 1.516 . S
C459 C458 1.516 . S
C459 C460 1.502 . S
C459 C461 1.561 . S
C459 C462 1.526 . S
C460 H444 0.959 . S
C460 H445 0.959 . S
C460 H446 0.961 . S
C460 C459 1.502 . S
C461 H447 0.960 . S
C461 H448 0.961 . S
C461 H449 0.959 . S
C461 C459 1.561 . S
C462 C459 1.526 . S
C462 C463 1.396 . S
C462 C467 1.390 . S
C463 C457 1.465 . S
C463 C462 1.396 . S
C463 C464 1.399 . S
C464 H450 0.929 . S
C464 C463 1.399 . S
C464 C465 1.385 . S
C465 H451 0.931 1_556 S
C465 C464 1.385 . S
C465 C466 1.389 1_556 S
C466 C465 1.389 1_554 S
C466 C467 1.387 1_554 S
C467 H452 0.930 . S
C467 C462 1.390 . S
C467 C466 1.387 1_556 S
H468 C480 0.930 . S
H469 C482 0.930 . S
H470 C483 0.930 . S
H471 C487 0.959 . S
H472 C487 0.959 . S
H473 C487 0.961 . S
H474 C488 0.960 . S
H475 C488 0.961 . S
H476 C488 0.959 . S
H477 C491 0.929 . S
H478 C492 0.931 . S
H479 C494 0.930 . S
C480 H468 0.930 . S
C480 C481 1.399 . S
C480 C485 1.399 . S
C481 C480 1.399 . S
C481 C482 1.376 . S
C482 H469 0.930 . S
C482 C481 1.376 . S
C482 C483 1.388 . S
C483 H470 0.930 . S
C483 C482 1.388 . S
C483 C484 1.390 . S
C484 C483 1.390 . S
C484 C485 1.394 . S
C484 C490 1.465 . S
C485 C480 1.399 . S
C485 C484 1.394 . S
C485 C486 1.516 . S
C486 C485 1.516 . S
C486 C487 1.502 . S
C486 C488 1.561 . S
C486 C489 1.526 . S
C487 H471 0.959 . S
C487 H472 0.959 . S
C487 H473 0.961 . S
C487 C486 1.502 . S
C488 H474 0.960 . S
C488 H475 0.961 . S
C488 H476 0.959 . S
C488 C486 1.561 . S
C489 C486 1.526 . S
C489 C490 1.396 . S
C489 C494 1.390 . S
C490 C484 1.465 . S
C490 C489 1.396 . S
C490 C491 1.399 . S
C491 H477 0.929 . S
C491 C490 1.399 . S
C491 C492 1.385 . S
C492 H478 0.931 . S
C492 C491 1.385 . S
C492 C493 1.389 . S
C493 C492 1.389 . S
C493 C494 1.387 . S
C494 H479 0.930 . S
C494 C489 1.390 . S
C494 C493 1.387 . S
H495 C507 0.930 . S
H496 C509 0.930 . S
H497 C510 0.930 . S
H498 C514 0.959 . S
H499 C514 0.959 . S
H500 C514 0.961 . S
H501 C515 0.960 . S
H502 C515 0.961 . S
H503 C515 0.959 . S
H504 C518 0.929 . S
H505 C519 0.931 . S
H506 C521 0.930 . S
C507 H495 0.930 . S
C507 C508 1.399 . S
C507 C512 1.399 . S
C508 C507 1.399 . S
C508 C509 1.376 . S
C509 H496 0.930 . S
C509 C508 1.376 . S
C509 C510 1.388 . S
C510 H497 0.930 . S
C510 C509 1.388 . S
C510 C511 1.390 . S
C511 C510 1.390 . S
C511 C512 1.394 . S
C511 C517 1.465 . S
C512 C507 1.399 . S
C512 C511 1.394 . S
C512 C513 1.516 . S
C513 C512 1.516 . S
C513 C514 1.502 . S
C513 C515 1.561 . S
C513 C516 1.526 . S
C514 H498 0.959 . S
C514 H499 0.959 . S
C514 H500 0.961 . S
C514 C513 1.502 . S
C515 H501 0.960 . S
C515 H502 0.961 . S
C515 H503 0.959 . S
C515 C513 1.561 . S
C516 C513 1.526 . S
C516 C517 1.396 . S
C516 C521 1.390 . S
C517 C511 1.465 . S
C517 C516 1.396 . S
C517 C518 1.399 . S
C518 H504 0.929 . S
C518 C517 1.399 . S
C518 C519 1.385 . S
C519 H505 0.931 . S
C519 C518 1.385 . S
C519 C520 1.389 . S
C520 C519 1.389 . S
C520 C521 1.387 . S
C521 H506 0.930 . S
C521 C516 1.390 . S
C521 C520 1.387 . S
H522 C534 0.930 . S
H523 C536 0.930 . S
H524 C537 0.930 . S
H525 C541 0.959 . S
H526 C541 0.959 . S
H527 C541 0.961 . S
H528 C542 0.960 . S
H529 C542 0.961 . S
H530 C542 0.959 . S
H531 C545 0.929 . S
H532 C546 0.931 . S
H533 C548 0.930 . S
C534 H522 0.930 . S
C534 C535 1.399 . S
C534 C539 1.399 . S
C535 C534 1.399 . S
C535 C536 1.376 . S
C536 H523 0.930 . S
C536 C535 1.376 . S
C536 C537 1.388 . S
C537 H524 0.930 . S
C537 C536 1.388 . S
C537 C538 1.390 . S
C538 C537 1.390 . S
C538 C539 1.394 . S
C538 C544 1.465 . S
C539 C534 1.399 . S
C539 C538 1.394 . S
C539 C540 1.516 . S
C540 C539 1.516 . S
C540 C541 1.502 . S
C540 C542 1.561 . S
C540 C543 1.526 . S
C541 H525 0.959 . S
C541 H526 0.959 . S
C541 H527 0.961 . S
C541 C540 1.502 . S
C542 H528 0.960 . S
C542 H529 0.961 . S
C542 H530 0.959 . S
C542 C540 1.561 . S
C543 C540 1.526 . S
C543 C544 1.396 . S
C543 C548 1.390 . S
C544 C538 1.465 . S
C544 C543 1.396 . S
C544 C545 1.399 . S
C545 H531 0.929 . S
C545 C544 1.399 . S
C545 C546 1.385 . S
C546 H532 0.931 . S
C546 C545 1.385 . S
C546 C547 1.389 . S
C547 C546 1.389 . S
C547 C548 1.387 . S
C548 H533 0.930 . S
C548 C543 1.390 . S
C548 C547 1.387 . S
H549 C561 0.930 . S
H550 C563 0.930 . S
H551 C564 0.930 . S
H552 C568 0.959 . S
H553 C568 0.959 . S
H554 C568 0.961 . S
H555 C569 0.960 . S
H556 C569 0.961 . S
H557 C569 0.959 . S
H558 C572 0.929 . S
H559 C573 0.931 . S
H560 C575 0.930 . S
C561 H549 0.930 . S
C561 C562 1.399 . S
C561 C566 1.399 . S
C562 C561 1.399 . S
C562 C563 1.376 . S
C563 H550 0.930 . S
C563 C562 1.376 . S
C563 C564 1.388 . S
C564 H551 0.930 . S
C564 C563 1.388 . S
C564 C565 1.390 . S
C565 C564 1.390 . S
C565 C566 1.394 . S
C565 C571 1.465 . S
C566 C561 1.399 . S
C566 C565 1.394 . S
C566 C567 1.516 . S
C567 C566 1.516 . S
C567 C568 1.502 . S
C567 C569 1.561 . S
C567 C570 1.526 . S
C568 H552 0.959 . S
C568 H553 0.959 . S
C568 H554 0.961 . S
C568 C567 1.502 . S
C569 H555 0.960 . S
C569 H556 0.961 . S
C569 H557 0.959 . S
C569 C567 1.561 . S
C570 C567 1.526 . S
C570 C571 1.396 . S
C570 C575 1.390 . S
C571 C565 1.465 . S
C571 C570 1.396 . S
C571 C572 1.399 . S
C572 H558 0.929 . S
C572 C571 1.399 . S
C572 C573 1.385 . S
C573 H559 0.931 . S
C573 C572 1.385 . S
C573 C574 1.389 . S
C574 C573 1.389 . S
C574 C575 1.387 . S
C575 H560 0.930 . S
C575 C570 1.390 . S
C575 C574 1.387 . S
H576 C588 0.930 . S
H577 C590 0.930 . S
H578 C591 0.930 . S
H579 C595 0.959 . S
H580 C595 0.959 . S
H581 C595 0.961 . S
H582 C596 0.960 . S
H583 C596 0.961 . S
H584 C596 0.959 . S
H585 C599 0.929 . S
H586 C600 0.931 . S
H587 C602 0.930 . S
C588 H576 0.930 . S
C588 C589 1.399 . S
C588 C593 1.399 . S
C589 C588 1.399 . S
C589 C590 1.376 . S
C590 H577 0.930 . S
C590 C589 1.376 . S
C590 C591 1.388 . S
C591 H578 0.930 . S
C591 C590 1.388 . S
C591 C592 1.390 . S
C592 C591 1.390 . S
C592 C593 1.394 . S
C592 C598 1.465 . S
C593 C588 1.399 . S
C593 C592 1.394 . S
C593 C594 1.516 . S
C594 C593 1.516 . S
C594 C595 1.502 . S
C594 C596 1.561 . S
C594 C597 1.526 . S
C595 H579 0.959 . S
C595 H580 0.959 . S
C595 H581 0.961 . S
C595 C594 1.502 . S
C596 H582 0.960 . S
C596 H583 0.961 . S
C596 H584 0.959 . S
C596 C594 1.561 . S
C597 C594 1.526 . S
C597 C598 1.396 . S
C597 C602 1.390 . S
C598 C592 1.465 . S
C598 C597 1.396 . S
C598 C599 1.399 . S
C599 H585 0.929 . S
C599 C598 1.399 . S
C599 C600 1.385 . S
C600 H586 0.931 . S
C600 C599 1.385 . S
C600 C601 1.389 . S
C601 C600 1.389 . S
C601 C602 1.387 . S
C602 H587 0.930 . S
C602 C597 1.390 . S
C602 C601 1.387 . S
H603 C615 0.930 . S
H604 C617 0.930 . S
H605 C618 0.930 . S
H606 C622 0.959 . S
H607 C622 0.959 . S
H608 C622 0.961 . S
H609 C623 0.960 . S
H610 C623 0.961 . S
H611 C623 0.959 . S
H612 C626 0.929 . S
H613 C627 0.931 . S
H614 C629 0.930 . S
C615 H603 0.930 . S
C615 C616 1.399 . S
C615 C620 1.399 . S
C616 C615 1.399 . S
C616 C617 1.376 . S
C617 H604 0.930 . S
C617 C616 1.376 . S
C617 C618 1.388 . S
C618 H605 0.930 . S
C618 C617 1.388 . S
C618 C619 1.390 . S
C619 C618 1.390 . S
C619 C620 1.394 . S
C619 C625 1.465 . S
C620 C615 1.399 . S
C620 C619 1.394 . S
C620 C621 1.516 . S
C621 C620 1.516 . S
C621 C622 1.502 . S
C621 C623 1.561 . S
C621 C624 1.526 . S
C622 H606 0.959 . S
C622 H607 0.959 . S
C622 H608 0.961 . S
C622 C621 1.502 . S
C623 H609 0.960 . S
C623 H610 0.961 . S
C623 H611 0.959 . S
C623 C621 1.561 . S
C624 C621 1.526 . S
C624 C625 1.396 . S
C624 C629 1.390 . S
C625 C619 1.465 . S
C625 C624 1.396 . S
C625 C626 1.399 . S
C626 H612 0.929 . S
C626 C625 1.399 . S
C626 C627 1.385 . S
C627 H613 0.931 . S
C627 C626 1.385 . S
C627 C628 1.389 . S
C628 C627 1.389 . S
C628 C629 1.387 . S
C629 H614 0.930 . S
C629 C624 1.390 . S
C629 C628 1.387 . S
H630 C642 0.930 . S
H631 C644 0.930 . S
H632 C645 0.930 . S
H633 C649 0.959 . S
H634 C649 0.959 . S
H635 C649 0.961 . S
H636 C650 0.960 . S
H637 C650 0.961 . S
H638 C650 0.959 . S
H639 C653 0.929 . S
H640 C654 0.931 . S
H641 C656 0.930 . S
C642 H630 0.930 . S
C642 C643 1.399 . S
C642 C647 1.399 . S
C643 C642 1.399 . S
C643 C644 1.376 . S
C644 H631 0.930 . S
C644 C643 1.376 . S
C644 C645 1.388 . S
C645 H632 0.930 . S
C645 C644 1.388 . S
C645 C646 1.390 . S
C646 C645 1.390 . S
C646 C647 1.394 . S
C646 C652 1.465 . S
C647 C642 1.399 . S
C647 C646 1.394 . S
C647 C648 1.516 . S
C648 C647 1.516 . S
C648 C649 1.502 . S
C648 C650 1.561 . S
C648 C651 1.526 . S
C649 H633 0.959 . S
C649 H634 0.959 . S
C649 H635 0.961 . S
C649 C648 1.502 . S
C650 H636 0.960 . S
C650 H637 0.961 . S
C650 H638 0.959 . S
C650 C648 1.561 . S
C651 C648 1.526 . S
C651 C652 1.396 . S
C651 C656 1.390 . S
C652 C646 1.465 . S
C652 C651 1.396 . S
C652 C653 1.399 . S
C653 H639 0.929 . S
C653 C652 1.399 . S
C653 C654 1.385 . S
C654 H640 0.931 . S
C654 C653 1.385 . S
C654 C655 1.389 . S
C655 C654 1.389 . S
C655 C656 1.387 . S
C656 H641 0.930 . S
C656 C651 1.390 . S
C656 C655 1.387 . S
H657 C669 0.934 . S
H658 C671 0.930 . S
H659 C672 0.930 . S
H660 C676 0.959 . S
H661 C676 0.959 . S
H662 C676 0.961 . S
H663 C677 0.960 . S
H664 C677 0.961 . S
H665 C677 0.959 . S
H666 C680 0.929 . S
H667 C681 0.931 . S
H668 C683 0.930 . S
C669 H657 0.934 . S
C669 C670 1.400 1_565 S
C669 C674 1.401 . S
C670 C669 1.400 1_545 S
C670 C671 1.376 . S
C671 H658 0.930 . S
C671 C670 1.376 . S
C671 C672 1.388 . S
C672 H659 0.930 . S
C672 C671 1.388 . S
C672 C673 1.390 1_545 S
C673 C672 1.390 1_565 S
C673 C674 1.394 . S
C673 C679 1.465 . S
C674 C669 1.401 . S
C674 C673 1.394 . S
C674 C675 1.516 . S
C675 C674 1.516 . S
C675 C676 1.502 . S
C675 C677 1.561 . S
C675 C678 1.526 . S
C676 H660 0.959 . S
C676 H661 0.959 . S
C676 H662 0.961 . S
C676 C675 1.502 . S
C677 H663 0.960 . S
C677 H664 0.961 . S
C677 H665 0.959 . S
C677 C675 1.561 . S
C678 C675 1.526 . S
C678 C679 1.396 . S
C678 C683 1.390 . S
C679 C673 1.465 . S
C679 C678 1.396 . S
C679 C680 1.399 . S
C680 H666 0.929 . S
C680 C679 1.399 . S
C680 C681 1.385 . S
C681 H667 0.931 . S
C681 C680 1.385 . S
C681 C682 1.389 . S
C682 C681 1.389 . S
C682 C683 1.387 . S
C683 H668 0.930 . S
C683 C678 1.390 . S
C683 C682 1.387 . S
H684 C696 0.930 . S
H685 C698 0.930 . S
H686 C699 0.930 . S
H687 C703 0.959 . S
H688 C703 0.959 . S
H689 C703 0.961 . S
H690 C704 0.960 . S
H691 C704 0.961 . S
H692 C704 0.959 . S
H693 C707 0.929 1_554 S
H694 C708 0.931 . S
H695 C710 0.930 . S
C696 H684 0.930 . S
C696 C697 1.399 1_556 S
C696 C701 1.399 . S
C697 C696 1.399 1_554 S
C697 C698 1.376 . S
C698 H685 0.930 . S
C698 C697 1.376 . S
C698 C699 1.388 . S
C699 H686 0.930 . S
C699 C698 1.388 . S
C699 C700 1.399 . S
C700 C699 1.399 . S
C700 C701 1.389 1_554 S
C700 C706 1.460 1_554 S
C701 C696 1.399 . S
C701 C700 1.389 1_556 S
C701 C702 1.516 . S
C702 C701 1.516 . S
C702 C703 1.502 . S
C702 C704 1.561 . S
C702 C705 1.526 . S
C703 H687 0.959 . S
C703 H688 0.959 . S
C703 H689 0.961 . S
C703 C702 1.502 . S
C704 H690 0.960 . S
C704 H691 0.961 . S
C704 H692 0.959 . S
C704 C702 1.561 . S
C705 C702 1.526 . S
C705 C706 1.396 . S
C705 C710 1.390 . S
C706 C700 1.460 1_556 S
C706 C705 1.396 . S
C706 C707 1.399 . S
C707 H693 0.929 1_556 S
C707 C706 1.399 . S
C707 C708 1.385 . S
C708 H694 0.931 . S
C708 C707 1.385 . S
C708 C709 1.389 . S
C709 C708 1.389 . S
C709 C710 1.387 . S
C710 H695 0.930 . S
C710 C705 1.390 . S
C710 C709 1.387 . S
H711 C723 0.930 . S
H712 C725 0.930 . S
H713 C726 0.930 . S
H714 C730 0.959 1_455 S
H715 C730 0.959 . S
H716 C730 0.961 . S
H717 C731 0.960 . S
H718 C731 0.961 . S
H719 C731 0.959 . S
H720 C734 0.929 . S
H721 C735 0.931 . S
H722 C737 0.930 1_455 S
C723 H711 0.930 . S
C723 C724 1.399 . S
C723 C728 1.399 . S
C724 C723 1.399 . S
C724 C725 1.376 . S
C725 H712 0.930 . S
C725 C724 1.376 . S
C725 C726 1.388 . S
C726 H713 0.930 . S
C726 C725 1.388 . S
C726 C727 1.390 . S
C727 C726 1.390 . S
C727 C728 1.394 . S
C727 C733 1.465 . S
C728 C723 1.399 . S
C728 C727 1.394 . S
C728 C729 1.516 . S
C729 C728 1.516 . S
C729 C730 1.502 . S
C729 C731 1.561 . S
C729 C732 1.526 . S
C730 H714 0.959 1_655 S
C730 H715 0.959 . S
C730 H716 0.961 . S
C730 C729 1.502 . S
C731 H717 0.960 . S
C731 H718 0.961 . S
C731 H719 0.959 . S
C731 C729 1.561 . S
C732 C729 1.526 . S
C732 C733 1.396 . S
C732 C737 1.390 . S
C733 C727 1.465 . S
C733 C732 1.396 . S
C733 C734 1.399 1_556 S
C734 H720 0.929 . S
C734 C733 1.399 1_554 S
C734 C735 1.385 . S
C735 H721 0.931 . S
C735 C734 1.385 . S
C735 C736 1.389 1_654 S
C736 C735 1.389 1_456 S
C736 C737 1.387 1_455 S
C737 H722 0.930 1_655 S
C737 C732 1.390 . S
C737 C736 1.387 1_655 S
H738 C750 0.930 . S
H739 C752 0.930 . S
H740 C753 0.930 . S
H741 C757 0.959 . S
H742 C757 0.959 . S
H743 C757 0.961 . S
H744 C758 0.960 . S
H745 C758 0.961 . S
H746 C758 0.959 . S
H747 C761 0.929 . S
H748 C762 0.931 . S
H749 C764 0.930 . S
C750 H738 0.930 . S
C750 C751 1.399 . S
C750 C755 1.399 . S
C751 C750 1.399 . S
C751 C752 1.376 . S
C752 H739 0.930 . S
C752 C751 1.376 . S
C752 C753 1.388 . S
C753 H740 0.930 . S
C753 C752 1.388 . S
C753 C754 1.390 . S
C754 C753 1.390 . S
C754 C755 1.394 . S
C754 C760 1.465 . S
C755 C750 1.399 . S
C755 C754 1.394 . S
C755 C756 1.516 . S
C756 C755 1.516 . S
C756 C757 1.502 . S
C756 C758 1.561 . S
C756 C759 1.526 . S
C757 H741 0.959 . S
C757 H742 0.959 . S
C757 H743 0.961 . S
C757 C756 1.502 . S
C758 H744 0.960 . S
C758 H745 0.961 . S
C758 H746 0.959 . S
C758 C756 1.561 . S
C759 C756 1.526 . S
C759 C760 1.396 . S
C759 C764 1.390 . S
C760 C754 1.465 . S
C760 C759 1.396 . S
C760 C761 1.399 1_556 S
C761 H747 0.929 . S
C761 C760 1.399 1_554 S
C761 C762 1.385 . S
C762 H748 0.931 . S
C762 C761 1.385 . S
C762 C763 1.389 . S
C763 C762 1.389 . S
C763 C764 1.387 1_554 S
C764 H749 0.930 . S
C764 C759 1.390 . S
C764 C763 1.387 1_556 S
H765 C777 0.930 . S
H766 C779 0.930 . S
H767 C780 0.930 . S
H768 C784 0.959 . S
H769 C784 0.959 . S
H770 C784 0.961 . S
H771 C785 0.960 . S
H772 C785 0.961 . S
H773 C785 0.959 . S
H774 C788 0.929 1_554 S
H775 C789 0.931 . S
H776 C791 0.930 . S
C777 H765 0.930 . S
C777 C778 1.399 . S
C777 C782 1.399 . S
C778 C777 1.399 . S
C778 C779 1.376 . S
C779 H766 0.930 . S
C779 C778 1.376 . S
C779 C780 1.388 . S
C780 H767 0.930 . S
C780 C779 1.388 . S
C780 C781 1.390 . S
C781 C780 1.390 . S
C781 C782 1.394 . S
C781 C787 1.465 . S
C782 C777 1.399 . S
C782 C781 1.394 . S
C782 C783 1.516 . S
C783 C782 1.516 . S
C783 C784 1.502 . S
C783 C785 1.561 . S
C783 C786 1.526 . S
C784 H768 0.959 . S
C784 H769 0.959 . S
C784 H770 0.961 . S
C784 C783 1.502 . S
C785 H771 0.960 . S
C785 H772 0.961 . S
C785 H773 0.959 . S
C785 C783 1.561 . S
C786 C783 1.526 . S
C786 C787 1.396 . S
C786 C791 1.390 . S
C787 C781 1.465 . S
C787 C786 1.396 . S
C787 C788 1.399 . S
C788 H774 0.929 1_556 S
C788 C787 1.399 . S
C788 C789 1.385 1_556 S
C789 H775 0.931 . S
C789 C788 1.385 1_554 S
C789 C790 1.389 1_554 S
C790 C789 1.389 1_556 S
C790 C791 1.387 . S
C791 H776 0.930 . S
C791 C786 1.390 . S
C791 C790 1.387 . S
H792 C804 0.930 . S
H793 C806 0.930 . S
H794 C807 0.930 . S
H795 C811 0.959 . S
H796 C811 0.959 . S
H797 C811 0.961 . S
H798 C812 0.960 . S
H799 C812 0.961 . S
H800 C812 0.959 . S
H801 C815 0.929 . S
H802 C816 0.931 . S
H803 C818 0.930 . S
C804 H792 0.930 . S
C804 C805 1.399 1_556 S
C804 C809 1.399 . S
C805 C804 1.399 1_554 S
C805 C806 1.376 . S
C806 H793 0.930 . S
C806 C805 1.376 . S
C806 C807 1.388 . S
C807 H794 0.930 . S
C807 C806 1.388 . S
C807 C808 1.390 1_554 S
C808 C807 1.390 1_556 S
C808 C809 1.394 . S
C808 C814 1.465 . S
C809 C804 1.399 . S
C809 C808 1.394 . S
C809 C810 1.516 . S
C810 C809 1.516 . S
C810 C811 1.502 . S
C810 C812 1.561 . S
C810 C813 1.526 . S
C811 H795 0.959 . S
C811 H796 0.959 . S
C811 H797 0.961 . S
C811 C810 1.502 . S
C812 H798 0.960 . S
C812 H799 0.961 . S
C812 H800 0.959 . S
C812 C810 1.561 . S
C813 C810 1.526 . S
C813 C814 1.396 . S
C813 C818 1.390 . S
C814 C808 1.465 . S
C814 C813 1.396 . S
C814 C815 1.399 . S
C815 H801 0.929 . S
C815 C814 1.399 . S
C815 C816 1.385 . S
C816 H802 0.931 . S
C816 C815 1.385 . S
C816 C817 1.389 . S
C817 C816 1.389 . S
C817 C818 1.387 . S
C818 H803 0.930 . S
C818 C813 1.390 . S
C818 C817 1.387 . S
H819 C831 0.930 . S
H820 C833 0.930 . S
H821 C834 0.930 . S
H822 C838 0.959 . S
H823 C838 0.959 . S
H824 C838 0.961 . S
H825 C839 0.960 . S
H826 C839 0.961 . S
H827 C839 0.959 . S
H828 C842 0.929 . S
H829 C843 0.931 . S
H830 C845 0.930 . S
C831 H819 0.930 . S
C831 C832 1.399 . S
C831 C836 1.399 . S
C832 C831 1.399 . S
C832 C833 1.376 . S
C833 H820 0.930 . S
C833 C832 1.376 . S
C833 C834 1.388 . S
C834 H821 0.930 . S
C834 C833 1.388 . S
C834 C835 1.390 . S
C835 C834 1.390 . S
C835 C836 1.394 . S
C835 C841 1.465 . S
C836 C831 1.399 . S
C836 C835 1.394 . S
C836 C837 1.516 . S
C837 C836 1.516 . S
C837 C838 1.502 1_556 S
C837 C839 1.561 . S
C837 C840 1.526 . S
C838 H822 0.959 . S
C838 H823 0.959 . S
C838 H824 0.961 . S
C838 C837 1.502 1_554 S
C839 H825 0.960 . S
C839 H826 0.961 . S
C839 H827 0.959 . S
C839 C837 1.561 . S
C840 C837 1.526 . S
C840 C841 1.396 . S
C840 C845 1.390 1_556 S
C841 C835 1.465 . S
C841 C840 1.396 . S
C841 C842 1.399 . S
C842 H828 0.929 . S
C842 C841 1.399 . S
C842 C843 1.385 1_556 S
C843 H829 0.931 . S
C843 C842 1.385 1_554 S
C843 C844 1.389 . S
C844 C843 1.389 . S
C844 C845 1.387 . S
C845 H830 0.930 . S
C845 C840 1.390 1_554 S
C845 C844 1.387 . S
H846 C858 0.930 . S
H847 C860 0.930 . S
H848 C861 0.930 1_565 S
H849 C865 0.959 . S
H850 C865 0.959 . S
H851 C865 0.961 . S
H852 C866 0.960 . S
H853 C866 0.961 . S
H854 C866 0.959 . S
H855 C869 0.929 . S
H856 C870 0.931 . S
H857 C872 0.930 . S
C858 H846 0.930 . S
C858 C859 1.399 . S
C858 C863 1.399 . S
C859 C858 1.399 . S
C859 C860 1.376 . S
C860 H847 0.930 . S
C860 C859 1.376 . S
C860 C861 1.388 . S
C861 H848 0.930 1_545 S
C861 C860 1.388 . S
C861 C862 1.390 . S
C862 C861 1.390 . S
C862 C863 1.394 . S
C862 C868 1.465 . S
C863 C858 1.399 . S
C863 C862 1.394 . S
C863 C864 1.516 . S
C864 C863 1.516 . S
C864 C865 1.502 . S
C864 C866 1.561 . S
C864 C867 1.526 . S
C865 H849 0.959 . S
C865 H850 0.959 . S
C865 H851 0.961 . S
C865 C864 1.502 . S
C866 H852 0.960 . S
C866 H853 0.961 . S
C866 H854 0.959 . S
C866 C864 1.561 . S
C867 C864 1.526 . S
C867 C868 1.396 . S
C867 C872 1.390 . S
C868 C862 1.465 . S
C868 C867 1.396 . S
C868 C869 1.399 1_545 S
C869 H855 0.929 . S
C869 C868 1.399 1_565 S
C869 C870 1.385 . S
C870 H856 0.931 . S
C870 C869 1.385 . S
C870 C871 1.389 . S
C871 C870 1.389 . S
C871 C872 1.387 1_565 S
C872 H857 0.930 . S
C872 C867 1.390 . S
C872 C871 1.387 1_545 S
H873 C885 0.930 . S
H874 C887 0.930 . S
H875 C888 0.930 . S
H876 C892 0.959 . S
H877 C892 0.959 1_556 S
H878 C892 0.961 . S
H879 C893 0.960 1_556 S
H880 C893 0.961 1_556 S
H881 C893 0.959 . S
H882 C896 0.929 . S
H883 C897 0.931 . S
H884 C899 0.930 . S
C885 H873 0.930 . S
C885 C886 1.399 . S
C885 C890 1.399 . S
C886 C885 1.399 . S
C886 C887 1.376 . S
C887 H874 0.930 . S
C887 C886 1.376 . S
C887 C888 1.388 . S
C888 H875 0.930 . S
C888 C887 1.388 . S
C888 C889 1.390 . S
C889 C888 1.390 . S
C889 C890 1.394 . S
C889 C895 1.465 . S
C890 C885 1.399 . S
C890 C889 1.394 . S
C890 C891 1.516 . S
C891 C890 1.516 . S
C891 C892 1.502 . S
C891 C893 1.561 . S
C891 C894 1.526 . S
C892 H876 0.959 . S
C892 H877 0.959 1_554 S
C892 H878 0.961 . S
C892 C891 1.502 . S
C893 H879 0.960 1_554 S
C893 H880 0.961 1_554 S
C893 H881 0.959 . S
C893 C891 1.561 . S
C894 C891 1.526 . S
C894 C895 1.396 . S
C894 C899 1.390 . S
C895 C889 1.465 . S
C895 C894 1.396 . S
C895 C896 1.399 . S
C896 H882 0.929 . S
C896 C895 1.399 . S
C896 C897 1.385 . S
C897 H883 0.931 . S
C897 C896 1.385 . S
C897 C898 1.389 . S
C898 C897 1.389 . S
C898 C899 1.387 . S
C899 H884 0.930 . S
C899 C894 1.390 . S
C899 C898 1.387 . S
H900 C912 0.930 . S
H901 C914 0.930 . S
H902 C915 0.930 . S
H903 C919 0.959 . S
H904 C919 0.959 . S
H905 C919 0.961 . S
H906 C920 0.960 . S
H907 C920 0.961 . S
H908 C920 0.959 . S
H909 C923 0.929 . S
H910 C924 0.931 . S
H911 C926 0.930 . S
C912 H900 0.930 . S
C912 C913 1.399 . S
C912 C917 1.399 . S
C913 C912 1.399 . S
C913 C914 1.376 . S
C914 H901 0.930 . S
C914 C913 1.376 . S
C914 C915 1.388 . S
C915 H902 0.930 . S
C915 C914 1.388 . S
C915 C916 1.390 . S
C916 C915 1.390 . S
C916 C917 1.394 . S
C916 C922 1.465 . S
C917 C912 1.399 . S
C917 C916 1.394 . S
C917 C918 1.516 . S
C918 C917 1.516 . S
C918 C919 1.502 . S
C918 C920 1.561 . S
C918 C921 1.526 . S
C919 H903 0.959 . S
C919 H904 0.959 . S
C919 H905 0.961 . S
C919 C918 1.502 . S
C920 H906 0.960 . S
C920 H907 0.961 . S
C920 H908 0.959 . S
C920 C918 1.561 . S
C921 C918 1.526 . S
C921 C922 1.396 . S
C921 C926 1.390 . S
C922 C916 1.465 . S
C922 C921 1.396 . S
C922 C923 1.399 . S
C923 H909 0.929 . S
C923 C922 1.399 . S
C923 C924 1.385 . S
C924 H910 0.931 . S
C924 C923 1.385 . S
C924 C925 1.389 . S
C925 C924 1.389 . S
C925 C926 1.387 . S
C926 H911 0.930 . S
C926 C921 1.390 . S
C926 C925 1.387 . S
H927 C939 0.930 . S
H928 C941 0.930 . S
H929 C942 0.930 . S
H930 C946 0.959 . S
H931 C946 0.959 . S
H932 C946 0.961 . S
H933 C947 0.960 . S
H934 C947 0.961 . S
H935 C947 0.959 . S
H936 C950 0.929 . S
H937 C951 0.931 . S
H938 C953 0.930 . S
C939 H927 0.930 . S
C939 C940 1.399 . S
C939 C944 1.399 . S
C940 C939 1.399 . S
C940 C941 1.376 . S
C941 H928 0.930 . S
C941 C940 1.376 . S
C941 C942 1.388 . S
C942 H929 0.930 . S
C942 C941 1.388 . S
C942 C943 1.390 . S
C943 C942 1.390 . S
C943 C944 1.394 . S
C943 C949 1.465 . S
C944 C939 1.399 . S
C944 C943 1.394 . S
C944 C945 1.516 . S
C945 C944 1.516 . S
C945 C946 1.502 . S
C945 C947 1.561 . S
C945 C948 1.526 . S
C946 H930 0.959 . S
C946 H931 0.959 . S
C946 H932 0.961 . S
C946 C945 1.502 . S
C947 H933 0.960 . S
C947 H934 0.961 . S
C947 H935 0.959 . S
C947 C945 1.561 . S
C948 C945 1.526 . S
C948 C949 1.396 . S
C948 C953 1.390 . S
C949 C943 1.465 . S
C949 C948 1.396 . S
C949 C950 1.399 . S
C950 H936 0.929 . S
C950 C949 1.399 . S
C950 C951 1.385 . S
C951 H937 0.931 . S
C951 C950 1.385 . S
C951 C952 1.389 . S
C952 C951 1.389 . S
C952 C953 1.387 . S
C953 H938 0.930 . S
C953 C948 1.390 . S
C953 C952 1.387 . S
H954 C966 0.930 . S
H955 C968 0.930 . S
H956 C969 0.930 . S
H957 C973 0.959 . S
H958 C973 0.959 . S
H959 C973 0.961 . S
H960 C974 0.960 . S
H961 C974 0.961 . S
H962 C974 0.959 . S
H963 C977 0.929 . S
H964 C978 0.931 . S
H965 C980 0.930 . S
C966 H954 0.930 . S
C966 C967 1.399 . S
C966 C971 1.399 . S
C967 C966 1.399 . S
C967 C968 1.376 . S
C968 H955 0.930 . S
C968 C967 1.376 . S
C968 C969 1.388 . S
C969 H956 0.930 . S
C969 C968 1.388 . S
C969 C970 1.390 . S
C970 C969 1.390 . S
C970 C971 1.394 . S
C970 C976 1.465 1_545 S
C971 C966 1.399 . S
C971 C970 1.394 . S
C971 C972 1.516 . S
C972 C971 1.516 . S
C972 C973 1.502 . S
C972 C974 1.561 . S
C972 C975 1.526 1_545 S
C973 H957 0.959 . S
C973 H958 0.959 . S
C973 H959 0.961 . S
C973 C972 1.502 . S
C974 H960 0.960 . S
C974 H961 0.961 . S
C974 H962 0.959 . S
C974 C972 1.561 . S
C975 C972 1.526 1_565 S
C975 C976 1.396 . S
C975 C980 1.390 . S
C976 C970 1.465 1_565 S
C976 C975 1.396 . S
C976 C977 1.399 . S
C977 H963 0.929 . S
C977 C976 1.399 . S
C977 C978 1.385 . S
C978 H964 0.931 . S
C978 C977 1.385 . S
C978 C979 1.389 . S
C979 C978 1.389 . S
C979 C980 1.387 . S
C980 H965 0.930 . S
C980 C975 1.390 . S
C980 C979 1.387 . S
H981 C993 0.930 . S
H982 C995 0.930 . S
H983 C996 0.930 . S
H984 C1000 0.959 . S
H985 C1000 0.959 . S
H986 C1000 0.961 . S
H987 C1001 0.960 . S
H988 C1001 0.961 . S
H989 C1001 0.959 . S
H990 C1004 0.929 . S
H991 C1005 0.915 . S
H992 C1007 0.930 . S
C993 H981 0.930 . S
C993 C994 1.399 . S
C993 C998 1.399 . S
C994 C993 1.399 . S
C994 C995 1.376 . S
C995 H982 0.930 . S
C995 C994 1.376 . S
C995 C996 1.388 . S
C996 H983 0.930 . S
C996 C995 1.388 . S
C996 C997 1.390 . S
C997 C996 1.390 . S
C997 C998 1.394 . S
C997 C1003 1.465 . S
C998 C993 1.399 . S
C998 C997 1.394 . S
C998 C999 1.516 1_655 S
C999 C998 1.516 1_455 S
C999 C1000 1.502 . S
C999 C1001 1.561 . S
C999 C1002 1.526 . S
C1000 H984 0.959 . S
C1000 H985 0.959 . S
C1000 H986 0.961 . S
C1000 C999 1.502 . S
C1001 H987 0.960 . S
C1001 H988 0.961 . S
C1001 H989 0.959 . S
C1001 C999 1.561 . S
C1002 C999 1.526 . S
C1002 C1003 1.396 1_455 S
C1002 C1007 1.390 . S
C1003 C997 1.465 . S
C1003 C1002 1.396 1_655 S
C1003 C1004 1.399 . S
C1004 H990 0.929 . S
C1004 C1003 1.399 . S
C1004 C1005 1.385 1_655 S
C1005 H991 0.915 . S
C1005 C1004 1.385 1_455 S
C1005 C1006 1.389 . S
C1006 C1005 1.389 . S
C1006 C1007 1.387 . S
C1007 H992 0.930 . S
C1007 C1002 1.390 . S
C1007 C1006 1.387 . S
H1008 C1020 0.930 . S
H1009 C1022 0.930 . S
H1010 C1023 0.930 . S
H1011 C1027 0.959 . S
H1012 C1027 0.959 . S
H1013 C1027 0.961 . S
H1014 C1028 0.960 . S
H1015 C1028 0.961 . S
H1016 C1028 0.959 . S
H1017 C1031 0.929 . S
H1018 C1032 0.931 . S
H1019 C1034 0.930 . S
C1020 H1008 0.930 . S
C1020 C1021 1.399 . S
C1020 C1025 1.399 . S
C1021 C1020 1.399 . S
C1021 C1022 1.376 . S
C1022 H1009 0.930 . S
C1022 C1021 1.376 . S
C1022 C1023 1.388 . S
C1023 H1010 0.930 . S
C1023 C1022 1.388 . S
C1023 C1024 1.390 . S
C1024 C1023 1.390 . S
C1024 C1025 1.394 . S
C1024 C1030 1.465 . S
C1025 C1020 1.399 . S
C1025 C1024 1.394 . S
C1025 C1026 1.516 . S
C1026 C1025 1.516 . S
C1026 C1027 1.502 . S
C1026 C1028 1.561 . S
C1026 C1029 1.526 . S
C1027 H1011 0.959 . S
C1027 H1012 0.959 . S
C1027 H1013 0.961 . S
C1027 C1026 1.502 . S
C1028 H1014 0.960 . S
C1028 H1015 0.961 . S
C1028 H1016 0.959 . S
C1028 C1026 1.561 . S
C1029 C1026 1.526 . S
C1029 C1030 1.396 . S
C1029 C1034 1.390 . S
C1030 C1024 1.465 . S
C1030 C1029 1.396 . S
C1030 C1031 1.399 . S
C1031 H1017 0.929 . S
C1031 C1030 1.399 . S
C1031 C1032 1.385 . S
C1032 H1018 0.931 . S
C1032 C1031 1.385 . S
C1032 C1033 1.389 . S
C1033 C1032 1.389 . S
C1033 C1034 1.387 . S
C1034 H1019 0.930 . S
C1034 C1029 1.390 . S
C1034 C1033 1.387 . S
H1035 C1047 0.930 . S
H1036 C1049 0.930 . S
H1037 C1050 0.929 . S
H1038 C1054 0.959 1_545 S
H1039 C1054 0.959 1_545 S
H1040 C1054 0.961 . S
H1041 C1055 0.960 1_565 S
H1042 C1055 0.961 . S
H1043 C1055 0.959 . S
H1044 C1058 0.929 . S
H1045 C1059 0.931 . S
H1046 C1061 0.930 . S
C1047 H1035 0.930 . S
C1047 C1048 1.399 . S
C1047 C1052 1.399 . S
C1048 C1047 1.399 . S
C1048 C1049 1.376 . S
C1049 H1036 0.930 . S
C1049 C1048 1.376 . S
C1049 C1050 1.390 1_565 S
C1050 H1037 0.929 . S
C1050 C1049 1.390 1_545 S
C1050 C1051 1.390 . S
C1051 C1050 1.390 . S
C1051 C1052 1.394 1_545 S
C1051 C1057 1.465 . S
C1052 C1047 1.399 . S
C1052 C1051 1.394 1_565 S
C1052 C1053 1.516 1_565 S
C1053 C1052 1.516 1_545 S
C1053 C1054 1.502 1_545 S
C1053 C1055 1.561 . S
C1053 C1056 1.526 . S
C1054 H1038 0.959 1_565 S
C1054 H1039 0.959 1_565 S
C1054 H1040 0.961 . S
C1054 C1053 1.502 1_565 S
C1055 H1041 0.960 1_545 S
C1055 H1042 0.961 . S
C1055 H1043 0.959 . S
C1055 C1053 1.561 . S
C1056 C1053 1.526 . S
C1056 C1057 1.396 . S
C1056 C1061 1.390 . S
C1057 C1051 1.465 . S
C1057 C1056 1.396 . S
C1057 C1058 1.399 . S
C1058 H1044 0.929 . S
C1058 C1057 1.399 . S
C1058 C1059 1.385 . S
C1059 H1045 0.931 . S
C1059 C1058 1.385 . S
C1059 C1060 1.389 . S
C1060 C1059 1.389 . S
C1060 C1061 1.387 . S
C1061 H1046 0.930 . S
C1061 C1056 1.390 . S
C1061 C1060 1.387 . S
H1062 C1074 0.930 . S
H1063 C1076 0.930 . S
H1064 C1077 0.952 . S
H1065 C1081 0.959 . S
H1066 C1081 0.959 . S
H1067 C1081 0.961 . S
H1068 C1082 0.960 . S
H1069 C1082 0.961 . S
H1070 C1082 0.959 . S
H1071 C1085 0.929 . S
H1072 C1086 0.931 . S
H1073 C1088 0.930 1_655 S
C1074 H1062 0.930 . S
C1074 C1075 1.399 . S
C1074 C1079 1.399 . S
C1075 C1074 1.399 . S
C1075 C1076 1.376 . S
C1076 H1063 0.930 . S
C1076 C1075 1.376 . S
C1076 C1077 1.364 1_655 S
C1077 H1064 0.952 . S
C1077 C1076 1.364 1_455 S
C1077 C1078 1.393 1_455 S
C1078 C1077 1.393 1_655 S
C1078 C1079 1.394 . S
C1078 C1084 1.465 1_655 S
C1079 C1074 1.399 . S
C1079 C1078 1.394 . S
C1079 C1080 1.516 . S
C1080 C1079 1.516 . S
C1080 C1081 1.502 . S
C1080 C1082 1.561 . S
C1080 C1083 1.526 . S
C1081 H1065 0.959 . S
C1081 H1066 0.959 . S
C1081 H1067 0.961 . S
C1081 C1080 1.502 . S
C1082 H1068 0.960 . S
C1082 H1069 0.961 . S
C1082 H1070 0.959 . S
C1082 C1080 1.561 . S
C1083 C1080 1.526 . S
C1083 C1084 1.396 1_655 S
C1083 C1088 1.390 1_655 S
C1084 C1078 1.465 1_455 S
C1084 C1083 1.396 1_455 S
C1084 C1085 1.399 . S
C1085 H1071 0.929 . S
C1085 C1084 1.399 . S
C1085 C1086 1.385 . S
C1086 H1072 0.931 . S
C1086 C1085 1.385 . S
C1086 C1087 1.389 . S
C1087 C1086 1.389 . S
C1087 C1088 1.387 . S
C1088 H1073 0.930 1_455 S
C1088 C1083 1.390 1_455 S
C1088 C1087 1.387 . S
C373 C17 3.429 . S
C385 C2 3.410 . S
C400 C42 3.488 . S
C412 C57 3.479 . S
C427 C97 3.518 . S
C439 C82 3.507 . S
C454 C122 3.427 . S
C466 C137 3.414 . S
C481 C177 3.477 . S
C493 C162 3.487 1_556 S
C508 C202 3.506 . S
C520 C217 3.519 1_556 S
C535 C248 2.555 . S
C547 C269 2.595 . S
C562 C309 2.869 . S
C574 C288 2.873 . S
C589 C328 2.106 . S
C601 C349 2.023 . S
C616 C231 1.679 . S
C628 C8 1.670 . S
C643 C71 2.643 . S
C655 C151 2.654 . S
C670 C88 1.080 . S
C682 C168 1.141 . S
C697 C111 2.991 . S
C709 C252 3.028 . S
C724 C282 1.273 . S
C736 C31 1.279 1_556 S
C751 C332 1.771 . S
C763 C48 1.748 . S
C778 C337 0.857 . S
C790 C29 0.893 . S
C805 C52 2.259 . S
C817 C257 2.239 . S
C832 C311 2.695 . S
C844 C109 2.576 . S
C859 C92 1.684 . S
C871 C149 1.670 . S
C886 C172 2.626 . S
C898 C12 2.654 . S
C913 C69 1.137 . S
C925 C229 1.088 . S
C940 C322 0.854 . S
C952 C128 0.830 . S
C967 C242 2.245 . S
C979 C191 2.219 . S
C994 C292 2.674 . S
C1006 C208 2.613 . S
C1021 C271 3.037 . S
C1033 C212 2.958 . S
C1048 C132 1.278 . S
C1060 C297 1.281 . S
C1075 C351 1.808 . S
C1087 C189 1.667 . S
