# Generated by pormake.
# Topology uks, (4)-cn, num edge types: 1
# Building blocks:
#     Node 0, Type 0, BuildingBlock: MUDLON_clean_sbu_0, # of connection points: 4
#     Node 1, Type 0, BuildingBlock: MUDLON_clean_sbu_0, # of connection points: 4
#     Node 2, Type 0, BuildingBlock: MUDLON_clean_sbu_0, # of connection points: 4
#     Node 3, Type 0, BuildingBlock: MUDLON_clean_sbu_0, # of connection points: 4
#     Node 4, Type 0, BuildingBlock: MUDLON_clean_sbu_0, # of connection points: 4
#     Node 5, Type 0, BuildingBlock: MUDLON_clean_sbu_0, # of connection points: 4
#     Node 6, Type 0, BuildingBlock: MUDLON_clean_sbu_0, # of connection points: 4
#     Node 7, Type 0, BuildingBlock: MUDLON_clean_sbu_0, # of connection points: 4
#     Node 8, Type 0, BuildingBlock: MUDLON_clean_sbu_0, # of connection points: 4
#     Node 9, Type 0, BuildingBlock: MUDLON_clean_sbu_0, # of connection points: 4
#     Node 10, Type 0, BuildingBlock: MUDLON_clean_sbu_0, # of connection points: 4
#     Node 11, Type 0, BuildingBlock: MUDLON_clean_sbu_0, # of connection points: 4
#     Node 12, Type 0, BuildingBlock: MUDLON_clean_sbu_0, # of connection points: 4
#     Node 13, Type 0, BuildingBlock: MUDLON_clean_sbu_0, # of connection points: 4
#     Node 14, Type 0, BuildingBlock: MUDLON_clean_sbu_0, # of connection points: 4
#     Node 15, Type 0, BuildingBlock: MUDLON_clean_sbu_0, # of connection points: 4
#     Node 16, Type 0, BuildingBlock: MUDLON_clean_sbu_0, # of connection points: 4
#     Node 17, Type 0, BuildingBlock: MUDLON_clean_sbu_0, # of connection points: 4
#     Node 18, Type 0, BuildingBlock: MUDLON_clean_sbu_0, # of connection points: 4
#     Node 19, Type 0, BuildingBlock: MUDLON_clean_sbu_0, # of connection points: 4
#     Node 20, Type 0, BuildingBlock: MUDLON_clean_sbu_0, # of connection points: 4
#     Node 21, Type 0, BuildingBlock: MUDLON_clean_sbu_0, # of connection points: 4
#     Node 22, Type 0, BuildingBlock: MUDLON_clean_sbu_0, # of connection points: 4
#     Node 23, Type 0, BuildingBlock: MUDLON_clean_sbu_0, # of connection points: 4
#     Edge 24, Type (0, 0), BuildingBlock: UVAHIK_clean_linker_0, # of connection points: 2
#     Edge 25, Type (0, 0), BuildingBlock: UVAHIK_clean_linker_0, # of connection points: 2
#     Edge 26, Type (0, 0), BuildingBlock: UVAHIK_clean_linker_0, # of connection points: 2
#     Edge 27, Type (0, 0), BuildingBlock: UVAHIK_clean_linker_0, # of connection points: 2
#     Edge 28, Type (0, 0), BuildingBlock: UVAHIK_clean_linker_0, # of connection points: 2
#     Edge 29, Type (0, 0), BuildingBlock: UVAHIK_clean_linker_0, # of connection points: 2
#     Edge 30, Type (0, 0), BuildingBlock: UVAHIK_clean_linker_0, # of connection points: 2
#     Edge 31, Type (0, 0), BuildingBlock: UVAHIK_clean_linker_0, # of connection points: 2
#     Edge 32, Type (0, 0), BuildingBlock: UVAHIK_clean_linker_0, # of connection points: 2
#     Edge 33, Type (0, 0), BuildingBlock: UVAHIK_clean_linker_0, # of connection points: 2
#     Edge 34, Type (0, 0), BuildingBlock: UVAHIK_clean_linker_0, # of connection points: 2
#     Edge 35, Type (0, 0), BuildingBlock: UVAHIK_clean_linker_0, # of connection points: 2
#     Edge 36, Type (0, 0), BuildingBlock: UVAHIK_clean_linker_0, # of connection points: 2
#     Edge 37, Type (0, 0), BuildingBlock: UVAHIK_clean_linker_0, # of connection points: 2
#     Edge 38, Type (0, 0), BuildingBlock: UVAHIK_clean_linker_0, # of connection points: 2
#     Edge 39, Type (0, 0), BuildingBlock: UVAHIK_clean_linker_0, # of connection points: 2
#     Edge 40, Type (0, 0), BuildingBlock: UVAHIK_clean_linker_0, # of connection points: 2
#     Edge 41, Type (0, 0), BuildingBlock: UVAHIK_clean_linker_0, # of connection points: 2
#     Edge 42, Type (0, 0), BuildingBlock: UVAHIK_clean_linker_0, # of connection points: 2
#     Edge 43, Type (0, 0), BuildingBlock: UVAHIK_clean_linker_0, # of connection points: 2
#     Edge 44, Type (0, 0), BuildingBlock: UVAHIK_clean_linker_0, # of connection points: 2
#     Edge 45, Type (0, 0), BuildingBlock: UVAHIK_clean_linker_0, # of connection points: 2
#     Edge 46, Type (0, 0), BuildingBlock: UVAHIK_clean_linker_0, # of connection points: 2
#     Edge 47, Type (0, 0), BuildingBlock: UVAHIK_clean_linker_0, # of connection points: 2
#     Edge 48, Type (0, 0), BuildingBlock: UVAHIK_clean_linker_0, # of connection points: 2
#     Edge 49, Type (0, 0), BuildingBlock: UVAHIK_clean_linker_0, # of connection points: 2
#     Edge 50, Type (0, 0), BuildingBlock: UVAHIK_clean_linker_0, # of connection points: 2
#     Edge 51, Type (0, 0), BuildingBlock: UVAHIK_clean_linker_0, # of connection points: 2
#     Edge 52, Type (0, 0), BuildingBlock: UVAHIK_clean_linker_0, # of connection points: 2
#     Edge 53, Type (0, 0), BuildingBlock: UVAHIK_clean_linker_0, # of connection points: 2
#     Edge 54, Type (0, 0), BuildingBlock: UVAHIK_clean_linker_0, # of connection points: 2
#     Edge 55, Type (0, 0), BuildingBlock: UVAHIK_clean_linker_0, # of connection points: 2
#     Edge 56, Type (0, 0), BuildingBlock: UVAHIK_clean_linker_0, # of connection points: 2
#     Edge 57, Type (0, 0), BuildingBlock: UVAHIK_clean_linker_0, # of connection points: 2
#     Edge 58, Type (0, 0), BuildingBlock: UVAHIK_clean_linker_0, # of connection points: 2
#     Edge 59, Type (0, 0), BuildingBlock: UVAHIK_clean_linker_0, # of connection points: 2
#     Edge 60, Type (0, 0), BuildingBlock: UVAHIK_clean_linker_0, # of connection points: 2
#     Edge 61, Type (0, 0), BuildingBlock: UVAHIK_clean_linker_0, # of connection points: 2
#     Edge 62, Type (0, 0), BuildingBlock: UVAHIK_clean_linker_0, # of connection points: 2
#     Edge 63, Type (0, 0), BuildingBlock: UVAHIK_clean_linker_0, # of connection points: 2
#     Edge 64, Type (0, 0), BuildingBlock: UVAHIK_clean_linker_0, # of connection points: 2
#     Edge 65, Type (0, 0), BuildingBlock: UVAHIK_clean_linker_0, # of connection points: 2
#     Edge 66, Type (0, 0), BuildingBlock: UVAHIK_clean_linker_0, # of connection points: 2
#     Edge 67, Type (0, 0), BuildingBlock: UVAHIK_clean_linker_0, # of connection points: 2
#     Edge 68, Type (0, 0), BuildingBlock: UVAHIK_clean_linker_0, # of connection points: 2
#     Edge 69, Type (0, 0), BuildingBlock: UVAHIK_clean_linker_0, # of connection points: 2
#     Edge 70, Type (0, 0), BuildingBlock: UVAHIK_clean_linker_0, # of connection points: 2
#     Edge 71, Type (0, 0), BuildingBlock: UVAHIK_clean_linker_0, # of connection points: 2
# Relax obj value: 0.065
# Max RMSD: 0.060
# Mean RMSD: 0.060
data_MOF--net-uks--node1-MUDLON_clean_sbu_0--edge1-UVAHIK_clean_linker_0
_symmetry_space_group_name_H-M    P1
_symmetry_Int_Tables_number       1
_symmetry_cell_setting            triclinic
loop_
_symmetry_equiv_pos_as_xyz
'x, y, z'
_cell_length_a     71.480085
_cell_length_b     71.332161
_cell_length_c     71.381135
_cell_angle_alpha  89.863337
_cell_angle_beta   89.939471
_cell_angle_gamma 89.816757
loop_
_atom_site_label
_atom_site_type_symbol
_atom_site_fract_x
_atom_site_fract_y
_atom_site_fract_z
_atom_type_partial_charge
Mg0 Mg 0.11993 0.39276 0.74668 0.0
C1 C 0.15644 0.37181 0.74764 0.0
O2 O 0.14551 0.35929 0.75552 0.0
C3 C 0.0837 0.38859 0.72668 0.0
O4 O 0.08115 0.40407 0.73631 0.0
C5 C 0.11838 0.42914 0.72773 0.0
O6 O 0.11981 0.41673 0.71423 0.0
O7 O 0.11769 0.42326 0.74458 0.0
O8 O 0.14907 0.38646 0.74055 0.0
O9 O 0.11651 0.37986 0.77425 0.0
C10 C 0.1052 0.36621 0.77595 0.0
O11 O 0.0932 0.36308 0.76241 0.0
O12 O 0.09952 0.38039 0.72762 0.0
Mg13 Mg 0.64701 0.65796 0.20307 0.0
C14 C 0.64871 0.68521 0.23516 0.0
O15 O 0.6666 0.68142 0.23324 0.0
C16 C 0.64 0.61741 0.19351 0.0
O17 O 0.63116 0.62583 0.17972 0.0
C18 C 0.62079 0.68209 0.17985 0.0
O19 O 0.62895 0.69533 0.18962 0.0
O20 O 0.62704 0.6654 0.18106 0.0
O21 O 0.63693 0.67536 0.22619 0.0
O22 O 0.67655 0.66577 0.20016 0.0
C23 C 0.68884 0.65283 0.20118 0.0
O24 O 0.68343 0.63537 0.19932 0.0
O25 O 0.64678 0.62737 0.20664 0.0
Mg26 Mg 0.37825 0.14024 0.68911 0.0
C27 C 0.36783 0.16707 0.72016 0.0
O28 O 0.35092 0.16216 0.71497 0.0
C29 C 0.38161 0.09947 0.68146 0.0
O30 O 0.38878 0.10704 0.66628 0.0
C31 C 0.41804 0.14287 0.68328 0.0
O32 O 0.41555 0.13546 0.69997 0.0
O33 O 0.40365 0.14621 0.67329 0.0
O34 O 0.3818 0.15842 0.71327 0.0
O35 O 0.35124 0.14888 0.67756 0.0
C36 C 0.33853 0.13662 0.67541 0.0
O37 O 0.34318 0.11882 0.67636 0.0
O38 O 0.3767 0.11022 0.69482 0.0
Mg39 Mg 0.88295 0.87332 0.19498 0.0
C40 C 0.8404 0.87189 0.1954 0.0
O41 O 0.84247 0.88719 0.18535 0.0
C42 C 0.9115 0.8704 0.16422 0.0
O43 O 0.9098 0.88868 0.1657 0.0
C44 C 0.87343 0.91576 0.19953 0.0
O45 O 0.86882 0.91117 0.21676 0.0
O46 O 0.88029 0.90333 0.18873 0.0
O47 O 0.85483 0.86227 0.1996 0.0
O48 O 0.89843 0.86427 0.21962 0.0
C49 C 0.88968 0.85693 0.23331 0.0
O50 O 0.8717 0.86037 0.23509 0.0
O51 O 0.90032 0.86002 0.17346 0.0
Mg52 Mg 0.15004 0.14923 0.80703 0.0
C53 C 0.14837 0.1841 0.83176 0.0
O54 O 0.13534 0.17442 0.8404 0.0
C55 C 0.15596 0.10868 0.81311 0.0
O56 O 0.14833 0.10975 0.79639 0.0
C57 C 0.11002 0.14584 0.81908 0.0
O58 O 0.11857 0.13732 0.83301 0.0
O59 O 0.11967 0.15118 0.80508 0.0
O60 O 0.15802 0.17616 0.81904 0.0
O61 O 0.16399 0.14799 0.77985 0.0
C62 C 0.16948 0.16297 0.77187 0.0
O63 O 0.16503 0.17919 0.77935 0.0
O64 O 0.15847 0.12382 0.82218 0.0
Mg65 Mg 0.89071 0.64826 0.32556 0.0
C66 C 0.89912 0.66818 0.28844 0.0
O67 O 0.88309 0.66098 0.28313 0.0
C68 C 0.88239 0.61104 0.34088 0.0
O69 O 0.87288 0.62289 0.3513 0.0
C70 C 0.90911 0.67718 0.34998 0.0
O71 O 0.90279 0.68802 0.33648 0.0
O72 O 0.90411 0.66006 0.35035 0.0
O73 O 0.90646 0.66251 0.30366 0.0
O74 O 0.86113 0.65409 0.32017 0.0
C75 C 0.8544 0.66954 0.31421 0.0
O76 O 0.86518 0.68441 0.31358 0.0
O77 O 0.89254 0.61764 0.32775 0.0
Mg78 Mg 0.38367 0.38358 0.82035 0.0
C79 C 0.34515 0.39385 0.8117 0.0
O80 O 0.35543 0.40455 0.8008 0.0
C81 C 0.41316 0.37706 0.85112 0.0
O82 O 0.41489 0.39537 0.85043 0.0
C83 C 0.3868 0.42304 0.83173 0.0
O84 O 0.37937 0.41462 0.84633 0.0
O85 O 0.3912 0.41318 0.81753 0.0
O86 O 0.35336 0.38352 0.82373 0.0
O87 O 0.38743 0.365 0.79637 0.0
C88 C 0.37696 0.35068 0.79831 0.0
O89 O 0.3661 0.34964 0.81312 0.0
O90 O 0.40044 0.36919 0.84151 0.0
Mg91 Mg 0.63815 0.8922 0.32148 0.0
C92 C 0.6116 0.87273 0.29508 0.0
O93 O 0.60017 0.8733 0.30948 0.0
C94 C 0.63291 0.93602 0.32074 0.0
O95 O 0.61984 0.9332 0.30814 0.0
C96 C 0.60736 0.88878 0.34929 0.0
O97 O 0.60686 0.90668 0.34493 0.0
O98 O 0.6207 0.87881 0.34283 0.0
O99 O 0.62579 0.88347 0.29503 0.0
O100 O 0.66648 0.88181 0.31623 0.0
C101 C 0.67281 0.89058 0.30199 0.0
O102 O 0.66247 0.90407 0.29483 0.0
O103 O 0.64159 0.92204 0.32766 0.0
Mg104 Mg 0.70531 0.15828 0.38366 0.0
C105 C 0.72624 0.14868 0.3497 0.0
O106 O 0.72835 0.13429 0.36103 0.0
C107 C 0.67186 0.16917 0.40596 0.0
O108 O 0.67365 0.1513 0.4101 0.0
C109 C 0.68372 0.12467 0.37386 0.0
O110 O 0.67602 0.13831 0.36413 0.0
O111 O 0.69703 0.12872 0.38499 0.0
O112 O 0.71614 0.16237 0.35517 0.0
O113 O 0.72659 0.1684 0.40298 0.0
C114 C 0.74154 0.1757 0.39665 0.0
O115 O 0.74625 0.1725 0.37917 0.0
O116 O 0.68219 0.17603 0.39313 0.0
Mg117 Mg 0.88602 0.19433 0.87086 0.0
C118 C 0.87297 0.18922 0.8315 0.0
O119 O 0.8638 0.20427 0.8368 0.0
C120 C 0.8877 0.19047 0.91085 0.0
O121 O 0.89214 0.2078 0.90644 0.0
C122 C 0.92193 0.20836 0.85339 0.0
O123 O 0.91085 0.21018 0.83883 0.0
O124 O 0.91481 0.20413 0.86919 0.0
O125 O 0.88242 0.18023 0.84373 0.0
O126 O 0.86369 0.21511 0.87368 0.0
C127 C 0.84795 0.20729 0.87664 0.0
O128 O 0.84744 0.1889 0.87771 0.0
O129 O 0.88433 0.17909 0.89753 0.0
Mg130 Mg 0.83002 0.3779 0.38369 0.0
C131 C 0.79369 0.36007 0.39657 0.0
O132 O 0.78884 0.36342 0.37914 0.0
C133 C 0.84848 0.41355 0.37272 0.0
O134 O 0.85568 0.4012 0.36111 0.0
C135 C 0.8642 0.3677 0.40602 0.0
O136 O 0.86395 0.38595 0.40848 0.0
O137 O 0.85306 0.36059 0.39411 0.0
O138 O 0.80864 0.36738 0.40282 0.0
O139 O 0.81986 0.3724 0.35525 0.0
C140 C 0.80893 0.3851 0.349 0.0
O141 O 0.80595 0.39997 0.35942 0.0
O142 O 0.83689 0.40785 0.38504 0.0
Mg143 Mg 0.63412 0.32092 0.87967 0.0
C144 C 0.64627 0.32932 0.83933 0.0
O145 O 0.66228 0.32274 0.84555 0.0
C146 C 0.6342 0.33234 0.91863 0.0
O147 O 0.62742 0.31525 0.91815 0.0
C148 C 0.59491 0.3059 0.87194 0.0
O149 O 0.60143 0.3044 0.85479 0.0
O150 O 0.60603 0.31044 0.88504 0.0
O151 O 0.63285 0.33169 0.85086 0.0
O152 O 0.65719 0.30086 0.88148 0.0
C153 C 0.6729 0.30852 0.88486 0.0
O154 O 0.67338 0.32678 0.88722 0.0
O155 O 0.63869 0.34011 0.90316 0.0
Mg156 Mg 0.70814 0.39149 0.1391 0.0
C157 C 0.70189 0.3904 0.18099 0.0
O158 O 0.69833 0.40821 0.17789 0.0
C159 C 0.69339 0.39284 0.10114 0.0
O160 O 0.70792 0.40409 0.10128 0.0
C161 C 0.69324 0.43035 0.13981 0.0
O162 O 0.67902 0.42033 0.13395 0.0
O163 O 0.70886 0.42211 0.14251 0.0
O164 O 0.70379 0.3795 0.16702 0.0
O165 O 0.73308 0.37638 0.12991 0.0
C166 C 0.74382 0.36906 0.14211 0.0
O167 O 0.74242 0.37467 0.15958 0.0
O168 O 0.68865 0.38495 0.11646 0.0
Mg169 Mg 0.62537 0.24701 0.62122 0.0
C170 C 0.66612 0.24507 0.61413 0.0
O171 O 0.65975 0.25456 0.59968 0.0
C172 C 0.59884 0.22262 0.64485 0.0
O173 O 0.60724 0.23077 0.65902 0.0
C174 C 0.61834 0.2368 0.58178 0.0
O175 O 0.61496 0.22136 0.59125 0.0
O176 O 0.6225 0.25158 0.59086 0.0
O177 O 0.65439 0.23846 0.62582 0.0
O178 O 0.62067 0.27039 0.64069 0.0
C179 C 0.63471 0.27903 0.64742 0.0
O180 O 0.65133 0.27571 0.6403 0.0
O181 O 0.60437 0.22609 0.62828 0.0
Mg182 Mg 0.82718 0.14337 0.13785 0.0
C183 C 0.80956 0.18 0.14264 0.0
O184 O 0.82448 0.17987 0.15334 0.0
C185 C 0.83574 0.10362 0.13388 0.0
O186 O 0.85144 0.11267 0.1309 0.0
C187 C 0.84985 0.16381 0.10726 0.0
O188 O 0.84207 0.17877 0.11462 0.0
O189 O 0.84757 0.14801 0.11526 0.0
O190 O 0.80577 0.16528 0.13325 0.0
O191 O 0.83415 0.1476 0.16758 0.0
C192 C 0.83239 0.1344 0.17949 0.0
O193 O 0.8312 0.11709 0.17345 0.0
O194 O 0.82085 0.11325 0.13628 0.0
Mg195 Mg 0.9003 0.27178 0.62314 0.0
C196 C 0.86276 0.27039 0.6431 0.0
O197 O 0.87234 0.25981 0.65476 0.0
C198 C 0.92088 0.29683 0.65139 0.0
O199 O 0.90853 0.28997 0.66318 0.0
C200 C 0.89444 0.28902 0.5867 0.0
O201 O 0.88742 0.30055 0.59923 0.0
O202 O 0.90186 0.2738 0.59249 0.0
O203 O 0.87126 0.27836 0.6296 0.0
O204 O 0.90474 0.24465 0.63698 0.0
C205 C 0.91781 0.24266 0.64894 0.0
O206 O 0.93097 0.25543 0.64974 0.0
O207 O 0.9201 0.29211 0.63424 0.0
Mg208 Mg 0.38511 0.69173 0.14966 0.0
C209 C 0.3542 0.7194 0.15809 0.0
O210 O 0.35892 0.71456 0.17521 0.0
C211 C 0.42389 0.70909 0.15588 0.0
O212 O 0.41534 0.71678 0.17026 0.0
C213 C 0.38805 0.66481 0.1168 0.0
O214 O 0.40575 0.66949 0.11819 0.0
O215 O 0.37661 0.67064 0.12918 0.0
O216 O 0.36425 0.71368 0.14451 0.0
O217 O 0.38187 0.68431 0.17934 0.0
C218 C 0.39541 0.68062 0.19034 0.0
O219 O 0.41214 0.67777 0.18325 0.0
O220 O 0.41443 0.69919 0.14453 0.0
Mg221 Mg 0.38989 0.79632 0.40052 0.0
C222 C 0.38934 0.77774 0.3644 0.0
O223 O 0.38813 0.79584 0.36109 0.0
C224 C 0.40108 0.802 0.44047 0.0
O225 O 0.41155 0.8143 0.43168 0.0
C226 C 0.42929 0.8042 0.39069 0.0
O227 O 0.42879 0.78588 0.39258 0.0
O228 O 0.41415 0.81343 0.39285 0.0
O229 O 0.39051 0.77234 0.38139 0.0
O230 O 0.36232 0.80885 0.39577 0.0
C231 C 0.35257 0.81499 0.4094 0.0
O232 O 0.36035 0.81624 0.42601 0.0
O233 O 0.39112 0.79087 0.43076 0.0
Mg234 Mg 0.24792 0.90151 0.90052 0.0
C235 C 0.2802 0.91375 0.87572 0.0
O236 O 0.26861 0.92747 0.8716 0.0
C237 C 0.22978 0.9064 0.93783 0.0
O238 O 0.21646 0.91163 0.92625 0.0
C239 C 0.22444 0.92724 0.87356 0.0
O240 O 0.22624 0.9137 0.86124 0.0
O241 O 0.23139 0.92516 0.88983 0.0
O242 O 0.27615 0.90276 0.88917 0.0
O243 O 0.24122 0.87291 0.89178 0.0
C244 C 0.24797 0.86082 0.90311 0.0
O245 O 0.25519 0.86681 0.9189 0.0
O246 O 0.24569 0.902 0.93109 0.0
Mg247 Mg 0.1358 0.7303 0.39989 0.0
C248 C 0.12873 0.73846 0.36042 0.0
O249 O 0.11639 0.74851 0.36969 0.0
C250 C 0.13849 0.69985 0.43011 0.0
O251 O 0.12024 0.70192 0.43 0.0
C252 C 0.0968 0.7172 0.39835 0.0
O253 O 0.10671 0.70338 0.39127 0.0
O254 O 0.10537 0.73171 0.40418 0.0
O255 O 0.1391 0.72716 0.36958 0.0
O256 O 0.15289 0.75521 0.40518 0.0
C257 C 0.16808 0.75437 0.39581 0.0
O258 O 0.17102 0.73968 0.38513 0.0
O259 O 0.1483 0.70893 0.41828 0.0
Mg260 Mg 0.32005 0.63612 0.88888 0.0
C261 C 0.28243 0.63819 0.86891 0.0
O262 O 0.28154 0.65457 0.87726 0.0
C263 C 0.33614 0.62842 0.92639 0.0
O264 O 0.35059 0.62713 0.91508 0.0
C265 C 0.34195 0.61333 0.8603 0.0
O266 O 0.32905 0.62019 0.8491 0.0
O267 O 0.34255 0.61897 0.87719 0.0
O268 O 0.29556 0.62693 0.87327 0.0
O269 O 0.32197 0.66647 0.88512 0.0
C270 C 0.31799 0.67515 0.87002 0.0
O271 O 0.31495 0.66548 0.85469 0.0
O272 O 0.32008 0.63153 0.91929 0.0
Mg273 Mg 0.14135 0.81341 0.13648 0.0
C274 C 0.15928 0.81215 0.17546 0.0
O275 O 0.17467 0.80927 0.16579 0.0
C276 C 0.17015 0.83617 0.1157 0.0
O277 O 0.18087 0.82309 0.12303 0.0
C278 C 0.10271 0.82544 0.12472 0.0
O279 O 0.11269 0.84003 0.11967 0.0
O280 O 0.11116 0.81115 0.13138 0.0
O281 O 0.14418 0.81592 0.16678 0.0
O282 O 0.15878 0.78954 0.12857 0.0
C283 C 0.16244 0.77642 0.1401 0.0
O284 O 0.15227 0.77495 0.15538 0.0
O285 O 0.15288 0.83654 0.12007 0.0
Mg286 Mg 0.18459 0.64372 0.6541 0.0
C287 C 0.18436 0.68301 0.66991 0.0
O288 O 0.19059 0.67392 0.68468 0.0
C289 C 0.15872 0.61062 0.65655 0.0
O290 O 0.16531 0.60851 0.63949 0.0
C291 C 0.19683 0.65022 0.61395 0.0
O292 O 0.20543 0.6643 0.62203 0.0
O293 O 0.18823 0.63841 0.62418 0.0
O294 O 0.17893 0.67367 0.65578 0.0
O295 O 0.20869 0.6395 0.67228 0.0
C296 C 0.21052 0.62447 0.68175 0.0
O297 O 0.19981 0.61009 0.67778 0.0
O298 O 0.16323 0.6252 0.66572 0.0
Mg299 Mg 0.32395 0.86807 0.65829 0.0
C300 C 0.28754 0.84942 0.6469 0.0
O301 O 0.29408 0.85311 0.63008 0.0
C302 C 0.31832 0.90839 0.66734 0.0
O303 O 0.31209 0.90017 0.68261 0.0
C304 C 0.35165 0.86143 0.62614 0.0
O305 O 0.35782 0.87796 0.63134 0.0
O306 O 0.33843 0.85388 0.63537 0.0
O307 O 0.29661 0.85503 0.66112 0.0
O308 O 0.33719 0.86634 0.68564 0.0
C309 C 0.33247 0.8543 0.6979 0.0
O310 O 0.32148 0.84041 0.69302 0.0
O311 O 0.32308 0.8982 0.6535 0.0
C312 C 0.15807 0.21587 0.82022 0.0
C313 C 0.14864 0.20484 0.83354 0.0
C314 C 0.15523 0.23527 0.81948 0.0
C315 C 0.11902 0.27011 0.83214 0.0
H316 H 0.15497 0.30474 0.81091 0.0
C317 C 0.09695 0.33558 0.79083 0.0
C318 C 0.10873 0.35129 0.79006 0.0
C319 C 0.10213 0.31963 0.80099 0.0
C320 C 0.14479 0.29543 0.81719 0.0
H321 H 0.13008 0.20581 0.85757 0.0
H322 H 0.12561 0.2397 0.85667 0.0
H323 H 0.16511 0.27355 0.82037 0.0
H324 H 0.13464 0.36303 0.80055 0.0
H325 H 0.1435 0.33531 0.81865 0.0
H326 H 0.09873 0.29199 0.82903 0.0
C327 C 0.13472 0.2333 0.84637 0.0
C328 C 0.15058 0.27738 0.82238 0.0
C329 C 0.13743 0.21386 0.847 0.0
C330 C 0.12522 0.35117 0.80081 0.0
C331 C 0.13041 0.33517 0.81102 0.0
C332 C 0.11328 0.28819 0.8271 0.0
C333 C 0.14304 0.24419 0.83217 0.0
C334 C 0.13766 0.26427 0.82939 0.0
C335 C 0.11922 0.31897 0.81075 0.0
C336 C 0.12594 0.30091 0.819 0.0
H337 H 0.1668 0.20942 0.80961 0.0
H338 H 0.16178 0.24305 0.80822 0.0
H339 H 0.10857 0.26045 0.83734 0.0
H340 H 0.08413 0.33517 0.78275 0.0
H341 H 0.09319 0.30743 0.80023 0.0
C342 C 0.71281 0.67494 0.21469 0.0
C343 C 0.70763 0.65673 0.20921 0.0
C344 C 0.72898 0.67784 0.22544 0.0
C345 C 0.75713 0.65337 0.26035 0.0
H346 H 0.79556 0.6904 0.25093 0.0
C347 C 0.82646 0.65277 0.30131 0.0
C348 C 0.83592 0.66968 0.30465 0.0
C349 C 0.81034 0.65241 0.29025 0.0
C350 C 0.78479 0.68021 0.254 0.0
H351 H 0.71614 0.62748 0.2098 0.0
H352 H 0.74403 0.63256 0.22858 0.0
H353 H 0.76901 0.68783 0.2295 0.0
H354 H 0.83531 0.69964 0.2995 0.0
H355 H 0.80677 0.69914 0.28076 0.0
H356 H 0.77238 0.64594 0.28499 0.0
C357 C 0.73552 0.64456 0.22471 0.0
C358 C 0.76964 0.67869 0.24162 0.0
C359 C 0.71956 0.64169 0.21382 0.0
C360 C 0.82841 0.68636 0.2972 0.0
C361 C 0.81212 0.68603 0.28626 0.0
C362 C 0.77206 0.65506 0.27285 0.0
C363 C 0.74013 0.66256 0.23108 0.0
C364 C 0.75583 0.66502 0.24451 0.0
C365 C 0.80301 0.66899 0.28236 0.0
C366 C 0.78632 0.66827 0.26972 0.0
H367 H 0.70395 0.68685 0.2114 0.0
H368 H 0.73223 0.69189 0.23013 0.0
H369 H 0.74648 0.64294 0.26314 0.0
H370 H 0.83189 0.63961 0.30666 0.0
H371 H 0.80403 0.63895 0.28738 0.0
C372 C 0.36104 0.32402 0.78307 0.0
C373 C 0.37738 0.33462 0.78533 0.0
C374 C 0.36152 0.30691 0.77373 0.0
C375 C 0.39282 0.26768 0.7645 0.0
H376 H 0.35212 0.25116 0.73276 0.0
C377 C 0.38853 0.19312 0.73145 0.0
C378 C 0.37064 0.18502 0.73021 0.0
C379 C 0.39068 0.21154 0.73783 0.0
C380 C 0.3635 0.25547 0.74176 0.0
H381 H 0.40698 0.33603 0.77907 0.0
H382 H 0.40793 0.30571 0.76268 0.0
H383 H 0.3538 0.28388 0.74222 0.0
H384 H 0.34116 0.18952 0.73595 0.0
H385 H 0.34496 0.22137 0.74743 0.0
H386 H 0.40228 0.23911 0.76436 0.0
C387 C 0.39472 0.31079 0.76816 0.0
C388 C 0.36453 0.27427 0.74707 0.0
C389 C 0.39416 0.32818 0.77733 0.0
C390 C 0.35512 0.19535 0.73656 0.0
C391 C 0.35728 0.21371 0.74297 0.0
C392 C 0.39177 0.24881 0.75921 0.0
C393 C 0.37843 0.29983 0.76658 0.0
C394 C 0.37897 0.28052 0.7588 0.0
C395 C 0.375 0.22223 0.74314 0.0
C396 C 0.37686 0.24241 0.74809 0.0
H397 H 0.34792 0.32867 0.78914 0.0
H398 H 0.34878 0.29877 0.77294 0.0
H399 H 0.404 0.27203 0.77373 0.0
H400 H 0.4008 0.18558 0.72665 0.0
H401 H 0.40452 0.21766 0.73778 0.0
C402 C 0.69552 0.8948 0.27585 0.0
C403 C 0.69046 0.88522 0.29233 0.0
C404 C 0.71131 0.88955 0.26567 0.0
C405 C 0.7569 0.86663 0.26849 0.0
H406 H 0.75208 0.86581 0.21436 0.0
C407 C 0.82085 0.85508 0.21949 0.0
C408 C 0.82216 0.86799 0.2046 0.0
C409 C 0.8043 0.85353 0.22994 0.0
C410 C 0.75371 0.86602 0.22944 0.0
H411 H 0.69842 0.86275 0.31123 0.0
H412 H 0.72651 0.85367 0.29337 0.0
H413 H 0.72434 0.86997 0.23378 0.0
H414 H 0.80679 0.88876 0.18853 0.0
H415 H 0.77808 0.88604 0.2066 0.0
H416 H 0.78641 0.86331 0.26407 0.0
C417 C 0.71798 0.86523 0.28839 0.0
C418 C 0.7378 0.86837 0.24058 0.0
C419 C 0.70193 0.87042 0.2986 0.0
C420 C 0.80629 0.87865 0.19987 0.0
C421 C 0.78976 0.87703 0.21022 0.0
C422 C 0.77289 0.86431 0.2573 0.0
C423 C 0.72265 0.87461 0.27164 0.0
C424 C 0.73926 0.86926 0.26021 0.0
C425 C 0.78865 0.86473 0.22562 0.0
C426 C 0.77153 0.86452 0.23761 0.0
H427 H 0.68715 0.90633 0.27057 0.0
H428 H 0.71471 0.89734 0.25307 0.0
H429 H 0.75848 0.86732 0.28356 0.0
H430 H 0.83282 0.84666 0.22355 0.0
H431 H 0.80386 0.84377 0.24158 0.0
C432 C 0.81942 0.15647 0.20376 0.0
C433 C 0.82635 0.13861 0.19895 0.0
C434 C 0.80969 0.15918 0.22063 0.0
C435 C 0.78127 0.13157 0.25368 0.0
H436 H 0.7831 0.17554 0.28545 0.0
C437 C 0.74596 0.13268 0.32569 0.0
C438 C 0.73661 0.14897 0.33166 0.0
C439 C 0.75663 0.13267 0.30933 0.0
C440 C 0.78225 0.16329 0.27656 0.0
H441 H 0.82993 0.11008 0.20886 0.0
H442 H 0.81342 0.11488 0.2383 0.0
H443 H 0.80378 0.17337 0.25811 0.0
H444 H 0.73112 0.17812 0.32494 0.0
H445 H 0.74982 0.17809 0.29603 0.0
H446 H 0.75982 0.12145 0.27192 0.0
C447 C 0.81498 0.12667 0.22883 0.0
C448 C 0.79415 0.16202 0.26094 0.0
C449 C 0.82462 0.12395 0.21202 0.0
C450 C 0.73808 0.16532 0.32069 0.0
C451 C 0.74891 0.16533 0.30423 0.0
C452 C 0.76942 0.13286 0.26918 0.0
C453 C 0.80674 0.1441 0.23302 0.0
C454 C 0.794 0.14598 0.24949 0.0
C455 C 0.7583 0.14897 0.29837 0.0
C456 C 0.76994 0.14857 0.28101 0.0
H457 H 0.82044 0.16807 0.19401 0.0
H458 H 0.80355 0.17279 0.22341 0.0
H459 H 0.78034 0.11927 0.24487 0.0
H460 H 0.7452 0.11983 0.33378 0.0
H461 H 0.76388 0.1199 0.30545 0.0
C462 C 0.92701 0.23065 0.68063 0.0
C463 C 0.9157 0.22904 0.66462 0.0
C464 C 0.92296 0.22047 0.69689 0.0
C465 C 0.91502 0.19483 0.72966 0.0
H466 H 0.86219 0.19061 0.74097 0.0
C467 C 0.89022 0.17475 0.80421 0.0
C468 C 0.87542 0.18579 0.81112 0.0
C469 C 0.89456 0.1748 0.78501 0.0
C470 C 0.87703 0.19172 0.73813 0.0
H471 H 0.89204 0.21433 0.65275 0.0
H472 H 0.88541 0.19595 0.68084 0.0
H473 H 0.87193 0.20079 0.71007 0.0
H474 H 0.85283 0.2045 0.80307 0.0
H475 H 0.86049 0.20492 0.77009 0.0
H476 H 0.92004 0.1872 0.75821 0.0
C477 C 0.89706 0.20561 0.68109 0.0
C478 C 0.88267 0.1973 0.72018 0.0
C479 C 0.90098 0.21601 0.66487 0.0
C480 C 0.86437 0.19587 0.79828 0.0
C481 C 0.86872 0.19599 0.77921 0.0
C482 C 0.90937 0.18953 0.7477 0.0
C483 C 0.90761 0.20815 0.69757 0.0
C484 C 0.90175 0.19947 0.7158 0.0
C485 C 0.88419 0.18589 0.77231 0.0
C486 C 0.89026 0.18844 0.75237 0.0
H487 H 0.93843 0.24058 0.68102 0.0
H488 H 0.93132 0.22312 0.70923 0.0
H489 H 0.92986 0.19584 0.72678 0.0
H490 H 0.89904 0.16684 0.81371 0.0
H491 H 0.90637 0.16657 0.78022 0.0
C492 C 0.79952 0.36633 0.3205 0.0
C493 C 0.79796 0.3826 0.33151 0.0
C494 C 0.78806 0.36389 0.30472 0.0
C495 C 0.74302 0.38016 0.28482 0.0
H496 H 0.76334 0.36497 0.23683 0.0
C497 C 0.70639 0.39675 0.21513 0.0
C498 C 0.70831 0.38446 0.19989 0.0
C499 C 0.71555 0.39315 0.23205 0.0
C500 C 0.75732 0.36886 0.2502 0.0
H501 H 0.78336 0.40921 0.33424 0.0
H502 H 0.76362 0.40495 0.30699 0.0
H503 H 0.78351 0.36514 0.26447 0.0
H504 H 0.72055 0.35808 0.19092 0.0
H505 H 0.73641 0.3517 0.22059 0.0
H506 H 0.71697 0.38422 0.27063 0.0
C507 C 0.77346 0.39395 0.31062 0.0
C508 C 0.76892 0.369 0.26604 0.0
C509 C 0.78493 0.39644 0.3262 0.0
C510 C 0.71874 0.36786 0.20237 0.0
C511 C 0.72801 0.36429 0.21932 0.0
C512 C 0.73144 0.37996 0.26906 0.0
C513 C 0.7747 0.37758 0.29978 0.0
C514 C 0.76202 0.37515 0.28342 0.0
C515 C 0.72692 0.37715 0.23421 0.0
C516 C 0.73854 0.37479 0.25143 0.0
H517 H 0.80939 0.35539 0.32422 0.0
H518 H 0.78935 0.35112 0.29663 0.0
H519 H 0.73716 0.38459 0.2981 0.0
H520 H 0.69848 0.40966 0.21374 0.0
H521 H 0.71448 0.40347 0.24311 0.0
C522 C 0.64925 0.29757 0.67333 0.0
C523 C 0.6331 0.29004 0.66504 0.0
C524 C 0.64854 0.30563 0.69115 0.0
C525 C 0.6202 0.30467 0.73467 0.0
H526 H 0.65458 0.34381 0.74964 0.0
C527 C 0.62477 0.33052 0.81145 0.0
C528 C 0.64302 0.33068 0.81881 0.0
C529 C 0.62183 0.32879 0.79211 0.0
C530 C 0.64489 0.33287 0.74568 0.0
H531 H 0.60329 0.28596 0.66875 0.0
H532 H 0.60192 0.30049 0.6997 0.0
H533 H 0.65207 0.3353 0.71667 0.0
H534 H 0.67246 0.33013 0.8115 0.0
H535 H 0.66734 0.32743 0.77785 0.0
H536 H 0.61315 0.30223 0.76377 0.0
C537 C 0.61528 0.29976 0.69256 0.0
C538 C 0.64348 0.32792 0.72676 0.0
C539 C 0.61601 0.29158 0.67471 0.0
C540 C 0.65823 0.33006 0.80631 0.0
C541 C 0.65529 0.32857 0.78699 0.0
C542 C 0.62148 0.30977 0.75357 0.0
C543 C 0.63163 0.30654 0.70121 0.0
C544 C 0.63145 0.31342 0.72102 0.0
C545 C 0.63706 0.32746 0.77968 0.0
C546 C 0.63414 0.32364 0.75936 0.0
H547 H 0.66269 0.29662 0.66637 0.0
H548 H 0.6615 0.31039 0.69733 0.0
H549 H 0.61096 0.29329 0.73093 0.0
H550 H 0.61273 0.3309 0.82067 0.0
H551 H 0.60762 0.32815 0.7869 0.0
C552 C 0.32914 0.7316 0.13635 0.0
C553 C 0.33546 0.72778 0.15464 0.0
C554 C 0.31046 0.73677 0.13312 0.0
C555 C 0.26401 0.73007 0.15335 0.0
H556 H 0.24828 0.7725 0.12319 0.0
C557 C 0.18823 0.7577 0.15482 0.0
C558 C 0.18079 0.76669 0.13893 0.0
C559 C 0.20682 0.75158 0.15504 0.0
C560 C 0.25237 0.76035 0.13135 0.0
H561 H 0.32723 0.72732 0.18393 0.0
H562 H 0.29481 0.7361 0.17824 0.0
H563 H 0.28159 0.7656 0.12675 0.0
H564 H 0.18682 0.77532 0.11042 0.0
H565 H 0.21905 0.76396 0.11053 0.0
H566 H 0.23499 0.72449 0.15779 0.0
C567 C 0.30425 0.73496 0.16641 0.0
C568 C 0.27149 0.7565 0.13346 0.0
C569 C 0.32289 0.73006 0.16965 0.0
C570 C 0.19212 0.76847 0.12291 0.0
C571 C 0.2107 0.76215 0.12306 0.0
C572 C 0.24493 0.73373 0.15104 0.0
C573 C 0.29772 0.73797 0.1481 0.0
C574 C 0.2775 0.74153 0.14478 0.0
C575 C 0.21847 0.75406 0.1393 0.0
C576 C 0.2388 0.74913 0.1403 0.0
H577 H 0.33844 0.72998 0.12446 0.0
H578 H 0.30579 0.73905 0.11886 0.0
H579 H 0.26824 0.71821 0.16188 0.0
H580 H 0.18001 0.75625 0.16749 0.0
H581 H 0.21226 0.74568 0.16793 0.0
C582 C 0.32292 0.81252 0.39066 0.0
C583 C 0.33198 0.8172 0.40748 0.0
C584 C 0.30338 0.8116 0.38983 0.0
C585 C 0.2632 0.80262 0.42081 0.0
H586 H 0.23459 0.81308 0.37588 0.0
C587 C 0.18619 0.77877 0.41371 0.0
C588 C 0.18298 0.76865 0.39717 0.0
C589 C 0.20241 0.78969 0.41558 0.0
C590 C 0.24236 0.81013 0.38857 0.0
H591 H 0.32746 0.82581 0.43628 0.0
H592 H 0.29343 0.82441 0.43474 0.0
H593 H 0.26712 0.82319 0.37784 0.0
H594 H 0.19346 0.76304 0.36922 0.0
H595 H 0.22139 0.78197 0.37239 0.0
H596 H 0.23868 0.78895 0.43126 0.0
C597 C 0.30144 0.82109 0.42229 0.0
C598 C 0.26103 0.81588 0.38967 0.0
C599 C 0.32098 0.82202 0.42312 0.0
C600 C 0.1956 0.7706 0.38219 0.0
C601 C 0.21158 0.7816 0.38396 0.0
C602 C 0.24453 0.79687 0.41971 0.0
C603 C 0.2924 0.81536 0.40579 0.0
C604 C 0.27185 0.81173 0.40559 0.0
C605 C 0.2155 0.79087 0.40084 0.0
C606 C 0.23405 0.80004 0.40335 0.0
H607 H 0.33093 0.80872 0.37835 0.0
H608 H 0.29695 0.80698 0.37692 0.0
H609 H 0.27113 0.79899 0.43323 0.0
H610 H 0.17672 0.77747 0.4255 0.0
H611 H 0.20496 0.79678 0.42873 0.0
C612 C 0.25697 0.82813 0.9115 0.0
C613 C 0.25113 0.84097 0.89772 0.0
C614 C 0.26367 0.81044 0.90656 0.0
C615 C 0.26583 0.77428 0.87028 0.0
H616 H 0.31305 0.76206 0.8942 0.0
C617 C 0.30551 0.70466 0.85506 0.0
C618 C 0.31316 0.69543 0.87075 0.0
C619 C 0.29874 0.72307 0.85651 0.0
C620 C 0.29979 0.76511 0.88751 0.0
H621 H 0.24662 0.84478 0.86792 0.0
H622 H 0.25818 0.81348 0.85925 0.0
H623 H 0.29821 0.79217 0.90028 0.0
H624 H 0.32012 0.69862 0.90014 0.0
H625 H 0.30821 0.7304 0.90273 0.0
H626 H 0.26716 0.74694 0.85793 0.0
C627 C 0.25763 0.81731 0.87391 0.0
C628 C 0.2913 0.78242 0.89097 0.0
C629 C 0.25096 0.83519 0.87888 0.0
C630 C 0.31442 0.70528 0.88773 0.0
C631 C 0.30763 0.72361 0.88919 0.0
C632 C 0.27427 0.75681 0.86693 0.0
C633 C 0.26467 0.80504 0.8877 0.0
C634 C 0.27407 0.78709 0.88269 0.0
C635 C 0.29946 0.73271 0.87368 0.0
C636 C 0.29122 0.75187 0.87578 0.0
H637 H 0.2571 0.83202 0.92617 0.0
H638 H 0.26858 0.80114 0.91754 0.0
H639 H 0.25255 0.7775 0.86371 0.0
H640 H 0.30428 0.6975 0.84176 0.0
H641 H 0.2928 0.7297 0.84421 0.0
C642 C 0.19507 0.71361 0.68329 0.0
C643 C 0.18751 0.7035 0.66821 0.0
C644 C 0.20131 0.73202 0.68078 0.0
C645 C 0.22054 0.76166 0.6436 0.0
H646 H 0.21864 0.80056 0.68141 0.0
C647 C 0.26123 0.83041 0.63362 0.0
C648 C 0.27136 0.83665 0.64927 0.0
C649 C 0.24753 0.81657 0.63555 0.0
C650 C 0.21937 0.78981 0.67074 0.0
H651 H 0.17938 0.70533 0.63897 0.0
H652 H 0.19015 0.73747 0.63467 0.0
H653 H 0.20037 0.77196 0.68564 0.0
H654 H 0.27439 0.8338 0.67938 0.0
H655 H 0.25084 0.80947 0.68269 0.0
H656 H 0.24004 0.77902 0.62903 0.0
C657 C 0.19151 0.73104 0.64836 0.0
C658 C 0.20886 0.77344 0.67315 0.0
C659 C 0.18521 0.71265 0.65088 0.0
C660 C 0.26685 0.82934 0.66702 0.0
C661 C 0.25323 0.81543 0.66894 0.0
C662 C 0.23109 0.77795 0.64123 0.0
C663 C 0.20016 0.74073 0.66312 0.0
C664 C 0.20955 0.75904 0.65974 0.0
C665 C 0.24369 0.80854 0.65316 0.0
C666 C 0.23091 0.79212 0.65491 0.0
H667 H 0.19701 0.70702 0.69684 0.0
H668 H 0.20799 0.73901 0.69243 0.0
H669 H 0.22167 0.75073 0.63315 0.0
H670 H 0.26423 0.83585 0.61976 0.0
H671 H 0.2402 0.8119 0.62315 0.0
C672 C 0.88792 0.83143 0.25744 0.0
C673 C 0.89777 0.84026 0.24284 0.0
C674 C 0.89294 0.81342 0.26344 0.0
C675 C 0.91047 0.77665 0.27733 0.0
H676 H 0.91485 0.74184 0.23584 0.0
C677 C 0.91881 0.69721 0.2897 0.0
C678 C 0.90544 0.68626 0.28027 0.0
C679 C 0.92178 0.7159 0.28457 0.0
C680 C 0.91377 0.7514 0.24757 0.0
H681 H 0.92156 0.83755 0.22408 0.0
H682 H 0.93021 0.80611 0.23453 0.0
H683 H 0.91321 0.77553 0.22966 0.0
H684 H 0.88582 0.68604 0.25713 0.0
H685 H 0.8913 0.71855 0.24797 0.0
H686 H 0.91048 0.75249 0.29521 0.0
C687 C 0.9185 0.8131 0.2412 0.0
C688 C 0.913 0.7707 0.24406 0.0
C689 C 0.91362 0.8312 0.23534 0.0
C690 C 0.8962 0.69404 0.2647 0.0
C691 C 0.89934 0.71269 0.25944 0.0
C692 C 0.91148 0.75737 0.28086 0.0
C693 C 0.90783 0.80377 0.25486 0.0
C694 C 0.91097 0.78352 0.25888 0.0
C695 C 0.91169 0.72401 0.26973 0.0
C696 C 0.91277 0.7445 0.26599 0.0
H697 H 0.87567 0.838 0.26353 0.0
H698 H 0.88441 0.80659 0.27398 0.0
H699 H 0.90897 0.78619 0.28903 0.0
H700 H 0.92624 0.69171 0.30174 0.0
H701 H 0.93157 0.7242 0.2926 0.0
C702 C 0.18469 0.35657 0.76187 0.0
C703 C 0.17692 0.37097 0.75082 0.0
C704 C 0.20333 0.35744 0.76772 0.0
C705 C 0.24855 0.38145 0.75929 0.0
H706 H 0.2571 0.37128 0.81203 0.0
C707 C 0.31618 0.40456 0.79541 0.0
C708 C 0.32498 0.39173 0.80753 0.0
C709 C 0.29806 0.40133 0.78896 0.0
C710 C 0.25501 0.37396 0.79723 0.0
H711 H 0.18302 0.39703 0.73635 0.0
H712 H 0.21549 0.39853 0.74653 0.0
H713 H 0.22621 0.36592 0.79857 0.0
H714 H 0.32136 0.3658 0.82299 0.0
H715 H 0.28959 0.36011 0.81165 0.0
H716 H 0.27727 0.38964 0.75797 0.0
C717 C 0.20719 0.38654 0.75067 0.0
C718 C 0.23731 0.37084 0.78949 0.0
C719 C 0.18854 0.38569 0.74485 0.0
C720 C 0.31491 0.37601 0.81376 0.0
C721 C 0.29673 0.37273 0.80723 0.0
C722 C 0.26622 0.38456 0.76702 0.0
C723 C 0.21467 0.37268 0.76259 0.0
C724 C 0.23382 0.37474 0.77047 0.0
C725 C 0.28828 0.38514 0.79438 0.0
C726 C 0.26961 0.38108 0.78614 0.0
H727 H 0.17618 0.34498 0.76668 0.0
H728 H 0.20876 0.34636 0.7766 0.0
H729 H 0.24642 0.38431 0.74454 0.0
H730 H 0.32349 0.4169 0.79047 0.0
H731 H 0.29181 0.41142 0.77946 0.0
C732 C 0.62883 0.84989 0.27474 0.0
C733 C 0.61207 0.85546 0.28351 0.0
C734 C 0.63107 0.83154 0.26825 0.0
C735 C 0.60858 0.78798 0.25428 0.0
H736 H 0.6503 0.76389 0.27944 0.0
C737 C 0.624 0.70857 0.24486 0.0
C738 C 0.64293 0.70325 0.24379 0.0
C739 C 0.61896 0.72675 0.25044 0.0
C740 C 0.63877 0.77036 0.272 0.0
H741 H 0.58394 0.84661 0.29064 0.0
H742 H 0.58775 0.81466 0.27869 0.0
H743 H 0.64396 0.79692 0.28487 0.0
H744 H 0.67137 0.71283 0.2482 0.0
H745 H 0.66277 0.74431 0.2572 0.0
H746 H 0.60376 0.76165 0.2408 0.0
C747 C 0.59919 0.82447 0.2772 0.0
C748 C 0.63512 0.78932 0.27521 0.0
C749 C 0.59703 0.84277 0.284 0.0
C750 C 0.65663 0.71632 0.249 0.0
C751 C 0.65164 0.73448 0.25429 0.0
C752 C 0.61246 0.76902 0.25073 0.0
C753 C 0.6165 0.81849 0.27002 0.0
C754 C 0.62009 0.79835 0.2663 0.0
C755 C 0.63275 0.7401 0.25488 0.0
C756 C 0.62774 0.75996 0.25945 0.0
H757 H 0.64073 0.85924 0.27409 0.0
H758 H 0.64449 0.8273 0.26257 0.0
H759 H 0.59686 0.79464 0.24729 0.0
H760 H 0.61308 0.69886 0.24093 0.0
H761 H 0.60425 0.73037 0.25106 0.0
C762 C 0.30471 0.12802 0.67788 0.0
C763 C 0.3185 0.14201 0.67688 0.0
C764 C 0.28646 0.13241 0.68339 0.0
C765 C 0.2618 0.16787 0.71178 0.0
H766 H 0.21811 0.13886 0.69816 0.0
C767 C 0.1913 0.17867 0.74928 0.0
C768 C 0.18296 0.16216 0.75605 0.0
C769 C 0.20583 0.17785 0.73617 0.0
C770 C 0.23019 0.14707 0.7021 0.0
H771 H 0.32343 0.17189 0.67929 0.0
H772 H 0.29142 0.17965 0.68836 0.0
H773 H 0.2471 0.13514 0.68037 0.0
H774 H 0.1827 0.13186 0.75353 0.0
H775 H 0.20803 0.13045 0.73061 0.0
H776 H 0.245 0.17958 0.73365 0.0
C777 C 0.29488 0.16516 0.68545 0.0
C778 C 0.24683 0.14494 0.69193 0.0
C779 C 0.31321 0.16074 0.68005 0.0
C780 C 0.18883 0.14485 0.74865 0.0
C781 C 0.2033 0.14404 0.73543 0.0
C782 C 0.24515 0.17011 0.72181 0.0
C783 C 0.28144 0.15095 0.6879 0.0
C784 C 0.263 0.15501 0.6969 0.0
C785 C 0.21229 0.16051 0.72941 0.0
C786 C 0.22926 0.15947 0.71735 0.0
H787 H 0.30824 0.11344 0.67548 0.0
H788 H 0.27663 0.12104 0.68521 0.0
H789 H 0.27398 0.17562 0.71631 0.0
H790 H 0.18708 0.19226 0.75458 0.0
H791 H 0.21229 0.1908 0.73161 0.0
C792 C 0.33933 0.87672 0.72389 0.0
C793 C 0.33566 0.85831 0.71801 0.0
C794 C 0.33881 0.88138 0.7429 0.0
C795 C 0.31785 0.86395 0.78726 0.0
H796 H 0.34277 0.90745 0.80794 0.0
C797 C 0.30124 0.88944 0.86156 0.0
C798 C 0.29451 0.908 0.86178 0.0
C799 C 0.31106 0.88261 0.84603 0.0
C800 C 0.33581 0.8952 0.80236 0.0
H801 H 0.33009 0.83003 0.72756 0.0
H802 H 0.33017 0.83788 0.76078 0.0
H803 H 0.35175 0.89592 0.77699 0.0
H804 H 0.2943 0.93437 0.84662 0.0
H805 H 0.31179 0.92252 0.81969 0.0
H806 H 0.30195 0.86328 0.81266 0.0
C807 C 0.33265 0.84896 0.7507 0.0
C808 C 0.34084 0.88864 0.78456 0.0
C809 C 0.3328 0.84438 0.73164 0.0
C810 C 0.29924 0.92 0.84686 0.0
C811 C 0.3093 0.91323 0.83145 0.0
C812 C 0.31309 0.87031 0.80514 0.0
C813 C 0.33493 0.86767 0.75659 0.0
C814 C 0.33158 0.87319 0.77653 0.0
C815 C 0.31463 0.89427 0.83056 0.0
C816 C 0.3217 0.88624 0.81271 0.0
H817 H 0.34147 0.88784 0.71376 0.0
H818 H 0.34042 0.89597 0.74668 0.0
H819 H 0.31005 0.8523 0.78158 0.0
H820 H 0.29787 0.87978 0.87279 0.0
H821 H 0.31517 0.86798 0.84577 0.0
C822 C 0.14946 0.73886 0.33185 0.0
C823 C 0.13217 0.74283 0.34041 0.0
C824 C 0.15355 0.746 0.31397 0.0
C825 C 0.1394 0.78503 0.28278 0.0
H826 H 0.16585 0.75757 0.24412 0.0
C827 C 0.14202 0.81 0.20599 0.0
C828 C 0.15851 0.80711 0.19563 0.0
C829 C 0.14029 0.80291 0.22418 0.0
C830 C 0.15869 0.76553 0.25487 0.0
H831 H 0.10521 0.75629 0.33646 0.0
H832 H 0.11216 0.7683 0.30535 0.0
H833 H 0.15963 0.74255 0.2743 0.0
H834 H 0.18638 0.79497 0.19659 0.0
H835 H 0.18339 0.78275 0.22844 0.0
H836 H 0.13829 0.80794 0.26341 0.0
C837 C 0.12278 0.76018 0.31255 0.0
C838 C 0.1551 0.75689 0.27216 0.0
C839 C 0.11874 0.75314 0.33034 0.0
C840 C 0.17349 0.79753 0.20418 0.0
C841 C 0.17172 0.79034 0.22237 0.0
C842 C 0.14298 0.79364 0.26555 0.0
C843 C 0.14042 0.75719 0.30435 0.0
C844 C 0.14514 0.76645 0.28622 0.0
C845 C 0.15498 0.79268 0.23247 0.0
C846 C 0.15244 0.78393 0.25128 0.0
H847 H 0.16014 0.73105 0.33931 0.0
H848 H 0.16728 0.74344 0.30805 0.0
H849 H 0.13212 0.79299 0.29345 0.0
H850 H 0.13019 0.81726 0.19983 0.0
H851 H 0.12713 0.80484 0.23147 0.0
C852 C 0.26344 0.65013 0.84197 0.0
C853 C 0.27173 0.63495 0.85144 0.0
C854 C 0.25631 0.64792 0.82388 0.0
C855 C 0.26027 0.61627 0.78256 0.0
H856 H 0.2197 0.64727 0.76389 0.0
C857 C 0.22409 0.60798 0.70973 0.0
C858 C 0.22113 0.62467 0.6996 0.0
C859 C 0.23122 0.6085 0.72799 0.0
C860 C 0.23114 0.63861 0.7689 0.0
H861 H 0.27801 0.60526 0.84975 0.0
H862 H 0.26476 0.60116 0.81857 0.0
H863 H 0.22819 0.64875 0.79688 0.0
H864 H 0.22416 0.65493 0.70045 0.0
H865 H 0.2363 0.65577 0.73238 0.0
H866 H 0.26269 0.60578 0.75448 0.0
C867 C 0.26437 0.61498 0.8248 0.0
C868 C 0.23607 0.63948 0.78782 0.0
C869 C 0.27177 0.61726 0.84281 0.0
C870 C 0.22627 0.6418 0.70782 0.0
C871 C 0.23308 0.64232 0.72616 0.0
C872 C 0.2551 0.61518 0.76368 0.0
C873 C 0.25699 0.63039 0.81486 0.0
C874 C 0.25088 0.6285 0.79492 0.0
C875 C 0.23524 0.62572 0.73657 0.0
C876 C 0.24065 0.62652 0.75662 0.0
H877 H 0.26335 0.66401 0.84809 0.0
H878 H 0.25103 0.66023 0.81671 0.0
H879 H 0.27196 0.60783 0.78731 0.0
H880 H 0.22028 0.59456 0.70381 0.0
H881 H 0.23276 0.59549 0.73571 0.0
C882 C 0.39031 0.74489 0.35096 0.0
C883 C 0.38905 0.76442 0.3484 0.0
C884 C 0.38977 0.73275 0.33547 0.0
C885 C 0.3992 0.712 0.29853 0.0
H886 H 0.36589 0.7254 0.25778 0.0
C887 C 0.40892 0.68545 0.22244 0.0
C888 C 0.39314 0.68377 0.21081 0.0
C889 C 0.4071 0.69186 0.2409 0.0
C890 C 0.37508 0.72117 0.26908 0.0
H891 H 0.38648 0.78642 0.32747 0.0
H892 H 0.3857 0.76551 0.30084 0.0
H893 H 0.36487 0.74309 0.28674 0.0
H894 H 0.3629 0.68615 0.21 0.0
H895 H 0.35967 0.6968 0.24225 0.0
H896 H 0.40941 0.69002 0.28074 0.0
C897 C 0.38678 0.75944 0.31472 0.0
C898 C 0.37467 0.73153 0.28566 0.0
C899 C 0.38737 0.77148 0.33007 0.0
C900 C 0.37538 0.68743 0.21849 0.0
C901 C 0.37354 0.6937 0.23698 0.0
C902 C 0.39961 0.70157 0.28188 0.0
C903 C 0.38783 0.73991 0.31716 0.0
C904 C 0.38701 0.72739 0.30045 0.0
C905 C 0.38943 0.69664 0.24824 0.0
C906 C 0.38778 0.70624 0.26678 0.0
H907 H 0.39164 0.73899 0.36489 0.0
H908 H 0.39057 0.71777 0.33785 0.0
H909 H 0.40893 0.70843 0.30962 0.0
H910 H 0.42283 0.68281 0.21701 0.0
H911 H 0.41968 0.69404 0.24902 0.0
C912 C 0.6908 0.27807 0.88301 0.0
C913 C 0.69063 0.29766 0.88498 0.0
C914 C 0.70779 0.2682 0.88263 0.0
C915 C 0.75841 0.27297 0.89441 0.0
H916 H 0.7642 0.23137 0.86005 0.0
C917 C 0.83021 0.23788 0.87829 0.0
C918 C 0.83029 0.21817 0.87795 0.0
C919 C 0.81326 0.24779 0.8794 0.0
C920 C 0.76276 0.24288 0.86982 0.0
H921 H 0.70822 0.32221 0.88813 0.0
H922 H 0.73759 0.30517 0.88708 0.0
H923 H 0.73431 0.24781 0.86187 0.0
H924 H 0.8126 0.19347 0.87854 0.0
H925 H 0.7833 0.21069 0.88038 0.0
H926 H 0.78701 0.26814 0.90213 0.0
C927 C 0.72469 0.2973 0.88621 0.0
C928 C 0.74559 0.25226 0.87093 0.0
C929 C 0.70778 0.30711 0.88669 0.0
C930 C 0.8131 0.20864 0.87874 0.0
C931 C 0.79625 0.21851 0.87968 0.0
C932 C 0.77563 0.26367 0.89319 0.0
C933 C 0.72497 0.27771 0.88415 0.0
C934 C 0.74316 0.26743 0.88326 0.0
C935 C 0.79609 0.23818 0.87998 0.0
C936 C 0.77799 0.24848 0.88092 0.0
H937 H 0.67783 0.27037 0.88172 0.0
H938 H 0.70744 0.25309 0.88128 0.0
H939 H 0.75701 0.28438 0.90429 0.0
H940 H 0.8432 0.24562 0.87771 0.0
H941 H 0.81357 0.26297 0.8795 0.0
C942 C 0.83244 0.26005 0.6575 0.0
C943 C 0.84203 0.27037 0.6437 0.0
C944 C 0.81301 0.2579 0.65657 0.0
C945 C 0.77026 0.27651 0.63314 0.0
H946 H 0.75076 0.22661 0.64226 0.0
C947 C 0.69871 0.2541 0.60555 0.0
C948 C 0.68646 0.24522 0.61816 0.0
C949 C 0.71747 0.25674 0.61013 0.0
C950 C 0.75598 0.24065 0.63988 0.0
H951 H 0.83857 0.28715 0.61855 0.0
H952 H 0.80486 0.28323 0.61681 0.0
H953 H 0.78376 0.23314 0.64824 0.0
H954 H 0.68459 0.23132 0.64515 0.0
H955 H 0.71768 0.23572 0.65306 0.0
H956 H 0.74261 0.28385 0.62424 0.0
C957 C 0.81226 0.27695 0.62849 0.0
C958 C 0.77487 0.24445 0.64336 0.0
C959 C 0.83165 0.27915 0.62944 0.0
C960 C 0.69366 0.23821 0.63513 0.0
C961 C 0.71257 0.24074 0.63967 0.0
C962 C 0.75147 0.27268 0.62953 0.0
C963 C 0.80272 0.266 0.64184 0.0
C964 C 0.78231 0.26237 0.63975 0.0
C965 C 0.72453 0.25046 0.62739 0.0
C966 C 0.74419 0.25464 0.63256 0.0
H967 H 0.84 0.25316 0.66873 0.0
H968 H 0.80609 0.24966 0.66727 0.0
H969 H 0.77538 0.29056 0.63059 0.0
H970 H 0.69371 0.25956 0.59229 0.0
H971 H 0.72643 0.26393 0.60022 0.0
C972 C 0.76499 0.34274 0.15175 0.0
C973 C 0.75397 0.35135 0.13788 0.0
C974 C 0.77175 0.32449 0.14933 0.0
C975 C 0.76092 0.28068 0.12427 0.0
H976 H 0.80856 0.26499 0.14499 0.0
C977 C 0.79063 0.20338 0.12379 0.0
C978 C 0.79919 0.19791 0.14068 0.0
C979 C 0.7844 0.22198 0.12133 0.0
C980 C 0.79517 0.26913 0.13919 0.0
H981 H 0.74222 0.34776 0.1101 0.0
H982 H 0.75424 0.31594 0.1058 0.0
H983 H 0.80075 0.29819 0.14372 0.0
H984 H 0.80657 0.20709 0.16864 0.0
H985 H 0.7956 0.23904 0.16447 0.0
H986 H 0.75538 0.25139 0.11998 0.0
C987 C 0.75741 0.32325 0.11869 0.0
C988 C 0.79068 0.28818 0.13847 0.0
C989 C 0.7507 0.34159 0.12108 0.0
C990 C 0.80026 0.21093 0.15537 0.0
C991 C 0.7941 0.22931 0.15294 0.0
C992 C 0.76546 0.26153 0.12493 0.0
C993 C 0.76768 0.31432 0.13297 0.0
C994 C 0.77332 0.29421 0.13146 0.0
C995 C 0.78672 0.23527 0.13571 0.0
C996 C 0.78244 0.25553 0.13289 0.0
H997 H 0.76775 0.34978 0.16489 0.0
H998 H 0.77945 0.31805 0.16072 0.0
H999 H 0.74736 0.28481 0.11889 0.0
H1000 H 0.78974 0.19367 0.11219 0.0
H1001 H 0.77866 0.22616 0.10792 0.0
C1002 C 0.76925 0.33518 0.39911 0.0
C1003 C 0.78532 0.34378 0.40642 0.0
C1004 C 0.7639 0.31734 0.40519 0.0
C1005 C 0.78604 0.27458 0.42279 0.0
H1006 H 0.73512 0.25608 0.42241 0.0
C1007 C 0.74043 0.20079 0.42127 0.0
C1008 C 0.75001 0.19189 0.4065 0.0
C1009 C 0.7458 0.21866 0.42727 0.0
C1010 C 0.74944 0.26097 0.42295 0.0
H1011 H 0.80744 0.341 0.42707 0.0
H1012 H 0.79798 0.30991 0.43776 0.0
H1013 H 0.74078 0.28975 0.4227 0.0
H1014 H 0.77378 0.19403 0.38775 0.0
H1015 H 0.78315 0.22501 0.3982 0.0
H1016 H 0.79471 0.2458 0.42248 0.0
C1017 C 0.7897 0.31687 0.4271 0.0
C1018 C 0.75267 0.28031 0.42291 0.0
C1019 C 0.795 0.33479 0.42109 0.0
C1020 C 0.76605 0.20051 0.39909 0.0
C1021 C 0.77147 0.2183 0.40515 0.0
C1022 C 0.78282 0.25524 0.42278 0.0
C1023 C 0.77451 0.30764 0.4187 0.0
C1024 C 0.77101 0.28735 0.42223 0.0
C1025 C 0.76095 0.22793 0.41876 0.0
C1026 C 0.76448 0.2482 0.42227 0.0
H1027 H 0.76144 0.34172 0.38785 0.0
H1028 H 0.75219 0.31066 0.39833 0.0
H1029 H 0.80036 0.27947 0.42213 0.0
H1030 H 0.72803 0.19456 0.42734 0.0
H1031 H 0.73759 0.22556 0.43801 0.0
C1032 C 0.14292 0.57941 0.65521 0.0
C1033 C 0.14895 0.5948 0.66584 0.0
C1034 C 0.13604 0.5633 0.66398 0.0
C1035 C 0.13988 0.53708 0.70811 0.0
H1036 H 0.10042 0.50711 0.68624 0.0
C1037 C 0.12025 0.46328 0.73687 0.0
C1038 C 0.11827 0.44943 0.72303 0.0
C1039 C 0.1213 0.4823 0.73186 0.0
C1040 C 0.1115 0.51529 0.69251 0.0
H1041 H 0.15181 0.60558 0.69408 0.0
H1042 H 0.13972 0.57739 0.70942 0.0
H1043 H 0.10671 0.53835 0.67385 0.0
H1044 H 0.11535 0.44479 0.69313 0.0
H1045 H 0.11723 0.47762 0.6845 0.0
H1046 H 0.14503 0.51376 0.72641 0.0
C1047 C 0.14046 0.57778 0.69427 0.0
C1048 C 0.1151 0.5332 0.68541 0.0
C1049 C 0.14723 0.59399 0.68547 0.0
C1050 C 0.11689 0.45504 0.70419 0.0
C1051 C 0.11782 0.47395 0.69922 0.0
C1052 C 0.13629 0.51912 0.71522 0.0
C1053 C 0.13508 0.56212 0.68363 0.0
C1054 C 0.12964 0.54414 0.6928 0.0
C1055 C 0.1202 0.48783 0.71294 0.0
C1056 C 0.12237 0.50782 0.70718 0.0
H1057 H 0.14406 0.57955 0.64008 0.0
H1058 H 0.13223 0.55146 0.65534 0.0
H1059 H 0.1513 0.54505 0.71403 0.0
H1060 H 0.12136 0.45941 0.75151 0.0
H1061 H 0.12301 0.49266 0.74279 0.0
C1062 C 0.45402 0.70238 0.13878 0.0
C1063 C 0.44465 0.70944 0.15461 0.0
C1064 C 0.4736 0.7011 0.13843 0.0
C1065 C 0.51668 0.71677 0.16396 0.0
H1066 H 0.53888 0.67314 0.14042 0.0
C1067 C 0.59628 0.70436 0.16793 0.0
C1068 C 0.60232 0.68585 0.17104 0.0
C1069 C 0.57778 0.70815 0.16261 0.0
C1070 C 0.53296 0.68536 0.1472 0.0
H1071 H 0.44865 0.72094 0.18241 0.0
H1072 H 0.48249 0.71825 0.18207 0.0
H1073 H 0.50531 0.67822 0.13833 0.0
H1074 H 0.5938 0.65673 0.17025 0.0
H1075 H 0.56155 0.66326 0.16164 0.0
H1076 H 0.54406 0.7233 0.17386 0.0
C1077 C 0.47489 0.71411 0.16965 0.0
C1078 C 0.51364 0.68845 0.14574 0.0
C1079 C 0.45536 0.71558 0.1699 0.0
C1080 C 0.58967 0.67115 0.16785 0.0
C1081 C 0.57109 0.67494 0.16283 0.0
C1082 C 0.53593 0.71355 0.16562 0.0
C1083 C 0.48433 0.70667 0.15399 0.0
C1084 C 0.50515 0.70408 0.15432 0.0
C1085 C 0.56472 0.69354 0.16059 0.0
C1086 C 0.54438 0.69768 0.15746 0.0
H1087 H 0.4462 0.69757 0.12672 0.0
H1088 H 0.48029 0.69563 0.12597 0.0
H1089 H 0.51084 0.72917 0.17046 0.0
H1090 H 0.60571 0.71601 0.17012 0.0
H1091 H 0.57366 0.72261 0.16052 0.0
C1092 C 0.31759 0.9397 0.68316 0.0
C1093 C 0.32248 0.92876 0.66752 0.0
C1094 C 0.32347 0.95832 0.68455 0.0
C1095 C 0.36054 0.98985 0.66756 0.0
H1096 H 0.32898 0.02908 0.68807 0.0
C1097 C 0.38179 0.06786 0.66635 0.0
C1098 C 0.37675 0.07926 0.68159 0.0
C1099 C 0.37558 0.04935 0.66523 0.0
C1100 C 0.33808 0.01823 0.68257 0.0
H1101 H 0.3368 0.9291 0.64072 0.0
H1102 H 0.34692 0.96168 0.64308 0.0
H1103 H 0.31641 0.99759 0.68403 0.0
H1104 H 0.36168 0.07989 0.70797 0.0
H1105 H 0.35105 0.04741 0.70618 0.0
H1106 H 0.38223 1.01041 0.66618 0.0
C1107 C 0.33875 0.95573 0.6544 0.0
C1108 C 0.33084 1.00019 0.68018 0.0
C1109 C 0.3328 0.93711 0.65297 0.0
C1110 C 0.36582 0.0715 0.69603 0.0
C1111 C 0.35958 0.05293 0.69491 0.0
C1112 C 0.36779 1.00786 0.66999 0.0
C1113 C 0.33444 0.96646 0.67037 0.0
C1114 C 0.34196 0.98578 0.67259 0.0
C1115 C 0.36416 0.0417 0.67935 0.0
C1116 C 0.35665 0.02232 0.67747 0.0
H1117 H 0.30967 0.93372 0.69464 0.0
H1118 H 0.32001 0.96611 0.69709 0.0
H1119 H 0.36962 0.979 0.66203 0.0
H1120 H 0.39016 0.07337 0.65495 0.0
H1121 H 0.37923 0.04123 0.65296 0.0
C1122 C 0.0708 0.81358 0.13422 0.0
C1123 C 0.08194 0.82682 0.12477 0.0
C1124 C 0.05144 0.81642 0.13613 0.0
C1125 C 0.01711 0.85524 0.13662 0.0
H1126 H 0.97973 0.81605 0.13434 0.0
C1127 C 0.93944 0.87382 0.14339 0.0
C1128 C 0.92849 0.86247 0.15517 0.0
C1129 C 0.95716 0.86792 0.13751 0.0
C1130 C 0.99001 0.82714 0.13516 0.0
H1131 H 0.0812 0.85284 0.10898 0.0
H1132 H 0.04767 0.85759 0.11207 0.0
H1133 H 1.01264 0.80847 0.12827 0.0
H1134 H 0.92724 0.83552 0.16921 0.0
H1135 H 0.95834 0.82529 0.15917 0.0
H1136 H 0.99482 0.87386 0.14382 0.0
C1137 C 0.05387 0.84524 0.11841 0.0
C1138 C 1.00888 0.82278 0.13168 0.0
C1139 C 0.07314 0.84244 0.11653 0.0
C1140 C 0.93527 0.84457 0.16006 0.0
C1141 C 0.95313 0.83871 0.15429 0.0
C1142 C 0.99837 0.85957 0.14012 0.0
C1143 C 0.04281 0.83255 0.12863 0.0
C1144 C 0.02266 0.83683 0.13227 0.0
C1145 C 0.96455 0.85057 0.14342 0.0
C1146 C 0.9845 0.84564 0.13934 0.0
H1147 H 0.07712 0.8014 0.14075 0.0
H1148 H 0.04337 0.80638 0.14415 0.0
H1149 H 0.02735 0.86635 0.13768 0.0
H1150 H 0.93458 0.88761 0.13921 0.0
H1151 H 0.9653 0.87723 0.12873 0.0
C1152 C 0.20805 0.94817 0.85029 0.0
C1153 C 0.21581 0.94549 0.86819 0.0
C1154 C 0.20088 0.9657 0.84495 0.0
C1155 C 0.18498 1.01184 0.86393 0.0
H1156 H 0.19419 0.02867 0.81309 0.0
C1157 C 0.1702 0.08826 0.83839 0.0
C1158 C 0.16208 0.09015 0.82053 0.0
C1159 C 0.17637 0.07067 0.84482 0.0
C1160 C 0.19133 0.02413 0.8273 0.0
H1161 H 0.22181 0.95919 0.89461 0.0
H1162 H 0.20963 0.98969 0.88523 0.0
H1163 H 0.20526 0.99792 0.82299 0.0
H1164 H 0.15385 0.07487 0.79561 0.0
H1165 H 0.16451 0.04448 0.80678 0.0
H1166 H 0.17121 0.03828 0.86821 0.0
C1167 C 0.2088 0.97822 0.87536 0.0
C1168 C 0.19764 1.00643 0.83298 0.0
C1169 C 0.2159 0.96069 0.88072 0.0
C1170 C 0.16011 0.07402 0.8094 0.0
C1171 C 0.16634 0.05655 0.81576 0.0
C1172 C 0.17874 0.02963 0.85826 0.0
C1173 C 0.20134 0.98104 0.85734 0.0
C1174 C 0.19449 0.99996 0.85135 0.0
C1175 C 0.17468 0.05463 0.83348 0.0
C1176 C 0.18174 0.03595 0.83983 0.0
H1177 H 0.20766 0.93678 0.8403 0.0
H1178 H 0.19494 0.96719 0.83108 0.0
H1179 H 0.18207 1.0073 0.87812 0.0
H1180 H 0.17193 0.10038 0.84733 0.0
H1181 H 0.18284 0.06971 0.8585 0.0
C1182 C 0.93012 0.70272 0.36171 0.0
C1183 C 0.92506 0.68368 0.36162 0.0
C1184 C 0.94699 0.70849 0.36978 0.0
C1185 C 0.98749 0.69188 0.39908 0.0
H1186 H 0.01475 0.7291 0.37038 0.0
C1187 C 0.06787 0.69773 0.39869 0.0
C1188 C 0.07612 0.71559 0.39896 0.0
C1189 C 0.04847 0.69574 0.39754 0.0
C1190 C 1.00723 0.71892 0.37875 0.0
H1191 H 0.93344 0.65591 0.37079 0.0
H1192 H 0.96294 0.6658 0.38438 0.0
H1193 H 0.98247 0.72205 0.36228 0.0
H1194 H 0.07043 0.74543 0.39859 0.0
H1195 H 0.0363 0.74195 0.39614 0.0
H1196 H 1.01275 0.68813 0.41487 0.0
C1197 C 0.9538 0.67643 0.37856 0.0
C1198 C 0.98863 0.71487 0.37415 0.0
C1199 C 0.93681 0.6707 0.37069 0.0
C1200 C 0.06446 0.73149 0.3985 0.0
C1201 C 0.04497 0.72949 0.39699 0.0
C1202 C 1.00617 0.69578 0.40351 0.0
C1203 C 0.95939 0.69535 0.37779 0.0
C1204 C 0.97856 0.70104 0.38403 0.0
C1205 C 0.03679 0.71157 0.39633 0.0
C1206 C 0.01635 0.70911 0.39319 0.0
H1207 H 0.92133 0.71312 0.35495 0.0
H1208 H 0.9505 0.72324 0.36931 0.0
H1209 H 0.98017 0.68146 0.40732 0.0
H1210 H 0.07646 0.68519 0.39908 0.0
H1211 H 0.04266 0.68175 0.39688 0.0
C1212 C 0.36241 0.58566 0.86779 0.0
C1213 C 0.3531 0.59674 0.85441 0.0
C1214 C 0.37025 0.56837 0.86281 0.0
C1215 C 0.36518 0.53139 0.82671 0.0
H1216 H 0.40666 0.50892 0.85365 0.0
C1217 C 0.38797 0.45414 0.81503 0.0
C1218 C 0.38859 0.44372 0.83176 0.0
C1219 C 0.38712 0.4738 0.81556 0.0
C1220 C 0.3951 0.51504 0.84595 0.0
H1221 H 0.34589 0.59892 0.82499 0.0
H1222 H 0.3601 0.56912 0.81615 0.0
H1223 H 0.39926 0.542 0.85832 0.0
H1224 H 0.38983 0.44568 0.86203 0.0
H1225 H 0.38874 0.47979 0.86292 0.0
H1226 H 0.36099 0.50431 0.8145 0.0
C1227 C 0.36084 0.57346 0.83066 0.0
C1228 C 0.39077 0.53399 0.8487 0.0
C1229 C 0.35282 0.59066 0.83569 0.0
C1230 C 0.3893 0.45332 0.84891 0.0
C1231 C 0.38879 0.47288 0.84942 0.0
C1232 C 0.36966 0.5125 0.82381 0.0
C1233 C 0.36918 0.56179 0.84425 0.0
C1234 C 0.37541 0.54233 0.8395 0.0
C1235 C 0.38727 0.48335 0.83279 0.0
C1236 C 0.38437 0.50399 0.83376 0.0
H1237 H 0.36284 0.58986 0.88236 0.0
H1238 H 0.37632 0.55979 0.87377 0.0
H1239 H 0.35309 0.53712 0.81956 0.0
H1240 H 0.38732 0.44712 0.80162 0.0
H1241 H 0.38603 0.48152 0.80252 0.0
C1242 C 0.46347 0.8028 0.38324 0.0
C1243 C 0.44745 0.81362 0.38707 0.0
C1244 C 0.48087 0.81128 0.38059 0.0
C1245 C 0.50335 0.85668 0.36923 0.0
H1246 H 0.5477 0.83196 0.38871 0.0
C1247 C 0.57587 0.89137 0.36447 0.0
C1248 C 0.59066 0.88001 0.35803 0.0
C1249 C 0.55882 0.88347 0.36989 0.0
C1250 C 0.53548 0.83898 0.38307 0.0
H1251 H 0.43718 0.84196 0.39098 0.0
H1252 H 0.46767 0.85684 0.38656 0.0
H1253 H 0.51698 0.8182 0.39418 0.0
H1254 H 0.59932 0.85128 0.35311 0.0
H1255 H 0.56954 0.83746 0.36262 0.0
H1256 H 0.52187 0.87744 0.35809 0.0
C1257 C 0.46671 0.84174 0.38538 0.0
C1258 C 0.51783 0.83108 0.38617 0.0
C1259 C 0.44922 0.83322 0.38797 0.0
C1260 C 0.58828 0.86044 0.35807 0.0
C1261 C 0.57118 0.85252 0.36353 0.0
C1262 C 0.52099 0.86462 0.3662 0.0
C1263 C 0.4828 0.83085 0.38178 0.0
C1264 C 0.50153 0.83973 0.37915 0.0
C1265 C 0.55609 0.86399 0.36904 0.0
C1266 C 0.53729 0.85582 0.37298 0.0
H1267 H 0.46264 0.78767 0.38231 0.0
H1268 H 0.49281 0.80245 0.37744 0.0
H1269 H 0.49119 0.86361 0.36336 0.0
H1270 H 0.57723 0.90648 0.36476 0.0
H1271 H 0.54764 0.89268 0.37443 0.0
C1272 C 0.61141 0.22039 0.55178 0.0
C1273 C 0.6192 0.23589 0.56101 0.0
C1274 C 0.61413 0.21773 0.5326 0.0
C1275 C 0.64761 0.22876 0.4951 0.0
H1276 H 0.61065 0.20381 0.46431 0.0
C1277 C 0.66606 0.20036 0.42137 0.0
C1278 C 0.66114 0.18145 0.41889 0.0
C1279 C 0.65855 0.21075 0.43628 0.0
C1280 C 0.62113 0.21081 0.47269 0.0
H1281 H 0.63542 0.26121 0.55711 0.0
H1282 H 0.64017 0.25662 0.52337 0.0
H1283 H 0.60178 0.21573 0.49507 0.0
H1284 H 0.64359 0.15902 0.42936 0.0
H1285 H 0.63035 0.1771 0.45504 0.0
H1286 H 0.66709 0.22333 0.4729 0.0
C1287 C 0.63203 0.24642 0.5311 0.0
C1288 C 0.61606 0.21763 0.49036 0.0
C1289 C 0.62918 0.24915 0.5504 0.0
C1290 C 0.64766 0.17356 0.43086 0.0
C1291 C 0.64001 0.18397 0.44558 0.0
C1292 C 0.65267 0.222 0.47738 0.0
C1293 C 0.6248 0.23048 0.52203 0.0
C1294 C 0.62937 0.22616 0.50206 0.0
C1295 C 0.64577 0.20252 0.44884 0.0
C1296 C 0.63963 0.21242 0.4662 0.0
H1297 H 0.60361 0.2099 0.55949 0.0
H1298 H 0.60856 0.20517 0.52625 0.0
H1299 H 0.6583 0.23508 0.50375 0.0
H1300 H 0.6765 0.20683 0.41247 0.0
H1301 H 0.66314 0.22506 0.43829 0.0
C1302 C 0.86184 0.18233 0.07992 0.0
C1303 C 0.85793 0.16484 0.08808 0.0
C1304 C 0.86662 0.18371 0.06096 0.0
C1305 C 0.88074 0.15618 0.01862 0.0
H1306 H 0.85901 0.1989 0.99285 0.0
C1307 C 0.88065 0.16714 0.9368 0.0
C1308 C 0.88566 0.1853 0.93096 0.0
C1309 C 0.87795 0.16315 0.95594 0.0
C1310 C 0.86527 0.18693 0.99984 0.0
H1311 H 0.85682 0.13493 0.08282 0.0
H1312 H 0.86479 0.13735 0.04965 0.0
H1313 H 0.85377 0.19496 0.02624 0.0
H1314 H 0.8922 0.21333 0.9408 0.0
H1315 H 0.8874 0.20643 0.97368 0.0
H1316 H 0.89196 0.14813 0.99183 0.0
C1317 C 0.86441 0.15003 0.05795 0.0
C1318 C 0.86238 0.18472 0.01907 0.0
C1319 C 0.85981 0.14864 0.07701 0.0
C1320 C 0.88824 0.1992 0.94467 0.0
C1321 C 0.8854 0.19529 0.9636 0.0
C1322 C 0.88352 0.15834 0.99924 0.0
C1323 C 0.86739 0.16764 0.04954 0.0
C1324 C 0.87031 0.1695 0.02885 0.0
C1325 C 0.88 0.17732 0.96949 0.0
C1326 C 0.87604 0.17392 0.98972 0.0
H1327 H 0.8607 0.19508 0.08807 0.0
H1328 H 0.86936 0.19748 0.05518 0.0
H1329 H 0.88714 0.14432 0.02564 0.0
H1330 H 0.87859 0.15611 0.92662 0.0
H1331 H 0.87377 0.14916 0.96009 0.0
C1332 C 0.9032 0.28411 0.5526 0.0
C1333 C 0.89367 0.2943 0.56654 0.0
C1334 C 0.90282 0.29014 0.53381 0.0
C1335 C 0.89382 0.33313 0.50561 0.0
H1336 H 0.88727 0.29925 0.46379 0.0
C1337 C 0.88784 0.36305 0.43145 0.0
C1338 C 0.87347 0.35569 0.4203 0.0
C1339 C 0.89389 0.35355 0.44753 0.0
C1340 C 0.88908 0.30892 0.47531 0.0
H1341 H 0.87571 0.31841 0.57143 0.0
H1342 H 0.87484 0.32858 0.5391 0.0
H1343 H 0.89007 0.28663 0.4956 0.0
H1344 H 0.85493 0.33197 0.41671 0.0
H1345 H 0.86506 0.31566 0.44498 0.0
H1346 H 0.89193 0.35545 0.4858 0.0
C1347 C 0.88303 0.31625 0.54257 0.0
C1348 C 0.89088 0.30165 0.49354 0.0
C1349 C 0.88344 0.31031 0.56119 0.0
C1350 C 0.86614 0.33799 0.42491 0.0
C1351 C 0.87199 0.3286 0.44118 0.0
C1352 C 0.89196 0.34037 0.48752 0.0
C1353 C 0.89293 0.30648 0.52864 0.0
C1354 C 0.89287 0.31372 0.50897 0.0
C1355 C 0.88547 0.3366 0.4531 0.0
C1356 C 0.88929 0.32843 0.47208 0.0
H1357 H 0.91119 0.27171 0.55624 0.0
H1358 H 0.91061 0.28228 0.52343 0.0
H1359 H 0.89568 0.34286 0.51708 0.0
H1360 H 0.89389 0.37657 0.42819 0.0
H1361 H 0.9047 0.35991 0.45598 0.0
C1362 C 0.64896 0.35711 0.93908 0.0
C1363 C 0.63739 0.34135 0.93708 0.0
C1364 C 0.65316 0.3641 0.95698 0.0
C1365 C 0.65488 0.34847 1.00652 0.0
H1366 H 0.65941 0.40141 0.01756 0.0
C1367 C 0.67044 0.3745 0.08161 0.0
C1368 C 0.68395 0.38869 0.08309 0.0
C1369 C 0.66296 0.36975 0.06409 0.0
C1370 C 0.65832 0.38655 0.01468 0.0
H1371 H 0.62038 0.32122 0.95225 0.0
H1372 H 0.6274 0.3335 0.9831 0.0
H1373 H 0.65015 0.39149 0.98617 0.0
H1374 H 0.69968 0.40944 0.06736 0.0
H1375 H 0.68686 0.40108 0.03706 0.0
H1376 H 0.66327 0.34346 0.03486 0.0
C1377 C 0.63366 0.34022 0.97101 0.0
C1378 C 0.65304 0.38088 0.99666 0.0
C1379 C 0.62955 0.33324 0.95325 0.0
C1380 C 0.68933 0.3984 0.06678 0.0
C1381 C 0.68186 0.39369 0.04934 0.0
C1382 C 0.66016 0.35412 0.02449 0.0
C1383 C 0.64583 0.35548 0.97318 0.0
C1384 C 0.65129 0.36175 0.99234 0.0
C1385 C 0.66878 0.37913 0.04769 0.0
C1386 C 0.66204 0.37324 0.02882 0.0
H1387 H 0.65525 0.36365 0.92691 0.0
H1388 H 0.66265 0.37584 0.95814 0.0
H1389 H 0.65403 0.33359 1.00364 0.0
H1390 H 0.66596 0.36678 0.09389 0.0
H1391 H 0.65272 0.35863 0.06337 0.0
C1392 C 0.88984 0.57721 0.33319 0.0
C1393 C 0.88058 0.59054 0.34437 0.0
C1394 C 0.88748 0.55795 0.33653 0.0
C1395 C 0.87132 0.52409 0.37306 0.0
H1396 H 0.86537 0.49034 0.33105 0.0
C1397 C 0.84485 0.44757 0.38183 0.0
C1398 C 0.85322 0.43374 0.37056 0.0
C1399 C 0.84894 0.46661 0.37902 0.0
C1400 C 0.86721 0.49951 0.34297 0.0
H1401 H 0.86162 0.59393 0.36791 0.0
H1402 H 0.85738 0.56067 0.37353 0.0
H1403 H 0.87161 0.52343 0.32532 0.0
H1404 H 0.87275 0.42917 0.3477 0.0
H1405 H 0.87994 0.46213 0.34296 0.0
H1406 H 0.86675 0.50018 0.39071 0.0
C1407 C 0.8667 0.56497 0.36235 0.0
C1408 C 0.87084 0.51852 0.33966 0.0
C1409 C 0.86905 0.58413 0.35902 0.0
C1410 C 0.86595 0.4394 0.35661 0.0
C1411 C 0.87 0.45837 0.35379 0.0
C1412 C 0.86766 0.50508 0.37636 0.0
C1413 C 0.87583 0.55157 0.35117 0.0
C1414 C 0.87284 0.53112 0.35466 0.0
C1415 C 0.86146 0.47227 0.36483 0.0
C1416 C 0.86549 0.49253 0.36137 0.0
H1417 H 0.89884 0.58165 0.3218 0.0
H1418 H 0.89489 0.54804 0.32774 0.0
H1419 H 0.87308 0.53327 0.38498 0.0
H1420 H 0.83496 0.44373 0.39267 0.0
H1421 H 0.84197 0.47693 0.38769 0.0
C1422 C 0.43284 0.34803 0.85201 0.0
C1423 C 0.42827 0.36563 0.85958 0.0
C1424 C 0.44923 0.33874 0.85743 0.0
C1425 C 0.49554 0.34957 0.87872 0.0
H1426 H 0.50317 0.29607 0.87273 0.0
C1427 C 0.56728 0.31547 0.89135 0.0
C1428 C 0.57442 0.30674 0.87518 0.0
C1429 C 0.54825 0.31983 0.89275 0.0
C1430 C 0.50116 0.31101 0.87455 0.0
H1431 H 0.43642 0.38656 0.87986 0.0
H1432 H 0.46434 0.36988 0.89027 0.0
H1433 H 0.47161 0.30914 0.87035 0.0
H1434 H 0.5669 0.29437 0.84852 0.0
H1435 H 0.53351 0.30159 0.85125 0.0
H1436 H 0.52509 0.35129 0.88316 0.0
C1437 C 0.45585 0.36359 0.87944 0.0
C1438 C 0.48311 0.31859 0.87305 0.0
C1439 C 0.4397 0.3731 0.87366 0.0
C1440 C 0.56186 0.30116 0.86112 0.0
C1441 C 0.54274 0.30523 0.86269 0.0
C1442 C 0.51345 0.34195 0.88062 0.0
C1443 C 0.46128 0.34662 0.87088 0.0
C1444 C 0.48007 0.33807 0.87469 0.0
C1445 C 0.5359 0.31522 0.87821 0.0
C1446 C 0.51651 0.32267 0.8782 0.0
H1447 H 0.42439 0.34197 0.84101 0.0
H1448 H 0.45287 0.32589 0.85027 0.0
H1449 H 0.49406 0.36464 0.87965 0.0
H1450 H 0.57654 0.31998 0.90246 0.0
H1451 H 0.54328 0.32743 0.90491 0.0
C1452 C 0.66254 0.10141 0.35864 0.0
C1453 C 0.67774 0.10501 0.37058 0.0
C1454 C 0.6575 0.08305 0.35417 0.0
C1455 C 0.66252 0.03343 0.3688 0.0
H1456 H 0.64945 0.02372 0.31701 0.0
C1457 C 0.65212 0.95821 0.34003 0.0
C1458 C 0.6377 0.95531 0.32695 0.0
C1459 C 0.65683 0.97632 0.34582 0.0
C1460 C 0.65281 0.02619 0.33158 0.0
H1461 H 0.6993 0.09199 0.38758 0.0
H1462 H 0.69052 0.05978 0.37969 0.0
H1463 H 0.65803 0.05527 0.32652 0.0
H1464 H 0.61682 0.9693 0.30987 0.0
H1465 H 0.62489 1.00087 0.32011 0.0
H1466 H 0.65727 1.00428 0.37383 0.0
C1467 C 0.68242 0.07126 0.37388 0.0
C1468 C 0.65776 0.04432 0.33705 0.0
C1469 C 0.68749 0.08971 0.37837 0.0
C1470 C 0.62804 0.971 0.31989 0.0
C1471 C 0.63276 0.98913 0.3257 0.0
C1472 C 0.65753 0.01525 0.36333 0.0
C1473 C 0.66753 0.06772 0.36148 0.0
C1474 C 0.66261 0.04822 0.35575 0.0
C1475 C 0.64726 0.99205 0.33871 0.0
C1476 C 0.65255 1.0114 0.34464 0.0
H1477 H 0.65459 0.11281 0.35249 0.0
H1478 H 0.64572 0.08089 0.34491 0.0
H1479 H 0.66596 0.03595 0.38335 0.0
H1480 H 0.6599 0.94648 0.34575 0.0
H1481 H 0.66823 0.978 0.35565 0.0
C1482 C 0.08079 0.14879 0.83823 0.0
C1483 C 0.09025 0.1519 0.82122 0.0
C1484 C 0.06295 0.15628 0.84123 0.0
C1485 C 0.02114 0.17479 0.81744 0.0
H1486 H 1.01178 0.19898 0.86516 0.0
C1487 C 0.9503 0.21044 0.83279 0.0
C1488 C 0.94246 0.20695 0.85053 0.0
C1489 C 0.96902 0.20598 0.8291 0.0
C1490 C 0.01407 0.19214 0.85182 0.0
H1491 H 0.08803 0.16483 0.79378 0.0
H1492 H 0.05671 0.17773 0.79897 0.0
H1493 H 0.04255 0.18568 0.85862 0.0
H1494 H 0.9485 0.19689 0.87859 0.0
H1495 H 0.98094 0.18886 0.87212 0.0
H1496 H 0.99258 0.18079 0.81077 0.0
C1497 C 0.06319 0.16952 0.80999 0.0
C1498 C 0.03173 0.18452 0.84807 0.0
C1499 C 0.08114 0.16214 0.80702 0.0
C1500 C 0.95407 0.19983 0.86478 0.0
C1501 C 0.97275 0.19525 0.86106 0.0
C1502 C 1.00342 0.1823 0.82123 0.0
C1503 C 0.05404 0.16696 0.82726 0.0
C1504 C 0.03542 0.1756 0.83091 0.0
C1505 C 0.98035 0.19781 0.84303 0.0
C1506 C 0.99959 0.19094 0.83855 0.0
H1507 H 0.08734 0.14096 0.84948 0.0
H1508 H 0.05615 0.15378 0.85457 0.0
H1509 H 0.0235 0.16787 0.80415 0.0
H1510 H 0.9418 0.21602 0.82151 0.0
H1511 H 0.97449 0.20856 0.81518 0.0
C1512 C 0.82151 0.07313 0.14525 0.0
C1513 C 0.83658 0.08306 0.13738 0.0
C1514 C 0.82368 0.05425 0.1506 0.0
C1515 C 0.85619 1.01309 0.14529 0.0
H1516 H 0.8336 0.99651 0.19178 0.0
C1517 C 0.8677 0.93765 0.17256 0.0
C1518 C 0.86876 0.93466 0.192 0.0
C1519 C 0.86233 0.95509 0.16533 0.0
C1520 C 0.84021 1.00094 0.17886 0.0
H1521 H 0.86553 0.08065 0.12846 0.0
H1522 H 0.86938 0.04842 0.13805 0.0
H1523 H 0.82665 0.02775 0.17979 0.0
H1524 H 0.86517 0.94781 0.21909 0.0
H1525 H 0.85666 0.97851 0.20654 0.0
H1526 H 0.87062 0.98688 0.14482 0.0
C1527 C 0.85575 0.05483 0.13985 0.0
C1528 C 0.83593 0.01881 0.17179 0.0
C1529 C 0.85357 0.07351 0.13444 0.0
C1530 C 0.86448 0.94963 0.20404 0.0
C1531 C 0.85939 0.96722 0.1968 0.0
C1532 C 0.86066 0.99538 0.15247 0.0
C1533 C 0.84095 0.04492 0.14821 0.0
C1534 C 0.84406 0.02526 0.155 0.0
C1535 C 0.85816 0.97022 0.1773 0.0
C1536 C 0.85287 0.98903 0.16945 0.0
H1537 H 0.80825 0.08007 0.14777 0.0
H1538 H 0.81186 0.04705 0.15676 0.0
H1539 H 0.86248 0.0173 0.13214 0.0
H1540 H 0.87063 0.92635 0.16286 0.0
H1541 H 0.86118 0.95657 0.15028 0.0
C1542 C 0.05102 0.39034 0.71434 0.0
C1543 C 0.06777 0.38018 0.71645 0.0
C1544 C 0.03533 0.38208 0.70617 0.0
C1545 C 0.01973 0.34194 0.67715 0.0
H1546 H 0.97178 0.35236 0.70046 0.0
C1547 C 0.95027 0.31517 0.64568 0.0
C1548 C 0.93685 0.30813 0.65827 0.0
C1549 C 0.96606 0.32465 0.65224 0.0
C1550 C 0.98506 0.34919 0.69384 0.0
H1551 H 0.08131 0.35347 0.71115 0.0
H1552 H 0.05381 0.33893 0.69707 0.0
H1553 H 0.99992 0.36703 0.71265 0.0
H1554 H 0.92942 0.30583 0.68765 0.0
H1555 H 0.957 0.32218 0.69909 0.0
H1556 H 1.00489 0.32366 0.65869 0.0
C1557 C 0.05287 0.35339 0.70155 0.0
C1558 C 1.0012 0.3578 0.70068 0.0
C1559 C 0.06864 0.3617 0.70968 0.0
C1560 C 0.93942 0.31113 0.67755 0.0
C1561 C 0.95523 0.32059 0.68411 0.0
C1562 C 1.00357 0.3333 0.67031 0.0
C1563 C 0.03593 0.3634 0.69997 0.0
C1564 C 0.01876 0.3543 0.69244 0.0
C1565 C 0.96885 0.32731 0.67155 0.0
C1566 C 0.98602 0.33678 0.67859 0.0
H1567 H 0.0499 0.40466 0.71925 0.0
H1568 H 0.02267 0.39035 0.70482 0.0
H1569 H 0.03298 0.33903 0.67036 0.0
H1570 H 0.94872 0.31318 0.63073 0.0
H1571 H 0.97608 0.32991 0.64215 0.0
C1572 C 0.67379 0.45946 0.139 0.0
C1573 C 0.69004 0.45021 0.1452 0.0
C1574 C 0.66918 0.47728 0.14564 0.0
C1575 C 0.68767 0.5192 0.17016 0.0
H1576 H 0.63495 0.52824 0.17953 0.0
C1577 C 0.65968 0.58916 0.20169 0.0
C1578 C 0.6445 0.59713 0.19193 0.0
C1579 C 0.66544 0.5707 0.198 0.0
C1580 C 0.64972 0.52598 0.17693 0.0
H1581 H 0.71453 0.45275 0.16286 0.0
H1582 H 0.70637 0.48397 0.17468 0.0
H1583 H 0.64524 0.49756 0.16874 0.0
H1584 H 0.62304 0.59166 0.17123 0.0
H1585 H 0.63285 0.55956 0.16504 0.0
H1586 H 0.69202 0.54779 0.1784 0.0
C1587 C 0.69726 0.47744 0.1645 0.0
C1588 C 0.65564 0.50839 0.17065 0.0
C1589 C 0.70196 0.45954 0.15773 0.0
C1590 C 0.63476 0.58597 0.17902 0.0
C1591 C 0.64036 0.56751 0.17551 0.0
C1592 C 0.68173 0.53684 0.17657 0.0
C1593 C 0.68057 0.48637 0.15883 0.0
C1594 C 0.67465 0.50484 0.16679 0.0
C1595 C 0.65598 0.55974 0.18468 0.0
C1596 C 0.66262 0.54053 0.17969 0.0
H1597 H 0.66438 0.45278 0.12921 0.0
H1598 H 0.65651 0.48388 0.14051 0.0
H1599 H 0.7024 0.51705 0.16727 0.0
H1600 H 0.66756 0.59741 0.21164 0.0
H1601 H 0.67741 0.56507 0.20543 0.0
C1602 C 0.44068 0.15629 0.65961 0.0
C1603 C 0.43708 0.14879 0.67749 0.0
C1604 C 0.4586 0.1629 0.65502 0.0
C1605 C 0.50013 0.18264 0.67726 0.0
H1606 H 0.52672 0.16915 0.63189 0.0
C1607 C 0.57632 0.20587 0.66602 0.0
C1608 C 0.58163 0.21145 0.6479 0.0
C1609 C 0.5592 0.19688 0.66906 0.0
C1610 C 0.51942 0.17328 0.64452 0.0
H1611 H 0.44963 0.14197 0.70437 0.0
H1612 H 0.48052 0.15366 0.69644 0.0
H1613 H 0.49542 0.1566 0.63761 0.0
H1614 H 0.57328 0.21155 0.61868 0.0
H1615 H 0.54329 0.19647 0.62403 0.0
H1616 H 0.52362 0.1997 0.68407 0.0
C1617 C 0.46955 0.15448 0.686 0.0
C1618 C 0.5015 0.16603 0.64778 0.0
C1619 C 0.45183 0.1477 0.69048 0.0
C1620 C 0.56967 0.20737 0.63283 0.0
C1621 C 0.55245 0.19861 0.63589 0.0
C1622 C 0.51788 0.19006 0.67391 0.0
C1623 C 0.4731 0.16236 0.66833 0.0
C1624 C 0.49176 0.17052 0.66427 0.0
C1625 C 0.54682 0.1935 0.65409 0.0
C1626 C 0.52788 0.18539 0.65757 0.0
H1627 H 0.42963 0.1573 0.64928 0.0
H1628 H 0.46096 0.16896 0.6413 0.0
H1629 H 0.49283 0.18656 0.68998 0.0
H1630 H 0.58527 0.20866 0.67791 0.0
H1631 H 0.55563 0.19275 0.68321 0.0
C1632 C 0.38367 0.79489 0.47042 0.0
C1633 C 0.39865 0.80361 0.46107 0.0
C1634 C 0.37987 0.79901 0.48927 0.0
C1635 C 0.38658 0.83735 0.52296 0.0
H1636 H 0.37092 0.80132 0.56051 0.0
C1637 C 0.37428 0.86013 0.59926 0.0
C1638 C 0.35879 0.85255 0.60872 0.0
C1639 C 0.38014 0.85272 0.58208 0.0
C1640 C 0.37509 0.8116 0.55014 0.0
H1641 H 0.42209 0.82253 0.4646 0.0
H1642 H 0.41558 0.82951 0.49729 0.0
H1643 H 0.37925 0.79056 0.52905 0.0
H1644 H 0.33757 0.8309 0.60769 0.0
H1645 H 0.34753 0.81825 0.57758 0.0
H1646 H 0.38207 0.85845 0.54366 0.0
C1647 C 0.40652 0.81981 0.49001 0.0
C1648 C 0.3799 0.80541 0.53212 0.0
C1649 C 0.41031 0.8157 0.47127 0.0
C1650 C 0.34961 0.83706 0.60082 0.0
C1651 C 0.35538 0.82973 0.58355 0.0
C1652 C 0.38168 0.84354 0.54086 0.0
C1653 C 0.39096 0.81195 0.49911 0.0
C1654 C 0.3858 0.81822 0.51835 0.0
C1655 C 0.37056 0.83765 0.5738 0.0
C1656 C 0.37594 0.83078 0.55476 0.0
H1657 H 0.37437 0.78556 0.46296 0.0
H1658 H 0.36775 0.79274 0.49587 0.0
H1659 H 0.39066 0.84766 0.51258 0.0
H1660 H 0.38178 0.87196 0.605 0.0
H1661 H 0.39214 0.85894 0.57524 0.0
C1662 C 0.19608 0.8462 0.09426 0.0
C1663 C 0.17748 0.84823 0.10039 0.0
C1664 C 0.20241 0.85558 0.07824 0.0
C1665 C 0.18416 0.87579 0.03432 0.0
H1666 H 0.23494 0.89382 0.02819 0.0
C1667 C 0.20804 0.90953 0.96516 0.0
C1668 C 0.22544 0.90369 0.958 0.0
C1669 C 0.20286 0.90525 0.98355 0.0
C1670 C 0.22075 0.88874 0.02965 0.0
H1671 H 0.15123 0.86258 0.09501 0.0
H1672 H 0.16235 0.87918 0.06723 0.0
H1673 H 0.22454 0.88238 0.05877 0.0
H1674 H 0.25134 0.88936 0.96486 0.0
H1675 H 0.24222 0.88171 0.99698 0.0
H1676 H 0.1804 0.88181 1.00522 0.0
C1677 C 0.17196 0.87002 0.07461 0.0
C1678 C 0.21477 0.8822 0.04718 0.0
C1679 C 0.16561 0.86061 0.09063 0.0
C1680 C 0.23786 0.8941 0.96994 0.0
C1681 C 0.23264 0.88977 0.98839 0.0
C1682 C 0.19012 0.88234 0.01685 0.0
C1683 C 0.19031 0.86727 0.06795 0.0
C1684 C 0.19643 0.8755 0.04971 0.0
C1685 C 0.2149 0.89495 0.99529 0.0
C1686 C 0.20851 0.88879 1.01422 0.0
H1687 H 0.20563 0.8368 0.10142 0.0
H1688 H 0.21657 0.85298 0.07348 0.0
H1689 H 0.17008 0.87038 0.03559 0.0
H1690 H 0.19819 0.91708 0.95642 0.0
H1691 H 0.18927 0.9098 0.98851 0.0
C1692 C 0.18091 0.63863 0.58484 0.0
C1693 C 0.19453 0.65002 0.59326 0.0
C1694 C 0.17672 0.64057 0.56577 0.0
C1695 C 0.19322 0.66002 0.52052 0.0
H1696 H 0.14037 0.66707 0.51063 0.0
C1697 C 0.16542 0.69414 0.45202 0.0
C1698 C 0.14742 0.68943 0.44575 0.0
C1699 C 0.17247 0.68654 0.46872 0.0
C1700 C 0.15517 0.66473 0.51291 0.0
H1701 H 0.21522 0.67157 0.58794 0.0
H1702 H 0.20804 0.67477 0.55464 0.0
H1703 H 0.1506 0.65833 0.54185 0.0
H1704 H 0.12328 0.67199 0.45128 0.0
H1705 H 0.13584 0.65804 0.47978 0.0
H1706 H 0.19782 0.6664 0.49154 0.0
C1707 C 0.20055 0.6644 0.56281 0.0
C1708 C 0.16103 0.65977 0.53093 0.0
C1709 C 0.20461 0.66261 0.58193 0.0
C1710 C 0.13712 0.67606 0.45587 0.0
C1711 C 0.14428 0.66821 0.47235 0.0
C1712 C 0.18734 0.66476 0.50237 0.0
C1713 C 0.1862 0.65378 0.55463 0.0
C1714 C 0.18012 0.65757 0.53503 0.0
C1715 C 0.16179 0.67381 0.4794 0.0
C1716 C 0.16821 0.66741 0.49834 0.0
H1717 H 0.17289 0.62877 0.59312 0.0
H1718 H 0.16573 0.63203 0.55982 0.0
H1719 H 0.20804 0.65829 0.52322 0.0
H1720 H 0.17365 0.7045 0.4446 0.0
H1721 H 0.18592 0.69137 0.47367 0.0
C1722 C 0.36206 0.65675 0.09445 0.0
C1723 C 0.38114 0.65599 0.09929 0.0
C1724 C 0.35608 0.65125 0.07659 0.0
C1725 C 0.37499 0.64628 0.02852 0.0
H1726 H 0.32725 0.62304 0.01767 0.0
C1727 C 0.357 0.62321 0.95399 0.0
C1728 C 0.33925 0.62804 0.94698 0.0
C1729 C 0.36101 0.62477 0.97305 0.0
C1730 C 0.34057 0.62966 0.02049 0.0
H1731 H 0.40864 0.64757 0.08959 0.0
H1732 H 0.39821 0.6375 0.05879 0.0
H1733 H 0.33646 0.62845 0.05027 0.0
H1734 H 0.31147 0.63751 0.95478 0.0
H1735 H 0.31853 0.64032 0.98829 0.0
H1736 H 0.37915 0.64758 0.99891 0.0
C1737 C 0.3879 0.64291 0.06852 0.0
C1738 C 0.34586 0.63277 0.03917 0.0
C1739 C 0.39389 0.64854 0.08628 0.0
C1740 C 0.32529 0.63369 0.95971 0.0
C1741 C 0.32933 0.63526 0.97891 0.0
C1742 C 0.36976 0.64312 1.00996 0.0
C1743 C 0.36902 0.64475 0.06319 0.0
C1744 C 0.36321 0.64104 0.04343 0.0
C1745 C 0.3474 0.63124 0.98572 0.0
C1746 C 0.35255 0.63467 1.00567 0.0
H1747 H 0.35186 0.66248 0.10412 0.0
H1748 H 0.34146 0.65295 0.07301 0.0
H1749 H 0.3882 0.65317 0.03115 0.0
H1750 H 0.36805 0.61859 0.94466 0.0
H1751 H 0.37493 0.62114 0.97784 0.0
loop_
_geom_bond_atom_site_label_1
_geom_bond_atom_site_label_2
_geom_bond_distance
_geom_bond_site_symmetry_2
_ccdc_geom_bond_type
Mg0 O7 2.141 . S
Mg0 O8 2.048 . S
Mg0 O9 2.048 . S
Mg0 O12 2.141 . S
C1 O2 1.313 . S
C1 O8 1.195 . S
O2 C1 1.313 . S
C3 O4 1.245 . S
C3 O12 1.289 . S
O4 C3 1.245 . S
C5 O6 1.245 . S
C5 O7 1.289 . S
O6 C5 1.245 . S
O7 Mg0 2.141 . S
O7 C5 1.289 . S
O8 Mg0 2.048 . S
O8 C1 1.195 . S
O9 Mg0 2.048 . S
O9 C10 1.195 . S
C10 O9 1.195 . S
C10 O11 1.313 . S
O11 C10 1.313 . S
O12 Mg0 2.141 . S
O12 C3 1.289 . S
Mg13 O20 2.141 . S
Mg13 O21 2.048 . S
Mg13 O22 2.048 . S
Mg13 O25 2.141 . S
C14 O15 1.313 . S
C14 O21 1.195 . S
O15 C14 1.313 . S
C16 O17 1.245 . S
C16 O25 1.289 . S
O17 C16 1.245 . S
C18 O19 1.245 . S
C18 O20 1.289 . S
O19 C18 1.245 . S
O20 Mg13 2.141 . S
O20 C18 1.289 . S
O21 Mg13 2.048 . S
O21 C14 1.195 . S
O22 Mg13 2.048 . S
O22 C23 1.195 . S
C23 O22 1.195 . S
C23 O24 1.313 . S
O24 C23 1.313 . S
O25 Mg13 2.141 . S
O25 C16 1.289 . S
Mg26 O33 2.141 . S
Mg26 O34 2.048 . S
Mg26 O35 2.048 . S
Mg26 O38 2.141 . S
C27 O28 1.313 . S
C27 O34 1.195 . S
O28 C27 1.313 . S
C29 O30 1.245 . S
C29 O38 1.289 . S
O30 C29 1.245 . S
C31 O32 1.245 . S
C31 O33 1.289 . S
O32 C31 1.245 . S
O33 Mg26 2.141 . S
O33 C31 1.289 . S
O34 Mg26 2.048 . S
O34 C27 1.195 . S
O35 Mg26 2.048 . S
O35 C36 1.195 . S
C36 O35 1.195 . S
C36 O37 1.313 . S
O37 C36 1.313 . S
O38 Mg26 2.141 . S
O38 C29 1.289 . S
Mg39 O46 2.141 . S
Mg39 O47 2.048 . S
Mg39 O48 2.048 . S
Mg39 O51 2.141 . S
C40 O41 1.313 . S
C40 O47 1.195 . S
O41 C40 1.313 . S
C42 O43 1.245 . S
C42 O51 1.289 . S
O43 C42 1.245 . S
C44 O45 1.245 . S
C44 O46 1.289 . S
O45 C44 1.245 . S
O46 Mg39 2.141 . S
O46 C44 1.289 . S
O47 Mg39 2.048 . S
O47 C40 1.195 . S
O48 Mg39 2.048 . S
O48 C49 1.195 . S
C49 O48 1.195 . S
C49 O50 1.313 . S
O50 C49 1.313 . S
O51 Mg39 2.141 . S
O51 C42 1.289 . S
Mg52 O59 2.141 . S
Mg52 O60 2.048 . S
Mg52 O61 2.048 . S
Mg52 O64 2.141 . S
C53 O54 1.313 . S
C53 O60 1.195 . S
O54 C53 1.313 . S
C55 O56 1.245 . S
C55 O64 1.289 . S
O56 C55 1.245 . S
C57 O58 1.245 . S
C57 O59 1.289 . S
O58 C57 1.245 . S
O59 Mg52 2.141 . S
O59 C57 1.289 . S
O60 Mg52 2.048 . S
O60 C53 1.195 . S
O61 Mg52 2.048 . S
O61 C62 1.195 . S
C62 O61 1.195 . S
C62 O63 1.313 . S
O63 C62 1.313 . S
O64 Mg52 2.141 . S
O64 C55 1.289 . S
Mg65 O72 2.141 . S
Mg65 O73 2.048 . S
Mg65 O74 2.048 . S
Mg65 O77 2.141 . S
C66 O67 1.313 . S
C66 O73 1.195 . S
O67 C66 1.313 . S
C68 O69 1.245 . S
C68 O77 1.289 . S
O69 C68 1.245 . S
C70 O71 1.245 . S
C70 O72 1.289 . S
O71 C70 1.245 . S
O72 Mg65 2.141 . S
O72 C70 1.289 . S
O73 Mg65 2.048 . S
O73 C66 1.195 . S
O74 Mg65 2.048 . S
O74 C75 1.195 . S
C75 O74 1.195 . S
C75 O76 1.313 . S
O76 C75 1.313 . S
O77 Mg65 2.141 . S
O77 C68 1.289 . S
Mg78 O85 2.141 . S
Mg78 O86 2.048 . S
Mg78 O87 2.048 . S
Mg78 O90 2.141 . S
C79 O80 1.313 . S
C79 O86 1.195 . S
O80 C79 1.313 . S
C81 O82 1.245 . S
C81 O90 1.289 . S
O82 C81 1.245 . S
C83 O84 1.245 . S
C83 O85 1.289 . S
O84 C83 1.245 . S
O85 Mg78 2.141 . S
O85 C83 1.289 . S
O86 Mg78 2.048 . S
O86 C79 1.195 . S
O87 Mg78 2.048 . S
O87 C88 1.195 . S
C88 O87 1.195 . S
C88 O89 1.313 . S
O89 C88 1.313 . S
O90 Mg78 2.141 . S
O90 C81 1.289 . S
Mg91 O98 2.141 . S
Mg91 O99 2.048 . S
Mg91 O100 2.048 . S
Mg91 O103 2.141 . S
C92 O93 1.313 . S
C92 O99 1.195 . S
O93 C92 1.313 . S
C94 O95 1.245 . S
C94 O103 1.289 . S
O95 C94 1.245 . S
C96 O97 1.245 . S
C96 O98 1.289 . S
O97 C96 1.245 . S
O98 Mg91 2.141 . S
O98 C96 1.289 . S
O99 Mg91 2.048 . S
O99 C92 1.195 . S
O100 Mg91 2.048 . S
O100 C101 1.195 . S
C101 O100 1.195 . S
C101 O102 1.313 . S
O102 C101 1.313 . S
O103 Mg91 2.141 . S
O103 C94 1.289 . S
Mg104 O111 2.141 . S
Mg104 O112 2.048 . S
Mg104 O113 2.048 . S
Mg104 O116 2.141 . S
C105 O106 1.313 . S
C105 O112 1.195 . S
O106 C105 1.313 . S
C107 O108 1.245 . S
C107 O116 1.289 . S
O108 C107 1.245 . S
C109 O110 1.245 . S
C109 O111 1.289 . S
O110 C109 1.245 . S
O111 Mg104 2.141 . S
O111 C109 1.289 . S
O112 Mg104 2.048 . S
O112 C105 1.195 . S
O113 Mg104 2.048 . S
O113 C114 1.195 . S
C114 O113 1.195 . S
C114 O115 1.313 . S
O115 C114 1.313 . S
O116 Mg104 2.141 . S
O116 C107 1.289 . S
Mg117 O124 2.141 . S
Mg117 O125 2.048 . S
Mg117 O126 2.048 . S
Mg117 O129 2.141 . S
C118 O119 1.313 . S
C118 O125 1.195 . S
O119 C118 1.313 . S
C120 O121 1.245 . S
C120 O129 1.289 . S
O121 C120 1.245 . S
C122 O123 1.245 . S
C122 O124 1.289 . S
O123 C122 1.245 . S
O124 Mg117 2.141 . S
O124 C122 1.289 . S
O125 Mg117 2.048 . S
O125 C118 1.195 . S
O126 Mg117 2.048 . S
O126 C127 1.195 . S
C127 O126 1.195 . S
C127 O128 1.313 . S
O128 C127 1.313 . S
O129 Mg117 2.141 . S
O129 C120 1.289 . S
Mg130 O137 2.141 . S
Mg130 O138 2.048 . S
Mg130 O139 2.048 . S
Mg130 O142 2.141 . S
C131 O132 1.313 . S
C131 O138 1.195 . S
O132 C131 1.313 . S
C133 O134 1.245 . S
C133 O142 1.289 . S
O134 C133 1.245 . S
C135 O136 1.245 . S
C135 O137 1.289 . S
O136 C135 1.245 . S
O137 Mg130 2.141 . S
O137 C135 1.289 . S
O138 Mg130 2.048 . S
O138 C131 1.195 . S
O139 Mg130 2.048 . S
O139 C140 1.195 . S
C140 O139 1.195 . S
C140 O141 1.313 . S
O141 C140 1.313 . S
O142 Mg130 2.141 . S
O142 C133 1.289 . S
Mg143 O150 2.141 . S
Mg143 O151 2.048 . S
Mg143 O152 2.048 . S
Mg143 O155 2.141 . S
C144 O145 1.313 . S
C144 O151 1.195 . S
O145 C144 1.313 . S
C146 O147 1.245 . S
C146 O155 1.289 . S
O147 C146 1.245 . S
C148 O149 1.245 . S
C148 O150 1.289 . S
O149 C148 1.245 . S
O150 Mg143 2.141 . S
O150 C148 1.289 . S
O151 Mg143 2.048 . S
O151 C144 1.195 . S
O152 Mg143 2.048 . S
O152 C153 1.195 . S
C153 O152 1.195 . S
C153 O154 1.313 . S
O154 C153 1.313 . S
O155 Mg143 2.141 . S
O155 C146 1.289 . S
Mg156 O163 2.141 . S
Mg156 O164 2.048 . S
Mg156 O165 2.048 . S
Mg156 O168 2.141 . S
C157 O158 1.313 . S
C157 O164 1.195 . S
O158 C157 1.313 . S
C159 O160 1.245 . S
C159 O168 1.289 . S
O160 C159 1.245 . S
C161 O162 1.245 . S
C161 O163 1.289 . S
O162 C161 1.245 . S
O163 Mg156 2.141 . S
O163 C161 1.289 . S
O164 Mg156 2.048 . S
O164 C157 1.195 . S
O165 Mg156 2.048 . S
O165 C166 1.195 . S
C166 O165 1.195 . S
C166 O167 1.313 . S
O167 C166 1.313 . S
O168 Mg156 2.141 . S
O168 C159 1.289 . S
Mg169 O176 2.141 . S
Mg169 O177 2.048 . S
Mg169 O178 2.048 . S
Mg169 O181 2.141 . S
C170 O171 1.313 . S
C170 O177 1.195 . S
O171 C170 1.313 . S
C172 O173 1.245 . S
C172 O181 1.289 . S
O173 C172 1.245 . S
C174 O175 1.245 . S
C174 O176 1.289 . S
O175 C174 1.245 . S
O176 Mg169 2.141 . S
O176 C174 1.289 . S
O177 Mg169 2.048 . S
O177 C170 1.195 . S
O178 Mg169 2.048 . S
O178 C179 1.195 . S
C179 O178 1.195 . S
C179 O180 1.313 . S
O180 C179 1.313 . S
O181 Mg169 2.141 . S
O181 C172 1.289 . S
Mg182 O189 2.141 . S
Mg182 O190 2.048 . S
Mg182 O191 2.048 . S
Mg182 O194 2.141 . S
C183 O184 1.313 . S
C183 O190 1.195 . S
O184 C183 1.313 . S
C185 O186 1.245 . S
C185 O194 1.289 . S
O186 C185 1.245 . S
C187 O188 1.245 . S
C187 O189 1.289 . S
O188 C187 1.245 . S
O189 Mg182 2.141 . S
O189 C187 1.289 . S
O190 Mg182 2.048 . S
O190 C183 1.195 . S
O191 Mg182 2.048 . S
O191 C192 1.195 . S
C192 O191 1.195 . S
C192 O193 1.313 . S
O193 C192 1.313 . S
O194 Mg182 2.141 . S
O194 C185 1.289 . S
Mg195 O202 2.141 . S
Mg195 O203 2.048 . S
Mg195 O204 2.048 . S
Mg195 O207 2.141 . S
C196 O197 1.313 . S
C196 O203 1.195 . S
O197 C196 1.313 . S
C198 O199 1.245 . S
C198 O207 1.289 . S
O199 C198 1.245 . S
C200 O201 1.245 . S
C200 O202 1.289 . S
O201 C200 1.245 . S
O202 Mg195 2.141 . S
O202 C200 1.289 . S
O203 Mg195 2.048 . S
O203 C196 1.195 . S
O204 Mg195 2.048 . S
O204 C205 1.195 . S
C205 O204 1.195 . S
C205 O206 1.313 . S
O206 C205 1.313 . S
O207 Mg195 2.141 . S
O207 C198 1.289 . S
Mg208 O215 2.141 . S
Mg208 O216 2.048 . S
Mg208 O217 2.048 . S
Mg208 O220 2.141 . S
C209 O210 1.313 . S
C209 O216 1.195 . S
O210 C209 1.313 . S
C211 O212 1.245 . S
C211 O220 1.289 . S
O212 C211 1.245 . S
C213 O214 1.245 . S
C213 O215 1.289 . S
O214 C213 1.245 . S
O215 Mg208 2.141 . S
O215 C213 1.289 . S
O216 Mg208 2.048 . S
O216 C209 1.195 . S
O217 Mg208 2.048 . S
O217 C218 1.195 . S
C218 O217 1.195 . S
C218 O219 1.313 . S
O219 C218 1.313 . S
O220 Mg208 2.141 . S
O220 C211 1.289 . S
Mg221 O228 2.141 . S
Mg221 O229 2.048 . S
Mg221 O230 2.048 . S
Mg221 O233 2.141 . S
C222 O223 1.313 . S
C222 O229 1.195 . S
O223 C222 1.313 . S
C224 O225 1.245 . S
C224 O233 1.289 . S
O225 C224 1.245 . S
C226 O227 1.245 . S
C226 O228 1.289 . S
O227 C226 1.245 . S
O228 Mg221 2.141 . S
O228 C226 1.289 . S
O229 Mg221 2.048 . S
O229 C222 1.195 . S
O230 Mg221 2.048 . S
O230 C231 1.195 . S
C231 O230 1.195 . S
C231 O232 1.313 . S
O232 C231 1.313 . S
O233 Mg221 2.141 . S
O233 C224 1.289 . S
Mg234 O241 2.141 . S
Mg234 O242 2.048 . S
Mg234 O243 2.048 . S
Mg234 O246 2.141 . S
C235 O236 1.313 . S
C235 O242 1.195 . S
O236 C235 1.313 . S
C237 O238 1.245 . S
C237 O246 1.289 . S
O238 C237 1.245 . S
C239 O240 1.245 . S
C239 O241 1.289 . S
O240 C239 1.245 . S
O241 Mg234 2.141 . S
O241 C239 1.289 . S
O242 Mg234 2.048 . S
O242 C235 1.195 . S
O243 Mg234 2.048 . S
O243 C244 1.195 . S
C244 O243 1.195 . S
C244 O245 1.313 . S
O245 C244 1.313 . S
O246 Mg234 2.141 . S
O246 C237 1.289 . S
Mg247 O254 2.141 . S
Mg247 O255 2.048 . S
Mg247 O256 2.048 . S
Mg247 O259 2.141 . S
C248 O249 1.313 . S
C248 O255 1.195 . S
O249 C248 1.313 . S
C250 O251 1.245 . S
C250 O259 1.289 . S
O251 C250 1.245 . S
C252 O253 1.245 . S
C252 O254 1.289 . S
O253 C252 1.245 . S
O254 Mg247 2.141 . S
O254 C252 1.289 . S
O255 Mg247 2.048 . S
O255 C248 1.195 . S
O256 Mg247 2.048 . S
O256 C257 1.195 . S
C257 O256 1.195 . S
C257 O258 1.313 . S
O258 C257 1.313 . S
O259 Mg247 2.141 . S
O259 C250 1.289 . S
Mg260 O267 2.141 . S
Mg260 O268 2.048 . S
Mg260 O269 2.048 . S
Mg260 O272 2.141 . S
C261 O262 1.313 . S
C261 O268 1.195 . S
O262 C261 1.313 . S
C263 O264 1.245 . S
C263 O272 1.289 . S
O264 C263 1.245 . S
C265 O266 1.245 . S
C265 O267 1.289 . S
O266 C265 1.245 . S
O267 Mg260 2.141 . S
O267 C265 1.289 . S
O268 Mg260 2.048 . S
O268 C261 1.195 . S
O269 Mg260 2.048 . S
O269 C270 1.195 . S
C270 O269 1.195 . S
C270 O271 1.313 . S
O271 C270 1.313 . S
O272 Mg260 2.141 . S
O272 C263 1.289 . S
Mg273 O280 2.141 . S
Mg273 O281 2.048 . S
Mg273 O282 2.048 . S
Mg273 O285 2.141 . S
C274 O275 1.313 . S
C274 O281 1.195 . S
O275 C274 1.313 . S
C276 O277 1.245 . S
C276 O285 1.289 . S
O277 C276 1.245 . S
C278 O279 1.245 . S
C278 O280 1.289 . S
O279 C278 1.245 . S
O280 Mg273 2.141 . S
O280 C278 1.289 . S
O281 Mg273 2.048 . S
O281 C274 1.195 . S
O282 Mg273 2.048 . S
O282 C283 1.195 . S
C283 O282 1.195 . S
C283 O284 1.313 . S
O284 C283 1.313 . S
O285 Mg273 2.141 . S
O285 C276 1.289 . S
Mg286 O293 2.141 . S
Mg286 O294 2.048 . S
Mg286 O295 2.048 . S
Mg286 O298 2.141 . S
C287 O288 1.313 . S
C287 O294 1.195 . S
O288 C287 1.313 . S
C289 O290 1.245 . S
C289 O298 1.289 . S
O290 C289 1.245 . S
C291 O292 1.245 . S
C291 O293 1.289 . S
O292 C291 1.245 . S
O293 Mg286 2.141 . S
O293 C291 1.289 . S
O294 Mg286 2.048 . S
O294 C287 1.195 . S
O295 Mg286 2.048 . S
O295 C296 1.195 . S
C296 O295 1.195 . S
C296 O297 1.313 . S
O297 C296 1.313 . S
O298 Mg286 2.141 . S
O298 C289 1.289 . S
Mg299 O306 2.141 . S
Mg299 O307 2.048 . S
Mg299 O308 2.048 . S
Mg299 O311 2.141 . S
C300 O301 1.313 . S
C300 O307 1.195 . S
O301 C300 1.313 . S
C302 O303 1.245 . S
C302 O311 1.289 . S
O303 C302 1.245 . S
C304 O305 1.245 . S
C304 O306 1.289 . S
O305 C304 1.245 . S
O306 Mg299 2.141 . S
O306 C304 1.289 . S
O307 Mg299 2.048 . S
O307 C300 1.195 . S
O308 Mg299 2.048 . S
O308 C309 1.195 . S
C309 O308 1.195 . S
C309 O310 1.313 . S
O310 C309 1.313 . S
O311 Mg299 2.141 . S
O311 C302 1.289 . S
C312 C313 1.349 . S
C312 C314 1.327 . S
C312 H337 0.950 . S
C313 C312 1.349 . S
C313 C329 1.349 . S
C314 C312 1.327 . S
C314 C333 1.429 . S
C314 H338 0.950 . S
C315 C332 1.574 . S
C315 C334 1.368 . S
C315 H339 0.949 . S
H316 C320 0.949 . S
C317 C318 1.349 . S
C317 C319 1.327 . S
C317 H340 0.950 . S
C318 C317 1.349 . S
C318 C330 1.349 . S
C319 C317 1.327 . S
C319 C335 1.429 . S
C319 H341 0.950 . S
C320 H316 0.949 . S
C320 C328 1.574 . S
C320 C336 1.368 . S
H321 C329 0.950 . S
H322 C327 0.950 . S
H323 C328 0.949 . S
H324 C330 0.950 . S
H325 C331 0.950 . S
H326 C332 0.949 . S
C327 H322 0.950 . S
C327 C329 1.327 . S
C327 C333 1.429 . S
C328 C320 1.574 . S
C328 H323 0.949 . S
C328 C334 1.368 . S
C329 C313 1.349 . S
C329 H321 0.950 . S
C329 C327 1.327 . S
C330 C318 1.349 . S
C330 H324 0.950 . S
C330 C331 1.327 . S
C331 H325 0.950 . S
C331 C330 1.327 . S
C331 C335 1.429 . S
C332 C315 1.574 . S
C332 H326 0.949 . S
C332 C336 1.368 . S
C333 C314 1.429 . S
C333 C327 1.429 . S
C333 C334 1.523 . S
C334 C315 1.368 . S
C334 C328 1.368 . S
C334 C333 1.523 . S
C335 C319 1.429 . S
C335 C331 1.429 . S
C335 C336 1.523 . S
C336 C320 1.368 . S
C336 C332 1.368 . S
C336 C335 1.523 . S
H337 C312 0.950 . S
H338 C314 0.950 . S
H339 C315 0.949 . S
H340 C317 0.950 . S
H341 C319 0.950 . S
C342 C343 1.349 . S
C342 C344 1.327 . S
C342 H367 0.950 . S
C343 C342 1.349 . S
C343 C359 1.349 . S
C344 C342 1.327 . S
C344 C363 1.429 . S
C344 H368 0.950 . S
C345 C362 1.574 . S
C345 C364 1.368 . S
C345 H369 0.949 . S
H346 C350 0.949 . S
C347 C348 1.349 . S
C347 C349 1.327 . S
C347 H370 0.950 . S
C348 C347 1.349 . S
C348 C360 1.349 . S
C349 C347 1.327 . S
C349 C365 1.429 . S
C349 H371 0.950 . S
C350 H346 0.949 . S
C350 C358 1.574 . S
C350 C366 1.368 . S
H351 C359 0.950 . S
H352 C357 0.950 . S
H353 C358 0.949 . S
H354 C360 0.950 . S
H355 C361 0.950 . S
H356 C362 0.949 . S
C357 H352 0.950 . S
C357 C359 1.327 . S
C357 C363 1.429 . S
C358 C350 1.574 . S
C358 H353 0.949 . S
C358 C364 1.368 . S
C359 C343 1.349 . S
C359 H351 0.950 . S
C359 C357 1.327 . S
C360 C348 1.349 . S
C360 H354 0.950 . S
C360 C361 1.327 . S
C361 H355 0.950 . S
C361 C360 1.327 . S
C361 C365 1.429 . S
C362 C345 1.574 . S
C362 H356 0.949 . S
C362 C366 1.368 . S
C363 C344 1.429 . S
C363 C357 1.429 . S
C363 C364 1.523 . S
C364 C345 1.368 . S
C364 C358 1.368 . S
C364 C363 1.523 . S
C365 C349 1.429 . S
C365 C361 1.429 . S
C365 C366 1.523 . S
C366 C350 1.368 . S
C366 C362 1.368 . S
C366 C365 1.523 . S
H367 C342 0.950 . S
H368 C344 0.950 . S
H369 C345 0.949 . S
H370 C347 0.950 . S
H371 C349 0.950 . S
C372 C373 1.349 . S
C372 C374 1.327 . S
C372 H397 0.950 . S
C373 C372 1.349 . S
C373 C389 1.349 . S
C374 C372 1.327 . S
C374 C393 1.429 . S
C374 H398 0.950 . S
C375 C392 1.574 . S
C375 C394 1.368 . S
C375 H399 0.949 . S
H376 C380 0.949 . S
C377 C378 1.349 . S
C377 C379 1.327 . S
C377 H400 0.950 . S
C378 C377 1.349 . S
C378 C390 1.349 . S
C379 C377 1.327 . S
C379 C395 1.429 . S
C379 H401 0.950 . S
C380 H376 0.949 . S
C380 C388 1.574 . S
C380 C396 1.368 . S
H381 C389 0.950 . S
H382 C387 0.950 . S
H383 C388 0.949 . S
H384 C390 0.950 . S
H385 C391 0.950 . S
H386 C392 0.949 . S
C387 H382 0.950 . S
C387 C389 1.327 . S
C387 C393 1.429 . S
C388 C380 1.574 . S
C388 H383 0.949 . S
C388 C394 1.368 . S
C389 C373 1.349 . S
C389 H381 0.950 . S
C389 C387 1.327 . S
C390 C378 1.349 . S
C390 H384 0.950 . S
C390 C391 1.327 . S
C391 H385 0.950 . S
C391 C390 1.327 . S
C391 C395 1.429 . S
C392 C375 1.574 . S
C392 H386 0.949 . S
C392 C396 1.368 . S
C393 C374 1.429 . S
C393 C387 1.429 . S
C393 C394 1.523 . S
C394 C375 1.368 . S
C394 C388 1.368 . S
C394 C393 1.523 . S
C395 C379 1.429 . S
C395 C391 1.429 . S
C395 C396 1.523 . S
C396 C380 1.368 . S
C396 C392 1.368 . S
C396 C395 1.523 . S
H397 C372 0.950 . S
H398 C374 0.950 . S
H399 C375 0.949 . S
H400 C377 0.950 . S
H401 C379 0.950 . S
C402 C403 1.349 . S
C402 C404 1.327 . S
C402 H427 0.950 . S
C403 C402 1.349 . S
C403 C419 1.349 . S
C404 C402 1.327 . S
C404 C423 1.429 . S
C404 H428 0.950 . S
C405 C422 1.574 . S
C405 C424 1.368 . S
C405 H429 0.949 . S
H406 C410 0.949 . S
C407 C408 1.349 . S
C407 C409 1.327 . S
C407 H430 0.950 . S
C408 C407 1.349 . S
C408 C420 1.349 . S
C409 C407 1.327 . S
C409 C425 1.429 . S
C409 H431 0.950 . S
C410 H406 0.949 . S
C410 C418 1.574 . S
C410 C426 1.368 . S
H411 C419 0.950 . S
H412 C417 0.950 . S
H413 C418 0.949 . S
H414 C420 0.950 . S
H415 C421 0.950 . S
H416 C422 0.949 . S
C417 H412 0.950 . S
C417 C419 1.327 . S
C417 C423 1.429 . S
C418 C410 1.574 . S
C418 H413 0.949 . S
C418 C424 1.368 . S
C419 C403 1.349 . S
C419 H411 0.950 . S
C419 C417 1.327 . S
C420 C408 1.349 . S
C420 H414 0.950 . S
C420 C421 1.327 . S
C421 H415 0.950 . S
C421 C420 1.327 . S
C421 C425 1.429 . S
C422 C405 1.574 . S
C422 H416 0.949 . S
C422 C426 1.368 . S
C423 C404 1.429 . S
C423 C417 1.429 . S
C423 C424 1.523 . S
C424 C405 1.368 . S
C424 C418 1.368 . S
C424 C423 1.523 . S
C425 C409 1.429 . S
C425 C421 1.429 . S
C425 C426 1.523 . S
C426 C410 1.368 . S
C426 C422 1.368 . S
C426 C425 1.523 . S
H427 C402 0.950 . S
H428 C404 0.950 . S
H429 C405 0.949 . S
H430 C407 0.950 . S
H431 C409 0.950 . S
C432 C433 1.349 . S
C432 C434 1.327 . S
C432 H457 0.950 . S
C433 C432 1.349 . S
C433 C449 1.349 . S
C434 C432 1.327 . S
C434 C453 1.429 . S
C434 H458 0.950 . S
C435 C452 1.574 . S
C435 C454 1.368 . S
C435 H459 0.949 . S
H436 C440 0.949 . S
C437 C438 1.349 . S
C437 C439 1.327 . S
C437 H460 0.950 . S
C438 C437 1.349 . S
C438 C450 1.349 . S
C439 C437 1.327 . S
C439 C455 1.429 . S
C439 H461 0.950 . S
C440 H436 0.949 . S
C440 C448 1.574 . S
C440 C456 1.368 . S
H441 C449 0.950 . S
H442 C447 0.950 . S
H443 C448 0.949 . S
H444 C450 0.950 . S
H445 C451 0.950 . S
H446 C452 0.949 . S
C447 H442 0.950 . S
C447 C449 1.327 . S
C447 C453 1.429 . S
C448 C440 1.574 . S
C448 H443 0.949 . S
C448 C454 1.368 . S
C449 C433 1.349 . S
C449 H441 0.950 . S
C449 C447 1.327 . S
C450 C438 1.349 . S
C450 H444 0.950 . S
C450 C451 1.327 . S
C451 H445 0.950 . S
C451 C450 1.327 . S
C451 C455 1.429 . S
C452 C435 1.574 . S
C452 H446 0.949 . S
C452 C456 1.368 . S
C453 C434 1.429 . S
C453 C447 1.429 . S
C453 C454 1.523 . S
C454 C435 1.368 . S
C454 C448 1.368 . S
C454 C453 1.523 . S
C455 C439 1.429 . S
C455 C451 1.429 . S
C455 C456 1.523 . S
C456 C440 1.368 . S
C456 C452 1.368 . S
C456 C455 1.523 . S
H457 C432 0.950 . S
H458 C434 0.950 . S
H459 C435 0.949 . S
H460 C437 0.950 . S
H461 C439 0.950 . S
C462 C463 1.349 . S
C462 C464 1.327 . S
C462 H487 0.950 . S
C463 C462 1.349 . S
C463 C479 1.349 . S
C464 C462 1.327 . S
C464 C483 1.429 . S
C464 H488 0.950 . S
C465 C482 1.574 . S
C465 C484 1.368 . S
C465 H489 0.949 . S
H466 C470 0.949 . S
C467 C468 1.349 . S
C467 C469 1.327 . S
C467 H490 0.950 . S
C468 C467 1.349 . S
C468 C480 1.349 . S
C469 C467 1.327 . S
C469 C485 1.429 . S
C469 H491 0.950 . S
C470 H466 0.949 . S
C470 C478 1.574 . S
C470 C486 1.368 . S
H471 C479 0.950 . S
H472 C477 0.950 . S
H473 C478 0.949 . S
H474 C480 0.950 . S
H475 C481 0.950 . S
H476 C482 0.949 . S
C477 H472 0.950 . S
C477 C479 1.327 . S
C477 C483 1.429 . S
C478 C470 1.574 . S
C478 H473 0.949 . S
C478 C484 1.368 . S
C479 C463 1.349 . S
C479 H471 0.950 . S
C479 C477 1.327 . S
C480 C468 1.349 . S
C480 H474 0.950 . S
C480 C481 1.327 . S
C481 H475 0.950 . S
C481 C480 1.327 . S
C481 C485 1.429 . S
C482 C465 1.574 . S
C482 H476 0.949 . S
C482 C486 1.368 . S
C483 C464 1.429 . S
C483 C477 1.429 . S
C483 C484 1.523 . S
C484 C465 1.368 . S
C484 C478 1.368 . S
C484 C483 1.523 . S
C485 C469 1.429 . S
C485 C481 1.429 . S
C485 C486 1.523 . S
C486 C470 1.368 . S
C486 C482 1.368 . S
C486 C485 1.523 . S
H487 C462 0.950 . S
H488 C464 0.950 . S
H489 C465 0.949 . S
H490 C467 0.950 . S
H491 C469 0.950 . S
C492 C493 1.349 . S
C492 C494 1.327 . S
C492 H517 0.950 . S
C493 C492 1.349 . S
C493 C509 1.349 . S
C494 C492 1.327 . S
C494 C513 1.429 . S
C494 H518 0.950 . S
C495 C512 1.574 . S
C495 C514 1.368 . S
C495 H519 0.949 . S
H496 C500 0.949 . S
C497 C498 1.349 . S
C497 C499 1.327 . S
C497 H520 0.950 . S
C498 C497 1.349 . S
C498 C510 1.349 . S
C499 C497 1.327 . S
C499 C515 1.429 . S
C499 H521 0.950 . S
C500 H496 0.949 . S
C500 C508 1.574 . S
C500 C516 1.368 . S
H501 C509 0.950 . S
H502 C507 0.950 . S
H503 C508 0.949 . S
H504 C510 0.950 . S
H505 C511 0.950 . S
H506 C512 0.949 . S
C507 H502 0.950 . S
C507 C509 1.327 . S
C507 C513 1.429 . S
C508 C500 1.574 . S
C508 H503 0.949 . S
C508 C514 1.368 . S
C509 C493 1.349 . S
C509 H501 0.950 . S
C509 C507 1.327 . S
C510 C498 1.349 . S
C510 H504 0.950 . S
C510 C511 1.327 . S
C511 H505 0.950 . S
C511 C510 1.327 . S
C511 C515 1.429 . S
C512 C495 1.574 . S
C512 H506 0.949 . S
C512 C516 1.368 . S
C513 C494 1.429 . S
C513 C507 1.429 . S
C513 C514 1.523 . S
C514 C495 1.368 . S
C514 C508 1.368 . S
C514 C513 1.523 . S
C515 C499 1.429 . S
C515 C511 1.429 . S
C515 C516 1.523 . S
C516 C500 1.368 . S
C516 C512 1.368 . S
C516 C515 1.523 . S
H517 C492 0.950 . S
H518 C494 0.950 . S
H519 C495 0.949 . S
H520 C497 0.950 . S
H521 C499 0.950 . S
C522 C523 1.349 . S
C522 C524 1.327 . S
C522 H547 0.950 . S
C523 C522 1.349 . S
C523 C539 1.349 . S
C524 C522 1.327 . S
C524 C543 1.429 . S
C524 H548 0.950 . S
C525 C542 1.574 . S
C525 C544 1.368 . S
C525 H549 0.949 . S
H526 C530 0.949 . S
C527 C528 1.349 . S
C527 C529 1.327 . S
C527 H550 0.950 . S
C528 C527 1.349 . S
C528 C540 1.349 . S
C529 C527 1.327 . S
C529 C545 1.429 . S
C529 H551 0.950 . S
C530 H526 0.949 . S
C530 C538 1.574 . S
C530 C546 1.368 . S
H531 C539 0.950 . S
H532 C537 0.950 . S
H533 C538 0.949 . S
H534 C540 0.950 . S
H535 C541 0.950 . S
H536 C542 0.949 . S
C537 H532 0.950 . S
C537 C539 1.327 . S
C537 C543 1.429 . S
C538 C530 1.574 . S
C538 H533 0.949 . S
C538 C544 1.368 . S
C539 C523 1.349 . S
C539 H531 0.950 . S
C539 C537 1.327 . S
C540 C528 1.349 . S
C540 H534 0.950 . S
C540 C541 1.327 . S
C541 H535 0.950 . S
C541 C540 1.327 . S
C541 C545 1.429 . S
C542 C525 1.574 . S
C542 H536 0.949 . S
C542 C546 1.368 . S
C543 C524 1.429 . S
C543 C537 1.429 . S
C543 C544 1.523 . S
C544 C525 1.368 . S
C544 C538 1.368 . S
C544 C543 1.523 . S
C545 C529 1.429 . S
C545 C541 1.429 . S
C545 C546 1.523 . S
C546 C530 1.368 . S
C546 C542 1.368 . S
C546 C545 1.523 . S
H547 C522 0.950 . S
H548 C524 0.950 . S
H549 C525 0.949 . S
H550 C527 0.950 . S
H551 C529 0.950 . S
C552 C553 1.349 . S
C552 C554 1.327 . S
C552 H577 0.950 . S
C553 C552 1.349 . S
C553 C569 1.349 . S
C554 C552 1.327 . S
C554 C573 1.429 . S
C554 H578 0.950 . S
C555 C572 1.574 . S
C555 C574 1.368 . S
C555 H579 0.949 . S
H556 C560 0.949 . S
C557 C558 1.349 . S
C557 C559 1.327 . S
C557 H580 0.950 . S
C558 C557 1.349 . S
C558 C570 1.349 . S
C559 C557 1.327 . S
C559 C575 1.429 . S
C559 H581 0.950 . S
C560 H556 0.949 . S
C560 C568 1.574 . S
C560 C576 1.368 . S
H561 C569 0.950 . S
H562 C567 0.950 . S
H563 C568 0.949 . S
H564 C570 0.950 . S
H565 C571 0.950 . S
H566 C572 0.949 . S
C567 H562 0.950 . S
C567 C569 1.327 . S
C567 C573 1.429 . S
C568 C560 1.574 . S
C568 H563 0.949 . S
C568 C574 1.368 . S
C569 C553 1.349 . S
C569 H561 0.950 . S
C569 C567 1.327 . S
C570 C558 1.349 . S
C570 H564 0.950 . S
C570 C571 1.327 . S
C571 H565 0.950 . S
C571 C570 1.327 . S
C571 C575 1.429 . S
C572 C555 1.574 . S
C572 H566 0.949 . S
C572 C576 1.368 . S
C573 C554 1.429 . S
C573 C567 1.429 . S
C573 C574 1.523 . S
C574 C555 1.368 . S
C574 C568 1.368 . S
C574 C573 1.523 . S
C575 C559 1.429 . S
C575 C571 1.429 . S
C575 C576 1.523 . S
C576 C560 1.368 . S
C576 C572 1.368 . S
C576 C575 1.523 . S
H577 C552 0.950 . S
H578 C554 0.950 . S
H579 C555 0.949 . S
H580 C557 0.950 . S
H581 C559 0.950 . S
C582 C583 1.349 . S
C582 C584 1.327 . S
C582 H607 0.950 . S
C583 C582 1.349 . S
C583 C599 1.349 . S
C584 C582 1.327 . S
C584 C603 1.429 . S
C584 H608 0.950 . S
C585 C602 1.574 . S
C585 C604 1.368 . S
C585 H609 0.949 . S
H586 C590 0.949 . S
C587 C588 1.349 . S
C587 C589 1.327 . S
C587 H610 0.950 . S
C588 C587 1.349 . S
C588 C600 1.349 . S
C589 C587 1.327 . S
C589 C605 1.429 . S
C589 H611 0.950 . S
C590 H586 0.949 . S
C590 C598 1.574 . S
C590 C606 1.368 . S
H591 C599 0.950 . S
H592 C597 0.950 . S
H593 C598 0.949 . S
H594 C600 0.950 . S
H595 C601 0.950 . S
H596 C602 0.949 . S
C597 H592 0.950 . S
C597 C599 1.327 . S
C597 C603 1.429 . S
C598 C590 1.574 . S
C598 H593 0.949 . S
C598 C604 1.368 . S
C599 C583 1.349 . S
C599 H591 0.950 . S
C599 C597 1.327 . S
C600 C588 1.349 . S
C600 H594 0.950 . S
C600 C601 1.327 . S
C601 H595 0.950 . S
C601 C600 1.327 . S
C601 C605 1.429 . S
C602 C585 1.574 . S
C602 H596 0.949 . S
C602 C606 1.368 . S
C603 C584 1.429 . S
C603 C597 1.429 . S
C603 C604 1.523 . S
C604 C585 1.368 . S
C604 C598 1.368 . S
C604 C603 1.523 . S
C605 C589 1.429 . S
C605 C601 1.429 . S
C605 C606 1.523 . S
C606 C590 1.368 . S
C606 C602 1.368 . S
C606 C605 1.523 . S
H607 C582 0.950 . S
H608 C584 0.950 . S
H609 C585 0.949 . S
H610 C587 0.950 . S
H611 C589 0.950 . S
C612 C613 1.349 . S
C612 C614 1.327 . S
C612 H637 0.950 . S
C613 C612 1.349 . S
C613 C629 1.349 . S
C614 C612 1.327 . S
C614 C633 1.429 . S
C614 H638 0.950 . S
C615 C632 1.574 . S
C615 C634 1.368 . S
C615 H639 0.949 . S
H616 C620 0.949 . S
C617 C618 1.349 . S
C617 C619 1.327 . S
C617 H640 0.950 . S
C618 C617 1.349 . S
C618 C630 1.349 . S
C619 C617 1.327 . S
C619 C635 1.429 . S
C619 H641 0.950 . S
C620 H616 0.949 . S
C620 C628 1.574 . S
C620 C636 1.368 . S
H621 C629 0.950 . S
H622 C627 0.950 . S
H623 C628 0.949 . S
H624 C630 0.950 . S
H625 C631 0.950 . S
H626 C632 0.949 . S
C627 H622 0.950 . S
C627 C629 1.327 . S
C627 C633 1.429 . S
C628 C620 1.574 . S
C628 H623 0.949 . S
C628 C634 1.368 . S
C629 C613 1.349 . S
C629 H621 0.950 . S
C629 C627 1.327 . S
C630 C618 1.349 . S
C630 H624 0.950 . S
C630 C631 1.327 . S
C631 H625 0.950 . S
C631 C630 1.327 . S
C631 C635 1.429 . S
C632 C615 1.574 . S
C632 H626 0.949 . S
C632 C636 1.368 . S
C633 C614 1.429 . S
C633 C627 1.429 . S
C633 C634 1.523 . S
C634 C615 1.368 . S
C634 C628 1.368 . S
C634 C633 1.523 . S
C635 C619 1.429 . S
C635 C631 1.429 . S
C635 C636 1.523 . S
C636 C620 1.368 . S
C636 C632 1.368 . S
C636 C635 1.523 . S
H637 C612 0.950 . S
H638 C614 0.950 . S
H639 C615 0.949 . S
H640 C617 0.950 . S
H641 C619 0.950 . S
C642 C643 1.349 . S
C642 C644 1.327 . S
C642 H667 0.950 . S
C643 C642 1.349 . S
C643 C659 1.349 . S
C644 C642 1.327 . S
C644 C663 1.429 . S
C644 H668 0.950 . S
C645 C662 1.574 . S
C645 C664 1.368 . S
C645 H669 0.949 . S
H646 C650 0.949 . S
C647 C648 1.349 . S
C647 C649 1.327 . S
C647 H670 0.950 . S
C648 C647 1.349 . S
C648 C660 1.349 . S
C649 C647 1.327 . S
C649 C665 1.429 . S
C649 H671 0.950 . S
C650 H646 0.949 . S
C650 C658 1.574 . S
C650 C666 1.368 . S
H651 C659 0.950 . S
H652 C657 0.950 . S
H653 C658 0.949 . S
H654 C660 0.950 . S
H655 C661 0.950 . S
H656 C662 0.949 . S
C657 H652 0.950 . S
C657 C659 1.327 . S
C657 C663 1.429 . S
C658 C650 1.574 . S
C658 H653 0.949 . S
C658 C664 1.368 . S
C659 C643 1.349 . S
C659 H651 0.950 . S
C659 C657 1.327 . S
C660 C648 1.349 . S
C660 H654 0.950 . S
C660 C661 1.327 . S
C661 H655 0.950 . S
C661 C660 1.327 . S
C661 C665 1.429 . S
C662 C645 1.574 . S
C662 H656 0.949 . S
C662 C666 1.368 . S
C663 C644 1.429 . S
C663 C657 1.429 . S
C663 C664 1.523 . S
C664 C645 1.368 . S
C664 C658 1.368 . S
C664 C663 1.523 . S
C665 C649 1.429 . S
C665 C661 1.429 . S
C665 C666 1.523 . S
C666 C650 1.368 . S
C666 C662 1.368 . S
C666 C665 1.523 . S
H667 C642 0.950 . S
H668 C644 0.950 . S
H669 C645 0.949 . S
H670 C647 0.950 . S
H671 C649 0.950 . S
C672 C673 1.349 . S
C672 C674 1.327 . S
C672 H697 0.950 . S
C673 C672 1.349 . S
C673 C689 1.349 . S
C674 C672 1.327 . S
C674 C693 1.429 . S
C674 H698 0.950 . S
C675 C692 1.574 . S
C675 C694 1.368 . S
C675 H699 0.949 . S
H676 C680 0.949 . S
C677 C678 1.349 . S
C677 C679 1.327 . S
C677 H700 0.950 . S
C678 C677 1.349 . S
C678 C690 1.349 . S
C679 C677 1.327 . S
C679 C695 1.429 . S
C679 H701 0.950 . S
C680 H676 0.949 . S
C680 C688 1.574 . S
C680 C696 1.368 . S
H681 C689 0.950 . S
H682 C687 0.950 . S
H683 C688 0.949 . S
H684 C690 0.950 . S
H685 C691 0.950 . S
H686 C692 0.949 . S
C687 H682 0.950 . S
C687 C689 1.327 . S
C687 C693 1.429 . S
C688 C680 1.574 . S
C688 H683 0.949 . S
C688 C694 1.368 . S
C689 C673 1.349 . S
C689 H681 0.950 . S
C689 C687 1.327 . S
C690 C678 1.349 . S
C690 H684 0.950 . S
C690 C691 1.327 . S
C691 H685 0.950 . S
C691 C690 1.327 . S
C691 C695 1.429 . S
C692 C675 1.574 . S
C692 H686 0.949 . S
C692 C696 1.368 . S
C693 C674 1.429 . S
C693 C687 1.429 . S
C693 C694 1.523 . S
C694 C675 1.368 . S
C694 C688 1.368 . S
C694 C693 1.523 . S
C695 C679 1.429 . S
C695 C691 1.429 . S
C695 C696 1.523 . S
C696 C680 1.368 . S
C696 C692 1.368 . S
C696 C695 1.523 . S
H697 C672 0.950 . S
H698 C674 0.950 . S
H699 C675 0.949 . S
H700 C677 0.950 . S
H701 C679 0.950 . S
C702 C703 1.349 . S
C702 C704 1.327 . S
C702 H727 0.950 . S
C703 C702 1.349 . S
C703 C719 1.349 . S
C704 C702 1.327 . S
C704 C723 1.429 . S
C704 H728 0.950 . S
C705 C722 1.574 . S
C705 C724 1.368 . S
C705 H729 0.949 . S
H706 C710 0.949 . S
C707 C708 1.349 . S
C707 C709 1.327 . S
C707 H730 0.950 . S
C708 C707 1.349 . S
C708 C720 1.349 . S
C709 C707 1.327 . S
C709 C725 1.429 . S
C709 H731 0.950 . S
C710 H706 0.949 . S
C710 C718 1.574 . S
C710 C726 1.368 . S
H711 C719 0.950 . S
H712 C717 0.950 . S
H713 C718 0.949 . S
H714 C720 0.950 . S
H715 C721 0.950 . S
H716 C722 0.949 . S
C717 H712 0.950 . S
C717 C719 1.327 . S
C717 C723 1.429 . S
C718 C710 1.574 . S
C718 H713 0.949 . S
C718 C724 1.368 . S
C719 C703 1.349 . S
C719 H711 0.950 . S
C719 C717 1.327 . S
C720 C708 1.349 . S
C720 H714 0.950 . S
C720 C721 1.327 . S
C721 H715 0.950 . S
C721 C720 1.327 . S
C721 C725 1.429 . S
C722 C705 1.574 . S
C722 H716 0.949 . S
C722 C726 1.368 . S
C723 C704 1.429 . S
C723 C717 1.429 . S
C723 C724 1.523 . S
C724 C705 1.368 . S
C724 C718 1.368 . S
C724 C723 1.523 . S
C725 C709 1.429 . S
C725 C721 1.429 . S
C725 C726 1.523 . S
C726 C710 1.368 . S
C726 C722 1.368 . S
C726 C725 1.523 . S
H727 C702 0.950 . S
H728 C704 0.950 . S
H729 C705 0.949 . S
H730 C707 0.950 . S
H731 C709 0.950 . S
C732 C733 1.349 . S
C732 C734 1.327 . S
C732 H757 0.950 . S
C733 C732 1.349 . S
C733 C749 1.349 . S
C734 C732 1.327 . S
C734 C753 1.429 . S
C734 H758 0.950 . S
C735 C752 1.574 . S
C735 C754 1.368 . S
C735 H759 0.949 . S
H736 C740 0.949 . S
C737 C738 1.349 . S
C737 C739 1.327 . S
C737 H760 0.950 . S
C738 C737 1.349 . S
C738 C750 1.349 . S
C739 C737 1.327 . S
C739 C755 1.429 . S
C739 H761 0.950 . S
C740 H736 0.949 . S
C740 C748 1.574 . S
C740 C756 1.368 . S
H741 C749 0.950 . S
H742 C747 0.950 . S
H743 C748 0.949 . S
H744 C750 0.950 . S
H745 C751 0.950 . S
H746 C752 0.949 . S
C747 H742 0.950 . S
C747 C749 1.327 . S
C747 C753 1.429 . S
C748 C740 1.574 . S
C748 H743 0.949 . S
C748 C754 1.368 . S
C749 C733 1.349 . S
C749 H741 0.950 . S
C749 C747 1.327 . S
C750 C738 1.349 . S
C750 H744 0.950 . S
C750 C751 1.327 . S
C751 H745 0.950 . S
C751 C750 1.327 . S
C751 C755 1.429 . S
C752 C735 1.574 . S
C752 H746 0.949 . S
C752 C756 1.368 . S
C753 C734 1.429 . S
C753 C747 1.429 . S
C753 C754 1.523 . S
C754 C735 1.368 . S
C754 C748 1.368 . S
C754 C753 1.523 . S
C755 C739 1.429 . S
C755 C751 1.429 . S
C755 C756 1.523 . S
C756 C740 1.368 . S
C756 C752 1.368 . S
C756 C755 1.523 . S
H757 C732 0.950 . S
H758 C734 0.950 . S
H759 C735 0.949 . S
H760 C737 0.950 . S
H761 C739 0.950 . S
C762 C763 1.349 . S
C762 C764 1.327 . S
C762 H787 0.950 . S
C763 C762 1.349 . S
C763 C779 1.349 . S
C764 C762 1.327 . S
C764 C783 1.429 . S
C764 H788 0.950 . S
C765 C782 1.574 . S
C765 C784 1.368 . S
C765 H789 0.949 . S
H766 C770 0.949 . S
C767 C768 1.349 . S
C767 C769 1.327 . S
C767 H790 0.950 . S
C768 C767 1.349 . S
C768 C780 1.349 . S
C769 C767 1.327 . S
C769 C785 1.429 . S
C769 H791 0.950 . S
C770 H766 0.949 . S
C770 C778 1.574 . S
C770 C786 1.368 . S
H771 C779 0.950 . S
H772 C777 0.950 . S
H773 C778 0.949 . S
H774 C780 0.950 . S
H775 C781 0.950 . S
H776 C782 0.949 . S
C777 H772 0.950 . S
C777 C779 1.327 . S
C777 C783 1.429 . S
C778 C770 1.574 . S
C778 H773 0.949 . S
C778 C784 1.368 . S
C779 C763 1.349 . S
C779 H771 0.950 . S
C779 C777 1.327 . S
C780 C768 1.349 . S
C780 H774 0.950 . S
C780 C781 1.327 . S
C781 H775 0.950 . S
C781 C780 1.327 . S
C781 C785 1.429 . S
C782 C765 1.574 . S
C782 H776 0.949 . S
C782 C786 1.368 . S
C783 C764 1.429 . S
C783 C777 1.429 . S
C783 C784 1.523 . S
C784 C765 1.368 . S
C784 C778 1.368 . S
C784 C783 1.523 . S
C785 C769 1.429 . S
C785 C781 1.429 . S
C785 C786 1.523 . S
C786 C770 1.368 . S
C786 C782 1.368 . S
C786 C785 1.523 . S
H787 C762 0.950 . S
H788 C764 0.950 . S
H789 C765 0.949 . S
H790 C767 0.950 . S
H791 C769 0.950 . S
C792 C793 1.349 . S
C792 C794 1.327 . S
C792 H817 0.950 . S
C793 C792 1.349 . S
C793 C809 1.349 . S
C794 C792 1.327 . S
C794 C813 1.429 . S
C794 H818 0.950 . S
C795 C812 1.574 . S
C795 C814 1.368 . S
C795 H819 0.949 . S
H796 C800 0.949 . S
C797 C798 1.349 . S
C797 C799 1.327 . S
C797 H820 0.950 . S
C798 C797 1.349 . S
C798 C810 1.349 . S
C799 C797 1.327 . S
C799 C815 1.429 . S
C799 H821 0.950 . S
C800 H796 0.949 . S
C800 C808 1.574 . S
C800 C816 1.368 . S
H801 C809 0.950 . S
H802 C807 0.950 . S
H803 C808 0.949 . S
H804 C810 0.950 . S
H805 C811 0.950 . S
H806 C812 0.949 . S
C807 H802 0.950 . S
C807 C809 1.327 . S
C807 C813 1.429 . S
C808 C800 1.574 . S
C808 H803 0.949 . S
C808 C814 1.368 . S
C809 C793 1.349 . S
C809 H801 0.950 . S
C809 C807 1.327 . S
C810 C798 1.349 . S
C810 H804 0.950 . S
C810 C811 1.327 . S
C811 H805 0.950 . S
C811 C810 1.327 . S
C811 C815 1.429 . S
C812 C795 1.574 . S
C812 H806 0.949 . S
C812 C816 1.368 . S
C813 C794 1.429 . S
C813 C807 1.429 . S
C813 C814 1.523 . S
C814 C795 1.368 . S
C814 C808 1.368 . S
C814 C813 1.523 . S
C815 C799 1.429 . S
C815 C811 1.429 . S
C815 C816 1.523 . S
C816 C800 1.368 . S
C816 C812 1.368 . S
C816 C815 1.523 . S
H817 C792 0.950 . S
H818 C794 0.950 . S
H819 C795 0.949 . S
H820 C797 0.950 . S
H821 C799 0.950 . S
C822 C823 1.349 . S
C822 C824 1.327 . S
C822 H847 0.950 . S
C823 C822 1.349 . S
C823 C839 1.349 . S
C824 C822 1.327 . S
C824 C843 1.429 . S
C824 H848 0.950 . S
C825 C842 1.574 . S
C825 C844 1.368 . S
C825 H849 0.949 . S
H826 C830 0.949 . S
C827 C828 1.349 . S
C827 C829 1.327 . S
C827 H850 0.950 . S
C828 C827 1.349 . S
C828 C840 1.349 . S
C829 C827 1.327 . S
C829 C845 1.429 . S
C829 H851 0.950 . S
C830 H826 0.949 . S
C830 C838 1.574 . S
C830 C846 1.368 . S
H831 C839 0.950 . S
H832 C837 0.950 . S
H833 C838 0.949 . S
H834 C840 0.950 . S
H835 C841 0.950 . S
H836 C842 0.949 . S
C837 H832 0.950 . S
C837 C839 1.327 . S
C837 C843 1.429 . S
C838 C830 1.574 . S
C838 H833 0.949 . S
C838 C844 1.368 . S
C839 C823 1.349 . S
C839 H831 0.950 . S
C839 C837 1.327 . S
C840 C828 1.349 . S
C840 H834 0.950 . S
C840 C841 1.327 . S
C841 H835 0.950 . S
C841 C840 1.327 . S
C841 C845 1.429 . S
C842 C825 1.574 . S
C842 H836 0.949 . S
C842 C846 1.368 . S
C843 C824 1.429 . S
C843 C837 1.429 . S
C843 C844 1.523 . S
C844 C825 1.368 . S
C844 C838 1.368 . S
C844 C843 1.523 . S
C845 C829 1.429 . S
C845 C841 1.429 . S
C845 C846 1.523 . S
C846 C830 1.368 . S
C846 C842 1.368 . S
C846 C845 1.523 . S
H847 C822 0.950 . S
H848 C824 0.950 . S
H849 C825 0.949 . S
H850 C827 0.950 . S
H851 C829 0.950 . S
C852 C853 1.349 . S
C852 C854 1.327 . S
C852 H877 0.950 . S
C853 C852 1.349 . S
C853 C869 1.349 . S
C854 C852 1.327 . S
C854 C873 1.429 . S
C854 H878 0.950 . S
C855 C872 1.574 . S
C855 C874 1.368 . S
C855 H879 0.949 . S
H856 C860 0.949 . S
C857 C858 1.349 . S
C857 C859 1.327 . S
C857 H880 0.950 . S
C858 C857 1.349 . S
C858 C870 1.349 . S
C859 C857 1.327 . S
C859 C875 1.429 . S
C859 H881 0.950 . S
C860 H856 0.949 . S
C860 C868 1.574 . S
C860 C876 1.368 . S
H861 C869 0.950 . S
H862 C867 0.950 . S
H863 C868 0.949 . S
H864 C870 0.950 . S
H865 C871 0.950 . S
H866 C872 0.949 . S
C867 H862 0.950 . S
C867 C869 1.327 . S
C867 C873 1.429 . S
C868 C860 1.574 . S
C868 H863 0.949 . S
C868 C874 1.368 . S
C869 C853 1.349 . S
C869 H861 0.950 . S
C869 C867 1.327 . S
C870 C858 1.349 . S
C870 H864 0.950 . S
C870 C871 1.327 . S
C871 H865 0.950 . S
C871 C870 1.327 . S
C871 C875 1.429 . S
C872 C855 1.574 . S
C872 H866 0.949 . S
C872 C876 1.368 . S
C873 C854 1.429 . S
C873 C867 1.429 . S
C873 C874 1.523 . S
C874 C855 1.368 . S
C874 C868 1.368 . S
C874 C873 1.523 . S
C875 C859 1.429 . S
C875 C871 1.429 . S
C875 C876 1.523 . S
C876 C860 1.368 . S
C876 C872 1.368 . S
C876 C875 1.523 . S
H877 C852 0.950 . S
H878 C854 0.950 . S
H879 C855 0.949 . S
H880 C857 0.950 . S
H881 C859 0.950 . S
C882 C883 1.349 . S
C882 C884 1.327 . S
C882 H907 0.950 . S
C883 C882 1.349 . S
C883 C899 1.349 . S
C884 C882 1.327 . S
C884 C903 1.429 . S
C884 H908 0.950 . S
C885 C902 1.574 . S
C885 C904 1.368 . S
C885 H909 0.949 . S
H886 C890 0.949 . S
C887 C888 1.349 . S
C887 C889 1.327 . S
C887 H910 0.950 . S
C888 C887 1.349 . S
C888 C900 1.349 . S
C889 C887 1.327 . S
C889 C905 1.429 . S
C889 H911 0.950 . S
C890 H886 0.949 . S
C890 C898 1.574 . S
C890 C906 1.368 . S
H891 C899 0.950 . S
H892 C897 0.950 . S
H893 C898 0.949 . S
H894 C900 0.950 . S
H895 C901 0.950 . S
H896 C902 0.949 . S
C897 H892 0.950 . S
C897 C899 1.327 . S
C897 C903 1.429 . S
C898 C890 1.574 . S
C898 H893 0.949 . S
C898 C904 1.368 . S
C899 C883 1.349 . S
C899 H891 0.950 . S
C899 C897 1.327 . S
C900 C888 1.349 . S
C900 H894 0.950 . S
C900 C901 1.327 . S
C901 H895 0.950 . S
C901 C900 1.327 . S
C901 C905 1.429 . S
C902 C885 1.574 . S
C902 H896 0.949 . S
C902 C906 1.368 . S
C903 C884 1.429 . S
C903 C897 1.429 . S
C903 C904 1.523 . S
C904 C885 1.368 . S
C904 C898 1.368 . S
C904 C903 1.523 . S
C905 C889 1.429 . S
C905 C901 1.429 . S
C905 C906 1.523 . S
C906 C890 1.368 . S
C906 C902 1.368 . S
C906 C905 1.523 . S
H907 C882 0.950 . S
H908 C884 0.950 . S
H909 C885 0.949 . S
H910 C887 0.950 . S
H911 C889 0.950 . S
C912 C913 1.349 . S
C912 C914 1.327 . S
C912 H937 0.950 . S
C913 C912 1.349 . S
C913 C929 1.349 . S
C914 C912 1.327 . S
C914 C933 1.429 . S
C914 H938 0.950 . S
C915 C932 1.574 . S
C915 C934 1.368 . S
C915 H939 0.949 . S
H916 C920 0.949 . S
C917 C918 1.349 . S
C917 C919 1.327 . S
C917 H940 0.950 . S
C918 C917 1.349 . S
C918 C930 1.349 . S
C919 C917 1.327 . S
C919 C935 1.429 . S
C919 H941 0.950 . S
C920 H916 0.949 . S
C920 C928 1.574 . S
C920 C936 1.368 . S
H921 C929 0.950 . S
H922 C927 0.950 . S
H923 C928 0.949 . S
H924 C930 0.950 . S
H925 C931 0.950 . S
H926 C932 0.949 . S
C927 H922 0.950 . S
C927 C929 1.327 . S
C927 C933 1.429 . S
C928 C920 1.574 . S
C928 H923 0.949 . S
C928 C934 1.368 . S
C929 C913 1.349 . S
C929 H921 0.950 . S
C929 C927 1.327 . S
C930 C918 1.349 . S
C930 H924 0.950 . S
C930 C931 1.327 . S
C931 H925 0.950 . S
C931 C930 1.327 . S
C931 C935 1.429 . S
C932 C915 1.574 . S
C932 H926 0.949 . S
C932 C936 1.368 . S
C933 C914 1.429 . S
C933 C927 1.429 . S
C933 C934 1.523 . S
C934 C915 1.368 . S
C934 C928 1.368 . S
C934 C933 1.523 . S
C935 C919 1.429 . S
C935 C931 1.429 . S
C935 C936 1.523 . S
C936 C920 1.368 . S
C936 C932 1.368 . S
C936 C935 1.523 . S
H937 C912 0.950 . S
H938 C914 0.950 . S
H939 C915 0.949 . S
H940 C917 0.950 . S
H941 C919 0.950 . S
C942 C943 1.349 . S
C942 C944 1.327 . S
C942 H967 0.950 . S
C943 C942 1.349 . S
C943 C959 1.349 . S
C944 C942 1.327 . S
C944 C963 1.429 . S
C944 H968 0.950 . S
C945 C962 1.574 . S
C945 C964 1.368 . S
C945 H969 0.949 . S
H946 C950 0.949 . S
C947 C948 1.349 . S
C947 C949 1.327 . S
C947 H970 0.950 . S
C948 C947 1.349 . S
C948 C960 1.349 . S
C949 C947 1.327 . S
C949 C965 1.429 . S
C949 H971 0.950 . S
C950 H946 0.949 . S
C950 C958 1.574 . S
C950 C966 1.368 . S
H951 C959 0.950 . S
H952 C957 0.950 . S
H953 C958 0.949 . S
H954 C960 0.950 . S
H955 C961 0.950 . S
H956 C962 0.949 . S
C957 H952 0.950 . S
C957 C959 1.327 . S
C957 C963 1.429 . S
C958 C950 1.574 . S
C958 H953 0.949 . S
C958 C964 1.368 . S
C959 C943 1.349 . S
C959 H951 0.950 . S
C959 C957 1.327 . S
C960 C948 1.349 . S
C960 H954 0.950 . S
C960 C961 1.327 . S
C961 H955 0.950 . S
C961 C960 1.327 . S
C961 C965 1.429 . S
C962 C945 1.574 . S
C962 H956 0.949 . S
C962 C966 1.368 . S
C963 C944 1.429 . S
C963 C957 1.429 . S
C963 C964 1.523 . S
C964 C945 1.368 . S
C964 C958 1.368 . S
C964 C963 1.523 . S
C965 C949 1.429 . S
C965 C961 1.429 . S
C965 C966 1.523 . S
C966 C950 1.368 . S
C966 C962 1.368 . S
C966 C965 1.523 . S
H967 C942 0.950 . S
H968 C944 0.950 . S
H969 C945 0.949 . S
H970 C947 0.950 . S
H971 C949 0.950 . S
C972 C973 1.349 . S
C972 C974 1.327 . S
C972 H997 0.950 . S
C973 C972 1.349 . S
C973 C989 1.349 . S
C974 C972 1.327 . S
C974 C993 1.429 . S
C974 H998 0.950 . S
C975 C992 1.574 . S
C975 C994 1.368 . S
C975 H999 0.949 . S
H976 C980 0.949 . S
C977 C978 1.349 . S
C977 C979 1.327 . S
C977 H1000 0.950 . S
C978 C977 1.349 . S
C978 C990 1.349 . S
C979 C977 1.327 . S
C979 C995 1.429 . S
C979 H1001 0.950 . S
C980 H976 0.949 . S
C980 C988 1.574 . S
C980 C996 1.368 . S
H981 C989 0.950 . S
H982 C987 0.950 . S
H983 C988 0.949 . S
H984 C990 0.950 . S
H985 C991 0.950 . S
H986 C992 0.949 . S
C987 H982 0.950 . S
C987 C989 1.327 . S
C987 C993 1.429 . S
C988 C980 1.574 . S
C988 H983 0.949 . S
C988 C994 1.368 . S
C989 C973 1.349 . S
C989 H981 0.950 . S
C989 C987 1.327 . S
C990 C978 1.349 . S
C990 H984 0.950 . S
C990 C991 1.327 . S
C991 H985 0.950 . S
C991 C990 1.327 . S
C991 C995 1.429 . S
C992 C975 1.574 . S
C992 H986 0.949 . S
C992 C996 1.368 . S
C993 C974 1.429 . S
C993 C987 1.429 . S
C993 C994 1.523 . S
C994 C975 1.368 . S
C994 C988 1.368 . S
C994 C993 1.523 . S
C995 C979 1.429 . S
C995 C991 1.429 . S
C995 C996 1.523 . S
C996 C980 1.368 . S
C996 C992 1.368 . S
C996 C995 1.523 . S
H997 C972 0.950 . S
H998 C974 0.950 . S
H999 C975 0.949 . S
H1000 C977 0.950 . S
H1001 C979 0.950 . S
C1002 C1003 1.349 . S
C1002 C1004 1.327 . S
C1002 H1027 0.950 . S
C1003 C1002 1.349 . S
C1003 C1019 1.349 . S
C1004 C1002 1.327 . S
C1004 C1023 1.429 . S
C1004 H1028 0.950 . S
C1005 C1022 1.574 . S
C1005 C1024 1.368 . S
C1005 H1029 0.949 . S
H1006 C1010 0.949 . S
C1007 C1008 1.349 . S
C1007 C1009 1.327 . S
C1007 H1030 0.950 . S
C1008 C1007 1.349 . S
C1008 C1020 1.349 . S
C1009 C1007 1.327 . S
C1009 C1025 1.429 . S
C1009 H1031 0.950 . S
C1010 H1006 0.949 . S
C1010 C1018 1.574 . S
C1010 C1026 1.368 . S
H1011 C1019 0.950 . S
H1012 C1017 0.950 . S
H1013 C1018 0.949 . S
H1014 C1020 0.950 . S
H1015 C1021 0.950 . S
H1016 C1022 0.949 . S
C1017 H1012 0.950 . S
C1017 C1019 1.327 . S
C1017 C1023 1.429 . S
C1018 C1010 1.574 . S
C1018 H1013 0.949 . S
C1018 C1024 1.368 . S
C1019 C1003 1.349 . S
C1019 H1011 0.950 . S
C1019 C1017 1.327 . S
C1020 C1008 1.349 . S
C1020 H1014 0.950 . S
C1020 C1021 1.327 . S
C1021 H1015 0.950 . S
C1021 C1020 1.327 . S
C1021 C1025 1.429 . S
C1022 C1005 1.574 . S
C1022 H1016 0.949 . S
C1022 C1026 1.368 . S
C1023 C1004 1.429 . S
C1023 C1017 1.429 . S
C1023 C1024 1.523 . S
C1024 C1005 1.368 . S
C1024 C1018 1.368 . S
C1024 C1023 1.523 . S
C1025 C1009 1.429 . S
C1025 C1021 1.429 . S
C1025 C1026 1.523 . S
C1026 C1010 1.368 . S
C1026 C1022 1.368 . S
C1026 C1025 1.523 . S
H1027 C1002 0.950 . S
H1028 C1004 0.950 . S
H1029 C1005 0.949 . S
H1030 C1007 0.950 . S
H1031 C1009 0.950 . S
C1032 C1033 1.349 . S
C1032 C1034 1.327 . S
C1032 H1057 0.950 . S
C1033 C1032 1.349 . S
C1033 C1049 1.349 . S
C1034 C1032 1.327 . S
C1034 C1053 1.429 . S
C1034 H1058 0.950 . S
C1035 C1052 1.574 . S
C1035 C1054 1.368 . S
C1035 H1059 0.949 . S
H1036 C1040 0.949 . S
C1037 C1038 1.349 . S
C1037 C1039 1.327 . S
C1037 H1060 0.950 . S
C1038 C1037 1.349 . S
C1038 C1050 1.349 . S
C1039 C1037 1.327 . S
C1039 C1055 1.429 . S
C1039 H1061 0.950 . S
C1040 H1036 0.949 . S
C1040 C1048 1.574 . S
C1040 C1056 1.368 . S
H1041 C1049 0.950 . S
H1042 C1047 0.950 . S
H1043 C1048 0.949 . S
H1044 C1050 0.950 . S
H1045 C1051 0.950 . S
H1046 C1052 0.949 . S
C1047 H1042 0.950 . S
C1047 C1049 1.327 . S
C1047 C1053 1.429 . S
C1048 C1040 1.574 . S
C1048 H1043 0.949 . S
C1048 C1054 1.368 . S
C1049 C1033 1.349 . S
C1049 H1041 0.950 . S
C1049 C1047 1.327 . S
C1050 C1038 1.349 . S
C1050 H1044 0.950 . S
C1050 C1051 1.327 . S
C1051 H1045 0.950 . S
C1051 C1050 1.327 . S
C1051 C1055 1.429 . S
C1052 C1035 1.574 . S
C1052 H1046 0.949 . S
C1052 C1056 1.368 . S
C1053 C1034 1.429 . S
C1053 C1047 1.429 . S
C1053 C1054 1.523 . S
C1054 C1035 1.368 . S
C1054 C1048 1.368 . S
C1054 C1053 1.523 . S
C1055 C1039 1.429 . S
C1055 C1051 1.429 . S
C1055 C1056 1.523 . S
C1056 C1040 1.368 . S
C1056 C1052 1.368 . S
C1056 C1055 1.523 . S
H1057 C1032 0.950 . S
H1058 C1034 0.950 . S
H1059 C1035 0.949 . S
H1060 C1037 0.950 . S
H1061 C1039 0.950 . S
C1062 C1063 1.349 . S
C1062 C1064 1.327 . S
C1062 H1087 0.950 . S
C1063 C1062 1.349 . S
C1063 C1079 1.349 . S
C1064 C1062 1.327 . S
C1064 C1083 1.429 . S
C1064 H1088 0.950 . S
C1065 C1082 1.574 . S
C1065 C1084 1.368 . S
C1065 H1089 0.949 . S
H1066 C1070 0.949 . S
C1067 C1068 1.349 . S
C1067 C1069 1.327 . S
C1067 H1090 0.950 . S
C1068 C1067 1.349 . S
C1068 C1080 1.349 . S
C1069 C1067 1.327 . S
C1069 C1085 1.429 . S
C1069 H1091 0.950 . S
C1070 H1066 0.949 . S
C1070 C1078 1.574 . S
C1070 C1086 1.368 . S
H1071 C1079 0.950 . S
H1072 C1077 0.950 . S
H1073 C1078 0.949 . S
H1074 C1080 0.950 . S
H1075 C1081 0.950 . S
H1076 C1082 0.949 . S
C1077 H1072 0.950 . S
C1077 C1079 1.327 . S
C1077 C1083 1.429 . S
C1078 C1070 1.574 . S
C1078 H1073 0.949 . S
C1078 C1084 1.368 . S
C1079 C1063 1.349 . S
C1079 H1071 0.950 . S
C1079 C1077 1.327 . S
C1080 C1068 1.349 . S
C1080 H1074 0.950 . S
C1080 C1081 1.327 . S
C1081 H1075 0.950 . S
C1081 C1080 1.327 . S
C1081 C1085 1.429 . S
C1082 C1065 1.574 . S
C1082 H1076 0.949 . S
C1082 C1086 1.368 . S
C1083 C1064 1.429 . S
C1083 C1077 1.429 . S
C1083 C1084 1.523 . S
C1084 C1065 1.368 . S
C1084 C1078 1.368 . S
C1084 C1083 1.523 . S
C1085 C1069 1.429 . S
C1085 C1081 1.429 . S
C1085 C1086 1.523 . S
C1086 C1070 1.368 . S
C1086 C1082 1.368 . S
C1086 C1085 1.523 . S
H1087 C1062 0.950 . S
H1088 C1064 0.950 . S
H1089 C1065 0.949 . S
H1090 C1067 0.950 . S
H1091 C1069 0.950 . S
C1092 C1093 1.349 . S
C1092 C1094 1.327 . S
C1092 H1117 0.950 . S
C1093 C1092 1.349 . S
C1093 C1109 1.349 . S
C1094 C1092 1.327 . S
C1094 C1113 1.429 . S
C1094 H1118 0.950 . S
C1095 C1112 1.574 1_565 S
C1095 C1114 1.368 . S
C1095 H1119 0.949 . S
H1096 C1100 0.949 . S
C1097 C1098 1.349 . S
C1097 C1099 1.327 . S
C1097 H1120 0.950 . S
C1098 C1097 1.349 . S
C1098 C1110 1.349 . S
C1099 C1097 1.327 . S
C1099 C1115 1.429 . S
C1099 H1121 0.950 . S
C1100 H1096 0.949 . S
C1100 C1108 1.574 1_545 S
C1100 C1116 1.368 . S
H1101 C1109 0.950 . S
H1102 C1107 0.950 . S
H1103 C1108 0.949 . S
H1104 C1110 0.950 . S
H1105 C1111 0.950 . S
H1106 C1112 0.949 . S
C1107 H1102 0.950 . S
C1107 C1109 1.327 . S
C1107 C1113 1.429 . S
C1108 C1100 1.574 1_565 S
C1108 H1103 0.949 . S
C1108 C1114 1.368 . S
C1109 C1093 1.349 . S
C1109 H1101 0.950 . S
C1109 C1107 1.327 . S
C1110 C1098 1.349 . S
C1110 H1104 0.950 . S
C1110 C1111 1.327 . S
C1111 H1105 0.950 . S
C1111 C1110 1.327 . S
C1111 C1115 1.429 . S
C1112 C1095 1.574 1_545 S
C1112 H1106 0.949 . S
C1112 C1116 1.368 . S
C1113 C1094 1.429 . S
C1113 C1107 1.429 . S
C1113 C1114 1.523 . S
C1114 C1095 1.368 . S
C1114 C1108 1.368 . S
C1114 C1113 1.523 . S
C1115 C1099 1.429 . S
C1115 C1111 1.429 . S
C1115 C1116 1.523 . S
C1116 C1100 1.368 . S
C1116 C1112 1.368 . S
C1116 C1115 1.523 . S
H1117 C1092 0.950 . S
H1118 C1094 0.950 . S
H1119 C1095 0.949 . S
H1120 C1097 0.950 . S
H1121 C1099 0.950 . S
C1122 C1123 1.349 . S
C1122 C1124 1.327 . S
C1122 H1147 0.950 . S
C1123 C1122 1.349 . S
C1123 C1139 1.349 . S
C1124 C1122 1.327 . S
C1124 C1143 1.429 . S
C1124 H1148 0.950 . S
C1125 C1142 1.574 1_455 S
C1125 C1144 1.368 . S
C1125 H1149 0.949 . S
H1126 C1130 0.949 . S
C1127 C1128 1.349 . S
C1127 C1129 1.327 . S
C1127 H1150 0.950 . S
C1128 C1127 1.349 . S
C1128 C1140 1.349 . S
C1129 C1127 1.327 . S
C1129 C1145 1.429 . S
C1129 H1151 0.950 . S
C1130 H1126 0.949 . S
C1130 C1138 1.574 1_655 S
C1130 C1146 1.368 . S
H1131 C1139 0.950 . S
H1132 C1137 0.950 . S
H1133 C1138 0.949 . S
H1134 C1140 0.950 . S
H1135 C1141 0.950 . S
H1136 C1142 0.949 . S
C1137 H1132 0.950 . S
C1137 C1139 1.327 . S
C1137 C1143 1.429 . S
C1138 C1130 1.574 1_455 S
C1138 H1133 0.949 . S
C1138 C1144 1.368 . S
C1139 C1123 1.349 . S
C1139 H1131 0.950 . S
C1139 C1137 1.327 . S
C1140 C1128 1.349 . S
C1140 H1134 0.950 . S
C1140 C1141 1.327 . S
C1141 H1135 0.950 . S
C1141 C1140 1.327 . S
C1141 C1145 1.429 . S
C1142 C1125 1.574 1_655 S
C1142 H1136 0.949 . S
C1142 C1146 1.368 . S
C1143 C1124 1.429 . S
C1143 C1137 1.429 . S
C1143 C1144 1.523 . S
C1144 C1125 1.368 . S
C1144 C1138 1.368 . S
C1144 C1143 1.523 . S
C1145 C1129 1.429 . S
C1145 C1141 1.429 . S
C1145 C1146 1.523 . S
C1146 C1130 1.368 . S
C1146 C1142 1.368 . S
C1146 C1145 1.523 . S
H1147 C1122 0.950 . S
H1148 C1124 0.950 . S
H1149 C1125 0.949 . S
H1150 C1127 0.950 . S
H1151 C1129 0.950 . S
C1152 C1153 1.349 . S
C1152 C1154 1.327 . S
C1152 H1177 0.950 . S
C1153 C1152 1.349 . S
C1153 C1169 1.349 . S
C1154 C1152 1.327 . S
C1154 C1173 1.429 . S
C1154 H1178 0.950 . S
C1155 C1172 1.574 1_565 S
C1155 C1174 1.368 . S
C1155 H1179 0.949 . S
H1156 C1160 0.949 . S
C1157 C1158 1.349 . S
C1157 C1159 1.327 . S
C1157 H1180 0.950 . S
C1158 C1157 1.349 . S
C1158 C1170 1.349 . S
C1159 C1157 1.327 . S
C1159 C1175 1.429 . S
C1159 H1181 0.950 . S
C1160 H1156 0.949 . S
C1160 C1168 1.574 1_545 S
C1160 C1176 1.368 . S
H1161 C1169 0.950 . S
H1162 C1167 0.950 . S
H1163 C1168 0.949 . S
H1164 C1170 0.950 . S
H1165 C1171 0.950 . S
H1166 C1172 0.949 . S
C1167 H1162 0.950 . S
C1167 C1169 1.327 . S
C1167 C1173 1.429 . S
C1168 C1160 1.574 1_565 S
C1168 H1163 0.949 . S
C1168 C1174 1.368 . S
C1169 C1153 1.349 . S
C1169 H1161 0.950 . S
C1169 C1167 1.327 . S
C1170 C1158 1.349 . S
C1170 H1164 0.950 . S
C1170 C1171 1.327 . S
C1171 H1165 0.950 . S
C1171 C1170 1.327 . S
C1171 C1175 1.429 . S
C1172 C1155 1.574 1_545 S
C1172 H1166 0.949 . S
C1172 C1176 1.368 . S
C1173 C1154 1.429 . S
C1173 C1167 1.429 . S
C1173 C1174 1.523 . S
C1174 C1155 1.368 . S
C1174 C1168 1.368 . S
C1174 C1173 1.523 . S
C1175 C1159 1.429 . S
C1175 C1171 1.429 . S
C1175 C1176 1.523 . S
C1176 C1160 1.368 . S
C1176 C1172 1.368 . S
C1176 C1175 1.523 . S
H1177 C1152 0.950 . S
H1178 C1154 0.950 . S
H1179 C1155 0.949 . S
H1180 C1157 0.950 . S
H1181 C1159 0.950 . S
C1182 C1183 1.349 . S
C1182 C1184 1.327 . S
C1182 H1207 0.950 . S
C1183 C1182 1.349 . S
C1183 C1199 1.349 . S
C1184 C1182 1.327 . S
C1184 C1203 1.429 . S
C1184 H1208 0.950 . S
C1185 C1202 1.574 1_655 S
C1185 C1204 1.368 . S
C1185 H1209 0.949 . S
H1186 C1190 0.949 . S
C1187 C1188 1.349 . S
C1187 C1189 1.327 . S
C1187 H1210 0.950 . S
C1188 C1187 1.349 . S
C1188 C1200 1.349 . S
C1189 C1187 1.327 . S
C1189 C1205 1.429 . S
C1189 H1211 0.950 . S
C1190 H1186 0.949 . S
C1190 C1198 1.574 1_455 S
C1190 C1206 1.368 . S
H1191 C1199 0.950 . S
H1192 C1197 0.950 . S
H1193 C1198 0.949 . S
H1194 C1200 0.950 . S
H1195 C1201 0.950 . S
H1196 C1202 0.949 . S
C1197 H1192 0.950 . S
C1197 C1199 1.327 . S
C1197 C1203 1.429 . S
C1198 C1190 1.574 1_655 S
C1198 H1193 0.949 . S
C1198 C1204 1.368 . S
C1199 C1183 1.349 . S
C1199 H1191 0.950 . S
C1199 C1197 1.327 . S
C1200 C1188 1.349 . S
C1200 H1194 0.950 . S
C1200 C1201 1.327 . S
C1201 H1195 0.950 . S
C1201 C1200 1.327 . S
C1201 C1205 1.429 . S
C1202 C1185 1.574 1_455 S
C1202 H1196 0.949 . S
C1202 C1206 1.368 . S
C1203 C1184 1.429 . S
C1203 C1197 1.429 . S
C1203 C1204 1.523 . S
C1204 C1185 1.368 . S
C1204 C1198 1.368 . S
C1204 C1203 1.523 . S
C1205 C1189 1.429 . S
C1205 C1201 1.429 . S
C1205 C1206 1.523 . S
C1206 C1190 1.368 . S
C1206 C1202 1.368 . S
C1206 C1205 1.523 . S
H1207 C1182 0.950 . S
H1208 C1184 0.950 . S
H1209 C1185 0.949 . S
H1210 C1187 0.950 . S
H1211 C1189 0.950 . S
C1212 C1213 1.349 . S
C1212 C1214 1.327 . S
C1212 H1237 0.950 . S
C1213 C1212 1.349 . S
C1213 C1229 1.349 . S
C1214 C1212 1.327 . S
C1214 C1233 1.429 . S
C1214 H1238 0.950 . S
C1215 C1232 1.574 . S
C1215 C1234 1.368 . S
C1215 H1239 0.949 . S
H1216 C1220 0.949 . S
C1217 C1218 1.349 . S
C1217 C1219 1.327 . S
C1217 H1240 0.950 . S
C1218 C1217 1.349 . S
C1218 C1230 1.349 . S
C1219 C1217 1.327 . S
C1219 C1235 1.429 . S
C1219 H1241 0.950 . S
C1220 H1216 0.949 . S
C1220 C1228 1.574 . S
C1220 C1236 1.368 . S
H1221 C1229 0.950 . S
H1222 C1227 0.950 . S
H1223 C1228 0.949 . S
H1224 C1230 0.950 . S
H1225 C1231 0.950 . S
H1226 C1232 0.949 . S
C1227 H1222 0.950 . S
C1227 C1229 1.327 . S
C1227 C1233 1.429 . S
C1228 C1220 1.574 . S
C1228 H1223 0.949 . S
C1228 C1234 1.368 . S
C1229 C1213 1.349 . S
C1229 H1221 0.950 . S
C1229 C1227 1.327 . S
C1230 C1218 1.349 . S
C1230 H1224 0.950 . S
C1230 C1231 1.327 . S
C1231 H1225 0.950 . S
C1231 C1230 1.327 . S
C1231 C1235 1.429 . S
C1232 C1215 1.574 . S
C1232 H1226 0.949 . S
C1232 C1236 1.368 . S
C1233 C1214 1.429 . S
C1233 C1227 1.429 . S
C1233 C1234 1.523 . S
C1234 C1215 1.368 . S
C1234 C1228 1.368 . S
C1234 C1233 1.523 . S
C1235 C1219 1.429 . S
C1235 C1231 1.429 . S
C1235 C1236 1.523 . S
C1236 C1220 1.368 . S
C1236 C1232 1.368 . S
C1236 C1235 1.523 . S
H1237 C1212 0.950 . S
H1238 C1214 0.950 . S
H1239 C1215 0.949 . S
H1240 C1217 0.950 . S
H1241 C1219 0.950 . S
C1242 C1243 1.349 . S
C1242 C1244 1.327 . S
C1242 H1267 0.950 . S
C1243 C1242 1.349 . S
C1243 C1259 1.349 . S
C1244 C1242 1.327 . S
C1244 C1263 1.429 . S
C1244 H1268 0.950 . S
C1245 C1262 1.574 . S
C1245 C1264 1.368 . S
C1245 H1269 0.949 . S
H1246 C1250 0.949 . S
C1247 C1248 1.349 . S
C1247 C1249 1.327 . S
C1247 H1270 0.950 . S
C1248 C1247 1.349 . S
C1248 C1260 1.349 . S
C1249 C1247 1.327 . S
C1249 C1265 1.429 . S
C1249 H1271 0.950 . S
C1250 H1246 0.949 . S
C1250 C1258 1.574 . S
C1250 C1266 1.368 . S
H1251 C1259 0.950 . S
H1252 C1257 0.950 . S
H1253 C1258 0.949 . S
H1254 C1260 0.950 . S
H1255 C1261 0.950 . S
H1256 C1262 0.949 . S
C1257 H1252 0.950 . S
C1257 C1259 1.327 . S
C1257 C1263 1.429 . S
C1258 C1250 1.574 . S
C1258 H1253 0.949 . S
C1258 C1264 1.368 . S
C1259 C1243 1.349 . S
C1259 H1251 0.950 . S
C1259 C1257 1.327 . S
C1260 C1248 1.349 . S
C1260 H1254 0.950 . S
C1260 C1261 1.327 . S
C1261 H1255 0.950 . S
C1261 C1260 1.327 . S
C1261 C1265 1.429 . S
C1262 C1245 1.574 . S
C1262 H1256 0.949 . S
C1262 C1266 1.368 . S
C1263 C1244 1.429 . S
C1263 C1257 1.429 . S
C1263 C1264 1.523 . S
C1264 C1245 1.368 . S
C1264 C1258 1.368 . S
C1264 C1263 1.523 . S
C1265 C1249 1.429 . S
C1265 C1261 1.429 . S
C1265 C1266 1.523 . S
C1266 C1250 1.368 . S
C1266 C1262 1.368 . S
C1266 C1265 1.523 . S
H1267 C1242 0.950 . S
H1268 C1244 0.950 . S
H1269 C1245 0.949 . S
H1270 C1247 0.950 . S
H1271 C1249 0.950 . S
C1272 C1273 1.349 . S
C1272 C1274 1.327 . S
C1272 H1297 0.950 . S
C1273 C1272 1.349 . S
C1273 C1289 1.349 . S
C1274 C1272 1.327 . S
C1274 C1293 1.429 . S
C1274 H1298 0.950 . S
C1275 C1292 1.574 . S
C1275 C1294 1.368 . S
C1275 H1299 0.949 . S
H1276 C1280 0.949 . S
C1277 C1278 1.349 . S
C1277 C1279 1.327 . S
C1277 H1300 0.950 . S
C1278 C1277 1.349 . S
C1278 C1290 1.349 . S
C1279 C1277 1.327 . S
C1279 C1295 1.429 . S
C1279 H1301 0.950 . S
C1280 H1276 0.949 . S
C1280 C1288 1.574 . S
C1280 C1296 1.368 . S
H1281 C1289 0.950 . S
H1282 C1287 0.950 . S
H1283 C1288 0.949 . S
H1284 C1290 0.950 . S
H1285 C1291 0.950 . S
H1286 C1292 0.949 . S
C1287 H1282 0.950 . S
C1287 C1289 1.327 . S
C1287 C1293 1.429 . S
C1288 C1280 1.574 . S
C1288 H1283 0.949 . S
C1288 C1294 1.368 . S
C1289 C1273 1.349 . S
C1289 H1281 0.950 . S
C1289 C1287 1.327 . S
C1290 C1278 1.349 . S
C1290 H1284 0.950 . S
C1290 C1291 1.327 . S
C1291 H1285 0.950 . S
C1291 C1290 1.327 . S
C1291 C1295 1.429 . S
C1292 C1275 1.574 . S
C1292 H1286 0.949 . S
C1292 C1296 1.368 . S
C1293 C1274 1.429 . S
C1293 C1287 1.429 . S
C1293 C1294 1.523 . S
C1294 C1275 1.368 . S
C1294 C1288 1.368 . S
C1294 C1293 1.523 . S
C1295 C1279 1.429 . S
C1295 C1291 1.429 . S
C1295 C1296 1.523 . S
C1296 C1280 1.368 . S
C1296 C1292 1.368 . S
C1296 C1295 1.523 . S
H1297 C1272 0.950 . S
H1298 C1274 0.950 . S
H1299 C1275 0.949 . S
H1300 C1277 0.950 . S
H1301 C1279 0.950 . S
C1302 C1303 1.349 . S
C1302 C1304 1.327 . S
C1302 H1327 0.950 . S
C1303 C1302 1.349 . S
C1303 C1319 1.349 . S
C1304 C1302 1.327 . S
C1304 C1323 1.429 . S
C1304 H1328 0.950 . S
C1305 C1322 1.574 1_554 S
C1305 C1324 1.368 . S
C1305 H1329 0.949 . S
H1306 C1310 0.949 . S
C1307 C1308 1.349 . S
C1307 C1309 1.327 . S
C1307 H1330 0.950 . S
C1308 C1307 1.349 . S
C1308 C1320 1.349 . S
C1309 C1307 1.327 . S
C1309 C1325 1.429 . S
C1309 H1331 0.950 . S
C1310 H1306 0.949 . S
C1310 C1318 1.574 1_556 S
C1310 C1326 1.368 . S
H1311 C1319 0.950 . S
H1312 C1317 0.950 . S
H1313 C1318 0.949 . S
H1314 C1320 0.950 . S
H1315 C1321 0.950 . S
H1316 C1322 0.949 . S
C1317 H1312 0.950 . S
C1317 C1319 1.327 . S
C1317 C1323 1.429 . S
C1318 C1310 1.574 1_554 S
C1318 H1313 0.949 . S
C1318 C1324 1.368 . S
C1319 C1303 1.349 . S
C1319 H1311 0.950 . S
C1319 C1317 1.327 . S
C1320 C1308 1.349 . S
C1320 H1314 0.950 . S
C1320 C1321 1.327 . S
C1321 H1315 0.950 . S
C1321 C1320 1.327 . S
C1321 C1325 1.429 . S
C1322 C1305 1.574 1_556 S
C1322 H1316 0.949 . S
C1322 C1326 1.368 . S
C1323 C1304 1.429 . S
C1323 C1317 1.429 . S
C1323 C1324 1.523 . S
C1324 C1305 1.368 . S
C1324 C1318 1.368 . S
C1324 C1323 1.523 . S
C1325 C1309 1.429 . S
C1325 C1321 1.429 . S
C1325 C1326 1.523 . S
C1326 C1310 1.368 . S
C1326 C1322 1.368 . S
C1326 C1325 1.523 . S
H1327 C1302 0.950 . S
H1328 C1304 0.950 . S
H1329 C1305 0.949 . S
H1330 C1307 0.950 . S
H1331 C1309 0.950 . S
C1332 C1333 1.349 . S
C1332 C1334 1.327 . S
C1332 H1357 0.950 . S
C1333 C1332 1.349 . S
C1333 C1349 1.349 . S
C1334 C1332 1.327 . S
C1334 C1353 1.429 . S
C1334 H1358 0.950 . S
C1335 C1352 1.574 . S
C1335 C1354 1.368 . S
C1335 H1359 0.949 . S
H1336 C1340 0.949 . S
C1337 C1338 1.349 . S
C1337 C1339 1.327 . S
C1337 H1360 0.950 . S
C1338 C1337 1.349 . S
C1338 C1350 1.349 . S
C1339 C1337 1.327 . S
C1339 C1355 1.429 . S
C1339 H1361 0.950 . S
C1340 H1336 0.949 . S
C1340 C1348 1.574 . S
C1340 C1356 1.368 . S
H1341 C1349 0.950 . S
H1342 C1347 0.950 . S
H1343 C1348 0.949 . S
H1344 C1350 0.950 . S
H1345 C1351 0.950 . S
H1346 C1352 0.949 . S
C1347 H1342 0.950 . S
C1347 C1349 1.327 . S
C1347 C1353 1.429 . S
C1348 C1340 1.574 . S
C1348 H1343 0.949 . S
C1348 C1354 1.368 . S
C1349 C1333 1.349 . S
C1349 H1341 0.950 . S
C1349 C1347 1.327 . S
C1350 C1338 1.349 . S
C1350 H1344 0.950 . S
C1350 C1351 1.327 . S
C1351 H1345 0.950 . S
C1351 C1350 1.327 . S
C1351 C1355 1.429 . S
C1352 C1335 1.574 . S
C1352 H1346 0.949 . S
C1352 C1356 1.368 . S
C1353 C1334 1.429 . S
C1353 C1347 1.429 . S
C1353 C1354 1.523 . S
C1354 C1335 1.368 . S
C1354 C1348 1.368 . S
C1354 C1353 1.523 . S
C1355 C1339 1.429 . S
C1355 C1351 1.429 . S
C1355 C1356 1.523 . S
C1356 C1340 1.368 . S
C1356 C1352 1.368 . S
C1356 C1355 1.523 . S
H1357 C1332 0.950 . S
H1358 C1334 0.950 . S
H1359 C1335 0.949 . S
H1360 C1337 0.950 . S
H1361 C1339 0.950 . S
C1362 C1363 1.349 . S
C1362 C1364 1.327 . S
C1362 H1387 0.950 . S
C1363 C1362 1.349 . S
C1363 C1379 1.349 . S
C1364 C1362 1.327 . S
C1364 C1383 1.429 . S
C1364 H1388 0.950 . S
C1365 C1382 1.574 1_556 S
C1365 C1384 1.368 . S
C1365 H1389 0.949 . S
H1366 C1370 0.949 . S
C1367 C1368 1.349 . S
C1367 C1369 1.327 . S
C1367 H1390 0.950 . S
C1368 C1367 1.349 . S
C1368 C1380 1.349 . S
C1369 C1367 1.327 . S
C1369 C1385 1.429 . S
C1369 H1391 0.950 . S
C1370 H1366 0.949 . S
C1370 C1378 1.574 1_554 S
C1370 C1386 1.368 . S
H1371 C1379 0.950 . S
H1372 C1377 0.950 . S
H1373 C1378 0.949 . S
H1374 C1380 0.950 . S
H1375 C1381 0.950 . S
H1376 C1382 0.949 . S
C1377 H1372 0.950 . S
C1377 C1379 1.327 . S
C1377 C1383 1.429 . S
C1378 C1370 1.574 1_556 S
C1378 H1373 0.949 . S
C1378 C1384 1.368 . S
C1379 C1363 1.349 . S
C1379 H1371 0.950 . S
C1379 C1377 1.327 . S
C1380 C1368 1.349 . S
C1380 H1374 0.950 . S
C1380 C1381 1.327 . S
C1381 H1375 0.950 . S
C1381 C1380 1.327 . S
C1381 C1385 1.429 . S
C1382 C1365 1.574 1_554 S
C1382 H1376 0.949 . S
C1382 C1386 1.368 . S
C1383 C1364 1.429 . S
C1383 C1377 1.429 . S
C1383 C1384 1.523 . S
C1384 C1365 1.368 . S
C1384 C1378 1.368 . S
C1384 C1383 1.523 . S
C1385 C1369 1.429 . S
C1385 C1381 1.429 . S
C1385 C1386 1.523 . S
C1386 C1370 1.368 . S
C1386 C1382 1.368 . S
C1386 C1385 1.523 . S
H1387 C1362 0.950 . S
H1388 C1364 0.950 . S
H1389 C1365 0.949 . S
H1390 C1367 0.950 . S
H1391 C1369 0.950 . S
C1392 C1393 1.349 . S
C1392 C1394 1.327 . S
C1392 H1417 0.950 . S
C1393 C1392 1.349 . S
C1393 C1409 1.349 . S
C1394 C1392 1.327 . S
C1394 C1413 1.429 . S
C1394 H1418 0.950 . S
C1395 C1412 1.574 . S
C1395 C1414 1.368 . S
C1395 H1419 0.949 . S
H1396 C1400 0.949 . S
C1397 C1398 1.349 . S
C1397 C1399 1.327 . S
C1397 H1420 0.950 . S
C1398 C1397 1.349 . S
C1398 C1410 1.349 . S
C1399 C1397 1.327 . S
C1399 C1415 1.429 . S
C1399 H1421 0.950 . S
C1400 H1396 0.949 . S
C1400 C1408 1.574 . S
C1400 C1416 1.368 . S
H1401 C1409 0.950 . S
H1402 C1407 0.950 . S
H1403 C1408 0.949 . S
H1404 C1410 0.950 . S
H1405 C1411 0.950 . S
H1406 C1412 0.949 . S
C1407 H1402 0.950 . S
C1407 C1409 1.327 . S
C1407 C1413 1.429 . S
C1408 C1400 1.574 . S
C1408 H1403 0.949 . S
C1408 C1414 1.368 . S
C1409 C1393 1.349 . S
C1409 H1401 0.950 . S
C1409 C1407 1.327 . S
C1410 C1398 1.349 . S
C1410 H1404 0.950 . S
C1410 C1411 1.327 . S
C1411 H1405 0.950 . S
C1411 C1410 1.327 . S
C1411 C1415 1.429 . S
C1412 C1395 1.574 . S
C1412 H1406 0.949 . S
C1412 C1416 1.368 . S
C1413 C1394 1.429 . S
C1413 C1407 1.429 . S
C1413 C1414 1.523 . S
C1414 C1395 1.368 . S
C1414 C1408 1.368 . S
C1414 C1413 1.523 . S
C1415 C1399 1.429 . S
C1415 C1411 1.429 . S
C1415 C1416 1.523 . S
C1416 C1400 1.368 . S
C1416 C1412 1.368 . S
C1416 C1415 1.523 . S
H1417 C1392 0.950 . S
H1418 C1394 0.950 . S
H1419 C1395 0.949 . S
H1420 C1397 0.950 . S
H1421 C1399 0.950 . S
C1422 C1423 1.349 . S
C1422 C1424 1.327 . S
C1422 H1447 0.950 . S
C1423 C1422 1.349 . S
C1423 C1439 1.349 . S
C1424 C1422 1.327 . S
C1424 C1443 1.429 . S
C1424 H1448 0.950 . S
C1425 C1442 1.574 . S
C1425 C1444 1.368 . S
C1425 H1449 0.949 . S
H1426 C1430 0.949 . S
C1427 C1428 1.349 . S
C1427 C1429 1.327 . S
C1427 H1450 0.950 . S
C1428 C1427 1.349 . S
C1428 C1440 1.349 . S
C1429 C1427 1.327 . S
C1429 C1445 1.429 . S
C1429 H1451 0.950 . S
C1430 H1426 0.949 . S
C1430 C1438 1.574 . S
C1430 C1446 1.368 . S
H1431 C1439 0.950 . S
H1432 C1437 0.950 . S
H1433 C1438 0.949 . S
H1434 C1440 0.950 . S
H1435 C1441 0.950 . S
H1436 C1442 0.949 . S
C1437 H1432 0.950 . S
C1437 C1439 1.327 . S
C1437 C1443 1.429 . S
C1438 C1430 1.574 . S
C1438 H1433 0.949 . S
C1438 C1444 1.368 . S
C1439 C1423 1.349 . S
C1439 H1431 0.950 . S
C1439 C1437 1.327 . S
C1440 C1428 1.349 . S
C1440 H1434 0.950 . S
C1440 C1441 1.327 . S
C1441 H1435 0.950 . S
C1441 C1440 1.327 . S
C1441 C1445 1.429 . S
C1442 C1425 1.574 . S
C1442 H1436 0.949 . S
C1442 C1446 1.368 . S
C1443 C1424 1.429 . S
C1443 C1437 1.429 . S
C1443 C1444 1.523 . S
C1444 C1425 1.368 . S
C1444 C1438 1.368 . S
C1444 C1443 1.523 . S
C1445 C1429 1.429 . S
C1445 C1441 1.429 . S
C1445 C1446 1.523 . S
C1446 C1430 1.368 . S
C1446 C1442 1.368 . S
C1446 C1445 1.523 . S
H1447 C1422 0.950 . S
H1448 C1424 0.950 . S
H1449 C1425 0.949 . S
H1450 C1427 0.950 . S
H1451 C1429 0.950 . S
C1452 C1453 1.349 . S
C1452 C1454 1.327 . S
C1452 H1477 0.950 . S
C1453 C1452 1.349 . S
C1453 C1469 1.349 . S
C1454 C1452 1.327 . S
C1454 C1473 1.429 . S
C1454 H1478 0.950 . S
C1455 C1472 1.574 1_545 S
C1455 C1474 1.368 . S
C1455 H1479 0.949 . S
H1456 C1460 0.949 . S
C1457 C1458 1.349 . S
C1457 C1459 1.327 . S
C1457 H1480 0.950 . S
C1458 C1457 1.349 . S
C1458 C1470 1.349 . S
C1459 C1457 1.327 . S
C1459 C1475 1.429 . S
C1459 H1481 0.950 . S
C1460 H1456 0.949 . S
C1460 C1468 1.574 1_565 S
C1460 C1476 1.368 . S
H1461 C1469 0.950 . S
H1462 C1467 0.950 . S
H1463 C1468 0.949 . S
H1464 C1470 0.950 . S
H1465 C1471 0.950 . S
H1466 C1472 0.949 . S
C1467 H1462 0.950 . S
C1467 C1469 1.327 . S
C1467 C1473 1.429 . S
C1468 C1460 1.574 1_545 S
C1468 H1463 0.949 . S
C1468 C1474 1.368 . S
C1469 C1453 1.349 . S
C1469 H1461 0.950 . S
C1469 C1467 1.327 . S
C1470 C1458 1.349 . S
C1470 H1464 0.950 . S
C1470 C1471 1.327 . S
C1471 H1465 0.950 . S
C1471 C1470 1.327 . S
C1471 C1475 1.429 . S
C1472 C1455 1.574 1_565 S
C1472 H1466 0.949 . S
C1472 C1476 1.368 . S
C1473 C1454 1.429 . S
C1473 C1467 1.429 . S
C1473 C1474 1.523 . S
C1474 C1455 1.368 . S
C1474 C1468 1.368 . S
C1474 C1473 1.523 . S
C1475 C1459 1.429 . S
C1475 C1471 1.429 . S
C1475 C1476 1.523 . S
C1476 C1460 1.368 . S
C1476 C1472 1.368 . S
C1476 C1475 1.523 . S
H1477 C1452 0.950 . S
H1478 C1454 0.950 . S
H1479 C1455 0.949 . S
H1480 C1457 0.950 . S
H1481 C1459 0.950 . S
C1482 C1483 1.349 . S
C1482 C1484 1.327 . S
C1482 H1507 0.950 . S
C1483 C1482 1.349 . S
C1483 C1499 1.349 . S
C1484 C1482 1.327 . S
C1484 C1503 1.429 . S
C1484 H1508 0.950 . S
C1485 C1502 1.574 1_455 S
C1485 C1504 1.368 . S
C1485 H1509 0.949 . S
H1486 C1490 0.949 . S
C1487 C1488 1.349 . S
C1487 C1489 1.327 . S
C1487 H1510 0.950 . S
C1488 C1487 1.349 . S
C1488 C1500 1.349 . S
C1489 C1487 1.327 . S
C1489 C1505 1.429 . S
C1489 H1511 0.950 . S
C1490 H1486 0.949 . S
C1490 C1498 1.574 1_655 S
C1490 C1506 1.368 . S
H1491 C1499 0.950 . S
H1492 C1497 0.950 . S
H1493 C1498 0.949 . S
H1494 C1500 0.950 . S
H1495 C1501 0.950 . S
H1496 C1502 0.949 . S
C1497 H1492 0.950 . S
C1497 C1499 1.327 . S
C1497 C1503 1.429 . S
C1498 C1490 1.574 1_455 S
C1498 H1493 0.949 . S
C1498 C1504 1.368 . S
C1499 C1483 1.349 . S
C1499 H1491 0.950 . S
C1499 C1497 1.327 . S
C1500 C1488 1.349 . S
C1500 H1494 0.950 . S
C1500 C1501 1.327 . S
C1501 H1495 0.950 . S
C1501 C1500 1.327 . S
C1501 C1505 1.429 . S
C1502 C1485 1.574 1_655 S
C1502 H1496 0.949 . S
C1502 C1506 1.368 . S
C1503 C1484 1.429 . S
C1503 C1497 1.429 . S
C1503 C1504 1.523 . S
C1504 C1485 1.368 . S
C1504 C1498 1.368 . S
C1504 C1503 1.523 . S
C1505 C1489 1.429 . S
C1505 C1501 1.429 . S
C1505 C1506 1.523 . S
C1506 C1490 1.368 . S
C1506 C1502 1.368 . S
C1506 C1505 1.523 . S
H1507 C1482 0.950 . S
H1508 C1484 0.950 . S
H1509 C1485 0.949 . S
H1510 C1487 0.950 . S
H1511 C1489 0.950 . S
C1512 C1513 1.349 . S
C1512 C1514 1.327 . S
C1512 H1537 0.950 . S
C1513 C1512 1.349 . S
C1513 C1529 1.349 . S
C1514 C1512 1.327 . S
C1514 C1533 1.429 . S
C1514 H1538 0.950 . S
C1515 C1532 1.574 1_545 S
C1515 C1534 1.368 . S
C1515 H1539 0.949 . S
H1516 C1520 0.949 . S
C1517 C1518 1.349 . S
C1517 C1519 1.327 . S
C1517 H1540 0.950 . S
C1518 C1517 1.349 . S
C1518 C1530 1.349 . S
C1519 C1517 1.327 . S
C1519 C1535 1.429 . S
C1519 H1541 0.950 . S
C1520 H1516 0.949 . S
C1520 C1528 1.574 1_565 S
C1520 C1536 1.368 . S
H1521 C1529 0.950 . S
H1522 C1527 0.950 . S
H1523 C1528 0.949 . S
H1524 C1530 0.950 . S
H1525 C1531 0.950 . S
H1526 C1532 0.949 . S
C1527 H1522 0.950 . S
C1527 C1529 1.327 . S
C1527 C1533 1.429 . S
C1528 C1520 1.574 1_545 S
C1528 H1523 0.949 . S
C1528 C1534 1.368 . S
C1529 C1513 1.349 . S
C1529 H1521 0.950 . S
C1529 C1527 1.327 . S
C1530 C1518 1.349 . S
C1530 H1524 0.950 . S
C1530 C1531 1.327 . S
C1531 H1525 0.950 . S
C1531 C1530 1.327 . S
C1531 C1535 1.429 . S
C1532 C1515 1.574 1_565 S
C1532 H1526 0.949 . S
C1532 C1536 1.368 . S
C1533 C1514 1.429 . S
C1533 C1527 1.429 . S
C1533 C1534 1.523 . S
C1534 C1515 1.368 . S
C1534 C1528 1.368 . S
C1534 C1533 1.523 . S
C1535 C1519 1.429 . S
C1535 C1531 1.429 . S
C1535 C1536 1.523 . S
C1536 C1520 1.368 . S
C1536 C1532 1.368 . S
C1536 C1535 1.523 . S
H1537 C1512 0.950 . S
H1538 C1514 0.950 . S
H1539 C1515 0.949 . S
H1540 C1517 0.950 . S
H1541 C1519 0.950 . S
C1542 C1543 1.349 . S
C1542 C1544 1.327 . S
C1542 H1567 0.950 . S
C1543 C1542 1.349 . S
C1543 C1559 1.349 . S
C1544 C1542 1.327 . S
C1544 C1563 1.429 . S
C1544 H1568 0.950 . S
C1545 C1562 1.574 1_455 S
C1545 C1564 1.368 . S
C1545 H1569 0.949 . S
H1546 C1550 0.949 . S
C1547 C1548 1.349 . S
C1547 C1549 1.327 . S
C1547 H1570 0.950 . S
C1548 C1547 1.349 . S
C1548 C1560 1.349 . S
C1549 C1547 1.327 . S
C1549 C1565 1.429 . S
C1549 H1571 0.950 . S
C1550 H1546 0.949 . S
C1550 C1558 1.574 1_655 S
C1550 C1566 1.368 . S
H1551 C1559 0.950 . S
H1552 C1557 0.950 . S
H1553 C1558 0.949 . S
H1554 C1560 0.950 . S
H1555 C1561 0.950 . S
H1556 C1562 0.949 . S
C1557 H1552 0.950 . S
C1557 C1559 1.327 . S
C1557 C1563 1.429 . S
C1558 C1550 1.574 1_455 S
C1558 H1553 0.949 . S
C1558 C1564 1.368 . S
C1559 C1543 1.349 . S
C1559 H1551 0.950 . S
C1559 C1557 1.327 . S
C1560 C1548 1.349 . S
C1560 H1554 0.950 . S
C1560 C1561 1.327 . S
C1561 H1555 0.950 . S
C1561 C1560 1.327 . S
C1561 C1565 1.429 . S
C1562 C1545 1.574 1_655 S
C1562 H1556 0.949 . S
C1562 C1566 1.368 . S
C1563 C1544 1.429 . S
C1563 C1557 1.429 . S
C1563 C1564 1.523 . S
C1564 C1545 1.368 . S
C1564 C1558 1.368 . S
C1564 C1563 1.523 . S
C1565 C1549 1.429 . S
C1565 C1561 1.429 . S
C1565 C1566 1.523 . S
C1566 C1550 1.368 . S
C1566 C1562 1.368 . S
C1566 C1565 1.523 . S
H1567 C1542 0.950 . S
H1568 C1544 0.950 . S
H1569 C1545 0.949 . S
H1570 C1547 0.950 . S
H1571 C1549 0.950 . S
C1572 C1573 1.349 . S
C1572 C1574 1.327 . S
C1572 H1597 0.950 . S
C1573 C1572 1.349 . S
C1573 C1589 1.349 . S
C1574 C1572 1.327 . S
C1574 C1593 1.429 . S
C1574 H1598 0.950 . S
C1575 C1592 1.574 . S
C1575 C1594 1.368 . S
C1575 H1599 0.949 . S
H1576 C1580 0.949 . S
C1577 C1578 1.349 . S
C1577 C1579 1.327 . S
C1577 H1600 0.950 . S
C1578 C1577 1.349 . S
C1578 C1590 1.349 . S
C1579 C1577 1.327 . S
C1579 C1595 1.429 . S
C1579 H1601 0.950 . S
C1580 H1576 0.949 . S
C1580 C1588 1.574 . S
C1580 C1596 1.368 . S
H1581 C1589 0.950 . S
H1582 C1587 0.950 . S
H1583 C1588 0.949 . S
H1584 C1590 0.950 . S
H1585 C1591 0.950 . S
H1586 C1592 0.949 . S
C1587 H1582 0.950 . S
C1587 C1589 1.327 . S
C1587 C1593 1.429 . S
C1588 C1580 1.574 . S
C1588 H1583 0.949 . S
C1588 C1594 1.368 . S
C1589 C1573 1.349 . S
C1589 H1581 0.950 . S
C1589 C1587 1.327 . S
C1590 C1578 1.349 . S
C1590 H1584 0.950 . S
C1590 C1591 1.327 . S
C1591 H1585 0.950 . S
C1591 C1590 1.327 . S
C1591 C1595 1.429 . S
C1592 C1575 1.574 . S
C1592 H1586 0.949 . S
C1592 C1596 1.368 . S
C1593 C1574 1.429 . S
C1593 C1587 1.429 . S
C1593 C1594 1.523 . S
C1594 C1575 1.368 . S
C1594 C1588 1.368 . S
C1594 C1593 1.523 . S
C1595 C1579 1.429 . S
C1595 C1591 1.429 . S
C1595 C1596 1.523 . S
C1596 C1580 1.368 . S
C1596 C1592 1.368 . S
C1596 C1595 1.523 . S
H1597 C1572 0.950 . S
H1598 C1574 0.950 . S
H1599 C1575 0.949 . S
H1600 C1577 0.950 . S
H1601 C1579 0.950 . S
C1602 C1603 1.349 . S
C1602 C1604 1.327 . S
C1602 H1627 0.950 . S
C1603 C1602 1.349 . S
C1603 C1619 1.349 . S
C1604 C1602 1.327 . S
C1604 C1623 1.429 . S
C1604 H1628 0.950 . S
C1605 C1622 1.574 . S
C1605 C1624 1.368 . S
C1605 H1629 0.949 . S
H1606 C1610 0.949 . S
C1607 C1608 1.349 . S
C1607 C1609 1.327 . S
C1607 H1630 0.950 . S
C1608 C1607 1.349 . S
C1608 C1620 1.349 . S
C1609 C1607 1.327 . S
C1609 C1625 1.429 . S
C1609 H1631 0.950 . S
C1610 H1606 0.949 . S
C1610 C1618 1.574 . S
C1610 C1626 1.368 . S
H1611 C1619 0.950 . S
H1612 C1617 0.950 . S
H1613 C1618 0.949 . S
H1614 C1620 0.950 . S
H1615 C1621 0.950 . S
H1616 C1622 0.949 . S
C1617 H1612 0.950 . S
C1617 C1619 1.327 . S
C1617 C1623 1.429 . S
C1618 C1610 1.574 . S
C1618 H1613 0.949 . S
C1618 C1624 1.368 . S
C1619 C1603 1.349 . S
C1619 H1611 0.950 . S
C1619 C1617 1.327 . S
C1620 C1608 1.349 . S
C1620 H1614 0.950 . S
C1620 C1621 1.327 . S
C1621 H1615 0.950 . S
C1621 C1620 1.327 . S
C1621 C1625 1.429 . S
C1622 C1605 1.574 . S
C1622 H1616 0.949 . S
C1622 C1626 1.368 . S
C1623 C1604 1.429 . S
C1623 C1617 1.429 . S
C1623 C1624 1.523 . S
C1624 C1605 1.368 . S
C1624 C1618 1.368 . S
C1624 C1623 1.523 . S
C1625 C1609 1.429 . S
C1625 C1621 1.429 . S
C1625 C1626 1.523 . S
C1626 C1610 1.368 . S
C1626 C1622 1.368 . S
C1626 C1625 1.523 . S
H1627 C1602 0.950 . S
H1628 C1604 0.950 . S
H1629 C1605 0.949 . S
H1630 C1607 0.950 . S
H1631 C1609 0.950 . S
C1632 C1633 1.349 . S
C1632 C1634 1.327 . S
C1632 H1657 0.950 . S
C1633 C1632 1.349 . S
C1633 C1649 1.349 . S
C1634 C1632 1.327 . S
C1634 C1653 1.429 . S
C1634 H1658 0.950 . S
C1635 C1652 1.574 . S
C1635 C1654 1.368 . S
C1635 H1659 0.949 . S
H1636 C1640 0.949 . S
C1637 C1638 1.349 . S
C1637 C1639 1.327 . S
C1637 H1660 0.950 . S
C1638 C1637 1.349 . S
C1638 C1650 1.349 . S
C1639 C1637 1.327 . S
C1639 C1655 1.429 . S
C1639 H1661 0.950 . S
C1640 H1636 0.949 . S
C1640 C1648 1.574 . S
C1640 C1656 1.368 . S
H1641 C1649 0.950 . S
H1642 C1647 0.950 . S
H1643 C1648 0.949 . S
H1644 C1650 0.950 . S
H1645 C1651 0.950 . S
H1646 C1652 0.949 . S
C1647 H1642 0.950 . S
C1647 C1649 1.327 . S
C1647 C1653 1.429 . S
C1648 C1640 1.574 . S
C1648 H1643 0.949 . S
C1648 C1654 1.368 . S
C1649 C1633 1.349 . S
C1649 H1641 0.950 . S
C1649 C1647 1.327 . S
C1650 C1638 1.349 . S
C1650 H1644 0.950 . S
C1650 C1651 1.327 . S
C1651 H1645 0.950 . S
C1651 C1650 1.327 . S
C1651 C1655 1.429 . S
C1652 C1635 1.574 . S
C1652 H1646 0.949 . S
C1652 C1656 1.368 . S
C1653 C1634 1.429 . S
C1653 C1647 1.429 . S
C1653 C1654 1.523 . S
C1654 C1635 1.368 . S
C1654 C1648 1.368 . S
C1654 C1653 1.523 . S
C1655 C1639 1.429 . S
C1655 C1651 1.429 . S
C1655 C1656 1.523 . S
C1656 C1640 1.368 . S
C1656 C1652 1.368 . S
C1656 C1655 1.523 . S
H1657 C1632 0.950 . S
H1658 C1634 0.950 . S
H1659 C1635 0.949 . S
H1660 C1637 0.950 . S
H1661 C1639 0.950 . S
C1662 C1663 1.349 . S
C1662 C1664 1.327 . S
C1662 H1687 0.950 . S
C1663 C1662 1.349 . S
C1663 C1679 1.349 . S
C1664 C1662 1.327 . S
C1664 C1683 1.429 . S
C1664 H1688 0.950 . S
C1665 C1682 1.574 1_554 S
C1665 C1684 1.368 . S
C1665 H1689 0.949 . S
H1666 C1670 0.949 . S
C1667 C1668 1.349 . S
C1667 C1669 1.327 . S
C1667 H1690 0.950 . S
C1668 C1667 1.349 . S
C1668 C1680 1.349 . S
C1669 C1667 1.327 . S
C1669 C1685 1.429 . S
C1669 H1691 0.950 . S
C1670 H1666 0.949 . S
C1670 C1678 1.574 1_556 S
C1670 C1686 1.368 . S
H1671 C1679 0.950 . S
H1672 C1677 0.950 . S
H1673 C1678 0.949 . S
H1674 C1680 0.950 . S
H1675 C1681 0.950 . S
H1676 C1682 0.949 . S
C1677 H1672 0.950 . S
C1677 C1679 1.327 . S
C1677 C1683 1.429 . S
C1678 C1670 1.574 1_554 S
C1678 H1673 0.949 . S
C1678 C1684 1.368 . S
C1679 C1663 1.349 . S
C1679 H1671 0.950 . S
C1679 C1677 1.327 . S
C1680 C1668 1.349 . S
C1680 H1674 0.950 . S
C1680 C1681 1.327 . S
C1681 H1675 0.950 . S
C1681 C1680 1.327 . S
C1681 C1685 1.429 . S
C1682 C1665 1.574 1_556 S
C1682 H1676 0.949 . S
C1682 C1686 1.368 . S
C1683 C1664 1.429 . S
C1683 C1677 1.429 . S
C1683 C1684 1.523 . S
C1684 C1665 1.368 . S
C1684 C1678 1.368 . S
C1684 C1683 1.523 . S
C1685 C1669 1.429 . S
C1685 C1681 1.429 . S
C1685 C1686 1.523 . S
C1686 C1670 1.368 . S
C1686 C1682 1.368 . S
C1686 C1685 1.523 . S
H1687 C1662 0.950 . S
H1688 C1664 0.950 . S
H1689 C1665 0.949 . S
H1690 C1667 0.950 . S
H1691 C1669 0.950 . S
C1692 C1693 1.349 . S
C1692 C1694 1.327 . S
C1692 H1717 0.950 . S
C1693 C1692 1.349 . S
C1693 C1709 1.349 . S
C1694 C1692 1.327 . S
C1694 C1713 1.429 . S
C1694 H1718 0.950 . S
C1695 C1712 1.574 . S
C1695 C1714 1.368 . S
C1695 H1719 0.949 . S
H1696 C1700 0.949 . S
C1697 C1698 1.349 . S
C1697 C1699 1.327 . S
C1697 H1720 0.950 . S
C1698 C1697 1.349 . S
C1698 C1710 1.349 . S
C1699 C1697 1.327 . S
C1699 C1715 1.429 . S
C1699 H1721 0.950 . S
C1700 H1696 0.949 . S
C1700 C1708 1.574 . S
C1700 C1716 1.368 . S
H1701 C1709 0.950 . S
H1702 C1707 0.950 . S
H1703 C1708 0.949 . S
H1704 C1710 0.950 . S
H1705 C1711 0.950 . S
H1706 C1712 0.949 . S
C1707 H1702 0.950 . S
C1707 C1709 1.327 . S
C1707 C1713 1.429 . S
C1708 C1700 1.574 . S
C1708 H1703 0.949 . S
C1708 C1714 1.368 . S
C1709 C1693 1.349 . S
C1709 H1701 0.950 . S
C1709 C1707 1.327 . S
C1710 C1698 1.349 . S
C1710 H1704 0.950 . S
C1710 C1711 1.327 . S
C1711 H1705 0.950 . S
C1711 C1710 1.327 . S
C1711 C1715 1.429 . S
C1712 C1695 1.574 . S
C1712 H1706 0.949 . S
C1712 C1716 1.368 . S
C1713 C1694 1.429 . S
C1713 C1707 1.429 . S
C1713 C1714 1.523 . S
C1714 C1695 1.368 . S
C1714 C1708 1.368 . S
C1714 C1713 1.523 . S
C1715 C1699 1.429 . S
C1715 C1711 1.429 . S
C1715 C1716 1.523 . S
C1716 C1700 1.368 . S
C1716 C1712 1.368 . S
C1716 C1715 1.523 . S
H1717 C1692 0.950 . S
H1718 C1694 0.950 . S
H1719 C1695 0.949 . S
H1720 C1697 0.950 . S
H1721 C1699 0.950 . S
C1722 C1723 1.349 . S
C1722 C1724 1.327 . S
C1722 H1747 0.950 . S
C1723 C1722 1.349 . S
C1723 C1739 1.349 . S
C1724 C1722 1.327 . S
C1724 C1743 1.429 . S
C1724 H1748 0.950 . S
C1725 C1742 1.574 1_554 S
C1725 C1744 1.368 . S
C1725 H1749 0.949 . S
H1726 C1730 0.949 . S
C1727 C1728 1.349 . S
C1727 C1729 1.327 . S
C1727 H1750 0.950 . S
C1728 C1727 1.349 . S
C1728 C1740 1.349 . S
C1729 C1727 1.327 . S
C1729 C1745 1.429 . S
C1729 H1751 0.950 . S
C1730 H1726 0.949 . S
C1730 C1738 1.574 1_556 S
C1730 C1746 1.368 . S
H1731 C1739 0.950 . S
H1732 C1737 0.950 . S
H1733 C1738 0.949 . S
H1734 C1740 0.950 . S
H1735 C1741 0.950 . S
H1736 C1742 0.949 . S
C1737 H1732 0.950 . S
C1737 C1739 1.327 . S
C1737 C1743 1.429 . S
C1738 C1730 1.574 1_554 S
C1738 H1733 0.949 . S
C1738 C1744 1.368 . S
C1739 C1723 1.349 . S
C1739 H1731 0.950 . S
C1739 C1737 1.327 . S
C1740 C1728 1.349 . S
C1740 H1734 0.950 . S
C1740 C1741 1.327 . S
C1741 H1735 0.950 . S
C1741 C1740 1.327 . S
C1741 C1745 1.429 . S
C1742 C1725 1.574 1_556 S
C1742 H1736 0.949 . S
C1742 C1746 1.368 . S
C1743 C1724 1.429 . S
C1743 C1737 1.429 . S
C1743 C1744 1.523 . S
C1744 C1725 1.368 . S
C1744 C1738 1.368 . S
C1744 C1743 1.523 . S
C1745 C1729 1.429 . S
C1745 C1741 1.429 . S
C1745 C1746 1.523 . S
C1746 C1730 1.368 . S
C1746 C1742 1.368 . S
C1746 C1745 1.523 . S
H1747 C1722 0.950 . S
H1748 C1724 0.950 . S
H1749 C1725 0.949 . S
H1750 C1727 0.950 . S
H1751 C1729 0.950 . S
C313 C53 1.490 . S
C318 C10 1.522 . S
C343 C23 1.522 . S
C348 C75 1.522 . S
C373 C88 1.522 . S
C378 C27 1.490 . S
C403 C101 1.522 . S
C408 C40 1.490 . S
C433 C192 1.522 . S
C438 C105 1.490 . S
C463 C205 1.522 . S
C468 C118 1.490 . S
C493 C140 1.522 . S
C498 C157 1.490 . S
C523 C179 1.522 . S
C528 C144 1.490 . S
C553 C209 1.490 . S
C558 C283 1.522 . S
C583 C231 1.522 . S
C588 C257 1.522 . S
C613 C244 1.522 . S
C618 C270 1.522 . S
C643 C287 1.490 . S
C648 C300 1.490 . S
C673 C49 1.490 . S
C678 C66 1.522 . S
C703 C1 1.522 . S
C708 C79 1.522 . S
C733 C92 1.522 . S
C738 C14 1.522 . S
C763 C36 1.490 . S
C768 C62 1.490 . S
C793 C309 1.490 . S
C798 C235 1.522 . S
C823 C248 1.522 . S
C828 C274 1.522 . S
C853 C261 1.522 . S
C858 C296 1.490 . S
C883 C222 1.522 . S
C888 C218 1.490 . S
C913 C153 1.490 . S
C918 C127 1.490 . S
C943 C196 1.522 . S
C948 C170 1.522 . S
C973 C166 1.490 . S
C978 C183 1.522 . S
C1003 C131 1.522 . S
C1008 C114 1.490 . S
C1033 C289 1.603 . S
C1038 C5 1.638 . S
C1063 C211 1.603 . S
C1068 C18 1.638 . S
C1093 C302 1.603 . S
C1098 C29 1.603 . S
C1123 C278 1.638 . S
C1128 C42 1.603 . S
C1153 C239 1.638 . S
C1158 C55 1.603 . S
C1183 C70 1.638 . S
C1188 C252 1.638 . S
C1213 C265 1.638 . S
C1218 C83 1.638 . S
C1243 C226 1.638 . S
C1248 C96 1.638 . S
C1273 C174 1.638 . S
C1278 C107 1.603 . S
C1303 C187 1.638 . S
C1308 C120 1.603 . S
C1333 C200 1.638 . S
C1338 C135 1.638 . S
C1363 C146 1.603 . S
C1368 C159 1.603 . S
C1393 C68 1.638 . S
C1398 C133 1.638 . S
C1423 C81 1.638 . S
C1428 C148 1.603 . S
C1453 C109 1.603 . S
C1458 C94 1.638 . S
C1483 C57 1.603 . S
C1488 C122 1.603 . S
C1513 C185 1.638 . S
C1518 C44 1.603 . S
C1543 C3 1.638 . S
C1548 C198 1.638 . S
C1573 C161 1.603 . S
C1578 C16 1.638 . S
C1603 C31 1.603 . S
C1608 C172 1.638 . S
C1633 C224 1.638 . S
C1638 C304 1.603 . S
C1663 C276 1.638 . S
C1668 C237 1.638 . S
C1693 C291 1.603 . S
C1698 C250 1.638 . S
C1723 C213 1.603 . S
C1728 C263 1.638 . S
