# Generated by pormake.
# Topology wme, (6)-cn, num edge types: 1
# Building blocks:
#     Node 0, Type 0, BuildingBlock: KUMJIN_clean_sbu_1, # of connection points: 6
#     Node 1, Type 0, BuildingBlock: KUMJIN_clean_sbu_1, # of connection points: 6
#     Node 2, Type 0, BuildingBlock: KUMJIN_clean_sbu_1, # of connection points: 6
#     Node 3, Type 0, BuildingBlock: KUMJIN_clean_sbu_1, # of connection points: 6
#     Node 4, Type 0, BuildingBlock: KUMJIN_clean_sbu_1, # of connection points: 6
#     Node 5, Type 0, BuildingBlock: KUMJIN_clean_sbu_1, # of connection points: 6
#     Node 6, Type 0, BuildingBlock: KUMJIN_clean_sbu_1, # of connection points: 6
#     Node 7, Type 0, BuildingBlock: KUMJIN_clean_sbu_1, # of connection points: 6
#     Node 8, Type 0, BuildingBlock: KUMJIN_clean_sbu_1, # of connection points: 6
#     Node 9, Type 0, BuildingBlock: KUMJIN_clean_sbu_1, # of connection points: 6
#     Node 10, Type 0, BuildingBlock: KUMJIN_clean_sbu_1, # of connection points: 6
#     Node 11, Type 0, BuildingBlock: KUMJIN_clean_sbu_1, # of connection points: 6
#     Edge 12, Type (0, 0), BuildingBlock: KIFKEQ_clean_linker_1, # of connection points: 2
#     Edge 13, Type (0, 0), BuildingBlock: KIFKEQ_clean_linker_1, # of connection points: 2
#     Edge 14, Type (0, 0), BuildingBlock: KIFKEQ_clean_linker_1, # of connection points: 2
#     Edge 15, Type (0, 0), BuildingBlock: KIFKEQ_clean_linker_1, # of connection points: 2
#     Edge 16, Type (0, 0), BuildingBlock: KIFKEQ_clean_linker_1, # of connection points: 2
#     Edge 17, Type (0, 0), BuildingBlock: KIFKEQ_clean_linker_1, # of connection points: 2
#     Edge 18, Type (0, 0), BuildingBlock: KIFKEQ_clean_linker_1, # of connection points: 2
#     Edge 19, Type (0, 0), BuildingBlock: KIFKEQ_clean_linker_1, # of connection points: 2
#     Edge 20, Type (0, 0), BuildingBlock: KIFKEQ_clean_linker_1, # of connection points: 2
#     Edge 21, Type (0, 0), BuildingBlock: KIFKEQ_clean_linker_1, # of connection points: 2
#     Edge 22, Type (0, 0), BuildingBlock: KIFKEQ_clean_linker_1, # of connection points: 2
#     Edge 23, Type (0, 0), BuildingBlock: KIFKEQ_clean_linker_1, # of connection points: 2
#     Edge 24, Type (0, 0), BuildingBlock: KIFKEQ_clean_linker_1, # of connection points: 2
#     Edge 25, Type (0, 0), BuildingBlock: KIFKEQ_clean_linker_1, # of connection points: 2
#     Edge 26, Type (0, 0), BuildingBlock: KIFKEQ_clean_linker_1, # of connection points: 2
#     Edge 27, Type (0, 0), BuildingBlock: KIFKEQ_clean_linker_1, # of connection points: 2
#     Edge 28, Type (0, 0), BuildingBlock: KIFKEQ_clean_linker_1, # of connection points: 2
#     Edge 29, Type (0, 0), BuildingBlock: KIFKEQ_clean_linker_1, # of connection points: 2
#     Edge 30, Type (0, 0), BuildingBlock: KIFKEQ_clean_linker_1, # of connection points: 2
#     Edge 31, Type (0, 0), BuildingBlock: KIFKEQ_clean_linker_1, # of connection points: 2
#     Edge 32, Type (0, 0), BuildingBlock: KIFKEQ_clean_linker_1, # of connection points: 2
#     Edge 33, Type (0, 0), BuildingBlock: KIFKEQ_clean_linker_1, # of connection points: 2
#     Edge 34, Type (0, 0), BuildingBlock: KIFKEQ_clean_linker_1, # of connection points: 2
#     Edge 35, Type (0, 0), BuildingBlock: KIFKEQ_clean_linker_1, # of connection points: 2
#     Edge 36, Type (0, 0), BuildingBlock: KIFKEQ_clean_linker_1, # of connection points: 2
#     Edge 37, Type (0, 0), BuildingBlock: KIFKEQ_clean_linker_1, # of connection points: 2
#     Edge 38, Type (0, 0), BuildingBlock: KIFKEQ_clean_linker_1, # of connection points: 2
#     Edge 39, Type (0, 0), BuildingBlock: KIFKEQ_clean_linker_1, # of connection points: 2
#     Edge 40, Type (0, 0), BuildingBlock: KIFKEQ_clean_linker_1, # of connection points: 2
#     Edge 41, Type (0, 0), BuildingBlock: KIFKEQ_clean_linker_1, # of connection points: 2
#     Edge 42, Type (0, 0), BuildingBlock: KIFKEQ_clean_linker_1, # of connection points: 2
#     Edge 43, Type (0, 0), BuildingBlock: KIFKEQ_clean_linker_1, # of connection points: 2
#     Edge 44, Type (0, 0), BuildingBlock: KIFKEQ_clean_linker_1, # of connection points: 2
#     Edge 45, Type (0, 0), BuildingBlock: KIFKEQ_clean_linker_1, # of connection points: 2
#     Edge 46, Type (0, 0), BuildingBlock: KIFKEQ_clean_linker_1, # of connection points: 2
#     Edge 47, Type (0, 0), BuildingBlock: KIFKEQ_clean_linker_1, # of connection points: 2
# Relax obj value: 0.062
# Max RMSD: 0.170
# Mean RMSD: 0.170
data_MOF--net-wme--node1-KUMJIN_clean_sbu_1--edge1-KIFKEQ_clean_linker_1
_symmetry_space_group_name_H-M    P1
_symmetry_Int_Tables_number       1
_symmetry_cell_setting            triclinic
loop_
_symmetry_equiv_pos_as_xyz
'x, y, z'
_cell_length_a     39.720708
_cell_length_b     39.690481
_cell_length_c     54.654953
_cell_angle_alpha  89.985684
_cell_angle_beta   90.037347
_cell_angle_gamma 119.97175
loop_
_atom_site_label
_atom_site_type_symbol
_atom_site_fract_x
_atom_site_fract_y
_atom_site_fract_z
_atom_type_partial_charge
Eu0 Eu 0.25066 0.31828 0.14051 0.0
C1 C 0.1186 0.32059 0.07952 0.0
N2 N 0.15726 0.3419 0.07452 0.0
C3 C 0.14463 0.328 0.03177 0.0
C4 C 0.09138 0.3015 0.06064 0.0
C5 C 0.17059 0.34622 0.05109 0.0
C6 C 0.10488 0.30544 0.03656 0.0
C7 C 0.06642 0.2944 0.10946 0.0
C8 C 0.10627 0.317 0.10372 0.0
C9 C 0.03929 0.27532 0.09068 0.0
C10 C 0.05172 0.27888 0.06635 0.0
Eu11 Eu 0.1986 0.37103 0.10832 0.0
N12 N 0.13332 0.33465 0.12169 0.0
C13 C 0.05502 0.29146 0.13395 0.0
C14 C 0.12214 0.33355 0.1454 0.0
C15 C 0.08297 0.3115 0.15195 0.0
H16 H 0.20123 0.36409 0.0472 0.0
H17 H 0.07433 0.31019 0.17086 0.0
H18 H 0.23511 0.31437 0.20117 0.0
H19 H 0.38662 0.38049 0.08926 0.0
H20 H 0.14308 0.35003 0.15927 0.0
H21 H 0.02471 0.27425 0.13911 0.0
H22 H 0.31544 0.34335 0.09479 0.0
H23 H 0.15529 0.33142 0.01319 0.0
H24 H 1.0086 0.25768 0.09478 0.0
H25 H 0.03042 0.26391 0.05208 0.0
H26 H 0.2735 0.34109 0.239 0.0
H27 H 0.08487 0.29126 0.02154 0.0
H28 H 0.42962 0.40944 0.12517 0.0
N29 N 0.28445 0.34008 0.17784 0.0
C30 C 0.32387 0.36075 0.17621 0.0
C31 C 0.28801 0.34699 0.22146 0.0
C32 C 0.34698 0.37592 0.19736 0.0
C33 C 0.26632 0.33233 0.2 0.0
C34 C 0.32851 0.36904 0.22014 0.0
N35 N 0.31817 0.35249 0.13316 0.0
C36 C 0.33389 0.35627 0.11047 0.0
C37 C 0.38203 0.38798 0.15104 0.0
C38 C 0.34125 0.3667 0.1533 0.0
C39 C 0.39839 0.39325 0.12768 0.0
C40 C 0.37421 0.37706 0.10734 0.0
H41 H 0.34525 0.38028 0.2368 0.0
H42 H 0.40586 0.40929 0.21119 0.0
H43 H 0.43651 0.41985 0.17068 0.0
O44 O 0.24654 0.26609 0.12391 0.0
O45 O 0.28753 0.38527 0.13681 0.0
O46 O 0.26344 0.40267 0.10357 0.0
O47 O 0.25253 0.27369 0.16301 0.0
O48 O 0.2392 0.30924 0.09969 0.0
O49 O 0.24014 0.36321 0.0825 0.0
O50 O 0.18743 0.41601 0.12254 0.0
O51 O 0.16966 0.3047 0.10683 0.0
O52 O 0.18529 0.29146 0.14423 0.0
O53 O 0.19792 0.41465 0.08399 0.0
O54 O 0.21707 0.38517 0.14891 0.0
O55 O 0.20804 0.32682 0.16268 0.0
C56 C 0.29097 0.41016 0.11956 0.0
C57 C 0.2114 0.2101 0.14825 0.0
C58 C 0.17962 0.13964 0.14243 0.0
C59 C 0.14523 0.13599 0.1522 0.0
C60 C 0.17692 0.20541 0.15855 0.0
C61 C 0.14403 0.16864 0.16034 0.0
C62 C 0.21285 0.17697 0.14047 0.0
C63 C 0.24521 0.33264 0.0811 0.0
C64 C 0.24495 0.24966 0.14488 0.0
C65 C 0.38764 0.39734 0.19515 0.0
C66 C 0.40511 0.40333 0.17207 0.0
C67 C 0.16158 0.28111 0.12547 0.0
C68 C 0.21457 0.4759 0.10168 0.0
C69 C 0.21927 0.53914 0.10912 0.0
C70 C 0.25929 0.5573 0.1039 0.0
C71 C 0.25447 0.49486 0.09666 0.0
C72 C 0.19694 0.49814 0.10777 0.0
C73 C 0.2766 0.53531 0.09767 0.0
C74 C 0.21222 0.36113 0.167 0.0
C75 C 0.19144 0.43298 0.10151 0.0
H76 H 0.11942 0.10765 0.15405 0.0
H77 H 0.17536 0.2302 0.16525 0.0
H78 H 0.11755 0.16541 0.16816 0.0
H79 H 0.2394 0.18024 0.13268 0.0
H80 H 0.27725 0.58869 0.10435 0.0
H81 H 0.26845 0.47832 0.09201 0.0
H82 H 0.16615 0.48352 0.11192 0.0
H83 H 0.30734 0.54969 0.09361 0.0
Eu84 Eu 0.94341 0.24019 0.63665 0.0
C85 C 0.8051 0.10676 0.58099 0.0
N86 N 0.82538 0.14504 0.57468 0.0
C87 C 0.8282 0.1281 0.53298 0.0
C88 C 0.79613 0.07754 0.56334 0.0
C89 C 0.83657 0.1561 0.55108 0.0
C90 C 0.80797 0.08868 0.53913 0.0
C91 C 0.77417 0.05728 0.61243 0.0
C92 C 0.79443 0.09677 0.60539 0.0
C93 C 0.76505 0.02818 0.59484 0.0
C94 C 0.77602 0.03827 0.57039 0.0
Eu95 Eu 0.83662 0.18956 0.60638 0.0
N96 N 0.80474 0.12556 0.62229 0.0
C97 C 0.76384 0.04815 0.63702 0.0
C98 C 0.79299 0.11668 0.64602 0.0
C99 C 0.77301 0.07797 0.65383 0.0
H100 H 0.85146 0.18646 0.54606 0.0
H101 H 0.76425 0.07115 0.67276 0.0
H102 H 0.9345 0.22505 0.69739 0.0
H103 H 0.02338 0.37498 0.58489 0.0
H104 H 0.79789 0.13907 0.65891 0.0
H105 H 0.74832 0.01819 0.64314 0.0
H106 H 0.9839 0.30393 0.59063 0.0
H107 H 0.83718 0.13694 0.51426 0.0
H108 H 0.74971 0.99775 0.59999 0.0
H109 H 0.76895 0.01546 0.55708 0.0
H110 H 0.95182 0.26407 0.73531 0.0
H111 H 0.80161 0.06708 0.52505 0.0
H112 H 0.04318 0.41867 0.62085 0.0
N113 N 0.95991 0.27437 0.67396 0.0
C114 C 0.98093 0.31378 0.67225 0.0
C115 C 0.96006 0.27841 0.7177 0.0
C116 C 0.99229 0.33717 0.69343 0.0
C117 C 0.94989 0.2564 0.6962 0.0
C118 C 0.98127 0.31897 0.71632 0.0
N119 N 0.97961 0.30753 0.62908 0.0
C120 C 0.99147 0.32274 0.60628 0.0
C121 C 1.01437 0.37155 0.64688 0.0
C122 C 0.99154 0.33082 0.64921 0.0
C123 C 0.02554 0.38752 0.62342 0.0
C124 C 1.01428 0.36296 0.60305 0.0
H125 H 0.98933 0.33594 0.73303 0.0
H126 H 0.02339 0.39625 0.70722 0.0
H127 H 0.04294 0.4263 0.6665 0.0
O128 O 0.98719 0.23174 0.61792 0.0
O129 O 0.91553 0.27909 0.63478 0.0
O130 O 0.86893 0.25485 0.60403 0.0
O131 O 0.98949 0.23795 0.65728 0.0
O132 O 0.93624 0.22683 0.59604 0.0
O133 O 0.88497 0.2319 0.58035 0.0
O134 O 0.77962 0.17909 0.61835 0.0
O135 O 0.8732 0.15945 0.60514 0.0
O136 O 0.90362 0.17546 0.64213 0.0
O137 O 0.79453 0.18889 0.58011 0.0
O138 O 0.84217 0.20849 0.6469 0.0
O139 O 0.89238 0.20012 0.66004 0.0
C140 C 0.88978 0.2812 0.62048 0.0
C141 C 0.04866 0.25641 0.63664 0.0
C142 C 0.11086 0.258 0.63299 0.0
C143 C 0.12989 0.29891 0.63273 0.0
C144 C 0.06822 0.29715 0.6364 0.0
C145 C 0.10867 0.31824 0.63449 0.0
C146 C 0.07003 0.23695 0.63505 0.0
C147 C 0.92037 0.23673 0.57844 0.0
C148 C 1.00601 0.2336 0.6379 0.0
C149 C 1.01443 0.37781 0.69114 0.0
C150 C 0.02555 0.39494 0.66794 0.0
C151 C 0.88739 0.15049 0.62417 0.0
C152 C 0.7477 0.20489 0.59499 0.0
C153 C 0.68917 0.20924 0.60281 0.0
C154 C 0.70901 0.24785 0.59434 0.0
C155 C 0.76649 0.24318 0.58612 0.0
C156 C 0.70875 0.1878 0.60298 0.0
C157 C 0.74723 0.2645 0.5859 0.0
C158 C 0.86282 0.20515 0.66471 0.0
C159 C 0.76839 0.18266 0.59662 0.0
H160 H 0.16126 0.31599 0.63144 0.0
H161 H 0.05227 0.3126 0.63761 0.0
H162 H 0.12365 0.34971 0.63434 0.0
H163 H 0.05478 0.20542 0.63495 0.0
H164 H 0.6947 0.26501 0.59392 0.0
H165 H 0.79625 0.2568 0.57973 0.0
H166 H 0.69397 0.15815 0.60974 0.0
H167 H 0.76206 0.29417 0.57927 0.0
Eu168 Eu 0.71325 0.94281 0.14601 0.0
C169 C 0.70947 0.80559 0.089 0.0
N170 N 0.69408 0.82712 0.08045 0.0
C171 C 0.72176 0.83085 0.0409 0.0
C172 C 0.73218 0.79618 0.07369 0.0
C173 C 0.69946 0.83947 0.05673 0.0
C174 C 0.7383 0.80921 0.04942 0.0
C175 C 0.71849 0.77085 0.12251 0.0
C176 C 0.7029 0.79339 0.11322 0.0
C177 C 0.74161 0.76195 0.10744 0.0
C178 C 0.74828 0.77442 0.08307 0.0
Eu179 Eu 0.65695 0.84067 0.10817 0.0
N180 N 0.68038 0.80248 0.12743 0.0
C181 C 0.70944 0.7569 0.14648 0.0
C182 C 0.66815 0.78519 0.14978 0.0
C183 C 0.68345 0.76338 0.15997 0.0
H184 H 0.6864 0.85584 0.04996 0.0
H185 H 0.67437 0.75072 0.17799 0.0
H186 H 0.73431 0.92275 0.2016 0.0
H187 H 0.64706 0.02941 0.12007 0.0
H188 H 0.64546 0.78659 0.15961 0.0
H189 H 0.72091 0.73959 0.15431 0.0
H190 H 0.68153 0.99277 0.11312 0.0
H191 H 0.72612 0.84084 0.02213 0.0
H192 H 0.75401 0.74493 0.11436 0.0
H193 H 0.76588 0.76703 0.07159 0.0
H194 H 0.71852 0.9274 0.24485 0.0
H195 H 0.75565 0.80265 0.03713 0.0
H196 H 0.62748 0.03592 0.162 0.0
N197 N 0.70315 0.94929 0.18778 0.0
C198 C 0.6827 0.96739 0.193 0.0
C199 C 0.70823 0.93872 0.23044 0.0
C200 C 0.67375 0.97148 0.21738 0.0
C201 C 0.71688 0.93588 0.20599 0.0
C202 C 0.68632 0.95634 0.23617 0.0
N203 N 0.68085 0.9785 0.15065 0.0
C204 C 0.67317 0.99563 0.13145 0.0
C205 C 0.65185 1.00335 0.17874 0.0
C206 C 0.67167 0.98292 0.17392 0.0
C207 C 0.64266 0.01994 0.15906 0.0
C208 C 0.65367 0.01634 0.13534 0.0
H209 H 0.67982 0.95866 0.25514 0.0
H210 H 0.64578 0.99423 0.24085 0.0
H211 H 0.6268 0.02231 0.20704 0.0
O212 O 0.76581 0.98439 0.12637 0.0
O213 O 0.64654 0.91641 0.14264 0.0
O214 O 0.63117 0.87979 0.10743 0.0
O215 O 0.76212 0.99045 0.16534 0.0
O216 O 0.71093 0.94973 0.10504 0.0
O217 O 0.67354 0.89273 0.08245 0.0
O218 O 0.60289 0.78437 0.11379 0.0
O219 O 0.72297 0.87877 0.10603 0.0
O220 O 0.73634 0.90068 0.14517 0.0
O221 O 0.61951 0.80909 0.07724 0.0
O222 O 0.6406 0.84237 0.14858 0.0
O223 O 0.70065 0.88608 0.16264 0.0
C224 C 0.62119 0.89403 0.12582 0.0
C225 C 0.82367 1.00714 0.14915 0.0
C226 C 0.89446 0.04558 0.14476 0.0
C227 C 0.89705 0.01325 0.15271 0.0
C228 C 0.82732 0.97576 0.15765 0.0
C229 C 0.86373 0.97873 0.15923 0.0
C230 C 0.85746 0.04236 0.14302 0.0
C231 C 0.69632 0.93117 0.08427 0.0
C232 C 0.78457 1.00247 0.14615 0.0
C233 C 0.65306 0.99092 0.22223 0.0
C234 C 0.64225 1.00692 0.20297 0.0
C235 C 0.74608 0.88948 0.12509 0.0
C236 C 0.55946 0.74664 0.07992 0.0
C237 C 0.5019 0.68139 0.08265 0.0
C238 C 0.49294 0.68512 0.05826 0.0
C239 C 0.54953 0.74917 0.05558 0.0
C240 C 0.53559 0.7123 0.09347 0.0
C241 C 0.5166 0.71863 0.04489 0.0
C242 C 0.66471 0.85953 0.16696 0.0
C243 C 0.59461 0.78027 0.09058 0.0
H244 H 0.92505 0.01497 0.15434 0.0
H245 H 0.80198 0.9489 0.16312 0.0
H246 H 0.86614 0.9542 0.16562 0.0
H247 H 0.85495 0.06687 0.13662 0.0
H248 H 0.46754 0.66181 0.04942 0.0
H249 H 0.56715 0.77496 0.04474 0.0
H250 H 0.54279 0.70984 0.11226 0.0
H251 H 0.50928 0.72099 0.02612 0.0
Eu252 Eu 0.78034 0.70943 0.63644 0.0
C253 C 0.90565 0.69484 0.57231 0.0
N254 N 0.86644 0.67637 0.56915 0.0
C255 C 0.87461 0.68672 0.52586 0.0
C256 C 0.93096 0.7104 0.55213 0.0
C257 C 0.85062 0.67174 0.54638 0.0
C258 C 0.91494 0.70617 0.52873 0.0
C259 C 0.96116 0.71879 0.59969 0.0
C260 C 0.92059 0.69911 0.5959 0.0
C261 C 0.98637 0.73396 0.57958 0.0
C262 C 0.97133 0.72985 0.55589 0.0
Eu263 Eu 0.82873 0.65144 0.60483 0.0
N264 N 0.89552 0.68527 0.61517 0.0
C265 C 0.97523 0.72312 0.62364 0.0
C266 C 0.90912 0.68799 0.63843 0.0
C267 C 0.94909 0.70743 0.64306 0.0
H268 H 0.81948 0.65592 0.54393 0.0
H269 H 0.9597 0.71003 0.6616 0.0
H270 H 0.76139 0.67142 0.69291 0.0
H271 H 0.68084 0.71139 0.56784 0.0
H272 H 0.88947 0.67488 0.6535 0.0
H273 H 1.00618 0.73831 0.62731 0.0
H274 H 0.74426 0.73337 0.58751 0.0
H275 H 0.86198 0.68305 0.50782 0.0
H276 H 0.01758 0.74916 0.58217 0.0
H277 H 0.99119 0.74197 0.5406 0.0
H278 H 0.70401 0.62792 0.71807 0.0
H279 H 0.93343 0.71774 0.51278 0.0
H280 H 0.62066 0.66176 0.58812 0.0
N281 N 0.72772 0.6689 0.66203 0.0
C282 C 0.69162 0.65616 0.6526 0.0
C283 C 0.70017 0.63547 0.69965 0.0
C284 C 0.65817 0.63139 0.66628 0.0
C285 C 0.73253 0.65993 0.68542 0.0
C286 C 0.66284 0.62088 0.68998 0.0
N287 N 0.72106 0.69214 0.61641 0.0
C288 C 0.71858 0.70968 0.59557 0.0
C289 C 0.65112 0.65558 0.61914 0.0
C290 C 0.68825 0.66768 0.62907 0.0
C291 C 0.64862 0.67033 0.59637 0.0
C292 C 0.6825 0.69817 0.58479 0.0
H293 H 0.63783 0.6019 0.70106 0.0
H294 H 0.5952 0.59887 0.66617 0.0
H295 H 0.58902 0.62036 0.62505 0.0
O296 O 0.78455 0.76713 0.63178 0.0
O297 O 0.74908 0.64254 0.6391 0.0
O298 O 0.76364 0.62328 0.603 0.0
O299 O 0.77953 0.74203 0.66805 0.0
O300 O 0.79686 0.71936 0.59611 0.0
O301 O 0.78608 0.66039 0.58091 0.0
O302 O 0.83461 0.60324 0.61955 0.0
O303 O 0.86187 0.71772 0.60293 0.0
O304 O 0.84631 0.73867 0.63812 0.0
O305 O 0.82682 0.60639 0.58075 0.0
O306 O 0.81739 0.64361 0.64654 0.0
O307 O 0.82231 0.70124 0.6598 0.0
C308 C 0.7412 0.6162 0.62206 0.0
C309 C 0.78292 0.80469 0.66745 0.0
C310 C 0.79353 0.87122 0.66743 0.0
C311 C 0.78378 0.86692 0.69246 0.0
C312 C 0.77299 0.8015 0.69236 0.0
C313 C 0.77351 0.83239 0.7047 0.0
C314 C 0.7933 0.83981 0.65496 0.0
C315 C 0.78596 0.69355 0.57832 0.0
C316 C 0.78249 0.77103 0.65532 0.0
C317 C 0.62125 0.6181 0.65599 0.0
C318 C 0.61773 0.63021 0.63251 0.0
C319 C 0.87097 0.74314 0.62067 0.0
C320 C 0.8089 0.54404 0.59736 0.0
C321 C 0.80506 0.48099 0.60395 0.0
C322 C 0.76591 0.46243 0.59651 0.0
C323 C 0.77008 0.52472 0.58957 0.0
C324 C 0.82649 0.52205 0.60424 0.0
C325 C 0.74874 0.48415 0.58926 0.0
C326 C 0.82236 0.66873 0.66406 0.0
C327 C 0.83156 0.58699 0.59834 0.0
H328 H 0.78461 0.89061 0.70279 0.0
H329 H 0.76482 0.77502 0.70246 0.0
H330 H 0.76608 0.82961 0.72394 0.0
H331 H 0.8009 0.84259 0.63574 0.0
H332 H 0.74869 0.43098 0.59592 0.0
H333 H 0.75619 0.54101 0.58393 0.0
H334 H 0.8566 0.53686 0.61009 0.0
H335 H 0.71867 0.46943 0.58342 0.0
Eu336 Eu 0.0857 0.78375 0.14061 0.0
C337 C 0.22122 0.9147 0.08271 0.0
N338 N 0.20253 0.8765 0.07625 0.0
C339 C 0.19988 0.89331 0.03447 0.0
C340 C 0.22929 0.9438 0.06513 0.0
C341 C 0.19225 0.86544 0.05253 0.0
C342 C 0.21834 0.93264 0.0408 0.0
C343 C 0.24994 0.96408 0.11436 0.0
C344 C 0.23123 0.92466 0.10716 0.0
C345 C 0.25785 0.99305 0.09689 0.0
C346 C 0.24758 0.98296 0.07236 0.0
Eu347 Eu 0.191 0.83175 0.1079 0.0
N348 N 0.22215 0.8959 0.12391 0.0
C349 C 0.26024 0.97326 0.13895 0.0
C350 C 0.23465 0.90505 0.1475 0.0
C351 C 0.25305 0.94366 0.1555 0.0
H352 H 0.17854 0.83516 0.04742 0.0
H353 H 0.26224 0.9506 0.17437 0.0
H354 H 0.09844 0.80921 0.19984 0.0
H355 H 1.00117 0.64086 0.09817 0.0
H356 H 0.2318 0.88308 0.16012 0.0
H357 H 0.27451 1.00316 0.14521 0.0
H358 H 0.04211 0.71231 0.09892 0.0
H359 H 0.1916 0.88444 0.01567 0.0
H360 H 0.27194 0.02341 0.10217 0.0
H361 H 0.25385 1.00567 0.05912 0.0
H362 H 0.08393 0.77698 0.24027 0.0
H363 H 0.22406 0.95414 0.02676 0.0
H364 H 0.98346 0.60368 0.13692 0.0
N365 N 0.07145 0.75613 0.17998 0.0
C366 C 0.05021 0.71669 0.18094 0.0
C367 C 0.07438 0.75969 0.22374 0.0
C368 C 0.04031 0.69709 0.20359 0.0
C369 C 0.08297 0.77784 0.20085 0.0
C370 C 0.05307 0.71912 0.22513 0.0
N371 N 0.0481 0.71552 0.13761 0.0
C372 C 0.03484 0.69644 0.1159 0.0
C373 C 1.01451 0.65496 0.15961 0.0
C374 C 0.0377 0.69583 0.15919 0.0
C375 C 1.00146 0.63507 0.13736 0.0
C376 C 1.01145 0.65595 0.11543 0.0
H377 H 0.0462 0.70513 0.24289 0.0
H378 H 1.00996 0.64074 0.2213 0.0
H379 H 0.98717 0.60391 0.18283 0.0
O380 O 0.04616 0.79779 0.12126 0.0
O381 O 0.11261 0.74402 0.13876 0.0
O382 O 0.15738 0.7664 0.10689 0.0
O383 O 0.03852 0.78573 0.16005 0.0
O384 O 0.086 0.78442 0.09925 0.0
O385 O 0.14229 0.7906 0.08155 0.0
O386 O 0.24859 0.84272 0.11919 0.0
O387 O 0.15221 0.85904 0.10472 0.0
O388 O 0.1271 0.84852 0.14299 0.0
O389 O 0.23174 0.83049 0.08137 0.0
O390 O 0.18684 0.81394 0.14861 0.0
O391 O 0.1391 0.82582 0.16133 0.0
C392 C 0.13726 0.74091 0.12394 0.0
C393 C 0.98277 0.77288 0.13699 0.0
C394 C 0.92232 0.7743 0.13123 0.0
C395 C 0.90242 0.73363 0.12833 0.0
C396 C 0.96228 0.73238 0.13415 0.0
C397 C 0.92228 0.71291 0.12988 0.0
C398 C 0.96269 0.79373 0.1357 0.0
C399 C 0.10534 0.7819 0.08042 0.0
C400 C 0.02518 0.79396 0.14053 0.0
C401 C 0.01781 0.65631 0.20407 0.0
C402 C 1.00483 0.63533 0.18215 0.0
C403 C 0.13957 0.87032 0.12338 0.0
C404 C 0.27905 0.81491 0.09608 0.0
C405 C 0.33759 0.80993 0.1035 0.0
C406 C 0.31796 0.77228 0.09329 0.0
C407 C 0.26052 0.77738 0.08603 0.0
C408 C 0.3177 0.83117 0.10472 0.0
C409 C 0.27987 0.75626 0.08474 0.0
C410 C 0.16706 0.8186 0.16638 0.0
C411 C 0.25864 0.83752 0.09751 0.0
H412 H 0.87135 0.71775 0.12514 0.0
H413 H 0.9772 0.71588 0.13514 0.0
H414 H 0.9066 0.68162 0.12771 0.0
H415 H 0.97863 0.82511 0.13768 0.0
H416 H 0.33225 0.75526 0.09147 0.0
H417 H 0.23098 0.76427 0.07927 0.0
H418 H 0.33202 0.86011 0.11258 0.0
H419 H 0.26531 0.7273 0.07697 0.0
Eu420 Eu 0.31384 0.08189 0.63976 0.0
C421 C 0.33168 0.22324 0.57985 0.0
N422 N 0.3482 0.2011 0.5749 0.0
C423 C 0.33288 0.19948 0.53238 0.0
C424 C 0.31459 0.23398 0.56102 0.0
C425 C 0.34944 0.18949 0.55161 0.0
C426 C 0.31534 0.22177 0.53709 0.0
C427 C 0.31288 0.25631 0.60961 0.0
C428 C 0.33068 0.23412 0.60399 0.0
C429 C 0.29632 0.26742 0.59082 0.0
C430 C 0.29706 0.25621 0.56663 0.0
Eu431 Eu 0.37659 0.18731 0.60839 0.0
N432 N 0.34612 0.22217 0.622 0.0
C433 C 0.31205 0.26653 0.634 0.0
C434 C 0.34718 0.23388 0.64559 0.0
C435 C 0.32956 0.25554 0.65202 0.0
H436 H 0.36372 0.17301 0.54771 0.0
H437 H 0.33001 0.26422 0.67084 0.0
H438 H 0.30601 0.09302 0.7 0.0
H439 H 0.3651 0.99578 0.59145 0.0
H440 H 0.36239 0.22764 0.65946 0.0
H441 H 0.29844 0.28333 0.63906 0.0
H442 H 0.33623 0.03798 0.59532 0.0
H443 H 0.33384 0.19017 0.5139 0.0
H444 H 0.28268 0.28457 0.59483 0.0
H445 H 0.28383 0.26475 0.55239 0.0
H446 H 0.32492 0.07534 0.73894 0.0
H447 H 0.3025 0.22942 0.52214 0.0
H448 H 0.38614 0.97545 0.62851 0.0
N449 N 0.32892 0.06521 0.6779 0.0
C450 C 0.34584 0.04274 0.67719 0.0
C451 C 0.3311 0.0661 0.72171 0.0
C452 C 0.35622 0.03112 0.69897 0.0
C453 C 0.32087 0.07648 0.69965 0.0
C454 C 0.34894 0.04341 0.72137 0.0
N455 N 0.34267 0.0431 0.63388 0.0
C456 C 0.34617 0.03012 0.61147 0.0
C457 C 0.36884 1.00663 0.65331 0.0
C458 C 0.35244 0.03092 0.6546 0.0
C459 C 0.37377 0.99425 0.63027 0.0
C460 C 0.36207 1.00579 0.60929 0.0
H461 H 0.35661 0.03519 0.7385 0.0
H462 H 0.38143 0.99831 0.71425 0.0
H463 H 0.3922 0.97665 0.67433 0.0
O464 O 0.26145 0.03855 0.62092 0.0
O465 O 0.3803 0.10714 0.63971 0.0
O466 O 0.40479 0.15042 0.60729 0.0
O467 O 0.26372 0.03833 0.66043 0.0
O468 O 0.3099 0.08746 0.59874 0.0
O469 O 0.36803 0.13687 0.58338 0.0
O470 O 0.42472 0.24299 0.62094 0.0
O471 O 0.3102 0.15383 0.60541 0.0
O472 O 0.29158 0.12442 0.64266 0.0
O473 O 0.42124 0.22744 0.58287 0.0
O474 O 0.3869 0.18174 0.6495 0.0
O475 O 0.32622 0.13463 0.6618 0.0
C476 C 0.40891 0.1305 0.62499 0.0
C477 C 0.22242 0.97839 0.64069 0.0
C478 C 0.16112 0.91685 0.63687 0.0
C479 C 0.182 0.89688 0.63867 0.0
C480 C 0.24257 0.95787 0.64246 0.0
C481 C 0.22237 0.9173 0.64149 0.0
C482 C 0.18174 0.95783 0.638 0.0
C483 C 0.33601 0.10251 0.58126 0.0
C484 C 0.24334 0.02117 0.64099 0.0
C485 C 0.37324 1.0075 0.69771 0.0
C486 C 0.37941 0.99519 0.67496 0.0
C487 C 0.28546 0.14094 0.62368 0.0
C488 C 0.48383 0.27253 0.59889 0.0
C489 C 0.5473 0.3307 0.60593 0.0
C490 C 0.56529 0.30908 0.59966 0.0
C491 C 0.50253 0.25188 0.5922 0.0
C492 C 0.50637 0.31212 0.60544 0.0
C493 C 0.54304 0.2701 0.59268 0.0
C494 C 0.36139 0.16269 0.66696 0.0
C495 C 0.44099 0.2534 0.59952 0.0
H496 H 0.16706 0.86541 0.63817 0.0
H497 H 0.27381 0.97315 0.64452 0.0
H498 H 0.23808 0.9016 0.64291 0.0
H499 H 0.16628 0.97379 0.63633 0.0
H500 H 0.59668 0.32257 0.59972 0.0
H501 H 0.48581 0.22161 0.58685 0.0
H502 H 0.49204 0.32828 0.61048 0.0
H503 H 0.55728 0.2539 0.58767 0.0
Eu504 Eu 0.71491 0.78349 0.37409 0.0
C505 C 0.69582 0.90347 0.44097 0.0
N506 N 0.67617 0.864 0.44294 0.0
C507 C 0.68108 0.86888 0.48666 0.0
C508 C 0.70944 0.92723 0.46197 0.0
C509 C 0.66796 0.84648 0.46535 0.0
C510 C 0.70207 0.90941 0.48497 0.0
C511 C 0.72227 0.96108 0.41522 0.0
C512 C 0.70227 0.92029 0.41786 0.0
C513 C 0.7361 0.98477 0.43609 0.0
C514 C 0.72975 0.9679 0.45939 0.0
Eu515 Eu 0.65511 0.82939 0.40571 0.0
N516 N 0.68984 0.89671 0.3979 0.0
C517 C 0.72804 0.97681 0.39162 0.0
C518 C 0.69426 0.91173 0.37494 0.0
C519 C 0.71379 0.95201 0.3714 0.0
H520 H 0.65071 0.81524 0.46694 0.0
H521 H 0.71796 0.96388 0.35311 0.0
H522 H 0.73683 0.80497 0.31483 0.0
H523 H 0.65019 0.64335 0.42103 0.0
H524 H 0.68338 0.89252 0.35943 0.0
H525 H 0.74339 1.008 0.38881 0.0
H526 H 0.68319 0.71494 0.41798 0.0
H527 H 0.67468 0.85489 0.50439 0.0
H528 H 0.75177 0.01617 0.43442 0.0
H529 H 0.74052 0.98658 0.47533 0.0
H530 H 0.72582 0.77 0.2755 0.0
H531 H 0.71206 0.92665 0.50154 0.0
H532 H 0.63352 0.60353 0.38338 0.0
N533 N 0.70713 0.75319 0.33587 0.0
C534 C 0.68827 0.7137 0.33604 0.0
C535 C 0.71508 0.75384 0.29238 0.0
C536 C 0.68162 0.69261 0.3141 0.0
C537 C 0.72114 0.77352 0.31461 0.0
C538 C 0.69501 0.71321 0.2921 0.0
N539 N 0.68351 0.71542 0.37919 0.0
C540 C 0.67565 0.6978 0.40154 0.0
C541 C 0.65789 0.65335 0.35913 0.0
C542 C 0.67641 0.69427 0.3583 0.0
C543 C 0.64782 0.63492 0.38197 0.0
C544 C 0.65712 0.65729 0.40327 0.0
H545 H 0.69041 0.69804 0.27486 0.0
H546 H 0.65684 0.63508 0.29813 0.0
H547 H 0.63615 0.60075 0.33754 0.0
O548 O 0.76306 0.78958 0.39658 0.0
O549 O 0.64857 0.74209 0.37697 0.0
O550 O 0.6252 0.7642 0.4084 0.0
O551 O 0.76807 0.7908 0.35719 0.0
O552 O 0.72122 0.8017 0.4139 0.0
O553 O 0.66363 0.78774 0.43094 0.0
O554 O 0.61203 0.84051 0.38866 0.0
O555 O 0.72159 0.8648 0.40347 0.0
O556 O 0.73755 0.84755 0.36707 0.0
O557 O 0.6064 0.82547 0.42698 0.0
O558 O 0.64308 0.81283 0.36497 0.0
O559 O 0.69926 0.81814 0.34847 0.0
C560 C 0.62108 0.73747 0.39257 0.0
C561 C 0.80443 0.76898 0.37956 0.0
C562 C 0.86516 0.76772 0.38308 0.0
C563 C 0.84355 0.72679 0.38321 0.0
C564 C 0.78345 0.72823 0.37968 0.0
C565 C 0.80301 0.70729 0.3815 0.0
C566 C 0.84516 0.78858 0.38122 0.0
C567 C 0.69568 0.7855 0.43142 0.0
C568 C 0.78452 0.79168 0.37795 0.0
C569 C 0.66234 0.65178 0.31482 0.0
C570 C 0.65054 0.63222 0.33726 0.0
C571 C 0.74499 0.87297 0.38459 0.0
C572 C 0.54888 0.81023 0.40477 0.0
C573 C 0.48675 0.80735 0.39685 0.0
C574 C 0.46909 0.76666 0.39458 0.0
C575 C 0.53071 0.76979 0.40219 0.0
C576 C 0.52687 0.82892 0.40213 0.0
C577 C 0.49095 0.74812 0.39727 0.0
C578 C 0.66487 0.81507 0.34611 0.0
C579 C 0.59121 0.83367 0.40836 0.0
H580 H 0.85799 0.70982 0.38431 0.0
H581 H 0.7521 0.71267 0.37841 0.0
H582 H 0.78671 0.67582 0.38153 0.0
H583 H 0.86118 0.82012 0.38142 0.0
H584 H 0.43825 0.74906 0.39095 0.0
H585 H 0.54741 0.75518 0.40365 0.0
H586 H 0.54124 0.86033 0.40355 0.0
H587 H 0.47705 0.71683 0.39539 0.0
Eu588 Eu 0.94609 0.71423 0.8664 0.0
C589 C 0.80796 0.70639 0.92293 0.0
N590 N 0.83057 0.6921 0.93128 0.0
C591 C 0.83391 0.71944 0.97091 0.0
C592 C 0.79782 0.7284 0.9384 0.0
C593 C 0.84323 0.69781 0.95494 0.0
C594 C 0.81119 0.7349 0.9626 0.0
C595 C 0.7721 0.71432 0.88964 0.0
C596 C 0.7955 0.69957 0.89873 0.0
C597 C 0.76244 0.73669 0.90489 0.0
C598 C 0.7751 0.74355 0.92922 0.0
Eu599 Eu 0.84416 0.65516 0.90346 0.0
N600 N 0.80537 0.67785 0.88429 0.0
C601 C 0.75821 0.7053 0.86565 0.0
C602 C 0.78838 0.66574 0.86186 0.0
C603 C 0.76573 0.68024 0.85189 0.0
H604 H 0.86034 0.68549 0.96157 0.0
H605 H 0.75324 0.67123 0.83382 0.0
H606 H 0.9267 0.73989 0.81224 0.0
H607 H 0.03433 0.64785 0.88796 0.0
H608 H 0.79064 0.64369 0.85181 0.0
H609 H 0.74028 0.71614 0.85798 0.0
H610 H 0.99782 0.68182 0.89696 0.0
H611 H 0.84415 0.72407 0.98963 0.0
H612 H 0.74475 0.74843 0.89811 0.0
H613 H 0.7672 0.76066 0.9408 0.0
H614 H 0.93216 0.7282 0.76829 0.0
H615 H 0.8041 0.75173 0.975 0.0
H616 H 0.04043 0.63097 0.84523 0.0
N617 N 0.95346 0.70797 0.82421 0.0
C618 C 0.97171 0.68812 0.81781 0.0
C619 C 0.9433 0.71667 0.78203 0.0
C620 C 0.97594 0.68116 0.79302 0.0
C621 C 0.94011 0.72311 0.80686 0.0
C622 C 0.96097 0.69529 0.77507 0.0
N623 N 0.98312 0.68352 0.85976 0.0
C624 C 1.00052 0.67469 0.87827 0.0
C625 C 1.00778 0.65643 0.83011 0.0
C626 C 0.98732 0.67583 0.8361 0.0
C627 C 0.02446 0.64592 0.84907 0.0
C628 C 0.02112 0.65542 0.87323 0.0
H629 H 0.96348 0.69042 0.75582 0.0
H630 H 0.9988 0.65511 0.76803 0.0
H631 H 0.02677 0.63356 0.8005 0.0
O632 O 0.98252 0.76668 0.88776 0.0
O633 O 0.92243 0.64826 0.87018 0.0
O634 O 0.8798 0.62546 0.9033 0.0
O635 O 0.99434 0.76528 0.84926 0.0
O636 O 0.95287 0.70849 0.90697 0.0
O637 O 0.89577 0.6708 0.92928 0.0
O638 O 0.78657 0.60252 0.89819 0.0
O639 O 0.88188 0.72143 0.90585 0.0
O640 O 0.90314 0.73607 0.8667 0.0
O641 O 0.81308 0.61746 0.93437 0.0
O642 O 0.8466 0.6388 0.86308 0.0
O643 O 0.88893 0.69957 0.84983 0.0
C644 C 0.90182 0.62167 0.88687 0.0
C645 C 0.04738 0.8066 0.8746 0.0
C646 C 0.10766 0.86823 0.88154 0.0
C647 C 0.12733 0.84722 0.88452 0.0
C648 C 0.06763 0.78642 0.87775 0.0
C649 C 0.10742 0.80669 0.88266 0.0
C650 C 0.06742 0.84747 0.87647 0.0
C651 C 0.93421 0.69286 0.92753 0.0
C652 C 1.00537 0.78541 0.86946 0.0
C653 C 0.99541 0.66092 0.78697 0.0
C654 C 1.01135 0.64864 0.80547 0.0
C655 C 0.89107 0.7446 0.88686 0.0
C656 C 0.7493 0.5589 0.93209 0.0
C657 C 0.68403 0.50134 0.92938 0.0
C658 C 0.68718 0.49323 0.95405 0.0
C659 C 0.75123 0.54978 0.95671 0.0
C660 C 0.71521 0.53465 0.91842 0.0
C661 C 0.7204 0.51729 0.96755 0.0
C662 C 0.86374 0.66343 0.84494 0.0
C663 C 0.78325 0.5936 0.92129 0.0
H664 H 0.15831 0.86213 0.888 0.0
H665 H 0.05272 0.75507 0.87635 0.0
H666 H 0.12294 0.79094 0.88496 0.0
H667 H 0.05155 0.86293 0.87431 0.0
H668 H 0.66364 0.46817 0.96301 0.0
H669 H 0.77677 0.56773 0.96769 0.0
H670 H 0.71319 0.54119 0.89941 0.0
H671 H 0.7223 0.51062 0.98654 0.0
Eu672 Eu 0.24343 0.94205 0.37367 0.0
C673 C 0.12508 0.80249 0.4403 0.0
N674 N 0.1644 0.82284 0.44282 0.0
C675 C 0.15816 0.82181 0.48644 0.0
C676 C 0.10066 0.79134 0.461 0.0
C677 C 0.18123 0.83221 0.46541 0.0
C678 C 0.11771 0.8014 0.48424 0.0
C679 C 0.06842 0.77217 0.41377 0.0
C680 C 0.10911 0.79314 0.4169 0.0
C681 C 0.04408 0.76099 0.43437 0.0
C682 C 0.06014 0.77061 0.4579 0.0
Eu683 Eu 0.2005 0.83846 0.40628 0.0
N684 N 0.13334 0.80539 0.39722 0.0
C685 C 0.05338 0.76334 0.38999 0.0
C686 C 0.11887 0.79542 0.37407 0.0
C687 C 0.07873 0.77476 0.37007 0.0
H688 H 0.21247 0.84721 0.46729 0.0
H689 H 0.06738 0.7675 0.35164 0.0
H690 H 0.22275 0.93036 0.3136 0.0
H691 H 0.38316 0.02107 0.42056 0.0
H692 H 0.13808 0.80306 0.35865 0.0
H693 H 0.02229 0.74752 0.38682 0.0
H694 H 0.31165 0.98362 0.41744 0.0
H695 H 0.17158 0.82936 0.50435 0.0
H696 H 1.01276 0.74495 0.4323 0.0
H697 H 0.04094 0.76185 0.4736 0.0
H698 H 0.25815 0.94473 0.27434 0.0
H699 H 0.09993 0.79336 0.50059 0.0
H700 H 0.42329 0.03789 0.38308 0.0
N701 N 0.27409 0.95625 0.33519 0.0
C702 C 0.31359 0.97666 0.33551 0.0
C703 C 0.27408 0.95376 0.29141 0.0
C704 C 0.33498 0.98619 0.31353 0.0
C705 C 0.25412 0.94526 0.31365 0.0
C706 C 0.31469 0.97422 0.29134 0.0
N707 N 0.3114 0.97788 0.37885 0.0
C708 C 0.32885 0.99021 0.40109 0.0
C709 C 0.37369 1.00973 0.35878 0.0
C710 C 0.33278 0.98819 0.3579 0.0
C711 C 0.3919 0.02126 0.38164 0.0
C712 C 0.36936 0.01172 0.40285 0.0
H713 H 0.33008 0.98088 0.27406 0.0
H714 H 0.39269 0.0149 0.29767 0.0
H715 H 0.42654 0.03559 0.33723 0.0
O716 O 0.23661 0.98709 0.39198 0.0
O717 O 0.28236 0.91407 0.37418 0.0
O718 O 0.26518 0.87628 0.40898 0.0
O719 O 0.23973 0.98697 0.3525 0.0
O720 O 0.23476 0.93921 0.41478 0.0
O721 O 0.24182 0.88932 0.43124 0.0
O722 O 0.1893 0.78345 0.39044 0.0
O723 O 0.16698 0.87132 0.40904 0.0
O724 O 0.17831 0.9014 0.37189 0.0
O725 O 0.20868 0.79638 0.42791 0.0
O726 O 0.21514 0.84339 0.36501 0.0
O727 O 0.20085 0.88976 0.35218 0.0
C728 C 0.28938 0.89465 0.39112 0.0
C729 C 0.26033 0.04747 0.37214 0.0
C730 C 0.26289 0.11013 0.3758 0.0
C731 C 0.30372 0.12881 0.37535 0.0
C732 C 0.30102 0.06664 0.37162 0.0
C733 C 0.32256 0.10715 0.37317 0.0
C734 C 0.24138 0.06927 0.37408 0.0
C735 C 0.24427 0.92381 0.43292 0.0
C736 C 0.23708 1.00478 0.37178 0.0
C737 C 0.37578 1.00735 0.31437 0.0
C738 C 0.39507 0.01914 0.33691 0.0
C739 C 0.15613 0.88592 0.39116 0.0
C740 C 0.22198 0.75236 0.40584 0.0
C741 C 0.22397 0.69267 0.39726 0.0
C742 C 0.26451 0.71547 0.39421 0.0
C743 C 0.2623 0.77435 0.40262 0.0
C744 C 0.20295 0.71158 0.40324 0.0
C745 C 0.28344 0.75591 0.39693 0.0
C746 C 0.20645 0.86059 0.34745 0.0
C747 C 0.19878 0.77145 0.41002 0.0
H748 H 0.32109 0.1602 0.37642 0.0
H749 H 0.31609 0.05033 0.37019 0.0
H750 H 0.35399 0.12184 0.37277 0.0
H751 H 0.2099 0.05433 0.37481 0.0
H752 H 0.28173 0.70199 0.38996 0.0
H753 H 0.27729 0.80572 0.40421 0.0
H754 H 0.17163 0.69473 0.40525 0.0
H755 H 0.31461 0.77307 0.39448 0.0
Eu756 Eu 0.32097 0.24725 0.87335 0.0
C757 C 0.33333 0.12269 0.93966 0.0
N758 N 0.35402 0.16194 0.94262 0.0
C759 C 0.34756 0.15458 0.98616 0.0
C760 C 0.31849 0.09775 0.96007 0.0
C761 C 0.36172 0.17817 0.96539 0.0
C762 C 0.32576 0.11421 0.9835 0.0
C763 C 0.30513 0.06675 0.91249 0.0
C764 C 0.32657 0.10735 0.9161 0.0
C765 C 0.29035 0.04188 0.93279 0.0
C766 C 0.29693 0.05732 0.9565 0.0
Eu767 Eu 0.37648 0.19905 0.90654 0.0
N768 N 0.3402 0.13216 0.89671 0.0
C769 C 0.299 0.05235 0.88854 0.0
C770 C 0.33584 0.11824 0.87343 0.0
C771 C 0.31475 0.07821 0.86896 0.0
H772 H 0.37918 0.20931 0.96761 0.0
H773 H 0.31077 0.06734 0.85041 0.0
H774 H 0.31767 0.22974 0.81291 0.0
H775 H 0.38194 0.38485 0.92287 0.0
H776 H 0.34877 0.13779 0.85829 0.0
H777 H 0.28248 0.02137 0.88501 0.0
H778 H 0.34571 0.31343 0.91825 0.0
H779 H 0.35361 0.16753 1.00421 0.0
H780 H 0.27377 0.01062 0.93036 0.0
H781 H 0.28528 0.03773 0.97197 0.0
H782 H 0.34391 0.26708 0.7747 0.0
H783 H 0.31485 0.09603 0.99963 0.0
H784 H 0.41007 0.4268 0.88646 0.0
N785 N 0.34253 0.27988 0.83564 0.0
C786 C 0.36258 0.3194 0.83678 0.0
C787 C 0.34953 0.28214 0.79204 0.0
C788 C 0.37746 0.3419 0.81538 0.0
C789 C 0.33514 0.26105 0.81372 0.0
C790 C 0.37094 0.32274 0.79287 0.0
N791 N 0.3545 0.31502 0.87988 0.0
C792 C 0.35826 0.33143 0.90235 0.0
C793 C 0.38908 0.37838 0.86121 0.0
C794 C 0.3683 0.33749 0.85946 0.0
C795 C 0.39426 0.39547 0.88435 0.0
C796 C 0.37854 0.37188 0.90497 0.0
H797 H 0.38197 0.339 0.77602 0.0
H798 H 0.41003 0.40043 0.80085 0.0
H799 H 0.4202 0.43232 0.84092 0.0
O800 O 0.26897 0.2443 0.88932 0.0
O801 O 0.38813 0.28489 0.87608 0.0
O802 O 0.40537 0.26373 0.91062 0.0
O803 O 0.27597 0.24699 0.85015 0.0
O804 O 0.31222 0.23738 0.91428 0.0
O805 O 0.36678 0.24003 0.9318 0.0
O806 O 0.41875 0.18519 0.89124 0.0
O807 O 0.31024 0.16788 0.9088 0.0
O808 O 0.2945 0.18159 0.87149 0.0
O809 O 0.4258 0.20549 0.92848 0.0
O810 O 0.38849 0.21538 0.86557 0.0
O811 O 0.32905 0.2035 0.85209 0.0
C812 C 0.41303 0.28994 0.8937 0.0
C813 C 0.21274 0.20684 0.86562 0.0
C814 C 0.14242 0.17517 0.8717 0.0
C815 C 0.13885 0.14006 0.86329 0.0
C816 C 0.20813 0.17161 0.85667 0.0
C817 C 0.17148 0.13843 0.8557 0.0
C818 C 0.17963 0.2087 0.87284 0.0
C819 C 0.33548 0.24388 0.93303 0.0
C820 C 0.25221 0.24083 0.86821 0.0
C821 C 0.39831 0.38267 0.81709 0.0
C822 C 0.40408 0.40084 0.83992 0.0
C823 C 0.28552 0.15881 0.89068 0.0
C824 C 0.48254 0.21749 0.90633 0.0
C825 C 0.54404 0.21926 0.89758 0.0
C826 C 0.5615 0.2596 0.8936 0.0
C827 C 0.50063 0.25759 0.90208 0.0
C828 C 0.50435 0.19841 0.90418 0.0
C829 C 0.53995 0.27852 0.89589 0.0
C830 C 0.36334 0.20777 0.84772 0.0
C831 C 0.44031 0.19465 0.91077 0.0
H832 H 0.11059 0.114 0.86209 0.0
H833 H 0.2329 0.16969 0.85039 0.0
H834 H 0.16834 0.11137 0.84893 0.0
H835 H 0.18282 0.23582 0.87959 0.0
H836 H 0.59199 0.27667 0.88887 0.0
H837 H 0.48416 0.27251 0.90316 0.0
H838 H 0.49011 0.16722 0.9069 0.0
H839 H 0.55369 0.30949 0.89259 0.0
Eu840 Eu 0.08758 0.31385 0.37172 0.0
C841 C 0.22481 0.32695 0.43358 0.0
N842 N 0.20195 0.34246 0.43905 0.0
C843 C 0.19746 0.32216 0.48078 0.0
C844 C 0.23463 0.30803 0.45171 0.0
C845 C 0.18852 0.34071 0.46224 0.0
C846 C 0.22054 0.30568 0.47549 0.0
C847 C 0.26177 0.31376 0.40356 0.0
C848 C 0.23807 0.32968 0.40969 0.0
C849 C 0.27163 0.29497 0.42158 0.0
C850 C 0.25805 0.29204 0.44556 0.0
Eu851 Eu 0.18941 0.37409 0.40684 0.0
N852 N 0.22763 0.34759 0.39246 0.0
C853 C 0.27507 0.31738 0.37949 0.0
C854 C 0.24279 0.35346 0.36943 0.0
C855 C 0.2659 0.33771 0.36244 0.0
H856 H 0.17137 0.3541 0.46659 0.0
H857 H 0.27726 0.34193 0.34401 0.0
H858 H 0.1035 0.31005 0.31172 0.0
H859 H 1.00332 0.36841 0.41891 0.0
H860 H 0.23839 0.37128 0.35653 0.0
H861 H 0.29317 0.30538 0.37404 0.0
H862 H 0.04253 0.33617 0.41553 0.0
H863 H 0.18673 0.32077 0.49916 0.0
H864 H 0.28983 0.28265 0.41717 0.0
H865 H 0.26586 0.27738 0.45924 0.0
H866 H 0.09042 0.33307 0.27277 0.0
H867 H 0.22745 0.29138 0.48991 0.0
H868 H 0.98745 0.39335 0.38175 0.0
N869 N 0.07487 0.33247 0.33349 0.0
C870 C 0.05356 0.35064 0.33394 0.0
C871 C 0.07996 0.33827 0.28984 0.0
C872 C 0.04477 0.36361 0.31212 0.0
C873 C 0.08767 0.32563 0.31192 0.0
C874 C 0.05849 0.35742 0.28993 0.0
N875 N 0.0501 0.34423 0.37715 0.0
C876 C 0.03634 0.34749 0.39933 0.0
C877 C 0.01796 0.37472 0.35736 0.0
C878 C 0.04044 0.3563 0.35633 0.0
C879 C 1.00485 0.3794 0.3802 0.0
C880 C 1.01385 0.36547 0.40124 0.0
H881 H 0.05245 0.36706 0.27278 0.0
H882 H 0.01562 0.39244 0.29654 0.0
H883 H 0.99205 0.40202 0.33609 0.0
O884 O 0.04193 0.26011 0.38806 0.0
O885 O 0.11437 0.38064 0.37357 0.0
O886 O 0.14895 0.3981 0.40953 0.0
O887 O 0.04557 0.26614 0.34872 0.0
O888 O 0.08795 0.30532 0.41282 0.0
O889 O 0.13668 0.3614 0.43098 0.0
O890 O 0.24195 0.42817 0.39622 0.0
O891 O 0.15692 0.30757 0.40769 0.0
O892 O 0.1299 0.29122 0.36963 0.0
O893 O 0.22737 0.4161 0.43432 0.0
O894 O 0.18687 0.38693 0.3657 0.0
O895 O 0.14171 0.32681 0.35137 0.0
C896 C 0.13303 0.40608 0.39115 0.0
C897 C 0.98371 0.2237 0.36583 0.0
C898 C 0.92148 0.16277 0.3675 0.0
C899 C 0.90223 0.18426 0.36506 0.0
C900 C 0.96392 0.24449 0.36338 0.0
C901 C 0.92336 0.22477 0.36294 0.0
C902 C 0.96245 0.18288 0.36774 0.0
C903 C 0.10238 0.32891 0.43168 0.0
C904 C 0.0264 0.24407 0.36715 0.0
C905 C 0.02264 0.38225 0.31312 0.0
C906 C 1.00922 0.38772 0.33565 0.0
C907 C 0.14572 0.28429 0.38867 0.0
C908 C 0.29464 0.44832 0.42386 0.0
C909 C 0.3651 0.48972 0.4175 0.0
C910 C 0.37111 0.46431 0.43241 0.0
C911 C 0.30201 0.42423 0.43912 0.0
C912 C 0.3265 0.48146 0.41325 0.0
C913 C 0.33984 0.432 0.44315 0.0
C914 C 0.17 0.3623 0.34743 0.0
C915 C 0.25392 0.43833 0.41862 0.0
H916 H 0.87079 0.16969 0.36458 0.0
H917 H 0.97978 0.27586 0.36193 0.0
H918 H 0.90821 0.24095 0.36103 0.0
H919 H 0.97781 0.1669 0.36994 0.0
H920 H 0.40022 0.47001 0.43639 0.0
H921 H 0.27858 0.39937 0.44812 0.0
H922 H 0.32127 0.50051 0.40164 0.0
H923 H 0.34499 0.41305 0.45488 0.0
Eu924 Eu 0.78737 0.08485 0.87111 0.0
C925 C 0.9137 0.22096 0.93493 0.0
N926 N 0.87485 0.2036 0.93925 0.0
C927 C 0.88589 0.20534 0.98245 0.0
C928 C 0.94022 0.23051 0.95444 0.0
C929 C 0.86067 0.19628 0.96255 0.0
C930 C 0.92581 0.22233 0.97838 0.0
C931 C 0.96718 0.24668 0.90593 0.0
C932 C 0.92702 0.22889 0.91089 0.0
C933 C 0.99358 0.25588 0.92531 0.0
C934 C 0.98015 0.24784 0.94948 0.0
Eu935 Eu 0.83482 0.189 0.90452 0.0
N936 N 0.90073 0.2186 0.89236 0.0
C937 C 0.97963 0.25463 0.88159 0.0
C938 C 0.91291 0.22819 0.86876 0.0
C939 C 0.9524 0.24578 0.86297 0.0
H940 H 0.82993 0.18389 0.96587 0.0
H941 H 0.96183 0.25272 0.84415 0.0
H942 H 0.81403 0.09736 0.81209 0.0
H943 H 0.643 1.00572 0.91227 0.0
H944 H 0.89249 0.223 0.85438 0.0
H945 H 1.0102 0.2681 0.87702 0.0
H946 H 0.71468 0.04247 0.91215 0.0
H947 H 0.87454 0.19934 1.00091 0.0
H948 H 0.02448 0.26931 0.92181 0.0
H949 H 1.00092 0.25522 0.96424 0.0
H950 H 0.78277 0.08523 0.7714 0.0
H951 H 0.94527 0.22926 0.99385 0.0
H952 H 0.60681 0.99109 0.87323 0.0
N953 N 0.7606 0.0721 0.8315 0.0
C954 C 0.72117 0.05259 0.8302 0.0
C955 C 0.76512 0.076 0.78779 0.0
C956 C 0.70208 0.04429 0.80738 0.0
C957 C 0.78274 0.08319 0.81081 0.0
C958 C 0.72461 0.0566 0.78605 0.0
N959 N 0.71899 0.04926 0.8735 0.0
C960 C 0.69924 0.0364 0.89503 0.0
C961 C 0.65882 0.01954 0.85098 0.0
C962 C 0.69976 0.04042 0.85175 0.0
C963 C 0.6383 1.00724 0.87305 0.0
C964 C 0.65862 0.01549 0.89515 0.0
H965 H 0.71103 0.05091 0.76818 0.0
H966 H 0.64608 0.01731 0.7892 0.0
H967 H 0.60825 0.99557 0.82734 0.0
O968 O 0.80072 0.04457 0.89013 0.0
O969 O 0.74863 0.11283 0.8736 0.0
O970 O 0.7697 0.15435 0.90704 0.0
O971 O 0.78737 0.03671 0.8515 0.0
O972 O 0.78706 0.08345 0.91245 0.0
O973 O 0.79557 0.14004 0.9312 0.0
O974 O 0.85145 0.24708 0.89123 0.0
O975 O 0.8636 0.15153 0.90756 0.0
O976 O 0.85226 0.12557 0.86942 0.0
O977 O 0.82725 0.23032 0.92739 0.0
O978 O 0.81711 0.18476 0.8638 0.0
O979 O 0.83033 0.13812 0.8507 0.0
C980 C 0.74365 0.13399 0.89036 0.0
C981 C 0.77394 0.9808 0.87466 0.0
C982 C 0.77407 0.91973 0.88081 0.0
C983 C 0.73348 0.90055 0.88387 0.0
C984 C 0.73351 0.96105 0.87768 0.0
C985 C 0.71343 0.92109 0.88223 0.0
C986 C 0.7941 0.96006 0.87609 0.0
C987 C 0.78619 0.10285 0.93177 0.0
C988 C 0.79573 0.02317 0.87087 0.0
C989 C 0.66126 0.02388 0.80656 0.0
C990 C 0.63971 0.01149 0.82829 0.0
C991 C 0.87385 0.1374 0.88915 0.0
C992 C 0.81778 0.27742 0.90598 0.0
C993 C 0.81722 0.33762 0.89635 0.0
C994 C 0.77665 0.31539 0.89322 0.0
C995 C 0.77743 0.25607 0.90261 0.0
C996 C 0.83757 0.31821 0.90294 0.0
C997 C 0.75701 0.27503 0.89639 0.0
C998 C 0.82341 0.16635 0.8459 0.0
C999 C 0.84002 0.25737 0.91067 0.0
H1000 H 0.71713 0.86952 0.88724 0.0
H1001 H 0.71755 0.97653 0.87664 0.0
H1002 H 0.6822 0.90596 0.88454 0.0
H1003 H 0.82543 0.97548 0.87401 0.0
H1004 H 0.75995 0.32926 0.88855 0.0
H1005 H 0.76183 0.22473 0.90449 0.0
H1006 H 0.86888 0.33462 0.90506 0.0
H1007 H 0.72582 0.25833 0.89386 0.0
H1008 H 0.14316 0.9165 0.08519 0.0
H1009 H 0.15475 0.91605 0.16371 0.0
H1010 H 0.15824 0.9844 0.08689 0.0
H1011 H 0.17005 0.98374 0.16539 0.0
H1012 H 0.22961 0.11544 0.15774 0.0
H1013 H 0.22322 0.05128 0.15125 0.0
H1014 H 0.12368 0.01883 0.10481 0.0
H1015 H 0.12995 0.08266 0.11145 0.0
C1016 C 0.14886 0.93091 0.10278 0.0
C1017 C 0.14748 0.91093 0.12433 0.0
C1018 C 0.15752 0.96971 0.10376 0.0
C1019 C 0.16552 0.98943 0.12626 0.0
C1020 C 0.16447 0.96947 0.14775 0.0
C1021 C 0.1552 0.93056 0.14682 0.0
C1022 C 0.20697 0.09485 0.14572 0.0
C1023 C 0.18021 0.1039 0.13514 0.0
C1024 C 0.20308 0.05808 0.14217 0.0
C1025 C 0.17275 0.02995 0.12768 0.0
C1026 C 0.14743 0.03992 0.11597 0.0
C1027 C 0.15094 0.07638 0.11982 0.0
H1028 H 0.25174 0.15156 0.66435 0.0
H1029 H 0.25055 0.1558 0.58546 0.0
H1030 H 0.20732 0.1773 0.66615 0.0
H1031 H 0.20608 0.18145 0.5872 0.0
H1032 H 0.10221 0.19541 0.65947 0.0
H1033 H 0.14085 0.16312 0.65676 0.0
H1034 H 0.21001 0.24256 0.59946 0.0
H1035 H 0.17114 0.27436 0.60194 0.0
C1036 C 0.24142 0.15732 0.64738 0.0
C1037 C 0.25493 0.152 0.62476 0.0
C1038 C 0.21596 0.1721 0.64841 0.0
C1039 C 0.20333 0.18176 0.62683 0.0
C1040 C 0.21569 0.17492 0.60419 0.0
C1041 C 0.24105 0.16008 0.60318 0.0
C1042 C 0.12545 0.20573 0.64616 0.0
C1043 C 0.13366 0.23756 0.63098 0.0
C1044 C 0.14782 0.18745 0.64475 0.0
C1045 C 0.17865 0.20029 0.62794 0.0
C1046 C 0.18638 0.23172 0.61251 0.0
C1047 C 0.1643 0.2502 0.61408 0.0
H1048 H 0.95234 0.05526 0.11376 0.0
H1049 H 0.91923 0.11848 0.16311 0.0
H1050 H 0.01598 0.11341 0.10807 0.0
H1051 H 0.98327 0.17682 0.15761 0.0
H1052 H 0.11927 0.24788 0.1669 0.0
H1053 H 0.05275 0.19319 0.16977 0.0
H1054 H 0.04727 0.18294 0.09107 0.0
H1055 H 0.11377 0.23786 0.08819 0.0
C1056 C 0.95856 0.08181 0.12314 0.0
C1057 C 0.93084 0.08237 0.13887 0.0
C1058 C 0.99494 0.11511 0.11984 0.0
C1059 C 1.00474 0.14961 0.13252 0.0
C1060 C 0.97664 0.15053 0.14776 0.0
C1061 C 0.93991 0.11732 0.15073 0.0
C1062 C 0.10397 0.23376 0.15023 0.0
C1063 C 0.12189 0.24688 0.12733 0.0
C1064 C 0.06571 0.20276 0.15186 0.0
C1065 C 0.04473 0.1838 0.13065 0.0
C1066 C 0.06277 0.19681 0.10775 0.0
C1067 C 0.10081 0.22819 0.1061 0.0
H1068 H 0.85371 0.91372 0.63516 0.0
H1069 H 0.75842 0.91492 0.67239 0.0
H1070 H 0.87764 0.98108 0.62167 0.0
H1071 H 0.78307 0.98202 0.65972 0.0
H1072 H 0.87491 0.11224 0.66742 0.0
H1073 H 0.85101 0.04319 0.67397 0.0
H1074 H 0.85279 0.02612 0.59615 0.0
H1075 H 0.87613 0.09571 0.58945 0.0
C1076 C 0.83744 0.92795 0.64005 0.0
C1077 C 0.80456 0.90911 0.65529 0.0
C1078 C 0.85125 0.96653 0.63241 0.0
C1079 C 0.83256 0.9869 0.64006 0.0
C1080 C 0.7984 0.96722 0.65391 0.0
C1081 C 0.7844 0.92879 0.66123 0.0
C1082 C 0.87068 0.09399 0.65169 0.0
C1083 C 0.87711 0.10939 0.62791 0.0
C1084 C 0.85677 0.05438 0.65544 0.0
C1085 C 0.8498 0.02929 0.63556 0.0
C1086 C 0.85799 0.04487 0.61178 0.0
C1087 C 0.87123 0.08457 0.60798 0.0
H1088 H 0.92705 0.83162 0.1616 0.0
H1089 H 0.86866 0.76601 0.09689 0.0
H1090 H 0.88872 0.86441 0.15981 0.0
H1091 H 0.83037 0.79846 0.09516 0.0
H1092 H 0.77434 0.8706 0.16524 0.0
H1093 H 0.82039 0.84689 0.16619 0.0
H1094 H 0.83429 0.86123 0.08784 0.0
H1095 H 0.78804 0.88489 0.08695 0.0
C1096 C 0.90629 0.82446 0.14688 0.0
C1097 C 0.90075 0.79603 0.12948 0.0
C1098 C 0.88411 0.84301 0.14596 0.0
C1099 C 0.85623 0.83394 0.12742 0.0
C1100 C 0.85159 0.80632 0.10964 0.0
C1101 C 0.87336 0.78746 0.11074 0.0
C1102 C 0.78775 0.86935 0.14827 0.0
C1103 C 0.7773 0.8793 0.12597 0.0
C1104 C 0.81421 0.85578 0.14882 0.0
C1105 C 0.83092 0.85187 0.12708 0.0
C1106 C 0.82161 0.86335 0.1049 0.0
C1107 C 0.79521 0.87703 0.10437 0.0
H1108 H 0.91179 0.78011 0.66195 0.0
H1109 H 0.92301 0.77732 0.58353 0.0
H1110 H 0.98173 0.82508 0.66534 0.0
H1111 H 0.99278 0.82217 0.58687 0.0
H1112 H 0.11824 0.8547 0.60682 0.0
H1113 H 0.04779 0.81672 0.60272 0.0
H1114 H 0.03574 0.89127 0.65524 0.0
H1115 H 0.1065 0.92895 0.65973 0.0
C1116 C 0.92905 0.78977 0.64539 0.0
C1117 C 0.91197 0.77487 0.62249 0.0
C1118 C 0.96915 0.81549 0.64733 0.0
C1119 C 0.99296 0.8269 0.6264 0.0
C1120 C 0.97543 0.81348 0.6034 0.0
C1121 C 0.93542 0.7879 0.60147 0.0
C1122 C 0.10061 0.86296 0.61756 0.0
C1123 C 0.11806 0.8948 0.63368 0.0
C1124 C 0.06019 0.84142 0.61502 0.0
C1125 C 0.03606 0.85099 0.6286 0.0
C1126 C 0.05347 0.88298 0.64462 0.0
C1127 C 0.09401 0.90477 0.64703 0.0
H1128 H 0.11217 0.87944 0.35097 0.0
H1129 H 0.10683 0.86958 0.42973 0.0
H1130 H 0.04207 0.85359 0.34951 0.0
H1131 H 0.03681 0.84404 0.42832 0.0
H1132 H 0.9101 0.75042 0.41271 0.0
H1133 H 0.98078 0.78312 0.41484 0.0
H1134 H 0.98892 0.86548 0.36019 0.0
H1135 H 0.91808 0.83199 0.3575 0.0
C1136 C 0.09617 0.8726 0.36801 0.0
C1137 C 0.11495 0.87619 0.39046 0.0
C1138 C 0.05595 0.85773 0.36718 0.0
C1139 C 0.03373 0.84633 0.38878 0.0
C1140 C 0.05293 0.85188 0.41131 0.0
C1141 C 0.09309 0.86675 0.41213 0.0
C1142 C 0.92693 0.77536 0.40104 0.0
C1143 C 0.90837 0.78848 0.38488 0.0
C1144 C 0.96748 0.79441 0.40247 0.0
C1145 C 0.99055 0.82703 0.38775 0.0
C1146 C 0.97202 0.8403 0.37167 0.0
C1147 C 0.93141 0.82132 0.3703 0.0
H1148 H 0.16439 0.91307 0.9146 0.0
H1149 H 0.10033 0.92179 0.85339 0.0
H1150 H 0.20294 0.98354 0.91669 0.0
H1151 H 0.1381 0.99273 0.85611 0.0
H1152 H 0.24993 0.11514 0.84989 0.0
H1153 H 0.20339 0.04552 0.84819 0.0
H1154 H 0.2008 0.04089 0.92719 0.0
H1155 H 0.24775 0.11029 0.9288 0.0
C1156 C 0.15839 0.93002 0.90161 0.0
C1157 C 0.12936 0.91158 0.8837 0.0
C1158 C 0.18024 0.97059 0.90302 0.0
C1159 C 0.1737 0.99404 0.8866 0.0
C1160 C 0.14421 0.97566 0.86892 0.0
C1161 C 0.12225 0.93494 0.86753 0.0
C1162 C 0.23872 0.09941 0.86689 0.0
C1163 C 0.25269 0.11819 0.88949 0.0
C1164 C 0.21202 0.05942 0.86592 0.0
C1165 C 0.19858 0.03733 0.88755 0.0
C1166 C 0.21103 0.05671 0.91015 0.0
C1167 C 0.23775 0.09659 0.91109 0.0
H1168 H 0.1594 0.24723 0.4262 0.0
H1169 H 0.15892 0.25382 0.34737 0.0
H1170 H 0.18588 0.20344 0.42356 0.0
H1171 H 0.18501 0.20976 0.34471 0.0
H1172 H 0.20044 0.10248 0.34981 0.0
H1173 H 0.16864 0.14153 0.35332 0.0
H1174 H 0.24865 0.20922 0.41078 0.0
H1175 H 0.28021 0.1701 0.40738 0.0
C1176 C 0.16477 0.23914 0.40831 0.0
C1177 C 0.15751 0.25433 0.38701 0.0
C1178 C 0.17998 0.21412 0.4068 0.0
C1179 C 0.18781 0.2033 0.38392 0.0
C1180 C 0.17905 0.21728 0.3626 0.0
C1181 C 0.16406 0.24251 0.36413 0.0
C1182 C 0.21102 0.12553 0.36331 0.0
C1183 C 0.24292 0.13327 0.37826 0.0
C1184 C 0.19302 0.14808 0.36519 0.0
C1185 C 0.20617 0.17856 0.38229 0.0
C1186 C 0.23766 0.18585 0.39752 0.0
C1187 C 0.25595 0.16364 0.39543 0.0
H1188 H 0.11728 0.22294 0.85362 0.0
H1189 H 0.08647 0.12846 0.90417 0.0
H1190 H 0.05312 0.21669 0.8595 0.0
H1191 H 0.02265 0.12243 0.91025 0.0
H1192 H 0.92126 0.14514 0.92765 0.0
H1193 H 0.98886 0.1595 0.92603 0.0
H1194 H 0.98515 0.16101 0.84713 0.0
H1195 H 0.91775 0.14636 0.84869 0.0
C1196 C 0.09713 0.20152 0.86642 0.0
C1197 C 0.10671 0.17613 0.87841 0.0
C1198 C 0.06037 0.1977 0.86963 0.0
C1199 C 0.03281 0.16887 0.88519 0.0
C1200 C 0.04332 0.14501 0.89824 0.0
C1201 C 0.07976 0.14839 0.89472 0.0
C1202 C 0.93488 0.14833 0.90998 0.0
C1203 C 0.91412 0.14434 0.88831 0.0
C1204 C 0.97353 0.15662 0.90906 0.0
C1205 C 0.99233 0.16162 0.88645 0.0
C1206 C 0.97158 0.15778 0.86481 0.0
C1207 C 0.93282 0.14888 0.86572 0.0
H1208 H 0.8582 0.12015 0.39659 0.0
H1209 H 0.93307 0.10781 0.34455 0.0
H1210 H 0.81955 0.04961 0.40047 0.0
H1211 H 0.89442 0.03688 0.34862 0.0
H1212 H 0.78107 0.91254 0.34252 0.0
H1213 H 0.82671 0.98246 0.33845 0.0
H1214 H 0.82659 0.99521 0.4169 0.0
H1215 H 0.78144 0.92572 0.42094 0.0
C1216 C 0.86639 0.10234 0.38595 0.0
C1217 C 0.89868 0.11963 0.37021 0.0
C1218 C 0.84444 0.0619 0.38833 0.0
C1219 C 0.85397 0.03759 0.37491 0.0
C1220 C 0.88623 0.0548 0.35912 0.0
C1221 C 0.90852 0.0954 0.35694 0.0
C1222 C 0.7915 0.93018 0.3589 0.0
C1223 C 0.77726 0.91369 0.38202 0.0
C1224 C 0.81757 0.97023 0.35658 0.0
C1225 C 0.82984 0.9945 0.37733 0.0
C1226 C 0.81718 0.9775 0.40051 0.0
C1227 C 0.79141 0.93761 0.40282 0.0
H1228 H 0.88503 0.78558 0.92523 0.0
H1229 H 0.87041 0.77154 0.84696 0.0
H1230 H 0.85989 0.83072 0.92442 0.0
H1231 H 0.84532 0.81647 0.8461 0.0
H1232 H 0.76456 0.86518 0.91496 0.0
H1233 H 0.79648 0.82632 0.91677 0.0
H1234 H 0.8635 0.88512 0.85259 0.0
H1235 H 0.83121 0.92385 0.85066 0.0
C1236 C 0.87671 0.79238 0.90785 0.0
C1237 C 0.8794 0.77477 0.88622 0.0
C1238 C 0.86221 0.81814 0.90737 0.0
C1239 C 0.85041 0.82714 0.8852 0.0
C1240 C 0.8545 0.81055 0.86346 0.0
C1241 C 0.86888 0.78476 0.86396 0.0
C1242 C 0.7861 0.86982 0.90122 0.0
C1243 C 0.79516 0.8975 0.88258 0.0
C1244 C 0.80466 0.84775 0.90238 0.0
C1245 C 0.83249 0.85243 0.88477 0.0
C1246 C 0.84195 0.8805 0.86631 0.0
C1247 C 0.82369 0.90293 0.86532 0.0
H1248 H 0.20733 0.7466 0.12501 0.0
H1249 H 0.08543 0.66185 0.12916 0.0
H1250 H 0.22333 0.69504 0.12405 0.0
H1251 H 0.10128 0.60924 0.12878 0.0
H1252 H 0.15092 0.53345 0.09268 0.0
H1253 H 0.12746 0.57923 0.09992 0.0
H1254 H 0.22444 0.64553 0.1484 0.0
H1255 H 0.2479 0.60034 0.14094 0.0
C1256 C 0.18389 0.71671 0.12579 0.0
C1257 C 0.14514 0.70827 0.12669 0.0
C1258 C 0.19305 0.68704 0.12556 0.0
C1259 C 0.16365 0.64774 0.12629 0.0
C1260 C 0.12467 0.63914 0.12795 0.0
C1261 C 0.11553 0.6692 0.12838 0.0
C1262 C 0.1668 0.55745 0.1052 0.0
C1263 C 0.20169 0.56357 0.11589 0.0
C1264 C 0.15332 0.58369 0.1094 0.0
C1265 C 0.17436 0.61655 0.12445 0.0
C1266 C 0.20795 0.62119 0.13622 0.0
C1267 C 0.22143 0.5952 0.13196 0.0
H1268 H 0.62512 0.14202 0.58731 0.0
H1269 H 0.66066 0.23798 0.63722 0.0
H1270 H 0.55695 0.1193 0.59703 0.0
H1271 H 0.59308 0.21451 0.64807 0.0
H1272 H 0.47307 0.199 0.633 0.0
H1273 H 0.54028 0.21445 0.63102 0.0
H1274 H 0.50237 0.09211 0.6234 0.0
H1275 H 0.43446 0.07726 0.62443 0.0
C1276 C 0.61832 0.15768 0.60082 0.0
C1277 C 0.64816 0.19202 0.61129 0.0
C1278 C 0.57918 0.14459 0.60653 0.0
C1279 C 0.569 0.16526 0.62313 0.0
C1280 C 0.59932 0.19831 0.63466 0.0
C1281 C 0.63823 0.21171 0.62861 0.0
C1282 C 0.47921 0.17542 0.63112 0.0
C1283 C 0.44867 0.13705 0.6286 0.0
C1284 C 0.51788 0.18416 0.6302 0.0
C1285 C 0.52733 0.15467 0.62682 0.0
C1286 C 0.49648 0.11578 0.62557 0.0
C1287 C 0.45749 0.10707 0.62651 0.0
H1288 H 0.51798 0.62888 0.10545 0.0
H1289 H 0.42443 0.65076 0.08893 0.0
H1290 H 0.4701 0.56201 0.1181 0.0
H1291 H 0.3772 0.58473 0.10136 0.0
H1292 H 0.31553 0.45646 0.07937 0.0
H1293 H 0.36864 0.5228 0.07592 0.0
H1294 H 0.40446 0.51804 0.14972 0.0
H1295 H 0.34962 0.4508 0.15367 0.0
C1296 C 0.48735 0.61985 0.10529 0.0
C1297 C 0.4749 0.64493 0.096 0.0
C1298 C 0.45999 0.58161 0.11245 0.0
C1299 C 0.41989 0.568 0.11036 0.0
C1300 C 0.40783 0.59419 0.10288 0.0
C1301 C 0.43491 0.63207 0.09583 0.0
C1302 C 0.3345 0.46924 0.09502 0.0
C1303 C 0.32748 0.44844 0.11705 0.0
C1304 C 0.36509 0.50738 0.09295 0.0
C1305 C 0.39028 0.52591 0.11268 0.0
C1306 C 0.38526 0.50452 0.13428 0.0
C1307 C 0.35395 0.46606 0.1365 0.0
H1308 H 0.77621 0.41977 0.63566 0.0
H1309 H 0.87385 0.48742 0.5882 0.0
H1310 H 0.80045 0.37542 0.64392 0.0
H1311 H 0.89769 0.44206 0.59565 0.0
H1312 H 0.94127 0.36071 0.62237 0.0
H1313 H 0.92462 0.41269 0.62197 0.0
H1314 H 0.80264 0.32557 0.62311 0.0
H1315 H 0.81966 0.27482 0.62463 0.0
C1316 C 0.803 0.42519 0.62701 0.0
C1317 C 0.82284 0.45691 0.61107 0.0
C1318 C 0.81688 0.39958 0.63162 0.0
C1319 C 0.85077 0.40442 0.6201 0.0
C1320 C 0.87167 0.43731 0.60501 0.0
C1321 C 0.85796 0.46334 0.60065 0.0
C1322 C 0.91105 0.353 0.62299 0.0
C1323 C 0.8817 0.31374 0.62312 0.0
C1324 C 0.90138 0.3827 0.62247 0.0
C1325 C 0.86214 0.37364 0.62235 0.0
C1326 C 0.83314 0.33416 0.62344 0.0
C1327 C 0.84282 0.30484 0.62393 0.0
H1328 H 0.55981 0.83149 0.10549 0.0
H1329 H 0.58833 0.93471 0.14727 0.0
H1330 H 0.49227 0.81479 0.10406 0.0
H1331 H 0.51958 0.91806 0.14526 0.0
H1332 H 0.39951 0.88516 0.09914 0.0
H1333 H 0.46822 0.90855 0.10847 0.0
H1334 H 0.43774 0.79521 0.13635 0.0
H1335 H 0.36949 0.77214 0.12784 0.0
C1336 C 0.55176 0.85086 0.11434 0.0
C1337 C 0.57984 0.88476 0.12632 0.0
C1338 C 0.5128 0.84105 0.11361 0.0
C1339 C 0.50044 0.86501 0.12454 0.0
C1340 C 0.52829 0.89908 0.13657 0.0
C1341 C 0.56759 0.90857 0.13778 0.0
C1342 C 0.4073 0.86549 0.10783 0.0
C1343 C 0.37877 0.82642 0.11222 0.0
C1344 C 0.44673 0.87895 0.11317 0.0
C1345 C 0.45848 0.85359 0.12287 0.0
C1346 C 0.42973 0.81532 0.12856 0.0
C1347 C 0.39054 0.80204 0.12348 0.0
H1348 H 0.75034 0.55495 0.63262 0.0
H1349 H 0.66247 0.58583 0.619 0.0
H1350 H 0.70137 0.48629 0.63148 0.0
H1351 H 0.6124 0.51704 0.61925 0.0
H1352 H 0.54336 0.39279 0.58746 0.0
H1353 H 0.5878 0.46179 0.59494 0.0
H1354 H 0.64979 0.43201 0.64784 0.0
H1355 H 0.6065 0.3633 0.63919 0.0
C1356 C 0.7202 0.54683 0.62993 0.0
C1357 C 0.71014 0.57553 0.62586 0.0
C1358 C 0.69187 0.50737 0.62944 0.0
C1359 C 0.6525 0.49548 0.62499 0.0
C1360 C 0.64234 0.52466 0.62218 0.0
C1361 C 0.6709 0.56424 0.62247 0.0
C1362 C 0.56629 0.40113 0.60085 0.0
C1363 C 0.57162 0.37262 0.61256 0.0
C1364 C 0.59179 0.44081 0.6053 0.0
C1365 C 0.62299 0.45307 0.62191 0.0
C1366 C 0.627 0.42419 0.63443 0.0
C1367 C 0.60196 0.38462 0.62963 0.0
H1368 H 0.33204 0.89592 0.35113 0.0
H1369 H 0.32763 0.88717 0.42991 0.0
H1370 H 0.38469 0.88037 0.3507 0.0
H1371 H 0.37951 0.87161 0.42952 0.0
H1372 H 0.48992 0.86701 0.42404 0.0
H1373 H 0.4484 0.89595 0.42076 0.0
H1374 H 0.38786 0.82024 0.35993 0.0
H1375 H 0.43005 0.79203 0.36277 0.0
C1376 C 0.34286 0.89151 0.36833 0.0
C1377 C 0.32554 0.89245 0.39052 0.0
C1378 C 0.37271 0.88225 0.3681 0.0
C1379 C 0.38618 0.87448 0.39008 0.0
C1380 C 0.3702 0.87772 0.41228 0.0
C1381 C 0.34026 0.88647 0.41248 0.0
C1382 C 0.46824 0.857 0.40968 0.0
C1383 C 0.46318 0.82692 0.39381 0.0
C1384 C 0.44423 0.87341 0.40791 0.0
C1385 C 0.41467 0.86035 0.39012 0.0
C1386 C 0.41054 0.83128 0.37368 0.0
C1387 C 0.43441 0.81473 0.37554 0.0
H1388 H 0.65314 0.42351 0.92463 0.0
H1389 H 0.63245 0.51679 0.90478 0.0
H1390 H 0.58725 0.37597 0.91225 0.0
H1391 H 0.56577 0.4686 0.89204 0.0
H1392 H 0.45374 0.34679 0.85849 0.0
H1393 H 0.52122 0.40145 0.8618 0.0
H1394 H 0.52586 0.36928 0.93656 0.0
H1395 H 0.45959 0.31626 0.93366 0.0
C1396 C 0.63478 0.43384 0.91696 0.0
C1397 C 0.64788 0.47389 0.9159 0.0
C1398 C 0.59699 0.40659 0.90988 0.0
C1399 C 0.57117 0.41853 0.90143 0.0
C1400 C 0.58509 0.45858 0.89841 0.0
C1401 C 0.62322 0.48612 0.90564 0.0
C1402 C 0.46905 0.35191 0.87571 0.0
C1403 C 0.45135 0.32654 0.89563 0.0
C1404 C 0.50764 0.3831 0.87757 0.0
C1405 C 0.52904 0.38906 0.8993 0.0
C1406 C 0.51044 0.36499 0.91944 0.0
C1407 C 0.47225 0.3345 0.91771 0.0
H1408 H 0.2366 0.65064 0.36218 0.0
H1409 H 0.16607 0.6365 0.42565 0.0
H1410 H 0.20788 0.58013 0.35934 0.0
H1411 H 0.1368 0.56594 0.42251 0.0
H1412 H 0.14475 0.45325 0.43008 0.0
H1413 H 0.16109 0.52093 0.4299 0.0
H1414 H 0.14729 0.51663 0.35139 0.0
H1415 H 0.13079 0.44809 0.35159 0.0
C1416 C 0.21478 0.63249 0.37545 0.0
C1417 C 0.204 0.64941 0.39432 0.0
C1418 C 0.19794 0.59198 0.37363 0.0
C1419 C 0.17007 0.56723 0.39073 0.0
C1420 C 0.15841 0.58409 0.40914 0.0
C1421 C 0.17502 0.62459 0.41085 0.0
C1422 C 0.14461 0.46645 0.41275 0.0
C1423 C 0.13676 0.44528 0.39081 0.0
C1424 C 0.15379 0.50534 0.41268 0.0
C1425 C 0.15577 0.52446 0.39063 0.0
C1426 C 0.14642 0.5029 0.36869 0.0
C1427 C 0.13665 0.46358 0.3688 0.0
H1428 H 0.69551 0.12655 0.85188 0.0
H1429 H 0.71045 0.14781 0.92966 0.0
H1430 H 0.64233 0.14131 0.85226 0.0
H1431 H 0.6579 0.16246 0.93004 0.0
H1432 H 0.54503 0.16387 0.92729 0.0
H1433 H 0.58739 0.13569 0.92437 0.0
H1434 H 0.63908 0.20222 0.85877 0.0
H1435 H 0.59636 0.22984 0.86145 0.0
C1436 C 0.68697 0.1336 0.86909 0.0
C1437 C 0.70742 0.13631 0.89069 0.0
C1438 C 0.65675 0.14238 0.8693 0.0
C1439 C 0.64593 0.15331 0.89118 0.0
C1440 C 0.66511 0.15387 0.91291 0.0
C1441 C 0.69546 0.14563 0.91265 0.0
C1442 C 0.56496 0.17199 0.91202 0.0
C1443 C 0.56747 0.19944 0.89475 0.0
C1444 C 0.58946 0.15604 0.91043 0.0
C1445 C 0.61681 0.16677 0.89137 0.0
C1446 C 0.61819 0.193 0.87356 0.0
C1447 C 0.59397 0.20921 0.87527 0.0
H1448 H 0.37897 0.56471 0.41777 0.0
H1449 H 0.43016 0.49577 0.39583 0.0
H1450 H 0.44019 0.62407 0.40872 0.0
H1451 H 0.49154 0.55506 0.38719 0.0
H1452 H 0.59125 0.67567 0.35993 0.0
H1453 H 0.52771 0.61573 0.36189 0.0
H1454 H 0.50338 0.65423 0.43005 0.0
H1455 H 0.56619 0.71289 0.42846 0.0
C1456 C 0.40298 0.56218 0.41052 0.0
C1457 C 0.39971 0.52547 0.40778 0.0
C1458 C 0.43826 0.59621 0.40558 0.0
C1459 C 0.47107 0.59439 0.39759 0.0
C1460 C 0.46697 0.55762 0.39329 0.0
C1461 C 0.43181 0.52362 0.3984 0.0
C1462 C 0.57242 0.67115 0.3754 0.0
C1463 C 0.58389 0.69955 0.39385 0.0
C1464 C 0.53594 0.63686 0.37648 0.0
C1465 C 0.51001 0.63049 0.39589 0.0
C1466 C 0.522 0.65854 0.41449 0.0
C1467 C 0.55836 0.69226 0.4136 0.0
H1468 H 0.8923 0.57642 0.92644 0.0
H1469 H 0.90851 0.58078 0.84819 0.0
H1470 H 0.87859 0.50951 0.92709 0.0
H1471 H 0.89462 0.51305 0.84881 0.0
H1472 H 0.80602 0.37883 0.86004 0.0
H1473 H 0.83455 0.44921 0.85651 0.0
H1474 H 0.90391 0.46499 0.9209 0.0
H1475 H 0.87483 0.39445 0.92468 0.0
C1476 C 0.89367 0.56326 0.90937 0.0
C1477 C 0.90124 0.5839 0.88723 0.0
C1478 C 0.88597 0.52482 0.90978 0.0
C1479 C 0.88517 0.50561 0.888 0.0
C1480 C 0.89459 0.52682 0.86591 0.0
C1481 C 0.90291 0.56572 0.86555 0.0
C1482 C 0.8275 0.3973 0.8734 0.0
C1483 C 0.83774 0.38082 0.89283 0.0
C1484 C 0.84423 0.43775 0.87119 0.0
C1485 C 0.87149 0.46293 0.88845 0.0
C1486 C 0.88277 0.44651 0.90738 0.0
C1487 C 0.86628 0.40603 0.90947 0.0
H1488 H 0.18648 0.31744 0.31875 0.0
H1489 H 0.18707 0.42636 0.31895 0.0
H1490 H 0.19832 0.32312 0.2749 0.0
H1491 H 0.19854 0.43198 0.27433 0.0
H1492 H 0.15794 0.31008 0.1979 0.0
H1493 H 0.15239 0.31674 0.24164 0.0
H1494 H 0.24562 0.43598 0.2384 0.0
H1495 H 0.25092 0.42923 0.19382 0.0
C1496 C 0.18993 0.34307 0.3094 0.0
C1497 C 0.18584 0.37144 0.32223 0.0
C1498 C 0.19639 0.34619 0.28422 0.0
C1499 C 0.19852 0.37757 0.27099 0.0
C1500 C 0.197 0.40744 0.28401 0.0
C1501 C 0.19067 0.40437 0.30951 0.0
C1502 C 0.17691 0.33798 0.20637 0.0
C1503 C 0.20506 0.36904 0.19246 0.0
C1504 C 0.17392 0.34173 0.23152 0.0
C1505 C 0.19919 0.3766 0.24365 0.0
C1506 C 0.22584 0.40868 0.22958 0.0
C1507 C 0.22877 0.40492 0.2041 0.0
H1508 H 0.83729 0.2466 0.69213 0.0
H1509 H 0.85784 0.14982 0.69541 0.0
H1510 H 0.82644 0.24188 0.73682 0.0
H1511 H 0.8465 0.14458 0.73922 0.0
H1512 H 0.77886 0.1872 0.81779 0.0
H1513 H 0.78389 0.19781 0.77309 0.0
H1514 H 0.88728 0.18787 0.77231 0.0
H1515 H 0.88178 0.17669 0.81617 0.0
C1516 C 0.8385 0.22379 0.70228 0.0
C1517 C 0.84878 0.19881 0.69038 0.0
C1518 C 0.83244 0.22115 0.72781 0.0
C1519 C 0.83654 0.19344 0.74169 0.0
C1520 C 0.84421 0.16698 0.72928 0.0
C1521 C 0.85045 0.16978 0.7041 0.0
C1522 C 0.80311 0.18832 0.80801 0.0
C1523 C 0.82985 0.18098 0.82038 0.0
C1524 C 0.80591 0.1942 0.78246 0.0
C1525 C 0.83551 0.19281 0.76904 0.0
C1526 C 0.86355 0.18812 0.78191 0.0
C1527 C 0.86062 0.18206 0.80712 0.0
H1528 H 0.6058 0.85405 0.19599 0.0
H1529 H 0.70317 0.8344 0.19541 0.0
H1530 H 0.59711 0.83928 0.24019 0.0
H1531 H 0.69376 0.81835 0.23889 0.0
H1532 H 0.6467 0.75964 0.31173 0.0
H1533 H 0.64031 0.76554 0.26762 0.0
H1534 H 0.64335 0.87455 0.2792 0.0
H1535 H 0.65127 0.86919 0.32332 0.0
C1536 C 0.62444 0.84534 0.20515 0.0
C1537 C 0.65459 0.84448 0.19226 0.0
C1538 C 0.61976 0.83731 0.23041 0.0
C1539 C 0.64455 0.82731 0.24294 0.0
C1540 C 0.67384 0.82535 0.22971 0.0
C1541 C 0.67915 0.83439 0.20481 0.0
C1542 C 0.64615 0.78489 0.30482 0.0
C1543 C 0.6511 0.81465 0.32082 0.0
C1544 C 0.64206 0.78809 0.27963 0.0
C1545 C 0.64187 0.82078 0.26991 0.0
C1546 C 0.64338 0.84901 0.28617 0.0
C1547 C 0.64804 0.846 0.31144 0.0
H1548 H 0.86715 0.72386 0.69696 0.0
H1549 H 0.7957 0.59941 0.6893 0.0
H1550 H 0.87373 0.71652 0.74041 0.0
H1551 H 0.80188 0.59191 0.73364 0.0
H1552 H 0.85849 0.6057 0.81432 0.0
H1553 H 0.84859 0.60236 0.76958 0.0
H1554 H 0.82781 0.6991 0.77389 0.0
H1555 H 0.83881 0.703 0.81774 0.0
C1556 C 0.85297 0.69477 0.70458 0.0
C1557 C 0.83048 0.66225 0.68969 0.0
C1558 C 0.85658 0.69055 0.72961 0.0
C1559 C 0.83751 0.65369 0.74073 0.0
C1560 C 0.81679 0.62074 0.72568 0.0
C1561 C 0.81332 0.62499 0.70031 0.0
C1562 C 0.85063 0.62534 0.80564 0.0
C1563 C 0.84901 0.65435 0.81948 0.0
C1564 C 0.8452 0.62363 0.78005 0.0
C1565 C 0.83813 0.65095 0.76804 0.0
C1566 C 0.8341 0.67817 0.78235 0.0
C1567 C 0.83986 0.68009 0.80758 0.0
H1568 H 0.177 0.87715 0.19589 0.0
H1569 H 0.18758 0.77419 0.19492 0.0
H1570 H 0.18781 0.88299 0.2398 0.0
H1571 H 0.19798 0.77965 0.23965 0.0
H1572 H 0.15033 0.8545 0.317 0.0
H1573 H 0.14468 0.84245 0.27319 0.0
H1574 H 0.24233 0.82304 0.27556 0.0
H1575 H 0.24761 0.83474 0.32012 0.0
C1576 C 0.18222 0.856 0.20511 0.0
C1577 C 0.18125 0.8251 0.19201 0.0
C1578 C 0.1881 0.85915 0.23034 0.0
C1579 C 0.19282 0.83126 0.24338 0.0
C1580 C 0.1943 0.80154 0.23014 0.0
C1581 C 0.18855 0.79848 0.20458 0.0
C1582 C 0.17025 0.84704 0.30829 0.0
C1583 C 0.19959 0.84586 0.32194 0.0
C1584 C 0.16721 0.84041 0.28312 0.0
C1585 C 0.19364 0.83271 0.27072 0.0
C1586 C 0.2216 0.82902 0.28456 0.0
C1587 C 0.22454 0.83555 0.31004 0.0
H1588 H 0.42922 0.24864 0.81942 0.0
H1589 H 0.31337 0.14931 0.81871 0.0
H1590 H 0.43408 0.2416 0.77489 0.0
H1591 H 0.31833 0.14171 0.775 0.0
H1592 H 0.31156 0.16943 0.69723 0.0
H1593 H 0.31759 0.18135 0.74101 0.0
H1594 H 0.43365 0.19807 0.73942 0.0
H1595 H 0.42763 0.18659 0.69482 0.0
C1596 C 0.40536 0.22467 0.80989 0.0
C1597 C 0.37086 0.19961 0.82245 0.0
C1598 C 0.40803 0.22073 0.78442 0.0
C1599 C 0.37623 0.19163 0.77126 0.0
C1600 C 0.34297 0.16511 0.78436 0.0
C1601 C 0.34024 0.16921 0.80949 0.0
C1602 C 0.33861 0.17615 0.70611 0.0
C1603 C 0.36898 0.17671 0.69265 0.0
C1604 C 0.34199 0.1827 0.73128 0.0
C1605 C 0.37573 0.18967 0.74391 0.0
C1606 C 0.40721 0.19261 0.73027 0.0
C1607 C 0.40385 0.18619 0.70477 0.0
H1608 H 0.26256 0.21908 0.94932 0.0
H1609 H 0.38249 0.29675 0.96839 0.0
H1610 H 0.24158 0.24283 0.98373 0.0
H1611 H 0.36121 0.32104 1.0033 0.0
H1612 H 0.2992 0.38029 0.04655 0.0
H1613 H 0.32377 0.35949 0.01153 0.0
H1614 H 0.24317 0.23953 0.02915 0.0
H1615 H 0.2192 0.26007 0.06369 0.0
C1616 C 0.28456 0.24104 0.96108 0.0
C1617 C 0.32426 0.25569 0.95619 0.0
C1618 C 0.27246 0.25473 0.98085 0.0
C1619 C 0.29961 0.28402 0.99632 0.0
C1620 C 0.3395 0.2987 0.99163 0.0
C1621 C 0.35171 0.2844 0.97189 0.0
C1622 C 0.28636 0.34957 0.04257 0.0
C1623 C 0.25692 0.32187 0.05775 0.0
C1624 C 0.30081 0.33761 0.02278 0.0
C1625 C 0.28557 0.29776 0.01753 0.0
C1626 C 0.25552 0.27039 0.03247 0.0
C1627 C 0.24167 0.28222 0.05229 0.0
H1628 H 0.04934 0.25557 0.44544 0.0
H1629 H 0.09773 0.37497 0.46836 0.0
H1630 H 1.00349 0.23433 0.47912 0.0
H1631 H 0.05111 0.35332 0.50267 0.0
H1632 H 0.93054 0.29491 0.54604 0.0
H1633 H 0.97599 0.31975 0.51109 0.0
H1634 H 1.00681 0.2313 0.52408 0.0
H1635 H 0.96218 0.207 0.55848 0.0
C1636 C 0.05045 0.27742 0.45782 0.0
C1637 C 0.07762 0.31706 0.45419 0.0
C1638 C 0.024 0.26513 0.47722 0.0
C1639 C 0.02336 0.292 0.49369 0.0
C1640 C 0.05053 0.33182 0.49022 0.0
C1641 C 0.07761 0.3442 0.47079 0.0
C1642 C 0.94647 0.28039 0.541 0.0
C1643 C 0.94234 0.24866 0.55488 0.0
C1644 C 0.97297 0.29498 0.52126 0.0
C1645 C 0.99527 0.27763 0.51475 0.0
C1646 C 0.99009 0.2453 0.52834 0.0
C1647 C 0.96433 0.23127 0.5481 0.0
H1648 H 0.74004 0.01077 0.08151 0.0
H1649 H 0.67441 0.90944 0.03603 0.0
H1650 H 0.75931 0.05217 0.04565 0.0
H1651 H 0.69335 0.95137 0.99993 0.0
H1652 H 0.77371 0.02954 0.93964 0.0
H1653 H 0.74953 0.98927 0.97561 0.0
H1654 H 0.74086 0.08045 0.01299 0.0
H1655 H 0.76595 0.12176 0.97647 0.0
C1656 C 0.7293 0.99711 0.06389 0.0
C1657 C 0.70575 0.95629 0.06189 0.0
C1658 C 0.74027 0.02119 0.0432 0.0
C1659 C 0.72822 1.00545 0.01967 0.0
C1660 C 0.70386 0.96471 0.01765 0.0
C1661 C 0.69278 0.94052 0.03844 0.0
C1662 C 0.76668 0.04142 0.95538 0.0
C1663 C 0.77199 0.07936 0.95487 0.0
C1664 C 0.75234 0.01783 0.97613 0.0
C1665 C 0.74265 0.03108 0.99735 0.0
C1666 C 0.74818 0.06916 0.99708 0.0
C1667 C 0.76261 0.09298 0.97611 0.0
H1668 H 0.81834 0.76465 0.55722 0.0
H1669 H 0.72608 0.64641 0.54694 0.0
H1670 H 0.79461 0.78545 0.52265 0.0
H1671 H 0.70198 0.66733 0.51181 0.0
H1672 H 0.64946 0.73426 0.46778 0.0
H1673 H 0.67076 0.70909 0.50218 0.0
H1674 H 0.78974 0.77915 0.47847 0.0
H1675 H 0.76896 0.80439 0.445 0.0
C1676 C 0.79329 0.7429 0.54723 0.0
C1677 C 0.77439 0.70379 0.55471 0.0
C1678 C 0.77956 0.75487 0.52738 0.0
C1679 C 0.74622 0.72818 0.51433 0.0
C1680 C 0.72752 0.68877 0.52152 0.0
C1681 C 0.74168 0.67663 0.54137 0.0
C1682 C 0.68015 0.74449 0.47015 0.0
C1683 C 0.70738 0.77147 0.45354 0.0
C1684 C 0.69234 0.72972 0.48966 0.0
C1685 C 0.73207 0.74203 0.49318 0.0
C1686 C 0.75901 0.76917 0.47661 0.0
C1687 C 0.74693 0.78356 0.4572 0.0
H1688 H 0.91251 0.6699 0.97565 0.0
H1689 H 1.01386 0.7358 0.93032 0.0
H1690 H 0.95443 0.68823 0.01175 0.0
H1691 H 0.05523 0.75448 0.96619 0.0
H1692 H 0.12485 0.76183 0.03573 0.0
H1693 H 0.08378 0.73646 0.99904 0.0
H1694 H 0.99202 0.74433 0.03611 0.0
H1695 H 0.0319 0.7687 0.07213 0.0
C1696 C 0.94359 0.68812 0.97327 0.0
C1697 C 0.95934 0.7014 0.94986 0.0
C1698 C 0.96779 0.69888 0.99406 0.0
C1699 C 1.00853 0.72324 0.99211 0.0
C1700 C 0.02427 0.73544 0.9686 0.0
C1701 C 1.00018 0.72479 0.9479 0.0
C1702 C 0.09595 0.75815 0.03599 0.0
C1703 C 0.08209 0.7674 0.05718 0.0
C1704 C 0.07228 0.74359 0.01492 0.0
C1705 C 0.03409 0.73775 0.01451 0.0
C1706 C 0.02064 0.74732 0.03567 0.0
C1707 C 0.04405 0.76182 0.05648 0.0
H1708 H 0.2233 0.97527 0.44879 0.0
H1709 H 0.29615 0.92741 0.46847 0.0
H1710 H 0.24857 0.01998 0.48298 0.0
H1711 H 0.3217 0.97283 0.50346 0.0
H1712 H 0.3837 0.09306 0.54811 0.0
H1713 H 0.36269 0.04797 0.5129 0.0
H1714 H 0.24339 0.01483 0.52776 0.0
H1715 H 0.26405 0.0592 0.56223 0.0
C1716 C 0.24456 0.974 0.4606 0.0
C1717 C 0.2574 0.94737 0.45589 0.0
C1718 C 0.2591 0.9998 0.4803 0.0
C1719 C 0.28727 1.00022 0.49606 0.0
C1720 C 0.30024 0.97353 0.49156 0.0
C1721 C 0.28521 0.94712 0.47177 0.0
C1722 C 0.35313 0.07661 0.54347 0.0
C1723 C 0.32564 0.08008 0.55786 0.0
C1724 C 0.34101 0.05035 0.52357 0.0
C1725 C 0.30127 0.02761 0.51747 0.0
C1726 C 0.27419 0.03193 0.53169 0.0
C1727 C 0.28613 0.05753 0.55153 0.0
loop_
_geom_bond_atom_site_label_1
_geom_bond_atom_site_label_2
_geom_bond_distance
_geom_bond_site_symmetry_2
_ccdc_geom_bond_type
Eu0 N29 2.600 . S
Eu0 N35 2.562 . S
Eu0 O44 2.462 . S
Eu0 O45 2.373 . S
Eu0 O47 2.432 . S
Eu0 O48 2.291 . S
Eu0 O52 2.335 . S
Eu0 O55 2.372 . S
Eu0 C64 2.787 . S
C1 N2 1.365 . S
C1 C4 1.405 . S
C1 C8 1.448 . S
N2 C1 1.365 . S
N2 C5 1.319 . S
N2 Eu11 2.600 . S
C3 C5 1.397 . S
C3 C6 1.367 . S
C3 H23 0.931 1_554 S
C4 C1 1.405 . S
C4 C6 1.403 . S
C4 C10 1.439 . S
C5 N2 1.319 . S
C5 C3 1.397 . S
C5 H16 0.930 . S
C6 C3 1.367 . S
C6 C4 1.403 . S
C6 H27 0.929 . S
C7 C8 1.430 . S
C7 C9 1.387 . S
C7 C13 1.404 . S
C8 C1 1.448 . S
C8 C7 1.430 . S
C8 N12 1.351 . S
C9 C7 1.387 . S
C9 C10 1.374 . S
C9 H24 0.931 1_455 S
C10 C4 1.439 . S
C10 C9 1.374 . S
C10 H25 0.931 1_455 S
Eu11 N2 2.600 . S
Eu11 N12 2.562 . S
Eu11 O46 2.335 . S
Eu11 O49 2.372 . S
Eu11 O50 2.462 . S
Eu11 O51 2.373 . S
Eu11 O53 2.432 . S
Eu11 O54 2.291 . S
Eu11 C75 2.787 . S
N12 C8 1.351 . S
N12 Eu11 2.562 . S
N12 C14 1.325 . S
C13 C7 1.404 . S
C13 C15 1.366 . S
C13 H21 0.930 1_455 S
C14 N12 1.325 . S
C14 C15 1.416 . S
C14 H20 0.929 . S
C15 C13 1.366 . S
C15 C14 1.416 . S
C15 H17 0.930 . S
H16 C5 0.930 . S
H17 C15 0.930 . S
H18 C33 0.930 . S
H19 C40 0.930 . S
H20 C14 0.929 . S
H21 C13 0.930 1_655 S
H22 C36 0.929 . S
H23 C3 0.931 1_556 S
H24 C9 0.931 1_655 S
H25 C10 0.931 1_655 S
H26 C31 0.931 . S
H27 C6 0.929 . S
H28 C39 0.930 . S
N29 Eu0 2.600 . S
N29 C30 1.365 . S
N29 C33 1.319 . S
C30 N29 1.365 . S
C30 C32 1.405 . S
C30 C38 1.448 . S
C31 H26 0.931 . S
C31 C33 1.397 . S
C31 C34 1.367 . S
C32 C30 1.405 . S
C32 C34 1.403 . S
C32 C65 1.439 . S
C33 H18 0.930 . S
C33 N29 1.319 . S
C33 C31 1.397 . S
C34 C31 1.367 . S
C34 C32 1.403 . S
C34 H41 0.929 . S
N35 Eu0 2.562 . S
N35 C36 1.325 . S
N35 C38 1.351 . S
C36 H22 0.929 . S
C36 N35 1.325 . S
C36 C40 1.416 . S
C37 C38 1.430 . S
C37 C39 1.404 . S
C37 C66 1.387 . S
C38 C30 1.448 . S
C38 N35 1.351 . S
C38 C37 1.430 . S
C39 H28 0.930 . S
C39 C37 1.404 . S
C39 C40 1.366 . S
C40 H19 0.930 . S
C40 C36 1.416 . S
C40 C39 1.366 . S
H41 C34 0.929 . S
H42 C65 0.931 . S
H43 C66 0.931 . S
O44 Eu0 2.462 . S
O44 C64 1.252 . S
O45 Eu0 2.373 . S
O45 C56 1.249 . S
O46 Eu11 2.335 . S
O46 C56 1.264 . S
O47 Eu0 2.432 . S
O47 C64 1.268 . S
O48 Eu0 2.291 . S
O48 C63 1.255 . S
O49 Eu11 2.372 . S
O49 C63 1.257 . S
O50 Eu11 2.462 . S
O50 C75 1.252 . S
O51 Eu11 2.373 . S
O51 C67 1.249 . S
O52 Eu0 2.335 . S
O52 C67 1.264 . S
O53 Eu11 2.432 . S
O53 C75 1.268 . S
O54 Eu11 2.291 . S
O54 C74 1.255 . S
O55 Eu0 2.372 . S
O55 C74 1.257 . S
C56 O45 1.249 . S
C56 O46 1.264 . S
C57 C60 1.382 . S
C57 C62 1.390 . S
C57 C64 1.506 . S
C58 C59 1.398 . S
C58 C62 1.392 . S
C59 C58 1.398 . S
C59 C61 1.372 . S
C59 H76 0.931 . S
C60 C57 1.382 . S
C60 C61 1.390 . S
C60 H77 0.931 . S
C61 C59 1.372 . S
C61 C60 1.390 . S
C61 H78 0.929 . S
C62 C57 1.390 . S
C62 C58 1.392 . S
C62 H79 0.930 . S
C63 O48 1.255 . S
C63 O49 1.257 . S
C64 Eu0 2.787 . S
C64 O44 1.252 . S
C64 O47 1.268 . S
C64 C57 1.506 . S
C65 C32 1.439 . S
C65 H42 0.931 . S
C65 C66 1.374 . S
C66 C37 1.387 . S
C66 H43 0.931 . S
C66 C65 1.374 . S
C67 O51 1.249 . S
C67 O52 1.264 . S
C68 C71 1.382 . S
C68 C72 1.390 . S
C68 C75 1.506 . S
C69 C70 1.398 . S
C69 C72 1.392 . S
C70 C69 1.398 . S
C70 C73 1.372 . S
C70 H80 0.931 . S
C71 C68 1.382 . S
C71 C73 1.390 . S
C71 H81 0.931 . S
C72 C68 1.390 . S
C72 C69 1.392 . S
C72 H82 0.930 . S
C73 C70 1.372 . S
C73 C71 1.390 . S
C73 H83 0.929 . S
C74 O54 1.255 . S
C74 O55 1.257 . S
C75 Eu11 2.787 . S
C75 O50 1.252 . S
C75 O53 1.268 . S
C75 C68 1.506 . S
H76 C59 0.931 . S
H77 C60 0.931 . S
H78 C61 0.929 . S
H79 C62 0.930 . S
H80 C70 0.931 . S
H81 C71 0.931 . S
H82 C72 0.930 . S
H83 C73 0.929 . S
Eu84 N113 2.600 . S
Eu84 N119 2.562 . S
Eu84 O128 2.462 . S
Eu84 O129 2.373 . S
Eu84 O131 2.432 . S
Eu84 O132 2.291 . S
Eu84 O136 2.335 . S
Eu84 O139 2.372 . S
Eu84 C148 2.787 . S
C85 N86 1.365 . S
C85 C88 1.405 . S
C85 C92 1.448 . S
N86 C85 1.365 . S
N86 C89 1.319 . S
N86 Eu95 2.600 . S
C87 C89 1.397 . S
C87 C90 1.367 . S
C87 H107 0.931 . S
C88 C85 1.405 . S
C88 C90 1.403 . S
C88 C94 1.439 . S
C89 N86 1.319 . S
C89 C87 1.397 . S
C89 H100 0.930 . S
C90 C87 1.367 . S
C90 C88 1.403 . S
C90 H111 0.929 . S
C91 C92 1.430 . S
C91 C93 1.387 . S
C91 C97 1.404 . S
C92 C85 1.448 . S
C92 C91 1.430 . S
C92 N96 1.351 . S
C93 C91 1.387 . S
C93 C94 1.374 . S
C93 H108 0.931 1_545 S
C94 C88 1.439 . S
C94 C93 1.374 . S
C94 H109 0.931 1_545 S
Eu95 N86 2.600 . S
Eu95 N96 2.562 . S
Eu95 O130 2.335 . S
Eu95 O133 2.372 . S
Eu95 O134 2.462 . S
Eu95 O135 2.373 . S
Eu95 O137 2.432 . S
Eu95 O138 2.291 . S
Eu95 C159 2.787 . S
N96 C92 1.351 . S
N96 Eu95 2.562 . S
N96 C98 1.325 . S
C97 C91 1.404 . S
C97 C99 1.366 . S
C97 H105 0.930 1_545 S
C98 N96 1.325 . S
C98 C99 1.416 . S
C98 H104 0.929 . S
C99 C97 1.366 . S
C99 C98 1.416 . S
C99 H101 0.930 . S
H100 C89 0.930 . S
H101 C99 0.930 . S
H102 C117 0.930 . S
H103 C124 0.926 1_455 S
H104 C98 0.929 . S
H105 C97 0.930 1_565 S
H106 C120 0.929 . S
H107 C87 0.931 . S
H108 C93 0.931 1_565 S
H109 C94 0.931 1_565 S
H110 C115 0.931 . S
H111 C90 0.929 . S
H112 C123 0.930 . S
N113 Eu84 2.600 . S
N113 C114 1.365 . S
N113 C117 1.319 . S
C114 N113 1.365 . S
C114 C116 1.405 . S
C114 C122 1.448 . S
C115 H110 0.931 . S
C115 C117 1.397 . S
C115 C118 1.367 . S
C116 C114 1.405 . S
C116 C118 1.403 . S
C116 C149 1.439 . S
C117 H102 0.930 . S
C117 N113 1.319 . S
C117 C115 1.397 . S
C118 C115 1.367 . S
C118 C116 1.403 . S
C118 H125 0.929 . S
N119 Eu84 2.562 . S
N119 C120 1.325 . S
N119 C122 1.351 . S
C120 H106 0.929 . S
C120 N119 1.325 . S
C120 C124 1.419 . S
C121 C122 1.430 . S
C121 C123 1.404 1_655 S
C121 C150 1.387 1_655 S
C122 C114 1.448 . S
C122 N119 1.351 . S
C122 C121 1.430 . S
C123 H112 0.930 . S
C123 C121 1.404 1_455 S
C123 C124 1.367 1_455 S
C124 H103 0.926 1_655 S
C124 C120 1.419 . S
C124 C123 1.367 1_655 S
H125 C118 0.929 . S
H126 C149 0.931 1_455 S
H127 C150 0.931 . S
O128 Eu84 2.462 . S
O128 C148 1.252 . S
O129 Eu84 2.373 . S
O129 C140 1.249 . S
O130 Eu95 2.335 . S
O130 C140 1.264 . S
O131 Eu84 2.432 . S
O131 C148 1.268 . S
O132 Eu84 2.291 . S
O132 C147 1.255 . S
O133 Eu95 2.372 . S
O133 C147 1.257 . S
O134 Eu95 2.462 . S
O134 C159 1.252 . S
O135 Eu95 2.373 . S
O135 C151 1.249 . S
O136 Eu84 2.335 . S
O136 C151 1.264 . S
O137 Eu95 2.432 . S
O137 C159 1.268 . S
O138 Eu95 2.291 . S
O138 C158 1.255 . S
O139 Eu84 2.372 . S
O139 C158 1.257 . S
C140 O129 1.249 . S
C140 O130 1.264 . S
C141 C144 1.382 . S
C141 C146 1.390 . S
C141 C148 1.506 1_455 S
C142 C143 1.398 . S
C142 C146 1.392 . S
C143 C142 1.398 . S
C143 C145 1.372 . S
C143 H160 0.931 . S
C144 C141 1.382 . S
C144 C145 1.390 . S
C144 H161 0.931 . S
C145 C143 1.372 . S
C145 C144 1.390 . S
C145 H162 0.929 . S
C146 C141 1.390 . S
C146 C142 1.392 . S
C146 H163 0.930 . S
C147 O132 1.255 . S
C147 O133 1.257 . S
C148 Eu84 2.787 . S
C148 O128 1.252 . S
C148 O131 1.268 . S
C148 C141 1.506 1_655 S
C149 C116 1.439 . S
C149 H126 0.931 1_655 S
C149 C150 1.374 1_655 S
C150 C121 1.387 1_455 S
C150 H127 0.931 . S
C150 C149 1.374 1_455 S
C151 O135 1.249 . S
C151 O136 1.264 . S
C152 C155 1.382 . S
C152 C156 1.390 . S
C152 C159 1.506 . S
C153 C154 1.398 . S
C153 C156 1.392 . S
C154 C153 1.398 . S
C154 C157 1.372 . S
C154 H164 0.931 . S
C155 C152 1.382 . S
C155 C157 1.390 . S
C155 H165 0.931 . S
C156 C152 1.390 . S
C156 C153 1.392 . S
C156 H166 0.930 . S
C157 C154 1.372 . S
C157 C155 1.390 . S
C157 H167 0.929 . S
C158 O138 1.255 . S
C158 O139 1.257 . S
C159 Eu95 2.787 . S
C159 O134 1.252 . S
C159 O137 1.268 . S
C159 C152 1.506 . S
H160 C143 0.931 . S
H161 C144 0.931 . S
H162 C145 0.929 . S
H163 C146 0.930 . S
H164 C154 0.931 . S
H165 C155 0.931 . S
H166 C156 0.930 . S
H167 C157 0.929 . S
Eu168 N197 2.600 . S
Eu168 N203 2.562 . S
Eu168 O212 2.462 . S
Eu168 O213 2.373 . S
Eu168 O215 2.432 . S
Eu168 O216 2.291 . S
Eu168 O220 2.335 . S
Eu168 O223 2.372 . S
Eu168 C232 2.787 . S
C169 N170 1.365 . S
C169 C172 1.405 . S
C169 C176 1.448 . S
N170 C169 1.365 . S
N170 C173 1.319 . S
N170 Eu179 2.600 . S
C171 C173 1.397 . S
C171 C174 1.367 . S
C171 H191 0.931 1_554 S
C172 C169 1.405 . S
C172 C174 1.403 . S
C172 C178 1.439 . S
C173 N170 1.319 . S
C173 C171 1.397 . S
C173 H184 0.930 . S
C174 C171 1.367 . S
C174 C172 1.403 . S
C174 H195 0.929 . S
C175 C176 1.430 . S
C175 C177 1.387 . S
C175 C181 1.404 . S
C176 C169 1.448 . S
C176 C175 1.430 . S
C176 N180 1.351 . S
C177 C175 1.387 . S
C177 C178 1.374 . S
C177 H192 0.931 . S
C178 C172 1.439 . S
C178 C177 1.374 . S
C178 H193 0.931 . S
Eu179 N170 2.600 . S
Eu179 N180 2.562 . S
Eu179 O214 2.335 . S
Eu179 O217 2.372 . S
Eu179 O218 2.462 . S
Eu179 O219 2.373 . S
Eu179 O221 2.432 . S
Eu179 O222 2.291 . S
Eu179 C243 2.787 . S
N180 C176 1.351 . S
N180 Eu179 2.562 . S
N180 C182 1.325 . S
C181 C175 1.404 . S
C181 C183 1.366 . S
C181 H189 0.930 . S
C182 N180 1.325 . S
C182 C183 1.416 . S
C182 H188 0.929 . S
C183 C181 1.366 . S
C183 C182 1.416 . S
C183 H185 0.930 . S
H184 C173 0.930 . S
H185 C183 0.930 . S
H186 C201 0.930 . S
H187 C208 0.922 1_545 S
H188 C182 0.929 . S
H189 C181 0.930 . S
H190 C204 0.929 . S
H191 C171 0.931 1_556 S
H192 C177 0.931 . S
H193 C178 0.931 . S
H194 C199 0.931 . S
H195 C174 0.929 . S
H196 C207 0.930 . S
N197 Eu168 2.600 . S
N197 C198 1.365 . S
N197 C201 1.319 . S
C198 N197 1.365 . S
C198 C200 1.405 . S
C198 C206 1.448 . S
C199 H194 0.931 . S
C199 C201 1.397 . S
C199 C202 1.367 . S
C200 C198 1.405 . S
C200 C202 1.403 . S
C200 C233 1.439 . S
C201 H186 0.930 . S
C201 N197 1.319 . S
C201 C199 1.397 . S
C202 C199 1.367 . S
C202 C200 1.403 . S
C202 H209 0.929 . S
N203 Eu168 2.562 . S
N203 C204 1.325 . S
N203 C206 1.351 . S
C204 H190 0.929 . S
C204 N203 1.325 . S
C204 C208 1.438 . S
C205 C206 1.430 . S
C205 C207 1.404 1_565 S
C205 C234 1.387 1_565 S
C206 C198 1.448 . S
C206 N203 1.351 . S
C206 C205 1.430 . S
C207 H196 0.930 . S
C207 C205 1.404 1_545 S
C207 C208 1.352 1_545 S
C208 H187 0.922 1_565 S
C208 C204 1.438 . S
C208 C207 1.352 1_565 S
H209 C202 0.929 . S
H210 C233 0.931 1_545 S
H211 C234 0.931 . S
O212 Eu168 2.462 . S
O212 C232 1.252 . S
O213 Eu168 2.373 . S
O213 C224 1.249 . S
O214 Eu179 2.335 . S
O214 C224 1.264 . S
O215 Eu168 2.432 . S
O215 C232 1.268 . S
O216 Eu168 2.291 . S
O216 C231 1.255 . S
O217 Eu179 2.372 . S
O217 C231 1.257 . S
O218 Eu179 2.462 . S
O218 C243 1.252 . S
O219 Eu179 2.373 . S
O219 C235 1.249 . S
O220 Eu168 2.335 . S
O220 C235 1.264 . S
O221 Eu179 2.432 . S
O221 C243 1.268 . S
O222 Eu179 2.291 . S
O222 C242 1.255 . S
O223 Eu168 2.372 . S
O223 C242 1.257 . S
C224 O213 1.249 . S
C224 O214 1.264 . S
C225 C228 1.382 . S
C225 C230 1.390 . S
C225 C232 1.506 1_545 S
C226 C227 1.398 . S
C226 C230 1.392 . S
C227 C226 1.398 . S
C227 C229 1.372 . S
C227 H244 0.931 . S
C228 C225 1.382 . S
C228 C229 1.390 . S
C228 H245 0.931 . S
C229 C227 1.372 . S
C229 C228 1.390 . S
C229 H246 0.929 . S
C230 C225 1.390 . S
C230 C226 1.392 . S
C230 H247 0.930 . S
C231 O216 1.255 . S
C231 O217 1.257 . S
C232 Eu168 2.787 . S
C232 O212 1.252 . S
C232 O215 1.268 . S
C232 C225 1.506 1_565 S
C233 C200 1.439 . S
C233 H210 0.931 1_565 S
C233 C234 1.374 1_565 S
C234 C205 1.387 1_545 S
C234 H211 0.931 . S
C234 C233 1.374 1_545 S
C235 O219 1.249 . S
C235 O220 1.264 . S
C236 C239 1.382 . S
C236 C240 1.390 . S
C236 C243 1.506 . S
C237 C238 1.398 . S
C237 C240 1.392 . S
C238 C237 1.398 . S
C238 C241 1.372 . S
C238 H248 0.931 . S
C239 C236 1.382 . S
C239 C241 1.390 . S
C239 H249 0.931 . S
C240 C236 1.390 . S
C240 C237 1.392 . S
C240 H250 0.930 . S
C241 C238 1.372 . S
C241 C239 1.390 . S
C241 H251 0.929 . S
C242 O222 1.255 . S
C242 O223 1.257 . S
C243 Eu179 2.787 . S
C243 O218 1.252 . S
C243 O221 1.268 . S
C243 C236 1.506 . S
H244 C227 0.931 . S
H245 C228 0.931 . S
H246 C229 0.929 . S
H247 C230 0.930 . S
H248 C238 0.931 . S
H249 C239 0.931 . S
H250 C240 0.930 . S
H251 C241 0.929 . S
Eu252 N281 2.600 . S
Eu252 N287 2.562 . S
Eu252 O296 2.462 . S
Eu252 O297 2.373 . S
Eu252 O299 2.432 . S
Eu252 O300 2.291 . S
Eu252 O304 2.335 . S
Eu252 O307 2.372 . S
Eu252 C316 2.787 . S
C253 N254 1.365 . S
C253 C256 1.405 . S
C253 C260 1.448 . S
N254 C253 1.365 . S
N254 C257 1.319 . S
N254 Eu263 2.600 . S
C255 C257 1.397 . S
C255 C258 1.367 . S
C255 H275 0.931 . S
C256 C253 1.405 . S
C256 C258 1.403 . S
C256 C262 1.439 . S
C257 N254 1.319 . S
C257 C255 1.397 . S
C257 H268 0.930 . S
C258 C255 1.367 . S
C258 C256 1.403 . S
C258 H279 0.929 . S
C259 C260 1.430 . S
C259 C261 1.387 . S
C259 C265 1.404 . S
C260 C253 1.448 . S
C260 C259 1.430 . S
C260 N264 1.351 . S
C261 C259 1.387 . S
C261 C262 1.374 . S
C261 H276 0.931 1_655 S
C262 C256 1.439 . S
C262 C261 1.374 . S
C262 H277 0.931 1_655 S
Eu263 N254 2.600 . S
Eu263 N264 2.562 . S
Eu263 O298 2.335 . S
Eu263 O301 2.372 . S
Eu263 O302 2.462 . S
Eu263 O303 2.373 . S
Eu263 O305 2.432 . S
Eu263 O306 2.291 . S
Eu263 C327 2.787 . S
N264 C260 1.351 . S
N264 Eu263 2.562 . S
N264 C266 1.325 . S
C265 C259 1.404 . S
C265 C267 1.366 . S
C265 H273 0.930 1_655 S
C266 N264 1.325 . S
C266 C267 1.416 . S
C266 H272 0.929 . S
C267 C265 1.366 . S
C267 C266 1.416 . S
C267 H269 0.930 . S
H268 C257 0.930 . S
H269 C267 0.930 . S
H270 C285 0.930 . S
H271 C292 0.930 . S
H272 C266 0.929 . S
H273 C265 0.930 1_455 S
H274 C288 0.929 . S
H275 C255 0.931 . S
H276 C261 0.931 1_455 S
H277 C262 0.931 1_455 S
H278 C283 0.931 . S
H279 C258 0.929 . S
H280 C291 0.930 . S
N281 Eu252 2.600 . S
N281 C282 1.365 . S
N281 C285 1.319 . S
C282 N281 1.365 . S
C282 C284 1.405 . S
C282 C290 1.448 . S
C283 H278 0.931 . S
C283 C285 1.397 . S
C283 C286 1.367 . S
C284 C282 1.405 . S
C284 C286 1.403 . S
C284 C317 1.439 . S
C285 H270 0.930 . S
C285 N281 1.319 . S
C285 C283 1.397 . S
C286 C283 1.367 . S
C286 C284 1.403 . S
C286 H293 0.929 . S
N287 Eu252 2.562 . S
N287 C288 1.325 . S
N287 C290 1.351 . S
C288 H274 0.929 . S
C288 N287 1.325 . S
C288 C292 1.416 . S
C289 C290 1.430 . S
C289 C291 1.404 . S
C289 C318 1.387 . S
C290 C282 1.448 . S
C290 N287 1.351 . S
C290 C289 1.430 . S
C291 H280 0.930 . S
C291 C289 1.404 . S
C291 C292 1.366 . S
C292 H271 0.930 . S
C292 C288 1.416 . S
C292 C291 1.366 . S
H293 C286 0.929 . S
H294 C317 0.931 . S
H295 C318 0.931 . S
O296 Eu252 2.462 . S
O296 C316 1.252 . S
O297 Eu252 2.373 . S
O297 C308 1.249 . S
O298 Eu263 2.335 . S
O298 C308 1.264 . S
O299 Eu252 2.432 . S
O299 C316 1.268 . S
O300 Eu252 2.291 . S
O300 C315 1.255 . S
O301 Eu263 2.372 . S
O301 C315 1.257 . S
O302 Eu263 2.462 . S
O302 C327 1.252 . S
O303 Eu263 2.373 . S
O303 C319 1.249 . S
O304 Eu252 2.335 . S
O304 C319 1.264 . S
O305 Eu263 2.432 . S
O305 C327 1.268 . S
O306 Eu263 2.291 . S
O306 C326 1.255 . S
O307 Eu252 2.372 . S
O307 C326 1.257 . S
C308 O297 1.249 . S
C308 O298 1.264 . S
C309 C312 1.382 . S
C309 C314 1.390 . S
C309 C316 1.506 . S
C310 C311 1.398 . S
C310 C314 1.392 . S
C311 C310 1.398 . S
C311 C313 1.372 . S
C311 H328 0.931 . S
C312 C309 1.382 . S
C312 C313 1.390 . S
C312 H329 0.931 . S
C313 C311 1.372 . S
C313 C312 1.390 . S
C313 H330 0.929 . S
C314 C309 1.390 . S
C314 C310 1.392 . S
C314 H331 0.930 . S
C315 O300 1.255 . S
C315 O301 1.257 . S
C316 Eu252 2.787 . S
C316 O296 1.252 . S
C316 O299 1.268 . S
C316 C309 1.506 . S
C317 C284 1.439 . S
C317 H294 0.931 . S
C317 C318 1.374 . S
C318 C289 1.387 . S
C318 H295 0.931 . S
C318 C317 1.374 . S
C319 O303 1.249 . S
C319 O304 1.264 . S
C320 C323 1.382 . S
C320 C324 1.390 . S
C320 C327 1.506 . S
C321 C322 1.398 . S
C321 C324 1.392 . S
C322 C321 1.398 . S
C322 C325 1.372 . S
C322 H332 0.931 . S
C323 C320 1.382 . S
C323 C325 1.390 . S
C323 H333 0.931 . S
C324 C320 1.390 . S
C324 C321 1.392 . S
C324 H334 0.930 . S
C325 C322 1.372 . S
C325 C323 1.390 . S
C325 H335 0.929 . S
C326 O306 1.255 . S
C326 O307 1.257 . S
C327 Eu263 2.787 . S
C327 O302 1.252 . S
C327 O305 1.268 . S
C327 C320 1.506 . S
H328 C311 0.931 . S
H329 C312 0.931 . S
H330 C313 0.929 . S
H331 C314 0.930 . S
H332 C322 0.931 . S
H333 C323 0.931 . S
H334 C324 0.930 . S
H335 C325 0.929 . S
Eu336 N365 2.600 . S
Eu336 N371 2.562 . S
Eu336 O380 2.462 . S
Eu336 O381 2.373 . S
Eu336 O383 2.432 . S
Eu336 O384 2.291 . S
Eu336 O388 2.335 . S
Eu336 O391 2.372 . S
Eu336 C400 2.787 . S
C337 N338 1.365 . S
C337 C340 1.405 . S
C337 C344 1.448 . S
N338 C337 1.365 . S
N338 C341 1.319 . S
N338 Eu347 2.600 . S
C339 C341 1.397 . S
C339 C342 1.367 . S
C339 H359 0.931 1_554 S
C340 C337 1.405 . S
C340 C342 1.403 . S
C340 C346 1.439 . S
C341 N338 1.319 . S
C341 C339 1.397 . S
C341 H352 0.930 . S
C342 C339 1.367 . S
C342 C340 1.403 . S
C342 H363 0.929 . S
C343 C344 1.430 . S
C343 C345 1.387 . S
C343 C349 1.404 . S
C344 C337 1.448 . S
C344 C343 1.430 . S
C344 N348 1.351 . S
C345 C343 1.387 . S
C345 C346 1.374 . S
C345 H360 0.931 1_565 S
C346 C340 1.439 . S
C346 C345 1.374 . S
C346 H361 0.931 1_565 S
Eu347 N338 2.600 . S
Eu347 N348 2.562 . S
Eu347 O382 2.335 . S
Eu347 O385 2.372 . S
Eu347 O386 2.462 . S
Eu347 O387 2.373 . S
Eu347 O389 2.432 . S
Eu347 O390 2.291 . S
Eu347 C411 2.787 . S
N348 C344 1.351 . S
N348 Eu347 2.562 . S
N348 C350 1.325 . S
C349 C343 1.404 . S
C349 C351 1.366 . S
C349 H357 0.930 1_565 S
C350 N348 1.325 . S
C350 C351 1.416 . S
C350 H356 0.929 . S
C351 C349 1.366 . S
C351 C350 1.416 . S
C351 H353 0.930 . S
H352 C341 0.930 . S
H353 C351 0.930 . S
H354 C369 0.930 . S
H355 C376 0.926 1_655 S
H356 C350 0.929 . S
H357 C349 0.930 1_545 S
H358 C372 0.929 . S
H359 C339 0.931 1_556 S
H360 C345 0.931 1_545 S
H361 C346 0.931 1_545 S
H362 C367 0.931 . S
H363 C342 0.929 . S
H364 C375 0.930 . S
N365 Eu336 2.600 . S
N365 C366 1.365 . S
N365 C369 1.319 . S
C366 N365 1.365 . S
C366 C368 1.405 . S
C366 C374 1.448 . S
C367 H362 0.931 . S
C367 C369 1.397 . S
C367 C370 1.367 . S
C368 C366 1.405 . S
C368 C370 1.403 . S
C368 C401 1.439 . S
C369 H354 0.930 . S
C369 N365 1.319 . S
C369 C367 1.397 . S
C370 C367 1.367 . S
C370 C368 1.403 . S
C370 H377 0.929 . S
N371 Eu336 2.562 . S
N371 C372 1.325 . S
N371 C374 1.351 . S
C372 H358 0.929 . S
C372 N371 1.325 . S
C372 C376 1.419 . S
C373 C374 1.430 . S
C373 C375 1.404 1_455 S
C373 C402 1.387 1_455 S
C374 C366 1.448 . S
C374 N371 1.351 . S
C374 C373 1.430 . S
C375 H364 0.930 . S
C375 C373 1.404 1_655 S
C375 C376 1.367 1_655 S
C376 H355 0.926 1_455 S
C376 C372 1.419 . S
C376 C375 1.367 1_455 S
H377 C370 0.929 . S
H378 C401 0.931 1_655 S
H379 C402 0.931 . S
O380 Eu336 2.462 . S
O380 C400 1.252 . S
O381 Eu336 2.373 . S
O381 C392 1.249 . S
O382 Eu347 2.335 . S
O382 C392 1.264 . S
O383 Eu336 2.432 . S
O383 C400 1.268 . S
O384 Eu336 2.291 . S
O384 C399 1.255 . S
O385 Eu347 2.372 . S
O385 C399 1.257 . S
O386 Eu347 2.462 . S
O386 C411 1.252 . S
O387 Eu347 2.373 . S
O387 C403 1.249 . S
O388 Eu336 2.335 . S
O388 C403 1.264 . S
O389 Eu347 2.432 . S
O389 C411 1.268 . S
O390 Eu347 2.291 . S
O390 C410 1.255 . S
O391 Eu336 2.372 . S
O391 C410 1.257 . S
C392 O381 1.249 . S
C392 O382 1.264 . S
C393 C396 1.382 . S
C393 C398 1.390 . S
C393 C400 1.506 1_655 S
C394 C395 1.398 . S
C394 C398 1.392 . S
C395 C394 1.398 . S
C395 C397 1.372 . S
C395 H412 0.931 . S
C396 C393 1.382 . S
C396 C397 1.390 . S
C396 H413 0.931 . S
C397 C395 1.372 . S
C397 C396 1.390 . S
C397 H414 0.929 . S
C398 C393 1.390 . S
C398 C394 1.392 . S
C398 H415 0.930 . S
C399 O384 1.255 . S
C399 O385 1.257 . S
C400 Eu336 2.787 . S
C400 O380 1.252 . S
C400 O383 1.268 . S
C400 C393 1.506 1_455 S
C401 C368 1.439 . S
C401 H378 0.931 1_455 S
C401 C402 1.374 1_455 S
C402 C373 1.387 1_655 S
C402 H379 0.931 . S
C402 C401 1.374 1_655 S
C403 O387 1.249 . S
C403 O388 1.264 . S
C404 C407 1.382 . S
C404 C408 1.390 . S
C404 C411 1.506 . S
C405 C406 1.398 . S
C405 C408 1.392 . S
C406 C405 1.398 . S
C406 C409 1.372 . S
C406 H416 0.931 . S
C407 C404 1.382 . S
C407 C409 1.390 . S
C407 H417 0.931 . S
C408 C404 1.390 . S
C408 C405 1.392 . S
C408 H418 0.930 . S
C409 C406 1.372 . S
C409 C407 1.390 . S
C409 H419 0.929 . S
C410 O390 1.255 . S
C410 O391 1.257 . S
C411 Eu347 2.787 . S
C411 O386 1.252 . S
C411 O389 1.268 . S
C411 C404 1.506 . S
H412 C395 0.931 . S
H413 C396 0.931 . S
H414 C397 0.929 . S
H415 C398 0.930 . S
H416 C406 0.931 . S
H417 C407 0.931 . S
H418 C408 0.930 . S
H419 C409 0.929 . S
Eu420 N449 2.600 . S
Eu420 N455 2.562 . S
Eu420 O464 2.462 . S
Eu420 O465 2.373 . S
Eu420 O467 2.432 . S
Eu420 O468 2.291 . S
Eu420 O472 2.335 . S
Eu420 O475 2.372 . S
Eu420 C484 2.787 . S
C421 N422 1.365 . S
C421 C424 1.405 . S
C421 C428 1.448 . S
N422 C421 1.365 . S
N422 C425 1.319 . S
N422 Eu431 2.600 . S
C423 C425 1.397 . S
C423 C426 1.367 . S
C423 H443 0.931 . S
C424 C421 1.405 . S
C424 C426 1.403 . S
C424 C430 1.439 . S
C425 N422 1.319 . S
C425 C423 1.397 . S
C425 H436 0.930 . S
C426 C423 1.367 . S
C426 C424 1.403 . S
C426 H447 0.929 . S
C427 C428 1.430 . S
C427 C429 1.387 . S
C427 C433 1.404 . S
C428 C421 1.448 . S
C428 C427 1.430 . S
C428 N432 1.351 . S
C429 C427 1.387 . S
C429 C430 1.374 . S
C429 H444 0.931 . S
C430 C424 1.439 . S
C430 C429 1.374 . S
C430 H445 0.931 . S
Eu431 N422 2.600 . S
Eu431 N432 2.562 . S
Eu431 O466 2.335 . S
Eu431 O469 2.372 . S
Eu431 O470 2.462 . S
Eu431 O471 2.373 . S
Eu431 O473 2.432 . S
Eu431 O474 2.291 . S
Eu431 C495 2.787 . S
N432 C428 1.351 . S
N432 Eu431 2.562 . S
N432 C434 1.325 . S
C433 C427 1.404 . S
C433 C435 1.366 . S
C433 H441 0.930 . S
C434 N432 1.325 . S
C434 C435 1.416 . S
C434 H440 0.929 . S
C435 C433 1.366 . S
C435 C434 1.416 . S
C435 H437 0.930 . S
H436 C425 0.930 . S
H437 C435 0.930 . S
H438 C453 0.930 . S
H439 C460 0.922 1_565 S
H440 C434 0.929 . S
H441 C433 0.930 . S
H442 C456 0.929 . S
H443 C423 0.931 . S
H444 C429 0.931 . S
H445 C430 0.931 . S
H446 C451 0.931 . S
H447 C426 0.929 . S
H448 C459 0.930 . S
N449 Eu420 2.600 . S
N449 C450 1.365 . S
N449 C453 1.319 . S
C450 N449 1.365 . S
C450 C452 1.405 . S
C450 C458 1.448 . S
C451 H446 0.931 . S
C451 C453 1.397 . S
C451 C454 1.367 . S
C452 C450 1.405 . S
C452 C454 1.403 . S
C452 C485 1.439 . S
C453 H438 0.930 . S
C453 N449 1.319 . S
C453 C451 1.397 . S
C454 C451 1.367 . S
C454 C452 1.403 . S
C454 H461 0.929 . S
N455 Eu420 2.562 . S
N455 C456 1.325 . S
N455 C458 1.351 . S
C456 H442 0.929 . S
C456 N455 1.325 . S
C456 C460 1.438 . S
C457 C458 1.430 . S
C457 C459 1.404 1_545 S
C457 C486 1.387 1_545 S
C458 C450 1.448 . S
C458 N455 1.351 . S
C458 C457 1.430 . S
C459 H448 0.930 . S
C459 C457 1.404 1_565 S
C459 C460 1.352 1_565 S
C460 H439 0.922 1_545 S
C460 C456 1.438 . S
C460 C459 1.352 1_545 S
H461 C454 0.929 . S
H462 C485 0.931 1_565 S
H463 C486 0.931 . S
O464 Eu420 2.462 . S
O464 C484 1.252 . S
O465 Eu420 2.373 . S
O465 C476 1.249 . S
O466 Eu431 2.335 . S
O466 C476 1.264 . S
O467 Eu420 2.432 . S
O467 C484 1.268 . S
O468 Eu420 2.291 . S
O468 C483 1.255 . S
O469 Eu431 2.372 . S
O469 C483 1.257 . S
O470 Eu431 2.462 . S
O470 C495 1.252 . S
O471 Eu431 2.373 . S
O471 C487 1.249 . S
O472 Eu420 2.335 . S
O472 C487 1.264 . S
O473 Eu431 2.432 . S
O473 C495 1.268 . S
O474 Eu431 2.291 . S
O474 C494 1.255 . S
O475 Eu420 2.372 . S
O475 C494 1.257 . S
C476 O465 1.249 . S
C476 O466 1.264 . S
C477 C480 1.382 . S
C477 C482 1.390 . S
C477 C484 1.506 1_565 S
C478 C479 1.398 . S
C478 C482 1.392 . S
C479 C478 1.398 . S
C479 C481 1.372 . S
C479 H496 0.931 . S
C480 C477 1.382 . S
C480 C481 1.390 . S
C480 H497 0.931 . S
C481 C479 1.372 . S
C481 C480 1.390 . S
C481 H498 0.929 . S
C482 C477 1.390 . S
C482 C478 1.392 . S
C482 H499 0.930 . S
C483 O468 1.255 . S
C483 O469 1.257 . S
C484 Eu420 2.787 . S
C484 O464 1.252 . S
C484 O467 1.268 . S
C484 C477 1.506 1_545 S
C485 C452 1.439 . S
C485 H462 0.931 1_545 S
C485 C486 1.374 1_545 S
C486 C457 1.387 1_565 S
C486 H463 0.931 . S
C486 C485 1.374 1_565 S
C487 O471 1.249 . S
C487 O472 1.264 . S
C488 C491 1.382 . S
C488 C492 1.390 . S
C488 C495 1.506 . S
C489 C490 1.398 . S
C489 C492 1.392 . S
C490 C489 1.398 . S
C490 C493 1.372 . S
C490 H500 0.931 . S
C491 C488 1.382 . S
C491 C493 1.390 . S
C491 H501 0.931 . S
C492 C488 1.390 . S
C492 C489 1.392 . S
C492 H502 0.930 . S
C493 C490 1.372 . S
C493 C491 1.390 . S
C493 H503 0.929 . S
C494 O474 1.255 . S
C494 O475 1.257 . S
C495 Eu431 2.787 . S
C495 O470 1.252 . S
C495 O473 1.268 . S
C495 C488 1.506 . S
H496 C479 0.931 . S
H497 C480 0.931 . S
H498 C481 0.929 . S
H499 C482 0.930 . S
H500 C490 0.931 . S
H501 C491 0.931 . S
H502 C492 0.930 . S
H503 C493 0.929 . S
Eu504 N533 2.600 . S
Eu504 N539 2.562 . S
Eu504 O548 2.462 . S
Eu504 O549 2.373 . S
Eu504 O551 2.432 . S
Eu504 O552 2.291 . S
Eu504 O556 2.335 . S
Eu504 O559 2.372 . S
Eu504 C568 2.787 . S
C505 N506 1.365 . S
C505 C508 1.405 . S
C505 C512 1.448 . S
N506 C505 1.365 . S
N506 C509 1.319 . S
N506 Eu515 2.600 . S
C507 C509 1.397 . S
C507 C510 1.367 . S
C507 H527 0.931 . S
C508 C505 1.405 . S
C508 C510 1.403 . S
C508 C514 1.439 . S
C509 N506 1.319 . S
C509 C507 1.397 . S
C509 H520 0.930 . S
C510 C507 1.367 . S
C510 C508 1.403 . S
C510 H531 0.929 . S
C511 C512 1.430 . S
C511 C513 1.387 . S
C511 C517 1.404 . S
C512 C505 1.448 . S
C512 C511 1.430 . S
C512 N516 1.351 . S
C513 C511 1.387 . S
C513 C514 1.374 . S
C513 H528 0.931 1_565 S
C514 C508 1.439 . S
C514 C513 1.374 . S
C514 H529 0.931 1_565 S
Eu515 N506 2.600 . S
Eu515 N516 2.562 . S
Eu515 O550 2.335 . S
Eu515 O553 2.372 . S
Eu515 O554 2.462 . S
Eu515 O555 2.373 . S
Eu515 O557 2.432 . S
Eu515 O558 2.291 . S
Eu515 C579 2.787 . S
N516 C512 1.351 . S
N516 Eu515 2.562 . S
N516 C518 1.325 . S
C517 C511 1.404 . S
C517 C519 1.366 . S
C517 H525 0.930 1_565 S
C518 N516 1.325 . S
C518 C519 1.416 . S
C518 H524 0.929 . S
C519 C517 1.366 . S
C519 C518 1.416 . S
C519 H521 0.930 . S
H520 C509 0.930 . S
H521 C519 0.930 . S
H522 C537 0.930 . S
H523 C544 0.930 . S
H524 C518 0.929 . S
H525 C517 0.930 1_545 S
H526 C540 0.929 . S
H527 C507 0.931 . S
H528 C513 0.931 1_545 S
H529 C514 0.931 1_545 S
H530 C535 0.931 . S
H531 C510 0.929 . S
H532 C543 0.930 . S
N533 Eu504 2.600 . S
N533 C534 1.365 . S
N533 C537 1.319 . S
C534 N533 1.365 . S
C534 C536 1.405 . S
C534 C542 1.448 . S
C535 H530 0.931 . S
C535 C537 1.397 . S
C535 C538 1.367 . S
C536 C534 1.405 . S
C536 C538 1.403 . S
C536 C569 1.439 . S
C537 H522 0.930 . S
C537 N533 1.319 . S
C537 C535 1.397 . S
C538 C535 1.367 . S
C538 C536 1.403 . S
C538 H545 0.929 . S
N539 Eu504 2.562 . S
N539 C540 1.325 . S
N539 C542 1.351 . S
C540 H526 0.929 . S
C540 N539 1.325 . S
C540 C544 1.416 . S
C541 C542 1.430 . S
C541 C543 1.404 . S
C541 C570 1.387 . S
C542 C534 1.448 . S
C542 N539 1.351 . S
C542 C541 1.430 . S
C543 H532 0.930 . S
C543 C541 1.404 . S
C543 C544 1.366 . S
C544 H523 0.930 . S
C544 C540 1.416 . S
C544 C543 1.366 . S
H545 C538 0.929 . S
H546 C569 0.931 . S
H547 C570 0.931 . S
O548 Eu504 2.462 . S
O548 C568 1.252 . S
O549 Eu504 2.373 . S
O549 C560 1.249 . S
O550 Eu515 2.335 . S
O550 C560 1.264 . S
O551 Eu504 2.432 . S
O551 C568 1.268 . S
O552 Eu504 2.291 . S
O552 C567 1.255 . S
O553 Eu515 2.372 . S
O553 C567 1.257 . S
O554 Eu515 2.462 . S
O554 C579 1.252 . S
O555 Eu515 2.373 . S
O555 C571 1.249 . S
O556 Eu504 2.335 . S
O556 C571 1.264 . S
O557 Eu515 2.432 . S
O557 C579 1.268 . S
O558 Eu515 2.291 . S
O558 C578 1.255 . S
O559 Eu504 2.372 . S
O559 C578 1.257 . S
C560 O549 1.249 . S
C560 O550 1.264 . S
C561 C564 1.382 . S
C561 C566 1.390 . S
C561 C568 1.506 . S
C562 C563 1.398 . S
C562 C566 1.392 . S
C563 C562 1.398 . S
C563 C565 1.372 . S
C563 H580 0.931 . S
C564 C561 1.382 . S
C564 C565 1.390 . S
C564 H581 0.931 . S
C565 C563 1.372 . S
C565 C564 1.390 . S
C565 H582 0.929 . S
C566 C561 1.390 . S
C566 C562 1.392 . S
C566 H583 0.930 . S
C567 O552 1.255 . S
C567 O553 1.257 . S
C568 Eu504 2.787 . S
C568 O548 1.252 . S
C568 O551 1.268 . S
C568 C561 1.506 . S
C569 C536 1.439 . S
C569 H546 0.931 . S
C569 C570 1.374 . S
C570 C541 1.387 . S
C570 H547 0.931 . S
C570 C569 1.374 . S
C571 O555 1.249 . S
C571 O556 1.264 . S
C572 C575 1.382 . S
C572 C576 1.390 . S
C572 C579 1.506 . S
C573 C574 1.398 . S
C573 C576 1.392 . S
C574 C573 1.398 . S
C574 C577 1.372 . S
C574 H584 0.931 . S
C575 C572 1.382 . S
C575 C577 1.390 . S
C575 H585 0.931 . S
C576 C572 1.390 . S
C576 C573 1.392 . S
C576 H586 0.930 . S
C577 C574 1.372 . S
C577 C575 1.390 . S
C577 H587 0.929 . S
C578 O558 1.255 . S
C578 O559 1.257 . S
C579 Eu515 2.787 . S
C579 O554 1.252 . S
C579 O557 1.268 . S
C579 C572 1.506 . S
H580 C563 0.931 . S
H581 C564 0.931 . S
H582 C565 0.929 . S
H583 C566 0.930 . S
H584 C574 0.931 . S
H585 C575 0.931 . S
H586 C576 0.930 . S
H587 C577 0.929 . S
Eu588 N617 2.600 . S
Eu588 N623 2.562 . S
Eu588 O632 2.462 . S
Eu588 O633 2.373 . S
Eu588 O635 2.432 . S
Eu588 O636 2.291 . S
Eu588 O640 2.335 . S
Eu588 O643 2.372 . S
Eu588 C652 2.787 . S
C589 N590 1.365 . S
C589 C592 1.405 . S
C589 C596 1.448 . S
N590 C589 1.365 . S
N590 C593 1.319 . S
N590 Eu599 2.600 . S
C591 C593 1.397 . S
C591 C594 1.367 . S
C591 H611 0.931 1_556 S
C592 C589 1.405 . S
C592 C594 1.403 . S
C592 C598 1.439 . S
C593 N590 1.319 . S
C593 C591 1.397 . S
C593 H604 0.930 . S
C594 C591 1.367 . S
C594 C592 1.403 . S
C594 H615 0.929 . S
C595 C596 1.430 . S
C595 C597 1.387 . S
C595 C601 1.404 . S
C596 C589 1.448 . S
C596 C595 1.430 . S
C596 N600 1.351 . S
C597 C595 1.387 . S
C597 C598 1.374 . S
C597 H612 0.931 . S
C598 C592 1.439 . S
C598 C597 1.374 . S
C598 H613 0.931 . S
Eu599 N590 2.600 . S
Eu599 N600 2.562 . S
Eu599 O634 2.335 . S
Eu599 O637 2.372 . S
Eu599 O638 2.462 . S
Eu599 O639 2.373 . S
Eu599 O641 2.432 . S
Eu599 O642 2.291 . S
Eu599 C663 2.787 . S
N600 C596 1.351 . S
N600 Eu599 2.562 . S
N600 C602 1.325 . S
C601 C595 1.404 . S
C601 C603 1.366 . S
C601 H609 0.930 . S
C602 N600 1.325 . S
C602 C603 1.416 . S
C602 H608 0.929 . S
C603 C601 1.366 . S
C603 C602 1.416 . S
C603 H605 0.930 . S
H604 C593 0.930 . S
H605 C603 0.930 . S
H606 C621 0.930 . S
H607 C628 0.922 1_455 S
H608 C602 0.929 . S
H609 C601 0.930 . S
H610 C624 0.929 . S
H611 C591 0.931 1_554 S
H612 C597 0.931 . S
H613 C598 0.931 . S
H614 C619 0.931 . S
H615 C594 0.929 . S
H616 C627 0.930 . S
N617 Eu588 2.600 . S
N617 C618 1.365 . S
N617 C621 1.319 . S
C618 N617 1.365 . S
C618 C620 1.405 . S
C618 C626 1.448 . S
C619 H614 0.931 . S
C619 C621 1.397 . S
C619 C622 1.367 . S
C620 C618 1.405 . S
C620 C622 1.403 . S
C620 C653 1.439 . S
C621 H606 0.930 . S
C621 N617 1.319 . S
C621 C619 1.397 . S
C622 C619 1.367 . S
C622 C620 1.403 . S
C622 H629 0.929 . S
N623 Eu588 2.562 . S
N623 C624 1.325 . S
N623 C626 1.351 . S
C624 H610 0.929 . S
C624 N623 1.325 . S
C624 C628 1.438 . S
C625 C626 1.430 . S
C625 C627 1.404 1_655 S
C625 C654 1.387 1_655 S
C626 C618 1.448 . S
C626 N623 1.351 . S
C626 C625 1.430 . S
C627 H616 0.930 . S
C627 C625 1.404 1_455 S
C627 C628 1.352 1_455 S
C628 H607 0.922 1_655 S
C628 C624 1.438 . S
C628 C627 1.352 1_655 S
H629 C622 0.929 . S
H630 C653 0.931 1_455 S
H631 C654 0.931 . S
O632 Eu588 2.462 . S
O632 C652 1.252 . S
O633 Eu588 2.373 . S
O633 C644 1.249 . S
O634 Eu599 2.335 . S
O634 C644 1.264 . S
O635 Eu588 2.432 . S
O635 C652 1.268 . S
O636 Eu588 2.291 . S
O636 C651 1.255 . S
O637 Eu599 2.372 . S
O637 C651 1.257 . S
O638 Eu599 2.462 . S
O638 C663 1.252 . S
O639 Eu599 2.373 . S
O639 C655 1.249 . S
O640 Eu588 2.335 . S
O640 C655 1.264 . S
O641 Eu599 2.432 . S
O641 C663 1.268 . S
O642 Eu599 2.291 . S
O642 C662 1.255 . S
O643 Eu588 2.372 . S
O643 C662 1.257 . S
C644 O633 1.249 . S
C644 O634 1.264 . S
C645 C648 1.382 . S
C645 C650 1.390 . S
C645 C652 1.506 1_455 S
C646 C647 1.398 . S
C646 C650 1.392 . S
C647 C646 1.398 . S
C647 C649 1.372 . S
C647 H664 0.931 . S
C648 C645 1.382 . S
C648 C649 1.390 . S
C648 H665 0.931 . S
C649 C647 1.372 . S
C649 C648 1.390 . S
C649 H666 0.929 . S
C650 C645 1.390 . S
C650 C646 1.392 . S
C650 H667 0.930 . S
C651 O636 1.255 . S
C651 O637 1.257 . S
C652 Eu588 2.787 . S
C652 O632 1.252 . S
C652 O635 1.268 . S
C652 C645 1.506 1_655 S
C653 C620 1.439 . S
C653 H630 0.931 1_655 S
C653 C654 1.374 1_655 S
C654 C625 1.387 1_455 S
C654 H631 0.931 . S
C654 C653 1.374 1_455 S
C655 O639 1.249 . S
C655 O640 1.264 . S
C656 C659 1.382 . S
C656 C660 1.390 . S
C656 C663 1.506 . S
C657 C658 1.398 . S
C657 C660 1.392 . S
C658 C657 1.398 . S
C658 C661 1.372 . S
C658 H668 0.931 . S
C659 C656 1.382 . S
C659 C661 1.390 . S
C659 H669 0.931 . S
C660 C656 1.390 . S
C660 C657 1.392 . S
C660 H670 0.930 . S
C661 C658 1.372 . S
C661 C659 1.390 . S
C661 H671 0.929 . S
C662 O642 1.255 . S
C662 O643 1.257 . S
C663 Eu599 2.787 . S
C663 O638 1.252 . S
C663 O641 1.268 . S
C663 C656 1.506 . S
H664 C647 0.931 . S
H665 C648 0.931 . S
H666 C649 0.929 . S
H667 C650 0.930 . S
H668 C658 0.931 . S
H669 C659 0.931 . S
H670 C660 0.930 . S
H671 C661 0.929 . S
Eu672 N701 2.600 . S
Eu672 N707 2.562 . S
Eu672 O716 2.462 . S
Eu672 O717 2.373 . S
Eu672 O719 2.432 . S
Eu672 O720 2.291 . S
Eu672 O724 2.335 . S
Eu672 O727 2.372 . S
Eu672 C736 2.787 . S
C673 N674 1.365 . S
C673 C676 1.405 . S
C673 C680 1.448 . S
N674 C673 1.365 . S
N674 C677 1.319 . S
N674 Eu683 2.600 . S
C675 C677 1.397 . S
C675 C678 1.367 . S
C675 H695 0.931 . S
C676 C673 1.405 . S
C676 C678 1.403 . S
C676 C682 1.439 . S
C677 N674 1.319 . S
C677 C675 1.397 . S
C677 H688 0.930 . S
C678 C675 1.367 . S
C678 C676 1.403 . S
C678 H699 0.929 . S
C679 C680 1.430 . S
C679 C681 1.387 . S
C679 C685 1.404 . S
C680 C673 1.448 . S
C680 C679 1.430 . S
C680 N684 1.351 . S
C681 C679 1.387 . S
C681 C682 1.374 . S
C681 H696 0.931 1_455 S
C682 C676 1.439 . S
C682 C681 1.374 . S
C682 H697 0.931 1_455 S
Eu683 N674 2.600 . S
Eu683 N684 2.562 . S
Eu683 O718 2.335 . S
Eu683 O721 2.372 . S
Eu683 O722 2.462 . S
Eu683 O723 2.373 . S
Eu683 O725 2.432 . S
Eu683 O726 2.291 . S
Eu683 C747 2.787 . S
N684 C680 1.351 . S
N684 Eu683 2.562 . S
N684 C686 1.325 . S
C685 C679 1.404 . S
C685 C687 1.366 . S
C685 H693 0.930 1_455 S
C686 N684 1.325 . S
C686 C687 1.416 . S
C686 H692 0.929 . S
C687 C685 1.366 . S
C687 C686 1.416 . S
C687 H689 0.930 . S
H688 C677 0.930 . S
H689 C687 0.930 . S
H690 C705 0.930 . S
H691 C712 0.926 1_545 S
H692 C686 0.929 . S
H693 C685 0.930 1_655 S
H694 C708 0.929 . S
H695 C675 0.931 . S
H696 C681 0.931 1_655 S
H697 C682 0.931 1_655 S
H698 C703 0.931 . S
H699 C678 0.929 . S
H700 C711 0.930 . S
N701 Eu672 2.600 . S
N701 C702 1.365 . S
N701 C705 1.319 . S
C702 N701 1.365 . S
C702 C704 1.405 . S
C702 C710 1.448 . S
C703 H698 0.931 . S
C703 C705 1.397 . S
C703 C706 1.367 . S
C704 C702 1.405 . S
C704 C706 1.403 . S
C704 C737 1.439 . S
C705 H690 0.930 . S
C705 N701 1.319 . S
C705 C703 1.397 . S
C706 C703 1.367 . S
C706 C704 1.403 . S
C706 H713 0.929 . S
N707 Eu672 2.562 . S
N707 C708 1.325 . S
N707 C710 1.351 . S
C708 H694 0.929 . S
C708 N707 1.325 . S
C708 C712 1.419 . S
C709 C710 1.430 . S
C709 C711 1.404 1_565 S
C709 C738 1.387 1_565 S
C710 C702 1.448 . S
C710 N707 1.351 . S
C710 C709 1.430 . S
C711 H700 0.930 . S
C711 C709 1.404 1_545 S
C711 C712 1.367 1_545 S
C712 H691 0.926 1_565 S
C712 C708 1.419 . S
C712 C711 1.367 1_565 S
H713 C706 0.929 . S
H714 C737 0.931 1_545 S
H715 C738 0.931 . S
O716 Eu672 2.462 . S
O716 C736 1.252 . S
O717 Eu672 2.373 . S
O717 C728 1.249 . S
O718 Eu683 2.335 . S
O718 C728 1.264 . S
O719 Eu672 2.432 . S
O719 C736 1.268 . S
O720 Eu672 2.291 . S
O720 C735 1.255 . S
O721 Eu683 2.372 . S
O721 C735 1.257 . S
O722 Eu683 2.462 . S
O722 C747 1.252 . S
O723 Eu683 2.373 . S
O723 C739 1.249 . S
O724 Eu672 2.335 . S
O724 C739 1.264 . S
O725 Eu683 2.432 . S
O725 C747 1.268 . S
O726 Eu683 2.291 . S
O726 C746 1.255 . S
O727 Eu672 2.372 . S
O727 C746 1.257 . S
C728 O717 1.249 . S
C728 O718 1.264 . S
C729 C732 1.382 . S
C729 C734 1.390 . S
C729 C736 1.506 1_545 S
C730 C731 1.398 . S
C730 C734 1.392 . S
C731 C730 1.398 . S
C731 C733 1.372 . S
C731 H748 0.931 . S
C732 C729 1.382 . S
C732 C733 1.390 . S
C732 H749 0.931 . S
C733 C731 1.372 . S
C733 C732 1.390 . S
C733 H750 0.929 . S
C734 C729 1.390 . S
C734 C730 1.392 . S
C734 H751 0.930 . S
C735 O720 1.255 . S
C735 O721 1.257 . S
C736 Eu672 2.787 . S
C736 O716 1.252 . S
C736 O719 1.268 . S
C736 C729 1.506 1_565 S
C737 C704 1.439 . S
C737 H714 0.931 1_565 S
C737 C738 1.374 1_565 S
C738 C709 1.387 1_545 S
C738 H715 0.931 . S
C738 C737 1.374 1_545 S
C739 O723 1.249 . S
C739 O724 1.264 . S
C740 C743 1.382 . S
C740 C744 1.390 . S
C740 C747 1.506 . S
C741 C742 1.398 . S
C741 C744 1.392 . S
C742 C741 1.398 . S
C742 C745 1.372 . S
C742 H752 0.931 . S
C743 C740 1.382 . S
C743 C745 1.390 . S
C743 H753 0.931 . S
C744 C740 1.390 . S
C744 C741 1.392 . S
C744 H754 0.930 . S
C745 C742 1.372 . S
C745 C743 1.390 . S
C745 H755 0.929 . S
C746 O726 1.255 . S
C746 O727 1.257 . S
C747 Eu683 2.787 . S
C747 O722 1.252 . S
C747 O725 1.268 . S
C747 C740 1.506 . S
H748 C731 0.931 . S
H749 C732 0.931 . S
H750 C733 0.929 . S
H751 C734 0.930 . S
H752 C742 0.931 . S
H753 C743 0.931 . S
H754 C744 0.930 . S
H755 C745 0.929 . S
Eu756 N785 2.600 . S
Eu756 N791 2.562 . S
Eu756 O800 2.462 . S
Eu756 O801 2.373 . S
Eu756 O803 2.432 . S
Eu756 O804 2.291 . S
Eu756 O808 2.335 . S
Eu756 O811 2.372 . S
Eu756 C820 2.787 . S
C757 N758 1.365 . S
C757 C760 1.405 . S
C757 C764 1.448 . S
N758 C757 1.365 . S
N758 C761 1.319 . S
N758 Eu767 2.600 . S
C759 C761 1.397 . S
C759 C762 1.367 . S
C759 H779 0.931 1_556 S
C760 C757 1.405 . S
C760 C762 1.403 . S
C760 C766 1.439 . S
C761 N758 1.319 . S
C761 C759 1.397 . S
C761 H772 0.930 . S
C762 C759 1.367 . S
C762 C760 1.403 . S
C762 H783 0.929 . S
C763 C764 1.430 . S
C763 C765 1.387 . S
C763 C769 1.404 . S
C764 C757 1.448 . S
C764 C763 1.430 . S
C764 N768 1.351 . S
C765 C763 1.387 . S
C765 C766 1.374 . S
C765 H780 0.931 1_545 S
C766 C760 1.439 . S
C766 C765 1.374 . S
C766 H781 0.931 1_545 S
Eu767 N758 2.600 . S
Eu767 N768 2.562 . S
Eu767 O802 2.335 . S
Eu767 O805 2.372 . S
Eu767 O806 2.462 . S
Eu767 O807 2.373 . S
Eu767 O809 2.432 . S
Eu767 O810 2.291 . S
Eu767 C831 2.787 . S
N768 C764 1.351 . S
N768 Eu767 2.562 . S
N768 C770 1.325 . S
C769 C763 1.404 . S
C769 C771 1.366 . S
C769 H777 0.930 1_545 S
C770 N768 1.325 . S
C770 C771 1.416 . S
C770 H776 0.929 . S
C771 C769 1.366 . S
C771 C770 1.416 . S
C771 H773 0.930 . S
H772 C761 0.930 . S
H773 C771 0.930 . S
H774 C789 0.930 . S
H775 C796 0.930 . S
H776 C770 0.929 . S
H777 C769 0.930 1_565 S
H778 C792 0.929 . S
H779 C759 0.931 1_554 S
H780 C765 0.931 1_565 S
H781 C766 0.931 1_565 S
H782 C787 0.931 . S
H783 C762 0.929 . S
H784 C795 0.930 . S
N785 Eu756 2.600 . S
N785 C786 1.365 . S
N785 C789 1.319 . S
C786 N785 1.365 . S
C786 C788 1.405 . S
C786 C794 1.448 . S
C787 H782 0.931 . S
C787 C789 1.397 . S
C787 C790 1.367 . S
C788 C786 1.405 . S
C788 C790 1.403 . S
C788 C821 1.439 . S
C789 H774 0.930 . S
C789 N785 1.319 . S
C789 C787 1.397 . S
C790 C787 1.367 . S
C790 C788 1.403 . S
C790 H797 0.929 . S
N791 Eu756 2.562 . S
N791 C792 1.325 . S
N791 C794 1.351 . S
C792 H778 0.929 . S
C792 N791 1.325 . S
C792 C796 1.416 . S
C793 C794 1.430 . S
C793 C795 1.404 . S
C793 C822 1.387 . S
C794 C786 1.448 . S
C794 N791 1.351 . S
C794 C793 1.430 . S
C795 H784 0.930 . S
C795 C793 1.404 . S
C795 C796 1.366 . S
C796 H775 0.930 . S
C796 C792 1.416 . S
C796 C795 1.366 . S
H797 C790 0.929 . S
H798 C821 0.931 . S
H799 C822 0.931 . S
O800 Eu756 2.462 . S
O800 C820 1.252 . S
O801 Eu756 2.373 . S
O801 C812 1.249 . S
O802 Eu767 2.335 . S
O802 C812 1.264 . S
O803 Eu756 2.432 . S
O803 C820 1.268 . S
O804 Eu756 2.291 . S
O804 C819 1.255 . S
O805 Eu767 2.372 . S
O805 C819 1.257 . S
O806 Eu767 2.462 . S
O806 C831 1.252 . S
O807 Eu767 2.373 . S
O807 C823 1.249 . S
O808 Eu756 2.335 . S
O808 C823 1.264 . S
O809 Eu767 2.432 . S
O809 C831 1.268 . S
O810 Eu767 2.291 . S
O810 C830 1.255 . S
O811 Eu756 2.372 . S
O811 C830 1.257 . S
C812 O801 1.249 . S
C812 O802 1.264 . S
C813 C816 1.382 . S
C813 C818 1.390 . S
C813 C820 1.506 . S
C814 C815 1.398 . S
C814 C818 1.392 . S
C815 C814 1.398 . S
C815 C817 1.372 . S
C815 H832 0.931 . S
C816 C813 1.382 . S
C816 C817 1.390 . S
C816 H833 0.931 . S
C817 C815 1.372 . S
C817 C816 1.390 . S
C817 H834 0.929 . S
C818 C813 1.390 . S
C818 C814 1.392 . S
C818 H835 0.930 . S
C819 O804 1.255 . S
C819 O805 1.257 . S
C820 Eu756 2.787 . S
C820 O800 1.252 . S
C820 O803 1.268 . S
C820 C813 1.506 . S
C821 C788 1.439 . S
C821 H798 0.931 . S
C821 C822 1.374 . S
C822 C793 1.387 . S
C822 H799 0.931 . S
C822 C821 1.374 . S
C823 O807 1.249 . S
C823 O808 1.264 . S
C824 C827 1.382 . S
C824 C828 1.390 . S
C824 C831 1.506 . S
C825 C826 1.398 . S
C825 C828 1.392 . S
C826 C825 1.398 . S
C826 C829 1.372 . S
C826 H836 0.931 . S
C827 C824 1.382 . S
C827 C829 1.390 . S
C827 H837 0.931 . S
C828 C824 1.390 . S
C828 C825 1.392 . S
C828 H838 0.930 . S
C829 C826 1.372 . S
C829 C827 1.390 . S
C829 H839 0.929 . S
C830 O810 1.255 . S
C830 O811 1.257 . S
C831 Eu767 2.787 . S
C831 O806 1.252 . S
C831 O809 1.268 . S
C831 C824 1.506 . S
H832 C815 0.931 . S
H833 C816 0.931 . S
H834 C817 0.929 . S
H835 C818 0.930 . S
H836 C826 0.931 . S
H837 C827 0.931 . S
H838 C828 0.930 . S
H839 C829 0.929 . S
Eu840 N869 2.600 . S
Eu840 N875 2.562 . S
Eu840 O884 2.462 . S
Eu840 O885 2.373 . S
Eu840 O887 2.432 . S
Eu840 O888 2.291 . S
Eu840 O892 2.335 . S
Eu840 O895 2.372 . S
Eu840 C904 2.787 . S
C841 N842 1.365 . S
C841 C844 1.405 . S
C841 C848 1.448 . S
N842 C841 1.365 . S
N842 C845 1.319 . S
N842 Eu851 2.600 . S
C843 C845 1.397 . S
C843 C846 1.367 . S
C843 H863 0.931 . S
C844 C841 1.405 . S
C844 C846 1.403 . S
C844 C850 1.439 . S
C845 N842 1.319 . S
C845 C843 1.397 . S
C845 H856 0.930 . S
C846 C843 1.367 . S
C846 C844 1.403 . S
C846 H867 0.929 . S
C847 C848 1.430 . S
C847 C849 1.387 . S
C847 C853 1.404 . S
C848 C841 1.448 . S
C848 C847 1.430 . S
C848 N852 1.351 . S
C849 C847 1.387 . S
C849 C850 1.374 . S
C849 H864 0.931 . S
C850 C844 1.439 . S
C850 C849 1.374 . S
C850 H865 0.931 . S
Eu851 N842 2.600 . S
Eu851 N852 2.562 . S
Eu851 O886 2.335 . S
Eu851 O889 2.372 . S
Eu851 O890 2.462 . S
Eu851 O891 2.373 . S
Eu851 O893 2.432 . S
Eu851 O894 2.291 . S
Eu851 C915 2.787 . S
N852 C848 1.351 . S
N852 Eu851 2.562 . S
N852 C854 1.325 . S
C853 C847 1.404 . S
C853 C855 1.366 . S
C853 H861 0.930 . S
C854 N852 1.325 . S
C854 C855 1.416 . S
C854 H860 0.929 . S
C855 C853 1.366 . S
C855 C854 1.416 . S
C855 H857 0.930 . S
H856 C845 0.930 . S
H857 C855 0.930 . S
H858 C873 0.930 . S
H859 C880 0.922 1_655 S
H860 C854 0.929 . S
H861 C853 0.930 . S
H862 C876 0.929 . S
H863 C843 0.931 . S
H864 C849 0.931 . S
H865 C850 0.931 . S
H866 C871 0.931 . S
H867 C846 0.929 . S
H868 C879 0.930 . S
N869 Eu840 2.600 . S
N869 C870 1.365 . S
N869 C873 1.319 . S
C870 N869 1.365 . S
C870 C872 1.405 . S
C870 C878 1.448 . S
C871 H866 0.931 . S
C871 C873 1.397 . S
C871 C874 1.367 . S
C872 C870 1.405 . S
C872 C874 1.403 . S
C872 C905 1.439 . S
C873 H858 0.930 . S
C873 N869 1.319 . S
C873 C871 1.397 . S
C874 C871 1.367 . S
C874 C872 1.403 . S
C874 H881 0.929 . S
N875 Eu840 2.562 . S
N875 C876 1.325 . S
N875 C878 1.351 . S
C876 H862 0.929 . S
C876 N875 1.325 . S
C876 C880 1.438 . S
C877 C878 1.430 . S
C877 C879 1.404 1_455 S
C877 C906 1.387 1_455 S
C878 C870 1.448 . S
C878 N875 1.351 . S
C878 C877 1.430 . S
C879 H868 0.930 . S
C879 C877 1.404 1_655 S
C879 C880 1.352 1_655 S
C880 H859 0.922 1_455 S
C880 C876 1.438 . S
C880 C879 1.352 1_455 S
H881 C874 0.929 . S
H882 C905 0.931 1_655 S
H883 C906 0.931 . S
O884 Eu840 2.462 . S
O884 C904 1.252 . S
O885 Eu840 2.373 . S
O885 C896 1.249 . S
O886 Eu851 2.335 . S
O886 C896 1.264 . S
O887 Eu840 2.432 . S
O887 C904 1.268 . S
O888 Eu840 2.291 . S
O888 C903 1.255 . S
O889 Eu851 2.372 . S
O889 C903 1.257 . S
O890 Eu851 2.462 . S
O890 C915 1.252 . S
O891 Eu851 2.373 . S
O891 C907 1.249 . S
O892 Eu840 2.335 . S
O892 C907 1.264 . S
O893 Eu851 2.432 . S
O893 C915 1.268 . S
O894 Eu851 2.291 . S
O894 C914 1.255 . S
O895 Eu840 2.372 . S
O895 C914 1.257 . S
C896 O885 1.249 . S
C896 O886 1.264 . S
C897 C900 1.382 . S
C897 C902 1.390 . S
C897 C904 1.506 1_655 S
C898 C899 1.398 . S
C898 C902 1.392 . S
C899 C898 1.398 . S
C899 C901 1.372 . S
C899 H916 0.931 . S
C900 C897 1.382 . S
C900 C901 1.390 . S
C900 H917 0.931 . S
C901 C899 1.372 . S
C901 C900 1.390 . S
C901 H918 0.929 . S
C902 C897 1.390 . S
C902 C898 1.392 . S
C902 H919 0.930 . S
C903 O888 1.255 . S
C903 O889 1.257 . S
C904 Eu840 2.787 . S
C904 O884 1.252 . S
C904 O887 1.268 . S
C904 C897 1.506 1_455 S
C905 C872 1.439 . S
C905 H882 0.931 1_455 S
C905 C906 1.374 1_455 S
C906 C877 1.387 1_655 S
C906 H883 0.931 . S
C906 C905 1.374 1_655 S
C907 O891 1.249 . S
C907 O892 1.264 . S
C908 C911 1.382 . S
C908 C912 1.390 . S
C908 C915 1.506 . S
C909 C910 1.398 . S
C909 C912 1.392 . S
C910 C909 1.398 . S
C910 C913 1.372 . S
C910 H920 0.931 . S
C911 C908 1.382 . S
C911 C913 1.390 . S
C911 H921 0.931 . S
C912 C908 1.390 . S
C912 C909 1.392 . S
C912 H922 0.930 . S
C913 C910 1.372 . S
C913 C911 1.390 . S
C913 H923 0.929 . S
C914 O894 1.255 . S
C914 O895 1.257 . S
C915 Eu851 2.787 . S
C915 O890 1.252 . S
C915 O893 1.268 . S
C915 C908 1.506 . S
H916 C899 0.931 . S
H917 C900 0.931 . S
H918 C901 0.929 . S
H919 C902 0.930 . S
H920 C910 0.931 . S
H921 C911 0.931 . S
H922 C912 0.930 . S
H923 C913 0.929 . S
Eu924 N953 2.600 . S
Eu924 N959 2.562 . S
Eu924 O968 2.462 . S
Eu924 O969 2.373 . S
Eu924 O971 2.432 . S
Eu924 O972 2.291 . S
Eu924 O976 2.335 . S
Eu924 O979 2.372 . S
Eu924 C988 2.787 . S
C925 N926 1.365 . S
C925 C928 1.405 . S
C925 C932 1.448 . S
N926 C925 1.365 . S
N926 C929 1.319 . S
N926 Eu935 2.600 . S
C927 C929 1.397 . S
C927 C930 1.367 . S
C927 H947 0.931 1_556 S
C928 C925 1.405 . S
C928 C930 1.403 . S
C928 C934 1.439 . S
C929 N926 1.319 . S
C929 C927 1.397 . S
C929 H940 0.930 . S
C930 C927 1.367 . S
C930 C928 1.403 . S
C930 H951 0.929 . S
C931 C932 1.430 . S
C931 C933 1.387 . S
C931 C937 1.404 . S
C932 C925 1.448 . S
C932 C931 1.430 . S
C932 N936 1.351 . S
C933 C931 1.387 . S
C933 C934 1.374 . S
C933 H948 0.931 1_655 S
C934 C928 1.439 . S
C934 C933 1.374 . S
C934 H949 0.931 1_655 S
Eu935 N926 2.600 . S
Eu935 N936 2.562 . S
Eu935 O970 2.335 . S
Eu935 O973 2.372 . S
Eu935 O974 2.462 . S
Eu935 O975 2.373 . S
Eu935 O977 2.432 . S
Eu935 O978 2.291 . S
Eu935 C999 2.787 . S
N936 C932 1.351 . S
N936 Eu935 2.562 . S
N936 C938 1.325 . S
C937 C931 1.404 . S
C937 C939 1.366 . S
C937 H945 0.930 1_655 S
C938 N936 1.325 . S
C938 C939 1.416 . S
C938 H944 0.929 . S
C939 C937 1.366 . S
C939 C938 1.416 . S
C939 H941 0.930 . S
H940 C929 0.930 . S
H941 C939 0.930 . S
H942 C957 0.930 . S
H943 C964 0.926 1_565 S
H944 C938 0.929 . S
H945 C937 0.930 1_455 S
H946 C960 0.929 . S
H947 C927 0.931 1_554 S
H948 C933 0.931 1_455 S
H949 C934 0.931 1_455 S
H950 C955 0.931 . S
H951 C930 0.929 . S
H952 C963 0.930 . S
N953 Eu924 2.600 . S
N953 C954 1.365 . S
N953 C957 1.319 . S
C954 N953 1.365 . S
C954 C956 1.405 . S
C954 C962 1.448 . S
C955 H950 0.931 . S
C955 C957 1.397 . S
C955 C958 1.367 . S
C956 C954 1.405 . S
C956 C958 1.403 . S
C956 C989 1.439 . S
C957 H942 0.930 . S
C957 N953 1.319 . S
C957 C955 1.397 . S
C958 C955 1.367 . S
C958 C956 1.403 . S
C958 H965 0.929 . S
N959 Eu924 2.562 . S
N959 C960 1.325 . S
N959 C962 1.351 . S
C960 H946 0.929 . S
C960 N959 1.325 . S
C960 C964 1.419 . S
C961 C962 1.430 . S
C961 C963 1.404 1_545 S
C961 C990 1.387 1_545 S
C962 C954 1.448 . S
C962 N959 1.351 . S
C962 C961 1.430 . S
C963 H952 0.930 . S
C963 C961 1.404 1_565 S
C963 C964 1.367 1_565 S
C964 H943 0.926 1_545 S
C964 C960 1.419 . S
C964 C963 1.367 1_545 S
H965 C958 0.929 . S
H966 C989 0.931 1_565 S
H967 C990 0.931 . S
O968 Eu924 2.462 . S
O968 C988 1.252 . S
O969 Eu924 2.373 . S
O969 C980 1.249 . S
O970 Eu935 2.335 . S
O970 C980 1.264 . S
O971 Eu924 2.432 . S
O971 C988 1.268 . S
O972 Eu924 2.291 . S
O972 C987 1.255 . S
O973 Eu935 2.372 . S
O973 C987 1.257 . S
O974 Eu935 2.462 . S
O974 C999 1.252 . S
O975 Eu935 2.373 . S
O975 C991 1.249 . S
O976 Eu924 2.335 . S
O976 C991 1.264 . S
O977 Eu935 2.432 . S
O977 C999 1.268 . S
O978 Eu935 2.291 . S
O978 C998 1.255 . S
O979 Eu924 2.372 . S
O979 C998 1.257 . S
C980 O969 1.249 . S
C980 O970 1.264 . S
C981 C984 1.382 . S
C981 C986 1.390 . S
C981 C988 1.506 1_565 S
C982 C983 1.398 . S
C982 C986 1.392 . S
C983 C982 1.398 . S
C983 C985 1.372 . S
C983 H1000 0.931 . S
C984 C981 1.382 . S
C984 C985 1.390 . S
C984 H1001 0.931 . S
C985 C983 1.372 . S
C985 C984 1.390 . S
C985 H1002 0.929 . S
C986 C981 1.390 . S
C986 C982 1.392 . S
C986 H1003 0.930 . S
C987 O972 1.255 . S
C987 O973 1.257 . S
C988 Eu924 2.787 . S
C988 O968 1.252 . S
C988 O971 1.268 . S
C988 C981 1.506 1_545 S
C989 C956 1.439 . S
C989 H966 0.931 1_545 S
C989 C990 1.374 1_545 S
C990 C961 1.387 1_565 S
C990 H967 0.931 . S
C990 C989 1.374 1_565 S
C991 O975 1.249 . S
C991 O976 1.264 . S
C992 C995 1.382 . S
C992 C996 1.390 . S
C992 C999 1.506 . S
C993 C994 1.398 . S
C993 C996 1.392 . S
C994 C993 1.398 . S
C994 C997 1.372 . S
C994 H1004 0.931 . S
C995 C992 1.382 . S
C995 C997 1.390 . S
C995 H1005 0.931 . S
C996 C992 1.390 . S
C996 C993 1.392 . S
C996 H1006 0.930 . S
C997 C994 1.372 . S
C997 C995 1.390 . S
C997 H1007 0.929 . S
C998 O978 1.255 . S
C998 O979 1.257 . S
C999 Eu935 2.787 . S
C999 O974 1.252 . S
C999 O977 1.268 . S
C999 C992 1.506 . S
H1000 C983 0.931 . S
H1001 C984 0.931 . S
H1002 C985 0.929 . S
H1003 C986 0.930 . S
H1004 C994 0.931 . S
H1005 C995 0.931 . S
H1006 C996 0.930 . S
H1007 C997 0.929 . S
H1008 C1016 0.950 . S
H1009 C1021 0.950 . S
H1010 C1018 0.950 . S
H1011 C1020 0.950 . S
H1012 C1022 0.950 . S
H1013 C1024 0.950 . S
H1014 C1026 0.950 . S
H1015 C1027 0.950 . S
C1016 H1008 0.950 . S
C1016 C1017 1.386 . S
C1016 C1018 1.391 . S
C1017 C1016 1.386 . S
C1017 C1021 1.393 . S
C1018 H1010 0.950 . S
C1018 C1016 1.391 . S
C1018 C1019 1.400 . S
C1019 C1018 1.400 . S
C1019 C1020 1.398 . S
C1019 C1025 1.491 1_565 S
C1020 H1011 0.950 . S
C1020 C1019 1.398 . S
C1020 C1021 1.391 . S
C1021 H1009 0.950 . S
C1021 C1017 1.393 . S
C1021 C1020 1.391 . S
C1022 H1012 0.950 . S
C1022 C1023 1.386 . S
C1022 C1024 1.391 . S
C1023 C1022 1.386 . S
C1023 C1027 1.393 . S
C1024 H1013 0.950 . S
C1024 C1022 1.391 . S
C1024 C1025 1.400 . S
C1025 C1019 1.491 1_545 S
C1025 C1024 1.400 . S
C1025 C1026 1.398 . S
C1026 H1014 0.950 . S
C1026 C1025 1.398 . S
C1026 C1027 1.391 . S
C1027 H1015 0.950 . S
C1027 C1023 1.393 . S
C1027 C1026 1.391 . S
H1028 C1036 0.950 . S
H1029 C1041 0.950 . S
H1030 C1038 0.950 . S
H1031 C1040 0.950 . S
H1032 C1042 0.950 . S
H1033 C1044 0.950 . S
H1034 C1046 0.950 . S
H1035 C1047 0.950 . S
C1036 H1028 0.950 . S
C1036 C1037 1.386 . S
C1036 C1038 1.391 . S
C1037 C1036 1.386 . S
C1037 C1041 1.393 . S
C1038 H1030 0.950 . S
C1038 C1036 1.391 . S
C1038 C1039 1.400 . S
C1039 C1038 1.400 . S
C1039 C1040 1.398 . S
C1039 C1045 1.491 . S
C1040 H1031 0.950 . S
C1040 C1039 1.398 . S
C1040 C1041 1.391 . S
C1041 H1029 0.950 . S
C1041 C1037 1.393 . S
C1041 C1040 1.391 . S
C1042 H1032 0.950 . S
C1042 C1043 1.386 . S
C1042 C1044 1.391 . S
C1043 C1042 1.386 . S
C1043 C1047 1.393 . S
C1044 H1033 0.950 . S
C1044 C1042 1.391 . S
C1044 C1045 1.400 . S
C1045 C1039 1.491 . S
C1045 C1044 1.400 . S
C1045 C1046 1.398 . S
C1046 H1034 0.950 . S
C1046 C1045 1.398 . S
C1046 C1047 1.391 . S
C1047 H1035 0.950 . S
C1047 C1043 1.393 . S
C1047 C1046 1.391 . S
H1048 C1056 0.950 . S
H1049 C1061 0.950 . S
H1050 C1058 0.950 . S
H1051 C1060 0.950 . S
H1052 C1062 0.950 . S
H1053 C1064 0.950 . S
H1054 C1066 0.950 . S
H1055 C1067 0.950 . S
C1056 H1048 0.950 . S
C1056 C1057 1.386 . S
C1056 C1058 1.391 . S
C1057 C1056 1.386 . S
C1057 C1061 1.393 . S
C1058 H1050 0.950 . S
C1058 C1056 1.391 . S
C1058 C1059 1.400 . S
C1059 C1058 1.400 . S
C1059 C1060 1.398 . S
C1059 C1065 1.491 1_655 S
C1060 H1051 0.950 . S
C1060 C1059 1.398 . S
C1060 C1061 1.391 . S
C1061 H1049 0.950 . S
C1061 C1057 1.393 . S
C1061 C1060 1.391 . S
C1062 H1052 0.950 . S
C1062 C1063 1.386 . S
C1062 C1064 1.391 . S
C1063 C1062 1.386 . S
C1063 C1067 1.393 . S
C1064 H1053 0.950 . S
C1064 C1062 1.391 . S
C1064 C1065 1.400 . S
C1065 C1059 1.491 1_455 S
C1065 C1064 1.400 . S
C1065 C1066 1.398 . S
C1066 H1054 0.950 . S
C1066 C1065 1.398 . S
C1066 C1067 1.391 . S
C1067 H1055 0.950 . S
C1067 C1063 1.393 . S
C1067 C1066 1.391 . S
H1068 C1076 0.950 . S
H1069 C1081 0.950 . S
H1070 C1078 0.950 . S
H1071 C1080 0.950 . S
H1072 C1082 0.950 . S
H1073 C1084 0.950 . S
H1074 C1086 0.950 . S
H1075 C1087 0.950 . S
C1076 H1068 0.950 . S
C1076 C1077 1.386 . S
C1076 C1078 1.391 . S
C1077 C1076 1.386 . S
C1077 C1081 1.393 . S
C1078 H1070 0.950 . S
C1078 C1076 1.391 . S
C1078 C1079 1.400 . S
C1079 C1078 1.400 . S
C1079 C1080 1.398 . S
C1079 C1085 1.491 1_565 S
C1080 H1071 0.950 . S
C1080 C1079 1.398 . S
C1080 C1081 1.391 . S
C1081 H1069 0.950 . S
C1081 C1077 1.393 . S
C1081 C1080 1.391 . S
C1082 H1072 0.950 . S
C1082 C1083 1.386 . S
C1082 C1084 1.391 . S
C1083 C1082 1.386 . S
C1083 C1087 1.393 . S
C1084 H1073 0.950 . S
C1084 C1082 1.391 . S
C1084 C1085 1.400 . S
C1085 C1079 1.491 1_545 S
C1085 C1084 1.400 . S
C1085 C1086 1.398 . S
C1086 H1074 0.950 . S
C1086 C1085 1.398 . S
C1086 C1087 1.391 . S
C1087 H1075 0.950 . S
C1087 C1083 1.393 . S
C1087 C1086 1.391 . S
H1088 C1096 0.950 . S
H1089 C1101 0.950 . S
H1090 C1098 0.950 . S
H1091 C1100 0.950 . S
H1092 C1102 0.950 . S
H1093 C1104 0.950 . S
H1094 C1106 0.950 . S
H1095 C1107 0.950 . S
C1096 H1088 0.950 . S
C1096 C1097 1.386 . S
C1096 C1098 1.391 . S
C1097 C1096 1.386 . S
C1097 C1101 1.393 . S
C1098 H1090 0.950 . S
C1098 C1096 1.391 . S
C1098 C1099 1.400 . S
C1099 C1098 1.400 . S
C1099 C1100 1.398 . S
C1099 C1105 1.491 . S
C1100 H1091 0.950 . S
C1100 C1099 1.398 . S
C1100 C1101 1.391 . S
C1101 H1089 0.950 . S
C1101 C1097 1.393 . S
C1101 C1100 1.391 . S
C1102 H1092 0.950 . S
C1102 C1103 1.386 . S
C1102 C1104 1.391 . S
C1103 C1102 1.386 . S
C1103 C1107 1.393 . S
C1104 H1093 0.950 . S
C1104 C1102 1.391 . S
C1104 C1105 1.400 . S
C1105 C1099 1.491 . S
C1105 C1104 1.400 . S
C1105 C1106 1.398 . S
C1106 H1094 0.950 . S
C1106 C1105 1.398 . S
C1106 C1107 1.391 . S
C1107 H1095 0.950 . S
C1107 C1103 1.393 . S
C1107 C1106 1.391 . S
H1108 C1116 0.950 . S
H1109 C1121 0.950 . S
H1110 C1118 0.950 . S
H1111 C1120 0.950 . S
H1112 C1122 0.950 . S
H1113 C1124 0.950 . S
H1114 C1126 0.950 . S
H1115 C1127 0.950 . S
C1116 H1108 0.950 . S
C1116 C1117 1.386 . S
C1116 C1118 1.391 . S
C1117 C1116 1.386 . S
C1117 C1121 1.393 . S
C1118 H1110 0.950 . S
C1118 C1116 1.391 . S
C1118 C1119 1.400 . S
C1119 C1118 1.400 . S
C1119 C1120 1.398 . S
C1119 C1125 1.491 1_655 S
C1120 H1111 0.950 . S
C1120 C1119 1.398 . S
C1120 C1121 1.391 . S
C1121 H1109 0.950 . S
C1121 C1117 1.393 . S
C1121 C1120 1.391 . S
C1122 H1112 0.950 . S
C1122 C1123 1.386 . S
C1122 C1124 1.391 . S
C1123 C1122 1.386 . S
C1123 C1127 1.393 . S
C1124 H1113 0.950 . S
C1124 C1122 1.391 . S
C1124 C1125 1.400 . S
C1125 C1119 1.491 1_455 S
C1125 C1124 1.400 . S
C1125 C1126 1.398 . S
C1126 H1114 0.950 . S
C1126 C1125 1.398 . S
C1126 C1127 1.391 . S
C1127 H1115 0.950 . S
C1127 C1123 1.393 . S
C1127 C1126 1.391 . S
H1128 C1136 0.950 . S
H1129 C1141 0.950 . S
H1130 C1138 0.950 . S
H1131 C1140 0.950 . S
H1132 C1142 0.950 . S
H1133 C1144 0.950 . S
H1134 C1146 0.950 . S
H1135 C1147 0.950 . S
C1136 H1128 0.950 . S
C1136 C1137 1.386 . S
C1136 C1138 1.391 . S
C1137 C1136 1.386 . S
C1137 C1141 1.393 . S
C1138 H1130 0.950 . S
C1138 C1136 1.391 . S
C1138 C1139 1.400 . S
C1139 C1138 1.400 . S
C1139 C1140 1.398 . S
C1139 C1145 1.491 1_455 S
C1140 H1131 0.950 . S
C1140 C1139 1.398 . S
C1140 C1141 1.391 . S
C1141 H1129 0.950 . S
C1141 C1137 1.393 . S
C1141 C1140 1.391 . S
C1142 H1132 0.950 . S
C1142 C1143 1.386 . S
C1142 C1144 1.391 . S
C1143 C1142 1.386 . S
C1143 C1147 1.393 . S
C1144 H1133 0.950 . S
C1144 C1142 1.391 . S
C1144 C1145 1.400 . S
C1145 C1139 1.491 1_655 S
C1145 C1144 1.400 . S
C1145 C1146 1.398 . S
C1146 H1134 0.950 . S
C1146 C1145 1.398 . S
C1146 C1147 1.391 . S
C1147 H1135 0.950 . S
C1147 C1143 1.393 . S
C1147 C1146 1.391 . S
H1148 C1156 0.950 . S
H1149 C1161 0.950 . S
H1150 C1158 0.950 . S
H1151 C1160 0.950 . S
H1152 C1162 0.950 . S
H1153 C1164 0.950 . S
H1154 C1166 0.950 . S
H1155 C1167 0.950 . S
C1156 H1148 0.950 . S
C1156 C1157 1.386 . S
C1156 C1158 1.391 . S
C1157 C1156 1.386 . S
C1157 C1161 1.393 . S
C1158 H1150 0.950 . S
C1158 C1156 1.391 . S
C1158 C1159 1.400 . S
C1159 C1158 1.400 . S
C1159 C1160 1.398 . S
C1159 C1165 1.491 1_565 S
C1160 H1151 0.950 . S
C1160 C1159 1.398 . S
C1160 C1161 1.391 . S
C1161 H1149 0.950 . S
C1161 C1157 1.393 . S
C1161 C1160 1.391 . S
C1162 H1152 0.950 . S
C1162 C1163 1.386 . S
C1162 C1164 1.391 . S
C1163 C1162 1.386 . S
C1163 C1167 1.393 . S
C1164 H1153 0.950 . S
C1164 C1162 1.391 . S
C1164 C1165 1.400 . S
C1165 C1159 1.491 1_545 S
C1165 C1164 1.400 . S
C1165 C1166 1.398 . S
C1166 H1154 0.950 . S
C1166 C1165 1.398 . S
C1166 C1167 1.391 . S
C1167 H1155 0.950 . S
C1167 C1163 1.393 . S
C1167 C1166 1.391 . S
H1168 C1176 0.950 . S
H1169 C1181 0.950 . S
H1170 C1178 0.950 . S
H1171 C1180 0.950 . S
H1172 C1182 0.950 . S
H1173 C1184 0.950 . S
H1174 C1186 0.950 . S
H1175 C1187 0.950 . S
C1176 H1168 0.950 . S
C1176 C1177 1.386 . S
C1176 C1178 1.391 . S
C1177 C1176 1.386 . S
C1177 C1181 1.393 . S
C1178 H1170 0.950 . S
C1178 C1176 1.391 . S
C1178 C1179 1.400 . S
C1179 C1178 1.400 . S
C1179 C1180 1.398 . S
C1179 C1185 1.491 . S
C1180 H1171 0.950 . S
C1180 C1179 1.398 . S
C1180 C1181 1.391 . S
C1181 H1169 0.950 . S
C1181 C1177 1.393 . S
C1181 C1180 1.391 . S
C1182 H1172 0.950 . S
C1182 C1183 1.386 . S
C1182 C1184 1.391 . S
C1183 C1182 1.386 . S
C1183 C1187 1.393 . S
C1184 H1173 0.950 . S
C1184 C1182 1.391 . S
C1184 C1185 1.400 . S
C1185 C1179 1.491 . S
C1185 C1184 1.400 . S
C1185 C1186 1.398 . S
C1186 H1174 0.950 . S
C1186 C1185 1.398 . S
C1186 C1187 1.391 . S
C1187 H1175 0.950 . S
C1187 C1183 1.393 . S
C1187 C1186 1.391 . S
H1188 C1196 0.950 . S
H1189 C1201 0.950 . S
H1190 C1198 0.950 . S
H1191 C1200 0.950 . S
H1192 C1202 0.950 . S
H1193 C1204 0.950 . S
H1194 C1206 0.950 . S
H1195 C1207 0.950 . S
C1196 H1188 0.950 . S
C1196 C1197 1.386 . S
C1196 C1198 1.391 . S
C1197 C1196 1.386 . S
C1197 C1201 1.393 . S
C1198 H1190 0.950 . S
C1198 C1196 1.391 . S
C1198 C1199 1.400 . S
C1199 C1198 1.400 . S
C1199 C1200 1.398 . S
C1199 C1205 1.491 1_455 S
C1200 H1191 0.950 . S
C1200 C1199 1.398 . S
C1200 C1201 1.391 . S
C1201 H1189 0.950 . S
C1201 C1197 1.393 . S
C1201 C1200 1.391 . S
C1202 H1192 0.950 . S
C1202 C1203 1.386 . S
C1202 C1204 1.391 . S
C1203 C1202 1.386 . S
C1203 C1207 1.393 . S
C1204 H1193 0.950 . S
C1204 C1202 1.391 . S
C1204 C1205 1.400 . S
C1205 C1199 1.491 1_655 S
C1205 C1204 1.400 . S
C1205 C1206 1.398 . S
C1206 H1194 0.950 . S
C1206 C1205 1.398 . S
C1206 C1207 1.391 . S
C1207 H1195 0.950 . S
C1207 C1203 1.393 . S
C1207 C1206 1.391 . S
H1208 C1216 0.950 . S
H1209 C1221 0.950 . S
H1210 C1218 0.950 . S
H1211 C1220 0.950 . S
H1212 C1222 0.950 . S
H1213 C1224 0.950 . S
H1214 C1226 0.951 1_545 S
H1215 C1227 0.950 . S
C1216 H1208 0.950 . S
C1216 C1217 1.386 . S
C1216 C1218 1.391 . S
C1217 C1216 1.386 . S
C1217 C1221 1.393 . S
C1218 H1210 0.950 . S
C1218 C1216 1.391 . S
C1218 C1219 1.400 . S
C1219 C1218 1.400 . S
C1219 C1220 1.398 . S
C1219 C1225 1.491 1_545 S
C1220 H1211 0.950 . S
C1220 C1219 1.398 . S
C1220 C1221 1.391 . S
C1221 H1209 0.950 . S
C1221 C1217 1.393 . S
C1221 C1220 1.391 . S
C1222 H1212 0.950 . S
C1222 C1223 1.386 . S
C1222 C1224 1.391 . S
C1223 C1222 1.386 . S
C1223 C1227 1.393 . S
C1224 H1213 0.950 . S
C1224 C1222 1.391 . S
C1224 C1225 1.400 . S
C1225 C1219 1.491 1_565 S
C1225 C1224 1.400 . S
C1225 C1226 1.398 . S
C1226 H1214 0.951 1_565 S
C1226 C1225 1.398 . S
C1226 C1227 1.391 . S
C1227 H1215 0.950 . S
C1227 C1223 1.393 . S
C1227 C1226 1.391 . S
H1228 C1236 0.950 . S
H1229 C1241 0.950 . S
H1230 C1238 0.950 . S
H1231 C1240 0.950 . S
H1232 C1242 0.950 . S
H1233 C1244 0.950 . S
H1234 C1246 0.950 . S
H1235 C1247 0.950 . S
C1236 H1228 0.950 . S
C1236 C1237 1.386 . S
C1236 C1238 1.391 . S
C1237 C1236 1.386 . S
C1237 C1241 1.393 . S
C1238 H1230 0.950 . S
C1238 C1236 1.391 . S
C1238 C1239 1.400 . S
C1239 C1238 1.400 . S
C1239 C1240 1.398 . S
C1239 C1245 1.491 . S
C1240 H1231 0.950 . S
C1240 C1239 1.398 . S
C1240 C1241 1.391 . S
C1241 H1229 0.950 . S
C1241 C1237 1.393 . S
C1241 C1240 1.391 . S
C1242 H1232 0.950 . S
C1242 C1243 1.386 . S
C1242 C1244 1.391 . S
C1243 C1242 1.386 . S
C1243 C1247 1.393 . S
C1244 H1233 0.950 . S
C1244 C1242 1.391 . S
C1244 C1245 1.400 . S
C1245 C1239 1.491 . S
C1245 C1244 1.400 . S
C1245 C1246 1.398 . S
C1246 H1234 0.950 . S
C1246 C1245 1.398 . S
C1246 C1247 1.391 . S
C1247 H1235 0.950 . S
C1247 C1243 1.393 . S
C1247 C1246 1.391 . S
H1248 C1256 0.950 . S
H1249 C1261 0.950 . S
H1250 C1258 0.950 . S
H1251 C1260 0.950 . S
H1252 C1262 0.950 . S
H1253 C1264 0.950 . S
H1254 C1266 0.950 . S
H1255 C1267 0.950 . S
C1256 H1248 0.950 . S
C1256 C1257 1.386 . S
C1256 C1258 1.391 . S
C1257 C1256 1.386 . S
C1257 C1261 1.393 . S
C1258 H1250 0.950 . S
C1258 C1256 1.391 . S
C1258 C1259 1.400 . S
C1259 C1258 1.400 . S
C1259 C1260 1.398 . S
C1259 C1265 1.491 . S
C1260 H1251 0.950 . S
C1260 C1259 1.398 . S
C1260 C1261 1.391 . S
C1261 H1249 0.950 . S
C1261 C1257 1.393 . S
C1261 C1260 1.391 . S
C1262 H1252 0.950 . S
C1262 C1263 1.386 . S
C1262 C1264 1.391 . S
C1263 C1262 1.386 . S
C1263 C1267 1.393 . S
C1264 H1253 0.950 . S
C1264 C1262 1.391 . S
C1264 C1265 1.400 . S
C1265 C1259 1.491 . S
C1265 C1264 1.400 . S
C1265 C1266 1.398 . S
C1266 H1254 0.950 . S
C1266 C1265 1.398 . S
C1266 C1267 1.391 . S
C1267 H1255 0.950 . S
C1267 C1263 1.393 . S
C1267 C1266 1.391 . S
H1268 C1276 0.950 . S
H1269 C1281 0.950 . S
H1270 C1278 0.950 . S
H1271 C1280 0.950 . S
H1272 C1282 0.950 . S
H1273 C1284 0.950 . S
H1274 C1286 0.950 . S
H1275 C1287 0.950 . S
C1276 H1268 0.950 . S
C1276 C1277 1.386 . S
C1276 C1278 1.391 . S
C1277 C1276 1.386 . S
C1277 C1281 1.393 . S
C1278 H1270 0.950 . S
C1278 C1276 1.391 . S
C1278 C1279 1.400 . S
C1279 C1278 1.400 . S
C1279 C1280 1.398 . S
C1279 C1285 1.491 . S
C1280 H1271 0.950 . S
C1280 C1279 1.398 . S
C1280 C1281 1.391 . S
C1281 H1269 0.950 . S
C1281 C1277 1.393 . S
C1281 C1280 1.391 . S
C1282 H1272 0.950 . S
C1282 C1283 1.386 . S
C1282 C1284 1.391 . S
C1283 C1282 1.386 . S
C1283 C1287 1.393 . S
C1284 H1273 0.950 . S
C1284 C1282 1.391 . S
C1284 C1285 1.400 . S
C1285 C1279 1.491 . S
C1285 C1284 1.400 . S
C1285 C1286 1.398 . S
C1286 H1274 0.950 . S
C1286 C1285 1.398 . S
C1286 C1287 1.391 . S
C1287 H1275 0.950 . S
C1287 C1283 1.393 . S
C1287 C1286 1.391 . S
H1288 C1296 0.950 . S
H1289 C1301 0.950 . S
H1290 C1298 0.950 . S
H1291 C1300 0.950 . S
H1292 C1302 0.950 . S
H1293 C1304 0.950 . S
H1294 C1306 0.950 . S
H1295 C1307 0.950 . S
C1296 H1288 0.950 . S
C1296 C1297 1.386 . S
C1296 C1298 1.391 . S
C1297 C1296 1.386 . S
C1297 C1301 1.393 . S
C1298 H1290 0.950 . S
C1298 C1296 1.391 . S
C1298 C1299 1.400 . S
C1299 C1298 1.400 . S
C1299 C1300 1.398 . S
C1299 C1305 1.491 . S
C1300 H1291 0.950 . S
C1300 C1299 1.398 . S
C1300 C1301 1.391 . S
C1301 H1289 0.950 . S
C1301 C1297 1.393 . S
C1301 C1300 1.391 . S
C1302 H1292 0.950 . S
C1302 C1303 1.386 . S
C1302 C1304 1.391 . S
C1303 C1302 1.386 . S
C1303 C1307 1.393 . S
C1304 H1293 0.950 . S
C1304 C1302 1.391 . S
C1304 C1305 1.400 . S
C1305 C1299 1.491 . S
C1305 C1304 1.400 . S
C1305 C1306 1.398 . S
C1306 H1294 0.950 . S
C1306 C1305 1.398 . S
C1306 C1307 1.391 . S
C1307 H1295 0.950 . S
C1307 C1303 1.393 . S
C1307 C1306 1.391 . S
H1308 C1316 0.950 . S
H1309 C1321 0.950 . S
H1310 C1318 0.950 . S
H1311 C1320 0.950 . S
H1312 C1322 0.950 . S
H1313 C1324 0.950 . S
H1314 C1326 0.950 . S
H1315 C1327 0.950 . S
C1316 H1308 0.950 . S
C1316 C1317 1.386 . S
C1316 C1318 1.391 . S
C1317 C1316 1.386 . S
C1317 C1321 1.393 . S
C1318 H1310 0.950 . S
C1318 C1316 1.391 . S
C1318 C1319 1.400 . S
C1319 C1318 1.400 . S
C1319 C1320 1.398 . S
C1319 C1325 1.491 . S
C1320 H1311 0.950 . S
C1320 C1319 1.398 . S
C1320 C1321 1.391 . S
C1321 H1309 0.950 . S
C1321 C1317 1.393 . S
C1321 C1320 1.391 . S
C1322 H1312 0.950 . S
C1322 C1323 1.386 . S
C1322 C1324 1.391 . S
C1323 C1322 1.386 . S
C1323 C1327 1.393 . S
C1324 H1313 0.950 . S
C1324 C1322 1.391 . S
C1324 C1325 1.400 . S
C1325 C1319 1.491 . S
C1325 C1324 1.400 . S
C1325 C1326 1.398 . S
C1326 H1314 0.950 . S
C1326 C1325 1.398 . S
C1326 C1327 1.391 . S
C1327 H1315 0.950 . S
C1327 C1323 1.393 . S
C1327 C1326 1.391 . S
H1328 C1336 0.950 . S
H1329 C1341 0.950 . S
H1330 C1338 0.950 . S
H1331 C1340 0.950 . S
H1332 C1342 0.950 . S
H1333 C1344 0.950 . S
H1334 C1346 0.950 . S
H1335 C1347 0.950 . S
C1336 H1328 0.950 . S
C1336 C1337 1.386 . S
C1336 C1338 1.391 . S
C1337 C1336 1.386 . S
C1337 C1341 1.393 . S
C1338 H1330 0.950 . S
C1338 C1336 1.391 . S
C1338 C1339 1.400 . S
C1339 C1338 1.400 . S
C1339 C1340 1.398 . S
C1339 C1345 1.491 . S
C1340 H1331 0.950 . S
C1340 C1339 1.398 . S
C1340 C1341 1.391 . S
C1341 H1329 0.950 . S
C1341 C1337 1.393 . S
C1341 C1340 1.391 . S
C1342 H1332 0.950 . S
C1342 C1343 1.386 . S
C1342 C1344 1.391 . S
C1343 C1342 1.386 . S
C1343 C1347 1.393 . S
C1344 H1333 0.950 . S
C1344 C1342 1.391 . S
C1344 C1345 1.400 . S
C1345 C1339 1.491 . S
C1345 C1344 1.400 . S
C1345 C1346 1.398 . S
C1346 H1334 0.950 . S
C1346 C1345 1.398 . S
C1346 C1347 1.391 . S
C1347 H1335 0.950 . S
C1347 C1343 1.393 . S
C1347 C1346 1.391 . S
H1348 C1356 0.950 . S
H1349 C1361 0.950 . S
H1350 C1358 0.950 . S
H1351 C1360 0.950 . S
H1352 C1362 0.950 . S
H1353 C1364 0.950 . S
H1354 C1366 0.950 . S
H1355 C1367 0.950 . S
C1356 H1348 0.950 . S
C1356 C1357 1.386 . S
C1356 C1358 1.391 . S
C1357 C1356 1.386 . S
C1357 C1361 1.393 . S
C1358 H1350 0.950 . S
C1358 C1356 1.391 . S
C1358 C1359 1.400 . S
C1359 C1358 1.400 . S
C1359 C1360 1.398 . S
C1359 C1365 1.491 . S
C1360 H1351 0.950 . S
C1360 C1359 1.398 . S
C1360 C1361 1.391 . S
C1361 H1349 0.950 . S
C1361 C1357 1.393 . S
C1361 C1360 1.391 . S
C1362 H1352 0.950 . S
C1362 C1363 1.386 . S
C1362 C1364 1.391 . S
C1363 C1362 1.386 . S
C1363 C1367 1.393 . S
C1364 H1353 0.950 . S
C1364 C1362 1.391 . S
C1364 C1365 1.400 . S
C1365 C1359 1.491 . S
C1365 C1364 1.400 . S
C1365 C1366 1.398 . S
C1366 H1354 0.950 . S
C1366 C1365 1.398 . S
C1366 C1367 1.391 . S
C1367 H1355 0.950 . S
C1367 C1363 1.393 . S
C1367 C1366 1.391 . S
H1368 C1376 0.950 . S
H1369 C1381 0.950 . S
H1370 C1378 0.950 . S
H1371 C1380 0.950 . S
H1372 C1382 0.950 . S
H1373 C1384 0.950 . S
H1374 C1386 0.950 . S
H1375 C1387 0.950 . S
C1376 H1368 0.950 . S
C1376 C1377 1.386 . S
C1376 C1378 1.391 . S
C1377 C1376 1.386 . S
C1377 C1381 1.393 . S
C1378 H1370 0.950 . S
C1378 C1376 1.391 . S
C1378 C1379 1.400 . S
C1379 C1378 1.400 . S
C1379 C1380 1.398 . S
C1379 C1385 1.491 . S
C1380 H1371 0.950 . S
C1380 C1379 1.398 . S
C1380 C1381 1.391 . S
C1381 H1369 0.950 . S
C1381 C1377 1.393 . S
C1381 C1380 1.391 . S
C1382 H1372 0.950 . S
C1382 C1383 1.386 . S
C1382 C1384 1.391 . S
C1383 C1382 1.386 . S
C1383 C1387 1.393 . S
C1384 H1373 0.950 . S
C1384 C1382 1.391 . S
C1384 C1385 1.400 . S
C1385 C1379 1.491 . S
C1385 C1384 1.400 . S
C1385 C1386 1.398 . S
C1386 H1374 0.950 . S
C1386 C1385 1.398 . S
C1386 C1387 1.391 . S
C1387 H1375 0.950 . S
C1387 C1383 1.393 . S
C1387 C1386 1.391 . S
H1388 C1396 0.950 . S
H1389 C1401 0.950 . S
H1390 C1398 0.950 . S
H1391 C1400 0.950 . S
H1392 C1402 0.950 . S
H1393 C1404 0.950 . S
H1394 C1406 0.950 . S
H1395 C1407 0.950 . S
C1396 H1388 0.950 . S
C1396 C1397 1.386 . S
C1396 C1398 1.391 . S
C1397 C1396 1.386 . S
C1397 C1401 1.393 . S
C1398 H1390 0.950 . S
C1398 C1396 1.391 . S
C1398 C1399 1.400 . S
C1399 C1398 1.400 . S
C1399 C1400 1.398 . S
C1399 C1405 1.491 . S
C1400 H1391 0.950 . S
C1400 C1399 1.398 . S
C1400 C1401 1.391 . S
C1401 H1389 0.950 . S
C1401 C1397 1.393 . S
C1401 C1400 1.391 . S
C1402 H1392 0.950 . S
C1402 C1403 1.386 . S
C1402 C1404 1.391 . S
C1403 C1402 1.386 . S
C1403 C1407 1.393 . S
C1404 H1393 0.950 . S
C1404 C1402 1.391 . S
C1404 C1405 1.400 . S
C1405 C1399 1.491 . S
C1405 C1404 1.400 . S
C1405 C1406 1.398 . S
C1406 H1394 0.950 . S
C1406 C1405 1.398 . S
C1406 C1407 1.391 . S
C1407 H1395 0.950 . S
C1407 C1403 1.393 . S
C1407 C1406 1.391 . S
H1408 C1416 0.950 . S
H1409 C1421 0.950 . S
H1410 C1418 0.950 . S
H1411 C1420 0.950 . S
H1412 C1422 0.950 . S
H1413 C1424 0.950 . S
H1414 C1426 0.950 . S
H1415 C1427 0.950 . S
C1416 H1408 0.950 . S
C1416 C1417 1.386 . S
C1416 C1418 1.391 . S
C1417 C1416 1.386 . S
C1417 C1421 1.393 . S
C1418 H1410 0.950 . S
C1418 C1416 1.391 . S
C1418 C1419 1.400 . S
C1419 C1418 1.400 . S
C1419 C1420 1.398 . S
C1419 C1425 1.491 . S
C1420 H1411 0.950 . S
C1420 C1419 1.398 . S
C1420 C1421 1.391 . S
C1421 H1409 0.950 . S
C1421 C1417 1.393 . S
C1421 C1420 1.391 . S
C1422 H1412 0.950 . S
C1422 C1423 1.386 . S
C1422 C1424 1.391 . S
C1423 C1422 1.386 . S
C1423 C1427 1.393 . S
C1424 H1413 0.950 . S
C1424 C1422 1.391 . S
C1424 C1425 1.400 . S
C1425 C1419 1.491 . S
C1425 C1424 1.400 . S
C1425 C1426 1.398 . S
C1426 H1414 0.950 . S
C1426 C1425 1.398 . S
C1426 C1427 1.391 . S
C1427 H1415 0.950 . S
C1427 C1423 1.393 . S
C1427 C1426 1.391 . S
H1428 C1436 0.950 . S
H1429 C1441 0.950 . S
H1430 C1438 0.950 . S
H1431 C1440 0.950 . S
H1432 C1442 0.950 . S
H1433 C1444 0.950 . S
H1434 C1446 0.950 . S
H1435 C1447 0.950 . S
C1436 H1428 0.950 . S
C1436 C1437 1.386 . S
C1436 C1438 1.391 . S
C1437 C1436 1.386 . S
C1437 C1441 1.393 . S
C1438 H1430 0.950 . S
C1438 C1436 1.391 . S
C1438 C1439 1.400 . S
C1439 C1438 1.400 . S
C1439 C1440 1.398 . S
C1439 C1445 1.491 . S
C1440 H1431 0.950 . S
C1440 C1439 1.398 . S
C1440 C1441 1.391 . S
C1441 H1429 0.950 . S
C1441 C1437 1.393 . S
C1441 C1440 1.391 . S
C1442 H1432 0.950 . S
C1442 C1443 1.386 . S
C1442 C1444 1.391 . S
C1443 C1442 1.386 . S
C1443 C1447 1.393 . S
C1444 H1433 0.950 . S
C1444 C1442 1.391 . S
C1444 C1445 1.400 . S
C1445 C1439 1.491 . S
C1445 C1444 1.400 . S
C1445 C1446 1.398 . S
C1446 H1434 0.950 . S
C1446 C1445 1.398 . S
C1446 C1447 1.391 . S
C1447 H1435 0.950 . S
C1447 C1443 1.393 . S
C1447 C1446 1.391 . S
H1448 C1456 0.950 . S
H1449 C1461 0.950 . S
H1450 C1458 0.950 . S
H1451 C1460 0.950 . S
H1452 C1462 0.950 . S
H1453 C1464 0.950 . S
H1454 C1466 0.950 . S
H1455 C1467 0.950 . S
C1456 H1448 0.950 . S
C1456 C1457 1.386 . S
C1456 C1458 1.391 . S
C1457 C1456 1.386 . S
C1457 C1461 1.393 . S
C1458 H1450 0.950 . S
C1458 C1456 1.391 . S
C1458 C1459 1.400 . S
C1459 C1458 1.400 . S
C1459 C1460 1.398 . S
C1459 C1465 1.491 . S
C1460 H1451 0.950 . S
C1460 C1459 1.398 . S
C1460 C1461 1.391 . S
C1461 H1449 0.950 . S
C1461 C1457 1.393 . S
C1461 C1460 1.391 . S
C1462 H1452 0.950 . S
C1462 C1463 1.386 . S
C1462 C1464 1.391 . S
C1463 C1462 1.386 . S
C1463 C1467 1.393 . S
C1464 H1453 0.950 . S
C1464 C1462 1.391 . S
C1464 C1465 1.400 . S
C1465 C1459 1.491 . S
C1465 C1464 1.400 . S
C1465 C1466 1.398 . S
C1466 H1454 0.950 . S
C1466 C1465 1.398 . S
C1466 C1467 1.391 . S
C1467 H1455 0.950 . S
C1467 C1463 1.393 . S
C1467 C1466 1.391 . S
H1468 C1476 0.950 . S
H1469 C1481 0.950 . S
H1470 C1478 0.950 . S
H1471 C1480 0.950 . S
H1472 C1482 0.950 . S
H1473 C1484 0.950 . S
H1474 C1486 0.950 . S
H1475 C1487 0.950 . S
C1476 H1468 0.950 . S
C1476 C1477 1.386 . S
C1476 C1478 1.391 . S
C1477 C1476 1.386 . S
C1477 C1481 1.393 . S
C1478 H1470 0.950 . S
C1478 C1476 1.391 . S
C1478 C1479 1.400 . S
C1479 C1478 1.400 . S
C1479 C1480 1.398 . S
C1479 C1485 1.491 . S
C1480 H1471 0.950 . S
C1480 C1479 1.398 . S
C1480 C1481 1.391 . S
C1481 H1469 0.950 . S
C1481 C1477 1.393 . S
C1481 C1480 1.391 . S
C1482 H1472 0.950 . S
C1482 C1483 1.386 . S
C1482 C1484 1.391 . S
C1483 C1482 1.386 . S
C1483 C1487 1.393 . S
C1484 H1473 0.950 . S
C1484 C1482 1.391 . S
C1484 C1485 1.400 . S
C1485 C1479 1.491 . S
C1485 C1484 1.400 . S
C1485 C1486 1.398 . S
C1486 H1474 0.950 . S
C1486 C1485 1.398 . S
C1486 C1487 1.391 . S
C1487 H1475 0.950 . S
C1487 C1483 1.393 . S
C1487 C1486 1.391 . S
H1488 C1496 0.950 . S
H1489 C1501 0.950 . S
H1490 C1498 0.950 . S
H1491 C1500 0.950 . S
H1492 C1502 0.950 . S
H1493 C1504 0.950 . S
H1494 C1506 0.950 . S
H1495 C1507 0.950 . S
C1496 H1488 0.950 . S
C1496 C1497 1.386 . S
C1496 C1498 1.391 . S
C1497 C1496 1.386 . S
C1497 C1501 1.393 . S
C1498 H1490 0.950 . S
C1498 C1496 1.391 . S
C1498 C1499 1.400 . S
C1499 C1498 1.400 . S
C1499 C1500 1.398 . S
C1499 C1505 1.491 . S
C1500 H1491 0.950 . S
C1500 C1499 1.398 . S
C1500 C1501 1.391 . S
C1501 H1489 0.950 . S
C1501 C1497 1.393 . S
C1501 C1500 1.391 . S
C1502 H1492 0.950 . S
C1502 C1503 1.386 . S
C1502 C1504 1.391 . S
C1503 C1502 1.386 . S
C1503 C1507 1.393 . S
C1504 H1493 0.950 . S
C1504 C1502 1.391 . S
C1504 C1505 1.400 . S
C1505 C1499 1.491 . S
C1505 C1504 1.400 . S
C1505 C1506 1.398 . S
C1506 H1494 0.950 . S
C1506 C1505 1.398 . S
C1506 C1507 1.391 . S
C1507 H1495 0.950 . S
C1507 C1503 1.393 . S
C1507 C1506 1.391 . S
H1508 C1516 0.950 . S
H1509 C1521 0.950 . S
H1510 C1518 0.950 . S
H1511 C1520 0.950 . S
H1512 C1522 0.950 . S
H1513 C1524 0.950 . S
H1514 C1526 0.950 . S
H1515 C1527 0.950 . S
C1516 H1508 0.950 . S
C1516 C1517 1.386 . S
C1516 C1518 1.391 . S
C1517 C1516 1.386 . S
C1517 C1521 1.393 . S
C1518 H1510 0.950 . S
C1518 C1516 1.391 . S
C1518 C1519 1.400 . S
C1519 C1518 1.400 . S
C1519 C1520 1.398 . S
C1519 C1525 1.491 . S
C1520 H1511 0.950 . S
C1520 C1519 1.398 . S
C1520 C1521 1.391 . S
C1521 H1509 0.950 . S
C1521 C1517 1.393 . S
C1521 C1520 1.391 . S
C1522 H1512 0.950 . S
C1522 C1523 1.386 . S
C1522 C1524 1.391 . S
C1523 C1522 1.386 . S
C1523 C1527 1.393 . S
C1524 H1513 0.950 . S
C1524 C1522 1.391 . S
C1524 C1525 1.400 . S
C1525 C1519 1.491 . S
C1525 C1524 1.400 . S
C1525 C1526 1.398 . S
C1526 H1514 0.950 . S
C1526 C1525 1.398 . S
C1526 C1527 1.391 . S
C1527 H1515 0.950 . S
C1527 C1523 1.393 . S
C1527 C1526 1.391 . S
H1528 C1536 0.950 . S
H1529 C1541 0.950 . S
H1530 C1538 0.950 . S
H1531 C1540 0.950 . S
H1532 C1542 0.950 . S
H1533 C1544 0.950 . S
H1534 C1546 0.950 . S
H1535 C1547 0.950 . S
C1536 H1528 0.950 . S
C1536 C1537 1.386 . S
C1536 C1538 1.391 . S
C1537 C1536 1.386 . S
C1537 C1541 1.393 . S
C1538 H1530 0.950 . S
C1538 C1536 1.391 . S
C1538 C1539 1.400 . S
C1539 C1538 1.400 . S
C1539 C1540 1.398 . S
C1539 C1545 1.491 . S
C1540 H1531 0.950 . S
C1540 C1539 1.398 . S
C1540 C1541 1.391 . S
C1541 H1529 0.950 . S
C1541 C1537 1.393 . S
C1541 C1540 1.391 . S
C1542 H1532 0.950 . S
C1542 C1543 1.386 . S
C1542 C1544 1.391 . S
C1543 C1542 1.386 . S
C1543 C1547 1.393 . S
C1544 H1533 0.950 . S
C1544 C1542 1.391 . S
C1544 C1545 1.400 . S
C1545 C1539 1.491 . S
C1545 C1544 1.400 . S
C1545 C1546 1.398 . S
C1546 H1534 0.950 . S
C1546 C1545 1.398 . S
C1546 C1547 1.391 . S
C1547 H1535 0.950 . S
C1547 C1543 1.393 . S
C1547 C1546 1.391 . S
H1548 C1556 0.950 . S
H1549 C1561 0.950 . S
H1550 C1558 0.950 . S
H1551 C1560 0.950 . S
H1552 C1562 0.950 . S
H1553 C1564 0.950 . S
H1554 C1566 0.950 . S
H1555 C1567 0.950 . S
C1556 H1548 0.950 . S
C1556 C1557 1.386 . S
C1556 C1558 1.391 . S
C1557 C1556 1.386 . S
C1557 C1561 1.393 . S
C1558 H1550 0.950 . S
C1558 C1556 1.391 . S
C1558 C1559 1.400 . S
C1559 C1558 1.400 . S
C1559 C1560 1.398 . S
C1559 C1565 1.491 . S
C1560 H1551 0.950 . S
C1560 C1559 1.398 . S
C1560 C1561 1.391 . S
C1561 H1549 0.950 . S
C1561 C1557 1.393 . S
C1561 C1560 1.391 . S
C1562 H1552 0.950 . S
C1562 C1563 1.386 . S
C1562 C1564 1.391 . S
C1563 C1562 1.386 . S
C1563 C1567 1.393 . S
C1564 H1553 0.950 . S
C1564 C1562 1.391 . S
C1564 C1565 1.400 . S
C1565 C1559 1.491 . S
C1565 C1564 1.400 . S
C1565 C1566 1.398 . S
C1566 H1554 0.950 . S
C1566 C1565 1.398 . S
C1566 C1567 1.391 . S
C1567 H1555 0.950 . S
C1567 C1563 1.393 . S
C1567 C1566 1.391 . S
H1568 C1576 0.950 . S
H1569 C1581 0.950 . S
H1570 C1578 0.950 . S
H1571 C1580 0.950 . S
H1572 C1582 0.950 . S
H1573 C1584 0.950 . S
H1574 C1586 0.950 . S
H1575 C1587 0.950 . S
C1576 H1568 0.950 . S
C1576 C1577 1.386 . S
C1576 C1578 1.391 . S
C1577 C1576 1.386 . S
C1577 C1581 1.393 . S
C1578 H1570 0.950 . S
C1578 C1576 1.391 . S
C1578 C1579 1.400 . S
C1579 C1578 1.400 . S
C1579 C1580 1.398 . S
C1579 C1585 1.491 . S
C1580 H1571 0.950 . S
C1580 C1579 1.398 . S
C1580 C1581 1.391 . S
C1581 H1569 0.950 . S
C1581 C1577 1.393 . S
C1581 C1580 1.391 . S
C1582 H1572 0.950 . S
C1582 C1583 1.386 . S
C1582 C1584 1.391 . S
C1583 C1582 1.386 . S
C1583 C1587 1.393 . S
C1584 H1573 0.950 . S
C1584 C1582 1.391 . S
C1584 C1585 1.400 . S
C1585 C1579 1.491 . S
C1585 C1584 1.400 . S
C1585 C1586 1.398 . S
C1586 H1574 0.950 . S
C1586 C1585 1.398 . S
C1586 C1587 1.391 . S
C1587 H1575 0.950 . S
C1587 C1583 1.393 . S
C1587 C1586 1.391 . S
H1588 C1596 0.950 . S
H1589 C1601 0.950 . S
H1590 C1598 0.950 . S
H1591 C1600 0.950 . S
H1592 C1602 0.950 . S
H1593 C1604 0.950 . S
H1594 C1606 0.950 . S
H1595 C1607 0.950 . S
C1596 H1588 0.950 . S
C1596 C1597 1.386 . S
C1596 C1598 1.391 . S
C1597 C1596 1.386 . S
C1597 C1601 1.393 . S
C1598 H1590 0.950 . S
C1598 C1596 1.391 . S
C1598 C1599 1.400 . S
C1599 C1598 1.400 . S
C1599 C1600 1.398 . S
C1599 C1605 1.491 . S
C1600 H1591 0.950 . S
C1600 C1599 1.398 . S
C1600 C1601 1.391 . S
C1601 H1589 0.950 . S
C1601 C1597 1.393 . S
C1601 C1600 1.391 . S
C1602 H1592 0.950 . S
C1602 C1603 1.386 . S
C1602 C1604 1.391 . S
C1603 C1602 1.386 . S
C1603 C1607 1.393 . S
C1604 H1593 0.950 . S
C1604 C1602 1.391 . S
C1604 C1605 1.400 . S
C1605 C1599 1.491 . S
C1605 C1604 1.400 . S
C1605 C1606 1.398 . S
C1606 H1594 0.950 . S
C1606 C1605 1.398 . S
C1606 C1607 1.391 . S
C1607 H1595 0.950 . S
C1607 C1603 1.393 . S
C1607 C1606 1.391 . S
H1608 C1616 0.950 . S
H1609 C1621 0.950 . S
H1610 C1618 0.950 . S
H1611 C1620 0.950 1_554 S
H1612 C1622 0.950 . S
H1613 C1624 0.950 . S
H1614 C1626 0.950 1_556 S
H1615 C1627 0.950 . S
C1616 H1608 0.950 . S
C1616 C1617 1.386 . S
C1616 C1618 1.391 . S
C1617 C1616 1.386 . S
C1617 C1621 1.393 . S
C1618 H1610 0.950 . S
C1618 C1616 1.391 . S
C1618 C1619 1.400 . S
C1619 C1618 1.400 . S
C1619 C1620 1.398 . S
C1619 C1625 1.491 1_556 S
C1620 H1611 0.950 1_556 S
C1620 C1619 1.398 . S
C1620 C1621 1.391 . S
C1621 H1609 0.950 . S
C1621 C1617 1.393 . S
C1621 C1620 1.391 . S
C1622 H1612 0.950 . S
C1622 C1623 1.386 . S
C1622 C1624 1.391 . S
C1623 C1622 1.386 . S
C1623 C1627 1.393 . S
C1624 H1613 0.950 . S
C1624 C1622 1.391 . S
C1624 C1625 1.400 . S
C1625 C1619 1.491 1_554 S
C1625 C1624 1.400 . S
C1625 C1626 1.398 . S
C1626 H1614 0.950 1_554 S
C1626 C1625 1.398 . S
C1626 C1627 1.391 . S
C1627 H1615 0.950 . S
C1627 C1623 1.393 . S
C1627 C1626 1.391 . S
H1628 C1636 0.950 . S
H1629 C1641 0.950 . S
H1630 C1638 0.950 . S
H1631 C1640 0.950 . S
H1632 C1642 0.950 . S
H1633 C1644 0.950 . S
H1634 C1646 0.950 . S
H1635 C1647 0.950 . S
C1636 H1628 0.950 . S
C1636 C1637 1.386 . S
C1636 C1638 1.391 . S
C1637 C1636 1.386 . S
C1637 C1641 1.393 . S
C1638 H1630 0.950 . S
C1638 C1636 1.391 . S
C1638 C1639 1.400 . S
C1639 C1638 1.400 . S
C1639 C1640 1.398 . S
C1639 C1645 1.491 1_455 S
C1640 H1631 0.950 . S
C1640 C1639 1.398 . S
C1640 C1641 1.391 . S
C1641 H1629 0.950 . S
C1641 C1637 1.393 . S
C1641 C1640 1.391 . S
C1642 H1632 0.950 . S
C1642 C1643 1.386 . S
C1642 C1644 1.391 . S
C1643 C1642 1.386 . S
C1643 C1647 1.393 . S
C1644 H1633 0.950 . S
C1644 C1642 1.391 . S
C1644 C1645 1.400 . S
C1645 C1639 1.491 1_655 S
C1645 C1644 1.400 . S
C1645 C1646 1.398 . S
C1646 H1634 0.950 . S
C1646 C1645 1.398 . S
C1646 C1647 1.391 . S
C1647 H1635 0.950 . S
C1647 C1643 1.393 . S
C1647 C1646 1.391 . S
H1648 C1656 0.950 . S
H1649 C1661 0.950 . S
H1650 C1658 0.950 1_545 S
H1651 C1660 0.950 1_556 S
H1652 C1662 0.950 . S
H1653 C1664 0.950 1_565 S
H1654 C1666 0.950 1_554 S
H1655 C1667 0.950 . S
C1656 H1648 0.950 . S
C1656 C1657 1.386 . S
C1656 C1658 1.391 . S
C1657 C1656 1.386 . S
C1657 C1661 1.393 . S
C1658 H1650 0.950 1_565 S
C1658 C1656 1.391 . S
C1658 C1659 1.400 . S
C1659 C1658 1.400 . S
C1659 C1660 1.398 . S
C1659 C1665 1.491 1_564 S
C1660 H1651 0.950 1_554 S
C1660 C1659 1.398 . S
C1660 C1661 1.391 . S
C1661 H1649 0.950 . S
C1661 C1657 1.393 . S
C1661 C1660 1.391 . S
C1662 H1652 0.950 . S
C1662 C1663 1.386 . S
C1662 C1664 1.391 . S
C1663 C1662 1.386 . S
C1663 C1667 1.393 . S
C1664 H1653 0.950 1_545 S
C1664 C1662 1.391 . S
C1664 C1665 1.400 . S
C1665 C1659 1.491 1_546 S
C1665 C1664 1.400 . S
C1665 C1666 1.398 . S
C1666 H1654 0.950 1_556 S
C1666 C1665 1.398 . S
C1666 C1667 1.391 . S
C1667 H1655 0.950 . S
C1667 C1663 1.393 . S
C1667 C1666 1.391 . S
H1668 C1676 0.950 . S
H1669 C1681 0.950 . S
H1670 C1678 0.950 . S
H1671 C1680 0.950 . S
H1672 C1682 0.950 . S
H1673 C1684 0.950 . S
H1674 C1686 0.950 . S
H1675 C1687 0.950 . S
C1676 H1668 0.950 . S
C1676 C1677 1.386 . S
C1676 C1678 1.391 . S
C1677 C1676 1.386 . S
C1677 C1681 1.393 . S
C1678 H1670 0.950 . S
C1678 C1676 1.391 . S
C1678 C1679 1.400 . S
C1679 C1678 1.400 . S
C1679 C1680 1.398 . S
C1679 C1685 1.491 . S
C1680 H1671 0.950 . S
C1680 C1679 1.398 . S
C1680 C1681 1.391 . S
C1681 H1669 0.950 . S
C1681 C1677 1.393 . S
C1681 C1680 1.391 . S
C1682 H1672 0.950 . S
C1682 C1683 1.386 . S
C1682 C1684 1.391 . S
C1683 C1682 1.386 . S
C1683 C1687 1.393 . S
C1684 H1673 0.950 . S
C1684 C1682 1.391 . S
C1684 C1685 1.400 . S
C1685 C1679 1.491 . S
C1685 C1684 1.400 . S
C1685 C1686 1.398 . S
C1686 H1674 0.950 . S
C1686 C1685 1.398 . S
C1686 C1687 1.391 . S
C1687 H1675 0.950 . S
C1687 C1683 1.393 . S
C1687 C1686 1.391 . S
H1688 C1696 0.950 . S
H1689 C1701 0.950 . S
H1690 C1698 0.950 1_554 S
H1691 C1700 0.950 1_455 S
H1692 C1702 0.950 . S
H1693 C1704 0.950 1_556 S
H1694 C1706 0.950 1_655 S
H1695 C1707 0.950 . S
C1696 H1688 0.950 . S
C1696 C1697 1.386 . S
C1696 C1698 1.391 . S
C1697 C1696 1.386 . S
C1697 C1701 1.393 . S
C1698 H1690 0.950 1_556 S
C1698 C1696 1.391 . S
C1698 C1699 1.400 . S
C1699 C1698 1.400 . S
C1699 C1700 1.398 . S
C1699 C1705 1.491 1_656 S
C1700 H1691 0.950 1_655 S
C1700 C1699 1.398 . S
C1700 C1701 1.391 . S
C1701 H1689 0.950 . S
C1701 C1697 1.393 . S
C1701 C1700 1.391 . S
C1702 H1692 0.950 . S
C1702 C1703 1.386 . S
C1702 C1704 1.391 . S
C1703 C1702 1.386 . S
C1703 C1707 1.393 . S
C1704 H1693 0.950 1_554 S
C1704 C1702 1.391 . S
C1704 C1705 1.400 . S
C1705 C1699 1.491 1_454 S
C1705 C1704 1.400 . S
C1705 C1706 1.398 . S
C1706 H1694 0.950 1_455 S
C1706 C1705 1.398 . S
C1706 C1707 1.391 . S
C1707 H1695 0.950 . S
C1707 C1703 1.393 . S
C1707 C1706 1.391 . S
H1708 C1716 0.950 . S
H1709 C1721 0.950 . S
H1710 C1718 0.950 . S
H1711 C1720 0.950 . S
H1712 C1722 0.950 . S
H1713 C1724 0.950 . S
H1714 C1726 0.950 . S
H1715 C1727 0.950 . S
C1716 H1708 0.950 . S
C1716 C1717 1.386 . S
C1716 C1718 1.391 . S
C1717 C1716 1.386 . S
C1717 C1721 1.393 . S
C1718 H1710 0.950 . S
C1718 C1716 1.391 . S
C1718 C1719 1.400 . S
C1719 C1718 1.400 . S
C1719 C1720 1.398 . S
C1719 C1725 1.491 1_565 S
C1720 H1711 0.950 . S
C1720 C1719 1.398 . S
C1720 C1721 1.391 . S
C1721 H1709 0.950 . S
C1721 C1717 1.393 . S
C1721 C1720 1.391 . S
C1722 H1712 0.950 . S
C1722 C1723 1.386 . S
C1722 C1724 1.391 . S
C1723 C1722 1.386 . S
C1723 C1727 1.393 . S
C1724 H1713 0.950 . S
C1724 C1722 1.391 . S
C1724 C1725 1.400 . S
C1725 C1719 1.491 1_545 S
C1725 C1724 1.400 . S
C1725 C1726 1.398 . S
C1726 H1714 0.950 . S
C1726 C1725 1.398 . S
C1726 C1727 1.391 . S
C1727 H1715 0.950 . S
C1727 C1723 1.393 . S
C1727 C1726 1.391 . S
C1017 C403 1.365 . S
C1023 C58 1.226 . S
C1037 C487 1.354 . S
C1043 C142 1.177 . S
C1057 C226 1.218 . S
C1063 C67 1.365 . S
C1077 C310 1.223 . S
C1083 C151 1.365 . S
C1097 C394 1.227 . S
C1103 C235 1.365 . S
C1117 C319 1.358 . S
C1123 C478 1.207 . S
C1137 C739 1.358 . S
C1143 C562 1.205 . S
C1157 C646 1.183 . S
C1163 C823 1.357 . S
C1177 C907 1.360 . S
C1183 C730 1.194 . S
C1197 C814 1.188 . S
C1203 C991 1.354 . S
C1217 C898 1.178 . S
C1223 C571 1.355 . S
C1237 C655 1.365 . S
C1243 C982 1.228 . S
C1257 C392 1.431 . S
C1263 C69 1.262 . S
C1277 C153 1.300 . S
C1283 C476 1.441 . S
C1297 C237 1.306 . S
C1303 C56 1.441 . S
C1317 C321 1.270 . S
C1323 C140 1.426 . S
C1337 C224 1.429 . S
C1343 C405 1.261 . S
C1357 C308 1.431 . S
C1363 C489 1.262 . S
C1377 C728 1.437 . S
C1383 C573 1.273 . S
C1397 C657 1.261 . S
C1403 C812 1.429 . S
C1417 C741 1.269 . S
C1423 C896 1.435 . S
C1437 C980 1.437 . S
C1443 C825 1.275 . S
C1457 C909 1.275 . S
C1463 C560 1.426 . S
C1477 C644 1.434 . S
C1483 C993 1.303 . S
C1497 C914 1.808 . S
C1503 C74 1.828 . S
C1517 C158 1.831 . S
C1523 C998 1.812 . S
C1537 C242 1.832 . S
C1543 C578 1.815 . S
C1557 C326 1.821 . S
C1563 C662 1.806 . S
C1577 C410 1.811 . S
C1583 C746 1.831 . S
C1597 C830 1.832 . S
C1603 C494 1.819 . S
C1617 C819 1.946 . S
C1623 C63 1.940 . S
C1637 C903 1.945 . S
C1643 C147 1.941 . S
C1657 C231 1.943 . S
C1663 C987 1.934 . S
C1677 C315 1.937 . S
C1683 C567 1.946 . S
C1697 C651 1.935 . S
C1703 C399 1.945 . S
C1717 C735 1.942 . S
C1723 C483 1.944 . S
