# Generated by pormake.
# Topology lta, (4)-cn, num edge types: 1
# Building blocks:
#     Node 0, Type 0, BuildingBlock: UXUYUI_clean_sbu_0, # of connection points: 4
#     Node 1, Type 0, BuildingBlock: UXUYUI_clean_sbu_0, # of connection points: 4
#     Node 2, Type 0, BuildingBlock: UXUYUI_clean_sbu_0, # of connection points: 4
#     Node 3, Type 0, BuildingBlock: UXUYUI_clean_sbu_0, # of connection points: 4
#     Node 4, Type 0, BuildingBlock: UXUYUI_clean_sbu_0, # of connection points: 4
#     Node 5, Type 0, BuildingBlock: UXUYUI_clean_sbu_0, # of connection points: 4
#     Node 6, Type 0, BuildingBlock: UXUYUI_clean_sbu_0, # of connection points: 4
#     Node 7, Type 0, BuildingBlock: UXUYUI_clean_sbu_0, # of connection points: 4
#     Node 8, Type 0, BuildingBlock: UXUYUI_clean_sbu_0, # of connection points: 4
#     Node 9, Type 0, BuildingBlock: UXUYUI_clean_sbu_0, # of connection points: 4
#     Node 10, Type 0, BuildingBlock: UXUYUI_clean_sbu_0, # of connection points: 4
#     Node 11, Type 0, BuildingBlock: UXUYUI_clean_sbu_0, # of connection points: 4
#     Node 12, Type 0, BuildingBlock: UXUYUI_clean_sbu_0, # of connection points: 4
#     Node 13, Type 0, BuildingBlock: UXUYUI_clean_sbu_0, # of connection points: 4
#     Node 14, Type 0, BuildingBlock: UXUYUI_clean_sbu_0, # of connection points: 4
#     Node 15, Type 0, BuildingBlock: UXUYUI_clean_sbu_0, # of connection points: 4
#     Node 16, Type 0, BuildingBlock: UXUYUI_clean_sbu_0, # of connection points: 4
#     Node 17, Type 0, BuildingBlock: UXUYUI_clean_sbu_0, # of connection points: 4
#     Node 18, Type 0, BuildingBlock: UXUYUI_clean_sbu_0, # of connection points: 4
#     Node 19, Type 0, BuildingBlock: UXUYUI_clean_sbu_0, # of connection points: 4
#     Node 20, Type 0, BuildingBlock: UXUYUI_clean_sbu_0, # of connection points: 4
#     Node 21, Type 0, BuildingBlock: UXUYUI_clean_sbu_0, # of connection points: 4
#     Node 22, Type 0, BuildingBlock: UXUYUI_clean_sbu_0, # of connection points: 4
#     Node 23, Type 0, BuildingBlock: UXUYUI_clean_sbu_0, # of connection points: 4
#     Edge 24, Type (0, 0), BuildingBlock: UVAHIK_clean_linker_0, # of connection points: 2
#     Edge 25, Type (0, 0), BuildingBlock: UVAHIK_clean_linker_0, # of connection points: 2
#     Edge 26, Type (0, 0), BuildingBlock: UVAHIK_clean_linker_0, # of connection points: 2
#     Edge 27, Type (0, 0), BuildingBlock: UVAHIK_clean_linker_0, # of connection points: 2
#     Edge 28, Type (0, 0), BuildingBlock: UVAHIK_clean_linker_0, # of connection points: 2
#     Edge 29, Type (0, 0), BuildingBlock: UVAHIK_clean_linker_0, # of connection points: 2
#     Edge 30, Type (0, 0), BuildingBlock: UVAHIK_clean_linker_0, # of connection points: 2
#     Edge 31, Type (0, 0), BuildingBlock: UVAHIK_clean_linker_0, # of connection points: 2
#     Edge 32, Type (0, 0), BuildingBlock: UVAHIK_clean_linker_0, # of connection points: 2
#     Edge 33, Type (0, 0), BuildingBlock: UVAHIK_clean_linker_0, # of connection points: 2
#     Edge 34, Type (0, 0), BuildingBlock: UVAHIK_clean_linker_0, # of connection points: 2
#     Edge 35, Type (0, 0), BuildingBlock: UVAHIK_clean_linker_0, # of connection points: 2
#     Edge 36, Type (0, 0), BuildingBlock: UVAHIK_clean_linker_0, # of connection points: 2
#     Edge 37, Type (0, 0), BuildingBlock: UVAHIK_clean_linker_0, # of connection points: 2
#     Edge 38, Type (0, 0), BuildingBlock: UVAHIK_clean_linker_0, # of connection points: 2
#     Edge 39, Type (0, 0), BuildingBlock: UVAHIK_clean_linker_0, # of connection points: 2
#     Edge 40, Type (0, 0), BuildingBlock: UVAHIK_clean_linker_0, # of connection points: 2
#     Edge 41, Type (0, 0), BuildingBlock: UVAHIK_clean_linker_0, # of connection points: 2
#     Edge 42, Type (0, 0), BuildingBlock: UVAHIK_clean_linker_0, # of connection points: 2
#     Edge 43, Type (0, 0), BuildingBlock: UVAHIK_clean_linker_0, # of connection points: 2
#     Edge 44, Type (0, 0), BuildingBlock: UVAHIK_clean_linker_0, # of connection points: 2
#     Edge 45, Type (0, 0), BuildingBlock: UVAHIK_clean_linker_0, # of connection points: 2
#     Edge 46, Type (0, 0), BuildingBlock: UVAHIK_clean_linker_0, # of connection points: 2
#     Edge 47, Type (0, 0), BuildingBlock: UVAHIK_clean_linker_0, # of connection points: 2
#     Edge 48, Type (0, 0), BuildingBlock: UVAHIK_clean_linker_0, # of connection points: 2
#     Edge 49, Type (0, 0), BuildingBlock: UVAHIK_clean_linker_0, # of connection points: 2
#     Edge 50, Type (0, 0), BuildingBlock: UVAHIK_clean_linker_0, # of connection points: 2
#     Edge 51, Type (0, 0), BuildingBlock: UVAHIK_clean_linker_0, # of connection points: 2
#     Edge 52, Type (0, 0), BuildingBlock: UVAHIK_clean_linker_0, # of connection points: 2
#     Edge 53, Type (0, 0), BuildingBlock: UVAHIK_clean_linker_0, # of connection points: 2
#     Edge 54, Type (0, 0), BuildingBlock: UVAHIK_clean_linker_0, # of connection points: 2
#     Edge 55, Type (0, 0), BuildingBlock: UVAHIK_clean_linker_0, # of connection points: 2
#     Edge 56, Type (0, 0), BuildingBlock: UVAHIK_clean_linker_0, # of connection points: 2
#     Edge 57, Type (0, 0), BuildingBlock: UVAHIK_clean_linker_0, # of connection points: 2
#     Edge 58, Type (0, 0), BuildingBlock: UVAHIK_clean_linker_0, # of connection points: 2
#     Edge 59, Type (0, 0), BuildingBlock: UVAHIK_clean_linker_0, # of connection points: 2
#     Edge 60, Type (0, 0), BuildingBlock: UVAHIK_clean_linker_0, # of connection points: 2
#     Edge 61, Type (0, 0), BuildingBlock: UVAHIK_clean_linker_0, # of connection points: 2
#     Edge 62, Type (0, 0), BuildingBlock: UVAHIK_clean_linker_0, # of connection points: 2
#     Edge 63, Type (0, 0), BuildingBlock: UVAHIK_clean_linker_0, # of connection points: 2
#     Edge 64, Type (0, 0), BuildingBlock: UVAHIK_clean_linker_0, # of connection points: 2
#     Edge 65, Type (0, 0), BuildingBlock: UVAHIK_clean_linker_0, # of connection points: 2
#     Edge 66, Type (0, 0), BuildingBlock: UVAHIK_clean_linker_0, # of connection points: 2
#     Edge 67, Type (0, 0), BuildingBlock: UVAHIK_clean_linker_0, # of connection points: 2
#     Edge 68, Type (0, 0), BuildingBlock: UVAHIK_clean_linker_0, # of connection points: 2
#     Edge 69, Type (0, 0), BuildingBlock: UVAHIK_clean_linker_0, # of connection points: 2
#     Edge 70, Type (0, 0), BuildingBlock: UVAHIK_clean_linker_0, # of connection points: 2
#     Edge 71, Type (0, 0), BuildingBlock: UVAHIK_clean_linker_0, # of connection points: 2
# Relax obj value: 0.238
# Max RMSD: 0.085
# Mean RMSD: 0.085
data_MOF--net-lta--node1-UXUYUI_clean_sbu_0--edge1-UVAHIK_clean_linker_0
_symmetry_space_group_name_H-M    P1
_symmetry_Int_Tables_number       1
_symmetry_cell_setting            triclinic
loop_
_symmetry_equiv_pos_as_xyz
'x, y, z'
_cell_length_a     99.169539
_cell_length_b     99.169495
_cell_length_c     99.174834
_cell_angle_alpha  89.986045
_cell_angle_beta   90.01427
_cell_angle_gamma 90.011335
loop_
_atom_site_label
_atom_site_type_symbol
_atom_site_fract_x
_atom_site_fract_y
_atom_site_fract_z
_atom_type_partial_charge
Li0 Li 0.12344 0.31822 0.5136 0.0
Li1 Li 0.13117 0.30193 0.49692 0.0
Li2 Li 0.12329 0.32415 0.49006 0.0
Li3 Li 0.10778 0.30694 0.4983 0.0
C4 C 0.14921 0.32462 0.50894 0.0
N5 N 0.16933 0.33433 0.52559 0.0
C6 C 0.15965 0.31613 0.51313 0.0
C7 C 0.14906 0.33808 0.51312 0.0
C8 C 0.16973 0.32123 0.52156 0.0
C9 C 0.1593 0.34278 0.52158 0.0
C10 C 0.11015 0.29079 0.5189 0.0
C11 C 0.09606 0.27097 0.51948 0.0
N12 N 0.09059 0.2753 0.53129 0.0
C13 C 0.10443 0.29501 0.53107 0.0
C14 C 0.10599 0.27864 0.51308 0.0
C15 C 0.09455 0.28704 0.53717 0.0
C16 C 0.11752 0.33466 0.53589 0.0
N17 N 0.12594 0.32486 0.53135 0.0
C18 C 0.13866 0.32558 0.5518 0.0
C19 C 0.13611 0.31996 0.53915 0.0
C20 C 0.13033 0.33594 0.55656 0.0
C21 C 0.11949 0.34033 0.5486 0.0
H22 H 0.10938 0.33819 0.52956 0.0
H23 H 0.1424 0.31188 0.53543 0.0
C24 C 0.15427 0.29116 0.48461 0.0
N25 N 0.14406 0.28848 0.49335 0.0
C26 C 0.16372 0.28122 0.48155 0.0
C27 C 0.1521 0.2661 0.49679 0.0
C28 C 0.14286 0.27631 0.4995 0.0
C29 C 0.16269 0.26849 0.48768 0.0
H30 H 0.15499 0.30101 0.47998 0.0
H31 H 0.13475 0.27456 0.50656 0.0
C32 C 0.10241 0.33775 0.49905 0.0
N33 N 0.09067 0.36107 0.48934 0.0
C34 C 0.09067 0.33706 0.49127 0.0
C35 C 0.10813 0.35029 0.50196 0.0
C36 C 0.0849 0.34897 0.48645 0.0
C37 C 0.10206 0.36197 0.49693 0.0
C38 C 0.12409 0.29915 0.4716 0.0
C39 C 0.13185 0.30544 0.46166 0.0
C40 C 0.12225 0.28517 0.47121 0.0
C41 C 0.13771 0.29762 0.45152 0.0
C42 C 0.12831 0.27771 0.46092 0.0
N43 N 0.13584 0.28404 0.45136 0.0
C44 C 0.13717 0.34557 0.47742 0.0
C45 C 0.11608 0.33995 0.46767 0.0
C46 C 0.13934 0.35543 0.46762 0.0
N47 N 0.12568 0.33812 0.47727 0.0
C48 C 0.11778 0.34975 0.45774 0.0
C49 C 0.1296 0.35759 0.45756 0.0
H50 H 0.14479 0.34367 0.48496 0.0
H51 H 0.10716 0.33367 0.46765 0.0
C52 C 0.08083 0.30352 0.50615 0.0
N53 N 0.09005 0.30011 0.49662 0.0
C54 C 0.06757 0.29898 0.50508 0.0
C55 C 0.07359 0.28747 0.48444 0.0
C56 C 0.08673 0.29226 0.4859 0.0
C57 C 0.06378 0.29091 0.49406 0.0
H58 H 0.08376 0.30994 0.51447 0.0
H59 H 0.09424 0.28984 0.47841 0.0
O60 O 0.13919 0.31977 0.50079 0.0
O61 O 0.11965 0.29859 0.51263 0.0
O62 O 0.10834 0.3262 0.50369 0.0
O63 O 0.11844 0.3066 0.48175 0.0
H64 H 0.15992 0.30568 0.51002 0.0
H65 H 0.14104 0.34477 0.51001 0.0
H66 H 0.17783 0.31476 0.52493 0.0
H67 H 0.15925 0.35315 0.52499 0.0
H68 H 0.09266 0.26161 0.51504 0.0
H69 H 0.1075 0.3044 0.5357 0.0
H70 H 0.11021 0.27528 0.5036 0.0
H71 H 0.08999 0.29021 0.54655 0.0
H72 H 0.14705 0.32193 0.55777 0.0
H73 H 0.1129 0.34834 0.55201 0.0
H74 H 0.17168 0.28345 0.47441 0.0
H75 H 0.15111 0.25653 0.50196 0.0
H76 H 0.08615 0.32743 0.48886 0.0
H77 H 0.11721 0.351 0.50796 0.0
H78 H 0.07585 0.34859 0.48036 0.0
H79 H 0.10642 0.37174 0.49904 0.0
H80 H 0.13345 0.31622 0.46183 0.0
H81 H 0.11643 0.2801 0.47892 0.0
H82 H 0.14378 0.30236 0.44379 0.0
H83 H 0.12707 0.26688 0.46056 0.0
H84 H 0.14871 0.36104 0.46773 0.0
H85 H 0.10994 0.35116 0.45027 0.0
H86 H 0.06028 0.30208 0.5126 0.0
H87 H 0.07112 0.28121 0.47584 0.0
Li88 Li 0.69572 0.13013 0.49899 0.0
Li89 Li 0.67834 0.12424 0.51504 0.0
Li90 Li 0.69011 0.10655 0.50245 0.0
Li91 Li 0.6738 0.12133 0.49125 0.0
C92 C 0.71029 0.11799 0.5208 0.0
N93 N 0.73612 0.11547 0.53093 0.0
C94 C 0.71332 0.12271 0.53373 0.0
C95 C 0.72037 0.11191 0.51306 0.0
C96 C 0.72645 0.12137 0.53866 0.0
C97 C 0.73337 0.11074 0.51835 0.0
C98 C 0.67907 0.15109 0.50665 0.0
C99 C 0.67375 0.17481 0.50747 0.0
N100 N 0.68231 0.1763 0.51808 0.0
C101 C 0.68781 0.15286 0.51758 0.0
C102 C 0.67197 0.16214 0.50155 0.0
C103 C 0.68931 0.16568 0.52321 0.0
C104 C 0.70977 0.14683 0.48136 0.0
N105 N 0.7097 0.14219 0.49426 0.0
C106 C 0.72974 0.15445 0.49934 0.0
C107 C 0.71926 0.146 0.5033 0.0
C108 C 0.73017 0.15925 0.48606 0.0
C109 C 0.71996 0.15552 0.47702 0.0
H110 H 0.70194 0.14371 0.47444 0.0
H111 H 0.71877 0.14259 0.51361 0.0
C112 C 0.67451 0.12068 0.54273 0.0
N113 N 0.67052 0.12817 0.53198 0.0
C114 C 0.66861 0.1227 0.55535 0.0
C115 C 0.65473 0.14021 0.54556 0.0
C116 C 0.66086 0.13782 0.53314 0.0
C117 C 0.65851 0.13252 0.55684 0.0
H118 H 0.68217 0.11302 0.54144 0.0
H119 H 0.65774 0.1435 0.52438 0.0
C120 C 0.69895 0.11101 0.47474 0.0
N121 N 0.71297 0.10012 0.45326 0.0
C122 C 0.69203 0.1045 0.46432 0.0
C123 C 0.71298 0.11219 0.47411 0.0
C124 C 0.69931 0.099 0.45359 0.0
C125 C 0.71989 0.10656 0.4632 0.0
C126 C 0.65698 0.10729 0.50893 0.0
C127 C 0.65146 0.09515 0.51348 0.0
C128 C 0.64871 0.11862 0.50751 0.0
C129 C 0.63772 0.09454 0.51654 0.0
C130 C 0.63502 0.1176 0.51067 0.0
N131 N 0.62986 0.10568 0.51508 0.0
C132 C 0.70173 0.08436 0.51554 0.0
C133 C 0.69693 0.08068 0.49242 0.0
C134 C 0.70702 0.07139 0.51678 0.0
N135 N 0.697 0.08878 0.50346 0.0
C136 C 0.70209 0.06763 0.4932 0.0
C137 C 0.70725 0.06284 0.5055 0.0
H138 H 0.70137 0.09091 0.52425 0.0
H139 H 0.69268 0.08424 0.48307 0.0
C140 C 0.658 0.13407 0.47147 0.0
N141 N 0.66076 0.12205 0.47742 0.0
C142 C 0.64829 0.13486 0.46131 0.0
C143 C 0.64457 0.11085 0.46359 0.0
C144 C 0.65433 0.11055 0.47372 0.0
C145 C 0.64142 0.12314 0.45726 0.0
H146 H 0.66332 0.14304 0.47466 0.0
H147 H 0.65682 0.10113 0.47862 0.0
O148 O 0.69749 0.11934 0.51583 0.0
O149 O 0.67742 0.13865 0.50091 0.0
O150 O 0.69194 0.11656 0.48524 0.0
O151 O 0.67043 0.10801 0.50596 0.0
H152 H 0.70562 0.12744 0.53985 0.0
H153 H 0.71814 0.10801 0.50315 0.0
H154 H 0.72895 0.12503 0.54863 0.0
H155 H 0.74126 0.10605 0.51247 0.0
H156 H 0.66832 0.18345 0.50362 0.0
H157 H 0.69334 0.14445 0.52173 0.0
H158 H 0.66515 0.16094 0.49312 0.0
H159 H 0.69604 0.16718 0.53166 0.0
H160 H 0.73732 0.1574 0.50665 0.0
H161 H 0.71998 0.15913 0.46671 0.0
H162 H 0.67187 0.11662 0.56381 0.0
H163 H 0.64681 0.1477 0.54621 0.0
H164 H 0.68116 0.10361 0.46457 0.0
H165 H 0.71849 0.11751 0.48185 0.0
H166 H 0.69409 0.09385 0.44551 0.0
H167 H 0.73075 0.10737 0.46261 0.0
H168 H 0.65775 0.0863 0.51464 0.0
H169 H 0.65279 0.1281 0.50401 0.0
H170 H 0.63332 0.08521 0.52007 0.0
H171 H 0.62851 0.12628 0.50962 0.0
H172 H 0.7109 0.06811 0.52645 0.0
H173 H 0.70172 0.06125 0.48435 0.0
H174 H 0.64607 0.14456 0.45682 0.0
H175 H 0.63967 0.10155 0.46065 0.0
Li176 Li 0.85358 0.69162 0.49158 0.0
Li177 Li 0.85789 0.67082 0.50377 0.0
Li178 Li 0.87625 0.68418 0.4945 0.0
Li179 Li 0.86104 0.67145 0.47982 0.0
C180 C 0.87168 0.69475 0.51817 0.0
N181 N 0.88985 0.705 0.53664 0.0
C182 C 0.87535 0.68715 0.52946 0.0
C183 C 0.87721 0.70758 0.5163 0.0
C184 C 0.88455 0.69251 0.53869 0.0
C185 C 0.8864 0.71257 0.52574 0.0
C186 C 0.83305 0.6687 0.49557 0.0
C187 C 0.81991 0.64925 0.50191 0.0
N188 N 0.81127 0.65742 0.50875 0.0
C189 C 0.82403 0.67691 0.50262 0.0
C190 C 0.83097 0.65477 0.49515 0.0
C191 C 0.81308 0.67101 0.50923 0.0
C192 C 0.83344 0.70626 0.47901 0.0
N193 N 0.84227 0.7067 0.48946 0.0
C194 C 0.83654 0.72958 0.49406 0.0
C195 C 0.84378 0.71792 0.49716 0.0
C196 C 0.82773 0.72961 0.48295 0.0
C197 C 0.82608 0.71768 0.4755 0.0
H198 H 0.83255 0.69716 0.47306 0.0
H199 H 0.85082 0.71792 0.50546 0.0
C200 C 0.8573 0.64705 0.51912 0.0
N201 N 0.85255 0.65987 0.51853 0.0
C202 C 0.85391 0.63873 0.52991 0.0
C203 C 0.84084 0.657 0.53939 0.0
C204 C 0.84446 0.66497 0.52836 0.0
C205 C 0.84562 0.64369 0.54026 0.0
H206 H 0.86391 0.64334 0.51132 0.0
H207 H 0.84095 0.67527 0.52767 0.0
C208 C 0.86484 0.7004 0.46914 0.0
N209 N 0.85759 0.72156 0.45251 0.0
C210 C 0.85823 0.69789 0.45695 0.0
C211 C 0.86784 0.71368 0.47283 0.0
C212 C 0.85465 0.70872 0.44868 0.0
C213 C 0.86405 0.72423 0.4643 0.0
C214 C 0.87987 0.65416 0.48687 0.0
C215 C 0.89317 0.6556 0.48244 0.0
C216 C 0.87278 0.64234 0.48392 0.0
C217 C 0.89915 0.64519 0.47507 0.0
C218 C 0.8791 0.63217 0.4765 0.0
N219 N 0.89204 0.6338 0.47227 0.0
C220 C 0.90197 0.68367 0.50667 0.0
C221 C 0.8997 0.69892 0.4884 0.0
C222 C 0.91553 0.68709 0.50816 0.0
N223 N 0.89441 0.68958 0.49689 0.0
C224 C 0.9132 0.70265 0.48952 0.0
C225 C 0.92134 0.69659 0.49939 0.0
H226 H 0.89752 0.67608 0.51312 0.0
H227 H 0.89353 0.70329 0.48058 0.0
C228 C 0.84746 0.65717 0.45932 0.0
N229 N 0.85961 0.66211 0.46325 0.0
C230 C 0.8461 0.65084 0.44683 0.0
C231 C 0.86982 0.65476 0.44275 0.0
C232 C 0.87065 0.66121 0.4552 0.0
C233 C 0.8574 0.64951 0.43835 0.0
H234 H 0.83877 0.65836 0.46578 0.0
H235 H 0.88011 0.66554 0.45847 0.0
O236 O 0.86284 0.68959 0.50891 0.0
O237 O 0.84401 0.67425 0.48931 0.0
O238 O 0.86815 0.68994 0.47753 0.0
O239 O 0.8738 0.66429 0.49401 0.0
H240 H 0.87126 0.67716 0.53103 0.0
H241 H 0.87462 0.71354 0.50754 0.0
H242 H 0.88752 0.68672 0.54744 0.0
H243 H 0.89083 0.72245 0.52437 0.0
H244 H 0.81822 0.63848 0.50175 0.0
H245 H 0.82555 0.68771 0.50311 0.0
H246 H 0.83791 0.64828 0.48979 0.0
H247 H 0.80605 0.67722 0.51478 0.0
H248 H 0.8379 0.73848 0.50024 0.0
H249 H 0.81951 0.71728 0.46679 0.0
H250 H 0.85806 0.62863 0.53032 0.0
H251 H 0.8344 0.66119 0.54715 0.0
H252 H 0.85575 0.68771 0.45394 0.0
H253 H 0.87279 0.71584 0.48231 0.0
H254 H 0.84947 0.70693 0.43925 0.0
H255 H 0.86618 0.73456 0.4671 0.0
H256 H 0.89881 0.66469 0.48456 0.0
H257 H 0.86242 0.64111 0.48712 0.0
H258 H 0.90942 0.64619 0.47155 0.0
H259 H 0.87369 0.62302 0.47406 0.0
H260 H 0.92151 0.68201 0.51575 0.0
H261 H 0.91726 0.71008 0.48262 0.0
H262 H 0.83626 0.64723 0.44378 0.0
H263 H 0.87886 0.65384 0.4367 0.0
Li264 Li 0.32197 0.86838 0.50427 0.0
Li265 Li 0.30061 0.8621 0.49404 0.0
Li266 Li 0.3199 0.86835 0.48026 0.0
Li267 Li 0.30761 0.88513 0.49336 0.0
C268 C 0.32398 0.84257 0.49943 0.0
N269 N 0.33596 0.82274 0.51491 0.0
C270 C 0.31605 0.83398 0.50731 0.0
C271 C 0.33799 0.84103 0.49938 0.0
C272 C 0.32231 0.82401 0.51507 0.0
C273 C 0.34386 0.83097 0.5073 0.0
C274 C 0.29844 0.88327 0.51824 0.0
C275 C 0.2805 0.89818 0.52514 0.0
N276 N 0.28842 0.90291 0.53529 0.0
C277 C 0.3064 0.88826 0.52876 0.0
C278 C 0.28537 0.88823 0.51644 0.0
C279 C 0.30115 0.89818 0.53727 0.0
C280 C 0.34645 0.86929 0.5189 0.0
N281 N 0.33348 0.86492 0.51913 0.0
C282 C 0.33673 0.85474 0.54071 0.0
C283 C 0.32847 0.85785 0.52975 0.0
C284 C 0.35025 0.85897 0.54069 0.0
C285 C 0.35508 0.86637 0.52962 0.0
H286 H 0.35011 0.87502 0.5104 0.0
H287 H 0.31807 0.85457 0.52964 0.0
C288 C 0.28423 0.84054 0.48597 0.0
N289 N 0.28556 0.85056 0.49521 0.0
C290 C 0.27269 0.83251 0.4859 0.0
C291 C 0.26447 0.84488 0.50525 0.0
C292 C 0.27612 0.85272 0.50489 0.0
C293 C 0.26259 0.83475 0.49556 0.0
H294 H 0.29204 0.83895 0.47853 0.0
H295 H 0.27756 0.86062 0.51223 0.0
C296 C 0.33675 0.88834 0.48344 0.0
N297 N 0.35514 0.89868 0.46525 0.0
C298 C 0.33393 0.90031 0.47655 0.0
C299 C 0.34895 0.88168 0.48115 0.0
C300 C 0.34336 0.90537 0.46739 0.0
C301 C 0.3581 0.88704 0.47188 0.0
C302 C 0.29025 0.86988 0.47091 0.0
C303 C 0.29223 0.86165 0.45964 0.0
C304 C 0.27713 0.87308 0.47497 0.0
C305 C 0.28104 0.85669 0.45267 0.0
C306 C 0.2662 0.86789 0.46775 0.0
N307 N 0.26837 0.85987 0.45684 0.0
C308 C 0.33667 0.85414 0.46211 0.0
C309 C 0.32737 0.87447 0.45361 0.0
C310 C 0.34383 0.85216 0.45017 0.0
N311 N 0.32882 0.86526 0.46366 0.0
C312 C 0.33435 0.87289 0.4415 0.0
C313 C 0.34284 0.86168 0.43973 0.0
H314 H 0.33751 0.84692 0.47021 0.0
H315 H 0.32091 0.88313 0.4551 0.0
C316 C 0.3069 0.91184 0.50303 0.0
N317 N 0.30145 0.90319 0.49391 0.0
C318 C 0.30173 0.92485 0.50437 0.0
C319 C 0.28595 0.92 0.48641 0.0
C320 C 0.29133 0.90705 0.48552 0.0
C321 C 0.29105 0.92901 0.49606 0.0
H322 H 0.3151 0.90854 0.50941 0.0
H323 H 0.28735 0.90003 0.47821 0.0
O324 O 0.31807 0.85258 0.49199 0.0
O325 O 0.30347 0.87369 0.50968 0.0
O326 O 0.32751 0.88307 0.49223 0.0
O327 O 0.30108 0.87464 0.47802 0.0
H328 H 0.30521 0.83506 0.50755 0.0
H329 H 0.3443 0.84772 0.4935 0.0
H330 H 0.3163 0.81733 0.52125 0.0
H331 H 0.3547 0.82975 0.50745 0.0
H332 H 0.27045 0.90219 0.52378 0.0
H333 H 0.31657 0.88464 0.53026 0.0
H334 H 0.27912 0.88462 0.50825 0.0
H335 H 0.30721 0.90217 0.54541 0.0
H336 H 0.33264 0.84893 0.549 0.0
H337 H 0.36537 0.87001 0.52932 0.0
H338 H 0.27171 0.82462 0.47841 0.0
H339 H 0.25689 0.8469 0.51285 0.0
H340 H 0.32452 0.90557 0.47815 0.0
H341 H 0.35122 0.8723 0.48625 0.0
H342 H 0.34129 0.91459 0.46194 0.0
H343 H 0.36753 0.88192 0.4699 0.0
H344 H 0.30229 0.85898 0.4564 0.0
H345 H 0.27539 0.8793 0.48376 0.0
H346 H 0.28242 0.85026 0.44397 0.0
H347 H 0.256 0.87019 0.47086 0.0
H348 H 0.35036 0.84345 0.4493 0.0
H349 H 0.33313 0.88037 0.43364 0.0
H350 H 0.30611 0.9316 0.51175 0.0
H351 H 0.27773 0.92285 0.47981 0.0
Li352 Li 0.11117 0.68784 0.50191 0.0
Li353 Li 0.1288 0.67415 0.51214 0.0
Li354 Li 0.13375 0.69593 0.50053 0.0
Li355 Li 0.12811 0.676 0.48731 0.0
C356 C 0.11436 0.69869 0.52597 0.0
N357 N 0.09605 0.71048 0.54337 0.0
C358 C 0.11068 0.69214 0.5379 0.0
C359 C 0.10886 0.71133 0.523 0.0
C360 C 0.10138 0.69825 0.54654 0.0
C361 C 0.09958 0.71709 0.53189 0.0
C362 C 0.1105 0.65502 0.50107 0.0
C363 C 0.11421 0.63131 0.497 0.0
N364 N 0.10267 0.62838 0.50381 0.0
C365 C 0.09856 0.65177 0.50781 0.0
C366 C 0.11829 0.6447 0.49545 0.0
C367 C 0.09482 0.63825 0.50918 0.0
C368 C 0.08764 0.70099 0.49332 0.0
N369 N 0.09276 0.69282 0.50305 0.0
C370 C 0.07123 0.69111 0.51366 0.0
C371 C 0.08493 0.68798 0.51319 0.0
C372 C 0.06557 0.69932 0.50359 0.0
C373 C 0.07403 0.70446 0.49344 0.0
H374 H 0.09407 0.70464 0.48534 0.0
H375 H 0.08929 0.68153 0.52082 0.0
C376 C 0.14623 0.66117 0.53067 0.0
N377 N 0.13315 0.66271 0.52687 0.0
C378 C 0.14959 0.65247 0.54121 0.0
C379 C 0.12587 0.64772 0.54423 0.0
C380 C 0.12301 0.65638 0.53354 0.0
C381 C 0.13933 0.64551 0.54809 0.0
H382 H 0.15409 0.66662 0.52544 0.0
H383 H 0.11267 0.6582 0.53069 0.0
C384 C 0.12353 0.70525 0.47755 0.0
N385 N 0.13016 0.72719 0.46167 0.0
C386 C 0.13061 0.70341 0.4655 0.0
C387 C 0.11967 0.71825 0.48142 0.0
C388 C 0.13389 0.71463 0.45763 0.0
C389 C 0.12317 0.72921 0.47329 0.0
C390 C 0.15476 0.6708 0.49638 0.0
C391 C 0.16656 0.67673 0.49144 0.0
C392 C 0.15428 0.65685 0.49828 0.0
C393 C 0.17757 0.66856 0.4882 0.0
C394 C 0.1655 0.64902 0.49494 0.0
N395 N 0.17681 0.65499 0.48999 0.0
C396 C 0.14338 0.72074 0.51057 0.0
C397 C 0.1532 0.71348 0.49001 0.0
C398 C 0.15082 0.73267 0.51018 0.0
N399 N 0.14462 0.71153 0.50051 0.0
C400 C 0.16081 0.72525 0.4892 0.0
C401 C 0.15961 0.73506 0.49934 0.0
H402 H 0.13655 0.71888 0.51884 0.0
H403 H 0.15397 0.70596 0.48217 0.0
C404 C 0.1191 0.66125 0.46528 0.0
N405 N 0.13038 0.66683 0.47068 0.0
C406 C 0.11975 0.65436 0.45305 0.0
C407 C 0.14359 0.65935 0.45198 0.0
C408 C 0.14247 0.66615 0.46425 0.0
C409 C 0.13213 0.65331 0.44625 0.0
H410 H 0.10958 0.6621 0.47055 0.0
H411 H 0.1512 0.67105 0.4685 0.0
O412 O 0.12332 0.69279 0.5173 0.0
O413 O 0.11426 0.66824 0.4996 0.0
O414 O 0.12041 0.6944 0.48549 0.0
O415 O 0.14385 0.67868 0.49951 0.0
H416 H 0.11495 0.68246 0.54047 0.0
H417 H 0.11163 0.71658 0.51387 0.0
H418 H 0.0984 0.69325 0.55577 0.0
H419 H 0.09517 0.72681 0.52965 0.0
H420 H 0.12018 0.62324 0.49273 0.0
H421 H 0.09226 0.65958 0.51204 0.0
H422 H 0.12728 0.64697 0.48977 0.0
H423 H 0.08566 0.63562 0.51449 0.0
H424 H 0.06508 0.68677 0.52157 0.0
H425 H 0.07015 0.71098 0.48559 0.0
H426 H 0.1601 0.65106 0.54377 0.0
H427 H 0.11759 0.64292 0.54949 0.0
H428 H 0.13362 0.69345 0.46228 0.0
H429 H 0.11413 0.71987 0.49066 0.0
H430 H 0.13944 0.71335 0.44833 0.0
H431 H 0.12034 0.73932 0.47624 0.0
H432 H 0.16723 0.68752 0.49009 0.0
H433 H 0.14546 0.65212 0.50253 0.0
H434 H 0.18673 0.67302 0.4843 0.0
H435 H 0.16524 0.63821 0.49636 0.0
H436 H 0.14956 0.74001 0.51816 0.0
H437 H 0.16765 0.72658 0.48079 0.0
H438 H 0.11069 0.64973 0.44907 0.0
H439 H 0.15327 0.65897 0.44695 0.0
Li440 Li 0.31892 0.12535 0.5038 0.0
Li441 Li 0.30152 0.11107 0.49377 0.0
Li442 Li 0.3165 0.12534 0.47895 0.0
Li443 Li 0.29862 0.13488 0.49255 0.0
C444 C 0.33295 0.10259 0.49132 0.0
N445 N 0.3563 0.08733 0.49177 0.0
C446 C 0.33288 0.08962 0.49687 0.0
C447 C 0.34487 0.10765 0.48574 0.0
C448 C 0.3448 0.08211 0.49708 0.0
C449 C 0.35657 0.09982 0.48612 0.0
C450 C 0.29287 0.11668 0.51875 0.0
C451 C 0.27256 0.10589 0.5267 0.0
N452 N 0.27925 0.10172 0.53793 0.0
C453 C 0.29951 0.11238 0.53042 0.0
C454 C 0.27925 0.11351 0.51692 0.0
C455 C 0.29246 0.1048 0.53998 0.0
C456 C 0.33368 0.13957 0.5235 0.0
N457 N 0.33136 0.12712 0.51824 0.0
C458 C 0.34772 0.11733 0.53291 0.0
C459 C 0.3379 0.11605 0.52295 0.0
C460 C 0.3507 0.13012 0.53819 0.0
C461 C 0.34339 0.14132 0.53355 0.0
H462 H 0.32818 0.14818 0.51968 0.0
H463 H 0.33553 0.10621 0.51898 0.0
C464 C 0.28374 0.09013 0.48597 0.0
N465 N 0.29282 0.09413 0.49543 0.0
C466 C 0.27759 0.07751 0.48696 0.0
C467 C 0.29016 0.07348 0.50747 0.0
C468 C 0.29605 0.08614 0.50607 0.0
C469 C 0.28088 0.06895 0.49777 0.0
H470 H 0.28143 0.09666 0.47756 0.0
H471 H 0.30339 0.08953 0.51339 0.0
C472 C 0.32824 0.14963 0.4893 0.0
N473 N 0.34975 0.16693 0.48532 0.0
C474 C 0.32599 0.16299 0.48539 0.0
C475 C 0.34143 0.14517 0.49143 0.0
C476 C 0.337 0.17155 0.48335 0.0
C477 C 0.35217 0.15404 0.48931 0.0
C478 C 0.28626 0.12688 0.47044 0.0
C479 C 0.28855 0.13417 0.4586 0.0
C480 C 0.27308 0.12519 0.47514 0.0
C481 C 0.27761 0.13985 0.45176 0.0
C482 C 0.26242 0.13105 0.46803 0.0
N483 N 0.26489 0.1382 0.4566 0.0
C484 C 0.33012 0.11522 0.45609 0.0
C485 C 0.32748 0.13897 0.45659 0.0
C486 C 0.33728 0.11604 0.444 0.0
N487 N 0.32565 0.12662 0.46223 0.0
C488 C 0.33457 0.14027 0.44453 0.0
C489 C 0.33972 0.12872 0.43816 0.0
H490 H 0.32829 0.1055 0.4607 0.0
H491 H 0.32337 0.14781 0.46141 0.0
C492 C 0.27542 0.14896 0.50124 0.0
N493 N 0.28586 0.14893 0.49238 0.0
C494 C 0.26521 0.15854 0.50004 0.0
C495 C 0.27701 0.16815 0.48096 0.0
C496 C 0.28692 0.15832 0.48247 0.0
C497 C 0.2659 0.1682 0.48971 0.0
H498 H 0.27487 0.14137 0.50903 0.0
H499 H 0.29523 0.15786 0.47544 0.0
O500 O 0.32131 0.11005 0.49101 0.0
O501 O 0.29965 0.12403 0.50924 0.0
O502 O 0.31753 0.14113 0.49131 0.0
O503 O 0.29688 0.12154 0.47745 0.0
H504 H 0.32377 0.0854 0.50105 0.0
H505 H 0.34508 0.11741 0.48093 0.0
H506 H 0.34488 0.07211 0.50146 0.0
H507 H 0.36585 0.10365 0.48186 0.0
H508 H 0.26206 0.10326 0.52535 0.0
H509 H 0.31 0.11483 0.53207 0.0
H510 H 0.27395 0.11672 0.50796 0.0
H511 H 0.29749 0.10136 0.54902 0.0
H512 H 0.35293 0.10841 0.53646 0.0
H513 H 0.34541 0.15135 0.53737 0.0
H514 H 0.27045 0.07442 0.47929 0.0
H515 H 0.29321 0.06712 0.51581 0.0
H516 H 0.31586 0.16673 0.48391 0.0
H517 H 0.34337 0.13507 0.49493 0.0
H518 H 0.33539 0.18188 0.48023 0.0
H519 H 0.36242 0.15068 0.49092 0.0
H520 H 0.29867 0.13554 0.45478 0.0
H521 H 0.27112 0.11955 0.48426 0.0
H522 H 0.27925 0.14559 0.44263 0.0
H523 H 0.25218 0.12993 0.47163 0.0
H524 H 0.34113 0.10689 0.43947 0.0
H525 H 0.33595 0.1502 0.44021 0.0
H526 H 0.25684 0.15838 0.50706 0.0
H527 H 0.2778 0.17535 0.47278 0.0
Li528 Li 0.87724 0.30638 0.49647 0.0
Li529 Li 0.86233 0.31846 0.51295 0.0
Li530 Li 0.85374 0.30179 0.49572 0.0
Li531 Li 0.86148 0.32327 0.48892 0.0
C532 C 0.87532 0.29059 0.51757 0.0
N533 N 0.89483 0.2748 0.5297 0.0
C534 C 0.88121 0.29467 0.52971 0.0
C535 C 0.87927 0.2784 0.51168 0.0
C536 C 0.89107 0.28656 0.53567 0.0
C537 C 0.88918 0.27059 0.51794 0.0
C538 C 0.88299 0.33686 0.49683 0.0
C539 C 0.88552 0.36104 0.4964 0.0
N540 N 0.89468 0.35983 0.48627 0.0
C541 C 0.89247 0.33584 0.48646 0.0
C542 C 0.87951 0.34954 0.5019 0.0
C543 C 0.89825 0.34758 0.48124 0.0
C544 C 0.89857 0.29209 0.48376 0.0
N545 N 0.89501 0.29971 0.49456 0.0
C546 C 0.91739 0.29875 0.50331 0.0
C547 C 0.90409 0.30316 0.50421 0.0
C548 C 0.9214 0.2908 0.49229 0.0
C549 C 0.91179 0.28744 0.48244 0.0
H550 H 0.89123 0.28974 0.47608 0.0
H551 H 0.90098 0.30946 0.51255 0.0
C552 C 0.85024 0.32393 0.53841 0.0
N553 N 0.8613 0.32566 0.53052 0.0
C554 C 0.84967 0.32991 0.55117 0.0
C555 C 0.87202 0.33894 0.54744 0.0
C556 C 0.87214 0.33282 0.53482 0.0
C557 C 0.86063 0.33764 0.55578 0.0
H558 H 0.8418 0.31808 0.53472 0.0
H559 H 0.88086 0.33389 0.52835 0.0
C560 C 0.86063 0.29743 0.47078 0.0
N561 N 0.84957 0.28011 0.45192 0.0
C562 C 0.85221 0.30242 0.46062 0.0
C563 C 0.86344 0.28362 0.4713 0.0
C564 C 0.84673 0.29351 0.45119 0.0
C565 C 0.85774 0.27503 0.4617 0.0
C566 C 0.83638 0.32875 0.49812 0.0
C567 C 0.83012 0.32849 0.4855 0.0
C568 C 0.83264 0.33854 0.50755 0.0
C569 C 0.82025 0.33808 0.48248 0.0
C570 C 0.82271 0.34794 0.50416 0.0
N571 N 0.81677 0.34752 0.4918 0.0
C572 C 0.84256 0.27618 0.50008 0.0
C573 C 0.83103 0.28911 0.48363 0.0
C574 C 0.83434 0.26509 0.49746 0.0
N575 N 0.84094 0.28779 0.493 0.0
C576 C 0.82267 0.27824 0.48057 0.0
C577 C 0.82439 0.26596 0.48741 0.0
H578 H 0.85037 0.27546 0.50763 0.0
H579 H 0.82991 0.29844 0.47816 0.0
C580 C 0.86581 0.336 0.46417 0.0
N581 N 0.86004 0.33792 0.47644 0.0
C582 C 0.86568 0.34626 0.45457 0.0
C583 C 0.85402 0.36049 0.47053 0.0
C584 C 0.85449 0.34998 0.47987 0.0
C585 C 0.85961 0.35868 0.45764 0.0
H586 H 0.87073 0.32654 0.46191 0.0
H587 H 0.85058 0.35154 0.4899 0.0
O588 O 0.86587 0.29854 0.51142 0.0
O589 O 0.87693 0.32552 0.50179 0.0
O590 O 0.86599 0.30598 0.48021 0.0
O591 O 0.84601 0.31941 0.50133 0.0
H592 H 0.87828 0.30403 0.53445 0.0
H593 H 0.87485 0.27508 0.50228 0.0
H594 H 0.89576 0.28963 0.54503 0.0
H595 H 0.8924 0.2612 0.51343 0.0
H596 H 0.88285 0.37092 0.50015 0.0
H597 H 0.8952 0.3261 0.48237 0.0
H598 H 0.87207 0.3505 0.50983 0.0
H599 H 0.90554 0.34696 0.47315 0.0
H600 H 0.92453 0.30183 0.51097 0.0
H601 H 0.91444 0.28131 0.4738 0.0
H602 H 0.84074 0.32856 0.55732 0.0
H603 H 0.88061 0.34496 0.55046 0.0
H604 H 0.84973 0.31302 0.46013 0.0
H605 H 0.86977 0.27953 0.47917 0.0
H606 H 0.84015 0.29723 0.44332 0.0
H607 H 0.85975 0.26432 0.46207 0.0
H608 H 0.83308 0.3212 0.47798 0.0
H609 H 0.8374 0.33894 0.51735 0.0
H610 H 0.81541 0.33806 0.47271 0.0
H611 H 0.81973 0.35559 0.51134 0.0
H612 H 0.8358 0.25593 0.50323 0.0
H613 H 0.81521 0.27935 0.47268 0.0
H614 H 0.8705 0.34453 0.44493 0.0
H615 H 0.84927 0.3699 0.47338 0.0
Li616 Li 0.68903 0.87819 0.50361 0.0
Li617 Li 0.67818 0.8588 0.51336 0.0
Li618 Li 0.69662 0.85582 0.49747 0.0
Li619 Li 0.67455 0.86312 0.49035 0.0
C620 C 0.7036 0.85669 0.52496 0.0
N621 N 0.71627 0.84051 0.5438 0.0
C622 C 0.70136 0.84275 0.52502 0.0
C623 C 0.71227 0.86237 0.53451 0.0
C624 C 0.70787 0.83476 0.53462 0.0
C625 C 0.71858 0.85402 0.54394 0.0
C626 C 0.66074 0.87883 0.51541 0.0
C627 C 0.63988 0.87593 0.52759 0.0
N628 N 0.64361 0.88591 0.53623 0.0
C629 C 0.66431 0.88914 0.52434 0.0
C630 C 0.64836 0.87226 0.51697 0.0
C631 C 0.65553 0.89255 0.53481 0.0
C632 C 0.69323 0.90463 0.49509 0.0
N633 N 0.69504 0.89608 0.50563 0.0
C634 C 0.70685 0.91298 0.51804 0.0
C635 C 0.70165 0.89994 0.51699 0.0
C636 C 0.70534 0.92196 0.5072 0.0
C637 C 0.69838 0.91768 0.49563 0.0
H638 H 0.68794 0.90121 0.48618 0.0
H639 H 0.70293 0.89287 0.52518 0.0
C640 C 0.66279 0.84089 0.52949 0.0
N641 N 0.67025 0.85237 0.52957 0.0
C642 C 0.65564 0.83703 0.54097 0.0
C643 C 0.66459 0.8565 0.55259 0.0
C644 C 0.67165 0.85991 0.54092 0.0
C645 C 0.65617 0.8451 0.55261 0.0
H646 H 0.66212 0.83489 0.52044 0.0
H647 H 0.67783 0.8689 0.54071 0.0
C648 C 0.70365 0.87587 0.47959 0.0
N649 N 0.72684 0.88608 0.46802 0.0
C650 C 0.70411 0.87843 0.46575 0.0
C651 C 0.715 0.87846 0.48755 0.0
C652 C 0.71592 0.88361 0.46009 0.0
C653 C 0.72662 0.88363 0.48151 0.0
C654 C 0.67151 0.83676 0.49156 0.0
C655 C 0.67723 0.82692 0.48325 0.0
C656 C 0.65748 0.83764 0.49261 0.0
C657 C 0.66882 0.81838 0.47585 0.0
C658 C 0.6494 0.82894 0.48503 0.0
N659 N 0.65519 0.81958 0.47685 0.0
C660 C 0.72372 0.84606 0.49878 0.0
C661 C 0.7115 0.84127 0.4788 0.0
C662 C 0.73508 0.83959 0.49366 0.0
N663 N 0.71214 0.84649 0.49145 0.0
C664 C 0.72261 0.83464 0.4733 0.0
C665 C 0.73454 0.83365 0.48083 0.0
H666 H 0.72425 0.85085 0.50853 0.0
H667 H 0.70238 0.84239 0.47294 0.0
C668 C 0.64993 0.86787 0.47686 0.0
N669 N 0.6625 0.8626 0.47561 0.0
C670 C 0.64094 0.8673 0.46606 0.0
C671 C 0.6581 0.85603 0.45289 0.0
C672 C 0.66676 0.85682 0.46395 0.0
C673 C 0.64499 0.8613 0.45388 0.0
H674 H 0.64689 0.87251 0.48623 0.0
H675 H 0.67685 0.85272 0.46331 0.0
O676 O 0.69728 0.86481 0.51575 0.0
O677 O 0.66934 0.87518 0.50525 0.0
O678 O 0.69217 0.8707 0.48523 0.0
O679 O 0.6796 0.84537 0.49874 0.0
H680 H 0.69472 0.83811 0.51775 0.0
H681 H 0.71413 0.87312 0.53463 0.0
H682 H 0.70623 0.82397 0.53477 0.0
H683 H 0.72533 0.8583 0.55138 0.0
H684 H 0.63033 0.87084 0.52899 0.0
H685 H 0.6738 0.89438 0.52329 0.0
H686 H 0.64537 0.86432 0.51014 0.0
H687 H 0.65821 0.90045 0.54184 0.0
H688 H 0.71217 0.91593 0.52711 0.0
H689 H 0.69684 0.92439 0.48716 0.0
H690 H 0.64952 0.82799 0.54063 0.0
H691 H 0.66525 0.86309 0.56127 0.0
H692 H 0.69541 0.87643 0.45946 0.0
H693 H 0.71487 0.87646 0.49828 0.0
H694 H 0.71642 0.88565 0.44938 0.0
H695 H 0.73548 0.88568 0.48754 0.0
H696 H 0.68804 0.82578 0.48261 0.0
H697 H 0.65288 0.84509 0.49907 0.0
H698 H 0.67312 0.81077 0.46933 0.0
H699 H 0.63854 0.82964 0.48563 0.0
H700 H 0.7441 0.83902 0.49979 0.0
H701 H 0.72189 0.83039 0.46326 0.0
H702 H 0.63099 0.87166 0.46717 0.0
H703 H 0.66158 0.85121 0.44373 0.0
Li704 Li 0.49908 0.13679 0.29858 0.0
Li705 Li 0.50671 0.12749 0.31999 0.0
Li706 Li 0.49676 0.11308 0.30181 0.0
Li707 Li 0.48224 0.12772 0.31518 0.0
C708 C 0.52419 0.12818 0.29404 0.0
N709 N 0.54506 0.13821 0.27852 0.0
C710 C 0.53535 0.13421 0.3002 0.0
C711 C 0.52373 0.12712 0.27999 0.0
C712 C 0.54578 0.13924 0.29218 0.0
C713 C 0.53435 0.1323 0.27232 0.0
C714 C 0.49524 0.15331 0.32659 0.0
C715 C 0.48924 0.16192 0.34855 0.0
N716 N 0.49605 0.17351 0.34581 0.0
C717 C 0.50198 0.1654 0.32393 0.0
C718 C 0.48866 0.15164 0.33894 0.0
C719 C 0.50236 0.17545 0.3338 0.0
C720 C 0.49507 0.15048 0.27419 0.0
N721 N 0.50272 0.15024 0.28554 0.0
C722 C 0.51704 0.16755 0.27691 0.0
C723 C 0.51341 0.15866 0.28717 0.0
C724 C 0.50959 0.16771 0.26488 0.0
C725 C 0.49837 0.15916 0.26364 0.0
H726 H 0.48655 0.14377 0.27321 0.0
H727 H 0.51941 0.15814 0.29625 0.0
C728 C 0.52412 0.11609 0.33892 0.0
N729 N 0.5201 0.12809 0.33367 0.0
C730 C 0.5339 0.11567 0.34901 0.0
C731 C 0.53557 0.13996 0.34782 0.0
C732 C 0.52569 0.13991 0.33779 0.0
C733 C 0.53974 0.12773 0.3536 0.0
H734 H 0.5197 0.10682 0.33524 0.0
H735 H 0.52264 0.14928 0.3332 0.0
C736 C 0.47608 0.11782 0.28605 0.0
N737 N 0.4631 0.10118 0.26784 0.0
C738 C 0.46342 0.11244 0.28913 0.0
C739 C 0.48205 0.11487 0.27363 0.0
C740 C 0.45704 0.10403 0.27981 0.0
C741 C 0.47536 0.10639 0.26458 0.0
C742 C 0.4898 0.10684 0.33361 0.0
C743 C 0.48488 0.09364 0.33414 0.0
C744 C 0.49119 0.11419 0.34556 0.0
C745 C 0.48112 0.08814 0.34656 0.0
C746 C 0.48734 0.10834 0.35778 0.0
N747 N 0.4824 0.09555 0.35802 0.0
C748 C 0.50832 0.09242 0.2859 0.0
C749 C 0.48717 0.0872 0.29573 0.0
C750 C 0.50912 0.07958 0.28023 0.0
N751 N 0.49751 0.09591 0.29356 0.0
C752 C 0.48762 0.07421 0.29039 0.0
C753 C 0.49879 0.07018 0.28265 0.0
H754 H 0.51642 0.09953 0.28437 0.0
H755 H 0.47867 0.0903 0.3018 0.0
C756 C 0.45931 0.14196 0.32448 0.0
N757 N 0.46484 0.12952 0.32289 0.0
C758 C 0.44688 0.14341 0.33093 0.0
C759 C 0.44578 0.11916 0.33332 0.0
C760 C 0.45822 0.11821 0.32688 0.0
C761 C 0.44004 0.13191 0.33561 0.0
H762 H 0.46468 0.15078 0.32096 0.0
H763 H 0.46264 0.10842 0.32511 0.0
O764 O 0.51381 0.12334 0.30174 0.0
O765 O 0.49474 0.1434 0.31697 0.0
O766 O 0.48259 0.1259 0.29516 0.0
O767 O 0.4935 0.11238 0.3215 0.0
H768 H 0.53593 0.13505 0.31105 0.0
H769 H 0.51518 0.12252 0.27504 0.0
H770 H 0.55444 0.14399 0.29681 0.0
H771 H 0.53406 0.13166 0.26143 0.0
H772 H 0.48422 0.16072 0.35816 0.0
H773 H 0.50693 0.16702 0.31437 0.0
H774 H 0.48296 0.14261 0.34106 0.0
H775 H 0.50764 0.1848 0.33189 0.0
H776 H 0.52582 0.17393 0.27819 0.0
H777 H 0.49222 0.15917 0.25461 0.0
H778 H 0.53701 0.106 0.35302 0.0
H779 H 0.5398 0.14949 0.35109 0.0
H780 H 0.45859 0.11469 0.29863 0.0
H781 H 0.49183 0.11895 0.27105 0.0
H782 H 0.44727 0.09974 0.28209 0.0
H783 H 0.47992 0.10394 0.25499 0.0
H784 H 0.48393 0.08768 0.32507 0.0
H785 H 0.49544 0.1242 0.34545 0.0
H786 H 0.47721 0.07797 0.34708 0.0
H787 H 0.48837 0.11394 0.36708 0.0
H788 H 0.51783 0.07701 0.27418 0.0
H789 H 0.47951 0.06729 0.29274 0.0
H790 H 0.4427 0.1534 0.33231 0.0
H791 H 0.44091 0.11004 0.33682 0.0
Li792 Li 0.86688 0.51434 0.31209 0.0
Li793 Li 0.85856 0.49692 0.29691 0.0
Li794 Li 0.86754 0.49105 0.31894 0.0
Li795 Li 0.88214 0.49872 0.30071 0.0
C796 C 0.84136 0.50978 0.31974 0.0
N797 N 0.82131 0.52659 0.32931 0.0
C798 C 0.83032 0.513 0.31158 0.0
C799 C 0.84217 0.51507 0.33278 0.0
C800 C 0.82029 0.52152 0.31661 0.0
C801 C 0.83195 0.52357 0.33742 0.0
C802 C 0.87893 0.51873 0.28401 0.0
C803 C 0.89266 0.51865 0.26393 0.0
N804 N 0.89784 0.53084 0.2675 0.0
C805 C 0.88435 0.53128 0.28745 0.0
C806 C 0.88306 0.51238 0.27212 0.0
C807 C 0.8939 0.53723 0.27898 0.0
C808 C 0.87452 0.53701 0.32692 0.0
N809 N 0.86492 0.53232 0.31835 0.0
C810 C 0.85229 0.55272 0.32054 0.0
C811 C 0.8542 0.54006 0.31468 0.0
C812 C 0.86182 0.55756 0.32979 0.0
C813 C 0.87321 0.54972 0.33273 0.0
H814 H 0.88309 0.53077 0.32943 0.0
H815 H 0.84692 0.53623 0.30753 0.0
C816 C 0.83522 0.48374 0.28769 0.0
N817 N 0.84535 0.49223 0.28406 0.0
C818 C 0.82626 0.47891 0.278 0.0
C819 C 0.8381 0.49202 0.26116 0.0
C820 C 0.84682 0.4966 0.27118 0.0
C821 C 0.82778 0.48292 0.2645 0.0
H822 H 0.83436 0.48046 0.29806 0.0
H823 H 0.8549 0.50343 0.26864 0.0
C824 C 0.88875 0.50038 0.3311 0.0
N825 N 0.90111 0.49076 0.35414 0.0
C826 C 0.89977 0.49164 0.3301 0.0
C827 C 0.88406 0.50427 0.3438 0.0
C828 C 0.90588 0.48689 0.34188 0.0
C829 C 0.89043 0.49928 0.35533 0.0
C830 C 0.86595 0.47165 0.2946 0.0
C831 C 0.85803 0.46213 0.30135 0.0
C832 C 0.86775 0.47057 0.28066 0.0
C833 C 0.85204 0.4517 0.29402 0.0
C834 C 0.86155 0.46002 0.27369 0.0
N835 N 0.85389 0.45088 0.28046 0.0
C836 C 0.85736 0.48087 0.34369 0.0
C837 C 0.87487 0.46809 0.33361 0.0
C838 C 0.85659 0.4718 0.35441 0.0
N839 N 0.86642 0.47887 0.33361 0.0
C840 C 0.87436 0.45869 0.34405 0.0
C841 C 0.86511 0.46051 0.35461 0.0
H842 H 0.85066 0.48944 0.34336 0.0
H843 H 0.88196 0.46677 0.32542 0.0
C844 C 0.90876 0.50682 0.2965 0.0
N845 N 0.89969 0.49701 0.29349 0.0
C846 C 0.92206 0.50573 0.29212 0.0
C847 C 0.91638 0.48453 0.28148 0.0
C848 C 0.90319 0.48602 0.28611 0.0
C849 C 0.92606 0.49439 0.28462 0.0
H850 H 0.90569 0.51534 0.30258 0.0
H851 H 0.89582 0.47828 0.28406 0.0
O852 O 0.85129 0.50146 0.31497 0.0
O853 O 0.86976 0.51262 0.29232 0.0
O854 O 0.88239 0.50483 0.3197 0.0
O855 O 0.87169 0.4821 0.30156 0.0
H856 H 0.82953 0.50906 0.30145 0.0
H857 H 0.85075 0.51287 0.33915 0.0
H858 H 0.8117 0.52412 0.3104 0.0
H859 H 0.83252 0.52783 0.34745 0.0
H860 H 0.89604 0.51379 0.25477 0.0
H861 H 0.88129 0.53635 0.2966 0.0
H862 H 0.87911 0.50259 0.26938 0.0
H863 H 0.89822 0.54692 0.28154 0.0
H864 H 0.84343 0.55858 0.31801 0.0
H865 H 0.88072 0.55317 0.33988 0.0
H866 H 0.81845 0.47188 0.28096 0.0
H867 H 0.83943 0.49558 0.25092 0.0
H868 H 0.90345 0.48842 0.32036 0.0
H869 H 0.87548 0.51095 0.34474 0.0
H870 H 0.91437 0.48007 0.34127 0.0
H871 H 0.88685 0.50214 0.36523 0.0
H872 H 0.85636 0.46288 0.31209 0.0
H873 H 0.87362 0.47798 0.27521 0.0
H874 H 0.84584 0.4443 0.29911 0.0
H875 H 0.86276 0.45915 0.26288 0.0
H876 H 0.84923 0.47344 0.3623 0.0
H877 H 0.88116 0.45015 0.34392 0.0
H878 H 0.92923 0.51344 0.29502 0.0
H879 H 0.91901 0.47567 0.27566 0.0
Li880 Li 0.51013 0.86843 0.31825 0.0
Li881 Li 0.49862 0.8841 0.30313 0.0
Li882 Li 0.48605 0.86806 0.31683 0.0
Li883 Li 0.49936 0.86072 0.29762 0.0
C884 C 0.50426 0.88933 0.33316 0.0
N885 N 0.51935 0.90126 0.35334 0.0
C886 C 0.51112 0.9014 0.33069 0.0
C887 C 0.50504 0.88336 0.34592 0.0
C888 C 0.51869 0.90727 0.34103 0.0
C889 C 0.51274 0.88954 0.35597 0.0
C890 C 0.52371 0.86863 0.29023 0.0
C891 C 0.53038 0.86535 0.26707 0.0
N892 N 0.54123 0.8581 0.2713 0.0
C893 C 0.53494 0.86117 0.29435 0.0
C894 C 0.52143 0.87079 0.27648 0.0
C895 C 0.54368 0.85593 0.28462 0.0
C896 C 0.52594 0.85559 0.3382 0.0
N897 N 0.52529 0.86628 0.32967 0.0
C898 C 0.54608 0.87498 0.33813 0.0
C899 C 0.53516 0.87579 0.32931 0.0
C900 C 0.54688 0.86422 0.34731 0.0
C901 C 0.5367 0.85436 0.34718 0.0
H902 H 0.51802 0.84812 0.33817 0.0
H903 H 0.53442 0.8841 0.32228 0.0
C904 C 0.48953 0.91088 0.30055 0.0
N905 N 0.4988 0.90184 0.29609 0.0
C906 C 0.4896 0.92406 0.29565 0.0
C907 C 0.5088 0.91835 0.28173 0.0
C908 C 0.50835 0.90529 0.2869 0.0
C909 C 0.49939 0.92795 0.28617 0.0
H910 H 0.48221 0.90788 0.30805 0.0
H911 H 0.51572 0.89797 0.2837 0.0
C912 C 0.49084 0.84254 0.3211 0.0
N913 N 0.47394 0.82316 0.33183 0.0
C914 C 0.48417 0.83348 0.31261 0.0
C915 C 0.48897 0.84171 0.33505 0.0
C916 C 0.47567 0.82375 0.31824 0.0
C917 C 0.48036 0.83186 0.34028 0.0
C918 C 0.47545 0.88137 0.29084 0.0
C919 C 0.46414 0.8869 0.29717 0.0
C920 C 0.47889 0.88554 0.27782 0.0
C921 C 0.45648 0.89658 0.29037 0.0
C922 C 0.47099 0.89527 0.27138 0.0
N923 N 0.46004 0.90053 0.27773 0.0
C924 C 0.46871 0.87061 0.3391 0.0
C925 C 0.45982 0.85759 0.32111 0.0
C926 C 0.45722 0.86823 0.34681 0.0
N927 N 0.46986 0.86516 0.32659 0.0
C928 C 0.44808 0.85502 0.32845 0.0
C929 C 0.44676 0.86028 0.34153 0.0
H930 H 0.47672 0.87677 0.3431 0.0
H931 H 0.46101 0.85347 0.31109 0.0
C932 C 0.51064 0.83871 0.28416 0.0
N933 N 0.50088 0.84827 0.28334 0.0
C934 C 0.51317 0.83028 0.27321 0.0
C935 C 0.495 0.8412 0.26114 0.0
C936 C 0.49292 0.84952 0.27227 0.0
C937 C 0.50539 0.83157 0.26143 0.0
H938 H 0.51673 0.83794 0.29317 0.0
H939 H 0.4851 0.85709 0.27202 0.0
O940 O 0.49702 0.88328 0.32309 0.0
O941 O 0.51492 0.87367 0.29961 0.0
O942 O 0.49898 0.85232 0.31577 0.0
O943 O 0.48321 0.87205 0.29742 0.0
H944 H 0.51074 0.90612 0.32087 0.0
H945 H 0.5 0.8739 0.34796 0.0
H946 H 0.52409 0.91658 0.33924 0.0
H947 H 0.51353 0.88496 0.36584 0.0
H948 H 0.52867 0.86684 0.2564 0.0
H949 H 0.53683 0.8593 0.30492 0.0
H950 H 0.5127 0.87638 0.2731 0.0
H951 H 0.55238 0.85009 0.28765 0.0
H952 H 0.55381 0.88268 0.33776 0.0
H953 H 0.53686 0.84597 0.35417 0.0
H954 H 0.48233 0.93122 0.29953 0.0
H955 H 0.51647 0.92092 0.2744 0.0
H956 H 0.48543 0.83402 0.3018 0.0
H957 H 0.4939 0.84876 0.34175 0.0
H958 H 0.4704 0.8167 0.31179 0.0
H959 H 0.47872 0.83118 0.35104 0.0
H960 H 0.46137 0.88388 0.30727 0.0
H961 H 0.4877 0.88149 0.27283 0.0
H962 H 0.44773 0.90098 0.29517 0.0
H963 H 0.4736 0.89866 0.26134 0.0
H964 H 0.45646 0.87268 0.35675 0.0
H965 H 0.44024 0.84881 0.32406 0.0
H966 H 0.52136 0.8231 0.27387 0.0
H967 H 0.48854 0.84232 0.2524 0.0
Li968 Li 0.12783 0.51517 0.31815 0.0
Li969 Li 0.1127 0.49945 0.30672 0.0
Li970 Li 0.13147 0.49073 0.32097 0.0
Li971 Li 0.1354 0.50067 0.29881 0.0
C972 C 0.1122 0.50377 0.3395 0.0
N973 N 0.10546 0.50791 0.36621 0.0
C974 C 0.09886 0.50651 0.34309 0.0
C975 C 0.12208 0.50295 0.34951 0.0
C976 C 0.09566 0.50864 0.35664 0.0
C977 C 0.11848 0.50511 0.36296 0.0
C978 C 0.11175 0.52125 0.29174 0.0
C979 C 0.09668 0.5211 0.27264 0.0
N980 N 0.09059 0.5324 0.27745 0.0
C981 C 0.10541 0.53292 0.29643 0.0
C982 C 0.10743 0.51534 0.27969 0.0
C983 C 0.09471 0.53839 0.28908 0.0
C984 C 0.14088 0.53914 0.32626 0.0
N985 N 0.12906 0.53221 0.32664 0.0
C986 C 0.11885 0.54935 0.34009 0.0
C987 C 0.11806 0.53716 0.33313 0.0
C988 C 0.13108 0.55649 0.34033 0.0
C989 C 0.14215 0.55134 0.33317 0.0
H990 H 0.14938 0.53508 0.32078 0.0
H991 H 0.1087 0.53161 0.33297 0.0
C992 C 0.09118 0.48589 0.29397 0.0
N993 N 0.09453 0.49673 0.30164 0.0
C994 C 0.07794 0.48415 0.28959 0.0
C995 C 0.07183 0.50465 0.30129 0.0
C996 C 0.08518 0.50597 0.30547 0.0
C997 C 0.06809 0.49366 0.29318 0.0
H998 H 0.09881 0.47864 0.29119 0.0
H999 H 0.08815 0.51445 0.31165 0.0
C1000 C 0.15674 0.50463 0.32311 0.0
N1001 N 0.18067 0.50436 0.33743 0.0
C1002 C 0.16826 0.49868 0.31758 0.0
C1003 C 0.15747 0.5106 0.33587 0.0
C1004 C 0.18025 0.4986 0.32499 0.0
C1005 C 0.16963 0.51031 0.34296 0.0
C1006 C 0.12955 0.4746 0.29449 0.0
C1007 C 0.13821 0.46444 0.29901 0.0
C1008 C 0.12572 0.47497 0.28092 0.0
C1009 C 0.143 0.45488 0.28984 0.0
C1010 C 0.13075 0.46525 0.27206 0.0
N1011 N 0.13922 0.45549 0.27667 0.0
C1012 C 0.12483 0.46897 0.33664 0.0
C1013 C 0.14791 0.47468 0.33914 0.0
C1014 C 0.12611 0.45861 0.34604 0.0
N1015 N 0.13561 0.47681 0.33346 0.0
C1016 C 0.14962 0.46448 0.3487 0.0
C1017 C 0.13861 0.45634 0.35228 0.0
H1018 H 0.11517 0.47092 0.33196 0.0
H1019 H 0.15638 0.48089 0.33641 0.0
C1020 C 0.14352 0.50915 0.27312 0.0
N1021 N 0.14612 0.50005 0.28303 0.0
C1022 C 0.15022 0.50831 0.2608 0.0
C1023 C 0.16245 0.48899 0.26928 0.0
C1024 C 0.15555 0.49024 0.28144 0.0
C1025 C 0.15969 0.49801 0.25872 0.0
H1026 H 0.13607 0.51694 0.2747 0.0
H1027 H 0.15747 0.48317 0.28949 0.0
O1028 O 0.11548 0.50169 0.32625 0.0
O1029 O 0.12207 0.51559 0.29894 0.0
O1030 O 0.14494 0.50484 0.31594 0.0
O1031 O 0.12481 0.48408 0.30331 0.0
H1032 H 0.09105 0.50706 0.33549 0.0
H1033 H 0.13237 0.50054 0.34698 0.0
H1034 H 0.08538 0.51085 0.35956 0.0
H1035 H 0.12604 0.50452 0.3708 0.0
H1036 H 0.09316 0.51656 0.26337 0.0
H1037 H 0.10866 0.53767 0.30569 0.0
H1038 H 0.11223 0.50631 0.27591 0.0
H1039 H 0.08966 0.54738 0.29263 0.0
H1040 H 0.11009 0.55293 0.34553 0.0
H1041 H 0.1517 0.55664 0.33297 0.0
H1042 H 0.07548 0.47556 0.2833 0.0
H1043 H 0.0645 0.51209 0.30448 0.0
H1044 H 0.16797 0.49413 0.3077 0.0
H1045 H 0.14877 0.51547 0.34025 0.0
H1046 H 0.18921 0.49397 0.32085 0.0
H1047 H 0.17031 0.51486 0.35285 0.0
H1048 H 0.14128 0.46398 0.30946 0.0
H1049 H 0.11907 0.48278 0.27723 0.0
H1050 H 0.14976 0.447 0.29319 0.0
H1051 H 0.12796 0.46548 0.26152 0.0
H1052 H 0.11733 0.45265 0.34864 0.0
H1053 H 0.15946 0.46294 0.3532 0.0
H1054 H 0.14779 0.51545 0.2529 0.0
H1055 H 0.16987 0.48106 0.26816 0.0
Li1056 Li 0.48696 0.86165 0.67114 0.0
Li1057 Li 0.49767 0.88038 0.68289 0.0
Li1058 Li 0.51105 0.86319 0.67149 0.0
Li1059 Li 0.49899 0.85827 0.69221 0.0
C1060 C 0.49075 0.88006 0.65271 0.0
N1061 N 0.47401 0.8872 0.6316 0.0
C1062 C 0.48275 0.89163 0.65361 0.0
C1063 C 0.49029 0.87217 0.64104 0.0
C1064 C 0.47436 0.89507 0.64283 0.0
C1065 C 0.48173 0.87592 0.6305 0.0
C1066 C 0.47469 0.8651 0.69949 0.0
C1067 C 0.46918 0.86527 0.72317 0.0
N1068 N 0.45956 0.85576 0.72093 0.0
C1069 C 0.46473 0.85535 0.69741 0.0
C1070 C 0.47692 0.87015 0.71246 0.0
C1071 C 0.45719 0.85075 0.70838 0.0
C1072 C 0.47136 0.84541 0.65336 0.0
N1073 N 0.47153 0.85682 0.66093 0.0
C1074 C 0.44971 0.86307 0.65295 0.0
C1075 C 0.46093 0.86549 0.66107 0.0
C1076 C 0.44942 0.8516 0.64465 0.0
C1077 C 0.46036 0.8426 0.64505 0.0
H1078 H 0.47986 0.8386 0.6536 0.0
H1079 H 0.46136 0.87446 0.66725 0.0
C1080 C 0.50561 0.90752 0.6813 0.0
N1081 N 0.49639 0.899 0.68679 0.0
C1082 C 0.50516 0.92125 0.68423 0.0
C1083 C 0.48535 0.91726 0.6979 0.0
C1084 C 0.4863 0.90356 0.69486 0.0
C1085 C 0.49493 0.92624 0.69263 0.0
H1086 H 0.51332 0.90361 0.67466 0.0
H1087 H 0.47897 0.89658 0.69888 0.0
C1088 C 0.50787 0.83706 0.67127 0.0
N1089 N 0.52547 0.81738 0.66239 0.0
C1090 C 0.51548 0.82966 0.68054 0.0
C1091 C 0.50918 0.83442 0.65748 0.0
C1092 C 0.52432 0.81974 0.67585 0.0
C1093 C 0.51816 0.82446 0.65319 0.0
C1094 C 0.52149 0.88122 0.69467 0.0
C1095 C 0.53265 0.88599 0.6875 0.0
C1096 C 0.5178 0.88744 0.70677 0.0
C1097 C 0.53991 0.89697 0.69254 0.0
C1098 C 0.52529 0.89842 0.71145 0.0
N1099 N 0.5361 0.90291 0.7043 0.0
C1100 C 0.52804 0.86306 0.64864 0.0
C1101 C 0.53758 0.8536 0.66843 0.0
C1102 C 0.53959 0.85988 0.64128 0.0
N1103 N 0.5272 0.85973 0.66189 0.0
C1104 C 0.54933 0.85025 0.66147 0.0
C1105 C 0.55038 0.85329 0.64768 0.0
H1106 H 0.51972 0.8681 0.64376 0.0
H1107 H 0.53662 0.85116 0.67901 0.0
C1108 C 0.49164 0.83672 0.70878 0.0
N1109 N 0.49936 0.84802 0.70821 0.0
C1110 C 0.49179 0.82866 0.72027 0.0
C1111 C 0.50784 0.84403 0.73036 0.0
C1112 C 0.50739 0.85179 0.71865 0.0
C1113 C 0.50003 0.83225 0.73122 0.0
H1114 H 0.48546 0.83395 0.70023 0.0
H1115 H 0.51359 0.8607 0.71781 0.0
O1116 O 0.49878 0.87633 0.6633 0.0
O1117 O 0.48238 0.86952 0.68892 0.0
O1118 O 0.49937 0.84701 0.67565 0.0
O1119 O 0.51415 0.87059 0.68981 0.0
H1120 H 0.4829 0.89783 0.66258 0.0
H1121 H 0.49626 0.86307 0.64024 0.0
H1122 H 0.46807 0.90396 0.64341 0.0
H1123 H 0.48118 0.86983 0.62147 0.0
H1124 H 0.47086 0.86902 0.73328 0.0
H1125 H 0.46294 0.85125 0.68746 0.0
H1126 H 0.48467 0.87762 0.71427 0.0
H1127 H 0.44949 0.84316 0.70694 0.0
H1128 H 0.44156 0.87034 0.65284 0.0
H1129 H 0.46044 0.83356 0.63893 0.0
H1130 H 0.51257 0.92794 0.6798 0.0
H1131 H 0.47729 0.92078 0.70438 0.0
H1132 H 0.51471 0.83163 0.69123 0.0
H1133 H 0.50356 0.84021 0.65015 0.0
H1134 H 0.53031 0.81397 0.6829 0.0
H1135 H 0.51936 0.8224 0.64255 0.0
H1136 H 0.53562 0.88137 0.67809 0.0
H1137 H 0.5091 0.884 0.71236 0.0
H1138 H 0.54853 0.9008 0.68708 0.0
H1139 H 0.52248 0.90339 0.72073 0.0
H1140 H 0.54009 0.86264 0.63073 0.0
H1141 H 0.55739 0.84511 0.66675 0.0
H1142 H 0.48553 0.81972 0.72059 0.0
H1143 H 0.51447 0.84702 0.73851 0.0
Li1144 Li 0.1404 0.50445 0.66948 0.0
Li1145 Li 0.13901 0.49559 0.69186 0.0
Li1146 Li 0.13727 0.48125 0.67182 0.0
Li1147 Li 0.11873 0.49596 0.6777 0.0
C1148 C 0.16486 0.49719 0.6738 0.0
N1149 N 0.18815 0.50935 0.6645 0.0
C1150 C 0.17253 0.50531 0.68239 0.0
C1151 C 0.16914 0.4951 0.66054 0.0
C1152 C 0.18425 0.5114 0.67748 0.0
C1153 C 0.18091 0.50138 0.65601 0.0
C1154 C 0.12233 0.51774 0.69463 0.0
C1155 C 0.10818 0.51686 0.71439 0.0
N1156 N 0.10802 0.53057 0.71479 0.0
C1157 C 0.12204 0.53182 0.69525 0.0
C1158 C 0.11536 0.51018 0.70428 0.0
C1159 C 0.11475 0.53811 0.70552 0.0
C1160 C 0.14785 0.51843 0.64577 0.0
N1161 N 0.14793 0.51882 0.65946 0.0
C1162 C 0.15618 0.54143 0.65932 0.0
C1163 C 0.1522 0.52989 0.66631 0.0
C1164 C 0.1557 0.54152 0.64516 0.0
C1165 C 0.1518 0.52971 0.63837 0.0
H1166 H 0.14422 0.50955 0.64062 0.0
H1167 H 0.15207 0.52988 0.67722 0.0
C1168 C 0.14421 0.48949 0.72 0.0
N1169 N 0.145 0.49871 0.70988 0.0
C1170 C 0.14864 0.49276 0.73293 0.0
C1171 C 0.15395 0.51518 0.72503 0.0
C1172 C 0.14966 0.51139 0.7122 0.0
C1173 C 0.15366 0.50575 0.7356 0.0
H1174 H 0.14019 0.47959 0.71816 0.0
H1175 H 0.15 0.51862 0.70404 0.0
C1176 C 0.12375 0.48525 0.64921 0.0
N1177 N 0.11741 0.46782 0.62839 0.0
C1178 C 0.11059 0.4804 0.64776 0.0
C1179 C 0.13363 0.48139 0.63992 0.0
C1180 C 0.10759 0.47157 0.6372 0.0
C1181 C 0.13024 0.47252 0.62952 0.0
C1182 C 0.128 0.46949 0.69592 0.0
C1183 C 0.14087 0.46373 0.69642 0.0
C1184 C 0.1174 0.46349 0.703 0.0
C1185 C 0.1429 0.45204 0.70403 0.0
C1186 C 0.11986 0.45183 0.71052 0.0
N1187 N 0.13245 0.44639 0.71086 0.0
C1188 C 0.15298 0.45927 0.66142 0.0
C1189 C 0.12944 0.45568 0.66356 0.0
C1190 C 0.15466 0.44637 0.656 0.0
N1191 N 0.14047 0.46368 0.66487 0.0
C1192 C 0.13062 0.44282 0.65807 0.0
C1193 C 0.14335 0.43801 0.65411 0.0
H1194 H 0.16161 0.46576 0.66285 0.0
H1195 H 0.11965 0.45943 0.66657 0.0
C1196 C 0.09461 0.51093 0.67679 0.0
N1197 N 0.09987 0.49838 0.67829 0.0
C1198 C 0.08082 0.51305 0.67848 0.0
C1199 C 0.07807 0.48915 0.68249 0.0
C1200 C 0.09195 0.48754 0.68097 0.0
C1201 C 0.07233 0.50209 0.68149 0.0
H1202 H 0.10119 0.51936 0.67464 0.0
H1203 H 0.09645 0.47766 0.68198 0.0
O1204 O 0.15319 0.49137 0.67832 0.0
O1205 O 0.12949 0.51148 0.68462 0.0
O1206 O 0.12691 0.49374 0.65963 0.0
O1207 O 0.12564 0.4807 0.68824 0.0
H1208 H 0.16949 0.5069 0.69272 0.0
H1209 H 0.16336 0.48883 0.65376 0.0
H1210 H 0.19025 0.51777 0.68401 0.0
H1211 H 0.18426 0.49994 0.64573 0.0
H1212 H 0.10274 0.51114 0.72192 0.0
H1213 H 0.1274 0.5378 0.68786 0.0
H1214 H 0.11547 0.49929 0.70401 0.0
H1215 H 0.11443 0.549 0.70611 0.0
H1216 H 0.1592 0.55031 0.66491 0.0
H1217 H 0.15107 0.52943 0.62748 0.0
H1218 H 0.14837 0.48506 0.74067 0.0
H1219 H 0.15747 0.52539 0.72661 0.0
H1220 H 0.10277 0.48336 0.65474 0.0
H1221 H 0.14385 0.48503 0.64084 0.0
H1222 H 0.09747 0.46768 0.63603 0.0
H1223 H 0.13783 0.46934 0.62236 0.0
H1224 H 0.14923 0.46825 0.69108 0.0
H1225 H 0.10739 0.4678 0.7027 0.0
H1226 H 0.1528 0.44749 0.70451 0.0
H1227 H 0.11175 0.44708 0.71606 0.0
H1228 H 0.16469 0.44301 0.6533 0.0
H1229 H 0.12157 0.43689 0.65662 0.0
H1230 H 0.07694 0.52323 0.67778 0.0
H1231 H 0.07193 0.48034 0.68446 0.0
Li1232 Li 0.4983 0.13902 0.69164 0.0
Li1233 Li 0.49059 0.13283 0.66895 0.0
Li1234 Li 0.50092 0.11564 0.68537 0.0
Li1235 Li 0.51436 0.13328 0.67518 0.0
C1236 C 0.47425 0.12921 0.69599 0.0
N1237 N 0.4556 0.13659 0.7153 0.0
C1238 C 0.46378 0.13804 0.6927 0.0
C1239 C 0.4752 0.12405 0.70907 0.0
C1240 C 0.45446 0.14167 0.70261 0.0
C1241 C 0.46568 0.12793 0.71871 0.0
C1242 C 0.50417 0.16034 0.66837 0.0
C1243 C 0.50465 0.17431 0.64845 0.0
N1244 N 0.50948 0.18473 0.65594 0.0
C1245 C 0.50897 0.17125 0.6759 0.0
C1246 C 0.50183 0.16194 0.65456 0.0
C1247 C 0.51167 0.18347 0.66942 0.0
C1248 C 0.49733 0.14769 0.7189 0.0
N1249 N 0.4938 0.15065 0.706 0.0
C1250 C 0.48269 0.17077 0.71303 0.0
C1251 C 0.48652 0.16183 0.70291 0.0
C1252 C 0.48643 0.16816 0.72644 0.0
C1253 C 0.49378 0.15639 0.72934 0.0
H1254 H 0.50286 0.13856 0.72108 0.0
H1255 H 0.48363 0.16373 0.69257 0.0
C1256 C 0.4748 0.12424 0.64749 0.0
N1257 N 0.47734 0.13502 0.65554 0.0
C1258 C 0.46492 0.12503 0.63755 0.0
C1259 C 0.46039 0.148 0.64441 0.0
C1260 C 0.47037 0.14675 0.65427 0.0
C1261 C 0.45756 0.13703 0.63589 0.0
H1262 H 0.48042 0.115 0.64889 0.0
H1263 H 0.47256 0.1551 0.66093 0.0
C1264 C 0.52375 0.1332 0.70227 0.0
N1265 N 0.54282 0.14539 0.71851 0.0
C1266 C 0.52817 0.14626 0.69942 0.0
C1267 C 0.52906 0.1263 0.71335 0.0
C1268 C 0.53781 0.15226 0.70775 0.0
C1269 C 0.53869 0.13265 0.72145 0.0
C1270 C 0.51294 0.11605 0.65525 0.0
C1271 C 0.52322 0.10651 0.65664 0.0
C1272 C 0.51179 0.12336 0.64325 0.0
C1273 C 0.53231 0.10457 0.64605 0.0
C1274 C 0.52107 0.12112 0.63289 0.0
N1275 N 0.53106 0.11187 0.63451 0.0
C1276 C 0.48741 0.09241 0.69376 0.0
C1277 C 0.51105 0.08976 0.69136 0.0
C1278 C 0.48596 0.07882 0.69702 0.0
N1279 N 0.49979 0.09753 0.6909 0.0
C1280 C 0.51003 0.07603 0.69431 0.0
C1281 C 0.49731 0.07033 0.69701 0.0
H1282 H 0.47863 0.09883 0.69327 0.0
H1283 H 0.52076 0.09416 0.6891 0.0
C1284 C 0.53422 0.14514 0.65789 0.0
N1285 N 0.53211 0.13637 0.6682 0.0
C1286 C 0.54701 0.14652 0.65224 0.0
C1287 C 0.55531 0.12977 0.66787 0.0
C1288 C 0.54235 0.12877 0.67328 0.0
C1289 C 0.55772 0.13869 0.65715 0.0
H1290 H 0.52594 0.15071 0.65367 0.0
H1291 H 0.54036 0.12165 0.6813 0.0
O1292 O 0.48371 0.12586 0.68654 0.0
O1293 O 0.50116 0.14838 0.67459 0.0
O1294 O 0.51424 0.12713 0.69434 0.0
O1295 O 0.50425 0.11846 0.66568 0.0
H1296 H 0.46294 0.14216 0.68263 0.0
H1297 H 0.48333 0.11731 0.71181 0.0
H1298 H 0.44634 0.14856 0.70023 0.0
H1299 H 0.46634 0.1241 0.7289 0.0
H1300 H 0.503 0.17563 0.63775 0.0
H1301 H 0.5105 0.17037 0.68667 0.0
H1302 H 0.49804 0.15366 0.64856 0.0
H1303 H 0.51543 0.19197 0.67513 0.0
H1304 H 0.47682 0.17959 0.71039 0.0
H1305 H 0.49697 0.15406 0.73952 0.0
H1306 H 0.46289 0.11624 0.6314 0.0
H1307 H 0.45503 0.15746 0.64342 0.0
H1308 H 0.52429 0.15165 0.69081 0.0
H1309 H 0.52574 0.11617 0.71568 0.0
H1310 H 0.54133 0.16237 0.70564 0.0
H1311 H 0.54286 0.12744 0.73008 0.0
H1312 H 0.52428 0.10079 0.66586 0.0
H1313 H 0.50391 0.13079 0.64201 0.0
H1314 H 0.54038 0.09731 0.64704 0.0
H1315 H 0.52035 0.12678 0.62359 0.0
H1316 H 0.47599 0.07501 0.69932 0.0
H1317 H 0.51906 0.06991 0.69399 0.0
H1318 H 0.54836 0.15327 0.64376 0.0
H1319 H 0.5633 0.12353 0.67192 0.0
Li1320 Li 0.86427 0.5089 0.67191 0.0
Li1321 Li 0.88302 0.49951 0.68483 0.0
Li1322 Li 0.86658 0.48484 0.6737 0.0
Li1323 Li 0.86064 0.49802 0.69354 0.0
C1324 C 0.88306 0.50442 0.65414 0.0
N1325 N 0.88972 0.51963 0.63177 0.0
C1326 C 0.8937 0.51364 0.65477 0.0
C1327 C 0.87587 0.50285 0.64212 0.0
C1328 C 0.8969 0.52125 0.64334 0.0
C1329 C 0.87937 0.51066 0.63093 0.0
C1330 C 0.86705 0.52288 0.69975 0.0
C1331 C 0.86744 0.5298 0.72305 0.0
N1332 N 0.85757 0.53895 0.72043 0.0
C1333 C 0.85695 0.5324 0.69726 0.0
C1334 C 0.8724 0.52161 0.71273 0.0
C1335 C 0.85229 0.54042 0.70785 0.0
C1336 C 0.84843 0.52302 0.65254 0.0
N1337 N 0.85937 0.52361 0.66077 0.0
C1338 C 0.86466 0.54577 0.65302 0.0
C1339 C 0.86737 0.53472 0.66126 0.0
C1340 C 0.85358 0.54539 0.64419 0.0
C1341 C 0.84534 0.53386 0.6441 0.0
H1342 H 0.84219 0.5141 0.65243 0.0
H1343 H 0.87593 0.53492 0.66802 0.0
C1344 C 0.9102 0.49207 0.68421 0.0
N1345 N 0.90154 0.50169 0.68867 0.0
C1346 C 0.92402 0.49347 0.68631 0.0
C1347 C 0.91979 0.51497 0.69705 0.0
C1348 C 0.90601 0.51301 0.69497 0.0
C1349 C 0.92893 0.50509 0.69271 0.0
H1350 H 0.90637 0.48339 0.67884 0.0
H1351 H 0.89889 0.52064 0.69812 0.0
C1352 C 0.84008 0.48764 0.67228 0.0
N1353 N 0.8203 0.47014 0.66337 0.0
C1354 C 0.83159 0.48124 0.68153 0.0
C1355 C 0.83847 0.48519 0.65849 0.0
C1356 C 0.82165 0.47243 0.67683 0.0
C1357 C 0.82844 0.47628 0.65419 0.0
C1358 C 0.88406 0.47631 0.6981 0.0
C1359 C 0.88892 0.46452 0.69209 0.0
C1360 C 0.89003 0.48107 0.70994 0.0
C1361 C 0.89979 0.45777 0.69798 0.0
C1362 C 0.9009 0.47404 0.7155 0.0
N1363 N 0.90552 0.46263 0.70945 0.0
C1364 C 0.87239 0.46588 0.65365 0.0
C1365 C 0.85655 0.45824 0.66986 0.0
C1366 C 0.87193 0.45349 0.64703 0.0
N1367 N 0.86472 0.46803 0.66479 0.0
C1368 C 0.85556 0.44578 0.66339 0.0
C1369 C 0.8634 0.4433 0.65189 0.0
H1370 H 0.87902 0.47373 0.65001 0.0
H1371 H 0.85089 0.46008 0.67899 0.0
C1372 C 0.83876 0.50616 0.70928 0.0
N1373 N 0.85006 0.49844 0.70932 0.0
C1374 C 0.83074 0.50697 0.72078 0.0
C1375 C 0.84605 0.49166 0.73204 0.0
C1376 C 0.85381 0.4912 0.72033 0.0
C1377 C 0.83437 0.49965 0.73235 0.0
H1378 H 0.83597 0.51165 0.70028 0.0
H1379 H 0.86279 0.48506 0.72001 0.0
O1380 O 0.8795 0.49718 0.66532 0.0
O1381 O 0.87153 0.51472 0.68958 0.0
O1382 O 0.84991 0.49625 0.67669 0.0
O1383 O 0.87351 0.48315 0.69241 0.0
H1384 H 0.89932 0.51504 0.66401 0.0
H1385 H 0.86757 0.4958 0.64149 0.0
H1386 H 0.90506 0.52848 0.6437 0.0
H1387 H 0.87383 0.50963 0.62159 0.0
H1388 H 0.87142 0.52886 0.73317 0.0
H1389 H 0.85263 0.53345 0.6873 0.0
H1390 H 0.88018 0.51427 0.71483 0.0
H1391 H 0.84442 0.54777 0.7061 0.0
H1392 H 0.87116 0.55453 0.65358 0.0
H1393 H 0.83678 0.53309 0.63736 0.0
H1394 H 0.93082 0.48578 0.6826 0.0
H1395 H 0.92329 0.5241 0.70193 0.0
H1396 H 0.83271 0.48297 0.69224 0.0
H1397 H 0.84504 0.48994 0.6512 0.0
H1398 H 0.81504 0.46737 0.68388 0.0
H1399 H 0.82715 0.47421 0.64356 0.0
H1400 H 0.88443 0.46067 0.68293 0.0
H1401 H 0.88645 0.49021 0.71469 0.0
H1402 H 0.9037 0.44867 0.69341 0.0
H1403 H 0.90569 0.47767 0.72461 0.0
H1404 H 0.87809 0.45192 0.63815 0.0
H1405 H 0.849 0.43806 0.66748 0.0
H1406 H 0.82168 0.51306 0.72054 0.0
H1407 H 0.8492 0.48591 0.74078 0.0
Li1408 Li 0.32169 0.50334 0.13285 0.0
Li1409 Li 0.29984 0.49262 0.1357 0.0
Li1410 Li 0.32026 0.47928 0.13354 0.0
Li1411 Li 0.31084 0.49139 0.11437 0.0
C1412 C 0.31937 0.49962 0.1587 0.0
N1413 N 0.32742 0.5164 0.17943 0.0
C1414 C 0.30991 0.50763 0.1654 0.0
C1415 C 0.33291 0.5001 0.16258 0.0
C1416 C 0.31418 0.51604 0.17586 0.0
C1417 C 0.33679 0.50867 0.17306 0.0
C1418 C 0.30086 0.51585 0.1134 0.0
C1419 C 0.2857 0.52147 0.09521 0.0
N1420 N 0.29428 0.5314 0.09121 0.0
C1421 C 0.30952 0.52613 0.10912 0.0
C1422 C 0.28883 0.51353 0.10642 0.0
C1423 C 0.30601 0.53388 0.09789 0.0
C1424 C 0.34554 0.51873 0.13485 0.0
N1425 N 0.33209 0.51873 0.13737 0.0
C1426 C 0.33321 0.5411 0.14622 0.0
C1427 C 0.32582 0.52959 0.14289 0.0
C1428 C 0.34717 0.54137 0.14382 0.0
C1429 C 0.35333 0.52998 0.13807 0.0
H1430 H 0.35021 0.51004 0.13025 0.0
H1431 H 0.31506 0.52931 0.14466 0.0
C1432 C 0.28086 0.48462 0.15474 0.0
N1433 N 0.28304 0.49348 0.14453 0.0
C1434 C 0.26833 0.4841 0.16104 0.0
C1435 C 0.26074 0.50224 0.14659 0.0
C1436 C 0.2734 0.50233 0.14048 0.0
C1437 C 0.25807 0.49292 0.15691 0.0
H1438 H 0.28882 0.47785 0.15784 0.0
H1439 H 0.27551 0.50938 0.13246 0.0
C1440 C 0.34025 0.48219 0.11675 0.0
N1441 N 0.36051 0.46408 0.11063 0.0
C1442 C 0.3396 0.47458 0.10491 0.0
C1443 C 0.35124 0.48063 0.12545 0.0
C1444 C 0.34994 0.46548 0.10199 0.0
C1445 C 0.36136 0.4714 0.12219 0.0
C1446 C 0.29159 0.46894 0.1272 0.0
C1447 C 0.29239 0.45803 0.1361 0.0
C1448 C 0.27912 0.47252 0.12168 0.0
C1449 C 0.28067 0.45091 0.13935 0.0
C1450 C 0.26763 0.46517 0.12522 0.0
N1451 N 0.26864 0.45461 0.13391 0.0
C1452 C 0.33524 0.46208 0.15086 0.0
C1453 C 0.32879 0.45263 0.12988 0.0
C1454 C 0.34218 0.45033 0.15429 0.0
N1455 N 0.32891 0.46306 0.13875 0.0
C1456 C 0.33555 0.44069 0.1329 0.0
C1457 C 0.34252 0.43949 0.14518 0.0
H1458 H 0.33507 0.4705 0.15777 0.0
H1459 H 0.32353 0.45367 0.12038 0.0
C1460 C 0.31594 0.49972 0.08786 0.0
N1461 N 0.30824 0.49135 0.09549 0.0
C1462 C 0.31358 0.50085 0.07405 0.0
C1463 C 0.29578 0.48429 0.07617 0.0
C1464 C 0.29847 0.48351 0.08994 0.0
C1465 C 0.30327 0.49318 0.06808 0.0
H1466 H 0.32375 0.5057 0.09257 0.0
H1467 H 0.29264 0.47682 0.09623 0.0
O1468 O 0.31543 0.49153 0.14824 0.0
O1469 O 0.30425 0.50796 0.1242 0.0
O1470 O 0.33006 0.49092 0.11995 0.0
O1471 O 0.30291 0.4762 0.12408 0.0
H1472 H 0.2994 0.50747 0.16248 0.0
H1473 H 0.34041 0.49413 0.15737 0.0
H1474 H 0.30698 0.52234 0.1811 0.0
H1475 H 0.34725 0.50923 0.17609 0.0
H1476 H 0.27649 0.5197 0.08965 0.0
H1477 H 0.31892 0.52801 0.1143 0.0
H1478 H 0.2821 0.5055 0.10945 0.0
H1479 H 0.31264 0.54182 0.09443 0.0
H1480 H 0.3281 0.54964 0.1507 0.0
H1481 H 0.36402 0.52988 0.13582 0.0
H1482 H 0.26674 0.47697 0.16916 0.0
H1483 H 0.25307 0.50922 0.14316 0.0
H1484 H 0.33113 0.47557 0.09811 0.0
H1485 H 0.35181 0.48628 0.13476 0.0
H1486 H 0.34954 0.45948 0.09289 0.0
H1487 H 0.36986 0.47 0.12889 0.0
H1488 H 0.3019 0.45518 0.14059 0.0
H1489 H 0.27825 0.48106 0.11495 0.0
H1490 H 0.28114 0.44249 0.14627 0.0
H1491 H 0.2579 0.46791 0.12111 0.0
H1492 H 0.34752 0.4499 0.16381 0.0
H1493 H 0.33537 0.43251 0.12567 0.0
H1494 H 0.31975 0.50763 0.06812 0.0
H1495 H 0.28771 0.47825 0.07197 0.0
Li1496 Li 0.31362 0.50771 0.86008 0.0
Li1497 Li 0.30047 0.49608 0.8781 0.0
Li1498 Li 0.30966 0.48277 0.85936 0.0
Li1499 Li 0.29147 0.49772 0.85635 0.0
C1500 C 0.32936 0.48532 0.87753 0.0
N1501 N 0.34874 0.46693 0.8854 0.0
C1502 C 0.32683 0.47652 0.88824 0.0
C1503 C 0.34177 0.48483 0.87086 0.0
C1504 C 0.33676 0.46729 0.89206 0.0
C1505 C 0.35143 0.47544 0.87498 0.0
C1506 C 0.29237 0.52132 0.87824 0.0
C1507 C 0.27609 0.5283 0.89489 0.0
N1508 N 0.28498 0.53766 0.89954 0.0
C1509 C 0.3013 0.53108 0.8831 0.0
C1510 C 0.27962 0.51998 0.8841 0.0
C1511 C 0.29738 0.53922 0.89391 0.0
C1512 C 0.32372 0.53169 0.84788 0.0
N1513 N 0.32598 0.5219 0.85721 0.0
C1514 C 0.34568 0.53323 0.86509 0.0
C1515 C 0.33672 0.52244 0.86569 0.0
C1516 C 0.34352 0.54364 0.85574 0.0
C1517 C 0.33247 0.54271 0.84691 0.0
H1518 H 0.31494 0.53112 0.84145 0.0
H1519 H 0.33813 0.51465 0.87318 0.0
C1520 C 0.2874 0.48918 0.90257 0.0
N1521 N 0.2975 0.49648 0.89688 0.0
C1522 C 0.28525 0.48974 0.91646 0.0
C1523 C 0.30403 0.50521 0.91831 0.0
C1524 C 0.30585 0.50429 0.90441 0.0
C1525 C 0.29361 0.49788 0.92449 0.0
H1526 H 0.28105 0.4829 0.89635 0.0
H1527 H 0.31394 0.5098 0.89959 0.0
C1528 C 0.30224 0.49495 0.83226 0.0
N1529 N 0.28982 0.49278 0.80742 0.0
C1530 C 0.30011 0.48227 0.8265 0.0
C1531 C 0.29813 0.50653 0.82536 0.0
C1532 C 0.29381 0.48138 0.81393 0.0
C1533 C 0.29183 0.50522 0.81283 0.0
C1534 C 0.28013 0.47483 0.86546 0.0
C1535 C 0.28009 0.46311 0.85762 0.0
C1536 C 0.268 0.47977 0.87066 0.0
C1537 C 0.26787 0.45659 0.85502 0.0
C1538 C 0.25599 0.47297 0.86781 0.0
N1539 N 0.25618 0.46162 0.86011 0.0
C1540 C 0.31617 0.45567 0.86372 0.0
C1541 C 0.32839 0.46609 0.84599 0.0
C1542 C 0.32418 0.44415 0.86281 0.0
N1543 N 0.31857 0.46638 0.85554 0.0
C1544 C 0.33666 0.45477 0.84474 0.0
C1545 C 0.3348 0.44374 0.85345 0.0
H1546 H 0.30843 0.45632 0.87138 0.0
H1547 H 0.33022 0.4749 0.83983 0.0
C1548 C 0.26926 0.51333 0.84847 0.0
N1549 N 0.27494 0.50094 0.847 0.0
C1550 C 0.2568 0.51616 0.84261 0.0
C1551 C 0.25633 0.49348 0.83369 0.0
C1552 C 0.26892 0.49118 0.83949 0.0
C1553 C 0.25013 0.50606 0.83534 0.0
H1554 H 0.27436 0.52102 0.85426 0.0
H1555 H 0.27377 0.48155 0.8381 0.0
O1556 O 0.31958 0.49407 0.87329 0.0
O1557 O 0.29611 0.51304 0.86786 0.0
O1558 O 0.30825 0.496 0.84462 0.0
O1559 O 0.29202 0.48129 0.86818 0.0
H1560 H 0.31722 0.47666 0.89341 0.0
H1561 H 0.34382 0.49148 0.86245 0.0
H1562 H 0.33491 0.46035 0.90028 0.0
H1563 H 0.36103 0.47487 0.86985 0.0
H1564 H 0.2663 0.52731 0.89959 0.0
H1565 H 0.3112 0.53227 0.87869 0.0
H1566 H 0.27258 0.51252 0.88041 0.0
H1567 H 0.30422 0.54676 0.89784 0.0
H1568 H 0.35417 0.53346 0.87196 0.0
H1569 H 0.33036 0.5506 0.83966 0.0
H1570 H 0.2771 0.48395 0.92085 0.0
H1571 H 0.31086 0.5114 0.92418 0.0
H1572 H 0.30313 0.47319 0.83175 0.0
H1573 H 0.2996 0.51641 0.82973 0.0
H1574 H 0.29203 0.47163 0.80938 0.0
H1575 H 0.2885 0.51409 0.80742 0.0
H1576 H 0.28936 0.45918 0.85343 0.0
H1577 H 0.26782 0.48885 0.87668 0.0
H1578 H 0.26768 0.44756 0.84891 0.0
H1579 H 0.24652 0.47674 0.87168 0.0
H1580 H 0.32232 0.43582 0.86962 0.0
H1581 H 0.34485 0.45496 0.83752 0.0
H1582 H 0.2523 0.52603 0.84394 0.0
H1583 H 0.25154 0.48556 0.82788 0.0
Li1584 Li 0.48099 0.32127 0.86959 0.0
Li1585 Li 0.49087 0.30477 0.88505 0.0
Li1586 Li 0.50508 0.32004 0.8719 0.0
Li1587 Li 0.49289 0.30155 0.86134 0.0
C1588 C 0.48437 0.33438 0.89206 0.0
N1589 N 0.46806 0.35383 0.90353 0.0
C1590 C 0.47569 0.331 0.90264 0.0
C1591 C 0.48482 0.34767 0.88737 0.0
C1592 C 0.46752 0.34098 0.9083 0.0
C1593 C 0.47647 0.35735 0.89328 0.0
C1594 C 0.46814 0.29316 0.8657 0.0
C1595 C 0.46198 0.27021 0.86051 0.0
N1596 N 0.45285 0.27481 0.85136 0.0
C1597 C 0.45867 0.29766 0.85628 0.0
C1598 C 0.46978 0.27933 0.86789 0.0
C1599 C 0.45104 0.28822 0.84913 0.0
C1600 C 0.46596 0.34211 0.85701 0.0
N1601 N 0.46583 0.33253 0.8668 0.0
C1602 C 0.44341 0.33855 0.87313 0.0
C1603 C 0.45485 0.33053 0.87473 0.0
C1604 C 0.44328 0.34865 0.8632 0.0
C1605 C 0.45474 0.35036 0.85504 0.0
H1606 H 0.47477 0.34335 0.85074 0.0
H1607 H 0.45499 0.32267 0.88229 0.0
C1608 C 0.49732 0.29968 0.91213 0.0
N1609 N 0.48845 0.29666 0.90213 0.0
C1610 C 0.49517 0.29488 0.92516 0.0
C1611 C 0.47471 0.28409 0.91739 0.0
C1612 C 0.47734 0.28898 0.90446 0.0
C1613 C 0.48363 0.28716 0.92794 0.0
H1614 H 0.50584 0.30616 0.91005 0.0
H1615 H 0.47028 0.28703 0.8964 0.0
C1616 C 0.50247 0.32718 0.84629 0.0
N1617 N 0.51981 0.34079 0.82926 0.0
C1618 C 0.50972 0.32014 0.83647 0.0
C1619 C 0.50401 0.34115 0.84742 0.0
C1620 C 0.51843 0.32721 0.82794 0.0
C1621 C 0.51285 0.34784 0.83874 0.0
C1622 C 0.5147 0.29302 0.8838 0.0
C1623 C 0.52599 0.29863 0.89011 0.0
C1624 C 0.51059 0.27996 0.88716 0.0
C1625 C 0.53293 0.29109 0.89979 0.0
C1626 C 0.51778 0.27276 0.8969 0.0
N1627 N 0.52871 0.27843 0.90296 0.0
C1628 C 0.52183 0.34059 0.88141 0.0
C1629 C 0.5314 0.32809 0.86344 0.0
C1630 C 0.53292 0.34919 0.88167 0.0
N1631 N 0.52114 0.33048 0.87221 0.0
C1632 C 0.54266 0.33658 0.86323 0.0
C1633 C 0.54342 0.34744 0.87231 0.0
H1634 H 0.51371 0.34203 0.88851 0.0
H1635 H 0.53072 0.31978 0.85642 0.0
C1636 C 0.48531 0.29148 0.83626 0.0
N1637 N 0.4926 0.28858 0.84748 0.0
C1638 C 0.48321 0.28164 0.82648 0.0
C1639 C 0.49654 0.26615 0.83982 0.0
C1640 C 0.49841 0.27632 0.84934 0.0
C1641 C 0.48868 0.26871 0.82832 0.0
H1642 H 0.48074 0.30133 0.83517 0.0
H1643 H 0.50416 0.27433 0.85836 0.0
O1644 O 0.49222 0.32469 0.88616 0.0
O1645 O 0.47597 0.30223 0.87254 0.0
O1646 O 0.49396 0.32042 0.85479 0.0
O1647 O 0.50772 0.30028 0.87437 0.0
H1648 H 0.47515 0.32076 0.90636 0.0
H1649 H 0.49141 0.35043 0.87913 0.0
H1650 H 0.46071 0.33849 0.91645 0.0
H1651 H 0.47664 0.36764 0.88969 0.0
H1652 H 0.46323 0.25948 0.86201 0.0
H1653 H 0.45734 0.30832 0.85438 0.0
H1654 H 0.47716 0.27567 0.87505 0.0
H1655 H 0.44372 0.29155 0.84176 0.0
H1656 H 0.43472 0.33675 0.87949 0.0
H1657 H 0.4551 0.35809 0.84734 0.0
H1658 H 0.50213 0.2977 0.93309 0.0
H1659 H 0.46568 0.27821 0.91918 0.0
H1660 H 0.50873 0.30932 0.83549 0.0
H1661 H 0.4986 0.34673 0.85507 0.0
H1662 H 0.52413 0.32189 0.82032 0.0
H1663 H 0.51422 0.35863 0.83957 0.0
H1664 H 0.52933 0.30871 0.88764 0.0
H1665 H 0.5018 0.27552 0.88247 0.0
H1666 H 0.54165 0.29531 0.90479 0.0
H1667 H 0.51465 0.26269 0.89968 0.0
H1668 H 0.53324 0.35715 0.88913 0.0
H1669 H 0.55048 0.33484 0.85581 0.0
H1670 H 0.47699 0.28397 0.81781 0.0
H1671 H 0.50109 0.25636 0.84149 0.0
Li1672 Li 0.69071 0.50073 0.88662 0.0
Li1673 Li 0.67552 0.48627 0.87343 0.0
Li1674 Li 0.69569 0.4972 0.86334 0.0
Li1675 Li 0.67596 0.51075 0.86848 0.0
C1676 C 0.70187 0.47596 0.88692 0.0
N1677 N 0.71581 0.46148 0.90622 0.0
C1678 C 0.69596 0.46467 0.89294 0.0
C1679 C 0.71492 0.47981 0.89062 0.0
C1680 C 0.70317 0.45749 0.90269 0.0
C1681 C 0.72178 0.47239 0.90043 0.0
C1682 C 0.65892 0.50222 0.89241 0.0
C1683 C 0.63504 0.50687 0.8932 0.0
N1684 N 0.63496 0.50388 0.90659 0.0
C1685 C 0.65861 0.49936 0.90622 0.0
C1686 C 0.64705 0.50614 0.88588 0.0
C1687 C 0.6464 0.50018 0.91318 0.0
C1688 C 0.70517 0.51517 0.90643 0.0
N1689 N 0.698 0.50372 0.90404 0.0
C1690 C 0.7018 0.49604 0.92652 0.0
C1691 C 0.69606 0.49432 0.91382 0.0
C1692 C 0.70934 0.50769 0.92925 0.0
C1693 C 0.7109 0.51742 0.9191 0.0
H1694 H 0.70642 0.52255 0.89851 0.0
H1695 H 0.69009 0.48545 0.91174 0.0
C1696 C 0.66406 0.46254 0.86276 0.0
N1697 N 0.66443 0.47067 0.8738 0.0
C1698 C 0.65542 0.45142 0.86243 0.0
C1699 C 0.64807 0.45703 0.88499 0.0
C1700 C 0.6569 0.46796 0.88491 0.0
C1701 C 0.64713 0.44871 0.87358 0.0
H1702 H 0.67028 0.46487 0.85411 0.0
H1703 H 0.65768 0.47431 0.8937 0.0
C1704 C 0.70518 0.52178 0.86712 0.0
N1705 N 0.72586 0.53539 0.85436 0.0
C1706 C 0.70228 0.53132 0.85716 0.0
C1707 C 0.71858 0.51928 0.87072 0.0
C1708 C 0.71288 0.53808 0.85081 0.0
C1709 C 0.7289 0.52623 0.8641 0.0
C1710 C 0.66725 0.49441 0.84622 0.0
C1711 C 0.67022 0.4952 0.83247 0.0
C1712 C 0.65393 0.49238 0.85035 0.0
C1713 C 0.65977 0.49415 0.82308 0.0
C1714 C 0.64377 0.49136 0.84066 0.0
N1715 N 0.64687 0.49228 0.82733 0.0
C1716 C 0.72069 0.48774 0.85338 0.0
C1717 C 0.70905 0.50324 0.83937 0.0
C1718 C 0.73175 0.48783 0.8447 0.0
N1719 N 0.70978 0.49556 0.85068 0.0
C1720 C 0.71988 0.50368 0.83045 0.0
C1721 C 0.7315 0.49608 0.83319 0.0
H1722 H 0.72095 0.48169 0.86243 0.0
H1723 H 0.70022 0.50936 0.83753 0.0
C1724 C 0.66266 0.53477 0.87402 0.0
N1725 N 0.66558 0.5261 0.86383 0.0
C1726 C 0.65479 0.54617 0.87158 0.0
C1727 C 0.6533 0.53963 0.84814 0.0
C1728 C 0.6613 0.52841 0.85102 0.0
C1729 C 0.6499 0.54862 0.85852 0.0
H1730 H 0.66631 0.53271 0.88409 0.0
H1731 H 0.66407 0.5216 0.84301 0.0
O1732 O 0.69493 0.48315 0.8774 0.0
O1733 O 0.67085 0.50154 0.88548 0.0
O1734 O 0.69496 0.51482 0.87322 0.0
O1735 O 0.6774 0.49547 0.85552 0.0
H1736 H 0.68591 0.4615 0.89014 0.0
H1737 H 0.71963 0.48856 0.88612 0.0
H1738 H 0.6987 0.44876 0.90747 0.0
H1739 H 0.73184 0.47532 0.90348 0.0
H1740 H 0.6258 0.50988 0.88826 0.0
H1741 H 0.66768 0.49643 0.91149 0.0
H1742 H 0.64709 0.50878 0.87532 0.0
H1743 H 0.64602 0.4979 0.92384 0.0
H1744 H 0.70017 0.48844 0.9342 0.0
H1745 H 0.71661 0.52656 0.9209 0.0
H1746 H 0.65495 0.44525 0.85344 0.0
H1747 H 0.64203 0.4551 0.89389 0.0
H1748 H 0.69196 0.53337 0.85427 0.0
H1749 H 0.72099 0.51194 0.87842 0.0
H1750 H 0.7108 0.54542 0.84301 0.0
H1751 H 0.73932 0.52431 0.86669 0.0
H1752 H 0.68049 0.49664 0.82908 0.0
H1753 H 0.65149 0.4914 0.8609 0.0
H1754 H 0.66192 0.49481 0.8124 0.0
H1755 H 0.63342 0.48979 0.84373 0.0
H1756 H 0.74056 0.48187 0.8472 0.0
H1757 H 0.71921 0.51001 0.82156 0.0
H1758 H 0.6523 0.55282 0.87988 0.0
H1759 H 0.64987 0.54129 0.8379 0.0
Li1760 Li 0.49631 0.68576 0.88289 0.0
Li1761 Li 0.50775 0.67348 0.86479 0.0
Li1762 Li 0.49525 0.69406 0.86036 0.0
Li1763 Li 0.48358 0.67319 0.86593 0.0
C1764 C 0.51936 0.70224 0.86793 0.0
N1765 N 0.53452 0.72384 0.859 0.0
C1766 C 0.52972 0.70024 0.85858 0.0
C1767 C 0.51679 0.7152 0.87282 0.0
C1768 C 0.53726 0.7113 0.85419 0.0
C1769 C 0.52453 0.726 0.86814 0.0
C1770 C 0.50386 0.6556 0.88381 0.0
C1771 C 0.51287 0.63324 0.88055 0.0
N1772 N 0.5203 0.63465 0.892 0.0
C1773 C 0.51154 0.6568 0.89557 0.0
C1774 C 0.50446 0.6437 0.87627 0.0
C1775 C 0.51979 0.64609 0.89953 0.0
C1776 C 0.4877 0.68525 0.90985 0.0
N1777 N 0.49731 0.69015 0.9014 0.0
C1778 C 0.50925 0.70001 0.91982 0.0
C1779 C 0.50796 0.69741 0.90605 0.0
C1780 C 0.4994 0.69519 0.92874 0.0
C1781 C 0.48845 0.68784 0.92363 0.0
H1782 H 0.47959 0.67915 0.90589 0.0
H1783 H 0.51561 0.70091 0.89913 0.0
C1784 C 0.52442 0.65654 0.84886 0.0
N1785 N 0.5235 0.66359 0.86056 0.0
C1786 C 0.53588 0.64884 0.84613 0.0
C1787 C 0.5453 0.65608 0.86743 0.0
C1788 C 0.53371 0.66369 0.86969 0.0
C1789 C 0.54646 0.64843 0.85556 0.0
H1790 H 0.51622 0.65683 0.84169 0.0
H1791 H 0.53272 0.66952 0.87886 0.0
C1792 C 0.47202 0.69694 0.88256 0.0
N1793 N 0.45634 0.70727 0.90314 0.0
C1794 C 0.46059 0.68995 0.88695 0.0
C1795 C 0.47542 0.70923 0.88857 0.0
C1796 C 0.4528 0.69534 0.89737 0.0
C1797 C 0.46739 0.71426 0.89899 0.0
C1798 C 0.48746 0.67204 0.83971 0.0
C1799 C 0.48016 0.68083 0.83145 0.0
C1800 C 0.48653 0.65813 0.83765 0.0
C1801 C 0.47197 0.67552 0.82129 0.0
C1802 C 0.4782 0.65322 0.82741 0.0
N1803 N 0.47115 0.66194 0.81951 0.0
C1804 C 0.50374 0.71008 0.83898 0.0
C1805 C 0.48753 0.72058 0.85309 0.0
C1806 C 0.50509 0.7218 0.83139 0.0
N1807 N 0.49523 0.70977 0.8497 0.0
C1808 C 0.48848 0.73251 0.84569 0.0
C1809 C 0.49748 0.73324 0.8348 0.0
H1810 H 0.50964 0.70125 0.8365 0.0
H1811 H 0.4808 0.72 0.86163 0.0
C1812 C 0.46729 0.65072 0.87036 0.0
N1813 N 0.46793 0.66247 0.86336 0.0
C1814 C 0.45601 0.64243 0.86928 0.0
C1815 C 0.44617 0.65847 0.85376 0.0
C1816 C 0.45763 0.66655 0.85527 0.0
C1817 C 0.44527 0.64628 0.86091 0.0
H1818 H 0.47549 0.64783 0.87691 0.0
H1819 H 0.45827 0.67611 0.85008 0.0
O1820 O 0.51165 0.6916 0.87211 0.0
O1821 O 0.49594 0.66608 0.87959 0.0
O1822 O 0.47983 0.69177 0.87244 0.0
O1823 O 0.49544 0.67703 0.84979 0.0
H1824 H 0.53181 0.69029 0.85464 0.0
H1825 H 0.50877 0.71693 0.88001 0.0
H1826 H 0.54526 0.70991 0.8469 0.0
H1827 H 0.52258 0.73611 0.87175 0.0
H1828 H 0.51352 0.62403 0.87476 0.0
H1829 H 0.51124 0.66594 0.90151 0.0
H1830 H 0.49864 0.64264 0.8671 0.0
H1831 H 0.52584 0.64691 0.90858 0.0
H1832 H 0.51788 0.70564 0.92347 0.0
H1833 H 0.48082 0.68373 0.93029 0.0
H1834 H 0.53644 0.64329 0.83675 0.0
H1835 H 0.5531 0.65594 0.87507 0.0
H1836 H 0.4578 0.68043 0.88242 0.0
H1837 H 0.48429 0.71471 0.88537 0.0
H1838 H 0.44396 0.69002 0.90091 0.0
H1839 H 0.46997 0.72371 0.9038 0.0
H1840 H 0.48072 0.69162 0.83293 0.0
H1841 H 0.49204 0.65119 0.84402 0.0
H1842 H 0.46622 0.68219 0.81485 0.0
H1843 H 0.47731 0.64247 0.82576 0.0
H1844 H 0.51196 0.7219 0.82289 0.0
H1845 H 0.48245 0.74113 0.84862 0.0
H1846 H 0.45573 0.63306 0.87488 0.0
H1847 H 0.43801 0.66183 0.84732 0.0
Li1848 Li 0.69665 0.4972 0.13425 0.0
Li1849 Li 0.67571 0.48931 0.12411 0.0
Li1850 Li 0.6924 0.50433 0.11138 0.0
Li1851 Li 0.67921 0.51275 0.12999 0.0
C1852 C 0.7051 0.47699 0.11948 0.0
N1853 N 0.7269 0.46012 0.12339 0.0
C1854 C 0.70339 0.46466 0.12607 0.0
C1855 C 0.71785 0.48072 0.11479 0.0
C1856 C 0.71455 0.45627 0.12798 0.0
C1857 C 0.72876 0.47205 0.11688 0.0
C1858 C 0.66952 0.49596 0.15239 0.0
C1859 C 0.64679 0.49257 0.16037 0.0
N1860 N 0.6512 0.49385 0.17329 0.0
C1861 C 0.67384 0.49717 0.16575 0.0
C1862 C 0.65589 0.49358 0.14967 0.0
C1863 C 0.66442 0.49611 0.17617 0.0
C1864 C 0.7231 0.49592 0.14478 0.0
N1865 N 0.71026 0.49136 0.1461 0.0
C1866 C 0.71662 0.47688 0.16421 0.0
C1867 C 0.70686 0.48198 0.15549 0.0
C1868 C 0.72997 0.48145 0.16316 0.0
C1869 C 0.73319 0.49106 0.15326 0.0
H1870 H 0.7255 0.50325 0.13706 0.0
H1871 H 0.69659 0.47836 0.15607 0.0
C1872 C 0.65574 0.47302 0.11189 0.0
N1873 N 0.66389 0.47452 0.1228 0.0
C1874 C 0.64674 0.46221 0.11126 0.0
C1875 C 0.65476 0.4548 0.13309 0.0
C1876 C 0.66373 0.46561 0.1332 0.0
C1877 C 0.64609 0.45306 0.12205 0.0
H1878 H 0.65615 0.4803 0.10377 0.0
H1879 H 0.67043 0.46706 0.14169 0.0
C1880 C 0.70433 0.52409 0.13572 0.0
N1881 N 0.71556 0.54148 0.15437 0.0
C1882 C 0.70016 0.52371 0.14917 0.0
C1883 C 0.71421 0.53332 0.13175 0.0
C1884 C 0.70596 0.53258 0.15845 0.0
C1885 C 0.71977 0.54203 0.14133 0.0
C1886 C 0.66307 0.51493 0.10889 0.0
C1887 C 0.66665 0.52528 0.10003 0.0
C1888 C 0.65006 0.51456 0.11429 0.0
C1889 C 0.65721 0.53526 0.09691 0.0
C1890 C 0.64092 0.52474 0.11095 0.0
N1891 N 0.64466 0.53481 0.10241 0.0
C1892 C 0.70085 0.49687 0.08585 0.0
C1893 C 0.70529 0.51979 0.09111 0.0
C1894 C 0.7067 0.4984 0.07318 0.0
N1895 N 0.70025 0.50749 0.09445 0.0
C1896 C 0.71114 0.52181 0.07845 0.0
C1897 C 0.71191 0.511 0.06933 0.0
H1898 H 0.69675 0.48722 0.08885 0.0
H1899 H 0.70467 0.52802 0.09824 0.0
C1900 C 0.66132 0.52932 0.14599 0.0
N1901 N 0.67056 0.52905 0.13586 0.0
C1902 C 0.65463 0.54124 0.14918 0.0
C1903 C 0.66727 0.55258 0.13172 0.0
C1904 C 0.67384 0.54045 0.12897 0.0
C1905 C 0.6574 0.55302 0.14185 0.0
H1906 H 0.65886 0.52032 0.15146 0.0
H1907 H 0.68134 0.54001 0.12106 0.0
O1908 O 0.6944 0.48553 0.1179 0.0
O1909 O 0.67868 0.49676 0.14209 0.0
O1910 O 0.69883 0.51553 0.1264 0.0
O1911 O 0.6723 0.50528 0.11235 0.0
H1912 H 0.69359 0.46166 0.1298 0.0
H1913 H 0.71935 0.49029 0.10976 0.0
H1914 H 0.71341 0.44673 0.13314 0.0
H1915 H 0.73871 0.47483 0.11339 0.0
H1916 H 0.63621 0.49077 0.1584 0.0
H1917 H 0.68436 0.49891 0.16807 0.0
H1918 H 0.65233 0.49262 0.13943 0.0
H1919 H 0.66762 0.49707 0.18656 0.0
H1920 H 0.71378 0.46936 0.1716 0.0
H1921 H 0.74335 0.49494 0.15223 0.0
H1922 H 0.64013 0.46119 0.10262 0.0
H1923 H 0.65462 0.44786 0.14153 0.0
H1924 H 0.69251 0.51669 0.15242 0.0
H1925 H 0.71755 0.53374 0.12136 0.0
H1926 H 0.70281 0.53239 0.16889 0.0
H1927 H 0.72743 0.54922 0.13839 0.0
H1928 H 0.67667 0.5257 0.09574 0.0
H1929 H 0.64708 0.50656 0.12107 0.0
H1930 H 0.65988 0.5434 0.09015 0.0
H1931 H 0.63085 0.52465 0.11515 0.0
H1932 H 0.70687 0.48988 0.06635 0.0
H1933 H 0.71507 0.53166 0.07585 0.0
H1934 H 0.64698 0.54112 0.15697 0.0
H1935 H 0.66976 0.56149 0.1259 0.0
Li1936 Li 0.49811 0.68941 0.14077 0.0
Li1937 Li 0.50852 0.66759 0.13812 0.0
Li1938 Li 0.49718 0.67838 0.11892 0.0
Li1939 Li 0.48488 0.66905 0.13761 0.0
C1940 C 0.51874 0.69599 0.12343 0.0
N1941 N 0.52976 0.71903 0.1123 0.0
C1942 C 0.53271 0.69778 0.12327 0.0
C1943 C 0.51035 0.70594 0.11798 0.0
C1944 C 0.53809 0.70949 0.11758 0.0
C1945 C 0.51613 0.7175 0.11238 0.0
C1946 C 0.50277 0.66825 0.16407 0.0
C1947 C 0.51044 0.64883 0.17658 0.0
N1948 N 0.51575 0.65714 0.18612 0.0
C1949 C 0.50812 0.67658 0.17411 0.0
C1950 C 0.50376 0.65425 0.16543 0.0
C1951 C 0.5147 0.67078 0.18513 0.0
C1952 C 0.4923 0.71696 0.14836 0.0
N1953 N 0.50098 0.70637 0.14907 0.0
C1954 C 0.5166 0.71935 0.16196 0.0
C1955 C 0.51309 0.70747 0.15538 0.0
C1956 C 0.50761 0.73027 0.16191 0.0
C1957 C 0.4954 0.72906 0.15482 0.0
H1958 H 0.48298 0.71608 0.14283 0.0
H1959 H 0.51999 0.69902 0.15535 0.0
C1960 C 0.52543 0.64479 0.1382 0.0
N1961 N 0.52407 0.65763 0.14275 0.0
C1962 C 0.53714 0.63753 0.14098 0.0
C1963 C 0.54578 0.65684 0.15314 0.0
C1964 C 0.5339 0.66374 0.15009 0.0
C1965 C 0.54755 0.64358 0.14848 0.0
H1966 H 0.51753 0.64029 0.13221 0.0
H1967 H 0.53253 0.67402 0.15347 0.0
C1968 C 0.47095 0.69326 0.13366 0.0
N1969 N 0.4483 0.70597 0.14373 0.0
C1970 C 0.46779 0.6923 0.14737 0.0
C1971 C 0.46256 0.70065 0.12507 0.0
C1972 C 0.4563 0.69881 0.15226 0.0
C1973 C 0.45116 0.70702 0.13036 0.0
C1974 C 0.4883 0.64886 0.12098 0.0
C1975 C 0.48058 0.64971 0.10921 0.0
C1976 C 0.4872 0.63745 0.1292 0.0
C1977 C 0.47173 0.63924 0.10598 0.0
C1978 C 0.4782 0.62721 0.12564 0.0
N1979 N 0.47071 0.62831 0.11421 0.0
C1980 C 0.51037 0.68079 0.09416 0.0
C1981 C 0.48678 0.68454 0.09314 0.0
C1982 C 0.51163 0.68341 0.08041 0.0
N1983 N 0.4981 0.68147 0.10019 0.0
C1984 C 0.48752 0.68695 0.0793 0.0
C1985 C 0.5001 0.68644 0.07273 0.0
H1986 H 0.5192 0.67834 0.10007 0.0
H1987 H 0.47716 0.68496 0.09826 0.0
C1988 C 0.46734 0.65369 0.15413 0.0
N1989 N 0.4685 0.66019 0.14213 0.0
C1990 C 0.45577 0.64626 0.15705 0.0
C1991 C 0.44658 0.65281 0.13543 0.0
C1992 C 0.45832 0.66015 0.13295 0.0
C1993 C 0.4453 0.64554 0.14753 0.0
H1994 H 0.47548 0.65409 0.16134 0.0
H1995 H 0.45951 0.66551 0.12352 0.0
O1996 O 0.51334 0.68463 0.1291 0.0
O1997 O 0.49639 0.67376 0.15313 0.0
O1998 O 0.48204 0.68687 0.12852 0.0
O1999 O 0.49677 0.65918 0.12448 0.0
H2000 H 0.53931 0.69019 0.12752 0.0
H2001 H 0.49951 0.70477 0.11809 0.0
H2002 H 0.54889 0.71101 0.11738 0.0
H2003 H 0.50977 0.72528 0.10812 0.0
H2004 H 0.51142 0.63802 0.17765 0.0
H2005 H 0.50708 0.6874 0.17349 0.0
H2006 H 0.49959 0.64765 0.15785 0.0
H2007 H 0.51894 0.67712 0.19293 0.0
H2008 H 0.52623 0.71998 0.16708 0.0
H2009 H 0.48819 0.73726 0.15454 0.0
H2010 H 0.53818 0.62743 0.13697 0.0
H2011 H 0.5535 0.66184 0.15903 0.0
H2012 H 0.47412 0.68665 0.1542 0.0
H2013 H 0.46485 0.70146 0.11443 0.0
H2014 H 0.45374 0.69817 0.16285 0.0
H2015 H 0.4446 0.71278 0.12384 0.0
H2016 H 0.48131 0.65842 0.10271 0.0
H2017 H 0.49312 0.63655 0.13829 0.0
H2018 H 0.46563 0.63982 0.09695 0.0
H2019 H 0.47716 0.6184 0.13198 0.0
H2020 H 0.52158 0.68316 0.07593 0.0
H2021 H 0.47831 0.68897 0.07381 0.0
H2022 H 0.45509 0.641 0.1666 0.0
H2023 H 0.43883 0.65244 0.12775 0.0
Li2024 Li 0.48228 0.32109 0.13401 0.0
Li2025 Li 0.49659 0.3017 0.13534 0.0
Li2026 Li 0.50512 0.32335 0.12727 0.0
Li2027 Li 0.48976 0.31003 0.11304 0.0
C2028 C 0.49335 0.32312 0.1573 0.0
N2029 N 0.48178 0.33203 0.18102 0.0
C2030 C 0.48768 0.31389 0.16631 0.0
C2031 C 0.49318 0.33688 0.16036 0.0
C2032 C 0.48188 0.31859 0.17826 0.0
C2033 C 0.48726 0.34118 0.1724 0.0
C2034 C 0.47282 0.29021 0.12417 0.0
C2035 C 0.47452 0.26919 0.11206 0.0
N2036 N 0.46197 0.26575 0.1164 0.0
C2037 C 0.45992 0.2865 0.12845 0.0
C2038 C 0.48017 0.28151 0.11587 0.0
C2039 C 0.45463 0.27407 0.12445 0.0
C2040 C 0.46571 0.34331 0.13964 0.0
N2041 N 0.46733 0.32993 0.14203 0.0
C2042 C 0.447 0.32929 0.15497 0.0
C2043 C 0.45834 0.32286 0.1496 0.0
C2044 C 0.44501 0.3431 0.15252 0.0
C2045 C 0.45461 0.35014 0.14485 0.0
H2046 H 0.4729 0.34863 0.13347 0.0
H2047 H 0.45991 0.31221 0.15134 0.0
C2048 C 0.5129 0.28875 0.15396 0.0
N2049 N 0.50198 0.28656 0.14595 0.0
C2050 C 0.51786 0.2785 0.16222 0.0
C2051 C 0.50008 0.26397 0.15408 0.0
C2052 C 0.49545 0.27451 0.14602 0.0
C2053 C 0.51143 0.26591 0.16231 0.0
H2054 H 0.51769 0.29854 0.15404 0.0
H2055 H 0.4865 0.27301 0.14011 0.0
C2056 C 0.49345 0.34089 0.11082 0.0
N2057 N 0.50337 0.36354 0.09795 0.0
C2058 C 0.49493 0.34101 0.0968 0.0
C2059 C 0.49689 0.35236 0.11827 0.0
C2060 C 0.49999 0.35255 0.09049 0.0
C2061 C 0.50193 0.36369 0.11159 0.0
C2062 C 0.51939 0.29768 0.11967 0.0
C2063 C 0.52997 0.30127 0.12828 0.0
C2064 C 0.5206 0.28621 0.11158 0.0
C2065 C 0.54149 0.29319 0.1288 0.0
C2066 C 0.5323 0.2784 0.11238 0.0
N2067 N 0.54241 0.28201 0.12091 0.0
C2068 C 0.52563 0.33961 0.1383 0.0
C2069 C 0.5265 0.33716 0.11455 0.0
C2070 C 0.53683 0.34811 0.13807 0.0
N2071 N 0.52062 0.33451 0.12663 0.0
C2072 C 0.53757 0.34581 0.11381 0.0
C2073 C 0.54284 0.3515 0.12568 0.0
H2074 H 0.52095 0.33704 0.1478 0.0
H2075 H 0.5224 0.33275 0.10545 0.0
C2076 C 0.47264 0.30263 0.09141 0.0
N2077 N 0.48559 0.30508 0.09517 0.0
C2078 C 0.46979 0.29825 0.07834 0.0
C2079 C 0.49361 0.29948 0.07322 0.0
C2080 C 0.496 0.30365 0.08642 0.0
C2081 C 0.48036 0.29659 0.06904 0.0
H2082 H 0.46457 0.30386 0.09864 0.0
H2083 H 0.50618 0.30578 0.08972 0.0
O2084 O 0.49874 0.31874 0.1454 0.0
O2085 O 0.47794 0.30254 0.12768 0.0
O2086 O 0.4886 0.32963 0.11718 0.0
O2087 O 0.50798 0.30543 0.11904 0.0
H2088 H 0.4876 0.30322 0.16404 0.0
H2089 H 0.4974 0.34417 0.15343 0.0
H2090 H 0.4774 0.31157 0.1853 0.0
H2091 H 0.48698 0.3518 0.17486 0.0
H2092 H 0.48012 0.26235 0.10566 0.0
H2093 H 0.45403 0.29318 0.13476 0.0
H2094 H 0.49015 0.2842 0.1125 0.0
H2095 H 0.44466 0.27106 0.1277 0.0
H2096 H 0.43984 0.32353 0.16086 0.0
H2097 H 0.45333 0.36072 0.14248 0.0
H2098 H 0.5266 0.28042 0.16848 0.0
H2099 H 0.49459 0.25453 0.15415 0.0
H2100 H 0.49221 0.33229 0.09085 0.0
H2101 H 0.49598 0.35241 0.12914 0.0
H2102 H 0.50123 0.35275 0.07966 0.0
H2103 H 0.50477 0.37257 0.11725 0.0
H2104 H 0.52922 0.31008 0.13464 0.0
H2105 H 0.51263 0.28337 0.1047 0.0
H2106 H 0.5497 0.2958 0.1355 0.0
H2107 H 0.53335 0.26947 0.1062 0.0
H2108 H 0.54074 0.35192 0.14752 0.0
H2109 H 0.54173 0.3482 0.10401 0.0
H2110 H 0.45945 0.29601 0.07565 0.0
H2111 H 0.50205 0.29868 0.06635 0.0
C2112 C 0.14661 0.44855 0.37493 0.0
C2113 C 0.13998 0.44576 0.36272 0.0
C2114 C 0.14706 0.43888 0.38516 0.0
C2115 C 0.14325 0.40256 0.39195 0.0
H2116 H 0.13274 0.41421 0.42776 0.0
C2117 C 0.12803 0.36495 0.43341 0.0
C2118 C 0.13188 0.36771 0.44677 0.0
C2119 C 0.13016 0.37444 0.42324 0.0
C2120 C 0.13592 0.41081 0.41789 0.0
H2121 H 0.12908 0.43054 0.35143 0.0
H2122 H 0.12984 0.41365 0.36933 0.0
H2123 H 0.1349 0.43077 0.40974 0.0
H2124 H 0.14101 0.38265 0.45989 0.0
H2125 H 0.14508 0.39906 0.44206 0.0
H2126 H 0.14424 0.3826 0.40005 0.0
C2127 C 0.13469 0.4233 0.37098 0.0
C2128 C 0.13714 0.42031 0.40756 0.0
C2129 C 0.13416 0.43299 0.36079 0.0
C2130 C 0.13803 0.38015 0.44969 0.0
C2131 C 0.14022 0.38962 0.43949 0.0
C2132 C 0.14211 0.39307 0.40229 0.0
C2133 C 0.14099 0.42621 0.38333 0.0
C2134 C 0.14065 0.41625 0.39446 0.0
C2135 C 0.13628 0.38689 0.42615 0.0
C2136 C 0.13826 0.39706 0.41534 0.0
H2137 H 0.15111 0.45834 0.37672 0.0
H2138 H 0.15207 0.44135 0.39455 0.0
H2139 H 0.14614 0.39919 0.38197 0.0
H2140 H 0.12346 0.35539 0.43076 0.0
H2141 H 0.12684 0.37207 0.41311 0.0
C2142 C 0.61906 0.11615 0.44766 0.0
C2143 C 0.631 0.12372 0.44652 0.0
C2144 C 0.60928 0.11665 0.43755 0.0
C2145 C 0.59711 0.13763 0.40948 0.0
H2146 H 0.57997 0.10453 0.39764 0.0
C2147 C 0.56175 0.1356 0.36325 0.0
C2148 C 0.55018 0.12749 0.36429 0.0
C2149 C 0.57168 0.13522 0.37324 0.0
C2150 C 0.58454 0.11388 0.40094 0.0
H2151 H 0.64207 0.13762 0.43375 0.0
H2152 H 0.62493 0.13855 0.41614 0.0
H2153 H 0.59718 0.10371 0.41517 0.0
H2154 H 0.5398 0.11284 0.37676 0.0
H2155 H 0.55706 0.11223 0.39425 0.0
H2156 H 0.58442 0.14782 0.39531 0.0
C2157 C 0.62309 0.13236 0.42495 0.0
C2158 C 0.59441 0.1134 0.41097 0.0
C2159 C 0.6329 0.13183 0.43504 0.0
C2160 C 0.5487 0.11905 0.37558 0.0
C2161 C 0.5586 0.1187 0.38559 0.0
C2162 C 0.58721 0.13811 0.39946 0.0
C2163 C 0.61119 0.12476 0.42609 0.0
C2164 C 0.60078 0.12527 0.41536 0.0
C2165 C 0.57022 0.12674 0.38451 0.0
C2166 C 0.5808 0.12624 0.3951 0.0
H2167 H 0.61718 0.10998 0.45648 0.0
H2168 H 0.60011 0.11084 0.43881 0.0
H2169 H 0.60172 0.14696 0.41278 0.0
H2170 H 0.56326 0.14207 0.35457 0.0
H2171 H 0.5806 0.1414 0.37201 0.0
C2172 C 0.8477 0.63145 0.42341 0.0
C2173 C 0.85629 0.64263 0.42506 0.0
C2174 C 0.84712 0.62463 0.41111 0.0
C2175 C 0.86804 0.61581 0.38295 0.0
H2176 H 0.83475 0.6056 0.36516 0.0
C2177 C 0.86943 0.58027 0.33752 0.0
C2178 C 0.8595 0.57021 0.33724 0.0
C2179 C 0.86807 0.59134 0.3461 0.0
C2180 C 0.84414 0.60826 0.37005 0.0
H2181 H 0.87055 0.65572 0.41477 0.0
H2182 H 0.86993 0.64337 0.39351 0.0
H2183 H 0.83406 0.62059 0.38469 0.0
H2184 H 0.84025 0.56386 0.34527 0.0
H2185 H 0.83807 0.58281 0.36071 0.0
H2186 H 0.87814 0.60291 0.36907 0.0
C2187 C 0.86364 0.63999 0.40178 0.0
C2188 C 0.84372 0.6169 0.38117 0.0
C2189 C 0.86406 0.64696 0.414 0.0
C2190 C 0.84795 0.57161 0.34525 0.0
C2191 C 0.84671 0.58253 0.35405 0.0
C2192 C 0.86845 0.60698 0.37202 0.0
C2193 C 0.85525 0.62871 0.40028 0.0
C2194 C 0.85566 0.62061 0.3878 0.0
C2195 C 0.85691 0.59238 0.35484 0.0
C2196 C 0.85649 0.60292 0.36552 0.0
H2197 H 0.84172 0.62768 0.43172 0.0
H2198 H 0.84069 0.61584 0.41022 0.0
H2199 H 0.87737 0.61841 0.38801 0.0
H2200 H 0.87838 0.57939 0.33133 0.0
H2201 H 0.87596 0.59889 0.34615 0.0
C2202 C 0.35305 0.84747 0.42141 0.0
C2203 C 0.35105 0.86021 0.42731 0.0
C2204 C 0.36159 0.846 0.4103 0.0
C2205 C 0.37908 0.86504 0.38334 0.0
H2206 H 0.40564 0.83645 0.38587 0.0
C2207 C 0.43576 0.8543 0.3634 0.0
C2208 C 0.43454 0.85764 0.3497 0.0
C2209 C 0.42431 0.85277 0.37142 0.0
C2210 C 0.39825 0.84445 0.385 0.0
H2211 H 0.35633 0.8814 0.42605 0.0
H2212 H 0.37116 0.87884 0.40668 0.0
H2213 H 0.38755 0.83773 0.40247 0.0
H2214 H 0.42039 0.86163 0.33352 0.0
H2215 H 0.40028 0.8589 0.34757 0.0
H2216 H 0.39014 0.8721 0.36621 0.0
C2217 C 0.36598 0.87002 0.41051 0.0
C2218 C 0.38782 0.84511 0.39442 0.0
C2219 C 0.35747 0.87149 0.42162 0.0
C2220 C 0.42161 0.859 0.34405 0.0
C2221 C 0.41013 0.85755 0.3521 0.0
C2222 C 0.3895 0.86435 0.37388 0.0
C2223 C 0.36828 0.85724 0.40485 0.0
C2224 C 0.37831 0.8556 0.39388 0.0
C2225 C 0.41138 0.85458 0.36591 0.0
C2226 C 0.39937 0.85424 0.37481 0.0
H2227 H 0.34807 0.83862 0.42543 0.0
H2228 H 0.36305 0.83605 0.40605 0.0
H2229 H 0.3718 0.87315 0.38258 0.0
H2230 H 0.44559 0.85303 0.36798 0.0
H2231 H 0.42561 0.85062 0.38205 0.0
C2232 C 0.15155 0.56616 0.64189 0.0
C2233 C 0.15775 0.5542 0.63752 0.0
C2234 C 0.15153 0.5776 0.63369 0.0
C2235 C 0.1428 0.59384 0.60936 0.0
H2236 H 0.17262 0.60682 0.58762 0.0
C2237 C 0.13503 0.62402 0.56073 0.0
C2238 C 0.1426 0.63591 0.55914 0.0
C2239 C 0.13784 0.61509 0.57121 0.0
C2240 C 0.16425 0.60336 0.59373 0.0
H2241 H 0.16964 0.54512 0.62159 0.0
H2242 H 0.16956 0.56514 0.6072 0.0
H2243 H 0.17666 0.58966 0.60498 0.0
H2244 H 0.15917 0.64763 0.56738 0.0
H2245 H 0.16431 0.63173 0.58551 0.0
H2246 H 0.13032 0.60721 0.59791 0.0
C2247 C 0.16472 0.56565 0.61697 0.0
C2248 C 0.16654 0.59352 0.60358 0.0
C2249 C 0.16467 0.55417 0.62515 0.0
C2250 C 0.15324 0.6385 0.56818 0.0
C2251 C 0.15616 0.62945 0.57859 0.0
C2252 C 0.14049 0.60352 0.59943 0.0
C2253 C 0.15777 0.57732 0.62099 0.0
C2254 C 0.1558 0.58859 0.61139 0.0
C2255 C 0.1484 0.61773 0.58026 0.0
C2256 C 0.15115 0.60823 0.59141 0.0
H2257 H 0.14604 0.56648 0.65132 0.0
H2258 H 0.14621 0.58652 0.63708 0.0
H2259 H 0.1343 0.59011 0.61511 0.0
H2260 H 0.12698 0.62151 0.55379 0.0
H2261 H 0.13185 0.606 0.57215 0.0
C2262 C 0.374 0.12514 0.54632 0.0
C2263 C 0.36163 0.13174 0.54823 0.0
C2264 C 0.38432 0.12644 0.55578 0.0
C2265 C 0.39622 0.14758 0.58412 0.0
H2266 H 0.41737 0.11577 0.59252 0.0
C2267 C 0.4345 0.14433 0.62832 0.0
C2268 C 0.44682 0.1379 0.6255 0.0
C2269 C 0.42411 0.14436 0.61879 0.0
C2270 C 0.41163 0.12476 0.59018 0.0
H2271 H 0.35033 0.14493 0.56148 0.0
H2272 H 0.36833 0.14706 0.57819 0.0
H2273 H 0.39903 0.11418 0.57631 0.0
H2274 H 0.45811 0.12704 0.61023 0.0
H2275 H 0.43992 0.12695 0.59371 0.0
H2276 H 0.4088 0.15807 0.59823 0.0
C2277 C 0.37013 0.14105 0.56926 0.0
C2278 C 0.40113 0.12387 0.58088 0.0
C2279 C 0.35982 0.13981 0.55972 0.0
C2280 C 0.44865 0.13183 0.61283 0.0
C2281 C 0.43825 0.13179 0.60336 0.0
C2282 C 0.40669 0.14844 0.59352 0.0
C2283 C 0.38248 0.13431 0.56742 0.0
C2284 C 0.39338 0.13528 0.57764 0.0
C2285 C 0.42582 0.1379 0.60631 0.0
C2286 C 0.41456 0.13706 0.59655 0.0
H2287 H 0.37577 0.11906 0.53742 0.0
H2288 H 0.3938 0.12136 0.55389 0.0
H2289 H 0.39053 0.15659 0.58174 0.0
H2290 H 0.43272 0.14898 0.63804 0.0
H2291 H 0.41459 0.14906 0.62136 0.0
C2292 C 0.87479 0.42317 0.64203 0.0
C2293 C 0.86284 0.43014 0.64495 0.0
C2294 C 0.87442 0.41121 0.63464 0.0
C2295 C 0.85128 0.38482 0.62094 0.0
H2296 H 0.87967 0.38112 0.59432 0.0
C2297 C 0.8483 0.35183 0.57273 0.0
C2298 C 0.86007 0.34496 0.56882 0.0
C2299 C 0.84838 0.36029 0.584 0.0
C2300 C 0.87178 0.38189 0.60184 0.0
H2301 H 0.84112 0.43003 0.64281 0.0
H2302 H 0.84045 0.40938 0.62941 0.0
H2303 H 0.88036 0.39975 0.61014 0.0
H2304 H 0.88082 0.34071 0.57433 0.0
H2305 H 0.88101 0.35568 0.59384 0.0
H2306 H 0.84243 0.36718 0.61202 0.0
C2307 C 0.8501 0.4129 0.6331 0.0
C2308 C 0.87218 0.39256 0.61096 0.0
C2309 C 0.85046 0.42477 0.6407 0.0
C2310 C 0.87168 0.34611 0.57688 0.0
C2311 C 0.87178 0.35463 0.58807 0.0
C2312 C 0.8508 0.3742 0.61166 0.0
C2313 C 0.86211 0.40609 0.62978 0.0
C2314 C 0.86191 0.39423 0.6206 0.0
C2315 C 0.86026 0.36209 0.59151 0.0
C2316 C 0.86103 0.37268 0.60199 0.0
H2317 H 0.88444 0.42704 0.6454 0.0
H2318 H 0.88383 0.40608 0.6326 0.0
H2319 H 0.8433 0.38567 0.62834 0.0
H2320 H 0.83922 0.35125 0.56668 0.0
H2321 H 0.83938 0.36601 0.58638 0.0
C2322 C 0.57554 0.85164 0.64538 0.0
C2323 C 0.56262 0.8496 0.63993 0.0
C2324 C 0.58704 0.84874 0.63776 0.0
C2325 C 0.59871 0.83048 0.60727 0.0
H2326 H 0.62619 0.85827 0.60599 0.0
C2327 C 0.63383 0.83816 0.56207 0.0
C2328 C 0.64721 0.84228 0.56426 0.0
C2329 C 0.62491 0.83676 0.57284 0.0
C2330 C 0.61876 0.85027 0.60642 0.0
H2331 H 0.5516 0.84239 0.62247 0.0
H2332 H 0.5716 0.83761 0.6091 0.0
H2333 H 0.60784 0.86009 0.62221 0.0
H2334 H 0.66188 0.84756 0.57962 0.0
H2335 H 0.64619 0.84527 0.59848 0.0
H2336 H 0.60939 0.82093 0.59113 0.0
C2337 C 0.57289 0.84133 0.61928 0.0
C2338 C 0.60824 0.85131 0.61572 0.0
C2339 C 0.56142 0.84425 0.62687 0.0
C2340 C 0.65158 0.84456 0.57757 0.0
C2341 C 0.64262 0.84322 0.58836 0.0
C2342 C 0.60922 0.82945 0.59796 0.0
C2343 C 0.58583 0.84368 0.62457 0.0
C2344 C 0.59791 0.84161 0.616 0.0
C2345 C 0.62914 0.83951 0.58608 0.0
C2346 C 0.61916 0.83951 0.59721 0.0
H2347 H 0.57678 0.85581 0.6554 0.0
H2348 H 0.59688 0.85056 0.64215 0.0
H2349 H 0.59103 0.82271 0.60742 0.0
H2350 H 0.63003 0.83658 0.55195 0.0
H2351 H 0.61453 0.83412 0.57072 0.0
C2352 C 0.3464 0.12071 0.41508 0.0
C2353 C 0.34792 0.12995 0.42572 0.0
C2354 C 0.35454 0.12162 0.40362 0.0
C2355 C 0.37751 0.14465 0.38516 0.0
H2356 H 0.39368 0.11147 0.3723 0.0
C2357 C 0.42612 0.14308 0.35348 0.0
C2358 C 0.42737 0.13314 0.34346 0.0
C2359 C 0.41481 0.1434 0.36184 0.0
C2360 C 0.38908 0.1208 0.37559 0.0
H2361 H 0.35918 0.14737 0.43267 0.0
H2362 H 0.3734 0.14891 0.41274 0.0
H2363 H 0.37682 0.11061 0.3901 0.0
H2364 H 0.41737 0.11622 0.33385 0.0
H2365 H 0.3976 0.11677 0.34849 0.0
H2366 H 0.39007 0.15486 0.37087 0.0
C2367 C 0.36575 0.14113 0.41312 0.0
C2368 C 0.37941 0.12031 0.3858 0.0
C2369 C 0.35761 0.14023 0.42456 0.0
C2370 C 0.41681 0.12386 0.34164 0.0
C2371 C 0.40549 0.12417 0.35001 0.0
C2372 C 0.3872 0.14514 0.37495 0.0
C2373 C 0.36439 0.13177 0.40257 0.0
C2374 C 0.37369 0.13224 0.39086 0.0
C2375 C 0.40449 0.13378 0.36037 0.0
C2376 C 0.39325 0.13324 0.37021 0.0
H2377 H 0.33889 0.1128 0.4156 0.0
H2378 H 0.35315 0.11436 0.39558 0.0
H2379 H 0.37312 0.154 0.3887 0.0
H2380 H 0.43416 0.15026 0.35526 0.0
H2381 H 0.41443 0.15082 0.36984 0.0
C2382 C 0.85719 0.36672 0.43379 0.0
C2383 C 0.85928 0.36968 0.44749 0.0
C2384 C 0.85721 0.37697 0.42416 0.0
C2385 C 0.86877 0.41201 0.41868 0.0
H2386 H 0.84469 0.41004 0.38791 0.0
C2387 C 0.86356 0.45467 0.37913 0.0
C2388 C 0.86413 0.45049 0.36561 0.0
C2389 C 0.86258 0.44517 0.38948 0.0
C2390 C 0.85151 0.41067 0.39643 0.0
H2391 H 0.86299 0.38582 0.46179 0.0
H2392 H 0.86252 0.40377 0.44505 0.0
H2393 H 0.84333 0.39293 0.40551 0.0
H2394 H 0.86395 0.43318 0.35227 0.0
H2395 H 0.86217 0.41657 0.37037 0.0
H2396 H 0.87682 0.42988 0.40958 0.0
C2397 C 0.86112 0.39347 0.44172 0.0
C2398 C 0.85077 0.40086 0.40649 0.0
C2399 C 0.8612 0.38319 0.45135 0.0
C2400 C 0.86363 0.43666 0.36262 0.0
C2401 C 0.86249 0.42718 0.37295 0.0
C2402 C 0.86941 0.42191 0.40867 0.0
C2403 C 0.8592 0.39047 0.42799 0.0
C2404 C 0.85951 0.40131 0.41766 0.0
C2405 C 0.86197 0.43134 0.38647 0.0
C2406 C 0.86089 0.42123 0.39739 0.0
H2407 H 0.85548 0.35646 0.43047 0.0
H2408 H 0.85588 0.37426 0.41367 0.0
H2409 H 0.87579 0.41257 0.42703 0.0
H2410 H 0.864 0.46528 0.38169 0.0
H2411 H 0.86213 0.44863 0.39983 0.0
C2412 C 0.56417 0.85106 0.36029 0.0
C2413 C 0.55804 0.86347 0.35723 0.0
C2414 C 0.57433 0.85031 0.37002 0.0
C2415 C 0.59904 0.87104 0.38867 0.0
H2416 H 0.59751 0.84195 0.41478 0.0
C2417 C 0.62196 0.85739 0.44423 0.0
C2418 C 0.63561 0.86065 0.44226 0.0
C2419 C 0.61304 0.85709 0.43334 0.0
C2420 C 0.59804 0.85016 0.40759 0.0
H2421 H 0.55775 0.88481 0.36199 0.0
H2422 H 0.57548 0.88351 0.37895 0.0
H2423 H 0.58094 0.84289 0.39663 0.0
H2424 H 0.65062 0.86611 0.42732 0.0
H2425 H 0.63507 0.8654 0.40826 0.0
H2426 H 0.61591 0.87852 0.39984 0.0
C2427 C 0.57258 0.87439 0.37369 0.0
C2428 C 0.58865 0.85061 0.39711 0.0
C2429 C 0.56242 0.87514 0.36397 0.0
C2430 C 0.64018 0.86346 0.42914 0.0
C2431 C 0.63125 0.86319 0.41825 0.0
C2432 C 0.60845 0.87057 0.39913 0.0
C2433 C 0.57858 0.86196 0.37688 0.0
C2434 C 0.58897 0.86112 0.38761 0.0
C2435 C 0.61757 0.86006 0.42024 0.0
C2436 C 0.60798 0.86019 0.40878 0.0
H2437 H 0.56115 0.84192 0.35512 0.0
H2438 H 0.5789 0.84062 0.37213 0.0
H2439 H 0.59963 0.87919 0.38142 0.0
H2440 H 0.61817 0.85503 0.45419 0.0
H2441 H 0.60254 0.85478 0.43522 0.0
C2442 C 0.14395 0.63703 0.43094 0.0
C2443 C 0.13306 0.64576 0.43338 0.0
C2444 C 0.14436 0.62924 0.41921 0.0
C2445 C 0.12172 0.61427 0.3942 0.0
H2446 H 0.15478 0.60681 0.3747 0.0
C2447 C 0.12199 0.57853 0.3487 0.0
C2448 C 0.13236 0.56889 0.34855 0.0
C2449 C 0.12261 0.58955 0.35744 0.0
C2450 C 0.14548 0.60876 0.38008 0.0
H2451 H 0.11441 0.65368 0.42512 0.0
H2452 H 0.11512 0.64004 0.40467 0.0
H2453 H 0.15491 0.62319 0.3931 0.0
H2454 H 0.15169 0.5634 0.35717 0.0
H2455 H 0.15273 0.58254 0.37254 0.0
H2456 H 0.11234 0.59962 0.38151 0.0
C2457 C 0.12322 0.63906 0.41193 0.0
C2458 C 0.14556 0.61813 0.39061 0.0
C2459 C 0.12281 0.64685 0.42365 0.0
C2460 C 0.14361 0.57075 0.35696 0.0
C2461 C 0.14421 0.58173 0.36575 0.0
C2462 C 0.12164 0.60489 0.38372 0.0
C2463 C 0.13389 0.63003 0.40969 0.0
C2464 C 0.13371 0.62087 0.39787 0.0
C2465 C 0.1336 0.59111 0.36628 0.0
C2466 C 0.13355 0.60191 0.37664 0.0
H2467 H 0.15192 0.63585 0.4383 0.0
H2468 H 0.15263 0.62224 0.41785 0.0
H2469 H 0.11247 0.61599 0.39974 0.0
H2470 H 0.1133 0.57746 0.34217 0.0
H2471 H 0.11439 0.59673 0.35743 0.0
C2472 C 0.3726 0.85169 0.54994 0.0
C2473 C 0.35925 0.85583 0.55221 0.0
C2474 C 0.38127 0.84929 0.56077 0.0
C2475 C 0.38654 0.85891 0.596 0.0
H2476 H 0.41244 0.82962 0.59573 0.0
C2477 C 0.42473 0.85195 0.63915 0.0
C2478 C 0.43808 0.84944 0.63515 0.0
C2479 C 0.41418 0.85096 0.62986 0.0
C2480 C 0.40531 0.83789 0.59592 0.0
H2481 H 0.34444 0.8605 0.5676 0.0
H2482 H 0.35957 0.85619 0.58654 0.0
H2483 H 0.3956 0.83116 0.57784 0.0
H2484 H 0.45084 0.84374 0.61834 0.0
H2485 H 0.43249 0.8421 0.60212 0.0
H2486 H 0.39643 0.86587 0.61384 0.0
C2487 C 0.36335 0.85489 0.57637 0.0
C2488 C 0.39566 0.83876 0.58568 0.0
C2489 C 0.35466 0.85725 0.56554 0.0
C2490 C 0.44063 0.84555 0.62177 0.0
C2491 C 0.4301 0.8446 0.61248 0.0
C2492 C 0.39619 0.85806 0.60621 0.0
C2493 C 0.37678 0.85101 0.57409 0.0
C2494 C 0.3863 0.8494 0.58552 0.0
C2495 C 0.41678 0.84749 0.61637 0.0
C2496 C 0.40581 0.84765 0.60618 0.0
H2497 H 0.37638 0.85035 0.53978 0.0
H2498 H 0.39161 0.84643 0.55868 0.0
H2499 H 0.37958 0.86733 0.59605 0.0
H2500 H 0.42244 0.85478 0.64945 0.0
H2501 H 0.404 0.85304 0.63322 0.0
C2502 C 0.13616 0.41386 0.65133 0.0
C2503 C 0.14458 0.42462 0.64747 0.0
C2504 C 0.13595 0.40192 0.64389 0.0
C2505 C 0.15383 0.38128 0.61905 0.0
H2506 H 0.11822 0.37392 0.60468 0.0
C2507 C 0.14557 0.34947 0.57119 0.0
C2508 C 0.13327 0.34274 0.56943 0.0
C2509 C 0.14776 0.35738 0.58264 0.0
C2510 C 0.1282 0.37551 0.60881 0.0
H2511 H 0.15995 0.43088 0.63317 0.0
H2512 H 0.15982 0.40984 0.62046 0.0
H2513 H 0.12104 0.39125 0.6217 0.0
H2514 H 0.11393 0.3382 0.57839 0.0
H2515 H 0.11794 0.3514 0.59877 0.0
H2516 H 0.16102 0.3655 0.60624 0.0
C2517 C 0.15335 0.41075 0.62922 0.0
C2518 C 0.1298 0.38553 0.61854 0.0
C2519 C 0.15343 0.42279 0.63653 0.0
C2520 C 0.12345 0.34343 0.57955 0.0
C2521 C 0.12574 0.35109 0.59114 0.0
C2522 C 0.1522 0.37105 0.60948 0.0
C2523 C 0.14433 0.40039 0.6326 0.0
C2524 C 0.14265 0.38868 0.62354 0.0
C2525 C 0.13775 0.35852 0.59265 0.0
C2526 C 0.13939 0.36823 0.604 0.0
H2527 H 0.12947 0.41478 0.6599 0.0
H2528 H 0.129 0.39399 0.64676 0.0
H2529 H 0.16383 0.3835 0.62284 0.0
H2530 H 0.15323 0.34914 0.56341 0.0
H2531 H 0.15705 0.36308 0.58327 0.0
C2532 C 0.57788 0.12728 0.64712 0.0
C2533 C 0.57106 0.13924 0.65043 0.0
C2534 C 0.58961 0.12769 0.63933 0.0
C2535 C 0.6055 0.14896 0.6137 0.0
H2536 H 0.63521 0.1238 0.6174 0.0
C2537 C 0.64809 0.14725 0.57456 0.0
C2538 C 0.65143 0.1343 0.56989 0.0
C2539 C 0.64032 0.14885 0.58619 0.0
C2540 C 0.62697 0.13087 0.61623 0.0
H2541 H 0.57161 0.16104 0.64897 0.0
H2542 H 0.59215 0.16178 0.63544 0.0
H2543 H 0.6179 0.12488 0.6349 0.0
H2544 H 0.64955 0.11289 0.57394 0.0
H2545 H 0.63593 0.11568 0.59417 0.0
H2546 H 0.61427 0.15468 0.59488 0.0
C2547 C 0.58829 0.15207 0.63863 0.0
C2548 C 0.61706 0.13149 0.62624 0.0
C2549 C 0.57655 0.15165 0.64638 0.0
C2550 C 0.64728 0.12301 0.57737 0.0
C2551 C 0.63949 0.12461 0.58899 0.0
C2552 C 0.61538 0.14834 0.60371 0.0
C2553 C 0.59476 0.14008 0.63473 0.0
C2554 C 0.6061 0.14038 0.62496 0.0
C2555 C 0.6357 0.13754 0.59337 0.0
C2556 C 0.62609 0.13913 0.60474 0.0
H2557 H 0.5738 0.11756 0.64997 0.0
H2558 H 0.59424 0.11826 0.63637 0.0
H2559 H 0.59707 0.15575 0.61227 0.0
H2560 H 0.65135 0.15615 0.56912 0.0
H2561 H 0.63776 0.15896 0.58944 0.0
C2562 C 0.86159 0.56335 0.62835 0.0
C2563 C 0.85087 0.55683 0.63493 0.0
C2564 C 0.85912 0.57396 0.61945 0.0
C2565 C 0.83299 0.58803 0.59742 0.0
H2566 H 0.85739 0.61856 0.59606 0.0
C2567 C 0.84349 0.6404 0.56525 0.0
C2568 C 0.84258 0.63512 0.55214 0.0
C2569 C 0.84221 0.63194 0.57646 0.0
C2570 C 0.85033 0.61023 0.59642 0.0
H2571 H 0.82915 0.5565 0.63751 0.0
H2572 H 0.82483 0.57504 0.62185 0.0
H2573 H 0.85977 0.60191 0.61394 0.0
H2574 H 0.83876 0.61702 0.54048 0.0
H2575 H 0.83678 0.60224 0.55997 0.0
H2576 H 0.82363 0.59631 0.57981 0.0
C2577 C 0.83514 0.57183 0.62352 0.0
C2578 C 0.85181 0.6006 0.60658 0.0
C2579 C 0.83761 0.56121 0.63246 0.0
C2580 C 0.8397 0.62135 0.55047 0.0
C2581 C 0.83841 0.61291 0.56165 0.0
C2582 C 0.83151 0.59767 0.58724 0.0
C2583 C 0.84587 0.57831 0.61691 0.0
C2584 C 0.84335 0.58924 0.60701 0.0
C2585 C 0.83996 0.61805 0.57476 0.0
C2586 C 0.84035 0.60873 0.58647 0.0
H2587 H 0.8719 0.56006 0.62983 0.0
H2588 H 0.86759 0.57855 0.61431 0.0
H2589 H 0.82634 0.57936 0.59745 0.0
H2590 H 0.84577 0.65096 0.56687 0.0
H2591 H 0.8433 0.63623 0.58644 0.0
C2592 C 0.35822 0.42108 0.138 0.0
C2593 C 0.35056 0.42722 0.1482 0.0
C2594 C 0.36625 0.40989 0.14085 0.0
C2595 C 0.38458 0.39377 0.16841 0.0
H2596 H 0.38888 0.36522 0.14205 0.0
C2597 C 0.41989 0.34407 0.1551 0.0
C2598 C 0.43258 0.35008 0.157 0.0
C2599 C 0.4081 0.35154 0.15708 0.0
C2600 C 0.38765 0.37293 0.14968 0.0
H2601 H 0.34507 0.42621 0.16936 0.0
H2602 H 0.35928 0.40669 0.17437 0.0
H2603 H 0.37105 0.3818 0.13914 0.0
H2604 H 0.44287 0.3682 0.16362 0.0
H2605 H 0.42238 0.38129 0.16682 0.0
H2606 H 0.40139 0.38504 0.17879 0.0
C2607 C 0.35908 0.41062 0.16418 0.0
C2608 C 0.37752 0.38254 0.14791 0.0
C2609 C 0.35099 0.42181 0.16131 0.0
C2610 C 0.43322 0.36337 0.16187 0.0
C2611 C 0.42146 0.37082 0.16385 0.0
C2612 C 0.39473 0.38415 0.17018 0.0
C2613 C 0.36685 0.4046 0.15398 0.0
C2614 C 0.37616 0.3933 0.15702 0.0
C2615 C 0.40878 0.36514 0.16103 0.0
C2616 C 0.39663 0.37386 0.16061 0.0
H2617 H 0.35834 0.42514 0.12786 0.0
H2618 H 0.37233 0.40566 0.13283 0.0
H2619 H 0.3838 0.40196 0.17558 0.0
H2620 H 0.41906 0.33386 0.15132 0.0
H2621 H 0.39847 0.34682 0.15501 0.0
C2622 C 0.42775 0.63422 0.84719 0.0
C2623 C 0.43321 0.63755 0.85983 0.0
C2624 C 0.41714 0.62496 0.84623 0.0
C2625 C 0.40223 0.59684 0.86536 0.0
H2626 H 0.37243 0.60017 0.84024 0.0
C2627 C 0.35704 0.56119 0.86778 0.0
C2628 C 0.35258 0.55554 0.85557 0.0
C2629 C 0.36617 0.57187 0.8678 0.0
C2630 C 0.38076 0.59908 0.84722 0.0
H2631 H 0.43134 0.63455 0.88139 0.0
H2632 H 0.41275 0.61861 0.87976 0.0
H2633 H 0.3896 0.6179 0.84127 0.0
H2634 H 0.35387 0.55697 0.83379 0.0
H2635 H 0.36991 0.57575 0.83384 0.0
H2636 H 0.39347 0.5781 0.87135 0.0
C2637 C 0.41688 0.6228 0.87055 0.0
C2638 C 0.39059 0.6092 0.84781 0.0
C2639 C 0.4275 0.63195 0.8715 0.0
C2640 C 0.35709 0.56115 0.84336 0.0
C2641 C 0.36625 0.57189 0.84338 0.0
C2642 C 0.39243 0.58679 0.86481 0.0
C2643 C 0.41178 0.61895 0.8579 0.0
C2644 C 0.40136 0.60823 0.85698 0.0
C2645 C 0.37106 0.57718 0.85562 0.0
C2646 C 0.38154 0.58784 0.85582 0.0
H2647 H 0.43202 0.63836 0.83803 0.0
H2648 H 0.41348 0.62215 0.83633 0.0
H2649 H 0.41058 0.5956 0.87229 0.0
H2650 H 0.35349 0.55733 0.87736 0.0
H2651 H 0.36947 0.57594 0.87739 0.0
C2652 C 0.42429 0.36236 0.87266 0.0
C2653 C 0.43126 0.35737 0.86139 0.0
C2654 C 0.41305 0.37066 0.871 0.0
C2655 C 0.39709 0.39371 0.84676 0.0
H2656 H 0.366 0.38961 0.87013 0.0
C2657 C 0.34968 0.42715 0.84139 0.0
C2658 C 0.34451 0.43237 0.8535 0.0
C2659 C 0.35944 0.41698 0.84159 0.0
C2660 C 0.37464 0.39092 0.86357 0.0
H2661 H 0.43176 0.35697 0.83953 0.0
H2662 H 0.41213 0.37152 0.83663 0.0
H2663 H 0.38472 0.37377 0.87192 0.0
H2664 H 0.34561 0.43109 0.87532 0.0
H2665 H 0.36254 0.41337 0.87566 0.0
H2666 H 0.3871 0.41099 0.83856 0.0
C2667 C 0.41547 0.36914 0.84675 0.0
C2668 C 0.38536 0.38186 0.86461 0.0
C2669 C 0.42672 0.36082 0.84841 0.0
C2670 C 0.34917 0.42709 0.8658 0.0
C2671 C 0.35889 0.41693 0.866 0.0
C2672 C 0.38636 0.40277 0.84573 0.0
C2673 C 0.40853 0.37416 0.85803 0.0
C2674 C 0.39678 0.38326 0.85634 0.0
C2675 C 0.36422 0.41184 0.85391 0.0
C2676 C 0.3751 0.40159 0.85425 0.0
H2677 H 0.42767 0.36006 0.88279 0.0
H2678 H 0.40806 0.37456 0.8799 0.0
H2679 H 0.40581 0.39515 0.84035 0.0
H2680 H 0.34619 0.43093 0.83175 0.0
H2681 H 0.36325 0.41314 0.8321 0.0
C2682 C 0.62398 0.43973 0.87769 0.0
C2683 C 0.63722 0.43754 0.87323 0.0
C2684 C 0.61456 0.4293 0.87751 0.0
C2685 C 0.60743 0.3959 0.86244 0.0
H2686 H 0.58156 0.39399 0.8917 0.0
C2687 C 0.56812 0.35271 0.86933 0.0
C2688 C 0.55487 0.3571 0.87193 0.0
C2689 C 0.57884 0.36189 0.86933 0.0
C2690 C 0.5887 0.39443 0.88345 0.0
H2691 H 0.65104 0.42273 0.86506 0.0
H2692 H 0.63462 0.40432 0.86497 0.0
H2693 H 0.59921 0.41104 0.89223 0.0
H2694 H 0.54251 0.37472 0.87597 0.0
H2695 H 0.56121 0.39056 0.87633 0.0
H2696 H 0.59686 0.37912 0.85378 0.0
C2697 C 0.63145 0.41419 0.8684 0.0
C2698 C 0.59878 0.40423 0.8837 0.0
C2699 C 0.64086 0.4247 0.86848 0.0
C2700 C 0.5526 0.3709 0.8743 0.0
C2701 C 0.5633 0.38 0.87445 0.0
C2702 C 0.5974 0.38599 0.86226 0.0
C2703 C 0.6182 0.41636 0.87299 0.0
C2704 C 0.60811 0.40527 0.87308 0.0
C2705 C 0.57653 0.37558 0.87207 0.0
C2706 C 0.5878 0.38534 0.87265 0.0
H2707 H 0.62083 0.4496 0.88117 0.0
H2708 H 0.60437 0.43144 0.88079 0.0
H2709 H 0.61439 0.39648 0.85404 0.0
H2710 H 0.57026 0.34215 0.86758 0.0
H2711 H 0.58897 0.35823 0.86752 0.0
C2712 C 0.64395 0.57302 0.86123 0.0
C2713 C 0.64094 0.56026 0.85589 0.0
C2714 C 0.63505 0.58378 0.85944 0.0
C2715 C 0.60496 0.59485 0.83984 0.0
H2716 H 0.59861 0.61734 0.87119 0.0
C2717 C 0.55696 0.6268 0.84765 0.0
C2718 C 0.55844 0.63973 0.8533 0.0
C2719 C 0.56806 0.61823 0.84642 0.0
C2720 C 0.60041 0.61128 0.86228 0.0
H2721 H 0.62636 0.54876 0.84437 0.0
H2722 H 0.61066 0.56742 0.84149 0.0
H2723 H 0.61619 0.60026 0.87193 0.0
H2724 H 0.57289 0.65399 0.86146 0.0
H2725 H 0.59222 0.63889 0.85954 0.0
H2726 H 0.58876 0.60563 0.83043 0.0
C2727 C 0.62004 0.56925 0.84678 0.0
C2728 C 0.61052 0.6015 0.86268 0.0
C2729 C 0.629 0.55853 0.84847 0.0
C2730 C 0.57135 0.64401 0.85732 0.0
C2731 C 0.58243 0.63539 0.85618 0.0
C2732 C 0.59477 0.60458 0.83949 0.0
C2733 C 0.62287 0.58197 0.85239 0.0
C2734 C 0.61282 0.59305 0.85152 0.0
C2735 C 0.58085 0.62236 0.85088 0.0
C2736 C 0.59231 0.61278 0.85077 0.0
H2737 H 0.65319 0.57466 0.86683 0.0
H2738 H 0.63768 0.5935 0.86367 0.0
H2739 H 0.60662 0.58868 0.83099 0.0
H2740 H 0.54715 0.6231 0.84463 0.0
H2741 H 0.56653 0.60817 0.84245 0.0
C2742 C 0.64366 0.57231 0.13326 0.0
C2743 C 0.64932 0.56534 0.1442 0.0
C2744 C 0.63459 0.58285 0.13545 0.0
C2745 C 0.61038 0.59444 0.16095 0.0
H2746 H 0.60642 0.62458 0.13637 0.0
C2747 C 0.57283 0.64285 0.14963 0.0
C2748 C 0.56036 0.63622 0.15089 0.0
C2749 C 0.5849 0.63567 0.15079 0.0
C2750 C 0.60749 0.61637 0.14348 0.0
H2751 H 0.65064 0.56444 0.16599 0.0
H2752 H 0.63496 0.58302 0.16985 0.0
H2753 H 0.62614 0.61006 0.13467 0.0
H2754 H 0.55079 0.61699 0.15499 0.0
H2755 H 0.57177 0.60441 0.15662 0.0
H2756 H 0.59174 0.60074 0.16977 0.0
C2757 C 0.63727 0.58014 0.15958 0.0
C2758 C 0.61872 0.60794 0.1424 0.0
C2759 C 0.64627 0.56954 0.15738 0.0
C2760 C 0.56023 0.62236 0.15378 0.0
C2761 C 0.57227 0.61518 0.1549 0.0
C2762 C 0.59919 0.60291 0.16208 0.0
C2763 C 0.63106 0.58669 0.14864 0.0
C2764 C 0.62013 0.59668 0.1509 0.0
C2765 C 0.58475 0.62171 0.15321 0.0
C2766 C 0.59744 0.61376 0.15314 0.0
H2767 H 0.64569 0.56917 0.123 0.0
H2768 H 0.62986 0.58752 0.12679 0.0
H2769 H 0.61106 0.58581 0.1676 0.0
H2770 H 0.57329 0.65351 0.1473 0.0
H2771 H 0.59434 0.64103 0.14959 0.0
C2772 C 0.36808 0.55227 0.15283 0.0
C2773 C 0.35526 0.55354 0.14694 0.0
C2774 C 0.37613 0.56362 0.15493 0.0
C2775 C 0.38173 0.59752 0.14155 0.0
H2776 H 0.4051 0.60108 0.17271 0.0
C2777 C 0.42046 0.64072 0.14596 0.0
C2778 C 0.43347 0.63667 0.14985 0.0
C2779 C 0.40953 0.63191 0.1473 0.0
C2780 C 0.39865 0.60021 0.16394 0.0
H2781 H 0.34068 0.56773 0.13893 0.0
H2782 H 0.35473 0.58761 0.14272 0.0
H2783 H 0.38826 0.58313 0.1721 0.0
H2784 H 0.44519 0.62024 0.15831 0.0
H2785 H 0.42619 0.60494 0.16066 0.0
H2786 H 0.39237 0.61433 0.1332 0.0
C2787 C 0.35857 0.57781 0.14562 0.0
C2788 C 0.38902 0.58994 0.16359 0.0
C2789 C 0.35049 0.56645 0.14356 0.0
C2790 C 0.43526 0.62377 0.15543 0.0
C2791 C 0.42436 0.61499 0.15678 0.0
C2792 C 0.39137 0.60778 0.14189 0.0
C2793 C 0.37155 0.57649 0.15116 0.0
C2794 C 0.38066 0.58831 0.15226 0.0
C2795 C 0.4114 0.61889 0.15258 0.0
C2796 C 0.40013 0.60905 0.15296 0.0
H2797 H 0.37196 0.54247 0.15569 0.0
H2798 H 0.38614 0.56224 0.15909 0.0
H2799 H 0.37555 0.59644 0.13261 0.0
H2800 H 0.41872 0.65067 0.1418 0.0
H2801 H 0.39963 0.63526 0.14413 0.0
C2802 C 0.63493 0.43337 0.11086 0.0
C2803 C 0.63617 0.44195 0.12204 0.0
C2804 C 0.62563 0.42277 0.11103 0.0
C2805 C 0.60432 0.40269 0.1346 0.0
H2806 H 0.58467 0.39359 0.10203 0.0
C2807 C 0.55503 0.37202 0.13418 0.0
C2808 C 0.55437 0.3611 0.12515 0.0
C2809 C 0.56575 0.3811 0.13367 0.0
C2810 C 0.5902 0.39596 0.11115 0.0
H2811 H 0.62853 0.44651 0.14197 0.0
H2812 H 0.61199 0.42839 0.14213 0.0
H2813 H 0.6019 0.41116 0.10132 0.0
H2814 H 0.56469 0.35116 0.10857 0.0
H2815 H 0.58315 0.36741 0.1074 0.0
H2816 H 0.59215 0.38785 0.1445 0.0
C2817 C 0.61847 0.42945 0.1334 0.0
C2818 C 0.6001 0.40598 0.11076 0.0
C2819 C 0.62788 0.43989 0.1333 0.0
C2820 C 0.5647 0.35956 0.11553 0.0
C2821 C 0.57533 0.3688 0.11489 0.0
C2822 C 0.59428 0.39285 0.13502 0.0
C2823 C 0.61727 0.42068 0.12231 0.0
C2824 C 0.6072 0.40956 0.12251 0.0
C2825 C 0.57595 0.37961 0.12399 0.0
C2826 C 0.58707 0.38948 0.12333 0.0
H2827 H 0.64131 0.43472 0.1021 0.0
H2828 H 0.62514 0.41612 0.10239 0.0
H2829 H 0.6098 0.40493 0.14377 0.0
H2830 H 0.54713 0.37374 0.14151 0.0
H2831 H 0.56594 0.38948 0.14068 0.0
C2832 C 0.04169 0.28286 0.5034 0.0
C2833 C 0.04953 0.28677 0.49226 0.0
C2834 C 0.02794 0.28025 0.50189 0.0
C2835 C -0.00022 0.28992 0.48017 0.0
H2836 H 0.98018 0.26299 0.50068 0.0
C2837 C 0.94208 0.2874 0.47817 0.0
C2838 C 0.93569 0.28665 0.49079 0.0
C2839 C 0.95586 0.28478 0.47699 0.0
C2840 C 0.98553 0.27057 0.49491 0.0
H2841 H 0.04917 0.29049 0.4707 0.0
H2842 H 0.02525 0.28566 0.46803 0.0
H2843 H 0.00483 0.26305 0.50104 0.0
H2844 H 0.93856 0.28179 0.51192 0.0
H2845 H 0.96267 0.27757 0.50993 0.0
H2846 H 0.98058 0.29773 0.47437 0.0
C2847 C 0.02971 0.28479 0.47796 0.0
C2848 C -0.00038 0.2706 0.49511 0.0
C2849 C 0.04345 0.28742 0.47948 0.0
C2850 C 0.94325 0.28266 0.5021 0.0
C2851 C 0.95703 0.28006 0.50092 0.0
C2852 C 0.98573 0.28989 0.47997 0.0
C2853 C 0.02174 0.28148 0.4892 0.0
C2854 C 0.00688 0.28042 0.48792 0.0
C2855 C 0.96354 0.28139 0.4884 0.0
C2856 C 0.97843 0.28037 0.48752 0.0
H2857 H 0.04613 0.28208 0.51335 0.0
H2858 H 0.02206 0.27781 0.51077 0.0
H2859 H 0.00505 0.29777 0.47471 0.0
H2860 H 0.93657 0.29053 0.46928 0.0
H2861 H 0.96056 0.28572 0.46718 0.0
C2862 C 0.71964 0.04286 0.49618 0.0
C2863 C 0.71216 0.04878 0.50666 0.0
C2864 C 0.72308 0.02922 0.49669 0.0
C2865 C 0.72468 -0.00067 0.51911 0.0
H2866 H 0.71414 0.9799 0.48687 0.0
C2867 C 0.70826 0.9438 0.51943 0.0
C2868 C 0.71067 0.93586 0.50798 0.0
C2869 C 0.71202 0.95737 0.51959 0.0
C2870 C 0.71745 0.98513 0.49586 0.0
H2871 H 0.70286 0.04513 0.52613 0.0
H2872 H 0.70887 0.02137 0.52702 0.0
H2873 H 0.71459 0.00435 0.4866 0.0
H2874 H 0.71972 0.93551 0.4881 0.0
H2875 H 0.72648 0.95917 0.48841 0.0
H2876 H 0.72714 0.98003 0.52848 0.0
C2877 C 0.71222 0.0273 0.51848 0.0
C2878 C 0.7177 -0.00082 0.49571 0.0
C2879 C 0.70876 0.04092 0.51795 0.0
C2880 C 0.71753 0.94151 0.49696 0.0
C2881 C 0.72139 0.95503 0.49715 0.0
C2882 C 0.7245 0.98524 0.51925 0.0
C2883 C 0.71914 0.02124 0.50771 0.0
C2884 C 0.72096 0.00643 0.50742 0.0
C2885 C 0.71835 0.96321 0.50832 0.0
C2886 C 0.72053 0.978 0.50773 0.0
H2887 H 0.72264 0.04873 0.48746 0.0
H2888 H 0.72858 0.02484 0.48833 0.0
H2889 H 0.72742 0.00468 0.52823 0.0
H2890 H 0.70291 0.93971 0.52803 0.0
H2891 H 0.70936 0.96341 0.52828 0.0
C2892 C 0.9435 0.70031 0.48797 0.0
C2893 C 0.93599 0.69948 0.49995 0.0
C2894 C 0.95744 0.70205 0.48839 0.0
C2895 C 0.98584 0.71243 0.50998 0.0
H2896 H 0.00624 0.68844 0.4868 0.0
C2897 C 0.0434 0.70367 0.51512 0.0
C2898 C 0.05081 0.7018 0.50318 0.0
C2899 C 0.02937 0.70486 0.51471 0.0
C2900 C 0.00072 0.69538 0.49318 0.0
H2901 H 0.93713 0.70035 0.52177 0.0
H2902 H 0.96161 0.70321 0.52252 0.0
H2903 H 0.98177 0.68798 0.48613 0.0
H2904 H 0.04927 0.70006 0.48141 0.0
H2905 H 0.02493 0.70259 0.48068 0.0
H2906 H 0.00489 0.71977 0.51708 0.0
C2907 C 0.95666 0.70259 0.5128 0.0
C2908 C 0.98669 0.69509 0.4928 0.0
C2909 C 0.94268 0.70082 0.51238 0.0
C2910 C 0.04392 0.70162 0.49079 0.0
C2911 C 0.02993 0.70289 0.49038 0.0
C2912 C -6e-05 0.71276 0.51032 0.0
C2913 C 0.96419 0.70299 0.50081 0.0
C2914 C 0.9791 0.7036 0.50118 0.0
C2915 C 0.02247 0.70423 0.50235 0.0
C2916 C 0.00752 0.70423 0.50191 0.0
H2917 H 0.93867 0.69919 0.47824 0.0
H2918 H 0.96297 0.70248 0.47899 0.0
H2919 H 0.98023 0.71917 0.51648 0.0
H2920 H 0.04843 0.70404 0.52481 0.0
H2921 H 0.0239 0.70582 0.52411 0.0
C2922 C 0.27515 0.04699 0.48673 0.0
C2923 C 0.27562 0.05497 0.49843 0.0
C2924 C 0.27231 0.03324 0.4876 0.0
C2925 C 0.27741 0.00585 0.51121 0.0
H2926 H 0.2591 0.98462 0.48396 0.0
C2927 C 0.28268 0.94824 0.51008 0.0
C2928 C 0.28541 0.94275 0.49732 0.0
C2929 C 0.27801 0.96147 0.51129 0.0
C2930 C 0.26427 0.99042 0.49164 0.0
H2931 H 0.27231 0.05505 0.52005 0.0
H2932 H 0.26748 0.03095 0.52157 0.0
H2933 H 0.25649 0.00912 0.48412 0.0
H2934 H 0.28516 0.94664 0.47582 0.0
H2935 H 0.27733 0.96981 0.47791 0.0
H2936 H 0.28577 0.98735 0.51834 0.0
C2937 C 0.2695 0.03532 0.51177 0.0
C2938 C 0.26273 0.00442 0.49175 0.0
C2939 C 0.2723 0.04909 0.51089 0.0
C2940 C 0.28303 0.95059 0.48578 0.0
C2941 C 0.27847 0.96384 0.48699 0.0
C2942 C 0.27901 0.99189 0.51106 0.0
C2943 C 0.26991 0.02718 0.50018 0.0
C2944 C 0.26957 0.0123 0.50133 0.0
C2945 C 0.27609 0.9695 0.49977 0.0
C2946 C 0.27275 0.98404 0.50105 0.0
H2947 H 0.27778 0.05117 0.47699 0.0
H2948 H 0.27285 0.02721 0.47851 0.0
H2949 H 0.28298 0.01165 0.5186 0.0
H2950 H 0.2842 0.94231 0.51913 0.0
H2951 H 0.27608 0.96545 0.52127 0.0
C2952 C 0.51289 0.94856 0.28072 0.0
C2953 C 0.50028 0.94214 0.28158 0.0
C2954 C 0.51372 0.96224 0.27761 0.0
C2955 C 0.49483 0.99147 0.26424 0.0
H2956 H 0.51703 0.01159 0.28935 0.0
C2957 C 0.48868 0.04847 0.27429 0.0
C2958 C 0.50011 0.05596 0.2781 0.0
C2959 C 0.48968 0.03463 0.27188 0.0
C2960 C 0.51102 0.00616 0.28203 0.0
H2961 H 0.47872 0.94485 0.27914 0.0
H2962 H 0.48017 0.96888 0.27393 0.0
H2963 H 0.51699 0.98717 0.2902 0.0
H2964 H 0.52171 0.05484 0.28157 0.0
H2965 H 0.52352 0.03093 0.27679 0.0
H2966 H 0.48868 0.01057 0.25624 0.0
C2967 C 0.4894 0.96328 0.27558 0.0
C2968 C 0.51097 0.99213 0.28255 0.0
C2969 C 0.48856 0.94958 0.27872 0.0
C2970 C 0.51269 0.04946 0.27858 0.0
C2971 C 0.51371 0.03567 0.27603 0.0
C2972 C 0.49493 0.00556 0.26366 0.0
C2973 C 0.50197 0.96981 0.2753 0.0
C2974 C 0.50276 0.98464 0.27379 0.0
C2975 C 0.50215 0.02801 0.27312 0.0
C2976 C 0.5029 0.01306 0.27268 0.0
H2977 H 0.5221 0.94314 0.28297 0.0
H2978 H 0.52355 0.96699 0.27732 0.0
H2979 H 0.48849 0.98592 0.25729 0.0
H2980 H 0.47888 0.05321 0.27354 0.0
H2981 H 0.48056 0.02904 0.2697 0.0
C2982 C 0.9465 0.47972 0.28239 0.0
C2983 C 0.94043 0.49245 0.28099 0.0
C2984 C 0.96036 0.47818 0.28058 0.0
C2985 C 0.99131 0.49525 0.2681 0.0
H2986 H 0.00842 0.4753 0.29706 0.0
C2987 C 0.04645 0.50327 0.28437 0.0
C2988 C 0.05393 0.49204 0.28871 0.0
C2989 C 0.03287 0.5019 0.28097 0.0
C2990 C 0.00383 0.48068 0.28875 0.0
H2991 H 0.94403 0.51337 0.27571 0.0
H2992 H 0.96829 0.51078 0.27295 0.0
H2993 H 0.98401 0.47533 0.2952 0.0
H2994 H 0.05315 0.47051 0.2925 0.0
H2995 H 0.02944 0.4681 0.2864 0.0
H2996 H 0.01122 0.50097 0.26197 0.0
C2997 C 0.96232 0.50194 0.27532 0.0
C2998 C 0.98982 0.4807 0.28766 0.0
C2999 C 0.94844 0.50347 0.27708 0.0
C3000 C 0.04766 0.47934 0.28914 0.0
C3001 C 0.03407 0.47798 0.28575 0.0
C3002 C 0.00536 0.49526 0.2692 0.0
C3003 C 0.96848 0.48935 0.27739 0.0
C3004 C 0.98338 0.48816 0.27748 0.0
C3005 C 0.02648 0.48929 0.28185 0.0
C3006 C 0.01174 0.48816 0.27969 0.0
H3007 H 0.94065 0.47103 0.28549 0.0
H3008 H 0.96479 0.4683 0.28206 0.0
H3009 H 0.98665 0.50095 0.26003 0.0
H3010 H 0.05107 0.51315 0.28375 0.0
H3011 H 0.02726 0.51083 0.27812 0.0
C3012 C 0.5056 0.94801 0.69955 0.0
C3013 C 0.49407 0.94082 0.69554 0.0
C3014 C 0.50495 0.96192 0.70157 0.0
C3015 C 0.48704 0.99127 0.68958 0.0
H3016 H 0.50225 0.00955 0.72062 0.0
C3017 C 0.48436 0.04878 0.69399 0.0
C3018 C 0.49578 0.05554 0.69902 0.0
C3019 C 0.48322 0.03482 0.69509 0.0
C3020 C 0.49809 0.00461 0.71182 0.0
H3021 H 0.47283 0.9424 0.69067 0.0
H3022 H 0.47175 0.96683 0.694 0.0
H3023 H 0.50213 0.98491 0.7198 0.0
H3024 H 0.51473 0.05279 0.70964 0.0
H3025 H 0.5131 0.02837 0.71086 0.0
H3026 H 0.48353 0.01076 0.68123 0.0
C3027 C 0.48123 0.96166 0.69566 0.0
C3028 C 0.49797 0.99052 0.7114 0.0
C3029 C 0.48183 0.94772 0.69383 0.0
C3030 C 0.5059 0.04794 0.70543 0.0
C3031 C 0.50486 0.03392 0.70633 0.0
C3032 C 0.48734 0.00531 0.68989 0.0
C3033 C 0.49282 0.96889 0.69942 0.0
C3034 C 0.49246 0.98375 0.70026 0.0
C3035 C 0.49358 0.02716 0.701 0.0
C3036 C 0.49289 0.01219 0.701 0.0
H3037 H 0.51512 0.94287 0.70102 0.0
H3038 H 0.51404 0.9673 0.70437 0.0
H3039 H 0.48293 0.98627 0.68077 0.0
H3040 H 0.47642 0.0542 0.68882 0.0
H3041 H 0.47426 0.03001 0.69111 0.0
C3042 C 0.95169 0.49693 0.69968 0.0
C3043 C 0.94359 0.50712 0.69411 0.0
C3044 C 0.9657 0.4983 0.69984 0.0
C3045 C 0.99253 0.51279 0.68034 0.0
H3046 H 0.01505 0.50559 0.71148 0.0
C3047 C 0.05046 0.51392 0.67643 0.0
C3048 C 0.05765 0.50415 0.68377 0.0
C3049 C 0.03668 0.51582 0.67862 0.0
C3050 C 0.00892 0.50747 0.70264 0.0
H3051 H 0.94361 0.52678 0.6846 0.0
H3052 H 0.96823 0.52905 0.68461 0.0
H3053 H 0.99056 0.50611 0.714 0.0
H3054 H 0.05593 0.48893 0.69944 0.0
H3055 H 0.03187 0.49166 0.70263 0.0
H3056 H 0.01066 0.51343 0.66877 0.0
C3057 C 0.9637 0.52011 0.68897 0.0
C3058 C 0.99492 0.50787 0.70413 0.0
C3059 C 0.94967 0.51885 0.68902 0.0
C3060 C 0.05071 0.49638 0.69339 0.0
C3061 C 0.0369 0.49813 0.69542 0.0
C3062 C 0.0065 0.51216 0.67879 0.0
C3063 C 0.97181 0.50977 0.69422 0.0
C3064 C 0.98663 0.51042 0.69297 0.0
C3065 C 0.02969 0.50787 0.68805 0.0
C3066 C 0.01488 0.50936 0.68989 0.0
H3067 H 0.94719 0.48782 0.70368 0.0
H3068 H 0.97177 0.49016 0.70386 0.0
H3069 H 0.9863 0.5146 0.67154 0.0
H3070 H 0.0554 0.52 0.66883 0.0
H3071 H 0.03152 0.52355 0.67288 0.0
C3072 C 0.29283 0.51072 0.9462 0.0
C3073 C 0.29182 0.4984 0.93929 0.0
C3074 C 0.29209 0.51109 0.96024 0.0
C3075 C 0.28218 0.4911 0.99022 0.0
H3076 H 0.30952 0.51259 0.00812 0.0
C3077 C 0.29759 0.48304 0.04565 0.0
C3078 C 0.30031 0.4945 0.0535 0.0
C3079 C 0.29505 0.48428 0.03186 0.0
C3080 C 0.30169 0.5067 0.0033 0.0
H3081 H 0.28898 0.47685 0.9416 0.0
H3082 H 0.2878 0.47745 0.96613 0.0
H3083 H 0.30749 0.51349 0.98369 0.0
H3084 H 0.30205 0.51631 0.05318 0.0
H3085 H 0.2977 0.51847 0.02907 0.0
H3086 H 0.27662 0.48409 0.00987 0.0
C3087 C 0.28895 0.48686 0.96071 0.0
C3088 C 0.30051 0.50723 0.9893 0.0
C3089 C 0.28965 0.4865 0.94666 0.0
C3090 C 0.30024 0.50726 0.04733 0.0
C3091 C 0.29771 0.50851 0.03355 0.0
C3092 C 0.28338 0.49056 0.00424 0.0
C3093 C 0.29037 0.49913 0.96766 0.0
C3094 C 0.29085 0.49931 0.98259 0.0
C3095 C 0.29519 0.49702 0.02565 0.0
C3096 C 0.29326 0.49823 0.0109 0.0
H3097 H 0.29427 0.52008 0.94074 0.0
H3098 H 0.29299 0.52072 0.96531 0.0
H3099 H 0.27452 0.48503 0.98535 0.0
H3100 H 0.29773 0.47306 0.05009 0.0
H3101 H 0.29334 0.47523 0.026 0.0
C3102 C 0.49041 0.27841 0.95063 0.0
C3103 C 0.48037 0.28346 0.94201 0.0
C3104 C 0.48779 0.27671 0.96436 0.0
C3105 C 0.46797 0.29234 0.99047 0.0
H3106 H 0.4806 0.26288 0.01287 0.0
C3107 C 0.46608 0.29654 0.04809 0.0
C3108 C 0.47765 0.29213 0.05499 0.0
C3109 C 0.46407 0.29313 0.03458 0.0
C3110 C 0.47708 0.27123 0.00677 0.0
H3111 H 0.45959 0.29016 0.94083 0.0
H3112 H 0.45506 0.28726 0.96486 0.0
H3113 H 0.48147 0.2608 0.98833 0.0
H3114 H 0.49577 0.27996 0.05326 0.0
H3115 H 0.49266 0.27467 0.02959 0.0
H3116 H 0.46432 0.30314 0.00868 0.0
C3117 C 0.46491 0.28459 0.96098 0.0
C3118 C 0.47752 0.26998 0.99274 0.0
C3119 C 0.46748 0.28616 0.94723 0.0
C3120 C 0.4869 0.28381 0.04819 0.0
C3121 C 0.48498 0.28055 0.03464 0.0
C3122 C 0.4677 0.29366 0.00446 0.0
C3123 C 0.47515 0.28017 0.96971 0.0
C3124 C 0.47317 0.28062 0.98448 0.0
C3125 C 0.47366 0.28537 0.02759 0.0
C3126 C 0.47248 0.28323 0.0128 0.0
H3127 H 0.5004 0.27617 0.94682 0.0
H3128 H 0.49589 0.27338 0.9709 0.0
H3129 H 0.46475 0.30078 0.98434 0.0
H3130 H 0.45877 0.30302 0.05296 0.0
H3131 H 0.45511 0.29682 0.02954 0.0
C3132 C 0.71249 0.52169 0.94996 0.0
C3133 C 0.71511 0.50976 0.94282 0.0
C3134 C 0.71637 0.52287 0.96345 0.0
C3135 C 0.72284 0.50086 0.99251 0.0
H3136 H 0.73109 0.53456 0.01053 0.0
C3137 C 0.72569 0.50287 0.04983 0.0
C3138 C 0.71745 0.51285 0.05559 0.0
C3139 C 0.72921 0.50353 0.03623 0.0
C3140 C 0.72885 0.52508 0.00561 0.0
H3141 H 0.72473 0.49019 0.94368 0.0
H3142 H 0.73189 0.49237 0.96711 0.0
H3143 H 0.73058 0.53371 0.98588 0.0
H3144 H 0.70717 0.53178 0.05188 0.0
H3145 H 0.71325 0.53289 0.02807 0.0
H3146 H 0.72074 0.49228 0.01212 0.0
C3147 C 0.72646 0.50065 0.96249 0.0
C3148 C 0.72851 0.52459 0.99151 0.0
C3149 C 0.72241 0.49939 0.94908 0.0
C3150 C 0.71358 0.52398 0.04772 0.0
C3151 C 0.71709 0.52462 0.03409 0.0
C3152 C 0.72326 0.50133 0.00653 0.0
C3153 C 0.72307 0.5122 0.96998 0.0
C3154 C 0.72522 0.51253 0.98481 0.0
C3155 C 0.72454 0.51416 0.02811 0.0
C3156 C 0.72598 0.51349 0.01325 0.0
H3157 H 0.7068 0.52979 0.94534 0.0
H3158 H 0.71346 0.53186 0.96893 0.0
H3159 H 0.71998 0.49146 0.98775 0.0
H3160 H 0.72904 0.49432 0.05574 0.0
H3161 H 0.73518 0.49545 0.03194 0.0
C3162 C 0.51289 0.69294 0.94983 0.0
C3163 C 0.50093 0.69698 0.94343 0.0
C3164 C 0.51386 0.69323 0.96387 0.0
C3165 C 0.50049 0.70798 0.99461 0.0
H3166 H 0.50814 0.67326 0.01088 0.0
C3167 C 0.49259 0.69803 0.05141 0.0
C3168 C 0.50117 0.68881 0.05795 0.0
C3169 C 0.49334 0.69988 0.03747 0.0
C3170 C 0.50628 0.68311 0.00657 0.0
H3171 H 0.48087 0.70506 0.94645 0.0
H3172 H 0.48269 0.70586 0.9711 0.0
H3173 H 0.50862 0.67559 0.98648 0.0
H3174 H 0.51739 0.67442 0.05479 0.0
H3175 H 0.51926 0.67829 0.03078 0.0
H3176 H 0.49844 0.71564 0.01465 0.0
C3177 C 0.49123 0.70239 0.96524 0.0
C3178 C 0.50648 0.6844 0.99258 0.0
C3179 C 0.49017 0.70186 0.95121 0.0
C3180 C 0.51072 0.68175 0.05021 0.0
C3181 C 0.51164 0.68379 0.03633 0.0
C3182 C 0.50053 0.70677 0.00865 0.0
C3183 C 0.50298 0.69779 0.97167 0.0
C3184 C 0.50348 0.6968 0.9865 0.0
C3185 C 0.50284 0.69274 0.02973 0.0
C3186 C 0.50331 0.69428 0.01482 0.0
H3187 H 0.52128 0.68905 0.94402 0.0
H3188 H 0.52302 0.68967 0.96865 0.0
H3189 H 0.4982 0.71766 0.99009 0.0
H3190 H 0.48527 0.70384 0.05704 0.0
H3191 H 0.48627 0.70674 0.03276 0.0
C3192 C 0.18657 0.26108 0.48413 0.0
C3193 C 0.1728 0.25785 0.48496 0.0
C3194 C 0.19619 0.25093 0.48262 0.0
C3195 C 0.20125 0.21552 0.4906 0.0
H3196 H 0.23255 0.21866 0.46738 0.0
C3197 C 0.24142 0.17382 0.48808 0.0
C3198 C 0.25492 0.17806 0.48784 0.0
C3199 C 0.23102 0.18311 0.48628 0.0
C3200 C 0.22392 0.2177 0.47399 0.0
H3201 H 0.15825 0.24152 0.48411 0.0
H3202 H 0.1751 0.22376 0.48167 0.0
H3203 H 0.21493 0.23584 0.46645 0.0
H3204 H 0.2682 0.19526 0.48553 0.0
H3205 H 0.25003 0.21159 0.48268 0.0
H3206 H 0.21035 0.19767 0.49848 0.0
C3207 C 0.17843 0.23414 0.48234 0.0
C3208 C 0.21383 0.2275 0.47342 0.0
C3209 C 0.16881 0.2443 0.48378 0.0
C3210 C 0.25786 0.19174 0.48566 0.0
C3211 C 0.24746 0.20105 0.48396 0.0
C3212 C 0.21136 0.20579 0.49124 0.0
C3213 C 0.19221 0.23735 0.48197 0.0
C3214 C 0.20247 0.22655 0.4818 0.0
C3215 C 0.23392 0.19685 0.4843 0.0
C3216 C 0.22287 0.20683 0.48304 0.0
H3217 H 0.18998 0.27141 0.48516 0.0
H3218 H 0.20676 0.25366 0.48251 0.0
H3219 H 0.19269 0.21466 0.49733 0.0
H3220 H 0.23891 0.16329 0.48951 0.0
H3221 H 0.22071 0.17952 0.48636 0.0
C3222 C 0.73797 0.18113 0.47644 0.0
C3223 C 0.74105 0.16847 0.48191 0.0
C3224 C 0.7482 0.19055 0.4742 0.0
C3225 C 0.78221 0.19857 0.48678 0.0
H3226 H 0.78056 0.22657 0.45952 0.0
C3227 C 0.82149 0.24106 0.48405 0.0
C3228 C 0.81591 0.2541 0.48407 0.0
C3229 C 0.8134 0.22984 0.48154 0.0
C3230 C 0.78113 0.21877 0.46715 0.0
H3231 H 0.75713 0.15522 0.48842 0.0
H3232 H 0.7751 0.17144 0.48402 0.0
H3233 H 0.76467 0.20774 0.45862 0.0
H3234 H 0.79748 0.26555 0.48115 0.0
H3235 H 0.78342 0.24592 0.47655 0.0
H3236 H 0.79861 0.20964 0.49533 0.0
C3237 C 0.76479 0.17434 0.4819 0.0
C3238 C 0.77203 0.20803 0.46668 0.0
C3239 C 0.75455 0.16503 0.48435 0.0
C3240 C 0.80214 0.25568 0.48107 0.0
C3241 C 0.79408 0.24445 0.47842 0.0
C3242 C 0.79139 0.20919 0.48714 0.0
C3243 C 0.7617 0.18737 0.47722 0.0
C3244 C 0.77229 0.19794 0.47666 0.0
C3245 C 0.7996 0.23143 0.47885 0.0
C3246 C 0.79077 0.21952 0.47749 0.0
H3247 H 0.7276 0.18399 0.47457 0.0
H3248 H 0.7454 0.20052 0.47074 0.0
H3249 H 0.78256 0.19117 0.4948 0.0
H3250 H 0.83212 0.23951 0.48601 0.0
H3251 H 0.81791 0.21989 0.48179 0.0
C3252 C 0.80693 0.7413 0.47469 0.0
C3253 C 0.82038 0.74202 0.47907 0.0
C3254 C 0.79991 0.75299 0.47129 0.0
C3255 C 0.79855 0.78845 0.47964 0.0
H3256 H 0.77275 0.78979 0.45028 0.0
C3257 C 0.75938 0.8306 0.47742 0.0
C3258 C 0.74615 0.82583 0.47572 0.0
C3259 C 0.77036 0.82236 0.47429 0.0
C3260 C 0.77994 0.78959 0.4585 0.0
H3261 H 0.83719 0.75554 0.4828 0.0
H3262 H 0.82475 0.77604 0.47716 0.0
H3263 H 0.78874 0.77111 0.45162 0.0
H3264 H 0.734 0.80903 0.46881 0.0
H3265 H 0.75307 0.79459 0.46358 0.0
H3266 H 0.78932 0.80642 0.48702 0.0
C3267 C 0.81968 0.7664 0.47641 0.0
C3268 C 0.78908 0.77892 0.45925 0.0
C3269 C 0.82675 0.75468 0.47973 0.0
C3270 C 0.74409 0.813 0.47011 0.0
C3271 C 0.75505 0.80475 0.46707 0.0
C3272 C 0.78936 0.79906 0.47895 0.0
C3273 C 0.80616 0.76565 0.47227 0.0
C3274 C 0.79817 0.77804 0.47008 0.0
C3275 C 0.7683 0.80918 0.4695 0.0
C3276 C 0.77965 0.7995 0.46863 0.0
H3277 H 0.80168 0.73173 0.47424 0.0
H3278 H 0.78941 0.75214 0.46838 0.0
H3279 H 0.80537 0.78796 0.48817 0.0
H3280 H 0.76123 0.84055 0.4815 0.0
H3281 H 0.78045 0.82615 0.47605 0.0
C3282 C 0.17405 0.75261 0.5103 0.0
C3283 C 0.16772 0.74756 0.49869 0.0
C3284 C 0.18247 0.76386 0.5095 0.0
C3285 C 0.20426 0.78114 0.48552 0.0
H3286 H 0.20593 0.80875 0.51316 0.0
C3287 C 0.24346 0.82375 0.48337 0.0
C3288 C 0.25018 0.82652 0.49553 0.0
C3289 C 0.23196 0.81566 0.48329 0.0
C3290 C 0.20561 0.80107 0.5054 0.0
H3291 H 0.16462 0.75074 0.47726 0.0
H3292 H 0.17944 0.77034 0.47585 0.0
H3293 H 0.18805 0.79182 0.51391 0.0
H3294 H 0.25011 0.82313 0.51712 0.0
H3295 H 0.23013 0.80882 0.51697 0.0
H3296 H 0.22202 0.79006 0.47723 0.0
C3297 C 0.17803 0.76548 0.48553 0.0
C3298 C 0.19538 0.79141 0.50582 0.0
C3299 C 0.16959 0.75425 0.48633 0.0
C3300 C 0.24505 0.82126 0.50763 0.0
C3301 C 0.23358 0.81311 0.50754 0.0
C3302 C 0.2145 0.79075 0.48512 0.0
C3303 C 0.18472 0.77025 0.49706 0.0
C3304 C 0.19473 0.78125 0.49599 0.0
C3305 C 0.22699 0.81013 0.49535 0.0
C3306 C 0.21541 0.80069 0.49517 0.0
H3307 H 0.17291 0.74759 0.51993 0.0
H3308 H 0.18763 0.76721 0.51852 0.0
H3309 H 0.20412 0.7733 0.47792 0.0
H3310 H 0.24708 0.82789 0.47393 0.0
H3311 H 0.22697 0.8137 0.47377 0.0
C3312 C 0.51354 0.17173 0.24032 0.0
C3313 C 0.51351 0.17663 0.2536 0.0
C3314 C 0.5165 0.1803 0.22957 0.0
C3315 C 0.53067 0.21382 0.22085 0.0
H3316 H 0.50551 0.21162 0.19099 0.0
C3317 C 0.5191 0.25792 0.18497 0.0
C3318 C 0.51596 0.25503 0.17147 0.0
C3319 C 0.52176 0.24749 0.19404 0.0
C3320 C 0.51282 0.21222 0.19909 0.0
H3321 H 0.51692 0.19421 0.26612 0.0
H3322 H 0.52189 0.20928 0.24733 0.0
H3323 H 0.50463 0.19483 0.20877 0.0
H3324 H 0.51411 0.23911 0.15661 0.0
H3325 H 0.51878 0.22086 0.17246 0.0
H3326 H 0.53851 0.23155 0.21131 0.0
C3327 C 0.51985 0.19876 0.24522 0.0
C3328 C 0.51231 0.20258 0.2093 0.0
C3329 C 0.51694 0.19016 0.25598 0.0
C3330 C 0.51625 0.24159 0.16703 0.0
C3331 C 0.51893 0.23116 0.17609 0.0
C3332 C 0.53117 0.2235 0.21062 0.0
C3333 C 0.51944 0.19397 0.23189 0.0
C3334 C 0.52105 0.20341 0.22042 0.0
C3335 C 0.52135 0.23398 0.18976 0.0
C3336 C 0.52207 0.22292 0.19977 0.0
H3337 H 0.51119 0.16127 0.23823 0.0
H3338 H 0.51633 0.17627 0.21942 0.0
H3339 H 0.53766 0.21461 0.2292 0.0
H3340 H 0.51883 0.26818 0.1887 0.0
H3341 H 0.52342 0.24998 0.20454 0.0
C3342 C 0.80464 0.47715 0.25624 0.0
C3343 C 0.81859 0.4778 0.25393 0.0
C3344 C 0.79588 0.47345 0.24587 0.0
C3345 C 0.79387 0.475 0.20929 0.0
H3346 H 0.76059 0.45519 0.21466 0.0
C3347 C 0.75343 0.47347 0.16807 0.0
C3348 C 0.7404 0.4766 0.17265 0.0
C3349 C 0.76355 0.47003 0.17722 0.0
C3350 C 0.76986 0.46072 0.21301 0.0
H3351 H 0.83441 0.47422 0.23926 0.0
H3352 H 0.81908 0.46783 0.2211 0.0
H3353 H 0.77759 0.45552 0.2325 0.0
H3354 H 0.72762 0.47821 0.19032 0.0
H3355 H 0.74529 0.47238 0.20629 0.0
H3356 H 0.78598 0.48073 0.19011 0.0
C3357 C 0.81492 0.47038 0.23087 0.0
C3358 C 0.77958 0.46091 0.22321 0.0
C3359 C 0.82367 0.47408 0.24123 0.0
C3360 C 0.73754 0.47571 0.18649 0.0
C3361 C 0.74766 0.47231 0.19564 0.0
C3362 C 0.78417 0.47485 0.19913 0.0
C3363 C 0.80092 0.47033 0.233 0.0
C3364 C 0.79152 0.46835 0.22157 0.0
C3365 C 0.76084 0.46971 0.19113 0.0
C3366 C 0.7719 0.46802 0.20103 0.0
H3367 H 0.80044 0.48005 0.26589 0.0
H3368 H 0.78513 0.47368 0.24776 0.0
H3369 H 0.8029 0.48098 0.2078 0.0
H3370 H 0.75583 0.47386 0.15742 0.0
H3371 H 0.77357 0.46788 0.17344 0.0
C3372 C 0.51579 0.74131 0.18297 0.0
C3373 C 0.51062 0.74253 0.16985 0.0
C3374 C 0.51775 0.7527 0.19093 0.0
C3375 C 0.50491 0.78697 0.19523 0.0
H3376 H 0.5333 0.78866 0.22209 0.0
C3377 C 0.50704 0.8282 0.23639 0.0
C3378 C 0.50813 0.82295 0.24953 0.0
C3379 C 0.50932 0.81997 0.2252 0.0
C3380 C 0.52536 0.78834 0.21459 0.0
H3381 H 0.50396 0.75666 0.15455 0.0
H3382 H 0.50745 0.77669 0.16852 0.0
H3383 H 0.5342 0.77147 0.20451 0.0
H3384 H 0.51252 0.80494 0.26117 0.0
H3385 H 0.51674 0.7907 0.24165 0.0
H3386 H 0.49595 0.80369 0.20553 0.0
C3387 C 0.50981 0.76687 0.17268 0.0
C3388 C 0.52584 0.7785 0.20456 0.0
C3389 C 0.5078 0.75543 0.1647 0.0
C3390 C 0.51181 0.80937 0.25122 0.0
C3391 C 0.51423 0.80121 0.24004 0.0
C3392 C 0.50449 0.79689 0.20521 0.0
C3393 C 0.51462 0.76559 0.18596 0.0
C3394 C 0.51538 0.77742 0.19506 0.0
C3395 C 0.5129 0.8064 0.22694 0.0
C3396 C 0.51449 0.79737 0.21522 0.0
H3397 H 0.51785 0.73149 0.18729 0.0
H3398 H 0.52119 0.75131 0.20121 0.0
H3399 H 0.49662 0.78634 0.18815 0.0
H3400 H 0.50447 0.83869 0.23473 0.0
H3401 H 0.5083 0.82422 0.21518 0.0
C3402 C 0.16867 0.4839 0.23984 0.0
C3403 C 0.1667 0.49668 0.24563 0.0
C3404 C 0.17593 0.48255 0.22788 0.0
C3405 C 0.18981 0.50158 0.19887 0.0
H3406 H 0.21796 0.47448 0.20017 0.0
C3407 C 0.2387 0.50464 0.16797 0.0
C3408 C 0.24481 0.49262 0.16368 0.0
C3409 C 0.22693 0.50426 0.17566 0.0
C3410 C 0.20998 0.4819 0.19947 0.0
H3411 H 0.17048 0.51809 0.24328 0.0
H3412 H 0.18327 0.51573 0.22244 0.0
H3413 H 0.20125 0.47537 0.21803 0.0
H3414 H 0.24295 0.47084 0.16317 0.0
H3415 H 0.2223 0.47017 0.17654 0.0
H3416 H 0.19888 0.50836 0.18048 0.0
C3417 C 0.17902 0.50678 0.22703 0.0
C3418 C 0.2004 0.48242 0.20972 0.0
C3419 C 0.17175 0.50812 0.23899 0.0
C3420 C 0.23856 0.48025 0.16659 0.0
C3421 C 0.22676 0.47986 0.17422 0.0
C3422 C 0.1994 0.50104 0.18858 0.0
C3423 C 0.18138 0.49396 0.22148 0.0
C3424 C 0.1904 0.49245 0.20969 0.0
C3425 C 0.22102 0.49185 0.17914 0.0
C3426 C 0.20976 0.49138 0.18894 0.0
H3427 H 0.16465 0.47493 0.24461 0.0
H3428 H 0.17743 0.47257 0.22372 0.0
H3429 H 0.18209 0.50929 0.1985 0.0
H3430 H 0.24337 0.5143 0.16594 0.0
H3431 H 0.22286 0.51366 0.17944 0.0
C3432 C 0.48735 0.75279 0.82251 0.0
C3433 C 0.49884 0.74576 0.82683 0.0
C3434 C 0.48862 0.76391 0.81398 0.0
C3435 C 0.51167 0.77724 0.7885 0.0
H3436 H 0.48763 0.80808 0.78921 0.0
C3437 C 0.50086 0.82905 0.75629 0.0
C3438 C 0.50082 0.82349 0.74326 0.0
C3439 C 0.50166 0.82068 0.7676 0.0
C3440 C 0.49453 0.79962 0.78898 0.0
H3441 H 0.52069 0.74531 0.82641 0.0
H3442 H 0.52293 0.7648 0.81157 0.0
H3443 H 0.48732 0.79195 0.80784 0.0
H3444 H 0.50183 0.80488 0.73182 0.0
H3445 H 0.50298 0.7903 0.75151 0.0
H3446 H 0.51883 0.78483 0.76964 0.0
C3447 C 0.51293 0.76155 0.81452 0.0
C3448 C 0.49426 0.79033 0.79957 0.0
C3449 C 0.51166 0.7504 0.82299 0.0
C3450 C 0.50167 0.80944 0.74174 0.0
C3451 C 0.50251 0.80111 0.75301 0.0
C3452 C 0.51193 0.78651 0.77794 0.0
C3453 C 0.50141 0.76823 0.80967 0.0
C3454 C 0.50266 0.77891 0.7993 0.0
C3455 C 0.50252 0.80663 0.76606 0.0
C3456 C 0.50317 0.79763 0.77793 0.0
H3457 H 0.47735 0.74935 0.82525 0.0
H3458 H 0.47954 0.76874 0.81028 0.0
H3459 H 0.51817 0.76849 0.78791 0.0
H3460 H 0.50013 0.83985 0.75775 0.0
H3461 H 0.5017 0.82521 0.77754 0.0
C3462 C 0.23515 0.51939 0.82024 0.0
C3463 C 0.23684 0.50865 0.82925 0.0
C3464 C 0.22296 0.52102 0.81339 0.0
C3465 C 0.19396 0.50059 0.80235 0.0
H3466 H 0.18241 0.53485 0.78745 0.0
C3467 C 0.15378 0.50346 0.76088 0.0
C3468 C 0.15925 0.50916 0.74908 0.0
C3469 C 0.16014 0.5053 0.77331 0.0
C3470 C 0.18542 0.52525 0.7917 0.0
H3471 H 0.22708 0.49173 0.83898 0.0
H3472 H 0.20555 0.49486 0.82746 0.0
H3473 H 0.19937 0.53445 0.80532 0.0
H3474 H 0.17536 0.52185 0.74133 0.0
H3475 H 0.1861 0.52536 0.76303 0.0
H3476 H 0.18015 0.49142 0.78856 0.0
C3477 C 0.21371 0.50176 0.82526 0.0
C3478 C 0.1952 0.52498 0.80183 0.0
C3479 C 0.22599 0.49998 0.8319 0.0
C3480 C 0.17071 0.51745 0.75017 0.0
C3481 C 0.1769 0.51947 0.76262 0.0
C3482 C 0.18403 0.50088 0.79241 0.0
C3483 C 0.21217 0.51206 0.81561 0.0
C3484 C 0.19999 0.51261 0.80688 0.0
C3485 C 0.17191 0.5131 0.77421 0.0
C3486 C 0.18006 0.51317 0.78666 0.0
H3487 H 0.24345 0.52615 0.81802 0.0
H3488 H 0.22229 0.52892 0.80589 0.0
H3489 H 0.19747 0.49085 0.80581 0.0
H3490 H 0.14478 0.49729 0.76049 0.0
H3491 H 0.15609 0.50034 0.78216 0.0
C3492 C 0.47933 0.17346 0.75015 0.0
C3493 C 0.48317 0.17793 0.73726 0.0
C3494 C 0.47719 0.18271 0.76055 0.0
C3495 C 0.4714 0.21885 0.76753 0.0
H3496 H 0.49052 0.21151 0.80086 0.0
C3497 C 0.48658 0.26059 0.80454 0.0
C3498 C 0.48597 0.2579 0.81842 0.0
C3499 C 0.48409 0.25037 0.79521 0.0
C3500 C 0.48491 0.21362 0.79173 0.0
H3501 H 0.48758 0.1956 0.72512 0.0
H3502 H 0.48376 0.21169 0.7432 0.0
H3503 H 0.4895 0.19427 0.78341 0.0
H3504 H 0.48186 0.24255 0.83345 0.0
H3505 H 0.47753 0.22466 0.81711 0.0
H3506 H 0.46708 0.23832 0.77573 0.0
C3507 C 0.48223 0.20106 0.74524 0.0
C3508 C 0.48432 0.20373 0.78174 0.0
C3509 C 0.48443 0.19184 0.73488 0.0
C3510 C 0.48264 0.24484 0.8228 0.0
C3511 C 0.48013 0.23462 0.81346 0.0
C3512 C 0.47196 0.22872 0.77753 0.0
C3513 C 0.47879 0.19658 0.75822 0.0
C3514 C 0.47784 0.20637 0.76943 0.0
C3515 C 0.4809 0.23727 0.79956 0.0
C3516 C 0.47899 0.22632 0.7896 0.0
H3517 H 0.47806 0.16281 0.75223 0.0
H3518 H 0.47441 0.179 0.77044 0.0
H3519 H 0.46616 0.22106 0.75821 0.0
H3520 H 0.48926 0.27053 0.80089 0.0
H3521 H 0.48501 0.25267 0.78457 0.0
C3522 C 0.7476 0.50959 0.81927 0.0
C3523 C 0.74339 0.49701 0.82423 0.0
C3524 C 0.75859 0.5105 0.81057 0.0
C3525 C 0.78857 0.49211 0.79843 0.0
H3526 H 0.78411 0.51457 0.76673 0.0
C3527 C 0.82251 0.48811 0.7514 0.0
C3528 C 0.82574 0.50005 0.7445 0.0
C3529 C 0.81358 0.48836 0.76227 0.0
C3530 C 0.78562 0.50843 0.77564 0.0
H3531 H 0.74748 0.47553 0.82412 0.0
H3532 H 0.76669 0.47711 0.80881 0.0
H3533 H 0.76636 0.51381 0.78362 0.0
H3534 H 0.82273 0.5217 0.74396 0.0
H3535 H 0.80716 0.52215 0.763 0.0
H3536 H 0.80779 0.48659 0.7903 0.0
C3537 C 0.76157 0.48629 0.81181 0.0
C3538 C 0.77544 0.50799 0.78531 0.0
C3539 C 0.75057 0.48537 0.82053 0.0
C3540 C 0.82022 0.51231 0.74896 0.0
C3541 C 0.81133 0.51257 0.75984 0.0
C3542 C 0.79878 0.49257 0.78875 0.0
C3543 C 0.76561 0.49885 0.80663 0.0
C3544 C 0.77675 0.49975 0.79675 0.0
C3545 C 0.80774 0.50056 0.76647 0.0
C3546 C 0.79736 0.50065 0.7772 0.0
H3547 H 0.74243 0.51876 0.82219 0.0
H3548 H 0.76162 0.52035 0.80692 0.0
H3549 H 0.78993 0.4858 0.80725 0.0
H3550 H 0.8265 0.4785 0.74809 0.0
H3551 H 0.81088 0.47892 0.76706 0.0
loop_
_geom_bond_atom_site_label_1
_geom_bond_atom_site_label_2
_geom_bond_distance
_geom_bond_site_symmetry_2
_ccdc_geom_bond_type
Li0 N17 1.990 . S
Li0 O60 1.956 . S
Li0 O61 1.970 . S
Li0 O62 1.961 . S
Li1 N25 1.990 . S
Li1 O60 1.970 . S
Li1 O61 1.956 . S
Li1 O63 1.961 . S
Li2 N47 1.990 . S
Li2 O60 1.961 . S
Li2 O62 1.956 . S
Li2 O63 1.970 . S
Li3 N53 1.990 . S
Li3 O61 1.961 . S
Li3 O62 1.970 . S
Li3 O63 1.956 . S
C4 C6 1.348 . S
C4 C7 1.356 . S
C4 O60 1.325 . S
N5 C8 1.314 . S
N5 C9 1.279 . S
C6 C4 1.348 . S
C6 C8 1.353 . S
C6 H64 0.929 . S
C7 C4 1.356 . S
C7 C9 1.358 . S
C7 H65 0.930 . S
C8 N5 1.314 . S
C8 C6 1.353 . S
C8 H66 0.930 . S
C9 N5 1.279 . S
C9 C7 1.358 . S
C9 H67 0.930 . S
C10 C13 1.348 . S
C10 C14 1.356 . S
C10 O61 1.325 . S
C11 N12 1.279 . S
C11 C14 1.358 . S
C11 H68 0.930 . S
N12 C11 1.279 . S
N12 C15 1.314 . S
C13 C10 1.348 . S
C13 C15 1.353 . S
C13 H69 0.929 . S
C14 C10 1.356 . S
C14 C11 1.358 . S
C14 H70 0.930 . S
C15 N12 1.314 . S
C15 C13 1.353 . S
C15 H71 0.930 . S
C16 N17 1.314 . S
C16 C21 1.353 . S
C16 H22 0.930 . S
N17 Li0 1.990 . S
N17 C16 1.314 . S
N17 C19 1.279 . S
C18 C19 1.358 . S
C18 C20 1.356 . S
C18 H72 0.930 . S
C19 N17 1.279 . S
C19 C18 1.358 . S
C19 H23 0.930 . S
C20 C18 1.356 . S
C20 C21 1.348 . S
C21 C16 1.353 . S
C21 C20 1.348 . S
C21 H73 0.929 . S
H22 C16 0.930 . S
H23 C19 0.930 . S
C24 N25 1.314 . S
C24 C26 1.353 . S
C24 H30 0.930 . S
N25 Li1 1.990 . S
N25 C24 1.314 . S
N25 C28 1.279 . S
C26 C24 1.353 . S
C26 C29 1.348 . S
C26 H74 0.929 . S
C27 C28 1.358 . S
C27 C29 1.356 . S
C27 H75 0.930 . S
C28 N25 1.279 . S
C28 C27 1.358 . S
C28 H31 0.930 . S
C29 C26 1.348 . S
C29 C27 1.356 . S
H30 C24 0.930 . S
H31 C28 0.930 . S
C32 C34 1.348 . S
C32 C35 1.356 . S
C32 O62 1.325 . S
N33 C36 1.314 . S
N33 C37 1.279 . S
C34 C32 1.348 . S
C34 C36 1.353 . S
C34 H76 0.929 . S
C35 C32 1.356 . S
C35 C37 1.358 . S
C35 H77 0.930 . S
C36 N33 1.314 . S
C36 C34 1.353 . S
C36 H78 0.930 . S
C37 N33 1.279 . S
C37 C35 1.358 . S
C37 H79 0.930 . S
C38 C39 1.348 . S
C38 C40 1.356 . S
C38 O63 1.325 . S
C39 C38 1.348 . S
C39 C41 1.353 . S
C39 H80 0.929 . S
C40 C38 1.356 . S
C40 C42 1.358 . S
C40 H81 0.930 . S
C41 C39 1.353 . S
C41 N43 1.314 . S
C41 H82 0.930 . S
C42 C40 1.358 . S
C42 N43 1.279 . S
C42 H83 0.930 . S
N43 C41 1.314 . S
N43 C42 1.279 . S
C44 C46 1.353 . S
C44 N47 1.314 . S
C44 H50 0.930 . S
C45 N47 1.279 . S
C45 C48 1.358 . S
C45 H51 0.930 . S
C46 C44 1.353 . S
C46 C49 1.348 . S
C46 H84 0.929 . S
N47 Li2 1.990 . S
N47 C44 1.314 . S
N47 C45 1.279 . S
C48 C45 1.358 . S
C48 C49 1.356 . S
C48 H85 0.930 . S
C49 C46 1.348 . S
C49 C48 1.356 . S
H50 C44 0.930 . S
H51 C45 0.930 . S
C52 N53 1.314 . S
C52 C54 1.353 . S
C52 H58 0.930 . S
N53 Li3 1.990 . S
N53 C52 1.314 . S
N53 C56 1.279 . S
C54 C52 1.353 . S
C54 C57 1.348 . S
C54 H86 0.929 . S
C55 C56 1.358 . S
C55 C57 1.356 . S
C55 H87 0.930 . S
C56 N53 1.279 . S
C56 C55 1.358 . S
C56 H59 0.930 . S
C57 C54 1.348 . S
C57 C55 1.356 . S
H58 C52 0.930 . S
H59 C56 0.930 . S
O60 Li0 1.956 . S
O60 Li1 1.970 . S
O60 Li2 1.961 . S
O60 C4 1.325 . S
O61 Li0 1.970 . S
O61 Li1 1.956 . S
O61 Li3 1.961 . S
O61 C10 1.325 . S
O62 Li0 1.961 . S
O62 Li2 1.956 . S
O62 Li3 1.970 . S
O62 C32 1.325 . S
O63 Li1 1.961 . S
O63 Li2 1.970 . S
O63 Li3 1.956 . S
O63 C38 1.325 . S
H64 C6 0.929 . S
H65 C7 0.930 . S
H66 C8 0.930 . S
H67 C9 0.930 . S
H68 C11 0.930 . S
H69 C13 0.929 . S
H70 C14 0.930 . S
H71 C15 0.930 . S
H72 C18 0.930 . S
H73 C21 0.929 . S
H74 C26 0.929 . S
H75 C27 0.930 . S
H76 C34 0.929 . S
H77 C35 0.930 . S
H78 C36 0.930 . S
H79 C37 0.930 . S
H80 C39 0.929 . S
H81 C40 0.930 . S
H82 C41 0.930 . S
H83 C42 0.930 . S
H84 C46 0.929 . S
H85 C48 0.930 . S
H86 C54 0.929 . S
H87 C55 0.930 . S
Li88 N105 1.990 . S
Li88 O148 1.956 . S
Li88 O149 1.970 . S
Li88 O150 1.961 . S
Li89 N113 1.990 . S
Li89 O148 1.970 . S
Li89 O149 1.956 . S
Li89 O151 1.961 . S
Li90 N135 1.990 . S
Li90 O148 1.961 . S
Li90 O150 1.956 . S
Li90 O151 1.970 . S
Li91 N141 1.990 . S
Li91 O149 1.961 . S
Li91 O150 1.970 . S
Li91 O151 1.956 . S
C92 C94 1.348 . S
C92 C95 1.356 . S
C92 O148 1.325 . S
N93 C96 1.314 . S
N93 C97 1.279 . S
C94 C92 1.348 . S
C94 C96 1.353 . S
C94 H152 0.929 . S
C95 C92 1.356 . S
C95 C97 1.358 . S
C95 H153 0.930 . S
C96 N93 1.314 . S
C96 C94 1.353 . S
C96 H154 0.930 . S
C97 N93 1.279 . S
C97 C95 1.358 . S
C97 H155 0.930 . S
C98 C101 1.348 . S
C98 C102 1.356 . S
C98 O149 1.325 . S
C99 N100 1.279 . S
C99 C102 1.358 . S
C99 H156 0.930 . S
N100 C99 1.279 . S
N100 C103 1.314 . S
C101 C98 1.348 . S
C101 C103 1.353 . S
C101 H157 0.929 . S
C102 C98 1.356 . S
C102 C99 1.358 . S
C102 H158 0.930 . S
C103 N100 1.314 . S
C103 C101 1.353 . S
C103 H159 0.930 . S
C104 N105 1.314 . S
C104 C109 1.353 . S
C104 H110 0.930 . S
N105 Li88 1.990 . S
N105 C104 1.314 . S
N105 C107 1.279 . S
C106 C107 1.358 . S
C106 C108 1.356 . S
C106 H160 0.930 . S
C107 N105 1.279 . S
C107 C106 1.358 . S
C107 H111 0.930 . S
C108 C106 1.356 . S
C108 C109 1.348 . S
C109 C104 1.353 . S
C109 C108 1.348 . S
C109 H161 0.929 . S
H110 C104 0.930 . S
H111 C107 0.930 . S
C112 N113 1.314 . S
C112 C114 1.353 . S
C112 H118 0.930 . S
N113 Li89 1.990 . S
N113 C112 1.314 . S
N113 C116 1.279 . S
C114 C112 1.353 . S
C114 C117 1.348 . S
C114 H162 0.929 . S
C115 C116 1.358 . S
C115 C117 1.356 . S
C115 H163 0.930 . S
C116 N113 1.279 . S
C116 C115 1.358 . S
C116 H119 0.930 . S
C117 C114 1.348 . S
C117 C115 1.356 . S
H118 C112 0.930 . S
H119 C116 0.930 . S
C120 C122 1.348 . S
C120 C123 1.356 . S
C120 O150 1.325 . S
N121 C124 1.314 . S
N121 C125 1.279 . S
C122 C120 1.348 . S
C122 C124 1.353 . S
C122 H164 0.929 . S
C123 C120 1.356 . S
C123 C125 1.358 . S
C123 H165 0.930 . S
C124 N121 1.314 . S
C124 C122 1.353 . S
C124 H166 0.930 . S
C125 N121 1.279 . S
C125 C123 1.358 . S
C125 H167 0.930 . S
C126 C127 1.348 . S
C126 C128 1.356 . S
C126 O151 1.325 . S
C127 C126 1.348 . S
C127 C129 1.353 . S
C127 H168 0.929 . S
C128 C126 1.356 . S
C128 C130 1.358 . S
C128 H169 0.930 . S
C129 C127 1.353 . S
C129 N131 1.314 . S
C129 H170 0.930 . S
C130 C128 1.358 . S
C130 N131 1.279 . S
C130 H171 0.930 . S
N131 C129 1.314 . S
N131 C130 1.279 . S
C132 C134 1.353 . S
C132 N135 1.314 . S
C132 H138 0.930 . S
C133 N135 1.279 . S
C133 C136 1.358 . S
C133 H139 0.930 . S
C134 C132 1.353 . S
C134 C137 1.348 . S
C134 H172 0.929 . S
N135 Li90 1.990 . S
N135 C132 1.314 . S
N135 C133 1.279 . S
C136 C133 1.358 . S
C136 C137 1.356 . S
C136 H173 0.930 . S
C137 C134 1.348 . S
C137 C136 1.356 . S
H138 C132 0.930 . S
H139 C133 0.930 . S
C140 N141 1.314 . S
C140 C142 1.353 . S
C140 H146 0.930 . S
N141 Li91 1.990 . S
N141 C140 1.314 . S
N141 C144 1.279 . S
C142 C140 1.353 . S
C142 C145 1.348 . S
C142 H174 0.929 . S
C143 C144 1.358 . S
C143 C145 1.356 . S
C143 H175 0.930 . S
C144 N141 1.279 . S
C144 C143 1.358 . S
C144 H147 0.930 . S
C145 C142 1.348 . S
C145 C143 1.356 . S
H146 C140 0.930 . S
H147 C144 0.930 . S
O148 Li88 1.956 . S
O148 Li89 1.970 . S
O148 Li90 1.961 . S
O148 C92 1.325 . S
O149 Li88 1.970 . S
O149 Li89 1.956 . S
O149 Li91 1.961 . S
O149 C98 1.325 . S
O150 Li88 1.961 . S
O150 Li90 1.956 . S
O150 Li91 1.970 . S
O150 C120 1.325 . S
O151 Li89 1.961 . S
O151 Li90 1.970 . S
O151 Li91 1.956 . S
O151 C126 1.325 . S
H152 C94 0.929 . S
H153 C95 0.930 . S
H154 C96 0.930 . S
H155 C97 0.930 . S
H156 C99 0.930 . S
H157 C101 0.929 . S
H158 C102 0.930 . S
H159 C103 0.930 . S
H160 C106 0.930 . S
H161 C109 0.929 . S
H162 C114 0.929 . S
H163 C115 0.930 . S
H164 C122 0.929 . S
H165 C123 0.930 . S
H166 C124 0.930 . S
H167 C125 0.930 . S
H168 C127 0.929 . S
H169 C128 0.930 . S
H170 C129 0.930 . S
H171 C130 0.930 . S
H172 C134 0.929 . S
H173 C136 0.930 . S
H174 C142 0.929 . S
H175 C143 0.930 . S
Li176 N193 1.990 . S
Li176 O236 1.956 . S
Li176 O237 1.970 . S
Li176 O238 1.961 . S
Li177 N201 1.990 . S
Li177 O236 1.970 . S
Li177 O237 1.956 . S
Li177 O239 1.961 . S
Li178 N223 1.990 . S
Li178 O236 1.961 . S
Li178 O238 1.956 . S
Li178 O239 1.970 . S
Li179 N229 1.990 . S
Li179 O237 1.961 . S
Li179 O238 1.970 . S
Li179 O239 1.956 . S
C180 C182 1.348 . S
C180 C183 1.356 . S
C180 O236 1.325 . S
N181 C184 1.314 . S
N181 C185 1.279 . S
C182 C180 1.348 . S
C182 C184 1.353 . S
C182 H240 0.929 . S
C183 C180 1.356 . S
C183 C185 1.358 . S
C183 H241 0.930 . S
C184 N181 1.314 . S
C184 C182 1.353 . S
C184 H242 0.930 . S
C185 N181 1.279 . S
C185 C183 1.358 . S
C185 H243 0.930 . S
C186 C189 1.348 . S
C186 C190 1.356 . S
C186 O237 1.325 . S
C187 N188 1.279 . S
C187 C190 1.358 . S
C187 H244 0.930 . S
N188 C187 1.279 . S
N188 C191 1.314 . S
C189 C186 1.348 . S
C189 C191 1.353 . S
C189 H245 0.929 . S
C190 C186 1.356 . S
C190 C187 1.358 . S
C190 H246 0.930 . S
C191 N188 1.314 . S
C191 C189 1.353 . S
C191 H247 0.930 . S
C192 N193 1.314 . S
C192 C197 1.353 . S
C192 H198 0.930 . S
N193 Li176 1.990 . S
N193 C192 1.314 . S
N193 C195 1.279 . S
C194 C195 1.358 . S
C194 C196 1.356 . S
C194 H248 0.930 . S
C195 N193 1.279 . S
C195 C194 1.358 . S
C195 H199 0.930 . S
C196 C194 1.356 . S
C196 C197 1.348 . S
C197 C192 1.353 . S
C197 C196 1.348 . S
C197 H249 0.929 . S
H198 C192 0.930 . S
H199 C195 0.930 . S
C200 N201 1.314 . S
C200 C202 1.353 . S
C200 H206 0.930 . S
N201 Li177 1.990 . S
N201 C200 1.314 . S
N201 C204 1.279 . S
C202 C200 1.353 . S
C202 C205 1.348 . S
C202 H250 0.929 . S
C203 C204 1.358 . S
C203 C205 1.356 . S
C203 H251 0.930 . S
C204 N201 1.279 . S
C204 C203 1.358 . S
C204 H207 0.930 . S
C205 C202 1.348 . S
C205 C203 1.356 . S
H206 C200 0.930 . S
H207 C204 0.930 . S
C208 C210 1.348 . S
C208 C211 1.356 . S
C208 O238 1.325 . S
N209 C212 1.314 . S
N209 C213 1.279 . S
C210 C208 1.348 . S
C210 C212 1.353 . S
C210 H252 0.929 . S
C211 C208 1.356 . S
C211 C213 1.358 . S
C211 H253 0.930 . S
C212 N209 1.314 . S
C212 C210 1.353 . S
C212 H254 0.930 . S
C213 N209 1.279 . S
C213 C211 1.358 . S
C213 H255 0.930 . S
C214 C215 1.348 . S
C214 C216 1.356 . S
C214 O239 1.325 . S
C215 C214 1.348 . S
C215 C217 1.353 . S
C215 H256 0.929 . S
C216 C214 1.356 . S
C216 C218 1.358 . S
C216 H257 0.930 . S
C217 C215 1.353 . S
C217 N219 1.314 . S
C217 H258 0.930 . S
C218 C216 1.358 . S
C218 N219 1.279 . S
C218 H259 0.930 . S
N219 C217 1.314 . S
N219 C218 1.279 . S
C220 C222 1.353 . S
C220 N223 1.314 . S
C220 H226 0.930 . S
C221 N223 1.279 . S
C221 C224 1.358 . S
C221 H227 0.930 . S
C222 C220 1.353 . S
C222 C225 1.348 . S
C222 H260 0.929 . S
N223 Li178 1.990 . S
N223 C220 1.314 . S
N223 C221 1.279 . S
C224 C221 1.358 . S
C224 C225 1.356 . S
C224 H261 0.930 . S
C225 C222 1.348 . S
C225 C224 1.356 . S
H226 C220 0.930 . S
H227 C221 0.930 . S
C228 N229 1.314 . S
C228 C230 1.353 . S
C228 H234 0.930 . S
N229 Li179 1.990 . S
N229 C228 1.314 . S
N229 C232 1.279 . S
C230 C228 1.353 . S
C230 C233 1.348 . S
C230 H262 0.929 . S
C231 C232 1.358 . S
C231 C233 1.356 . S
C231 H263 0.930 . S
C232 N229 1.279 . S
C232 C231 1.358 . S
C232 H235 0.930 . S
C233 C230 1.348 . S
C233 C231 1.356 . S
H234 C228 0.930 . S
H235 C232 0.930 . S
O236 Li176 1.956 . S
O236 Li177 1.970 . S
O236 Li178 1.961 . S
O236 C180 1.325 . S
O237 Li176 1.970 . S
O237 Li177 1.956 . S
O237 Li179 1.961 . S
O237 C186 1.325 . S
O238 Li176 1.961 . S
O238 Li178 1.956 . S
O238 Li179 1.970 . S
O238 C208 1.325 . S
O239 Li177 1.961 . S
O239 Li178 1.970 . S
O239 Li179 1.956 . S
O239 C214 1.325 . S
H240 C182 0.929 . S
H241 C183 0.930 . S
H242 C184 0.930 . S
H243 C185 0.930 . S
H244 C187 0.930 . S
H245 C189 0.929 . S
H246 C190 0.930 . S
H247 C191 0.930 . S
H248 C194 0.930 . S
H249 C197 0.929 . S
H250 C202 0.929 . S
H251 C203 0.930 . S
H252 C210 0.929 . S
H253 C211 0.930 . S
H254 C212 0.930 . S
H255 C213 0.930 . S
H256 C215 0.929 . S
H257 C216 0.930 . S
H258 C217 0.930 . S
H259 C218 0.930 . S
H260 C222 0.929 . S
H261 C224 0.930 . S
H262 C230 0.929 . S
H263 C231 0.930 . S
Li264 N281 1.990 . S
Li264 O324 1.956 . S
Li264 O325 1.970 . S
Li264 O326 1.961 . S
Li265 N289 1.990 . S
Li265 O324 1.970 . S
Li265 O325 1.956 . S
Li265 O327 1.961 . S
Li266 N311 1.990 . S
Li266 O324 1.961 . S
Li266 O326 1.956 . S
Li266 O327 1.970 . S
Li267 N317 1.990 . S
Li267 O325 1.961 . S
Li267 O326 1.970 . S
Li267 O327 1.956 . S
C268 C270 1.348 . S
C268 C271 1.356 . S
C268 O324 1.325 . S
N269 C272 1.314 . S
N269 C273 1.279 . S
C270 C268 1.348 . S
C270 C272 1.353 . S
C270 H328 0.929 . S
C271 C268 1.356 . S
C271 C273 1.358 . S
C271 H329 0.930 . S
C272 N269 1.314 . S
C272 C270 1.353 . S
C272 H330 0.930 . S
C273 N269 1.279 . S
C273 C271 1.358 . S
C273 H331 0.930 . S
C274 C277 1.348 . S
C274 C278 1.356 . S
C274 O325 1.325 . S
C275 N276 1.279 . S
C275 C278 1.358 . S
C275 H332 0.930 . S
N276 C275 1.279 . S
N276 C279 1.314 . S
C277 C274 1.348 . S
C277 C279 1.353 . S
C277 H333 0.929 . S
C278 C274 1.356 . S
C278 C275 1.358 . S
C278 H334 0.930 . S
C279 N276 1.314 . S
C279 C277 1.353 . S
C279 H335 0.930 . S
C280 N281 1.314 . S
C280 C285 1.353 . S
C280 H286 0.930 . S
N281 Li264 1.990 . S
N281 C280 1.314 . S
N281 C283 1.279 . S
C282 C283 1.358 . S
C282 C284 1.356 . S
C282 H336 0.930 . S
C283 N281 1.279 . S
C283 C282 1.358 . S
C283 H287 0.930 . S
C284 C282 1.356 . S
C284 C285 1.348 . S
C285 C280 1.353 . S
C285 C284 1.348 . S
C285 H337 0.929 . S
H286 C280 0.930 . S
H287 C283 0.930 . S
C288 N289 1.314 . S
C288 C290 1.353 . S
C288 H294 0.930 . S
N289 Li265 1.990 . S
N289 C288 1.314 . S
N289 C292 1.279 . S
C290 C288 1.353 . S
C290 C293 1.348 . S
C290 H338 0.929 . S
C291 C292 1.358 . S
C291 C293 1.356 . S
C291 H339 0.930 . S
C292 N289 1.279 . S
C292 C291 1.358 . S
C292 H295 0.930 . S
C293 C290 1.348 . S
C293 C291 1.356 . S
H294 C288 0.930 . S
H295 C292 0.930 . S
C296 C298 1.348 . S
C296 C299 1.356 . S
C296 O326 1.325 . S
N297 C300 1.314 . S
N297 C301 1.279 . S
C298 C296 1.348 . S
C298 C300 1.353 . S
C298 H340 0.929 . S
C299 C296 1.356 . S
C299 C301 1.358 . S
C299 H341 0.930 . S
C300 N297 1.314 . S
C300 C298 1.353 . S
C300 H342 0.930 . S
C301 N297 1.279 . S
C301 C299 1.358 . S
C301 H343 0.930 . S
C302 C303 1.348 . S
C302 C304 1.356 . S
C302 O327 1.325 . S
C303 C302 1.348 . S
C303 C305 1.353 . S
C303 H344 0.929 . S
C304 C302 1.356 . S
C304 C306 1.358 . S
C304 H345 0.930 . S
C305 C303 1.353 . S
C305 N307 1.314 . S
C305 H346 0.930 . S
C306 C304 1.358 . S
C306 N307 1.279 . S
C306 H347 0.930 . S
N307 C305 1.314 . S
N307 C306 1.279 . S
C308 C310 1.353 . S
C308 N311 1.314 . S
C308 H314 0.930 . S
C309 N311 1.279 . S
C309 C312 1.358 . S
C309 H315 0.930 . S
C310 C308 1.353 . S
C310 C313 1.348 . S
C310 H348 0.929 . S
N311 Li266 1.990 . S
N311 C308 1.314 . S
N311 C309 1.279 . S
C312 C309 1.358 . S
C312 C313 1.356 . S
C312 H349 0.930 . S
C313 C310 1.348 . S
C313 C312 1.356 . S
H314 C308 0.930 . S
H315 C309 0.930 . S
C316 N317 1.314 . S
C316 C318 1.353 . S
C316 H322 0.930 . S
N317 Li267 1.990 . S
N317 C316 1.314 . S
N317 C320 1.279 . S
C318 C316 1.353 . S
C318 C321 1.348 . S
C318 H350 0.929 . S
C319 C320 1.358 . S
C319 C321 1.356 . S
C319 H351 0.930 . S
C320 N317 1.279 . S
C320 C319 1.358 . S
C320 H323 0.930 . S
C321 C318 1.348 . S
C321 C319 1.356 . S
H322 C316 0.930 . S
H323 C320 0.930 . S
O324 Li264 1.956 . S
O324 Li265 1.970 . S
O324 Li266 1.961 . S
O324 C268 1.325 . S
O325 Li264 1.970 . S
O325 Li265 1.956 . S
O325 Li267 1.961 . S
O325 C274 1.325 . S
O326 Li264 1.961 . S
O326 Li266 1.956 . S
O326 Li267 1.970 . S
O326 C296 1.325 . S
O327 Li265 1.961 . S
O327 Li266 1.970 . S
O327 Li267 1.956 . S
O327 C302 1.325 . S
H328 C270 0.929 . S
H329 C271 0.930 . S
H330 C272 0.930 . S
H331 C273 0.930 . S
H332 C275 0.930 . S
H333 C277 0.929 . S
H334 C278 0.930 . S
H335 C279 0.930 . S
H336 C282 0.930 . S
H337 C285 0.929 . S
H338 C290 0.929 . S
H339 C291 0.930 . S
H340 C298 0.929 . S
H341 C299 0.930 . S
H342 C300 0.930 . S
H343 C301 0.930 . S
H344 C303 0.929 . S
H345 C304 0.930 . S
H346 C305 0.930 . S
H347 C306 0.930 . S
H348 C310 0.929 . S
H349 C312 0.930 . S
H350 C318 0.929 . S
H351 C319 0.930 . S
Li352 N369 1.990 . S
Li352 O412 1.956 . S
Li352 O413 1.970 . S
Li352 O414 1.961 . S
Li353 N377 1.990 . S
Li353 O412 1.970 . S
Li353 O413 1.956 . S
Li353 O415 1.961 . S
Li354 N399 1.990 . S
Li354 O412 1.961 . S
Li354 O414 1.956 . S
Li354 O415 1.970 . S
Li355 N405 1.990 . S
Li355 O413 1.961 . S
Li355 O414 1.970 . S
Li355 O415 1.956 . S
C356 C358 1.348 . S
C356 C359 1.356 . S
C356 O412 1.325 . S
N357 C360 1.314 . S
N357 C361 1.279 . S
C358 C356 1.348 . S
C358 C360 1.353 . S
C358 H416 0.929 . S
C359 C356 1.356 . S
C359 C361 1.358 . S
C359 H417 0.930 . S
C360 N357 1.314 . S
C360 C358 1.353 . S
C360 H418 0.930 . S
C361 N357 1.279 . S
C361 C359 1.358 . S
C361 H419 0.930 . S
C362 C365 1.348 . S
C362 C366 1.356 . S
C362 O413 1.325 . S
C363 N364 1.279 . S
C363 C366 1.358 . S
C363 H420 0.930 . S
N364 C363 1.279 . S
N364 C367 1.314 . S
C365 C362 1.348 . S
C365 C367 1.353 . S
C365 H421 0.929 . S
C366 C362 1.356 . S
C366 C363 1.358 . S
C366 H422 0.930 . S
C367 N364 1.314 . S
C367 C365 1.353 . S
C367 H423 0.930 . S
C368 N369 1.314 . S
C368 C373 1.353 . S
C368 H374 0.930 . S
N369 Li352 1.990 . S
N369 C368 1.314 . S
N369 C371 1.279 . S
C370 C371 1.358 . S
C370 C372 1.356 . S
C370 H424 0.930 . S
C371 N369 1.279 . S
C371 C370 1.358 . S
C371 H375 0.930 . S
C372 C370 1.356 . S
C372 C373 1.348 . S
C373 C368 1.353 . S
C373 C372 1.348 . S
C373 H425 0.929 . S
H374 C368 0.930 . S
H375 C371 0.930 . S
C376 N377 1.314 . S
C376 C378 1.353 . S
C376 H382 0.930 . S
N377 Li353 1.990 . S
N377 C376 1.314 . S
N377 C380 1.279 . S
C378 C376 1.353 . S
C378 C381 1.348 . S
C378 H426 0.929 . S
C379 C380 1.358 . S
C379 C381 1.356 . S
C379 H427 0.930 . S
C380 N377 1.279 . S
C380 C379 1.358 . S
C380 H383 0.930 . S
C381 C378 1.348 . S
C381 C379 1.356 . S
H382 C376 0.930 . S
H383 C380 0.930 . S
C384 C386 1.348 . S
C384 C387 1.356 . S
C384 O414 1.325 . S
N385 C388 1.314 . S
N385 C389 1.279 . S
C386 C384 1.348 . S
C386 C388 1.353 . S
C386 H428 0.929 . S
C387 C384 1.356 . S
C387 C389 1.358 . S
C387 H429 0.930 . S
C388 N385 1.314 . S
C388 C386 1.353 . S
C388 H430 0.930 . S
C389 N385 1.279 . S
C389 C387 1.358 . S
C389 H431 0.930 . S
C390 C391 1.348 . S
C390 C392 1.356 . S
C390 O415 1.325 . S
C391 C390 1.348 . S
C391 C393 1.353 . S
C391 H432 0.929 . S
C392 C390 1.356 . S
C392 C394 1.358 . S
C392 H433 0.930 . S
C393 C391 1.353 . S
C393 N395 1.314 . S
C393 H434 0.930 . S
C394 C392 1.358 . S
C394 N395 1.279 . S
C394 H435 0.930 . S
N395 C393 1.314 . S
N395 C394 1.279 . S
C396 C398 1.353 . S
C396 N399 1.314 . S
C396 H402 0.930 . S
C397 N399 1.279 . S
C397 C400 1.358 . S
C397 H403 0.930 . S
C398 C396 1.353 . S
C398 C401 1.348 . S
C398 H436 0.929 . S
N399 Li354 1.990 . S
N399 C396 1.314 . S
N399 C397 1.279 . S
C400 C397 1.358 . S
C400 C401 1.356 . S
C400 H437 0.930 . S
C401 C398 1.348 . S
C401 C400 1.356 . S
H402 C396 0.930 . S
H403 C397 0.930 . S
C404 N405 1.314 . S
C404 C406 1.353 . S
C404 H410 0.930 . S
N405 Li355 1.990 . S
N405 C404 1.314 . S
N405 C408 1.279 . S
C406 C404 1.353 . S
C406 C409 1.348 . S
C406 H438 0.929 . S
C407 C408 1.358 . S
C407 C409 1.356 . S
C407 H439 0.930 . S
C408 N405 1.279 . S
C408 C407 1.358 . S
C408 H411 0.930 . S
C409 C406 1.348 . S
C409 C407 1.356 . S
H410 C404 0.930 . S
H411 C408 0.930 . S
O412 Li352 1.956 . S
O412 Li353 1.970 . S
O412 Li354 1.961 . S
O412 C356 1.325 . S
O413 Li352 1.970 . S
O413 Li353 1.956 . S
O413 Li355 1.961 . S
O413 C362 1.325 . S
O414 Li352 1.961 . S
O414 Li354 1.956 . S
O414 Li355 1.970 . S
O414 C384 1.325 . S
O415 Li353 1.961 . S
O415 Li354 1.970 . S
O415 Li355 1.956 . S
O415 C390 1.325 . S
H416 C358 0.929 . S
H417 C359 0.930 . S
H418 C360 0.930 . S
H419 C361 0.930 . S
H420 C363 0.930 . S
H421 C365 0.929 . S
H422 C366 0.930 . S
H423 C367 0.930 . S
H424 C370 0.930 . S
H425 C373 0.929 . S
H426 C378 0.929 . S
H427 C379 0.930 . S
H428 C386 0.929 . S
H429 C387 0.930 . S
H430 C388 0.930 . S
H431 C389 0.930 . S
H432 C391 0.929 . S
H433 C392 0.930 . S
H434 C393 0.930 . S
H435 C394 0.930 . S
H436 C398 0.929 . S
H437 C400 0.930 . S
H438 C406 0.929 . S
H439 C407 0.930 . S
Li440 N457 1.990 . S
Li440 O500 1.956 . S
Li440 O501 1.970 . S
Li440 O502 1.961 . S
Li441 N465 1.990 . S
Li441 O500 1.970 . S
Li441 O501 1.956 . S
Li441 O503 1.961 . S
Li442 N487 1.990 . S
Li442 O500 1.961 . S
Li442 O502 1.956 . S
Li442 O503 1.970 . S
Li443 N493 1.990 . S
Li443 O501 1.961 . S
Li443 O502 1.970 . S
Li443 O503 1.956 . S
C444 C446 1.348 . S
C444 C447 1.356 . S
C444 O500 1.325 . S
N445 C448 1.314 . S
N445 C449 1.279 . S
C446 C444 1.348 . S
C446 C448 1.353 . S
C446 H504 0.929 . S
C447 C444 1.356 . S
C447 C449 1.358 . S
C447 H505 0.930 . S
C448 N445 1.314 . S
C448 C446 1.353 . S
C448 H506 0.930 . S
C449 N445 1.279 . S
C449 C447 1.358 . S
C449 H507 0.930 . S
C450 C453 1.348 . S
C450 C454 1.356 . S
C450 O501 1.325 . S
C451 N452 1.279 . S
C451 C454 1.358 . S
C451 H508 0.930 . S
N452 C451 1.279 . S
N452 C455 1.314 . S
C453 C450 1.348 . S
C453 C455 1.353 . S
C453 H509 0.929 . S
C454 C450 1.356 . S
C454 C451 1.358 . S
C454 H510 0.930 . S
C455 N452 1.314 . S
C455 C453 1.353 . S
C455 H511 0.930 . S
C456 N457 1.314 . S
C456 C461 1.353 . S
C456 H462 0.930 . S
N457 Li440 1.990 . S
N457 C456 1.314 . S
N457 C459 1.279 . S
C458 C459 1.358 . S
C458 C460 1.356 . S
C458 H512 0.930 . S
C459 N457 1.279 . S
C459 C458 1.358 . S
C459 H463 0.930 . S
C460 C458 1.356 . S
C460 C461 1.348 . S
C461 C456 1.353 . S
C461 C460 1.348 . S
C461 H513 0.929 . S
H462 C456 0.930 . S
H463 C459 0.930 . S
C464 N465 1.314 . S
C464 C466 1.353 . S
C464 H470 0.930 . S
N465 Li441 1.990 . S
N465 C464 1.314 . S
N465 C468 1.279 . S
C466 C464 1.353 . S
C466 C469 1.348 . S
C466 H514 0.929 . S
C467 C468 1.358 . S
C467 C469 1.356 . S
C467 H515 0.930 . S
C468 N465 1.279 . S
C468 C467 1.358 . S
C468 H471 0.930 . S
C469 C466 1.348 . S
C469 C467 1.356 . S
H470 C464 0.930 . S
H471 C468 0.930 . S
C472 C474 1.348 . S
C472 C475 1.356 . S
C472 O502 1.325 . S
N473 C476 1.314 . S
N473 C477 1.279 . S
C474 C472 1.348 . S
C474 C476 1.353 . S
C474 H516 0.929 . S
C475 C472 1.356 . S
C475 C477 1.358 . S
C475 H517 0.930 . S
C476 N473 1.314 . S
C476 C474 1.353 . S
C476 H518 0.930 . S
C477 N473 1.279 . S
C477 C475 1.358 . S
C477 H519 0.930 . S
C478 C479 1.348 . S
C478 C480 1.356 . S
C478 O503 1.325 . S
C479 C478 1.348 . S
C479 C481 1.353 . S
C479 H520 0.929 . S
C480 C478 1.356 . S
C480 C482 1.358 . S
C480 H521 0.930 . S
C481 C479 1.353 . S
C481 N483 1.314 . S
C481 H522 0.930 . S
C482 C480 1.358 . S
C482 N483 1.279 . S
C482 H523 0.930 . S
N483 C481 1.314 . S
N483 C482 1.279 . S
C484 C486 1.353 . S
C484 N487 1.314 . S
C484 H490 0.930 . S
C485 N487 1.279 . S
C485 C488 1.358 . S
C485 H491 0.930 . S
C486 C484 1.353 . S
C486 C489 1.348 . S
C486 H524 0.929 . S
N487 Li442 1.990 . S
N487 C484 1.314 . S
N487 C485 1.279 . S
C488 C485 1.358 . S
C488 C489 1.356 . S
C488 H525 0.930 . S
C489 C486 1.348 . S
C489 C488 1.356 . S
H490 C484 0.930 . S
H491 C485 0.930 . S
C492 N493 1.314 . S
C492 C494 1.353 . S
C492 H498 0.930 . S
N493 Li443 1.990 . S
N493 C492 1.314 . S
N493 C496 1.279 . S
C494 C492 1.353 . S
C494 C497 1.348 . S
C494 H526 0.929 . S
C495 C496 1.358 . S
C495 C497 1.356 . S
C495 H527 0.930 . S
C496 N493 1.279 . S
C496 C495 1.358 . S
C496 H499 0.930 . S
C497 C494 1.348 . S
C497 C495 1.356 . S
H498 C492 0.930 . S
H499 C496 0.930 . S
O500 Li440 1.956 . S
O500 Li441 1.970 . S
O500 Li442 1.961 . S
O500 C444 1.325 . S
O501 Li440 1.970 . S
O501 Li441 1.956 . S
O501 Li443 1.961 . S
O501 C450 1.325 . S
O502 Li440 1.961 . S
O502 Li442 1.956 . S
O502 Li443 1.970 . S
O502 C472 1.325 . S
O503 Li441 1.961 . S
O503 Li442 1.970 . S
O503 Li443 1.956 . S
O503 C478 1.325 . S
H504 C446 0.929 . S
H505 C447 0.930 . S
H506 C448 0.930 . S
H507 C449 0.930 . S
H508 C451 0.930 . S
H509 C453 0.929 . S
H510 C454 0.930 . S
H511 C455 0.930 . S
H512 C458 0.930 . S
H513 C461 0.929 . S
H514 C466 0.929 . S
H515 C467 0.930 . S
H516 C474 0.929 . S
H517 C475 0.930 . S
H518 C476 0.930 . S
H519 C477 0.930 . S
H520 C479 0.929 . S
H521 C480 0.930 . S
H522 C481 0.930 . S
H523 C482 0.930 . S
H524 C486 0.929 . S
H525 C488 0.930 . S
H526 C494 0.929 . S
H527 C495 0.930 . S
Li528 N545 1.990 . S
Li528 O588 1.956 . S
Li528 O589 1.970 . S
Li528 O590 1.961 . S
Li529 N553 1.990 . S
Li529 O588 1.970 . S
Li529 O589 1.956 . S
Li529 O591 1.961 . S
Li530 N575 1.990 . S
Li530 O588 1.961 . S
Li530 O590 1.956 . S
Li530 O591 1.970 . S
Li531 N581 1.990 . S
Li531 O589 1.961 . S
Li531 O590 1.970 . S
Li531 O591 1.956 . S
C532 C534 1.348 . S
C532 C535 1.356 . S
C532 O588 1.325 . S
N533 C536 1.314 . S
N533 C537 1.279 . S
C534 C532 1.348 . S
C534 C536 1.353 . S
C534 H592 0.929 . S
C535 C532 1.356 . S
C535 C537 1.358 . S
C535 H593 0.930 . S
C536 N533 1.314 . S
C536 C534 1.353 . S
C536 H594 0.930 . S
C537 N533 1.279 . S
C537 C535 1.358 . S
C537 H595 0.930 . S
C538 C541 1.348 . S
C538 C542 1.356 . S
C538 O589 1.325 . S
C539 N540 1.279 . S
C539 C542 1.358 . S
C539 H596 0.930 . S
N540 C539 1.279 . S
N540 C543 1.314 . S
C541 C538 1.348 . S
C541 C543 1.353 . S
C541 H597 0.929 . S
C542 C538 1.356 . S
C542 C539 1.358 . S
C542 H598 0.930 . S
C543 N540 1.314 . S
C543 C541 1.353 . S
C543 H599 0.930 . S
C544 N545 1.314 . S
C544 C549 1.353 . S
C544 H550 0.930 . S
N545 Li528 1.990 . S
N545 C544 1.314 . S
N545 C547 1.279 . S
C546 C547 1.358 . S
C546 C548 1.356 . S
C546 H600 0.930 . S
C547 N545 1.279 . S
C547 C546 1.358 . S
C547 H551 0.930 . S
C548 C546 1.356 . S
C548 C549 1.348 . S
C549 C544 1.353 . S
C549 C548 1.348 . S
C549 H601 0.929 . S
H550 C544 0.930 . S
H551 C547 0.930 . S
C552 N553 1.314 . S
C552 C554 1.353 . S
C552 H558 0.930 . S
N553 Li529 1.990 . S
N553 C552 1.314 . S
N553 C556 1.279 . S
C554 C552 1.353 . S
C554 C557 1.348 . S
C554 H602 0.929 . S
C555 C556 1.358 . S
C555 C557 1.356 . S
C555 H603 0.930 . S
C556 N553 1.279 . S
C556 C555 1.358 . S
C556 H559 0.930 . S
C557 C554 1.348 . S
C557 C555 1.356 . S
H558 C552 0.930 . S
H559 C556 0.930 . S
C560 C562 1.348 . S
C560 C563 1.356 . S
C560 O590 1.325 . S
N561 C564 1.314 . S
N561 C565 1.279 . S
C562 C560 1.348 . S
C562 C564 1.353 . S
C562 H604 0.929 . S
C563 C560 1.356 . S
C563 C565 1.358 . S
C563 H605 0.930 . S
C564 N561 1.314 . S
C564 C562 1.353 . S
C564 H606 0.930 . S
C565 N561 1.279 . S
C565 C563 1.358 . S
C565 H607 0.930 . S
C566 C567 1.348 . S
C566 C568 1.356 . S
C566 O591 1.325 . S
C567 C566 1.348 . S
C567 C569 1.353 . S
C567 H608 0.929 . S
C568 C566 1.356 . S
C568 C570 1.358 . S
C568 H609 0.930 . S
C569 C567 1.353 . S
C569 N571 1.314 . S
C569 H610 0.930 . S
C570 C568 1.358 . S
C570 N571 1.279 . S
C570 H611 0.930 . S
N571 C569 1.314 . S
N571 C570 1.279 . S
C572 C574 1.353 . S
C572 N575 1.314 . S
C572 H578 0.930 . S
C573 N575 1.279 . S
C573 C576 1.358 . S
C573 H579 0.930 . S
C574 C572 1.353 . S
C574 C577 1.348 . S
C574 H612 0.929 . S
N575 Li530 1.990 . S
N575 C572 1.314 . S
N575 C573 1.279 . S
C576 C573 1.358 . S
C576 C577 1.356 . S
C576 H613 0.930 . S
C577 C574 1.348 . S
C577 C576 1.356 . S
H578 C572 0.930 . S
H579 C573 0.930 . S
C580 N581 1.314 . S
C580 C582 1.353 . S
C580 H586 0.930 . S
N581 Li531 1.990 . S
N581 C580 1.314 . S
N581 C584 1.279 . S
C582 C580 1.353 . S
C582 C585 1.348 . S
C582 H614 0.929 . S
C583 C584 1.358 . S
C583 C585 1.356 . S
C583 H615 0.930 . S
C584 N581 1.279 . S
C584 C583 1.358 . S
C584 H587 0.930 . S
C585 C582 1.348 . S
C585 C583 1.356 . S
H586 C580 0.930 . S
H587 C584 0.930 . S
O588 Li528 1.956 . S
O588 Li529 1.970 . S
O588 Li530 1.961 . S
O588 C532 1.325 . S
O589 Li528 1.970 . S
O589 Li529 1.956 . S
O589 Li531 1.961 . S
O589 C538 1.325 . S
O590 Li528 1.961 . S
O590 Li530 1.956 . S
O590 Li531 1.970 . S
O590 C560 1.325 . S
O591 Li529 1.961 . S
O591 Li530 1.970 . S
O591 Li531 1.956 . S
O591 C566 1.325 . S
H592 C534 0.929 . S
H593 C535 0.930 . S
H594 C536 0.930 . S
H595 C537 0.930 . S
H596 C539 0.930 . S
H597 C541 0.929 . S
H598 C542 0.930 . S
H599 C543 0.930 . S
H600 C546 0.930 . S
H601 C549 0.929 . S
H602 C554 0.929 . S
H603 C555 0.930 . S
H604 C562 0.929 . S
H605 C563 0.930 . S
H606 C564 0.930 . S
H607 C565 0.930 . S
H608 C567 0.929 . S
H609 C568 0.930 . S
H610 C569 0.930 . S
H611 C570 0.930 . S
H612 C574 0.929 . S
H613 C576 0.930 . S
H614 C582 0.929 . S
H615 C583 0.930 . S
Li616 N633 1.990 . S
Li616 O676 1.956 . S
Li616 O677 1.970 . S
Li616 O678 1.961 . S
Li617 N641 1.990 . S
Li617 O676 1.970 . S
Li617 O677 1.956 . S
Li617 O679 1.961 . S
Li618 N663 1.990 . S
Li618 O676 1.961 . S
Li618 O678 1.956 . S
Li618 O679 1.970 . S
Li619 N669 1.990 . S
Li619 O677 1.961 . S
Li619 O678 1.970 . S
Li619 O679 1.956 . S
C620 C622 1.348 . S
C620 C623 1.356 . S
C620 O676 1.325 . S
N621 C624 1.314 . S
N621 C625 1.279 . S
C622 C620 1.348 . S
C622 C624 1.353 . S
C622 H680 0.929 . S
C623 C620 1.356 . S
C623 C625 1.358 . S
C623 H681 0.930 . S
C624 N621 1.314 . S
C624 C622 1.353 . S
C624 H682 0.930 . S
C625 N621 1.279 . S
C625 C623 1.358 . S
C625 H683 0.930 . S
C626 C629 1.348 . S
C626 C630 1.356 . S
C626 O677 1.325 . S
C627 N628 1.279 . S
C627 C630 1.358 . S
C627 H684 0.930 . S
N628 C627 1.279 . S
N628 C631 1.314 . S
C629 C626 1.348 . S
C629 C631 1.353 . S
C629 H685 0.929 . S
C630 C626 1.356 . S
C630 C627 1.358 . S
C630 H686 0.930 . S
C631 N628 1.314 . S
C631 C629 1.353 . S
C631 H687 0.930 . S
C632 N633 1.314 . S
C632 C637 1.353 . S
C632 H638 0.930 . S
N633 Li616 1.990 . S
N633 C632 1.314 . S
N633 C635 1.279 . S
C634 C635 1.358 . S
C634 C636 1.356 . S
C634 H688 0.930 . S
C635 N633 1.279 . S
C635 C634 1.358 . S
C635 H639 0.930 . S
C636 C634 1.356 . S
C636 C637 1.348 . S
C637 C632 1.353 . S
C637 C636 1.348 . S
C637 H689 0.929 . S
H638 C632 0.930 . S
H639 C635 0.930 . S
C640 N641 1.314 . S
C640 C642 1.353 . S
C640 H646 0.930 . S
N641 Li617 1.990 . S
N641 C640 1.314 . S
N641 C644 1.279 . S
C642 C640 1.353 . S
C642 C645 1.348 . S
C642 H690 0.929 . S
C643 C644 1.358 . S
C643 C645 1.356 . S
C643 H691 0.930 . S
C644 N641 1.279 . S
C644 C643 1.358 . S
C644 H647 0.930 . S
C645 C642 1.348 . S
C645 C643 1.356 . S
H646 C640 0.930 . S
H647 C644 0.930 . S
C648 C650 1.348 . S
C648 C651 1.356 . S
C648 O678 1.325 . S
N649 C652 1.314 . S
N649 C653 1.279 . S
C650 C648 1.348 . S
C650 C652 1.353 . S
C650 H692 0.929 . S
C651 C648 1.356 . S
C651 C653 1.358 . S
C651 H693 0.930 . S
C652 N649 1.314 . S
C652 C650 1.353 . S
C652 H694 0.930 . S
C653 N649 1.279 . S
C653 C651 1.358 . S
C653 H695 0.930 . S
C654 C655 1.348 . S
C654 C656 1.356 . S
C654 O679 1.325 . S
C655 C654 1.348 . S
C655 C657 1.353 . S
C655 H696 0.929 . S
C656 C654 1.356 . S
C656 C658 1.358 . S
C656 H697 0.930 . S
C657 C655 1.353 . S
C657 N659 1.314 . S
C657 H698 0.930 . S
C658 C656 1.358 . S
C658 N659 1.279 . S
C658 H699 0.930 . S
N659 C657 1.314 . S
N659 C658 1.279 . S
C660 C662 1.353 . S
C660 N663 1.314 . S
C660 H666 0.930 . S
C661 N663 1.279 . S
C661 C664 1.358 . S
C661 H667 0.930 . S
C662 C660 1.353 . S
C662 C665 1.348 . S
C662 H700 0.929 . S
N663 Li618 1.990 . S
N663 C660 1.314 . S
N663 C661 1.279 . S
C664 C661 1.358 . S
C664 C665 1.356 . S
C664 H701 0.930 . S
C665 C662 1.348 . S
C665 C664 1.356 . S
H666 C660 0.930 . S
H667 C661 0.930 . S
C668 N669 1.314 . S
C668 C670 1.353 . S
C668 H674 0.930 . S
N669 Li619 1.990 . S
N669 C668 1.314 . S
N669 C672 1.279 . S
C670 C668 1.353 . S
C670 C673 1.348 . S
C670 H702 0.929 . S
C671 C672 1.358 . S
C671 C673 1.356 . S
C671 H703 0.930 . S
C672 N669 1.279 . S
C672 C671 1.358 . S
C672 H675 0.930 . S
C673 C670 1.348 . S
C673 C671 1.356 . S
H674 C668 0.930 . S
H675 C672 0.930 . S
O676 Li616 1.956 . S
O676 Li617 1.970 . S
O676 Li618 1.961 . S
O676 C620 1.325 . S
O677 Li616 1.970 . S
O677 Li617 1.956 . S
O677 Li619 1.961 . S
O677 C626 1.325 . S
O678 Li616 1.961 . S
O678 Li618 1.956 . S
O678 Li619 1.970 . S
O678 C648 1.325 . S
O679 Li617 1.961 . S
O679 Li618 1.970 . S
O679 Li619 1.956 . S
O679 C654 1.325 . S
H680 C622 0.929 . S
H681 C623 0.930 . S
H682 C624 0.930 . S
H683 C625 0.930 . S
H684 C627 0.930 . S
H685 C629 0.929 . S
H686 C630 0.930 . S
H687 C631 0.930 . S
H688 C634 0.930 . S
H689 C637 0.929 . S
H690 C642 0.929 . S
H691 C643 0.930 . S
H692 C650 0.929 . S
H693 C651 0.930 . S
H694 C652 0.930 . S
H695 C653 0.930 . S
H696 C655 0.929 . S
H697 C656 0.930 . S
H698 C657 0.930 . S
H699 C658 0.930 . S
H700 C662 0.929 . S
H701 C664 0.930 . S
H702 C670 0.929 . S
H703 C671 0.930 . S
Li704 N721 1.990 . S
Li704 O764 1.956 . S
Li704 O765 1.970 . S
Li704 O766 1.961 . S
Li705 N729 1.990 . S
Li705 O764 1.970 . S
Li705 O765 1.956 . S
Li705 O767 1.961 . S
Li706 N751 1.990 . S
Li706 O764 1.961 . S
Li706 O766 1.956 . S
Li706 O767 1.970 . S
Li707 N757 1.990 . S
Li707 O765 1.961 . S
Li707 O766 1.970 . S
Li707 O767 1.956 . S
C708 C710 1.348 . S
C708 C711 1.356 . S
C708 O764 1.325 . S
N709 C712 1.314 . S
N709 C713 1.279 . S
C710 C708 1.348 . S
C710 C712 1.353 . S
C710 H768 0.929 . S
C711 C708 1.356 . S
C711 C713 1.358 . S
C711 H769 0.930 . S
C712 N709 1.314 . S
C712 C710 1.353 . S
C712 H770 0.930 . S
C713 N709 1.279 . S
C713 C711 1.358 . S
C713 H771 0.930 . S
C714 C717 1.348 . S
C714 C718 1.356 . S
C714 O765 1.325 . S
C715 N716 1.279 . S
C715 C718 1.358 . S
C715 H772 0.930 . S
N716 C715 1.279 . S
N716 C719 1.314 . S
C717 C714 1.348 . S
C717 C719 1.353 . S
C717 H773 0.929 . S
C718 C714 1.356 . S
C718 C715 1.358 . S
C718 H774 0.930 . S
C719 N716 1.314 . S
C719 C717 1.353 . S
C719 H775 0.930 . S
C720 N721 1.314 . S
C720 C725 1.353 . S
C720 H726 0.930 . S
N721 Li704 1.990 . S
N721 C720 1.314 . S
N721 C723 1.279 . S
C722 C723 1.358 . S
C722 C724 1.356 . S
C722 H776 0.930 . S
C723 N721 1.279 . S
C723 C722 1.358 . S
C723 H727 0.930 . S
C724 C722 1.356 . S
C724 C725 1.348 . S
C725 C720 1.353 . S
C725 C724 1.348 . S
C725 H777 0.929 . S
H726 C720 0.930 . S
H727 C723 0.930 . S
C728 N729 1.314 . S
C728 C730 1.353 . S
C728 H734 0.930 . S
N729 Li705 1.990 . S
N729 C728 1.314 . S
N729 C732 1.279 . S
C730 C728 1.353 . S
C730 C733 1.348 . S
C730 H778 0.929 . S
C731 C732 1.358 . S
C731 C733 1.356 . S
C731 H779 0.930 . S
C732 N729 1.279 . S
C732 C731 1.358 . S
C732 H735 0.930 . S
C733 C730 1.348 . S
C733 C731 1.356 . S
H734 C728 0.930 . S
H735 C732 0.930 . S
C736 C738 1.348 . S
C736 C739 1.356 . S
C736 O766 1.325 . S
N737 C740 1.314 . S
N737 C741 1.279 . S
C738 C736 1.348 . S
C738 C740 1.353 . S
C738 H780 0.929 . S
C739 C736 1.356 . S
C739 C741 1.358 . S
C739 H781 0.930 . S
C740 N737 1.314 . S
C740 C738 1.353 . S
C740 H782 0.930 . S
C741 N737 1.279 . S
C741 C739 1.358 . S
C741 H783 0.930 . S
C742 C743 1.348 . S
C742 C744 1.356 . S
C742 O767 1.325 . S
C743 C742 1.348 . S
C743 C745 1.353 . S
C743 H784 0.929 . S
C744 C742 1.356 . S
C744 C746 1.358 . S
C744 H785 0.930 . S
C745 C743 1.353 . S
C745 N747 1.314 . S
C745 H786 0.930 . S
C746 C744 1.358 . S
C746 N747 1.279 . S
C746 H787 0.930 . S
N747 C745 1.314 . S
N747 C746 1.279 . S
C748 C750 1.353 . S
C748 N751 1.314 . S
C748 H754 0.930 . S
C749 N751 1.279 . S
C749 C752 1.358 . S
C749 H755 0.930 . S
C750 C748 1.353 . S
C750 C753 1.348 . S
C750 H788 0.929 . S
N751 Li706 1.990 . S
N751 C748 1.314 . S
N751 C749 1.279 . S
C752 C749 1.358 . S
C752 C753 1.356 . S
C752 H789 0.930 . S
C753 C750 1.348 . S
C753 C752 1.356 . S
H754 C748 0.930 . S
H755 C749 0.930 . S
C756 N757 1.314 . S
C756 C758 1.353 . S
C756 H762 0.930 . S
N757 Li707 1.990 . S
N757 C756 1.314 . S
N757 C760 1.279 . S
C758 C756 1.353 . S
C758 C761 1.348 . S
C758 H790 0.929 . S
C759 C760 1.358 . S
C759 C761 1.356 . S
C759 H791 0.930 . S
C760 N757 1.279 . S
C760 C759 1.358 . S
C760 H763 0.930 . S
C761 C758 1.348 . S
C761 C759 1.356 . S
H762 C756 0.930 . S
H763 C760 0.930 . S
O764 Li704 1.956 . S
O764 Li705 1.970 . S
O764 Li706 1.961 . S
O764 C708 1.325 . S
O765 Li704 1.970 . S
O765 Li705 1.956 . S
O765 Li707 1.961 . S
O765 C714 1.325 . S
O766 Li704 1.961 . S
O766 Li706 1.956 . S
O766 Li707 1.970 . S
O766 C736 1.325 . S
O767 Li705 1.961 . S
O767 Li706 1.970 . S
O767 Li707 1.956 . S
O767 C742 1.325 . S
H768 C710 0.929 . S
H769 C711 0.930 . S
H770 C712 0.930 . S
H771 C713 0.930 . S
H772 C715 0.930 . S
H773 C717 0.929 . S
H774 C718 0.930 . S
H775 C719 0.930 . S
H776 C722 0.930 . S
H777 C725 0.929 . S
H778 C730 0.929 . S
H779 C731 0.930 . S
H780 C738 0.929 . S
H781 C739 0.930 . S
H782 C740 0.930 . S
H783 C741 0.930 . S
H784 C743 0.929 . S
H785 C744 0.930 . S
H786 C745 0.930 . S
H787 C746 0.930 . S
H788 C750 0.929 . S
H789 C752 0.930 . S
H790 C758 0.929 . S
H791 C759 0.930 . S
Li792 N809 1.990 . S
Li792 O852 1.956 . S
Li792 O853 1.970 . S
Li792 O854 1.961 . S
Li793 N817 1.990 . S
Li793 O852 1.970 . S
Li793 O853 1.956 . S
Li793 O855 1.961 . S
Li794 N839 1.990 . S
Li794 O852 1.961 . S
Li794 O854 1.956 . S
Li794 O855 1.970 . S
Li795 N845 1.990 . S
Li795 O853 1.961 . S
Li795 O854 1.970 . S
Li795 O855 1.956 . S
C796 C798 1.348 . S
C796 C799 1.356 . S
C796 O852 1.325 . S
N797 C800 1.314 . S
N797 C801 1.279 . S
C798 C796 1.348 . S
C798 C800 1.353 . S
C798 H856 0.929 . S
C799 C796 1.356 . S
C799 C801 1.358 . S
C799 H857 0.930 . S
C800 N797 1.314 . S
C800 C798 1.353 . S
C800 H858 0.930 . S
C801 N797 1.279 . S
C801 C799 1.358 . S
C801 H859 0.930 . S
C802 C805 1.348 . S
C802 C806 1.356 . S
C802 O853 1.325 . S
C803 N804 1.279 . S
C803 C806 1.358 . S
C803 H860 0.930 . S
N804 C803 1.279 . S
N804 C807 1.314 . S
C805 C802 1.348 . S
C805 C807 1.353 . S
C805 H861 0.929 . S
C806 C802 1.356 . S
C806 C803 1.358 . S
C806 H862 0.930 . S
C807 N804 1.314 . S
C807 C805 1.353 . S
C807 H863 0.930 . S
C808 N809 1.314 . S
C808 C813 1.353 . S
C808 H814 0.930 . S
N809 Li792 1.990 . S
N809 C808 1.314 . S
N809 C811 1.279 . S
C810 C811 1.358 . S
C810 C812 1.356 . S
C810 H864 0.930 . S
C811 N809 1.279 . S
C811 C810 1.358 . S
C811 H815 0.930 . S
C812 C810 1.356 . S
C812 C813 1.348 . S
C813 C808 1.353 . S
C813 C812 1.348 . S
C813 H865 0.929 . S
H814 C808 0.930 . S
H815 C811 0.930 . S
C816 N817 1.314 . S
C816 C818 1.353 . S
C816 H822 0.930 . S
N817 Li793 1.990 . S
N817 C816 1.314 . S
N817 C820 1.279 . S
C818 C816 1.353 . S
C818 C821 1.348 . S
C818 H866 0.929 . S
C819 C820 1.358 . S
C819 C821 1.356 . S
C819 H867 0.930 . S
C820 N817 1.279 . S
C820 C819 1.358 . S
C820 H823 0.930 . S
C821 C818 1.348 . S
C821 C819 1.356 . S
H822 C816 0.930 . S
H823 C820 0.930 . S
C824 C826 1.348 . S
C824 C827 1.356 . S
C824 O854 1.325 . S
N825 C828 1.314 . S
N825 C829 1.279 . S
C826 C824 1.348 . S
C826 C828 1.353 . S
C826 H868 0.929 . S
C827 C824 1.356 . S
C827 C829 1.358 . S
C827 H869 0.930 . S
C828 N825 1.314 . S
C828 C826 1.353 . S
C828 H870 0.930 . S
C829 N825 1.279 . S
C829 C827 1.358 . S
C829 H871 0.930 . S
C830 C831 1.348 . S
C830 C832 1.356 . S
C830 O855 1.325 . S
C831 C830 1.348 . S
C831 C833 1.353 . S
C831 H872 0.929 . S
C832 C830 1.356 . S
C832 C834 1.358 . S
C832 H873 0.930 . S
C833 C831 1.353 . S
C833 N835 1.314 . S
C833 H874 0.930 . S
C834 C832 1.358 . S
C834 N835 1.279 . S
C834 H875 0.930 . S
N835 C833 1.314 . S
N835 C834 1.279 . S
C836 C838 1.353 . S
C836 N839 1.314 . S
C836 H842 0.930 . S
C837 N839 1.279 . S
C837 C840 1.358 . S
C837 H843 0.930 . S
C838 C836 1.353 . S
C838 C841 1.348 . S
C838 H876 0.929 . S
N839 Li794 1.990 . S
N839 C836 1.314 . S
N839 C837 1.279 . S
C840 C837 1.358 . S
C840 C841 1.356 . S
C840 H877 0.930 . S
C841 C838 1.348 . S
C841 C840 1.356 . S
H842 C836 0.930 . S
H843 C837 0.930 . S
C844 N845 1.314 . S
C844 C846 1.353 . S
C844 H850 0.930 . S
N845 Li795 1.990 . S
N845 C844 1.314 . S
N845 C848 1.279 . S
C846 C844 1.353 . S
C846 C849 1.348 . S
C846 H878 0.929 . S
C847 C848 1.358 . S
C847 C849 1.356 . S
C847 H879 0.930 . S
C848 N845 1.279 . S
C848 C847 1.358 . S
C848 H851 0.930 . S
C849 C846 1.348 . S
C849 C847 1.356 . S
H850 C844 0.930 . S
H851 C848 0.930 . S
O852 Li792 1.956 . S
O852 Li793 1.970 . S
O852 Li794 1.961 . S
O852 C796 1.325 . S
O853 Li792 1.970 . S
O853 Li793 1.956 . S
O853 Li795 1.961 . S
O853 C802 1.325 . S
O854 Li792 1.961 . S
O854 Li794 1.956 . S
O854 Li795 1.970 . S
O854 C824 1.325 . S
O855 Li793 1.961 . S
O855 Li794 1.970 . S
O855 Li795 1.956 . S
O855 C830 1.325 . S
H856 C798 0.929 . S
H857 C799 0.930 . S
H858 C800 0.930 . S
H859 C801 0.930 . S
H860 C803 0.930 . S
H861 C805 0.929 . S
H862 C806 0.930 . S
H863 C807 0.930 . S
H864 C810 0.930 . S
H865 C813 0.929 . S
H866 C818 0.929 . S
H867 C819 0.930 . S
H868 C826 0.929 . S
H869 C827 0.930 . S
H870 C828 0.930 . S
H871 C829 0.930 . S
H872 C831 0.929 . S
H873 C832 0.930 . S
H874 C833 0.930 . S
H875 C834 0.930 . S
H876 C838 0.929 . S
H877 C840 0.930 . S
H878 C846 0.929 . S
H879 C847 0.930 . S
Li880 N897 1.990 . S
Li880 O940 1.956 . S
Li880 O941 1.970 . S
Li880 O942 1.961 . S
Li881 N905 1.990 . S
Li881 O940 1.970 . S
Li881 O941 1.956 . S
Li881 O943 1.961 . S
Li882 N927 1.990 . S
Li882 O940 1.961 . S
Li882 O942 1.956 . S
Li882 O943 1.970 . S
Li883 N933 1.990 . S
Li883 O941 1.961 . S
Li883 O942 1.970 . S
Li883 O943 1.956 . S
C884 C886 1.348 . S
C884 C887 1.356 . S
C884 O940 1.325 . S
N885 C888 1.314 . S
N885 C889 1.279 . S
C886 C884 1.348 . S
C886 C888 1.353 . S
C886 H944 0.929 . S
C887 C884 1.356 . S
C887 C889 1.358 . S
C887 H945 0.930 . S
C888 N885 1.314 . S
C888 C886 1.353 . S
C888 H946 0.930 . S
C889 N885 1.279 . S
C889 C887 1.358 . S
C889 H947 0.930 . S
C890 C893 1.348 . S
C890 C894 1.356 . S
C890 O941 1.325 . S
C891 N892 1.279 . S
C891 C894 1.358 . S
C891 H948 0.930 . S
N892 C891 1.279 . S
N892 C895 1.314 . S
C893 C890 1.348 . S
C893 C895 1.353 . S
C893 H949 0.929 . S
C894 C890 1.356 . S
C894 C891 1.358 . S
C894 H950 0.930 . S
C895 N892 1.314 . S
C895 C893 1.353 . S
C895 H951 0.930 . S
C896 N897 1.314 . S
C896 C901 1.353 . S
C896 H902 0.930 . S
N897 Li880 1.990 . S
N897 C896 1.314 . S
N897 C899 1.279 . S
C898 C899 1.358 . S
C898 C900 1.356 . S
C898 H952 0.930 . S
C899 N897 1.279 . S
C899 C898 1.358 . S
C899 H903 0.930 . S
C900 C898 1.356 . S
C900 C901 1.348 . S
C901 C896 1.353 . S
C901 C900 1.348 . S
C901 H953 0.929 . S
H902 C896 0.930 . S
H903 C899 0.930 . S
C904 N905 1.314 . S
C904 C906 1.353 . S
C904 H910 0.930 . S
N905 Li881 1.990 . S
N905 C904 1.314 . S
N905 C908 1.279 . S
C906 C904 1.353 . S
C906 C909 1.348 . S
C906 H954 0.929 . S
C907 C908 1.358 . S
C907 C909 1.356 . S
C907 H955 0.930 . S
C908 N905 1.279 . S
C908 C907 1.358 . S
C908 H911 0.930 . S
C909 C906 1.348 . S
C909 C907 1.356 . S
H910 C904 0.930 . S
H911 C908 0.930 . S
C912 C914 1.348 . S
C912 C915 1.356 . S
C912 O942 1.325 . S
N913 C916 1.314 . S
N913 C917 1.279 . S
C914 C912 1.348 . S
C914 C916 1.353 . S
C914 H956 0.929 . S
C915 C912 1.356 . S
C915 C917 1.358 . S
C915 H957 0.930 . S
C916 N913 1.314 . S
C916 C914 1.353 . S
C916 H958 0.930 . S
C917 N913 1.279 . S
C917 C915 1.358 . S
C917 H959 0.930 . S
C918 C919 1.348 . S
C918 C920 1.356 . S
C918 O943 1.325 . S
C919 C918 1.348 . S
C919 C921 1.353 . S
C919 H960 0.929 . S
C920 C918 1.356 . S
C920 C922 1.358 . S
C920 H961 0.930 . S
C921 C919 1.353 . S
C921 N923 1.314 . S
C921 H962 0.930 . S
C922 C920 1.358 . S
C922 N923 1.279 . S
C922 H963 0.930 . S
N923 C921 1.314 . S
N923 C922 1.279 . S
C924 C926 1.353 . S
C924 N927 1.314 . S
C924 H930 0.930 . S
C925 N927 1.279 . S
C925 C928 1.358 . S
C925 H931 0.930 . S
C926 C924 1.353 . S
C926 C929 1.348 . S
C926 H964 0.929 . S
N927 Li882 1.990 . S
N927 C924 1.314 . S
N927 C925 1.279 . S
C928 C925 1.358 . S
C928 C929 1.356 . S
C928 H965 0.930 . S
C929 C926 1.348 . S
C929 C928 1.356 . S
H930 C924 0.930 . S
H931 C925 0.930 . S
C932 N933 1.314 . S
C932 C934 1.353 . S
C932 H938 0.930 . S
N933 Li883 1.990 . S
N933 C932 1.314 . S
N933 C936 1.279 . S
C934 C932 1.353 . S
C934 C937 1.348 . S
C934 H966 0.929 . S
C935 C936 1.358 . S
C935 C937 1.356 . S
C935 H967 0.930 . S
C936 N933 1.279 . S
C936 C935 1.358 . S
C936 H939 0.930 . S
C937 C934 1.348 . S
C937 C935 1.356 . S
H938 C932 0.930 . S
H939 C936 0.930 . S
O940 Li880 1.956 . S
O940 Li881 1.970 . S
O940 Li882 1.961 . S
O940 C884 1.325 . S
O941 Li880 1.970 . S
O941 Li881 1.956 . S
O941 Li883 1.961 . S
O941 C890 1.325 . S
O942 Li880 1.961 . S
O942 Li882 1.956 . S
O942 Li883 1.970 . S
O942 C912 1.325 . S
O943 Li881 1.961 . S
O943 Li882 1.970 . S
O943 Li883 1.956 . S
O943 C918 1.325 . S
H944 C886 0.929 . S
H945 C887 0.930 . S
H946 C888 0.930 . S
H947 C889 0.930 . S
H948 C891 0.930 . S
H949 C893 0.929 . S
H950 C894 0.930 . S
H951 C895 0.930 . S
H952 C898 0.930 . S
H953 C901 0.929 . S
H954 C906 0.929 . S
H955 C907 0.930 . S
H956 C914 0.929 . S
H957 C915 0.930 . S
H958 C916 0.930 . S
H959 C917 0.930 . S
H960 C919 0.929 . S
H961 C920 0.930 . S
H962 C921 0.930 . S
H963 C922 0.930 . S
H964 C926 0.929 . S
H965 C928 0.930 . S
H966 C934 0.929 . S
H967 C935 0.930 . S
Li968 N985 1.990 . S
Li968 O1028 1.956 . S
Li968 O1029 1.970 . S
Li968 O1030 1.961 . S
Li969 N993 1.990 . S
Li969 O1028 1.970 . S
Li969 O1029 1.956 . S
Li969 O1031 1.961 . S
Li970 N1015 1.990 . S
Li970 O1028 1.961 . S
Li970 O1030 1.956 . S
Li970 O1031 1.970 . S
Li971 N1021 1.990 . S
Li971 O1029 1.961 . S
Li971 O1030 1.970 . S
Li971 O1031 1.956 . S
C972 C974 1.348 . S
C972 C975 1.356 . S
C972 O1028 1.325 . S
N973 C976 1.314 . S
N973 C977 1.279 . S
C974 C972 1.348 . S
C974 C976 1.353 . S
C974 H1032 0.929 . S
C975 C972 1.356 . S
C975 C977 1.358 . S
C975 H1033 0.930 . S
C976 N973 1.314 . S
C976 C974 1.353 . S
C976 H1034 0.930 . S
C977 N973 1.279 . S
C977 C975 1.358 . S
C977 H1035 0.930 . S
C978 C981 1.348 . S
C978 C982 1.356 . S
C978 O1029 1.325 . S
C979 N980 1.279 . S
C979 C982 1.358 . S
C979 H1036 0.930 . S
N980 C979 1.279 . S
N980 C983 1.314 . S
C981 C978 1.348 . S
C981 C983 1.353 . S
C981 H1037 0.929 . S
C982 C978 1.356 . S
C982 C979 1.358 . S
C982 H1038 0.930 . S
C983 N980 1.314 . S
C983 C981 1.353 . S
C983 H1039 0.930 . S
C984 N985 1.314 . S
C984 C989 1.353 . S
C984 H990 0.930 . S
N985 Li968 1.990 . S
N985 C984 1.314 . S
N985 C987 1.279 . S
C986 C987 1.358 . S
C986 C988 1.356 . S
C986 H1040 0.930 . S
C987 N985 1.279 . S
C987 C986 1.358 . S
C987 H991 0.930 . S
C988 C986 1.356 . S
C988 C989 1.348 . S
C989 C984 1.353 . S
C989 C988 1.348 . S
C989 H1041 0.929 . S
H990 C984 0.930 . S
H991 C987 0.930 . S
C992 N993 1.314 . S
C992 C994 1.353 . S
C992 H998 0.930 . S
N993 Li969 1.990 . S
N993 C992 1.314 . S
N993 C996 1.279 . S
C994 C992 1.353 . S
C994 C997 1.348 . S
C994 H1042 0.929 . S
C995 C996 1.358 . S
C995 C997 1.356 . S
C995 H1043 0.930 . S
C996 N993 1.279 . S
C996 C995 1.358 . S
C996 H999 0.930 . S
C997 C994 1.348 . S
C997 C995 1.356 . S
H998 C992 0.930 . S
H999 C996 0.930 . S
C1000 C1002 1.348 . S
C1000 C1003 1.356 . S
C1000 O1030 1.325 . S
N1001 C1004 1.314 . S
N1001 C1005 1.279 . S
C1002 C1000 1.348 . S
C1002 C1004 1.353 . S
C1002 H1044 0.929 . S
C1003 C1000 1.356 . S
C1003 C1005 1.358 . S
C1003 H1045 0.930 . S
C1004 N1001 1.314 . S
C1004 C1002 1.353 . S
C1004 H1046 0.930 . S
C1005 N1001 1.279 . S
C1005 C1003 1.358 . S
C1005 H1047 0.930 . S
C1006 C1007 1.348 . S
C1006 C1008 1.356 . S
C1006 O1031 1.325 . S
C1007 C1006 1.348 . S
C1007 C1009 1.353 . S
C1007 H1048 0.929 . S
C1008 C1006 1.356 . S
C1008 C1010 1.358 . S
C1008 H1049 0.930 . S
C1009 C1007 1.353 . S
C1009 N1011 1.314 . S
C1009 H1050 0.930 . S
C1010 C1008 1.358 . S
C1010 N1011 1.279 . S
C1010 H1051 0.930 . S
N1011 C1009 1.314 . S
N1011 C1010 1.279 . S
C1012 C1014 1.353 . S
C1012 N1015 1.314 . S
C1012 H1018 0.930 . S
C1013 N1015 1.279 . S
C1013 C1016 1.358 . S
C1013 H1019 0.930 . S
C1014 C1012 1.353 . S
C1014 C1017 1.348 . S
C1014 H1052 0.929 . S
N1015 Li970 1.990 . S
N1015 C1012 1.314 . S
N1015 C1013 1.279 . S
C1016 C1013 1.358 . S
C1016 C1017 1.356 . S
C1016 H1053 0.930 . S
C1017 C1014 1.348 . S
C1017 C1016 1.356 . S
H1018 C1012 0.930 . S
H1019 C1013 0.930 . S
C1020 N1021 1.314 . S
C1020 C1022 1.353 . S
C1020 H1026 0.930 . S
N1021 Li971 1.990 . S
N1021 C1020 1.314 . S
N1021 C1024 1.279 . S
C1022 C1020 1.353 . S
C1022 C1025 1.348 . S
C1022 H1054 0.929 . S
C1023 C1024 1.358 . S
C1023 C1025 1.356 . S
C1023 H1055 0.930 . S
C1024 N1021 1.279 . S
C1024 C1023 1.358 . S
C1024 H1027 0.930 . S
C1025 C1022 1.348 . S
C1025 C1023 1.356 . S
H1026 C1020 0.930 . S
H1027 C1024 0.930 . S
O1028 Li968 1.956 . S
O1028 Li969 1.970 . S
O1028 Li970 1.961 . S
O1028 C972 1.325 . S
O1029 Li968 1.970 . S
O1029 Li969 1.956 . S
O1029 Li971 1.961 . S
O1029 C978 1.325 . S
O1030 Li968 1.961 . S
O1030 Li970 1.956 . S
O1030 Li971 1.970 . S
O1030 C1000 1.325 . S
O1031 Li969 1.961 . S
O1031 Li970 1.970 . S
O1031 Li971 1.956 . S
O1031 C1006 1.325 . S
H1032 C974 0.929 . S
H1033 C975 0.930 . S
H1034 C976 0.930 . S
H1035 C977 0.930 . S
H1036 C979 0.930 . S
H1037 C981 0.929 . S
H1038 C982 0.930 . S
H1039 C983 0.930 . S
H1040 C986 0.930 . S
H1041 C989 0.929 . S
H1042 C994 0.929 . S
H1043 C995 0.930 . S
H1044 C1002 0.929 . S
H1045 C1003 0.930 . S
H1046 C1004 0.930 . S
H1047 C1005 0.930 . S
H1048 C1007 0.929 . S
H1049 C1008 0.930 . S
H1050 C1009 0.930 . S
H1051 C1010 0.930 . S
H1052 C1014 0.929 . S
H1053 C1016 0.930 . S
H1054 C1022 0.929 . S
H1055 C1023 0.930 . S
Li1056 N1073 1.990 . S
Li1056 O1116 1.956 . S
Li1056 O1117 1.970 . S
Li1056 O1118 1.961 . S
Li1057 N1081 1.990 . S
Li1057 O1116 1.970 . S
Li1057 O1117 1.956 . S
Li1057 O1119 1.961 . S
Li1058 N1103 1.990 . S
Li1058 O1116 1.961 . S
Li1058 O1118 1.956 . S
Li1058 O1119 1.970 . S
Li1059 N1109 1.990 . S
Li1059 O1117 1.961 . S
Li1059 O1118 1.970 . S
Li1059 O1119 1.956 . S
C1060 C1062 1.348 . S
C1060 C1063 1.356 . S
C1060 O1116 1.325 . S
N1061 C1064 1.314 . S
N1061 C1065 1.279 . S
C1062 C1060 1.348 . S
C1062 C1064 1.353 . S
C1062 H1120 0.929 . S
C1063 C1060 1.356 . S
C1063 C1065 1.358 . S
C1063 H1121 0.930 . S
C1064 N1061 1.314 . S
C1064 C1062 1.353 . S
C1064 H1122 0.930 . S
C1065 N1061 1.279 . S
C1065 C1063 1.358 . S
C1065 H1123 0.930 . S
C1066 C1069 1.348 . S
C1066 C1070 1.356 . S
C1066 O1117 1.325 . S
C1067 N1068 1.279 . S
C1067 C1070 1.358 . S
C1067 H1124 0.930 . S
N1068 C1067 1.279 . S
N1068 C1071 1.314 . S
C1069 C1066 1.348 . S
C1069 C1071 1.353 . S
C1069 H1125 0.929 . S
C1070 C1066 1.356 . S
C1070 C1067 1.358 . S
C1070 H1126 0.930 . S
C1071 N1068 1.314 . S
C1071 C1069 1.353 . S
C1071 H1127 0.930 . S
C1072 N1073 1.314 . S
C1072 C1077 1.353 . S
C1072 H1078 0.930 . S
N1073 Li1056 1.990 . S
N1073 C1072 1.314 . S
N1073 C1075 1.279 . S
C1074 C1075 1.358 . S
C1074 C1076 1.356 . S
C1074 H1128 0.930 . S
C1075 N1073 1.279 . S
C1075 C1074 1.358 . S
C1075 H1079 0.930 . S
C1076 C1074 1.356 . S
C1076 C1077 1.348 . S
C1077 C1072 1.353 . S
C1077 C1076 1.348 . S
C1077 H1129 0.929 . S
H1078 C1072 0.930 . S
H1079 C1075 0.930 . S
C1080 N1081 1.314 . S
C1080 C1082 1.353 . S
C1080 H1086 0.930 . S
N1081 Li1057 1.990 . S
N1081 C1080 1.314 . S
N1081 C1084 1.279 . S
C1082 C1080 1.353 . S
C1082 C1085 1.348 . S
C1082 H1130 0.929 . S
C1083 C1084 1.358 . S
C1083 C1085 1.356 . S
C1083 H1131 0.930 . S
C1084 N1081 1.279 . S
C1084 C1083 1.358 . S
C1084 H1087 0.930 . S
C1085 C1082 1.348 . S
C1085 C1083 1.356 . S
H1086 C1080 0.930 . S
H1087 C1084 0.930 . S
C1088 C1090 1.348 . S
C1088 C1091 1.356 . S
C1088 O1118 1.325 . S
N1089 C1092 1.314 . S
N1089 C1093 1.279 . S
C1090 C1088 1.348 . S
C1090 C1092 1.353 . S
C1090 H1132 0.929 . S
C1091 C1088 1.356 . S
C1091 C1093 1.358 . S
C1091 H1133 0.930 . S
C1092 N1089 1.314 . S
C1092 C1090 1.353 . S
C1092 H1134 0.930 . S
C1093 N1089 1.279 . S
C1093 C1091 1.358 . S
C1093 H1135 0.930 . S
C1094 C1095 1.348 . S
C1094 C1096 1.356 . S
C1094 O1119 1.325 . S
C1095 C1094 1.348 . S
C1095 C1097 1.353 . S
C1095 H1136 0.929 . S
C1096 C1094 1.356 . S
C1096 C1098 1.358 . S
C1096 H1137 0.930 . S
C1097 C1095 1.353 . S
C1097 N1099 1.314 . S
C1097 H1138 0.930 . S
C1098 C1096 1.358 . S
C1098 N1099 1.279 . S
C1098 H1139 0.930 . S
N1099 C1097 1.314 . S
N1099 C1098 1.279 . S
C1100 C1102 1.353 . S
C1100 N1103 1.314 . S
C1100 H1106 0.930 . S
C1101 N1103 1.279 . S
C1101 C1104 1.358 . S
C1101 H1107 0.930 . S
C1102 C1100 1.353 . S
C1102 C1105 1.348 . S
C1102 H1140 0.929 . S
N1103 Li1058 1.990 . S
N1103 C1100 1.314 . S
N1103 C1101 1.279 . S
C1104 C1101 1.358 . S
C1104 C1105 1.356 . S
C1104 H1141 0.930 . S
C1105 C1102 1.348 . S
C1105 C1104 1.356 . S
H1106 C1100 0.930 . S
H1107 C1101 0.930 . S
C1108 N1109 1.314 . S
C1108 C1110 1.353 . S
C1108 H1114 0.930 . S
N1109 Li1059 1.990 . S
N1109 C1108 1.314 . S
N1109 C1112 1.279 . S
C1110 C1108 1.353 . S
C1110 C1113 1.348 . S
C1110 H1142 0.929 . S
C1111 C1112 1.358 . S
C1111 C1113 1.356 . S
C1111 H1143 0.930 . S
C1112 N1109 1.279 . S
C1112 C1111 1.358 . S
C1112 H1115 0.930 . S
C1113 C1110 1.348 . S
C1113 C1111 1.356 . S
H1114 C1108 0.930 . S
H1115 C1112 0.930 . S
O1116 Li1056 1.956 . S
O1116 Li1057 1.970 . S
O1116 Li1058 1.961 . S
O1116 C1060 1.325 . S
O1117 Li1056 1.970 . S
O1117 Li1057 1.956 . S
O1117 Li1059 1.961 . S
O1117 C1066 1.325 . S
O1118 Li1056 1.961 . S
O1118 Li1058 1.956 . S
O1118 Li1059 1.970 . S
O1118 C1088 1.325 . S
O1119 Li1057 1.961 . S
O1119 Li1058 1.970 . S
O1119 Li1059 1.956 . S
O1119 C1094 1.325 . S
H1120 C1062 0.929 . S
H1121 C1063 0.930 . S
H1122 C1064 0.930 . S
H1123 C1065 0.930 . S
H1124 C1067 0.930 . S
H1125 C1069 0.929 . S
H1126 C1070 0.930 . S
H1127 C1071 0.930 . S
H1128 C1074 0.930 . S
H1129 C1077 0.929 . S
H1130 C1082 0.929 . S
H1131 C1083 0.930 . S
H1132 C1090 0.929 . S
H1133 C1091 0.930 . S
H1134 C1092 0.930 . S
H1135 C1093 0.930 . S
H1136 C1095 0.929 . S
H1137 C1096 0.930 . S
H1138 C1097 0.930 . S
H1139 C1098 0.930 . S
H1140 C1102 0.929 . S
H1141 C1104 0.930 . S
H1142 C1110 0.929 . S
H1143 C1111 0.930 . S
Li1144 N1161 1.990 . S
Li1144 O1204 1.956 . S
Li1144 O1205 1.970 . S
Li1144 O1206 1.961 . S
Li1145 N1169 1.990 . S
Li1145 O1204 1.970 . S
Li1145 O1205 1.956 . S
Li1145 O1207 1.961 . S
Li1146 N1191 1.990 . S
Li1146 O1204 1.961 . S
Li1146 O1206 1.956 . S
Li1146 O1207 1.970 . S
Li1147 N1197 1.990 . S
Li1147 O1205 1.961 . S
Li1147 O1206 1.970 . S
Li1147 O1207 1.956 . S
C1148 C1150 1.348 . S
C1148 C1151 1.356 . S
C1148 O1204 1.325 . S
N1149 C1152 1.314 . S
N1149 C1153 1.279 . S
C1150 C1148 1.348 . S
C1150 C1152 1.353 . S
C1150 H1208 0.929 . S
C1151 C1148 1.356 . S
C1151 C1153 1.358 . S
C1151 H1209 0.930 . S
C1152 N1149 1.314 . S
C1152 C1150 1.353 . S
C1152 H1210 0.930 . S
C1153 N1149 1.279 . S
C1153 C1151 1.358 . S
C1153 H1211 0.930 . S
C1154 C1157 1.348 . S
C1154 C1158 1.356 . S
C1154 O1205 1.325 . S
C1155 N1156 1.279 . S
C1155 C1158 1.358 . S
C1155 H1212 0.930 . S
N1156 C1155 1.279 . S
N1156 C1159 1.314 . S
C1157 C1154 1.348 . S
C1157 C1159 1.353 . S
C1157 H1213 0.929 . S
C1158 C1154 1.356 . S
C1158 C1155 1.358 . S
C1158 H1214 0.930 . S
C1159 N1156 1.314 . S
C1159 C1157 1.353 . S
C1159 H1215 0.930 . S
C1160 N1161 1.314 . S
C1160 C1165 1.353 . S
C1160 H1166 0.930 . S
N1161 Li1144 1.990 . S
N1161 C1160 1.314 . S
N1161 C1163 1.279 . S
C1162 C1163 1.358 . S
C1162 C1164 1.356 . S
C1162 H1216 0.930 . S
C1163 N1161 1.279 . S
C1163 C1162 1.358 . S
C1163 H1167 0.930 . S
C1164 C1162 1.356 . S
C1164 C1165 1.348 . S
C1165 C1160 1.353 . S
C1165 C1164 1.348 . S
C1165 H1217 0.929 . S
H1166 C1160 0.930 . S
H1167 C1163 0.930 . S
C1168 N1169 1.314 . S
C1168 C1170 1.353 . S
C1168 H1174 0.930 . S
N1169 Li1145 1.990 . S
N1169 C1168 1.314 . S
N1169 C1172 1.279 . S
C1170 C1168 1.353 . S
C1170 C1173 1.348 . S
C1170 H1218 0.929 . S
C1171 C1172 1.358 . S
C1171 C1173 1.356 . S
C1171 H1219 0.930 . S
C1172 N1169 1.279 . S
C1172 C1171 1.358 . S
C1172 H1175 0.930 . S
C1173 C1170 1.348 . S
C1173 C1171 1.356 . S
H1174 C1168 0.930 . S
H1175 C1172 0.930 . S
C1176 C1178 1.348 . S
C1176 C1179 1.356 . S
C1176 O1206 1.325 . S
N1177 C1180 1.314 . S
N1177 C1181 1.279 . S
C1178 C1176 1.348 . S
C1178 C1180 1.353 . S
C1178 H1220 0.929 . S
C1179 C1176 1.356 . S
C1179 C1181 1.358 . S
C1179 H1221 0.930 . S
C1180 N1177 1.314 . S
C1180 C1178 1.353 . S
C1180 H1222 0.930 . S
C1181 N1177 1.279 . S
C1181 C1179 1.358 . S
C1181 H1223 0.930 . S
C1182 C1183 1.348 . S
C1182 C1184 1.356 . S
C1182 O1207 1.325 . S
C1183 C1182 1.348 . S
C1183 C1185 1.353 . S
C1183 H1224 0.929 . S
C1184 C1182 1.356 . S
C1184 C1186 1.358 . S
C1184 H1225 0.930 . S
C1185 C1183 1.353 . S
C1185 N1187 1.314 . S
C1185 H1226 0.930 . S
C1186 C1184 1.358 . S
C1186 N1187 1.279 . S
C1186 H1227 0.930 . S
N1187 C1185 1.314 . S
N1187 C1186 1.279 . S
C1188 C1190 1.353 . S
C1188 N1191 1.314 . S
C1188 H1194 0.930 . S
C1189 N1191 1.279 . S
C1189 C1192 1.358 . S
C1189 H1195 0.930 . S
C1190 C1188 1.353 . S
C1190 C1193 1.348 . S
C1190 H1228 0.929 . S
N1191 Li1146 1.990 . S
N1191 C1188 1.314 . S
N1191 C1189 1.279 . S
C1192 C1189 1.358 . S
C1192 C1193 1.356 . S
C1192 H1229 0.930 . S
C1193 C1190 1.348 . S
C1193 C1192 1.356 . S
H1194 C1188 0.930 . S
H1195 C1189 0.930 . S
C1196 N1197 1.314 . S
C1196 C1198 1.353 . S
C1196 H1202 0.930 . S
N1197 Li1147 1.990 . S
N1197 C1196 1.314 . S
N1197 C1200 1.279 . S
C1198 C1196 1.353 . S
C1198 C1201 1.348 . S
C1198 H1230 0.929 . S
C1199 C1200 1.358 . S
C1199 C1201 1.356 . S
C1199 H1231 0.930 . S
C1200 N1197 1.279 . S
C1200 C1199 1.358 . S
C1200 H1203 0.930 . S
C1201 C1198 1.348 . S
C1201 C1199 1.356 . S
H1202 C1196 0.930 . S
H1203 C1200 0.930 . S
O1204 Li1144 1.956 . S
O1204 Li1145 1.970 . S
O1204 Li1146 1.961 . S
O1204 C1148 1.325 . S
O1205 Li1144 1.970 . S
O1205 Li1145 1.956 . S
O1205 Li1147 1.961 . S
O1205 C1154 1.325 . S
O1206 Li1144 1.961 . S
O1206 Li1146 1.956 . S
O1206 Li1147 1.970 . S
O1206 C1176 1.325 . S
O1207 Li1145 1.961 . S
O1207 Li1146 1.970 . S
O1207 Li1147 1.956 . S
O1207 C1182 1.325 . S
H1208 C1150 0.929 . S
H1209 C1151 0.930 . S
H1210 C1152 0.930 . S
H1211 C1153 0.930 . S
H1212 C1155 0.930 . S
H1213 C1157 0.929 . S
H1214 C1158 0.930 . S
H1215 C1159 0.930 . S
H1216 C1162 0.930 . S
H1217 C1165 0.929 . S
H1218 C1170 0.929 . S
H1219 C1171 0.930 . S
H1220 C1178 0.929 . S
H1221 C1179 0.930 . S
H1222 C1180 0.930 . S
H1223 C1181 0.930 . S
H1224 C1183 0.929 . S
H1225 C1184 0.930 . S
H1226 C1185 0.930 . S
H1227 C1186 0.930 . S
H1228 C1190 0.929 . S
H1229 C1192 0.930 . S
H1230 C1198 0.929 . S
H1231 C1199 0.930 . S
Li1232 N1249 1.990 . S
Li1232 O1292 1.956 . S
Li1232 O1293 1.970 . S
Li1232 O1294 1.961 . S
Li1233 N1257 1.990 . S
Li1233 O1292 1.970 . S
Li1233 O1293 1.956 . S
Li1233 O1295 1.961 . S
Li1234 N1279 1.990 . S
Li1234 O1292 1.961 . S
Li1234 O1294 1.956 . S
Li1234 O1295 1.970 . S
Li1235 N1285 1.990 . S
Li1235 O1293 1.961 . S
Li1235 O1294 1.970 . S
Li1235 O1295 1.956 . S
C1236 C1238 1.348 . S
C1236 C1239 1.356 . S
C1236 O1292 1.325 . S
N1237 C1240 1.314 . S
N1237 C1241 1.279 . S
C1238 C1236 1.348 . S
C1238 C1240 1.353 . S
C1238 H1296 0.929 . S
C1239 C1236 1.356 . S
C1239 C1241 1.358 . S
C1239 H1297 0.930 . S
C1240 N1237 1.314 . S
C1240 C1238 1.353 . S
C1240 H1298 0.930 . S
C1241 N1237 1.279 . S
C1241 C1239 1.358 . S
C1241 H1299 0.930 . S
C1242 C1245 1.348 . S
C1242 C1246 1.356 . S
C1242 O1293 1.325 . S
C1243 N1244 1.279 . S
C1243 C1246 1.358 . S
C1243 H1300 0.930 . S
N1244 C1243 1.279 . S
N1244 C1247 1.314 . S
C1245 C1242 1.348 . S
C1245 C1247 1.353 . S
C1245 H1301 0.929 . S
C1246 C1242 1.356 . S
C1246 C1243 1.358 . S
C1246 H1302 0.930 . S
C1247 N1244 1.314 . S
C1247 C1245 1.353 . S
C1247 H1303 0.930 . S
C1248 N1249 1.314 . S
C1248 C1253 1.353 . S
C1248 H1254 0.930 . S
N1249 Li1232 1.990 . S
N1249 C1248 1.314 . S
N1249 C1251 1.279 . S
C1250 C1251 1.358 . S
C1250 C1252 1.356 . S
C1250 H1304 0.930 . S
C1251 N1249 1.279 . S
C1251 C1250 1.358 . S
C1251 H1255 0.930 . S
C1252 C1250 1.356 . S
C1252 C1253 1.348 . S
C1253 C1248 1.353 . S
C1253 C1252 1.348 . S
C1253 H1305 0.929 . S
H1254 C1248 0.930 . S
H1255 C1251 0.930 . S
C1256 N1257 1.314 . S
C1256 C1258 1.353 . S
C1256 H1262 0.930 . S
N1257 Li1233 1.990 . S
N1257 C1256 1.314 . S
N1257 C1260 1.279 . S
C1258 C1256 1.353 . S
C1258 C1261 1.348 . S
C1258 H1306 0.929 . S
C1259 C1260 1.358 . S
C1259 C1261 1.356 . S
C1259 H1307 0.930 . S
C1260 N1257 1.279 . S
C1260 C1259 1.358 . S
C1260 H1263 0.930 . S
C1261 C1258 1.348 . S
C1261 C1259 1.356 . S
H1262 C1256 0.930 . S
H1263 C1260 0.930 . S
C1264 C1266 1.348 . S
C1264 C1267 1.356 . S
C1264 O1294 1.325 . S
N1265 C1268 1.314 . S
N1265 C1269 1.279 . S
C1266 C1264 1.348 . S
C1266 C1268 1.353 . S
C1266 H1308 0.929 . S
C1267 C1264 1.356 . S
C1267 C1269 1.358 . S
C1267 H1309 0.930 . S
C1268 N1265 1.314 . S
C1268 C1266 1.353 . S
C1268 H1310 0.930 . S
C1269 N1265 1.279 . S
C1269 C1267 1.358 . S
C1269 H1311 0.930 . S
C1270 C1271 1.348 . S
C1270 C1272 1.356 . S
C1270 O1295 1.325 . S
C1271 C1270 1.348 . S
C1271 C1273 1.353 . S
C1271 H1312 0.929 . S
C1272 C1270 1.356 . S
C1272 C1274 1.358 . S
C1272 H1313 0.930 . S
C1273 C1271 1.353 . S
C1273 N1275 1.314 . S
C1273 H1314 0.930 . S
C1274 C1272 1.358 . S
C1274 N1275 1.279 . S
C1274 H1315 0.930 . S
N1275 C1273 1.314 . S
N1275 C1274 1.279 . S
C1276 C1278 1.353 . S
C1276 N1279 1.314 . S
C1276 H1282 0.930 . S
C1277 N1279 1.279 . S
C1277 C1280 1.358 . S
C1277 H1283 0.930 . S
C1278 C1276 1.353 . S
C1278 C1281 1.348 . S
C1278 H1316 0.929 . S
N1279 Li1234 1.990 . S
N1279 C1276 1.314 . S
N1279 C1277 1.279 . S
C1280 C1277 1.358 . S
C1280 C1281 1.356 . S
C1280 H1317 0.930 . S
C1281 C1278 1.348 . S
C1281 C1280 1.356 . S
H1282 C1276 0.930 . S
H1283 C1277 0.930 . S
C1284 N1285 1.314 . S
C1284 C1286 1.353 . S
C1284 H1290 0.930 . S
N1285 Li1235 1.990 . S
N1285 C1284 1.314 . S
N1285 C1288 1.279 . S
C1286 C1284 1.353 . S
C1286 C1289 1.348 . S
C1286 H1318 0.929 . S
C1287 C1288 1.358 . S
C1287 C1289 1.356 . S
C1287 H1319 0.930 . S
C1288 N1285 1.279 . S
C1288 C1287 1.358 . S
C1288 H1291 0.930 . S
C1289 C1286 1.348 . S
C1289 C1287 1.356 . S
H1290 C1284 0.930 . S
H1291 C1288 0.930 . S
O1292 Li1232 1.956 . S
O1292 Li1233 1.970 . S
O1292 Li1234 1.961 . S
O1292 C1236 1.325 . S
O1293 Li1232 1.970 . S
O1293 Li1233 1.956 . S
O1293 Li1235 1.961 . S
O1293 C1242 1.325 . S
O1294 Li1232 1.961 . S
O1294 Li1234 1.956 . S
O1294 Li1235 1.970 . S
O1294 C1264 1.325 . S
O1295 Li1233 1.961 . S
O1295 Li1234 1.970 . S
O1295 Li1235 1.956 . S
O1295 C1270 1.325 . S
H1296 C1238 0.929 . S
H1297 C1239 0.930 . S
H1298 C1240 0.930 . S
H1299 C1241 0.930 . S
H1300 C1243 0.930 . S
H1301 C1245 0.929 . S
H1302 C1246 0.930 . S
H1303 C1247 0.930 . S
H1304 C1250 0.930 . S
H1305 C1253 0.929 . S
H1306 C1258 0.929 . S
H1307 C1259 0.930 . S
H1308 C1266 0.929 . S
H1309 C1267 0.930 . S
H1310 C1268 0.930 . S
H1311 C1269 0.930 . S
H1312 C1271 0.929 . S
H1313 C1272 0.930 . S
H1314 C1273 0.930 . S
H1315 C1274 0.930 . S
H1316 C1278 0.929 . S
H1317 C1280 0.930 . S
H1318 C1286 0.929 . S
H1319 C1287 0.930 . S
Li1320 N1337 1.990 . S
Li1320 O1380 1.956 . S
Li1320 O1381 1.970 . S
Li1320 O1382 1.961 . S
Li1321 N1345 1.990 . S
Li1321 O1380 1.970 . S
Li1321 O1381 1.956 . S
Li1321 O1383 1.961 . S
Li1322 N1367 1.990 . S
Li1322 O1380 1.961 . S
Li1322 O1382 1.956 . S
Li1322 O1383 1.970 . S
Li1323 N1373 1.990 . S
Li1323 O1381 1.961 . S
Li1323 O1382 1.970 . S
Li1323 O1383 1.956 . S
C1324 C1326 1.348 . S
C1324 C1327 1.356 . S
C1324 O1380 1.325 . S
N1325 C1328 1.314 . S
N1325 C1329 1.279 . S
C1326 C1324 1.348 . S
C1326 C1328 1.353 . S
C1326 H1384 0.929 . S
C1327 C1324 1.356 . S
C1327 C1329 1.358 . S
C1327 H1385 0.930 . S
C1328 N1325 1.314 . S
C1328 C1326 1.353 . S
C1328 H1386 0.930 . S
C1329 N1325 1.279 . S
C1329 C1327 1.358 . S
C1329 H1387 0.930 . S
C1330 C1333 1.348 . S
C1330 C1334 1.356 . S
C1330 O1381 1.325 . S
C1331 N1332 1.279 . S
C1331 C1334 1.358 . S
C1331 H1388 0.930 . S
N1332 C1331 1.279 . S
N1332 C1335 1.314 . S
C1333 C1330 1.348 . S
C1333 C1335 1.353 . S
C1333 H1389 0.929 . S
C1334 C1330 1.356 . S
C1334 C1331 1.358 . S
C1334 H1390 0.930 . S
C1335 N1332 1.314 . S
C1335 C1333 1.353 . S
C1335 H1391 0.930 . S
C1336 N1337 1.314 . S
C1336 C1341 1.353 . S
C1336 H1342 0.930 . S
N1337 Li1320 1.990 . S
N1337 C1336 1.314 . S
N1337 C1339 1.279 . S
C1338 C1339 1.358 . S
C1338 C1340 1.356 . S
C1338 H1392 0.930 . S
C1339 N1337 1.279 . S
C1339 C1338 1.358 . S
C1339 H1343 0.930 . S
C1340 C1338 1.356 . S
C1340 C1341 1.348 . S
C1341 C1336 1.353 . S
C1341 C1340 1.348 . S
C1341 H1393 0.929 . S
H1342 C1336 0.930 . S
H1343 C1339 0.930 . S
C1344 N1345 1.314 . S
C1344 C1346 1.353 . S
C1344 H1350 0.930 . S
N1345 Li1321 1.990 . S
N1345 C1344 1.314 . S
N1345 C1348 1.279 . S
C1346 C1344 1.353 . S
C1346 C1349 1.348 . S
C1346 H1394 0.929 . S
C1347 C1348 1.358 . S
C1347 C1349 1.356 . S
C1347 H1395 0.930 . S
C1348 N1345 1.279 . S
C1348 C1347 1.358 . S
C1348 H1351 0.930 . S
C1349 C1346 1.348 . S
C1349 C1347 1.356 . S
H1350 C1344 0.930 . S
H1351 C1348 0.930 . S
C1352 C1354 1.348 . S
C1352 C1355 1.356 . S
C1352 O1382 1.325 . S
N1353 C1356 1.314 . S
N1353 C1357 1.279 . S
C1354 C1352 1.348 . S
C1354 C1356 1.353 . S
C1354 H1396 0.929 . S
C1355 C1352 1.356 . S
C1355 C1357 1.358 . S
C1355 H1397 0.930 . S
C1356 N1353 1.314 . S
C1356 C1354 1.353 . S
C1356 H1398 0.930 . S
C1357 N1353 1.279 . S
C1357 C1355 1.358 . S
C1357 H1399 0.930 . S
C1358 C1359 1.348 . S
C1358 C1360 1.356 . S
C1358 O1383 1.325 . S
C1359 C1358 1.348 . S
C1359 C1361 1.353 . S
C1359 H1400 0.929 . S
C1360 C1358 1.356 . S
C1360 C1362 1.358 . S
C1360 H1401 0.930 . S
C1361 C1359 1.353 . S
C1361 N1363 1.314 . S
C1361 H1402 0.930 . S
C1362 C1360 1.358 . S
C1362 N1363 1.279 . S
C1362 H1403 0.930 . S
N1363 C1361 1.314 . S
N1363 C1362 1.279 . S
C1364 C1366 1.353 . S
C1364 N1367 1.314 . S
C1364 H1370 0.930 . S
C1365 N1367 1.279 . S
C1365 C1368 1.358 . S
C1365 H1371 0.930 . S
C1366 C1364 1.353 . S
C1366 C1369 1.348 . S
C1366 H1404 0.929 . S
N1367 Li1322 1.990 . S
N1367 C1364 1.314 . S
N1367 C1365 1.279 . S
C1368 C1365 1.358 . S
C1368 C1369 1.356 . S
C1368 H1405 0.930 . S
C1369 C1366 1.348 . S
C1369 C1368 1.356 . S
H1370 C1364 0.930 . S
H1371 C1365 0.930 . S
C1372 N1373 1.314 . S
C1372 C1374 1.353 . S
C1372 H1378 0.930 . S
N1373 Li1323 1.990 . S
N1373 C1372 1.314 . S
N1373 C1376 1.279 . S
C1374 C1372 1.353 . S
C1374 C1377 1.348 . S
C1374 H1406 0.929 . S
C1375 C1376 1.358 . S
C1375 C1377 1.356 . S
C1375 H1407 0.930 . S
C1376 N1373 1.279 . S
C1376 C1375 1.358 . S
C1376 H1379 0.930 . S
C1377 C1374 1.348 . S
C1377 C1375 1.356 . S
H1378 C1372 0.930 . S
H1379 C1376 0.930 . S
O1380 Li1320 1.956 . S
O1380 Li1321 1.970 . S
O1380 Li1322 1.961 . S
O1380 C1324 1.325 . S
O1381 Li1320 1.970 . S
O1381 Li1321 1.956 . S
O1381 Li1323 1.961 . S
O1381 C1330 1.325 . S
O1382 Li1320 1.961 . S
O1382 Li1322 1.956 . S
O1382 Li1323 1.970 . S
O1382 C1352 1.325 . S
O1383 Li1321 1.961 . S
O1383 Li1322 1.970 . S
O1383 Li1323 1.956 . S
O1383 C1358 1.325 . S
H1384 C1326 0.929 . S
H1385 C1327 0.930 . S
H1386 C1328 0.930 . S
H1387 C1329 0.930 . S
H1388 C1331 0.930 . S
H1389 C1333 0.929 . S
H1390 C1334 0.930 . S
H1391 C1335 0.930 . S
H1392 C1338 0.930 . S
H1393 C1341 0.929 . S
H1394 C1346 0.929 . S
H1395 C1347 0.930 . S
H1396 C1354 0.929 . S
H1397 C1355 0.930 . S
H1398 C1356 0.930 . S
H1399 C1357 0.930 . S
H1400 C1359 0.929 . S
H1401 C1360 0.930 . S
H1402 C1361 0.930 . S
H1403 C1362 0.930 . S
H1404 C1366 0.929 . S
H1405 C1368 0.930 . S
H1406 C1374 0.929 . S
H1407 C1375 0.930 . S
Li1408 N1425 1.990 . S
Li1408 O1468 1.956 . S
Li1408 O1469 1.970 . S
Li1408 O1470 1.961 . S
Li1409 N1433 1.990 . S
Li1409 O1468 1.970 . S
Li1409 O1469 1.956 . S
Li1409 O1471 1.961 . S
Li1410 N1455 1.990 . S
Li1410 O1468 1.961 . S
Li1410 O1470 1.956 . S
Li1410 O1471 1.970 . S
Li1411 N1461 1.990 . S
Li1411 O1469 1.961 . S
Li1411 O1470 1.970 . S
Li1411 O1471 1.956 . S
C1412 C1414 1.348 . S
C1412 C1415 1.356 . S
C1412 O1468 1.325 . S
N1413 C1416 1.314 . S
N1413 C1417 1.279 . S
C1414 C1412 1.348 . S
C1414 C1416 1.353 . S
C1414 H1472 0.929 . S
C1415 C1412 1.356 . S
C1415 C1417 1.358 . S
C1415 H1473 0.930 . S
C1416 N1413 1.314 . S
C1416 C1414 1.353 . S
C1416 H1474 0.930 . S
C1417 N1413 1.279 . S
C1417 C1415 1.358 . S
C1417 H1475 0.930 . S
C1418 C1421 1.348 . S
C1418 C1422 1.356 . S
C1418 O1469 1.325 . S
C1419 N1420 1.279 . S
C1419 C1422 1.358 . S
C1419 H1476 0.930 . S
N1420 C1419 1.279 . S
N1420 C1423 1.314 . S
C1421 C1418 1.348 . S
C1421 C1423 1.353 . S
C1421 H1477 0.929 . S
C1422 C1418 1.356 . S
C1422 C1419 1.358 . S
C1422 H1478 0.930 . S
C1423 N1420 1.314 . S
C1423 C1421 1.353 . S
C1423 H1479 0.930 . S
C1424 N1425 1.314 . S
C1424 C1429 1.353 . S
C1424 H1430 0.930 . S
N1425 Li1408 1.990 . S
N1425 C1424 1.314 . S
N1425 C1427 1.279 . S
C1426 C1427 1.358 . S
C1426 C1428 1.356 . S
C1426 H1480 0.930 . S
C1427 N1425 1.279 . S
C1427 C1426 1.358 . S
C1427 H1431 0.930 . S
C1428 C1426 1.356 . S
C1428 C1429 1.348 . S
C1429 C1424 1.353 . S
C1429 C1428 1.348 . S
C1429 H1481 0.929 . S
H1430 C1424 0.930 . S
H1431 C1427 0.930 . S
C1432 N1433 1.314 . S
C1432 C1434 1.353 . S
C1432 H1438 0.930 . S
N1433 Li1409 1.990 . S
N1433 C1432 1.314 . S
N1433 C1436 1.279 . S
C1434 C1432 1.353 . S
C1434 C1437 1.348 . S
C1434 H1482 0.929 . S
C1435 C1436 1.358 . S
C1435 C1437 1.356 . S
C1435 H1483 0.930 . S
C1436 N1433 1.279 . S
C1436 C1435 1.358 . S
C1436 H1439 0.930 . S
C1437 C1434 1.348 . S
C1437 C1435 1.356 . S
H1438 C1432 0.930 . S
H1439 C1436 0.930 . S
C1440 C1442 1.348 . S
C1440 C1443 1.356 . S
C1440 O1470 1.325 . S
N1441 C1444 1.314 . S
N1441 C1445 1.279 . S
C1442 C1440 1.348 . S
C1442 C1444 1.353 . S
C1442 H1484 0.929 . S
C1443 C1440 1.356 . S
C1443 C1445 1.358 . S
C1443 H1485 0.930 . S
C1444 N1441 1.314 . S
C1444 C1442 1.353 . S
C1444 H1486 0.930 . S
C1445 N1441 1.279 . S
C1445 C1443 1.358 . S
C1445 H1487 0.930 . S
C1446 C1447 1.348 . S
C1446 C1448 1.356 . S
C1446 O1471 1.325 . S
C1447 C1446 1.348 . S
C1447 C1449 1.353 . S
C1447 H1488 0.929 . S
C1448 C1446 1.356 . S
C1448 C1450 1.358 . S
C1448 H1489 0.930 . S
C1449 C1447 1.353 . S
C1449 N1451 1.314 . S
C1449 H1490 0.930 . S
C1450 C1448 1.358 . S
C1450 N1451 1.279 . S
C1450 H1491 0.930 . S
N1451 C1449 1.314 . S
N1451 C1450 1.279 . S
C1452 C1454 1.353 . S
C1452 N1455 1.314 . S
C1452 H1458 0.930 . S
C1453 N1455 1.279 . S
C1453 C1456 1.358 . S
C1453 H1459 0.930 . S
C1454 C1452 1.353 . S
C1454 C1457 1.348 . S
C1454 H1492 0.929 . S
N1455 Li1410 1.990 . S
N1455 C1452 1.314 . S
N1455 C1453 1.279 . S
C1456 C1453 1.358 . S
C1456 C1457 1.356 . S
C1456 H1493 0.930 . S
C1457 C1454 1.348 . S
C1457 C1456 1.356 . S
H1458 C1452 0.930 . S
H1459 C1453 0.930 . S
C1460 N1461 1.314 . S
C1460 C1462 1.353 . S
C1460 H1466 0.930 . S
N1461 Li1411 1.990 . S
N1461 C1460 1.314 . S
N1461 C1464 1.279 . S
C1462 C1460 1.353 . S
C1462 C1465 1.348 . S
C1462 H1494 0.929 . S
C1463 C1464 1.358 . S
C1463 C1465 1.356 . S
C1463 H1495 0.930 . S
C1464 N1461 1.279 . S
C1464 C1463 1.358 . S
C1464 H1467 0.930 . S
C1465 C1462 1.348 . S
C1465 C1463 1.356 . S
H1466 C1460 0.930 . S
H1467 C1464 0.930 . S
O1468 Li1408 1.956 . S
O1468 Li1409 1.970 . S
O1468 Li1410 1.961 . S
O1468 C1412 1.325 . S
O1469 Li1408 1.970 . S
O1469 Li1409 1.956 . S
O1469 Li1411 1.961 . S
O1469 C1418 1.325 . S
O1470 Li1408 1.961 . S
O1470 Li1410 1.956 . S
O1470 Li1411 1.970 . S
O1470 C1440 1.325 . S
O1471 Li1409 1.961 . S
O1471 Li1410 1.970 . S
O1471 Li1411 1.956 . S
O1471 C1446 1.325 . S
H1472 C1414 0.929 . S
H1473 C1415 0.930 . S
H1474 C1416 0.930 . S
H1475 C1417 0.930 . S
H1476 C1419 0.930 . S
H1477 C1421 0.929 . S
H1478 C1422 0.930 . S
H1479 C1423 0.930 . S
H1480 C1426 0.930 . S
H1481 C1429 0.929 . S
H1482 C1434 0.929 . S
H1483 C1435 0.930 . S
H1484 C1442 0.929 . S
H1485 C1443 0.930 . S
H1486 C1444 0.930 . S
H1487 C1445 0.930 . S
H1488 C1447 0.929 . S
H1489 C1448 0.930 . S
H1490 C1449 0.930 . S
H1491 C1450 0.930 . S
H1492 C1454 0.929 . S
H1493 C1456 0.930 . S
H1494 C1462 0.929 . S
H1495 C1463 0.930 . S
Li1496 N1513 1.990 . S
Li1496 O1556 1.956 . S
Li1496 O1557 1.970 . S
Li1496 O1558 1.961 . S
Li1497 N1521 1.990 . S
Li1497 O1556 1.970 . S
Li1497 O1557 1.956 . S
Li1497 O1559 1.961 . S
Li1498 N1543 1.990 . S
Li1498 O1556 1.961 . S
Li1498 O1558 1.956 . S
Li1498 O1559 1.970 . S
Li1499 N1549 1.990 . S
Li1499 O1557 1.961 . S
Li1499 O1558 1.970 . S
Li1499 O1559 1.956 . S
C1500 C1502 1.348 . S
C1500 C1503 1.356 . S
C1500 O1556 1.325 . S
N1501 C1504 1.314 . S
N1501 C1505 1.279 . S
C1502 C1500 1.348 . S
C1502 C1504 1.353 . S
C1502 H1560 0.929 . S
C1503 C1500 1.356 . S
C1503 C1505 1.358 . S
C1503 H1561 0.930 . S
C1504 N1501 1.314 . S
C1504 C1502 1.353 . S
C1504 H1562 0.930 . S
C1505 N1501 1.279 . S
C1505 C1503 1.358 . S
C1505 H1563 0.930 . S
C1506 C1509 1.348 . S
C1506 C1510 1.356 . S
C1506 O1557 1.325 . S
C1507 N1508 1.279 . S
C1507 C1510 1.358 . S
C1507 H1564 0.930 . S
N1508 C1507 1.279 . S
N1508 C1511 1.314 . S
C1509 C1506 1.348 . S
C1509 C1511 1.353 . S
C1509 H1565 0.929 . S
C1510 C1506 1.356 . S
C1510 C1507 1.358 . S
C1510 H1566 0.930 . S
C1511 N1508 1.314 . S
C1511 C1509 1.353 . S
C1511 H1567 0.930 . S
C1512 N1513 1.314 . S
C1512 C1517 1.353 . S
C1512 H1518 0.930 . S
N1513 Li1496 1.990 . S
N1513 C1512 1.314 . S
N1513 C1515 1.279 . S
C1514 C1515 1.358 . S
C1514 C1516 1.356 . S
C1514 H1568 0.930 . S
C1515 N1513 1.279 . S
C1515 C1514 1.358 . S
C1515 H1519 0.930 . S
C1516 C1514 1.356 . S
C1516 C1517 1.348 . S
C1517 C1512 1.353 . S
C1517 C1516 1.348 . S
C1517 H1569 0.929 . S
H1518 C1512 0.930 . S
H1519 C1515 0.930 . S
C1520 N1521 1.314 . S
C1520 C1522 1.353 . S
C1520 H1526 0.930 . S
N1521 Li1497 1.990 . S
N1521 C1520 1.314 . S
N1521 C1524 1.279 . S
C1522 C1520 1.353 . S
C1522 C1525 1.348 . S
C1522 H1570 0.929 . S
C1523 C1524 1.358 . S
C1523 C1525 1.356 . S
C1523 H1571 0.930 . S
C1524 N1521 1.279 . S
C1524 C1523 1.358 . S
C1524 H1527 0.930 . S
C1525 C1522 1.348 . S
C1525 C1523 1.356 . S
H1526 C1520 0.930 . S
H1527 C1524 0.930 . S
C1528 C1530 1.348 . S
C1528 C1531 1.356 . S
C1528 O1558 1.325 . S
N1529 C1532 1.314 . S
N1529 C1533 1.279 . S
C1530 C1528 1.348 . S
C1530 C1532 1.353 . S
C1530 H1572 0.929 . S
C1531 C1528 1.356 . S
C1531 C1533 1.358 . S
C1531 H1573 0.930 . S
C1532 N1529 1.314 . S
C1532 C1530 1.353 . S
C1532 H1574 0.930 . S
C1533 N1529 1.279 . S
C1533 C1531 1.358 . S
C1533 H1575 0.930 . S
C1534 C1535 1.348 . S
C1534 C1536 1.356 . S
C1534 O1559 1.325 . S
C1535 C1534 1.348 . S
C1535 C1537 1.353 . S
C1535 H1576 0.929 . S
C1536 C1534 1.356 . S
C1536 C1538 1.358 . S
C1536 H1577 0.930 . S
C1537 C1535 1.353 . S
C1537 N1539 1.314 . S
C1537 H1578 0.930 . S
C1538 C1536 1.358 . S
C1538 N1539 1.279 . S
C1538 H1579 0.930 . S
N1539 C1537 1.314 . S
N1539 C1538 1.279 . S
C1540 C1542 1.353 . S
C1540 N1543 1.314 . S
C1540 H1546 0.930 . S
C1541 N1543 1.279 . S
C1541 C1544 1.358 . S
C1541 H1547 0.930 . S
C1542 C1540 1.353 . S
C1542 C1545 1.348 . S
C1542 H1580 0.929 . S
N1543 Li1498 1.990 . S
N1543 C1540 1.314 . S
N1543 C1541 1.279 . S
C1544 C1541 1.358 . S
C1544 C1545 1.356 . S
C1544 H1581 0.930 . S
C1545 C1542 1.348 . S
C1545 C1544 1.356 . S
H1546 C1540 0.930 . S
H1547 C1541 0.930 . S
C1548 N1549 1.314 . S
C1548 C1550 1.353 . S
C1548 H1554 0.930 . S
N1549 Li1499 1.990 . S
N1549 C1548 1.314 . S
N1549 C1552 1.279 . S
C1550 C1548 1.353 . S
C1550 C1553 1.348 . S
C1550 H1582 0.929 . S
C1551 C1552 1.358 . S
C1551 C1553 1.356 . S
C1551 H1583 0.930 . S
C1552 N1549 1.279 . S
C1552 C1551 1.358 . S
C1552 H1555 0.930 . S
C1553 C1550 1.348 . S
C1553 C1551 1.356 . S
H1554 C1548 0.930 . S
H1555 C1552 0.930 . S
O1556 Li1496 1.956 . S
O1556 Li1497 1.970 . S
O1556 Li1498 1.961 . S
O1556 C1500 1.325 . S
O1557 Li1496 1.970 . S
O1557 Li1497 1.956 . S
O1557 Li1499 1.961 . S
O1557 C1506 1.325 . S
O1558 Li1496 1.961 . S
O1558 Li1498 1.956 . S
O1558 Li1499 1.970 . S
O1558 C1528 1.325 . S
O1559 Li1497 1.961 . S
O1559 Li1498 1.970 . S
O1559 Li1499 1.956 . S
O1559 C1534 1.325 . S
H1560 C1502 0.929 . S
H1561 C1503 0.930 . S
H1562 C1504 0.930 . S
H1563 C1505 0.930 . S
H1564 C1507 0.930 . S
H1565 C1509 0.929 . S
H1566 C1510 0.930 . S
H1567 C1511 0.930 . S
H1568 C1514 0.930 . S
H1569 C1517 0.929 . S
H1570 C1522 0.929 . S
H1571 C1523 0.930 . S
H1572 C1530 0.929 . S
H1573 C1531 0.930 . S
H1574 C1532 0.930 . S
H1575 C1533 0.930 . S
H1576 C1535 0.929 . S
H1577 C1536 0.930 . S
H1578 C1537 0.930 . S
H1579 C1538 0.930 . S
H1580 C1542 0.929 . S
H1581 C1544 0.930 . S
H1582 C1550 0.929 . S
H1583 C1551 0.930 . S
Li1584 N1601 1.990 . S
Li1584 O1644 1.956 . S
Li1584 O1645 1.970 . S
Li1584 O1646 1.961 . S
Li1585 N1609 1.990 . S
Li1585 O1644 1.970 . S
Li1585 O1645 1.956 . S
Li1585 O1647 1.961 . S
Li1586 N1631 1.990 . S
Li1586 O1644 1.961 . S
Li1586 O1646 1.956 . S
Li1586 O1647 1.970 . S
Li1587 N1637 1.990 . S
Li1587 O1645 1.961 . S
Li1587 O1646 1.970 . S
Li1587 O1647 1.956 . S
C1588 C1590 1.348 . S
C1588 C1591 1.356 . S
C1588 O1644 1.325 . S
N1589 C1592 1.314 . S
N1589 C1593 1.279 . S
C1590 C1588 1.348 . S
C1590 C1592 1.353 . S
C1590 H1648 0.929 . S
C1591 C1588 1.356 . S
C1591 C1593 1.358 . S
C1591 H1649 0.930 . S
C1592 N1589 1.314 . S
C1592 C1590 1.353 . S
C1592 H1650 0.930 . S
C1593 N1589 1.279 . S
C1593 C1591 1.358 . S
C1593 H1651 0.930 . S
C1594 C1597 1.348 . S
C1594 C1598 1.356 . S
C1594 O1645 1.325 . S
C1595 N1596 1.279 . S
C1595 C1598 1.358 . S
C1595 H1652 0.930 . S
N1596 C1595 1.279 . S
N1596 C1599 1.314 . S
C1597 C1594 1.348 . S
C1597 C1599 1.353 . S
C1597 H1653 0.929 . S
C1598 C1594 1.356 . S
C1598 C1595 1.358 . S
C1598 H1654 0.930 . S
C1599 N1596 1.314 . S
C1599 C1597 1.353 . S
C1599 H1655 0.930 . S
C1600 N1601 1.314 . S
C1600 C1605 1.353 . S
C1600 H1606 0.930 . S
N1601 Li1584 1.990 . S
N1601 C1600 1.314 . S
N1601 C1603 1.279 . S
C1602 C1603 1.358 . S
C1602 C1604 1.356 . S
C1602 H1656 0.930 . S
C1603 N1601 1.279 . S
C1603 C1602 1.358 . S
C1603 H1607 0.930 . S
C1604 C1602 1.356 . S
C1604 C1605 1.348 . S
C1605 C1600 1.353 . S
C1605 C1604 1.348 . S
C1605 H1657 0.929 . S
H1606 C1600 0.930 . S
H1607 C1603 0.930 . S
C1608 N1609 1.314 . S
C1608 C1610 1.353 . S
C1608 H1614 0.930 . S
N1609 Li1585 1.990 . S
N1609 C1608 1.314 . S
N1609 C1612 1.279 . S
C1610 C1608 1.353 . S
C1610 C1613 1.348 . S
C1610 H1658 0.929 . S
C1611 C1612 1.358 . S
C1611 C1613 1.356 . S
C1611 H1659 0.930 . S
C1612 N1609 1.279 . S
C1612 C1611 1.358 . S
C1612 H1615 0.930 . S
C1613 C1610 1.348 . S
C1613 C1611 1.356 . S
H1614 C1608 0.930 . S
H1615 C1612 0.930 . S
C1616 C1618 1.348 . S
C1616 C1619 1.356 . S
C1616 O1646 1.325 . S
N1617 C1620 1.314 . S
N1617 C1621 1.279 . S
C1618 C1616 1.348 . S
C1618 C1620 1.353 . S
C1618 H1660 0.929 . S
C1619 C1616 1.356 . S
C1619 C1621 1.358 . S
C1619 H1661 0.930 . S
C1620 N1617 1.314 . S
C1620 C1618 1.353 . S
C1620 H1662 0.930 . S
C1621 N1617 1.279 . S
C1621 C1619 1.358 . S
C1621 H1663 0.930 . S
C1622 C1623 1.348 . S
C1622 C1624 1.356 . S
C1622 O1647 1.325 . S
C1623 C1622 1.348 . S
C1623 C1625 1.353 . S
C1623 H1664 0.929 . S
C1624 C1622 1.356 . S
C1624 C1626 1.358 . S
C1624 H1665 0.930 . S
C1625 C1623 1.353 . S
C1625 N1627 1.314 . S
C1625 H1666 0.930 . S
C1626 C1624 1.358 . S
C1626 N1627 1.279 . S
C1626 H1667 0.930 . S
N1627 C1625 1.314 . S
N1627 C1626 1.279 . S
C1628 C1630 1.353 . S
C1628 N1631 1.314 . S
C1628 H1634 0.930 . S
C1629 N1631 1.279 . S
C1629 C1632 1.358 . S
C1629 H1635 0.930 . S
C1630 C1628 1.353 . S
C1630 C1633 1.348 . S
C1630 H1668 0.929 . S
N1631 Li1586 1.990 . S
N1631 C1628 1.314 . S
N1631 C1629 1.279 . S
C1632 C1629 1.358 . S
C1632 C1633 1.356 . S
C1632 H1669 0.930 . S
C1633 C1630 1.348 . S
C1633 C1632 1.356 . S
H1634 C1628 0.930 . S
H1635 C1629 0.930 . S
C1636 N1637 1.314 . S
C1636 C1638 1.353 . S
C1636 H1642 0.930 . S
N1637 Li1587 1.990 . S
N1637 C1636 1.314 . S
N1637 C1640 1.279 . S
C1638 C1636 1.353 . S
C1638 C1641 1.348 . S
C1638 H1670 0.929 . S
C1639 C1640 1.358 . S
C1639 C1641 1.356 . S
C1639 H1671 0.930 . S
C1640 N1637 1.279 . S
C1640 C1639 1.358 . S
C1640 H1643 0.930 . S
C1641 C1638 1.348 . S
C1641 C1639 1.356 . S
H1642 C1636 0.930 . S
H1643 C1640 0.930 . S
O1644 Li1584 1.956 . S
O1644 Li1585 1.970 . S
O1644 Li1586 1.961 . S
O1644 C1588 1.325 . S
O1645 Li1584 1.970 . S
O1645 Li1585 1.956 . S
O1645 Li1587 1.961 . S
O1645 C1594 1.325 . S
O1646 Li1584 1.961 . S
O1646 Li1586 1.956 . S
O1646 Li1587 1.970 . S
O1646 C1616 1.325 . S
O1647 Li1585 1.961 . S
O1647 Li1586 1.970 . S
O1647 Li1587 1.956 . S
O1647 C1622 1.325 . S
H1648 C1590 0.929 . S
H1649 C1591 0.930 . S
H1650 C1592 0.930 . S
H1651 C1593 0.930 . S
H1652 C1595 0.930 . S
H1653 C1597 0.929 . S
H1654 C1598 0.930 . S
H1655 C1599 0.930 . S
H1656 C1602 0.930 . S
H1657 C1605 0.929 . S
H1658 C1610 0.929 . S
H1659 C1611 0.930 . S
H1660 C1618 0.929 . S
H1661 C1619 0.930 . S
H1662 C1620 0.930 . S
H1663 C1621 0.930 . S
H1664 C1623 0.929 . S
H1665 C1624 0.930 . S
H1666 C1625 0.930 . S
H1667 C1626 0.930 . S
H1668 C1630 0.929 . S
H1669 C1632 0.930 . S
H1670 C1638 0.929 . S
H1671 C1639 0.930 . S
Li1672 N1689 1.990 . S
Li1672 O1732 1.956 . S
Li1672 O1733 1.970 . S
Li1672 O1734 1.961 . S
Li1673 N1697 1.990 . S
Li1673 O1732 1.970 . S
Li1673 O1733 1.956 . S
Li1673 O1735 1.961 . S
Li1674 N1719 1.990 . S
Li1674 O1732 1.961 . S
Li1674 O1734 1.956 . S
Li1674 O1735 1.970 . S
Li1675 N1725 1.990 . S
Li1675 O1733 1.961 . S
Li1675 O1734 1.970 . S
Li1675 O1735 1.956 . S
C1676 C1678 1.348 . S
C1676 C1679 1.356 . S
C1676 O1732 1.325 . S
N1677 C1680 1.314 . S
N1677 C1681 1.279 . S
C1678 C1676 1.348 . S
C1678 C1680 1.353 . S
C1678 H1736 0.929 . S
C1679 C1676 1.356 . S
C1679 C1681 1.358 . S
C1679 H1737 0.930 . S
C1680 N1677 1.314 . S
C1680 C1678 1.353 . S
C1680 H1738 0.930 . S
C1681 N1677 1.279 . S
C1681 C1679 1.358 . S
C1681 H1739 0.930 . S
C1682 C1685 1.348 . S
C1682 C1686 1.356 . S
C1682 O1733 1.325 . S
C1683 N1684 1.279 . S
C1683 C1686 1.358 . S
C1683 H1740 0.930 . S
N1684 C1683 1.279 . S
N1684 C1687 1.314 . S
C1685 C1682 1.348 . S
C1685 C1687 1.353 . S
C1685 H1741 0.929 . S
C1686 C1682 1.356 . S
C1686 C1683 1.358 . S
C1686 H1742 0.930 . S
C1687 N1684 1.314 . S
C1687 C1685 1.353 . S
C1687 H1743 0.930 . S
C1688 N1689 1.314 . S
C1688 C1693 1.353 . S
C1688 H1694 0.930 . S
N1689 Li1672 1.990 . S
N1689 C1688 1.314 . S
N1689 C1691 1.279 . S
C1690 C1691 1.358 . S
C1690 C1692 1.356 . S
C1690 H1744 0.930 . S
C1691 N1689 1.279 . S
C1691 C1690 1.358 . S
C1691 H1695 0.930 . S
C1692 C1690 1.356 . S
C1692 C1693 1.348 . S
C1693 C1688 1.353 . S
C1693 C1692 1.348 . S
C1693 H1745 0.929 . S
H1694 C1688 0.930 . S
H1695 C1691 0.930 . S
C1696 N1697 1.314 . S
C1696 C1698 1.353 . S
C1696 H1702 0.930 . S
N1697 Li1673 1.990 . S
N1697 C1696 1.314 . S
N1697 C1700 1.279 . S
C1698 C1696 1.353 . S
C1698 C1701 1.348 . S
C1698 H1746 0.929 . S
C1699 C1700 1.358 . S
C1699 C1701 1.356 . S
C1699 H1747 0.930 . S
C1700 N1697 1.279 . S
C1700 C1699 1.358 . S
C1700 H1703 0.930 . S
C1701 C1698 1.348 . S
C1701 C1699 1.356 . S
H1702 C1696 0.930 . S
H1703 C1700 0.930 . S
C1704 C1706 1.348 . S
C1704 C1707 1.356 . S
C1704 O1734 1.325 . S
N1705 C1708 1.314 . S
N1705 C1709 1.279 . S
C1706 C1704 1.348 . S
C1706 C1708 1.353 . S
C1706 H1748 0.929 . S
C1707 C1704 1.356 . S
C1707 C1709 1.358 . S
C1707 H1749 0.930 . S
C1708 N1705 1.314 . S
C1708 C1706 1.353 . S
C1708 H1750 0.930 . S
C1709 N1705 1.279 . S
C1709 C1707 1.358 . S
C1709 H1751 0.930 . S
C1710 C1711 1.348 . S
C1710 C1712 1.356 . S
C1710 O1735 1.325 . S
C1711 C1710 1.348 . S
C1711 C1713 1.353 . S
C1711 H1752 0.929 . S
C1712 C1710 1.356 . S
C1712 C1714 1.358 . S
C1712 H1753 0.930 . S
C1713 C1711 1.353 . S
C1713 N1715 1.314 . S
C1713 H1754 0.930 . S
C1714 C1712 1.358 . S
C1714 N1715 1.279 . S
C1714 H1755 0.930 . S
N1715 C1713 1.314 . S
N1715 C1714 1.279 . S
C1716 C1718 1.353 . S
C1716 N1719 1.314 . S
C1716 H1722 0.930 . S
C1717 N1719 1.279 . S
C1717 C1720 1.358 . S
C1717 H1723 0.930 . S
C1718 C1716 1.353 . S
C1718 C1721 1.348 . S
C1718 H1756 0.929 . S
N1719 Li1674 1.990 . S
N1719 C1716 1.314 . S
N1719 C1717 1.279 . S
C1720 C1717 1.358 . S
C1720 C1721 1.356 . S
C1720 H1757 0.930 . S
C1721 C1718 1.348 . S
C1721 C1720 1.356 . S
H1722 C1716 0.930 . S
H1723 C1717 0.930 . S
C1724 N1725 1.314 . S
C1724 C1726 1.353 . S
C1724 H1730 0.930 . S
N1725 Li1675 1.990 . S
N1725 C1724 1.314 . S
N1725 C1728 1.279 . S
C1726 C1724 1.353 . S
C1726 C1729 1.348 . S
C1726 H1758 0.929 . S
C1727 C1728 1.358 . S
C1727 C1729 1.356 . S
C1727 H1759 0.930 . S
C1728 N1725 1.279 . S
C1728 C1727 1.358 . S
C1728 H1731 0.930 . S
C1729 C1726 1.348 . S
C1729 C1727 1.356 . S
H1730 C1724 0.930 . S
H1731 C1728 0.930 . S
O1732 Li1672 1.956 . S
O1732 Li1673 1.970 . S
O1732 Li1674 1.961 . S
O1732 C1676 1.325 . S
O1733 Li1672 1.970 . S
O1733 Li1673 1.956 . S
O1733 Li1675 1.961 . S
O1733 C1682 1.325 . S
O1734 Li1672 1.961 . S
O1734 Li1674 1.956 . S
O1734 Li1675 1.970 . S
O1734 C1704 1.325 . S
O1735 Li1673 1.961 . S
O1735 Li1674 1.970 . S
O1735 Li1675 1.956 . S
O1735 C1710 1.325 . S
H1736 C1678 0.929 . S
H1737 C1679 0.930 . S
H1738 C1680 0.930 . S
H1739 C1681 0.930 . S
H1740 C1683 0.930 . S
H1741 C1685 0.929 . S
H1742 C1686 0.930 . S
H1743 C1687 0.930 . S
H1744 C1690 0.930 . S
H1745 C1693 0.929 . S
H1746 C1698 0.929 . S
H1747 C1699 0.930 . S
H1748 C1706 0.929 . S
H1749 C1707 0.930 . S
H1750 C1708 0.930 . S
H1751 C1709 0.930 . S
H1752 C1711 0.929 . S
H1753 C1712 0.930 . S
H1754 C1713 0.930 . S
H1755 C1714 0.930 . S
H1756 C1718 0.929 . S
H1757 C1720 0.930 . S
H1758 C1726 0.929 . S
H1759 C1727 0.930 . S
Li1760 N1777 1.990 . S
Li1760 O1820 1.956 . S
Li1760 O1821 1.970 . S
Li1760 O1822 1.961 . S
Li1761 N1785 1.990 . S
Li1761 O1820 1.970 . S
Li1761 O1821 1.956 . S
Li1761 O1823 1.961 . S
Li1762 N1807 1.990 . S
Li1762 O1820 1.961 . S
Li1762 O1822 1.956 . S
Li1762 O1823 1.970 . S
Li1763 N1813 1.990 . S
Li1763 O1821 1.961 . S
Li1763 O1822 1.970 . S
Li1763 O1823 1.956 . S
C1764 C1766 1.348 . S
C1764 C1767 1.356 . S
C1764 O1820 1.325 . S
N1765 C1768 1.314 . S
N1765 C1769 1.279 . S
C1766 C1764 1.348 . S
C1766 C1768 1.353 . S
C1766 H1824 0.929 . S
C1767 C1764 1.356 . S
C1767 C1769 1.358 . S
C1767 H1825 0.930 . S
C1768 N1765 1.314 . S
C1768 C1766 1.353 . S
C1768 H1826 0.930 . S
C1769 N1765 1.279 . S
C1769 C1767 1.358 . S
C1769 H1827 0.930 . S
C1770 C1773 1.348 . S
C1770 C1774 1.356 . S
C1770 O1821 1.325 . S
C1771 N1772 1.279 . S
C1771 C1774 1.358 . S
C1771 H1828 0.930 . S
N1772 C1771 1.279 . S
N1772 C1775 1.314 . S
C1773 C1770 1.348 . S
C1773 C1775 1.353 . S
C1773 H1829 0.929 . S
C1774 C1770 1.356 . S
C1774 C1771 1.358 . S
C1774 H1830 0.930 . S
C1775 N1772 1.314 . S
C1775 C1773 1.353 . S
C1775 H1831 0.930 . S
C1776 N1777 1.314 . S
C1776 C1781 1.353 . S
C1776 H1782 0.930 . S
N1777 Li1760 1.990 . S
N1777 C1776 1.314 . S
N1777 C1779 1.279 . S
C1778 C1779 1.358 . S
C1778 C1780 1.356 . S
C1778 H1832 0.930 . S
C1779 N1777 1.279 . S
C1779 C1778 1.358 . S
C1779 H1783 0.930 . S
C1780 C1778 1.356 . S
C1780 C1781 1.348 . S
C1781 C1776 1.353 . S
C1781 C1780 1.348 . S
C1781 H1833 0.929 . S
H1782 C1776 0.930 . S
H1783 C1779 0.930 . S
C1784 N1785 1.314 . S
C1784 C1786 1.353 . S
C1784 H1790 0.930 . S
N1785 Li1761 1.990 . S
N1785 C1784 1.314 . S
N1785 C1788 1.279 . S
C1786 C1784 1.353 . S
C1786 C1789 1.348 . S
C1786 H1834 0.929 . S
C1787 C1788 1.358 . S
C1787 C1789 1.356 . S
C1787 H1835 0.930 . S
C1788 N1785 1.279 . S
C1788 C1787 1.358 . S
C1788 H1791 0.930 . S
C1789 C1786 1.348 . S
C1789 C1787 1.356 . S
H1790 C1784 0.930 . S
H1791 C1788 0.930 . S
C1792 C1794 1.348 . S
C1792 C1795 1.356 . S
C1792 O1822 1.325 . S
N1793 C1796 1.314 . S
N1793 C1797 1.279 . S
C1794 C1792 1.348 . S
C1794 C1796 1.353 . S
C1794 H1836 0.929 . S
C1795 C1792 1.356 . S
C1795 C1797 1.358 . S
C1795 H1837 0.930 . S
C1796 N1793 1.314 . S
C1796 C1794 1.353 . S
C1796 H1838 0.930 . S
C1797 N1793 1.279 . S
C1797 C1795 1.358 . S
C1797 H1839 0.930 . S
C1798 C1799 1.348 . S
C1798 C1800 1.356 . S
C1798 O1823 1.325 . S
C1799 C1798 1.348 . S
C1799 C1801 1.353 . S
C1799 H1840 0.929 . S
C1800 C1798 1.356 . S
C1800 C1802 1.358 . S
C1800 H1841 0.930 . S
C1801 C1799 1.353 . S
C1801 N1803 1.314 . S
C1801 H1842 0.930 . S
C1802 C1800 1.358 . S
C1802 N1803 1.279 . S
C1802 H1843 0.930 . S
N1803 C1801 1.314 . S
N1803 C1802 1.279 . S
C1804 C1806 1.353 . S
C1804 N1807 1.314 . S
C1804 H1810 0.930 . S
C1805 N1807 1.279 . S
C1805 C1808 1.358 . S
C1805 H1811 0.930 . S
C1806 C1804 1.353 . S
C1806 C1809 1.348 . S
C1806 H1844 0.929 . S
N1807 Li1762 1.990 . S
N1807 C1804 1.314 . S
N1807 C1805 1.279 . S
C1808 C1805 1.358 . S
C1808 C1809 1.356 . S
C1808 H1845 0.930 . S
C1809 C1806 1.348 . S
C1809 C1808 1.356 . S
H1810 C1804 0.930 . S
H1811 C1805 0.930 . S
C1812 N1813 1.314 . S
C1812 C1814 1.353 . S
C1812 H1818 0.930 . S
N1813 Li1763 1.990 . S
N1813 C1812 1.314 . S
N1813 C1816 1.279 . S
C1814 C1812 1.353 . S
C1814 C1817 1.348 . S
C1814 H1846 0.929 . S
C1815 C1816 1.358 . S
C1815 C1817 1.356 . S
C1815 H1847 0.930 . S
C1816 N1813 1.279 . S
C1816 C1815 1.358 . S
C1816 H1819 0.930 . S
C1817 C1814 1.348 . S
C1817 C1815 1.356 . S
H1818 C1812 0.930 . S
H1819 C1816 0.930 . S
O1820 Li1760 1.956 . S
O1820 Li1761 1.970 . S
O1820 Li1762 1.961 . S
O1820 C1764 1.325 . S
O1821 Li1760 1.970 . S
O1821 Li1761 1.956 . S
O1821 Li1763 1.961 . S
O1821 C1770 1.325 . S
O1822 Li1760 1.961 . S
O1822 Li1762 1.956 . S
O1822 Li1763 1.970 . S
O1822 C1792 1.325 . S
O1823 Li1761 1.961 . S
O1823 Li1762 1.970 . S
O1823 Li1763 1.956 . S
O1823 C1798 1.325 . S
H1824 C1766 0.929 . S
H1825 C1767 0.930 . S
H1826 C1768 0.930 . S
H1827 C1769 0.930 . S
H1828 C1771 0.930 . S
H1829 C1773 0.929 . S
H1830 C1774 0.930 . S
H1831 C1775 0.930 . S
H1832 C1778 0.930 . S
H1833 C1781 0.929 . S
H1834 C1786 0.929 . S
H1835 C1787 0.930 . S
H1836 C1794 0.929 . S
H1837 C1795 0.930 . S
H1838 C1796 0.930 . S
H1839 C1797 0.930 . S
H1840 C1799 0.929 . S
H1841 C1800 0.930 . S
H1842 C1801 0.930 . S
H1843 C1802 0.930 . S
H1844 C1806 0.929 . S
H1845 C1808 0.930 . S
H1846 C1814 0.929 . S
H1847 C1815 0.930 . S
Li1848 N1865 1.990 . S
Li1848 O1908 1.956 . S
Li1848 O1909 1.970 . S
Li1848 O1910 1.961 . S
Li1849 N1873 1.990 . S
Li1849 O1908 1.970 . S
Li1849 O1909 1.956 . S
Li1849 O1911 1.961 . S
Li1850 N1895 1.990 . S
Li1850 O1908 1.961 . S
Li1850 O1910 1.956 . S
Li1850 O1911 1.970 . S
Li1851 N1901 1.990 . S
Li1851 O1909 1.961 . S
Li1851 O1910 1.970 . S
Li1851 O1911 1.956 . S
C1852 C1854 1.348 . S
C1852 C1855 1.356 . S
C1852 O1908 1.325 . S
N1853 C1856 1.314 . S
N1853 C1857 1.279 . S
C1854 C1852 1.348 . S
C1854 C1856 1.353 . S
C1854 H1912 0.929 . S
C1855 C1852 1.356 . S
C1855 C1857 1.358 . S
C1855 H1913 0.930 . S
C1856 N1853 1.314 . S
C1856 C1854 1.353 . S
C1856 H1914 0.930 . S
C1857 N1853 1.279 . S
C1857 C1855 1.358 . S
C1857 H1915 0.930 . S
C1858 C1861 1.348 . S
C1858 C1862 1.356 . S
C1858 O1909 1.325 . S
C1859 N1860 1.279 . S
C1859 C1862 1.358 . S
C1859 H1916 0.930 . S
N1860 C1859 1.279 . S
N1860 C1863 1.314 . S
C1861 C1858 1.348 . S
C1861 C1863 1.353 . S
C1861 H1917 0.929 . S
C1862 C1858 1.356 . S
C1862 C1859 1.358 . S
C1862 H1918 0.930 . S
C1863 N1860 1.314 . S
C1863 C1861 1.353 . S
C1863 H1919 0.930 . S
C1864 N1865 1.314 . S
C1864 C1869 1.353 . S
C1864 H1870 0.930 . S
N1865 Li1848 1.990 . S
N1865 C1864 1.314 . S
N1865 C1867 1.279 . S
C1866 C1867 1.358 . S
C1866 C1868 1.356 . S
C1866 H1920 0.930 . S
C1867 N1865 1.279 . S
C1867 C1866 1.358 . S
C1867 H1871 0.930 . S
C1868 C1866 1.356 . S
C1868 C1869 1.348 . S
C1869 C1864 1.353 . S
C1869 C1868 1.348 . S
C1869 H1921 0.929 . S
H1870 C1864 0.930 . S
H1871 C1867 0.930 . S
C1872 N1873 1.314 . S
C1872 C1874 1.353 . S
C1872 H1878 0.930 . S
N1873 Li1849 1.990 . S
N1873 C1872 1.314 . S
N1873 C1876 1.279 . S
C1874 C1872 1.353 . S
C1874 C1877 1.348 . S
C1874 H1922 0.929 . S
C1875 C1876 1.358 . S
C1875 C1877 1.356 . S
C1875 H1923 0.930 . S
C1876 N1873 1.279 . S
C1876 C1875 1.358 . S
C1876 H1879 0.930 . S
C1877 C1874 1.348 . S
C1877 C1875 1.356 . S
H1878 C1872 0.930 . S
H1879 C1876 0.930 . S
C1880 C1882 1.348 . S
C1880 C1883 1.356 . S
C1880 O1910 1.325 . S
N1881 C1884 1.314 . S
N1881 C1885 1.279 . S
C1882 C1880 1.348 . S
C1882 C1884 1.353 . S
C1882 H1924 0.929 . S
C1883 C1880 1.356 . S
C1883 C1885 1.358 . S
C1883 H1925 0.930 . S
C1884 N1881 1.314 . S
C1884 C1882 1.353 . S
C1884 H1926 0.930 . S
C1885 N1881 1.279 . S
C1885 C1883 1.358 . S
C1885 H1927 0.930 . S
C1886 C1887 1.348 . S
C1886 C1888 1.356 . S
C1886 O1911 1.325 . S
C1887 C1886 1.348 . S
C1887 C1889 1.353 . S
C1887 H1928 0.929 . S
C1888 C1886 1.356 . S
C1888 C1890 1.358 . S
C1888 H1929 0.930 . S
C1889 C1887 1.353 . S
C1889 N1891 1.314 . S
C1889 H1930 0.930 . S
C1890 C1888 1.358 . S
C1890 N1891 1.279 . S
C1890 H1931 0.930 . S
N1891 C1889 1.314 . S
N1891 C1890 1.279 . S
C1892 C1894 1.353 . S
C1892 N1895 1.314 . S
C1892 H1898 0.930 . S
C1893 N1895 1.279 . S
C1893 C1896 1.358 . S
C1893 H1899 0.930 . S
C1894 C1892 1.353 . S
C1894 C1897 1.348 . S
C1894 H1932 0.929 . S
N1895 Li1850 1.990 . S
N1895 C1892 1.314 . S
N1895 C1893 1.279 . S
C1896 C1893 1.358 . S
C1896 C1897 1.356 . S
C1896 H1933 0.930 . S
C1897 C1894 1.348 . S
C1897 C1896 1.356 . S
H1898 C1892 0.930 . S
H1899 C1893 0.930 . S
C1900 N1901 1.314 . S
C1900 C1902 1.353 . S
C1900 H1906 0.930 . S
N1901 Li1851 1.990 . S
N1901 C1900 1.314 . S
N1901 C1904 1.279 . S
C1902 C1900 1.353 . S
C1902 C1905 1.348 . S
C1902 H1934 0.929 . S
C1903 C1904 1.358 . S
C1903 C1905 1.356 . S
C1903 H1935 0.930 . S
C1904 N1901 1.279 . S
C1904 C1903 1.358 . S
C1904 H1907 0.930 . S
C1905 C1902 1.348 . S
C1905 C1903 1.356 . S
H1906 C1900 0.930 . S
H1907 C1904 0.930 . S
O1908 Li1848 1.956 . S
O1908 Li1849 1.970 . S
O1908 Li1850 1.961 . S
O1908 C1852 1.325 . S
O1909 Li1848 1.970 . S
O1909 Li1849 1.956 . S
O1909 Li1851 1.961 . S
O1909 C1858 1.325 . S
O1910 Li1848 1.961 . S
O1910 Li1850 1.956 . S
O1910 Li1851 1.970 . S
O1910 C1880 1.325 . S
O1911 Li1849 1.961 . S
O1911 Li1850 1.970 . S
O1911 Li1851 1.956 . S
O1911 C1886 1.325 . S
H1912 C1854 0.929 . S
H1913 C1855 0.930 . S
H1914 C1856 0.930 . S
H1915 C1857 0.930 . S
H1916 C1859 0.930 . S
H1917 C1861 0.929 . S
H1918 C1862 0.930 . S
H1919 C1863 0.930 . S
H1920 C1866 0.930 . S
H1921 C1869 0.929 . S
H1922 C1874 0.929 . S
H1923 C1875 0.930 . S
H1924 C1882 0.929 . S
H1925 C1883 0.930 . S
H1926 C1884 0.930 . S
H1927 C1885 0.930 . S
H1928 C1887 0.929 . S
H1929 C1888 0.930 . S
H1930 C1889 0.930 . S
H1931 C1890 0.930 . S
H1932 C1894 0.929 . S
H1933 C1896 0.930 . S
H1934 C1902 0.929 . S
H1935 C1903 0.930 . S
Li1936 N1953 1.990 . S
Li1936 O1996 1.956 . S
Li1936 O1997 1.970 . S
Li1936 O1998 1.961 . S
Li1937 N1961 1.990 . S
Li1937 O1996 1.970 . S
Li1937 O1997 1.956 . S
Li1937 O1999 1.961 . S
Li1938 N1983 1.990 . S
Li1938 O1996 1.961 . S
Li1938 O1998 1.956 . S
Li1938 O1999 1.970 . S
Li1939 N1989 1.990 . S
Li1939 O1997 1.961 . S
Li1939 O1998 1.970 . S
Li1939 O1999 1.956 . S
C1940 C1942 1.348 . S
C1940 C1943 1.356 . S
C1940 O1996 1.325 . S
N1941 C1944 1.314 . S
N1941 C1945 1.279 . S
C1942 C1940 1.348 . S
C1942 C1944 1.353 . S
C1942 H2000 0.929 . S
C1943 C1940 1.356 . S
C1943 C1945 1.358 . S
C1943 H2001 0.930 . S
C1944 N1941 1.314 . S
C1944 C1942 1.353 . S
C1944 H2002 0.930 . S
C1945 N1941 1.279 . S
C1945 C1943 1.358 . S
C1945 H2003 0.930 . S
C1946 C1949 1.348 . S
C1946 C1950 1.356 . S
C1946 O1997 1.325 . S
C1947 N1948 1.279 . S
C1947 C1950 1.358 . S
C1947 H2004 0.930 . S
N1948 C1947 1.279 . S
N1948 C1951 1.314 . S
C1949 C1946 1.348 . S
C1949 C1951 1.353 . S
C1949 H2005 0.929 . S
C1950 C1946 1.356 . S
C1950 C1947 1.358 . S
C1950 H2006 0.930 . S
C1951 N1948 1.314 . S
C1951 C1949 1.353 . S
C1951 H2007 0.930 . S
C1952 N1953 1.314 . S
C1952 C1957 1.353 . S
C1952 H1958 0.930 . S
N1953 Li1936 1.990 . S
N1953 C1952 1.314 . S
N1953 C1955 1.279 . S
C1954 C1955 1.358 . S
C1954 C1956 1.356 . S
C1954 H2008 0.930 . S
C1955 N1953 1.279 . S
C1955 C1954 1.358 . S
C1955 H1959 0.930 . S
C1956 C1954 1.356 . S
C1956 C1957 1.348 . S
C1957 C1952 1.353 . S
C1957 C1956 1.348 . S
C1957 H2009 0.929 . S
H1958 C1952 0.930 . S
H1959 C1955 0.930 . S
C1960 N1961 1.314 . S
C1960 C1962 1.353 . S
C1960 H1966 0.930 . S
N1961 Li1937 1.990 . S
N1961 C1960 1.314 . S
N1961 C1964 1.279 . S
C1962 C1960 1.353 . S
C1962 C1965 1.348 . S
C1962 H2010 0.929 . S
C1963 C1964 1.358 . S
C1963 C1965 1.356 . S
C1963 H2011 0.930 . S
C1964 N1961 1.279 . S
C1964 C1963 1.358 . S
C1964 H1967 0.930 . S
C1965 C1962 1.348 . S
C1965 C1963 1.356 . S
H1966 C1960 0.930 . S
H1967 C1964 0.930 . S
C1968 C1970 1.348 . S
C1968 C1971 1.356 . S
C1968 O1998 1.325 . S
N1969 C1972 1.314 . S
N1969 C1973 1.279 . S
C1970 C1968 1.348 . S
C1970 C1972 1.353 . S
C1970 H2012 0.929 . S
C1971 C1968 1.356 . S
C1971 C1973 1.358 . S
C1971 H2013 0.930 . S
C1972 N1969 1.314 . S
C1972 C1970 1.353 . S
C1972 H2014 0.930 . S
C1973 N1969 1.279 . S
C1973 C1971 1.358 . S
C1973 H2015 0.930 . S
C1974 C1975 1.348 . S
C1974 C1976 1.356 . S
C1974 O1999 1.325 . S
C1975 C1974 1.348 . S
C1975 C1977 1.353 . S
C1975 H2016 0.929 . S
C1976 C1974 1.356 . S
C1976 C1978 1.358 . S
C1976 H2017 0.930 . S
C1977 C1975 1.353 . S
C1977 N1979 1.314 . S
C1977 H2018 0.930 . S
C1978 C1976 1.358 . S
C1978 N1979 1.279 . S
C1978 H2019 0.930 . S
N1979 C1977 1.314 . S
N1979 C1978 1.279 . S
C1980 C1982 1.353 . S
C1980 N1983 1.314 . S
C1980 H1986 0.930 . S
C1981 N1983 1.279 . S
C1981 C1984 1.358 . S
C1981 H1987 0.930 . S
C1982 C1980 1.353 . S
C1982 C1985 1.348 . S
C1982 H2020 0.929 . S
N1983 Li1938 1.990 . S
N1983 C1980 1.314 . S
N1983 C1981 1.279 . S
C1984 C1981 1.358 . S
C1984 C1985 1.356 . S
C1984 H2021 0.930 . S
C1985 C1982 1.348 . S
C1985 C1984 1.356 . S
H1986 C1980 0.930 . S
H1987 C1981 0.930 . S
C1988 N1989 1.314 . S
C1988 C1990 1.353 . S
C1988 H1994 0.930 . S
N1989 Li1939 1.990 . S
N1989 C1988 1.314 . S
N1989 C1992 1.279 . S
C1990 C1988 1.353 . S
C1990 C1993 1.348 . S
C1990 H2022 0.929 . S
C1991 C1992 1.358 . S
C1991 C1993 1.356 . S
C1991 H2023 0.930 . S
C1992 N1989 1.279 . S
C1992 C1991 1.358 . S
C1992 H1995 0.930 . S
C1993 C1990 1.348 . S
C1993 C1991 1.356 . S
H1994 C1988 0.930 . S
H1995 C1992 0.930 . S
O1996 Li1936 1.956 . S
O1996 Li1937 1.970 . S
O1996 Li1938 1.961 . S
O1996 C1940 1.325 . S
O1997 Li1936 1.970 . S
O1997 Li1937 1.956 . S
O1997 Li1939 1.961 . S
O1997 C1946 1.325 . S
O1998 Li1936 1.961 . S
O1998 Li1938 1.956 . S
O1998 Li1939 1.970 . S
O1998 C1968 1.325 . S
O1999 Li1937 1.961 . S
O1999 Li1938 1.970 . S
O1999 Li1939 1.956 . S
O1999 C1974 1.325 . S
H2000 C1942 0.929 . S
H2001 C1943 0.930 . S
H2002 C1944 0.930 . S
H2003 C1945 0.930 . S
H2004 C1947 0.930 . S
H2005 C1949 0.929 . S
H2006 C1950 0.930 . S
H2007 C1951 0.930 . S
H2008 C1954 0.930 . S
H2009 C1957 0.929 . S
H2010 C1962 0.929 . S
H2011 C1963 0.930 . S
H2012 C1970 0.929 . S
H2013 C1971 0.930 . S
H2014 C1972 0.930 . S
H2015 C1973 0.930 . S
H2016 C1975 0.929 . S
H2017 C1976 0.930 . S
H2018 C1977 0.930 . S
H2019 C1978 0.930 . S
H2020 C1982 0.929 . S
H2021 C1984 0.930 . S
H2022 C1990 0.929 . S
H2023 C1991 0.930 . S
Li2024 N2041 1.990 . S
Li2024 O2084 1.956 . S
Li2024 O2085 1.970 . S
Li2024 O2086 1.961 . S
Li2025 N2049 1.990 . S
Li2025 O2084 1.970 . S
Li2025 O2085 1.956 . S
Li2025 O2087 1.961 . S
Li2026 N2071 1.990 . S
Li2026 O2084 1.961 . S
Li2026 O2086 1.956 . S
Li2026 O2087 1.970 . S
Li2027 N2077 1.990 . S
Li2027 O2085 1.961 . S
Li2027 O2086 1.970 . S
Li2027 O2087 1.956 . S
C2028 C2030 1.348 . S
C2028 C2031 1.356 . S
C2028 O2084 1.325 . S
N2029 C2032 1.314 . S
N2029 C2033 1.279 . S
C2030 C2028 1.348 . S
C2030 C2032 1.353 . S
C2030 H2088 0.929 . S
C2031 C2028 1.356 . S
C2031 C2033 1.358 . S
C2031 H2089 0.930 . S
C2032 N2029 1.314 . S
C2032 C2030 1.353 . S
C2032 H2090 0.930 . S
C2033 N2029 1.279 . S
C2033 C2031 1.358 . S
C2033 H2091 0.930 . S
C2034 C2037 1.348 . S
C2034 C2038 1.356 . S
C2034 O2085 1.325 . S
C2035 N2036 1.279 . S
C2035 C2038 1.358 . S
C2035 H2092 0.930 . S
N2036 C2035 1.279 . S
N2036 C2039 1.314 . S
C2037 C2034 1.348 . S
C2037 C2039 1.353 . S
C2037 H2093 0.929 . S
C2038 C2034 1.356 . S
C2038 C2035 1.358 . S
C2038 H2094 0.930 . S
C2039 N2036 1.314 . S
C2039 C2037 1.353 . S
C2039 H2095 0.930 . S
C2040 N2041 1.314 . S
C2040 C2045 1.353 . S
C2040 H2046 0.930 . S
N2041 Li2024 1.990 . S
N2041 C2040 1.314 . S
N2041 C2043 1.279 . S
C2042 C2043 1.358 . S
C2042 C2044 1.356 . S
C2042 H2096 0.930 . S
C2043 N2041 1.279 . S
C2043 C2042 1.358 . S
C2043 H2047 0.930 . S
C2044 C2042 1.356 . S
C2044 C2045 1.348 . S
C2045 C2040 1.353 . S
C2045 C2044 1.348 . S
C2045 H2097 0.929 . S
H2046 C2040 0.930 . S
H2047 C2043 0.930 . S
C2048 N2049 1.314 . S
C2048 C2050 1.353 . S
C2048 H2054 0.930 . S
N2049 Li2025 1.990 . S
N2049 C2048 1.314 . S
N2049 C2052 1.279 . S
C2050 C2048 1.353 . S
C2050 C2053 1.348 . S
C2050 H2098 0.929 . S
C2051 C2052 1.358 . S
C2051 C2053 1.356 . S
C2051 H2099 0.930 . S
C2052 N2049 1.279 . S
C2052 C2051 1.358 . S
C2052 H2055 0.930 . S
C2053 C2050 1.348 . S
C2053 C2051 1.356 . S
H2054 C2048 0.930 . S
H2055 C2052 0.930 . S
C2056 C2058 1.348 . S
C2056 C2059 1.356 . S
C2056 O2086 1.325 . S
N2057 C2060 1.314 . S
N2057 C2061 1.279 . S
C2058 C2056 1.348 . S
C2058 C2060 1.353 . S
C2058 H2100 0.929 . S
C2059 C2056 1.356 . S
C2059 C2061 1.358 . S
C2059 H2101 0.930 . S
C2060 N2057 1.314 . S
C2060 C2058 1.353 . S
C2060 H2102 0.930 . S
C2061 N2057 1.279 . S
C2061 C2059 1.358 . S
C2061 H2103 0.930 . S
C2062 C2063 1.348 . S
C2062 C2064 1.356 . S
C2062 O2087 1.325 . S
C2063 C2062 1.348 . S
C2063 C2065 1.353 . S
C2063 H2104 0.929 . S
C2064 C2062 1.356 . S
C2064 C2066 1.358 . S
C2064 H2105 0.930 . S
C2065 C2063 1.353 . S
C2065 N2067 1.314 . S
C2065 H2106 0.930 . S
C2066 C2064 1.358 . S
C2066 N2067 1.279 . S
C2066 H2107 0.930 . S
N2067 C2065 1.314 . S
N2067 C2066 1.279 . S
C2068 C2070 1.353 . S
C2068 N2071 1.314 . S
C2068 H2074 0.930 . S
C2069 N2071 1.279 . S
C2069 C2072 1.358 . S
C2069 H2075 0.930 . S
C2070 C2068 1.353 . S
C2070 C2073 1.348 . S
C2070 H2108 0.929 . S
N2071 Li2026 1.990 . S
N2071 C2068 1.314 . S
N2071 C2069 1.279 . S
C2072 C2069 1.358 . S
C2072 C2073 1.356 . S
C2072 H2109 0.930 . S
C2073 C2070 1.348 . S
C2073 C2072 1.356 . S
H2074 C2068 0.930 . S
H2075 C2069 0.930 . S
C2076 N2077 1.314 . S
C2076 C2078 1.353 . S
C2076 H2082 0.930 . S
N2077 Li2027 1.990 . S
N2077 C2076 1.314 . S
N2077 C2080 1.279 . S
C2078 C2076 1.353 . S
C2078 C2081 1.348 . S
C2078 H2110 0.929 . S
C2079 C2080 1.358 . S
C2079 C2081 1.356 . S
C2079 H2111 0.930 . S
C2080 N2077 1.279 . S
C2080 C2079 1.358 . S
C2080 H2083 0.930 . S
C2081 C2078 1.348 . S
C2081 C2079 1.356 . S
H2082 C2076 0.930 . S
H2083 C2080 0.930 . S
O2084 Li2024 1.956 . S
O2084 Li2025 1.970 . S
O2084 Li2026 1.961 . S
O2084 C2028 1.325 . S
O2085 Li2024 1.970 . S
O2085 Li2025 1.956 . S
O2085 Li2027 1.961 . S
O2085 C2034 1.325 . S
O2086 Li2024 1.961 . S
O2086 Li2026 1.956 . S
O2086 Li2027 1.970 . S
O2086 C2056 1.325 . S
O2087 Li2025 1.961 . S
O2087 Li2026 1.970 . S
O2087 Li2027 1.956 . S
O2087 C2062 1.325 . S
H2088 C2030 0.929 . S
H2089 C2031 0.930 . S
H2090 C2032 0.930 . S
H2091 C2033 0.930 . S
H2092 C2035 0.930 . S
H2093 C2037 0.929 . S
H2094 C2038 0.930 . S
H2095 C2039 0.930 . S
H2096 C2042 0.930 . S
H2097 C2045 0.929 . S
H2098 C2050 0.929 . S
H2099 C2051 0.930 . S
H2100 C2058 0.929 . S
H2101 C2059 0.930 . S
H2102 C2060 0.930 . S
H2103 C2061 0.930 . S
H2104 C2063 0.929 . S
H2105 C2064 0.930 . S
H2106 C2065 0.930 . S
H2107 C2066 0.930 . S
H2108 C2070 0.929 . S
H2109 C2072 0.930 . S
H2110 C2078 0.929 . S
H2111 C2079 0.930 . S
C2112 C2113 1.349 . S
C2112 C2114 1.327 . S
C2112 H2137 0.950 . S
C2113 C2112 1.349 . S
C2113 C2129 1.349 . S
C2114 C2112 1.327 . S
C2114 C2133 1.429 . S
C2114 H2138 0.950 . S
C2115 C2132 1.574 . S
C2115 C2134 1.368 . S
C2115 H2139 0.949 . S
H2116 C2120 0.949 . S
C2117 C2118 1.349 . S
C2117 C2119 1.327 . S
C2117 H2140 0.950 . S
C2118 C2117 1.349 . S
C2118 C2130 1.349 . S
C2119 C2117 1.327 . S
C2119 C2135 1.429 . S
C2119 H2141 0.950 . S
C2120 H2116 0.949 . S
C2120 C2128 1.574 . S
C2120 C2136 1.368 . S
H2121 C2129 0.950 . S
H2122 C2127 0.950 . S
H2123 C2128 0.949 . S
H2124 C2130 0.950 . S
H2125 C2131 0.950 . S
H2126 C2132 0.949 . S
C2127 H2122 0.950 . S
C2127 C2129 1.327 . S
C2127 C2133 1.429 . S
C2128 C2120 1.574 . S
C2128 H2123 0.949 . S
C2128 C2134 1.368 . S
C2129 C2113 1.349 . S
C2129 H2121 0.950 . S
C2129 C2127 1.327 . S
C2130 C2118 1.349 . S
C2130 H2124 0.950 . S
C2130 C2131 1.327 . S
C2131 H2125 0.950 . S
C2131 C2130 1.327 . S
C2131 C2135 1.429 . S
C2132 C2115 1.574 . S
C2132 H2126 0.949 . S
C2132 C2136 1.368 . S
C2133 C2114 1.429 . S
C2133 C2127 1.429 . S
C2133 C2134 1.523 . S
C2134 C2115 1.368 . S
C2134 C2128 1.368 . S
C2134 C2133 1.523 . S
C2135 C2119 1.429 . S
C2135 C2131 1.429 . S
C2135 C2136 1.523 . S
C2136 C2120 1.368 . S
C2136 C2132 1.368 . S
C2136 C2135 1.523 . S
H2137 C2112 0.950 . S
H2138 C2114 0.950 . S
H2139 C2115 0.949 . S
H2140 C2117 0.950 . S
H2141 C2119 0.950 . S
C2142 C2143 1.349 . S
C2142 C2144 1.327 . S
C2142 H2167 0.950 . S
C2143 C2142 1.349 . S
C2143 C2159 1.349 . S
C2144 C2142 1.327 . S
C2144 C2163 1.429 . S
C2144 H2168 0.950 . S
C2145 C2162 1.574 . S
C2145 C2164 1.368 . S
C2145 H2169 0.949 . S
H2146 C2150 0.949 . S
C2147 C2148 1.349 . S
C2147 C2149 1.327 . S
C2147 H2170 0.950 . S
C2148 C2147 1.349 . S
C2148 C2160 1.349 . S
C2149 C2147 1.327 . S
C2149 C2165 1.429 . S
C2149 H2171 0.950 . S
C2150 H2146 0.949 . S
C2150 C2158 1.574 . S
C2150 C2166 1.368 . S
H2151 C2159 0.950 . S
H2152 C2157 0.950 . S
H2153 C2158 0.949 . S
H2154 C2160 0.950 . S
H2155 C2161 0.950 . S
H2156 C2162 0.949 . S
C2157 H2152 0.950 . S
C2157 C2159 1.327 . S
C2157 C2163 1.429 . S
C2158 C2150 1.574 . S
C2158 H2153 0.949 . S
C2158 C2164 1.368 . S
C2159 C2143 1.349 . S
C2159 H2151 0.950 . S
C2159 C2157 1.327 . S
C2160 C2148 1.349 . S
C2160 H2154 0.950 . S
C2160 C2161 1.327 . S
C2161 H2155 0.950 . S
C2161 C2160 1.327 . S
C2161 C2165 1.429 . S
C2162 C2145 1.574 . S
C2162 H2156 0.949 . S
C2162 C2166 1.368 . S
C2163 C2144 1.429 . S
C2163 C2157 1.429 . S
C2163 C2164 1.523 . S
C2164 C2145 1.368 . S
C2164 C2158 1.368 . S
C2164 C2163 1.523 . S
C2165 C2149 1.429 . S
C2165 C2161 1.429 . S
C2165 C2166 1.523 . S
C2166 C2150 1.368 . S
C2166 C2162 1.368 . S
C2166 C2165 1.523 . S
H2167 C2142 0.950 . S
H2168 C2144 0.950 . S
H2169 C2145 0.949 . S
H2170 C2147 0.950 . S
H2171 C2149 0.950 . S
C2172 C2173 1.349 . S
C2172 C2174 1.327 . S
C2172 H2197 0.950 . S
C2173 C2172 1.349 . S
C2173 C2189 1.349 . S
C2174 C2172 1.327 . S
C2174 C2193 1.429 . S
C2174 H2198 0.950 . S
C2175 C2192 1.574 . S
C2175 C2194 1.368 . S
C2175 H2199 0.949 . S
H2176 C2180 0.949 . S
C2177 C2178 1.349 . S
C2177 C2179 1.327 . S
C2177 H2200 0.950 . S
C2178 C2177 1.349 . S
C2178 C2190 1.349 . S
C2179 C2177 1.327 . S
C2179 C2195 1.429 . S
C2179 H2201 0.950 . S
C2180 H2176 0.949 . S
C2180 C2188 1.574 . S
C2180 C2196 1.368 . S
H2181 C2189 0.950 . S
H2182 C2187 0.950 . S
H2183 C2188 0.949 . S
H2184 C2190 0.950 . S
H2185 C2191 0.950 . S
H2186 C2192 0.949 . S
C2187 H2182 0.950 . S
C2187 C2189 1.327 . S
C2187 C2193 1.429 . S
C2188 C2180 1.574 . S
C2188 H2183 0.949 . S
C2188 C2194 1.368 . S
C2189 C2173 1.349 . S
C2189 H2181 0.950 . S
C2189 C2187 1.327 . S
C2190 C2178 1.349 . S
C2190 H2184 0.950 . S
C2190 C2191 1.327 . S
C2191 H2185 0.950 . S
C2191 C2190 1.327 . S
C2191 C2195 1.429 . S
C2192 C2175 1.574 . S
C2192 H2186 0.949 . S
C2192 C2196 1.368 . S
C2193 C2174 1.429 . S
C2193 C2187 1.429 . S
C2193 C2194 1.523 . S
C2194 C2175 1.368 . S
C2194 C2188 1.368 . S
C2194 C2193 1.523 . S
C2195 C2179 1.429 . S
C2195 C2191 1.429 . S
C2195 C2196 1.523 . S
C2196 C2180 1.368 . S
C2196 C2192 1.368 . S
C2196 C2195 1.523 . S
H2197 C2172 0.950 . S
H2198 C2174 0.950 . S
H2199 C2175 0.949 . S
H2200 C2177 0.950 . S
H2201 C2179 0.950 . S
C2202 C2203 1.349 . S
C2202 C2204 1.327 . S
C2202 H2227 0.950 . S
C2203 C2202 1.349 . S
C2203 C2219 1.349 . S
C2204 C2202 1.327 . S
C2204 C2223 1.429 . S
C2204 H2228 0.950 . S
C2205 C2222 1.574 . S
C2205 C2224 1.368 . S
C2205 H2229 0.949 . S
H2206 C2210 0.949 . S
C2207 C2208 1.349 . S
C2207 C2209 1.327 . S
C2207 H2230 0.950 . S
C2208 C2207 1.349 . S
C2208 C2220 1.349 . S
C2209 C2207 1.327 . S
C2209 C2225 1.429 . S
C2209 H2231 0.950 . S
C2210 H2206 0.949 . S
C2210 C2218 1.574 . S
C2210 C2226 1.368 . S
H2211 C2219 0.950 . S
H2212 C2217 0.950 . S
H2213 C2218 0.949 . S
H2214 C2220 0.950 . S
H2215 C2221 0.950 . S
H2216 C2222 0.949 . S
C2217 H2212 0.950 . S
C2217 C2219 1.327 . S
C2217 C2223 1.429 . S
C2218 C2210 1.574 . S
C2218 H2213 0.949 . S
C2218 C2224 1.368 . S
C2219 C2203 1.349 . S
C2219 H2211 0.950 . S
C2219 C2217 1.327 . S
C2220 C2208 1.349 . S
C2220 H2214 0.950 . S
C2220 C2221 1.327 . S
C2221 H2215 0.950 . S
C2221 C2220 1.327 . S
C2221 C2225 1.429 . S
C2222 C2205 1.574 . S
C2222 H2216 0.949 . S
C2222 C2226 1.368 . S
C2223 C2204 1.429 . S
C2223 C2217 1.429 . S
C2223 C2224 1.523 . S
C2224 C2205 1.368 . S
C2224 C2218 1.368 . S
C2224 C2223 1.523 . S
C2225 C2209 1.429 . S
C2225 C2221 1.429 . S
C2225 C2226 1.523 . S
C2226 C2210 1.368 . S
C2226 C2222 1.368 . S
C2226 C2225 1.523 . S
H2227 C2202 0.950 . S
H2228 C2204 0.950 . S
H2229 C2205 0.949 . S
H2230 C2207 0.950 . S
H2231 C2209 0.950 . S
C2232 C2233 1.349 . S
C2232 C2234 1.327 . S
C2232 H2257 0.950 . S
C2233 C2232 1.349 . S
C2233 C2249 1.349 . S
C2234 C2232 1.327 . S
C2234 C2253 1.429 . S
C2234 H2258 0.950 . S
C2235 C2252 1.574 . S
C2235 C2254 1.368 . S
C2235 H2259 0.949 . S
H2236 C2240 0.949 . S
C2237 C2238 1.349 . S
C2237 C2239 1.327 . S
C2237 H2260 0.950 . S
C2238 C2237 1.349 . S
C2238 C2250 1.349 . S
C2239 C2237 1.327 . S
C2239 C2255 1.429 . S
C2239 H2261 0.950 . S
C2240 H2236 0.949 . S
C2240 C2248 1.574 . S
C2240 C2256 1.368 . S
H2241 C2249 0.950 . S
H2242 C2247 0.950 . S
H2243 C2248 0.949 . S
H2244 C2250 0.950 . S
H2245 C2251 0.950 . S
H2246 C2252 0.949 . S
C2247 H2242 0.950 . S
C2247 C2249 1.327 . S
C2247 C2253 1.429 . S
C2248 C2240 1.574 . S
C2248 H2243 0.949 . S
C2248 C2254 1.368 . S
C2249 C2233 1.349 . S
C2249 H2241 0.950 . S
C2249 C2247 1.327 . S
C2250 C2238 1.349 . S
C2250 H2244 0.950 . S
C2250 C2251 1.327 . S
C2251 H2245 0.950 . S
C2251 C2250 1.327 . S
C2251 C2255 1.429 . S
C2252 C2235 1.574 . S
C2252 H2246 0.949 . S
C2252 C2256 1.368 . S
C2253 C2234 1.429 . S
C2253 C2247 1.429 . S
C2253 C2254 1.523 . S
C2254 C2235 1.368 . S
C2254 C2248 1.368 . S
C2254 C2253 1.523 . S
C2255 C2239 1.429 . S
C2255 C2251 1.429 . S
C2255 C2256 1.523 . S
C2256 C2240 1.368 . S
C2256 C2252 1.368 . S
C2256 C2255 1.523 . S
H2257 C2232 0.950 . S
H2258 C2234 0.950 . S
H2259 C2235 0.949 . S
H2260 C2237 0.950 . S
H2261 C2239 0.950 . S
C2262 C2263 1.349 . S
C2262 C2264 1.327 . S
C2262 H2287 0.950 . S
C2263 C2262 1.349 . S
C2263 C2279 1.349 . S
C2264 C2262 1.327 . S
C2264 C2283 1.429 . S
C2264 H2288 0.950 . S
C2265 C2282 1.574 . S
C2265 C2284 1.368 . S
C2265 H2289 0.949 . S
H2266 C2270 0.949 . S
C2267 C2268 1.349 . S
C2267 C2269 1.327 . S
C2267 H2290 0.950 . S
C2268 C2267 1.349 . S
C2268 C2280 1.349 . S
C2269 C2267 1.327 . S
C2269 C2285 1.429 . S
C2269 H2291 0.950 . S
C2270 H2266 0.949 . S
C2270 C2278 1.574 . S
C2270 C2286 1.368 . S
H2271 C2279 0.950 . S
H2272 C2277 0.950 . S
H2273 C2278 0.949 . S
H2274 C2280 0.950 . S
H2275 C2281 0.950 . S
H2276 C2282 0.949 . S
C2277 H2272 0.950 . S
C2277 C2279 1.327 . S
C2277 C2283 1.429 . S
C2278 C2270 1.574 . S
C2278 H2273 0.949 . S
C2278 C2284 1.368 . S
C2279 C2263 1.349 . S
C2279 H2271 0.950 . S
C2279 C2277 1.327 . S
C2280 C2268 1.349 . S
C2280 H2274 0.950 . S
C2280 C2281 1.327 . S
C2281 H2275 0.950 . S
C2281 C2280 1.327 . S
C2281 C2285 1.429 . S
C2282 C2265 1.574 . S
C2282 H2276 0.949 . S
C2282 C2286 1.368 . S
C2283 C2264 1.429 . S
C2283 C2277 1.429 . S
C2283 C2284 1.523 . S
C2284 C2265 1.368 . S
C2284 C2278 1.368 . S
C2284 C2283 1.523 . S
C2285 C2269 1.429 . S
C2285 C2281 1.429 . S
C2285 C2286 1.523 . S
C2286 C2270 1.368 . S
C2286 C2282 1.368 . S
C2286 C2285 1.523 . S
H2287 C2262 0.950 . S
H2288 C2264 0.950 . S
H2289 C2265 0.949 . S
H2290 C2267 0.950 . S
H2291 C2269 0.950 . S
C2292 C2293 1.349 . S
C2292 C2294 1.327 . S
C2292 H2317 0.950 . S
C2293 C2292 1.349 . S
C2293 C2309 1.349 . S
C2294 C2292 1.327 . S
C2294 C2313 1.429 . S
C2294 H2318 0.950 . S
C2295 C2312 1.574 . S
C2295 C2314 1.368 . S
C2295 H2319 0.949 . S
H2296 C2300 0.949 . S
C2297 C2298 1.349 . S
C2297 C2299 1.327 . S
C2297 H2320 0.950 . S
C2298 C2297 1.349 . S
C2298 C2310 1.349 . S
C2299 C2297 1.327 . S
C2299 C2315 1.429 . S
C2299 H2321 0.950 . S
C2300 H2296 0.949 . S
C2300 C2308 1.574 . S
C2300 C2316 1.368 . S
H2301 C2309 0.950 . S
H2302 C2307 0.950 . S
H2303 C2308 0.949 . S
H2304 C2310 0.950 . S
H2305 C2311 0.950 . S
H2306 C2312 0.949 . S
C2307 H2302 0.950 . S
C2307 C2309 1.327 . S
C2307 C2313 1.429 . S
C2308 C2300 1.574 . S
C2308 H2303 0.949 . S
C2308 C2314 1.368 . S
C2309 C2293 1.349 . S
C2309 H2301 0.950 . S
C2309 C2307 1.327 . S
C2310 C2298 1.349 . S
C2310 H2304 0.950 . S
C2310 C2311 1.327 . S
C2311 H2305 0.950 . S
C2311 C2310 1.327 . S
C2311 C2315 1.429 . S
C2312 C2295 1.574 . S
C2312 H2306 0.949 . S
C2312 C2316 1.368 . S
C2313 C2294 1.429 . S
C2313 C2307 1.429 . S
C2313 C2314 1.523 . S
C2314 C2295 1.368 . S
C2314 C2308 1.368 . S
C2314 C2313 1.523 . S
C2315 C2299 1.429 . S
C2315 C2311 1.429 . S
C2315 C2316 1.523 . S
C2316 C2300 1.368 . S
C2316 C2312 1.368 . S
C2316 C2315 1.523 . S
H2317 C2292 0.950 . S
H2318 C2294 0.950 . S
H2319 C2295 0.949 . S
H2320 C2297 0.950 . S
H2321 C2299 0.950 . S
C2322 C2323 1.349 . S
C2322 C2324 1.327 . S
C2322 H2347 0.950 . S
C2323 C2322 1.349 . S
C2323 C2339 1.349 . S
C2324 C2322 1.327 . S
C2324 C2343 1.429 . S
C2324 H2348 0.950 . S
C2325 C2342 1.574 . S
C2325 C2344 1.368 . S
C2325 H2349 0.949 . S
H2326 C2330 0.949 . S
C2327 C2328 1.349 . S
C2327 C2329 1.327 . S
C2327 H2350 0.950 . S
C2328 C2327 1.349 . S
C2328 C2340 1.349 . S
C2329 C2327 1.327 . S
C2329 C2345 1.429 . S
C2329 H2351 0.950 . S
C2330 H2326 0.949 . S
C2330 C2338 1.574 . S
C2330 C2346 1.368 . S
H2331 C2339 0.950 . S
H2332 C2337 0.950 . S
H2333 C2338 0.949 . S
H2334 C2340 0.950 . S
H2335 C2341 0.950 . S
H2336 C2342 0.949 . S
C2337 H2332 0.950 . S
C2337 C2339 1.327 . S
C2337 C2343 1.429 . S
C2338 C2330 1.574 . S
C2338 H2333 0.949 . S
C2338 C2344 1.368 . S
C2339 C2323 1.349 . S
C2339 H2331 0.950 . S
C2339 C2337 1.327 . S
C2340 C2328 1.349 . S
C2340 H2334 0.950 . S
C2340 C2341 1.327 . S
C2341 H2335 0.950 . S
C2341 C2340 1.327 . S
C2341 C2345 1.429 . S
C2342 C2325 1.574 . S
C2342 H2336 0.949 . S
C2342 C2346 1.368 . S
C2343 C2324 1.429 . S
C2343 C2337 1.429 . S
C2343 C2344 1.523 . S
C2344 C2325 1.368 . S
C2344 C2338 1.368 . S
C2344 C2343 1.523 . S
C2345 C2329 1.429 . S
C2345 C2341 1.429 . S
C2345 C2346 1.523 . S
C2346 C2330 1.368 . S
C2346 C2342 1.368 . S
C2346 C2345 1.523 . S
H2347 C2322 0.950 . S
H2348 C2324 0.950 . S
H2349 C2325 0.949 . S
H2350 C2327 0.950 . S
H2351 C2329 0.950 . S
C2352 C2353 1.349 . S
C2352 C2354 1.327 . S
C2352 H2377 0.950 . S
C2353 C2352 1.349 . S
C2353 C2369 1.349 . S
C2354 C2352 1.327 . S
C2354 C2373 1.429 . S
C2354 H2378 0.950 . S
C2355 C2372 1.574 . S
C2355 C2374 1.368 . S
C2355 H2379 0.949 . S
H2356 C2360 0.949 . S
C2357 C2358 1.349 . S
C2357 C2359 1.327 . S
C2357 H2380 0.950 . S
C2358 C2357 1.349 . S
C2358 C2370 1.349 . S
C2359 C2357 1.327 . S
C2359 C2375 1.429 . S
C2359 H2381 0.950 . S
C2360 H2356 0.949 . S
C2360 C2368 1.574 . S
C2360 C2376 1.368 . S
H2361 C2369 0.950 . S
H2362 C2367 0.950 . S
H2363 C2368 0.949 . S
H2364 C2370 0.950 . S
H2365 C2371 0.950 . S
H2366 C2372 0.949 . S
C2367 H2362 0.950 . S
C2367 C2369 1.327 . S
C2367 C2373 1.429 . S
C2368 C2360 1.574 . S
C2368 H2363 0.949 . S
C2368 C2374 1.368 . S
C2369 C2353 1.349 . S
C2369 H2361 0.950 . S
C2369 C2367 1.327 . S
C2370 C2358 1.349 . S
C2370 H2364 0.950 . S
C2370 C2371 1.327 . S
C2371 H2365 0.950 . S
C2371 C2370 1.327 . S
C2371 C2375 1.429 . S
C2372 C2355 1.574 . S
C2372 H2366 0.949 . S
C2372 C2376 1.368 . S
C2373 C2354 1.429 . S
C2373 C2367 1.429 . S
C2373 C2374 1.523 . S
C2374 C2355 1.368 . S
C2374 C2368 1.368 . S
C2374 C2373 1.523 . S
C2375 C2359 1.429 . S
C2375 C2371 1.429 . S
C2375 C2376 1.523 . S
C2376 C2360 1.368 . S
C2376 C2372 1.368 . S
C2376 C2375 1.523 . S
H2377 C2352 0.950 . S
H2378 C2354 0.950 . S
H2379 C2355 0.949 . S
H2380 C2357 0.950 . S
H2381 C2359 0.950 . S
C2382 C2383 1.349 . S
C2382 C2384 1.327 . S
C2382 H2407 0.950 . S
C2383 C2382 1.349 . S
C2383 C2399 1.349 . S
C2384 C2382 1.327 . S
C2384 C2403 1.429 . S
C2384 H2408 0.950 . S
C2385 C2402 1.574 . S
C2385 C2404 1.368 . S
C2385 H2409 0.949 . S
H2386 C2390 0.949 . S
C2387 C2388 1.349 . S
C2387 C2389 1.327 . S
C2387 H2410 0.950 . S
C2388 C2387 1.349 . S
C2388 C2400 1.349 . S
C2389 C2387 1.327 . S
C2389 C2405 1.429 . S
C2389 H2411 0.950 . S
C2390 H2386 0.949 . S
C2390 C2398 1.574 . S
C2390 C2406 1.368 . S
H2391 C2399 0.950 . S
H2392 C2397 0.950 . S
H2393 C2398 0.949 . S
H2394 C2400 0.950 . S
H2395 C2401 0.950 . S
H2396 C2402 0.949 . S
C2397 H2392 0.950 . S
C2397 C2399 1.327 . S
C2397 C2403 1.429 . S
C2398 C2390 1.574 . S
C2398 H2393 0.949 . S
C2398 C2404 1.368 . S
C2399 C2383 1.349 . S
C2399 H2391 0.950 . S
C2399 C2397 1.327 . S
C2400 C2388 1.349 . S
C2400 H2394 0.950 . S
C2400 C2401 1.327 . S
C2401 H2395 0.950 . S
C2401 C2400 1.327 . S
C2401 C2405 1.429 . S
C2402 C2385 1.574 . S
C2402 H2396 0.949 . S
C2402 C2406 1.368 . S
C2403 C2384 1.429 . S
C2403 C2397 1.429 . S
C2403 C2404 1.523 . S
C2404 C2385 1.368 . S
C2404 C2398 1.368 . S
C2404 C2403 1.523 . S
C2405 C2389 1.429 . S
C2405 C2401 1.429 . S
C2405 C2406 1.523 . S
C2406 C2390 1.368 . S
C2406 C2402 1.368 . S
C2406 C2405 1.523 . S
H2407 C2382 0.950 . S
H2408 C2384 0.950 . S
H2409 C2385 0.949 . S
H2410 C2387 0.950 . S
H2411 C2389 0.950 . S
C2412 C2413 1.349 . S
C2412 C2414 1.327 . S
C2412 H2437 0.950 . S
C2413 C2412 1.349 . S
C2413 C2429 1.349 . S
C2414 C2412 1.327 . S
C2414 C2433 1.429 . S
C2414 H2438 0.950 . S
C2415 C2432 1.574 . S
C2415 C2434 1.368 . S
C2415 H2439 0.949 . S
H2416 C2420 0.949 . S
C2417 C2418 1.349 . S
C2417 C2419 1.327 . S
C2417 H2440 0.950 . S
C2418 C2417 1.349 . S
C2418 C2430 1.349 . S
C2419 C2417 1.327 . S
C2419 C2435 1.429 . S
C2419 H2441 0.950 . S
C2420 H2416 0.949 . S
C2420 C2428 1.574 . S
C2420 C2436 1.368 . S
H2421 C2429 0.950 . S
H2422 C2427 0.950 . S
H2423 C2428 0.949 . S
H2424 C2430 0.950 . S
H2425 C2431 0.950 . S
H2426 C2432 0.949 . S
C2427 H2422 0.950 . S
C2427 C2429 1.327 . S
C2427 C2433 1.429 . S
C2428 C2420 1.574 . S
C2428 H2423 0.949 . S
C2428 C2434 1.368 . S
C2429 C2413 1.349 . S
C2429 H2421 0.950 . S
C2429 C2427 1.327 . S
C2430 C2418 1.349 . S
C2430 H2424 0.950 . S
C2430 C2431 1.327 . S
C2431 H2425 0.950 . S
C2431 C2430 1.327 . S
C2431 C2435 1.429 . S
C2432 C2415 1.574 . S
C2432 H2426 0.949 . S
C2432 C2436 1.368 . S
C2433 C2414 1.429 . S
C2433 C2427 1.429 . S
C2433 C2434 1.523 . S
C2434 C2415 1.368 . S
C2434 C2428 1.368 . S
C2434 C2433 1.523 . S
C2435 C2419 1.429 . S
C2435 C2431 1.429 . S
C2435 C2436 1.523 . S
C2436 C2420 1.368 . S
C2436 C2432 1.368 . S
C2436 C2435 1.523 . S
H2437 C2412 0.950 . S
H2438 C2414 0.950 . S
H2439 C2415 0.949 . S
H2440 C2417 0.950 . S
H2441 C2419 0.950 . S
C2442 C2443 1.349 . S
C2442 C2444 1.327 . S
C2442 H2467 0.950 . S
C2443 C2442 1.349 . S
C2443 C2459 1.349 . S
C2444 C2442 1.327 . S
C2444 C2463 1.429 . S
C2444 H2468 0.950 . S
C2445 C2462 1.574 . S
C2445 C2464 1.368 . S
C2445 H2469 0.949 . S
H2446 C2450 0.949 . S
C2447 C2448 1.349 . S
C2447 C2449 1.327 . S
C2447 H2470 0.950 . S
C2448 C2447 1.349 . S
C2448 C2460 1.349 . S
C2449 C2447 1.327 . S
C2449 C2465 1.429 . S
C2449 H2471 0.950 . S
C2450 H2446 0.949 . S
C2450 C2458 1.574 . S
C2450 C2466 1.368 . S
H2451 C2459 0.950 . S
H2452 C2457 0.950 . S
H2453 C2458 0.949 . S
H2454 C2460 0.950 . S
H2455 C2461 0.950 . S
H2456 C2462 0.949 . S
C2457 H2452 0.950 . S
C2457 C2459 1.327 . S
C2457 C2463 1.429 . S
C2458 C2450 1.574 . S
C2458 H2453 0.949 . S
C2458 C2464 1.368 . S
C2459 C2443 1.349 . S
C2459 H2451 0.950 . S
C2459 C2457 1.327 . S
C2460 C2448 1.349 . S
C2460 H2454 0.950 . S
C2460 C2461 1.327 . S
C2461 H2455 0.950 . S
C2461 C2460 1.327 . S
C2461 C2465 1.429 . S
C2462 C2445 1.574 . S
C2462 H2456 0.949 . S
C2462 C2466 1.368 . S
C2463 C2444 1.429 . S
C2463 C2457 1.429 . S
C2463 C2464 1.523 . S
C2464 C2445 1.368 . S
C2464 C2458 1.368 . S
C2464 C2463 1.523 . S
C2465 C2449 1.429 . S
C2465 C2461 1.429 . S
C2465 C2466 1.523 . S
C2466 C2450 1.368 . S
C2466 C2462 1.368 . S
C2466 C2465 1.523 . S
H2467 C2442 0.950 . S
H2468 C2444 0.950 . S
H2469 C2445 0.949 . S
H2470 C2447 0.950 . S
H2471 C2449 0.950 . S
C2472 C2473 1.349 . S
C2472 C2474 1.327 . S
C2472 H2497 0.950 . S
C2473 C2472 1.349 . S
C2473 C2489 1.349 . S
C2474 C2472 1.327 . S
C2474 C2493 1.429 . S
C2474 H2498 0.950 . S
C2475 C2492 1.574 . S
C2475 C2494 1.368 . S
C2475 H2499 0.949 . S
H2476 C2480 0.949 . S
C2477 C2478 1.349 . S
C2477 C2479 1.327 . S
C2477 H2500 0.950 . S
C2478 C2477 1.349 . S
C2478 C2490 1.349 . S
C2479 C2477 1.327 . S
C2479 C2495 1.429 . S
C2479 H2501 0.950 . S
C2480 H2476 0.949 . S
C2480 C2488 1.574 . S
C2480 C2496 1.368 . S
H2481 C2489 0.950 . S
H2482 C2487 0.950 . S
H2483 C2488 0.949 . S
H2484 C2490 0.950 . S
H2485 C2491 0.950 . S
H2486 C2492 0.949 . S
C2487 H2482 0.950 . S
C2487 C2489 1.327 . S
C2487 C2493 1.429 . S
C2488 C2480 1.574 . S
C2488 H2483 0.949 . S
C2488 C2494 1.368 . S
C2489 C2473 1.349 . S
C2489 H2481 0.950 . S
C2489 C2487 1.327 . S
C2490 C2478 1.349 . S
C2490 H2484 0.950 . S
C2490 C2491 1.327 . S
C2491 H2485 0.950 . S
C2491 C2490 1.327 . S
C2491 C2495 1.429 . S
C2492 C2475 1.574 . S
C2492 H2486 0.949 . S
C2492 C2496 1.368 . S
C2493 C2474 1.429 . S
C2493 C2487 1.429 . S
C2493 C2494 1.523 . S
C2494 C2475 1.368 . S
C2494 C2488 1.368 . S
C2494 C2493 1.523 . S
C2495 C2479 1.429 . S
C2495 C2491 1.429 . S
C2495 C2496 1.523 . S
C2496 C2480 1.368 . S
C2496 C2492 1.368 . S
C2496 C2495 1.523 . S
H2497 C2472 0.950 . S
H2498 C2474 0.950 . S
H2499 C2475 0.949 . S
H2500 C2477 0.950 . S
H2501 C2479 0.950 . S
C2502 C2503 1.349 . S
C2502 C2504 1.327 . S
C2502 H2527 0.950 . S
C2503 C2502 1.349 . S
C2503 C2519 1.349 . S
C2504 C2502 1.327 . S
C2504 C2523 1.429 . S
C2504 H2528 0.950 . S
C2505 C2522 1.574 . S
C2505 C2524 1.368 . S
C2505 H2529 0.949 . S
H2506 C2510 0.949 . S
C2507 C2508 1.349 . S
C2507 C2509 1.327 . S
C2507 H2530 0.950 . S
C2508 C2507 1.349 . S
C2508 C2520 1.349 . S
C2509 C2507 1.327 . S
C2509 C2525 1.429 . S
C2509 H2531 0.950 . S
C2510 H2506 0.949 . S
C2510 C2518 1.574 . S
C2510 C2526 1.368 . S
H2511 C2519 0.950 . S
H2512 C2517 0.950 . S
H2513 C2518 0.949 . S
H2514 C2520 0.950 . S
H2515 C2521 0.950 . S
H2516 C2522 0.949 . S
C2517 H2512 0.950 . S
C2517 C2519 1.327 . S
C2517 C2523 1.429 . S
C2518 C2510 1.574 . S
C2518 H2513 0.949 . S
C2518 C2524 1.368 . S
C2519 C2503 1.349 . S
C2519 H2511 0.950 . S
C2519 C2517 1.327 . S
C2520 C2508 1.349 . S
C2520 H2514 0.950 . S
C2520 C2521 1.327 . S
C2521 H2515 0.950 . S
C2521 C2520 1.327 . S
C2521 C2525 1.429 . S
C2522 C2505 1.574 . S
C2522 H2516 0.949 . S
C2522 C2526 1.368 . S
C2523 C2504 1.429 . S
C2523 C2517 1.429 . S
C2523 C2524 1.523 . S
C2524 C2505 1.368 . S
C2524 C2518 1.368 . S
C2524 C2523 1.523 . S
C2525 C2509 1.429 . S
C2525 C2521 1.429 . S
C2525 C2526 1.523 . S
C2526 C2510 1.368 . S
C2526 C2522 1.368 . S
C2526 C2525 1.523 . S
H2527 C2502 0.950 . S
H2528 C2504 0.950 . S
H2529 C2505 0.949 . S
H2530 C2507 0.950 . S
H2531 C2509 0.950 . S
C2532 C2533 1.349 . S
C2532 C2534 1.327 . S
C2532 H2557 0.950 . S
C2533 C2532 1.349 . S
C2533 C2549 1.349 . S
C2534 C2532 1.327 . S
C2534 C2553 1.429 . S
C2534 H2558 0.950 . S
C2535 C2552 1.574 . S
C2535 C2554 1.368 . S
C2535 H2559 0.949 . S
H2536 C2540 0.949 . S
C2537 C2538 1.349 . S
C2537 C2539 1.327 . S
C2537 H2560 0.950 . S
C2538 C2537 1.349 . S
C2538 C2550 1.349 . S
C2539 C2537 1.327 . S
C2539 C2555 1.429 . S
C2539 H2561 0.950 . S
C2540 H2536 0.949 . S
C2540 C2548 1.574 . S
C2540 C2556 1.368 . S
H2541 C2549 0.950 . S
H2542 C2547 0.950 . S
H2543 C2548 0.949 . S
H2544 C2550 0.950 . S
H2545 C2551 0.950 . S
H2546 C2552 0.949 . S
C2547 H2542 0.950 . S
C2547 C2549 1.327 . S
C2547 C2553 1.429 . S
C2548 C2540 1.574 . S
C2548 H2543 0.949 . S
C2548 C2554 1.368 . S
C2549 C2533 1.349 . S
C2549 H2541 0.950 . S
C2549 C2547 1.327 . S
C2550 C2538 1.349 . S
C2550 H2544 0.950 . S
C2550 C2551 1.327 . S
C2551 H2545 0.950 . S
C2551 C2550 1.327 . S
C2551 C2555 1.429 . S
C2552 C2535 1.574 . S
C2552 H2546 0.949 . S
C2552 C2556 1.368 . S
C2553 C2534 1.429 . S
C2553 C2547 1.429 . S
C2553 C2554 1.523 . S
C2554 C2535 1.368 . S
C2554 C2548 1.368 . S
C2554 C2553 1.523 . S
C2555 C2539 1.429 . S
C2555 C2551 1.429 . S
C2555 C2556 1.523 . S
C2556 C2540 1.368 . S
C2556 C2552 1.368 . S
C2556 C2555 1.523 . S
H2557 C2532 0.950 . S
H2558 C2534 0.950 . S
H2559 C2535 0.949 . S
H2560 C2537 0.950 . S
H2561 C2539 0.950 . S
C2562 C2563 1.349 . S
C2562 C2564 1.327 . S
C2562 H2587 0.950 . S
C2563 C2562 1.349 . S
C2563 C2579 1.349 . S
C2564 C2562 1.327 . S
C2564 C2583 1.429 . S
C2564 H2588 0.950 . S
C2565 C2582 1.574 . S
C2565 C2584 1.368 . S
C2565 H2589 0.949 . S
H2566 C2570 0.949 . S
C2567 C2568 1.349 . S
C2567 C2569 1.327 . S
C2567 H2590 0.950 . S
C2568 C2567 1.349 . S
C2568 C2580 1.349 . S
C2569 C2567 1.327 . S
C2569 C2585 1.429 . S
C2569 H2591 0.950 . S
C2570 H2566 0.949 . S
C2570 C2578 1.574 . S
C2570 C2586 1.368 . S
H2571 C2579 0.950 . S
H2572 C2577 0.950 . S
H2573 C2578 0.949 . S
H2574 C2580 0.950 . S
H2575 C2581 0.950 . S
H2576 C2582 0.949 . S
C2577 H2572 0.950 . S
C2577 C2579 1.327 . S
C2577 C2583 1.429 . S
C2578 C2570 1.574 . S
C2578 H2573 0.949 . S
C2578 C2584 1.368 . S
C2579 C2563 1.349 . S
C2579 H2571 0.950 . S
C2579 C2577 1.327 . S
C2580 C2568 1.349 . S
C2580 H2574 0.950 . S
C2580 C2581 1.327 . S
C2581 H2575 0.950 . S
C2581 C2580 1.327 . S
C2581 C2585 1.429 . S
C2582 C2565 1.574 . S
C2582 H2576 0.949 . S
C2582 C2586 1.368 . S
C2583 C2564 1.429 . S
C2583 C2577 1.429 . S
C2583 C2584 1.523 . S
C2584 C2565 1.368 . S
C2584 C2578 1.368 . S
C2584 C2583 1.523 . S
C2585 C2569 1.429 . S
C2585 C2581 1.429 . S
C2585 C2586 1.523 . S
C2586 C2570 1.368 . S
C2586 C2582 1.368 . S
C2586 C2585 1.523 . S
H2587 C2562 0.950 . S
H2588 C2564 0.950 . S
H2589 C2565 0.949 . S
H2590 C2567 0.950 . S
H2591 C2569 0.950 . S
C2592 C2593 1.349 . S
C2592 C2594 1.327 . S
C2592 H2617 0.950 . S
C2593 C2592 1.349 . S
C2593 C2609 1.349 . S
C2594 C2592 1.327 . S
C2594 C2613 1.429 . S
C2594 H2618 0.950 . S
C2595 C2612 1.574 . S
C2595 C2614 1.368 . S
C2595 H2619 0.949 . S
H2596 C2600 0.949 . S
C2597 C2598 1.349 . S
C2597 C2599 1.327 . S
C2597 H2620 0.950 . S
C2598 C2597 1.349 . S
C2598 C2610 1.349 . S
C2599 C2597 1.327 . S
C2599 C2615 1.429 . S
C2599 H2621 0.950 . S
C2600 H2596 0.949 . S
C2600 C2608 1.574 . S
C2600 C2616 1.368 . S
H2601 C2609 0.950 . S
H2602 C2607 0.950 . S
H2603 C2608 0.949 . S
H2604 C2610 0.950 . S
H2605 C2611 0.950 . S
H2606 C2612 0.949 . S
C2607 H2602 0.950 . S
C2607 C2609 1.327 . S
C2607 C2613 1.429 . S
C2608 C2600 1.574 . S
C2608 H2603 0.949 . S
C2608 C2614 1.368 . S
C2609 C2593 1.349 . S
C2609 H2601 0.950 . S
C2609 C2607 1.327 . S
C2610 C2598 1.349 . S
C2610 H2604 0.950 . S
C2610 C2611 1.327 . S
C2611 H2605 0.950 . S
C2611 C2610 1.327 . S
C2611 C2615 1.429 . S
C2612 C2595 1.574 . S
C2612 H2606 0.949 . S
C2612 C2616 1.368 . S
C2613 C2594 1.429 . S
C2613 C2607 1.429 . S
C2613 C2614 1.523 . S
C2614 C2595 1.368 . S
C2614 C2608 1.368 . S
C2614 C2613 1.523 . S
C2615 C2599 1.429 . S
C2615 C2611 1.429 . S
C2615 C2616 1.523 . S
C2616 C2600 1.368 . S
C2616 C2612 1.368 . S
C2616 C2615 1.523 . S
H2617 C2592 0.950 . S
H2618 C2594 0.950 . S
H2619 C2595 0.949 . S
H2620 C2597 0.950 . S
H2621 C2599 0.950 . S
C2622 C2623 1.349 . S
C2622 C2624 1.327 . S
C2622 H2647 0.950 . S
C2623 C2622 1.349 . S
C2623 C2639 1.349 . S
C2624 C2622 1.327 . S
C2624 C2643 1.429 . S
C2624 H2648 0.950 . S
C2625 C2642 1.574 . S
C2625 C2644 1.368 . S
C2625 H2649 0.949 . S
H2626 C2630 0.949 . S
C2627 C2628 1.349 . S
C2627 C2629 1.327 . S
C2627 H2650 0.950 . S
C2628 C2627 1.349 . S
C2628 C2640 1.349 . S
C2629 C2627 1.327 . S
C2629 C2645 1.429 . S
C2629 H2651 0.950 . S
C2630 H2626 0.949 . S
C2630 C2638 1.574 . S
C2630 C2646 1.368 . S
H2631 C2639 0.950 . S
H2632 C2637 0.950 . S
H2633 C2638 0.949 . S
H2634 C2640 0.950 . S
H2635 C2641 0.950 . S
H2636 C2642 0.949 . S
C2637 H2632 0.950 . S
C2637 C2639 1.327 . S
C2637 C2643 1.429 . S
C2638 C2630 1.574 . S
C2638 H2633 0.949 . S
C2638 C2644 1.368 . S
C2639 C2623 1.349 . S
C2639 H2631 0.950 . S
C2639 C2637 1.327 . S
C2640 C2628 1.349 . S
C2640 H2634 0.950 . S
C2640 C2641 1.327 . S
C2641 H2635 0.950 . S
C2641 C2640 1.327 . S
C2641 C2645 1.429 . S
C2642 C2625 1.574 . S
C2642 H2636 0.949 . S
C2642 C2646 1.368 . S
C2643 C2624 1.429 . S
C2643 C2637 1.429 . S
C2643 C2644 1.523 . S
C2644 C2625 1.368 . S
C2644 C2638 1.368 . S
C2644 C2643 1.523 . S
C2645 C2629 1.429 . S
C2645 C2641 1.429 . S
C2645 C2646 1.523 . S
C2646 C2630 1.368 . S
C2646 C2642 1.368 . S
C2646 C2645 1.523 . S
H2647 C2622 0.950 . S
H2648 C2624 0.950 . S
H2649 C2625 0.949 . S
H2650 C2627 0.950 . S
H2651 C2629 0.950 . S
C2652 C2653 1.349 . S
C2652 C2654 1.327 . S
C2652 H2677 0.950 . S
C2653 C2652 1.349 . S
C2653 C2669 1.349 . S
C2654 C2652 1.327 . S
C2654 C2673 1.429 . S
C2654 H2678 0.950 . S
C2655 C2672 1.574 . S
C2655 C2674 1.368 . S
C2655 H2679 0.949 . S
H2656 C2660 0.949 . S
C2657 C2658 1.349 . S
C2657 C2659 1.327 . S
C2657 H2680 0.950 . S
C2658 C2657 1.349 . S
C2658 C2670 1.349 . S
C2659 C2657 1.327 . S
C2659 C2675 1.429 . S
C2659 H2681 0.950 . S
C2660 H2656 0.949 . S
C2660 C2668 1.574 . S
C2660 C2676 1.368 . S
H2661 C2669 0.950 . S
H2662 C2667 0.950 . S
H2663 C2668 0.949 . S
H2664 C2670 0.950 . S
H2665 C2671 0.950 . S
H2666 C2672 0.949 . S
C2667 H2662 0.950 . S
C2667 C2669 1.327 . S
C2667 C2673 1.429 . S
C2668 C2660 1.574 . S
C2668 H2663 0.949 . S
C2668 C2674 1.368 . S
C2669 C2653 1.349 . S
C2669 H2661 0.950 . S
C2669 C2667 1.327 . S
C2670 C2658 1.349 . S
C2670 H2664 0.950 . S
C2670 C2671 1.327 . S
C2671 H2665 0.950 . S
C2671 C2670 1.327 . S
C2671 C2675 1.429 . S
C2672 C2655 1.574 . S
C2672 H2666 0.949 . S
C2672 C2676 1.368 . S
C2673 C2654 1.429 . S
C2673 C2667 1.429 . S
C2673 C2674 1.523 . S
C2674 C2655 1.368 . S
C2674 C2668 1.368 . S
C2674 C2673 1.523 . S
C2675 C2659 1.429 . S
C2675 C2671 1.429 . S
C2675 C2676 1.523 . S
C2676 C2660 1.368 . S
C2676 C2672 1.368 . S
C2676 C2675 1.523 . S
H2677 C2652 0.950 . S
H2678 C2654 0.950 . S
H2679 C2655 0.949 . S
H2680 C2657 0.950 . S
H2681 C2659 0.950 . S
C2682 C2683 1.349 . S
C2682 C2684 1.327 . S
C2682 H2707 0.950 . S
C2683 C2682 1.349 . S
C2683 C2699 1.349 . S
C2684 C2682 1.327 . S
C2684 C2703 1.429 . S
C2684 H2708 0.950 . S
C2685 C2702 1.574 . S
C2685 C2704 1.368 . S
C2685 H2709 0.949 . S
H2686 C2690 0.949 . S
C2687 C2688 1.349 . S
C2687 C2689 1.327 . S
C2687 H2710 0.950 . S
C2688 C2687 1.349 . S
C2688 C2700 1.349 . S
C2689 C2687 1.327 . S
C2689 C2705 1.429 . S
C2689 H2711 0.950 . S
C2690 H2686 0.949 . S
C2690 C2698 1.574 . S
C2690 C2706 1.368 . S
H2691 C2699 0.950 . S
H2692 C2697 0.950 . S
H2693 C2698 0.949 . S
H2694 C2700 0.950 . S
H2695 C2701 0.950 . S
H2696 C2702 0.949 . S
C2697 H2692 0.950 . S
C2697 C2699 1.327 . S
C2697 C2703 1.429 . S
C2698 C2690 1.574 . S
C2698 H2693 0.949 . S
C2698 C2704 1.368 . S
C2699 C2683 1.349 . S
C2699 H2691 0.950 . S
C2699 C2697 1.327 . S
C2700 C2688 1.349 . S
C2700 H2694 0.950 . S
C2700 C2701 1.327 . S
C2701 H2695 0.950 . S
C2701 C2700 1.327 . S
C2701 C2705 1.429 . S
C2702 C2685 1.574 . S
C2702 H2696 0.949 . S
C2702 C2706 1.368 . S
C2703 C2684 1.429 . S
C2703 C2697 1.429 . S
C2703 C2704 1.523 . S
C2704 C2685 1.368 . S
C2704 C2698 1.368 . S
C2704 C2703 1.523 . S
C2705 C2689 1.429 . S
C2705 C2701 1.429 . S
C2705 C2706 1.523 . S
C2706 C2690 1.368 . S
C2706 C2702 1.368 . S
C2706 C2705 1.523 . S
H2707 C2682 0.950 . S
H2708 C2684 0.950 . S
H2709 C2685 0.949 . S
H2710 C2687 0.950 . S
H2711 C2689 0.950 . S
C2712 C2713 1.349 . S
C2712 C2714 1.327 . S
C2712 H2737 0.950 . S
C2713 C2712 1.349 . S
C2713 C2729 1.349 . S
C2714 C2712 1.327 . S
C2714 C2733 1.429 . S
C2714 H2738 0.950 . S
C2715 C2732 1.574 . S
C2715 C2734 1.368 . S
C2715 H2739 0.949 . S
H2716 C2720 0.949 . S
C2717 C2718 1.349 . S
C2717 C2719 1.327 . S
C2717 H2740 0.950 . S
C2718 C2717 1.349 . S
C2718 C2730 1.349 . S
C2719 C2717 1.327 . S
C2719 C2735 1.429 . S
C2719 H2741 0.950 . S
C2720 H2716 0.949 . S
C2720 C2728 1.574 . S
C2720 C2736 1.368 . S
H2721 C2729 0.950 . S
H2722 C2727 0.950 . S
H2723 C2728 0.949 . S
H2724 C2730 0.950 . S
H2725 C2731 0.950 . S
H2726 C2732 0.949 . S
C2727 H2722 0.950 . S
C2727 C2729 1.327 . S
C2727 C2733 1.429 . S
C2728 C2720 1.574 . S
C2728 H2723 0.949 . S
C2728 C2734 1.368 . S
C2729 C2713 1.349 . S
C2729 H2721 0.950 . S
C2729 C2727 1.327 . S
C2730 C2718 1.349 . S
C2730 H2724 0.950 . S
C2730 C2731 1.327 . S
C2731 H2725 0.950 . S
C2731 C2730 1.327 . S
C2731 C2735 1.429 . S
C2732 C2715 1.574 . S
C2732 H2726 0.949 . S
C2732 C2736 1.368 . S
C2733 C2714 1.429 . S
C2733 C2727 1.429 . S
C2733 C2734 1.523 . S
C2734 C2715 1.368 . S
C2734 C2728 1.368 . S
C2734 C2733 1.523 . S
C2735 C2719 1.429 . S
C2735 C2731 1.429 . S
C2735 C2736 1.523 . S
C2736 C2720 1.368 . S
C2736 C2732 1.368 . S
C2736 C2735 1.523 . S
H2737 C2712 0.950 . S
H2738 C2714 0.950 . S
H2739 C2715 0.949 . S
H2740 C2717 0.950 . S
H2741 C2719 0.950 . S
C2742 C2743 1.349 . S
C2742 C2744 1.327 . S
C2742 H2767 0.950 . S
C2743 C2742 1.349 . S
C2743 C2759 1.349 . S
C2744 C2742 1.327 . S
C2744 C2763 1.429 . S
C2744 H2768 0.950 . S
C2745 C2762 1.574 . S
C2745 C2764 1.368 . S
C2745 H2769 0.949 . S
H2746 C2750 0.949 . S
C2747 C2748 1.349 . S
C2747 C2749 1.327 . S
C2747 H2770 0.950 . S
C2748 C2747 1.349 . S
C2748 C2760 1.349 . S
C2749 C2747 1.327 . S
C2749 C2765 1.429 . S
C2749 H2771 0.950 . S
C2750 H2746 0.949 . S
C2750 C2758 1.574 . S
C2750 C2766 1.368 . S
H2751 C2759 0.950 . S
H2752 C2757 0.950 . S
H2753 C2758 0.949 . S
H2754 C2760 0.950 . S
H2755 C2761 0.950 . S
H2756 C2762 0.949 . S
C2757 H2752 0.950 . S
C2757 C2759 1.327 . S
C2757 C2763 1.429 . S
C2758 C2750 1.574 . S
C2758 H2753 0.949 . S
C2758 C2764 1.368 . S
C2759 C2743 1.349 . S
C2759 H2751 0.950 . S
C2759 C2757 1.327 . S
C2760 C2748 1.349 . S
C2760 H2754 0.950 . S
C2760 C2761 1.327 . S
C2761 H2755 0.950 . S
C2761 C2760 1.327 . S
C2761 C2765 1.429 . S
C2762 C2745 1.574 . S
C2762 H2756 0.949 . S
C2762 C2766 1.368 . S
C2763 C2744 1.429 . S
C2763 C2757 1.429 . S
C2763 C2764 1.523 . S
C2764 C2745 1.368 . S
C2764 C2758 1.368 . S
C2764 C2763 1.523 . S
C2765 C2749 1.429 . S
C2765 C2761 1.429 . S
C2765 C2766 1.523 . S
C2766 C2750 1.368 . S
C2766 C2762 1.368 . S
C2766 C2765 1.523 . S
H2767 C2742 0.950 . S
H2768 C2744 0.950 . S
H2769 C2745 0.949 . S
H2770 C2747 0.950 . S
H2771 C2749 0.950 . S
C2772 C2773 1.349 . S
C2772 C2774 1.327 . S
C2772 H2797 0.950 . S
C2773 C2772 1.349 . S
C2773 C2789 1.349 . S
C2774 C2772 1.327 . S
C2774 C2793 1.429 . S
C2774 H2798 0.950 . S
C2775 C2792 1.574 . S
C2775 C2794 1.368 . S
C2775 H2799 0.949 . S
H2776 C2780 0.949 . S
C2777 C2778 1.349 . S
C2777 C2779 1.327 . S
C2777 H2800 0.950 . S
C2778 C2777 1.349 . S
C2778 C2790 1.349 . S
C2779 C2777 1.327 . S
C2779 C2795 1.429 . S
C2779 H2801 0.950 . S
C2780 H2776 0.949 . S
C2780 C2788 1.574 . S
C2780 C2796 1.368 . S
H2781 C2789 0.950 . S
H2782 C2787 0.950 . S
H2783 C2788 0.949 . S
H2784 C2790 0.950 . S
H2785 C2791 0.950 . S
H2786 C2792 0.949 . S
C2787 H2782 0.950 . S
C2787 C2789 1.327 . S
C2787 C2793 1.429 . S
C2788 C2780 1.574 . S
C2788 H2783 0.949 . S
C2788 C2794 1.368 . S
C2789 C2773 1.349 . S
C2789 H2781 0.950 . S
C2789 C2787 1.327 . S
C2790 C2778 1.349 . S
C2790 H2784 0.950 . S
C2790 C2791 1.327 . S
C2791 H2785 0.950 . S
C2791 C2790 1.327 . S
C2791 C2795 1.429 . S
C2792 C2775 1.574 . S
C2792 H2786 0.949 . S
C2792 C2796 1.368 . S
C2793 C2774 1.429 . S
C2793 C2787 1.429 . S
C2793 C2794 1.523 . S
C2794 C2775 1.368 . S
C2794 C2788 1.368 . S
C2794 C2793 1.523 . S
C2795 C2779 1.429 . S
C2795 C2791 1.429 . S
C2795 C2796 1.523 . S
C2796 C2780 1.368 . S
C2796 C2792 1.368 . S
C2796 C2795 1.523 . S
H2797 C2772 0.950 . S
H2798 C2774 0.950 . S
H2799 C2775 0.949 . S
H2800 C2777 0.950 . S
H2801 C2779 0.950 . S
C2802 C2803 1.349 . S
C2802 C2804 1.327 . S
C2802 H2827 0.950 . S
C2803 C2802 1.349 . S
C2803 C2819 1.349 . S
C2804 C2802 1.327 . S
C2804 C2823 1.429 . S
C2804 H2828 0.950 . S
C2805 C2822 1.574 . S
C2805 C2824 1.368 . S
C2805 H2829 0.949 . S
H2806 C2810 0.949 . S
C2807 C2808 1.349 . S
C2807 C2809 1.327 . S
C2807 H2830 0.950 . S
C2808 C2807 1.349 . S
C2808 C2820 1.349 . S
C2809 C2807 1.327 . S
C2809 C2825 1.429 . S
C2809 H2831 0.950 . S
C2810 H2806 0.949 . S
C2810 C2818 1.574 . S
C2810 C2826 1.368 . S
H2811 C2819 0.950 . S
H2812 C2817 0.950 . S
H2813 C2818 0.949 . S
H2814 C2820 0.950 . S
H2815 C2821 0.950 . S
H2816 C2822 0.949 . S
C2817 H2812 0.950 . S
C2817 C2819 1.327 . S
C2817 C2823 1.429 . S
C2818 C2810 1.574 . S
C2818 H2813 0.949 . S
C2818 C2824 1.368 . S
C2819 C2803 1.349 . S
C2819 H2811 0.950 . S
C2819 C2817 1.327 . S
C2820 C2808 1.349 . S
C2820 H2814 0.950 . S
C2820 C2821 1.327 . S
C2821 H2815 0.950 . S
C2821 C2820 1.327 . S
C2821 C2825 1.429 . S
C2822 C2805 1.574 . S
C2822 H2816 0.949 . S
C2822 C2826 1.368 . S
C2823 C2804 1.429 . S
C2823 C2817 1.429 . S
C2823 C2824 1.523 . S
C2824 C2805 1.368 . S
C2824 C2818 1.368 . S
C2824 C2823 1.523 . S
C2825 C2809 1.429 . S
C2825 C2821 1.429 . S
C2825 C2826 1.523 . S
C2826 C2810 1.368 . S
C2826 C2822 1.368 . S
C2826 C2825 1.523 . S
H2827 C2802 0.950 . S
H2828 C2804 0.950 . S
H2829 C2805 0.949 . S
H2830 C2807 0.950 . S
H2831 C2809 0.950 . S
C2832 C2833 1.349 . S
C2832 C2834 1.327 . S
C2832 H2857 0.950 . S
C2833 C2832 1.349 . S
C2833 C2849 1.349 . S
C2834 C2832 1.327 . S
C2834 C2853 1.429 . S
C2834 H2858 0.950 . S
C2835 C2852 1.574 1_455 S
C2835 C2854 1.368 . S
C2835 H2859 0.949 . S
H2836 C2840 0.949 . S
C2837 C2838 1.349 . S
C2837 C2839 1.327 . S
C2837 H2860 0.950 . S
C2838 C2837 1.349 . S
C2838 C2850 1.349 . S
C2839 C2837 1.327 . S
C2839 C2855 1.429 . S
C2839 H2861 0.950 . S
C2840 H2836 0.949 . S
C2840 C2848 1.574 1_655 S
C2840 C2856 1.368 . S
H2841 C2849 0.950 . S
H2842 C2847 0.950 . S
H2843 C2848 0.949 . S
H2844 C2850 0.950 . S
H2845 C2851 0.950 . S
H2846 C2852 0.949 . S
C2847 H2842 0.950 . S
C2847 C2849 1.327 . S
C2847 C2853 1.429 . S
C2848 C2840 1.574 1_455 S
C2848 H2843 0.949 . S
C2848 C2854 1.368 . S
C2849 C2833 1.349 . S
C2849 H2841 0.950 . S
C2849 C2847 1.327 . S
C2850 C2838 1.349 . S
C2850 H2844 0.950 . S
C2850 C2851 1.327 . S
C2851 H2845 0.950 . S
C2851 C2850 1.327 . S
C2851 C2855 1.429 . S
C2852 C2835 1.574 1_655 S
C2852 H2846 0.949 . S
C2852 C2856 1.368 . S
C2853 C2834 1.429 . S
C2853 C2847 1.429 . S
C2853 C2854 1.523 . S
C2854 C2835 1.368 . S
C2854 C2848 1.368 . S
C2854 C2853 1.523 . S
C2855 C2839 1.429 . S
C2855 C2851 1.429 . S
C2855 C2856 1.523 . S
C2856 C2840 1.368 . S
C2856 C2852 1.368 . S
C2856 C2855 1.523 . S
H2857 C2832 0.950 . S
H2858 C2834 0.950 . S
H2859 C2835 0.949 . S
H2860 C2837 0.950 . S
H2861 C2839 0.950 . S
C2862 C2863 1.349 . S
C2862 C2864 1.327 . S
C2862 H2887 0.950 . S
C2863 C2862 1.349 . S
C2863 C2879 1.349 . S
C2864 C2862 1.327 . S
C2864 C2883 1.429 . S
C2864 H2888 0.950 . S
C2865 C2882 1.574 1_545 S
C2865 C2884 1.368 . S
C2865 H2889 0.949 . S
H2866 C2870 0.949 . S
C2867 C2868 1.349 . S
C2867 C2869 1.327 . S
C2867 H2890 0.950 . S
C2868 C2867 1.349 . S
C2868 C2880 1.349 . S
C2869 C2867 1.327 . S
C2869 C2885 1.429 . S
C2869 H2891 0.950 . S
C2870 H2866 0.949 . S
C2870 C2878 1.574 1_565 S
C2870 C2886 1.368 . S
H2871 C2879 0.950 . S
H2872 C2877 0.950 . S
H2873 C2878 0.949 . S
H2874 C2880 0.950 . S
H2875 C2881 0.950 . S
H2876 C2882 0.949 . S
C2877 H2872 0.950 . S
C2877 C2879 1.327 . S
C2877 C2883 1.429 . S
C2878 C2870 1.574 1_545 S
C2878 H2873 0.949 . S
C2878 C2884 1.368 . S
C2879 C2863 1.349 . S
C2879 H2871 0.950 . S
C2879 C2877 1.327 . S
C2880 C2868 1.349 . S
C2880 H2874 0.950 . S
C2880 C2881 1.327 . S
C2881 H2875 0.950 . S
C2881 C2880 1.327 . S
C2881 C2885 1.429 . S
C2882 C2865 1.574 1_565 S
C2882 H2876 0.949 . S
C2882 C2886 1.368 . S
C2883 C2864 1.429 . S
C2883 C2877 1.429 . S
C2883 C2884 1.523 . S
C2884 C2865 1.368 . S
C2884 C2878 1.368 . S
C2884 C2883 1.523 . S
C2885 C2869 1.429 . S
C2885 C2881 1.429 . S
C2885 C2886 1.523 . S
C2886 C2870 1.368 . S
C2886 C2882 1.368 . S
C2886 C2885 1.523 . S
H2887 C2862 0.950 . S
H2888 C2864 0.950 . S
H2889 C2865 0.949 . S
H2890 C2867 0.950 . S
H2891 C2869 0.950 . S
C2892 C2893 1.349 . S
C2892 C2894 1.327 . S
C2892 H2917 0.950 . S
C2893 C2892 1.349 . S
C2893 C2909 1.349 . S
C2894 C2892 1.327 . S
C2894 C2913 1.429 . S
C2894 H2918 0.950 . S
C2895 C2912 1.574 1_655 S
C2895 C2914 1.368 . S
C2895 H2919 0.949 . S
H2896 C2900 0.949 . S
C2897 C2898 1.349 . S
C2897 C2899 1.327 . S
C2897 H2920 0.950 . S
C2898 C2897 1.349 . S
C2898 C2910 1.349 . S
C2899 C2897 1.327 . S
C2899 C2915 1.429 . S
C2899 H2921 0.950 . S
C2900 H2896 0.949 . S
C2900 C2908 1.574 1_455 S
C2900 C2916 1.368 . S
H2901 C2909 0.950 . S
H2902 C2907 0.950 . S
H2903 C2908 0.949 . S
H2904 C2910 0.950 . S
H2905 C2911 0.950 . S
H2906 C2912 0.949 . S
C2907 H2902 0.950 . S
C2907 C2909 1.327 . S
C2907 C2913 1.429 . S
C2908 C2900 1.574 1_655 S
C2908 H2903 0.949 . S
C2908 C2914 1.368 . S
C2909 C2893 1.349 . S
C2909 H2901 0.950 . S
C2909 C2907 1.327 . S
C2910 C2898 1.349 . S
C2910 H2904 0.950 . S
C2910 C2911 1.327 . S
C2911 H2905 0.950 . S
C2911 C2910 1.327 . S
C2911 C2915 1.429 . S
C2912 C2895 1.574 1_455 S
C2912 H2906 0.949 . S
C2912 C2916 1.368 . S
C2913 C2894 1.429 . S
C2913 C2907 1.429 . S
C2913 C2914 1.523 . S
C2914 C2895 1.368 . S
C2914 C2908 1.368 . S
C2914 C2913 1.523 . S
C2915 C2899 1.429 . S
C2915 C2911 1.429 . S
C2915 C2916 1.523 . S
C2916 C2900 1.368 . S
C2916 C2912 1.368 . S
C2916 C2915 1.523 . S
H2917 C2892 0.950 . S
H2918 C2894 0.950 . S
H2919 C2895 0.949 . S
H2920 C2897 0.950 . S
H2921 C2899 0.950 . S
C2922 C2923 1.349 . S
C2922 C2924 1.327 . S
C2922 H2947 0.950 . S
C2923 C2922 1.349 . S
C2923 C2939 1.349 . S
C2924 C2922 1.327 . S
C2924 C2943 1.429 . S
C2924 H2948 0.950 . S
C2925 C2942 1.574 1_545 S
C2925 C2944 1.368 . S
C2925 H2949 0.949 . S
H2926 C2930 0.949 . S
C2927 C2928 1.349 . S
C2927 C2929 1.327 . S
C2927 H2950 0.950 . S
C2928 C2927 1.349 . S
C2928 C2940 1.349 . S
C2929 C2927 1.327 . S
C2929 C2945 1.429 . S
C2929 H2951 0.950 . S
C2930 H2926 0.949 . S
C2930 C2938 1.574 1_565 S
C2930 C2946 1.368 . S
H2931 C2939 0.950 . S
H2932 C2937 0.950 . S
H2933 C2938 0.949 . S
H2934 C2940 0.950 . S
H2935 C2941 0.950 . S
H2936 C2942 0.949 . S
C2937 H2932 0.950 . S
C2937 C2939 1.327 . S
C2937 C2943 1.429 . S
C2938 C2930 1.574 1_545 S
C2938 H2933 0.949 . S
C2938 C2944 1.368 . S
C2939 C2923 1.349 . S
C2939 H2931 0.950 . S
C2939 C2937 1.327 . S
C2940 C2928 1.349 . S
C2940 H2934 0.950 . S
C2940 C2941 1.327 . S
C2941 H2935 0.950 . S
C2941 C2940 1.327 . S
C2941 C2945 1.429 . S
C2942 C2925 1.574 1_565 S
C2942 H2936 0.949 . S
C2942 C2946 1.368 . S
C2943 C2924 1.429 . S
C2943 C2937 1.429 . S
C2943 C2944 1.523 . S
C2944 C2925 1.368 . S
C2944 C2938 1.368 . S
C2944 C2943 1.523 . S
C2945 C2929 1.429 . S
C2945 C2941 1.429 . S
C2945 C2946 1.523 . S
C2946 C2930 1.368 . S
C2946 C2942 1.368 . S
C2946 C2945 1.523 . S
H2947 C2922 0.950 . S
H2948 C2924 0.950 . S
H2949 C2925 0.949 . S
H2950 C2927 0.950 . S
H2951 C2929 0.950 . S
C2952 C2953 1.349 . S
C2952 C2954 1.327 . S
C2952 H2977 0.950 . S
C2953 C2952 1.349 . S
C2953 C2969 1.349 . S
C2954 C2952 1.327 . S
C2954 C2973 1.429 . S
C2954 H2978 0.950 . S
C2955 C2972 1.574 1_565 S
C2955 C2974 1.368 . S
C2955 H2979 0.949 . S
H2956 C2960 0.949 . S
C2957 C2958 1.349 . S
C2957 C2959 1.327 . S
C2957 H2980 0.950 . S
C2958 C2957 1.349 . S
C2958 C2970 1.349 . S
C2959 C2957 1.327 . S
C2959 C2975 1.429 . S
C2959 H2981 0.950 . S
C2960 H2956 0.949 . S
C2960 C2968 1.574 1_545 S
C2960 C2976 1.368 . S
H2961 C2969 0.950 . S
H2962 C2967 0.950 . S
H2963 C2968 0.949 . S
H2964 C2970 0.950 . S
H2965 C2971 0.950 . S
H2966 C2972 0.949 . S
C2967 H2962 0.950 . S
C2967 C2969 1.327 . S
C2967 C2973 1.429 . S
C2968 C2960 1.574 1_565 S
C2968 H2963 0.949 . S
C2968 C2974 1.368 . S
C2969 C2953 1.349 . S
C2969 H2961 0.950 . S
C2969 C2967 1.327 . S
C2970 C2958 1.349 . S
C2970 H2964 0.950 . S
C2970 C2971 1.327 . S
C2971 H2965 0.950 . S
C2971 C2970 1.327 . S
C2971 C2975 1.429 . S
C2972 C2955 1.574 1_545 S
C2972 H2966 0.949 . S
C2972 C2976 1.368 . S
C2973 C2954 1.429 . S
C2973 C2967 1.429 . S
C2973 C2974 1.523 . S
C2974 C2955 1.368 . S
C2974 C2968 1.368 . S
C2974 C2973 1.523 . S
C2975 C2959 1.429 . S
C2975 C2971 1.429 . S
C2975 C2976 1.523 . S
C2976 C2960 1.368 . S
C2976 C2972 1.368 . S
C2976 C2975 1.523 . S
H2977 C2952 0.950 . S
H2978 C2954 0.950 . S
H2979 C2955 0.949 . S
H2980 C2957 0.950 . S
H2981 C2959 0.950 . S
C2982 C2983 1.349 . S
C2982 C2984 1.327 . S
C2982 H3007 0.950 . S
C2983 C2982 1.349 . S
C2983 C2999 1.349 . S
C2984 C2982 1.327 . S
C2984 C3003 1.429 . S
C2984 H3008 0.950 . S
C2985 C3002 1.574 1_655 S
C2985 C3004 1.368 . S
C2985 H3009 0.949 . S
H2986 C2990 0.949 . S
C2987 C2988 1.349 . S
C2987 C2989 1.327 . S
C2987 H3010 0.950 . S
C2988 C2987 1.349 . S
C2988 C3000 1.349 . S
C2989 C2987 1.327 . S
C2989 C3005 1.429 . S
C2989 H3011 0.950 . S
C2990 H2986 0.949 . S
C2990 C2998 1.574 1_455 S
C2990 C3006 1.368 . S
H2991 C2999 0.950 . S
H2992 C2997 0.950 . S
H2993 C2998 0.949 . S
H2994 C3000 0.950 . S
H2995 C3001 0.950 . S
H2996 C3002 0.949 . S
C2997 H2992 0.950 . S
C2997 C2999 1.327 . S
C2997 C3003 1.429 . S
C2998 C2990 1.574 1_655 S
C2998 H2993 0.949 . S
C2998 C3004 1.368 . S
C2999 C2983 1.349 . S
C2999 H2991 0.950 . S
C2999 C2997 1.327 . S
C3000 C2988 1.349 . S
C3000 H2994 0.950 . S
C3000 C3001 1.327 . S
C3001 H2995 0.950 . S
C3001 C3000 1.327 . S
C3001 C3005 1.429 . S
C3002 C2985 1.574 1_455 S
C3002 H2996 0.949 . S
C3002 C3006 1.368 . S
C3003 C2984 1.429 . S
C3003 C2997 1.429 . S
C3003 C3004 1.523 . S
C3004 C2985 1.368 . S
C3004 C2998 1.368 . S
C3004 C3003 1.523 . S
C3005 C2989 1.429 . S
C3005 C3001 1.429 . S
C3005 C3006 1.523 . S
C3006 C2990 1.368 . S
C3006 C3002 1.368 . S
C3006 C3005 1.523 . S
H3007 C2982 0.950 . S
H3008 C2984 0.950 . S
H3009 C2985 0.949 . S
H3010 C2987 0.950 . S
H3011 C2989 0.950 . S
C3012 C3013 1.349 . S
C3012 C3014 1.327 . S
C3012 H3037 0.950 . S
C3013 C3012 1.349 . S
C3013 C3029 1.349 . S
C3014 C3012 1.327 . S
C3014 C3033 1.429 . S
C3014 H3038 0.950 . S
C3015 C3032 1.574 1_565 S
C3015 C3034 1.368 . S
C3015 H3039 0.949 . S
H3016 C3020 0.949 . S
C3017 C3018 1.349 . S
C3017 C3019 1.327 . S
C3017 H3040 0.950 . S
C3018 C3017 1.349 . S
C3018 C3030 1.349 . S
C3019 C3017 1.327 . S
C3019 C3035 1.429 . S
C3019 H3041 0.950 . S
C3020 H3016 0.949 . S
C3020 C3028 1.574 1_545 S
C3020 C3036 1.368 . S
H3021 C3029 0.950 . S
H3022 C3027 0.950 . S
H3023 C3028 0.949 . S
H3024 C3030 0.950 . S
H3025 C3031 0.950 . S
H3026 C3032 0.949 . S
C3027 H3022 0.950 . S
C3027 C3029 1.327 . S
C3027 C3033 1.429 . S
C3028 C3020 1.574 1_565 S
C3028 H3023 0.949 . S
C3028 C3034 1.368 . S
C3029 C3013 1.349 . S
C3029 H3021 0.950 . S
C3029 C3027 1.327 . S
C3030 C3018 1.349 . S
C3030 H3024 0.950 . S
C3030 C3031 1.327 . S
C3031 H3025 0.950 . S
C3031 C3030 1.327 . S
C3031 C3035 1.429 . S
C3032 C3015 1.574 1_545 S
C3032 H3026 0.949 . S
C3032 C3036 1.368 . S
C3033 C3014 1.429 . S
C3033 C3027 1.429 . S
C3033 C3034 1.523 . S
C3034 C3015 1.368 . S
C3034 C3028 1.368 . S
C3034 C3033 1.523 . S
C3035 C3019 1.429 . S
C3035 C3031 1.429 . S
C3035 C3036 1.523 . S
C3036 C3020 1.368 . S
C3036 C3032 1.368 . S
C3036 C3035 1.523 . S
H3037 C3012 0.950 . S
H3038 C3014 0.950 . S
H3039 C3015 0.949 . S
H3040 C3017 0.950 . S
H3041 C3019 0.950 . S
C3042 C3043 1.349 . S
C3042 C3044 1.327 . S
C3042 H3067 0.950 . S
C3043 C3042 1.349 . S
C3043 C3059 1.349 . S
C3044 C3042 1.327 . S
C3044 C3063 1.429 . S
C3044 H3068 0.950 . S
C3045 C3062 1.574 1_655 S
C3045 C3064 1.368 . S
C3045 H3069 0.949 . S
H3046 C3050 0.949 . S
C3047 C3048 1.349 . S
C3047 C3049 1.327 . S
C3047 H3070 0.950 . S
C3048 C3047 1.349 . S
C3048 C3060 1.349 . S
C3049 C3047 1.327 . S
C3049 C3065 1.429 . S
C3049 H3071 0.950 . S
C3050 H3046 0.949 . S
C3050 C3058 1.574 1_455 S
C3050 C3066 1.368 . S
H3051 C3059 0.950 . S
H3052 C3057 0.950 . S
H3053 C3058 0.949 . S
H3054 C3060 0.950 . S
H3055 C3061 0.950 . S
H3056 C3062 0.949 . S
C3057 H3052 0.950 . S
C3057 C3059 1.327 . S
C3057 C3063 1.429 . S
C3058 C3050 1.574 1_655 S
C3058 H3053 0.949 . S
C3058 C3064 1.368 . S
C3059 C3043 1.349 . S
C3059 H3051 0.950 . S
C3059 C3057 1.327 . S
C3060 C3048 1.349 . S
C3060 H3054 0.950 . S
C3060 C3061 1.327 . S
C3061 H3055 0.950 . S
C3061 C3060 1.327 . S
C3061 C3065 1.429 . S
C3062 C3045 1.574 1_455 S
C3062 H3056 0.949 . S
C3062 C3066 1.368 . S
C3063 C3044 1.429 . S
C3063 C3057 1.429 . S
C3063 C3064 1.523 . S
C3064 C3045 1.368 . S
C3064 C3058 1.368 . S
C3064 C3063 1.523 . S
C3065 C3049 1.429 . S
C3065 C3061 1.429 . S
C3065 C3066 1.523 . S
C3066 C3050 1.368 . S
C3066 C3062 1.368 . S
C3066 C3065 1.523 . S
H3067 C3042 0.950 . S
H3068 C3044 0.950 . S
H3069 C3045 0.949 . S
H3070 C3047 0.950 . S
H3071 C3049 0.950 . S
C3072 C3073 1.349 . S
C3072 C3074 1.327 . S
C3072 H3097 0.950 . S
C3073 C3072 1.349 . S
C3073 C3089 1.349 . S
C3074 C3072 1.327 . S
C3074 C3093 1.429 . S
C3074 H3098 0.950 . S
C3075 C3092 1.574 1_556 S
C3075 C3094 1.368 . S
C3075 H3099 0.949 . S
H3076 C3080 0.949 . S
C3077 C3078 1.349 . S
C3077 C3079 1.327 . S
C3077 H3100 0.950 . S
C3078 C3077 1.349 . S
C3078 C3090 1.349 . S
C3079 C3077 1.327 . S
C3079 C3095 1.429 . S
C3079 H3101 0.950 . S
C3080 H3076 0.949 . S
C3080 C3088 1.574 1_554 S
C3080 C3096 1.368 . S
H3081 C3089 0.950 . S
H3082 C3087 0.950 . S
H3083 C3088 0.949 . S
H3084 C3090 0.950 . S
H3085 C3091 0.950 . S
H3086 C3092 0.949 . S
C3087 H3082 0.950 . S
C3087 C3089 1.327 . S
C3087 C3093 1.429 . S
C3088 C3080 1.574 1_556 S
C3088 H3083 0.949 . S
C3088 C3094 1.368 . S
C3089 C3073 1.349 . S
C3089 H3081 0.950 . S
C3089 C3087 1.327 . S
C3090 C3078 1.349 . S
C3090 H3084 0.950 . S
C3090 C3091 1.327 . S
C3091 H3085 0.950 . S
C3091 C3090 1.327 . S
C3091 C3095 1.429 . S
C3092 C3075 1.574 1_554 S
C3092 H3086 0.949 . S
C3092 C3096 1.368 . S
C3093 C3074 1.429 . S
C3093 C3087 1.429 . S
C3093 C3094 1.523 . S
C3094 C3075 1.368 . S
C3094 C3088 1.368 . S
C3094 C3093 1.523 . S
C3095 C3079 1.429 . S
C3095 C3091 1.429 . S
C3095 C3096 1.523 . S
C3096 C3080 1.368 . S
C3096 C3092 1.368 . S
C3096 C3095 1.523 . S
H3097 C3072 0.950 . S
H3098 C3074 0.950 . S
H3099 C3075 0.949 . S
H3100 C3077 0.950 . S
H3101 C3079 0.950 . S
C3102 C3103 1.349 . S
C3102 C3104 1.327 . S
C3102 H3127 0.950 . S
C3103 C3102 1.349 . S
C3103 C3119 1.349 . S
C3104 C3102 1.327 . S
C3104 C3123 1.429 . S
C3104 H3128 0.950 . S
C3105 C3122 1.574 1_556 S
C3105 C3124 1.368 . S
C3105 H3129 0.949 . S
H3106 C3110 0.949 . S
C3107 C3108 1.349 . S
C3107 C3109 1.327 . S
C3107 H3130 0.950 . S
C3108 C3107 1.349 . S
C3108 C3120 1.349 . S
C3109 C3107 1.327 . S
C3109 C3125 1.429 . S
C3109 H3131 0.950 . S
C3110 H3106 0.949 . S
C3110 C3118 1.574 1_554 S
C3110 C3126 1.368 . S
H3111 C3119 0.950 . S
H3112 C3117 0.950 . S
H3113 C3118 0.949 . S
H3114 C3120 0.950 . S
H3115 C3121 0.950 . S
H3116 C3122 0.949 . S
C3117 H3112 0.950 . S
C3117 C3119 1.327 . S
C3117 C3123 1.429 . S
C3118 C3110 1.574 1_556 S
C3118 H3113 0.949 . S
C3118 C3124 1.368 . S
C3119 C3103 1.349 . S
C3119 H3111 0.950 . S
C3119 C3117 1.327 . S
C3120 C3108 1.349 . S
C3120 H3114 0.950 . S
C3120 C3121 1.327 . S
C3121 H3115 0.950 . S
C3121 C3120 1.327 . S
C3121 C3125 1.429 . S
C3122 C3105 1.574 1_554 S
C3122 H3116 0.949 . S
C3122 C3126 1.368 . S
C3123 C3104 1.429 . S
C3123 C3117 1.429 . S
C3123 C3124 1.523 . S
C3124 C3105 1.368 . S
C3124 C3118 1.368 . S
C3124 C3123 1.523 . S
C3125 C3109 1.429 . S
C3125 C3121 1.429 . S
C3125 C3126 1.523 . S
C3126 C3110 1.368 . S
C3126 C3122 1.368 . S
C3126 C3125 1.523 . S
H3127 C3102 0.950 . S
H3128 C3104 0.950 . S
H3129 C3105 0.949 . S
H3130 C3107 0.950 . S
H3131 C3109 0.950 . S
C3132 C3133 1.349 . S
C3132 C3134 1.327 . S
C3132 H3157 0.950 . S
C3133 C3132 1.349 . S
C3133 C3149 1.349 . S
C3134 C3132 1.327 . S
C3134 C3153 1.429 . S
C3134 H3158 0.950 . S
C3135 C3152 1.574 1_556 S
C3135 C3154 1.368 . S
C3135 H3159 0.949 . S
H3136 C3140 0.949 . S
C3137 C3138 1.349 . S
C3137 C3139 1.327 . S
C3137 H3160 0.950 . S
C3138 C3137 1.349 . S
C3138 C3150 1.349 . S
C3139 C3137 1.327 . S
C3139 C3155 1.429 . S
C3139 H3161 0.950 . S
C3140 H3136 0.949 . S
C3140 C3148 1.574 1_554 S
C3140 C3156 1.368 . S
H3141 C3149 0.950 . S
H3142 C3147 0.950 . S
H3143 C3148 0.949 . S
H3144 C3150 0.950 . S
H3145 C3151 0.950 . S
H3146 C3152 0.949 . S
C3147 H3142 0.950 . S
C3147 C3149 1.327 . S
C3147 C3153 1.429 . S
C3148 C3140 1.574 1_556 S
C3148 H3143 0.949 . S
C3148 C3154 1.368 . S
C3149 C3133 1.349 . S
C3149 H3141 0.950 . S
C3149 C3147 1.327 . S
C3150 C3138 1.349 . S
C3150 H3144 0.950 . S
C3150 C3151 1.327 . S
C3151 H3145 0.950 . S
C3151 C3150 1.327 . S
C3151 C3155 1.429 . S
C3152 C3135 1.574 1_554 S
C3152 H3146 0.949 . S
C3152 C3156 1.368 . S
C3153 C3134 1.429 . S
C3153 C3147 1.429 . S
C3153 C3154 1.523 . S
C3154 C3135 1.368 . S
C3154 C3148 1.368 . S
C3154 C3153 1.523 . S
C3155 C3139 1.429 . S
C3155 C3151 1.429 . S
C3155 C3156 1.523 . S
C3156 C3140 1.368 . S
C3156 C3152 1.368 . S
C3156 C3155 1.523 . S
H3157 C3132 0.950 . S
H3158 C3134 0.950 . S
H3159 C3135 0.949 . S
H3160 C3137 0.950 . S
H3161 C3139 0.950 . S
C3162 C3163 1.349 . S
C3162 C3164 1.327 . S
C3162 H3187 0.950 . S
C3163 C3162 1.349 . S
C3163 C3179 1.349 . S
C3164 C3162 1.327 . S
C3164 C3183 1.429 . S
C3164 H3188 0.950 . S
C3165 C3182 1.574 1_556 S
C3165 C3184 1.368 . S
C3165 H3189 0.949 . S
H3166 C3170 0.949 . S
C3167 C3168 1.349 . S
C3167 C3169 1.327 . S
C3167 H3190 0.950 . S
C3168 C3167 1.349 . S
C3168 C3180 1.349 . S
C3169 C3167 1.327 . S
C3169 C3185 1.429 . S
C3169 H3191 0.950 . S
C3170 H3166 0.949 . S
C3170 C3178 1.574 1_554 S
C3170 C3186 1.368 . S
H3171 C3179 0.950 . S
H3172 C3177 0.950 . S
H3173 C3178 0.949 . S
H3174 C3180 0.950 . S
H3175 C3181 0.950 . S
H3176 C3182 0.949 . S
C3177 H3172 0.950 . S
C3177 C3179 1.327 . S
C3177 C3183 1.429 . S
C3178 C3170 1.574 1_556 S
C3178 H3173 0.949 . S
C3178 C3184 1.368 . S
C3179 C3163 1.349 . S
C3179 H3171 0.950 . S
C3179 C3177 1.327 . S
C3180 C3168 1.349 . S
C3180 H3174 0.950 . S
C3180 C3181 1.327 . S
C3181 H3175 0.950 . S
C3181 C3180 1.327 . S
C3181 C3185 1.429 . S
C3182 C3165 1.574 1_554 S
C3182 H3176 0.949 . S
C3182 C3186 1.368 . S
C3183 C3164 1.429 . S
C3183 C3177 1.429 . S
C3183 C3184 1.523 . S
C3184 C3165 1.368 . S
C3184 C3178 1.368 . S
C3184 C3183 1.523 . S
C3185 C3169 1.429 . S
C3185 C3181 1.429 . S
C3185 C3186 1.523 . S
C3186 C3170 1.368 . S
C3186 C3182 1.368 . S
C3186 C3185 1.523 . S
H3187 C3162 0.950 . S
H3188 C3164 0.950 . S
H3189 C3165 0.949 . S
H3190 C3167 0.950 . S
H3191 C3169 0.950 . S
C3192 C3193 1.349 . S
C3192 C3194 1.327 . S
C3192 H3217 0.950 . S
C3193 C3192 1.349 . S
C3193 C3209 1.349 . S
C3194 C3192 1.327 . S
C3194 C3213 1.429 . S
C3194 H3218 0.950 . S
C3195 C3212 1.574 . S
C3195 C3214 1.368 . S
C3195 H3219 0.949 . S
H3196 C3200 0.949 . S
C3197 C3198 1.349 . S
C3197 C3199 1.327 . S
C3197 H3220 0.950 . S
C3198 C3197 1.349 . S
C3198 C3210 1.349 . S
C3199 C3197 1.327 . S
C3199 C3215 1.429 . S
C3199 H3221 0.950 . S
C3200 H3196 0.949 . S
C3200 C3208 1.574 . S
C3200 C3216 1.368 . S
H3201 C3209 0.950 . S
H3202 C3207 0.950 . S
H3203 C3208 0.949 . S
H3204 C3210 0.950 . S
H3205 C3211 0.950 . S
H3206 C3212 0.949 . S
C3207 H3202 0.950 . S
C3207 C3209 1.327 . S
C3207 C3213 1.429 . S
C3208 C3200 1.574 . S
C3208 H3203 0.949 . S
C3208 C3214 1.368 . S
C3209 C3193 1.349 . S
C3209 H3201 0.950 . S
C3209 C3207 1.327 . S
C3210 C3198 1.349 . S
C3210 H3204 0.950 . S
C3210 C3211 1.327 . S
C3211 H3205 0.950 . S
C3211 C3210 1.327 . S
C3211 C3215 1.429 . S
C3212 C3195 1.574 . S
C3212 H3206 0.949 . S
C3212 C3216 1.368 . S
C3213 C3194 1.429 . S
C3213 C3207 1.429 . S
C3213 C3214 1.523 . S
C3214 C3195 1.368 . S
C3214 C3208 1.368 . S
C3214 C3213 1.523 . S
C3215 C3199 1.429 . S
C3215 C3211 1.429 . S
C3215 C3216 1.523 . S
C3216 C3200 1.368 . S
C3216 C3212 1.368 . S
C3216 C3215 1.523 . S
H3217 C3192 0.950 . S
H3218 C3194 0.950 . S
H3219 C3195 0.949 . S
H3220 C3197 0.950 . S
H3221 C3199 0.950 . S
C3222 C3223 1.349 . S
C3222 C3224 1.327 . S
C3222 H3247 0.950 . S
C3223 C3222 1.349 . S
C3223 C3239 1.349 . S
C3224 C3222 1.327 . S
C3224 C3243 1.429 . S
C3224 H3248 0.950 . S
C3225 C3242 1.574 . S
C3225 C3244 1.368 . S
C3225 H3249 0.949 . S
H3226 C3230 0.949 . S
C3227 C3228 1.349 . S
C3227 C3229 1.327 . S
C3227 H3250 0.950 . S
C3228 C3227 1.349 . S
C3228 C3240 1.349 . S
C3229 C3227 1.327 . S
C3229 C3245 1.429 . S
C3229 H3251 0.950 . S
C3230 H3226 0.949 . S
C3230 C3238 1.574 . S
C3230 C3246 1.368 . S
H3231 C3239 0.950 . S
H3232 C3237 0.950 . S
H3233 C3238 0.949 . S
H3234 C3240 0.950 . S
H3235 C3241 0.950 . S
H3236 C3242 0.949 . S
C3237 H3232 0.950 . S
C3237 C3239 1.327 . S
C3237 C3243 1.429 . S
C3238 C3230 1.574 . S
C3238 H3233 0.949 . S
C3238 C3244 1.368 . S
C3239 C3223 1.349 . S
C3239 H3231 0.950 . S
C3239 C3237 1.327 . S
C3240 C3228 1.349 . S
C3240 H3234 0.950 . S
C3240 C3241 1.327 . S
C3241 H3235 0.950 . S
C3241 C3240 1.327 . S
C3241 C3245 1.429 . S
C3242 C3225 1.574 . S
C3242 H3236 0.949 . S
C3242 C3246 1.368 . S
C3243 C3224 1.429 . S
C3243 C3237 1.429 . S
C3243 C3244 1.523 . S
C3244 C3225 1.368 . S
C3244 C3238 1.368 . S
C3244 C3243 1.523 . S
C3245 C3229 1.429 . S
C3245 C3241 1.429 . S
C3245 C3246 1.523 . S
C3246 C3230 1.368 . S
C3246 C3242 1.368 . S
C3246 C3245 1.523 . S
H3247 C3222 0.950 . S
H3248 C3224 0.950 . S
H3249 C3225 0.949 . S
H3250 C3227 0.950 . S
H3251 C3229 0.950 . S
C3252 C3253 1.349 . S
C3252 C3254 1.327 . S
C3252 H3277 0.950 . S
C3253 C3252 1.349 . S
C3253 C3269 1.349 . S
C3254 C3252 1.327 . S
C3254 C3273 1.429 . S
C3254 H3278 0.950 . S
C3255 C3272 1.574 . S
C3255 C3274 1.368 . S
C3255 H3279 0.949 . S
H3256 C3260 0.949 . S
C3257 C3258 1.349 . S
C3257 C3259 1.327 . S
C3257 H3280 0.950 . S
C3258 C3257 1.349 . S
C3258 C3270 1.349 . S
C3259 C3257 1.327 . S
C3259 C3275 1.429 . S
C3259 H3281 0.950 . S
C3260 H3256 0.949 . S
C3260 C3268 1.574 . S
C3260 C3276 1.368 . S
H3261 C3269 0.950 . S
H3262 C3267 0.950 . S
H3263 C3268 0.949 . S
H3264 C3270 0.950 . S
H3265 C3271 0.950 . S
H3266 C3272 0.949 . S
C3267 H3262 0.950 . S
C3267 C3269 1.327 . S
C3267 C3273 1.429 . S
C3268 C3260 1.574 . S
C3268 H3263 0.949 . S
C3268 C3274 1.368 . S
C3269 C3253 1.349 . S
C3269 H3261 0.950 . S
C3269 C3267 1.327 . S
C3270 C3258 1.349 . S
C3270 H3264 0.950 . S
C3270 C3271 1.327 . S
C3271 H3265 0.950 . S
C3271 C3270 1.327 . S
C3271 C3275 1.429 . S
C3272 C3255 1.574 . S
C3272 H3266 0.949 . S
C3272 C3276 1.368 . S
C3273 C3254 1.429 . S
C3273 C3267 1.429 . S
C3273 C3274 1.523 . S
C3274 C3255 1.368 . S
C3274 C3268 1.368 . S
C3274 C3273 1.523 . S
C3275 C3259 1.429 . S
C3275 C3271 1.429 . S
C3275 C3276 1.523 . S
C3276 C3260 1.368 . S
C3276 C3272 1.368 . S
C3276 C3275 1.523 . S
H3277 C3252 0.950 . S
H3278 C3254 0.950 . S
H3279 C3255 0.949 . S
H3280 C3257 0.950 . S
H3281 C3259 0.950 . S
C3282 C3283 1.349 . S
C3282 C3284 1.327 . S
C3282 H3307 0.950 . S
C3283 C3282 1.349 . S
C3283 C3299 1.349 . S
C3284 C3282 1.327 . S
C3284 C3303 1.429 . S
C3284 H3308 0.950 . S
C3285 C3302 1.574 . S
C3285 C3304 1.368 . S
C3285 H3309 0.949 . S
H3286 C3290 0.949 . S
C3287 C3288 1.349 . S
C3287 C3289 1.327 . S
C3287 H3310 0.950 . S
C3288 C3287 1.349 . S
C3288 C3300 1.349 . S
C3289 C3287 1.327 . S
C3289 C3305 1.429 . S
C3289 H3311 0.950 . S
C3290 H3286 0.949 . S
C3290 C3298 1.574 . S
C3290 C3306 1.368 . S
H3291 C3299 0.950 . S
H3292 C3297 0.950 . S
H3293 C3298 0.949 . S
H3294 C3300 0.950 . S
H3295 C3301 0.950 . S
H3296 C3302 0.949 . S
C3297 H3292 0.950 . S
C3297 C3299 1.327 . S
C3297 C3303 1.429 . S
C3298 C3290 1.574 . S
C3298 H3293 0.949 . S
C3298 C3304 1.368 . S
C3299 C3283 1.349 . S
C3299 H3291 0.950 . S
C3299 C3297 1.327 . S
C3300 C3288 1.349 . S
C3300 H3294 0.950 . S
C3300 C3301 1.327 . S
C3301 H3295 0.950 . S
C3301 C3300 1.327 . S
C3301 C3305 1.429 . S
C3302 C3285 1.574 . S
C3302 H3296 0.949 . S
C3302 C3306 1.368 . S
C3303 C3284 1.429 . S
C3303 C3297 1.429 . S
C3303 C3304 1.523 . S
C3304 C3285 1.368 . S
C3304 C3298 1.368 . S
C3304 C3303 1.523 . S
C3305 C3289 1.429 . S
C3305 C3301 1.429 . S
C3305 C3306 1.523 . S
C3306 C3290 1.368 . S
C3306 C3302 1.368 . S
C3306 C3305 1.523 . S
H3307 C3282 0.950 . S
H3308 C3284 0.950 . S
H3309 C3285 0.949 . S
H3310 C3287 0.950 . S
H3311 C3289 0.950 . S
C3312 C3313 1.349 . S
C3312 C3314 1.327 . S
C3312 H3337 0.950 . S
C3313 C3312 1.349 . S
C3313 C3329 1.349 . S
C3314 C3312 1.327 . S
C3314 C3333 1.429 . S
C3314 H3338 0.950 . S
C3315 C3332 1.574 . S
C3315 C3334 1.368 . S
C3315 H3339 0.949 . S
H3316 C3320 0.949 . S
C3317 C3318 1.349 . S
C3317 C3319 1.327 . S
C3317 H3340 0.950 . S
C3318 C3317 1.349 . S
C3318 C3330 1.349 . S
C3319 C3317 1.327 . S
C3319 C3335 1.429 . S
C3319 H3341 0.950 . S
C3320 H3316 0.949 . S
C3320 C3328 1.574 . S
C3320 C3336 1.368 . S
H3321 C3329 0.950 . S
H3322 C3327 0.950 . S
H3323 C3328 0.949 . S
H3324 C3330 0.950 . S
H3325 C3331 0.950 . S
H3326 C3332 0.949 . S
C3327 H3322 0.950 . S
C3327 C3329 1.327 . S
C3327 C3333 1.429 . S
C3328 C3320 1.574 . S
C3328 H3323 0.949 . S
C3328 C3334 1.368 . S
C3329 C3313 1.349 . S
C3329 H3321 0.950 . S
C3329 C3327 1.327 . S
C3330 C3318 1.349 . S
C3330 H3324 0.950 . S
C3330 C3331 1.327 . S
C3331 H3325 0.950 . S
C3331 C3330 1.327 . S
C3331 C3335 1.429 . S
C3332 C3315 1.574 . S
C3332 H3326 0.949 . S
C3332 C3336 1.368 . S
C3333 C3314 1.429 . S
C3333 C3327 1.429 . S
C3333 C3334 1.523 . S
C3334 C3315 1.368 . S
C3334 C3328 1.368 . S
C3334 C3333 1.523 . S
C3335 C3319 1.429 . S
C3335 C3331 1.429 . S
C3335 C3336 1.523 . S
C3336 C3320 1.368 . S
C3336 C3332 1.368 . S
C3336 C3335 1.523 . S
H3337 C3312 0.950 . S
H3338 C3314 0.950 . S
H3339 C3315 0.949 . S
H3340 C3317 0.950 . S
H3341 C3319 0.950 . S
C3342 C3343 1.349 . S
C3342 C3344 1.327 . S
C3342 H3367 0.950 . S
C3343 C3342 1.349 . S
C3343 C3359 1.349 . S
C3344 C3342 1.327 . S
C3344 C3363 1.429 . S
C3344 H3368 0.950 . S
C3345 C3362 1.574 . S
C3345 C3364 1.368 . S
C3345 H3369 0.949 . S
H3346 C3350 0.949 . S
C3347 C3348 1.349 . S
C3347 C3349 1.327 . S
C3347 H3370 0.950 . S
C3348 C3347 1.349 . S
C3348 C3360 1.349 . S
C3349 C3347 1.327 . S
C3349 C3365 1.429 . S
C3349 H3371 0.950 . S
C3350 H3346 0.949 . S
C3350 C3358 1.574 . S
C3350 C3366 1.368 . S
H3351 C3359 0.950 . S
H3352 C3357 0.950 . S
H3353 C3358 0.949 . S
H3354 C3360 0.950 . S
H3355 C3361 0.950 . S
H3356 C3362 0.949 . S
C3357 H3352 0.950 . S
C3357 C3359 1.327 . S
C3357 C3363 1.429 . S
C3358 C3350 1.574 . S
C3358 H3353 0.949 . S
C3358 C3364 1.368 . S
C3359 C3343 1.349 . S
C3359 H3351 0.950 . S
C3359 C3357 1.327 . S
C3360 C3348 1.349 . S
C3360 H3354 0.950 . S
C3360 C3361 1.327 . S
C3361 H3355 0.950 . S
C3361 C3360 1.327 . S
C3361 C3365 1.429 . S
C3362 C3345 1.574 . S
C3362 H3356 0.949 . S
C3362 C3366 1.368 . S
C3363 C3344 1.429 . S
C3363 C3357 1.429 . S
C3363 C3364 1.523 . S
C3364 C3345 1.368 . S
C3364 C3358 1.368 . S
C3364 C3363 1.523 . S
C3365 C3349 1.429 . S
C3365 C3361 1.429 . S
C3365 C3366 1.523 . S
C3366 C3350 1.368 . S
C3366 C3362 1.368 . S
C3366 C3365 1.523 . S
H3367 C3342 0.950 . S
H3368 C3344 0.950 . S
H3369 C3345 0.949 . S
H3370 C3347 0.950 . S
H3371 C3349 0.950 . S
C3372 C3373 1.349 . S
C3372 C3374 1.327 . S
C3372 H3397 0.950 . S
C3373 C3372 1.349 . S
C3373 C3389 1.349 . S
C3374 C3372 1.327 . S
C3374 C3393 1.429 . S
C3374 H3398 0.950 . S
C3375 C3392 1.574 . S
C3375 C3394 1.368 . S
C3375 H3399 0.949 . S
H3376 C3380 0.949 . S
C3377 C3378 1.349 . S
C3377 C3379 1.327 . S
C3377 H3400 0.950 . S
C3378 C3377 1.349 . S
C3378 C3390 1.349 . S
C3379 C3377 1.327 . S
C3379 C3395 1.429 . S
C3379 H3401 0.950 . S
C3380 H3376 0.949 . S
C3380 C3388 1.574 . S
C3380 C3396 1.368 . S
H3381 C3389 0.950 . S
H3382 C3387 0.950 . S
H3383 C3388 0.949 . S
H3384 C3390 0.950 . S
H3385 C3391 0.950 . S
H3386 C3392 0.949 . S
C3387 H3382 0.950 . S
C3387 C3389 1.327 . S
C3387 C3393 1.429 . S
C3388 C3380 1.574 . S
C3388 H3383 0.949 . S
C3388 C3394 1.368 . S
C3389 C3373 1.349 . S
C3389 H3381 0.950 . S
C3389 C3387 1.327 . S
C3390 C3378 1.349 . S
C3390 H3384 0.950 . S
C3390 C3391 1.327 . S
C3391 H3385 0.950 . S
C3391 C3390 1.327 . S
C3391 C3395 1.429 . S
C3392 C3375 1.574 . S
C3392 H3386 0.949 . S
C3392 C3396 1.368 . S
C3393 C3374 1.429 . S
C3393 C3387 1.429 . S
C3393 C3394 1.523 . S
C3394 C3375 1.368 . S
C3394 C3388 1.368 . S
C3394 C3393 1.523 . S
C3395 C3379 1.429 . S
C3395 C3391 1.429 . S
C3395 C3396 1.523 . S
C3396 C3380 1.368 . S
C3396 C3392 1.368 . S
C3396 C3395 1.523 . S
H3397 C3372 0.950 . S
H3398 C3374 0.950 . S
H3399 C3375 0.949 . S
H3400 C3377 0.950 . S
H3401 C3379 0.950 . S
C3402 C3403 1.349 . S
C3402 C3404 1.327 . S
C3402 H3427 0.950 . S
C3403 C3402 1.349 . S
C3403 C3419 1.349 . S
C3404 C3402 1.327 . S
C3404 C3423 1.429 . S
C3404 H3428 0.950 . S
C3405 C3422 1.574 . S
C3405 C3424 1.368 . S
C3405 H3429 0.949 . S
H3406 C3410 0.949 . S
C3407 C3408 1.349 . S
C3407 C3409 1.327 . S
C3407 H3430 0.950 . S
C3408 C3407 1.349 . S
C3408 C3420 1.349 . S
C3409 C3407 1.327 . S
C3409 C3425 1.429 . S
C3409 H3431 0.950 . S
C3410 H3406 0.949 . S
C3410 C3418 1.574 . S
C3410 C3426 1.368 . S
H3411 C3419 0.950 . S
H3412 C3417 0.950 . S
H3413 C3418 0.949 . S
H3414 C3420 0.950 . S
H3415 C3421 0.950 . S
H3416 C3422 0.949 . S
C3417 H3412 0.950 . S
C3417 C3419 1.327 . S
C3417 C3423 1.429 . S
C3418 C3410 1.574 . S
C3418 H3413 0.949 . S
C3418 C3424 1.368 . S
C3419 C3403 1.349 . S
C3419 H3411 0.950 . S
C3419 C3417 1.327 . S
C3420 C3408 1.349 . S
C3420 H3414 0.950 . S
C3420 C3421 1.327 . S
C3421 H3415 0.950 . S
C3421 C3420 1.327 . S
C3421 C3425 1.429 . S
C3422 C3405 1.574 . S
C3422 H3416 0.949 . S
C3422 C3426 1.368 . S
C3423 C3404 1.429 . S
C3423 C3417 1.429 . S
C3423 C3424 1.523 . S
C3424 C3405 1.368 . S
C3424 C3418 1.368 . S
C3424 C3423 1.523 . S
C3425 C3409 1.429 . S
C3425 C3421 1.429 . S
C3425 C3426 1.523 . S
C3426 C3410 1.368 . S
C3426 C3422 1.368 . S
C3426 C3425 1.523 . S
H3427 C3402 0.950 . S
H3428 C3404 0.950 . S
H3429 C3405 0.949 . S
H3430 C3407 0.950 . S
H3431 C3409 0.950 . S
C3432 C3433 1.349 . S
C3432 C3434 1.327 . S
C3432 H3457 0.950 . S
C3433 C3432 1.349 . S
C3433 C3449 1.349 . S
C3434 C3432 1.327 . S
C3434 C3453 1.429 . S
C3434 H3458 0.950 . S
C3435 C3452 1.574 . S
C3435 C3454 1.368 . S
C3435 H3459 0.949 . S
H3436 C3440 0.949 . S
C3437 C3438 1.349 . S
C3437 C3439 1.327 . S
C3437 H3460 0.950 . S
C3438 C3437 1.349 . S
C3438 C3450 1.349 . S
C3439 C3437 1.327 . S
C3439 C3455 1.429 . S
C3439 H3461 0.950 . S
C3440 H3436 0.949 . S
C3440 C3448 1.574 . S
C3440 C3456 1.368 . S
H3441 C3449 0.950 . S
H3442 C3447 0.950 . S
H3443 C3448 0.949 . S
H3444 C3450 0.950 . S
H3445 C3451 0.950 . S
H3446 C3452 0.949 . S
C3447 H3442 0.950 . S
C3447 C3449 1.327 . S
C3447 C3453 1.429 . S
C3448 C3440 1.574 . S
C3448 H3443 0.949 . S
C3448 C3454 1.368 . S
C3449 C3433 1.349 . S
C3449 H3441 0.950 . S
C3449 C3447 1.327 . S
C3450 C3438 1.349 . S
C3450 H3444 0.950 . S
C3450 C3451 1.327 . S
C3451 H3445 0.950 . S
C3451 C3450 1.327 . S
C3451 C3455 1.429 . S
C3452 C3435 1.574 . S
C3452 H3446 0.949 . S
C3452 C3456 1.368 . S
C3453 C3434 1.429 . S
C3453 C3447 1.429 . S
C3453 C3454 1.523 . S
C3454 C3435 1.368 . S
C3454 C3448 1.368 . S
C3454 C3453 1.523 . S
C3455 C3439 1.429 . S
C3455 C3451 1.429 . S
C3455 C3456 1.523 . S
C3456 C3440 1.368 . S
C3456 C3452 1.368 . S
C3456 C3455 1.523 . S
H3457 C3432 0.950 . S
H3458 C3434 0.950 . S
H3459 C3435 0.949 . S
H3460 C3437 0.950 . S
H3461 C3439 0.950 . S
C3462 C3463 1.349 . S
C3462 C3464 1.327 . S
C3462 H3487 0.950 . S
C3463 C3462 1.349 . S
C3463 C3479 1.349 . S
C3464 C3462 1.327 . S
C3464 C3483 1.429 . S
C3464 H3488 0.950 . S
C3465 C3482 1.574 . S
C3465 C3484 1.368 . S
C3465 H3489 0.949 . S
H3466 C3470 0.949 . S
C3467 C3468 1.349 . S
C3467 C3469 1.327 . S
C3467 H3490 0.950 . S
C3468 C3467 1.349 . S
C3468 C3480 1.349 . S
C3469 C3467 1.327 . S
C3469 C3485 1.429 . S
C3469 H3491 0.950 . S
C3470 H3466 0.949 . S
C3470 C3478 1.574 . S
C3470 C3486 1.368 . S
H3471 C3479 0.950 . S
H3472 C3477 0.950 . S
H3473 C3478 0.949 . S
H3474 C3480 0.950 . S
H3475 C3481 0.950 . S
H3476 C3482 0.949 . S
C3477 H3472 0.950 . S
C3477 C3479 1.327 . S
C3477 C3483 1.429 . S
C3478 C3470 1.574 . S
C3478 H3473 0.949 . S
C3478 C3484 1.368 . S
C3479 C3463 1.349 . S
C3479 H3471 0.950 . S
C3479 C3477 1.327 . S
C3480 C3468 1.349 . S
C3480 H3474 0.950 . S
C3480 C3481 1.327 . S
C3481 H3475 0.950 . S
C3481 C3480 1.327 . S
C3481 C3485 1.429 . S
C3482 C3465 1.574 . S
C3482 H3476 0.949 . S
C3482 C3486 1.368 . S
C3483 C3464 1.429 . S
C3483 C3477 1.429 . S
C3483 C3484 1.523 . S
C3484 C3465 1.368 . S
C3484 C3478 1.368 . S
C3484 C3483 1.523 . S
C3485 C3469 1.429 . S
C3485 C3481 1.429 . S
C3485 C3486 1.523 . S
C3486 C3470 1.368 . S
C3486 C3482 1.368 . S
C3486 C3485 1.523 . S
H3487 C3462 0.950 . S
H3488 C3464 0.950 . S
H3489 C3465 0.949 . S
H3490 C3467 0.950 . S
H3491 C3469 0.950 . S
C3492 C3493 1.349 . S
C3492 C3494 1.327 . S
C3492 H3517 0.950 . S
C3493 C3492 1.349 . S
C3493 C3509 1.349 . S
C3494 C3492 1.327 . S
C3494 C3513 1.429 . S
C3494 H3518 0.950 . S
C3495 C3512 1.574 . S
C3495 C3514 1.368 . S
C3495 H3519 0.949 . S
H3496 C3500 0.949 . S
C3497 C3498 1.349 . S
C3497 C3499 1.327 . S
C3497 H3520 0.950 . S
C3498 C3497 1.349 . S
C3498 C3510 1.349 . S
C3499 C3497 1.327 . S
C3499 C3515 1.429 . S
C3499 H3521 0.950 . S
C3500 H3496 0.949 . S
C3500 C3508 1.574 . S
C3500 C3516 1.368 . S
H3501 C3509 0.950 . S
H3502 C3507 0.950 . S
H3503 C3508 0.949 . S
H3504 C3510 0.950 . S
H3505 C3511 0.950 . S
H3506 C3512 0.949 . S
C3507 H3502 0.950 . S
C3507 C3509 1.327 . S
C3507 C3513 1.429 . S
C3508 C3500 1.574 . S
C3508 H3503 0.949 . S
C3508 C3514 1.368 . S
C3509 C3493 1.349 . S
C3509 H3501 0.950 . S
C3509 C3507 1.327 . S
C3510 C3498 1.349 . S
C3510 H3504 0.950 . S
C3510 C3511 1.327 . S
C3511 H3505 0.950 . S
C3511 C3510 1.327 . S
C3511 C3515 1.429 . S
C3512 C3495 1.574 . S
C3512 H3506 0.949 . S
C3512 C3516 1.368 . S
C3513 C3494 1.429 . S
C3513 C3507 1.429 . S
C3513 C3514 1.523 . S
C3514 C3495 1.368 . S
C3514 C3508 1.368 . S
C3514 C3513 1.523 . S
C3515 C3499 1.429 . S
C3515 C3511 1.429 . S
C3515 C3516 1.523 . S
C3516 C3500 1.368 . S
C3516 C3512 1.368 . S
C3516 C3515 1.523 . S
H3517 C3492 0.950 . S
H3518 C3494 0.950 . S
H3519 C3495 0.949 . S
H3520 C3497 0.950 . S
H3521 C3499 0.950 . S
C3522 C3523 1.349 . S
C3522 C3524 1.327 . S
C3522 H3547 0.950 . S
C3523 C3522 1.349 . S
C3523 C3539 1.349 . S
C3524 C3522 1.327 . S
C3524 C3543 1.429 . S
C3524 H3548 0.950 . S
C3525 C3542 1.574 . S
C3525 C3544 1.368 . S
C3525 H3549 0.949 . S
H3526 C3530 0.949 . S
C3527 C3528 1.349 . S
C3527 C3529 1.327 . S
C3527 H3550 0.950 . S
C3528 C3527 1.349 . S
C3528 C3540 1.349 . S
C3529 C3527 1.327 . S
C3529 C3545 1.429 . S
C3529 H3551 0.950 . S
C3530 H3526 0.949 . S
C3530 C3538 1.574 . S
C3530 C3546 1.368 . S
H3531 C3539 0.950 . S
H3532 C3537 0.950 . S
H3533 C3538 0.949 . S
H3534 C3540 0.950 . S
H3535 C3541 0.950 . S
H3536 C3542 0.949 . S
C3537 H3532 0.950 . S
C3537 C3539 1.327 . S
C3537 C3543 1.429 . S
C3538 C3530 1.574 . S
C3538 H3533 0.949 . S
C3538 C3544 1.368 . S
C3539 C3523 1.349 . S
C3539 H3531 0.950 . S
C3539 C3537 1.327 . S
C3540 C3528 1.349 . S
C3540 H3534 0.950 . S
C3540 C3541 1.327 . S
C3541 H3535 0.950 . S
C3541 C3540 1.327 . S
C3541 C3545 1.429 . S
C3542 C3525 1.574 . S
C3542 H3536 0.949 . S
C3542 C3546 1.368 . S
C3543 C3524 1.429 . S
C3543 C3537 1.429 . S
C3543 C3544 1.523 . S
C3544 C3525 1.368 . S
C3544 C3538 1.368 . S
C3544 C3543 1.523 . S
C3545 C3529 1.429 . S
C3545 C3541 1.429 . S
C3545 C3546 1.523 . S
C3546 C3530 1.368 . S
C3546 C3542 1.368 . S
C3546 C3545 1.523 . S
H3547 C3522 0.950 . S
H3548 C3524 0.950 . S
H3549 C3525 0.949 . S
H3550 C3527 0.950 . S
H3551 C3529 0.950 . S
C2113 C1017 1.517 . S
C2118 C49 1.515 . S
C2143 C145 1.515 . S
C2148 C733 1.517 . S
C2173 C233 1.515 . S
C2178 C812 1.517 . S
C2203 C313 1.515 . S
C2208 C929 1.517 . S
C2233 C1164 1.517 . S
C2238 C381 1.515 . S
C2263 C460 1.515 . S
C2268 C1261 1.517 . S
C2293 C1369 1.517 . S
C2298 C557 1.515 . S
C2323 C1105 1.517 . S
C2328 C645 1.515 . S
C2353 C489 1.517 . S
C2358 C761 1.515 . S
C2383 C585 1.517 . S
C2388 C841 1.515 . S
C2413 C900 1.515 . S
C2418 C673 1.517 . S
C2443 C409 1.517 . S
C2448 C988 1.515 . S
C2473 C284 1.517 . S
C2478 C1076 1.515 . S
C2503 C1193 1.515 . S
C2508 C20 1.517 . S
C2533 C1289 1.515 . S
C2538 C117 1.517 . S
C2563 C1340 1.515 . S
C2568 C205 1.517 . S
C2593 C1457 1.515 . S
C2598 C2044 1.517 . S
C2623 C1817 1.517 . S
C2628 C1516 1.515 . S
C2653 C1604 1.515 . S
C2658 C1545 1.517 . S
C2683 C1701 1.515 . S
C2688 C1633 1.517 . S
C2713 C1729 1.517 . S
C2718 C1789 1.515 . S
C2743 C1905 1.515 . S
C2748 C1965 1.517 . S
C2773 C1428 1.517 . S
C2778 C1993 1.515 . S
C2803 C1877 1.517 . S
C2808 C2073 1.515 . S
C2833 C57 1.237 . S
C2838 C548 1.237 . S
C2863 C137 1.237 . S
C2868 C636 1.237 . S
C2893 C225 1.237 . S
C2898 C372 1.237 . S
C2923 C469 1.237 . S
C2928 C321 1.237 . S
C2953 C909 1.237 . S
C2958 C753 1.237 . S
C2983 C849 1.237 . S
C2988 C997 1.237 . S
C3013 C1085 1.237 . S
C3018 C1281 1.237 . S
C3043 C1349 1.237 . S
C3048 C1201 1.237 . S
C3073 C1525 1.237 . S
C3078 C1465 1.237 . S
C3103 C1613 1.237 . S
C3108 C2081 1.237 . S
C3133 C1692 1.237 . S
C3138 C1897 1.237 . S
C3163 C1780 1.237 . S
C3168 C1985 1.237 . S
C3193 C29 0.365 . S
C3198 C497 0.365 . S
C3223 C108 0.365 . S
C3228 C577 0.365 . S
C3253 C196 0.365 . S
C3258 C665 0.365 . S
C3283 C401 0.365 . S
C3288 C293 0.365 . S
C3313 C724 0.365 . S
C3318 C2053 0.365 . S
C3343 C821 0.365 . S
C3348 C1868 0.365 . S
C3373 C1956 0.365 . S
C3378 C937 0.365 . S
C3403 C1025 0.365 . S
C3408 C1437 0.365 . S
C3433 C1809 0.365 . S
C3438 C1113 0.365 . S
C3463 C1553 0.365 . S
C3468 C1173 0.365 . S
C3493 C1252 0.365 . S
C3498 C1641 0.365 . S
C3523 C1721 0.365 . S
C3528 C1377 0.365 . S
