# Generated by pormake.
# Topology uno, (4)-cn, num edge types: 1
# Building blocks:
#     Node 0, Type 0, BuildingBlock: ESEHIV_clean_sbu_0, # of connection points: 4
#     Node 1, Type 0, BuildingBlock: ESEHIV_clean_sbu_0, # of connection points: 4
#     Node 2, Type 0, BuildingBlock: ESEHIV_clean_sbu_0, # of connection points: 4
#     Node 3, Type 0, BuildingBlock: ESEHIV_clean_sbu_0, # of connection points: 4
#     Node 4, Type 0, BuildingBlock: ESEHIV_clean_sbu_0, # of connection points: 4
#     Node 5, Type 0, BuildingBlock: ESEHIV_clean_sbu_0, # of connection points: 4
#     Node 6, Type 0, BuildingBlock: ESEHIV_clean_sbu_0, # of connection points: 4
#     Node 7, Type 0, BuildingBlock: ESEHIV_clean_sbu_0, # of connection points: 4
#     Node 8, Type 0, BuildingBlock: ESEHIV_clean_sbu_0, # of connection points: 4
#     Node 9, Type 0, BuildingBlock: ESEHIV_clean_sbu_0, # of connection points: 4
#     Node 10, Type 0, BuildingBlock: ESEHIV_clean_sbu_0, # of connection points: 4
#     Node 11, Type 0, BuildingBlock: ESEHIV_clean_sbu_0, # of connection points: 4
#     Node 12, Type 0, BuildingBlock: ESEHIV_clean_sbu_0, # of connection points: 4
#     Node 13, Type 0, BuildingBlock: ESEHIV_clean_sbu_0, # of connection points: 4
#     Node 14, Type 0, BuildingBlock: ESEHIV_clean_sbu_0, # of connection points: 4
#     Node 15, Type 0, BuildingBlock: ESEHIV_clean_sbu_0, # of connection points: 4
#     Node 16, Type 0, BuildingBlock: ESEHIV_clean_sbu_0, # of connection points: 4
#     Node 17, Type 0, BuildingBlock: ESEHIV_clean_sbu_0, # of connection points: 4
#     Node 18, Type 0, BuildingBlock: ESEHIV_clean_sbu_0, # of connection points: 4
#     Node 19, Type 0, BuildingBlock: ESEHIV_clean_sbu_0, # of connection points: 4
#     Node 20, Type 0, BuildingBlock: ESEHIV_clean_sbu_0, # of connection points: 4
#     Node 21, Type 0, BuildingBlock: ESEHIV_clean_sbu_0, # of connection points: 4
#     Node 22, Type 0, BuildingBlock: ESEHIV_clean_sbu_0, # of connection points: 4
#     Node 23, Type 0, BuildingBlock: ESEHIV_clean_sbu_0, # of connection points: 4
#     Edge 24, Type (0, 0), BuildingBlock: XIVTED_clean_linker_0, # of connection points: 2
#     Edge 25, Type (0, 0), BuildingBlock: XIVTED_clean_linker_0, # of connection points: 2
#     Edge 26, Type (0, 0), BuildingBlock: XIVTED_clean_linker_0, # of connection points: 2
#     Edge 27, Type (0, 0), BuildingBlock: XIVTED_clean_linker_0, # of connection points: 2
#     Edge 28, Type (0, 0), BuildingBlock: XIVTED_clean_linker_0, # of connection points: 2
#     Edge 29, Type (0, 0), BuildingBlock: XIVTED_clean_linker_0, # of connection points: 2
#     Edge 30, Type (0, 0), BuildingBlock: XIVTED_clean_linker_0, # of connection points: 2
#     Edge 31, Type (0, 0), BuildingBlock: XIVTED_clean_linker_0, # of connection points: 2
#     Edge 32, Type (0, 0), BuildingBlock: XIVTED_clean_linker_0, # of connection points: 2
#     Edge 33, Type (0, 0), BuildingBlock: XIVTED_clean_linker_0, # of connection points: 2
#     Edge 34, Type (0, 0), BuildingBlock: XIVTED_clean_linker_0, # of connection points: 2
#     Edge 35, Type (0, 0), BuildingBlock: XIVTED_clean_linker_0, # of connection points: 2
#     Edge 36, Type (0, 0), BuildingBlock: XIVTED_clean_linker_0, # of connection points: 2
#     Edge 37, Type (0, 0), BuildingBlock: XIVTED_clean_linker_0, # of connection points: 2
#     Edge 38, Type (0, 0), BuildingBlock: XIVTED_clean_linker_0, # of connection points: 2
#     Edge 39, Type (0, 0), BuildingBlock: XIVTED_clean_linker_0, # of connection points: 2
#     Edge 40, Type (0, 0), BuildingBlock: XIVTED_clean_linker_0, # of connection points: 2
#     Edge 41, Type (0, 0), BuildingBlock: XIVTED_clean_linker_0, # of connection points: 2
#     Edge 42, Type (0, 0), BuildingBlock: XIVTED_clean_linker_0, # of connection points: 2
#     Edge 43, Type (0, 0), BuildingBlock: XIVTED_clean_linker_0, # of connection points: 2
#     Edge 44, Type (0, 0), BuildingBlock: XIVTED_clean_linker_0, # of connection points: 2
#     Edge 45, Type (0, 0), BuildingBlock: XIVTED_clean_linker_0, # of connection points: 2
#     Edge 46, Type (0, 0), BuildingBlock: XIVTED_clean_linker_0, # of connection points: 2
#     Edge 47, Type (0, 0), BuildingBlock: XIVTED_clean_linker_0, # of connection points: 2
#     Edge 48, Type (0, 0), BuildingBlock: XIVTED_clean_linker_0, # of connection points: 2
#     Edge 49, Type (0, 0), BuildingBlock: XIVTED_clean_linker_0, # of connection points: 2
#     Edge 50, Type (0, 0), BuildingBlock: XIVTED_clean_linker_0, # of connection points: 2
#     Edge 51, Type (0, 0), BuildingBlock: XIVTED_clean_linker_0, # of connection points: 2
#     Edge 52, Type (0, 0), BuildingBlock: XIVTED_clean_linker_0, # of connection points: 2
#     Edge 53, Type (0, 0), BuildingBlock: XIVTED_clean_linker_0, # of connection points: 2
#     Edge 54, Type (0, 0), BuildingBlock: XIVTED_clean_linker_0, # of connection points: 2
#     Edge 55, Type (0, 0), BuildingBlock: XIVTED_clean_linker_0, # of connection points: 2
#     Edge 56, Type (0, 0), BuildingBlock: XIVTED_clean_linker_0, # of connection points: 2
#     Edge 57, Type (0, 0), BuildingBlock: XIVTED_clean_linker_0, # of connection points: 2
#     Edge 58, Type (0, 0), BuildingBlock: XIVTED_clean_linker_0, # of connection points: 2
#     Edge 59, Type (0, 0), BuildingBlock: XIVTED_clean_linker_0, # of connection points: 2
#     Edge 60, Type (0, 0), BuildingBlock: XIVTED_clean_linker_0, # of connection points: 2
#     Edge 61, Type (0, 0), BuildingBlock: XIVTED_clean_linker_0, # of connection points: 2
#     Edge 62, Type (0, 0), BuildingBlock: XIVTED_clean_linker_0, # of connection points: 2
#     Edge 63, Type (0, 0), BuildingBlock: XIVTED_clean_linker_0, # of connection points: 2
#     Edge 64, Type (0, 0), BuildingBlock: XIVTED_clean_linker_0, # of connection points: 2
#     Edge 65, Type (0, 0), BuildingBlock: XIVTED_clean_linker_0, # of connection points: 2
#     Edge 66, Type (0, 0), BuildingBlock: XIVTED_clean_linker_0, # of connection points: 2
#     Edge 67, Type (0, 0), BuildingBlock: XIVTED_clean_linker_0, # of connection points: 2
#     Edge 68, Type (0, 0), BuildingBlock: XIVTED_clean_linker_0, # of connection points: 2
#     Edge 69, Type (0, 0), BuildingBlock: XIVTED_clean_linker_0, # of connection points: 2
#     Edge 70, Type (0, 0), BuildingBlock: XIVTED_clean_linker_0, # of connection points: 2
#     Edge 71, Type (0, 0), BuildingBlock: XIVTED_clean_linker_0, # of connection points: 2
# Relax obj value: 0.382
# Max RMSD: 0.210
# Mean RMSD: 0.191
data_MOF--net-uno--node1-ESEHIV_clean_sbu_0--edge1-XIVTED_clean_linker_0
_symmetry_space_group_name_H-M    P1
_symmetry_Int_Tables_number       1
_symmetry_cell_setting            triclinic
loop_
_symmetry_equiv_pos_as_xyz
'x, y, z'
_cell_length_a     56.338978
_cell_length_b     58.511913
_cell_length_c     57.948685
_cell_angle_alpha  90.571869
_cell_angle_beta   89.874422
_cell_angle_gamma 92.710591
loop_
_atom_site_label
_atom_site_type_symbol
_atom_site_fract_x
_atom_site_fract_y
_atom_site_fract_z
_atom_type_partial_charge
Cu0 Cu 0.05776 0.246 0.29017 0.0
N1 N 0.07507 0.24161 0.31698 0.0
N2 N 0.10407 0.22496 0.33585 0.0
C3 C 0.08477 0.22176 0.3223 0.0
C4 C 0.10618 0.24773 0.33984 0.0
C5 C 0.08818 0.25794 0.32826 0.0
O6 O 0.04388 0.21672 0.27973 0.0
C7 C 0.0766 0.26595 0.24828 0.0
O8 O 0.05451 0.26786 0.24163 0.0
H9 H 0.08006 0.20573 0.31367 0.0
H10 H 0.08676 0.27612 0.3257 0.0
N11 N 0.03412 0.26654 0.29528 0.0
N12 N 0.01497 0.29898 0.29759 0.0
C13 C 0.03616 0.28952 0.29449 0.0
C14 C 0.01098 0.26126 0.29913 0.0
C15 C 0.99908 0.28125 0.30051 0.0
C16 C 0.05733 0.20196 0.27121 0.0
O17 O 0.08008 0.20732 0.26854 0.0
H18 H 0.05269 0.29902 0.29088 0.0
H19 H 0.00327 0.24403 0.3004 0.0
O20 O 0.08083 0.25756 0.26789 0.0
H21 H 0.1212 0.25655 0.3482 0.0
H22 H 0.98019 0.28263 0.30331 0.0
Cu23 Cu 0.03225 0.80196 0.46827 0.0
N24 N 0.0375 0.81281 0.43857 0.0
N25 N 0.03646 0.83624 0.40841 0.0
C26 C 0.03151 0.83343 0.43104 0.0
C27 C 0.04596 0.81652 0.40148 0.0
C28 C 0.04658 0.80209 0.42016 0.0
O29 O 0.00172 0.78532 0.46792 0.0
C30 C 0.04089 0.83019 0.50854 0.0
O31 O 0.04659 0.81149 0.51915 0.0
H32 H 0.02313 0.84587 0.4419 0.0
H33 H 0.05298 0.78495 0.4203 0.0
N34 N 0.05613 0.78252 0.47644 0.0
N35 N 0.08957 0.76974 0.49137 0.0
C36 C 0.07755 0.78832 0.48563 0.0
C37 C 0.05467 0.75953 0.4759 0.0
C38 C 0.07522 0.75159 0.48507 0.0
C39 C 0.98642 0.78492 0.48407 0.0
O40 O 0.99103 0.79629 0.50333 0.0
H41 H 0.08366 0.80585 0.48894 0.0
H42 H 0.03945 0.74929 0.46974 0.0
O43 O 0.03292 0.82892 0.48804 0.0
H44 H 0.05216 0.81282 0.38422 0.0
H45 H 0.07909 0.73379 0.48712 0.0
Cu46 Cu 0.41321 0.75972 0.80404 0.0
N47 N 0.38903 0.75722 0.82585 0.0
N48 N 0.35606 0.7682 0.84338 0.0
C49 C 0.37641 0.77501 0.83265 0.0
C50 C 0.35594 0.74512 0.84346 0.0
C51 C 0.37639 0.73838 0.83264 0.0
O52 O 0.42778 0.79028 0.80703 0.0
C53 C 0.40561 0.74603 0.75635 0.0
O54 O 0.42691 0.73785 0.75656 0.0
H55 H 0.38084 0.79247 0.82762 0.0
H56 H 0.38071 0.72104 0.82828 0.0
N57 N 0.43631 0.73849 0.80884 0.0
N58 N 0.45734 0.70717 0.80665 0.0
C59 C 0.43596 0.71608 0.80318 0.0
C60 C 0.45845 0.74376 0.81646 0.0
C61 C 0.47149 0.72451 0.81507 0.0
C62 C 0.44226 0.79904 0.79237 0.0
O63 O 0.4477 0.78717 0.7739 0.0
H64 H 0.42081 0.70686 0.79547 0.0
H65 H 0.46489 0.76068 0.82185 0.0
O66 O 0.39774 0.75588 0.77428 0.0
H67 H 0.34143 0.73394 0.84952 0.0
H68 H 0.49008 0.72345 0.81942 0.0
Cu69 Cu 0.47579 0.2046 0.97917 0.0
N70 N 0.46921 0.19627 0.94872 0.0
N71 N 0.46793 0.17448 0.91687 0.0
C72 C 0.47867 0.17871 0.93735 0.0
C73 C 0.45112 0.19008 0.91526 0.0
C74 C 0.45198 0.20356 0.93496 0.0
O75 O 0.50721 0.2194 0.98025 0.0
C76 C 0.46592 0.17298 0.01641 0.0
O77 O 0.4611 0.19064 0.02949 0.0
H78 H 0.49213 0.16832 0.94463 0.0
H79 H 0.44018 0.21698 0.93942 0.0
N80 N 0.45364 0.22505 0.98977 0.0
N81 N 0.42156 0.23963 0.00601 0.0
C82 C 0.43216 0.22037 0.99935 0.0
C83 C 0.4566 0.24798 0.99008 0.0
C84 C 0.43686 0.25703 1.00005 0.0
C85 C 0.52611 0.2085 0.98191 0.0
O86 O 0.52455 0.18615 0.98415 0.0
H87 H 0.42459 0.20318 0.00155 0.0
H88 H 0.47226 0.25743 0.98387 0.0
O89 O 0.47355 0.17613 0.99598 0.0
H90 H 0.43864 0.19122 0.90119 0.0
H91 H 0.43436 0.275 0.00336 0.0
Cu92 Cu 0.035 0.99505 0.26785 0.0
N93 N 0.06551 0.00231 0.27852 0.0
N94 N 0.09102 0.01659 0.30505 0.0
C95 C 0.07003 0.01885 0.29435 0.0
C96 C 0.10044 0.99822 0.29482 0.0
C97 C 0.08458 0.98936 0.27853 0.0
O98 O 0.01852 0.02336 0.2701 0.0
C99 C 0.02206 0.97376 0.30996 0.0
O100 O 0.02818 0.9938 0.31911 0.0
H101 H 0.057 0.03093 0.29936 0.0
H102 H 0.08578 0.9734 0.26912 0.0
N103 N 0.03553 0.98272 0.23817 0.0
N104 N 0.02787 0.95727 0.20986 0.0
C105 C 0.02173 0.96467 0.23108 0.0
C106 C 0.05102 0.98706 0.22088 0.0
C107 C 0.04632 0.97134 0.20333 0.0
C108 C 0.01513 0.03637 0.25308 0.0
O109 O 0.01832 0.02862 0.23201 0.0
H110 H 0.00841 0.95626 0.24196 0.0
H111 H 0.06528 1.0001 0.22141 0.0
O112 O 0.02199 0.97144 0.28812 0.0
H113 H 0.11644 0.9903 0.30028 0.0
H114 H 0.05616 0.96998 0.18735 0.0
Cu115 Cu 0.29338 0.78171 0.58039 0.0
N116 N 0.30493 0.81156 0.58597 0.0
N117 N 0.3079 0.84421 0.6063 0.0
C118 C 0.29355 0.82632 0.59946 0.0
C119 C 0.32922 0.84063 0.5966 0.0
C120 C 0.32733 0.82041 0.58403 0.0
O121 O 0.25987 0.78253 0.57295 0.0
C122 C 0.31 0.74784 0.61161 0.0
O123 O 0.31596 0.73596 0.59334 0.0
H124 H 0.27575 0.82277 0.60601 0.0
H125 H 0.34171 0.81188 0.5757 0.0
N126 N 0.30875 0.76817 0.55552 0.0
N127 N 0.33515 0.74971 0.53456 0.0
C128 C 0.33175 0.76309 0.55328 0.0
C129 C 0.29751 0.7581 0.53736 0.0
C130 C 0.31371 0.74657 0.52449 0.0
C131 C 0.24608 0.76469 0.57253 0.0
O132 O 0.25429 0.74505 0.57881 0.0
H133 H 0.34529 0.7676 0.56597 0.0
H134 H 0.27859 0.75817 0.5343 0.0
O135 O 0.29875 0.76602 0.60917 0.0
H136 H 0.3453 0.85113 0.59945 0.0
H137 H 0.30993 0.73603 0.50935 0.0
Cu138 Cu 0.46354 0.0033 0.78499 0.0
N139 N 0.4316 0.99377 0.78644 0.0
N140 N 0.39913 0.97804 0.80331 0.0
C141 C 0.42306 0.97947 0.80275 0.0
C142 C 0.39226 0.99205 0.78643 0.0
C143 C 0.4124 0.00172 0.77597 0.0
O144 O 0.48091 0.97564 0.78747 0.0
C145 C 0.48605 0.03899 0.81299 0.0
O146 O 0.50428 0.03824 0.79888 0.0
H147 H 0.43422 0.97185 0.81539 0.0
H148 H 0.413 0.01467 0.76276 0.0
N149 N 0.47107 0.01763 0.75723 0.0
N150 N 0.48067 0.04537 0.7323 0.0
C151 C 0.47019 0.04008 0.75265 0.0
C152 C 0.48225 0.00838 0.73911 0.0
C153 C 0.48827 0.02549 0.7237 0.0
C154 C 0.48343 0.96543 0.8065 0.0
O155 O 0.47851 0.97614 0.82585 0.0
H156 H 0.46345 0.05249 0.76467 0.0
H157 H 0.48675 0.99064 0.73779 0.0
O158 O 0.46842 0.02484 0.81034 0.0
H159 H 0.37409 0.996 0.78272 0.0
H160 H 0.49811 0.02361 0.70778 0.0
Cu161 Cu 0.22696 0.22442 0.11202 0.0
N162 N 0.22537 0.19497 0.12396 0.0
N163 N 0.23107 0.16684 0.14886 0.0
C164 C 0.23168 0.18966 0.14555 0.0
C165 C 0.22402 0.15744 0.12847 0.0
C166 C 0.22047 0.17487 0.11312 0.0
O167 O 0.25972 0.23066 0.10276 0.0
C168 C 0.20633 0.26304 0.13384 0.0
O169 O 0.20554 0.27206 0.11321 0.0
H170 H 0.23772 0.20233 0.15824 0.0
H171 H 0.21541 0.17304 0.09518 0.0
N172 N 0.20708 0.22646 0.08638 0.0
N173 N 0.17715 0.2377 0.0647 0.0
C174 C 0.18438 0.23281 0.0862 0.0
C175 C 0.21412 0.22671 0.06417 0.0
C176 C 0.19575 0.23384 0.05077 0.0
C177 C 0.26701 0.24752 0.09055 0.0
O178 O 0.25219 0.26328 0.08513 0.0
H179 H 0.17409 0.23572 0.10167 0.0
H180 H 0.2319 0.22347 0.05832 0.0
O181 O 0.21646 0.24428 0.1366 0.0
H182 H 0.22196 0.13928 0.12478 0.0
H183 H 0.19637 0.23701 0.0324 0.0
Cu184 Cu 0.26413 0.06105 0.29418 0.0
N185 N 0.24023 0.08061 0.28642 0.0
N186 N 0.21447 0.1082 0.29003 0.0
C187 C 0.22966 0.09498 0.30108 0.0
C188 C 0.21528 0.10186 0.26764 0.0
C189 C 0.23103 0.08466 0.26549 0.0
O190 O 0.25593 0.04723 0.32365 0.0
C191 C 0.30257 0.09508 0.28596 0.0
O192 O 0.32331 0.10477 0.29141 0.0
H193 H 0.23362 0.0963 0.31932 0.0
H194 H 0.2358 0.07623 0.24963 0.0
N195 N 0.2669 0.03758 0.27235 0.0
N196 N 0.27167 0.01869 0.23903 0.0
C197 C 0.2685 0.03917 0.24924 0.0
C198 C 0.269 0.01528 0.27696 0.0
C199 C 0.27191 0.00356 0.25646 0.0
C200 C 0.26141 0.05725 0.34262 0.0
O201 O 0.27281 0.07736 0.34221 0.0
H202 H 0.26729 0.05495 0.24004 0.0
H203 H 0.26888 0.00812 0.2941 0.0
O204 O 0.29449 0.07811 0.29766 0.0
H205 H 0.20534 0.10927 0.25386 0.0
H206 H 0.27464 0.98545 0.25465 0.0
Cu207 Cu 0.15665 0.01559 0.52026 0.0
N208 N 0.1392 0.03413 0.50137 0.0
N209 N 0.12661 0.04828 0.46815 0.0
C210 C 0.14112 0.03375 0.47827 0.0
C211 C 0.11487 0.05819 0.48566 0.0
C212 C 0.12281 0.04949 0.50622 0.0
O213 O 0.1867 0.01312 0.50426 0.0
C214 C 0.118 0.98471 0.52816 0.0
O215 O 0.10671 0.00364 0.53124 0.0
H216 H 0.15237 0.02236 0.46899 0.0
H217 H 0.11677 0.05376 0.52339 0.0
N218 N 0.16107 0.02805 0.54967 0.0
N219 N 0.16667 0.02894 0.58779 0.0
C220 C 0.1657 0.01583 0.5685 0.0
C221 C 0.15908 0.04971 0.55719 0.0
C222 C 0.16246 0.0503 0.5808 0.0
C223 C 0.18862 0.99838 0.48815 0.0
O224 O 0.17185 0.98215 0.48578 0.0
H225 H 0.16767 0.99752 0.56808 0.0
H226 H 0.15522 0.064 0.54634 0.0
O227 O 0.14003 0.98598 0.52322 0.0
H228 H 0.10143 0.07065 0.48376 0.0
H229 H 0.16201 0.06527 0.5919 0.0
Cu230 Cu 0.24286 0.94353 0.7876 0.0
N231 N 0.23439 0.9169 0.80362 0.0
N232 N 0.24065 0.88479 0.82276 0.0
C233 C 0.25015 0.90499 0.81532 0.0
C234 C 0.21787 0.88399 0.81547 0.0
C235 C 0.21402 0.90392 0.8037 0.0
O236 O 0.25843 0.96476 0.80935 0.0
C237 C 0.25127 0.92163 0.74711 0.0
O238 O 0.22909 0.91521 0.75163 0.0
H239 H 0.26871 0.91043 0.81695 0.0
H240 H 0.19794 0.90807 0.79484 0.0
N241 N 0.21689 0.95725 0.7745 0.0
N242 N 0.1967 0.97362 0.74651 0.0
C243 C 0.21805 0.96711 0.75367 0.0
C244 C 0.19398 0.95786 0.78106 0.0
C245 C 0.18144 0.9681 0.76377 0.0
C246 C 0.24562 0.97059 0.82635 0.0
O247 O 0.22349 0.96249 0.82733 0.0
H248 H 0.23423 0.96878 0.74361 0.0
H249 H 0.18672 0.9506 0.7968 0.0
O250 O 0.26256 0.93448 0.76166 0.0
H251 H 0.20516 0.86973 0.81776 0.0
H252 H 0.16246 0.97021 0.7634 0.0
Cu253 Cu 0.32813 0.00433 0.00943 0.0
N254 N 0.33974 0.98001 0.99227 0.0
N255 N 0.34727 0.95925 0.96069 0.0
C256 C 0.33687 0.97772 0.96934 0.0
C257 C 0.35713 0.9493 0.97906 0.0
C258 C 0.35225 0.96208 0.99861 0.0
O259 O 0.30671 0.01884 0.98859 0.0
C260 C 0.37478 0.02564 0.01346 0.0
O261 O 0.38157 0.00875 1.0003 0.0
H262 H 0.32805 0.9899 0.95897 0.0
H263 H 0.35784 0.95883 0.01607 0.0
N264 N 0.31153 0.99319 0.03503 0.0
N265 N 0.29795 0.98973 0.07114 0.0
C266 C 0.31202 0.00212 0.05651 0.0
C267 C 0.2967 0.97454 0.03596 0.0
C268 C 0.28829 0.97234 0.05822 0.0
C269 C 0.3153 0.03099 0.97218 0.0
O270 O 0.33796 0.03738 0.97277 0.0
H271 H 0.32278 0.01722 0.06131 0.0
H272 H 0.29231 0.96339 0.02144 0.0
O273 O 0.35305 0.02641 0.0193 0.0
H274 H 0.36741 0.93415 0.97842 0.0
H275 H 0.27578 0.95912 0.06429 0.0
Cu276 Cu 0.72545 0.27675 0.91233 0.0
N277 N 0.71869 0.25826 0.88664 0.0
N278 N 0.69779 0.24364 0.85683 0.0
C279 C 0.69725 0.25609 0.87651 0.0
C280 C 0.72056 0.23771 0.85448 0.0
C281 C 0.73343 0.24673 0.87297 0.0
O282 O 0.69899 0.27192 0.93334 0.0
C283 C 0.74443 0.31331 0.88667 0.0
O284 O 0.75958 0.29794 0.88056 0.0
H285 H 0.68183 0.26455 0.88285 0.0
H286 H 0.75231 0.24568 0.87581 0.0
N287 N 0.75325 0.26857 0.9268 0.0
N288 N 0.7866 0.27082 0.9477 0.0
C289 C 0.76887 0.28248 0.9384 0.0
C290 C 0.76122 0.2474 0.92886 0.0
C291 C 0.78182 0.24872 0.94166 0.0
C292 C 0.68016 0.28296 0.9319 0.0
O293 O 0.67935 0.29978 0.9171 0.0
H294 H 0.76724 0.3008 0.93985 0.0
H295 H 0.75245 0.23205 0.92179 0.0
O296 O 0.72847 0.308 0.9015 0.0
H297 H 0.72752 0.22799 0.84021 0.0
H298 H 0.79216 0.23441 0.94653 0.0
Cu299 Cu 0.98669 0.51238 0.22642 0.0
N300 N 0.9555 0.5204 0.22153 0.0
N301 N 0.92493 0.53742 0.20558 0.0
C302 C 0.9488 0.53693 0.20732 0.0
C303 C 0.91634 0.52085 0.21985 0.0
C304 C 0.93525 0.5104 0.22968 0.0
O305 O 0.00528 0.54074 0.23123 0.0
C306 C 0.99131 0.49607 0.1799 0.0
O307 O 0.97992 0.51423 0.17421 0.0
H308 H 0.9613 0.54749 0.19745 0.0
H309 H 0.93433 0.49606 0.24133 0.0
N310 N 0.98817 0.49497 0.25293 0.0
N311 N 0.99099 0.46411 0.27483 0.0
C312 C 0.98606 0.47202 0.25367 0.0
C313 C 0.99449 0.50192 0.27433 0.0
C314 C 0.99632 0.48284 0.28792 0.0
C315 C 0.01451 0.55308 0.21534 0.0
O316 O 0.01459 0.54518 0.19406 0.0
H317 H 0.9823 0.46131 0.23865 0.0
H318 H 0.99841 0.51953 0.27942 0.0
O319 O 0.99691 0.49314 0.2009 0.0
H320 H 0.89775 0.51608 0.22252 0.0
H321 H 0.0017 0.48273 0.30584 0.0
Cu322 Cu 0.78964 0.73264 0.40358 0.0
N323 N 0.79734 0.75732 0.38466 0.0
N324 N 0.8183 0.77702 0.35817 0.0
C325 C 0.81852 0.76049 0.3742 0.0
C326 C 0.79605 0.78464 0.35866 0.0
C327 C 0.78313 0.77246 0.37513 0.0
O328 O 0.8189 0.72648 0.41968 0.0
C329 C 0.77711 0.68672 0.38856 0.0
O330 O 0.78072 0.68076 0.41002 0.0
H331 H 0.83321 0.74956 0.37696 0.0
H332 H 0.7644 0.77357 0.37889 0.0
N333 N 0.76502 0.73953 0.42368 0.0
N334 N 0.73173 0.73583 0.44448 0.0
C335 C 0.74533 0.72638 0.4281 0.0
C336 C 0.76362 0.7581 0.43745 0.0
C337 C 0.74317 0.75575 0.45052 0.0
C338 C 0.8226 0.72941 0.4412 0.0
O339 O 0.80485 0.73409 0.45488 0.0
H340 H 0.74129 0.70998 0.41987 0.0
H341 H 0.77683 0.77212 0.43824 0.0
O342 O 0.77991 0.70763 0.38298 0.0
H343 H 0.78931 0.79732 0.34721 0.0
H344 H 0.73709 0.76774 0.46333 0.0
Cu345 Cu 0.95462 0.74033 0.19681 0.0
N346 N 0.93644 0.71786 0.18109 0.0
N347 N 0.91757 0.68381 0.17549 0.0
C348 C 0.93126 0.69704 0.18982 0.0
C349 C 0.91386 0.69696 0.15693 0.0
C350 C 0.92566 0.71801 0.1604 0.0
O351 O 0.9817 0.72466 0.20821 0.0
C352 C 0.94217 0.76329 0.23879 0.0
O353 O 0.9651 0.76725 0.24184 0.0
H354 H 0.93685 0.69195 0.20676 0.0
H355 H 0.92616 0.7324 0.14881 0.0
N356 N 0.9648 0.76409 0.17756 0.0
N357 N 0.97553 0.79958 0.16665 0.0
C358 C 0.96457 0.78649 0.18288 0.0
C359 C 0.97619 0.76286 0.15719 0.0
C360 C 0.98292 0.7848 0.15042 0.0
C361 C 0.98051 0.71284 0.22651 0.0
O362 O 0.96207 0.7146 0.24023 0.0
H363 H 0.95761 0.79296 0.19897 0.0
H364 H 0.98005 0.7471 0.14833 0.0
O365 O 0.93476 0.75216 0.22107 0.0
H366 H 0.90337 0.69181 0.14198 0.0
H367 H 0.9929 0.78945 0.13505 0.0
Cu368 Cu 0.54963 0.26613 0.6997 0.0
N369 N 0.56713 0.28365 0.67846 0.0
N370 N 0.58769 0.31486 0.66632 0.0
C371 C 0.57092 0.30637 0.68091 0.0
C372 C 0.59469 0.29664 0.65399 0.0
C373 C 0.58189 0.27734 0.66152 0.0
O374 O 0.52587 0.28618 0.71142 0.0
C375 C 0.56653 0.24918 0.74272 0.0
O376 O 0.54408 0.24635 0.7487 0.0
H377 H 0.56303 0.31619 0.69457 0.0
H378 H 0.58427 0.25986 0.6561 0.0
N379 N 0.5346 0.24043 0.68612 0.0
N380 N 0.51983 0.20456 0.68214 0.0
C381 C 0.53586 0.21865 0.6931 0.0
C382 C 0.51735 0.2401 0.67009 0.0
C383 C 0.50812 0.21796 0.66764 0.0
C384 C 0.53016 0.3005 0.7277 0.0
O385 O 0.54993 0.29934 0.7395 0.0
H386 H 0.5472 0.2135 0.70699 0.0
H387 H 0.51114 0.25511 0.66166 0.0
O388 O 0.57188 0.25719 0.72298 0.0
H389 H 0.60883 0.29702 0.64131 0.0
H390 H 0.49348 0.21226 0.65661 0.0
Cu391 Cu 0.52134 0.50384 0.71581 0.0
N392 N 0.55338 0.49787 0.71237 0.0
N393 N 0.5856 0.48154 0.69831 0.0
C394 C 0.56163 0.48057 0.6997 0.0
C395 C 0.59262 0.50003 0.71123 0.0
C396 C 0.5727 0.51005 0.71986 0.0
O397 O 0.50503 0.47439 0.72083 0.0
C398 C 0.51741 0.51612 0.66854 0.0
O399 O 0.52912 0.49763 0.66457 0.0
H400 H 0.55003 0.46824 0.69072 0.0
H401 H 0.5723 0.52551 0.73023 0.0
N402 N 0.51675 0.52176 0.74197 0.0
N403 N 0.50662 0.55125 0.76396 0.0
C404 C 0.51272 0.54424 0.74259 0.0
C405 C 0.51325 0.51431 0.76365 0.0
C406 C 0.50693 0.5325 0.77729 0.0
C407 C 0.49589 0.46081 0.70568 0.0
O408 O 0.49421 0.4676 0.68425 0.0
H409 H 0.513 0.55495 0.72745 0.0
H410 H 0.51428 0.4967 0.76893 0.0
O411 O 0.51119 0.52088 0.6891 0.0
H412 H 0.61077 0.50637 0.71381 0.0
H413 H 0.50248 0.53189 0.79546 0.0
Cu414 Cu 0.97788 0.35583 0.0147 0.0
N415 N 0.97442 0.37608 0.99044 0.0
N416 N 0.95726 0.40405 0.97155 0.0
C417 C 0.9539 0.38572 0.98529 0.0
C418 C 0.98091 0.40589 0.96764 0.0
C419 C 0.99145 0.38855 0.9793 0.0
O420 O 0.94858 0.33727 0.01657 0.0
C421 C 0.98689 0.36926 0.06247 0.0
O422 O 0.98617 0.34751 0.06796 0.0
H423 H 0.93712 0.38084 0.99333 0.0
H424 H 0.01032 0.38637 0.98111 0.0
N425 N 0.00222 0.33606 0.00879 0.0
N426 N 0.03315 0.3141 0.01336 0.0
C427 C 0.02222 0.33285 0.02088 0.0
C428 C 1.00068 0.31894 0.99312 0.0
C429 C 0.01968 0.30531 0.99595 0.0
C430 C 0.92904 0.3441 0.02445 0.0
O431 O 0.92858 0.36429 0.03453 0.0
H432 H 0.02787 0.34317 0.03565 0.0
H433 H 0.98607 0.31598 0.98121 0.0
O434 O 0.98387 0.375 0.04163 0.0
H435 H 0.99007 0.41959 0.95828 0.0
H436 H 0.02306 0.28981 0.98637 0.0
Cu437 Cu 0.5381 0.6378 0.49136 0.0
N438 N 0.54718 0.61567 0.47035 0.0
N439 N 0.56962 0.58816 0.45668 0.0
C440 C 0.56882 0.60697 0.47021 0.0
C441 C 0.54755 0.58494 0.44782 0.0
C442 C 0.53371 0.60205 0.45627 0.0
O443 O 0.56411 0.66049 0.49247 0.0
C444 C 0.52773 0.62911 0.53993 0.0
O445 O 0.52723 0.65127 0.54363 0.0
H446 H 0.58312 0.61316 0.48141 0.0
H447 H 0.51486 0.60356 0.45356 0.0
N448 N 0.51137 0.65214 0.48113 0.0
N449 N 0.47863 0.67209 0.4817 0.0
C450 C 0.49236 0.65805 0.49358 0.0
C451 C 0.50945 0.66261 0.46069 0.0
C452 C 0.48927 0.67501 0.46101 0.0
C453 C 0.5828 0.65963 0.5046 0.0
O454 O 0.5843 0.64358 0.52015 0.0
H455 H 0.48946 0.65341 0.51143 0.0
H456 H 0.52252 0.6622 0.44701 0.0
O457 O 0.53208 0.6215 0.51982 0.0
H458 H 0.54155 0.57066 0.43698 0.0
H459 H 0.48326 0.68588 0.44741 0.0
Cu460 Cu 0.7108 0.44179 0.51591 0.0
N461 N 0.69303 0.42346 0.53626 0.0
N462 N 0.67331 0.41542 0.56893 0.0
C463 C 0.68904 0.42979 0.55822 0.0
C464 C 0.66711 0.39924 0.55296 0.0
C465 C 0.67941 0.40423 0.53277 0.0
O466 O 0.73652 0.4553 0.5343 0.0
C467 C 0.69609 0.48161 0.49244 0.0
O468 O 0.7188 0.48644 0.48887 0.0
H469 H 0.69635 0.44559 0.56571 0.0
H470 H 0.67774 0.39512 0.51648 0.0
N471 N 0.72333 0.42523 0.49161 0.0
N472 N 0.73477 0.418 0.45549 0.0
C473 C 0.71949 0.42901 0.46911 0.0
C474 C 0.74151 0.41115 0.49232 0.0
C475 C 0.74868 0.40669 0.46999 0.0
C476 C 0.73426 0.47316 0.54662 0.0
O477 O 0.71545 0.48527 0.54379 0.0
H478 H 0.70706 0.4411 0.46292 0.0
H479 H 0.74994 0.40576 0.50798 0.0
O480 O 0.68967 0.46388 0.50378 0.0
H481 H 0.65408 0.38529 0.55541 0.0
H482 H 0.76361 0.3968 0.46487 0.0
Cu483 Cu 0.73489 0.48029 0.74982 0.0
N484 N 0.70417 0.47393 0.739 0.0
N485 N 0.67409 0.45494 0.72115 0.0
C486 C 0.69738 0.45528 0.72652 0.0
C487 C 0.66587 0.47418 0.7307 0.0
C488 C 0.68455 0.48595 0.74164 0.0
O489 O 0.75473 0.48336 0.7227 0.0
C490 C 0.72854 0.44971 0.78572 0.0
O491 O 0.70871 0.46056 0.78749 0.0
H492 H 0.70921 0.4419 0.722 0.0
H493 H 0.68388 0.502 0.75098 0.0
N494 N 0.73704 0.50803 0.76587 0.0
N495 N 0.7429 0.5333 0.79457 0.0
C496 C 0.73769 0.51123 0.78889 0.0
C497 C 0.74188 0.52878 0.75671 0.0
C498 C 0.74563 0.54444 0.77442 0.0
C499 C 0.76128 0.4665 0.7107 0.0
O500 O 0.75739 0.44566 0.71852 0.0
H501 H 0.73587 0.49752 0.80124 0.0
H502 H 0.74362 0.53206 0.73843 0.0
O503 O 0.74335 0.45559 0.76998 0.0
H504 H 0.64772 0.47939 0.72981 0.0
H505 H 0.75059 0.56244 0.77267 0.0
Cu506 Cu 0.81711 0.5568 0.01205 0.0
N507 N 0.83356 0.57742 0.03152 0.0
N508 N 0.85043 0.5898 0.06449 0.0
C509 C 0.83526 0.5743 0.05437 0.0
C510 C 0.85863 0.60337 0.0472 0.0
C511 C 0.84808 0.5957 0.02682 0.0
O512 O 0.79425 0.54077 0.03188 0.0
C513 C 0.83397 0.51819 0.98764 0.0
O514 O 0.81134 0.51243 0.98469 0.0
H515 H 0.82673 0.55991 0.06316 0.0
H516 H 0.85155 0.60231 0.00971 0.0
N517 N 0.80087 0.57173 0.98924 0.0
N518 N 0.78472 0.57837 0.95502 0.0
C519 C 0.80184 0.56772 0.96637 0.0
C520 C 0.78269 0.58553 0.99246 0.0
C521 C 0.77259 0.58959 0.97133 0.0
C522 C 0.79938 0.5231 0.04307 0.0
O523 O 0.8196 0.51356 0.03884 0.0
H524 H 0.8137 0.55593 0.9584 0.0
H525 H 0.77641 0.59114 0.00914 0.0
O526 O 0.83982 0.53654 0.9986 0.0
H527 H 0.87187 0.61728 0.04899 0.0
H528 H 0.757 0.59924 0.96828 0.0
Cu529 Cu 0.76602 0.52115 0.2513 0.0
N530 N 0.79858 0.52698 0.24777 0.0
N531 N 0.8315 0.54506 0.23426 0.0
C532 C 0.80763 0.54258 0.23294 0.0
C533 C 0.83774 0.53016 0.25061 0.0
C534 C 0.81732 0.51896 0.25891 0.0
O535 O 0.75351 0.52082 0.22008 0.0
C536 C 0.7555 0.56617 0.26576 0.0
O537 O 0.76153 0.57195 0.24463 0.0
H538 H 0.79665 0.55258 0.22202 0.0
H539 H 0.81618 0.50632 0.27241 0.0
N540 N 0.75879 0.49311 0.26538 0.0
N541 N 0.75202 0.4673 0.29304 0.0
C542 C 0.7631 0.48747 0.28741 0.0
C543 C 0.74455 0.47595 0.25685 0.0
C544 C 0.74041 0.45998 0.27382 0.0
C545 C 0.76186 0.50553 0.20697 0.0
O546 O 0.77627 0.49098 0.21591 0.0
H547 H 0.77279 0.49865 0.29945 0.0
H548 H 0.73666 0.47563 0.23985 0.0
O549 O 0.75465 0.54515 0.27122 0.0
H550 H 0.85567 0.52774 0.25646 0.0
H551 H 0.72905 0.44459 0.27238 0.0
H552 H 0.20997 0.2554 0.18001 0.0
H553 H 0.07529 0.28216 0.20385 0.0
H554 H 0.16656 0.2879 0.1299 0.0
H555 H 0.12395 0.26253 0.25677 0.0
H556 H 0.10891 0.28742 0.1772 0.0
H557 H 0.17962 0.26134 0.20926 0.0
C558 C 0.19423 0.26421 0.17529 0.0
C559 C 0.19071 0.27103 0.15248 0.0
C560 C 0.11222 0.28224 0.19474 0.0
C561 C 0.15554 0.27739 0.18574 0.0
C562 C 0.09302 0.27918 0.20995 0.0
C563 C 0.09673 0.27159 0.2325 0.0
C564 C 0.13522 0.2775 0.20211 0.0
C565 C 0.12014 0.26815 0.23949 0.0
C566 C 0.17685 0.26755 0.19198 0.0
C567 C 0.17 0.2824 0.14731 0.0
N568 N 0.1384 0.27088 0.2243 0.0
N569 N 0.15297 0.28486 0.16372 0.0
H570 H 0.03376 0.88022 0.42333 0.0
H571 H 0.01423 0.92896 0.2965 0.0
H572 H 0.0294 0.83777 0.36202 0.0
H573 H 0.02458 0.97174 0.35713 0.0
H574 H 0.01554 0.89514 0.32076 0.0
H575 H 0.0267 0.91359 0.39984 0.0
C576 C 0.03115 0.87785 0.40495 0.0
C577 C 0.03223 0.85608 0.39467 0.0
C578 C 0.01733 0.91192 0.32878 0.0
C579 C 0.02429 0.89439 0.36756 0.0
C580 C 0.01647 0.93128 0.31495 0.0
C581 C 0.01946 0.95327 0.32476 0.0
C582 C 0.02121 0.91453 0.35262 0.0
C583 C 0.02229 0.95515 0.34878 0.0
C584 C 0.02722 0.89697 0.39152 0.0
C585 C 0.02905 0.85421 0.37068 0.0
N586 N 0.02326 0.93605 0.36185 0.0
N587 N 0.02524 0.87309 0.35795 0.0
H588 H 0.29851 0.76616 0.65354 0.0
H589 H 0.41468 0.72362 0.71556 0.0
H590 H 0.34583 0.71933 0.6215 0.0
H591 H 0.36176 0.76297 0.74972 0.0
H592 H 0.38922 0.72059 0.68136 0.0
H593 H 0.32039 0.76334 0.68959 0.0
C594 C 0.3133 0.75501 0.65417 0.0
C595 C 0.32044 0.74309 0.6344 0.0
C596 C 0.38315 0.72978 0.6964 0.0
C597 C 0.34591 0.74009 0.6756 0.0
C598 C 0.39773 0.7316 0.7159 0.0
C599 C 0.39045 0.74371 0.73551 0.0
C600 C 0.3612 0.74025 0.69646 0.0
C601 C 0.3682 0.75357 0.73499 0.0
C602 C 0.32586 0.75345 0.67477 0.0
C603 C 0.3397 0.72884 0.63629 0.0
N604 N 0.35447 0.75172 0.71577 0.0
N605 N 0.35196 0.72797 0.65644 0.0
H606 H 0.50958 0.15508 0.90705 0.0
H607 H 0.44692 0.0509 0.83736 0.0
H608 H 0.43456 0.15005 0.89225 0.0
H609 H 0.52098 0.07063 0.82705 0.0
H610 H 0.44308 0.084 0.86273 0.0
H611 H 0.51503 0.12133 0.88231 0.0
C612 C 0.4943 0.14688 0.89856 0.0
C613 C 0.4716 0.15539 0.9016 0.0
C614 C 0.46019 0.08106 0.85496 0.0
C615 C 0.47762 0.11677 0.87368 0.0
C616 C 0.46247 0.06206 0.84058 0.0
C617 C 0.48432 0.05798 0.82996 0.0
C618 C 0.47994 0.09603 0.85908 0.0
C619 C 0.50379 0.07316 0.8348 0.0
C620 C 0.49742 0.12772 0.88443 0.0
C621 C 0.45238 0.14423 0.89015 0.0
N622 N 0.50116 0.09152 0.84907 0.0
N623 N 0.45579 0.1254 0.87686 0.0
H624 H 0.20993 0.15043 0.27306 0.0
H625 H 0.10027 0.18045 0.34762 0.0
H626 H 0.1884 0.10643 0.32922 0.0
H627 H 0.14995 0.2333 0.32382 0.0
H628 H 0.1301 0.15192 0.33994 0.0
H629 H 0.18549 0.18036 0.2892 0.0
C630 C 0.20003 0.14718 0.28882 0.0
C631 C 0.20097 0.12607 0.29986 0.0
C632 C 0.13463 0.16984 0.33696 0.0
C633 C 0.17295 0.15986 0.31821 0.0
C634 C 0.11771 0.18604 0.34141 0.0
C635 C 0.12282 0.20918 0.33656 0.0
C636 C 0.15644 0.17685 0.32692 0.0
C637 C 0.14549 0.21566 0.32813 0.0
C638 C 0.1863 0.16423 0.29811 0.0
C639 C 0.18806 0.1226 0.32035 0.0
N640 N 0.16131 0.19951 0.32311 0.0
N641 N 0.17421 0.13922 0.32872 0.0
H642 H 0.07735 0.84052 0.53848 0.0
H643 H 0.07006 0.97579 0.52524 0.0
H644 H 0.02292 0.8715 0.49878 0.0
H645 H 0.13618 0.94257 0.53409 0.0
H646 H 0.04889 0.93825 0.52517 0.0
H647 H 0.09501 0.87875 0.54715 0.0
C648 C 0.06876 0.85538 0.5321 0.0
C649 C 0.04871 0.85289 0.5178 0.0
C650 C 0.06801 0.93925 0.52732 0.0
C651 C 0.06882 0.89645 0.52758 0.0
C652 C 0.0801 0.96062 0.5274 0.0
C653 C 0.10494 0.96226 0.52946 0.0
C654 C 0.0808 0.91942 0.52972 0.0
C655 C 0.11704 0.94204 0.53221 0.0
C656 C 0.07898 0.87713 0.53687 0.0
C657 C 0.03846 0.8727 0.50977 0.0
N658 N 0.10484 0.92142 0.53226 0.0
N659 N 0.04869 0.89368 0.51469 0.0
H660 H 0.27897 0.88953 0.85074 0.0
H661 H 0.30895 0.75804 0.83691 0.0
H662 H 0.23226 0.83881 0.81757 0.0
H663 H 0.35889 0.81152 0.85985 0.0
H664 H 0.27734 0.78543 0.83791 0.0
H665 H 0.30485 0.85935 0.86219 0.0
C666 C 0.27405 0.87199 0.84606 0.0
C667 C 0.25366 0.86675 0.83281 0.0
C668 C 0.29513 0.79107 0.84311 0.0
C669 C 0.28324 0.83202 0.84584 0.0
C670 C 0.31313 0.7754 0.84272 0.0
C671 C 0.3366 0.78264 0.84809 0.0
C672 C 0.30068 0.81407 0.84899 0.0
C673 C 0.34108 0.80538 0.85527 0.0
C674 C 0.2888 0.85474 0.85264 0.0
C675 C 0.24783 0.84364 0.82771 0.0
N676 N 0.32336 0.82033 0.8553 0.0
N677 N 0.26274 0.82715 0.83394 0.0
H678 H 0.42116 0.03205 0.99976 0.0
H679 H 0.43305 0.16006 0.04937 0.0
H680 H 0.36705 0.06327 0.04061 0.0
H681 H 0.47955 0.13263 0.99784 0.0
H682 H 0.41371 0.12195 0.05364 0.0
H683 H 0.44728 0.06604 0.006 0.0
C684 C 0.41484 0.04593 0.01026 0.0
C685 C 0.39172 0.04493 0.01937 0.0
C686 C 0.42842 0.12422 0.04169 0.0
C687 C 0.42158 0.08394 0.02656 0.0
C688 C 0.43959 0.14593 0.03938 0.0
C689 C 0.45773 0.14957 0.023 0.0
C690 C 0.43554 0.10607 0.02762 0.0
C691 C 0.46542 0.13064 0.01046 0.0
C692 C 0.42978 0.06535 0.0138 0.0
C693 C 0.38462 0.0634 0.033 0.0
N694 N 0.45412 0.10978 0.01284 0.0
N695 N 0.3994 0.08224 0.036 0.0
H696 H 0.13544 0.01938 0.32363 0.0
H697 H 0.0865 0.05988 0.44602 0.0
H698 H 0.06328 0.03804 0.33649 0.0
H699 H 0.15884 0.04156 0.43418 0.0
H700 H 0.07945 0.05776 0.40445 0.0
H701 H 0.14605 0.03262 0.36262 0.0
C702 C 0.12188 0.02642 0.33448 0.0
C703 C 0.09836 0.02725 0.32666 0.0
C704 C 0.09696 0.05443 0.41092 0.0
C705 C 0.11037 0.04252 0.37132 0.0
C706 C 0.10101 0.05579 0.43468 0.0
C707 C 0.12313 0.05045 0.44365 0.0
C708 C 0.11515 0.04762 0.39606 0.0
C709 C 0.1413 0.04518 0.42807 0.0
C710 C 0.12796 0.03407 0.35672 0.0
C711 C 0.08165 0.03701 0.34143 0.0
N712 N 0.13682 0.04362 0.40508 0.0
N713 N 0.08793 0.04398 0.36306 0.0
H714 H 0.33723 0.8628 0.63957 0.0
H715 H 0.2272 0.91184 0.70776 0.0
H716 H 0.2656 0.86274 0.6136 0.0
H717 H 0.29838 0.9165 0.73522 0.0
H718 H 0.24251 0.89748 0.67154 0.0
H719 H 0.32518 0.88607 0.67273 0.0
C720 C 0.3191 0.86808 0.6406 0.0
C721 C 0.30229 0.86066 0.62393 0.0
C722 C 0.25494 0.90171 0.68534 0.0
C723 C 0.28836 0.88696 0.66184 0.0
C724 C 0.24616 0.90987 0.70612 0.0
C725 C 0.26151 0.91504 0.72464 0.0
C726 C 0.27932 0.89832 0.68297 0.0
C727 C 0.28595 0.91258 0.72136 0.0
C728 C 0.3122 0.88122 0.6596 0.0
C729 C 0.279 0.86779 0.62624 0.0
N730 N 0.29412 0.90406 0.70097 0.0
N731 N 0.27272 0.88035 0.64489 0.0
H732 H 0.38232 0.936 0.93983 0.0
H733 H 0.35697 0.99192 0.82037 0.0
H734 H 0.31781 0.97033 0.92582 0.0
H735 H 0.40951 0.9414 0.82904 0.0
H736 H 0.33924 0.98049 0.85723 0.0
H737 H 0.38995 0.93386 0.89838 0.0
C738 C 0.36951 0.94268 0.92809 0.0
C739 C 0.34974 0.95391 0.93645 0.0
C740 C 0.3544 0.97162 0.85088 0.0
C741 C 0.35857 0.95191 0.88893 0.0
C742 C 0.36446 0.97806 0.82971 0.0
C743 C 0.38518 0.96805 0.82187 0.0
C744 C 0.36533 0.95527 0.86439 0.0
C745 C 0.39402 0.95011 0.83479 0.0
C746 C 0.37392 0.94154 0.90437 0.0
C747 C 0.33374 0.96223 0.92028 0.0
N748 N 0.38438 0.94465 0.85563 0.0
N749 N 0.33874 0.96146 0.89736 0.0
H750 H 0.30409 0.0802 0.24166 0.0
H751 H 0.22868 0.18177 0.19324 0.0
H752 H 0.27357 0.13097 0.2854 0.0
H753 H 0.251 0.12551 0.1511 0.0
H754 H 0.2444 0.1633 0.22727 0.0
H755 H 0.28444 0.09636 0.20824 0.0
C756 C 0.29287 0.09455 0.24417 0.0
C757 C 0.28963 0.10382 0.26621 0.0
C758 C 0.24576 0.15492 0.2106 0.0
C759 C 0.26791 0.12302 0.22819 0.0
C760 C 0.23687 0.16552 0.19115 0.0
C761 C 0.23866 0.15526 0.16924 0.0
C762 C 0.25679 0.134 0.20814 0.0
C763 C 0.24909 0.13398 0.16763 0.0
C764 C 0.28177 0.10386 0.22515 0.0
C765 C 0.27593 0.12305 0.26863 0.0
N766 N 0.25794 0.12416 0.18677 0.0
N767 N 0.26551 0.13204 0.24982 0.0
H768 H 0.76561 0.42065 0.7855 0.0
H769 H 0.71339 0.34768 0.89217 0.0
H770 H 0.70175 0.43594 0.82275 0.0
H771 H 0.77488 0.32913 0.85287 0.0
H772 H 0.71115 0.38214 0.86899 0.0
H773 H 0.77141 0.38885 0.81184 0.0
C774 C 0.75288 0.4174 0.79925 0.0
C775 C 0.73309 0.43091 0.80182 0.0
C776 C 0.72523 0.37061 0.86551 0.0
C777 C 0.73962 0.39462 0.83201 0.0
C778 C 0.72656 0.35095 0.87881 0.0
C779 C 0.74426 0.33539 0.87438 0.0
C780 C 0.74169 0.37479 0.84759 0.0
C781 C 0.76086 0.34058 0.85684 0.0
C782 C 0.75619 0.39925 0.81428 0.0
C783 C 0.71719 0.42592 0.81998 0.0
N784 N 0.75908 0.35975 0.844 0.0
N785 N 0.72076 0.40819 0.8343 0.0
H786 H 0.93969 0.57658 0.18354 0.0
H787 H 0.8259 0.5734 0.10151 0.0
H788 H 0.88042 0.5273 0.18894 0.0
H789 H 0.89394 0.60381 0.08126 0.0
H790 H 0.84242 0.56477 0.13917 0.0
H791 H 0.91987 0.59423 0.15124 0.0
C792 C 0.92254 0.56944 0.17805 0.0
C793 C 0.912 0.55003 0.18881 0.0
C794 C 0.85366 0.57355 0.12655 0.0
C795 C 0.88909 0.57054 0.1521 0.0
C796 C 0.84427 0.57846 0.10505 0.0
C797 C 0.85872 0.58884 0.08797 0.0
C798 C 0.87768 0.57911 0.13111 0.0
C799 C 0.8822 0.59567 0.09381 0.0
C800 C 0.91124 0.57962 0.15963 0.0
C801 C 0.88937 0.54211 0.1813 0.0
N802 N 0.89107 0.5904 0.11483 0.0
N803 N 0.87879 0.55228 0.16331 0.0
H804 H 0.7702 0.6934 0.34242 0.0
H805 H 0.7489 0.56017 0.31228 0.0
H806 H 0.7691 0.64031 0.39367 0.0
H807 H 0.75838 0.61281 0.26094 0.0
H808 H 0.75123 0.58964 0.34248 0.0
H809 H 0.76127 0.66446 0.31272 0.0
C810 C 0.76799 0.67566 0.34748 0.0
C811 C 0.7706 0.66929 0.37062 0.0
C812 C 0.75261 0.59476 0.32461 0.0
C813 C 0.7603 0.63597 0.33653 0.0
C814 C 0.75117 0.57794 0.30731 0.0
C815 C 0.75362 0.58398 0.28399 0.0
C816 C 0.7565 0.61782 0.31859 0.0
C817 C 0.75651 0.60731 0.27866 0.0
C818 C 0.76288 0.65912 0.33047 0.0
C819 C 0.7674 0.64602 0.37607 0.0
N820 N 0.75802 0.62334 0.29582 0.0
N821 N 0.76252 0.6302 0.35914 0.0
H822 H 0.82174 0.56668 0.19424 0.0
H823 H 0.93626 0.65216 0.20321 0.0
H824 H 0.87535 0.56257 0.24699 0.0
H825 H 0.87653 0.66344 0.15895 0.0
H826 H 0.91706 0.61598 0.21528 0.0
H827 H 0.84429 0.5989 0.17743 0.0
C828 C 0.83821 0.57252 0.20238 0.0
C829 C 0.8463 0.56211 0.22248 0.0
C830 C 0.90818 0.62633 0.20287 0.0
C831 C 0.87253 0.59889 0.20287 0.0
C832 C 0.9191 0.64704 0.196 0.0
C833 C 0.90776 0.66115 0.18038 0.0
C834 C 0.88573 0.61958 0.19409 0.0
C835 C 0.88589 0.6532 0.17106 0.0
C836 C 0.85113 0.59093 0.19267 0.0
C837 C 0.86829 0.57001 0.23161 0.0
N838 N 0.87548 0.63305 0.17823 0.0
N839 N 0.88054 0.58803 0.22183 0.0
H840 H 0.56698 0.35375 0.67947 0.0
H841 H 0.69037 0.42662 0.68793 0.0
H842 H 0.63375 0.32793 0.65695 0.0
H843 H 0.6275 0.44212 0.72655 0.0
H844 H 0.66839 0.39414 0.66979 0.0
H845 H 0.58741 0.39027 0.68935 0.0
C846 C 0.58592 0.35584 0.67638 0.0
C847 C 0.59875 0.33757 0.66781 0.0
C848 C 0.65942 0.40469 0.68221 0.0
C849 C 0.62224 0.37936 0.6791 0.0
C850 C 0.67195 0.42317 0.69262 0.0
C851 C 0.66082 0.43694 0.709 0.0
C852 C 0.63557 0.39996 0.68818 0.0
C853 C 0.63677 0.43201 0.71401 0.0
C854 C 0.59756 0.37668 0.68205 0.0
C855 C 0.62315 0.34147 0.66358 0.0
N856 N 0.625 0.41383 0.70377 0.0
N857 N 0.63418 0.36186 0.66954 0.0
H858 H 0.52728 0.58257 0.53701 0.0
H859 H 0.50497 0.56099 0.67169 0.0
H860 H 0.51835 0.63764 0.58597 0.0
H861 H 0.52346 0.50893 0.6224 0.0
H862 H 0.505 0.58887 0.64033 0.0
H863 H 0.52141 0.55516 0.56789 0.0
C864 C 0.52405 0.58896 0.55428 0.0
C865 C 0.52349 0.61254 0.55887 0.0
C866 C 0.50886 0.5713 0.6364 0.0
C867 C 0.5167 0.58095 0.59458 0.0
C868 C 0.5087 0.55534 0.65425 0.0
C869 C 0.51436 0.5326 0.64968 0.0
C870 C 0.51456 0.5644 0.61385 0.0
C871 C 0.51916 0.52628 0.62679 0.0
C872 C 0.52067 0.57322 0.57197 0.0
C873 C 0.51906 0.61965 0.58165 0.0
N874 N 0.51924 0.54209 0.60981 0.0
N875 N 0.51592 0.6039 0.5987 0.0
H876 H 0.65064 0.24032 0.86637 0.0
H877 H 0.61412 0.24808 0.73389 0.0
H878 H 0.70096 0.23912 0.81022 0.0
H879 H 0.56286 0.23984 0.78902 0.0
H880 H 0.64599 0.2432 0.76153 0.0
H881 H 0.61815 0.23849 0.83842 0.0
C882 C 0.65484 0.23956 0.84815 0.0
C883 C 0.67857 0.24009 0.84062 0.0
C884 C 0.62778 0.24228 0.7676 0.0
C885 C 0.64146 0.23799 0.80849 0.0
C886 C 0.60953 0.24512 0.75181 0.0
C887 C 0.58575 0.24455 0.75917 0.0
C888 C 0.6223 0.23904 0.79101 0.0
C889 C 0.58092 0.24048 0.78259 0.0
C890 C 0.63628 0.23841 0.8322 0.0
C891 C 0.68297 0.23866 0.81682 0.0
N892 N 0.59906 0.23809 0.79772 0.0
N893 N 0.6646 0.23792 0.8016 0.0
H894 H 0.9876 0.49929 0.13315 0.0
H895 H 0.99373 0.36481 0.10935 0.0
H896 H 0.00268 0.45145 0.18679 0.0
H897 H 0.98828 0.41542 0.05613 0.0
H898 H 0.99801 0.39583 0.13813 0.0
H899 H 0.98908 0.46844 0.10473 0.0
C900 C 0.99144 0.48231 0.13894 0.0
C901 C 0.99493 0.47795 0.1624 0.0
C902 C 0.99602 0.40007 0.12011 0.0
C903 C 0.99636 0.44232 0.12988 0.0
C904 C 0.99353 0.38238 0.10369 0.0
C905 C 0.99049 0.38747 0.08028 0.0
C906 C 0.99535 0.42296 0.11305 0.0
C907 C 0.99045 0.41058 0.07395 0.0
C908 C 0.99227 0.46465 0.12268 0.0
C909 C 0.99992 0.45559 0.16886 0.0
N910 N 0.9927 0.42738 0.09021 0.0
N911 N 1.00026 0.43854 0.1527 0.0
H912 H 0.81254 0.78721 0.31301 0.0
H913 H 0.95063 0.77666 0.28369 0.0
H914 H 0.86581 0.77675 0.36465 0.0
H915 H 0.89426 0.76632 0.2338 0.0
H916 H 0.92091 0.78529 0.31312 0.0
H917 H 0.84368 0.78871 0.28344 0.0
C918 C 0.83085 0.78573 0.31818 0.0
C919 C 0.83662 0.78164 0.34126 0.0
C920 C 0.91512 0.78132 0.29566 0.0
C921 C 0.87224 0.78308 0.30757 0.0
C922 C 0.93206 0.77645 0.27887 0.0
C923 C 0.92488 0.7705 0.25634 0.0
C924 C 0.89091 0.78048 0.28979 0.0
C925 C 0.90057 0.77054 0.25103 0.0
C926 C 0.84858 0.78638 0.30129 0.0
C927 C 0.86062 0.7796 0.34698 0.0
N928 N 0.88447 0.77536 0.26764 0.0
N929 N 0.87756 0.78019 0.33023 0.0
H930 H 0.57268 0.44101 0.67676 0.0
H931 H 0.69396 0.4376 0.60552 0.0
H932 H 0.63184 0.49016 0.6853 0.0
H933 H 0.62869 0.40251 0.58352 0.0
H934 H 0.67393 0.45039 0.64042 0.0
H935 H 0.59541 0.42102 0.64778 0.0
C936 C 0.59036 0.44774 0.67265 0.0
C937 C 0.59996 0.46784 0.68331 0.0
C938 C 0.66404 0.43974 0.62804 0.0
C939 C 0.62637 0.44439 0.65036 0.0
C940 C 0.67545 0.43244 0.6081 0.0
C941 C 0.66284 0.4194 0.59127 0.0
C942 C 0.63983 0.43396 0.63126 0.0
C943 C 0.63908 0.41263 0.59591 0.0
C944 C 0.60337 0.43615 0.6561 0.0
C945 C 0.62343 0.47496 0.67763 0.0
N946 N 0.62824 0.42024 0.61535 0.0
N947 N 0.63572 0.46334 0.66148 0.0
H948 H 0.91017 0.3961 0.96441 0.0
H949 H 0.88222 0.52645 0.98751 0.0
H950 H 0.96451 0.45026 0.9698 0.0
H951 H 0.82808 0.47419 0.97107 0.0
H952 H 0.91266 0.49933 0.97859 0.0
H953 H 0.87992 0.42474 0.96398 0.0
C954 C 0.91572 0.41406 0.96518 0.0
C955 C 0.93986 0.4208 0.96731 0.0
C956 C 0.89413 0.49384 0.9767 0.0
C957 C 0.90537 0.45372 0.9671 0.0
C958 C 0.87672 0.50931 0.98185 0.0
C959 C 0.85253 0.50254 0.98025 0.0
C960 C 0.88737 0.4713 0.97011 0.0
C961 C 0.84649 0.48015 0.97266 0.0
C962 C 0.89847 0.43041 0.96492 0.0
C963 C 0.94614 0.4443 0.96802 0.0
N964 N 0.86379 0.46527 0.96812 0.0
N965 N 0.92898 0.4599 0.96826 0.0
H966 H 0.64834 0.47202 0.48888 0.0
H967 H 0.61675 0.59909 0.45856 0.0
H968 H 0.70216 0.52529 0.47574 0.0
H969 H 0.56594 0.54177 0.45446 0.0
H970 H 0.64853 0.57252 0.46391 0.0
H971 H 0.61805 0.49735 0.47587 0.0
C972 C 0.65381 0.48905 0.4832 0.0
C973 C 0.67783 0.49661 0.48358 0.0
C974 C 0.63049 0.56573 0.46151 0.0
C975 C 0.64312 0.52578 0.46868 0.0
C976 C 0.61237 0.58088 0.4585 0.0
C977 C 0.58869 0.57261 0.45621 0.0
C978 C 0.62484 0.54213 0.46258 0.0
C979 C 0.58395 0.54886 0.45603 0.0
C980 C 0.63649 0.50347 0.47564 0.0
C981 C 0.68386 0.51878 0.4758 0.0
N982 N 0.60182 0.53446 0.45952 0.0
N983 N 0.66658 0.53268 0.46889 0.0
H984 H 0.00251 0.06959 0.22282 0.0
H985 H 0.08065 0.16416 0.28203 0.0
H986 H 0.02684 0.06014 0.29254 0.0
H987 H 0.01415 0.18541 0.25465 0.0
H988 H 0.06577 0.12421 0.27917 0.0
H989 H 0.00959 0.11118 0.22794 0.0
C990 C 0.00888 0.07624 0.2393 0.0
C991 C 0.01429 0.06133 0.2572 0.0
C992 C 0.05448 0.13766 0.27377 0.0
C993 C 0.02301 0.10845 0.26276 0.0
C994 C 0.06299 0.16036 0.27519 0.0
C995 C 0.04858 0.17797 0.26846 0.0
C996 C 0.0317 0.13252 0.26494 0.0
C997 C 0.02572 0.1722 0.26 0.0
C998 C 0.01289 0.09989 0.24216 0.0
C999 C 0.02252 0.0709 0.27821 0.0
N1000 N 0.01802 0.14982 0.25814 0.0
N1001 N 0.02719 0.0938 0.28021 0.0
H1002 H 0.21182 0.72997 0.56848 0.0
H1003 H 0.124 0.80399 0.49445 0.0
H1004 H 0.22542 0.80149 0.55333 0.0
H1005 H 0.10687 0.73471 0.516 0.0
H1006 H 0.16134 0.80327 0.51559 0.0
H1007 H 0.17334 0.7313 0.54923 0.0
C1008 C 0.20667 0.746 0.56125 0.0
C1009 C 0.22195 0.76563 0.5625 0.0
C1010 C 0.14938 0.78823 0.51569 0.0
C1011 C 0.17794 0.76722 0.54022 0.0
C1012 C 0.12795 0.78864 0.50365 0.0
C1013 C 0.11207 0.76938 0.50332 0.0
C1014 C 0.15514 0.76839 0.5275 0.0
C1015 C 0.11854 0.74988 0.51539 0.0
C1016 C 0.18469 0.74673 0.55022 0.0
C1017 C 0.21427 0.78592 0.5528 0.0
N1018 N 0.13953 0.7499 0.52693 0.0
N1019 N 0.19289 0.78615 0.54198 0.0
H1020 H 0.49475 0.93775 0.77006 0.0
H1021 H 0.43874 0.82629 0.83078 0.0
H1022 H 0.47453 0.93553 0.84192 0.0
H1023 H 0.46908 0.82553 0.76232 0.0
H1024 H 0.45398 0.86575 0.83585 0.0
H1025 H 0.48861 0.89617 0.76771 0.0
C1026 C 0.48947 0.92849 0.78547 0.0
C1027 C 0.48493 0.94021 0.80617 0.0
C1028 C 0.45749 0.85692 0.81978 0.0
C1029 C 0.47742 0.8926 0.80347 0.0
C1030 C 0.4487 0.83438 0.81683 0.0
C1031 C 0.45245 0.82261 0.796 0.0
C1032 C 0.46997 0.86793 0.80171 0.0
C1033 C 0.46565 0.83396 0.77862 0.0
C1034 C 0.48587 0.90473 0.78409 0.0
C1035 C 0.47818 0.92727 0.82558 0.0
N1036 N 0.47373 0.85605 0.78178 0.0
N1037 N 0.47428 0.90422 0.82366 0.0
H1038 H 0.30071 0.21571 0.09553 0.0
H1039 H 0.39216 0.27512 0.00588 0.0
H1040 H 0.28806 0.27921 0.06135 0.0
H1041 H 0.4003 0.20815 0.03447 0.0
H1042 H 0.35529 0.27816 0.0278 0.0
H1043 H 0.33869 0.21415 0.07542 0.0
C1044 C 0.30598 0.22945 0.08394 0.0
C1045 C 0.29107 0.24759 0.08008 0.0
C1046 C 0.36513 0.26279 0.02926 0.0
C1047 C 0.33462 0.2458 0.05681 0.0
C1048 C 0.38624 0.26107 0.0168 0.0
C1049 C 0.39938 0.24133 0.01828 0.0
C1050 C 0.3571 0.24468 0.04343 0.0
C1051 C 0.39064 0.22355 0.03253 0.0
C1052 C 0.32767 0.22848 0.07237 0.0
C1053 C 0.29893 0.26488 0.06484 0.0
N1054 N 0.37012 0.22568 0.04457 0.0
N1055 N 0.32012 0.26351 0.05371 0.0
H1056 H 0.26364 0.9783 0.21602 0.0
H1057 H 0.30351 0.03049 0.09394 0.0
H1058 H 0.28761 0.04872 0.20626 0.0
H1059 H 0.28334 0.95918 0.10396 0.0
H1060 H 0.29709 0.03756 0.13496 0.0
H1061 H 0.27004 0.97102 0.17495 0.0
C1062 C 0.27032 0.99222 0.20532 0.0
C1063 C 0.27505 0.01417 0.21473 0.0
C1064 C 0.29406 0.02035 0.12819 0.0
C1065 C 0.28223 0.00599 0.16754 0.0
C1066 C 0.29787 0.01626 0.10474 0.0
C1067 C 0.29404 0.99417 0.09537 0.0
C1068 C 0.28635 0.00223 0.1425 0.0
C1069 C 0.28628 0.97653 0.11027 0.0
C1070 C 0.27387 0.98807 0.18181 0.0
C1071 C 0.28336 0.03162 0.19984 0.0
N1072 N 0.28273 0.98094 0.13307 0.0
N1073 N 0.28669 0.02713 0.17704 0.0
H1074 H 0.19348 0.97377 0.44811 0.0
H1075 H 0.2692 0.07471 0.38612 0.0
H1076 H 0.22077 0.03481 0.48335 0.0
H1077 H 0.23763 0.01594 0.35011 0.0
H1078 H 0.25586 0.05809 0.42267 0.0
H1079 H 0.21441 0.98632 0.41321 0.0
C1080 C 0.20423 0.98961 0.44867 0.0
C1081 C 0.20513 0.00336 0.46868 0.0
C1082 C 0.25197 0.04875 0.40679 0.0
C1083 C 0.22892 0.01799 0.42858 0.0
C1084 C 0.25956 0.05825 0.38588 0.0
C1085 C 0.25437 0.0468 0.36495 0.0
C1086 C 0.23905 0.02762 0.40686 0.0
C1087 C 0.24191 0.02546 0.36578 0.0
C1088 C 0.21607 0.99683 0.42865 0.0
C1089 C 0.21942 0.02369 0.46832 0.0
N1090 N 0.23457 0.01663 0.38636 0.0
N1091 N 0.23052 0.03051 0.44852 0.0
H1092 H 0.16311 0.00334 0.73493 0.0
H1093 H 0.19348 0.99402 0.60026 0.0
H1094 H 0.21789 0.9624 0.70639 0.0
H1095 H 0.14994 0.04642 0.62803 0.0
H1096 H 0.19997 0.98041 0.6392 0.0
H1097 H 0.15521 0.01755 0.69597 0.0
C1098 C 0.17339 0.99734 0.72048 0.0
C1099 C 0.19133 0.98189 0.72389 0.0
C1100 C 0.18901 0.99492 0.63686 0.0
C1101 C 0.18244 0.99788 0.67954 0.0
C1102 C 0.1852 0.00261 0.61458 0.0
C1103 C 0.17109 0.02133 0.61088 0.0
C1104 C 0.17853 0.00589 0.6557 0.0
C1105 C 0.1611 0.03205 0.63016 0.0
C1106 C 0.169 0.00551 0.69833 0.0
C1107 C 0.20423 0.97465 0.70463 0.0
N1108 N 0.16492 0.0241 0.65178 0.0
N1109 N 0.1995 0.98266 0.68334 0.0
H1110 H 0.29153 0.98806 0.83281 0.0
H1111 H 0.26811 0.02076 0.96398 0.0
H1112 H 0.22195 0.98521 0.86434 0.0
H1113 H 0.33419 0.03825 0.92915 0.0
H1114 H 0.25019 0.01038 0.92679 0.0
H1115 H 0.30724 0.00855 0.86707 0.0
C1116 C 0.27953 0.99192 0.84679 0.0
C1117 C 0.25543 0.98471 0.84577 0.0
C1118 C 0.2685 0.01687 0.92721 0.0
C1119 C 0.27328 0.00795 0.88499 0.0
C1120 C 0.2787 0.02293 0.94846 0.0
C1121 C 0.30273 0.03024 0.94975 0.0
C1122 C 0.28252 0.01778 0.90711 0.0
C1123 C 0.3156 0.03268 0.92903 0.0
C1124 C 0.28849 0.00363 0.86632 0.0
C1125 C 0.24069 0.99023 0.8644 0.0
N1126 N 0.30547 0.02606 0.90861 0.0
N1127 N 0.24988 0.00128 0.88328 0.0
H1128 H 0.07523 0.33553 0.02433 0.0
H1129 H 0.13225 0.22638 0.07829 0.0
H1130 H 0.03745 0.26982 0.02429 0.0
H1131 H 0.17397 0.27476 0.03772 0.0
H1132 H 0.0961 0.24585 0.06739 0.0
H1133 H 0.11095 0.3172 0.03835 0.0
C1134 C 0.07447 0.31732 0.02756 0.0
C1135 C 0.05361 0.30406 0.02308 0.0
C1136 C 0.11322 0.25216 0.06094 0.0
C1137 C 0.09382 0.28321 0.03932 0.0
C1138 C 0.13371 0.24113 0.06716 0.0
C1139 C 0.1559 0.24888 0.05861 0.0
C1140 C 0.11515 0.27144 0.04669 0.0
C1141 C 0.15706 0.26812 0.04432 0.0
C1142 C 0.09475 0.30689 0.03538 0.0
C1143 C 0.05336 0.28049 0.02737 0.0
N1144 N 0.13697 0.27888 0.03891 0.0
N1145 N 0.07314 0.2708 0.0354 0.0
H1146 H 0.63685 0.30238 0.93332 0.0
H1147 H 0.57035 0.1912 0.9856 0.0
H1148 H 0.67352 0.24417 0.95769 0.0
H1149 H 0.53533 0.25361 0.97149 0.0
H1150 H 0.60859 0.21094 0.97731 0.0
H1151 H 0.59981 0.28567 0.94916 0.0
C1152 C 0.63719 0.28622 0.94224 0.0
C1153 C 0.65832 0.27459 0.944 0.0
C1154 C 0.59255 0.22038 0.97624 0.0
C1155 C 0.61588 0.2552 0.96196 0.0
C1156 C 0.5707 0.2091 0.98095 0.0
C1157 C 0.54956 0.22069 0.97906 0.0
C1158 C 0.59328 0.24337 0.96938 0.0
C1159 C 0.55114 0.24392 0.97306 0.0
C1160 C 0.61601 0.27666 0.95127 0.0
C1161 C 0.65766 0.25372 0.95582 0.0
N1162 N 0.57258 0.25442 0.96822 0.0
N1163 N 0.63675 0.24458 0.96411 0.0
H1164 H 0.97469 0.31731 0.2823 0.0
H1165 H 0.0221 0.4466 0.30481 0.0
H1166 H 0.04414 0.33517 0.31008 0.0
H1167 H 0.96433 0.42779 0.25869 0.0
H1168 H 0.02699 0.40599 0.31255 0.0
H1169 H 0.9673 0.35799 0.27906 0.0
C1170 C 0.98829 0.3298 0.28793 0.0
C1171 C 0.0101 0.32287 0.29641 0.0
C1172 C 0.01317 0.41078 0.30083 0.0
C1173 C 0.0018 0.36942 0.29269 0.0
C1174 C 0.01025 0.43393 0.29657 0.0
C1175 C 0.99284 0.44051 0.28101 0.0
C1176 C 0.99838 0.39415 0.28967 0.0
C1177 C 0.97813 0.42339 0.27058 0.0
C1178 C 0.98413 0.353 0.28594 0.0
C1179 C 0.02722 0.33981 0.30319 0.0
N1180 N 0.98123 0.40099 0.27508 0.0
N1181 N 0.0227 0.36232 0.30121 0.0
H1182 H 0.94738 0.78332 0.51274 0.0
H1183 H 0.86361 0.72107 0.41777 0.0
H1184 H 0.97202 0.75895 0.44674 0.0
H1185 H 0.83809 0.74378 0.48405 0.0
H1186 H 0.90419 0.731 0.43008 0.0
H1187 H 0.90803 0.76559 0.50442 0.0
C1188 C 0.9446 0.7741 0.4966 0.0
C1189 C 0.963 0.77284 0.48032 0.0
C1190 C 0.88976 0.73359 0.44206 0.0
C1191 C 0.91802 0.75253 0.47068 0.0
C1192 C 0.86654 0.72784 0.43505 0.0
C1193 C 0.84735 0.7318 0.4498 0.0
C1194 C 0.89388 0.74354 0.46394 0.0
C1195 C 0.85231 0.74054 0.47204 0.0
C1196 C 0.92212 0.76397 0.49186 0.0
C1197 C 0.95836 0.76057 0.45973 0.0
N1198 N 0.87506 0.74637 0.47833 0.0
N1199 N 0.93633 0.75106 0.45546 0.0
H1200 H 0.33823 0.7051 0.52366 0.0
H1201 H 0.4691 0.71643 0.47559 0.0
H1202 H 0.37988 0.76831 0.53152 0.0
H1203 H 0.44241 0.65409 0.50736 0.0
H1204 H 0.43434 0.73591 0.49023 0.0
H1205 H 0.3742 0.68584 0.51198 0.0
C1206 C 0.35502 0.71487 0.52285 0.0
C1207 C 0.35627 0.73826 0.52841 0.0
C1208 C 0.43617 0.71799 0.49404 0.0
C1209 C 0.39715 0.71658 0.51486 0.0
C1210 C 0.45581 0.70688 0.48557 0.0
C1211 C 0.45842 0.68366 0.49025 0.0
C1212 C 0.41879 0.70562 0.50675 0.0
C1213 C 0.44095 0.67203 0.50349 0.0
C1214 C 0.37546 0.7039 0.51636 0.0
C1215 C 0.37837 0.75023 0.52738 0.0
N1216 N 0.42166 0.68306 0.51106 0.0
N1217 N 0.39799 0.73931 0.5204 0.0
H1218 H 0.05099 0.92982 0.17993 0.0
H1219 H 0.9487 0.83107 0.18726 0.0
H1220 H 0.98361 0.93754 0.21395 0.0
H1221 H 0.0141 0.82364 0.14972 0.0
H1222 H 0.9597 0.87144 0.19378 0.0
H1223 H 0.03634 0.89254 0.16497 0.0
C1224 C 0.03299 0.92387 0.18396 0.0
C1225 C 0.01862 0.9367 0.19851 0.0
C1226 C 0.97159 0.86108 0.18392 0.0
C1227 C 0.00185 0.89391 0.1817 0.0
C1228 C 0.96533 0.838 0.18028 0.0
C1229 C 0.98063 0.82391 0.16817 0.0
C1230 C 0.99344 0.87019 0.17559 0.0
C1231 C 0.00176 0.83389 0.1591 0.0
C1232 C 0.02468 0.90251 0.17552 0.0
C1233 C 0.99549 0.92801 0.20325 0.0
N1234 N 0.0077 0.85636 0.16324 0.0
N1235 N 0.98793 0.90711 0.19506 0.0
H1236 H 0.45183 0.08099 0.73388 0.0
H1237 H 0.55088 0.1724 0.69256 0.0
H1238 H 0.52066 0.06119 0.7106 0.0
H1239 H 0.47627 0.18301 0.68388 0.0
H1240 H 0.54102 0.13261 0.70342 0.0
H1241 H 0.46112 0.11989 0.71986 0.0
C1242 C 0.46885 0.08488 0.72576 0.0
C1243 C 0.48547 0.06794 0.72328 0.0
C1244 C 0.52684 0.14362 0.69896 0.0
C1245 C 0.49633 0.11221 0.70756 0.0
C1246 C 0.53245 0.16627 0.69288 0.0
C1247 C 0.51436 0.18089 0.68727 0.0
C1248 C 0.50293 0.13574 0.69993 0.0
C1249 C 0.49073 0.17218 0.68785 0.0
C1250 C 0.47409 0.10696 0.71769 0.0
C1251 C 0.50728 0.07373 0.71258 0.0
N1252 N 0.48565 0.15022 0.69433 0.0
N1253 N 0.51219 0.09546 0.70532 0.0
H1254 H 0.5325 0.33402 0.76101 0.0
H1255 H 0.48146 0.42509 0.67706 0.0
H1256 H 0.49778 0.3155 0.69671 0.0
H1257 H 0.50191 0.44052 0.74748 0.0
H1258 H 0.48282 0.38429 0.68542 0.0
H1259 H 0.51707 0.37219 0.7583 0.0
C1260 C 0.52124 0.33783 0.74655 0.0
C1261 C 0.51671 0.32162 0.72893 0.0
C1262 C 0.48659 0.3966 0.69915 0.0
C1263 C 0.49934 0.36547 0.72545 0.0
C1264 C 0.4858 0.41993 0.69439 0.0
C1265 C 0.49197 0.4363 0.71147 0.0
C1266 C 0.49386 0.38962 0.72108 0.0
C1267 C 0.49732 0.42855 0.73365 0.0
C1268 C 0.51244 0.35966 0.74498 0.0
C1269 C 0.50188 0.32749 0.71065 0.0
N1270 N 0.49853 0.40582 0.7377 0.0
N1271 N 0.49411 0.34907 0.70916 0.0
H1272 H 0.82946 0.25221 0.95348 0.0
H1273 H 0.8833 0.35805 0.0283 0.0
H1274 H 0.78922 0.31033 0.97305 0.0
H1275 H 0.9238 0.30125 0.00534 0.0
H1276 H 0.84748 0.33897 0.01195 0.0
H1277 H 0.86301 0.26822 0.97576 0.0
C1278 C 0.82756 0.26825 0.96259 0.0
C1279 C 0.80642 0.27995 0.96123 0.0
C1280 C 0.86417 0.33058 0.0107 0.0
C1281 C 0.84504 0.29858 0.98672 0.0
C1282 C 0.88461 0.34141 0.02017 0.0
C1283 C 0.90665 0.33133 0.01804 0.0
C1284 C 0.86577 0.30953 0.99905 0.0
C1285 C 0.90725 0.30976 0.00724 0.0
C1286 C 0.84682 0.27745 0.97527 0.0
C1287 C 0.80523 0.30086 0.97325 0.0
N1288 N 0.88718 0.29969 0.99802 0.0
N1289 N 0.82428 0.30952 0.98542 0.0
H1290 H 0.01265 0.69699 0.19527 0.0
H1291 H 0.01224 0.57591 0.25674 0.0
H1292 H 0.9824 0.68296 0.26245 0.0
H1293 H 0.02855 0.58658 0.1847 0.0
H1294 H 0.01235 0.61727 0.26255 0.0
H1295 H 0.02949 0.65928 0.1951 0.0
C1296 C 0.01002 0.68624 0.21025 0.0
C1297 C 0.99566 0.69299 0.22872 0.0
C1298 C 0.01632 0.61057 0.24556 0.0
C1299 C 0.01475 0.64972 0.22849 0.0
C1300 C 0.01633 0.58693 0.24221 0.0
C1301 C 0.01989 0.57771 0.22006 0.0
C1302 C 0.01988 0.62514 0.22664 0.0
C1303 C 0.02537 0.59289 0.202 0.0
C1304 C 0.01956 0.66464 0.21007 0.0
C1305 C 0.99303 0.67834 0.24769 0.0
N1306 N 0.02482 0.61586 0.20561 0.0
N1307 N 0.00216 0.65727 0.24693 0.0
H1308 H 0.62425 0.66809 0.52899 0.0
H1309 H 0.69617 0.71411 0.42074 0.0
H1310 H 0.58994 0.68328 0.46474 0.0
H1311 H 0.71744 0.73596 0.48915 0.0
H1312 H 0.65896 0.69747 0.43667 0.0
H1313 H 0.66061 0.68859 0.51512 0.0
C1314 C 0.62427 0.6759 0.51212 0.0
C1315 C 0.60404 0.67395 0.49801 0.0
C1316 C 0.67174 0.706 0.44818 0.0
C1317 C 0.64548 0.69678 0.48197 0.0
C1318 C 0.69295 0.71533 0.43913 0.0
C1319 C 0.70974 0.72639 0.45369 0.0
C1320 C 0.66755 0.70727 0.47204 0.0
C1321 C 0.70475 0.7277 0.4774 0.0
C1322 C 0.64496 0.68757 0.50426 0.0
C1323 C 0.60506 0.68438 0.47627 0.0
N1324 N 0.68416 0.718 0.48594 0.0
N1325 N 0.62552 0.69505 0.4688 0.0
H1326 H 0.77644 0.42154 0.43199 0.0
H1327 H 0.71389 0.44391 0.31121 0.0
H1328 H 0.7005 0.4226 0.42362 0.0
H1329 H 0.78561 0.46829 0.32652 0.0
H1330 H 0.71021 0.4288 0.35028 0.0
H1331 H 0.7815 0.43136 0.39113 0.0
C1332 C 0.76084 0.42346 0.42143 0.0
C1333 C 0.738 0.42131 0.43111 0.0
C1334 C 0.7268 0.43734 0.34505 0.0
C1335 C 0.74364 0.43258 0.38461 0.0
C1336 C 0.72898 0.44583 0.32271 0.0
C1337 C 0.75011 0.45739 0.31565 0.0
C1338 C 0.74597 0.44018 0.36038 0.0
C1339 C 0.76897 0.45967 0.3314 0.0
C1340 C 0.76374 0.42926 0.39823 0.0
C1341 C 0.71838 0.42429 0.41679 0.0
N1342 N 0.76649 0.45111 0.35306 0.0
N1343 N 0.72164 0.42977 0.39424 0.0
H1344 H 0.76537 0.44364 0.56496 0.0
H1345 H 0.76417 0.50697 0.68728 0.0
H1346 H 0.73503 0.50904 0.57739 0.0
H1347 H 0.77281 0.43451 0.67806 0.0
H1348 H 0.766 0.51161 0.6455 0.0
H1349 H 0.78052 0.44437 0.60442 0.0
C1350 C 0.7624 0.45845 0.57575 0.0
C1351 C 0.74848 0.47614 0.56797 0.0
C1352 C 0.76793 0.49477 0.65267 0.0
C1353 C 0.76575 0.47694 0.61317 0.0
C1354 C 0.76696 0.49208 0.67654 0.0
C1355 C 0.76783 0.4702 0.68621 0.0
C1356 C 0.7699 0.47549 0.63834 0.0
C1357 C 0.77171 0.45163 0.67137 0.0
C1358 C 0.77097 0.45876 0.59834 0.0
C1359 C 0.74535 0.49489 0.58276 0.0
N1360 N 0.77226 0.45465 0.64814 0.0
N1361 N 0.75363 0.49466 0.60477 0.0
H1362 H 0.81456 0.57667 0.91859 0.0
H1363 H 0.71798 0.52328 0.83325 0.0
H1364 H 0.74048 0.57188 0.93743 0.0
H1365 H 0.77841 0.56331 0.80772 0.0
H1366 H 0.72745 0.53691 0.87255 0.0
H1367 H 0.80348 0.56794 0.87832 0.0
C1368 C 0.79598 0.57393 0.91414 0.0
C1369 C 0.77838 0.57505 0.93119 0.0
C1370 C 0.73848 0.54286 0.85829 0.0
C1371 C 0.76565 0.56468 0.88562 0.0
C1372 C 0.73316 0.53503 0.83599 0.0
C1373 C 0.74742 0.54228 0.81737 0.0
C1374 C 0.75857 0.55754 0.86199 0.0
C1375 C 0.76689 0.55755 0.82167 0.0
C1376 C 0.78967 0.56906 0.89126 0.0
C1377 C 0.75452 0.57139 0.92469 0.0
N1378 N 0.77212 0.56446 0.84362 0.0
N1379 N 0.74885 0.56605 0.90244 0.0
H1380 H 0.7462 0.54007 0.17972 0.0
H1381 H 0.80086 0.48367 0.06769 0.0
H1382 H 0.77083 0.47139 0.17655 0.0
H1383 H 0.7678 0.5487 0.06693 0.0
H1384 H 0.78482 0.47689 0.10627 0.0
H1385 H 0.7487 0.54186 0.13748 0.0
C1386 C 0.75163 0.52522 0.17013 0.0
C1387 C 0.75868 0.50569 0.18166 0.0
C1388 C 0.78072 0.4925 0.09757 0.0
C1389 C 0.76182 0.50766 0.13352 0.0
C1390 C 0.78987 0.49635 0.07549 0.0
C1391 C 0.78588 0.51686 0.06417 0.0
C1392 C 0.76783 0.50947 0.10862 0.0
C1393 C 0.77138 0.53265 0.07506 0.0
C1394 C 0.75314 0.52625 0.14603 0.0
C1395 C 0.7656 0.48694 0.1684 0.0
N1396 N 0.76323 0.52881 0.09686 0.0
N1397 N 0.76729 0.4885 0.14511 0.0
H1398 H 0.49965 0.6959 0.78888 0.0
H1399 H 0.4724 0.56145 0.79484 0.0
H1400 H 0.43126 0.66718 0.81002 0.0
H1401 H 0.52408 0.59198 0.74808 0.0
H1402 H 0.45982 0.59977 0.80535 0.0
H1403 H 0.51173 0.65752 0.77847 0.0
C1404 C 0.48724 0.68146 0.79146 0.0
C1405 C 0.46446 0.68464 0.8004 0.0
C1406 C 0.4739 0.59805 0.79278 0.0
C1407 C 0.47817 0.64074 0.7886 0.0
C1408 C 0.4812 0.57625 0.78693 0.0
C1409 C 0.49934 0.57362 0.77061 0.0
C1410 C 0.48513 0.61733 0.78254 0.0
C1411 C 0.50994 0.59331 0.76062 0.0
C1412 C 0.49408 0.65961 0.78537 0.0
C1413 C 0.44892 0.66539 0.80307 0.0
N1414 N 0.50281 0.61437 0.76686 0.0
N1415 N 0.45612 0.64418 0.79736 0.0
loop_
_geom_bond_atom_site_label_1
_geom_bond_atom_site_label_2
_geom_bond_distance
_geom_bond_site_symmetry_2
_ccdc_geom_bond_type
Cu0 N1 1.999 . S
Cu0 O6 1.974 . S
Cu0 N11 1.985 . S
Cu0 O20 1.959 . S
N1 Cu0 1.999 . S
N1 C3 1.263 . S
N1 C5 1.389 . S
N2 C3 1.358 . S
N2 C4 1.400 . S
C3 N1 1.263 . S
C3 N2 1.358 . S
C3 H9 0.930 . S
C4 N2 1.400 . S
C4 C5 1.351 . S
C4 H21 0.930 . S
C5 N1 1.389 . S
C5 C4 1.351 . S
C5 H10 0.930 . S
O6 Cu0 1.974 . S
O6 C16 1.282 . S
C7 O8 1.261 . S
C7 O20 1.251 . S
O8 C7 1.261 . S
H9 C3 0.930 . S
H10 C5 0.930 . S
N11 Cu0 1.985 . S
N11 C13 1.335 . S
N11 C14 1.390 . S
N12 C13 1.345 . S
N12 C15 1.336 . S
C13 N11 1.335 . S
C13 N12 1.345 . S
C13 H18 0.930 . S
C14 N11 1.390 . S
C14 C15 1.346 . S
C14 H19 0.930 . S
C15 N12 1.336 . S
C15 C14 1.346 . S
C15 H22 0.929 . S
C16 O6 1.282 . S
C16 O17 1.216 . S
O17 C16 1.216 . S
H18 C13 0.930 . S
H19 C14 0.930 . S
O20 Cu0 1.959 . S
O20 C7 1.251 . S
H21 C4 0.930 . S
H22 C15 0.929 . S
Cu23 N24 1.989 1_455 S
Cu23 O29 1.974 1_455 S
Cu23 N34 1.985 . S
Cu23 O43 1.959 . S
N24 Cu23 1.989 1_655 S
N24 C26 1.304 . S
N24 C28 1.360 1_655 S
N25 C26 1.358 . S
N25 C27 1.400 1_655 S
C26 N24 1.304 . S
C26 N25 1.358 . S
C26 H32 0.930 . S
C27 N25 1.400 1_455 S
C27 C28 1.351 . S
C27 H44 0.930 . S
C28 N24 1.360 1_455 S
C28 C27 1.351 . S
C28 H33 0.930 . S
O29 Cu23 1.974 1_655 S
O29 C39 1.282 . S
C30 O31 1.261 . S
C30 O43 1.251 . S
O31 C30 1.261 . S
H32 C26 0.930 . S
H33 C28 0.930 . S
N34 Cu23 1.985 . S
N34 C36 1.335 . S
N34 C37 1.390 1_455 S
N35 C36 1.345 . S
N35 C38 1.336 . S
C36 N34 1.335 . S
C36 N35 1.345 . S
C36 H41 0.930 . S
C37 N34 1.390 1_655 S
C37 C38 1.346 1_655 S
C37 H42 0.930 . S
C38 N35 1.336 . S
C38 C37 1.346 1_455 S
C38 H45 0.929 1_455 S
C39 O29 1.282 . S
C39 O40 1.216 . S
O40 C39 1.216 . S
H41 C36 0.930 . S
H42 C37 0.930 . S
O43 Cu23 1.959 . S
O43 C30 1.251 . S
H44 C27 0.930 . S
H45 C38 0.929 1_655 S
Cu46 N47 1.999 . S
Cu46 O52 1.974 . S
Cu46 N57 1.985 . S
Cu46 O66 1.959 . S
N47 Cu46 1.999 . S
N47 C49 1.263 . S
N47 C51 1.389 . S
N48 C49 1.358 . S
N48 C50 1.400 . S
C49 N47 1.263 . S
C49 N48 1.358 . S
C49 H55 0.930 . S
C50 N48 1.400 . S
C50 C51 1.351 . S
C50 H67 0.930 . S
C51 N47 1.389 . S
C51 C50 1.351 . S
C51 H56 0.930 . S
O52 Cu46 1.974 . S
O52 C62 1.282 . S
C53 O54 1.261 . S
C53 O66 1.251 . S
O54 C53 1.261 . S
H55 C49 0.930 . S
H56 C51 0.930 . S
N57 Cu46 1.985 . S
N57 C59 1.335 . S
N57 C60 1.390 . S
N58 C59 1.345 . S
N58 C61 1.336 . S
C59 N57 1.335 . S
C59 N58 1.345 . S
C59 H64 0.930 . S
C60 N57 1.390 . S
C60 C61 1.346 . S
C60 H65 0.930 . S
C61 N58 1.336 . S
C61 C60 1.346 . S
C61 H68 0.929 . S
C62 O52 1.282 . S
C62 O63 1.216 . S
O63 C62 1.216 . S
H64 C59 0.930 . S
H65 C60 0.930 . S
O66 Cu46 1.959 . S
O66 C53 1.251 . S
H67 C50 0.930 . S
H68 C61 0.929 . S
Cu69 N70 1.999 . S
Cu69 O75 1.974 . S
Cu69 N80 1.985 1_556 S
Cu69 O89 1.959 . S
N70 Cu69 1.999 . S
N70 C72 1.263 . S
N70 C74 1.389 . S
N71 C72 1.358 . S
N71 C73 1.400 . S
C72 N70 1.263 . S
C72 N71 1.358 . S
C72 H78 0.930 . S
C73 N71 1.400 . S
C73 C74 1.351 . S
C73 H90 0.930 . S
C74 N70 1.389 . S
C74 C73 1.351 . S
C74 H79 0.930 . S
O75 Cu69 1.974 . S
O75 C85 1.282 . S
C76 O77 1.261 . S
C76 O89 1.251 1_554 S
O77 C76 1.261 . S
H78 C72 0.930 . S
H79 C74 0.930 . S
N80 Cu69 1.985 1_554 S
N80 C82 1.335 . S
N80 C83 1.390 . S
N81 C82 1.345 . S
N81 C84 1.336 . S
C82 N80 1.335 . S
C82 N81 1.345 . S
C82 H87 0.930 . S
C83 N80 1.390 . S
C83 C84 1.346 . S
C83 H88 0.930 . S
C84 N81 1.336 . S
C84 C83 1.346 . S
C84 H91 0.929 . S
C85 O75 1.282 . S
C85 O86 1.216 1_556 S
O86 C85 1.216 1_554 S
H87 C82 0.930 . S
H88 C83 0.930 . S
O89 Cu69 1.959 . S
O89 C76 1.251 1_556 S
H90 C73 0.930 . S
H91 C84 0.929 . S
Cu92 N93 1.999 1_565 S
Cu92 O98 1.974 1_565 S
Cu92 N103 1.985 1_455 S
Cu92 O112 1.959 . S
N93 Cu92 1.999 1_545 S
N93 C95 1.263 . S
N93 C97 1.389 1_545 S
N94 C95 1.358 . S
N94 C96 1.400 . S
C95 N93 1.263 . S
C95 N94 1.358 . S
C95 H101 0.930 . S
C96 N94 1.400 . S
C96 C97 1.351 1_545 S
C96 H113 0.930 1_545 S
C97 N93 1.389 1_565 S
C97 C96 1.351 1_565 S
C97 H102 0.930 . S
O98 Cu92 1.974 1_545 S
O98 C108 1.282 . S
C99 O100 1.261 . S
C99 O112 1.251 1_655 S
O100 C99 1.261 . S
H101 C95 0.930 . S
H102 C97 0.930 . S
N103 Cu92 1.985 1_655 S
N103 C105 1.335 . S
N103 C106 1.390 1_565 S
N104 C105 1.345 . S
N104 C107 1.336 . S
C105 N103 1.335 . S
C105 N104 1.345 . S
C105 H110 0.930 . S
C106 N103 1.390 1_545 S
C106 C107 1.346 1_545 S
C106 H111 0.930 . S
C107 N104 1.336 . S
C107 C106 1.346 1_565 S
C107 H114 0.929 . S
C108 O98 1.282 . S
C108 O109 1.216 1_455 S
O109 C108 1.216 1_655 S
H110 C105 0.930 . S
H111 C106 0.930 . S
O112 Cu92 1.959 . S
O112 C99 1.251 1_455 S
H113 C96 0.930 1_565 S
H114 C107 0.929 . S
Cu115 N116 1.999 . S
Cu115 O121 1.974 . S
Cu115 N126 1.985 . S
Cu115 O135 1.959 . S
N116 Cu115 1.999 . S
N116 C118 1.263 . S
N116 C120 1.389 . S
N117 C118 1.358 . S
N117 C119 1.400 . S
C118 N116 1.263 . S
C118 N117 1.358 . S
C118 H124 0.930 . S
C119 N117 1.400 . S
C119 C120 1.351 . S
C119 H136 0.930 . S
C120 N116 1.389 . S
C120 C119 1.351 . S
C120 H125 0.930 . S
O121 Cu115 1.974 . S
O121 C131 1.282 . S
C122 O123 1.261 . S
C122 O135 1.251 . S
O123 C122 1.261 . S
H124 C118 0.930 . S
H125 C120 0.930 . S
N126 Cu115 1.985 . S
N126 C128 1.335 . S
N126 C129 1.390 . S
N127 C128 1.345 . S
N127 C130 1.336 . S
C128 N126 1.335 . S
C128 N127 1.345 . S
C128 H133 0.930 . S
C129 N126 1.390 . S
C129 C130 1.346 . S
C129 H134 0.930 . S
C130 N127 1.336 . S
C130 C129 1.346 . S
C130 H137 0.929 . S
C131 O121 1.282 . S
C131 O132 1.216 . S
O132 C131 1.216 . S
H133 C128 0.930 . S
H134 C129 0.930 . S
O135 Cu115 1.959 . S
O135 C122 1.251 . S
H136 C119 0.930 . S
H137 C130 0.929 . S
Cu138 N139 1.999 1_545 S
Cu138 O144 1.974 1_545 S
Cu138 N149 1.985 . S
Cu138 O158 1.959 . S
N139 Cu138 1.999 1_565 S
N139 C141 1.263 . S
N139 C143 1.389 1_565 S
N140 C141 1.358 . S
N140 C142 1.400 . S
C141 N139 1.263 . S
C141 N140 1.358 . S
C141 H147 0.930 . S
C142 N140 1.400 . S
C142 C143 1.351 1_565 S
C142 H159 0.930 1_565 S
C143 N139 1.389 1_545 S
C143 C142 1.351 1_545 S
C143 H148 0.930 . S
O144 Cu138 1.974 1_565 S
O144 C154 1.282 . S
C145 O146 1.261 . S
C145 O158 1.251 . S
O146 C145 1.261 . S
H147 C141 0.930 . S
H148 C143 0.930 . S
N149 Cu138 1.985 . S
N149 C151 1.335 . S
N149 C152 1.390 1_545 S
N150 C151 1.345 . S
N150 C153 1.336 . S
C151 N149 1.335 . S
C151 N150 1.345 . S
C151 H156 0.930 . S
C152 N149 1.390 1_565 S
C152 C153 1.346 1_565 S
C152 H157 0.930 . S
C153 N150 1.336 . S
C153 C152 1.346 1_545 S
C153 H160 0.929 . S
C154 O144 1.282 . S
C154 O155 1.216 . S
O155 C154 1.216 . S
H156 C151 0.930 . S
H157 C152 0.930 . S
O158 Cu138 1.959 . S
O158 C145 1.251 . S
H159 C142 0.930 1_545 S
H160 C153 0.929 . S
Cu161 N162 1.999 . S
Cu161 O167 1.974 . S
Cu161 N172 1.985 . S
Cu161 O181 1.959 . S
N162 Cu161 1.999 . S
N162 C164 1.263 . S
N162 C166 1.389 . S
N163 C164 1.358 . S
N163 C165 1.400 . S
C164 N162 1.263 . S
C164 N163 1.358 . S
C164 H170 0.930 . S
C165 N163 1.400 . S
C165 C166 1.351 . S
C165 H182 0.930 . S
C166 N162 1.389 . S
C166 C165 1.351 . S
C166 H171 0.930 . S
O167 Cu161 1.974 . S
O167 C177 1.282 . S
C168 O169 1.261 . S
C168 O181 1.251 . S
O169 C168 1.261 . S
H170 C164 0.930 . S
H171 C166 0.930 . S
N172 Cu161 1.985 . S
N172 C174 1.335 . S
N172 C175 1.390 . S
N173 C174 1.345 . S
N173 C176 1.336 . S
C174 N172 1.335 . S
C174 N173 1.345 . S
C174 H179 0.930 . S
C175 N172 1.390 . S
C175 C176 1.346 . S
C175 H180 0.930 . S
C176 N173 1.336 . S
C176 C175 1.346 . S
C176 H183 0.929 . S
C177 O167 1.282 . S
C177 O178 1.216 . S
O178 C177 1.216 . S
H179 C174 0.930 . S
H180 C175 0.930 . S
O181 Cu161 1.959 . S
O181 C168 1.251 . S
H182 C165 0.930 . S
H183 C176 0.929 . S
Cu184 N185 1.999 . S
Cu184 O190 1.974 . S
Cu184 N195 1.985 . S
Cu184 O204 1.959 . S
N185 Cu184 1.999 . S
N185 C187 1.263 . S
N185 C189 1.389 . S
N186 C187 1.358 . S
N186 C188 1.400 . S
C187 N185 1.263 . S
C187 N186 1.358 . S
C187 H193 0.930 . S
C188 N186 1.400 . S
C188 C189 1.351 . S
C188 H205 0.930 . S
C189 N185 1.389 . S
C189 C188 1.351 . S
C189 H194 0.930 . S
O190 Cu184 1.974 . S
O190 C200 1.282 . S
C191 O192 1.261 . S
C191 O204 1.251 . S
O192 C191 1.261 . S
H193 C187 0.930 . S
H194 C189 0.930 . S
N195 Cu184 1.985 . S
N195 C197 1.335 . S
N195 C198 1.390 . S
N196 C197 1.345 . S
N196 C199 1.336 . S
C197 N195 1.335 . S
C197 N196 1.345 . S
C197 H202 0.930 . S
C198 N195 1.390 . S
C198 C199 1.346 . S
C198 H203 0.930 . S
C199 N196 1.336 . S
C199 C198 1.346 . S
C199 H206 0.929 . S
C200 O190 1.282 . S
C200 O201 1.216 . S
O201 C200 1.216 . S
H202 C197 0.930 . S
H203 C198 0.930 . S
O204 Cu184 1.959 . S
O204 C191 1.251 . S
H205 C188 0.930 . S
H206 C199 0.929 . S
Cu207 N208 1.999 . S
Cu207 O213 1.974 . S
Cu207 N218 1.998 . S
Cu207 O227 1.959 1_545 S
N208 Cu207 1.999 . S
N208 C210 1.263 . S
N208 C212 1.389 . S
N209 C210 1.358 . S
N209 C211 1.400 . S
C210 N208 1.263 . S
C210 N209 1.358 . S
C210 H216 0.930 . S
C211 N209 1.400 . S
C211 C212 1.351 . S
C211 H228 0.930 . S
C212 N208 1.389 . S
C212 C211 1.351 . S
C212 H217 0.930 . S
O213 Cu207 1.974 . S
O213 C223 1.282 . S
C214 O215 1.261 . S
C214 O227 1.251 . S
O215 C214 1.261 . S
H216 C210 0.930 . S
H217 C212 0.930 . S
N218 Cu207 1.998 . S
N218 C220 1.320 1_545 S
N218 C221 1.397 . S
N219 C220 1.345 . S
N219 C222 1.336 . S
C220 N218 1.320 1_565 S
C220 N219 1.345 . S
C220 H225 0.930 . S
C221 N218 1.397 . S
C221 C222 1.346 1_545 S
C221 H226 0.930 . S
C222 N219 1.336 . S
C222 C221 1.346 1_565 S
C222 H229 0.929 . S
C223 O213 1.282 . S
C223 O224 1.216 . S
O224 C223 1.216 . S
H225 C220 0.930 . S
H226 C221 0.930 . S
O227 Cu207 1.959 1_565 S
O227 C214 1.251 . S
H228 C211 0.930 . S
H229 C222 0.929 . S
Cu230 N231 1.999 . S
Cu230 O236 1.974 . S
Cu230 N241 1.985 . S
Cu230 O250 1.959 . S
N231 Cu230 1.999 . S
N231 C233 1.263 . S
N231 C235 1.389 . S
N232 C233 1.358 . S
N232 C234 1.400 . S
C233 N231 1.263 . S
C233 N232 1.358 . S
C233 H239 0.930 . S
C234 N232 1.400 . S
C234 C235 1.351 . S
C234 H251 0.930 . S
C235 N231 1.389 . S
C235 C234 1.351 . S
C235 H240 0.930 . S
O236 Cu230 1.974 . S
O236 C246 1.282 . S
C237 O238 1.261 . S
C237 O250 1.251 . S
O238 C237 1.261 . S
H239 C233 0.930 . S
H240 C235 0.930 . S
N241 Cu230 1.985 . S
N241 C243 1.335 . S
N241 C244 1.390 . S
N242 C243 1.345 . S
N242 C245 1.336 . S
C243 N241 1.335 . S
C243 N242 1.345 . S
C243 H248 0.930 . S
C244 N241 1.390 . S
C244 C245 1.346 . S
C244 H249 0.930 . S
C245 N242 1.336 . S
C245 C244 1.346 . S
C245 H252 0.929 . S
C246 O236 1.282 . S
C246 O247 1.216 . S
O247 C246 1.216 . S
H248 C243 0.930 . S
H249 C244 0.930 . S
O250 Cu230 1.959 . S
O250 C237 1.251 . S
H251 C234 0.930 . S
H252 C245 0.929 . S
Cu253 N254 1.999 1_554 S
Cu253 O259 1.974 1_554 S
Cu253 N264 1.992 . S
Cu253 O273 1.959 1_565 S
N254 Cu253 1.999 1_556 S
N254 C256 1.263 . S
N254 C258 1.389 . S
N255 C256 1.358 . S
N255 C257 1.400 . S
C256 N254 1.263 . S
C256 N255 1.358 . S
C256 H262 0.930 . S
C257 N255 1.400 . S
C257 C258 1.351 . S
C257 H274 0.930 . S
C258 N254 1.389 . S
C258 C257 1.351 . S
C258 H263 0.930 . S
O259 Cu253 1.974 1_556 S
O259 C269 1.282 . S
C260 O261 1.261 1_554 S
C260 O273 1.251 . S
O261 C260 1.261 1_556 S
H262 C256 0.930 . S
H263 C258 0.930 . S
N264 Cu253 1.992 . S
N264 C266 1.326 1_565 S
N264 C267 1.394 . S
N265 C266 1.345 . S
N265 C268 1.336 . S
C266 N264 1.326 1_545 S
C266 N265 1.345 . S
C266 H271 0.930 . S
C267 N264 1.394 . S
C267 C268 1.346 1_565 S
C267 H272 0.930 . S
C268 N265 1.336 . S
C268 C267 1.346 1_545 S
C268 H275 0.929 . S
C269 O259 1.282 . S
C269 O270 1.216 . S
O270 C269 1.216 . S
H271 C266 0.930 . S
H272 C267 0.930 . S
O273 Cu253 1.959 1_545 S
O273 C260 1.251 . S
H274 C257 0.930 . S
H275 C268 0.929 . S
Cu276 N277 1.999 . S
Cu276 O282 1.974 . S
Cu276 N287 1.985 . S
Cu276 O296 1.959 . S
N277 Cu276 1.999 . S
N277 C279 1.263 . S
N277 C281 1.389 . S
N278 C279 1.358 . S
N278 C280 1.400 . S
C279 N277 1.263 . S
C279 N278 1.358 . S
C279 H285 0.930 . S
C280 N278 1.400 . S
C280 C281 1.351 . S
C280 H297 0.930 . S
C281 N277 1.389 . S
C281 C280 1.351 . S
C281 H286 0.930 . S
O282 Cu276 1.974 . S
O282 C292 1.282 . S
C283 O284 1.261 . S
C283 O296 1.251 . S
O284 C283 1.261 . S
H285 C279 0.930 . S
H286 C281 0.930 . S
N287 Cu276 1.985 . S
N287 C289 1.335 . S
N287 C290 1.390 . S
N288 C289 1.345 . S
N288 C291 1.336 . S
C289 N287 1.335 . S
C289 N288 1.345 . S
C289 H294 0.930 . S
C290 N287 1.390 . S
C290 C291 1.346 . S
C290 H295 0.930 . S
C291 N288 1.336 . S
C291 C290 1.346 . S
C291 H298 0.929 . S
C292 O282 1.282 . S
C292 O293 1.216 . S
O293 C292 1.216 . S
H294 C289 0.930 . S
H295 C290 0.930 . S
O296 Cu276 1.959 . S
O296 C283 1.251 . S
H297 C280 0.930 . S
H298 C291 0.929 . S
Cu299 N300 1.999 . S
Cu299 O305 1.974 . S
Cu299 N310 1.985 1_655 S
Cu299 O319 1.959 . S
N300 Cu299 1.999 . S
N300 C302 1.263 . S
N300 C304 1.389 . S
N301 C302 1.358 . S
N301 C303 1.400 . S
C302 N300 1.263 . S
C302 N301 1.358 . S
C302 H308 0.930 . S
C303 N301 1.400 . S
C303 C304 1.351 . S
C303 H320 0.930 . S
C304 N300 1.389 . S
C304 C303 1.351 . S
C304 H309 0.930 . S
O305 Cu299 1.974 . S
O305 C315 1.282 . S
C306 O307 1.261 . S
C306 O319 1.251 1_455 S
O307 C306 1.261 . S
H308 C302 0.930 . S
H309 C304 0.930 . S
N310 Cu299 1.985 1_455 S
N310 C312 1.335 . S
N310 C313 1.390 . S
N311 C312 1.345 . S
N311 C314 1.336 . S
C312 N310 1.335 . S
C312 N311 1.345 . S
C312 H317 0.930 . S
C313 N310 1.390 . S
C313 C314 1.346 . S
C313 H318 0.930 . S
C314 N311 1.336 . S
C314 C313 1.346 . S
C314 H321 0.929 . S
C315 O305 1.282 . S
C315 O316 1.216 1_655 S
O316 C315 1.216 1_455 S
H317 C312 0.930 . S
H318 C313 0.930 . S
O319 Cu299 1.959 . S
O319 C306 1.251 1_655 S
H320 C303 0.930 . S
H321 C314 0.929 . S
Cu322 N323 1.999 . S
Cu322 O328 1.974 . S
Cu322 N333 1.985 . S
Cu322 O342 1.959 . S
N323 Cu322 1.999 . S
N323 C325 1.263 . S
N323 C327 1.389 . S
N324 C325 1.358 . S
N324 C326 1.400 . S
C325 N323 1.263 . S
C325 N324 1.358 . S
C325 H331 0.930 . S
C326 N324 1.400 . S
C326 C327 1.351 . S
C326 H343 0.930 . S
C327 N323 1.389 . S
C327 C326 1.351 . S
C327 H332 0.930 . S
O328 Cu322 1.974 . S
O328 C338 1.282 . S
C329 O330 1.261 . S
C329 O342 1.251 . S
O330 C329 1.261 . S
H331 C325 0.930 . S
H332 C327 0.930 . S
N333 Cu322 1.985 . S
N333 C335 1.335 . S
N333 C336 1.390 . S
N334 C335 1.345 . S
N334 C337 1.336 . S
C335 N333 1.335 . S
C335 N334 1.345 . S
C335 H340 0.930 . S
C336 N333 1.390 . S
C336 C337 1.346 . S
C336 H341 0.930 . S
C337 N334 1.336 . S
C337 C336 1.346 . S
C337 H344 0.929 . S
C338 O328 1.282 . S
C338 O339 1.216 . S
O339 C338 1.216 . S
H340 C335 0.930 . S
H341 C336 0.930 . S
O342 Cu322 1.959 . S
O342 C329 1.251 . S
H343 C326 0.930 . S
H344 C337 0.929 . S
Cu345 N346 1.999 . S
Cu345 O351 1.974 . S
Cu345 N356 1.985 . S
Cu345 O365 1.959 . S
N346 Cu345 1.999 . S
N346 C348 1.263 . S
N346 C350 1.389 . S
N347 C348 1.358 . S
N347 C349 1.400 . S
C348 N346 1.263 . S
C348 N347 1.358 . S
C348 H354 0.930 . S
C349 N347 1.400 . S
C349 C350 1.351 . S
C349 H366 0.930 . S
C350 N346 1.389 . S
C350 C349 1.351 . S
C350 H355 0.930 . S
O351 Cu345 1.974 . S
O351 C361 1.282 . S
C352 O353 1.261 . S
C352 O365 1.251 . S
O353 C352 1.261 . S
H354 C348 0.930 . S
H355 C350 0.930 . S
N356 Cu345 1.985 . S
N356 C358 1.335 . S
N356 C359 1.390 . S
N357 C358 1.345 . S
N357 C360 1.336 . S
C358 N356 1.335 . S
C358 N357 1.345 . S
C358 H363 0.930 . S
C359 N356 1.390 . S
C359 C360 1.346 . S
C359 H364 0.930 . S
C360 N357 1.336 . S
C360 C359 1.346 . S
C360 H367 0.929 . S
C361 O351 1.282 . S
C361 O362 1.216 . S
O362 C361 1.216 . S
H363 C358 0.930 . S
H364 C359 0.930 . S
O365 Cu345 1.959 . S
O365 C352 1.251 . S
H366 C349 0.930 . S
H367 C360 0.929 . S
Cu368 N369 1.999 . S
Cu368 O374 1.974 . S
Cu368 N379 1.985 . S
Cu368 O388 1.959 . S
N369 Cu368 1.999 . S
N369 C371 1.263 . S
N369 C373 1.389 . S
N370 C371 1.358 . S
N370 C372 1.400 . S
C371 N369 1.263 . S
C371 N370 1.358 . S
C371 H377 0.930 . S
C372 N370 1.400 . S
C372 C373 1.351 . S
C372 H389 0.930 . S
C373 N369 1.389 . S
C373 C372 1.351 . S
C373 H378 0.930 . S
O374 Cu368 1.974 . S
O374 C384 1.282 . S
C375 O376 1.261 . S
C375 O388 1.251 . S
O376 C375 1.261 . S
H377 C371 0.930 . S
H378 C373 0.930 . S
N379 Cu368 1.985 . S
N379 C381 1.335 . S
N379 C382 1.390 . S
N380 C381 1.345 . S
N380 C383 1.336 . S
C381 N379 1.335 . S
C381 N380 1.345 . S
C381 H386 0.930 . S
C382 N379 1.390 . S
C382 C383 1.346 . S
C382 H387 0.930 . S
C383 N380 1.336 . S
C383 C382 1.346 . S
C383 H390 0.929 . S
C384 O374 1.282 . S
C384 O385 1.216 . S
O385 C384 1.216 . S
H386 C381 0.930 . S
H387 C382 0.930 . S
O388 Cu368 1.959 . S
O388 C375 1.251 . S
H389 C372 0.930 . S
H390 C383 0.929 . S
Cu391 N392 1.999 . S
Cu391 O397 1.974 . S
Cu391 N402 1.985 . S
Cu391 O411 1.959 . S
N392 Cu391 1.999 . S
N392 C394 1.263 . S
N392 C396 1.389 . S
N393 C394 1.358 . S
N393 C395 1.400 . S
C394 N392 1.263 . S
C394 N393 1.358 . S
C394 H400 0.930 . S
C395 N393 1.400 . S
C395 C396 1.351 . S
C395 H412 0.930 . S
C396 N392 1.389 . S
C396 C395 1.351 . S
C396 H401 0.930 . S
O397 Cu391 1.974 . S
O397 C407 1.282 . S
C398 O399 1.261 . S
C398 O411 1.251 . S
O399 C398 1.261 . S
H400 C394 0.930 . S
H401 C396 0.930 . S
N402 Cu391 1.985 . S
N402 C404 1.335 . S
N402 C405 1.390 . S
N403 C404 1.345 . S
N403 C406 1.336 . S
C404 N402 1.335 . S
C404 N403 1.345 . S
C404 H409 0.930 . S
C405 N402 1.390 . S
C405 C406 1.346 . S
C405 H410 0.930 . S
C406 N403 1.336 . S
C406 C405 1.346 . S
C406 H413 0.929 . S
C407 O397 1.282 . S
C407 O408 1.216 . S
O408 C407 1.216 . S
H409 C404 0.930 . S
H410 C405 0.930 . S
O411 Cu391 1.959 . S
O411 C398 1.251 . S
H412 C395 0.930 . S
H413 C406 0.929 . S
Cu414 N415 1.999 1_455 S
Cu414 O420 1.974 1_455 S
Cu414 N425 1.985 1_556 S
Cu414 O434 1.959 1_556 S
N415 Cu414 1.999 1_655 S
N415 C417 1.263 . S
N415 C419 1.389 . S
N416 C417 1.358 . S
N416 C418 1.400 . S
C417 N415 1.263 . S
C417 N416 1.358 . S
C417 H423 0.930 . S
C418 N416 1.400 . S
C418 C419 1.351 . S
C418 H435 0.930 . S
C419 N415 1.389 . S
C419 C418 1.351 . S
C419 H424 0.939 . S
O420 Cu414 1.974 1_655 S
O420 C430 1.282 . S
C421 O422 1.261 1_455 S
C421 O434 1.251 . S
O422 C421 1.261 1_655 S
H423 C417 0.930 . S
H424 C419 0.939 . S
N425 Cu414 1.985 1_554 S
N425 C427 1.335 . S
N425 C428 1.390 1_554 S
N426 C427 1.345 . S
N426 C429 1.336 . S
C427 N425 1.335 . S
C427 N426 1.345 . S
C427 H432 0.930 . S
C428 N425 1.390 1_556 S
C428 C429 1.346 1_556 S
C428 H433 0.930 . S
C429 N426 1.336 . S
C429 C428 1.346 1_554 S
C429 H436 0.929 . S
C430 O420 1.282 . S
C430 O431 1.216 . S
O431 C430 1.216 . S
H432 C427 0.930 . S
H433 C428 0.930 . S
O434 Cu414 1.959 1_554 S
O434 C421 1.251 . S
H435 C418 0.930 . S
H436 C429 0.929 . S
Cu437 N438 1.999 . S
Cu437 O443 1.974 . S
Cu437 N448 1.985 . S
Cu437 O457 1.959 . S
N438 Cu437 1.999 . S
N438 C440 1.263 . S
N438 C442 1.389 . S
N439 C440 1.358 . S
N439 C441 1.400 . S
C440 N438 1.263 . S
C440 N439 1.358 . S
C440 H446 0.930 . S
C441 N439 1.400 . S
C441 C442 1.351 . S
C441 H458 0.930 . S
C442 N438 1.389 . S
C442 C441 1.351 . S
C442 H447 0.930 . S
O443 Cu437 1.974 . S
O443 C453 1.282 . S
C444 O445 1.261 . S
C444 O457 1.251 . S
O445 C444 1.261 . S
H446 C440 0.930 . S
H447 C442 0.930 . S
N448 Cu437 1.985 . S
N448 C450 1.335 . S
N448 C451 1.390 . S
N449 C450 1.345 . S
N449 C452 1.336 . S
C450 N448 1.335 . S
C450 N449 1.345 . S
C450 H455 0.930 . S
C451 N448 1.390 . S
C451 C452 1.346 . S
C451 H456 0.930 . S
C452 N449 1.336 . S
C452 C451 1.346 . S
C452 H459 0.929 . S
C453 O443 1.282 . S
C453 O454 1.216 . S
O454 C453 1.216 . S
H455 C450 0.930 . S
H456 C451 0.930 . S
O457 Cu437 1.959 . S
O457 C444 1.251 . S
H458 C441 0.930 . S
H459 C452 0.929 . S
Cu460 N461 1.999 . S
Cu460 O466 1.974 . S
Cu460 N471 1.985 . S
Cu460 O480 1.959 . S
N461 Cu460 1.999 . S
N461 C463 1.263 . S
N461 C465 1.389 . S
N462 C463 1.358 . S
N462 C464 1.400 . S
C463 N461 1.263 . S
C463 N462 1.358 . S
C463 H469 0.930 . S
C464 N462 1.400 . S
C464 C465 1.351 . S
C464 H481 0.930 . S
C465 N461 1.389 . S
C465 C464 1.351 . S
C465 H470 0.930 . S
O466 Cu460 1.974 . S
O466 C476 1.282 . S
C467 O468 1.261 . S
C467 O480 1.251 . S
O468 C467 1.261 . S
H469 C463 0.930 . S
H470 C465 0.930 . S
N471 Cu460 1.985 . S
N471 C473 1.335 . S
N471 C474 1.390 . S
N472 C473 1.345 . S
N472 C475 1.336 . S
C473 N471 1.335 . S
C473 N472 1.345 . S
C473 H478 0.930 . S
C474 N471 1.390 . S
C474 C475 1.346 . S
C474 H479 0.930 . S
C475 N472 1.336 . S
C475 C474 1.346 . S
C475 H482 0.929 . S
C476 O466 1.282 . S
C476 O477 1.216 . S
O477 C476 1.216 . S
H478 C473 0.930 . S
H479 C474 0.930 . S
O480 Cu460 1.959 . S
O480 C467 1.251 . S
H481 C464 0.930 . S
H482 C475 0.929 . S
Cu483 N484 1.999 . S
Cu483 O489 1.974 . S
Cu483 N494 1.985 . S
Cu483 O503 1.959 . S
N484 Cu483 1.999 . S
N484 C486 1.263 . S
N484 C488 1.389 . S
N485 C486 1.358 . S
N485 C487 1.400 . S
C486 N484 1.263 . S
C486 N485 1.358 . S
C486 H492 0.930 . S
C487 N485 1.400 . S
C487 C488 1.351 . S
C487 H504 0.930 . S
C488 N484 1.389 . S
C488 C487 1.351 . S
C488 H493 0.930 . S
O489 Cu483 1.974 . S
O489 C499 1.282 . S
C490 O491 1.261 . S
C490 O503 1.251 . S
O491 C490 1.261 . S
H492 C486 0.930 . S
H493 C488 0.930 . S
N494 Cu483 1.985 . S
N494 C496 1.335 . S
N494 C497 1.390 . S
N495 C496 1.345 . S
N495 C498 1.336 . S
C496 N494 1.335 . S
C496 N495 1.345 . S
C496 H501 0.930 . S
C497 N494 1.390 . S
C497 C498 1.346 . S
C497 H502 0.930 . S
C498 N495 1.336 . S
C498 C497 1.346 . S
C498 H505 0.929 . S
C499 O489 1.282 . S
C499 O500 1.216 . S
O500 C499 1.216 . S
H501 C496 0.930 . S
H502 C497 0.930 . S
O503 Cu483 1.959 . S
O503 C490 1.251 . S
H504 C487 0.930 . S
H505 C498 0.929 . S
Cu506 N507 1.999 1_556 S
Cu506 O512 1.974 1_556 S
Cu506 N517 1.985 . S
Cu506 O526 1.959 . S
N507 Cu506 1.999 1_554 S
N507 C509 1.263 . S
N507 C511 1.389 . S
N508 C509 1.358 . S
N508 C510 1.400 . S
C509 N507 1.263 . S
C509 N508 1.358 . S
C509 H515 0.930 . S
C510 N508 1.400 . S
C510 C511 1.351 . S
C510 H527 0.930 . S
C511 N507 1.389 . S
C511 C510 1.351 . S
C511 H516 0.930 . S
O512 Cu506 1.974 1_554 S
O512 C522 1.282 . S
C513 O514 1.261 . S
C513 O526 1.251 . S
O514 C513 1.261 . S
H515 C509 0.930 . S
H516 C511 0.930 . S
N517 Cu506 1.985 . S
N517 C519 1.335 . S
N517 C520 1.390 . S
N518 C519 1.345 . S
N518 C521 1.336 . S
C519 N517 1.335 . S
C519 N518 1.345 . S
C519 H524 0.930 . S
C520 N517 1.390 . S
C520 C521 1.346 . S
C520 H525 0.930 . S
C521 N518 1.336 . S
C521 C520 1.346 . S
C521 H528 0.929 . S
C522 O512 1.282 . S
C522 O523 1.216 . S
O523 C522 1.216 . S
H524 C519 0.930 . S
H525 C520 0.930 . S
O526 Cu506 1.959 . S
O526 C513 1.251 . S
H527 C510 0.930 . S
H528 C521 0.929 . S
Cu529 N530 1.999 . S
Cu529 O535 1.974 . S
Cu529 N540 1.985 . S
Cu529 O549 1.959 . S
N530 Cu529 1.999 . S
N530 C532 1.263 . S
N530 C534 1.389 . S
N531 C532 1.358 . S
N531 C533 1.400 . S
C532 N530 1.263 . S
C532 N531 1.358 . S
C532 H538 0.930 . S
C533 N531 1.400 . S
C533 C534 1.351 . S
C533 H550 0.930 . S
C534 N530 1.389 . S
C534 C533 1.351 . S
C534 H539 0.930 . S
O535 Cu529 1.974 . S
O535 C545 1.282 . S
C536 O537 1.261 . S
C536 O549 1.251 . S
O537 C536 1.261 . S
H538 C532 0.930 . S
H539 C534 0.930 . S
N540 Cu529 1.985 . S
N540 C542 1.335 . S
N540 C543 1.390 . S
N541 C542 1.345 . S
N541 C544 1.336 . S
C542 N540 1.335 . S
C542 N541 1.345 . S
C542 H547 0.930 . S
C543 N540 1.390 . S
C543 C544 1.346 . S
C543 H548 0.930 . S
C544 N541 1.336 . S
C544 C543 1.346 . S
C544 H551 0.929 . S
C545 O535 1.282 . S
C545 O546 1.216 . S
O546 C545 1.216 . S
H547 C542 0.930 . S
H548 C543 0.930 . S
O549 Cu529 1.959 . S
O549 C536 1.251 . S
H550 C533 0.930 . S
H551 C544 0.929 . S
H552 C558 0.930 . S
H553 C562 0.930 . S
H554 C567 0.929 . S
H555 C565 0.929 . S
H556 C560 0.929 . S
H557 C566 0.929 . S
C558 H552 0.930 . S
C558 C559 1.367 . S
C558 C566 1.378 . S
C559 C558 1.367 . S
C559 C567 1.433 . S
C560 H556 0.929 . S
C560 C562 1.378 . S
C560 C564 1.350 . S
C561 C564 1.463 . S
C561 C566 1.350 . S
C561 N569 1.427 . S
C562 H553 0.930 . S
C562 C560 1.378 . S
C562 C563 1.367 . S
C563 C562 1.367 . S
C563 C565 1.433 . S
C564 C560 1.350 . S
C564 C561 1.463 . S
C564 N568 1.427 . S
C565 H555 0.929 . S
C565 C563 1.433 . S
C565 N568 1.384 . S
C566 H557 0.929 . S
C566 C558 1.378 . S
C566 C561 1.350 . S
C567 H554 0.929 . S
C567 C559 1.433 . S
C567 N569 1.384 . S
N568 C564 1.427 . S
N568 C565 1.384 . S
N569 C561 1.427 . S
N569 C567 1.384 . S
H570 C576 0.930 . S
H571 C580 0.956 . S
H572 C585 0.929 . S
H573 C583 0.929 . S
H574 C578 0.929 . S
H575 C584 0.929 . S
C576 H570 0.930 . S
C576 C577 1.367 . S
C576 C584 1.378 . S
C577 C576 1.367 . S
C577 C585 1.433 . S
C578 H574 0.929 . S
C578 C580 1.378 . S
C578 C582 1.350 . S
C579 C582 1.463 . S
C579 C584 1.350 . S
C579 N587 1.427 . S
C580 H571 0.956 . S
C580 C578 1.378 . S
C580 C581 1.367 . S
C581 C580 1.367 . S
C581 C583 1.433 . S
C582 C578 1.350 . S
C582 C579 1.463 . S
C582 N586 1.427 . S
C583 H573 0.929 . S
C583 C581 1.433 . S
C583 N586 1.384 . S
C584 H575 0.929 . S
C584 C576 1.378 . S
C584 C579 1.350 . S
C585 H572 0.929 . S
C585 C577 1.433 . S
C585 N587 1.384 . S
N586 C582 1.427 . S
N586 C583 1.384 . S
N587 C579 1.427 . S
N587 C585 1.384 . S
H588 C594 0.930 . S
H589 C598 0.930 . S
H590 C603 0.929 . S
H591 C601 0.929 . S
H592 C596 0.929 . S
H593 C602 0.929 . S
C594 H588 0.930 . S
C594 C595 1.367 . S
C594 C602 1.378 . S
C595 C594 1.367 . S
C595 C603 1.433 . S
C596 H592 0.929 . S
C596 C598 1.378 . S
C596 C600 1.350 . S
C597 C600 1.463 . S
C597 C602 1.350 . S
C597 N605 1.427 . S
C598 H589 0.930 . S
C598 C596 1.378 . S
C598 C599 1.367 . S
C599 C598 1.367 . S
C599 C601 1.433 . S
C600 C596 1.350 . S
C600 C597 1.463 . S
C600 N604 1.427 . S
C601 H591 0.929 . S
C601 C599 1.433 . S
C601 N604 1.384 . S
C602 H593 0.929 . S
C602 C594 1.378 . S
C602 C597 1.350 . S
C603 H590 0.929 . S
C603 C595 1.433 . S
C603 N605 1.384 . S
N604 C600 1.427 . S
N604 C601 1.384 . S
N605 C597 1.427 . S
N605 C603 1.384 . S
H606 C612 0.930 . S
H607 C616 0.930 . S
H608 C621 0.929 . S
H609 C619 0.929 . S
H610 C614 0.929 . S
H611 C620 0.929 . S
C612 H606 0.930 . S
C612 C613 1.367 . S
C612 C620 1.378 . S
C613 C612 1.367 . S
C613 C621 1.433 . S
C614 H610 0.929 . S
C614 C616 1.378 . S
C614 C618 1.350 . S
C615 C618 1.463 . S
C615 C620 1.350 . S
C615 N623 1.427 . S
C616 H607 0.930 . S
C616 C614 1.378 . S
C616 C617 1.367 . S
C617 C616 1.367 . S
C617 C619 1.433 . S
C618 C614 1.350 . S
C618 C615 1.463 . S
C618 N622 1.427 . S
C619 H609 0.929 . S
C619 C617 1.433 . S
C619 N622 1.384 . S
C620 H611 0.929 . S
C620 C612 1.378 . S
C620 C615 1.350 . S
C621 H608 0.929 . S
C621 C613 1.433 . S
C621 N623 1.384 . S
N622 C618 1.427 . S
N622 C619 1.384 . S
N623 C615 1.427 . S
N623 C621 1.384 . S
H624 C630 0.930 . S
H625 C634 0.930 . S
H626 C639 0.929 . S
H627 C637 0.929 . S
H628 C632 0.929 . S
H629 C638 0.929 . S
C630 H624 0.930 . S
C630 C631 1.367 . S
C630 C638 1.378 . S
C631 C630 1.367 . S
C631 C639 1.433 . S
C632 H628 0.929 . S
C632 C634 1.378 . S
C632 C636 1.350 . S
C633 C636 1.463 . S
C633 C638 1.350 . S
C633 N641 1.427 . S
C634 H625 0.930 . S
C634 C632 1.378 . S
C634 C635 1.367 . S
C635 C634 1.367 . S
C635 C637 1.433 . S
C636 C632 1.350 . S
C636 C633 1.463 . S
C636 N640 1.427 . S
C637 H627 0.929 . S
C637 C635 1.433 . S
C637 N640 1.384 . S
C638 H629 0.929 . S
C638 C630 1.378 . S
C638 C633 1.350 . S
C639 H626 0.929 . S
C639 C631 1.433 . S
C639 N641 1.384 . S
N640 C636 1.427 . S
N640 C637 1.384 . S
N641 C633 1.427 . S
N641 C639 1.384 . S
H642 C648 0.930 . S
H643 C652 0.930 . S
H644 C657 0.929 . S
H645 C655 0.929 . S
H646 C650 0.929 . S
H647 C656 0.929 . S
C648 H642 0.930 . S
C648 C649 1.367 . S
C648 C656 1.378 . S
C649 C648 1.367 . S
C649 C657 1.433 . S
C650 H646 0.929 . S
C650 C652 1.378 . S
C650 C654 1.350 . S
C651 C654 1.463 . S
C651 C656 1.350 . S
C651 N659 1.427 . S
C652 H643 0.930 . S
C652 C650 1.378 . S
C652 C653 1.367 . S
C653 C652 1.367 . S
C653 C655 1.433 . S
C654 C650 1.350 . S
C654 C651 1.463 . S
C654 N658 1.427 . S
C655 H645 0.929 . S
C655 C653 1.433 . S
C655 N658 1.384 . S
C656 H647 0.929 . S
C656 C648 1.378 . S
C656 C651 1.350 . S
C657 H644 0.929 . S
C657 C649 1.433 . S
C657 N659 1.384 . S
N658 C654 1.427 . S
N658 C655 1.384 . S
N659 C651 1.427 . S
N659 C657 1.384 . S
H660 C666 0.930 . S
H661 C670 0.930 . S
H662 C675 0.929 . S
H663 C673 0.929 . S
H664 C668 0.929 . S
H665 C674 0.929 . S
C666 H660 0.930 . S
C666 C667 1.367 . S
C666 C674 1.378 . S
C667 C666 1.367 . S
C667 C675 1.433 . S
C668 H664 0.929 . S
C668 C670 1.378 . S
C668 C672 1.350 . S
C669 C672 1.463 . S
C669 C674 1.350 . S
C669 N677 1.427 . S
C670 H661 0.930 . S
C670 C668 1.378 . S
C670 C671 1.367 . S
C671 C670 1.367 . S
C671 C673 1.433 . S
C672 C668 1.350 . S
C672 C669 1.463 . S
C672 N676 1.427 . S
C673 H663 0.929 . S
C673 C671 1.433 . S
C673 N676 1.384 . S
C674 H665 0.929 . S
C674 C666 1.378 . S
C674 C669 1.350 . S
C675 H662 0.929 . S
C675 C667 1.433 . S
C675 N677 1.384 . S
N676 C672 1.427 . S
N676 C673 1.384 . S
N677 C669 1.427 . S
N677 C675 1.384 . S
H678 C684 0.930 1_556 S
H679 C688 0.930 . S
H680 C693 0.929 . S
H681 C691 0.931 . S
H682 C686 0.929 . S
H683 C692 0.929 1_556 S
C684 H678 0.930 1_554 S
C684 C685 1.367 . S
C684 C692 1.378 . S
C685 C684 1.367 . S
C685 C693 1.433 . S
C686 H682 0.929 . S
C686 C688 1.378 . S
C686 C690 1.350 . S
C687 C690 1.463 . S
C687 C692 1.350 . S
C687 N695 1.427 . S
C688 H679 0.930 . S
C688 C686 1.378 . S
C688 C689 1.367 . S
C689 C688 1.367 . S
C689 C691 1.431 1_554 S
C690 C686 1.350 . S
C690 C687 1.463 . S
C690 N694 1.441 . S
C691 H681 0.931 . S
C691 C689 1.431 1_556 S
C691 N694 1.383 1_556 S
C692 H683 0.929 1_554 S
C692 C684 1.378 . S
C692 C687 1.350 . S
C693 H680 0.929 . S
C693 C685 1.433 . S
C693 N695 1.384 . S
N694 C690 1.441 . S
N694 C691 1.383 1_554 S
N695 C687 1.427 . S
N695 C693 1.384 . S
H696 C702 0.930 . S
H697 C706 0.930 . S
H698 C711 0.929 . S
H699 C709 0.929 . S
H700 C704 0.929 . S
H701 C710 0.929 . S
C702 H696 0.930 . S
C702 C703 1.367 . S
C702 C710 1.378 . S
C703 C702 1.367 . S
C703 C711 1.433 . S
C704 H700 0.929 . S
C704 C706 1.378 . S
C704 C708 1.350 . S
C705 C708 1.463 . S
C705 C710 1.350 . S
C705 N713 1.427 . S
C706 H697 0.930 . S
C706 C704 1.378 . S
C706 C707 1.367 . S
C707 C706 1.367 . S
C707 C709 1.433 . S
C708 C704 1.350 . S
C708 C705 1.463 . S
C708 N712 1.427 . S
C709 H699 0.929 . S
C709 C707 1.433 . S
C709 N712 1.384 . S
C710 H701 0.929 . S
C710 C702 1.378 . S
C710 C705 1.350 . S
C711 H698 0.929 . S
C711 C703 1.433 . S
C711 N713 1.384 . S
N712 C708 1.427 . S
N712 C709 1.384 . S
N713 C705 1.427 . S
N713 C711 1.384 . S
H714 C720 0.930 . S
H715 C724 0.930 . S
H716 C729 0.929 . S
H717 C727 0.929 . S
H718 C722 0.929 . S
H719 C728 0.929 . S
C720 H714 0.930 . S
C720 C721 1.367 . S
C720 C728 1.378 . S
C721 C720 1.367 . S
C721 C729 1.433 . S
C722 H718 0.929 . S
C722 C724 1.378 . S
C722 C726 1.350 . S
C723 C726 1.463 . S
C723 C728 1.350 . S
C723 N731 1.427 . S
C724 H715 0.930 . S
C724 C722 1.378 . S
C724 C725 1.367 . S
C725 C724 1.367 . S
C725 C727 1.433 . S
C726 C722 1.350 . S
C726 C723 1.463 . S
C726 N730 1.427 . S
C727 H717 0.929 . S
C727 C725 1.433 . S
C727 N730 1.384 . S
C728 H719 0.929 . S
C728 C720 1.378 . S
C728 C723 1.350 . S
C729 H716 0.929 . S
C729 C721 1.433 . S
C729 N731 1.384 . S
N730 C726 1.427 . S
N730 C727 1.384 . S
N731 C723 1.427 . S
N731 C729 1.384 . S
H732 C738 0.930 . S
H733 C742 0.930 . S
H734 C747 0.929 1_545 S
H735 C745 0.929 . S
H736 C740 0.929 . S
H737 C746 0.929 . S
C738 H732 0.930 . S
C738 C739 1.367 . S
C738 C746 1.378 . S
C739 C738 1.367 . S
C739 C747 1.433 . S
C740 H736 0.929 . S
C740 C742 1.378 . S
C740 C744 1.350 . S
C741 C744 1.463 . S
C741 C746 1.350 . S
C741 N749 1.427 . S
C742 H733 0.930 . S
C742 C740 1.378 . S
C742 C743 1.367 . S
C743 C742 1.367 . S
C743 C745 1.433 . S
C744 C740 1.350 . S
C744 C741 1.463 . S
C744 N748 1.427 . S
C745 H735 0.929 . S
C745 C743 1.433 . S
C745 N748 1.384 . S
C746 H737 0.929 . S
C746 C738 1.378 . S
C746 C741 1.350 . S
C747 H734 0.929 1_565 S
C747 C739 1.433 . S
C747 N749 1.384 . S
N748 C744 1.427 . S
N748 C745 1.384 . S
N749 C741 1.427 . S
N749 C747 1.384 . S
H750 C756 0.930 . S
H751 C760 0.930 . S
H752 C765 0.929 . S
H753 C763 0.929 . S
H754 C758 0.929 . S
H755 C764 0.929 . S
C756 H750 0.930 . S
C756 C757 1.367 . S
C756 C764 1.378 . S
C757 C756 1.367 . S
C757 C765 1.433 . S
C758 H754 0.929 . S
C758 C760 1.378 . S
C758 C762 1.350 . S
C759 C762 1.463 . S
C759 C764 1.350 . S
C759 N767 1.427 . S
C760 H751 0.930 . S
C760 C758 1.378 . S
C760 C761 1.367 . S
C761 C760 1.367 . S
C761 C763 1.433 . S
C762 C758 1.350 . S
C762 C759 1.463 . S
C762 N766 1.427 . S
C763 H753 0.929 . S
C763 C761 1.433 . S
C763 N766 1.384 . S
C764 H755 0.929 . S
C764 C756 1.378 . S
C764 C759 1.350 . S
C765 H752 0.929 . S
C765 C757 1.433 . S
C765 N767 1.384 . S
N766 C762 1.427 . S
N766 C763 1.384 . S
N767 C759 1.427 . S
N767 C765 1.384 . S
H768 C774 0.930 . S
H769 C778 0.930 . S
H770 C783 0.929 . S
H771 C781 0.929 . S
H772 C776 0.929 . S
H773 C782 0.929 . S
C774 H768 0.930 . S
C774 C775 1.367 . S
C774 C782 1.378 . S
C775 C774 1.367 . S
C775 C783 1.433 . S
C776 H772 0.929 . S
C776 C778 1.378 . S
C776 C780 1.350 . S
C777 C780 1.463 . S
C777 C782 1.350 . S
C777 N785 1.427 . S
C778 H769 0.930 . S
C778 C776 1.378 . S
C778 C779 1.367 . S
C779 C778 1.367 . S
C779 C781 1.433 . S
C780 C776 1.350 . S
C780 C777 1.463 . S
C780 N784 1.427 . S
C781 H771 0.929 . S
C781 C779 1.433 . S
C781 N784 1.384 . S
C782 H773 0.929 . S
C782 C774 1.378 . S
C782 C777 1.350 . S
C783 H770 0.929 . S
C783 C775 1.433 . S
C783 N785 1.384 . S
N784 C780 1.427 . S
N784 C781 1.384 . S
N785 C777 1.427 . S
N785 C783 1.384 . S
H786 C792 0.930 . S
H787 C796 0.930 . S
H788 C801 0.929 . S
H789 C799 0.929 . S
H790 C794 0.929 . S
H791 C800 0.929 . S
C792 H786 0.930 . S
C792 C793 1.367 . S
C792 C800 1.378 . S
C793 C792 1.367 . S
C793 C801 1.433 . S
C794 H790 0.929 . S
C794 C796 1.378 . S
C794 C798 1.350 . S
C795 C798 1.463 . S
C795 C800 1.350 . S
C795 N803 1.427 . S
C796 H787 0.930 . S
C796 C794 1.378 . S
C796 C797 1.367 . S
C797 C796 1.367 . S
C797 C799 1.433 . S
C798 C794 1.350 . S
C798 C795 1.463 . S
C798 N802 1.427 . S
C799 H789 0.929 . S
C799 C797 1.433 . S
C799 N802 1.384 . S
C800 H791 0.929 . S
C800 C792 1.378 . S
C800 C795 1.350 . S
C801 H788 0.929 . S
C801 C793 1.433 . S
C801 N803 1.384 . S
N802 C798 1.427 . S
N802 C799 1.384 . S
N803 C795 1.427 . S
N803 C801 1.384 . S
H804 C810 0.930 . S
H805 C814 0.930 . S
H806 C819 0.929 . S
H807 C817 0.929 . S
H808 C812 0.929 . S
H809 C818 0.929 . S
C810 H804 0.930 . S
C810 C811 1.367 . S
C810 C818 1.378 . S
C811 C810 1.367 . S
C811 C819 1.433 . S
C812 H808 0.929 . S
C812 C814 1.378 . S
C812 C816 1.350 . S
C813 C816 1.463 . S
C813 C818 1.350 . S
C813 N821 1.427 . S
C814 H805 0.930 . S
C814 C812 1.378 . S
C814 C815 1.367 . S
C815 C814 1.367 . S
C815 C817 1.433 . S
C816 C812 1.350 . S
C816 C813 1.463 . S
C816 N820 1.427 . S
C817 H807 0.929 . S
C817 C815 1.433 . S
C817 N820 1.384 . S
C818 H809 0.929 . S
C818 C810 1.378 . S
C818 C813 1.350 . S
C819 H806 0.929 . S
C819 C811 1.433 . S
C819 N821 1.384 . S
N820 C816 1.427 . S
N820 C817 1.384 . S
N821 C813 1.427 . S
N821 C819 1.384 . S
H822 C828 0.930 . S
H823 C832 0.930 . S
H824 C837 0.929 . S
H825 C835 0.929 . S
H826 C830 0.929 . S
H827 C836 0.929 . S
C828 H822 0.930 . S
C828 C829 1.367 . S
C828 C836 1.378 . S
C829 C828 1.367 . S
C829 C837 1.433 . S
C830 H826 0.929 . S
C830 C832 1.378 . S
C830 C834 1.350 . S
C831 C834 1.463 . S
C831 C836 1.350 . S
C831 N839 1.427 . S
C832 H823 0.930 . S
C832 C830 1.378 . S
C832 C833 1.367 . S
C833 C832 1.367 . S
C833 C835 1.433 . S
C834 C830 1.350 . S
C834 C831 1.463 . S
C834 N838 1.427 . S
C835 H825 0.929 . S
C835 C833 1.433 . S
C835 N838 1.384 . S
C836 H827 0.929 . S
C836 C828 1.378 . S
C836 C831 1.350 . S
C837 H824 0.929 . S
C837 C829 1.433 . S
C837 N839 1.384 . S
N838 C834 1.427 . S
N838 C835 1.384 . S
N839 C831 1.427 . S
N839 C837 1.384 . S
H840 C846 0.930 . S
H841 C850 0.930 . S
H842 C855 0.929 . S
H843 C853 0.929 . S
H844 C848 0.929 . S
H845 C854 0.929 . S
C846 H840 0.930 . S
C846 C847 1.367 . S
C846 C854 1.378 . S
C847 C846 1.367 . S
C847 C855 1.433 . S
C848 H844 0.929 . S
C848 C850 1.378 . S
C848 C852 1.350 . S
C849 C852 1.463 . S
C849 C854 1.350 . S
C849 N857 1.427 . S
C850 H841 0.930 . S
C850 C848 1.378 . S
C850 C851 1.367 . S
C851 C850 1.367 . S
C851 C853 1.433 . S
C852 C848 1.350 . S
C852 C849 1.463 . S
C852 N856 1.427 . S
C853 H843 0.929 . S
C853 C851 1.433 . S
C853 N856 1.384 . S
C854 H845 0.929 . S
C854 C846 1.378 . S
C854 C849 1.350 . S
C855 H842 0.929 . S
C855 C847 1.433 . S
C855 N857 1.384 . S
N856 C852 1.427 . S
N856 C853 1.384 . S
N857 C849 1.427 . S
N857 C855 1.384 . S
H858 C864 0.930 . S
H859 C868 0.930 . S
H860 C873 0.929 . S
H861 C871 0.929 . S
H862 C866 0.929 . S
H863 C872 0.929 . S
C864 H858 0.930 . S
C864 C865 1.367 . S
C864 C872 1.378 . S
C865 C864 1.367 . S
C865 C873 1.433 . S
C866 H862 0.929 . S
C866 C868 1.378 . S
C866 C870 1.350 . S
C867 C870 1.463 . S
C867 C872 1.350 . S
C867 N875 1.427 . S
C868 H859 0.930 . S
C868 C866 1.378 . S
C868 C869 1.367 . S
C869 C868 1.367 . S
C869 C871 1.433 . S
C870 C866 1.350 . S
C870 C867 1.463 . S
C870 N874 1.427 . S
C871 H861 0.929 . S
C871 C869 1.433 . S
C871 N874 1.384 . S
C872 H863 0.929 . S
C872 C864 1.378 . S
C872 C867 1.350 . S
C873 H860 0.929 . S
C873 C865 1.433 . S
C873 N875 1.384 . S
N874 C870 1.427 . S
N874 C871 1.384 . S
N875 C867 1.427 . S
N875 C873 1.384 . S
H876 C882 0.930 . S
H877 C886 0.930 . S
H878 C891 0.929 . S
H879 C889 0.929 . S
H880 C884 0.929 . S
H881 C890 0.929 . S
C882 H876 0.930 . S
C882 C883 1.367 . S
C882 C890 1.378 . S
C883 C882 1.367 . S
C883 C891 1.433 . S
C884 H880 0.929 . S
C884 C886 1.378 . S
C884 C888 1.350 . S
C885 C888 1.463 . S
C885 C890 1.350 . S
C885 N893 1.427 . S
C886 H877 0.930 . S
C886 C884 1.378 . S
C886 C887 1.367 . S
C887 C886 1.367 . S
C887 C889 1.433 . S
C888 C884 1.350 . S
C888 C885 1.463 . S
C888 N892 1.427 . S
C889 H879 0.929 . S
C889 C887 1.433 . S
C889 N892 1.384 . S
C890 H881 0.929 . S
C890 C882 1.378 . S
C890 C885 1.350 . S
C891 H878 0.929 . S
C891 C883 1.433 . S
C891 N893 1.384 . S
N892 C888 1.427 . S
N892 C889 1.384 . S
N893 C885 1.427 . S
N893 C891 1.384 . S
H894 C900 0.930 . S
H895 C904 0.930 . S
H896 C909 0.929 . S
H897 C907 0.929 . S
H898 C902 0.929 . S
H899 C908 0.929 . S
C900 H894 0.930 . S
C900 C901 1.367 . S
C900 C908 1.378 . S
C901 C900 1.367 . S
C901 C909 1.433 . S
C902 H898 0.929 . S
C902 C904 1.378 . S
C902 C906 1.350 . S
C903 C906 1.463 . S
C903 C908 1.350 . S
C903 N911 1.427 . S
C904 H895 0.930 . S
C904 C902 1.378 . S
C904 C905 1.367 . S
C905 C904 1.367 . S
C905 C907 1.433 . S
C906 C902 1.350 . S
C906 C903 1.463 . S
C906 N910 1.427 . S
C907 H897 0.929 . S
C907 C905 1.433 . S
C907 N910 1.384 . S
C908 H899 0.929 . S
C908 C900 1.378 . S
C908 C903 1.350 . S
C909 H896 0.929 . S
C909 C901 1.433 . S
C909 N911 1.384 . S
N910 C906 1.427 . S
N910 C907 1.384 . S
N911 C903 1.427 . S
N911 C909 1.384 . S
H912 C918 0.930 . S
H913 C922 0.930 . S
H914 C927 0.929 . S
H915 C925 0.929 . S
H916 C920 0.929 . S
H917 C926 0.929 . S
C918 H912 0.930 . S
C918 C919 1.367 . S
C918 C926 1.378 . S
C919 C918 1.367 . S
C919 C927 1.433 . S
C920 H916 0.929 . S
C920 C922 1.378 . S
C920 C924 1.350 . S
C921 C924 1.463 . S
C921 C926 1.350 . S
C921 N929 1.427 . S
C922 H913 0.930 . S
C922 C920 1.378 . S
C922 C923 1.367 . S
C923 C922 1.367 . S
C923 C925 1.433 . S
C924 C920 1.350 . S
C924 C921 1.463 . S
C924 N928 1.427 . S
C925 H915 0.929 . S
C925 C923 1.433 . S
C925 N928 1.384 . S
C926 H917 0.929 . S
C926 C918 1.378 . S
C926 C921 1.350 . S
C927 H914 0.929 . S
C927 C919 1.433 . S
C927 N929 1.384 . S
N928 C924 1.427 . S
N928 C925 1.384 . S
N929 C921 1.427 . S
N929 C927 1.384 . S
H930 C936 0.930 . S
H931 C940 0.930 . S
H932 C945 0.929 . S
H933 C943 0.929 . S
H934 C938 0.929 . S
H935 C944 0.929 . S
C936 H930 0.930 . S
C936 C937 1.367 . S
C936 C944 1.378 . S
C937 C936 1.367 . S
C937 C945 1.433 . S
C938 H934 0.929 . S
C938 C940 1.378 . S
C938 C942 1.350 . S
C939 C942 1.463 . S
C939 C944 1.350 . S
C939 N947 1.427 . S
C940 H931 0.930 . S
C940 C938 1.378 . S
C940 C941 1.367 . S
C941 C940 1.367 . S
C941 C943 1.433 . S
C942 C938 1.350 . S
C942 C939 1.463 . S
C942 N946 1.427 . S
C943 H933 0.929 . S
C943 C941 1.433 . S
C943 N946 1.384 . S
C944 H935 0.929 . S
C944 C936 1.378 . S
C944 C939 1.350 . S
C945 H932 0.929 . S
C945 C937 1.433 . S
C945 N947 1.384 . S
N946 C942 1.427 . S
N946 C943 1.384 . S
N947 C939 1.427 . S
N947 C945 1.384 . S
H948 C954 0.930 . S
H949 C958 0.930 . S
H950 C963 0.929 . S
H951 C961 0.929 . S
H952 C956 0.929 . S
H953 C962 0.929 . S
C954 H948 0.930 . S
C954 C955 1.367 . S
C954 C962 1.378 . S
C955 C954 1.367 . S
C955 C963 1.433 . S
C956 H952 0.929 . S
C956 C958 1.378 . S
C956 C960 1.350 . S
C957 C960 1.463 . S
C957 C962 1.350 . S
C957 N965 1.427 . S
C958 H949 0.930 . S
C958 C956 1.378 . S
C958 C959 1.367 . S
C959 C958 1.367 . S
C959 C961 1.433 . S
C960 C956 1.350 . S
C960 C957 1.463 . S
C960 N964 1.427 . S
C961 H951 0.929 . S
C961 C959 1.433 . S
C961 N964 1.384 . S
C962 H953 0.929 . S
C962 C954 1.378 . S
C962 C957 1.350 . S
C963 H950 0.929 . S
C963 C955 1.433 . S
C963 N965 1.384 . S
N964 C960 1.427 . S
N964 C961 1.384 . S
N965 C957 1.427 . S
N965 C963 1.384 . S
H966 C972 0.930 . S
H967 C976 0.930 . S
H968 C981 0.929 . S
H969 C979 0.929 . S
H970 C974 0.929 . S
H971 C980 0.929 . S
C972 H966 0.930 . S
C972 C973 1.367 . S
C972 C980 1.378 . S
C973 C972 1.367 . S
C973 C981 1.433 . S
C974 H970 0.929 . S
C974 C976 1.378 . S
C974 C978 1.350 . S
C975 C978 1.463 . S
C975 C980 1.350 . S
C975 N983 1.427 . S
C976 H967 0.930 . S
C976 C974 1.378 . S
C976 C977 1.367 . S
C977 C976 1.367 . S
C977 C979 1.433 . S
C978 C974 1.350 . S
C978 C975 1.463 . S
C978 N982 1.427 . S
C979 H969 0.929 . S
C979 C977 1.433 . S
C979 N982 1.384 . S
C980 H971 0.929 . S
C980 C972 1.378 . S
C980 C975 1.350 . S
C981 H968 0.929 . S
C981 C973 1.433 . S
C981 N983 1.384 . S
N982 C978 1.427 . S
N982 C979 1.384 . S
N983 C975 1.427 . S
N983 C981 1.384 . S
H984 C990 0.930 1_655 S
H985 C994 0.930 . S
H986 C999 0.929 . S
H987 C997 0.929 . S
H988 C992 0.929 . S
H989 C998 0.929 . S
C990 H984 0.930 1_455 S
C990 C991 1.367 . S
C990 C998 1.378 . S
C991 C990 1.367 . S
C991 C999 1.433 . S
C992 H988 0.929 . S
C992 C994 1.378 . S
C992 C996 1.350 . S
C993 C996 1.463 . S
C993 C998 1.350 . S
C993 N1001 1.427 . S
C994 H985 0.930 . S
C994 C992 1.378 . S
C994 C995 1.367 . S
C995 C994 1.367 . S
C995 C997 1.433 . S
C996 C992 1.350 . S
C996 C993 1.463 . S
C996 N1000 1.427 . S
C997 H987 0.929 . S
C997 C995 1.433 . S
C997 N1000 1.384 . S
C998 H989 0.929 . S
C998 C990 1.378 . S
C998 C993 1.350 . S
C999 H986 0.929 . S
C999 C991 1.433 . S
C999 N1001 1.384 . S
N1000 C996 1.427 . S
N1000 C997 1.384 . S
N1001 C993 1.427 . S
N1001 C999 1.384 . S
H1002 C1008 0.930 . S
H1003 C1012 0.930 . S
H1004 C1017 0.929 . S
H1005 C1015 0.929 . S
H1006 C1010 0.929 . S
H1007 C1016 0.929 . S
C1008 H1002 0.930 . S
C1008 C1009 1.367 . S
C1008 C1016 1.378 . S
C1009 C1008 1.367 . S
C1009 C1017 1.433 . S
C1010 H1006 0.929 . S
C1010 C1012 1.378 . S
C1010 C1014 1.350 . S
C1011 C1014 1.463 . S
C1011 C1016 1.350 . S
C1011 N1019 1.427 . S
C1012 H1003 0.930 . S
C1012 C1010 1.378 . S
C1012 C1013 1.367 . S
C1013 C1012 1.367 . S
C1013 C1015 1.433 . S
C1014 C1010 1.350 . S
C1014 C1011 1.463 . S
C1014 N1018 1.427 . S
C1015 H1005 0.929 . S
C1015 C1013 1.433 . S
C1015 N1018 1.384 . S
C1016 H1007 0.929 . S
C1016 C1008 1.378 . S
C1016 C1011 1.350 . S
C1017 H1004 0.929 . S
C1017 C1009 1.433 . S
C1017 N1019 1.384 . S
N1018 C1014 1.427 . S
N1018 C1015 1.384 . S
N1019 C1011 1.427 . S
N1019 C1017 1.384 . S
H1020 C1026 0.930 . S
H1021 C1030 0.930 . S
H1022 C1035 0.929 . S
H1023 C1033 0.929 . S
H1024 C1028 0.929 . S
H1025 C1034 0.929 . S
C1026 H1020 0.930 . S
C1026 C1027 1.367 . S
C1026 C1034 1.378 . S
C1027 C1026 1.367 . S
C1027 C1035 1.433 . S
C1028 H1024 0.929 . S
C1028 C1030 1.378 . S
C1028 C1032 1.350 . S
C1029 C1032 1.463 . S
C1029 C1034 1.350 . S
C1029 N1037 1.427 . S
C1030 H1021 0.930 . S
C1030 C1028 1.378 . S
C1030 C1031 1.367 . S
C1031 C1030 1.367 . S
C1031 C1033 1.433 . S
C1032 C1028 1.350 . S
C1032 C1029 1.463 . S
C1032 N1036 1.427 . S
C1033 H1023 0.929 . S
C1033 C1031 1.433 . S
C1033 N1036 1.384 . S
C1034 H1025 0.929 . S
C1034 C1026 1.378 . S
C1034 C1029 1.350 . S
C1035 H1022 0.929 . S
C1035 C1027 1.433 . S
C1035 N1037 1.384 . S
N1036 C1032 1.427 . S
N1036 C1033 1.384 . S
N1037 C1029 1.427 . S
N1037 C1035 1.384 . S
H1038 C1044 0.930 . S
H1039 C1048 0.930 . S
H1040 C1053 0.929 . S
H1041 C1051 0.929 . S
H1042 C1046 0.929 . S
H1043 C1052 0.929 . S
C1044 H1038 0.930 . S
C1044 C1045 1.367 . S
C1044 C1052 1.378 . S
C1045 C1044 1.367 . S
C1045 C1053 1.433 . S
C1046 H1042 0.929 . S
C1046 C1048 1.378 . S
C1046 C1050 1.350 . S
C1047 C1050 1.463 . S
C1047 C1052 1.350 . S
C1047 N1055 1.427 . S
C1048 H1039 0.930 . S
C1048 C1046 1.378 . S
C1048 C1049 1.367 . S
C1049 C1048 1.367 . S
C1049 C1051 1.433 . S
C1050 C1046 1.350 . S
C1050 C1047 1.463 . S
C1050 N1054 1.427 . S
C1051 H1041 0.929 . S
C1051 C1049 1.433 . S
C1051 N1054 1.384 . S
C1052 H1043 0.929 . S
C1052 C1044 1.378 . S
C1052 C1047 1.350 . S
C1053 H1040 0.929 . S
C1053 C1045 1.433 . S
C1053 N1055 1.384 . S
N1054 C1050 1.427 . S
N1054 C1051 1.384 . S
N1055 C1047 1.427 . S
N1055 C1053 1.384 . S
H1056 C1062 0.930 . S
H1057 C1066 0.930 . S
H1058 C1071 0.929 . S
H1059 C1069 0.929 1_565 S
H1060 C1064 0.929 . S
H1061 C1070 0.929 . S
C1062 H1056 0.930 . S
C1062 C1063 1.367 . S
C1062 C1070 1.378 . S
C1063 C1062 1.367 . S
C1063 C1071 1.433 . S
C1064 H1060 0.929 . S
C1064 C1066 1.378 . S
C1064 C1068 1.350 . S
C1065 C1068 1.463 . S
C1065 C1070 1.350 . S
C1065 N1073 1.427 . S
C1066 H1057 0.930 . S
C1066 C1064 1.378 . S
C1066 C1067 1.367 . S
C1067 C1066 1.367 . S
C1067 C1069 1.433 . S
C1068 C1064 1.350 . S
C1068 C1065 1.463 . S
C1068 N1072 1.427 . S
C1069 H1059 0.929 1_545 S
C1069 C1067 1.433 . S
C1069 N1072 1.384 . S
C1070 H1061 0.929 . S
C1070 C1062 1.378 . S
C1070 C1065 1.350 . S
C1071 H1058 0.929 . S
C1071 C1063 1.433 . S
C1071 N1073 1.384 . S
N1072 C1068 1.427 . S
N1072 C1069 1.384 . S
N1073 C1065 1.427 . S
N1073 C1071 1.384 . S
H1074 C1080 0.930 . S
H1075 C1084 0.930 . S
H1076 C1089 0.929 . S
H1077 C1087 0.929 . S
H1078 C1082 0.929 . S
H1079 C1088 0.929 . S
C1080 H1074 0.930 . S
C1080 C1081 1.367 . S
C1080 C1088 1.378 . S
C1081 C1080 1.367 . S
C1081 C1089 1.433 . S
C1082 H1078 0.929 . S
C1082 C1084 1.378 . S
C1082 C1086 1.350 . S
C1083 C1086 1.463 . S
C1083 C1088 1.350 . S
C1083 N1091 1.427 . S
C1084 H1075 0.930 . S
C1084 C1082 1.378 . S
C1084 C1085 1.367 . S
C1085 C1084 1.367 . S
C1085 C1087 1.433 . S
C1086 C1082 1.350 . S
C1086 C1083 1.463 . S
C1086 N1090 1.427 . S
C1087 H1077 0.929 . S
C1087 C1085 1.433 . S
C1087 N1090 1.384 . S
C1088 H1079 0.929 . S
C1088 C1080 1.378 . S
C1088 C1083 1.350 . S
C1089 H1076 0.929 . S
C1089 C1081 1.433 . S
C1089 N1091 1.384 . S
N1090 C1086 1.427 . S
N1090 C1087 1.384 . S
N1091 C1083 1.427 . S
N1091 C1089 1.384 . S
H1092 C1098 0.930 . S
H1093 C1102 0.930 . S
H1094 C1107 0.929 . S
H1095 C1105 0.929 1_545 S
H1096 C1100 0.929 . S
H1097 C1106 0.929 . S
C1098 H1092 0.930 . S
C1098 C1099 1.367 . S
C1098 C1106 1.378 . S
C1099 C1098 1.367 . S
C1099 C1107 1.433 . S
C1100 H1096 0.929 . S
C1100 C1102 1.378 . S
C1100 C1104 1.350 . S
C1101 C1104 1.463 . S
C1101 C1106 1.350 . S
C1101 N1109 1.427 . S
C1102 H1093 0.930 . S
C1102 C1100 1.378 . S
C1102 C1103 1.367 . S
C1103 C1102 1.367 . S
C1103 C1105 1.433 . S
C1104 C1100 1.350 . S
C1104 C1101 1.463 . S
C1104 N1108 1.427 . S
C1105 H1095 0.929 1_565 S
C1105 C1103 1.433 . S
C1105 N1108 1.384 . S
C1106 H1097 0.929 . S
C1106 C1098 1.378 . S
C1106 C1101 1.350 . S
C1107 H1094 0.929 . S
C1107 C1099 1.433 . S
C1107 N1109 1.384 . S
N1108 C1104 1.427 . S
N1108 C1105 1.384 . S
N1109 C1101 1.427 . S
N1109 C1107 1.384 . S
H1110 C1116 0.930 . S
H1111 C1120 0.930 . S
H1112 C1125 0.929 . S
H1113 C1123 0.929 . S
H1114 C1118 0.929 . S
H1115 C1124 0.929 . S
C1116 H1110 0.930 . S
C1116 C1117 1.367 . S
C1116 C1124 1.378 . S
C1117 C1116 1.367 . S
C1117 C1125 1.433 . S
C1118 H1114 0.929 . S
C1118 C1120 1.378 . S
C1118 C1122 1.350 . S
C1119 C1122 1.463 . S
C1119 C1124 1.350 . S
C1119 N1127 1.427 . S
C1120 H1111 0.930 . S
C1120 C1118 1.378 . S
C1120 C1121 1.367 . S
C1121 C1120 1.367 . S
C1121 C1123 1.433 . S
C1122 C1118 1.350 . S
C1122 C1119 1.463 . S
C1122 N1126 1.427 . S
C1123 H1113 0.929 . S
C1123 C1121 1.433 . S
C1123 N1126 1.384 . S
C1124 H1115 0.929 . S
C1124 C1116 1.378 . S
C1124 C1119 1.350 . S
C1125 H1112 0.929 . S
C1125 C1117 1.433 . S
C1125 N1127 1.384 . S
N1126 C1122 1.427 . S
N1126 C1123 1.384 . S
N1127 C1119 1.427 . S
N1127 C1125 1.384 . S
H1128 C1134 0.930 . S
H1129 C1138 0.930 . S
H1130 C1143 0.929 . S
H1131 C1141 0.929 . S
H1132 C1136 0.929 . S
H1133 C1142 0.929 . S
C1134 H1128 0.930 . S
C1134 C1135 1.367 . S
C1134 C1142 1.378 . S
C1135 C1134 1.367 . S
C1135 C1143 1.433 . S
C1136 H1132 0.929 . S
C1136 C1138 1.378 . S
C1136 C1140 1.350 . S
C1137 C1140 1.463 . S
C1137 C1142 1.350 . S
C1137 N1145 1.427 . S
C1138 H1129 0.930 . S
C1138 C1136 1.378 . S
C1138 C1139 1.367 . S
C1139 C1138 1.367 . S
C1139 C1141 1.433 . S
C1140 C1136 1.350 . S
C1140 C1137 1.463 . S
C1140 N1144 1.427 . S
C1141 H1131 0.929 . S
C1141 C1139 1.433 . S
C1141 N1144 1.384 . S
C1142 H1133 0.929 . S
C1142 C1134 1.378 . S
C1142 C1137 1.350 . S
C1143 H1130 0.929 . S
C1143 C1135 1.433 . S
C1143 N1145 1.384 . S
N1144 C1140 1.427 . S
N1144 C1141 1.384 . S
N1145 C1137 1.427 . S
N1145 C1143 1.384 . S
H1146 C1152 0.930 . S
H1147 C1156 0.930 . S
H1148 C1161 0.929 . S
H1149 C1159 0.929 . S
H1150 C1154 0.929 . S
H1151 C1160 0.929 . S
C1152 H1146 0.930 . S
C1152 C1153 1.367 . S
C1152 C1160 1.378 . S
C1153 C1152 1.367 . S
C1153 C1161 1.433 . S
C1154 H1150 0.929 . S
C1154 C1156 1.378 . S
C1154 C1158 1.350 . S
C1155 C1158 1.463 . S
C1155 C1160 1.350 . S
C1155 N1163 1.427 . S
C1156 H1147 0.930 . S
C1156 C1154 1.378 . S
C1156 C1157 1.367 . S
C1157 C1156 1.367 . S
C1157 C1159 1.433 . S
C1158 C1154 1.350 . S
C1158 C1155 1.463 . S
C1158 N1162 1.427 . S
C1159 H1149 0.929 . S
C1159 C1157 1.433 . S
C1159 N1162 1.384 . S
C1160 H1151 0.929 . S
C1160 C1152 1.378 . S
C1160 C1155 1.350 . S
C1161 H1148 0.929 . S
C1161 C1153 1.433 . S
C1161 N1163 1.384 . S
N1162 C1158 1.427 . S
N1162 C1159 1.384 . S
N1163 C1155 1.427 . S
N1163 C1161 1.384 . S
H1164 C1170 0.930 . S
H1165 C1174 0.930 . S
H1166 C1179 0.929 . S
H1167 C1177 0.929 . S
H1168 C1172 0.929 . S
H1169 C1178 0.929 . S
C1170 H1164 0.930 . S
C1170 C1171 1.367 . S
C1170 C1178 1.378 . S
C1171 C1170 1.367 . S
C1171 C1179 1.433 . S
C1172 H1168 0.929 . S
C1172 C1174 1.378 . S
C1172 C1176 1.350 . S
C1173 C1176 1.463 . S
C1173 C1178 1.350 . S
C1173 N1181 1.427 . S
C1174 H1165 0.930 . S
C1174 C1172 1.378 . S
C1174 C1175 1.367 . S
C1175 C1174 1.367 . S
C1175 C1177 1.433 . S
C1176 C1172 1.350 . S
C1176 C1173 1.463 . S
C1176 N1180 1.427 . S
C1177 H1167 0.929 . S
C1177 C1175 1.433 . S
C1177 N1180 1.384 . S
C1178 H1169 0.929 . S
C1178 C1170 1.378 . S
C1178 C1173 1.350 . S
C1179 H1166 0.929 . S
C1179 C1171 1.433 . S
C1179 N1181 1.384 . S
N1180 C1176 1.427 . S
N1180 C1177 1.384 . S
N1181 C1173 1.427 . S
N1181 C1179 1.384 . S
H1182 C1188 0.930 . S
H1183 C1192 0.930 . S
H1184 C1197 0.929 . S
H1185 C1195 0.929 . S
H1186 C1190 0.929 . S
H1187 C1196 0.929 . S
C1188 H1182 0.930 . S
C1188 C1189 1.367 . S
C1188 C1196 1.378 . S
C1189 C1188 1.367 . S
C1189 C1197 1.433 . S
C1190 H1186 0.929 . S
C1190 C1192 1.378 . S
C1190 C1194 1.350 . S
C1191 C1194 1.463 . S
C1191 C1196 1.350 . S
C1191 N1199 1.427 . S
C1192 H1183 0.930 . S
C1192 C1190 1.378 . S
C1192 C1193 1.367 . S
C1193 C1192 1.367 . S
C1193 C1195 1.433 . S
C1194 C1190 1.350 . S
C1194 C1191 1.463 . S
C1194 N1198 1.427 . S
C1195 H1185 0.929 . S
C1195 C1193 1.433 . S
C1195 N1198 1.384 . S
C1196 H1187 0.929 . S
C1196 C1188 1.378 . S
C1196 C1191 1.350 . S
C1197 H1184 0.929 . S
C1197 C1189 1.433 . S
C1197 N1199 1.384 . S
N1198 C1194 1.427 . S
N1198 C1195 1.384 . S
N1199 C1191 1.427 . S
N1199 C1197 1.384 . S
H1200 C1206 0.930 . S
H1201 C1210 0.930 . S
H1202 C1215 0.929 . S
H1203 C1213 0.929 . S
H1204 C1208 0.929 . S
H1205 C1214 0.929 . S
C1206 H1200 0.930 . S
C1206 C1207 1.367 . S
C1206 C1214 1.378 . S
C1207 C1206 1.367 . S
C1207 C1215 1.433 . S
C1208 H1204 0.929 . S
C1208 C1210 1.378 . S
C1208 C1212 1.350 . S
C1209 C1212 1.463 . S
C1209 C1214 1.350 . S
C1209 N1217 1.427 . S
C1210 H1201 0.930 . S
C1210 C1208 1.378 . S
C1210 C1211 1.367 . S
C1211 C1210 1.367 . S
C1211 C1213 1.433 . S
C1212 C1208 1.350 . S
C1212 C1209 1.463 . S
C1212 N1216 1.427 . S
C1213 H1203 0.929 . S
C1213 C1211 1.433 . S
C1213 N1216 1.384 . S
C1214 H1205 0.929 . S
C1214 C1206 1.378 . S
C1214 C1209 1.350 . S
C1215 H1202 0.929 . S
C1215 C1207 1.433 . S
C1215 N1217 1.384 . S
N1216 C1212 1.427 . S
N1216 C1213 1.384 . S
N1217 C1209 1.427 . S
N1217 C1215 1.384 . S
H1218 C1224 0.930 . S
H1219 C1228 0.930 . S
H1220 C1233 0.929 . S
H1221 C1231 0.929 . S
H1222 C1226 0.929 . S
H1223 C1232 0.929 . S
C1224 H1218 0.930 . S
C1224 C1225 1.367 . S
C1224 C1232 1.378 . S
C1225 C1224 1.367 . S
C1225 C1233 1.433 . S
C1226 H1222 0.929 . S
C1226 C1228 1.378 . S
C1226 C1230 1.350 . S
C1227 C1230 1.463 . S
C1227 C1232 1.350 . S
C1227 N1235 1.427 . S
C1228 H1219 0.930 . S
C1228 C1226 1.378 . S
C1228 C1229 1.367 . S
C1229 C1228 1.367 . S
C1229 C1231 1.433 . S
C1230 C1226 1.350 . S
C1230 C1227 1.463 . S
C1230 N1234 1.427 . S
C1231 H1221 0.929 . S
C1231 C1229 1.433 . S
C1231 N1234 1.384 . S
C1232 H1223 0.929 . S
C1232 C1224 1.378 . S
C1232 C1227 1.350 . S
C1233 H1220 0.929 . S
C1233 C1225 1.433 . S
C1233 N1235 1.384 . S
N1234 C1230 1.427 . S
N1234 C1231 1.384 . S
N1235 C1227 1.427 . S
N1235 C1233 1.384 . S
H1236 C1242 0.930 . S
H1237 C1246 0.930 . S
H1238 C1251 0.929 . S
H1239 C1249 0.929 . S
H1240 C1244 0.929 . S
H1241 C1250 0.929 . S
C1242 H1236 0.930 . S
C1242 C1243 1.367 . S
C1242 C1250 1.378 . S
C1243 C1242 1.367 . S
C1243 C1251 1.433 . S
C1244 H1240 0.929 . S
C1244 C1246 1.378 . S
C1244 C1248 1.350 . S
C1245 C1248 1.463 . S
C1245 C1250 1.350 . S
C1245 N1253 1.427 . S
C1246 H1237 0.930 . S
C1246 C1244 1.378 . S
C1246 C1247 1.367 . S
C1247 C1246 1.367 . S
C1247 C1249 1.433 . S
C1248 C1244 1.350 . S
C1248 C1245 1.463 . S
C1248 N1252 1.427 . S
C1249 H1239 0.929 . S
C1249 C1247 1.433 . S
C1249 N1252 1.384 . S
C1250 H1241 0.929 . S
C1250 C1242 1.378 . S
C1250 C1245 1.350 . S
C1251 H1238 0.929 . S
C1251 C1243 1.433 . S
C1251 N1253 1.384 . S
N1252 C1248 1.427 . S
N1252 C1249 1.384 . S
N1253 C1245 1.427 . S
N1253 C1251 1.384 . S
H1254 C1260 0.930 . S
H1255 C1264 0.930 . S
H1256 C1269 0.929 . S
H1257 C1267 0.929 . S
H1258 C1262 0.929 . S
H1259 C1268 0.929 . S
C1260 H1254 0.930 . S
C1260 C1261 1.367 . S
C1260 C1268 1.378 . S
C1261 C1260 1.367 . S
C1261 C1269 1.433 . S
C1262 H1258 0.929 . S
C1262 C1264 1.378 . S
C1262 C1266 1.350 . S
C1263 C1266 1.463 . S
C1263 C1268 1.350 . S
C1263 N1271 1.427 . S
C1264 H1255 0.930 . S
C1264 C1262 1.378 . S
C1264 C1265 1.367 . S
C1265 C1264 1.367 . S
C1265 C1267 1.433 . S
C1266 C1262 1.350 . S
C1266 C1263 1.463 . S
C1266 N1270 1.427 . S
C1267 H1257 0.929 . S
C1267 C1265 1.433 . S
C1267 N1270 1.384 . S
C1268 H1259 0.929 . S
C1268 C1260 1.378 . S
C1268 C1263 1.350 . S
C1269 H1256 0.929 . S
C1269 C1261 1.433 . S
C1269 N1271 1.384 . S
N1270 C1266 1.427 . S
N1270 C1267 1.384 . S
N1271 C1263 1.427 . S
N1271 C1269 1.384 . S
H1272 C1278 0.930 . S
H1273 C1282 0.930 . S
H1274 C1287 0.929 . S
H1275 C1285 0.929 . S
H1276 C1280 0.929 . S
H1277 C1286 0.929 . S
C1278 H1272 0.930 . S
C1278 C1279 1.367 . S
C1278 C1286 1.378 . S
C1279 C1278 1.367 . S
C1279 C1287 1.433 . S
C1280 H1276 0.929 . S
C1280 C1282 1.378 . S
C1280 C1284 1.350 . S
C1281 C1284 1.463 . S
C1281 C1286 1.350 . S
C1281 N1289 1.427 . S
C1282 H1273 0.930 . S
C1282 C1280 1.378 . S
C1282 C1283 1.367 . S
C1283 C1282 1.367 . S
C1283 C1285 1.433 . S
C1284 C1280 1.350 . S
C1284 C1281 1.463 . S
C1284 N1288 1.427 . S
C1285 H1275 0.929 . S
C1285 C1283 1.433 . S
C1285 N1288 1.384 . S
C1286 H1277 0.929 . S
C1286 C1278 1.378 . S
C1286 C1281 1.350 . S
C1287 H1274 0.929 . S
C1287 C1279 1.433 . S
C1287 N1289 1.384 . S
N1288 C1284 1.427 . S
N1288 C1285 1.384 . S
N1289 C1281 1.427 . S
N1289 C1287 1.384 . S
H1290 C1296 0.930 . S
H1291 C1300 0.930 . S
H1292 C1305 0.929 . S
H1293 C1303 0.929 1_455 S
H1294 C1298 0.929 . S
H1295 C1304 0.929 . S
C1296 H1290 0.930 . S
C1296 C1297 1.367 . S
C1296 C1304 1.378 . S
C1297 C1296 1.367 . S
C1297 C1305 1.433 . S
C1298 H1294 0.929 . S
C1298 C1300 1.378 . S
C1298 C1302 1.350 . S
C1299 C1302 1.463 . S
C1299 C1304 1.350 . S
C1299 N1307 1.427 . S
C1300 H1291 0.930 . S
C1300 C1298 1.378 . S
C1300 C1301 1.367 . S
C1301 C1300 1.367 . S
C1301 C1303 1.433 . S
C1302 C1298 1.350 . S
C1302 C1299 1.463 . S
C1302 N1306 1.427 . S
C1303 H1293 0.929 1_655 S
C1303 C1301 1.433 . S
C1303 N1306 1.384 . S
C1304 H1295 0.929 . S
C1304 C1296 1.378 . S
C1304 C1299 1.350 . S
C1305 H1292 0.929 . S
C1305 C1297 1.433 . S
C1305 N1307 1.384 . S
N1306 C1302 1.427 . S
N1306 C1303 1.384 . S
N1307 C1299 1.427 . S
N1307 C1305 1.384 . S
H1308 C1314 0.930 . S
H1309 C1318 0.930 . S
H1310 C1323 0.929 . S
H1311 C1321 0.929 . S
H1312 C1316 0.929 . S
H1313 C1322 0.929 . S
C1314 H1308 0.930 . S
C1314 C1315 1.367 . S
C1314 C1322 1.378 . S
C1315 C1314 1.367 . S
C1315 C1323 1.433 . S
C1316 H1312 0.929 . S
C1316 C1318 1.378 . S
C1316 C1320 1.350 . S
C1317 C1320 1.463 . S
C1317 C1322 1.350 . S
C1317 N1325 1.427 . S
C1318 H1309 0.930 . S
C1318 C1316 1.378 . S
C1318 C1319 1.367 . S
C1319 C1318 1.367 . S
C1319 C1321 1.433 . S
C1320 C1316 1.350 . S
C1320 C1317 1.463 . S
C1320 N1324 1.427 . S
C1321 H1311 0.929 . S
C1321 C1319 1.433 . S
C1321 N1324 1.384 . S
C1322 H1313 0.929 . S
C1322 C1314 1.378 . S
C1322 C1317 1.350 . S
C1323 H1310 0.929 . S
C1323 C1315 1.433 . S
C1323 N1325 1.384 . S
N1324 C1320 1.427 . S
N1324 C1321 1.384 . S
N1325 C1317 1.427 . S
N1325 C1323 1.384 . S
H1326 C1332 0.930 . S
H1327 C1336 0.930 . S
H1328 C1341 0.929 . S
H1329 C1339 0.929 . S
H1330 C1334 0.929 . S
H1331 C1340 0.929 . S
C1332 H1326 0.930 . S
C1332 C1333 1.367 . S
C1332 C1340 1.378 . S
C1333 C1332 1.367 . S
C1333 C1341 1.433 . S
C1334 H1330 0.929 . S
C1334 C1336 1.378 . S
C1334 C1338 1.350 . S
C1335 C1338 1.463 . S
C1335 C1340 1.350 . S
C1335 N1343 1.427 . S
C1336 H1327 0.930 . S
C1336 C1334 1.378 . S
C1336 C1337 1.367 . S
C1337 C1336 1.367 . S
C1337 C1339 1.433 . S
C1338 C1334 1.350 . S
C1338 C1335 1.463 . S
C1338 N1342 1.427 . S
C1339 H1329 0.929 . S
C1339 C1337 1.433 . S
C1339 N1342 1.384 . S
C1340 H1331 0.929 . S
C1340 C1332 1.378 . S
C1340 C1335 1.350 . S
C1341 H1328 0.929 . S
C1341 C1333 1.433 . S
C1341 N1343 1.384 . S
N1342 C1338 1.427 . S
N1342 C1339 1.384 . S
N1343 C1335 1.427 . S
N1343 C1341 1.384 . S
H1344 C1350 0.930 . S
H1345 C1354 0.930 . S
H1346 C1359 0.929 . S
H1347 C1357 0.929 . S
H1348 C1352 0.929 . S
H1349 C1358 0.929 . S
C1350 H1344 0.930 . S
C1350 C1351 1.367 . S
C1350 C1358 1.378 . S
C1351 C1350 1.367 . S
C1351 C1359 1.433 . S
C1352 H1348 0.929 . S
C1352 C1354 1.378 . S
C1352 C1356 1.350 . S
C1353 C1356 1.463 . S
C1353 C1358 1.350 . S
C1353 N1361 1.427 . S
C1354 H1345 0.930 . S
C1354 C1352 1.378 . S
C1354 C1355 1.367 . S
C1355 C1354 1.367 . S
C1355 C1357 1.433 . S
C1356 C1352 1.350 . S
C1356 C1353 1.463 . S
C1356 N1360 1.427 . S
C1357 H1347 0.929 . S
C1357 C1355 1.433 . S
C1357 N1360 1.384 . S
C1358 H1349 0.929 . S
C1358 C1350 1.378 . S
C1358 C1353 1.350 . S
C1359 H1346 0.929 . S
C1359 C1351 1.433 . S
C1359 N1361 1.384 . S
N1360 C1356 1.427 . S
N1360 C1357 1.384 . S
N1361 C1353 1.427 . S
N1361 C1359 1.384 . S
H1362 C1368 0.930 . S
H1363 C1372 0.930 . S
H1364 C1377 0.929 . S
H1365 C1375 0.929 . S
H1366 C1370 0.929 . S
H1367 C1376 0.929 . S
C1368 H1362 0.930 . S
C1368 C1369 1.367 . S
C1368 C1376 1.378 . S
C1369 C1368 1.367 . S
C1369 C1377 1.433 . S
C1370 H1366 0.929 . S
C1370 C1372 1.378 . S
C1370 C1374 1.350 . S
C1371 C1374 1.463 . S
C1371 C1376 1.350 . S
C1371 N1379 1.427 . S
C1372 H1363 0.930 . S
C1372 C1370 1.378 . S
C1372 C1373 1.367 . S
C1373 C1372 1.367 . S
C1373 C1375 1.433 . S
C1374 C1370 1.350 . S
C1374 C1371 1.463 . S
C1374 N1378 1.427 . S
C1375 H1365 0.929 . S
C1375 C1373 1.433 . S
C1375 N1378 1.384 . S
C1376 H1367 0.929 . S
C1376 C1368 1.378 . S
C1376 C1371 1.350 . S
C1377 H1364 0.929 . S
C1377 C1369 1.433 . S
C1377 N1379 1.384 . S
N1378 C1374 1.427 . S
N1378 C1375 1.384 . S
N1379 C1371 1.427 . S
N1379 C1377 1.384 . S
H1380 C1386 0.930 . S
H1381 C1390 0.930 . S
H1382 C1395 0.929 . S
H1383 C1393 0.929 . S
H1384 C1388 0.929 . S
H1385 C1394 0.929 . S
C1386 H1380 0.930 . S
C1386 C1387 1.367 . S
C1386 C1394 1.378 . S
C1387 C1386 1.367 . S
C1387 C1395 1.433 . S
C1388 H1384 0.929 . S
C1388 C1390 1.378 . S
C1388 C1392 1.350 . S
C1389 C1392 1.463 . S
C1389 C1394 1.350 . S
C1389 N1397 1.427 . S
C1390 H1381 0.930 . S
C1390 C1388 1.378 . S
C1390 C1391 1.367 . S
C1391 C1390 1.367 . S
C1391 C1393 1.433 . S
C1392 C1388 1.350 . S
C1392 C1389 1.463 . S
C1392 N1396 1.427 . S
C1393 H1383 0.929 . S
C1393 C1391 1.433 . S
C1393 N1396 1.384 . S
C1394 H1385 0.929 . S
C1394 C1386 1.378 . S
C1394 C1389 1.350 . S
C1395 H1382 0.929 . S
C1395 C1387 1.433 . S
C1395 N1397 1.384 . S
N1396 C1392 1.427 . S
N1396 C1393 1.384 . S
N1397 C1389 1.427 . S
N1397 C1395 1.384 . S
H1398 C1404 0.930 . S
H1399 C1408 0.930 . S
H1400 C1413 0.929 . S
H1401 C1411 0.929 . S
H1402 C1406 0.929 . S
H1403 C1412 0.929 . S
C1404 H1398 0.930 . S
C1404 C1405 1.367 . S
C1404 C1412 1.378 . S
C1405 C1404 1.367 . S
C1405 C1413 1.433 . S
C1406 H1402 0.929 . S
C1406 C1408 1.378 . S
C1406 C1410 1.350 . S
C1407 C1410 1.463 . S
C1407 C1412 1.350 . S
C1407 N1415 1.427 . S
C1408 H1399 0.930 . S
C1408 C1406 1.378 . S
C1408 C1409 1.367 . S
C1409 C1408 1.367 . S
C1409 C1411 1.433 . S
C1410 C1406 1.350 . S
C1410 C1407 1.463 . S
C1410 N1414 1.427 . S
C1411 H1401 0.929 . S
C1411 C1409 1.433 . S
C1411 N1414 1.384 . S
C1412 H1403 0.929 . S
C1412 C1404 1.378 . S
C1412 C1407 1.350 . S
C1413 H1400 0.929 . S
C1413 C1405 1.433 . S
C1413 N1415 1.384 . S
N1414 C1410 1.427 . S
N1414 C1411 1.384 . S
N1415 C1407 1.427 . S
N1415 C1413 1.384 . S
C559 C168 1.711 . S
C563 C7 1.683 . S
C577 N25 1.071 . S
C581 C99 1.135 . S
C595 C122 1.623 . S
C599 C53 1.609 . S
C613 N71 1.204 . S
C617 C145 1.274 . S
C631 N186 0.927 . S
C635 N2 1.029 . S
C649 C30 1.346 . S
C653 C214 1.323 . S
C667 N232 0.950 . S
C671 N48 1.056 . S
C685 C260 1.226 . S
C689 C76 1.224 . S
C703 N94 0.636 . S
C707 N209 0.585 . S
C721 N117 1.207 . S
C725 C237 1.358 . S
C739 N255 0.633 . S
C743 N140 0.640 . S
C757 C191 1.446 . S
C761 N163 1.310 . S
C775 C490 1.747 . S
C779 C283 1.742 . S
C793 N301 0.724 . S
C797 N508 0.750 . S
C811 C329 1.685 . S
C815 C536 1.683 . S
C829 N531 0.795 . S
C833 N347 0.817 . S
C847 N370 0.818 . S
C851 N485 0.784 . S
C865 C444 1.383 . S
C869 C398 1.375 . S
C883 N278 1.267 . S
C887 C375 1.325 . S
C901 C306 1.260 . S
C905 C421 1.272 . S
C919 N324 1.348 . S
C923 C352 1.415 . S
C937 N393 0.816 . S
C941 N462 0.823 . S
C955 N416 0.997 . S
C959 C513 1.024 . S
C973 C467 1.056 . S
C977 N439 1.031 . S
C991 C108 2.544 . S
C995 C16 2.422 . S
C1009 C131 1.853 . S
C1013 N35 1.846 . S
C1027 C154 2.726 . S
C1031 C62 2.612 . S
C1045 C177 2.245 . S
C1049 N81 2.248 . S
C1063 N196 2.321 . S
C1067 N265 2.417 . S
C1081 C223 2.126 . S
C1085 C200 2.217 . S
C1099 N242 2.049 . S
C1103 N219 2.165 . S
C1117 C246 1.690 . S
C1121 C269 1.615 . S
C1135 N426 2.282 . S
C1139 N173 2.219 . S
C1153 C292 2.119 . S
C1157 C85 2.226 . S
C1171 N12 2.275 . S
C1175 N311 2.252 . S
C1189 C39 2.539 . S
C1193 C338 2.452 . S
C1207 N127 2.068 . S
C1211 N449 2.139 . S
C1225 N104 1.378 . S
C1229 N357 1.405 . S
C1243 N150 1.453 . S
C1247 N380 1.489 . S
C1261 C384 2.068 . S
C1265 C407 2.211 . S
C1279 N288 1.779 . S
C1283 C430 1.671 . S
C1297 C361 2.012 . S
C1301 C315 2.149 . S
C1315 C453 2.186 . S
C1319 N334 2.344 . S
C1333 N472 2.236 . S
C1337 N541 2.152 . S
C1351 C476 2.255 . S
C1355 C499 2.379 . S
C1369 N518 2.488 . S
C1373 N495 2.411 . S
C1387 C545 1.680 . S
C1391 C522 1.574 . S
C1405 N58 2.511 . S
C1409 N403 2.454 . S
