# Generated by pormake.
# Topology unw, (4)-cn, num edge types: 1
# Building blocks:
#     Node 0, Type 0, BuildingBlock: QUQFOY_clean_sbu_1, # of connection points: 4
#     Node 1, Type 0, BuildingBlock: QUQFOY_clean_sbu_1, # of connection points: 4
#     Node 2, Type 0, BuildingBlock: QUQFOY_clean_sbu_1, # of connection points: 4
#     Node 3, Type 0, BuildingBlock: QUQFOY_clean_sbu_1, # of connection points: 4
#     Node 4, Type 0, BuildingBlock: QUQFOY_clean_sbu_1, # of connection points: 4
#     Node 5, Type 0, BuildingBlock: QUQFOY_clean_sbu_1, # of connection points: 4
#     Node 6, Type 0, BuildingBlock: QUQFOY_clean_sbu_1, # of connection points: 4
#     Node 7, Type 0, BuildingBlock: QUQFOY_clean_sbu_1, # of connection points: 4
#     Node 8, Type 0, BuildingBlock: QUQFOY_clean_sbu_1, # of connection points: 4
#     Node 9, Type 0, BuildingBlock: QUQFOY_clean_sbu_1, # of connection points: 4
#     Node 10, Type 0, BuildingBlock: QUQFOY_clean_sbu_1, # of connection points: 4
#     Node 11, Type 0, BuildingBlock: QUQFOY_clean_sbu_1, # of connection points: 4
#     Node 12, Type 0, BuildingBlock: QUQFOY_clean_sbu_1, # of connection points: 4
#     Node 13, Type 0, BuildingBlock: QUQFOY_clean_sbu_1, # of connection points: 4
#     Node 14, Type 0, BuildingBlock: QUQFOY_clean_sbu_1, # of connection points: 4
#     Node 15, Type 0, BuildingBlock: QUQFOY_clean_sbu_1, # of connection points: 4
#     Node 16, Type 0, BuildingBlock: QUQFOY_clean_sbu_1, # of connection points: 4
#     Node 17, Type 0, BuildingBlock: QUQFOY_clean_sbu_1, # of connection points: 4
#     Node 18, Type 0, BuildingBlock: QUQFOY_clean_sbu_1, # of connection points: 4
#     Node 19, Type 0, BuildingBlock: QUQFOY_clean_sbu_1, # of connection points: 4
#     Node 20, Type 0, BuildingBlock: QUQFOY_clean_sbu_1, # of connection points: 4
#     Node 21, Type 0, BuildingBlock: QUQFOY_clean_sbu_1, # of connection points: 4
#     Node 22, Type 0, BuildingBlock: QUQFOY_clean_sbu_1, # of connection points: 4
#     Node 23, Type 0, BuildingBlock: QUQFOY_clean_sbu_1, # of connection points: 4
#     Edge 24, Type (0, 0), BuildingBlock: UVAHIK_clean_linker_0, # of connection points: 2
#     Edge 25, Type (0, 0), BuildingBlock: UVAHIK_clean_linker_0, # of connection points: 2
#     Edge 26, Type (0, 0), BuildingBlock: UVAHIK_clean_linker_0, # of connection points: 2
#     Edge 27, Type (0, 0), BuildingBlock: UVAHIK_clean_linker_0, # of connection points: 2
#     Edge 28, Type (0, 0), BuildingBlock: UVAHIK_clean_linker_0, # of connection points: 2
#     Edge 29, Type (0, 0), BuildingBlock: UVAHIK_clean_linker_0, # of connection points: 2
#     Edge 30, Type (0, 0), BuildingBlock: UVAHIK_clean_linker_0, # of connection points: 2
#     Edge 31, Type (0, 0), BuildingBlock: UVAHIK_clean_linker_0, # of connection points: 2
#     Edge 32, Type (0, 0), BuildingBlock: UVAHIK_clean_linker_0, # of connection points: 2
#     Edge 33, Type (0, 0), BuildingBlock: UVAHIK_clean_linker_0, # of connection points: 2
#     Edge 34, Type (0, 0), BuildingBlock: UVAHIK_clean_linker_0, # of connection points: 2
#     Edge 35, Type (0, 0), BuildingBlock: UVAHIK_clean_linker_0, # of connection points: 2
#     Edge 36, Type (0, 0), BuildingBlock: UVAHIK_clean_linker_0, # of connection points: 2
#     Edge 37, Type (0, 0), BuildingBlock: UVAHIK_clean_linker_0, # of connection points: 2
#     Edge 38, Type (0, 0), BuildingBlock: UVAHIK_clean_linker_0, # of connection points: 2
#     Edge 39, Type (0, 0), BuildingBlock: UVAHIK_clean_linker_0, # of connection points: 2
#     Edge 40, Type (0, 0), BuildingBlock: UVAHIK_clean_linker_0, # of connection points: 2
#     Edge 41, Type (0, 0), BuildingBlock: UVAHIK_clean_linker_0, # of connection points: 2
#     Edge 42, Type (0, 0), BuildingBlock: UVAHIK_clean_linker_0, # of connection points: 2
#     Edge 43, Type (0, 0), BuildingBlock: UVAHIK_clean_linker_0, # of connection points: 2
#     Edge 44, Type (0, 0), BuildingBlock: UVAHIK_clean_linker_0, # of connection points: 2
#     Edge 45, Type (0, 0), BuildingBlock: UVAHIK_clean_linker_0, # of connection points: 2
#     Edge 46, Type (0, 0), BuildingBlock: UVAHIK_clean_linker_0, # of connection points: 2
#     Edge 47, Type (0, 0), BuildingBlock: UVAHIK_clean_linker_0, # of connection points: 2
#     Edge 48, Type (0, 0), BuildingBlock: UVAHIK_clean_linker_0, # of connection points: 2
#     Edge 49, Type (0, 0), BuildingBlock: UVAHIK_clean_linker_0, # of connection points: 2
#     Edge 50, Type (0, 0), BuildingBlock: UVAHIK_clean_linker_0, # of connection points: 2
#     Edge 51, Type (0, 0), BuildingBlock: UVAHIK_clean_linker_0, # of connection points: 2
#     Edge 52, Type (0, 0), BuildingBlock: UVAHIK_clean_linker_0, # of connection points: 2
#     Edge 53, Type (0, 0), BuildingBlock: UVAHIK_clean_linker_0, # of connection points: 2
#     Edge 54, Type (0, 0), BuildingBlock: UVAHIK_clean_linker_0, # of connection points: 2
#     Edge 55, Type (0, 0), BuildingBlock: UVAHIK_clean_linker_0, # of connection points: 2
#     Edge 56, Type (0, 0), BuildingBlock: UVAHIK_clean_linker_0, # of connection points: 2
#     Edge 57, Type (0, 0), BuildingBlock: UVAHIK_clean_linker_0, # of connection points: 2
#     Edge 58, Type (0, 0), BuildingBlock: UVAHIK_clean_linker_0, # of connection points: 2
#     Edge 59, Type (0, 0), BuildingBlock: UVAHIK_clean_linker_0, # of connection points: 2
#     Edge 60, Type (0, 0), BuildingBlock: UVAHIK_clean_linker_0, # of connection points: 2
#     Edge 61, Type (0, 0), BuildingBlock: UVAHIK_clean_linker_0, # of connection points: 2
#     Edge 62, Type (0, 0), BuildingBlock: UVAHIK_clean_linker_0, # of connection points: 2
#     Edge 63, Type (0, 0), BuildingBlock: UVAHIK_clean_linker_0, # of connection points: 2
#     Edge 64, Type (0, 0), BuildingBlock: UVAHIK_clean_linker_0, # of connection points: 2
#     Edge 65, Type (0, 0), BuildingBlock: UVAHIK_clean_linker_0, # of connection points: 2
#     Edge 66, Type (0, 0), BuildingBlock: UVAHIK_clean_linker_0, # of connection points: 2
#     Edge 67, Type (0, 0), BuildingBlock: UVAHIK_clean_linker_0, # of connection points: 2
#     Edge 68, Type (0, 0), BuildingBlock: UVAHIK_clean_linker_0, # of connection points: 2
#     Edge 69, Type (0, 0), BuildingBlock: UVAHIK_clean_linker_0, # of connection points: 2
#     Edge 70, Type (0, 0), BuildingBlock: UVAHIK_clean_linker_0, # of connection points: 2
#     Edge 71, Type (0, 0), BuildingBlock: UVAHIK_clean_linker_0, # of connection points: 2
# Relax obj value: 0.153
# Max RMSD: 0.162
# Mean RMSD: 0.162
data_MOF--net-unw--node1-QUQFOY_clean_sbu_1--edge1-UVAHIK_clean_linker_0
_symmetry_space_group_name_H-M    P1
_symmetry_Int_Tables_number       1
_symmetry_cell_setting            triclinic
loop_
_symmetry_equiv_pos_as_xyz
'x, y, z'
_cell_length_a     64.634617
_cell_length_b     64.587662
_cell_length_c     64.626557
_cell_angle_alpha  90.040735
_cell_angle_beta   89.966483
_cell_angle_gamma 90.013876
loop_
_atom_site_label
_atom_site_type_symbol
_atom_site_fract_x
_atom_site_fract_y
_atom_site_fract_z
_atom_type_partial_charge
O0 O 0.14548 0.33138 0.27962 0.0
Cd1 Cd 0.13656 0.34766 0.25414 0.0
Cd2 Cd 0.15938 0.37536 0.27532 0.0
O3 O 0.15143 0.35736 0.30091 0.0
O4 O 0.1142 0.32928 0.24342 0.0
O5 O 0.10811 0.35989 0.25755 0.0
C6 C 0.10107 0.34236 0.25088 0.0
C7 C 0.16172 0.41116 0.27186 0.0
C8 C 0.1481 0.33815 0.29786 0.0
C9 C 0.17725 0.35635 0.23713 0.0
O10 O 0.18057 0.36292 0.25534 0.0
O11 O 0.15901 0.35153 0.23145 0.0
O12 O 0.17387 0.40115 0.28414 0.0
O13 O 0.14635 0.40117 0.26378 0.0
O14 O 0.64992 0.19174 0.25637 0.0
Cd15 Cd 0.63935 0.16676 0.27274 0.0
Cd16 Cd 0.66073 0.14911 0.24572 0.0
O17 O 0.65086 0.17379 0.22748 0.0
O18 O 0.61122 0.17452 0.28303 0.0
O19 O 0.61679 0.15286 0.25694 0.0
C20 C 0.604 0.16409 0.2675 0.0
C21 C 0.66054 0.11344 0.24312 0.0
C22 C 0.65028 0.19125 0.23671 0.0
C23 C 0.67915 0.15266 0.28626 0.0
O24 O 0.68265 0.1561 0.26725 0.0
O25 O 0.66054 0.15282 0.29283 0.0
O26 O 0.67247 0.12443 0.23135 0.0
O27 O 0.6464 0.12294 0.25366 0.0
O28 O 0.85851 0.69107 0.26195 0.0
Cd29 Cd 0.86603 0.66706 0.24276 0.0
Cd30 Cd 0.84468 0.6484 0.26963 0.0
O31 O 0.85616 0.67103 0.28945 0.0
O32 O 0.89287 0.6758 0.23021 0.0
O33 O 0.8901 0.65203 0.25485 0.0
C34 C 0.90165 0.66446 0.24419 0.0
C35 C 0.84555 0.61263 0.26817 0.0
C36 C 0.85852 0.68892 0.28149 0.0
C37 C 0.82436 0.65589 0.23073 0.0
O38 O 0.82194 0.65796 0.25011 0.0
O39 O 0.84265 0.65568 0.22328 0.0
O40 O 0.83407 0.62199 0.28168 0.0
O41 O 0.85881 0.62358 0.25789 0.0
O42 O 0.32766 0.86682 0.26245 0.0
Cd43 Cd 0.35071 0.87866 0.2443 0.0
Cd44 Cd 0.36971 0.84759 0.26358 0.0
O45 O 0.34749 0.85263 0.28631 0.0
O46 O 0.33953 0.90653 0.23698 0.0
O47 O 0.36546 0.90185 0.25889 0.0
C48 C 0.35176 0.91406 0.25087 0.0
C49 C 0.40491 0.84027 0.26553 0.0
C50 C 0.32986 0.85922 0.28043 0.0
C51 C 0.35849 0.84198 0.21969 0.0
O52 O 0.35914 0.8336 0.2374 0.0
O53 O 0.35823 0.86161 0.21789 0.0
O54 O 0.39132 0.82761 0.27292 0.0
O55 O 0.39864 0.85841 0.25979 0.0
O56 O 0.13278 0.654 0.72454 0.0
Cd57 Cd 0.11764 0.64835 0.75176 0.0
Cd58 Cd 0.15297 0.61323 0.74499 0.0
O59 O 0.1551 0.62899 0.71698 0.0
O60 O 0.09877 0.67302 0.75223 0.0
O61 O 0.08718 0.64117 0.74854 0.0
C62 C 0.08347 0.6608 0.74871 0.0
C63 C 0.16674 0.57968 0.74963 0.0
C64 C 0.14598 0.64588 0.71245 0.0
C65 C 0.15199 0.64371 0.78276 0.0
O66 O 0.15967 0.62997 0.771 0.0
O67 O 0.13476 0.65234 0.77867 0.0
O68 O 0.1782 0.59514 0.74456 0.0
O69 O 0.14702 0.58273 0.75031 0.0
O70 O 0.32357 0.12897 0.74898 0.0
Cd71 Cd 0.34732 0.1151 0.76481 0.0
Cd72 Cd 0.36518 0.14941 0.7493 0.0
O73 O 0.34256 0.14657 0.72675 0.0
O74 O 0.33632 0.08657 0.76964 0.0
O75 O 0.36148 0.09348 0.74742 0.0
C76 C 0.34821 0.08043 0.75481 0.0
C77 C 0.39976 0.15931 0.74648 0.0
C78 C 0.32516 0.13903 0.73217 0.0
C79 C 0.35515 0.14828 0.79387 0.0
O80 O 0.35483 0.15907 0.7775 0.0
O81 O 0.35578 0.12861 0.79291 0.0
O82 O 0.38502 0.17193 0.74178 0.0
O83 O 0.3949 0.14023 0.75018 0.0
O84 O 0.83211 0.38259 0.77189 0.0
Cd85 Cd 0.84702 0.39766 0.74848 0.0
Cd86 Cd 0.87565 0.36344 0.76202 0.0
O87 O 0.85473 0.36135 0.78646 0.0
O88 O 0.8271 0.42094 0.74388 0.0
O89 O 0.85828 0.4257 0.75688 0.0
C90 C 0.84025 0.43315 0.75253 0.0
C91 C 0.91072 0.35425 0.76268 0.0
C92 C 0.83697 0.36991 0.78607 0.0
C93 C 0.85576 0.3637 0.7187 0.0
O94 O 0.86477 0.35481 0.73369 0.0
O95 O 0.84862 0.382 0.72037 0.0
O96 O 0.89645 0.34093 0.76666 0.0
O97 O 0.90528 0.37341 0.7608 0.0
O98 O 0.63146 0.85701 0.7775 0.0
Cd99 Cd 0.61496 0.86155 0.7509 0.0
Cd100 Cd 0.65145 0.89661 0.75397 0.0
O101 O 0.65472 0.88183 0.78237 0.0
O102 O 0.59654 0.83653 0.75209 0.0
O103 O 0.5845 0.86825 0.75526 0.0
C104 C 0.58115 0.84856 0.75578 0.0
C105 C 0.66569 0.92982 0.7482 0.0
C106 C 0.64554 0.86542 0.78832 0.0
C107 C 0.64769 0.86468 0.71766 0.0
O108 O 0.65635 0.87888 0.72813 0.0
O109 O 0.63072 0.85645 0.72338 0.0
O110 O 0.67706 0.91418 0.75287 0.0
O111 O 0.6459 0.92711 0.74827 0.0
O112 O 0.239 0.16538 0.35903 0.0
Cd113 Cd 0.26427 0.14755 0.36495 0.0
Cd114 Cd 0.24119 0.12214 0.34622 0.0
O115 O 0.21745 0.13903 0.36022 0.0
O116 O 0.27702 0.16236 0.38878 0.0
O117 O 0.26005 0.13261 0.39164 0.0
C118 C 0.26793 0.14884 0.40042 0.0
C119 C 0.25151 0.08779 0.34749 0.0
C120 C 0.22083 0.15842 0.36158 0.0
C121 C 0.27471 0.14029 0.32231 0.0
O122 O 0.25548 0.1362 0.3217 0.0
O123 O 0.2837 0.14197 0.3398 0.0
O124 O 0.2351 0.09314 0.33735 0.0
O125 O 0.26029 0.10154 0.35915 0.0
O126 O 0.87227 0.24466 0.32457 0.0
Cd127 Cd 0.89111 0.22842 0.34407 0.0
Cd128 Cd 0.86029 0.24508 0.37108 0.0
O129 O 0.85884 0.26665 0.34704 0.0
O130 O 0.9165 0.22455 0.32682 0.0
O131 O 0.91576 0.24443 0.35466 0.0
C132 C 0.9256 0.23798 0.33846 0.0
C133 C 0.84887 0.25071 0.40507 0.0
C134 C 0.86244 0.26123 0.32841 0.0
C135 C 0.86141 0.19884 0.35958 0.0
O136 O 0.85177 0.21518 0.3647 0.0
O137 O 0.87981 0.19972 0.35265 0.0
O138 O 0.83654 0.25247 0.38955 0.0
O139 O 0.86835 0.24843 0.40117 0.0
O140 O 0.79147 0.86542 0.36731 0.0
Cd141 Cd 0.76274 0.86589 0.38073 0.0
Cd142 Cd 0.76721 0.90396 0.34738 0.0
O143 O 0.79695 0.89202 0.34624 0.0
O144 O 0.76451 0.83893 0.39608 0.0
O145 O 0.76295 0.86892 0.41214 0.0
C146 C 0.76524 0.8491 0.41316 0.0
C147 C 0.75964 0.9377 0.33554 0.0
C148 C 0.80313 0.87563 0.35524 0.0
C149 C 0.73373 0.86907 0.34409 0.0
O150 O 0.74421 0.88447 0.33783 0.0
O151 O 0.73759 0.86034 0.36134 0.0
O152 O 0.76706 0.92374 0.32346 0.0
O153 O 0.75794 0.93313 0.3549 0.0
O154 O 0.12639 0.73431 0.35594 0.0
Cd155 Cd 0.11006 0.76108 0.36009 0.0
Cd156 Cd 0.14754 0.75603 0.39603 0.0
O157 O 0.15025 0.72829 0.37993 0.0
O158 O 0.09315 0.76012 0.33404 0.0
O159 O 0.07917 0.75704 0.36491 0.0
C160 C 0.07701 0.75648 0.34507 0.0
C161 C 0.16386 0.76044 0.4285 0.0
C162 C 0.14046 0.723 0.36366 0.0
C163 C 0.14309 0.7938 0.36535 0.0
O164 O 0.15133 0.78263 0.37924 0.0
O165 O 0.12637 0.78855 0.35633 0.0
O166 O 0.17422 0.75669 0.41194 0.0
O167 O 0.14395 0.76023 0.42708 0.0
O168 O 0.27878 0.85992 0.67952 0.0
Cd169 Cd 0.25678 0.86733 0.65816 0.0
Cd170 Cd 0.28101 0.84579 0.63638 0.0
O171 O 0.3036 0.85734 0.65624 0.0
O172 O 0.2452 0.89402 0.66861 0.0
O173 O 0.26676 0.89162 0.64195 0.0
C174 C 0.25765 0.90297 0.65573 0.0
C175 C 0.27526 0.84669 0.601 0.0
C176 C 0.29788 0.85977 0.67496 0.0
C177 C 0.24341 0.82548 0.65021 0.0
O178 O 0.26286 0.82316 0.64872 0.0
O179 O 0.23587 0.84374 0.65062 0.0
O180 O 0.28967 0.83508 0.60868 0.0
O181 O 0.26634 0.85989 0.61316 0.0
O182 O 0.15448 0.22533 0.62492 0.0
Cd183 Cd 0.15216 0.25125 0.60685 0.0
Cd184 Cd 0.11521 0.25176 0.6435 0.0
O185 O 0.12948 0.22339 0.64849 0.0
O186 O 0.17846 0.24815 0.59049 0.0
O187 O 0.14775 0.24592 0.57605 0.0
C188 C 0.16758 0.24447 0.57427 0.0
C189 C 0.08262 0.25855 0.65883 0.0
C190 C 0.1455 0.21599 0.63969 0.0
C191 C 0.14856 0.28669 0.63761 0.0
O192 O 0.13358 0.27744 0.64635 0.0
O193 O 0.15741 0.27937 0.62158 0.0
O194 O 0.09871 0.25451 0.66975 0.0
O195 O 0.08452 0.25755 0.63899 0.0
O196 O 0.74146 0.14922 0.66504 0.0
Cd197 Cd 0.76642 0.13904 0.64867 0.0
Cd198 Cd 0.74677 0.16435 0.62061 0.0
O199 O 0.72109 0.1591 0.63941 0.0
O200 O 0.77547 0.11526 0.66618 0.0
O201 O 0.7608 0.11139 0.63549 0.0
C202 C 0.76697 0.10323 0.6527 0.0
C203 C 0.74893 0.1669 0.58472 0.0
C204 C 0.72377 0.15445 0.65837 0.0
C205 C 0.78676 0.17848 0.63974 0.0
O206 O 0.76921 0.18322 0.63237 0.0
O207 O 0.79065 0.16 0.64541 0.0
O208 O 0.73837 0.18009 0.59539 0.0
O209 O 0.75589 0.15068 0.59416 0.0
O210 O 0.82431 0.75036 0.63558 0.0
Cd211 Cd 0.8471 0.73214 0.62311 0.0
Cd212 Cd 0.86691 0.75068 0.65379 0.0
O213 O 0.84475 0.77358 0.64999 0.0
O214 O 0.83568 0.72532 0.59525 0.0
O215 O 0.86206 0.74668 0.60005 0.0
C216 C 0.84825 0.73894 0.58778 0.0
C217 C 0.90243 0.75292 0.65879 0.0
C218 C 0.8269 0.76808 0.64371 0.0
C219 C 0.85585 0.70672 0.65907 0.0
O220 O 0.85695 0.72423 0.66786 0.0
O221 O 0.85493 0.70539 0.63944 0.0
O222 O 0.88966 0.76004 0.67242 0.0
O223 O 0.89503 0.74711 0.64111 0.0
O224 O 0.35146 0.27299 0.12916 0.0
Cd225 Cd 0.35792 0.24765 0.11121 0.0
Cd226 Cd 0.39307 0.25139 0.14815 0.0
O227 O 0.3757 0.278 0.15304 0.0
O228 O 0.33314 0.24828 0.0925 0.0
O229 O 0.36474 0.25395 0.08111 0.0
C230 C 0.34511 0.25346 0.07748 0.0
C231 C 0.42591 0.24778 0.16388 0.0
C232 C 0.35902 0.28338 0.14404 0.0
C233 C 0.36426 0.21269 0.14155 0.0
O234 O 0.37774 0.22378 0.15056 0.0
O235 O 0.35503 0.21884 0.12527 0.0
O236 O 0.40929 0.24992 0.17459 0.0
O237 O 0.42426 0.24914 0.14403 0.0
O238 O 0.36021 0.78701 0.85561 0.0
Cd239 Cd 0.36976 0.75787 0.86336 0.0
Cd240 Cd 0.34192 0.77189 0.89782 0.0
O241 O 0.34539 0.80048 0.88349 0.0
O242 O 0.38942 0.75247 0.84001 0.0
O243 O 0.39977 0.7572 0.8722 0.0
C244 C 0.40438 0.75527 0.85284 0.0
C245 C 0.33561 0.76654 0.93315 0.0
C246 C 0.35236 0.80227 0.86515 0.0
C247 C 0.32988 0.73562 0.8695 0.0
O248 O 0.32536 0.75011 0.88198 0.0
O249 O 0.34784 0.73432 0.86147 0.0
O250 O 0.32283 0.7767 0.92173 0.0
O251 O 0.35315 0.76136 0.92506 0.0
O252 O 0.28084 0.32696 0.853 0.0
Cd253 Cd 0.25565 0.34432 0.8608 0.0
Cd254 Cd 0.27754 0.37168 0.84122 0.0
O255 O 0.30234 0.3534 0.85086 0.0
O256 O 0.244 0.32912 0.88495 0.0
O257 O 0.26041 0.35919 0.88756 0.0
C258 C 0.25274 0.34295 0.89648 0.0
C259 C 0.27178 0.4071 0.84259 0.0
C260 C 0.29914 0.33402 0.85258 0.0
C261 C 0.2412 0.35444 0.8196 0.0
O262 O 0.25985 0.36027 0.8176 0.0
O263 O 0.23423 0.34958 0.83739 0.0
O264 O 0.28596 0.39944 0.83073 0.0
O265 O 0.26302 0.39488 0.85584 0.0
O266 O 0.62691 0.23081 0.83596 0.0
Cd267 Cd 0.61346 0.25752 0.8462 0.0
Cd268 Cd 0.64465 0.24419 0.87962 0.0
O269 O 0.64567 0.21759 0.86147 0.0
O270 O 0.59252 0.26187 0.82373 0.0
O271 O 0.58387 0.2535 0.85567 0.0
C272 C 0.57842 0.25625 0.83664 0.0
C273 C 0.65294 0.246 0.91496 0.0
C274 C 0.63799 0.21639 0.84336 0.0
C275 C 0.64969 0.28485 0.85469 0.0
O276 O 0.65608 0.27045 0.86638 0.0
O277 O 0.63207 0.28389 0.8459 0.0
O278 O 0.6662 0.23976 0.90148 0.0
O279 O 0.63417 0.249 0.90878 0.0
O280 O 0.7633 0.69151 0.86987 0.0
Cd281 Cd 0.77925 0.66805 0.88407 0.0
Cd282 Cd 0.75851 0.64807 0.85645 0.0
O283 O 0.73708 0.67159 0.86132 0.0
O284 O 0.7856 0.67894 0.91227 0.0
O285 O 0.76243 0.65433 0.90627 0.0
C286 C 0.7707 0.66741 0.91901 0.0
C287 C 0.75449 0.6127 0.85156 0.0
C288 C 0.74457 0.6896 0.86425 0.0
C289 C 0.80261 0.65568 0.84853 0.0
O290 O 0.78467 0.6562 0.84064 0.0
O291 O 0.80488 0.65685 0.86806 0.0
O292 O 0.74712 0.62579 0.83839 0.0
O293 O 0.76134 0.61981 0.869 0.0
O294 O 0.65073 0.71069 0.13957 0.0
Cd295 Cd 0.64702 0.74107 0.13115 0.0
Cd296 Cd 0.6126 0.72843 0.16178 0.0
O297 O 0.62351 0.69875 0.15664 0.0
O298 O 0.67325 0.74387 0.11471 0.0
O299 O 0.6425 0.74466 0.10016 0.0
C300 C 0.66236 0.74402 0.09808 0.0
C301 C 0.57835 0.73725 0.1707 0.0
C302 C 0.64097 0.69586 0.14799 0.0
C303 C 0.64558 0.76065 0.17304 0.0
O304 O 0.63267 0.74668 0.17795 0.0
O305 O 0.65108 0.76336 0.15428 0.0
O306 O 0.58953 0.72563 0.18239 0.0
O307 O 0.58591 0.74239 0.15292 0.0
O308 O 0.24168 0.63435 0.18569 0.0
Cd309 Cd 0.26402 0.62038 0.16826 0.0
Cd310 Cd 0.24691 0.65329 0.1418 0.0
O311 O 0.22311 0.65263 0.16348 0.0
O312 O 0.27059 0.5966 0.18692 0.0
O313 O 0.25477 0.59266 0.15693 0.0
C314 C 0.26058 0.58478 0.17436 0.0
C315 C 0.24422 0.66286 0.107 0.0
C316 C 0.22572 0.64495 0.18144 0.0
C317 C 0.29129 0.65565 0.15823 0.0
O318 O 0.27492 0.66415 0.15156 0.0
O319 O 0.29142 0.63682 0.16407 0.0
O320 O 0.23966 0.6756 0.12165 0.0
O321 O 0.24776 0.64382 0.11201 0.0
O322 O 0.77091 0.384 0.16278 0.0
Cd323 Cd 0.74645 0.40279 0.15564 0.0
Cd324 Cd 0.75069 0.36583 0.12048 0.0
O325 O 0.77703 0.36071 0.13825 0.0
O326 O 0.74692 0.42113 0.18073 0.0
O327 O 0.75382 0.43284 0.14952 0.0
C328 C 0.75291 0.43618 0.16919 0.0
C329 C 0.74704 0.35046 0.08747 0.0
C330 C 0.7816 0.36922 0.15544 0.0
C331 C 0.71132 0.37306 0.14833 0.0
O332 O 0.72281 0.36373 0.13539 0.0
O333 O 0.71726 0.38947 0.15751 0.0
O334 O 0.74928 0.33953 0.10391 0.0
O335 O 0.74844 0.3703 0.08936 0.0
C336 C 0.25988 0.55615 0.20048 0.0
C337 C 0.25297 0.56427 0.18152 0.0
C338 C 0.24969 0.53944 0.20975 0.0
C339 C 0.21108 0.49743 0.20091 0.0
H340 H 0.20305 0.50251 0.26018 0.0
C341 C 0.15903 0.44017 0.24611 0.0
C342 C 0.16769 0.43209 0.26437 0.0
C343 C 0.16795 0.45738 0.23632 0.0
C344 C 0.20524 0.50076 0.24366 0.0
H345 H 0.23053 0.56036 0.1569 0.0
H346 H 0.21271 0.53121 0.17307 0.0
H347 H 0.22273 0.5288 0.24171 0.0
H348 H 0.19175 0.43662 0.28729 0.0
H349 H 0.20709 0.46661 0.27043 0.0
H350 H 0.19354 0.46934 0.20294 0.0
C351 C 0.22611 0.5377 0.18076 0.0
C352 C 0.21664 0.51581 0.23304 0.0
C353 C 0.23639 0.55441 0.17143 0.0
C354 C 0.18462 0.44245 0.2733 0.0
C355 C 0.19344 0.4597 0.26359 0.0
C356 C 0.19962 0.48238 0.21155 0.0
C357 C 0.23222 0.53042 0.20037 0.0
C358 C 0.21991 0.51428 0.21154 0.0
C359 C 0.18564 0.467 0.24463 0.0
C360 C 0.19668 0.48375 0.2331 0.0
H361 H 0.27265 0.56329 0.20866 0.0
H362 H 0.25522 0.53392 0.22456 0.0
H363 H 0.21338 0.49561 0.18441 0.0
H364 H 0.14607 0.43253 0.23873 0.0
H365 H 0.16131 0.46281 0.22193 0.0
C366 C 0.57744 0.1619 0.23939 0.0
C367 C 0.5828 0.16809 0.25956 0.0
C368 C 0.55965 0.16967 0.2298 0.0
C369 C 0.52383 0.21473 0.23318 0.0
H370 H 0.49374 0.18477 0.19079 0.0
C371 C 0.44769 0.24414 0.1957 0.0
C372 C 0.44552 0.24173 0.17418 0.0
C373 C 0.46474 0.23578 0.20609 0.0
C374 C 0.50214 0.1934 0.20245 0.0
H375 H 0.57275 0.18615 0.28599 0.0
H376 H 0.54126 0.19896 0.26966 0.0
H377 H 0.52103 0.16732 0.21011 0.0
H378 H 0.45986 0.22906 0.14662 0.0
H379 H 0.48962 0.21427 0.16485 0.0
H380 H 0.50449 0.24066 0.22574 0.0
C381 C 0.5512 0.18869 0.26091 0.0
C382 C 0.51782 0.1834 0.21357 0.0
C383 C 0.56914 0.18109 0.27042 0.0
C384 C 0.46115 0.23132 0.16318 0.0
C385 C 0.47807 0.22266 0.17364 0.0
C386 C 0.50797 0.22463 0.22224 0.0
C387 C 0.54657 0.18368 0.24018 0.0
C388 C 0.52901 0.19394 0.22905 0.0
C389 C 0.47989 0.22453 0.19527 0.0
C390 C 0.49702 0.21413 0.20666 0.0
H391 H 0.58765 0.15205 0.23046 0.0
H392 H 0.55685 0.16551 0.21382 0.0
H393 H 0.53231 0.2236 0.24459 0.0
H394 H 0.4359 0.25202 0.20464 0.0
H395 H 0.46563 0.23742 0.22275 0.0
C396 C 0.75621 0.46004 0.19959 0.0
C397 C 0.7605 0.4557 0.17869 0.0
C398 C 0.76561 0.47681 0.20959 0.0
C399 C 0.81239 0.50893 0.20782 0.0
H400 H 0.78194 0.54541 0.24444 0.0
C401 C 0.8481 0.58363 0.24254 0.0
C402 C 0.84058 0.59115 0.26154 0.0
C403 C 0.83955 0.56589 0.23346 0.0
C404 C 0.79084 0.53515 0.23462 0.0
H405 H 0.77771 0.46593 0.15178 0.0
H406 H 0.79426 0.49521 0.16932 0.0
H407 H 0.76373 0.51813 0.22587 0.0
H408 H 0.81928 0.58488 0.28667 0.0
H409 H 0.80502 0.55347 0.27135 0.0
H410 H 0.83957 0.52562 0.21678 0.0
C411 C 0.78361 0.48556 0.17795 0.0
C412 C 0.7803 0.51958 0.22382 0.0
C413 C 0.77396 0.46892 0.16784 0.0
C414 C 0.82541 0.57958 0.27199 0.0
C415 C 0.817 0.5617 0.26302 0.0
C416 C 0.82299 0.52436 0.21879 0.0
C417 C 0.77976 0.48951 0.19903 0.0
C418 C 0.79093 0.50634 0.21021 0.0
C419 C 0.82338 0.55503 0.24325 0.0
C420 C 0.81236 0.53779 0.23231 0.0
H421 H 0.74597 0.45013 0.20842 0.0
H422 H 0.76238 0.47935 0.22584 0.0
H423 H 0.82109 0.49876 0.19771 0.0
H424 H 0.85966 0.5922 0.23393 0.0
H425 H 0.84486 0.56145 0.21821 0.0
C426 C 0.55029 0.76425 0.16974 0.0
C427 C 0.55875 0.7463 0.17869 0.0
C428 C 0.53383 0.77469 0.17932 0.0
C429 C 0.49161 0.76865 0.21758 0.0
H430 H 0.49661 0.8281 0.22424 0.0
C431 C 0.43285 0.81339 0.26753 0.0
C432 C 0.4259 0.83259 0.26003 0.0
C433 C 0.45019 0.80371 0.25882 0.0
C434 C 0.49478 0.81155 0.22235 0.0
H435 H 0.55592 0.72481 0.2043 0.0
H436 H 0.527 0.74273 0.22071 0.0
H437 H 0.52311 0.80906 0.2052 0.0
H438 H 0.43242 0.85712 0.23811 0.0
H439 H 0.46234 0.84019 0.22271 0.0
H440 H 0.46315 0.77102 0.23425 0.0
C441 C 0.53314 0.74882 0.20635 0.0
C442 C 0.51002 0.80062 0.21139 0.0
C443 C 0.54974 0.73854 0.19693 0.0
C444 C 0.43746 0.84244 0.24444 0.0
C445 C 0.45467 0.83264 0.23554 0.0
C446 C 0.47629 0.77957 0.22835 0.0
C447 C 0.52526 0.76727 0.19792 0.0
C448 C 0.50866 0.77902 0.20893 0.0
C449 C 0.46091 0.81282 0.24216 0.0
C450 C 0.47765 0.80119 0.23101 0.0
H451 H 0.55695 0.77073 0.15578 0.0
H452 H 0.52796 0.78872 0.17229 0.0
H453 H 0.48996 0.75205 0.21578 0.0
H454 H 0.42436 0.80538 0.27956 0.0
H455 H 0.45481 0.78876 0.26481 0.0
C456 C 0.27295 0.44108 0.82384 0.0
C457 C 0.26312 0.42795 0.83815 0.0
C458 C 0.26266 0.4584 0.81583 0.0
C459 C 0.20992 0.47617 0.80448 0.0
H460 H 0.23634 0.52882 0.79321 0.0
C461 C 0.16541 0.54641 0.76981 0.0
C462 C 0.17638 0.56014 0.75698 0.0
C463 C 0.17564 0.53005 0.77976 0.0
C464 C 0.22877 0.51412 0.79592 0.0
H465 H 0.23511 0.42348 0.85611 0.0
H466 H 0.21723 0.45373 0.84218 0.0
H467 H 0.25522 0.5021 0.81192 0.0
H468 H 0.20643 0.56668 0.74359 0.0
H469 H 0.224 0.53782 0.76016 0.0
H470 H 0.18364 0.48792 0.78809 0.0
C471 C 0.23284 0.45049 0.83701 0.0
C472 C 0.2396 0.49883 0.8068 0.0
C473 C 0.24322 0.43329 0.8452 0.0
C474 C 0.19752 0.55646 0.75346 0.0
C475 C 0.20768 0.54002 0.76321 0.0
C476 C 0.19913 0.4914 0.79343 0.0
C477 C 0.24222 0.46291 0.82179 0.0
C478 C 0.23035 0.47964 0.81118 0.0
C479 C 0.19705 0.52691 0.77699 0.0
C480 C 0.20843 0.51057 0.78887 0.0
H481 H 0.28822 0.4374 0.818 0.0
H482 H 0.27034 0.46759 0.8041 0.0
H483 H 0.20243 0.46143 0.8073 0.0
H484 H 0.14916 0.54892 0.77302 0.0
H485 H 0.16689 0.52042 0.79033 0.0
C486 C 0.55062 0.25684 0.80957 0.0
C487 C 0.55771 0.24994 0.82895 0.0
C488 C 0.53313 0.24789 0.80038 0.0
C489 C 0.5064 0.19872 0.79715 0.0
H490 H 0.46014 0.22942 0.77463 0.0
C491 C 0.43316 0.15744 0.76595 0.0
C492 C 0.4207 0.16746 0.75124 0.0
C493 C 0.45061 0.16732 0.77422 0.0
C494 C 0.4731 0.22053 0.78038 0.0
H495 H 0.55163 0.22863 0.85413 0.0
H496 H 0.52133 0.21272 0.83785 0.0
H497 H 0.48802 0.24784 0.79214 0.0
H498 H 0.41761 0.19514 0.73261 0.0
H499 H 0.44869 0.21181 0.74592 0.0
H500 H 0.49221 0.17151 0.7848 0.0
C501 C 0.52924 0.22519 0.82989 0.0
C502 C 0.48899 0.23116 0.79063 0.0
C503 C 0.54645 0.23446 0.8393 0.0
C504 C 0.42687 0.18701 0.74396 0.0
C505 C 0.44457 0.19672 0.7519 0.0
C506 C 0.49077 0.18811 0.78652 0.0
C507 C 0.52265 0.23153 0.81016 0.0
C508 C 0.50569 0.22035 0.79931 0.0
C509 C 0.45633 0.18736 0.76771 0.0
C510 C 0.47372 0.1988 0.7781 0.0
H511 H 0.55903 0.26865 0.80115 0.0
H512 H 0.52841 0.25306 0.78515 0.0
H513 H 0.5193 0.19002 0.80339 0.0
H514 H 0.42868 0.14252 0.77214 0.0
H515 H 0.45892 0.15955 0.78649 0.0
C516 C 0.75045 0.58335 0.82645 0.0
C517 C 0.75896 0.59114 0.84491 0.0
C518 C 0.75838 0.56535 0.81731 0.0
C519 C 0.80724 0.53707 0.81315 0.0
H520 H 0.7742 0.49407 0.78754 0.0
C521 C 0.84382 0.46344 0.77663 0.0
C522 C 0.83352 0.4538 0.76007 0.0
C523 C 0.83504 0.48058 0.78666 0.0
C524 C 0.78372 0.50611 0.79426 0.0
H525 H 0.78179 0.58539 0.86881 0.0
H526 H 0.79563 0.55402 0.85283 0.0
H527 H 0.75722 0.52176 0.80675 0.0
H528 H 0.80658 0.45547 0.74021 0.0
H529 H 0.79178 0.48583 0.75696 0.0
H530 H 0.83371 0.52189 0.80026 0.0
C531 C 0.78288 0.56194 0.84538 0.0
C532 C 0.77392 0.52191 0.80544 0.0
C533 C 0.77475 0.57978 0.85468 0.0
C534 C 0.81489 0.46247 0.75297 0.0
C535 C 0.80625 0.47975 0.76281 0.0
C536 C 0.81703 0.52142 0.80176 0.0
C537 C 0.7752 0.55486 0.82629 0.0
C538 C 0.78556 0.53756 0.81505 0.0
C539 C 0.81584 0.48867 0.78023 0.0
C540 C 0.80543 0.50568 0.79211 0.0
H541 H 0.73836 0.59177 0.81846 0.0
H542 H 0.75213 0.56033 0.80259 0.0
H543 H 0.81664 0.54911 0.82007 0.0
H544 H 0.85807 0.45701 0.78265 0.0
H545 H 0.84289 0.48681 0.80008 0.0
C546 C 0.55558 0.81946 0.75712 0.0
C547 C 0.56116 0.83974 0.76277 0.0
C548 C 0.53844 0.80978 0.7662 0.0
C549 C 0.51085 0.8067 0.81425 0.0
H550 H 0.46483 0.78385 0.78338 0.0
C551 C 0.43796 0.77433 0.85527 0.0
C552 C 0.4254 0.75992 0.84492 0.0
C553 C 0.45543 0.78273 0.84555 0.0
C554 C 0.47774 0.78965 0.79233 0.0
H555 H 0.553 0.86587 0.78216 0.0
H556 H 0.52335 0.84866 0.79852 0.0
H557 H 0.49258 0.80169 0.76511 0.0
H558 H 0.42215 0.74183 0.81691 0.0
H559 H 0.45336 0.7552 0.80054 0.0
H560 H 0.49683 0.79401 0.84135 0.0
C561 C 0.5321 0.84045 0.7868 0.0
C562 C 0.49352 0.80012 0.78178 0.0
C563 C 0.54892 0.85034 0.77731 0.0
C564 C 0.43152 0.75296 0.82526 0.0
C565 C 0.44927 0.76096 0.81573 0.0
C566 C 0.49535 0.7958 0.82478 0.0
C567 C 0.52689 0.81999 0.78153 0.0
C568 C 0.5101 0.80893 0.79266 0.0
C569 C 0.46109 0.77659 0.82536 0.0
C570 C 0.47838 0.78724 0.81403 0.0
H571 H 0.56478 0.81087 0.74604 0.0
H572 H 0.53475 0.79399 0.7619 0.0
H573 H 0.52367 0.8131 0.82296 0.0
H574 H 0.43348 0.78026 0.8703 0.0
H575 H 0.46377 0.79485 0.85354 0.0
C576 C 0.19881 0.24064 0.55161 0.0
C577 C 0.17769 0.23683 0.5551 0.0
C578 C 0.20921 0.23118 0.53512 0.0
C579 C 0.20068 0.19994 0.48669 0.0
H580 H 0.25836 0.18555 0.495 0.0
C581 C 0.24443 0.14552 0.43099 0.0
C582 C 0.26214 0.15444 0.42197 0.0
C583 C 0.23518 0.15453 0.44841 0.0
C584 C 0.24227 0.1895 0.49248 0.0
H585 H 0.15084 0.22029 0.5438 0.0
H586 H 0.16901 0.20313 0.51556 0.0
H587 H 0.23958 0.20392 0.52212 0.0
H588 H 0.28487 0.17891 0.42519 0.0
H589 H 0.26917 0.19409 0.45619 0.0
H590 H 0.20339 0.18476 0.45728 0.0
C591 C 0.17756 0.21392 0.5251 0.0
C592 C 0.23147 0.20024 0.50794 0.0
C593 C 0.16706 0.22375 0.54137 0.0
C594 C 0.27133 0.17157 0.43181 0.0
C595 C 0.26229 0.18033 0.44951 0.0
C596 C 0.21138 0.18884 0.47143 0.0
C597 C 0.19892 0.21722 0.52189 0.0
C598 C 0.2105 0.20576 0.50528 0.0
C599 C 0.24367 0.17239 0.45748 0.0
C600 C 0.2323 0.18356 0.47413 0.0
H601 H 0.20742 0.25072 0.56188 0.0
H602 H 0.22543 0.23471 0.53294 0.0
H603 H 0.18477 0.20417 0.48369 0.0
H604 H 0.23678 0.13248 0.42374 0.0
H605 H 0.22096 0.14796 0.45437 0.0
C606 C 0.77445 0.16379 0.55568 0.0
C607 C 0.7561 0.17242 0.56358 0.0
C608 C 0.78409 0.17239 0.53826 0.0
C609 C 0.7766 0.20576 0.49272 0.0
H610 H 0.83444 0.21985 0.50021 0.0
C611 C 0.81972 0.25289 0.43052 0.0
C612 C 0.84024 0.24726 0.42607 0.0
C613 C 0.80975 0.24536 0.44823 0.0
C614 C 0.81839 0.21582 0.49764 0.0
H615 H 0.7328 0.19602 0.55856 0.0
H616 H 0.74925 0.21055 0.52773 0.0
H617 H 0.81593 0.20152 0.52748 0.0
H618 H 0.86668 0.22999 0.43727 0.0
H619 H 0.84928 0.21642 0.46775 0.0
H620 H 0.77903 0.21937 0.4627 0.0
C621 C 0.75632 0.1973 0.53519 0.0
C622 C 0.80777 0.2053 0.51335 0.0
C623 C 0.74687 0.18893 0.55282 0.0
C624 C 0.85095 0.23487 0.44037 0.0
C625 C 0.84087 0.22703 0.45791 0.0
C626 C 0.78729 0.21598 0.47686 0.0
C627 C 0.7754 0.18958 0.52813 0.0
C628 C 0.78675 0.20017 0.51108 0.0
C629 C 0.81989 0.23163 0.46178 0.0
C630 C 0.80836 0.22125 0.47907 0.0
H631 H 0.78209 0.1512 0.56367 0.0
H632 H 0.79865 0.16594 0.53302 0.0
H633 H 0.76044 0.20191 0.49047 0.0
H634 H 0.81104 0.26245 0.41983 0.0
H635 H 0.79384 0.24987 0.45092 0.0
C636 C 0.76889 0.81674 0.43417 0.0
C637 C 0.77091 0.83837 0.43266 0.0
C638 C 0.77708 0.80602 0.45109 0.0
C639 C 0.81878 0.80902 0.48913 0.0
H640 H 0.78853 0.76589 0.51778 0.0
C641 C 0.85074 0.76835 0.56261 0.0
C642 C 0.84423 0.74807 0.56708 0.0
C643 C 0.84288 0.77895 0.5454 0.0
C644 C 0.79743 0.77757 0.50972 0.0
H645 H 0.78275 0.86575 0.44802 0.0
H646 H 0.79734 0.84693 0.47754 0.0
H647 H 0.7716 0.78557 0.4905 0.0
H648 H 0.82556 0.72248 0.55607 0.0
H649 H 0.81275 0.74044 0.52553 0.0
H650 H 0.8448 0.80074 0.50783 0.0
C651 C 0.78931 0.83833 0.4656 0.0
C652 C 0.78759 0.789 0.49418 0.0
C653 C 0.78077 0.84912 0.44881 0.0
C654 C 0.83084 0.73812 0.55312 0.0
C655 C 0.82324 0.74859 0.53574 0.0
C656 C 0.82874 0.79739 0.50448 0.0
C657 C 0.78783 0.81662 0.46676 0.0
C658 C 0.79811 0.80489 0.48374 0.0
C659 C 0.82851 0.76943 0.53203 0.0
C660 C 0.81822 0.78148 0.51507 0.0
H661 H 0.76145 0.808 0.42195 0.0
H662 H 0.77575 0.78931 0.45148 0.0
H663 H 0.8274 0.82097 0.48114 0.0
H664 H 0.86084 0.77657 0.57316 0.0
H665 H 0.84728 0.79498 0.54329 0.0
C666 C 0.19605 0.76328 0.44988 0.0
C667 C 0.17473 0.76696 0.44766 0.0
C668 C 0.20714 0.77195 0.46634 0.0
C669 C 0.20094 0.79939 0.51712 0.0
H670 H 0.25711 0.81725 0.50569 0.0
C671 C 0.24683 0.8498 0.57484 0.0
C672 C 0.26649 0.84214 0.58022 0.0
C673 C 0.23619 0.84186 0.55771 0.0
C674 C 0.24148 0.81228 0.50913 0.0
H675 H 0.14825 0.78231 0.46131 0.0
H676 H 0.16758 0.79793 0.48971 0.0
H677 H 0.23709 0.80015 0.47867 0.0
H678 H 0.2909 0.82109 0.57091 0.0
H679 H 0.27254 0.80767 0.54066 0.0
H680 H 0.20532 0.81203 0.54748 0.0
C681 C 0.17577 0.78794 0.47903 0.0
C682 C 0.22998 0.8023 0.49368 0.0
C683 C 0.16461 0.77898 0.4627 0.0
C684 C 0.27584 0.8274 0.56719 0.0
C685 C 0.26529 0.81967 0.54987 0.0
C686 C 0.21235 0.80962 0.53245 0.0
C687 C 0.1973 0.78488 0.48089 0.0
C688 C 0.20956 0.79557 0.49746 0.0
C689 C 0.24506 0.8263 0.54536 0.0
C690 C 0.23278 0.81612 0.52868 0.0
H691 H 0.2043 0.75399 0.43861 0.0
H692 H 0.22352 0.76868 0.46746 0.0
H693 H 0.18547 0.79419 0.52085 0.0
H694 H 0.23908 0.86107 0.58455 0.0
H695 H 0.22076 0.84752 0.55446 0.0
C696 C 0.66489 0.96229 0.72686 0.0
C697 C 0.67537 0.94928 0.74078 0.0
C698 C 0.67529 0.97867 0.71712 0.0
C699 C 0.7201 0.0134 0.72089 0.0
H700 H 0.71766 0.01531 0.66098 0.0
C701 C 0.76967 0.07241 0.67609 0.0
C702 C 0.76067 0.08198 0.65878 0.0
C703 C 0.76056 0.05487 0.68502 0.0
C704 C 0.71835 0.01528 0.67771 0.0
H705 H 0.70468 0.94386 0.75614 0.0
H706 H 0.72257 0.97289 0.73974 0.0
H707 H 0.69786 0.98919 0.67971 0.0
H708 H 0.73552 0.08003 0.63671 0.0
H709 H 0.71933 0.04999 0.65248 0.0
H710 H 0.73989 0.03982 0.7192 0.0
C711 C 0.70641 0.97025 0.73614 0.0
C712 C 0.70698 1.00023 0.68844 0.0
C713 C 0.69616 0.95364 0.74553 0.0
C714 C 0.74303 0.07289 0.64988 0.0
C715 C 0.73369 0.05558 0.65903 0.0
C716 C 0.73117 0.02868 0.71022 0.0
C717 C 0.69625 0.98264 0.72145 0.0
C718 C 0.70777 0.99909 0.71013 0.0
C719 C 0.74194 0.04667 0.67714 0.0
C720 C 0.73056 0.02984 0.68843 0.0
H721 H 0.64895 0.95921 0.72273 0.0
H722 H 0.66703 0.98808 0.70599 0.0
H723 H 0.7209 0.01298 0.73763 0.0
H724 H 0.78329 0.079 0.6833 0.0
H725 H 0.76785 0.04815 0.6985 0.0
C726 C 0.93429 0.73121 0.65541 0.0
C727 C 0.92395 0.74783 0.66492 0.0
C728 C 0.95222 0.72285 0.66425 0.0
C729 C 0.97968 0.72077 0.71521 0.0
H730 H 0.02095 0.69118 0.68325 0.0
C731 C 0.05788 0.68991 0.74772 0.0
C732 C 0.06313 0.66943 0.7425 0.0
C733 C 0.04039 0.69936 0.73913 0.0
C734 C 0.00943 0.69927 0.69237 0.0
H735 H 0.92522 0.76971 0.69029 0.0
H736 H 0.95715 0.75609 0.70496 0.0
H737 H 0.99338 0.70974 0.66543 0.0
H738 H 0.05388 0.64266 0.72451 0.0
H739 H 0.0235 0.65937 0.70915 0.0
H740 H 0.99642 0.71081 0.74211 0.0
C741 C 0.95097 0.74878 0.69122 0.0
C742 C 0.99354 0.7099 0.68217 0.0
C743 C 0.93279 0.75686 0.68261 0.0
C744 C 0.05013 0.65838 0.72901 0.0
C745 C 0.03288 0.668 0.72005 0.0
C746 C 0.99582 0.71048 0.72536 0.0
C747 C 0.96054 0.73113 0.68264 0.0
C748 C 0.97827 0.72071 0.69342 0.0
C749 C 0.02803 0.68869 0.72478 0.0
C750 C 0.01076 0.69948 0.71406 0.0
H751 H 0.92773 0.72368 0.64194 0.0
H752 H 0.95883 0.70918 0.65718 0.0
H753 H 0.96808 0.7284 0.72458 0.0
H754 H 0.06765 0.69885 0.758 0.0
H755 H 0.03705 0.71533 0.74302 0.0
C756 C 0.3459 0.05908 0.72263 0.0
C757 C 0.34386 0.06052 0.74422 0.0
C758 C 0.33733 0.04235 0.7118 0.0
C759 C 0.29815 0.9998 0.71885 0.0
H760 H 0.31757 0.98373 0.66449 0.0
C761 C 0.25357 0.93791 0.67238 0.0
C762 C 0.26511 0.9243 0.65997 0.0
C763 C 0.26267 0.95588 0.68052 0.0
C764 C 0.31197 0.9877 0.67977 0.0
H765 H 0.33251 0.04487 0.77154 0.0
H766 H 0.31912 0.01489 0.75303 0.0
H767 H 0.33637 0.0096 0.68389 0.0
H768 H 0.29512 0.91925 0.64587 0.0
H769 H 0.31118 0.94965 0.66065 0.0
H770 H 0.27471 0.97682 0.71545 0.0
C771 C 0.32626 0.02715 0.74413 0.0
C772 C 0.32267 1.00299 0.69086 0.0
C773 C 0.33431 0.04419 0.75489 0.0
C774 C 0.28563 0.92957 0.65508 0.0
C775 C 0.2949 0.94718 0.66366 0.0
C776 C 0.28779 0.98414 0.708 0.0
C777 C 0.3269 0.02629 0.72231 0.0
C778 C 0.31593 0.00938 0.71061 0.0
C779 C 0.28377 0.96038 0.67702 0.0
C780 C 0.29445 0.97781 0.68822 0.0
H781 H 0.35284 0.07161 0.71392 0.0
H782 H 0.33805 0.04268 0.69508 0.0
H783 H 0.29195 0.00442 0.73369 0.0
H784 H 0.23772 0.93427 0.67645 0.0
H785 H 0.25321 0.96588 0.69006 0.0
C786 C 0.05067 0.2806 0.65912 0.0
C787 C 0.06346 0.26608 0.66898 0.0
C788 C 0.03453 0.29025 0.66997 0.0
C789 C 0.01598 0.29963 0.72445 0.0
H790 H 0.96763 0.321 0.6962 0.0
C791 C 0.93878 0.32745 0.76296 0.0
C792 C 0.93165 0.34701 0.75662 0.0
C793 C 0.95625 0.31852 0.75369 0.0
C794 C 0.98114 0.31522 0.70425 0.0
H795 H 0.06869 0.24943 0.69756 0.0
H796 H 0.03983 0.26502 0.71602 0.0
H797 H 0.9937 0.30202 0.67666 0.0
H798 H 0.93766 0.37282 0.73604 0.0
H799 H 0.96786 0.35694 0.7195 0.0
H800 H 1.00255 0.31207 0.75224 0.0
C801 C 0.04271 0.26988 0.70026 0.0
C802 C 0.99622 0.30439 0.69304 0.0
C803 C 0.05914 0.26065 0.68957 0.0
C804 C 0.94291 0.35785 0.74147 0.0
C805 C 0.96006 0.34869 0.73185 0.0
C806 C 1.00062 0.31003 0.73572 0.0
C807 C 0.03045 0.28528 0.69085 0.0
C808 C 0.01398 0.29647 0.70291 0.0
C809 C 0.9666 0.32876 0.73755 0.0
C810 C 0.98314 0.31805 0.7257 0.0
H811 H 0.05381 0.28532 0.64335 0.0
H812 H 0.02582 0.30218 0.6621 0.0
H813 H 0.02954 0.29434 0.73271 0.0
H814 H 0.93034 0.31866 0.77447 0.0
H815 H 0.96097 0.30312 0.75835 0.0
C816 C 0.73639 0.96884 0.33762 0.0
C817 C 0.75129 0.95724 0.3268 0.0
C818 C 0.72609 0.98531 0.32795 0.0
C819 C 0.72915 0.02208 0.28431 0.0
H820 H 0.66931 0.02329 0.28834 0.0
C821 C 0.68242 0.0818 0.23767 0.0
C822 C 0.6661 0.09169 0.24813 0.0
C823 C 0.69147 0.06384 0.24579 0.0
C824 C 0.68602 0.02337 0.28719 0.0
H825 H 0.7677 0.95445 0.29766 0.0
H826 H 0.75013 0.98341 0.28102 0.0
H827 H 0.68878 0.99675 0.30683 0.0
H828 H 0.64561 0.08956 0.27463 0.0
H829 H 0.66149 0.05868 0.2889 0.0
H830 H 0.72662 0.04893 0.26518 0.0
C831 C 0.74628 0.97971 0.2969 0.0
C832 C 0.69718 0.00813 0.29783 0.0
C833 C 0.75634 0.96309 0.30645 0.0
C834 C 0.65807 0.08232 0.26606 0.0
C835 C 0.66725 0.06451 0.2743 0.0
C836 C 0.71804 0.03745 0.27386 0.0
C837 C 0.7307 0.99073 0.30736 0.0
C838 C 0.71888 0.0073 0.29652 0.0
C839 C 0.68459 0.05544 0.2647 0.0
C840 C 0.69628 0.03834 0.27511 0.0
H841 H 0.73203 0.96465 0.35325 0.0
H842 H 0.71433 0.99367 0.33649 0.0
H843 H 0.74587 0.02198 0.28312 0.0
H844 H 0.68897 0.08854 0.22379 0.0
H845 H 0.70437 0.05699 0.23758 0.0
C846 C 0.93534 0.68349 0.24024 0.0
C847 C 0.92313 0.66907 0.25104 0.0
C848 C 0.95316 0.6919 0.24932 0.0
C849 C 0.98884 0.68721 0.29508 0.0
H850 H 0.99719 0.74582 0.28513 0.0
C851 C 0.04308 0.73747 0.34597 0.0
C852 C 0.05755 0.74949 0.33504 0.0
C853 C 0.02658 0.72793 0.33558 0.0
C854 C 0.99512 0.72943 0.288 0.0
H855 H 0.92087 0.65131 0.27942 0.0
H856 H 0.95146 0.66614 0.29532 0.0
H857 H 0.97013 0.72738 0.26645 0.0
H858 H 0.06546 0.76172 0.30482 0.0
H859 H 0.03639 0.74559 0.28686 0.0
H860 H 0.01353 0.68958 0.31713 0.0
C861 C 0.94761 0.67083 0.27971 0.0
C862 C 0.97969 0.71875 0.27714 0.0
C863 C 0.92996 0.66225 0.27054 0.0
C864 C 0.05456 0.7526 0.31371 0.0
C865 C 0.03789 0.74336 0.3034 0.0
C866 C 0.00408 0.69798 0.30614 0.0
C867 C 0.95912 0.6863 0.26954 0.0
C868 C 0.97629 0.69744 0.28048 0.0
C869 C 0.02399 0.7305 0.31411 0.0
C870 C 0.00739 0.71922 0.30273 0.0
H871 H 0.93058 0.68908 0.22518 0.0
H872 H 0.9619 0.70329 0.24068 0.0
H873 H 0.98704 0.67079 0.29791 0.0
H874 H 0.04503 0.73463 0.36237 0.0
H875 H 0.01598 0.71829 0.3443 0.0
C876 C 0.33555 0.9493 0.24918 0.0
C877 C 0.34723 0.93462 0.26012 0.0
C878 C 0.32715 0.96656 0.2593 0.0
C879 C 0.32627 0.99507 0.3104 0.0
H880 H 0.27302 0.01314 0.28978 0.0
C881 C 0.28365 0.06634 0.34482 0.0
C882 C 0.26205 0.0679 0.34277 0.0
C883 C 0.29443 0.04962 0.33617 0.0
C884 C 0.28768 0.00812 0.29611 0.0
H885 H 0.35985 0.92696 0.2902 0.0
H886 H 0.34467 0.95637 0.30801 0.0
H887 H 0.29154 0.98616 0.27176 0.0
H888 H 0.2347 0.05234 0.33129 0.0
H889 H 0.25321 0.0225 0.3175 0.0
H890 H 0.32173 0.01615 0.33551 0.0
C891 C 0.34238 0.95513 0.29147 0.0
C892 C 0.29867 0.99284 0.28536 0.0
C893 C 0.35118 0.93814 0.28122 0.0
C894 C 0.25135 0.05164 0.33309 0.0
C895 C 0.26208 0.03465 0.32486 0.0
C896 C 0.31506 0.01007 0.32141 0.0
C897 C 0.3297 0.96933 0.28081 0.0
C898 C 0.31824 0.9861 0.29221 0.0
C899 C 0.28389 0.03372 0.32557 0.0
C900 C 0.29559 0.01696 0.3144 0.0
H901 H 0.33225 0.94705 0.2329 0.0
H902 H 0.31816 0.97741 0.25026 0.0
H903 H 0.34133 0.99064 0.3162 0.0
H904 H 0.29243 0.07874 0.35191 0.0
H905 H 0.31115 0.04983 0.33696 0.0
C906 C 0.0723 0.31653 0.24775 0.0
C907 C 0.07957 0.33557 0.25543 0.0
C908 C 0.05438 0.30744 0.25586 0.0
C909 C 0.02455 0.30602 0.3043 0.0
H910 H 0.98527 0.27435 0.2719 0.0
C911 C 0.9521 0.26644 0.34041 0.0
C912 C 0.94533 0.24767 0.33168 0.0
C913 C 0.96851 0.27751 0.33149 0.0
C914 C 0.99625 0.28287 0.28125 0.0
H915 H 0.0729 0.36057 0.27684 0.0
H916 H 0.04153 0.34478 0.29085 0.0
H917 H 0.01219 0.29415 0.25443 0.0
H918 H 0.95133 0.22527 0.3074 0.0
H919 H 0.98024 0.24413 0.29231 0.0
H920 H 0.00889 0.29447 0.33113 0.0
C921 C 0.04987 0.33676 0.27871 0.0
C922 C 0.01164 0.29434 0.27118 0.0
C923 C 0.06772 0.34595 0.27047 0.0
C924 C 0.95606 0.23972 0.31449 0.0
C925 C 0.97252 0.25069 0.30567 0.0
C926 C 0.00922 0.29446 0.31438 0.0
C927 C 0.04335 0.31709 0.27196 0.0
C928 C 0.02607 0.30598 0.28257 0.0
C929 C 0.97863 0.27003 0.31367 0.0
C930 C 0.99493 0.28257 0.30301 0.0
H931 H 0.08108 0.30807 0.23624 0.0
H932 H 0.04988 0.29227 0.25031 0.0
H933 H 0.03561 0.31453 0.31358 0.0
H934 H 0.94408 0.27312 0.35353 0.0
H935 H 0.97265 0.29236 0.33806 0.0
C936 C 0.77123 0.68463 0.95385 0.0
C937 C 0.76121 0.67166 0.93955 0.0
C938 C 0.76074 0.69206 0.97133 0.0
C939 C 0.71204 0.686 1.00253 0.0
H940 H 0.72432 0.74256 0.01856 0.0
C941 C 0.66143 0.73107 0.06143 0.0
C942 C 0.67245 0.74033 0.07775 0.0
C943 C 0.67186 0.7236 0.0439 0.0
C944 C 0.72076 0.72673 0.01431 0.0
H945 H 0.73247 0.65571 0.93288 0.0
H946 H 0.71406 0.66894 0.96294 0.0
H947 H 0.74367 0.7265 0.99045 0.0
H948 H 0.7029 0.75002 0.08792 0.0
H949 H 0.72096 0.73757 0.05715 0.0
H950 H 0.68877 0.68656 0.02621 0.0
C951 C 0.73016 0.67314 0.96101 0.0
C952 C 0.73198 0.71739 0.99828 0.0
C953 C 0.74075 0.66549 0.94368 0.0
C954 C 0.69394 0.74304 0.07559 0.0
C955 C 0.7043 0.73589 0.05795 0.0
C956 C 0.70064 0.69546 0.0184 0.0
C957 C 0.73982 0.68699 0.97483 0.0
C958 C 0.72791 0.69682 0.99219 0.0
C959 C 0.69349 0.72554 0.04216 0.0
C960 C 0.70492 0.7159 0.02455 0.0
H961 H 0.787 0.68965 0.95119 0.0
H962 H 0.76897 0.70217 0.98185 0.0
H963 H 0.70858 0.67008 0.99862 0.0
H964 H 0.64491 0.72855 0.06267 0.0
H965 H 0.66306 0.71591 0.03188 0.0
C966 C 0.26324 0.66035 0.07329 0.0
C967 C 0.2491 0.67091 0.08605 0.0
C968 C 0.27194 0.67018 0.05602 0.0
C969 C 0.26653 0.714 0.01979 0.0
H970 H 0.3265 0.71307 0.01824 0.0
C971 C 0.31107 0.76651 0.96316 0.0
C972 C 0.32874 0.75832 0.95346 0.0
C973 C 0.30194 0.75632 0.97995 0.0
C974 C 0.30976 0.71331 0.01818 0.0
H975 H 0.23197 0.6995 0.08984 0.0
H976 H 0.24664 0.71635 0.05935 0.0
H977 H 0.30812 0.69292 0.0443 0.0
H978 H 0.35111 0.73337 0.95433 0.0
H979 H 0.335 0.71532 0.98322 0.0
H980 H 0.26798 0.73395 0.99347 0.0
C981 C 0.25119 0.70059 0.06284 0.0
C982 C 0.29921 0.70172 0.03317 0.0
C983 C 0.24275 0.69092 0.08029 0.0
C984 C 0.33765 0.74024 0.9616 0.0
C985 C 0.32834 0.72985 0.97822 0.0
C986 C 0.27704 0.72536 0.00462 0.0
C987 C 0.26643 0.69061 0.05093 0.0
C988 C 0.27749 0.70202 0.03422 0.0
C989 C 0.31001 0.73745 0.9873 0.0
C990 C 0.29885 0.72534 1.00365 0.0
H991 H 0.26861 0.64501 0.07737 0.0
H992 H 0.28346 0.662 0.04698 0.0
H993 H 0.24978 0.71442 0.02011 0.0
H994 H 0.30386 0.78046 0.95731 0.0
H995 H 0.28825 0.76306 0.98686 0.0
C996 C 0.27511 0.34708 0.92779 0.0
C997 C 0.25772 0.33804 0.91835 0.0
C998 C 0.28337 0.33874 0.946 0.0
C999 C 0.28368 0.28894 0.97532 0.0
H1000 H 0.31575 0.32076 0.0148 0.0
C1001 C 0.31559 0.25576 0.0525 0.0
C1002 C 0.33616 0.26067 0.05761 0.0
C1003 C 0.30601 0.2648 0.03531 0.0
C1004 C 0.30697 0.31166 0.00378 0.0
H1005 H 0.23435 0.31423 0.92161 0.0
H1006 H 0.24794 0.30044 0.95395 0.0
H1007 H 0.2973 0.33858 0.98712 0.0
H1008 H 0.36294 0.27865 0.04842 0.0
H1009 H 0.34607 0.2947 0.01849 0.0
H1010 H 0.29299 0.26209 0.99248 0.0
C1011 C 0.25585 0.3134 0.94685 0.0
C1012 C 0.29638 0.32187 0.98785 0.0
C1013 C 0.24781 0.32152 0.92844 0.0
C1014 C 0.34714 0.27442 0.04479 0.0
C1015 C 0.33742 0.28376 0.0278 0.0
C1016 C 0.294 0.2788 0.99144 0.0
C1017 C 0.27426 0.32132 0.95546 0.0
C1018 C 0.28465 0.31066 0.97326 0.0
C1019 C 0.31666 0.27925 0.02303 0.0
C1020 C 0.30588 0.29002 0.00576 0.0
H1021 H 0.2833 0.35965 0.92031 0.0
H1022 H 0.29761 0.34527 0.95191 0.0
H1023 H 0.27531 0.2796 0.96421 0.0
H1024 H 0.30669 0.24529 0.0621 0.0
H1025 H 0.29 0.26106 0.03209 0.0
C1026 C 0.7274 0.35085 0.05401 0.0
C1027 C 0.74054 0.34045 0.06786 0.0
C1028 C 0.71813 0.34018 0.03753 0.0
C1029 C 0.72229 0.29575 1.00316 0.0
H1030 H 0.66232 0.29527 1.00255 0.0
C1031 C 0.67863 0.24517 0.94396 0.0
C1032 C 0.66009 0.25287 0.93566 0.0
C1033 C 0.68776 0.25458 0.96123 0.0
C1034 C 0.67905 0.29543 1.00215 0.0
H1035 H 0.75507 0.311 0.07472 0.0
H1036 H 0.73963 0.29265 0.04535 0.0
H1037 H 0.68062 0.31559 0.02855 0.0
H1038 H 0.63629 0.27616 0.93933 0.0
H1039 H 0.65246 0.29311 0.96873 0.0
H1040 H 0.72105 0.27649 0.97635 0.0
C1041 C 0.73624 0.30894 0.04748 0.0
C1042 C 0.68952 0.30707 0.01717 0.0
C1043 C 0.74508 0.31946 0.06424 0.0
C1044 C 0.65042 0.26964 0.94555 0.0
C1045 C 0.65979 0.27939 0.96251 0.0
C1046 C 0.71187 0.2845 0.98783 0.0
C1047 C 0.72224 0.31905 0.03429 0.0
C1048 C 0.71123 0.30728 0.01787 0.0
C1049 C 0.67891 0.27235 0.97033 0.0
C1050 C 0.69004 0.28405 0.9871 0.0
H1051 H 0.72341 0.36694 0.05653 0.0
H1052 H 0.70747 0.34834 0.02751 0.0
H1053 H 0.73905 0.29573 1.00331 0.0
H1054 H 0.68644 0.23223 0.9367 0.0
H1055 H 0.70206 0.24814 0.96707 0.0
C1056 C 0.15911 0.32553 0.3331 0.0
C1057 C 0.14757 0.32291 0.3149 0.0
C1058 C 0.16144 0.30896 0.34695 0.0
C1059 C 0.14423 0.25398 0.35685 0.0
H1060 H 0.20233 0.24597 0.36899 0.0
C1061 C 0.18705 0.17578 0.35427 0.0
C1062 C 0.20455 0.1734 0.36683 0.0
C1063 C 0.17523 0.19395 0.35555 0.0
C1064 C 0.18594 0.24802 0.36621 0.0
H1065 H 0.12767 0.30178 0.29799 0.0
H1066 H 0.13202 0.27316 0.32151 0.0
H1067 H 0.19035 0.27968 0.358 0.0
H1068 H 0.22225 0.18667 0.39201 0.0
H1069 H 0.20139 0.21801 0.39462 0.0
H1070 H 0.14033 0.22168 0.36361 0.0
C1071 C 0.13926 0.28775 0.32545 0.0
C1072 C 0.17901 0.26749 0.35995 0.0
C1073 C 0.13698 0.30417 0.31173 0.0
C1074 C 0.20883 0.1883 0.38207 0.0
C1075 C 0.19698 0.20626 0.38349 0.0
C1076 C 0.15124 0.23439 0.36288 0.0
C1077 C 0.15218 0.28959 0.34282 0.0
C1078 C 0.15823 0.27055 0.35437 0.0
C1079 C 0.18079 0.20983 0.36947 0.0
C1080 C 0.1723 0.23106 0.36696 0.0
H1081 H 0.16732 0.33987 0.33599 0.0
H1082 H 0.17122 0.31103 0.36039 0.0
H1083 H 0.12801 0.25588 0.35313 0.0
H1084 H 0.18363 0.16456 0.34229 0.0
H1085 H 0.16288 0.19628 0.34447 0.0
C1086 C 0.8461 0.16854 0.34152 0.0
C1087 C 0.84949 0.17947 0.35995 0.0
C1088 C 0.8285 0.15604 0.33944 0.0
C1089 C 0.77596 0.15941 0.35876 0.0
H1090 H 0.76612 0.11521 0.31946 0.0
C1091 C 0.69571 0.14887 0.32149 0.0
C1092 C 0.69694 0.14777 0.29982 0.0
C1093 C 0.71345 0.14566 0.3336 0.0
C1094 C 0.76859 0.12751 0.33059 0.0
H1095 H 0.83905 0.18393 0.39146 0.0
H1096 H 0.80885 0.16156 0.38814 0.0
H1097 H 0.80108 0.12105 0.33261 0.0
H1098 H 0.71739 0.14105 0.27397 0.0
H1099 H 0.74791 0.13589 0.29476 0.0
H1100 H 0.74392 0.16688 0.35569 0.0
C1101 C 0.81929 0.16299 0.3751 0.0
C1102 C 0.78861 0.1308 0.33814 0.0
C1103 C 0.83669 0.17561 0.37708 0.0
C1104 C 0.7159 0.14234 0.29062 0.0
C1105 C 0.73344 0.13903 0.30262 0.0
C1106 C 0.75601 0.1562 0.35113 0.0
C1107 C 0.81421 0.15429 0.35584 0.0
C1108 C 0.79266 0.14734 0.35165 0.0
C1109 C 0.73262 0.14106 0.32422 0.0
C1110 C 0.75227 0.14084 0.33622 0.0
H1111 H 0.85561 0.17151 0.32803 0.0
H1112 H 0.82505 0.14959 0.32437 0.0
H1113 H 0.7785 0.17246 0.36897 0.0
H1114 H 0.68126 0.15286 0.32901 0.0
H1115 H 0.71228 0.14722 0.35025 0.0
C1116 C 0.87712 0.72171 0.28842 0.0
C1117 C 0.8618 0.70748 0.29427 0.0
C1118 C 0.87836 0.74106 0.29794 0.0
C1119 C 0.8671 0.78527 0.30705 0.0
H1120 H 0.84573 0.79647 0.36186 0.0
C1121 C 0.82526 0.86035 0.32801 0.0
C1122 C 0.8224 0.86533 0.34892 0.0
C1123 C 0.83757 0.84342 0.32246 0.0
C1124 C 0.85226 0.79381 0.34667 0.0
H1125 H 0.83631 0.70171 0.31514 0.0
H1126 H 0.83768 0.73592 0.33124 0.0
H1127 H 0.85312 0.76114 0.35182 0.0
H1128 H 0.83222 0.85862 0.3802 0.0
H1129 H 0.85492 0.8301 0.37049 0.0
H1130 H 0.86656 0.81798 0.30201 0.0
C1131 C 0.84925 0.73205 0.31976 0.0
C1132 C 0.85611 0.77336 0.34076 0.0
C1133 C 0.84835 0.71244 0.31053 0.0
C1134 C 0.83422 0.85502 0.36394 0.0
C1135 C 0.8469 0.83842 0.35837 0.0
C1136 C 0.86359 0.80576 0.31308 0.0
C1137 C 0.8639 0.74686 0.31315 0.0
C1138 C 0.86288 0.76873 0.32061 0.0
C1139 C 0.84752 0.83144 0.33775 0.0
C1140 C 0.85538 0.81029 0.33271 0.0
H1141 H 0.88781 0.71807 0.27601 0.0
H1142 H 0.89026 0.7517 0.29285 0.0
H1143 H 0.87216 0.78247 0.29132 0.0
H1144 H 0.81608 0.86787 0.31618 0.0
H1145 H 0.83755 0.83863 0.30641 0.0
C1146 C 0.29579 0.87302 0.29148 0.0
C1147 C 0.31141 0.85809 0.29382 0.0
C1148 C 0.27685 0.87082 0.30154 0.0
C1149 C 0.23417 0.85452 0.31038 0.0
H1150 H 0.22753 0.82843 0.36389 0.0
C1151 C 0.15949 0.81312 0.33638 0.0
C1152 C 0.15567 0.81118 0.35765 0.0
C1153 C 0.17692 0.82396 0.32942 0.0
C1154 C 0.22901 0.83612 0.34908 0.0
H1155 H 0.31992 0.82964 0.30929 0.0
H1156 H 0.28646 0.82534 0.32657 0.0
H1157 H 0.26201 0.83716 0.35168 0.0
H1158 H 0.16541 0.82096 0.38818 0.0
H1159 H 0.19512 0.84075 0.37605 0.0
H1160 H 0.20116 0.85361 0.30784 0.0
C1161 C 0.28898 0.839 0.3172 0.0
C1162 C 0.24888 0.84081 0.34193 0.0
C1163 C 0.30814 0.8414 0.3073 0.0
C1164 C 0.1681 0.8222 0.37167 0.0
C1165 C 0.18529 0.83326 0.36473 0.0
C1166 C 0.21429 0.84996 0.31758 0.0
C1167 C 0.27291 0.85343 0.31397 0.0
C1168 C 0.25175 0.84978 0.32236 0.0
C1169 C 0.19062 0.83322 0.34364 0.0
C1170 C 0.21146 0.8404 0.33689 0.0
H1171 H 0.29804 0.88624 0.2814 0.0
H1172 H 0.26511 0.88254 0.29917 0.0
H1173 H 0.23574 0.86117 0.29508 0.0
H1174 H 0.15031 0.80454 0.32528 0.0
H1175 H 0.18051 0.82355 0.31306 0.0
C1176 C 0.13853 0.67292 0.68622 0.0
C1177 C 0.1525 0.65847 0.69454 0.0
C1178 C 0.14564 0.68952 0.67441 0.0
C1179 C 0.19154 0.71317 0.6492 0.0
H1180 H 0.17133 0.76347 0.67515 0.0
C1181 C 0.23976 0.78713 0.65184 0.0
C1182 C 0.23024 0.80671 0.65106 0.0
C1183 C 0.22799 0.7691 0.65245 0.0
C1184 C 0.17684 0.7497 0.66733 0.0
H1185 H 0.18456 0.64877 0.69517 0.0
H1186 H 0.19709 0.67785 0.67446 0.0
H1187 H 0.15478 0.73058 0.68284 0.0
H1188 H 0.20074 0.82259 0.65004 0.0
H1189 H 0.17995 0.79081 0.65104 0.0
H1190 H 0.21395 0.73228 0.63409 0.0
C1191 C 0.1806 0.67634 0.67706 0.0
C1192 C 0.16735 0.73078 0.67175 0.0
C1193 C 0.17344 0.65961 0.68887 0.0
C1194 C 0.20853 0.80777 0.65076 0.0
C1195 C 0.19666 0.78957 0.65134 0.0
C1196 C 0.20093 0.73213 0.64464 0.0
C1197 C 0.16689 0.69205 0.67071 0.0
C1198 C 0.17496 0.71223 0.6632 0.0
C1199 C 0.2063 0.77001 0.65221 0.0
C1200 C 0.19414 0.75054 0.6542 0.0
H1201 H 0.12224 0.67228 0.69017 0.0
H1202 H 0.13466 0.70111 0.66932 0.0
H1203 H 0.19757 0.69918 0.64219 0.0
H1204 H 0.25645 0.78563 0.65217 0.0
H1205 H 0.236 0.75442 0.65366 0.0
C1206 C 0.28934 0.1288 0.72237 0.0
C1207 C 0.30633 0.14211 0.71958 0.0
C1208 C 0.27069 0.13246 0.7122 0.0
C1209 C 0.24651 0.16271 0.66978 0.0
H1210 H 0.1967 0.15516 0.70247 0.0
C1211 C 0.15942 0.19713 0.67023 0.0
C1212 C 0.15662 0.19827 0.64873 0.0
C1213 C 0.17564 0.18538 0.67844 0.0
C1214 C 0.21044 0.15735 0.69312 0.0
H1215 H 0.31733 0.16933 0.70341 0.0
H1216 H 0.28448 0.17614 0.68594 0.0
H1217 H 0.23013 0.14572 0.71697 0.0
H1218 H 0.16676 0.18618 0.61915 0.0
H1219 H 0.19434 0.16488 0.6335 0.0
H1220 H 0.22703 0.17546 0.6464 0.0
C1221 C 0.28569 0.16261 0.69576 0.0
C1222 C 0.22963 0.15173 0.70134 0.0
C1223 C 0.30451 0.15879 0.7058 0.0
C1224 C 0.1687 0.18563 0.6358 0.0
C1225 C 0.18468 0.17367 0.64401 0.0
C1226 C 0.22736 0.16846 0.66161 0.0
C1227 C 0.26844 0.14968 0.69914 0.0
C1228 C 0.24794 0.15457 0.68986 0.0
C1229 C 0.18914 0.1744 0.66529 0.0
C1230 C 0.20908 0.16608 0.67326 0.0
H1231 H 0.29036 0.1156 0.73266 0.0
H1232 H 0.25795 0.12188 0.71477 0.0
H1233 H 0.26023 0.16487 0.6604 0.0
H1234 H 0.15047 0.2069 0.68051 0.0
H1235 H 0.17859 0.18635 0.69491 0.0
C1236 C 0.8122 0.19869 0.66078 0.0
C1237 C 0.80198 0.19527 0.64197 0.0
C1238 C 0.82225 0.21759 0.66439 0.0
C1239 C 0.81869 0.27187 0.64666 0.0
H1240 H 0.86471 0.27963 0.68419 0.0
C1241 C 0.8323 0.34666 0.69344 0.0
C1242 C 0.85245 0.35113 0.70005 0.0
C1243 C 0.82853 0.32917 0.68119 0.0
C1244 C 0.85208 0.27783 0.67333 0.0
H1245 H 0.79575 0.20777 0.61152 0.0
H1246 H 0.81405 0.24019 0.61737 0.0
H1247 H 0.85563 0.24488 0.67292 0.0
H1248 H 0.88467 0.34238 0.6975 0.0
H1249 H 0.87831 0.31258 0.67524 0.0
H1250 H 0.81514 0.30481 0.64707 0.0
C1251 C 0.81372 0.22883 0.62968 0.0
C1252 C 0.84669 0.25781 0.66712 0.0
C1253 C 0.80344 0.21017 0.62623 0.0
C1254 C 0.86898 0.33922 0.6925 0.0
C1255 C 0.86528 0.32198 0.68003 0.0
C1256 C 0.82416 0.29189 0.65276 0.0
C1257 C 0.82241 0.2332 0.64912 0.0
C1258 C 0.82968 0.25453 0.65402 0.0
C1259 C 0.84492 0.31604 0.67523 0.0
C1260 C 0.84067 0.29512 0.6665 0.0
H1261 H 0.81107 0.1875 0.67321 0.0
H1262 H 0.82869 0.22043 0.67959 0.0
H1263 H 0.8053 0.26998 0.63678 0.0
H1264 H 0.81929 0.35542 0.69941 0.0
H1265 H 0.81263 0.32506 0.67787 0.0
C1266 C 0.79183 0.77927 0.63255 0.0
C1267 C 0.80869 0.78168 0.64605 0.0
C1268 C 0.77352 0.79021 0.63576 0.0
C1269 C 0.75011 0.83345 0.66592 0.0
H1270 H 0.69959 0.80218 0.65722 0.0
C1271 C 0.67271 0.86887 0.68883 0.0
C1272 C 0.65974 0.85586 0.70044 0.0
C1273 C 0.68888 0.86061 0.67714 0.0
C1274 C 0.71352 0.81114 0.65978 0.0
H1275 H 0.81994 0.79796 0.67308 0.0
H1276 H 0.78764 0.81668 0.67922 0.0
H1277 H 0.73269 0.78694 0.64799 0.0
H1278 H 0.65241 0.82399 0.7077 0.0
H1279 H 0.68093 0.80948 0.68775 0.0
H1280 H 0.73111 0.85708 0.67897 0.0
C1281 C 0.78868 0.80665 0.66584 0.0
C1282 C 0.73256 0.8025 0.65422 0.0
C1283 C 0.80719 0.79589 0.6624 0.0
C1284 C 0.66205 0.83434 0.69869 0.0
C1285 C 0.67849 0.82606 0.68727 0.0
C1286 C 0.73111 0.84199 0.67167 0.0
C1287 C 0.77147 0.80361 0.65278 0.0
C1288 C 0.75114 0.81344 0.65746 0.0
C1289 C 0.6927 0.83918 0.67717 0.0
C1290 C 0.71256 0.83086 0.66891 0.0
H1291 H 0.79267 0.76863 0.6196 0.0
H1292 H 0.76086 0.7879 0.62505 0.0
H1293 H 0.76402 0.84246 0.66837 0.0
H1294 H 0.67116 0.88555 0.68986 0.0
H1295 H 0.69908 0.87115 0.66901 0.0
C1296 C 0.30778 0.14305 0.30185 0.0
C1297 C 0.28607 0.14285 0.30258 0.0
C1298 C 0.3181 0.14506 0.28287 0.0
C1299 C 0.30942 0.14229 0.22559 0.0
H1300 H 0.35683 0.17891 0.22365 0.0
C1301 C 0.33615 0.18942 0.15434 0.0
C1302 C 0.35732 0.19403 0.15275 0.0
C1303 C 0.32893 0.17697 0.17056 0.0
C1304 C 0.34386 0.16829 0.22393 0.0
H1305 H 0.25817 0.14473 0.28396 0.0
H1306 H 0.27598 0.1489 0.25129 0.0
H1307 H 0.3417 0.17004 0.25685 0.0
H1308 H 0.38776 0.18711 0.16498 0.0
H1309 H 0.37523 0.16511 0.1929 0.0
H1310 H 0.31106 0.14156 0.19242 0.0
C1311 C 0.28518 0.14688 0.26514 0.0
C1312 C 0.33517 0.16318 0.24302 0.0
C1313 C 0.27493 0.1447 0.28399 0.0
C1314 C 0.37132 0.18397 0.16599 0.0
C1315 C 0.36415 0.17151 0.18208 0.0
C1316 C 0.31801 0.14759 0.20643 0.0
C1317 C 0.30689 0.14707 0.26427 0.0
C1318 C 0.31757 0.15046 0.24411 0.0
C1319 C 0.34282 0.16892 0.18528 0.0
C1320 C 0.33513 0.16092 0.20539 0.0
H1321 H 0.31679 0.14148 0.31589 0.0
H1322 H 0.33485 0.14494 0.28278 0.0
H1323 H 0.29612 0.13209 0.22585 0.0
H1324 H 0.32502 0.19708 0.14443 0.0
H1325 H 0.31239 0.17522 0.17262 0.0
C1326 C 0.85126 0.29517 0.31276 0.0
C1327 C 0.85561 0.27397 0.31066 0.0
C1328 C 0.84629 0.30707 0.29531 0.0
C1329 C 0.84929 0.30588 0.23752 0.0
H1330 H 0.80689 0.3481 0.24118 0.0
C1331 C 0.80314 0.33941 0.16801 0.0
C1332 C 0.79784 0.36048 0.169 0.0
C1333 C 0.81415 0.33018 0.18425 0.0
C1334 C 0.81898 0.33656 0.23996 0.0
H1335 H 0.85739 0.24849 0.2888 0.0
H1336 H 0.84806 0.26889 0.25883 0.0
H1337 H 0.81729 0.32959 0.27224 0.0
H1338 H 0.80184 0.38886 0.18658 0.0
H1339 H 0.82104 0.3728 0.21466 0.0
H1340 H 0.85024 0.3124 0.20498 0.0
C1341 C 0.84921 0.27662 0.27365 0.0
C1342 C 0.82499 0.32596 0.2578 0.0
C1343 C 0.85437 0.26485 0.29094 0.0
C1344 C 0.80541 0.3725 0.18551 0.0
C1345 C 0.81632 0.36332 0.20166 0.0
C1346 C 0.84309 0.31633 0.21962 0.0
C1347 C 0.84536 0.29794 0.27551 0.0
C1348 C 0.84004 0.3103 0.25679 0.0
C1349 C 0.81999 0.34192 0.20166 0.0
C1350 C 0.82777 0.33167 0.22065 0.0
H1351 H 0.85222 0.30263 0.32774 0.0
H1352 H 0.84355 0.32349 0.29732 0.0
H1353 H 0.86126 0.29423 0.23621 0.0
H1354 H 0.79747 0.32975 0.15553 0.0
H1355 H 0.81681 0.31363 0.18384 0.0
C1356 C 0.66131 0.79359 0.18699 0.0
C1357 C 0.6543 0.77325 0.19003 0.0
C1358 C 0.6679 0.80552 0.20391 0.0
C1359 C 0.66457 0.80703 0.26166 0.0
H1360 H 0.71135 0.84423 0.257 0.0
C1361 C 0.71203 0.83947 0.33098 0.0
C1362 C 0.71848 0.8602 0.32947 0.0
C1363 C 0.70129 0.83015 0.31459 0.0
C1364 C 0.6981 0.83406 0.25847 0.0
H1365 H 0.64973 0.74909 0.21293 0.0
H1366 H 0.66183 0.76937 0.24194 0.0
H1367 H 0.69928 0.82563 0.22648 0.0
H1368 H 0.71703 0.88789 0.31043 0.0
H1369 H 0.69846 0.87162 0.28207 0.0
H1370 H 0.66398 0.81497 0.2939 0.0
C1371 C 0.66149 0.77658 0.22682 0.0
C1372 C 0.69113 0.82345 0.24095 0.0
C1373 C 0.6547 0.76486 0.21009 0.0
C1374 C 0.71259 0.87179 0.31199 0.0
C1375 C 0.70202 0.86248 0.29567 0.0
C1376 C 0.67171 0.81744 0.27923 0.0
C1377 C 0.66782 0.79719 0.22409 0.0
C1378 C 0.67442 0.80961 0.24236 0.0
C1379 C 0.69692 0.84141 0.29647 0.0
C1380 C 0.68862 0.83096 0.27782 0.0
H1381 H 0.66111 0.80045 0.1717 0.0
H1382 H 0.67261 0.82138 0.20124 0.0
H1383 H 0.65134 0.79687 0.26327 0.0
H1384 H 0.71635 0.83013 0.3442 0.0
H1385 H 0.69748 0.81385 0.31559 0.0
C1386 C 0.20881 0.63316 0.21376 0.0
C1387 C 0.21076 0.64838 0.19835 0.0
C1388 C 0.19819 0.63734 0.23204 0.0
C1389 C 0.16305 0.67418 0.2583 0.0
H1390 H 0.19324 0.65704 0.30732 0.0
C1391 C 0.13266 0.69531 0.33828 0.0
C1392 C 0.14722 0.70526 0.351 0.0
C1393 C 0.13908 0.68376 0.32121 0.0
C1394 C 0.18461 0.66188 0.2938 0.0
H1395 H 0.20204 0.67943 0.18933 0.0
H1396 H 0.18353 0.68696 0.22162 0.0
H1397 H 0.20579 0.64705 0.27318 0.0
H1398 H 0.1799 0.70933 0.35708 0.0
H1399 H 0.19123 0.68915 0.32717 0.0
H1400 H 0.14237 0.68975 0.27889 0.0
C1401 C 0.19011 0.6717 0.21944 0.0
C1402 C 0.19167 0.65601 0.27422 0.0
C1403 C 0.20066 0.66742 0.20094 0.0
C1404 C 0.16836 0.70166 0.34764 0.0
C1405 C 0.17482 0.69019 0.33041 0.0
C1406 C 0.15598 0.68002 0.27789 0.0
C1407 C 0.18942 0.65691 0.23547 0.0
C1408 C 0.18108 0.66225 0.25623 0.0
C1409 C 0.1602 0.68206 0.31642 0.0
C1410 C 0.16679 0.67411 0.29586 0.0
H1411 H 0.21622 0.61821 0.21202 0.0
H1412 H 0.19745 0.62542 0.24381 0.0
H1413 H 0.15449 0.67912 0.24478 0.0
H1414 H 0.11623 0.69775 0.34062 0.0
H1415 H 0.12746 0.67721 0.31106 0.0
C1416 C 0.36778 0.82991 0.84383 0.0
C1417 C 0.35014 0.82149 0.85329 0.0
C1418 C 0.36589 0.84243 0.82633 0.0
C1419 C 0.35855 0.8476 0.78072 0.0
H1420 H 0.30968 0.87837 0.76493 0.0
C1421 C 0.32529 0.84635 0.69836 0.0
C1422 C 0.31269 0.86273 0.69189 0.0
C1423 C 0.33445 0.84685 0.71799 0.0
C1424 C 0.32371 0.87021 0.76901 0.0
H1425 H 0.31673 0.82065 0.85305 0.0
H1426 H 0.31325 0.84211 0.82228 0.0
H1427 H 0.31639 0.87178 0.80127 0.0
H1428 H 0.30099 0.89312 0.6997 0.0
H1429 H 0.31783 0.89459 0.73345 0.0
H1430 H 0.36584 0.84597 0.74847 0.0
C1431 C 0.3286 0.8396 0.82849 0.0
C1432 C 0.3274 0.86618 0.78994 0.0
C1433 C 0.33052 0.82736 0.84624 0.0
C1434 C 0.31078 0.88035 0.70444 0.0
C1435 C 0.32019 0.88103 0.72386 0.0
C1436 C 0.35498 0.85181 0.75982 0.0
C1437 C 0.34632 0.8463 0.81764 0.0
C1438 C 0.34448 0.85419 0.79603 0.0
C1439 C 0.33127 0.86386 0.73134 0.0
C1440 C 0.33713 0.86254 0.75362 0.0
H1441 H 0.38309 0.82537 0.84893 0.0
H1442 H 0.37985 0.84779 0.81876 0.0
H1443 H 0.37178 0.83812 0.78467 0.0
H1444 H 0.32662 0.83246 0.68903 0.0
H1445 H 0.3427 0.83324 0.72321 0.0
C1446 C 0.2126 0.33851 0.79864 0.0
C1447 C 0.22816 0.35348 0.80089 0.0
C1448 C 0.20237 0.33621 0.77966 0.0
C1449 C 0.21018 0.34782 0.7239 0.0
H1450 H 0.15406 0.32731 0.71959 0.0
C1451 C 0.17918 0.30472 0.65239 0.0
C1452 C 0.15775 0.30414 0.64907 0.0
C1453 C 0.18731 0.31611 0.66892 0.0
C1454 C 0.16962 0.33347 0.72037 0.0
H1455 H 0.24415 0.3788 0.78576 0.0
H1456 H 0.22582 0.37543 0.75314 0.0
H1457 H 0.16773 0.33677 0.75325 0.0
H1458 H 0.12827 0.31689 0.65862 0.0
H1459 H 0.1425 0.33769 0.68667 0.0
H1460 H 0.21197 0.34479 0.69098 0.0
C1461 C 0.22203 0.36484 0.76556 0.0
C1462 C 0.17759 0.33854 0.73982 0.0
C1463 C 0.23245 0.36687 0.78432 0.0
C1464 C 0.14487 0.31701 0.66095 0.0
C1465 C 0.15301 0.32866 0.67722 0.0
C1466 C 0.20213 0.34296 0.70443 0.0
C1467 C 0.2073 0.34909 0.76273 0.0
C1468 C 0.19812 0.34539 0.7419 0.0
C1469 C 0.17414 0.32735 0.68221 0.0
C1470 C 0.18189 0.3353 0.70243 0.0
H1471 H 0.20907 0.32795 0.81118 0.0
H1472 H 0.19126 0.32378 0.77805 0.0
H1473 H 0.22614 0.3528 0.72484 0.0
H1474 H 0.18942 0.29474 0.64361 0.0
H1475 H 0.20366 0.31464 0.67225 0.0
C1476 C 0.70459 0.13797 0.68697 0.0
C1477 C 0.70679 0.15486 0.67349 0.0
C1478 C 0.69286 0.13978 0.70498 0.0
C1479 C 0.68472 0.15365 0.74866 0.0
H1480 H 0.63694 0.18906 0.75589 0.0
C1481 C 0.66404 0.19417 0.8256 0.0
C1482 C 0.64328 0.19937 0.82917 0.0
C1483 C 0.66962 0.18363 0.80748 0.0
C1484 C 0.65006 0.17878 0.75419 0.0
H1485 H 0.69765 0.18646 0.66745 0.0
H1486 H 0.67731 0.18993 0.69925 0.0
H1487 H 0.64872 0.18064 0.72114 0.0
H1488 H 0.61189 0.19586 0.81803 0.0
H1489 H 0.62146 0.17665 0.78702 0.0
H1490 H 0.68611 0.15185 0.78171 0.0
C1491 C 0.68431 0.1751 0.69576 0.0
C1492 C 0.65698 0.1742 0.73421 0.0
C1493 C 0.69588 0.17316 0.6775 0.0
C1494 C 0.62803 0.19203 0.81555 0.0
C1495 C 0.63355 0.18129 0.79766 0.0
C1496 C 0.67776 0.15816 0.76864 0.0
C1497 C 0.6834 0.15868 0.71012 0.0
C1498 C 0.67461 0.16187 0.73119 0.0
C1499 C 0.65448 0.17799 0.79282 0.0
C1500 C 0.66056 0.17107 0.77168 0.0
H1501 H 0.71293 0.12369 0.68413 0.0
H1502 H 0.69203 0.12666 0.71537 0.0
H1503 H 0.69855 0.14434 0.74699 0.0
H1504 H 0.67608 0.19994 0.83572 0.0
H1505 H 0.68591 0.1814 0.80425 0.0
C1506 C 0.87479 0.68294 0.68209 0.0
C1507 C 0.85614 0.68843 0.67247 0.0
C1508 C 0.87466 0.67147 0.70043 0.0
C1509 C 0.84008 0.6443 0.73822 0.0
H1510 H 0.87383 0.67295 0.77876 0.0
C1511 C 0.8301 0.67087 0.82665 0.0
C1512 C 0.82011 0.65323 0.83432 0.0
C1513 C 0.84085 0.66996 0.80787 0.0
C1514 C 0.86439 0.66467 0.76766 0.0
H1515 H 0.82288 0.6855 0.67357 0.0
H1516 H 0.82245 0.66552 0.70554 0.0
H1517 H 0.87939 0.6793 0.74211 0.0
H1518 H 0.81452 0.62058 0.82946 0.0
H1519 H 0.83402 0.61868 0.79711 0.0
H1520 H 0.82399 0.63093 0.76379 0.0
C1521 C 0.83728 0.66955 0.69887 0.0
C1522 C 0.86775 0.66809 0.74656 0.0
C1523 C 0.83746 0.68093 0.68046 0.0
C1524 C 0.82248 0.63429 0.82396 0.0
C1525 C 0.83335 0.63331 0.80528 0.0
C1526 C 0.83666 0.64095 0.75932 0.0
C1527 C 0.85582 0.66561 0.70964 0.0
C1528 C 0.85512 0.65853 0.73158 0.0
C1529 C 0.84171 0.65137 0.79644 0.0
C1530 C 0.84828 0.65167 0.77433 0.0
H1531 H 0.88936 0.68898 0.67637 0.0
H1532 H 0.88923 0.66841 0.70811 0.0
H1533 H 0.83027 0.63644 0.72713 0.0
H1534 H 0.82797 0.68574 0.83414 0.0
H1535 H 0.84687 0.68425 0.80151 0.0
C1536 C 0.19677 0.33785 0.20907 0.0
C1537 C 0.19516 0.35431 0.22313 0.0
C1538 C 0.21538 0.33439 0.19846 0.0
C1539 C 0.27139 0.3461 0.20355 0.0
H1540 H 0.27419 0.32046 0.14946 0.0
C1541 C 0.33319 0.31139 0.13909 0.0
C1542 C 0.34605 0.30013 0.1525 0.0
C1543 C 0.31656 0.32278 0.14684 0.0
C1544 C 0.27381 0.328 0.16442 0.0
H1545 H 0.21093 0.38103 0.23594 0.0
H1546 H 0.24287 0.3756 0.21687 0.0
H1547 H 0.24089 0.33122 0.16315 0.0
H1548 H 0.35262 0.29314 0.18457 0.0
H1549 H 0.32331 0.31259 0.1982 0.0
H1550 H 0.30434 0.34318 0.20469 0.0
C1551 C 0.23027 0.36479 0.21459 0.0
C1552 C 0.25459 0.33385 0.17243 0.0
C1553 C 0.21189 0.36801 0.2254 0.0
C1554 C 0.34307 0.30188 0.17392 0.0
C1555 C 0.32618 0.31301 0.1817 0.0
C1556 C 0.29063 0.34044 0.19546 0.0
C1557 C 0.23254 0.34755 0.20152 0.0
C1558 C 0.25308 0.34268 0.19223 0.0
C1559 C 0.31218 0.32281 0.16815 0.0
C1560 C 0.29208 0.331 0.17593 0.0
H1561 H 0.18411 0.32703 0.20715 0.0
H1562 H 0.21658 0.32086 0.18863 0.0
H1563 H 0.27088 0.35259 0.21899 0.0
H1564 H 0.33526 0.31037 0.12248 0.0
H1565 H 0.30652 0.33067 0.13601 0.0
C1566 C 0.29689 0.7179 0.87812 0.0
C1567 C 0.31321 0.72095 0.86405 0.0
C1568 C 0.27917 0.70713 0.87225 0.0
C1569 C 0.25673 0.67267 0.83241 0.0
H1570 H 0.2053 0.69895 0.84899 0.0
C1571 C 0.17935 0.63734 0.80887 0.0
C1572 C 0.16523 0.65114 0.79979 0.0
C1573 C 0.19607 0.64473 0.82032 0.0
C1574 C 0.21951 0.69144 0.84423 0.0
H1575 H 0.32429 0.71412 0.83318 0.0
H1576 H 0.29303 0.69535 0.8227 0.0
H1577 H 0.23818 0.71318 0.86075 0.0
H1578 H 0.15652 0.68337 0.79691 0.0
H1579 H 0.18589 0.69642 0.81686 0.0
H1580 H 0.2381 0.65142 0.81522 0.0
C1581 C 0.29406 0.70121 0.83837 0.0
C1582 C 0.23837 0.69944 0.85113 0.0
C1583 C 0.31198 0.71192 0.84434 0.0
C1584 C 0.16707 0.6724 0.80391 0.0
C1585 C 0.18398 0.67984 0.81526 0.0
C1586 C 0.23787 0.66466 0.82551 0.0
C1587 C 0.27721 0.69927 0.8521 0.0
C1588 C 0.25721 0.69021 0.84522 0.0
C1589 C 0.19915 0.66611 0.82276 0.0
C1590 C 0.21903 0.674 0.83126 0.0
H1591 H 0.29753 0.72444 0.89355 0.0
H1592 H 0.26675 0.70542 0.88338 0.0
H1593 H 0.27093 0.66512 0.82768 0.0
H1594 H 0.17818 0.62084 0.80604 0.0
H1595 H 0.20714 0.63371 0.8264 0.0
C1596 C 0.32679 0.31229 0.83715 0.0
C1597 C 0.31608 0.31907 0.85473 0.0
C1598 C 0.33757 0.2935 0.83758 0.0
C1599 C 0.33322 0.24364 0.86458 0.0
H1600 H 0.37734 0.22857 0.82691 0.0
C1601 C 0.33619 0.16685 0.82121 0.0
C1602 C 0.3551 0.15958 0.81352 0.0
C1603 C 0.33558 0.18449 0.83373 0.0
C1604 C 0.36532 0.23242 0.83794 0.0
H1605 H 0.30926 0.31268 0.88686 0.0
H1606 H 0.32886 0.28039 0.88799 0.0
H1607 H 0.37087 0.2649 0.83434 0.0
H1608 H 0.38827 0.16381 0.81396 0.0
H1609 H 0.38738 0.1942 0.83652 0.0
H1610 H 0.32741 0.21118 0.86785 0.0
C1611 C 0.32864 0.28917 0.87372 0.0
C1612 C 0.36142 0.25333 0.84196 0.0
C1613 C 0.31768 0.3078 0.87319 0.0
C1614 C 0.37354 0.16892 0.82013 0.0
C1615 C 0.37297 0.18654 0.83273 0.0
C1616 C 0.3372 0.22273 0.86066 0.0
C1617 C 0.33781 0.28123 0.85563 0.0
C1618 C 0.3448 0.25924 0.85468 0.0
C1619 C 0.35391 0.19524 0.83865 0.0
C1620 C 0.35275 0.21687 0.84663 0.0
H1621 H 0.32531 0.32054 0.82264 0.0
H1622 H 0.34423 0.28785 0.82328 0.0
H1623 H 0.32018 0.24749 0.87436 0.0
H1624 H 0.32177 0.16021 0.81581 0.0
H1625 H 0.32058 0.19078 0.83779 0.0
C1626 C 0.66842 0.30837 0.83027 0.0
C1627 C 0.66435 0.30183 0.85057 0.0
C1628 C 0.68653 0.31949 0.82587 0.0
C1629 C 0.73921 0.32416 0.84677 0.0
H1630 H 0.74595 0.36601 0.80442 0.0
C1631 C 0.81749 0.34378 0.80714 0.0
C1632 C 0.82056 0.36437 0.80093 0.0
C1633 C 0.79879 0.3379 0.81645 0.0
C1634 C 0.74433 0.3545 0.8165 0.0
H1635 H 0.6747 0.30343 0.88241 0.0
H1636 H 0.70579 0.32334 0.87488 0.0
H1637 H 0.71128 0.35446 0.81384 0.0
H1638 H 0.80753 0.3953 0.80137 0.0
H1639 H 0.77533 0.3852 0.81807 0.0
H1640 H 0.77227 0.3241 0.84934 0.0
C1641 C 0.69549 0.3194 0.86225 0.0
C1642 C 0.72445 0.34775 0.82172 0.0
C1643 C 0.67757 0.30822 0.8666 0.0
C1644 C 0.80546 0.37925 0.80583 0.0
C1645 C 0.78694 0.37345 0.8152 0.0
C1646 C 0.75909 0.33086 0.84151 0.0
C1647 C 0.70071 0.32427 0.84174 0.0
C1648 C 0.72166 0.33244 0.83686 0.0
C1649 C 0.78298 0.35258 0.81977 0.0
C1650 C 0.76189 0.34605 0.82625 0.0
H1651 H 0.65859 0.3034 0.81763 0.0
H1652 H 0.69011 0.32303 0.80989 0.0
H1653 H 0.73764 0.31207 0.85828 0.0
H1654 H 0.82881 0.33199 0.80336 0.0
H1655 H 0.79621 0.32168 0.8198 0.0
C1656 C 0.74195 0.72788 0.86019 0.0
C1657 C 0.73205 0.70852 0.86109 0.0
C1658 C 0.73059 0.74597 0.85727 0.0
C1659 C 0.68044 0.76453 0.83734 0.0
H1660 H 0.69935 0.81669 0.86048 0.0
C1661 C 0.63962 0.83917 0.81576 0.0
C1662 C 0.65297 0.85361 0.80642 0.0
C1663 C 0.6475 0.82333 0.82808 0.0
C1664 C 0.69387 0.80222 0.854 0.0
H1665 H 0.70234 0.69301 0.86003 0.0
H1666 H 0.68229 0.72479 0.85537 0.0
H1667 H 0.71594 0.78437 0.87099 0.0
H1668 H 0.68473 0.86415 0.8045 0.0
H1669 H 0.69857 0.83639 0.8262 0.0
H1670 H 0.65851 0.78238 0.82025 0.0
C1671 C 0.69897 0.7259 0.85652 0.0
C1672 C 0.70341 0.7837 0.8599 0.0
C1673 C 0.71042 0.70769 0.85923 0.0
C1674 C 0.67408 0.85328 0.81154 0.0
C1675 C 0.682 0.83734 0.82391 0.0
C1676 C 0.67076 0.78298 0.83167 0.0
C1677 C 0.70894 0.74529 0.85541 0.0
C1678 C 0.69716 0.76466 0.85123 0.0
C1679 C 0.66889 0.8216 0.83133 0.0
C1680 C 0.67763 0.80206 0.83961 0.0
H1681 H 0.75862 0.72911 0.86144 0.0
H1682 H 0.73891 0.76047 0.85599 0.0
H1683 H 0.67539 0.7503 0.83006 0.0
H1684 H 0.62322 0.8392 0.81229 0.0
H1685 H 0.637 0.81166 0.83397 0.0
C1686 C 0.65551 0.66841 0.17054 0.0
C1687 C 0.65258 0.67643 0.1506 0.0
C1688 C 0.67323 0.65676 0.17502 0.0
C1689 C 0.72642 0.65811 0.15683 0.0
H1690 H 0.73564 0.62107 0.203 0.0
C1691 C 0.80678 0.65071 0.19612 0.0
C1692 C 0.80573 0.65246 0.21778 0.0
C1693 C 0.78871 0.64734 0.18452 0.0
C1694 C 0.73333 0.63137 0.18999 0.0
H1695 H 0.66392 0.67608 0.11908 0.0
H1696 H 0.69433 0.65512 0.12666 0.0
H1697 H 0.70097 0.62425 0.1883 0.0
H1698 H 0.78487 0.65157 0.24419 0.0
H1699 H 0.75387 0.64607 0.22419 0.0
H1700 H 0.75843 0.66619 0.15928 0.0
C1701 C 0.68346 0.65833 0.13902 0.0
C1702 C 0.71348 0.63314 0.18156 0.0
C1703 C 0.66591 0.67011 0.13462 0.0
C1704 C 0.78637 0.65041 0.22753 0.0
C1705 C 0.76851 0.64694 0.21605 0.0
C1706 C 0.74623 0.65639 0.1653 0.0
C1707 C 0.68811 0.65288 0.15953 0.0
C1708 C 0.70963 0.64714 0.1654 0.0
C1709 C 0.76936 0.64544 0.19441 0.0
C1710 C 0.74972 0.64367 0.18254 0.0
H1711 H 0.64559 0.67324 0.18318 0.0
H1712 H 0.67628 0.65279 0.191 0.0
H1713 H 0.72404 0.66927 0.14457 0.0
H1714 H 0.82146 0.65209 0.18816 0.0
H1715 H 0.78986 0.64626 0.16783 0.0
C1716 C 0.33965 0.82238 0.19272 0.0
C1717 C 0.35849 0.82803 0.2018 0.0
C1718 C 0.33797 0.80366 0.18191 0.0
C1719 C 0.33827 0.76348 0.15742 0.0
H1720 H 0.36373 0.71948 0.18936 0.0
C1721 C 0.31567 0.67983 0.14161 0.0
C1722 C 0.30976 0.66884 0.15938 0.0
C1723 C 0.32774 0.69768 0.14326 0.0
C1724 C 0.35658 0.73155 0.18021 0.0
H1725 H 0.39065 0.81963 0.20564 0.0
H1726 H 0.38801 0.78739 0.18606 0.0
H1727 H 0.37234 0.75539 0.19685 0.0
H1728 H 0.3128 0.66691 0.19262 0.0
H1729 H 0.33373 0.69828 0.19569 0.0
H1730 H 0.32146 0.73976 0.14172 0.0
C1731 C 0.37442 0.79709 0.1875 0.0
C1732 C 0.36171 0.75219 0.1843 0.0
C1733 C 0.37604 0.81571 0.19839 0.0
C1734 C 0.31756 0.67491 0.17868 0.0
C1735 C 0.32946 0.69297 0.18038 0.0
C1736 C 0.33311 0.74286 0.15335 0.0
C1737 C 0.35512 0.7903 0.18011 0.0
C1738 C 0.35221 0.76845 0.17333 0.0
C1739 C 0.33378 0.70513 0.16278 0.0
C1740 C 0.34181 0.72665 0.16505 0.0
H1741 H 0.32581 0.83139 0.19567 0.0
H1742 H 0.32281 0.79889 0.17658 0.0
H1743 H 0.3308 0.77558 0.14855 0.0
H1744 H 0.30963 0.67549 0.12658 0.0
H1745 H 0.33119 0.70635 0.12934 0.0
C1746 C 0.68232 0.34922 0.14043 0.0
C1747 C 0.69238 0.36211 0.15479 0.0
C1748 C 0.66973 0.33304 0.14718 0.0
C1749 C 0.64678 0.3072 0.19324 0.0
H1750 H 0.66982 0.25782 0.16793 0.0
C1751 C 0.65128 0.22984 0.23609 0.0
C1752 C 0.64989 0.21105 0.22517 0.0
C1753 C 0.65113 0.24872 0.22568 0.0
C1754 C 0.66277 0.27133 0.1749 0.0
H1755 H 0.69525 0.36977 0.18727 0.0
H1756 H 0.6733 0.34139 0.19916 0.0
H1757 H 0.67702 0.29145 0.15294 0.0
H1758 H 0.6467 0.19742 0.19468 0.0
H1759 H 0.64621 0.23059 0.17637 0.0
H1760 H 0.633 0.28699 0.21557 0.0
C1761 C 0.67506 0.3438 0.18267 0.0
C1762 C 0.6669 0.2907 0.16628 0.0
C1763 C 0.68759 0.36014 0.17588 0.0
C1764 C 0.64798 0.21162 0.20352 0.0
C1765 C 0.64772 0.23062 0.19305 0.0
C1766 C 0.64249 0.28776 0.20179 0.0
C1767 C 0.66709 0.32935 0.16842 0.0
C1768 C 0.65944 0.3089 0.17567 0.0
C1769 C 0.64944 0.24941 0.20403 0.0
C1770 C 0.65101 0.26964 0.1931 0.0
H1771 H 0.68564 0.35054 0.12404 0.0
H1772 H 0.66339 0.32246 0.13582 0.0
H1773 H 0.64065 0.32092 0.20069 0.0
H1774 H 0.65282 0.23004 0.25278 0.0
H1775 H 0.65297 0.26277 0.23465 0.0
loop_
_geom_bond_atom_site_label_1
_geom_bond_atom_site_label_2
_geom_bond_distance
_geom_bond_site_symmetry_2
_ccdc_geom_bond_type
O0 Cd1 2.223 . S
O0 C8 1.315 . S
Cd1 O0 2.223 . S
Cd1 O4 2.297 . S
Cd1 O5 2.439 . S
Cd1 O11 2.240 . S
Cd2 O3 2.240 . S
Cd2 O10 2.223 . S
Cd2 O12 2.297 . S
Cd2 O13 2.439 . S
O3 Cd2 2.240 . S
O3 C8 1.279 . S
O4 Cd1 2.297 . S
O4 C6 1.247 . S
O5 Cd1 2.439 . S
O5 C6 1.208 . S
C6 O4 1.247 . S
C6 O5 1.208 . S
C7 O12 1.247 . S
C7 O13 1.208 . S
C8 O0 1.315 . S
C8 O3 1.279 . S
C9 O10 1.315 . S
C9 O11 1.279 . S
O10 Cd2 2.223 . S
O10 C9 1.315 . S
O11 Cd1 2.240 . S
O11 C9 1.279 . S
O12 Cd2 2.297 . S
O12 C7 1.247 . S
O13 Cd2 2.439 . S
O13 C7 1.208 . S
O14 Cd15 2.223 . S
O14 C22 1.315 . S
Cd15 O14 2.223 . S
Cd15 O18 2.297 . S
Cd15 O19 2.439 . S
Cd15 O25 2.240 . S
Cd16 O17 2.240 . S
Cd16 O24 2.223 . S
Cd16 O26 2.297 . S
Cd16 O27 2.439 . S
O17 Cd16 2.240 . S
O17 C22 1.279 . S
O18 Cd15 2.297 . S
O18 C20 1.247 . S
O19 Cd15 2.439 . S
O19 C20 1.208 . S
C20 O18 1.247 . S
C20 O19 1.208 . S
C21 O26 1.247 . S
C21 O27 1.208 . S
C22 O14 1.315 . S
C22 O17 1.279 . S
C23 O24 1.315 . S
C23 O25 1.279 . S
O24 Cd16 2.223 . S
O24 C23 1.315 . S
O25 Cd15 2.240 . S
O25 C23 1.279 . S
O26 Cd16 2.297 . S
O26 C21 1.247 . S
O27 Cd16 2.439 . S
O27 C21 1.208 . S
O28 Cd29 2.223 . S
O28 C36 1.315 . S
Cd29 O28 2.223 . S
Cd29 O32 2.297 . S
Cd29 O33 2.439 . S
Cd29 O39 2.240 . S
Cd30 O31 2.240 . S
Cd30 O38 2.223 . S
Cd30 O40 2.297 . S
Cd30 O41 2.439 . S
O31 Cd30 2.240 . S
O31 C36 1.279 . S
O32 Cd29 2.297 . S
O32 C34 1.247 . S
O33 Cd29 2.439 . S
O33 C34 1.208 . S
C34 O32 1.247 . S
C34 O33 1.208 . S
C35 O40 1.247 . S
C35 O41 1.208 . S
C36 O28 1.315 . S
C36 O31 1.279 . S
C37 O38 1.315 . S
C37 O39 1.279 . S
O38 Cd30 2.223 . S
O38 C37 1.315 . S
O39 Cd29 2.240 . S
O39 C37 1.279 . S
O40 Cd30 2.297 . S
O40 C35 1.247 . S
O41 Cd30 2.439 . S
O41 C35 1.208 . S
O42 Cd43 2.223 . S
O42 C50 1.315 . S
Cd43 O42 2.223 . S
Cd43 O46 2.297 . S
Cd43 O47 2.439 . S
Cd43 O53 2.240 . S
Cd44 O45 2.240 . S
Cd44 O52 2.223 . S
Cd44 O54 2.297 . S
Cd44 O55 2.439 . S
O45 Cd44 2.240 . S
O45 C50 1.279 . S
O46 Cd43 2.297 . S
O46 C48 1.247 . S
O47 Cd43 2.439 . S
O47 C48 1.208 . S
C48 O46 1.247 . S
C48 O47 1.208 . S
C49 O54 1.247 . S
C49 O55 1.208 . S
C50 O42 1.315 . S
C50 O45 1.279 . S
C51 O52 1.315 . S
C51 O53 1.279 . S
O52 Cd44 2.223 . S
O52 C51 1.315 . S
O53 Cd43 2.240 . S
O53 C51 1.279 . S
O54 Cd44 2.297 . S
O54 C49 1.247 . S
O55 Cd44 2.439 . S
O55 C49 1.208 . S
O56 Cd57 2.223 . S
O56 C64 1.315 . S
Cd57 O56 2.223 . S
Cd57 O60 2.297 . S
Cd57 O61 2.439 . S
Cd57 O67 2.240 . S
Cd58 O59 2.240 . S
Cd58 O66 2.223 . S
Cd58 O68 2.297 . S
Cd58 O69 2.439 . S
O59 Cd58 2.240 . S
O59 C64 1.279 . S
O60 Cd57 2.297 . S
O60 C62 1.247 . S
O61 Cd57 2.439 . S
O61 C62 1.208 . S
C62 O60 1.247 . S
C62 O61 1.208 . S
C63 O68 1.247 . S
C63 O69 1.208 . S
C64 O56 1.315 . S
C64 O59 1.279 . S
C65 O66 1.315 . S
C65 O67 1.279 . S
O66 Cd58 2.223 . S
O66 C65 1.315 . S
O67 Cd57 2.240 . S
O67 C65 1.279 . S
O68 Cd58 2.297 . S
O68 C63 1.247 . S
O69 Cd58 2.439 . S
O69 C63 1.208 . S
O70 Cd71 2.223 . S
O70 C78 1.315 . S
Cd71 O70 2.223 . S
Cd71 O74 2.297 . S
Cd71 O75 2.439 . S
Cd71 O81 2.240 . S
Cd72 O73 2.240 . S
Cd72 O80 2.223 . S
Cd72 O82 2.297 . S
Cd72 O83 2.439 . S
O73 Cd72 2.240 . S
O73 C78 1.279 . S
O74 Cd71 2.297 . S
O74 C76 1.247 . S
O75 Cd71 2.439 . S
O75 C76 1.208 . S
C76 O74 1.247 . S
C76 O75 1.208 . S
C77 O82 1.247 . S
C77 O83 1.208 . S
C78 O70 1.315 . S
C78 O73 1.279 . S
C79 O80 1.315 . S
C79 O81 1.279 . S
O80 Cd72 2.223 . S
O80 C79 1.315 . S
O81 Cd71 2.240 . S
O81 C79 1.279 . S
O82 Cd72 2.297 . S
O82 C77 1.247 . S
O83 Cd72 2.439 . S
O83 C77 1.208 . S
O84 Cd85 2.223 . S
O84 C92 1.315 . S
Cd85 O84 2.223 . S
Cd85 O88 2.297 . S
Cd85 O89 2.439 . S
Cd85 O95 2.240 . S
Cd86 O87 2.240 . S
Cd86 O94 2.223 . S
Cd86 O96 2.297 . S
Cd86 O97 2.439 . S
O87 Cd86 2.240 . S
O87 C92 1.279 . S
O88 Cd85 2.297 . S
O88 C90 1.247 . S
O89 Cd85 2.439 . S
O89 C90 1.208 . S
C90 O88 1.247 . S
C90 O89 1.208 . S
C91 O96 1.247 . S
C91 O97 1.208 . S
C92 O84 1.315 . S
C92 O87 1.279 . S
C93 O94 1.315 . S
C93 O95 1.279 . S
O94 Cd86 2.223 . S
O94 C93 1.315 . S
O95 Cd85 2.240 . S
O95 C93 1.279 . S
O96 Cd86 2.297 . S
O96 C91 1.247 . S
O97 Cd86 2.439 . S
O97 C91 1.208 . S
O98 Cd99 2.223 . S
O98 C106 1.315 . S
Cd99 O98 2.223 . S
Cd99 O102 2.297 . S
Cd99 O103 2.439 . S
Cd99 O109 2.240 . S
Cd100 O101 2.240 . S
Cd100 O108 2.223 . S
Cd100 O110 2.297 . S
Cd100 O111 2.439 . S
O101 Cd100 2.240 . S
O101 C106 1.279 . S
O102 Cd99 2.297 . S
O102 C104 1.247 . S
O103 Cd99 2.439 . S
O103 C104 1.208 . S
C104 O102 1.247 . S
C104 O103 1.208 . S
C105 O110 1.247 . S
C105 O111 1.208 . S
C106 O98 1.315 . S
C106 O101 1.279 . S
C107 O108 1.315 . S
C107 O109 1.279 . S
O108 Cd100 2.223 . S
O108 C107 1.315 . S
O109 Cd99 2.240 . S
O109 C107 1.279 . S
O110 Cd100 2.297 . S
O110 C105 1.247 . S
O111 Cd100 2.439 . S
O111 C105 1.208 . S
O112 Cd113 2.223 . S
O112 C120 1.315 . S
Cd113 O112 2.223 . S
Cd113 O116 2.297 . S
Cd113 O117 2.439 . S
Cd113 O123 2.240 . S
Cd114 O115 2.240 . S
Cd114 O122 2.223 . S
Cd114 O124 2.297 . S
Cd114 O125 2.439 . S
O115 Cd114 2.240 . S
O115 C120 1.279 . S
O116 Cd113 2.297 . S
O116 C118 1.247 . S
O117 Cd113 2.439 . S
O117 C118 1.208 . S
C118 O116 1.247 . S
C118 O117 1.208 . S
C119 O124 1.247 . S
C119 O125 1.208 . S
C120 O112 1.315 . S
C120 O115 1.279 . S
C121 O122 1.315 . S
C121 O123 1.279 . S
O122 Cd114 2.223 . S
O122 C121 1.315 . S
O123 Cd113 2.240 . S
O123 C121 1.279 . S
O124 Cd114 2.297 . S
O124 C119 1.247 . S
O125 Cd114 2.439 . S
O125 C119 1.208 . S
O126 Cd127 2.223 . S
O126 C134 1.315 . S
Cd127 O126 2.223 . S
Cd127 O130 2.297 . S
Cd127 O131 2.439 . S
Cd127 O137 2.240 . S
Cd128 O129 2.240 . S
Cd128 O136 2.223 . S
Cd128 O138 2.297 . S
Cd128 O139 2.439 . S
O129 Cd128 2.240 . S
O129 C134 1.279 . S
O130 Cd127 2.297 . S
O130 C132 1.247 . S
O131 Cd127 2.439 . S
O131 C132 1.208 . S
C132 O130 1.247 . S
C132 O131 1.208 . S
C133 O138 1.247 . S
C133 O139 1.208 . S
C134 O126 1.315 . S
C134 O129 1.279 . S
C135 O136 1.315 . S
C135 O137 1.279 . S
O136 Cd128 2.223 . S
O136 C135 1.315 . S
O137 Cd127 2.240 . S
O137 C135 1.279 . S
O138 Cd128 2.297 . S
O138 C133 1.247 . S
O139 Cd128 2.439 . S
O139 C133 1.208 . S
O140 Cd141 2.223 . S
O140 C148 1.315 . S
Cd141 O140 2.223 . S
Cd141 O144 2.297 . S
Cd141 O145 2.439 . S
Cd141 O151 2.240 . S
Cd142 O143 2.240 . S
Cd142 O150 2.223 . S
Cd142 O152 2.297 . S
Cd142 O153 2.439 . S
O143 Cd142 2.240 . S
O143 C148 1.279 . S
O144 Cd141 2.297 . S
O144 C146 1.247 . S
O145 Cd141 2.439 . S
O145 C146 1.208 . S
C146 O144 1.247 . S
C146 O145 1.208 . S
C147 O152 1.247 . S
C147 O153 1.208 . S
C148 O140 1.315 . S
C148 O143 1.279 . S
C149 O150 1.315 . S
C149 O151 1.279 . S
O150 Cd142 2.223 . S
O150 C149 1.315 . S
O151 Cd141 2.240 . S
O151 C149 1.279 . S
O152 Cd142 2.297 . S
O152 C147 1.247 . S
O153 Cd142 2.439 . S
O153 C147 1.208 . S
O154 Cd155 2.223 . S
O154 C162 1.315 . S
Cd155 O154 2.223 . S
Cd155 O158 2.297 . S
Cd155 O159 2.439 . S
Cd155 O165 2.240 . S
Cd156 O157 2.240 . S
Cd156 O164 2.223 . S
Cd156 O166 2.297 . S
Cd156 O167 2.439 . S
O157 Cd156 2.240 . S
O157 C162 1.279 . S
O158 Cd155 2.297 . S
O158 C160 1.247 . S
O159 Cd155 2.439 . S
O159 C160 1.208 . S
C160 O158 1.247 . S
C160 O159 1.208 . S
C161 O166 1.247 . S
C161 O167 1.208 . S
C162 O154 1.315 . S
C162 O157 1.279 . S
C163 O164 1.315 . S
C163 O165 1.279 . S
O164 Cd156 2.223 . S
O164 C163 1.315 . S
O165 Cd155 2.240 . S
O165 C163 1.279 . S
O166 Cd156 2.297 . S
O166 C161 1.247 . S
O167 Cd156 2.439 . S
O167 C161 1.208 . S
O168 Cd169 2.223 . S
O168 C176 1.315 . S
Cd169 O168 2.223 . S
Cd169 O172 2.297 . S
Cd169 O173 2.439 . S
Cd169 O179 2.240 . S
Cd170 O171 2.240 . S
Cd170 O178 2.223 . S
Cd170 O180 2.297 . S
Cd170 O181 2.439 . S
O171 Cd170 2.240 . S
O171 C176 1.279 . S
O172 Cd169 2.297 . S
O172 C174 1.247 . S
O173 Cd169 2.439 . S
O173 C174 1.208 . S
C174 O172 1.247 . S
C174 O173 1.208 . S
C175 O180 1.247 . S
C175 O181 1.208 . S
C176 O168 1.315 . S
C176 O171 1.279 . S
C177 O178 1.315 . S
C177 O179 1.279 . S
O178 Cd170 2.223 . S
O178 C177 1.315 . S
O179 Cd169 2.240 . S
O179 C177 1.279 . S
O180 Cd170 2.297 . S
O180 C175 1.247 . S
O181 Cd170 2.439 . S
O181 C175 1.208 . S
O182 Cd183 2.223 . S
O182 C190 1.315 . S
Cd183 O182 2.223 . S
Cd183 O186 2.297 . S
Cd183 O187 2.439 . S
Cd183 O193 2.240 . S
Cd184 O185 2.240 . S
Cd184 O192 2.223 . S
Cd184 O194 2.297 . S
Cd184 O195 2.439 . S
O185 Cd184 2.240 . S
O185 C190 1.279 . S
O186 Cd183 2.297 . S
O186 C188 1.247 . S
O187 Cd183 2.439 . S
O187 C188 1.208 . S
C188 O186 1.247 . S
C188 O187 1.208 . S
C189 O194 1.247 . S
C189 O195 1.208 . S
C190 O182 1.315 . S
C190 O185 1.279 . S
C191 O192 1.315 . S
C191 O193 1.279 . S
O192 Cd184 2.223 . S
O192 C191 1.315 . S
O193 Cd183 2.240 . S
O193 C191 1.279 . S
O194 Cd184 2.297 . S
O194 C189 1.247 . S
O195 Cd184 2.439 . S
O195 C189 1.208 . S
O196 Cd197 2.223 . S
O196 C204 1.315 . S
Cd197 O196 2.223 . S
Cd197 O200 2.297 . S
Cd197 O201 2.439 . S
Cd197 O207 2.240 . S
Cd198 O199 2.240 . S
Cd198 O206 2.223 . S
Cd198 O208 2.297 . S
Cd198 O209 2.439 . S
O199 Cd198 2.240 . S
O199 C204 1.279 . S
O200 Cd197 2.297 . S
O200 C202 1.247 . S
O201 Cd197 2.439 . S
O201 C202 1.208 . S
C202 O200 1.247 . S
C202 O201 1.208 . S
C203 O208 1.247 . S
C203 O209 1.208 . S
C204 O196 1.315 . S
C204 O199 1.279 . S
C205 O206 1.315 . S
C205 O207 1.279 . S
O206 Cd198 2.223 . S
O206 C205 1.315 . S
O207 Cd197 2.240 . S
O207 C205 1.279 . S
O208 Cd198 2.297 . S
O208 C203 1.247 . S
O209 Cd198 2.439 . S
O209 C203 1.208 . S
O210 Cd211 2.223 . S
O210 C218 1.315 . S
Cd211 O210 2.223 . S
Cd211 O214 2.297 . S
Cd211 O215 2.439 . S
Cd211 O221 2.240 . S
Cd212 O213 2.240 . S
Cd212 O220 2.223 . S
Cd212 O222 2.297 . S
Cd212 O223 2.439 . S
O213 Cd212 2.240 . S
O213 C218 1.279 . S
O214 Cd211 2.297 . S
O214 C216 1.247 . S
O215 Cd211 2.439 . S
O215 C216 1.208 . S
C216 O214 1.247 . S
C216 O215 1.208 . S
C217 O222 1.247 . S
C217 O223 1.208 . S
C218 O210 1.315 . S
C218 O213 1.279 . S
C219 O220 1.315 . S
C219 O221 1.279 . S
O220 Cd212 2.223 . S
O220 C219 1.315 . S
O221 Cd211 2.240 . S
O221 C219 1.279 . S
O222 Cd212 2.297 . S
O222 C217 1.247 . S
O223 Cd212 2.439 . S
O223 C217 1.208 . S
O224 Cd225 2.223 . S
O224 C232 1.315 . S
Cd225 O224 2.223 . S
Cd225 O228 2.297 . S
Cd225 O229 2.439 . S
Cd225 O235 2.240 . S
Cd226 O227 2.240 . S
Cd226 O234 2.223 . S
Cd226 O236 2.297 . S
Cd226 O237 2.439 . S
O227 Cd226 2.240 . S
O227 C232 1.279 . S
O228 Cd225 2.297 . S
O228 C230 1.247 . S
O229 Cd225 2.439 . S
O229 C230 1.208 . S
C230 O228 1.247 . S
C230 O229 1.208 . S
C231 O236 1.247 . S
C231 O237 1.208 . S
C232 O224 1.315 . S
C232 O227 1.279 . S
C233 O234 1.315 . S
C233 O235 1.279 . S
O234 Cd226 2.223 . S
O234 C233 1.315 . S
O235 Cd225 2.240 . S
O235 C233 1.279 . S
O236 Cd226 2.297 . S
O236 C231 1.247 . S
O237 Cd226 2.439 . S
O237 C231 1.208 . S
O238 Cd239 2.223 . S
O238 C246 1.315 . S
Cd239 O238 2.223 . S
Cd239 O242 2.297 . S
Cd239 O243 2.439 . S
Cd239 O249 2.240 . S
Cd240 O241 2.240 . S
Cd240 O248 2.223 . S
Cd240 O250 2.297 . S
Cd240 O251 2.439 . S
O241 Cd240 2.240 . S
O241 C246 1.279 . S
O242 Cd239 2.297 . S
O242 C244 1.247 . S
O243 Cd239 2.439 . S
O243 C244 1.208 . S
C244 O242 1.247 . S
C244 O243 1.208 . S
C245 O250 1.247 . S
C245 O251 1.208 . S
C246 O238 1.315 . S
C246 O241 1.279 . S
C247 O248 1.315 . S
C247 O249 1.279 . S
O248 Cd240 2.223 . S
O248 C247 1.315 . S
O249 Cd239 2.240 . S
O249 C247 1.279 . S
O250 Cd240 2.297 . S
O250 C245 1.247 . S
O251 Cd240 2.439 . S
O251 C245 1.208 . S
O252 Cd253 2.223 . S
O252 C260 1.315 . S
Cd253 O252 2.223 . S
Cd253 O256 2.297 . S
Cd253 O257 2.439 . S
Cd253 O263 2.240 . S
Cd254 O255 2.240 . S
Cd254 O262 2.223 . S
Cd254 O264 2.297 . S
Cd254 O265 2.439 . S
O255 Cd254 2.240 . S
O255 C260 1.279 . S
O256 Cd253 2.297 . S
O256 C258 1.247 . S
O257 Cd253 2.439 . S
O257 C258 1.208 . S
C258 O256 1.247 . S
C258 O257 1.208 . S
C259 O264 1.247 . S
C259 O265 1.208 . S
C260 O252 1.315 . S
C260 O255 1.279 . S
C261 O262 1.315 . S
C261 O263 1.279 . S
O262 Cd254 2.223 . S
O262 C261 1.315 . S
O263 Cd253 2.240 . S
O263 C261 1.279 . S
O264 Cd254 2.297 . S
O264 C259 1.247 . S
O265 Cd254 2.439 . S
O265 C259 1.208 . S
O266 Cd267 2.223 . S
O266 C274 1.315 . S
Cd267 O266 2.223 . S
Cd267 O270 2.297 . S
Cd267 O271 2.439 . S
Cd267 O277 2.240 . S
Cd268 O269 2.240 . S
Cd268 O276 2.223 . S
Cd268 O278 2.297 . S
Cd268 O279 2.439 . S
O269 Cd268 2.240 . S
O269 C274 1.279 . S
O270 Cd267 2.297 . S
O270 C272 1.247 . S
O271 Cd267 2.439 . S
O271 C272 1.208 . S
C272 O270 1.247 . S
C272 O271 1.208 . S
C273 O278 1.247 . S
C273 O279 1.208 . S
C274 O266 1.315 . S
C274 O269 1.279 . S
C275 O276 1.315 . S
C275 O277 1.279 . S
O276 Cd268 2.223 . S
O276 C275 1.315 . S
O277 Cd267 2.240 . S
O277 C275 1.279 . S
O278 Cd268 2.297 . S
O278 C273 1.247 . S
O279 Cd268 2.439 . S
O279 C273 1.208 . S
O280 Cd281 2.223 . S
O280 C288 1.315 . S
Cd281 O280 2.223 . S
Cd281 O284 2.297 . S
Cd281 O285 2.439 . S
Cd281 O291 2.240 . S
Cd282 O283 2.240 . S
Cd282 O290 2.223 . S
Cd282 O292 2.297 . S
Cd282 O293 2.439 . S
O283 Cd282 2.240 . S
O283 C288 1.279 . S
O284 Cd281 2.297 . S
O284 C286 1.247 . S
O285 Cd281 2.439 . S
O285 C286 1.208 . S
C286 O284 1.247 . S
C286 O285 1.208 . S
C287 O292 1.247 . S
C287 O293 1.208 . S
C288 O280 1.315 . S
C288 O283 1.279 . S
C289 O290 1.315 . S
C289 O291 1.279 . S
O290 Cd282 2.223 . S
O290 C289 1.315 . S
O291 Cd281 2.240 . S
O291 C289 1.279 . S
O292 Cd282 2.297 . S
O292 C287 1.247 . S
O293 Cd282 2.439 . S
O293 C287 1.208 . S
O294 Cd295 2.223 . S
O294 C302 1.315 . S
Cd295 O294 2.223 . S
Cd295 O298 2.297 . S
Cd295 O299 2.439 . S
Cd295 O305 2.240 . S
Cd296 O297 2.240 . S
Cd296 O304 2.223 . S
Cd296 O306 2.297 . S
Cd296 O307 2.439 . S
O297 Cd296 2.240 . S
O297 C302 1.279 . S
O298 Cd295 2.297 . S
O298 C300 1.247 . S
O299 Cd295 2.439 . S
O299 C300 1.208 . S
C300 O298 1.247 . S
C300 O299 1.208 . S
C301 O306 1.247 . S
C301 O307 1.208 . S
C302 O294 1.315 . S
C302 O297 1.279 . S
C303 O304 1.315 . S
C303 O305 1.279 . S
O304 Cd296 2.223 . S
O304 C303 1.315 . S
O305 Cd295 2.240 . S
O305 C303 1.279 . S
O306 Cd296 2.297 . S
O306 C301 1.247 . S
O307 Cd296 2.439 . S
O307 C301 1.208 . S
O308 Cd309 2.223 . S
O308 C316 1.315 . S
Cd309 O308 2.223 . S
Cd309 O312 2.297 . S
Cd309 O313 2.439 . S
Cd309 O319 2.240 . S
Cd310 O311 2.240 . S
Cd310 O318 2.223 . S
Cd310 O320 2.297 . S
Cd310 O321 2.439 . S
O311 Cd310 2.240 . S
O311 C316 1.279 . S
O312 Cd309 2.297 . S
O312 C314 1.247 . S
O313 Cd309 2.439 . S
O313 C314 1.208 . S
C314 O312 1.247 . S
C314 O313 1.208 . S
C315 O320 1.247 . S
C315 O321 1.208 . S
C316 O308 1.315 . S
C316 O311 1.279 . S
C317 O318 1.315 . S
C317 O319 1.279 . S
O318 Cd310 2.223 . S
O318 C317 1.315 . S
O319 Cd309 2.240 . S
O319 C317 1.279 . S
O320 Cd310 2.297 . S
O320 C315 1.247 . S
O321 Cd310 2.439 . S
O321 C315 1.208 . S
O322 Cd323 2.223 . S
O322 C330 1.315 . S
Cd323 O322 2.223 . S
Cd323 O326 2.297 . S
Cd323 O327 2.439 . S
Cd323 O333 2.240 . S
Cd324 O325 2.240 . S
Cd324 O332 2.223 . S
Cd324 O334 2.297 . S
Cd324 O335 2.439 . S
O325 Cd324 2.240 . S
O325 C330 1.279 . S
O326 Cd323 2.297 . S
O326 C328 1.247 . S
O327 Cd323 2.439 . S
O327 C328 1.208 . S
C328 O326 1.247 . S
C328 O327 1.208 . S
C329 O334 1.247 . S
C329 O335 1.208 . S
C330 O322 1.315 . S
C330 O325 1.279 . S
C331 O332 1.315 . S
C331 O333 1.279 . S
O332 Cd324 2.223 . S
O332 C331 1.315 . S
O333 Cd323 2.240 . S
O333 C331 1.279 . S
O334 Cd324 2.297 . S
O334 C329 1.247 . S
O335 Cd324 2.439 . S
O335 C329 1.208 . S
C336 C337 1.349 . S
C336 C338 1.327 . S
C336 H361 0.950 . S
C337 C336 1.349 . S
C337 C353 1.349 . S
C338 C336 1.327 . S
C338 C357 1.429 . S
C338 H362 0.950 . S
C339 C356 1.574 . S
C339 C358 1.368 . S
C339 H363 0.949 . S
H340 C344 0.949 . S
C341 C342 1.349 . S
C341 C343 1.327 . S
C341 H364 0.950 . S
C342 C341 1.349 . S
C342 C354 1.349 . S
C343 C341 1.327 . S
C343 C359 1.429 . S
C343 H365 0.950 . S
C344 H340 0.949 . S
C344 C352 1.574 . S
C344 C360 1.368 . S
H345 C353 0.950 . S
H346 C351 0.950 . S
H347 C352 0.949 . S
H348 C354 0.950 . S
H349 C355 0.950 . S
H350 C356 0.949 . S
C351 H346 0.950 . S
C351 C353 1.327 . S
C351 C357 1.429 . S
C352 C344 1.574 . S
C352 H347 0.949 . S
C352 C358 1.368 . S
C353 C337 1.349 . S
C353 H345 0.950 . S
C353 C351 1.327 . S
C354 C342 1.349 . S
C354 H348 0.950 . S
C354 C355 1.327 . S
C355 H349 0.950 . S
C355 C354 1.327 . S
C355 C359 1.429 . S
C356 C339 1.574 . S
C356 H350 0.949 . S
C356 C360 1.368 . S
C357 C338 1.429 . S
C357 C351 1.429 . S
C357 C358 1.523 . S
C358 C339 1.368 . S
C358 C352 1.368 . S
C358 C357 1.523 . S
C359 C343 1.429 . S
C359 C355 1.429 . S
C359 C360 1.523 . S
C360 C344 1.368 . S
C360 C356 1.368 . S
C360 C359 1.523 . S
H361 C336 0.950 . S
H362 C338 0.950 . S
H363 C339 0.949 . S
H364 C341 0.950 . S
H365 C343 0.950 . S
C366 C367 1.349 . S
C366 C368 1.327 . S
C366 H391 0.950 . S
C367 C366 1.349 . S
C367 C383 1.349 . S
C368 C366 1.327 . S
C368 C387 1.429 . S
C368 H392 0.950 . S
C369 C386 1.574 . S
C369 C388 1.368 . S
C369 H393 0.949 . S
H370 C374 0.949 . S
C371 C372 1.349 . S
C371 C373 1.327 . S
C371 H394 0.950 . S
C372 C371 1.349 . S
C372 C384 1.349 . S
C373 C371 1.327 . S
C373 C389 1.429 . S
C373 H395 0.950 . S
C374 H370 0.949 . S
C374 C382 1.574 . S
C374 C390 1.368 . S
H375 C383 0.950 . S
H376 C381 0.950 . S
H377 C382 0.949 . S
H378 C384 0.950 . S
H379 C385 0.950 . S
H380 C386 0.949 . S
C381 H376 0.950 . S
C381 C383 1.327 . S
C381 C387 1.429 . S
C382 C374 1.574 . S
C382 H377 0.949 . S
C382 C388 1.368 . S
C383 C367 1.349 . S
C383 H375 0.950 . S
C383 C381 1.327 . S
C384 C372 1.349 . S
C384 H378 0.950 . S
C384 C385 1.327 . S
C385 H379 0.950 . S
C385 C384 1.327 . S
C385 C389 1.429 . S
C386 C369 1.574 . S
C386 H380 0.949 . S
C386 C390 1.368 . S
C387 C368 1.429 . S
C387 C381 1.429 . S
C387 C388 1.523 . S
C388 C369 1.368 . S
C388 C382 1.368 . S
C388 C387 1.523 . S
C389 C373 1.429 . S
C389 C385 1.429 . S
C389 C390 1.523 . S
C390 C374 1.368 . S
C390 C386 1.368 . S
C390 C389 1.523 . S
H391 C366 0.950 . S
H392 C368 0.950 . S
H393 C369 0.949 . S
H394 C371 0.950 . S
H395 C373 0.950 . S
C396 C397 1.349 . S
C396 C398 1.327 . S
C396 H421 0.950 . S
C397 C396 1.349 . S
C397 C413 1.349 . S
C398 C396 1.327 . S
C398 C417 1.429 . S
C398 H422 0.950 . S
C399 C416 1.574 . S
C399 C418 1.368 . S
C399 H423 0.949 . S
H400 C404 0.949 . S
C401 C402 1.349 . S
C401 C403 1.327 . S
C401 H424 0.950 . S
C402 C401 1.349 . S
C402 C414 1.349 . S
C403 C401 1.327 . S
C403 C419 1.429 . S
C403 H425 0.950 . S
C404 H400 0.949 . S
C404 C412 1.574 . S
C404 C420 1.368 . S
H405 C413 0.950 . S
H406 C411 0.950 . S
H407 C412 0.949 . S
H408 C414 0.950 . S
H409 C415 0.950 . S
H410 C416 0.949 . S
C411 H406 0.950 . S
C411 C413 1.327 . S
C411 C417 1.429 . S
C412 C404 1.574 . S
C412 H407 0.949 . S
C412 C418 1.368 . S
C413 C397 1.349 . S
C413 H405 0.950 . S
C413 C411 1.327 . S
C414 C402 1.349 . S
C414 H408 0.950 . S
C414 C415 1.327 . S
C415 H409 0.950 . S
C415 C414 1.327 . S
C415 C419 1.429 . S
C416 C399 1.574 . S
C416 H410 0.949 . S
C416 C420 1.368 . S
C417 C398 1.429 . S
C417 C411 1.429 . S
C417 C418 1.523 . S
C418 C399 1.368 . S
C418 C412 1.368 . S
C418 C417 1.523 . S
C419 C403 1.429 . S
C419 C415 1.429 . S
C419 C420 1.523 . S
C420 C404 1.368 . S
C420 C416 1.368 . S
C420 C419 1.523 . S
H421 C396 0.950 . S
H422 C398 0.950 . S
H423 C399 0.949 . S
H424 C401 0.950 . S
H425 C403 0.950 . S
C426 C427 1.349 . S
C426 C428 1.327 . S
C426 H451 0.950 . S
C427 C426 1.349 . S
C427 C443 1.349 . S
C428 C426 1.327 . S
C428 C447 1.429 . S
C428 H452 0.950 . S
C429 C446 1.574 . S
C429 C448 1.368 . S
C429 H453 0.949 . S
H430 C434 0.949 . S
C431 C432 1.349 . S
C431 C433 1.327 . S
C431 H454 0.950 . S
C432 C431 1.349 . S
C432 C444 1.349 . S
C433 C431 1.327 . S
C433 C449 1.429 . S
C433 H455 0.950 . S
C434 H430 0.949 . S
C434 C442 1.574 . S
C434 C450 1.368 . S
H435 C443 0.950 . S
H436 C441 0.950 . S
H437 C442 0.949 . S
H438 C444 0.950 . S
H439 C445 0.950 . S
H440 C446 0.949 . S
C441 H436 0.950 . S
C441 C443 1.327 . S
C441 C447 1.429 . S
C442 C434 1.574 . S
C442 H437 0.949 . S
C442 C448 1.368 . S
C443 C427 1.349 . S
C443 H435 0.950 . S
C443 C441 1.327 . S
C444 C432 1.349 . S
C444 H438 0.950 . S
C444 C445 1.327 . S
C445 H439 0.950 . S
C445 C444 1.327 . S
C445 C449 1.429 . S
C446 C429 1.574 . S
C446 H440 0.949 . S
C446 C450 1.368 . S
C447 C428 1.429 . S
C447 C441 1.429 . S
C447 C448 1.523 . S
C448 C429 1.368 . S
C448 C442 1.368 . S
C448 C447 1.523 . S
C449 C433 1.429 . S
C449 C445 1.429 . S
C449 C450 1.523 . S
C450 C434 1.368 . S
C450 C446 1.368 . S
C450 C449 1.523 . S
H451 C426 0.950 . S
H452 C428 0.950 . S
H453 C429 0.949 . S
H454 C431 0.950 . S
H455 C433 0.950 . S
C456 C457 1.349 . S
C456 C458 1.327 . S
C456 H481 0.950 . S
C457 C456 1.349 . S
C457 C473 1.349 . S
C458 C456 1.327 . S
C458 C477 1.429 . S
C458 H482 0.950 . S
C459 C476 1.574 . S
C459 C478 1.368 . S
C459 H483 0.949 . S
H460 C464 0.949 . S
C461 C462 1.349 . S
C461 C463 1.327 . S
C461 H484 0.950 . S
C462 C461 1.349 . S
C462 C474 1.349 . S
C463 C461 1.327 . S
C463 C479 1.429 . S
C463 H485 0.950 . S
C464 H460 0.949 . S
C464 C472 1.574 . S
C464 C480 1.368 . S
H465 C473 0.950 . S
H466 C471 0.950 . S
H467 C472 0.949 . S
H468 C474 0.950 . S
H469 C475 0.950 . S
H470 C476 0.949 . S
C471 H466 0.950 . S
C471 C473 1.327 . S
C471 C477 1.429 . S
C472 C464 1.574 . S
C472 H467 0.949 . S
C472 C478 1.368 . S
C473 C457 1.349 . S
C473 H465 0.950 . S
C473 C471 1.327 . S
C474 C462 1.349 . S
C474 H468 0.950 . S
C474 C475 1.327 . S
C475 H469 0.950 . S
C475 C474 1.327 . S
C475 C479 1.429 . S
C476 C459 1.574 . S
C476 H470 0.949 . S
C476 C480 1.368 . S
C477 C458 1.429 . S
C477 C471 1.429 . S
C477 C478 1.523 . S
C478 C459 1.368 . S
C478 C472 1.368 . S
C478 C477 1.523 . S
C479 C463 1.429 . S
C479 C475 1.429 . S
C479 C480 1.523 . S
C480 C464 1.368 . S
C480 C476 1.368 . S
C480 C479 1.523 . S
H481 C456 0.950 . S
H482 C458 0.950 . S
H483 C459 0.949 . S
H484 C461 0.950 . S
H485 C463 0.950 . S
C486 C487 1.349 . S
C486 C488 1.327 . S
C486 H511 0.950 . S
C487 C486 1.349 . S
C487 C503 1.349 . S
C488 C486 1.327 . S
C488 C507 1.429 . S
C488 H512 0.950 . S
C489 C506 1.574 . S
C489 C508 1.368 . S
C489 H513 0.949 . S
H490 C494 0.949 . S
C491 C492 1.349 . S
C491 C493 1.327 . S
C491 H514 0.950 . S
C492 C491 1.349 . S
C492 C504 1.349 . S
C493 C491 1.327 . S
C493 C509 1.429 . S
C493 H515 0.950 . S
C494 H490 0.949 . S
C494 C502 1.574 . S
C494 C510 1.368 . S
H495 C503 0.950 . S
H496 C501 0.950 . S
H497 C502 0.949 . S
H498 C504 0.950 . S
H499 C505 0.950 . S
H500 C506 0.949 . S
C501 H496 0.950 . S
C501 C503 1.327 . S
C501 C507 1.429 . S
C502 C494 1.574 . S
C502 H497 0.949 . S
C502 C508 1.368 . S
C503 C487 1.349 . S
C503 H495 0.950 . S
C503 C501 1.327 . S
C504 C492 1.349 . S
C504 H498 0.950 . S
C504 C505 1.327 . S
C505 H499 0.950 . S
C505 C504 1.327 . S
C505 C509 1.429 . S
C506 C489 1.574 . S
C506 H500 0.949 . S
C506 C510 1.368 . S
C507 C488 1.429 . S
C507 C501 1.429 . S
C507 C508 1.523 . S
C508 C489 1.368 . S
C508 C502 1.368 . S
C508 C507 1.523 . S
C509 C493 1.429 . S
C509 C505 1.429 . S
C509 C510 1.523 . S
C510 C494 1.368 . S
C510 C506 1.368 . S
C510 C509 1.523 . S
H511 C486 0.950 . S
H512 C488 0.950 . S
H513 C489 0.949 . S
H514 C491 0.950 . S
H515 C493 0.950 . S
C516 C517 1.349 . S
C516 C518 1.327 . S
C516 H541 0.950 . S
C517 C516 1.349 . S
C517 C533 1.349 . S
C518 C516 1.327 . S
C518 C537 1.429 . S
C518 H542 0.950 . S
C519 C536 1.574 . S
C519 C538 1.368 . S
C519 H543 0.949 . S
H520 C524 0.949 . S
C521 C522 1.349 . S
C521 C523 1.327 . S
C521 H544 0.950 . S
C522 C521 1.349 . S
C522 C534 1.349 . S
C523 C521 1.327 . S
C523 C539 1.429 . S
C523 H545 0.950 . S
C524 H520 0.949 . S
C524 C532 1.574 . S
C524 C540 1.368 . S
H525 C533 0.950 . S
H526 C531 0.950 . S
H527 C532 0.949 . S
H528 C534 0.950 . S
H529 C535 0.950 . S
H530 C536 0.949 . S
C531 H526 0.950 . S
C531 C533 1.327 . S
C531 C537 1.429 . S
C532 C524 1.574 . S
C532 H527 0.949 . S
C532 C538 1.368 . S
C533 C517 1.349 . S
C533 H525 0.950 . S
C533 C531 1.327 . S
C534 C522 1.349 . S
C534 H528 0.950 . S
C534 C535 1.327 . S
C535 H529 0.950 . S
C535 C534 1.327 . S
C535 C539 1.429 . S
C536 C519 1.574 . S
C536 H530 0.949 . S
C536 C540 1.368 . S
C537 C518 1.429 . S
C537 C531 1.429 . S
C537 C538 1.523 . S
C538 C519 1.368 . S
C538 C532 1.368 . S
C538 C537 1.523 . S
C539 C523 1.429 . S
C539 C535 1.429 . S
C539 C540 1.523 . S
C540 C524 1.368 . S
C540 C536 1.368 . S
C540 C539 1.523 . S
H541 C516 0.950 . S
H542 C518 0.950 . S
H543 C519 0.949 . S
H544 C521 0.950 . S
H545 C523 0.950 . S
C546 C547 1.349 . S
C546 C548 1.327 . S
C546 H571 0.950 . S
C547 C546 1.349 . S
C547 C563 1.349 . S
C548 C546 1.327 . S
C548 C567 1.429 . S
C548 H572 0.950 . S
C549 C566 1.574 . S
C549 C568 1.368 . S
C549 H573 0.949 . S
H550 C554 0.949 . S
C551 C552 1.349 . S
C551 C553 1.327 . S
C551 H574 0.950 . S
C552 C551 1.349 . S
C552 C564 1.349 . S
C553 C551 1.327 . S
C553 C569 1.429 . S
C553 H575 0.950 . S
C554 H550 0.949 . S
C554 C562 1.574 . S
C554 C570 1.368 . S
H555 C563 0.950 . S
H556 C561 0.950 . S
H557 C562 0.949 . S
H558 C564 0.950 . S
H559 C565 0.950 . S
H560 C566 0.949 . S
C561 H556 0.950 . S
C561 C563 1.327 . S
C561 C567 1.429 . S
C562 C554 1.574 . S
C562 H557 0.949 . S
C562 C568 1.368 . S
C563 C547 1.349 . S
C563 H555 0.950 . S
C563 C561 1.327 . S
C564 C552 1.349 . S
C564 H558 0.950 . S
C564 C565 1.327 . S
C565 H559 0.950 . S
C565 C564 1.327 . S
C565 C569 1.429 . S
C566 C549 1.574 . S
C566 H560 0.949 . S
C566 C570 1.368 . S
C567 C548 1.429 . S
C567 C561 1.429 . S
C567 C568 1.523 . S
C568 C549 1.368 . S
C568 C562 1.368 . S
C568 C567 1.523 . S
C569 C553 1.429 . S
C569 C565 1.429 . S
C569 C570 1.523 . S
C570 C554 1.368 . S
C570 C566 1.368 . S
C570 C569 1.523 . S
H571 C546 0.950 . S
H572 C548 0.950 . S
H573 C549 0.949 . S
H574 C551 0.950 . S
H575 C553 0.950 . S
C576 C577 1.349 . S
C576 C578 1.327 . S
C576 H601 0.950 . S
C577 C576 1.349 . S
C577 C593 1.349 . S
C578 C576 1.327 . S
C578 C597 1.429 . S
C578 H602 0.950 . S
C579 C596 1.574 . S
C579 C598 1.368 . S
C579 H603 0.949 . S
H580 C584 0.949 . S
C581 C582 1.349 . S
C581 C583 1.327 . S
C581 H604 0.950 . S
C582 C581 1.349 . S
C582 C594 1.349 . S
C583 C581 1.327 . S
C583 C599 1.429 . S
C583 H605 0.950 . S
C584 H580 0.949 . S
C584 C592 1.574 . S
C584 C600 1.368 . S
H585 C593 0.950 . S
H586 C591 0.950 . S
H587 C592 0.949 . S
H588 C594 0.950 . S
H589 C595 0.950 . S
H590 C596 0.949 . S
C591 H586 0.950 . S
C591 C593 1.327 . S
C591 C597 1.429 . S
C592 C584 1.574 . S
C592 H587 0.949 . S
C592 C598 1.368 . S
C593 C577 1.349 . S
C593 H585 0.950 . S
C593 C591 1.327 . S
C594 C582 1.349 . S
C594 H588 0.950 . S
C594 C595 1.327 . S
C595 H589 0.950 . S
C595 C594 1.327 . S
C595 C599 1.429 . S
C596 C579 1.574 . S
C596 H590 0.949 . S
C596 C600 1.368 . S
C597 C578 1.429 . S
C597 C591 1.429 . S
C597 C598 1.523 . S
C598 C579 1.368 . S
C598 C592 1.368 . S
C598 C597 1.523 . S
C599 C583 1.429 . S
C599 C595 1.429 . S
C599 C600 1.523 . S
C600 C584 1.368 . S
C600 C596 1.368 . S
C600 C599 1.523 . S
H601 C576 0.950 . S
H602 C578 0.950 . S
H603 C579 0.949 . S
H604 C581 0.950 . S
H605 C583 0.950 . S
C606 C607 1.349 . S
C606 C608 1.327 . S
C606 H631 0.950 . S
C607 C606 1.349 . S
C607 C623 1.349 . S
C608 C606 1.327 . S
C608 C627 1.429 . S
C608 H632 0.950 . S
C609 C626 1.574 . S
C609 C628 1.368 . S
C609 H633 0.949 . S
H610 C614 0.949 . S
C611 C612 1.349 . S
C611 C613 1.327 . S
C611 H634 0.950 . S
C612 C611 1.349 . S
C612 C624 1.349 . S
C613 C611 1.327 . S
C613 C629 1.429 . S
C613 H635 0.950 . S
C614 H610 0.949 . S
C614 C622 1.574 . S
C614 C630 1.368 . S
H615 C623 0.950 . S
H616 C621 0.950 . S
H617 C622 0.949 . S
H618 C624 0.950 . S
H619 C625 0.950 . S
H620 C626 0.949 . S
C621 H616 0.950 . S
C621 C623 1.327 . S
C621 C627 1.429 . S
C622 C614 1.574 . S
C622 H617 0.949 . S
C622 C628 1.368 . S
C623 C607 1.349 . S
C623 H615 0.950 . S
C623 C621 1.327 . S
C624 C612 1.349 . S
C624 H618 0.950 . S
C624 C625 1.327 . S
C625 H619 0.950 . S
C625 C624 1.327 . S
C625 C629 1.429 . S
C626 C609 1.574 . S
C626 H620 0.949 . S
C626 C630 1.368 . S
C627 C608 1.429 . S
C627 C621 1.429 . S
C627 C628 1.523 . S
C628 C609 1.368 . S
C628 C622 1.368 . S
C628 C627 1.523 . S
C629 C613 1.429 . S
C629 C625 1.429 . S
C629 C630 1.523 . S
C630 C614 1.368 . S
C630 C626 1.368 . S
C630 C629 1.523 . S
H631 C606 0.950 . S
H632 C608 0.950 . S
H633 C609 0.949 . S
H634 C611 0.950 . S
H635 C613 0.950 . S
C636 C637 1.349 . S
C636 C638 1.327 . S
C636 H661 0.950 . S
C637 C636 1.349 . S
C637 C653 1.349 . S
C638 C636 1.327 . S
C638 C657 1.429 . S
C638 H662 0.950 . S
C639 C656 1.574 . S
C639 C658 1.368 . S
C639 H663 0.949 . S
H640 C644 0.949 . S
C641 C642 1.349 . S
C641 C643 1.327 . S
C641 H664 0.950 . S
C642 C641 1.349 . S
C642 C654 1.349 . S
C643 C641 1.327 . S
C643 C659 1.429 . S
C643 H665 0.950 . S
C644 H640 0.949 . S
C644 C652 1.574 . S
C644 C660 1.368 . S
H645 C653 0.950 . S
H646 C651 0.950 . S
H647 C652 0.949 . S
H648 C654 0.950 . S
H649 C655 0.950 . S
H650 C656 0.949 . S
C651 H646 0.950 . S
C651 C653 1.327 . S
C651 C657 1.429 . S
C652 C644 1.574 . S
C652 H647 0.949 . S
C652 C658 1.368 . S
C653 C637 1.349 . S
C653 H645 0.950 . S
C653 C651 1.327 . S
C654 C642 1.349 . S
C654 H648 0.950 . S
C654 C655 1.327 . S
C655 H649 0.950 . S
C655 C654 1.327 . S
C655 C659 1.429 . S
C656 C639 1.574 . S
C656 H650 0.949 . S
C656 C660 1.368 . S
C657 C638 1.429 . S
C657 C651 1.429 . S
C657 C658 1.523 . S
C658 C639 1.368 . S
C658 C652 1.368 . S
C658 C657 1.523 . S
C659 C643 1.429 . S
C659 C655 1.429 . S
C659 C660 1.523 . S
C660 C644 1.368 . S
C660 C656 1.368 . S
C660 C659 1.523 . S
H661 C636 0.950 . S
H662 C638 0.950 . S
H663 C639 0.949 . S
H664 C641 0.950 . S
H665 C643 0.950 . S
C666 C667 1.349 . S
C666 C668 1.327 . S
C666 H691 0.950 . S
C667 C666 1.349 . S
C667 C683 1.349 . S
C668 C666 1.327 . S
C668 C687 1.429 . S
C668 H692 0.950 . S
C669 C686 1.574 . S
C669 C688 1.368 . S
C669 H693 0.949 . S
H670 C674 0.949 . S
C671 C672 1.349 . S
C671 C673 1.327 . S
C671 H694 0.950 . S
C672 C671 1.349 . S
C672 C684 1.349 . S
C673 C671 1.327 . S
C673 C689 1.429 . S
C673 H695 0.950 . S
C674 H670 0.949 . S
C674 C682 1.574 . S
C674 C690 1.368 . S
H675 C683 0.950 . S
H676 C681 0.950 . S
H677 C682 0.949 . S
H678 C684 0.950 . S
H679 C685 0.950 . S
H680 C686 0.949 . S
C681 H676 0.950 . S
C681 C683 1.327 . S
C681 C687 1.429 . S
C682 C674 1.574 . S
C682 H677 0.949 . S
C682 C688 1.368 . S
C683 C667 1.349 . S
C683 H675 0.950 . S
C683 C681 1.327 . S
C684 C672 1.349 . S
C684 H678 0.950 . S
C684 C685 1.327 . S
C685 H679 0.950 . S
C685 C684 1.327 . S
C685 C689 1.429 . S
C686 C669 1.574 . S
C686 H680 0.949 . S
C686 C690 1.368 . S
C687 C668 1.429 . S
C687 C681 1.429 . S
C687 C688 1.523 . S
C688 C669 1.368 . S
C688 C682 1.368 . S
C688 C687 1.523 . S
C689 C673 1.429 . S
C689 C685 1.429 . S
C689 C690 1.523 . S
C690 C674 1.368 . S
C690 C686 1.368 . S
C690 C689 1.523 . S
H691 C666 0.950 . S
H692 C668 0.950 . S
H693 C669 0.949 . S
H694 C671 0.950 . S
H695 C673 0.950 . S
C696 C697 1.349 . S
C696 C698 1.327 . S
C696 H721 0.950 . S
C697 C696 1.349 . S
C697 C713 1.349 . S
C698 C696 1.327 . S
C698 C717 1.429 . S
C698 H722 0.950 . S
C699 C716 1.574 1_565 S
C699 C718 1.368 . S
C699 H723 0.949 . S
H700 C704 0.949 . S
C701 C702 1.349 . S
C701 C703 1.327 . S
C701 H724 0.950 . S
C702 C701 1.349 . S
C702 C714 1.349 . S
C703 C701 1.327 . S
C703 C719 1.429 . S
C703 H725 0.950 . S
C704 H700 0.949 . S
C704 C712 1.574 1_545 S
C704 C720 1.368 . S
H705 C713 0.950 . S
H706 C711 0.950 . S
H707 C712 0.949 . S
H708 C714 0.950 . S
H709 C715 0.950 . S
H710 C716 0.949 . S
C711 H706 0.950 . S
C711 C713 1.327 . S
C711 C717 1.429 . S
C712 C704 1.574 1_565 S
C712 H707 0.949 . S
C712 C718 1.368 . S
C713 C697 1.349 . S
C713 H705 0.950 . S
C713 C711 1.327 . S
C714 C702 1.349 . S
C714 H708 0.950 . S
C714 C715 1.327 . S
C715 H709 0.950 . S
C715 C714 1.327 . S
C715 C719 1.429 . S
C716 C699 1.574 1_545 S
C716 H710 0.949 . S
C716 C720 1.368 . S
C717 C698 1.429 . S
C717 C711 1.429 . S
C717 C718 1.523 . S
C718 C699 1.368 . S
C718 C712 1.368 . S
C718 C717 1.523 . S
C719 C703 1.429 . S
C719 C715 1.429 . S
C719 C720 1.523 . S
C720 C704 1.368 . S
C720 C716 1.368 . S
C720 C719 1.523 . S
H721 C696 0.950 . S
H722 C698 0.950 . S
H723 C699 0.949 . S
H724 C701 0.950 . S
H725 C703 0.950 . S
C726 C727 1.349 . S
C726 C728 1.327 . S
C726 H751 0.950 . S
C727 C726 1.349 . S
C727 C743 1.349 . S
C728 C726 1.327 . S
C728 C747 1.429 . S
C728 H752 0.950 . S
C729 C746 1.574 1_655 S
C729 C748 1.368 . S
C729 H753 0.949 . S
H730 C734 0.949 . S
C731 C732 1.349 . S
C731 C733 1.327 . S
C731 H754 0.950 . S
C732 C731 1.349 . S
C732 C744 1.349 . S
C733 C731 1.327 . S
C733 C749 1.429 . S
C733 H755 0.950 . S
C734 H730 0.949 . S
C734 C742 1.574 1_455 S
C734 C750 1.368 . S
H735 C743 0.950 . S
H736 C741 0.950 . S
H737 C742 0.949 . S
H738 C744 0.950 . S
H739 C745 0.950 . S
H740 C746 0.949 . S
C741 H736 0.950 . S
C741 C743 1.327 . S
C741 C747 1.429 . S
C742 C734 1.574 1_655 S
C742 H737 0.949 . S
C742 C748 1.368 . S
C743 C727 1.349 . S
C743 H735 0.950 . S
C743 C741 1.327 . S
C744 C732 1.349 . S
C744 H738 0.950 . S
C744 C745 1.327 . S
C745 H739 0.950 . S
C745 C744 1.327 . S
C745 C749 1.429 . S
C746 C729 1.574 1_455 S
C746 H740 0.949 . S
C746 C750 1.368 . S
C747 C728 1.429 . S
C747 C741 1.429 . S
C747 C748 1.523 . S
C748 C729 1.368 . S
C748 C742 1.368 . S
C748 C747 1.523 . S
C749 C733 1.429 . S
C749 C745 1.429 . S
C749 C750 1.523 . S
C750 C734 1.368 . S
C750 C746 1.368 . S
C750 C749 1.523 . S
H751 C726 0.950 . S
H752 C728 0.950 . S
H753 C729 0.949 . S
H754 C731 0.950 . S
H755 C733 0.950 . S
C756 C757 1.349 . S
C756 C758 1.327 . S
C756 H781 0.950 . S
C757 C756 1.349 . S
C757 C773 1.349 . S
C758 C756 1.327 . S
C758 C777 1.429 . S
C758 H782 0.950 . S
C759 C776 1.574 1_545 S
C759 C778 1.368 . S
C759 H783 0.949 . S
H760 C764 0.949 . S
C761 C762 1.349 . S
C761 C763 1.327 . S
C761 H784 0.950 . S
C762 C761 1.349 . S
C762 C774 1.349 . S
C763 C761 1.327 . S
C763 C779 1.429 . S
C763 H785 0.950 . S
C764 H760 0.949 . S
C764 C772 1.574 1_565 S
C764 C780 1.368 . S
H765 C773 0.950 . S
H766 C771 0.950 . S
H767 C772 0.949 . S
H768 C774 0.950 . S
H769 C775 0.950 . S
H770 C776 0.949 . S
C771 H766 0.950 . S
C771 C773 1.327 . S
C771 C777 1.429 . S
C772 C764 1.574 1_545 S
C772 H767 0.949 . S
C772 C778 1.368 . S
C773 C757 1.349 . S
C773 H765 0.950 . S
C773 C771 1.327 . S
C774 C762 1.349 . S
C774 H768 0.950 . S
C774 C775 1.327 . S
C775 H769 0.950 . S
C775 C774 1.327 . S
C775 C779 1.429 . S
C776 C759 1.574 1_565 S
C776 H770 0.949 . S
C776 C780 1.368 . S
C777 C758 1.429 . S
C777 C771 1.429 . S
C777 C778 1.523 . S
C778 C759 1.368 . S
C778 C772 1.368 . S
C778 C777 1.523 . S
C779 C763 1.429 . S
C779 C775 1.429 . S
C779 C780 1.523 . S
C780 C764 1.368 . S
C780 C776 1.368 . S
C780 C779 1.523 . S
H781 C756 0.950 . S
H782 C758 0.950 . S
H783 C759 0.949 . S
H784 C761 0.950 . S
H785 C763 0.950 . S
C786 C787 1.349 . S
C786 C788 1.327 . S
C786 H811 0.950 . S
C787 C786 1.349 . S
C787 C803 1.349 . S
C788 C786 1.327 . S
C788 C807 1.429 . S
C788 H812 0.950 . S
C789 C806 1.617 . S
C789 C808 1.368 . S
C789 H813 0.949 . S
H790 C794 0.949 . S
C791 C792 1.349 . S
C791 C793 1.327 . S
C791 H814 0.950 . S
C792 C791 1.349 . S
C792 C804 1.349 . S
C793 C791 1.327 . S
C793 C809 1.429 . S
C793 H815 0.950 . S
C794 H790 0.949 . S
C794 C802 1.617 . S
C794 C810 1.368 . S
H795 C803 0.950 . S
H796 C801 0.950 . S
H797 C802 0.951 . S
H798 C804 0.950 . S
H799 C805 0.950 . S
H800 C806 0.951 . S
C801 H796 0.950 . S
C801 C803 1.327 . S
C801 C807 1.429 . S
C802 C794 1.617 . S
C802 H797 0.951 . S
C802 C808 1.325 1_655 S
C803 C787 1.349 . S
C803 H795 0.950 . S
C803 C801 1.327 . S
C804 C792 1.349 . S
C804 H798 0.950 . S
C804 C805 1.327 . S
C805 H799 0.950 . S
C805 C804 1.327 . S
C805 C809 1.429 . S
C806 C789 1.617 . S
C806 H800 0.951 . S
C806 C810 1.325 1_455 S
C807 C788 1.429 . S
C807 C801 1.429 . S
C807 C808 1.523 . S
C808 C789 1.368 . S
C808 C802 1.325 1_455 S
C808 C807 1.523 . S
C809 C793 1.429 . S
C809 C805 1.429 . S
C809 C810 1.523 . S
C810 C794 1.368 . S
C810 C806 1.325 1_655 S
C810 C809 1.523 . S
H811 C786 0.950 . S
H812 C788 0.950 . S
H813 C789 0.949 . S
H814 C791 0.950 . S
H815 C793 0.950 . S
C816 C817 1.349 . S
C816 C818 1.327 . S
C816 H841 0.950 . S
C817 C816 1.349 . S
C817 C833 1.349 . S
C818 C816 1.327 . S
C818 C837 1.429 . S
C818 H842 0.950 . S
C819 C836 1.574 . S
C819 C838 1.368 1_545 S
C819 H843 0.949 . S
H820 C824 0.949 . S
C821 C822 1.349 . S
C821 C823 1.327 . S
C821 H844 0.950 . S
C822 C821 1.349 . S
C822 C834 1.349 . S
C823 C821 1.327 . S
C823 C839 1.429 . S
C823 H845 0.950 . S
C824 H820 0.949 . S
C824 C832 1.574 . S
C824 C840 1.368 1_565 S
H825 C833 0.950 . S
H826 C831 0.950 . S
H827 C832 0.949 . S
H828 C834 0.950 . S
H829 C835 0.950 . S
H830 C836 0.949 . S
C831 H826 0.950 . S
C831 C833 1.327 . S
C831 C837 1.429 . S
C832 C824 1.574 . S
C832 H827 0.949 . S
C832 C838 1.368 . S
C833 C817 1.349 . S
C833 H825 0.950 . S
C833 C831 1.327 . S
C834 C822 1.349 . S
C834 H828 0.950 . S
C834 C835 1.327 . S
C835 H829 0.950 . S
C835 C834 1.327 . S
C835 C839 1.429 . S
C836 C819 1.574 . S
C836 H830 0.949 . S
C836 C840 1.368 . S
C837 C818 1.429 . S
C837 C831 1.429 . S
C837 C838 1.523 . S
C838 C819 1.368 1_565 S
C838 C832 1.368 . S
C838 C837 1.523 . S
C839 C823 1.429 . S
C839 C835 1.429 . S
C839 C840 1.523 . S
C840 C824 1.368 1_545 S
C840 C836 1.368 . S
C840 C839 1.523 . S
H841 C816 0.950 . S
H842 C818 0.950 . S
H843 C819 0.949 . S
H844 C821 0.950 . S
H845 C823 0.950 . S
C846 C847 1.349 . S
C846 C848 1.327 . S
C846 H871 0.950 . S
C847 C846 1.349 . S
C847 C863 1.349 . S
C848 C846 1.327 . S
C848 C867 1.429 . S
C848 H872 0.950 . S
C849 C866 1.574 1_655 S
C849 C868 1.368 . S
C849 H873 0.949 . S
H850 C854 0.949 . S
C851 C852 1.349 . S
C851 C853 1.327 . S
C851 H874 0.950 . S
C852 C851 1.349 . S
C852 C864 1.349 . S
C853 C851 1.327 . S
C853 C869 1.429 . S
C853 H875 0.950 . S
C854 H850 0.949 . S
C854 C862 1.574 1_455 S
C854 C870 1.368 . S
H855 C863 0.950 . S
H856 C861 0.950 . S
H857 C862 0.949 . S
H858 C864 0.950 . S
H859 C865 0.950 . S
H860 C866 0.949 . S
C861 H856 0.950 . S
C861 C863 1.327 . S
C861 C867 1.429 . S
C862 C854 1.574 1_655 S
C862 H857 0.949 . S
C862 C868 1.368 . S
C863 C847 1.349 . S
C863 H855 0.950 . S
C863 C861 1.327 . S
C864 C852 1.349 . S
C864 H858 0.950 . S
C864 C865 1.327 . S
C865 H859 0.950 . S
C865 C864 1.327 . S
C865 C869 1.429 . S
C866 C849 1.574 1_455 S
C866 H860 0.949 . S
C866 C870 1.368 . S
C867 C848 1.429 . S
C867 C861 1.429 . S
C867 C868 1.523 . S
C868 C849 1.368 . S
C868 C862 1.368 . S
C868 C867 1.523 . S
C869 C853 1.429 . S
C869 C865 1.429 . S
C869 C870 1.523 . S
C870 C854 1.368 . S
C870 C866 1.368 . S
C870 C869 1.523 . S
H871 C846 0.950 . S
H872 C848 0.950 . S
H873 C849 0.949 . S
H874 C851 0.950 . S
H875 C853 0.950 . S
C876 C877 1.349 . S
C876 C878 1.327 . S
C876 H901 0.950 . S
C877 C876 1.349 . S
C877 C893 1.349 . S
C878 C876 1.327 . S
C878 C897 1.429 . S
C878 H902 0.950 . S
C879 C896 1.574 1_565 S
C879 C898 1.368 . S
C879 H903 0.949 . S
H880 C884 0.949 . S
C881 C882 1.349 . S
C881 C883 1.327 . S
C881 H904 0.950 . S
C882 C881 1.349 . S
C882 C894 1.349 . S
C883 C881 1.327 . S
C883 C899 1.429 . S
C883 H905 0.950 . S
C884 H880 0.949 . S
C884 C892 1.574 1_545 S
C884 C900 1.368 . S
H885 C893 0.950 . S
H886 C891 0.950 . S
H887 C892 0.949 . S
H888 C894 0.950 . S
H889 C895 0.950 . S
H890 C896 0.949 . S
C891 H886 0.950 . S
C891 C893 1.327 . S
C891 C897 1.429 . S
C892 C884 1.574 1_565 S
C892 H887 0.949 . S
C892 C898 1.368 . S
C893 C877 1.349 . S
C893 H885 0.950 . S
C893 C891 1.327 . S
C894 C882 1.349 . S
C894 H888 0.950 . S
C894 C895 1.327 . S
C895 H889 0.950 . S
C895 C894 1.327 . S
C895 C899 1.429 . S
C896 C879 1.574 1_545 S
C896 H890 0.949 . S
C896 C900 1.368 . S
C897 C878 1.429 . S
C897 C891 1.429 . S
C897 C898 1.523 . S
C898 C879 1.368 . S
C898 C892 1.368 . S
C898 C897 1.523 . S
C899 C883 1.429 . S
C899 C895 1.429 . S
C899 C900 1.523 . S
C900 C884 1.368 . S
C900 C896 1.368 . S
C900 C899 1.523 . S
H901 C876 0.950 . S
H902 C878 0.950 . S
H903 C879 0.949 . S
H904 C881 0.950 . S
H905 C883 0.950 . S
C906 C907 1.349 . S
C906 C908 1.327 . S
C906 H931 0.950 . S
C907 C906 1.349 . S
C907 C923 1.349 . S
C908 C906 1.327 . S
C908 C927 1.429 . S
C908 H932 0.950 . S
C909 C926 1.574 1_455 S
C909 C928 1.368 . S
C909 H933 0.949 . S
H910 C914 0.949 . S
C911 C912 1.349 . S
C911 C913 1.327 . S
C911 H934 0.950 . S
C912 C911 1.349 . S
C912 C924 1.349 . S
C913 C911 1.327 . S
C913 C929 1.429 . S
C913 H935 0.950 . S
C914 H910 0.949 . S
C914 C922 1.574 1_655 S
C914 C930 1.368 . S
H915 C923 0.950 . S
H916 C921 0.950 . S
H917 C922 0.949 . S
H918 C924 0.950 . S
H919 C925 0.950 . S
H920 C926 0.949 . S
C921 H916 0.950 . S
C921 C923 1.327 . S
C921 C927 1.429 . S
C922 C914 1.574 1_455 S
C922 H917 0.949 . S
C922 C928 1.368 . S
C923 C907 1.349 . S
C923 H915 0.950 . S
C923 C921 1.327 . S
C924 C912 1.349 . S
C924 H918 0.950 . S
C924 C925 1.327 . S
C925 H919 0.950 . S
C925 C924 1.327 . S
C925 C929 1.429 . S
C926 C909 1.574 1_655 S
C926 H920 0.949 . S
C926 C930 1.368 . S
C927 C908 1.429 . S
C927 C921 1.429 . S
C927 C928 1.523 . S
C928 C909 1.368 . S
C928 C922 1.368 . S
C928 C927 1.523 . S
C929 C913 1.429 . S
C929 C925 1.429 . S
C929 C930 1.523 . S
C930 C914 1.368 . S
C930 C926 1.368 . S
C930 C929 1.523 . S
H931 C906 0.950 . S
H932 C908 0.950 . S
H933 C909 0.949 . S
H934 C911 0.950 . S
H935 C913 0.950 . S
C936 C937 1.349 . S
C936 C938 1.327 . S
C936 H961 0.950 . S
C937 C936 1.349 . S
C937 C953 1.349 . S
C938 C936 1.327 . S
C938 C957 1.429 . S
C938 H962 0.950 . S
C939 C956 1.583 . S
C939 C958 1.368 . S
C939 H963 0.949 . S
H940 C944 0.949 . S
C941 C942 1.349 . S
C941 C943 1.327 . S
C941 H964 0.950 . S
C942 C941 1.349 . S
C942 C954 1.349 . S
C943 C941 1.327 . S
C943 C959 1.429 . S
C943 H965 0.950 . S
C944 H940 0.949 . S
C944 C952 1.583 . S
C944 C960 1.368 . S
H945 C953 0.950 . S
H946 C951 0.950 . S
H947 C952 0.949 . S
H948 C954 0.950 . S
H949 C955 0.950 . S
H950 C956 0.949 . S
C951 H946 0.950 . S
C951 C953 1.327 . S
C951 C957 1.429 . S
C952 C944 1.583 . S
C952 H947 0.949 . S
C952 C958 1.359 1_554 S
C953 C937 1.349 . S
C953 H945 0.950 . S
C953 C951 1.327 . S
C954 C942 1.349 . S
C954 H948 0.950 . S
C954 C955 1.327 . S
C955 H949 0.950 . S
C955 C954 1.327 . S
C955 C959 1.429 . S
C956 C939 1.583 . S
C956 H950 0.949 . S
C956 C960 1.359 1_556 S
C957 C938 1.429 . S
C957 C951 1.429 . S
C957 C958 1.523 . S
C958 C939 1.368 . S
C958 C952 1.359 1_556 S
C958 C957 1.523 . S
C959 C943 1.429 . S
C959 C955 1.429 . S
C959 C960 1.523 . S
C960 C944 1.368 . S
C960 C956 1.359 1_554 S
C960 C959 1.523 . S
H961 C936 0.950 . S
H962 C938 0.950 . S
H963 C939 0.949 . S
H964 C941 0.950 . S
H965 C943 0.950 . S
C966 C967 1.349 . S
C966 C968 1.327 . S
C966 H991 0.950 . S
C967 C966 1.349 . S
C967 C983 1.349 . S
C968 C966 1.327 . S
C968 C987 1.429 . S
C968 H992 0.950 . S
C969 C986 1.574 . S
C969 C988 1.368 1_556 S
C969 H993 0.949 . S
H970 C974 0.949 . S
C971 C972 1.349 . S
C971 C973 1.327 . S
C971 H994 0.950 . S
C972 C971 1.349 . S
C972 C984 1.349 . S
C973 C971 1.327 . S
C973 C989 1.429 . S
C973 H995 0.950 . S
C974 H970 0.949 . S
C974 C982 1.574 . S
C974 C990 1.368 1_554 S
H975 C983 0.950 . S
H976 C981 0.950 . S
H977 C982 0.949 . S
H978 C984 0.950 . S
H979 C985 0.950 . S
H980 C986 0.949 . S
C981 H976 0.950 . S
C981 C983 1.327 . S
C981 C987 1.429 . S
C982 C974 1.574 . S
C982 H977 0.949 . S
C982 C988 1.368 . S
C983 C967 1.349 . S
C983 H975 0.950 . S
C983 C981 1.327 . S
C984 C972 1.349 . S
C984 H978 0.950 . S
C984 C985 1.327 . S
C985 H979 0.950 . S
C985 C984 1.327 . S
C985 C989 1.429 . S
C986 C969 1.574 . S
C986 H980 0.949 . S
C986 C990 1.368 . S
C987 C968 1.429 . S
C987 C981 1.429 . S
C987 C988 1.523 . S
C988 C969 1.368 1_554 S
C988 C982 1.368 . S
C988 C987 1.523 . S
C989 C973 1.429 . S
C989 C985 1.429 . S
C989 C990 1.523 . S
C990 C974 1.368 1_556 S
C990 C986 1.368 . S
C990 C989 1.523 . S
H991 C966 0.950 . S
H992 C968 0.950 . S
H993 C969 0.949 . S
H994 C971 0.950 . S
H995 C973 0.950 . S
C996 C997 1.349 . S
C996 C998 1.327 . S
C996 H1021 0.950 . S
C997 C996 1.349 . S
C997 C1013 1.349 . S
C998 C996 1.327 . S
C998 C1017 1.429 . S
C998 H1022 0.950 . S
C999 C1016 1.574 . S
C999 C1018 1.368 . S
C999 H1023 0.949 . S
H1000 C1004 0.949 . S
C1001 C1002 1.349 . S
C1001 C1003 1.327 . S
C1001 H1024 0.950 . S
C1002 C1001 1.349 . S
C1002 C1014 1.349 . S
C1003 C1001 1.327 . S
C1003 C1019 1.429 . S
C1003 H1025 0.950 . S
C1004 H1000 0.949 . S
C1004 C1012 1.574 . S
C1004 C1020 1.368 . S
H1005 C1013 0.950 . S
H1006 C1011 0.950 . S
H1007 C1012 0.949 . S
H1008 C1014 0.950 . S
H1009 C1015 0.950 . S
H1010 C1016 0.949 . S
C1011 H1006 0.950 . S
C1011 C1013 1.327 . S
C1011 C1017 1.429 . S
C1012 C1004 1.574 . S
C1012 H1007 0.949 . S
C1012 C1018 1.368 1_554 S
C1013 C997 1.349 . S
C1013 H1005 0.950 . S
C1013 C1011 1.327 . S
C1014 C1002 1.349 . S
C1014 H1008 0.950 . S
C1014 C1015 1.327 . S
C1015 H1009 0.950 . S
C1015 C1014 1.327 . S
C1015 C1019 1.429 . S
C1016 C999 1.574 . S
C1016 H1010 0.949 . S
C1016 C1020 1.368 1_556 S
C1017 C998 1.429 . S
C1017 C1011 1.429 . S
C1017 C1018 1.523 . S
C1018 C999 1.368 . S
C1018 C1012 1.368 1_556 S
C1018 C1017 1.523 . S
C1019 C1003 1.429 . S
C1019 C1015 1.429 . S
C1019 C1020 1.523 . S
C1020 C1004 1.368 . S
C1020 C1016 1.368 1_554 S
C1020 C1019 1.523 . S
H1021 C996 0.950 . S
H1022 C998 0.950 . S
H1023 C999 0.949 . S
H1024 C1001 0.950 . S
H1025 C1003 0.950 . S
C1026 C1027 1.349 . S
C1026 C1028 1.327 . S
C1026 H1051 0.950 . S
C1027 C1026 1.349 . S
C1027 C1043 1.349 . S
C1028 C1026 1.327 . S
C1028 C1047 1.429 . S
C1028 H1052 0.950 . S
C1029 C1046 1.574 . S
C1029 C1048 1.368 1_556 S
C1029 H1053 0.949 . S
H1030 C1034 0.949 . S
C1031 C1032 1.349 . S
C1031 C1033 1.327 . S
C1031 H1054 0.950 . S
C1032 C1031 1.349 . S
C1032 C1044 1.349 . S
C1033 C1031 1.327 . S
C1033 C1049 1.429 . S
C1033 H1055 0.950 . S
C1034 H1030 0.949 . S
C1034 C1042 1.574 . S
C1034 C1050 1.368 1_554 S
H1035 C1043 0.950 . S
H1036 C1041 0.950 . S
H1037 C1042 0.949 . S
H1038 C1044 0.950 . S
H1039 C1045 0.950 . S
H1040 C1046 0.949 . S
C1041 H1036 0.950 . S
C1041 C1043 1.327 . S
C1041 C1047 1.429 . S
C1042 C1034 1.574 . S
C1042 H1037 0.949 . S
C1042 C1048 1.368 . S
C1043 C1027 1.349 . S
C1043 H1035 0.950 . S
C1043 C1041 1.327 . S
C1044 C1032 1.349 . S
C1044 H1038 0.950 . S
C1044 C1045 1.327 . S
C1045 H1039 0.950 . S
C1045 C1044 1.327 . S
C1045 C1049 1.429 . S
C1046 C1029 1.574 . S
C1046 H1040 0.949 . S
C1046 C1050 1.368 . S
C1047 C1028 1.429 . S
C1047 C1041 1.429 . S
C1047 C1048 1.523 . S
C1048 C1029 1.368 1_554 S
C1048 C1042 1.368 . S
C1048 C1047 1.523 . S
C1049 C1033 1.429 . S
C1049 C1045 1.429 . S
C1049 C1050 1.523 . S
C1050 C1034 1.368 1_556 S
C1050 C1046 1.368 . S
C1050 C1049 1.523 . S
H1051 C1026 0.950 . S
H1052 C1028 0.950 . S
H1053 C1029 0.949 . S
H1054 C1031 0.950 . S
H1055 C1033 0.950 . S
C1056 C1057 1.349 . S
C1056 C1058 1.327 . S
C1056 H1081 0.950 . S
C1057 C1056 1.349 . S
C1057 C1073 1.349 . S
C1058 C1056 1.327 . S
C1058 C1077 1.429 . S
C1058 H1082 0.950 . S
C1059 C1076 1.574 . S
C1059 C1078 1.368 . S
C1059 H1083 0.949 . S
H1060 C1064 0.949 . S
C1061 C1062 1.349 . S
C1061 C1063 1.327 . S
C1061 H1084 0.950 . S
C1062 C1061 1.349 . S
C1062 C1074 1.349 . S
C1063 C1061 1.327 . S
C1063 C1079 1.429 . S
C1063 H1085 0.950 . S
C1064 H1060 0.949 . S
C1064 C1072 1.574 . S
C1064 C1080 1.368 . S
H1065 C1073 0.950 . S
H1066 C1071 0.950 . S
H1067 C1072 0.949 . S
H1068 C1074 0.950 . S
H1069 C1075 0.950 . S
H1070 C1076 0.949 . S
C1071 H1066 0.950 . S
C1071 C1073 1.327 . S
C1071 C1077 1.429 . S
C1072 C1064 1.574 . S
C1072 H1067 0.949 . S
C1072 C1078 1.368 . S
C1073 C1057 1.349 . S
C1073 H1065 0.950 . S
C1073 C1071 1.327 . S
C1074 C1062 1.349 . S
C1074 H1068 0.950 . S
C1074 C1075 1.327 . S
C1075 H1069 0.950 . S
C1075 C1074 1.327 . S
C1075 C1079 1.429 . S
C1076 C1059 1.574 . S
C1076 H1070 0.949 . S
C1076 C1080 1.368 . S
C1077 C1058 1.429 . S
C1077 C1071 1.429 . S
C1077 C1078 1.523 . S
C1078 C1059 1.368 . S
C1078 C1072 1.368 . S
C1078 C1077 1.523 . S
C1079 C1063 1.429 . S
C1079 C1075 1.429 . S
C1079 C1080 1.523 . S
C1080 C1064 1.368 . S
C1080 C1076 1.368 . S
C1080 C1079 1.523 . S
H1081 C1056 0.950 . S
H1082 C1058 0.950 . S
H1083 C1059 0.949 . S
H1084 C1061 0.950 . S
H1085 C1063 0.950 . S
C1086 C1087 1.349 . S
C1086 C1088 1.327 . S
C1086 H1111 0.950 . S
C1087 C1086 1.349 . S
C1087 C1103 1.349 . S
C1088 C1086 1.327 . S
C1088 C1107 1.429 . S
C1088 H1112 0.950 . S
C1089 C1106 1.574 . S
C1089 C1108 1.368 . S
C1089 H1113 0.949 . S
H1090 C1094 0.949 . S
C1091 C1092 1.349 . S
C1091 C1093 1.327 . S
C1091 H1114 0.950 . S
C1092 C1091 1.349 . S
C1092 C1104 1.349 . S
C1093 C1091 1.327 . S
C1093 C1109 1.429 . S
C1093 H1115 0.950 . S
C1094 H1090 0.949 . S
C1094 C1102 1.574 . S
C1094 C1110 1.368 . S
H1095 C1103 0.950 . S
H1096 C1101 0.950 . S
H1097 C1102 0.949 . S
H1098 C1104 0.950 . S
H1099 C1105 0.950 . S
H1100 C1106 0.949 . S
C1101 H1096 0.950 . S
C1101 C1103 1.327 . S
C1101 C1107 1.429 . S
C1102 C1094 1.574 . S
C1102 H1097 0.949 . S
C1102 C1108 1.368 . S
C1103 C1087 1.349 . S
C1103 H1095 0.950 . S
C1103 C1101 1.327 . S
C1104 C1092 1.349 . S
C1104 H1098 0.950 . S
C1104 C1105 1.327 . S
C1105 H1099 0.950 . S
C1105 C1104 1.327 . S
C1105 C1109 1.429 . S
C1106 C1089 1.574 . S
C1106 H1100 0.949 . S
C1106 C1110 1.368 . S
C1107 C1088 1.429 . S
C1107 C1101 1.429 . S
C1107 C1108 1.523 . S
C1108 C1089 1.368 . S
C1108 C1102 1.368 . S
C1108 C1107 1.523 . S
C1109 C1093 1.429 . S
C1109 C1105 1.429 . S
C1109 C1110 1.523 . S
C1110 C1094 1.368 . S
C1110 C1106 1.368 . S
C1110 C1109 1.523 . S
H1111 C1086 0.950 . S
H1112 C1088 0.950 . S
H1113 C1089 0.949 . S
H1114 C1091 0.950 . S
H1115 C1093 0.950 . S
C1116 C1117 1.349 . S
C1116 C1118 1.327 . S
C1116 H1141 0.950 . S
C1117 C1116 1.349 . S
C1117 C1133 1.349 . S
C1118 C1116 1.327 . S
C1118 C1137 1.429 . S
C1118 H1142 0.950 . S
C1119 C1136 1.574 . S
C1119 C1138 1.368 . S
C1119 H1143 0.949 . S
H1120 C1124 0.949 . S
C1121 C1122 1.349 . S
C1121 C1123 1.327 . S
C1121 H1144 0.950 . S
C1122 C1121 1.349 . S
C1122 C1134 1.349 . S
C1123 C1121 1.327 . S
C1123 C1139 1.429 . S
C1123 H1145 0.950 . S
C1124 H1120 0.949 . S
C1124 C1132 1.574 . S
C1124 C1140 1.368 . S
H1125 C1133 0.950 . S
H1126 C1131 0.950 . S
H1127 C1132 0.949 . S
H1128 C1134 0.950 . S
H1129 C1135 0.950 . S
H1130 C1136 0.949 . S
C1131 H1126 0.950 . S
C1131 C1133 1.327 . S
C1131 C1137 1.429 . S
C1132 C1124 1.574 . S
C1132 H1127 0.949 . S
C1132 C1138 1.368 . S
C1133 C1117 1.349 . S
C1133 H1125 0.950 . S
C1133 C1131 1.327 . S
C1134 C1122 1.349 . S
C1134 H1128 0.950 . S
C1134 C1135 1.327 . S
C1135 H1129 0.950 . S
C1135 C1134 1.327 . S
C1135 C1139 1.429 . S
C1136 C1119 1.574 . S
C1136 H1130 0.949 . S
C1136 C1140 1.368 . S
C1137 C1118 1.429 . S
C1137 C1131 1.429 . S
C1137 C1138 1.523 . S
C1138 C1119 1.368 . S
C1138 C1132 1.368 . S
C1138 C1137 1.523 . S
C1139 C1123 1.429 . S
C1139 C1135 1.429 . S
C1139 C1140 1.523 . S
C1140 C1124 1.368 . S
C1140 C1136 1.368 . S
C1140 C1139 1.523 . S
H1141 C1116 0.950 . S
H1142 C1118 0.950 . S
H1143 C1119 0.949 . S
H1144 C1121 0.950 . S
H1145 C1123 0.950 . S
C1146 C1147 1.349 . S
C1146 C1148 1.327 . S
C1146 H1171 0.950 . S
C1147 C1146 1.349 . S
C1147 C1163 1.349 . S
C1148 C1146 1.327 . S
C1148 C1167 1.429 . S
C1148 H1172 0.950 . S
C1149 C1166 1.574 . S
C1149 C1168 1.368 . S
C1149 H1173 0.949 . S
H1150 C1154 0.949 . S
C1151 C1152 1.349 . S
C1151 C1153 1.327 . S
C1151 H1174 0.950 . S
C1152 C1151 1.349 . S
C1152 C1164 1.349 . S
C1153 C1151 1.327 . S
C1153 C1169 1.429 . S
C1153 H1175 0.950 . S
C1154 H1150 0.949 . S
C1154 C1162 1.574 . S
C1154 C1170 1.368 . S
H1155 C1163 0.950 . S
H1156 C1161 0.950 . S
H1157 C1162 0.949 . S
H1158 C1164 0.950 . S
H1159 C1165 0.950 . S
H1160 C1166 0.949 . S
C1161 H1156 0.950 . S
C1161 C1163 1.327 . S
C1161 C1167 1.429 . S
C1162 C1154 1.574 . S
C1162 H1157 0.949 . S
C1162 C1168 1.368 . S
C1163 C1147 1.349 . S
C1163 H1155 0.950 . S
C1163 C1161 1.327 . S
C1164 C1152 1.349 . S
C1164 H1158 0.950 . S
C1164 C1165 1.327 . S
C1165 H1159 0.950 . S
C1165 C1164 1.327 . S
C1165 C1169 1.429 . S
C1166 C1149 1.574 . S
C1166 H1160 0.949 . S
C1166 C1170 1.368 . S
C1167 C1148 1.429 . S
C1167 C1161 1.429 . S
C1167 C1168 1.523 . S
C1168 C1149 1.368 . S
C1168 C1162 1.368 . S
C1168 C1167 1.523 . S
C1169 C1153 1.429 . S
C1169 C1165 1.429 . S
C1169 C1170 1.523 . S
C1170 C1154 1.368 . S
C1170 C1166 1.368 . S
C1170 C1169 1.523 . S
H1171 C1146 0.950 . S
H1172 C1148 0.950 . S
H1173 C1149 0.949 . S
H1174 C1151 0.950 . S
H1175 C1153 0.950 . S
C1176 C1177 1.349 . S
C1176 C1178 1.327 . S
C1176 H1201 0.950 . S
C1177 C1176 1.349 . S
C1177 C1193 1.349 . S
C1178 C1176 1.327 . S
C1178 C1197 1.429 . S
C1178 H1202 0.950 . S
C1179 C1196 1.574 . S
C1179 C1198 1.368 . S
C1179 H1203 0.949 . S
H1180 C1184 0.949 . S
C1181 C1182 1.349 . S
C1181 C1183 1.327 . S
C1181 H1204 0.950 . S
C1182 C1181 1.349 . S
C1182 C1194 1.349 . S
C1183 C1181 1.327 . S
C1183 C1199 1.429 . S
C1183 H1205 0.950 . S
C1184 H1180 0.949 . S
C1184 C1192 1.574 . S
C1184 C1200 1.368 . S
H1185 C1193 0.950 . S
H1186 C1191 0.950 . S
H1187 C1192 0.949 . S
H1188 C1194 0.950 . S
H1189 C1195 0.950 . S
H1190 C1196 0.949 . S
C1191 H1186 0.950 . S
C1191 C1193 1.327 . S
C1191 C1197 1.429 . S
C1192 C1184 1.574 . S
C1192 H1187 0.949 . S
C1192 C1198 1.368 . S
C1193 C1177 1.349 . S
C1193 H1185 0.950 . S
C1193 C1191 1.327 . S
C1194 C1182 1.349 . S
C1194 H1188 0.950 . S
C1194 C1195 1.327 . S
C1195 H1189 0.950 . S
C1195 C1194 1.327 . S
C1195 C1199 1.429 . S
C1196 C1179 1.574 . S
C1196 H1190 0.949 . S
C1196 C1200 1.368 . S
C1197 C1178 1.429 . S
C1197 C1191 1.429 . S
C1197 C1198 1.523 . S
C1198 C1179 1.368 . S
C1198 C1192 1.368 . S
C1198 C1197 1.523 . S
C1199 C1183 1.429 . S
C1199 C1195 1.429 . S
C1199 C1200 1.523 . S
C1200 C1184 1.368 . S
C1200 C1196 1.368 . S
C1200 C1199 1.523 . S
H1201 C1176 0.950 . S
H1202 C1178 0.950 . S
H1203 C1179 0.949 . S
H1204 C1181 0.950 . S
H1205 C1183 0.950 . S
C1206 C1207 1.349 . S
C1206 C1208 1.327 . S
C1206 H1231 0.950 . S
C1207 C1206 1.349 . S
C1207 C1223 1.349 . S
C1208 C1206 1.327 . S
C1208 C1227 1.429 . S
C1208 H1232 0.950 . S
C1209 C1226 1.574 . S
C1209 C1228 1.368 . S
C1209 H1233 0.949 . S
H1210 C1214 0.949 . S
C1211 C1212 1.349 . S
C1211 C1213 1.327 . S
C1211 H1234 0.950 . S
C1212 C1211 1.349 . S
C1212 C1224 1.349 . S
C1213 C1211 1.327 . S
C1213 C1229 1.429 . S
C1213 H1235 0.950 . S
C1214 H1210 0.949 . S
C1214 C1222 1.574 . S
C1214 C1230 1.368 . S
H1215 C1223 0.950 . S
H1216 C1221 0.950 . S
H1217 C1222 0.949 . S
H1218 C1224 0.950 . S
H1219 C1225 0.950 . S
H1220 C1226 0.949 . S
C1221 H1216 0.950 . S
C1221 C1223 1.327 . S
C1221 C1227 1.429 . S
C1222 C1214 1.574 . S
C1222 H1217 0.949 . S
C1222 C1228 1.368 . S
C1223 C1207 1.349 . S
C1223 H1215 0.950 . S
C1223 C1221 1.327 . S
C1224 C1212 1.349 . S
C1224 H1218 0.950 . S
C1224 C1225 1.327 . S
C1225 H1219 0.950 . S
C1225 C1224 1.327 . S
C1225 C1229 1.429 . S
C1226 C1209 1.574 . S
C1226 H1220 0.949 . S
C1226 C1230 1.368 . S
C1227 C1208 1.429 . S
C1227 C1221 1.429 . S
C1227 C1228 1.523 . S
C1228 C1209 1.368 . S
C1228 C1222 1.368 . S
C1228 C1227 1.523 . S
C1229 C1213 1.429 . S
C1229 C1225 1.429 . S
C1229 C1230 1.523 . S
C1230 C1214 1.368 . S
C1230 C1226 1.368 . S
C1230 C1229 1.523 . S
H1231 C1206 0.950 . S
H1232 C1208 0.950 . S
H1233 C1209 0.949 . S
H1234 C1211 0.950 . S
H1235 C1213 0.950 . S
C1236 C1237 1.349 . S
C1236 C1238 1.327 . S
C1236 H1261 0.950 . S
C1237 C1236 1.349 . S
C1237 C1253 1.349 . S
C1238 C1236 1.327 . S
C1238 C1257 1.429 . S
C1238 H1262 0.950 . S
C1239 C1256 1.574 . S
C1239 C1258 1.368 . S
C1239 H1263 0.949 . S
H1240 C1244 0.949 . S
C1241 C1242 1.349 . S
C1241 C1243 1.327 . S
C1241 H1264 0.950 . S
C1242 C1241 1.349 . S
C1242 C1254 1.349 . S
C1243 C1241 1.327 . S
C1243 C1259 1.429 . S
C1243 H1265 0.950 . S
C1244 H1240 0.949 . S
C1244 C1252 1.574 . S
C1244 C1260 1.368 . S
H1245 C1253 0.950 . S
H1246 C1251 0.950 . S
H1247 C1252 0.949 . S
H1248 C1254 0.950 . S
H1249 C1255 0.950 . S
H1250 C1256 0.949 . S
C1251 H1246 0.950 . S
C1251 C1253 1.327 . S
C1251 C1257 1.429 . S
C1252 C1244 1.574 . S
C1252 H1247 0.949 . S
C1252 C1258 1.368 . S
C1253 C1237 1.349 . S
C1253 H1245 0.950 . S
C1253 C1251 1.327 . S
C1254 C1242 1.349 . S
C1254 H1248 0.950 . S
C1254 C1255 1.327 . S
C1255 H1249 0.950 . S
C1255 C1254 1.327 . S
C1255 C1259 1.429 . S
C1256 C1239 1.574 . S
C1256 H1250 0.949 . S
C1256 C1260 1.368 . S
C1257 C1238 1.429 . S
C1257 C1251 1.429 . S
C1257 C1258 1.523 . S
C1258 C1239 1.368 . S
C1258 C1252 1.368 . S
C1258 C1257 1.523 . S
C1259 C1243 1.429 . S
C1259 C1255 1.429 . S
C1259 C1260 1.523 . S
C1260 C1244 1.368 . S
C1260 C1256 1.368 . S
C1260 C1259 1.523 . S
H1261 C1236 0.950 . S
H1262 C1238 0.950 . S
H1263 C1239 0.949 . S
H1264 C1241 0.950 . S
H1265 C1243 0.950 . S
C1266 C1267 1.349 . S
C1266 C1268 1.327 . S
C1266 H1291 0.950 . S
C1267 C1266 1.349 . S
C1267 C1283 1.349 . S
C1268 C1266 1.327 . S
C1268 C1287 1.429 . S
C1268 H1292 0.950 . S
C1269 C1286 1.574 . S
C1269 C1288 1.368 . S
C1269 H1293 0.949 . S
H1270 C1274 0.949 . S
C1271 C1272 1.349 . S
C1271 C1273 1.327 . S
C1271 H1294 0.950 . S
C1272 C1271 1.349 . S
C1272 C1284 1.349 . S
C1273 C1271 1.327 . S
C1273 C1289 1.429 . S
C1273 H1295 0.950 . S
C1274 H1270 0.949 . S
C1274 C1282 1.574 . S
C1274 C1290 1.368 . S
H1275 C1283 0.950 . S
H1276 C1281 0.950 . S
H1277 C1282 0.949 . S
H1278 C1284 0.950 . S
H1279 C1285 0.950 . S
H1280 C1286 0.949 . S
C1281 H1276 0.950 . S
C1281 C1283 1.327 . S
C1281 C1287 1.429 . S
C1282 C1274 1.574 . S
C1282 H1277 0.949 . S
C1282 C1288 1.368 . S
C1283 C1267 1.349 . S
C1283 H1275 0.950 . S
C1283 C1281 1.327 . S
C1284 C1272 1.349 . S
C1284 H1278 0.950 . S
C1284 C1285 1.327 . S
C1285 H1279 0.950 . S
C1285 C1284 1.327 . S
C1285 C1289 1.429 . S
C1286 C1269 1.574 . S
C1286 H1280 0.949 . S
C1286 C1290 1.368 . S
C1287 C1268 1.429 . S
C1287 C1281 1.429 . S
C1287 C1288 1.523 . S
C1288 C1269 1.368 . S
C1288 C1282 1.368 . S
C1288 C1287 1.523 . S
C1289 C1273 1.429 . S
C1289 C1285 1.429 . S
C1289 C1290 1.523 . S
C1290 C1274 1.368 . S
C1290 C1286 1.368 . S
C1290 C1289 1.523 . S
H1291 C1266 0.950 . S
H1292 C1268 0.950 . S
H1293 C1269 0.949 . S
H1294 C1271 0.950 . S
H1295 C1273 0.950 . S
C1296 C1297 1.349 . S
C1296 C1298 1.327 . S
C1296 H1321 0.950 . S
C1297 C1296 1.349 . S
C1297 C1313 1.349 . S
C1298 C1296 1.327 . S
C1298 C1317 1.429 . S
C1298 H1322 0.950 . S
C1299 C1316 1.574 . S
C1299 C1318 1.368 . S
C1299 H1323 0.949 . S
H1300 C1304 0.949 . S
C1301 C1302 1.349 . S
C1301 C1303 1.327 . S
C1301 H1324 0.950 . S
C1302 C1301 1.349 . S
C1302 C1314 1.349 . S
C1303 C1301 1.327 . S
C1303 C1319 1.429 . S
C1303 H1325 0.950 . S
C1304 H1300 0.949 . S
C1304 C1312 1.574 . S
C1304 C1320 1.368 . S
H1305 C1313 0.950 . S
H1306 C1311 0.950 . S
H1307 C1312 0.949 . S
H1308 C1314 0.950 . S
H1309 C1315 0.950 . S
H1310 C1316 0.949 . S
C1311 H1306 0.950 . S
C1311 C1313 1.327 . S
C1311 C1317 1.429 . S
C1312 C1304 1.574 . S
C1312 H1307 0.949 . S
C1312 C1318 1.368 . S
C1313 C1297 1.349 . S
C1313 H1305 0.950 . S
C1313 C1311 1.327 . S
C1314 C1302 1.349 . S
C1314 H1308 0.950 . S
C1314 C1315 1.327 . S
C1315 H1309 0.950 . S
C1315 C1314 1.327 . S
C1315 C1319 1.429 . S
C1316 C1299 1.574 . S
C1316 H1310 0.949 . S
C1316 C1320 1.368 . S
C1317 C1298 1.429 . S
C1317 C1311 1.429 . S
C1317 C1318 1.523 . S
C1318 C1299 1.368 . S
C1318 C1312 1.368 . S
C1318 C1317 1.523 . S
C1319 C1303 1.429 . S
C1319 C1315 1.429 . S
C1319 C1320 1.523 . S
C1320 C1304 1.368 . S
C1320 C1316 1.368 . S
C1320 C1319 1.523 . S
H1321 C1296 0.950 . S
H1322 C1298 0.950 . S
H1323 C1299 0.949 . S
H1324 C1301 0.950 . S
H1325 C1303 0.950 . S
C1326 C1327 1.349 . S
C1326 C1328 1.327 . S
C1326 H1351 0.950 . S
C1327 C1326 1.349 . S
C1327 C1343 1.349 . S
C1328 C1326 1.327 . S
C1328 C1347 1.429 . S
C1328 H1352 0.950 . S
C1329 C1346 1.574 . S
C1329 C1348 1.368 . S
C1329 H1353 0.949 . S
H1330 C1334 0.949 . S
C1331 C1332 1.349 . S
C1331 C1333 1.327 . S
C1331 H1354 0.950 . S
C1332 C1331 1.349 . S
C1332 C1344 1.349 . S
C1333 C1331 1.327 . S
C1333 C1349 1.429 . S
C1333 H1355 0.950 . S
C1334 H1330 0.949 . S
C1334 C1342 1.574 . S
C1334 C1350 1.368 . S
H1335 C1343 0.950 . S
H1336 C1341 0.950 . S
H1337 C1342 0.949 . S
H1338 C1344 0.950 . S
H1339 C1345 0.950 . S
H1340 C1346 0.949 . S
C1341 H1336 0.950 . S
C1341 C1343 1.327 . S
C1341 C1347 1.429 . S
C1342 C1334 1.574 . S
C1342 H1337 0.949 . S
C1342 C1348 1.368 . S
C1343 C1327 1.349 . S
C1343 H1335 0.950 . S
C1343 C1341 1.327 . S
C1344 C1332 1.349 . S
C1344 H1338 0.950 . S
C1344 C1345 1.327 . S
C1345 H1339 0.950 . S
C1345 C1344 1.327 . S
C1345 C1349 1.429 . S
C1346 C1329 1.574 . S
C1346 H1340 0.949 . S
C1346 C1350 1.368 . S
C1347 C1328 1.429 . S
C1347 C1341 1.429 . S
C1347 C1348 1.523 . S
C1348 C1329 1.368 . S
C1348 C1342 1.368 . S
C1348 C1347 1.523 . S
C1349 C1333 1.429 . S
C1349 C1345 1.429 . S
C1349 C1350 1.523 . S
C1350 C1334 1.368 . S
C1350 C1346 1.368 . S
C1350 C1349 1.523 . S
H1351 C1326 0.950 . S
H1352 C1328 0.950 . S
H1353 C1329 0.949 . S
H1354 C1331 0.950 . S
H1355 C1333 0.950 . S
C1356 C1357 1.349 . S
C1356 C1358 1.327 . S
C1356 H1381 0.950 . S
C1357 C1356 1.349 . S
C1357 C1373 1.349 . S
C1358 C1356 1.327 . S
C1358 C1377 1.429 . S
C1358 H1382 0.950 . S
C1359 C1376 1.574 . S
C1359 C1378 1.368 . S
C1359 H1383 0.949 . S
H1360 C1364 0.949 . S
C1361 C1362 1.349 . S
C1361 C1363 1.327 . S
C1361 H1384 0.950 . S
C1362 C1361 1.349 . S
C1362 C1374 1.349 . S
C1363 C1361 1.327 . S
C1363 C1379 1.429 . S
C1363 H1385 0.950 . S
C1364 H1360 0.949 . S
C1364 C1372 1.574 . S
C1364 C1380 1.368 . S
H1365 C1373 0.950 . S
H1366 C1371 0.950 . S
H1367 C1372 0.949 . S
H1368 C1374 0.950 . S
H1369 C1375 0.950 . S
H1370 C1376 0.949 . S
C1371 H1366 0.950 . S
C1371 C1373 1.327 . S
C1371 C1377 1.429 . S
C1372 C1364 1.574 . S
C1372 H1367 0.949 . S
C1372 C1378 1.368 . S
C1373 C1357 1.349 . S
C1373 H1365 0.950 . S
C1373 C1371 1.327 . S
C1374 C1362 1.349 . S
C1374 H1368 0.950 . S
C1374 C1375 1.327 . S
C1375 H1369 0.950 . S
C1375 C1374 1.327 . S
C1375 C1379 1.429 . S
C1376 C1359 1.574 . S
C1376 H1370 0.949 . S
C1376 C1380 1.368 . S
C1377 C1358 1.429 . S
C1377 C1371 1.429 . S
C1377 C1378 1.523 . S
C1378 C1359 1.368 . S
C1378 C1372 1.368 . S
C1378 C1377 1.523 . S
C1379 C1363 1.429 . S
C1379 C1375 1.429 . S
C1379 C1380 1.523 . S
C1380 C1364 1.368 . S
C1380 C1376 1.368 . S
C1380 C1379 1.523 . S
H1381 C1356 0.950 . S
H1382 C1358 0.950 . S
H1383 C1359 0.949 . S
H1384 C1361 0.950 . S
H1385 C1363 0.950 . S
C1386 C1387 1.349 . S
C1386 C1388 1.327 . S
C1386 H1411 0.950 . S
C1387 C1386 1.349 . S
C1387 C1403 1.349 . S
C1388 C1386 1.327 . S
C1388 C1407 1.429 . S
C1388 H1412 0.950 . S
C1389 C1406 1.574 . S
C1389 C1408 1.368 . S
C1389 H1413 0.949 . S
H1390 C1394 0.949 . S
C1391 C1392 1.349 . S
C1391 C1393 1.327 . S
C1391 H1414 0.950 . S
C1392 C1391 1.349 . S
C1392 C1404 1.349 . S
C1393 C1391 1.327 . S
C1393 C1409 1.429 . S
C1393 H1415 0.950 . S
C1394 H1390 0.949 . S
C1394 C1402 1.574 . S
C1394 C1410 1.368 . S
H1395 C1403 0.950 . S
H1396 C1401 0.950 . S
H1397 C1402 0.949 . S
H1398 C1404 0.950 . S
H1399 C1405 0.950 . S
H1400 C1406 0.949 . S
C1401 H1396 0.950 . S
C1401 C1403 1.327 . S
C1401 C1407 1.429 . S
C1402 C1394 1.574 . S
C1402 H1397 0.949 . S
C1402 C1408 1.368 . S
C1403 C1387 1.349 . S
C1403 H1395 0.950 . S
C1403 C1401 1.327 . S
C1404 C1392 1.349 . S
C1404 H1398 0.950 . S
C1404 C1405 1.327 . S
C1405 H1399 0.950 . S
C1405 C1404 1.327 . S
C1405 C1409 1.429 . S
C1406 C1389 1.574 . S
C1406 H1400 0.949 . S
C1406 C1410 1.368 . S
C1407 C1388 1.429 . S
C1407 C1401 1.429 . S
C1407 C1408 1.523 . S
C1408 C1389 1.368 . S
C1408 C1402 1.368 . S
C1408 C1407 1.523 . S
C1409 C1393 1.429 . S
C1409 C1405 1.429 . S
C1409 C1410 1.523 . S
C1410 C1394 1.368 . S
C1410 C1406 1.368 . S
C1410 C1409 1.523 . S
H1411 C1386 0.950 . S
H1412 C1388 0.950 . S
H1413 C1389 0.949 . S
H1414 C1391 0.950 . S
H1415 C1393 0.950 . S
C1416 C1417 1.349 . S
C1416 C1418 1.327 . S
C1416 H1441 0.950 . S
C1417 C1416 1.349 . S
C1417 C1433 1.349 . S
C1418 C1416 1.327 . S
C1418 C1437 1.429 . S
C1418 H1442 0.950 . S
C1419 C1436 1.574 . S
C1419 C1438 1.368 . S
C1419 H1443 0.949 . S
H1420 C1424 0.949 . S
C1421 C1422 1.349 . S
C1421 C1423 1.327 . S
C1421 H1444 0.950 . S
C1422 C1421 1.349 . S
C1422 C1434 1.349 . S
C1423 C1421 1.327 . S
C1423 C1439 1.429 . S
C1423 H1445 0.950 . S
C1424 H1420 0.949 . S
C1424 C1432 1.574 . S
C1424 C1440 1.368 . S
H1425 C1433 0.950 . S
H1426 C1431 0.950 . S
H1427 C1432 0.949 . S
H1428 C1434 0.950 . S
H1429 C1435 0.950 . S
H1430 C1436 0.949 . S
C1431 H1426 0.950 . S
C1431 C1433 1.327 . S
C1431 C1437 1.429 . S
C1432 C1424 1.574 . S
C1432 H1427 0.949 . S
C1432 C1438 1.368 . S
C1433 C1417 1.349 . S
C1433 H1425 0.950 . S
C1433 C1431 1.327 . S
C1434 C1422 1.349 . S
C1434 H1428 0.950 . S
C1434 C1435 1.327 . S
C1435 H1429 0.950 . S
C1435 C1434 1.327 . S
C1435 C1439 1.429 . S
C1436 C1419 1.574 . S
C1436 H1430 0.949 . S
C1436 C1440 1.368 . S
C1437 C1418 1.429 . S
C1437 C1431 1.429 . S
C1437 C1438 1.523 . S
C1438 C1419 1.368 . S
C1438 C1432 1.368 . S
C1438 C1437 1.523 . S
C1439 C1423 1.429 . S
C1439 C1435 1.429 . S
C1439 C1440 1.523 . S
C1440 C1424 1.368 . S
C1440 C1436 1.368 . S
C1440 C1439 1.523 . S
H1441 C1416 0.950 . S
H1442 C1418 0.950 . S
H1443 C1419 0.949 . S
H1444 C1421 0.950 . S
H1445 C1423 0.950 . S
C1446 C1447 1.349 . S
C1446 C1448 1.327 . S
C1446 H1471 0.950 . S
C1447 C1446 1.349 . S
C1447 C1463 1.349 . S
C1448 C1446 1.327 . S
C1448 C1467 1.429 . S
C1448 H1472 0.950 . S
C1449 C1466 1.574 . S
C1449 C1468 1.368 . S
C1449 H1473 0.949 . S
H1450 C1454 0.949 . S
C1451 C1452 1.349 . S
C1451 C1453 1.327 . S
C1451 H1474 0.950 . S
C1452 C1451 1.349 . S
C1452 C1464 1.349 . S
C1453 C1451 1.327 . S
C1453 C1469 1.429 . S
C1453 H1475 0.950 . S
C1454 H1450 0.949 . S
C1454 C1462 1.574 . S
C1454 C1470 1.368 . S
H1455 C1463 0.950 . S
H1456 C1461 0.950 . S
H1457 C1462 0.949 . S
H1458 C1464 0.950 . S
H1459 C1465 0.950 . S
H1460 C1466 0.949 . S
C1461 H1456 0.950 . S
C1461 C1463 1.327 . S
C1461 C1467 1.429 . S
C1462 C1454 1.574 . S
C1462 H1457 0.949 . S
C1462 C1468 1.368 . S
C1463 C1447 1.349 . S
C1463 H1455 0.950 . S
C1463 C1461 1.327 . S
C1464 C1452 1.349 . S
C1464 H1458 0.950 . S
C1464 C1465 1.327 . S
C1465 H1459 0.950 . S
C1465 C1464 1.327 . S
C1465 C1469 1.429 . S
C1466 C1449 1.574 . S
C1466 H1460 0.949 . S
C1466 C1470 1.368 . S
C1467 C1448 1.429 . S
C1467 C1461 1.429 . S
C1467 C1468 1.523 . S
C1468 C1449 1.368 . S
C1468 C1462 1.368 . S
C1468 C1467 1.523 . S
C1469 C1453 1.429 . S
C1469 C1465 1.429 . S
C1469 C1470 1.523 . S
C1470 C1454 1.368 . S
C1470 C1466 1.368 . S
C1470 C1469 1.523 . S
H1471 C1446 0.950 . S
H1472 C1448 0.950 . S
H1473 C1449 0.949 . S
H1474 C1451 0.950 . S
H1475 C1453 0.950 . S
C1476 C1477 1.349 . S
C1476 C1478 1.327 . S
C1476 H1501 0.950 . S
C1477 C1476 1.349 . S
C1477 C1493 1.349 . S
C1478 C1476 1.327 . S
C1478 C1497 1.429 . S
C1478 H1502 0.950 . S
C1479 C1496 1.574 . S
C1479 C1498 1.368 . S
C1479 H1503 0.949 . S
H1480 C1484 0.949 . S
C1481 C1482 1.349 . S
C1481 C1483 1.327 . S
C1481 H1504 0.950 . S
C1482 C1481 1.349 . S
C1482 C1494 1.349 . S
C1483 C1481 1.327 . S
C1483 C1499 1.429 . S
C1483 H1505 0.950 . S
C1484 H1480 0.949 . S
C1484 C1492 1.574 . S
C1484 C1500 1.368 . S
H1485 C1493 0.950 . S
H1486 C1491 0.950 . S
H1487 C1492 0.949 . S
H1488 C1494 0.950 . S
H1489 C1495 0.950 . S
H1490 C1496 0.949 . S
C1491 H1486 0.950 . S
C1491 C1493 1.327 . S
C1491 C1497 1.429 . S
C1492 C1484 1.574 . S
C1492 H1487 0.949 . S
C1492 C1498 1.368 . S
C1493 C1477 1.349 . S
C1493 H1485 0.950 . S
C1493 C1491 1.327 . S
C1494 C1482 1.349 . S
C1494 H1488 0.950 . S
C1494 C1495 1.327 . S
C1495 H1489 0.950 . S
C1495 C1494 1.327 . S
C1495 C1499 1.429 . S
C1496 C1479 1.574 . S
C1496 H1490 0.949 . S
C1496 C1500 1.368 . S
C1497 C1478 1.429 . S
C1497 C1491 1.429 . S
C1497 C1498 1.523 . S
C1498 C1479 1.368 . S
C1498 C1492 1.368 . S
C1498 C1497 1.523 . S
C1499 C1483 1.429 . S
C1499 C1495 1.429 . S
C1499 C1500 1.523 . S
C1500 C1484 1.368 . S
C1500 C1496 1.368 . S
C1500 C1499 1.523 . S
H1501 C1476 0.950 . S
H1502 C1478 0.950 . S
H1503 C1479 0.949 . S
H1504 C1481 0.950 . S
H1505 C1483 0.950 . S
C1506 C1507 1.349 . S
C1506 C1508 1.327 . S
C1506 H1531 0.950 . S
C1507 C1506 1.349 . S
C1507 C1523 1.349 . S
C1508 C1506 1.327 . S
C1508 C1527 1.429 . S
C1508 H1532 0.950 . S
C1509 C1526 1.574 . S
C1509 C1528 1.368 . S
C1509 H1533 0.949 . S
H1510 C1514 0.949 . S
C1511 C1512 1.349 . S
C1511 C1513 1.327 . S
C1511 H1534 0.950 . S
C1512 C1511 1.349 . S
C1512 C1524 1.349 . S
C1513 C1511 1.327 . S
C1513 C1529 1.429 . S
C1513 H1535 0.950 . S
C1514 H1510 0.949 . S
C1514 C1522 1.574 . S
C1514 C1530 1.368 . S
H1515 C1523 0.950 . S
H1516 C1521 0.950 . S
H1517 C1522 0.949 . S
H1518 C1524 0.950 . S
H1519 C1525 0.950 . S
H1520 C1526 0.949 . S
C1521 H1516 0.950 . S
C1521 C1523 1.327 . S
C1521 C1527 1.429 . S
C1522 C1514 1.574 . S
C1522 H1517 0.949 . S
C1522 C1528 1.368 . S
C1523 C1507 1.349 . S
C1523 H1515 0.950 . S
C1523 C1521 1.327 . S
C1524 C1512 1.349 . S
C1524 H1518 0.950 . S
C1524 C1525 1.327 . S
C1525 H1519 0.950 . S
C1525 C1524 1.327 . S
C1525 C1529 1.429 . S
C1526 C1509 1.574 . S
C1526 H1520 0.949 . S
C1526 C1530 1.368 . S
C1527 C1508 1.429 . S
C1527 C1521 1.429 . S
C1527 C1528 1.523 . S
C1528 C1509 1.368 . S
C1528 C1522 1.368 . S
C1528 C1527 1.523 . S
C1529 C1513 1.429 . S
C1529 C1525 1.429 . S
C1529 C1530 1.523 . S
C1530 C1514 1.368 . S
C1530 C1526 1.368 . S
C1530 C1529 1.523 . S
H1531 C1506 0.950 . S
H1532 C1508 0.950 . S
H1533 C1509 0.949 . S
H1534 C1511 0.950 . S
H1535 C1513 0.950 . S
C1536 C1537 1.349 . S
C1536 C1538 1.327 . S
C1536 H1561 0.950 . S
C1537 C1536 1.349 . S
C1537 C1553 1.349 . S
C1538 C1536 1.327 . S
C1538 C1557 1.429 . S
C1538 H1562 0.950 . S
C1539 C1556 1.574 . S
C1539 C1558 1.368 . S
C1539 H1563 0.949 . S
H1540 C1544 0.949 . S
C1541 C1542 1.349 . S
C1541 C1543 1.327 . S
C1541 H1564 0.950 . S
C1542 C1541 1.349 . S
C1542 C1554 1.349 . S
C1543 C1541 1.327 . S
C1543 C1559 1.429 . S
C1543 H1565 0.950 . S
C1544 H1540 0.949 . S
C1544 C1552 1.574 . S
C1544 C1560 1.368 . S
H1545 C1553 0.950 . S
H1546 C1551 0.950 . S
H1547 C1552 0.949 . S
H1548 C1554 0.950 . S
H1549 C1555 0.950 . S
H1550 C1556 0.949 . S
C1551 H1546 0.950 . S
C1551 C1553 1.327 . S
C1551 C1557 1.429 . S
C1552 C1544 1.574 . S
C1552 H1547 0.949 . S
C1552 C1558 1.368 . S
C1553 C1537 1.349 . S
C1553 H1545 0.950 . S
C1553 C1551 1.327 . S
C1554 C1542 1.349 . S
C1554 H1548 0.950 . S
C1554 C1555 1.327 . S
C1555 H1549 0.950 . S
C1555 C1554 1.327 . S
C1555 C1559 1.429 . S
C1556 C1539 1.574 . S
C1556 H1550 0.949 . S
C1556 C1560 1.368 . S
C1557 C1538 1.429 . S
C1557 C1551 1.429 . S
C1557 C1558 1.523 . S
C1558 C1539 1.368 . S
C1558 C1552 1.368 . S
C1558 C1557 1.523 . S
C1559 C1543 1.429 . S
C1559 C1555 1.429 . S
C1559 C1560 1.523 . S
C1560 C1544 1.368 . S
C1560 C1556 1.368 . S
C1560 C1559 1.523 . S
H1561 C1536 0.950 . S
H1562 C1538 0.950 . S
H1563 C1539 0.949 . S
H1564 C1541 0.950 . S
H1565 C1543 0.950 . S
C1566 C1567 1.349 . S
C1566 C1568 1.327 . S
C1566 H1591 0.950 . S
C1567 C1566 1.349 . S
C1567 C1583 1.349 . S
C1568 C1566 1.327 . S
C1568 C1587 1.429 . S
C1568 H1592 0.950 . S
C1569 C1586 1.574 . S
C1569 C1588 1.368 . S
C1569 H1593 0.949 . S
H1570 C1574 0.949 . S
C1571 C1572 1.349 . S
C1571 C1573 1.327 . S
C1571 H1594 0.950 . S
C1572 C1571 1.349 . S
C1572 C1584 1.349 . S
C1573 C1571 1.327 . S
C1573 C1589 1.429 . S
C1573 H1595 0.950 . S
C1574 H1570 0.949 . S
C1574 C1582 1.574 . S
C1574 C1590 1.368 . S
H1575 C1583 0.950 . S
H1576 C1581 0.950 . S
H1577 C1582 0.949 . S
H1578 C1584 0.950 . S
H1579 C1585 0.950 . S
H1580 C1586 0.949 . S
C1581 H1576 0.950 . S
C1581 C1583 1.327 . S
C1581 C1587 1.429 . S
C1582 C1574 1.574 . S
C1582 H1577 0.949 . S
C1582 C1588 1.368 . S
C1583 C1567 1.349 . S
C1583 H1575 0.950 . S
C1583 C1581 1.327 . S
C1584 C1572 1.349 . S
C1584 H1578 0.950 . S
C1584 C1585 1.327 . S
C1585 H1579 0.950 . S
C1585 C1584 1.327 . S
C1585 C1589 1.429 . S
C1586 C1569 1.574 . S
C1586 H1580 0.949 . S
C1586 C1590 1.368 . S
C1587 C1568 1.429 . S
C1587 C1581 1.429 . S
C1587 C1588 1.523 . S
C1588 C1569 1.368 . S
C1588 C1582 1.368 . S
C1588 C1587 1.523 . S
C1589 C1573 1.429 . S
C1589 C1585 1.429 . S
C1589 C1590 1.523 . S
C1590 C1574 1.368 . S
C1590 C1586 1.368 . S
C1590 C1589 1.523 . S
H1591 C1566 0.950 . S
H1592 C1568 0.950 . S
H1593 C1569 0.949 . S
H1594 C1571 0.950 . S
H1595 C1573 0.950 . S
C1596 C1597 1.349 . S
C1596 C1598 1.327 . S
C1596 H1621 0.950 . S
C1597 C1596 1.349 . S
C1597 C1613 1.349 . S
C1598 C1596 1.327 . S
C1598 C1617 1.429 . S
C1598 H1622 0.950 . S
C1599 C1616 1.574 . S
C1599 C1618 1.368 . S
C1599 H1623 0.949 . S
H1600 C1604 0.949 . S
C1601 C1602 1.349 . S
C1601 C1603 1.327 . S
C1601 H1624 0.950 . S
C1602 C1601 1.349 . S
C1602 C1614 1.349 . S
C1603 C1601 1.327 . S
C1603 C1619 1.429 . S
C1603 H1625 0.950 . S
C1604 H1600 0.949 . S
C1604 C1612 1.574 . S
C1604 C1620 1.368 . S
H1605 C1613 0.950 . S
H1606 C1611 0.950 . S
H1607 C1612 0.949 . S
H1608 C1614 0.950 . S
H1609 C1615 0.950 . S
H1610 C1616 0.949 . S
C1611 H1606 0.950 . S
C1611 C1613 1.327 . S
C1611 C1617 1.429 . S
C1612 C1604 1.574 . S
C1612 H1607 0.949 . S
C1612 C1618 1.368 . S
C1613 C1597 1.349 . S
C1613 H1605 0.950 . S
C1613 C1611 1.327 . S
C1614 C1602 1.349 . S
C1614 H1608 0.950 . S
C1614 C1615 1.327 . S
C1615 H1609 0.950 . S
C1615 C1614 1.327 . S
C1615 C1619 1.429 . S
C1616 C1599 1.574 . S
C1616 H1610 0.949 . S
C1616 C1620 1.368 . S
C1617 C1598 1.429 . S
C1617 C1611 1.429 . S
C1617 C1618 1.523 . S
C1618 C1599 1.368 . S
C1618 C1612 1.368 . S
C1618 C1617 1.523 . S
C1619 C1603 1.429 . S
C1619 C1615 1.429 . S
C1619 C1620 1.523 . S
C1620 C1604 1.368 . S
C1620 C1616 1.368 . S
C1620 C1619 1.523 . S
H1621 C1596 0.950 . S
H1622 C1598 0.950 . S
H1623 C1599 0.949 . S
H1624 C1601 0.950 . S
H1625 C1603 0.950 . S
C1626 C1627 1.349 . S
C1626 C1628 1.327 . S
C1626 H1651 0.950 . S
C1627 C1626 1.349 . S
C1627 C1643 1.349 . S
C1628 C1626 1.327 . S
C1628 C1647 1.429 . S
C1628 H1652 0.950 . S
C1629 C1646 1.574 . S
C1629 C1648 1.368 . S
C1629 H1653 0.949 . S
H1630 C1634 0.949 . S
C1631 C1632 1.349 . S
C1631 C1633 1.327 . S
C1631 H1654 0.950 . S
C1632 C1631 1.349 . S
C1632 C1644 1.349 . S
C1633 C1631 1.327 . S
C1633 C1649 1.429 . S
C1633 H1655 0.950 . S
C1634 H1630 0.949 . S
C1634 C1642 1.574 . S
C1634 C1650 1.368 . S
H1635 C1643 0.950 . S
H1636 C1641 0.950 . S
H1637 C1642 0.949 . S
H1638 C1644 0.950 . S
H1639 C1645 0.950 . S
H1640 C1646 0.949 . S
C1641 H1636 0.950 . S
C1641 C1643 1.327 . S
C1641 C1647 1.429 . S
C1642 C1634 1.574 . S
C1642 H1637 0.949 . S
C1642 C1648 1.368 . S
C1643 C1627 1.349 . S
C1643 H1635 0.950 . S
C1643 C1641 1.327 . S
C1644 C1632 1.349 . S
C1644 H1638 0.950 . S
C1644 C1645 1.327 . S
C1645 H1639 0.950 . S
C1645 C1644 1.327 . S
C1645 C1649 1.429 . S
C1646 C1629 1.574 . S
C1646 H1640 0.949 . S
C1646 C1650 1.368 . S
C1647 C1628 1.429 . S
C1647 C1641 1.429 . S
C1647 C1648 1.523 . S
C1648 C1629 1.368 . S
C1648 C1642 1.368 . S
C1648 C1647 1.523 . S
C1649 C1633 1.429 . S
C1649 C1645 1.429 . S
C1649 C1650 1.523 . S
C1650 C1634 1.368 . S
C1650 C1646 1.368 . S
C1650 C1649 1.523 . S
H1651 C1626 0.950 . S
H1652 C1628 0.950 . S
H1653 C1629 0.949 . S
H1654 C1631 0.950 . S
H1655 C1633 0.950 . S
C1656 C1657 1.349 . S
C1656 C1658 1.327 . S
C1656 H1681 0.950 . S
C1657 C1656 1.349 . S
C1657 C1673 1.349 . S
C1658 C1656 1.327 . S
C1658 C1677 1.429 . S
C1658 H1682 0.950 . S
C1659 C1676 1.574 . S
C1659 C1678 1.368 . S
C1659 H1683 0.949 . S
H1660 C1664 0.949 . S
C1661 C1662 1.349 . S
C1661 C1663 1.327 . S
C1661 H1684 0.950 . S
C1662 C1661 1.349 . S
C1662 C1674 1.349 . S
C1663 C1661 1.327 . S
C1663 C1679 1.429 . S
C1663 H1685 0.950 . S
C1664 H1660 0.949 . S
C1664 C1672 1.574 . S
C1664 C1680 1.368 . S
H1665 C1673 0.950 . S
H1666 C1671 0.950 . S
H1667 C1672 0.949 . S
H1668 C1674 0.950 . S
H1669 C1675 0.950 . S
H1670 C1676 0.949 . S
C1671 H1666 0.950 . S
C1671 C1673 1.327 . S
C1671 C1677 1.429 . S
C1672 C1664 1.574 . S
C1672 H1667 0.949 . S
C1672 C1678 1.368 . S
C1673 C1657 1.349 . S
C1673 H1665 0.950 . S
C1673 C1671 1.327 . S
C1674 C1662 1.349 . S
C1674 H1668 0.950 . S
C1674 C1675 1.327 . S
C1675 H1669 0.950 . S
C1675 C1674 1.327 . S
C1675 C1679 1.429 . S
C1676 C1659 1.574 . S
C1676 H1670 0.949 . S
C1676 C1680 1.368 . S
C1677 C1658 1.429 . S
C1677 C1671 1.429 . S
C1677 C1678 1.523 . S
C1678 C1659 1.368 . S
C1678 C1672 1.368 . S
C1678 C1677 1.523 . S
C1679 C1663 1.429 . S
C1679 C1675 1.429 . S
C1679 C1680 1.523 . S
C1680 C1664 1.368 . S
C1680 C1676 1.368 . S
C1680 C1679 1.523 . S
H1681 C1656 0.950 . S
H1682 C1658 0.950 . S
H1683 C1659 0.949 . S
H1684 C1661 0.950 . S
H1685 C1663 0.950 . S
C1686 C1687 1.349 . S
C1686 C1688 1.327 . S
C1686 H1711 0.950 . S
C1687 C1686 1.349 . S
C1687 C1703 1.349 . S
C1688 C1686 1.327 . S
C1688 C1707 1.429 . S
C1688 H1712 0.950 . S
C1689 C1706 1.574 . S
C1689 C1708 1.368 . S
C1689 H1713 0.949 . S
H1690 C1694 0.949 . S
C1691 C1692 1.349 . S
C1691 C1693 1.327 . S
C1691 H1714 0.950 . S
C1692 C1691 1.349 . S
C1692 C1704 1.349 . S
C1693 C1691 1.327 . S
C1693 C1709 1.429 . S
C1693 H1715 0.950 . S
C1694 H1690 0.949 . S
C1694 C1702 1.574 . S
C1694 C1710 1.368 . S
H1695 C1703 0.950 . S
H1696 C1701 0.950 . S
H1697 C1702 0.949 . S
H1698 C1704 0.950 . S
H1699 C1705 0.950 . S
H1700 C1706 0.949 . S
C1701 H1696 0.950 . S
C1701 C1703 1.327 . S
C1701 C1707 1.429 . S
C1702 C1694 1.574 . S
C1702 H1697 0.949 . S
C1702 C1708 1.368 . S
C1703 C1687 1.349 . S
C1703 H1695 0.950 . S
C1703 C1701 1.327 . S
C1704 C1692 1.349 . S
C1704 H1698 0.950 . S
C1704 C1705 1.327 . S
C1705 H1699 0.950 . S
C1705 C1704 1.327 . S
C1705 C1709 1.429 . S
C1706 C1689 1.574 . S
C1706 H1700 0.949 . S
C1706 C1710 1.368 . S
C1707 C1688 1.429 . S
C1707 C1701 1.429 . S
C1707 C1708 1.523 . S
C1708 C1689 1.368 . S
C1708 C1702 1.368 . S
C1708 C1707 1.523 . S
C1709 C1693 1.429 . S
C1709 C1705 1.429 . S
C1709 C1710 1.523 . S
C1710 C1694 1.368 . S
C1710 C1706 1.368 . S
C1710 C1709 1.523 . S
H1711 C1686 0.950 . S
H1712 C1688 0.950 . S
H1713 C1689 0.949 . S
H1714 C1691 0.950 . S
H1715 C1693 0.950 . S
C1716 C1717 1.349 . S
C1716 C1718 1.327 . S
C1716 H1741 0.950 . S
C1717 C1716 1.349 . S
C1717 C1733 1.349 . S
C1718 C1716 1.327 . S
C1718 C1737 1.429 . S
C1718 H1742 0.950 . S
C1719 C1736 1.574 . S
C1719 C1738 1.368 . S
C1719 H1743 0.949 . S
H1720 C1724 0.949 . S
C1721 C1722 1.349 . S
C1721 C1723 1.327 . S
C1721 H1744 0.950 . S
C1722 C1721 1.349 . S
C1722 C1734 1.349 . S
C1723 C1721 1.327 . S
C1723 C1739 1.429 . S
C1723 H1745 0.950 . S
C1724 H1720 0.949 . S
C1724 C1732 1.574 . S
C1724 C1740 1.368 . S
H1725 C1733 0.950 . S
H1726 C1731 0.950 . S
H1727 C1732 0.949 . S
H1728 C1734 0.950 . S
H1729 C1735 0.950 . S
H1730 C1736 0.949 . S
C1731 H1726 0.950 . S
C1731 C1733 1.327 . S
C1731 C1737 1.429 . S
C1732 C1724 1.574 . S
C1732 H1727 0.949 . S
C1732 C1738 1.368 . S
C1733 C1717 1.349 . S
C1733 H1725 0.950 . S
C1733 C1731 1.327 . S
C1734 C1722 1.349 . S
C1734 H1728 0.950 . S
C1734 C1735 1.327 . S
C1735 H1729 0.950 . S
C1735 C1734 1.327 . S
C1735 C1739 1.429 . S
C1736 C1719 1.574 . S
C1736 H1730 0.949 . S
C1736 C1740 1.368 . S
C1737 C1718 1.429 . S
C1737 C1731 1.429 . S
C1737 C1738 1.523 . S
C1738 C1719 1.368 . S
C1738 C1732 1.368 . S
C1738 C1737 1.523 . S
C1739 C1723 1.429 . S
C1739 C1735 1.429 . S
C1739 C1740 1.523 . S
C1740 C1724 1.368 . S
C1740 C1736 1.368 . S
C1740 C1739 1.523 . S
H1741 C1716 0.950 . S
H1742 C1718 0.950 . S
H1743 C1719 0.949 . S
H1744 C1721 0.950 . S
H1745 C1723 0.950 . S
C1746 C1747 1.349 . S
C1746 C1748 1.327 . S
C1746 H1771 0.950 . S
C1747 C1746 1.349 . S
C1747 C1763 1.349 . S
C1748 C1746 1.327 . S
C1748 C1767 1.429 . S
C1748 H1772 0.950 . S
C1749 C1766 1.574 . S
C1749 C1768 1.368 . S
C1749 H1773 0.949 . S
H1750 C1754 0.949 . S
C1751 C1752 1.349 . S
C1751 C1753 1.327 . S
C1751 H1774 0.950 . S
C1752 C1751 1.349 . S
C1752 C1764 1.349 . S
C1753 C1751 1.327 . S
C1753 C1769 1.429 . S
C1753 H1775 0.950 . S
C1754 H1750 0.949 . S
C1754 C1762 1.574 . S
C1754 C1770 1.368 . S
H1755 C1763 0.950 . S
H1756 C1761 0.950 . S
H1757 C1762 0.949 . S
H1758 C1764 0.950 . S
H1759 C1765 0.950 . S
H1760 C1766 0.949 . S
C1761 H1756 0.950 . S
C1761 C1763 1.327 . S
C1761 C1767 1.429 . S
C1762 C1754 1.574 . S
C1762 H1757 0.949 . S
C1762 C1768 1.368 . S
C1763 C1747 1.349 . S
C1763 H1755 0.950 . S
C1763 C1761 1.327 . S
C1764 C1752 1.349 . S
C1764 H1758 0.950 . S
C1764 C1765 1.327 . S
C1765 H1759 0.950 . S
C1765 C1764 1.327 . S
C1765 C1769 1.429 . S
C1766 C1749 1.574 . S
C1766 H1760 0.949 . S
C1766 C1770 1.368 . S
C1767 C1748 1.429 . S
C1767 C1761 1.429 . S
C1767 C1768 1.523 . S
C1768 C1749 1.368 . S
C1768 C1762 1.368 . S
C1768 C1767 1.523 . S
C1769 C1753 1.429 . S
C1769 C1765 1.429 . S
C1769 C1770 1.523 . S
C1770 C1754 1.368 . S
C1770 C1766 1.368 . S
C1770 C1769 1.523 . S
H1771 C1746 0.950 . S
H1772 C1748 0.950 . S
H1773 C1749 0.949 . S
H1774 C1751 0.950 . S
H1775 C1753 0.950 . S
C337 C314 1.558 . S
C342 C7 1.558 . S
C367 C20 1.558 . S
C372 C231 1.558 . S
C397 C328 1.558 . S
C402 C35 1.558 . S
C427 C301 1.558 . S
C432 C49 1.558 . S
C457 C259 1.558 . S
C462 C63 1.558 . S
C487 C272 1.558 . S
C492 C77 1.558 . S
C517 C287 1.558 . S
C522 C90 1.558 . S
C547 C104 1.558 . S
C552 C244 1.558 . S
C577 C188 1.558 . S
C582 C118 1.558 . S
C607 C203 1.558 . S
C612 C133 1.558 . S
C637 C146 1.558 . S
C642 C216 1.558 . S
C667 C161 1.558 . S
C672 C175 1.558 . S
C697 C105 1.558 . S
C702 C202 1.558 . S
C727 C217 1.558 . S
C732 C62 1.558 . S
C757 C76 1.558 . S
C762 C174 1.558 . S
C787 C189 1.558 . S
C792 C91 1.558 . S
C817 C147 1.558 . S
C822 C21 1.558 . S
C847 C34 1.558 . S
C852 C160 1.558 . S
C877 C48 1.558 . S
C882 C119 1.558 . S
C907 C6 1.558 . S
C912 C132 1.558 . S
C937 C286 1.558 . S
C942 C300 1.558 . S
C967 C315 1.558 . S
C972 C245 1.558 . S
C997 C258 1.558 . S
C1002 C230 1.558 . S
C1027 C329 1.558 . S
C1032 C273 1.558 . S
C1057 C8 0.685 . S
C1062 C120 0.685 . S
C1087 C135 0.685 . S
C1092 C23 0.685 . S
C1117 C36 0.685 . S
C1122 C148 0.685 . S
C1147 C50 0.685 . S
C1152 C163 0.685 . S
C1177 C64 0.685 . S
C1182 C177 0.685 . S
C1207 C78 0.685 . S
C1212 C190 0.685 . S
C1237 C205 0.685 . S
C1242 C93 0.685 . S
C1267 C218 0.685 . S
C1272 C107 0.685 . S
C1297 C121 0.685 . S
C1302 C233 0.685 . S
C1327 C134 0.685 . S
C1332 C330 0.685 . S
C1357 C303 0.685 . S
C1362 C149 0.685 . S
C1387 C316 0.685 . S
C1392 C162 0.685 . S
C1417 C246 0.685 . S
C1422 C176 0.685 . S
C1447 C261 0.685 . S
C1452 C191 0.685 . S
C1477 C204 0.685 . S
C1482 C274 0.685 . S
C1507 C219 0.685 . S
C1512 C289 0.685 . S
C1537 C9 0.685 . S
C1542 C232 0.685 . S
C1567 C247 0.685 . S
C1572 C65 0.685 . S
C1597 C260 0.685 . S
C1602 C79 0.685 . S
C1627 C275 0.685 . S
C1632 C92 0.685 . S
C1657 C288 0.685 . S
C1662 C106 0.685 . S
C1687 C302 0.685 . S
C1692 C37 0.685 . S
C1717 C51 0.685 . S
C1722 C317 0.685 . S
C1747 C331 0.685 . S
C1752 C22 0.685 . S
