# Generated by pormake.
# Topology bcs, (6)-cn, num edge types: 1
# Building blocks:
#     Node 0, Type 0, BuildingBlock: VOLQOD_clean_sbu_1, # of connection points: 6
#     Node 1, Type 0, BuildingBlock: VOLQOD_clean_sbu_1, # of connection points: 6
#     Node 2, Type 0, BuildingBlock: VOLQOD_clean_sbu_1, # of connection points: 6
#     Node 3, Type 0, BuildingBlock: VOLQOD_clean_sbu_1, # of connection points: 6
#     Node 4, Type 0, BuildingBlock: VOLQOD_clean_sbu_1, # of connection points: 6
#     Node 5, Type 0, BuildingBlock: VOLQOD_clean_sbu_1, # of connection points: 6
#     Node 6, Type 0, BuildingBlock: VOLQOD_clean_sbu_1, # of connection points: 6
#     Node 7, Type 0, BuildingBlock: VOLQOD_clean_sbu_1, # of connection points: 6
#     Node 8, Type 0, BuildingBlock: VOLQOD_clean_sbu_1, # of connection points: 6
#     Node 9, Type 0, BuildingBlock: VOLQOD_clean_sbu_1, # of connection points: 6
#     Node 10, Type 0, BuildingBlock: VOLQOD_clean_sbu_1, # of connection points: 6
#     Node 11, Type 0, BuildingBlock: VOLQOD_clean_sbu_1, # of connection points: 6
#     Node 12, Type 0, BuildingBlock: VOLQOD_clean_sbu_1, # of connection points: 6
#     Node 13, Type 0, BuildingBlock: VOLQOD_clean_sbu_1, # of connection points: 6
#     Node 14, Type 0, BuildingBlock: VOLQOD_clean_sbu_1, # of connection points: 6
#     Node 15, Type 0, BuildingBlock: VOLQOD_clean_sbu_1, # of connection points: 6
#     Edge 16, Type (0, 0), BuildingBlock: OJICUG_clean_linker_0, # of connection points: 2
#     Edge 17, Type (0, 0), BuildingBlock: OJICUG_clean_linker_0, # of connection points: 2
#     Edge 18, Type (0, 0), BuildingBlock: OJICUG_clean_linker_0, # of connection points: 2
#     Edge 19, Type (0, 0), BuildingBlock: OJICUG_clean_linker_0, # of connection points: 2
#     Edge 20, Type (0, 0), BuildingBlock: OJICUG_clean_linker_0, # of connection points: 2
#     Edge 21, Type (0, 0), BuildingBlock: OJICUG_clean_linker_0, # of connection points: 2
#     Edge 22, Type (0, 0), BuildingBlock: OJICUG_clean_linker_0, # of connection points: 2
#     Edge 23, Type (0, 0), BuildingBlock: OJICUG_clean_linker_0, # of connection points: 2
#     Edge 24, Type (0, 0), BuildingBlock: OJICUG_clean_linker_0, # of connection points: 2
#     Edge 25, Type (0, 0), BuildingBlock: OJICUG_clean_linker_0, # of connection points: 2
#     Edge 26, Type (0, 0), BuildingBlock: OJICUG_clean_linker_0, # of connection points: 2
#     Edge 27, Type (0, 0), BuildingBlock: OJICUG_clean_linker_0, # of connection points: 2
#     Edge 28, Type (0, 0), BuildingBlock: OJICUG_clean_linker_0, # of connection points: 2
#     Edge 29, Type (0, 0), BuildingBlock: OJICUG_clean_linker_0, # of connection points: 2
#     Edge 30, Type (0, 0), BuildingBlock: OJICUG_clean_linker_0, # of connection points: 2
#     Edge 31, Type (0, 0), BuildingBlock: OJICUG_clean_linker_0, # of connection points: 2
#     Edge 32, Type (0, 0), BuildingBlock: OJICUG_clean_linker_0, # of connection points: 2
#     Edge 33, Type (0, 0), BuildingBlock: OJICUG_clean_linker_0, # of connection points: 2
#     Edge 34, Type (0, 0), BuildingBlock: OJICUG_clean_linker_0, # of connection points: 2
#     Edge 35, Type (0, 0), BuildingBlock: OJICUG_clean_linker_0, # of connection points: 2
#     Edge 36, Type (0, 0), BuildingBlock: OJICUG_clean_linker_0, # of connection points: 2
#     Edge 37, Type (0, 0), BuildingBlock: OJICUG_clean_linker_0, # of connection points: 2
#     Edge 38, Type (0, 0), BuildingBlock: OJICUG_clean_linker_0, # of connection points: 2
#     Edge 39, Type (0, 0), BuildingBlock: OJICUG_clean_linker_0, # of connection points: 2
#     Edge 40, Type (0, 0), BuildingBlock: OJICUG_clean_linker_0, # of connection points: 2
#     Edge 41, Type (0, 0), BuildingBlock: OJICUG_clean_linker_0, # of connection points: 2
#     Edge 42, Type (0, 0), BuildingBlock: OJICUG_clean_linker_0, # of connection points: 2
#     Edge 43, Type (0, 0), BuildingBlock: OJICUG_clean_linker_0, # of connection points: 2
#     Edge 44, Type (0, 0), BuildingBlock: OJICUG_clean_linker_0, # of connection points: 2
#     Edge 45, Type (0, 0), BuildingBlock: OJICUG_clean_linker_0, # of connection points: 2
#     Edge 46, Type (0, 0), BuildingBlock: OJICUG_clean_linker_0, # of connection points: 2
#     Edge 47, Type (0, 0), BuildingBlock: OJICUG_clean_linker_0, # of connection points: 2
#     Edge 48, Type (0, 0), BuildingBlock: OJICUG_clean_linker_0, # of connection points: 2
#     Edge 49, Type (0, 0), BuildingBlock: OJICUG_clean_linker_0, # of connection points: 2
#     Edge 50, Type (0, 0), BuildingBlock: OJICUG_clean_linker_0, # of connection points: 2
#     Edge 51, Type (0, 0), BuildingBlock: OJICUG_clean_linker_0, # of connection points: 2
#     Edge 52, Type (0, 0), BuildingBlock: OJICUG_clean_linker_0, # of connection points: 2
#     Edge 53, Type (0, 0), BuildingBlock: OJICUG_clean_linker_0, # of connection points: 2
#     Edge 54, Type (0, 0), BuildingBlock: OJICUG_clean_linker_0, # of connection points: 2
#     Edge 55, Type (0, 0), BuildingBlock: OJICUG_clean_linker_0, # of connection points: 2
#     Edge 56, Type (0, 0), BuildingBlock: OJICUG_clean_linker_0, # of connection points: 2
#     Edge 57, Type (0, 0), BuildingBlock: OJICUG_clean_linker_0, # of connection points: 2
#     Edge 58, Type (0, 0), BuildingBlock: OJICUG_clean_linker_0, # of connection points: 2
#     Edge 59, Type (0, 0), BuildingBlock: OJICUG_clean_linker_0, # of connection points: 2
#     Edge 60, Type (0, 0), BuildingBlock: OJICUG_clean_linker_0, # of connection points: 2
#     Edge 61, Type (0, 0), BuildingBlock: OJICUG_clean_linker_0, # of connection points: 2
#     Edge 62, Type (0, 0), BuildingBlock: OJICUG_clean_linker_0, # of connection points: 2
#     Edge 63, Type (0, 0), BuildingBlock: OJICUG_clean_linker_0, # of connection points: 2
# Relax obj value: 0.391
# Max RMSD: 0.282
# Mean RMSD: 0.278
data_MOF--net-bcs--node1-VOLQOD_clean_sbu_1--edge1-OJICUG_clean_linker_0
_symmetry_space_group_name_H-M    P1
_symmetry_Int_Tables_number       1
_symmetry_cell_setting            triclinic
loop_
_symmetry_equiv_pos_as_xyz
'x, y, z'
_cell_length_a     28.202389
_cell_length_b     28.21316
_cell_length_c     28.491293
_cell_angle_alpha  89.899091
_cell_angle_beta   89.889088
_cell_angle_gamma 89.777918
loop_
_atom_site_label
_atom_site_type_symbol
_atom_site_fract_x
_atom_site_fract_y
_atom_site_fract_z
_atom_type_partial_charge
O0 O 0.08917 0.10113 0.01655 0.0
Zn1 Zn 0.04913 0.05345 0.04836 0.0
O2 O 0.02291 0.00805 0.00501 0.0
Zn3 Zn 0.95585 0.01176 0.00705 0.0
Zn4 Zn 0.04478 0.02364 0.94373 0.0
Zn5 Zn 0.04359 0.94521 0.01965 0.0
O6 O 0.92796 0.94823 0.01719 0.0
O7 O -0.01062 0.90761 0.04547 0.0
O8 O 0.00081 0.08489 0.08744 0.0
O9 O 0.93464 0.05241 0.06091 0.0
O10 O 0.93122 0.04295 0.94965 0.0
O11 O -0.00398 0.0625 0.90971 0.0
O12 O 0.06074 0.96591 0.90647 0.0
O13 O 0.09463 0.02262 0.09082 0.0
O14 O 0.06557 0.91149 0.96245 0.0
O15 O 0.09848 0.94867 0.06392 0.0
C16 C 0.11498 0.09206 -0.01884 0.0
C17 C 0.94513 0.9117 0.03729 0.0
C18 C 0.95126 0.06427 0.91564 0.0
C19 C 0.95619 0.07985 0.08906 0.0
C20 C 0.06947 0.9237 0.91968 0.0
C21 C 0.11342 0.98178 0.09031 0.0
O22 O 0.10425 0.06015 0.95159 0.0
O23 O 0.28155 0.73107 0.18082 0.0
Zn24 Zn 0.31882 0.7524 0.23577 0.0
O25 O 0.28647 0.80166 0.27072 0.0
Zn26 Zn 0.32086 0.85919 0.26339 0.0
Zn27 Zn 0.2241 0.81092 0.24604 0.0
Zn28 Zn 0.28133 0.78683 0.33668 0.0
O29 O 0.32698 0.89116 0.32456 0.0
O30 O 0.31413 0.83487 0.37763 0.0
O31 O 0.38279 0.77213 0.21315 0.0
O32 O 0.38561 0.84636 0.23851 0.0
O33 O 0.28796 0.90369 0.21928 0.0
O34 O 0.21433 0.87765 0.2288 0.0
O35 O 0.17359 0.79209 0.29077 0.0
O36 O 0.32499 0.69578 0.27539 0.0
O37 O 0.21393 0.78591 0.35709 0.0
O38 O 0.30306 0.71983 0.34662 0.0
C39 C 0.24013 0.74169 0.16693 0.0
C40 C 0.32585 0.87712 0.36694 0.0
C41 C 0.24345 0.90874 0.21471 0.0
C42 C 0.40493 0.81085 0.21864 0.0
C43 C 0.17499 0.78556 0.33479 0.0
C44 C 0.31704 0.68756 0.31846 0.0
O45 O 0.21467 0.77186 0.18862 0.0
O46 O 0.45487 0.98469 0.51907 0.0
Zn47 Zn 0.51348 0.00436 0.55276 0.0
O48 O 0.55526 0.04334 0.51418 0.0
Zn49 Zn 0.61809 0.01544 0.51071 0.0
Zn50 Zn 0.52945 0.04819 0.45222 0.0
Zn51 Zn 0.55965 0.10638 0.53988 0.0
O52 O 0.66813 0.05695 0.53961 0.0
O53 O 0.62707 0.1238 0.54767 0.0
O54 O 0.54513 0.94507 0.57242 0.0
O55 O 0.61775 0.95244 0.54307 0.0
O56 O 0.63672 0.00384 0.44421 0.0
O57 O 0.57072 0.0182 0.40427 0.0
O58 O 0.52081 0.11481 0.43362 0.0
O59 O 0.49531 0.03767 0.61135 0.0
O60 O 0.52964 0.15636 0.49893 0.0
O61 O 0.5295 0.108 0.6035 0.0
C62 C 0.44128 -0.00692 0.47742 0.0
C63 C 0.66601 0.10101 0.54877 0.0
C64 C 0.61364 0.00467 0.40594 0.0
C65 C 0.58657 0.92896 0.56555 0.0
C66 C 0.51967 0.15393 0.4555 0.0
C67 C 0.50529 0.07843 0.62729 0.0
O68 O 0.46643 0.01704 0.44897 0.0
O69 O 0.39627 0.24196 0.86635 0.0
Zn70 Zn 0.34102 0.20871 0.83846 0.0
O71 O 0.30525 0.25222 0.79995 0.0
Zn72 Zn 0.24024 0.25554 0.81535 0.0
Zn73 Zn 0.3288 0.31487 0.8044 0.0
Zn74 Zn 0.30933 0.23081 0.73789 0.0
O75 O 0.19962 0.21886 0.77014 0.0
O76 O 0.25497 0.1893 0.72284 0.0
O77 O 0.29981 0.1835 0.88955 0.0
O78 O 0.23367 0.22536 0.87754 0.0
O79 O 0.21796 0.32215 0.82177 0.0
O80 O 0.28546 0.35527 0.84425 0.0
O81 O 0.32739 0.34485 0.74109 0.0
O82 O 0.37202 0.15717 0.80018 0.0
O83 O 0.30868 0.28528 0.69387 0.0
O84 O 0.3685 0.1943 0.7312 0.0
C85 C 0.41562 0.28113 0.85559 0.0
C86 C 0.21226 0.19133 0.737 0.0
C87 C 0.24043 0.35628 0.84038 0.0
C88 C 0.25849 0.19687 0.90203 0.0
C89 C 0.31684 0.32901 0.70066 0.0
C90 C 0.3862 0.163 0.75817 0.0
O91 O 0.39488 0.31196 0.82996 0.0
O92 O -0.00583 0.94479 0.45555 0.0
Zn93 Zn 0.04297 0.98178 0.49182 0.0
O94 O 0.0141 0.00918 0.54713 0.0
Zn95 Zn 0.01932 0.0767 0.54915 0.0
Zn96 Zn 0.94848 -0.00631 0.54861 0.0
Zn97 Zn 0.04407 0.98568 0.60248 0.0
O98 O 0.04935 0.1003 0.60848 0.0
O99 O 0.08745 0.03441 0.62871 0.0
O100 O 0.0758 0.03186 0.45336 0.0
O101 O 0.06222 0.09572 0.49727 0.0
O102 O 0.95752 0.10862 0.53621 0.0
O103 O 0.91002 0.04756 0.52354 0.0
O104 O 0.92886 0.98449 0.61505 0.0
O105 O 0.09323 0.93508 0.51011 0.0
O106 O -0.00335 0.97366 0.65332 0.0
O107 O 0.0827 0.92861 0.58739 0.0
C108 C 0.95535 0.9258 0.46883 0.0
C109 C 0.08089 0.07886 0.63244 0.0
C110 C 0.91778 0.09193 0.52333 0.0
C111 C 0.08131 0.0758 0.4619 0.0
C112 C 0.95171 0.97745 0.65294 0.0
C113 C 0.10195 0.91523 0.54919 0.0
O114 O 0.93561 0.93704 0.50761 0.0
O115 O 0.20582 0.68084 0.75526 0.0
Zn116 Zn 0.24882 0.72539 0.78789 0.0
O117 O 0.28662 0.75708 0.74144 0.0
Zn118 Zn 0.35076 0.75657 0.75992 0.0
Zn119 Zn 0.28076 0.72519 0.68364 0.0
Zn120 Zn 0.26731 0.82112 0.73325 0.0
O121 O 0.36219 0.81463 0.79723 0.0
O122 O 0.31194 0.86618 0.76482 0.0
O123 O 0.28921 0.68514 0.83089 0.0
O124 O 0.3601 0.70014 0.79984 0.0
O125 O 0.39511 0.75105 0.70492 0.0
O126 O 0.34408 0.71948 0.6545 0.0
O127 O 0.24208 0.76368 0.63915 0.0
O128 O 0.20651 0.77179 0.82049 0.0
O129 O 0.25624 0.83629 0.66557 0.0
O130 O 0.20621 0.83006 0.76767 0.0
C131 C 0.21309 0.65533 0.71925 0.0
C132 C 0.34532 0.85632 0.7932 0.0
C133 C 0.38561 0.73339 0.66499 0.0
C134 C 0.3334 0.67639 0.82708 0.0
C135 C 0.24075 0.80842 0.63404 0.0
C136 C 0.1891 0.81016 0.8041 0.0
O137 O 0.24779 0.66302 0.69161 0.0
O138 O 0.58637 0.03869 0.09888 0.0
Zn139 Zn 0.5572 -0.00561 0.05326 0.0
O140 O 0.50356 0.02313 0.02066 0.0
Zn141 Zn 0.44643 -0.01082 0.035 0.0
Zn142 Zn 0.49759 0.08821 0.038 0.0
Zn143 Zn 0.51303 0.02143 0.95453 0.0
O144 O 0.41325 0.96898 0.97641 0.0
O145 O 0.45605 0.00111 0.9194 0.0
O146 O 0.53721 0.93897 0.0917 0.0
O147 O 0.46165 0.93062 0.07159 0.0
O148 O 0.40272 0.03075 0.07275 0.0
O149 O 0.43073 0.1024 0.05519 0.0
O150 O 0.52234 0.1328 -0.01177 0.0
O151 O 0.6038 0.96669 0.00832 0.0
O152 O 0.53471 0.0831 0.9292 0.0
O153 O 0.56177 0.97278 0.94251 0.0
C154 C 0.57111 0.07814 0.11433 0.0
C155 C 0.42025 0.97774 0.93312 0.0
C156 C 0.39918 0.07576 0.0732 0.0
C157 C 0.49865 0.91605 0.09271 0.0
C158 C 0.53602 0.12457 0.94643 0.0
C159 C 0.59637 0.95582 0.96569 0.0
O160 O 0.53625 0.09951 0.09532 0.0
O161 O 0.35008 0.37314 0.27 0.0
Zn162 Zn 0.32095 0.33204 0.31978 0.0
O163 O 0.27812 0.28406 0.29309 0.0
Zn164 Zn 0.21488 0.29429 0.3164 0.0
Zn165 Zn 0.27642 0.29132 0.22632 0.0
Zn166 Zn 0.29799 0.21945 0.3078 0.0
O167 O 0.19001 0.23682 0.34591 0.0
O168 O 0.24847 0.18402 0.34597 0.0
O169 O 0.28775 0.37494 0.36529 0.0
O170 O 0.2157 0.34318 0.36548 0.0
O171 O 0.16813 0.31402 0.26702 0.0
O172 O 0.21251 0.30549 0.20356 0.0
O173 O 0.29593 0.23346 0.19313 0.0
O174 O 0.37415 0.30071 0.35372 0.0
O175 O 0.30909 0.18067 0.24923 0.0
O176 O 0.35959 0.22374 0.34261 0.0
C177 C 0.34438 0.37355 0.22576 0.0
C178 C 0.20623 0.19623 0.35652 0.0
C179 C 0.17292 0.31445 0.2227 0.0
C180 C 0.24567 0.37265 0.38102 0.0
C181 C 0.30671 0.19177 0.20597 0.0
C182 C 0.38508 0.25729 0.35857 0.0
O183 O 0.31743 0.34405 0.20545 0.0
O184 O 0.57665 0.40645 0.95554 0.0
Zn185 Zn 0.59927 0.46904 0.97955 0.0
O186 O 0.54641 0.50763 0.00385 0.0
Zn187 Zn 0.54501 0.56661 0.97039 0.0
Zn188 Zn 0.48662 0.47607 -0.00521 0.0
Zn189 Zn 0.55391 0.52067 0.07011 0.0
O190 O 0.56294 0.6218 0.0105 0.0
O191 O 0.55718 0.59006 0.08164 0.0
O192 O 0.63294 0.49937 0.92533 0.0
O193 O 0.58837 0.5637 0.91605 0.0
O194 O 0.48193 0.57893 0.94364 0.0
O195 O 0.44146 0.51221 0.95329 0.0
O196 O 0.45345 0.46598 0.05493 0.0
O197 O 0.64619 0.45663 0.02988 0.0
O198 O 0.50111 0.49425 0.10978 0.0
O199 O 0.61487 0.49212 0.09233 0.0
C200 C 0.5351 0.38938 0.95426 0.0
C201 C 0.56283 0.62573 0.05492 0.0
C202 C 0.44491 0.55429 0.93781 0.0
C203 C 0.6215 0.53633 0.9025 0.0
C204 C 0.46274 0.47419 0.09771 0.0
C205 C 0.64784 0.46811 0.07296 0.0
O206 O 0.49887 0.41276 0.96754 0.0
O207 O 0.7057 0.16673 0.27989 0.0
Zn208 Zn 0.73301 0.21555 0.32385 0.0
O209 O 0.76997 0.26166 0.28952 0.0
Zn210 Zn 0.83563 0.25518 0.30198 0.0
Zn211 Zn 0.75829 0.25126 0.22556 0.0
Zn212 Zn 0.75125 0.32448 0.30268 0.0
O213 O 0.86527 0.31986 0.30552 0.0
O214 O 0.80308 0.35977 0.33337 0.0
O215 O 0.7719 0.18785 0.37612 0.0
O216 O 0.84147 0.22336 0.36437 0.0
O217 O 0.86639 0.21426 0.2523 0.0
O218 O 0.80804 0.20999 0.20013 0.0
O219 O 0.75477 0.3104 0.18758 0.0
O220 O 0.67571 0.2473 0.35143 0.0
O221 O 0.74054 0.36155 0.24455 0.0
O222 O 0.68987 0.32353 0.33633 0.0
C223 C 0.68602 0.1794 0.24163 0.0
C224 C 0.84697 0.35735 0.32287 0.0
C225 C 0.84926 0.1985 0.214 0.0
C226 C 0.81416 0.19716 0.38886 0.0
C227 C 0.7454 0.3522 0.20129 0.0
C228 C 0.66353 0.2907 0.35231 0.0
O229 O 0.69803 0.21695 0.22008 0.0
O230 O 0.06979 0.53805 0.58886 0.0
Zn231 Zn 0.03803 0.51003 0.53358 0.0
O232 O 0.00982 0.55906 0.49544 0.0
Zn233 Zn 0.94327 0.5488 0.4909 0.0
Zn234 Zn 0.02085 0.62016 0.52158 0.0
Zn235 Zn 0.03718 0.55727 0.43398 0.0
O236 O 0.92816 0.52106 0.42957 0.0
O237 O -0.00362 0.51874 0.39039 0.0
O238 O -0.01004 0.46496 0.55952 0.0
O239 O 0.92334 0.50239 0.5402 0.0
O240 O 0.90559 0.60761 0.50004 0.0
O241 O 0.96049 0.65348 0.53176 0.0
O242 O 0.05492 0.66174 0.47696 0.0
O243 O 0.09051 0.47807 0.49956 0.0
O244 O 0.04646 0.62329 0.40954 0.0
O245 O 0.10063 0.52564 0.43807 0.0
C246 C 0.0733 0.58008 0.60411 0.0
C247 C 0.95238 0.50942 0.39375 0.0
C248 C 0.91805 0.6463 0.51897 0.0
C249 C 0.94518 0.46985 0.56252 0.0
C250 C 0.05702 0.66054 0.43242 0.0
C251 C 0.11503 0.49239 0.46482 0.0
O252 O 0.05588 0.61537 0.58215 0.0
O253 O 0.82601 0.77355 0.35246 0.0
Zn254 Zn 0.7895 0.72958 0.30953 0.0
O255 O 0.76031 0.76444 0.25857 0.0
Zn256 Zn 0.69323 0.77043 0.267 0.0
Zn257 Zn 0.78824 0.82556 0.2543 0.0
Zn258 Zn 0.77126 0.73006 0.20169 0.0
O259 O 0.65711 0.75838 0.20817 0.0
O260 O 0.71239 0.72492 0.16372 0.0
O261 O 0.73926 0.69212 0.3439 0.0
O262 O 0.67288 0.72101 0.31239 0.0
O263 O 0.67636 0.83542 0.28782 0.0
O264 O 0.7412 0.87615 0.2695 0.0
O265 O 0.81489 0.8361 0.19078 0.0
O266 O 0.83584 0.68263 0.28173 0.0
O267 O 0.81741 0.76358 0.16015 0.0
O268 O 0.79771 0.66617 0.21563 0.0
C269 C 0.84716 0.81184 0.34124 0.0
C270 C 0.67006 0.73922 0.16995 0.0
C271 C 0.6986 0.8744 0.28405 0.0
C272 C 0.69423 0.69226 0.3397 0.0
C273 C 0.82717 0.80744 0.15856 0.0
C274 C 0.82954 0.65664 0.24578 0.0
O275 O 0.83946 0.83246 0.30219 0.0
O276 O 0.79729 0.22537 0.68979 0.0
Zn277 Zn 0.8164 0.26843 0.7424 0.0
O278 O 0.76061 0.29429 0.77433 0.0
Zn279 Zn 0.7603 0.36202 0.76863 0.0
Zn280 Zn 0.7036 0.26913 0.74854 0.0
Zn281 Zn 0.76126 0.27806 0.83956 0.0
O282 O 0.78327 0.3919 0.8276 0.0
O283 O 0.78654 0.33167 0.87771 0.0
O284 O 0.85486 0.31951 0.71103 0.0
O285 O 0.8054 0.38059 0.71817 0.0
O286 O 0.69711 0.38755 0.74955 0.0
O287 O 0.66321 0.32125 0.72493 0.0
O288 O 0.66368 0.23643 0.79644 0.0
O289 O 0.85436 0.22752 0.78593 0.0
O290 O 0.69698 0.25864 0.86328 0.0
O291 O 0.80545 0.22339 0.8473 0.0
C292 C 0.75672 0.21235 0.67571 0.0
C293 C 0.79316 0.37517 0.86793 0.0
C294 C 0.66303 0.36599 0.72984 0.0
C295 C 0.84235 0.36165 0.70056 0.0
C296 C 0.66304 0.23944 0.84097 0.0
C297 C 0.84198 0.2092 0.82493 0.0
O298 O 0.71851 0.22625 0.69516 0.0
O299 O 0.83555 0.86342 0.80533 0.0
Zn300 Zn 0.80089 0.80379 0.82298 0.0
O301 O 0.7727 0.77302 0.76939 0.0
Zn302 Zn 0.70596 0.76167 0.77665 0.0
Zn303 Zn 0.78146 0.81286 0.7163 0.0
Zn304 Zn 0.80399 0.71404 0.75837 0.0
O305 O 0.69423 0.69332 0.78643 0.0
O306 O 0.76465 0.65873 0.77875 0.0
O307 O 0.75047 0.82229 0.86815 0.0
O308 O 0.68481 0.79747 0.83269 0.0
O309 O 0.66673 0.78275 0.72134 0.0
O310 O 0.72207 0.82299 0.68325 0.0
O311 O 0.82051 0.78289 0.66696 0.0
O312 O 0.8493 0.76232 0.85225 0.0
O313 O 0.81502 0.70782 0.68999 0.0
O314 O 0.86451 0.71104 0.7949 0.0
C315 C 0.83156 0.88873 0.76865 0.0
C316 C 0.72039 0.65652 0.78674 0.0
C317 C 0.68006 0.80775 0.68668 0.0
C318 C 0.70555 0.81896 0.8661 0.0
C319 C 0.8232 0.73884 0.65862 0.0
C320 C 0.87481 0.72981 0.83423 0.0
O321 O 0.80882 0.87441 0.73304 0.0
O322 O 0.58333 0.54547 0.47388 0.0
Zn323 Zn 0.53414 0.52847 0.52168 0.0
O324 O 0.48107 0.4959 0.49335 0.0
Zn325 Zn 0.42321 0.526 0.51069 0.0
Zn326 Zn 0.48794 0.49378 0.42686 0.0
Zn327 Zn 0.47565 0.43285 0.51636 0.0
O328 O 0.38555 0.48725 0.5559 0.0
O329 O 0.40868 0.41682 0.53035 0.0
O330 O 0.51434 0.59077 0.54907 0.0
O331 O 0.43658 0.58958 0.53691 0.0
O332 O 0.38353 0.53605 0.45506 0.0
O333 O 0.4288 0.51529 0.39478 0.0
O334 O 0.50547 0.42862 0.40629 0.0
O335 O 0.55978 0.49057 0.57475 0.0
O336 O 0.50199 0.38572 0.47147 0.0
O337 O 0.51224 0.42784 0.57599 0.0
C338 C 0.57744 0.55251 0.43011 0.0
C339 C 0.37988 0.44266 0.55331 0.0
C340 C 0.38991 0.53125 0.41121 0.0
C341 C 0.47391 0.61059 0.55049 0.0
C342 C 0.51085 0.38943 0.4279 0.0
C343 C 0.54523 0.45254 0.59395 0.0
O344 O 0.5408 0.5375 0.4087 0.0
O345 O 0.93921 0.46367 0.01997 0.0
Zn346 Zn -0.0106 0.48801 0.06314 0.0
O347 O 0.03419 0.52859 0.03012 0.0
Zn348 Zn 0.09884 0.51197 0.04418 0.0
Zn349 Zn 0.02503 0.52403 0.9636 0.0
Zn350 Zn 0.0227 0.59297 0.04818 0.0
O351 O 0.13629 0.56778 0.06742 0.0
O352 O 0.08298 0.62539 0.06103 0.0
O353 O 0.02291 0.43451 0.09428 0.0
O354 O 0.0983 0.45815 0.08951 0.0
O355 O 0.13271 0.48789 -0.0125 0.0
O356 O 0.07859 0.49056 0.93123 0.0
O357 O 0.01687 0.58757 0.93487 0.0
O358 O 0.95697 0.52276 0.11498 0.0
O359 O -0.00782 0.62927 -0.00377 0.0
O360 O 0.98373 0.59624 0.10694 0.0
C361 C 0.93388 0.46895 0.97595 0.0
C362 C 0.12503 0.6115 0.06912 0.0
C363 C 0.12011 0.48024 0.94541 0.0
C364 C 0.06658 0.42955 0.10395 0.0
C365 C -0.002 0.62462 0.95216 0.0
C366 C 0.95957 0.56536 0.12901 0.0
O367 O 0.96429 0.49064 0.95092 0.0
C368 C 0.19656 0.19407 0.96294 0.0
C369 C 0.23353 0.17117 0.93877 0.0
H370 H 0.1288 0.18596 -0.0041 0.0
C371 C 0.23631 0.12161 0.93868 0.0
H372 H 0.19419 0.23242 0.9635 0.0
C373 C 0.19838 0.09537 0.95557 0.0
C374 C 0.15844 0.11862 0.97391 0.0
H375 H 0.26462 0.10332 0.92028 0.0
H376 H 0.1988 0.0572 0.95132 0.0
C377 C 0.1591 0.16769 0.98091 0.0
C378 C 0.19251 0.94643 0.10367 0.0
C379 C 0.15409 0.97306 0.12048 0.0
H380 H 0.25508 0.90776 0.12189 0.0
C381 C 0.15385 -0.01055 0.1669 0.0
H382 H 0.19365 0.93454 0.06753 0.0
C383 C 0.18865 0.97386 0.19793 0.0
C384 C 0.22441 0.9432 0.18211 0.0
H385 H 0.12465 0.01068 0.18011 0.0
H386 H 0.18495 0.98176 0.23498 0.0
C387 C 0.22811 0.9322 0.13433 0.0
C388 C 0.37698 0.98702 0.41906 0.0
C389 C 0.39984 0.96842 0.45864 0.0
H390 H 0.3342 0.97248 0.35937 0.0
C391 C 0.38931 0.92216 0.47369 0.0
H392 H 0.38391 0.0229 0.40733 0.0
C393 C 0.36122 0.89285 0.44581 0.0
C394 C 0.34342 0.90985 0.40297 0.0
H395 H 0.40643 0.90716 0.50434 0.0
H396 H 0.357 0.85603 0.45575 0.0
C397 C 0.34876 0.95802 0.39154 0.0
C398 C 0.41749 0.08801 0.72612 0.0
C399 C 0.42516 0.13501 0.7395 0.0
H400 H 0.43794 0.0324 0.67942 0.0
C401 C 0.46533 0.15921 0.72353 0.0
H402 H 0.38631 0.06914 0.73809 0.0
C403 C 0.49462 0.13868 0.68993 0.0
C404 C 0.48357 0.09391 0.67167 0.0
H405 H 0.47155 0.19564 0.7338 0.0
H406 H 0.52339 0.15952 0.67554 0.0
C407 C 0.44679 0.06736 0.69229 0.0
C408 C 0.18699 0.90084 0.55744 0.0
C409 C 0.14132 0.88214 0.55281 0.0
H410 H 0.25577 0.89102 0.58752 0.0
C411 C 0.13256 0.83483 0.56461 0.0
H412 H 0.19393 0.93761 0.54879 0.0
C413 C 0.16812 0.80785 0.58571 0.0
C414 C 0.21185 0.82885 0.59651 0.0
H415 H 0.0972 0.82026 0.56155 0.0
H416 H 0.15945 0.77275 0.59852 0.0
C417 C 0.22214 0.87439 0.57967 0.0
C418 C 0.35441 0.87904 0.87573 0.0
C419 C 0.35875 0.89127 0.82827 0.0
H420 H 0.36866 0.89816 0.94655 0.0
C421 C 0.37668 0.93566 0.81551 0.0
H422 H 0.33968 0.84514 0.88604 0.0
C423 C 0.394 0.96599 0.85018 0.0
C424 C 0.39228 0.95244 0.89776 0.0
H425 H 0.3796 0.9457 0.7789 0.0
H426 H 0.41059 -0.00108 0.83968 0.0
C427 C 0.37043 0.90965 0.91028 0.0
C428 C 0.34605 0.14338 0.0895 0.0
C429 C 0.36319 0.09864 0.1025 0.0
H430 H 0.31384 0.20772 0.11206 0.0
C431 C 0.35423 0.08124 0.14784 0.0
H432 H 0.35243 0.15725 0.05456 0.0
C433 C 0.3331 0.11058 0.18139 0.0
C434 C 0.3202 0.15723 0.16956 0.0
H435 H 0.36743 0.04678 0.15856 0.0
H436 H 0.32955 0.09772 0.21706 0.0
C437 C 0.32432 0.17231 0.12264 0.0
C438 C 0.10389 0.15387 0.42976 0.0
C439 C 0.11187 0.10487 0.43171 0.0
H440 H 0.12749 0.22076 0.40487 0.0
C441 C 0.15104 0.08528 0.40798 0.0
H442 H 0.07392 0.16988 0.44766 0.0
C443 C 0.18254 0.11478 0.38368 0.0
C444 C 0.17459 0.16396 0.38231 0.0
H445 H 0.15808 0.04754 0.40941 0.0
H446 H 0.21283 0.09922 0.36597 0.0
C447 C 0.1347 0.183 0.40521 0.0
C448 C 0.92625 0.16229 0.18916 0.0
C449 C 0.87692 0.16598 0.18447 0.0
H450 H -0.0097 0.13201 0.16225 0.0
C451 C 0.85366 0.13917 0.15 0.0
H452 H 0.94496 0.18249 0.21554 0.0
C453 C 0.87936 0.1102 0.1198 0.0
C454 C 0.92886 0.10775 0.12324 0.0
H455 H 0.8155 0.14084 0.14597 0.0
H456 H 0.86045 0.09063 0.09309 0.0
C457 C 0.9521 0.13354 0.15857 0.0
C458 C 0.10258 0.73581 0.43214 0.0
C459 C 0.07677 0.7015 0.40736 0.0
H460 H 0.15414 0.79094 0.42778 0.0
C461 C 0.07459 0.70399 0.35822 0.0
H462 H 0.10409 0.73545 0.47013 0.0
C463 C 0.10247 0.73657 0.33405 0.0
C464 C 0.13339 0.76627 0.35885 0.0
H465 H 0.05395 0.67871 0.33834 0.0
H466 H 0.10343 0.73493 0.29606 0.0
C467 C 0.13102 0.76782 0.40798 0.0
C468 C 0.57927 0.87234 0.63222 0.0
C469 C 0.60104 0.88537 0.58964 0.0
H470 H 0.58802 0.83573 0.69767 0.0
C471 C 0.64195 0.86149 0.57472 0.0
H472 H 0.54723 0.88992 0.64415 0.0
C473 C 0.66465 0.83025 0.60494 0.0
C474 C 0.64688 0.82301 0.65043 0.0
H475 H 0.65865 0.87005 0.5415 0.0
H476 H 0.69867 0.81559 0.59454 0.0
C477 C 0.60232 0.84118 0.66276 0.0
C478 C 0.49985 0.3104 0.95101 0.0
C479 C 0.52595 0.346 0.92853 0.0
H480 H 0.44382 0.26014 0.94412 0.0
C481 C 0.52547 0.34942 0.8795 0.0
H482 H 0.49986 0.30757 -0.01105 0.0
C483 C 0.49207 0.32393 0.85411 0.0
C484 C 0.46048 0.2939 0.87772 0.0
H485 H 0.54539 0.37692 0.86171 0.0
H486 H 0.48779 0.33127 0.817 0.0
C487 C 0.46746 0.28379 0.92543 0.0
C488 C 0.91508 0.86509 0.35805 0.0
C489 C 0.87896 0.8354 0.37485 0.0
H490 H 0.968 0.91632 0.37467 0.0
C491 C 0.87078 0.83244 0.4234 0.0
H492 H 0.92232 0.86779 0.32078 0.0
C493 C 0.89642 0.86101 0.45434 0.0
C494 C 0.93127 0.89218 0.43722 0.0
H495 H 0.84305 0.80988 0.43722 0.0
H496 H 0.88832 0.8594 0.49149 0.0
C497 C 0.94129 0.89283 0.38894 0.0
C498 C 0.48555 0.66337 0.6187 0.0
C499 C 0.4681 0.65661 0.57312 0.0
H500 H 0.47224 0.69592 0.6853 0.0
C501 C 0.43453 0.68823 0.55473 0.0
H502 H 0.51172 0.63932 0.63329 0.0
C503 C 0.41252 0.7208 0.58411 0.0
C504 C 0.42352 0.72124 0.63208 0.0
H505 H 0.42129 0.68391 0.51931 0.0
H506 H 0.38249 0.74079 0.57081 0.0
C507 C 0.46312 0.69587 0.64838 0.0
C508 C 0.58665 0.19669 0.94151 0.0
C509 C 0.55967 0.1618 0.91896 0.0
H510 H 0.64128 0.24871 0.93433 0.0
C511 C 0.56173 0.15792 0.8699 0.0
H512 H 0.58553 0.20049 0.97933 0.0
C513 C 0.59331 0.18554 0.84419 0.0
C514 C 0.62389 0.21705 0.86719 0.0
H515 H 0.54075 0.1317 0.85163 0.0
H516 H 0.59568 0.17998 0.80664 0.0
C517 C 0.61885 0.22393 0.91581 0.0
C518 C 0.07181 0.38974 0.18099 0.0
C519 C 0.08177 0.38995 0.1328 0.0
H520 H 0.09346 0.36431 0.24849 0.0
C521 C 0.11401 0.3575 0.11389 0.0
H522 H 0.04686 0.41491 0.19582 0.0
C523 C 0.13996 0.32827 0.14352 0.0
C524 C 0.13479 0.3323 0.19244 0.0
H525 H 0.12165 0.35727 0.07659 0.0
H526 H 0.16704 0.3057 0.12824 0.0
C527 C 0.0984 0.36088 0.21093 0.0
C528 C 0.69874 0.55196 0.86367 0.0
C529 C 0.64905 0.5513 0.86171 0.0
H530 H 0.7616 0.58696 0.8397 0.0
C531 C 0.62543 0.57529 0.82551 0.0
H532 H 0.71752 0.53335 0.89131 0.0
C533 C 0.65036 0.6056 0.79619 0.0
C534 C 0.69908 0.61225 0.80303 0.0
H535 H 0.58709 0.57436 0.82298 0.0
H536 H 0.63078 0.62745 0.77156 0.0
C537 C 0.72387 0.58257 0.83419 0.0
C538 C 0.73437 0.37837 0.11845 0.0
C539 C 0.73297 0.38877 0.16659 0.0
H540 H 0.70891 0.39644 0.05027 0.0
C541 C 0.71274 0.43175 0.18162 0.0
H542 H 0.7507 0.34602 0.10573 0.0
C543 C 0.68853 0.46049 0.14993 0.0
C544 C 0.68464 0.4468 0.10279 0.0
H545 H 0.7121 0.44135 0.21842 0.0
H546 H 0.6699 0.49141 0.16308 0.0
C547 C 0.7105 0.40737 0.08666 0.0
C548 C 0.88089 0.48198 0.35313 0.0
C549 C 0.9297 0.47703 0.36083 0.0
H550 H 0.81639 0.4476 0.33517 0.0
C551 C 0.95275 0.43477 0.3481 0.0
H552 H 0.86256 0.51448 0.36247 0.0
C553 C 0.92616 0.39595 0.33311 0.0
C554 C 0.87649 0.39938 0.3308 0.0
H555 H -0.00959 0.43021 0.35414 0.0
H556 H 0.94407 0.36257 0.32657 0.0
C557 C 0.85446 0.44345 0.33828 0.0
C558 C 0.65402 0.59728 0.42487 0.0
C559 C 0.61016 0.5845 0.40518 0.0
H560 H 0.71551 0.64162 0.41938 0.0
C561 C 0.59529 0.60643 0.36347 0.0
H562 H 0.66633 0.58096 0.45708 0.0
C563 C 0.62264 0.64165 0.34281 0.0
C564 C 0.66595 0.65523 0.36287 0.0
H565 H 0.56163 0.59765 0.34749 0.0
H566 H 0.60977 0.65818 0.3109 0.0
C567 C 0.68199 0.63209 0.40353 0.0
C568 C 0.84058 0.44723 0.88473 0.0
C569 C 0.82066 0.40456 0.90067 0.0
H570 H 0.89263 0.50071 0.89607 0.0
C571 C 0.83364 0.38688 0.94503 0.0
H572 H 0.83105 0.46213 0.85095 0.0
C573 C 0.86886 0.40934 0.97109 0.0
C574 C 0.89188 0.44933 0.95279 0.0
H575 H 0.81854 0.35429 0.95844 0.0
H576 H 0.87998 0.3938 0.0041 0.0
C577 C 0.87619 0.46915 0.91035 0.0
C578 C 0.89923 0.80956 0.10886 0.0
C579 C 0.85354 0.82632 0.11892 0.0
H580 H 0.96504 0.82411 0.07421 0.0
C581 C 0.83559 0.86605 0.09547 0.0
H582 H 0.91336 0.77876 0.12688 0.0
C583 C 0.86438 0.89127 0.06488 0.0
C584 C 0.912 0.87781 0.05854 0.0
H585 H 0.80012 0.87904 0.10279 0.0
H586 H 0.85032 0.92344 0.04933 0.0
C587 C 0.92863 0.83551 0.07898 0.0
C588 C 0.8481 0.13914 0.87712 0.0
C589 C 0.86946 0.16949 0.84436 0.0
H590 H 0.85675 0.08116 0.9241 0.0
C591 C 0.91678 0.16157 0.83098 0.0
H592 H 0.81133 0.14374 0.88729 0.0
C593 C 0.94317 0.12553 0.85234 0.0
C594 C 0.92232 0.09671 0.88693 0.0
H595 H 0.93387 0.18423 0.80535 0.0
H596 H 0.98021 0.12143 0.84302 0.0
C597 C 0.87412 0.10296 0.89792 0.0
C598 C 0.73374 0.20287 0.59354 0.0
C599 C 0.75251 0.18253 0.63431 0.0
H600 H 0.69226 0.19129 0.53206 0.0
C601 C 0.75449 0.13311 0.63903 0.0
H602 H 0.73197 0.24106 0.5896 0.0
C603 C 0.73186 0.10448 0.60601 0.0
C604 C 0.70677 0.1256 0.5689 0.0
H605 H 0.76866 0.11707 0.67065 0.0
H606 H 0.72878 0.06685 0.61295 0.0
C607 C 0.71112 0.17445 0.56075 0.0
C608 C 0.68432 0.98119 0.35957 0.0
C609 C 0.63487 0.98222 0.36472 0.0
H610 H 0.74363 0.94632 0.32802 0.0
C611 C 0.60646 0.95453 0.3352 0.0
H612 H 0.70677 0.00274 0.38171 0.0
C613 C 0.62746 0.9216 0.3053 0.0
C614 C 0.67697 0.91707 0.30388 0.0
H615 H 0.56817 0.95495 0.33848 0.0
H616 H 0.60505 0.8975 0.28585 0.0
C617 C 0.70531 0.9491 0.32878 0.0
C618 C 0.81597 0.13151 0.44771 0.0
C619 C 0.83356 0.17501 0.43141 0.0
H620 H 0.82895 0.07071 0.49082 0.0
C621 C 0.87329 0.19504 0.45318 0.0
H622 H 0.7849 0.11569 0.43197 0.0
C623 C 0.89806 0.16976 0.4872 0.0
C624 C 0.88393 0.12367 0.49943 0.0
H625 H 0.8868 0.22918 0.44208 0.0
H626 H 0.93038 0.18493 0.50099 0.0
C627 C 0.84117 0.10584 0.48143 0.0
C628 C 0.61168 0.17216 0.19786 0.0
C629 C 0.65058 0.14984 0.21906 0.0
H630 H 0.55564 0.16675 0.1483 0.0
C631 C 0.6596 0.10176 0.2107 0.0
H632 H 0.60422 0.20933 0.20421 0.0
C633 C 0.63229 0.07738 0.17788 0.0
C634 C 0.59559 0.10093 0.15372 0.0
H635 H 0.68976 0.08419 0.22668 0.0
H636 H 0.64132 0.04092 0.16991 0.0
C637 C 0.58415 0.14783 0.16568 0.0
C638 C 0.62816 0.8535 0.88864 0.0
C639 C 0.67664 0.84777 0.89806 0.0
H640 H 0.56533 0.89315 0.9021 0.0
C641 C 0.69797 0.87531 0.93327 0.0
H642 H 0.61049 0.8326 0.86208 0.0
C643 C 0.67174 0.91015 0.95649 0.0
C644 C 0.62432 0.91811 0.94407 0.0
H645 H 0.73528 0.87139 0.94144 0.0
H646 H 0.68891 0.932 -0.01739 0.0
C647 C 0.60241 0.88865 0.91109 0.0
C648 C 0.87736 0.98537 0.69874 0.0
C649 C 0.92466 0.96992 0.69634 0.0
H650 H 0.80903 0.97244 0.7282 0.0
C651 C 0.94291 0.94109 0.7323 0.0
H652 H 0.86291 0.00916 0.67246 0.0
C653 C 0.912 0.9207 0.76482 0.0
C654 C 0.86306 0.92886 0.76074 0.0
H655 H 0.97966 0.92974 0.73192 0.0
H656 H 0.92542 0.89305 0.78773 0.0
C657 C 0.84667 0.96516 0.73123 0.0
C658 C 0.13595 0.81771 0.87383 0.0
C659 C 0.151 0.83462 0.82993 0.0
H660 H 0.09735 0.83249 0.93661 0.0
C661 C 0.13221 0.87745 0.81268 0.0
H662 H 0.14916 0.78443 0.88773 0.0
C663 C 0.10242 0.90497 0.84063 0.0
C664 C 0.09101 0.89015 0.88631 0.0
H665 H 0.14237 0.89099 0.77853 0.0
H666 H 0.09073 0.93908 0.82741 0.0
C667 C 0.10615 0.84524 0.9018 0.0
C668 C 0.93944 0.40011 0.6169 0.0
C669 C 0.91845 0.44011 0.59584 0.0
H670 H 0.93175 0.34362 0.66673 0.0
C671 C 0.8724 0.45356 0.60922 0.0
H672 H 0.97494 0.38894 0.6073 0.0
C673 C 0.84819 0.42824 0.64358 0.0
C674 C 0.86917 0.3885 0.66499 0.0
H675 H 0.85529 0.48434 0.59391 0.0
H676 H 0.81279 0.43981 0.65314 0.0
C677 C 0.91483 0.37428 0.65099 0.0
C678 C 0.49791 0.19394 0.38166 0.0
C679 C 0.49826 0.19435 0.43095 0.0
H680 H 0.46008 0.21394 0.31975 0.0
C681 C 0.46844 0.22595 0.4552 0.0
H682 H 0.52132 0.17061 0.36216 0.0
C683 C 0.43373 0.25127 0.43066 0.0
C684 C 0.42907 0.24474 0.38214 0.0
H685 H 0.46834 0.2271 0.49321 0.0
H686 H 0.40778 0.27189 0.45001 0.0
C687 C 0.46297 0.21853 0.3574 0.0
C688 C 0.61992 0.69152 0.05879 0.0
C689 C 0.57916 0.66961 0.07667 0.0
H690 H 0.68186 0.73155 0.07558 0.0
C691 C 0.5624 0.6819 0.12144 0.0
H692 H 0.63337 0.68256 0.02426 0.0
C693 C 0.58962 0.71063 0.15045 0.0
C694 C 0.6343 0.72608 0.13516 0.0
H695 H 0.53073 0.66554 0.13561 0.0
H696 H 0.5783 0.71588 0.18644 0.0
C697 C 0.64779 0.71923 0.08821 0.0
C698 C 0.19097 0.11713 0.69588 0.0
C699 C 0.17707 0.16132 0.71383 0.0
H700 H 0.17088 0.05598 0.65678 0.0
C701 C 0.13036 0.17728 0.70727 0.0
H702 H 0.22678 0.10401 0.70083 0.0
C703 C 0.09855 0.1502 0.68117 0.0
C704 C 0.11281 0.10635 0.66249 0.0
H705 H 0.11902 0.21136 0.72078 0.0
H706 H 0.06302 0.16367 0.6753 0.0
C707 C 0.15894 0.08962 0.67091 0.0
C708 C 0.59939 0.29188 0.41242 0.0
C709 C 0.61599 0.30386 0.36764 0.0
H710 H 0.55064 0.30976 0.46722 0.0
C711 C 0.58938 0.33421 0.33894 0.0
H712 H 0.61922 0.26768 0.43456 0.0
C713 C 0.54993 0.35743 0.35692 0.0
C714 C 0.53756 0.35149 0.40427 0.0
H715 H 0.60114 0.34261 0.30365 0.0
H716 H 0.53236 0.38364 0.33515 0.0
C717 C 0.5601 0.31579 0.43084 0.0
C718 C 0.46871 0.83587 0.10993 0.0
C719 C 0.49378 0.87592 0.12465 0.0
H720 H 0.42237 0.78007 0.13064 0.0
C721 C 0.5028 0.88278 0.1725 0.0
H722 H 0.46201 0.82989 0.07297 0.0
C723 C 0.47917 0.85508 0.20557 0.0
C724 C 0.4474 0.82006 0.19057 0.0
H725 H 0.52244 0.91345 0.18436 0.0
H726 H 0.48075 0.86516 0.24222 0.0
C727 C 0.44638 0.80721 0.14301 0.0
C728 C 0.95057 0.69783 0.93792 0.0
C729 C 0.97576 0.65884 0.92004 0.0
H730 H 0.89889 0.75146 0.92437 0.0
C731 C 0.9738 0.64899 0.87174 0.0
H732 H 0.95205 0.7068 0.97484 0.0
C733 C 0.94308 0.67432 0.84287 0.0
C734 C 0.91418 0.71008 0.86182 0.0
H735 H -0.00652 0.61965 0.8567 0.0
H736 H 0.94009 0.66404 0.80638 0.0
C737 C 0.92005 0.72337 0.90896 0.0
C738 C 0.44332 0.45093 0.1805 0.0
C739 C 0.42949 0.45645 0.13343 0.0
H740 H 0.42668 0.4201 0.24735 0.0
C741 C 0.38469 0.44038 0.1193 0.0
H742 H 0.47756 0.4633 0.1924 0.0
C743 C 0.35596 0.41573 0.1504 0.0
C744 C 0.37127 0.40681 0.19637 0.0
H745 H 0.37255 0.44497 0.08351 0.0
H746 H 0.32249 0.40202 0.13779 0.0
C747 C 0.41426 0.42626 0.2119 0.0
C748 C 0.42155 0.58328 0.86069 0.0
C749 C 0.4087 0.57407 0.9072 0.0
H750 H 0.40699 0.62284 0.79868 0.0
C751 C 0.36674 0.59334 0.9257 0.0
H752 H 0.45409 0.56882 0.84616 0.0
C753 C 0.33966 0.62474 0.89855 0.0
C754 C 0.35512 0.63722 0.85329 0.0
H755 H 0.35695 0.58694 0.96194 0.0
H756 H 0.30885 0.6417 0.91399 0.0
C757 C 0.39494 0.61455 0.83389 0.0
C758 C 0.14946 0.56779 0.64488 0.0
C759 C 0.10446 0.58916 0.64382 0.0
H760 H 0.22059 0.57282 0.67051 0.0
C761 C 0.09311 0.62504 0.67581 0.0
H762 H 0.15875 0.54 0.62027 0.0
C763 C 0.12789 0.64257 0.70558 0.0
C764 C 0.17462 0.62548 0.7022 0.0
H765 H 0.0584 0.64166 0.6755 0.0
H766 H 0.11936 0.67288 0.72738 0.0
C767 C 0.18473 0.58642 0.6735 0.0
C768 C 0.32449 0.41012 0.66705 0.0
C769 C 0.31881 0.36118 0.66019 0.0
H770 H 0.34716 0.47558 0.63696 0.0
C771 C 0.32096 0.34265 0.61454 0.0
H772 H 0.32166 0.42555 0.70175 0.0
C773 C 0.33547 0.3713 0.57751 0.0
C774 C 0.3476 0.41873 0.58577 0.0
H775 H 0.3156 0.30524 0.60801 0.0
H776 H 0.34138 0.35529 0.54343 0.0
C777 C 0.33854 0.4389 0.62986 0.0
C778 C 0.17494 0.72728 0.11054 0.0
C779 C 0.21765 0.71231 0.13087 0.0
H780 H 0.11232 0.70703 0.0743 0.0
C781 C 0.23376 0.66571 0.12325 0.0
H782 H 0.16212 0.76321 0.11527 0.0
C783 C 0.20488 0.63313 0.10031 0.0
C784 C 0.15983 0.64697 0.08441 0.0
H785 H 0.26677 0.65328 0.13836 0.0
H786 H 0.21658 0.59661 0.09777 0.0
C787 C 0.14634 0.69492 0.08732 0.0
C788 C 0.5854 0.36993 0.68947 0.0
C789 C 0.62624 0.39318 0.70532 0.0
H790 H 0.52736 0.37073 0.64168 0.0
C791 C 0.63541 0.43965 0.69033 0.0
H792 H 0.57706 0.33437 0.70121 0.0
C793 C 0.60715 0.46039 0.65586 0.0
C794 C 0.56928 0.43497 0.63628 0.0
H795 H 0.66649 0.45852 0.70233 0.0
H796 H 0.61673 0.4951 0.64268 0.0
C797 C 0.55706 0.3907 0.65523 0.0
C798 C 0.85375 0.58214 0.20695 0.0
C799 C 0.86658 0.62355 0.23086 0.0
H800 H 0.87423 0.53032 0.15606 0.0
C801 C 0.91338 0.63997 0.22809 0.0
H802 H 0.81764 0.56921 0.2085 0.0
C803 C 0.94515 0.61891 0.19686 0.0
C804 C 0.93075 0.58044 0.16925 0.0
H805 H 0.9238 0.6722 0.2459 0.0
H806 H 0.97988 0.63453 0.19211 0.0
C807 C 0.88596 0.56024 0.17674 0.0
C808 C 0.89472 0.72459 0.54962 0.0
C809 C 0.88188 0.67811 0.53762 0.0
H810 H 0.88546 0.78094 0.59896 0.0
C811 C 0.84108 0.6579 0.55725 0.0
H812 H 0.9257 0.74102 0.53409 0.0
C813 C 0.8192 0.67996 0.59505 0.0
C814 C 0.83712 0.72286 0.61209 0.0
H815 H 0.83014 0.62233 0.54807 0.0
H816 H 0.7909 0.66165 0.6133 0.0
C817 C 0.87212 0.74713 0.58688 0.0
C818 C 0.37231 0.56765 0.33402 0.0
C819 C 0.35767 0.55727 0.38 0.0
H820 H 0.3713 0.61851 0.27852 0.0
C821 C 0.32032 0.58354 0.40006 0.0
H822 H 0.40013 0.54728 0.3171 0.0
C823 C 0.30488 0.62506 0.37862 0.0
C824 C 0.32541 0.63959 0.3362 0.0
H825 H 0.30703 0.57536 0.43485 0.0
H826 H 0.27927 0.64723 0.39669 0.0
C827 C 0.35626 0.60882 0.3122 0.0
C828 C 0.1656 0.40255 0.84784 0.0
C829 C 0.21267 0.39471 0.86199 0.0
H830 H 0.09947 0.43647 0.86279 0.0
C831 C 0.23082 0.42005 0.90022 0.0
H832 H 0.1509 0.38384 0.81807 0.0
C833 C 0.20118 0.44985 0.92619 0.0
C834 C 0.15317 0.4552 0.91388 0.0
H835 H 0.26703 0.41473 0.91178 0.0
H836 H 0.21542 0.46722 0.95694 0.0
C837 C 0.13617 0.43278 0.87337 0.0
C838 C 0.20166 0.3925 0.45239 0.0
C839 C 0.22789 0.40804 0.41359 0.0
H840 H 0.14522 0.4078 0.49982 0.0
C841 C 0.22411 0.45512 0.39842 0.0
H842 H 0.20427 0.35607 0.46429 0.0
C843 C 0.18935 0.48447 0.41775 0.0
C844 C 0.15882 0.46687 0.45269 0.0
H845 H 0.24403 0.46743 0.36822 0.0
H846 H 0.1841 0.51948 0.40291 0.0
C847 C 0.16755 0.42197 0.47222 0.0
loop_
_geom_bond_atom_site_label_1
_geom_bond_atom_site_label_2
_geom_bond_distance
_geom_bond_site_symmetry_2
_ccdc_geom_bond_type
O0 Zn1 1.953 . S
O0 C16 1.226 1_554 S
Zn1 O0 1.953 . S
Zn1 O2 1.961 1_545 S
Zn1 O8 1.919 1_455 S
Zn1 O13 1.924 . S
O2 Zn1 1.961 1_565 S
O2 Zn3 1.900 1_465 S
O2 Zn4 1.954 1_564 S
O2 Zn5 1.951 . S
Zn3 O2 1.900 1_645 S
Zn3 O6 1.933 1_545 S
Zn3 O9 1.941 . S
Zn3 O10 1.965 1_554 S
Zn4 O2 1.954 1_546 S
Zn4 O11 1.938 1_455 S
Zn4 O12 1.906 1_545 S
Zn4 O22 1.953 . S
Zn5 O2 1.951 . S
Zn5 O7 1.932 1_455 S
Zn5 O14 1.977 1_554 S
Zn5 O15 1.910 . S
O6 Zn3 1.933 1_565 S
O6 C17 1.226 . S
O7 Zn5 1.932 1_655 S
O7 C17 1.307 . S
O8 Zn1 1.919 1_655 S
O8 C19 1.253 . S
O9 Zn3 1.941 . S
O9 C19 1.283 . S
O10 Zn3 1.965 1_556 S
O10 C18 1.303 . S
O11 Zn4 1.938 1_655 S
O11 C18 1.247 . S
O12 Zn4 1.906 1_565 S
O12 C20 1.304 . S
O13 Zn1 1.924 . S
O13 C21 1.311 1_545 S
O14 Zn5 1.977 1_556 S
O14 C20 1.272 . S
O15 Zn5 1.910 . S
O15 C21 1.231 . S
C16 O0 1.226 1_556 S
C16 O22 1.298 . S
C17 O6 1.226 . S
C17 O7 1.307 . S
C18 O10 1.303 . S
C18 O11 1.247 . S
C19 O8 1.253 . S
C19 O9 1.283 . S
C20 O12 1.304 . S
C20 O14 1.272 . S
C21 O13 1.311 1_565 S
C21 O15 1.231 . S
O22 Zn4 1.953 . S
O22 C16 1.298 . S
O23 Zn24 1.953 . S
O23 C39 1.225 . S
Zn24 O23 1.953 . S
Zn24 O25 1.949 . S
Zn24 O31 1.919 . S
Zn24 O36 1.924 . S
O25 Zn24 1.949 . S
O25 Zn26 1.923 . S
O25 Zn27 1.950 . S
O25 Zn28 1.945 . S
Zn26 O25 1.923 . S
Zn26 O29 1.933 . S
Zn26 O32 1.941 . S
Zn26 O33 1.965 . S
Zn27 O25 1.950 . S
Zn27 O34 1.938 . S
Zn27 O35 1.906 . S
Zn27 O45 1.953 . S
Zn28 O25 1.945 . S
Zn28 O30 1.932 . S
Zn28 O37 1.977 . S
Zn28 O38 1.910 . S
O29 Zn26 1.933 . S
O29 C40 1.226 . S
O30 Zn28 1.932 . S
O30 C40 1.307 . S
O31 Zn24 1.919 . S
O31 C42 1.253 . S
O32 Zn26 1.941 . S
O32 C42 1.283 . S
O33 Zn26 1.965 . S
O33 C41 1.303 . S
O34 Zn27 1.938 . S
O34 C41 1.247 . S
O35 Zn27 1.906 . S
O35 C43 1.304 . S
O36 Zn24 1.924 . S
O36 C44 1.311 . S
O37 Zn28 1.977 . S
O37 C43 1.272 . S
O38 Zn28 1.910 . S
O38 C44 1.231 . S
C39 O23 1.225 . S
C39 O45 1.298 . S
C40 O29 1.226 . S
C40 O30 1.307 . S
C41 O33 1.303 . S
C41 O34 1.247 . S
C42 O31 1.253 . S
C42 O32 1.283 . S
C43 O35 1.304 . S
C43 O37 1.272 . S
C44 O36 1.311 . S
C44 O38 1.231 . S
O45 Zn27 1.953 . S
O45 C39 1.298 . S
O46 Zn47 1.953 1_565 S
O46 C62 1.225 . S
Zn47 O46 1.953 1_545 S
Zn47 O48 1.949 . S
Zn47 O54 1.919 1_545 S
Zn47 O59 1.924 . S
O48 Zn47 1.949 . S
O48 Zn49 1.923 . S
O48 Zn50 1.950 . S
O48 Zn51 1.945 . S
Zn49 O48 1.923 . S
Zn49 O52 1.933 . S
Zn49 O55 1.941 1_545 S
Zn49 O56 1.965 . S
Zn50 O48 1.950 . S
Zn50 O57 1.938 . S
Zn50 O58 1.906 . S
Zn50 O68 1.948 1_545 S
Zn51 O48 1.945 . S
Zn51 O53 1.932 . S
Zn51 O60 1.977 . S
Zn51 O61 1.910 . S
O52 Zn49 1.933 . S
O52 C63 1.226 . S
O53 Zn51 1.932 . S
O53 C63 1.307 . S
O54 Zn47 1.919 1_565 S
O54 C65 1.253 . S
O55 Zn49 1.941 1_565 S
O55 C65 1.283 . S
O56 Zn49 1.965 . S
O56 C64 1.303 . S
O57 Zn50 1.938 . S
O57 C64 1.247 . S
O58 Zn50 1.906 . S
O58 C66 1.304 . S
O59 Zn47 1.924 . S
O59 C67 1.311 . S
O60 Zn51 1.977 . S
O60 C66 1.272 . S
O61 Zn51 1.910 . S
O61 C67 1.231 . S
C62 O46 1.225 . S
C62 O68 1.303 . S
C63 O52 1.226 . S
C63 O53 1.307 . S
C64 O56 1.303 . S
C64 O57 1.247 . S
C65 O54 1.253 . S
C65 O55 1.283 . S
C66 O58 1.304 . S
C66 O60 1.272 . S
C67 O59 1.311 . S
C67 O61 1.231 . S
O68 Zn50 1.948 1_565 S
O68 C62 1.303 . S
O69 Zn70 1.953 . S
O69 C85 1.225 . S
Zn70 O69 1.953 . S
Zn70 O71 1.949 . S
Zn70 O77 1.919 . S
Zn70 O82 1.924 . S
O71 Zn70 1.949 . S
O71 Zn72 1.923 . S
O71 Zn73 1.950 . S
O71 Zn74 1.945 . S
Zn72 O71 1.923 . S
Zn72 O75 1.933 . S
Zn72 O78 1.941 . S
Zn72 O79 1.965 . S
Zn73 O71 1.950 . S
Zn73 O80 1.938 . S
Zn73 O81 1.906 . S
Zn73 O91 1.953 . S
Zn74 O71 1.945 . S
Zn74 O76 1.932 . S
Zn74 O83 1.977 . S
Zn74 O84 1.910 . S
O75 Zn72 1.933 . S
O75 C86 1.226 . S
O76 Zn74 1.932 . S
O76 C86 1.307 . S
O77 Zn70 1.919 . S
O77 C88 1.253 . S
O78 Zn72 1.941 . S
O78 C88 1.283 . S
O79 Zn72 1.965 . S
O79 C87 1.303 . S
O80 Zn73 1.938 . S
O80 C87 1.247 . S
O81 Zn73 1.906 . S
O81 C89 1.304 . S
O82 Zn70 1.924 . S
O82 C90 1.311 . S
O83 Zn74 1.977 . S
O83 C89 1.272 . S
O84 Zn74 1.910 . S
O84 C90 1.231 . S
C85 O69 1.225 . S
C85 O91 1.298 . S
C86 O75 1.226 . S
C86 O76 1.307 . S
C87 O79 1.303 . S
C87 O80 1.247 . S
C88 O77 1.253 . S
C88 O78 1.283 . S
C89 O81 1.304 . S
C89 O83 1.272 . S
C90 O82 1.311 . S
C90 O84 1.231 . S
O91 Zn73 1.953 . S
O91 C85 1.298 . S
O92 Zn93 1.953 1_565 S
O92 C108 1.225 . S
Zn93 O92 1.953 1_545 S
Zn93 O94 1.949 . S
Zn93 O100 1.919 . S
Zn93 O105 1.924 1_545 S
O94 Zn93 1.949 . S
O94 Zn95 1.923 . S
O94 Zn96 1.950 1_455 S
O94 Zn97 1.945 . S
Zn95 O94 1.923 . S
Zn95 O98 1.933 . S
Zn95 O101 1.941 . S
Zn95 O102 1.965 1_455 S
Zn96 O94 1.950 1_655 S
Zn96 O103 1.938 . S
Zn96 O104 1.906 . S
Zn96 O114 1.953 1_545 S
Zn97 O94 1.945 . S
Zn97 O99 1.932 . S
Zn97 O106 1.980 . S
Zn97 O107 1.910 1_545 S
O98 Zn95 1.933 . S
O98 C109 1.226 . S
O99 Zn97 1.932 . S
O99 C109 1.307 . S
O100 Zn93 1.919 . S
O100 C111 1.253 . S
O101 Zn95 1.941 . S
O101 C111 1.283 . S
O102 Zn95 1.965 1_655 S
O102 C110 1.303 . S
O103 Zn96 1.938 . S
O103 C110 1.247 . S
O104 Zn96 1.906 . S
O104 C112 1.304 . S
O105 Zn93 1.924 1_565 S
O105 C113 1.311 . S
O106 Zn97 1.980 . S
O106 C112 1.272 1_455 S
O107 Zn97 1.910 1_565 S
O107 C113 1.231 . S
C108 O92 1.225 . S
C108 O114 1.298 1_455 S
C109 O98 1.226 . S
C109 O99 1.307 . S
C110 O102 1.303 . S
C110 O103 1.247 . S
C111 O100 1.253 . S
C111 O101 1.283 . S
C112 O104 1.304 . S
C112 O106 1.272 1_655 S
C113 O105 1.311 . S
C113 O107 1.231 . S
O114 Zn96 1.953 1_565 S
O114 C108 1.298 1_655 S
O115 Zn116 1.953 . S
O115 C131 1.225 . S
Zn116 O115 1.953 . S
Zn116 O117 1.949 . S
Zn116 O123 1.919 . S
Zn116 O128 1.924 . S
O117 Zn116 1.949 . S
O117 Zn118 1.923 . S
O117 Zn119 1.950 . S
O117 Zn120 1.945 . S
Zn118 O117 1.923 . S
Zn118 O121 1.933 . S
Zn118 O124 1.941 . S
Zn118 O125 1.965 . S
Zn119 O117 1.950 . S
Zn119 O126 1.938 . S
Zn119 O127 1.906 . S
Zn119 O137 1.953 . S
Zn120 O117 1.945 . S
Zn120 O122 1.932 . S
Zn120 O129 1.977 . S
Zn120 O130 1.910 . S
O121 Zn118 1.933 . S
O121 C132 1.226 . S
O122 Zn120 1.932 . S
O122 C132 1.307 . S
O123 Zn116 1.919 . S
O123 C134 1.253 . S
O124 Zn118 1.941 . S
O124 C134 1.283 . S
O125 Zn118 1.965 . S
O125 C133 1.303 . S
O126 Zn119 1.938 . S
O126 C133 1.247 . S
O127 Zn119 1.906 . S
O127 C135 1.304 . S
O128 Zn116 1.924 . S
O128 C136 1.311 . S
O129 Zn120 1.977 . S
O129 C135 1.272 . S
O130 Zn120 1.910 . S
O130 C136 1.231 . S
C131 O115 1.225 . S
C131 O137 1.298 . S
C132 O121 1.226 . S
C132 O122 1.307 . S
C133 O125 1.303 . S
C133 O126 1.247 . S
C134 O123 1.253 . S
C134 O124 1.283 . S
C135 O127 1.304 . S
C135 O129 1.272 . S
C136 O128 1.311 . S
C136 O130 1.231 . S
O137 Zn119 1.953 . S
O137 C131 1.298 . S
O138 Zn139 1.946 1_545 S
O138 C154 1.225 . S
Zn139 O138 1.946 1_565 S
Zn139 O140 1.942 1_565 S
Zn139 O146 1.926 . S
Zn139 O151 1.931 . S
O140 Zn139 1.942 1_545 S
O140 Zn141 1.923 . S
O140 Zn142 1.950 . S
O140 Zn143 1.945 1_554 S
Zn141 O140 1.923 . S
Zn141 O144 1.938 . S
Zn141 O147 1.941 1_545 S
Zn141 O148 1.965 . S
Zn142 O140 1.950 . S
Zn142 O149 1.938 . S
Zn142 O150 1.906 1_554 S
Zn142 O160 1.953 . S
Zn143 O140 1.945 1_556 S
Zn143 O145 1.932 1_545 S
Zn143 O152 1.977 . S
Zn143 O153 1.910 1_545 S
O144 Zn141 1.938 . S
O144 C155 1.222 1_544 S
O145 Zn143 1.932 1_565 S
O145 C155 1.307 . S
O146 Zn139 1.926 . S
O146 C157 1.253 . S
O147 Zn141 1.941 1_565 S
O147 C157 1.283 . S
O148 Zn141 1.965 . S
O148 C156 1.303 . S
O149 Zn142 1.938 . S
O149 C156 1.247 . S
O150 Zn142 1.906 1_556 S
O150 C158 1.304 . S
O151 Zn139 1.931 . S
O151 C159 1.311 . S
O152 Zn143 1.977 . S
O152 C158 1.272 . S
O153 Zn143 1.910 1_565 S
O153 C159 1.231 1_556 S
C154 O138 1.225 . S
C154 O160 1.298 . S
C155 O144 1.222 1_566 S
C155 O145 1.307 . S
C156 O148 1.303 . S
C156 O149 1.247 . S
C157 O146 1.253 . S
C157 O147 1.283 . S
C158 O150 1.304 . S
C158 O152 1.272 . S
C159 O151 1.311 . S
C159 O153 1.231 1_554 S
O160 Zn142 1.953 . S
O160 C154 1.298 . S
O161 Zn162 1.953 . S
O161 C177 1.225 . S
Zn162 O161 1.953 . S
Zn162 O163 1.949 . S
Zn162 O169 1.919 . S
Zn162 O174 1.924 . S
O163 Zn162 1.949 . S
O163 Zn164 1.923 . S
O163 Zn165 1.950 . S
O163 Zn166 1.945 . S
Zn164 O163 1.923 . S
Zn164 O167 1.933 . S
Zn164 O170 1.941 . S
Zn164 O171 1.965 . S
Zn165 O163 1.950 . S
Zn165 O172 1.938 . S
Zn165 O173 1.906 . S
Zn165 O183 1.953 . S
Zn166 O163 1.945 . S
Zn166 O168 1.932 . S
Zn166 O175 1.977 . S
Zn166 O176 1.910 . S
O167 Zn164 1.933 . S
O167 C178 1.226 . S
O168 Zn166 1.932 . S
O168 C178 1.307 . S
O169 Zn162 1.919 . S
O169 C180 1.253 . S
O170 Zn164 1.941 . S
O170 C180 1.283 . S
O171 Zn164 1.965 . S
O171 C179 1.303 . S
O172 Zn165 1.938 . S
O172 C179 1.247 . S
O173 Zn165 1.906 . S
O173 C181 1.304 . S
O174 Zn162 1.924 . S
O174 C182 1.311 . S
O175 Zn166 1.977 . S
O175 C181 1.272 . S
O176 Zn166 1.910 . S
O176 C182 1.231 . S
C177 O161 1.225 . S
C177 O183 1.298 . S
C178 O167 1.226 . S
C178 O168 1.307 . S
C179 O171 1.303 . S
C179 O172 1.247 . S
C180 O169 1.253 . S
C180 O170 1.283 . S
C181 O173 1.304 . S
C181 O175 1.272 . S
C182 O174 1.311 . S
C182 O176 1.231 . S
O183 Zn165 1.953 . S
O183 C177 1.298 . S
O184 Zn185 1.953 . S
O184 C200 1.225 . S
Zn185 O184 1.953 . S
Zn185 O186 1.949 1_556 S
Zn185 O192 1.919 . S
Zn185 O197 1.924 1_556 S
O186 Zn185 1.949 1_554 S
O186 Zn187 1.923 . S
O186 Zn188 1.950 . S
O186 Zn189 1.945 . S
Zn187 O186 1.923 . S
Zn187 O190 1.933 . S
Zn187 O193 1.941 1_554 S
Zn187 O194 1.965 . S
Zn188 O186 1.950 . S
Zn188 O195 1.938 . S
Zn188 O196 1.906 . S
Zn188 O206 1.953 1_554 S
Zn189 O186 1.945 . S
Zn189 O191 1.932 . S
Zn189 O198 1.977 . S
Zn189 O199 1.910 . S
O190 Zn187 1.933 . S
O190 C201 1.226 . S
O191 Zn189 1.932 . S
O191 C201 1.307 . S
O192 Zn185 1.919 . S
O192 C203 1.253 . S
O193 Zn187 1.941 1_556 S
O193 C203 1.283 . S
O194 Zn187 1.965 . S
O194 C202 1.303 1_554 S
O195 Zn188 1.938 . S
O195 C202 1.247 1_554 S
O196 Zn188 1.906 . S
O196 C204 1.304 . S
O197 Zn185 1.924 1_554 S
O197 C205 1.311 . S
O198 Zn189 1.977 . S
O198 C204 1.272 . S
O199 Zn189 1.910 . S
O199 C205 1.231 . S
C200 O184 1.225 . S
C200 O206 1.298 . S
C201 O190 1.226 . S
C201 O191 1.307 . S
C202 O194 1.303 1_556 S
C202 O195 1.247 1_556 S
C203 O192 1.253 . S
C203 O193 1.283 . S
C204 O196 1.304 . S
C204 O198 1.272 . S
C205 O197 1.311 . S
C205 O199 1.231 . S
O206 Zn188 1.953 1_556 S
O206 C200 1.298 . S
O207 Zn208 1.953 . S
O207 C223 1.225 . S
Zn208 O207 1.953 . S
Zn208 O209 1.949 . S
Zn208 O215 1.919 . S
Zn208 O220 1.924 . S
O209 Zn208 1.949 . S
O209 Zn210 1.923 . S
O209 Zn211 1.950 . S
O209 Zn212 1.945 . S
Zn210 O209 1.923 . S
Zn210 O213 1.933 . S
Zn210 O216 1.941 . S
Zn210 O217 1.965 . S
Zn211 O209 1.950 . S
Zn211 O218 1.938 . S
Zn211 O219 1.906 . S
Zn211 O229 1.953 . S
Zn212 O209 1.945 . S
Zn212 O214 1.932 . S
Zn212 O221 1.977 . S
Zn212 O222 1.910 . S
O213 Zn210 1.933 . S
O213 C224 1.226 . S
O214 Zn212 1.932 . S
O214 C224 1.307 . S
O215 Zn208 1.919 . S
O215 C226 1.253 . S
O216 Zn210 1.941 . S
O216 C226 1.283 . S
O217 Zn210 1.965 . S
O217 C225 1.303 . S
O218 Zn211 1.938 . S
O218 C225 1.247 . S
O219 Zn211 1.906 . S
O219 C227 1.304 . S
O220 Zn208 1.924 . S
O220 C228 1.311 . S
O221 Zn212 1.977 . S
O221 C227 1.272 . S
O222 Zn212 1.910 . S
O222 C228 1.231 . S
C223 O207 1.225 . S
C223 O229 1.298 . S
C224 O213 1.226 . S
C224 O214 1.307 . S
C225 O217 1.303 . S
C225 O218 1.247 . S
C226 O215 1.253 . S
C226 O216 1.283 . S
C227 O219 1.304 . S
C227 O221 1.272 . S
C228 O220 1.311 . S
C228 O222 1.231 . S
O229 Zn211 1.953 . S
O229 C223 1.298 . S
O230 Zn231 1.953 . S
O230 C246 1.225 . S
Zn231 O230 1.953 . S
Zn231 O232 1.949 . S
Zn231 O238 1.919 . S
Zn231 O243 1.924 . S
O232 Zn231 1.949 . S
O232 Zn233 1.923 1_455 S
O232 Zn234 1.950 . S
O232 Zn235 1.945 . S
Zn233 O232 1.923 1_655 S
Zn233 O236 1.933 . S
Zn233 O239 1.941 . S
Zn233 O240 1.965 . S
Zn234 O232 1.950 . S
Zn234 O241 1.938 . S
Zn234 O242 1.906 . S
Zn234 O252 1.953 . S
Zn235 O232 1.945 . S
Zn235 O237 1.932 1_455 S
Zn235 O244 1.977 . S
Zn235 O245 1.910 . S
O236 Zn233 1.933 . S
O236 C247 1.226 . S
O237 Zn235 1.932 1_655 S
O237 C247 1.307 . S
O238 Zn231 1.919 . S
O238 C249 1.253 1_455 S
O239 Zn233 1.941 . S
O239 C249 1.283 . S
O240 Zn233 1.965 . S
O240 C248 1.303 . S
O241 Zn234 1.938 . S
O241 C248 1.247 1_455 S
O242 Zn234 1.906 . S
O242 C250 1.304 . S
O243 Zn231 1.924 . S
O243 C251 1.311 . S
O244 Zn235 1.977 . S
O244 C250 1.272 . S
O245 Zn235 1.910 . S
O245 C251 1.231 . S
C246 O230 1.225 . S
C246 O252 1.298 . S
C247 O236 1.226 . S
C247 O237 1.307 . S
C248 O240 1.303 . S
C248 O241 1.247 1_655 S
C249 O238 1.253 1_655 S
C249 O239 1.283 . S
C250 O242 1.304 . S
C250 O244 1.272 . S
C251 O243 1.311 . S
C251 O245 1.231 . S
O252 Zn234 1.953 . S
O252 C246 1.298 . S
O253 Zn254 1.953 . S
O253 C269 1.225 . S
Zn254 O253 1.953 . S
Zn254 O255 1.949 . S
Zn254 O261 1.919 . S
Zn254 O266 1.924 . S
O255 Zn254 1.949 . S
O255 Zn256 1.923 . S
O255 Zn257 1.950 . S
O255 Zn258 1.945 . S
Zn256 O255 1.923 . S
Zn256 O259 1.933 . S
Zn256 O262 1.941 . S
Zn256 O263 1.965 . S
Zn257 O255 1.950 . S
Zn257 O264 1.938 . S
Zn257 O265 1.906 . S
Zn257 O275 1.953 . S
Zn258 O255 1.945 . S
Zn258 O260 1.932 . S
Zn258 O267 1.977 . S
Zn258 O268 1.910 . S
O259 Zn256 1.933 . S
O259 C270 1.226 . S
O260 Zn258 1.932 . S
O260 C270 1.307 . S
O261 Zn254 1.919 . S
O261 C272 1.253 . S
O262 Zn256 1.941 . S
O262 C272 1.283 . S
O263 Zn256 1.965 . S
O263 C271 1.303 . S
O264 Zn257 1.938 . S
O264 C271 1.247 . S
O265 Zn257 1.906 . S
O265 C273 1.304 . S
O266 Zn254 1.924 . S
O266 C274 1.311 . S
O267 Zn258 1.977 . S
O267 C273 1.272 . S
O268 Zn258 1.910 . S
O268 C274 1.231 . S
C269 O253 1.225 . S
C269 O275 1.298 . S
C270 O259 1.226 . S
C270 O260 1.307 . S
C271 O263 1.303 . S
C271 O264 1.247 . S
C272 O261 1.253 . S
C272 O262 1.283 . S
C273 O265 1.304 . S
C273 O267 1.272 . S
C274 O266 1.311 . S
C274 O268 1.231 . S
O275 Zn257 1.953 . S
O275 C269 1.298 . S
O276 Zn277 1.953 . S
O276 C292 1.225 . S
Zn277 O276 1.953 . S
Zn277 O278 1.949 . S
Zn277 O284 1.919 . S
Zn277 O289 1.924 . S
O278 Zn277 1.949 . S
O278 Zn279 1.923 . S
O278 Zn280 1.950 . S
O278 Zn281 1.945 . S
Zn279 O278 1.923 . S
Zn279 O282 1.933 . S
Zn279 O285 1.941 . S
Zn279 O286 1.965 . S
Zn280 O278 1.950 . S
Zn280 O287 1.938 . S
Zn280 O288 1.906 . S
Zn280 O298 1.953 . S
Zn281 O278 1.945 . S
Zn281 O283 1.932 . S
Zn281 O290 1.977 . S
Zn281 O291 1.910 . S
O282 Zn279 1.933 . S
O282 C293 1.226 . S
O283 Zn281 1.932 . S
O283 C293 1.307 . S
O284 Zn277 1.919 . S
O284 C295 1.253 . S
O285 Zn279 1.941 . S
O285 C295 1.283 . S
O286 Zn279 1.965 . S
O286 C294 1.303 . S
O287 Zn280 1.938 . S
O287 C294 1.247 . S
O288 Zn280 1.906 . S
O288 C296 1.304 . S
O289 Zn277 1.924 . S
O289 C297 1.311 . S
O290 Zn281 1.977 . S
O290 C296 1.272 . S
O291 Zn281 1.910 . S
O291 C297 1.231 . S
C292 O276 1.225 . S
C292 O298 1.298 . S
C293 O282 1.226 . S
C293 O283 1.307 . S
C294 O286 1.303 . S
C294 O287 1.247 . S
C295 O284 1.253 . S
C295 O285 1.283 . S
C296 O288 1.304 . S
C296 O290 1.272 . S
C297 O289 1.311 . S
C297 O291 1.231 . S
O298 Zn280 1.953 . S
O298 C292 1.298 . S
O299 Zn300 1.953 . S
O299 C315 1.225 . S
Zn300 O299 1.953 . S
Zn300 O301 1.949 . S
Zn300 O307 1.919 . S
Zn300 O312 1.924 . S
O301 Zn300 1.949 . S
O301 Zn302 1.923 . S
O301 Zn303 1.950 . S
O301 Zn304 1.945 . S
Zn302 O301 1.923 . S
Zn302 O305 1.933 . S
Zn302 O308 1.941 . S
Zn302 O309 1.965 . S
Zn303 O301 1.950 . S
Zn303 O310 1.938 . S
Zn303 O311 1.906 . S
Zn303 O321 1.953 . S
Zn304 O301 1.945 . S
Zn304 O306 1.932 . S
Zn304 O313 1.977 . S
Zn304 O314 1.910 . S
O305 Zn302 1.933 . S
O305 C316 1.226 . S
O306 Zn304 1.932 . S
O306 C316 1.307 . S
O307 Zn300 1.919 . S
O307 C318 1.253 . S
O308 Zn302 1.941 . S
O308 C318 1.283 . S
O309 Zn302 1.965 . S
O309 C317 1.303 . S
O310 Zn303 1.938 . S
O310 C317 1.247 . S
O311 Zn303 1.906 . S
O311 C319 1.304 . S
O312 Zn300 1.924 . S
O312 C320 1.311 . S
O313 Zn304 1.977 . S
O313 C319 1.272 . S
O314 Zn304 1.910 . S
O314 C320 1.231 . S
C315 O299 1.225 . S
C315 O321 1.298 . S
C316 O305 1.226 . S
C316 O306 1.307 . S
C317 O309 1.303 . S
C317 O310 1.247 . S
C318 O307 1.253 . S
C318 O308 1.283 . S
C319 O311 1.304 . S
C319 O313 1.272 . S
C320 O312 1.311 . S
C320 O314 1.231 . S
O321 Zn303 1.953 . S
O321 C315 1.298 . S
O322 Zn323 1.953 . S
O322 C338 1.225 . S
Zn323 O322 1.953 . S
Zn323 O324 1.949 . S
Zn323 O330 1.919 . S
Zn323 O335 1.924 . S
O324 Zn323 1.949 . S
O324 Zn325 1.923 . S
O324 Zn326 1.950 . S
O324 Zn327 1.945 . S
Zn325 O324 1.923 . S
Zn325 O328 1.933 . S
Zn325 O331 1.941 . S
Zn325 O332 1.965 . S
Zn326 O324 1.950 . S
Zn326 O333 1.938 . S
Zn326 O334 1.906 . S
Zn326 O344 1.953 . S
Zn327 O324 1.945 . S
Zn327 O329 1.932 . S
Zn327 O336 1.977 . S
Zn327 O337 1.910 . S
O328 Zn325 1.933 . S
O328 C339 1.226 . S
O329 Zn327 1.932 . S
O329 C339 1.307 . S
O330 Zn323 1.919 . S
O330 C341 1.253 . S
O331 Zn325 1.941 . S
O331 C341 1.283 . S
O332 Zn325 1.965 . S
O332 C340 1.303 . S
O333 Zn326 1.938 . S
O333 C340 1.247 . S
O334 Zn326 1.906 . S
O334 C342 1.304 . S
O335 Zn323 1.924 . S
O335 C343 1.311 . S
O336 Zn327 1.977 . S
O336 C342 1.272 . S
O337 Zn327 1.910 . S
O337 C343 1.231 . S
C338 O322 1.225 . S
C338 O344 1.298 . S
C339 O328 1.226 . S
C339 O329 1.307 . S
C340 O332 1.303 . S
C340 O333 1.247 . S
C341 O330 1.253 . S
C341 O331 1.283 . S
C342 O334 1.304 . S
C342 O336 1.272 . S
C343 O335 1.311 . S
C343 O337 1.231 . S
O344 Zn326 1.953 . S
O344 C338 1.298 . S
O345 Zn346 1.953 1_655 S
O345 C361 1.225 1_554 S
Zn346 O345 1.953 1_455 S
Zn346 O347 1.949 . S
Zn346 O353 1.919 . S
Zn346 O358 1.924 1_455 S
O347 Zn346 1.949 . S
O347 Zn348 1.923 . S
O347 Zn349 1.950 1_554 S
O347 Zn350 1.945 . S
Zn348 O347 1.923 . S
Zn348 O351 1.933 . S
Zn348 O354 1.941 . S
Zn348 O355 1.965 1_554 S
Zn349 O347 1.950 1_556 S
Zn349 O356 1.938 . S
Zn349 O357 1.906 . S
Zn349 O367 1.953 1_455 S
Zn350 O347 1.945 . S
Zn350 O352 1.932 . S
Zn350 O359 1.977 . S
Zn350 O360 1.910 1_455 S
O351 Zn348 1.933 . S
O351 C362 1.226 . S
O352 Zn350 1.932 . S
O352 C362 1.307 . S
O353 Zn346 1.919 . S
O353 C364 1.253 . S
O354 Zn348 1.941 . S
O354 C364 1.283 . S
O355 Zn348 1.965 1_556 S
O355 C363 1.303 . S
O356 Zn349 1.938 . S
O356 C363 1.247 . S
O357 Zn349 1.906 . S
O357 C365 1.304 . S
O358 Zn346 1.924 1_655 S
O358 C366 1.311 . S
O359 Zn350 1.977 . S
O359 C365 1.272 1_554 S
O360 Zn350 1.910 1_655 S
O360 C366 1.231 . S
C361 O345 1.225 1_556 S
C361 O367 1.298 . S
C362 O351 1.226 . S
C362 O352 1.307 . S
C363 O355 1.303 . S
C363 O356 1.247 . S
C364 O353 1.253 . S
C364 O354 1.283 . S
C365 O357 1.304 . S
C365 O359 1.272 1_556 S
C366 O358 1.311 . S
C366 O360 1.231 . S
O367 Zn349 1.953 1_655 S
O367 C361 1.298 . S
C368 C369 1.387 . S
C368 H372 0.950 . S
C368 C377 1.390 . S
C369 C368 1.387 . S
C369 C371 1.387 . S
H370 C377 0.950 . S
C371 C369 1.387 . S
C371 C373 1.390 . S
C371 H375 0.950 . S
H372 C368 0.950 . S
C373 C371 1.390 . S
C373 C374 1.387 . S
C373 H376 0.950 . S
C374 C373 1.387 . S
C374 C377 1.387 . S
H375 C371 0.950 . S
H376 C373 0.950 . S
C377 C368 1.390 . S
C377 H370 0.950 . S
C377 C374 1.387 . S
C378 C379 1.387 . S
C378 H382 0.950 . S
C378 C387 1.390 . S
C379 C378 1.387 . S
C379 C381 1.387 . S
H380 C387 0.950 . S
C381 C379 1.387 . S
C381 C383 1.390 . S
C381 H385 0.950 . S
H382 C378 0.950 . S
C383 C381 1.390 . S
C383 C384 1.387 . S
C383 H386 0.950 . S
C384 C383 1.387 . S
C384 C387 1.387 . S
H385 C381 0.950 . S
H386 C383 0.950 . S
C387 C378 1.390 . S
C387 H380 0.950 . S
C387 C384 1.387 . S
C388 C389 1.387 . S
C388 H392 0.950 1_565 S
C388 C397 1.390 . S
C389 C388 1.387 . S
C389 C391 1.387 . S
H390 C397 0.950 . S
C391 C389 1.387 . S
C391 C393 1.390 . S
C391 H395 0.950 . S
H392 C388 0.950 1_545 S
C393 C391 1.390 . S
C393 C394 1.387 . S
C393 H396 0.950 . S
C394 C393 1.387 . S
C394 C397 1.387 . S
H395 C391 0.950 . S
H396 C393 0.950 . S
C397 C388 1.390 . S
C397 H390 0.950 . S
C397 C394 1.387 . S
C398 C399 1.387 . S
C398 H402 0.950 . S
C398 C407 1.390 . S
C399 C398 1.387 . S
C399 C401 1.387 . S
H400 C407 0.950 . S
C401 C399 1.387 . S
C401 C403 1.390 . S
C401 H405 0.950 . S
H402 C398 0.950 . S
C403 C401 1.390 . S
C403 C404 1.387 . S
C403 H406 0.950 . S
C404 C403 1.387 . S
C404 C407 1.387 . S
H405 C401 0.950 . S
H406 C403 0.950 . S
C407 C398 1.390 . S
C407 H400 0.950 . S
C407 C404 1.387 . S
C408 C409 1.387 . S
C408 H412 0.950 . S
C408 C417 1.390 . S
C409 C408 1.387 . S
C409 C411 1.387 . S
H410 C417 0.950 . S
C411 C409 1.387 . S
C411 C413 1.390 . S
C411 H415 0.950 . S
H412 C408 0.950 . S
C413 C411 1.390 . S
C413 C414 1.387 . S
C413 H416 0.950 . S
C414 C413 1.387 . S
C414 C417 1.387 . S
H415 C411 0.950 . S
H416 C413 0.950 . S
C417 C408 1.390 . S
C417 H410 0.950 . S
C417 C414 1.387 . S
C418 C419 1.387 . S
C418 H422 0.950 . S
C418 C427 1.390 . S
C419 C418 1.387 . S
C419 C421 1.387 . S
H420 C427 0.950 . S
C421 C419 1.387 . S
C421 C423 1.390 . S
C421 H425 0.950 . S
H422 C418 0.950 . S
C423 C421 1.390 . S
C423 C424 1.387 . S
C423 H426 0.950 . S
C424 C423 1.387 . S
C424 C427 1.387 . S
H425 C421 0.950 . S
H426 C423 0.950 . S
C427 C418 1.390 . S
C427 H420 0.950 . S
C427 C424 1.387 . S
C428 C429 1.387 . S
C428 H432 0.950 . S
C428 C437 1.390 . S
C429 C428 1.387 . S
C429 C431 1.387 . S
H430 C437 0.950 . S
C431 C429 1.387 . S
C431 C433 1.390 . S
C431 H435 0.950 . S
H432 C428 0.950 . S
C433 C431 1.390 . S
C433 C434 1.387 . S
C433 H436 0.950 . S
C434 C433 1.387 . S
C434 C437 1.387 . S
H435 C431 0.950 . S
H436 C433 0.950 . S
C437 C428 1.390 . S
C437 H430 0.950 . S
C437 C434 1.387 . S
C438 C439 1.387 . S
C438 H442 0.950 . S
C438 C447 1.390 . S
C439 C438 1.387 . S
C439 C441 1.387 . S
H440 C447 0.950 . S
C441 C439 1.387 . S
C441 C443 1.390 . S
C441 H445 0.950 . S
H442 C438 0.950 . S
C443 C441 1.390 . S
C443 C444 1.387 . S
C443 H446 0.950 . S
C444 C443 1.387 . S
C444 C447 1.387 . S
H445 C441 0.950 . S
H446 C443 0.950 . S
C447 C438 1.390 . S
C447 H440 0.950 . S
C447 C444 1.387 . S
C448 C449 1.387 . S
C448 H452 0.950 . S
C448 C457 1.390 . S
C449 C448 1.387 . S
C449 C451 1.387 . S
H450 C457 0.950 . S
C451 C449 1.387 . S
C451 C453 1.390 . S
C451 H455 0.950 . S
H452 C448 0.950 . S
C453 C451 1.390 . S
C453 C454 1.387 . S
C453 H456 0.950 . S
C454 C453 1.387 . S
C454 C457 1.387 . S
H455 C451 0.950 . S
H456 C453 0.950 . S
C457 C448 1.390 . S
C457 H450 0.950 . S
C457 C454 1.387 . S
C458 C459 1.387 . S
C458 H462 0.950 . S
C458 C467 1.390 . S
C459 C458 1.387 . S
C459 C461 1.387 . S
H460 C467 0.950 . S
C461 C459 1.387 . S
C461 C463 1.390 . S
C461 H465 0.950 . S
H462 C458 0.950 . S
C463 C461 1.390 . S
C463 C464 1.387 . S
C463 H466 0.950 . S
C464 C463 1.387 . S
C464 C467 1.387 . S
H465 C461 0.950 . S
H466 C463 0.950 . S
C467 C458 1.390 . S
C467 H460 0.950 . S
C467 C464 1.387 . S
C468 C469 1.387 . S
C468 H472 0.950 . S
C468 C477 1.390 . S
C469 C468 1.387 . S
C469 C471 1.387 . S
H470 C477 0.950 . S
C471 C469 1.387 . S
C471 C473 1.390 . S
C471 H475 0.950 1_565 S
H472 C468 0.950 . S
C473 C471 1.390 . S
C473 C474 1.387 . S
C473 H476 0.950 . S
C474 C473 1.387 . S
C474 C477 1.387 . S
H475 C471 0.950 1_545 S
H476 C473 0.950 . S
C477 C468 1.390 . S
C477 H470 0.950 . S
C477 C474 1.387 . S
C478 C479 1.387 . S
C478 H482 0.950 . S
C478 C487 1.390 . S
C479 C478 1.387 . S
C479 C481 1.387 . S
H480 C487 0.950 . S
C481 C479 1.387 . S
C481 C483 1.390 . S
C481 H485 0.950 . S
H482 C478 0.950 . S
C483 C481 1.390 . S
C483 C484 1.387 . S
C483 H486 0.950 . S
C484 C483 1.387 . S
C484 C487 1.387 . S
H485 C481 0.950 . S
H486 C483 0.950 . S
C487 C478 1.390 . S
C487 H480 0.950 . S
C487 C484 1.387 . S
C488 C489 1.387 . S
C488 H492 0.950 . S
C488 C497 1.390 . S
C489 C488 1.387 . S
C489 C491 1.387 . S
H490 C497 0.950 . S
C491 C489 1.387 . S
C491 C493 1.390 . S
C491 H495 0.950 . S
H492 C488 0.950 . S
C493 C491 1.390 . S
C493 C494 1.387 . S
C493 H496 0.950 . S
C494 C493 1.387 . S
C494 C497 1.387 . S
H495 C491 0.950 . S
H496 C493 0.950 . S
C497 C488 1.390 . S
C497 H490 0.950 . S
C497 C494 1.387 . S
C498 C499 1.387 . S
C498 H502 0.950 . S
C498 C507 1.390 . S
C499 C498 1.387 . S
C499 C501 1.387 . S
H500 C507 0.950 . S
C501 C499 1.387 . S
C501 C503 1.390 . S
C501 H505 0.950 . S
H502 C498 0.950 . S
C503 C501 1.390 . S
C503 C504 1.387 . S
C503 H506 0.950 . S
C504 C503 1.387 . S
C504 C507 1.387 . S
H505 C501 0.950 . S
H506 C503 0.950 . S
C507 C498 1.390 . S
C507 H500 0.950 . S
C507 C504 1.387 . S
C508 C509 1.387 . S
C508 H512 0.950 . S
C508 C517 1.390 . S
C509 C508 1.387 . S
C509 C511 1.387 . S
H510 C517 0.950 . S
C511 C509 1.387 . S
C511 C513 1.390 . S
C511 H515 0.950 . S
H512 C508 0.950 . S
C513 C511 1.390 . S
C513 C514 1.387 . S
C513 H516 0.950 . S
C514 C513 1.387 . S
C514 C517 1.387 . S
H515 C511 0.950 . S
H516 C513 0.950 . S
C517 C508 1.390 . S
C517 H510 0.950 . S
C517 C514 1.387 . S
C518 C519 1.387 . S
C518 H522 0.950 . S
C518 C527 1.390 . S
C519 C518 1.387 . S
C519 C521 1.387 . S
H520 C527 0.950 . S
C521 C519 1.387 . S
C521 C523 1.390 . S
C521 H525 0.950 . S
H522 C518 0.950 . S
C523 C521 1.390 . S
C523 C524 1.387 . S
C523 H526 0.950 . S
C524 C523 1.387 . S
C524 C527 1.387 . S
H525 C521 0.950 . S
H526 C523 0.950 . S
C527 C518 1.390 . S
C527 H520 0.950 . S
C527 C524 1.387 . S
C528 C529 1.387 . S
C528 H532 0.950 . S
C528 C537 1.390 . S
C529 C528 1.387 . S
C529 C531 1.387 . S
H530 C537 0.950 . S
C531 C529 1.387 . S
C531 C533 1.390 . S
C531 H535 0.950 . S
H532 C528 0.950 . S
C533 C531 1.390 . S
C533 C534 1.387 . S
C533 H536 0.950 . S
C534 C533 1.387 . S
C534 C537 1.387 . S
H535 C531 0.950 . S
H536 C533 0.950 . S
C537 C528 1.390 . S
C537 H530 0.950 . S
C537 C534 1.387 . S
C538 C539 1.387 . S
C538 H542 0.950 . S
C538 C547 1.390 . S
C539 C538 1.387 . S
C539 C541 1.387 . S
H540 C547 0.950 . S
C541 C539 1.387 . S
C541 C543 1.390 . S
C541 H545 0.950 . S
H542 C538 0.950 . S
C543 C541 1.390 . S
C543 C544 1.387 . S
C543 H546 0.950 . S
C544 C543 1.387 . S
C544 C547 1.387 . S
H545 C541 0.950 . S
H546 C543 0.950 . S
C547 C538 1.390 . S
C547 H540 0.950 . S
C547 C544 1.387 . S
C548 C549 1.387 . S
C548 H552 0.950 . S
C548 C557 1.390 . S
C549 C548 1.387 . S
C549 C551 1.387 . S
H550 C557 0.950 . S
C551 C549 1.387 . S
C551 C553 1.390 . S
C551 H555 0.950 . S
H552 C548 0.950 . S
C553 C551 1.390 . S
C553 C554 1.387 . S
C553 H556 0.950 . S
C554 C553 1.387 . S
C554 C557 1.387 . S
H555 C551 0.950 . S
H556 C553 0.950 . S
C557 C548 1.390 . S
C557 H550 0.950 . S
C557 C554 1.387 . S
C558 C559 1.387 . S
C558 H562 0.950 . S
C558 C567 1.390 . S
C559 C558 1.387 . S
C559 C561 1.387 . S
H560 C567 0.950 . S
C561 C559 1.387 . S
C561 C563 1.390 . S
C561 H565 0.950 . S
H562 C558 0.950 . S
C563 C561 1.390 . S
C563 C564 1.387 . S
C563 H566 0.950 . S
C564 C563 1.387 . S
C564 C567 1.387 . S
H565 C561 0.950 . S
H566 C563 0.950 . S
C567 C558 1.390 . S
C567 H560 0.950 . S
C567 C564 1.387 . S
C568 C569 1.387 . S
C568 H572 0.950 . S
C568 C577 1.390 . S
C569 C568 1.387 . S
C569 C571 1.387 . S
H570 C577 0.950 . S
C571 C569 1.387 . S
C571 C573 1.390 . S
C571 H575 0.950 . S
H572 C568 0.950 . S
C573 C571 1.390 . S
C573 C574 1.387 . S
C573 H576 0.969 . S
C574 C573 1.387 . S
C574 C577 1.387 . S
H575 C571 0.950 . S
H576 C573 0.969 . S
C577 C568 1.390 . S
C577 H570 0.950 . S
C577 C574 1.387 . S
C578 C579 1.387 . S
C578 H582 0.950 . S
C578 C587 1.390 . S
C579 C578 1.387 . S
C579 C581 1.387 . S
H580 C587 0.950 . S
C581 C579 1.387 . S
C581 C583 1.390 . S
C581 H585 0.950 . S
H582 C578 0.950 . S
C583 C581 1.390 . S
C583 C584 1.387 . S
C583 H586 0.950 . S
C584 C583 1.387 . S
C584 C587 1.387 . S
H585 C581 0.950 . S
H586 C583 0.950 . S
C587 C578 1.390 . S
C587 H580 0.950 . S
C587 C584 1.387 . S
C588 C589 1.387 . S
C588 H592 0.950 . S
C588 C597 1.390 . S
C589 C588 1.387 . S
C589 C591 1.387 . S
H590 C597 0.950 . S
C591 C589 1.387 . S
C591 C593 1.390 . S
C591 H595 0.950 . S
H592 C588 0.950 . S
C593 C591 1.390 . S
C593 C594 1.387 . S
C593 H596 0.950 . S
C594 C593 1.387 . S
C594 C597 1.387 . S
H595 C591 0.950 . S
H596 C593 0.950 . S
C597 C588 1.390 . S
C597 H590 0.950 . S
C597 C594 1.387 . S
C598 C599 1.387 . S
C598 H602 0.950 . S
C598 C607 1.390 . S
C599 C598 1.387 . S
C599 C601 1.387 . S
H600 C607 0.950 . S
C601 C599 1.387 . S
C601 C603 1.390 . S
C601 H605 0.950 . S
H602 C598 0.950 . S
C603 C601 1.390 . S
C603 C604 1.387 . S
C603 H606 0.950 . S
C604 C603 1.387 . S
C604 C607 1.387 . S
H605 C601 0.950 . S
H606 C603 0.950 . S
C607 C598 1.390 . S
C607 H600 0.950 . S
C607 C604 1.387 . S
C608 C609 1.387 . S
C608 H612 0.950 . S
C608 C617 1.390 . S
C609 C608 1.387 . S
C609 C611 1.387 . S
H610 C617 0.950 . S
C611 C609 1.387 . S
C611 C613 1.390 . S
C611 H615 0.950 . S
H612 C608 0.950 . S
C613 C611 1.390 . S
C613 C614 1.387 . S
C613 H616 0.950 . S
C614 C613 1.387 . S
C614 C617 1.387 . S
H615 C611 0.950 . S
H616 C613 0.950 . S
C617 C608 1.390 . S
C617 H610 0.950 . S
C617 C614 1.387 . S
C618 C619 1.387 . S
C618 H622 0.950 . S
C618 C627 1.390 . S
C619 C618 1.387 . S
C619 C621 1.387 . S
H620 C627 0.950 . S
C621 C619 1.387 . S
C621 C623 1.390 . S
C621 H625 0.950 . S
H622 C618 0.950 . S
C623 C621 1.390 . S
C623 C624 1.387 . S
C623 H626 0.950 . S
C624 C623 1.387 . S
C624 C627 1.387 . S
H625 C621 0.950 . S
H626 C623 0.950 . S
C627 C618 1.390 . S
C627 H620 0.950 . S
C627 C624 1.387 . S
C628 C629 1.387 . S
C628 H632 0.950 . S
C628 C637 1.390 . S
C629 C628 1.387 . S
C629 C631 1.387 . S
H630 C637 0.950 . S
C631 C629 1.387 . S
C631 C633 1.390 . S
C631 H635 0.950 . S
H632 C628 0.950 . S
C633 C631 1.390 . S
C633 C634 1.387 . S
C633 H636 0.950 . S
C634 C633 1.387 . S
C634 C637 1.387 . S
H635 C631 0.950 . S
H636 C633 0.950 . S
C637 C628 1.390 . S
C637 H630 0.950 . S
C637 C634 1.387 . S
C638 C639 1.387 . S
C638 H642 0.950 . S
C638 C647 1.390 . S
C639 C638 1.387 . S
C639 C641 1.387 . S
H640 C647 0.950 . S
C641 C639 1.387 . S
C641 C643 1.390 1_556 S
C641 H645 0.950 1_556 S
H642 C638 0.950 . S
C643 C641 1.390 1_554 S
C643 C644 1.387 . S
C643 H646 0.950 . S
C644 C643 1.387 . S
C644 C647 1.387 1_554 S
H645 C641 0.950 1_554 S
H646 C643 0.950 . S
C647 C638 1.390 . S
C647 H640 0.950 . S
C647 C644 1.387 1_556 S
C648 C649 1.387 . S
C648 H652 0.950 . S
C648 C657 1.390 . S
C649 C648 1.387 . S
C649 C651 1.387 . S
H650 C657 0.950 . S
C651 C649 1.387 . S
C651 C653 1.390 . S
C651 H655 0.950 1_665 S
H652 C648 0.950 . S
C653 C651 1.390 . S
C653 C654 1.387 . S
C653 H656 0.950 . S
C654 C653 1.387 . S
C654 C657 1.387 . S
H655 C651 0.950 1_445 S
H656 C653 0.950 . S
C657 C648 1.390 . S
C657 H650 0.950 . S
C657 C654 1.387 . S
C658 C659 1.387 . S
C658 H662 0.950 . S
C658 C667 1.390 . S
C659 C658 1.387 . S
C659 C661 1.387 . S
H660 C667 0.950 . S
C661 C659 1.387 . S
C661 C663 1.390 . S
C661 H665 0.950 . S
H662 C658 0.950 . S
C663 C661 1.390 . S
C663 C664 1.387 . S
C663 H666 0.950 . S
C664 C663 1.387 . S
C664 C667 1.387 . S
H665 C661 0.950 . S
H666 C663 0.950 . S
C667 C658 1.390 . S
C667 H660 0.950 . S
C667 C664 1.387 . S
C668 C669 1.387 . S
C668 H672 0.950 . S
C668 C677 1.390 . S
C669 C668 1.387 . S
C669 C671 1.387 . S
H670 C677 0.950 . S
C671 C669 1.387 . S
C671 C673 1.390 . S
C671 H675 0.950 . S
H672 C668 0.950 . S
C673 C671 1.390 . S
C673 C674 1.387 . S
C673 H676 0.950 . S
C674 C673 1.387 . S
C674 C677 1.387 . S
H675 C671 0.950 . S
H676 C673 0.950 . S
C677 C668 1.390 . S
C677 H670 0.950 . S
C677 C674 1.387 . S
C678 C679 1.387 . S
C678 H682 0.950 . S
C678 C687 1.390 . S
C679 C678 1.387 . S
C679 C681 1.387 . S
H680 C687 0.950 . S
C681 C679 1.387 . S
C681 C683 1.390 . S
C681 H685 0.950 . S
H682 C678 0.950 . S
C683 C681 1.390 . S
C683 C684 1.387 . S
C683 H686 0.950 . S
C684 C683 1.387 . S
C684 C687 1.387 . S
H685 C681 0.950 . S
H686 C683 0.950 . S
C687 C678 1.390 . S
C687 H680 0.950 . S
C687 C684 1.387 . S
C688 C689 1.387 . S
C688 H692 0.950 . S
C688 C697 1.390 . S
C689 C688 1.387 . S
C689 C691 1.387 . S
H690 C697 0.950 . S
C691 C689 1.387 . S
C691 C693 1.390 . S
C691 H695 0.950 . S
H692 C688 0.950 . S
C693 C691 1.390 . S
C693 C694 1.387 . S
C693 H696 0.950 . S
C694 C693 1.387 . S
C694 C697 1.387 . S
H695 C691 0.950 . S
H696 C693 0.950 . S
C697 C688 1.390 . S
C697 H690 0.950 . S
C697 C694 1.387 . S
C698 C699 1.387 . S
C698 H702 0.950 . S
C698 C707 1.390 . S
C699 C698 1.387 . S
C699 C701 1.387 . S
H700 C707 0.950 . S
C701 C699 1.387 . S
C701 C703 1.390 . S
C701 H705 0.950 . S
H702 C698 0.950 . S
C703 C701 1.390 . S
C703 C704 1.387 . S
C703 H706 0.950 . S
C704 C703 1.387 . S
C704 C707 1.387 . S
H705 C701 0.950 . S
H706 C703 0.950 . S
C707 C698 1.390 . S
C707 H700 0.950 . S
C707 C704 1.387 . S
C708 C709 1.387 . S
C708 H712 0.950 . S
C708 C717 1.390 . S
C709 C708 1.387 . S
C709 C711 1.387 . S
H710 C717 0.950 . S
C711 C709 1.387 . S
C711 C713 1.390 . S
C711 H715 0.950 . S
H712 C708 0.950 . S
C713 C711 1.390 . S
C713 C714 1.387 . S
C713 H716 0.950 . S
C714 C713 1.387 . S
C714 C717 1.387 . S
H715 C711 0.950 . S
H716 C713 0.950 . S
C717 C708 1.390 . S
C717 H710 0.950 . S
C717 C714 1.387 . S
C718 C719 1.387 . S
C718 H722 0.950 . S
C718 C727 1.390 . S
C719 C718 1.387 . S
C719 C721 1.387 . S
H720 C727 0.950 . S
C721 C719 1.387 . S
C721 C723 1.390 . S
C721 H725 0.950 . S
H722 C718 0.950 . S
C723 C721 1.390 . S
C723 C724 1.387 . S
C723 H726 0.950 . S
C724 C723 1.387 . S
C724 C727 1.387 . S
H725 C721 0.950 . S
H726 C723 0.950 . S
C727 C718 1.390 . S
C727 H720 0.950 . S
C727 C724 1.387 . S
C728 C729 1.387 . S
C728 H732 0.950 1_556 S
C728 C737 1.390 1_455 S
C729 C728 1.387 . S
C729 C731 1.387 1_455 S
H730 C737 0.950 . S
C731 C729 1.387 1_655 S
C731 C733 1.390 . S
C731 H735 0.950 1_655 S
H732 C728 0.950 1_554 S
C733 C731 1.390 . S
C733 C734 1.387 . S
C733 H736 0.950 . S
C734 C733 1.387 . S
C734 C737 1.387 . S
H735 C731 0.950 1_455 S
H736 C733 0.950 . S
C737 C728 1.390 1_655 S
C737 H730 0.950 . S
C737 C734 1.387 . S
C738 C739 1.387 . S
C738 H742 0.950 . S
C738 C747 1.390 . S
C739 C738 1.387 . S
C739 C741 1.387 . S
H740 C747 0.950 . S
C741 C739 1.387 . S
C741 C743 1.390 . S
C741 H745 0.950 . S
H742 C738 0.950 . S
C743 C741 1.390 . S
C743 C744 1.387 . S
C743 H746 0.950 . S
C744 C743 1.387 . S
C744 C747 1.387 . S
H745 C741 0.950 . S
H746 C743 0.950 . S
C747 C738 1.390 . S
C747 H740 0.950 . S
C747 C744 1.387 . S
C748 C749 1.387 . S
C748 H752 0.950 . S
C748 C757 1.390 . S
C749 C748 1.387 . S
C749 C751 1.387 . S
H750 C757 0.950 . S
C751 C749 1.387 . S
C751 C753 1.390 . S
C751 H755 0.950 . S
H752 C748 0.950 . S
C753 C751 1.390 . S
C753 C754 1.387 . S
C753 H756 0.950 . S
C754 C753 1.387 . S
C754 C757 1.387 . S
H755 C751 0.950 . S
H756 C753 0.950 . S
C757 C748 1.390 . S
C757 H750 0.950 . S
C757 C754 1.387 . S
C758 C759 1.387 . S
C758 H762 0.950 . S
C758 C767 1.390 . S
C759 C758 1.387 . S
C759 C761 1.387 . S
H760 C767 0.950 . S
C761 C759 1.387 . S
C761 C763 1.390 . S
C761 H765 0.950 . S
H762 C758 0.950 . S
C763 C761 1.390 . S
C763 C764 1.387 . S
C763 H766 0.950 . S
C764 C763 1.387 . S
C764 C767 1.387 . S
H765 C761 0.950 . S
H766 C763 0.950 . S
C767 C758 1.390 . S
C767 H760 0.950 . S
C767 C764 1.387 . S
C768 C769 1.387 . S
C768 H772 0.950 . S
C768 C777 1.390 . S
C769 C768 1.387 . S
C769 C771 1.387 . S
H770 C777 0.950 . S
C771 C769 1.387 . S
C771 C773 1.390 . S
C771 H775 0.950 . S
H772 C768 0.950 . S
C773 C771 1.390 . S
C773 C774 1.387 . S
C773 H776 0.950 . S
C774 C773 1.387 . S
C774 C777 1.387 . S
H775 C771 0.950 . S
H776 C773 0.950 . S
C777 C768 1.390 . S
C777 H770 0.950 . S
C777 C774 1.387 . S
C778 C779 1.387 . S
C778 H782 0.950 . S
C778 C787 1.390 . S
C779 C778 1.387 . S
C779 C781 1.387 . S
H780 C787 0.950 . S
C781 C779 1.387 . S
C781 C783 1.390 . S
C781 H785 0.950 . S
H782 C778 0.950 . S
C783 C781 1.390 . S
C783 C784 1.387 . S
C783 H786 0.950 . S
C784 C783 1.387 . S
C784 C787 1.387 . S
H785 C781 0.950 . S
H786 C783 0.950 . S
C787 C778 1.390 . S
C787 H780 0.950 . S
C787 C784 1.387 . S
C788 C789 1.387 . S
C788 H792 0.950 . S
C788 C797 1.390 . S
C789 C788 1.387 . S
C789 C791 1.387 . S
H790 C797 0.950 . S
C791 C789 1.387 . S
C791 C793 1.390 . S
C791 H795 0.950 . S
H792 C788 0.950 . S
C793 C791 1.390 . S
C793 C794 1.387 . S
C793 H796 0.950 . S
C794 C793 1.387 . S
C794 C797 1.387 . S
H795 C791 0.950 . S
H796 C793 0.950 . S
C797 C788 1.390 . S
C797 H790 0.950 . S
C797 C794 1.387 . S
C798 C799 1.387 . S
C798 H802 0.950 . S
C798 C807 1.390 . S
C799 C798 1.387 . S
C799 C801 1.387 . S
H800 C807 0.950 . S
C801 C799 1.387 . S
C801 C803 1.390 . S
C801 H805 0.950 . S
H802 C798 0.950 . S
C803 C801 1.390 . S
C803 C804 1.387 . S
C803 H806 0.950 . S
C804 C803 1.387 . S
C804 C807 1.387 . S
H805 C801 0.950 . S
H806 C803 0.950 . S
C807 C798 1.390 . S
C807 H800 0.950 . S
C807 C804 1.387 . S
C808 C809 1.387 . S
C808 H812 0.950 . S
C808 C817 1.390 . S
C809 C808 1.387 . S
C809 C811 1.387 . S
H810 C817 0.950 . S
C811 C809 1.387 . S
C811 C813 1.390 . S
C811 H815 0.950 . S
H812 C808 0.950 . S
C813 C811 1.390 . S
C813 C814 1.387 . S
C813 H816 0.950 . S
C814 C813 1.387 . S
C814 C817 1.387 . S
H815 C811 0.950 . S
H816 C813 0.950 . S
C817 C808 1.390 . S
C817 H810 0.950 . S
C817 C814 1.387 . S
C818 C819 1.387 . S
C818 H822 0.950 . S
C818 C827 1.390 . S
C819 C818 1.387 . S
C819 C821 1.387 . S
H820 C827 0.950 . S
C821 C819 1.387 . S
C821 C823 1.390 . S
C821 H825 0.950 . S
H822 C818 0.950 . S
C823 C821 1.390 . S
C823 C824 1.387 . S
C823 H826 0.950 . S
C824 C823 1.387 . S
C824 C827 1.387 . S
H825 C821 0.950 . S
H826 C823 0.950 . S
C827 C818 1.390 . S
C827 H820 0.950 . S
C827 C824 1.387 . S
C828 C829 1.387 . S
C828 H832 0.950 . S
C828 C837 1.390 . S
C829 C828 1.387 . S
C829 C831 1.387 . S
H830 C837 0.950 . S
C831 C829 1.387 . S
C831 C833 1.390 . S
C831 H835 0.950 . S
H832 C828 0.950 . S
C833 C831 1.390 . S
C833 C834 1.387 . S
C833 H836 0.950 . S
C834 C833 1.387 . S
C834 C837 1.387 . S
H835 C831 0.950 . S
H836 C833 0.950 . S
C837 C828 1.390 . S
C837 H830 0.950 . S
C837 C834 1.387 . S
C838 C839 1.387 . S
C838 H842 0.950 . S
C838 C847 1.390 . S
C839 C838 1.387 . S
C839 C841 1.387 . S
H840 C847 0.950 . S
C841 C839 1.387 . S
C841 C843 1.390 . S
C841 H845 0.950 . S
H842 C838 0.950 . S
C843 C841 1.390 . S
C843 C844 1.387 . S
C843 H846 0.950 . S
C844 C843 1.387 . S
C844 C847 1.387 . S
H845 C841 0.950 . S
H846 C843 0.950 . S
C847 C838 1.390 . S
C847 H840 0.950 . S
C847 C844 1.387 . S
C369 C88 1.374 . S
C374 C16 1.412 . S
C379 C21 1.365 . S
C384 C41 1.486 . S
C389 C62 1.640 . S
C394 C40 1.634 . S
C399 C90 1.349 . S
C404 C67 1.365 . S
C409 C113 1.318 . S
C414 C135 1.351 . S
C419 C132 1.624 . S
C424 C155 1.612 . S
C429 C156 1.452 . S
C434 C181 1.345 . S
C439 C111 1.357 . S
C444 C178 1.396 . S
C449 C225 1.409 . S
C454 C19 1.352 . S
C459 C250 1.589 . S
C464 C43 1.584 . S
C469 C65 1.374 . S
C474 C317 1.386 . S
C479 C200 1.561 . S
C484 C85 1.559 . S
C489 C269 1.560 . S
C494 C108 1.560 1_655 S
C499 C341 1.353 . S
C504 C133 1.409 . S
C509 C158 1.588 . S
C514 C296 1.583 . S
C519 C364 1.375 . S
C524 C179 1.385 . S
C529 C203 1.359 . S
C534 C316 1.397 . S
C539 C227 1.355 . S
C544 C205 1.319 . S
C549 C247 1.614 . S
C554 C224 1.626 . S
C559 C338 1.411 . S
C564 C272 1.374 . S
C569 C293 1.634 . S
C574 C361 1.640 . S
C579 C273 1.117 . S
C584 C17 1.152 . S
C589 C297 1.173 . S
C594 C18 1.212 . S
C599 C292 0.860 . S
C604 C63 0.860 . S
C609 C64 1.229 1_565 S
C614 C271 1.216 . S
C619 C226 1.210 . S
C624 C110 1.218 . S
C629 C223 0.884 . S
C634 C154 0.889 . S
C639 C318 1.204 . S
C644 C159 1.171 . S
C649 C112 1.148 1_565 S
C654 C315 1.173 . S
C659 C136 1.296 . S
C664 C20 1.168 . S
C669 C249 0.989 . S
C674 C295 0.987 . S
C679 C66 1.233 . S
C684 C182 1.228 . S
C689 C201 0.925 . S
C694 C270 0.927 . S
C699 C86 0.927 . S
C704 C109 0.928 . S
C709 C228 1.296 . S
C714 C342 1.168 . S
C719 C157 0.987 . S
C724 C42 0.989 . S
C729 C365 1.229 . S
C734 C320 1.233 . S
C739 C204 1.143 . S
C744 C177 1.172 . S
C749 C202 1.218 . S
C754 C134 1.210 . S
C759 C246 0.889 . S
C764 C131 0.883 . S
C769 C89 1.121 . S
C774 C339 1.152 . S
C779 C39 0.861 . S
C784 C362 0.861 . S
C789 C294 1.488 . S
C794 C343 1.366 . S
C799 C274 1.351 . S
C804 C366 1.367 . S
C809 C248 1.452 . S
C814 C319 1.345 . S
C819 C340 1.211 . S
C824 C44 1.176 . S
C829 C87 1.215 . S
C834 C363 1.230 . S
C839 C180 1.203 . S
C844 C251 1.172 . S
