# Generated by pormake.
# Topology wjq, (5)-cn, num edge types: 1
# Building blocks:
#     Node 0, Type 0, BuildingBlock: BEQFEK_clean_sbu_0, # of connection points: 5
#     Node 1, Type 0, BuildingBlock: BEQFEK_clean_sbu_0, # of connection points: 5
#     Node 2, Type 0, BuildingBlock: BEQFEK_clean_sbu_0, # of connection points: 5
#     Node 3, Type 0, BuildingBlock: BEQFEK_clean_sbu_0, # of connection points: 5
#     Node 4, Type 0, BuildingBlock: BEQFEK_clean_sbu_0, # of connection points: 5
#     Node 5, Type 0, BuildingBlock: BEQFEK_clean_sbu_0, # of connection points: 5
#     Node 6, Type 0, BuildingBlock: BEQFEK_clean_sbu_0, # of connection points: 5
#     Node 7, Type 0, BuildingBlock: BEQFEK_clean_sbu_0, # of connection points: 5
#     Node 8, Type 0, BuildingBlock: BEQFEK_clean_sbu_0, # of connection points: 5
#     Node 9, Type 0, BuildingBlock: BEQFEK_clean_sbu_0, # of connection points: 5
#     Node 10, Type 0, BuildingBlock: BEQFEK_clean_sbu_0, # of connection points: 5
#     Node 11, Type 0, BuildingBlock: BEQFEK_clean_sbu_0, # of connection points: 5
#     Edge 12, Type (0, 0), BuildingBlock: KIFKEQ_clean_linker_1, # of connection points: 2
#     Edge 13, Type (0, 0), BuildingBlock: KIFKEQ_clean_linker_1, # of connection points: 2
#     Edge 14, Type (0, 0), BuildingBlock: KIFKEQ_clean_linker_1, # of connection points: 2
#     Edge 15, Type (0, 0), BuildingBlock: KIFKEQ_clean_linker_1, # of connection points: 2
#     Edge 16, Type (0, 0), BuildingBlock: KIFKEQ_clean_linker_1, # of connection points: 2
#     Edge 17, Type (0, 0), BuildingBlock: KIFKEQ_clean_linker_1, # of connection points: 2
#     Edge 18, Type (0, 0), BuildingBlock: KIFKEQ_clean_linker_1, # of connection points: 2
#     Edge 19, Type (0, 0), BuildingBlock: KIFKEQ_clean_linker_1, # of connection points: 2
#     Edge 20, Type (0, 0), BuildingBlock: KIFKEQ_clean_linker_1, # of connection points: 2
#     Edge 21, Type (0, 0), BuildingBlock: KIFKEQ_clean_linker_1, # of connection points: 2
#     Edge 22, Type (0, 0), BuildingBlock: KIFKEQ_clean_linker_1, # of connection points: 2
#     Edge 23, Type (0, 0), BuildingBlock: KIFKEQ_clean_linker_1, # of connection points: 2
#     Edge 24, Type (0, 0), BuildingBlock: KIFKEQ_clean_linker_1, # of connection points: 2
#     Edge 25, Type (0, 0), BuildingBlock: KIFKEQ_clean_linker_1, # of connection points: 2
#     Edge 26, Type (0, 0), BuildingBlock: KIFKEQ_clean_linker_1, # of connection points: 2
#     Edge 27, Type (0, 0), BuildingBlock: KIFKEQ_clean_linker_1, # of connection points: 2
#     Edge 28, Type (0, 0), BuildingBlock: KIFKEQ_clean_linker_1, # of connection points: 2
#     Edge 29, Type (0, 0), BuildingBlock: KIFKEQ_clean_linker_1, # of connection points: 2
#     Edge 30, Type (0, 0), BuildingBlock: KIFKEQ_clean_linker_1, # of connection points: 2
#     Edge 31, Type (0, 0), BuildingBlock: KIFKEQ_clean_linker_1, # of connection points: 2
#     Edge 32, Type (0, 0), BuildingBlock: KIFKEQ_clean_linker_1, # of connection points: 2
#     Edge 33, Type (0, 0), BuildingBlock: KIFKEQ_clean_linker_1, # of connection points: 2
#     Edge 34, Type (0, 0), BuildingBlock: KIFKEQ_clean_linker_1, # of connection points: 2
#     Edge 35, Type (0, 0), BuildingBlock: KIFKEQ_clean_linker_1, # of connection points: 2
#     Edge 36, Type (0, 0), BuildingBlock: KIFKEQ_clean_linker_1, # of connection points: 2
#     Edge 37, Type (0, 0), BuildingBlock: KIFKEQ_clean_linker_1, # of connection points: 2
#     Edge 38, Type (0, 0), BuildingBlock: KIFKEQ_clean_linker_1, # of connection points: 2
#     Edge 39, Type (0, 0), BuildingBlock: KIFKEQ_clean_linker_1, # of connection points: 2
#     Edge 40, Type (0, 0), BuildingBlock: KIFKEQ_clean_linker_1, # of connection points: 2
#     Edge 41, Type (0, 0), BuildingBlock: KIFKEQ_clean_linker_1, # of connection points: 2
# Relax obj value: 0.369
# Max RMSD: 0.176
# Mean RMSD: 0.176
data_MOF--net-wjq--node1-BEQFEK_clean_sbu_0--edge1-KIFKEQ_clean_linker_1
_symmetry_space_group_name_H-M    P1
_symmetry_Int_Tables_number       1
_symmetry_cell_setting            triclinic
loop_
_symmetry_equiv_pos_as_xyz
'x, y, z'
_cell_length_a     35.360135
_cell_length_b     35.388462
_cell_length_c     75.359988
_cell_angle_alpha  90.00804
_cell_angle_beta   90.035062
_cell_angle_gamma 119.89796
loop_
_atom_site_label
_atom_site_type_symbol
_atom_site_fract_x
_atom_site_fract_y
_atom_site_fract_z
_atom_type_partial_charge
Co0 Co 0.21676 0.14875 0.09565 0.0
Co1 Co 0.3034 0.21934 0.07886 0.0
C2 C 0.21696 0.21409 0.07033 0.0
O3 O 0.19708 0.18243 0.08104 0.0
O4 O 0.25815 0.23194 0.0683 0.0
C5 C 0.14549 0.12134 0.11888 0.0
O6 O 0.15861 0.16321 0.11931 0.0
C7 C 0.37006 0.30972 0.07391 0.0
C8 C 0.42733 0.30597 0.06467 0.0
C9 C 0.41334 0.33523 0.06882 0.0
N10 N 0.35897 0.26757 0.07269 0.0
N11 N 0.39326 0.26544 0.06709 0.0
C12 C 0.3405 0.32467 0.08136 0.0
H13 H 0.31583 0.29933 0.09022 0.0
H14 H 0.35941 0.35562 0.08882 0.0
H15 H 0.32308 0.33018 0.0703 0.0
C16 C 0.26851 0.17784 0.12865 0.0
N17 N 0.26321 0.18273 0.11123 0.0
N18 N 0.30064 0.2122 0.10441 0.0
C19 C 0.33113 0.22696 0.11746 0.0
C20 C 0.31148 0.20604 0.13331 0.0
C21 C 0.23504 0.14223 0.14009 0.0
H22 H 0.21852 0.11124 0.13256 0.0
H23 H 0.21049 0.15116 0.14431 0.0
H24 H 0.24972 0.13702 0.1522 0.0
O25 O 0.23341 0.11474 0.07986 0.0
O26 O 0.29476 0.16476 0.0669 0.0
H27 H 0.39087 0.24474 0.10399 0.0
H28 H 0.39774 0.26263 0.12691 0.0
C29 C 0.37866 0.25771 0.11457 0.0
H30 H 0.38334 0.28957 0.11003 0.0
H31 H 0.3936 0.2364 0.06517 0.0
O32 O 0.16597 0.10782 0.10938 0.0
C33 C 0.26474 0.12515 0.06903 0.0
Co34 Co 0.06462 0.21345 0.42948 0.0
Co35 Co 0.08425 0.30023 0.41179 0.0
C36 C 0.00114 0.21359 0.40393 0.0
O37 O 0.01056 0.19351 0.41552 0.0
O38 O 0.02659 0.2542 0.40122 0.0
C39 C 0.02362 0.1416 0.45315 0.0
O40 O 0.99255 0.15168 0.45375 0.0
C41 C 0.06185 0.36857 0.40953 0.0
C42 C 0.11323 0.41822 0.39243 0.0
C43 C 0.07562 0.4089 0.40168 0.0
N44 N 0.09008 0.35505 0.40525 0.0
N45 N 0.12086 0.38491 0.39507 0.0
C46 C 0.02101 0.34153 0.41996 0.0
H47 H 0.01277 0.30695 0.42025 0.0
H48 H 0.0261 0.35343 0.43385 0.0
H49 H 0.99345 0.34413 0.41425 0.0
C50 C 0.08943 0.26702 0.46204 0.0
N51 N 0.07881 0.26107 0.44466 0.0
N52 N 0.08929 0.29877 0.43735 0.0
C53 C 0.10777 0.33017 0.44996 0.0
C54 C 0.10766 0.31084 0.4661 0.0
C55 C 0.08865 0.23279 0.474 0.0
H56 H 0.05436 0.20866 0.47723 0.0
H57 H 0.1063 0.24668 0.48663 0.0
H58 H 0.10396 0.21599 0.46724 0.0
O59 O 0.11369 0.22822 0.41295 0.0
O60 O 0.13021 0.29126 0.40015 0.0
H61 H 0.14751 0.38569 0.43365 0.0
H62 H 0.15134 0.39735 0.45726 0.0
C63 C 0.1291 0.37798 0.4463 0.0
H64 H 0.1036 0.3873 0.4449 0.0
H65 H 0.14662 0.38224 0.38969 0.0
O66 O 0.05683 0.16374 0.44346 0.0
C67 C 0.13674 0.2591 0.4022 0.0
Co68 Co 0.85517 0.06854 0.76093 0.0
Co69 Co 0.78374 0.08415 0.74447 0.0
C70 C 0.78875 0.00309 0.73589 0.0
O71 O 0.82088 0.01528 0.74641 0.0
O72 O 0.77055 0.02616 0.73392 0.0
C73 C 0.88011 0.02316 0.78404 0.0
O74 O 0.83778 0.99625 0.78435 0.0
C75 C 0.6936 0.06136 0.73795 0.0
C76 C 0.69807 0.12512 0.73346 0.0
C77 C 0.6687 0.08084 0.73467 0.0
N78 N 0.73583 0.09253 0.73854 0.0
N79 N 0.73837 0.13059 0.73568 0.0
C80 C 0.67742 0.01443 0.74215 0.0
H81 H 0.69919 0.01161 0.75202 0.0
H82 H 0.64356 0.99837 0.74734 0.0
H83 H 0.67781 0.99739 0.72984 0.0
C84 C 0.82766 0.09228 0.79399 0.0
N85 N 0.82189 0.08157 0.77663 0.0
N86 N 0.79169 0.08887 0.77003 0.0
C87 C 0.77715 0.10446 0.78325 0.0
C88 C 0.79921 0.10658 0.7989 0.0
C89 C 0.86419 0.09525 0.80514 0.0
H90 H 0.89459 0.10888 0.79723 0.0
H91 H 0.85551 0.0622 0.8098 0.0
H92 H 0.87036 0.11618 0.81698 0.0
O93 O 0.88909 0.11871 0.745 0.0
O94 O 0.83829 0.12938 0.73222 0.0
H95 H 0.75987 0.14874 0.77161 0.0
H96 H 0.73734 0.13006 0.79351 0.0
C97 C 0.74549 0.12033 0.7807 0.0
H98 H 0.71524 0.09426 0.7745 0.0
H99 H 0.76746 0.16039 0.73575 0.0
O100 O 0.89538 0.05736 0.77459 0.0
C101 C 0.87807 0.1391 0.73413 0.0
Co102 Co 0.78381 0.86162 0.09444 0.0
Co103 Co 0.70154 0.78327 0.07814 0.0
C104 C 0.79078 0.79581 0.07114 0.0
O105 O 0.80731 0.83007 0.08065 0.0
O106 O 0.74951 0.77263 0.06939 0.0
C107 C 0.85371 0.89512 0.11854 0.0
O108 O 0.84193 0.85371 0.12017 0.0
C109 C 0.63761 0.69122 0.07371 0.0
C110 C 0.57956 0.69239 0.06363 0.0
C111 C 0.59464 0.66437 0.06842 0.0
N112 N 0.64742 0.73294 0.07202 0.0
N113 N 0.61266 0.73348 0.06591 0.0
C114 C 0.66796 0.67797 0.08174 0.0
H115 H 0.69193 0.7042 0.09052 0.0
H116 H 0.64959 0.64733 0.08944 0.0
H117 H 0.68615 0.67254 0.07099 0.0
C118 C 0.73146 0.83231 0.1272 0.0
N119 N 0.73796 0.8266 0.11001 0.0
N120 N 0.70248 0.79329 0.1035 0.0
C121 C 0.67221 0.77649 0.11662 0.0
C122 C 0.68998 0.80049 0.1321 0.0
C123 C 0.76206 0.87074 0.13826 0.0
H124 H 0.77724 0.90072 0.13008 0.0
H125 H 0.78791 0.86504 0.14371 0.0
H126 H 0.74506 0.87576 0.14961 0.0
O127 O 0.76461 0.89097 0.07758 0.0
O128 O 0.70809 0.83522 0.06425 0.0
H129 H 0.61091 0.74859 0.10315 0.0
H130 H 0.60692 0.73412 0.12642 0.0
C131 C 0.62639 0.74026 0.11412 0.0
H132 H 0.62674 0.71016 0.11034 0.0
H133 H 0.61134 0.76186 0.06355 0.0
O134 O 0.83291 0.90611 0.10798 0.0
C135 C 0.73455 0.87611 0.06593 0.0
Co136 Co 0.93683 0.78545 0.42873 0.0
Co137 Co 0.91765 0.69863 0.41116 0.0
C138 C 1.00053 0.78537 0.40332 0.0
O139 O 0.99093 0.80545 0.41484 0.0
O140 O 0.97523 0.74472 0.40062 0.0
C141 C 0.97737 0.85736 0.45242 0.0
O142 O 0.00844 0.84731 0.45319 0.0
C143 C 0.94047 0.63054 0.40902 0.0
C144 C 0.88887 0.5804 0.3921 0.0
C145 C 0.92667 0.59005 0.4013 0.0
N146 N 0.91205 0.64384 0.40472 0.0
N147 N 0.88115 0.61369 0.39464 0.0
C148 C 0.98144 0.65789 0.41935 0.0
H149 H 0.98959 0.69244 0.41955 0.0
H150 H 0.97661 0.64628 0.43328 0.0
H151 H 0.00896 0.65527 0.41363 0.0
C152 C 0.91244 0.73223 0.46135 0.0
N153 N 0.92288 0.73803 0.44396 0.0
N154 N 0.91269 0.70033 0.43671 0.0
C155 C 0.89465 0.66907 0.44939 0.0
C156 C 0.89473 0.68852 0.46549 0.0
C157 C 0.91273 0.76635 0.47323 0.0
H158 H 0.89754 0.7831 0.46632 0.0
H159 H 0.94688 0.79053 0.47666 0.0
H160 H 0.89465 0.75238 0.48575 0.0
O161 O 0.88771 0.77029 0.41217 0.0
O162 O 0.87148 0.70724 0.39944 0.0
H163 H 0.85523 0.6131 0.43321 0.0
H164 H 0.85188 0.60185 0.45684 0.0
C165 C 0.87384 0.62124 0.44583 0.0
H166 H 0.89965 0.61236 0.44444 0.0
H167 H 0.85523 0.61612 0.38929 0.0
O168 O 0.94436 0.83521 0.44262 0.0
C169 C 0.86475 0.73929 0.40145 0.0
Co170 Co 0.13333 0.91122 0.7583 0.0
Co171 Co 0.21748 0.9141 0.74421 0.0
C172 C 0.20042 0.98721 0.73636 0.0
O173 O 0.16454 0.96674 0.74475 0.0
O174 O 0.22641 0.97208 0.73566 0.0
C175 C 0.09803 0.94525 0.78206 0.0
O176 O 0.13965 0.97334 0.78445 0.0
C177 C 0.30945 0.94312 0.73505 0.0
C178 C 0.3131 0.8838 0.74064 0.0
C179 C 0.33853 0.92739 0.73608 0.0
N180 N 0.26934 0.91081 0.7395 0.0
N181 N 0.27166 0.8752 0.74239 0.0
C182 C 0.31838 0.98664 0.72836 0.0
H183 H 0.29168 0.98219 0.71936 0.0
H184 H 0.31967 0.00721 0.73972 0.0
H185 H 0.34927 0.0034 0.72075 0.0
C186 C 0.15955 0.88797 0.79174 0.0
N187 N 0.16751 0.90135 0.77471 0.0
N188 N 0.20447 0.90444 0.76953 0.0
C189 C 0.22212 0.89486 0.78366 0.0
C190 C 0.19401 0.88402 0.7981 0.0
C191 C 0.11774 0.87478 0.80139 0.0
H192 H 0.08988 0.8609 0.79201 0.0
H193 H 0.1199 0.90374 0.80804 0.0
H194 H 0.11168 0.85022 0.8118 0.0
O195 O 0.10779 0.86351 0.74128 0.0
O196 O 0.16753 0.8681 0.72926 0.0
H197 H 0.2588 0.86314 0.77853 0.0
H198 H 0.27814 0.89981 0.79711 0.0
C199 C 0.26445 0.89504 0.7835 0.0
H200 H 0.28814 0.92129 0.7747 0.0
H201 H 0.24517 0.84535 0.7462 0.0
O202 O 0.08697 0.91447 0.77098 0.0
C203 C 0.126 0.85106 0.72999 0.0
Co204 Co 0.84872 0.78657 0.6222 0.0
Co205 Co 0.78294 0.69995 0.64044 0.0
C206 C 0.78723 0.78602 0.64943 0.0
O207 O 0.81677 0.80601 0.63789 0.0
O208 O 0.77102 0.74512 0.65174 0.0
C209 C 0.8719 0.86006 0.60089 0.0
O210 O 0.83192 0.851 0.60452 0.0
C211 C 0.69336 0.6299 0.64344 0.0
C212 C 0.69783 0.58075 0.65994 0.0
C213 C 0.66828 0.58913 0.65114 0.0
N214 N 0.73551 0.64456 0.64733 0.0
N215 N 0.73807 0.61503 0.65718 0.0
C216 C 0.67775 0.65616 0.63347 0.0
H217 H 0.70299 0.69114 0.63342 0.0
H218 H 0.67114 0.64495 0.61948 0.0
H219 H 0.64713 0.65191 0.63938 0.0
C220 C 0.81611 0.73366 0.58986 0.0
N221 N 0.81286 0.7393 0.60737 0.0
N222 N 0.78687 0.70146 0.61481 0.0
C223 C 0.77364 0.67014 0.60215 0.0
C224 C 0.79117 0.68972 0.58584 0.0
C225 C 0.84828 0.76847 0.57776 0.0
H226 H 0.88137 0.78334 0.58367 0.0
H227 H 0.83928 0.79412 0.57617 0.0
H228 H 0.84925 0.7557 0.56444 0.0
O229 O 0.88603 0.77137 0.63693 0.0
O230 O 0.83941 0.70987 0.6508 0.0
H231 H 0.76135 0.61524 0.61826 0.0
H232 H 0.75174 0.6033 0.59473 0.0
C233 C 0.74901 0.62227 0.60588 0.0
H234 H 0.71406 0.61174 0.60782 0.0
H235 H 0.76716 0.61849 0.66218 0.0
O236 O 0.88639 0.83662 0.60735 0.0
C237 C 0.87828 0.74059 0.64775 0.0
Co238 Co 0.07603 0.85836 0.95946 0.0
Co239 Co 0.0834 0.78214 0.97603 0.0
C240 C 0.00701 0.79453 0.98441 0.0
O241 O 0.02333 0.82806 0.97451 0.0
O242 O 0.02553 0.77162 0.98585 0.0
C243 C 0.03238 0.88855 0.93803 0.0
O244 O 1.00021 0.84851 0.94035 0.0
C245 C 0.05625 0.69052 0.98061 0.0
C246 C 0.11575 0.69189 0.99043 0.0
C247 C 0.07256 0.66377 0.98584 0.0
N248 N 0.08807 0.73227 0.98216 0.0
N249 N 0.12357 0.73295 0.98811 0.0
C250 C 0.01246 0.67715 0.97276 0.0
H251 H 0.01439 0.70329 0.96401 0.0
H252 H 1.00011 0.64645 0.96509 0.0
H253 H 0.98912 0.67178 0.98362 0.0
C254 C 0.096 0.8275 0.92662 0.0
N255 N 0.08504 0.82216 0.94393 0.0
N256 N 0.08989 0.79048 0.95055 0.0
C257 C 0.10448 0.77473 0.93743 0.0
C258 C 0.10844 0.79758 0.9218 0.0
C259 C 0.09961 0.86404 0.91534 0.0
H260 H 0.11894 0.89547 0.92241 0.0
H261 H 0.0665 0.85886 0.91277 0.0
H262 H 0.1152 0.86593 0.90236 0.0
O263 O 0.12688 0.88958 0.97518 0.0
O264 O 0.12994 0.8353 0.98885 0.0
H265 H 0.14295 0.7526 0.95098 0.0
H266 H 0.13243 0.73637 0.92786 0.0
C267 C 0.11842 0.74163 0.94017 0.0
H268 H 0.08985 0.71034 0.94432 0.0
H269 H 0.15325 0.76138 0.99034 0.0
O270 O 0.06893 0.90069 0.94541 0.0
C271 C 0.14378 0.87597 0.98664 0.0
Co272 Co 0.21495 0.06329 0.29071 0.0
Co273 Co 0.30167 0.08284 0.30855 0.0
C274 C 0.21492 0.99972 0.31619 0.0
O275 O 0.19487 0.00918 0.30459 0.0
O276 O 0.25553 0.02518 0.31898 0.0
C277 C 0.14308 0.02266 0.26692 0.0
O278 O 0.15288 0.99141 0.26633 0.0
C279 C 0.36998 0.06039 0.31082 0.0
C280 C 0.41964 0.11158 0.32802 0.0
C281 C 0.41032 0.07408 0.31869 0.0
N282 N 0.35646 0.08857 0.31515 0.0
N283 N 0.38631 0.11924 0.3254 0.0
C284 C 0.34294 0.0197 0.30029 0.0
H285 H 0.30832 0.01143 0.30001 0.0
H286 H 0.35484 0.02496 0.2864 0.0
H287 H 0.34557 0.99211 0.30592 0.0
C288 C 0.26881 0.08802 0.25824 0.0
N289 N 0.26272 0.07744 0.27562 0.0
N290 N 0.30039 0.08794 0.283 0.0
C291 C 0.33193 0.10643 0.27045 0.0
C292 C 0.31271 0.10628 0.25427 0.0
C293 C 0.23463 0.08709 0.24618 0.0
H294 H 0.2104 0.05278 0.24304 0.0
H295 H 0.24858 0.10439 0.23351 0.0
H296 H 0.2179 0.10263 0.25282 0.0
O297 O 0.22967 0.11226 0.30731 0.0
O298 O 0.29268 0.12874 0.32019 0.0
H299 H 0.38724 0.14618 0.28692 0.0
H300 H 0.39915 0.15039 0.26333 0.0
C301 C 0.37975 0.12796 0.27422 0.0
H302 H 0.38928 0.10262 0.27557 0.0
H303 H 0.38364 0.14494 0.33082 0.0
O304 O 0.16538 0.05577 0.27664 0.0
C305 C 0.2605 0.13526 0.3181 0.0
Co306 Co 0.145 0.21414 0.6236 0.0
Co307 Co 0.22014 0.29677 0.64117 0.0
C308 C 0.20633 0.207 0.64923 0.0
O309 O 0.17388 0.19033 0.63874 0.0
O310 O 0.22881 0.24826 0.65113 0.0
C311 C 0.11462 0.14095 0.60172 0.0
O312 O 0.15445 0.1481 0.60419 0.0
C313 C 0.31216 0.36249 0.64396 0.0
C314 C 0.3114 0.41377 0.66038 0.0
C315 C 0.33923 0.40295 0.65163 0.0
N316 N 0.27053 0.35034 0.64786 0.0
N317 N 0.27025 0.38116 0.65766 0.0
C318 C 0.32534 0.33425 0.63401 0.0
H319 H 0.29852 0.29992 0.63387 0.0
H320 H 0.33273 0.34547 0.62005 0.0
H321 H 0.35502 0.33637 0.64001 0.0
C322 C 0.17853 0.26609 0.59113 0.0
N323 N 0.18257 0.25981 0.60851 0.0
N324 N 0.21304 0.29628 0.61563 0.0
C325 C 0.22875 0.32744 0.60284 0.0
C326 C 0.20785 0.30895 0.58682 0.0
C327 C 0.14281 0.23361 0.57941 0.0
H328 H 0.1109 0.22109 0.58613 0.0
H329 H 0.14842 0.20598 0.5768 0.0
H330 H 0.14147 0.24788 0.56648 0.0
O331 O 0.11332 0.23364 0.63929 0.0
O332 O 0.16672 0.29058 0.65347 0.0
H333 H 0.25092 0.38479 0.61882 0.0
H334 H 0.25898 0.39519 0.59515 0.0
C335 C 0.25954 0.37476 0.60621 0.0
H336 H 0.29312 0.3802 0.6075 0.0
H337 H 0.24203 0.37974 0.66263 0.0
O338 O 0.1028 0.16558 0.60912 0.0
C339 C 0.12619 0.26376 0.6509 0.0
Co340 Co 0.94004 0.15236 0.95687 0.0
Co341 Co 0.9203 0.21977 0.97448 0.0
C342 C 0.00216 0.21588 0.98341 0.0
O343 O 0.99183 0.1853 0.97228 0.0
O344 O 0.97792 0.23276 0.98551 0.0
C345 C 0.99015 0.12921 0.93553 0.0
O346 O 0.02046 0.16966 0.93872 0.0
C347 C 0.94261 0.3094 0.97992 0.0
C348 C 0.88158 0.30506 0.98948 0.0
C349 C 0.92467 0.3346 0.98529 0.0
N350 N 0.91187 0.26717 0.98103 0.0
N351 N 0.87541 0.26466 0.98682 0.0
C352 C 0.98702 0.32476 0.97232 0.0
H353 H 0.99869 0.3558 0.96498 0.0
H354 H 0.01016 0.33025 0.98329 0.0
H355 H 0.98648 0.29966 0.96332 0.0
C356 C 0.91838 0.18296 0.92426 0.0
N357 N 0.92778 0.18711 0.94174 0.0
N358 N 0.91721 0.21444 0.94888 0.0
C359 C 0.89997 0.22812 0.93601 0.0
C360 C 0.90071 0.20896 0.91992 0.0
C361 C 0.91982 0.1496 0.91246 0.0
H362 H 0.90227 0.11712 0.91887 0.0
H363 H 0.95426 0.15834 0.91039 0.0
H364 H 0.90483 0.14753 0.8993 0.0
O365 O 0.88845 0.11592 0.97202 0.0
O366 O 0.87475 0.16385 0.98557 0.0
H367 H 0.85443 0.24018 0.94997 0.0
H368 H 0.86387 0.25919 0.92717 0.0
C369 C 0.87931 0.2554 0.93936 0.0
H370 H 0.90454 0.28805 0.9441 0.0
H371 H 0.84624 0.23548 0.98871 0.0
O372 O 0.95251 0.1143 0.9423 0.0
C373 C 0.86635 0.12472 0.98293 0.0
Co374 Co 0.78711 0.93641 0.29054 0.0
Co375 Co 0.70042 0.91674 0.30838 0.0
C376 C 0.78726 0.99965 0.31626 0.0
O377 O 0.80729 0.99033 0.30461 0.0
O378 O 0.74663 0.97421 0.31899 0.0
C379 C 0.85902 0.97726 0.26683 0.0
O380 O 0.84931 0.00858 0.26634 0.0
C381 C 0.63218 0.93926 0.31075 0.0
C382 C 0.58238 0.88779 0.32778 0.0
C383 C 0.59178 0.92545 0.31856 0.0
N384 N 0.64565 0.91099 0.315 0.0
N385 N 0.61572 0.88016 0.32514 0.0
C386 C 0.6593 0.98011 0.30035 0.0
H387 H 0.69392 0.9884 0.30012 0.0
H388 H 0.64753 0.97505 0.28644 0.0
H389 H 0.6566 0.00761 0.30604 0.0
C390 C 0.73327 0.91221 0.25803 0.0
N391 N 0.73938 0.92256 0.27543 0.0
N392 N 0.70172 0.91203 0.28282 0.0
C393 C 0.67019 0.89377 0.27024 0.0
C394 C 0.68939 0.89407 0.25405 0.0
C395 C 0.76744 0.91336 0.24592 0.0
H396 H 0.78412 0.89762 0.25246 0.0
H397 H 0.79173 0.94773 0.24293 0.0
H398 H 0.75349 0.89639 0.23318 0.0
O399 O 0.77225 0.88713 0.30697 0.0
O400 O 0.70924 0.87054 0.31984 0.0
H401 H 0.61484 0.85389 0.28663 0.0
H402 H 0.60296 0.84993 0.26303 0.0
C403 C 0.62236 0.87224 0.27397 0.0
H404 H 0.61286 0.89759 0.27537 0.0
H405 H 0.61833 0.85435 0.33048 0.0
O406 O 0.83666 0.94402 0.27646 0.0
C407 C 0.74137 0.86397 0.31769 0.0
H408 H 0.50898 0.6136 0.07684 0.0
H409 H 0.62118 0.60619 0.0592 0.0
H410 H 0.46557 0.53424 0.07693 0.0
H411 H 0.57783 0.52687 0.05901 0.0
H412 H 0.38908 0.39379 0.05779 0.0
H413 H 0.43307 0.47298 0.05748 0.0
H414 H 0.54286 0.46475 0.07809 0.0
H415 H 0.49872 0.38531 0.07811 0.0
C416 C 0.52433 0.59495 0.07295 0.0
C417 C 0.56869 0.61611 0.06837 0.0
C418 C 0.49942 0.54944 0.07291 0.0
C419 C 0.51816 0.52398 0.06804 0.0
C420 C 0.5625 0.54531 0.06322 0.0
C421 C 0.58746 0.59085 0.06337 0.0
C422 C 0.4224 0.40891 0.0625 0.0
C423 C 0.44019 0.3834 0.06835 0.0
C424 C 0.44772 0.45438 0.06229 0.0
C425 C 0.49149 0.47545 0.06793 0.0
C426 C 0.50944 0.44974 0.07349 0.0
C427 C 0.48413 0.40422 0.07359 0.0
H428 H 0.07254 0.45904 0.37494 0.0
H429 H 0.03219 0.4217 0.42921 0.0
H430 H 0.03689 0.50297 0.37492 0.0
H431 H 0.9946 0.46341 0.42891 0.0
H432 H 0.97056 0.57802 0.42888 0.0
H433 H 0.00818 0.53636 0.42877 0.0
H434 H 0.96514 0.49538 0.37492 0.0
H435 H 0.92944 0.53928 0.37476 0.0
C436 C 0.05574 0.4599 0.38682 0.0
C437 C 0.05425 0.4359 0.40192 0.0
C438 C 0.03493 0.48474 0.38676 0.0
C439 C 0.0124 0.48642 0.40185 0.0
C440 C 0.0117 0.46303 0.41706 0.0
C441 C 0.03259 0.43833 0.41712 0.0
C442 C 0.97 0.5611 0.41686 0.0
C443 C 0.94811 0.56312 0.40164 0.0
C444 C 0.99091 0.53642 0.4169 0.0
C445 C 0.99 0.51265 0.40179 0.0
C446 C 0.96725 0.51392 0.38668 0.0
C447 C 0.94643 0.53875 0.38664 0.0
H448 H 0.61685 0.10102 0.75422 0.0
H449 H 0.61297 0.0132 0.71374 0.0
H450 H 0.53752 0.06394 0.75453 0.0
H451 H 0.53361 0.97784 0.71281 0.0
H452 H 0.39072 0.89426 0.72689 0.0
H453 H 0.46987 0.93097 0.72664 0.0
H454 H 0.47512 0.05176 0.74128 0.0
H455 H 0.39664 0.01374 0.74367 0.0
C456 C 0.59876 0.07414 0.74515 0.0
C457 C 0.62071 0.05973 0.73402 0.0
C458 C 0.55317 0.05295 0.74517 0.0
C459 C 0.52845 0.01761 0.73364 0.0
C460 C 0.55098 0.00407 0.7222 0.0
C461 C 0.59655 0.02455 0.72256 0.0
C462 C 0.40886 0.9287 0.73003 0.0
C463 C 0.38695 0.95126 0.73462 0.0
C464 C 0.45448 0.95004 0.7297 0.0
C465 C 0.47959 0.9948 0.73372 0.0
C466 C 0.45745 0.0173 0.73824 0.0
C467 C 0.41192 0.99564 0.73906 0.0
H468 H 0.6165 0.53783 0.67792 0.0
H469 H 0.61139 0.57439 0.62371 0.0
H470 H 0.53714 0.49175 0.67804 0.0
H471 H 0.53228 0.53029 0.62406 0.0
H472 H 0.3953 0.41355 0.62434 0.0
H473 H 0.47452 0.45593 0.62446 0.0
H474 H 0.47195 0.4983 0.678 0.0
H475 H 0.39249 0.45395 0.67815 0.0
C476 C 0.5984 0.53627 0.66607 0.0
C477 C 0.62017 0.5607 0.65096 0.0
C478 C 0.55292 0.51018 0.66618 0.0
C479 C 0.52821 0.50762 0.65112 0.0
C480 C 0.5502 0.53135 0.63588 0.0
C481 C 0.59562 0.55737 0.63579 0.0
C482 C 0.41155 0.43089 0.63631 0.0
C483 C 0.38756 0.42933 0.65142 0.0
C484 C 0.45708 0.45594 0.63626 0.0
C485 C 0.47974 0.48042 0.65127 0.0
C486 C 0.45565 0.47927 0.66631 0.0
C487 C 0.4101 0.45417 0.66635 0.0
H488 H 0.00734 0.39292 0.9964 0.0
H489 H 0.88915 0.38488 0.97645 0.0
H490 H 0.04255 0.47211 0.99684 0.0
H491 H 0.92446 0.46437 0.97662 0.0
H492 H 0.98824 0.60594 0.99549 0.0
H493 H 0.95216 0.52661 0.99576 0.0
H494 H 0.07103 0.53324 0.97729 0.0
H495 H 0.10711 0.61264 0.97728 0.0
C496 C 0.98912 0.40815 0.99181 0.0
C497 C 0.94581 0.38275 0.986 0.0
C498 C 0.00927 0.45361 0.99209 0.0
C499 C 0.98658 0.47482 0.98658 0.0
C500 C 0.94287 0.44923 0.98111 0.0
C501 C 0.92265 0.4037 0.98093 0.0
C502 C 0.00643 0.59044 0.99122 0.0
C503 C 0.05028 0.61551 0.98603 0.0
C504 C 0.98578 0.5449 0.99142 0.0
C505 C 0.00854 0.52336 0.98646 0.0
C506 C 0.05258 0.54862 0.98142 0.0
C507 C 0.07326 0.59414 0.98133 0.0
H508 H 0.57926 0.96909 0.29104 0.0
H509 H 0.54123 0.92819 0.34521 0.0
H510 H 0.53756 0.00666 0.29129 0.0
H511 H 0.49722 0.96377 0.34517 0.0
H512 H 0.46063 0.0709 0.34536 0.0
H513 H 0.50462 0.0353 0.34527 0.0
H514 H 0.46473 0.99325 0.29125 0.0
H515 H 0.42305 0.03085 0.29106 0.0
C516 C 0.56248 0.96856 0.3031 0.0
C517 C 0.56474 0.94677 0.31829 0.0
C518 C 0.53777 0.98944 0.30313 0.0
C519 C 0.51416 0.98856 0.3183 0.0
C520 C 0.51564 0.96587 0.33337 0.0
C521 C 0.54052 0.94511 0.33334 0.0
C522 C 0.46144 0.05417 0.33346 0.0
C523 C 0.43736 0.05275 0.31838 0.0
C524 C 0.4863 0.03338 0.33345 0.0
C525 C 0.4879 0.01093 0.31832 0.0
C526 C 0.46442 0.01029 0.30313 0.0
C527 C 0.43972 0.03119 0.30313 0.0
H528 H 0.1403 0.87266 1.02253 0.0
H529 H 0.21647 0.95313 0.97889 0.0
H530 H 0.17904 0.93321 0.0428 0.0
H531 H 0.25878 0.01312 0.99926 0.0
H532 H 0.27372 0.1272 0.03323 0.0
H533 H 0.25364 0.06561 1.01368 0.0
H534 H 0.23319 0.98336 0.05941 0.0
H535 H 0.24931 0.04466 0.07878 0.0
C536 C 0.16688 0.90293 1.01744 0.0
C537 C 0.1754 0.90833 0.99919 0.0
C538 C 0.18944 0.938 0.0291 0.0
C539 C 0.22203 0.97913 1.02284 0.0
C540 C 0.23301 0.9829 1.00467 0.0
C541 C 0.20932 0.94824 0.99295 0.0
C542 C 0.26572 0.09605 0.03901 0.0
C543 C 0.26282 0.09055 0.05746 0.0
C544 C 0.25429 0.06041 0.02778 0.0
C545 C 0.24085 0.01851 0.03475 0.0
C546 C 0.24164 0.01428 0.05335 0.0
C547 C 0.25157 0.04962 0.06454 0.0
H548 H 0.17163 0.29851 0.37023 0.0
H549 H 0.17328 0.2084 0.40845 0.0
H550 H 0.21317 0.27989 0.34949 0.0
H551 H 0.21419 0.18969 0.38782 0.0
H552 H 0.3001 0.17036 0.35006 0.0
H553 H 0.28153 0.21194 0.37078 0.0
H554 H 0.19086 0.21248 0.3325 0.0
H555 H 0.20952 0.17152 0.31188 0.0
C556 C 0.18169 0.27554 0.37437 0.0
C557 C 0.16868 0.25458 0.39091 0.0
C558 C 0.20525 0.26466 0.36246 0.0
C559 C 0.21671 0.23301 0.36693 0.0
C560 C 0.2063 0.21444 0.38396 0.0
C561 C 0.18247 0.22496 0.39576 0.0
C562 C 0.27703 0.18032 0.34592 0.0
C563 C 0.25593 0.16716 0.3294 0.0
C564 C 0.26618 0.2039 0.35783 0.0
C565 C 0.23442 0.21525 0.35337 0.0
C566 C 0.21569 0.20468 0.33635 0.0
C567 C 0.22618 0.18082 0.32456 0.0
H568 H 0.12984 0.26685 0.68681 0.0
H569 H 0.04732 0.25538 0.64267 0.0
H570 H 0.06935 0.24562 0.70705 0.0
H571 H 0.98726 0.23825 0.66293 0.0
H572 H 0.87498 0.14207 0.69825 0.0
H573 H 0.93588 0.18213 0.67826 0.0
H574 H 0.01875 0.24991 0.72319 0.0
H575 H 0.9582 0.20611 0.74308 0.0
C576 C 0.09905 0.26162 0.68156 0.0
C577 C 0.09316 0.2626 0.66321 0.0
C578 C 0.06401 0.24947 0.6932 0.0
C579 C 0.02236 0.23918 0.68683 0.0
C580 C 0.01794 0.24411 0.66848 0.0
C581 C 0.05261 0.25473 0.65681 0.0
C582 C 0.9061 0.16623 0.70374 0.0
C583 C 0.91202 0.17095 0.72215 0.0
C584 C 0.94135 0.1896 0.69226 0.0
C585 C 0.98326 0.21932 0.69889 0.0
C586 C 0.98784 0.22642 0.7174 0.0
C587 C 0.95292 0.20183 0.72888 0.0
H588 H 0.7414 0.87211 0.03032 0.0
H589 H 0.73341 0.95137 0.07186 0.0
H590 H 0.76453 0.93187 1.00951 0.0
H591 H 0.75237 0.01037 0.05081 0.0
H592 H 0.85339 0.12611 1.01839 0.0
H593 H 0.81125 0.06415 0.03762 0.0
H594 H 0.76112 0.98029 0.9915 0.0
H595 H 0.80695 0.04223 0.97258 0.0
C596 C 0.74262 0.90184 0.03475 0.0
C597 C 0.7356 0.9072 0.05263 0.0
C598 C 0.75592 0.93645 1.02278 0.0
C599 C 0.76141 0.97705 0.02833 0.0
C600 C 0.75034 0.98062 0.046 0.0
C601 C 0.73857 0.94648 0.05808 0.0
C602 C 0.83272 0.09447 1.01242 0.0
C603 C 0.83362 0.08888 0.99404 0.0
C604 C 0.80811 0.0586 1.02346 0.0
C605 C 0.78265 0.01625 1.01635 0.0
C606 C 0.7812 0.01165 0.99772 0.0
C607 C 0.80703 0.04732 0.98676 0.0
H608 H 0.70111 0.82779 0.34941 0.0
H609 H 0.79265 0.82808 0.3114 0.0
H610 H 0.71939 0.78569 0.36997 0.0
H611 H 0.81105 0.78664 0.33187 0.0
H612 H 0.83053 0.70036 0.3693 0.0
H613 H 0.78894 0.71898 0.34857 0.0
H614 H 0.78628 0.80769 0.38724 0.0
H615 H 0.82722 0.78897 0.40786 0.0
C616 C 0.72434 0.81805 0.34527 0.0
C617 C 0.7458 0.83178 0.32885 0.0
C618 C 0.73502 0.79416 0.35709 0.0
C619 C 0.76698 0.78309 0.35264 0.0
C620 C 0.78605 0.79422 0.33571 0.0
C621 C 0.77572 0.81835 0.324 0.0
C622 C 0.82007 0.72297 0.37352 0.0
C623 C 0.83266 0.74356 0.39015 0.0
C624 C 0.79649 0.73386 0.3616 0.0
C625 C 0.78458 0.76514 0.36617 0.0
C626 C 0.79452 0.78324 0.3833 0.0
C627 C 0.81836 0.77273 0.39509 0.0
H628 H 0.05561 0.76995 0.73369 0.0
H629 H 0.13084 0.86844 0.69491 0.0
H630 H 0.99748 0.73171 0.71206 0.0
H631 H 0.07174 0.83319 0.67368 0.0
H632 H 0.96141 0.76898 0.63644 0.0
H633 H 0.02455 0.78358 0.65439 0.0
H634 H 0.94171 0.73771 0.70089 0.0
H635 H 0.87868 0.71984 0.6825 0.0
C636 C 0.06002 0.78273 0.72032 0.0
C637 C 0.09779 0.82176 0.71586 0.0
C638 C 0.02629 0.7614 0.70796 0.0
C639 C 0.02871 0.77967 0.69107 0.0
C640 C 0.06814 0.81733 0.68633 0.0
C641 C 0.10241 0.83779 0.69853 0.0
C642 C 0.95681 0.76111 0.65045 0.0
C643 C 0.91521 0.74342 0.6581 0.0
C644 C 0.99314 0.76996 0.66086 0.0
C645 C 0.9891 0.76284 0.67935 0.0
C646 C 0.9468 0.74322 0.68676 0.0
C647 C 0.91033 0.73311 0.67622 0.0
H648 H 0.08776 0.13681 0.13724 0.0
H649 H 0.11393 0.03425 0.12208 0.0
H650 H 0.01498 0.08213 0.14712 0.0
H651 H 0.04144 0.9801 0.13126 0.0
H652 H 0.88508 0.98254 0.11788 0.0
H653 H 0.95647 0.03884 0.12728 0.0
H654 H 0.98079 0.94131 0.15064 0.0
H655 H 0.90923 0.88433 0.14055 0.0
C656 C 0.07832 0.10268 0.13636 0.0
C657 C 0.10578 0.08967 0.1283 0.0
C658 C 0.03671 0.0714 0.14203 0.0
C659 C 0.02201 0.02678 0.13958 0.0
C660 C 0.05152 0.01409 0.13341 0.0
C661 C 0.09302 0.04524 0.12785 0.0
C662 C 0.90524 0.97306 0.12533 0.0
C663 C 0.89237 0.92898 0.12787 0.0
C664 C 0.94608 0.00552 0.13101 0.0
C665 C 0.97478 0.99451 0.1394 0.0
C666 C 0.95973 0.95067 0.14384 0.0
C667 C 0.91884 0.91807 0.13803 0.0
H668 H 0.95449 0.0819 0.47293 0.0
H669 H 0.08403 0.11584 0.45546 0.0
H670 H 0.94283 0.01147 0.48321 0.0
H671 H 0.07195 0.04562 0.46489 0.0
H672 H 0.9171 0.8834 0.45415 0.0
H673 H 0.92868 0.95317 0.46399 0.0
H674 H 0.05654 0.98617 0.48362 0.0
H675 H 0.04542 0.91621 0.47294 0.0
C676 C 0.98072 0.07467 0.47159 0.0
C677 C 0.01947 0.10352 0.46276 0.0
C678 C 0.9741 0.0344 0.4775 0.0
C679 C 0.00593 0.02234 0.47443 0.0
C680 C 0.04659 0.05353 0.46752 0.0
C681 C 0.05331 0.09374 0.46179 0.0
C682 C 0.94743 0.90514 0.46085 0.0
C683 C 0.98112 0.8952 0.4621 0.0
C684 C 0.95384 0.94508 0.46681 0.0
C685 C 0.99404 0.97584 0.47424 0.0
C686 C 0.02564 0.96358 0.47752 0.0
C687 C 0.01934 0.92359 0.47138 0.0
H688 H 0.96751 0.0753 0.78832 0.0
H689 H 0.86052 0.94722 0.80102 0.0
H690 H 0.01903 0.05267 0.79697 0.0
H691 H 0.9125 0.92469 0.81026 0.0
H692 H 0.10988 0.0089 0.8057 0.0
H693 H 0.05432 0.02536 0.81608 0.0
H694 H 0.95517 0.91013 0.78939 0.0
H695 H 0.01007 0.89315 0.77957 0.0
C696 C 0.95499 0.04261 0.79345 0.0
C697 C 0.91012 0.01246 0.79335 0.0
C698 C 0.9846 0.02976 0.7987 0.0
C699 C 0.96983 0.98653 0.80396 0.0
C700 C 0.92477 0.95796 0.80591 0.0
C701 C 0.89505 0.97083 0.80059 0.0
C702 C 0.07604 0.98655 0.80246 0.0
C703 C 0.06439 0.95061 0.79131 0.0
C704 C 0.04425 0.99589 0.80846 0.0
C705 C 1.00052 0.96959 0.80326 0.0
C706 C 0.98848 0.93106 0.79374 0.0
C707 C 0.02013 0.92164 0.78784 0.0
H708 H 0.87072 0.936 0.5999 0.0
H709 H 0.93996 0.87315 0.58 0.0
H710 H 0.93055 0.00621 0.59107 0.0
H711 H 0.99917 0.94334 0.56996 0.0
H712 H 0.11412 0.06471 0.59721 0.0
H713 H 0.05267 0.99611 0.5879 0.0
H714 H 0.98188 0.06231 0.57362 0.0
H715 H 0.04302 0.13081 0.58409 0.0
C716 C 0.89809 0.93716 0.59294 0.0
C717 C 0.90166 0.8997 0.59114 0.0
C718 C 0.93242 0.97746 0.58768 0.0
C719 C 0.9705 0.98072 0.58024 0.0
C720 C 0.97108 0.94219 0.57624 0.0
C721 C 0.9372 0.90202 0.58192 0.0
C722 C 0.08584 0.06471 0.59166 0.0
C723 C 0.0825 0.10248 0.5919 0.0
C724 C 0.05055 0.02534 0.58611 0.0
C725 C 0.01162 0.02334 0.58041 0.0
C726 C 0.01075 0.06242 0.5785 0.0
C727 C 0.0457 0.10162 0.58446 0.0
H728 H 0.95625 0.88832 0.9335 0.0
H729 H 0.09316 0.96001 0.92027 0.0
H730 H 0.94809 0.94898 0.92377 0.0
H731 H 0.08478 0.02029 0.90936 0.0
H732 H 0.06787 0.13159 0.93463 0.0
H733 H 0.07931 0.07202 0.92628 0.0
H734 H 0.9478 0.00124 0.90539 0.0
H735 H 0.93578 0.06022 0.91498 0.0
C736 C 0.98425 0.91656 0.92786 0.0
C737 C 0.02555 0.92032 0.92816 0.0
C738 C 0.97959 0.95137 0.92205 0.0
C739 C 0.01612 0.99023 0.91616 0.0
C740 C 0.05632 0.99149 0.91438 0.0
C741 C 0.06114 0.95703 0.92059 0.0
C742 C 0.04189 0.1038 0.92781 0.0
C743 C 1.00058 0.09957 0.92596 0.0
C744 C 0.04847 0.0696 0.92283 0.0
C745 C 0.01395 0.03103 0.91561 0.0
C746 C 0.97453 0.02975 0.91151 0.0
C747 C 0.96764 0.06349 0.91693 0.0
H748 H 0.0837 0.95426 0.2467 0.0
H749 H 0.11745 0.08318 0.26488 0.0
H750 H 0.01357 0.94314 0.23616 0.0
H751 H 0.04751 0.07159 0.2552 0.0
H752 H 0.88462 0.91673 0.26465 0.0
H753 H 0.95459 0.9284 0.25502 0.0
H754 H 0.98866 0.05709 0.23627 0.0
H755 H 0.91849 0.04586 0.24676 0.0
C756 C 0.07649 0.98047 0.24815 0.0
C757 C 0.10519 0.01887 0.25724 0.0
C758 C 0.0364 0.97416 0.2421 0.0
C759 C 0.02434 0.00594 0.24528 0.0
C760 C 0.05542 0.04629 0.25247 0.0
C761 C 0.09546 0.0527 0.25834 0.0
C762 C 0.90664 0.94727 0.25818 0.0
C763 C 0.89693 0.98113 0.25715 0.0
C764 C 0.94671 0.95375 0.25234 0.0
C765 C 0.97782 0.99418 0.24525 0.0
C766 C 0.96579 0.026 0.24213 0.0
C767 C 0.92568 0.01963 0.24816 0.0
H768 H 0.07144 0.20302 0.97795 0.0
H769 H 0.01811 0.25418 1.01639 0.0
H770 H 0.1271 0.21145 0.99927 0.0
H771 H 0.07373 0.26214 0.03786 0.0
H772 H 0.1334 0.19757 0.07554 0.0
H773 H 0.08627 0.20697 0.05446 0.0
H774 H 0.19258 0.26581 1.01708 0.0
H775 H 0.24007 0.25687 0.03829 0.0
C776 C 0.07203 0.2168 0.99085 0.0
C777 C 0.04012 0.22785 0.99542 0.0
C778 C 0.10411 0.22177 1.00308 0.0
C779 C 0.10483 0.23726 1.02035 0.0
C780 C 0.07394 0.24982 1.02472 0.0
C781 C 0.04224 0.24557 1.01236 0.0
C782 C 0.14707 0.21332 0.06297 0.0
C783 C 0.19062 0.22635 0.05865 0.0
C784 C 0.12001 0.21885 0.05089 0.0
C785 C 0.13548 0.23693 0.03401 0.0
C786 C 0.17949 0.25146 0.02991 0.0
C787 C 0.20683 0.24662 0.04213 0.0
H788 H 0.93217 0.13126 0.40921 0.0
H789 H 0.98441 0.2366 0.37123 0.0
H790 H 0.87662 0.08452 0.38781 0.0
H791 H 0.92876 0.18957 0.34975 0.0
H792 H 0.86977 0.06845 0.31104 0.0
H793 H 0.91646 0.12404 0.33242 0.0
H794 H 0.81114 0.07213 0.37039 0.0
H795 H 0.76417 0.01644 0.34892 0.0
C796 C 0.93136 0.14477 0.39641 0.0
C797 C 0.96301 0.18779 0.39198 0.0
C798 C 0.89931 0.11792 0.38413 0.0
C799 C 0.89829 0.13309 0.36697 0.0
C800 C 0.92882 0.17666 0.36277 0.0
C801 C 0.96054 0.20376 0.37516 0.0
C802 C 0.8562 0.06931 0.32381 0.0
C803 C 0.81311 0.03772 0.32822 0.0
C804 C 0.88301 0.10138 0.33608 0.0
C805 C 0.86774 0.10249 0.35321 0.0
C806 C 0.82412 0.072 0.35739 0.0
C807 C 0.79706 0.04025 0.34501 0.0
H808 H 0.79891 0.86757 0.64379 0.0
H809 H 0.75047 0.76438 0.68269 0.0
H810 H 0.79033 0.91481 0.66503 0.0
H811 H 0.74227 0.81202 0.70406 0.0
H812 H 0.80599 0.93664 0.74127 0.0
H813 H 0.79677 0.87999 0.72036 0.0
H814 H 0.73619 0.92579 0.68296 0.0
H815 H 0.74502 0.98243 0.704 0.0
C816 C 0.78572 0.85466 0.65679 0.0
C817 C 0.77548 0.81208 0.6615 0.0
C818 C 0.78063 0.88177 0.66897 0.0
C819 C 0.7658 0.86737 0.68632 0.0
C820 C 0.75408 0.82427 0.69086 0.0
C821 C 0.75848 0.79684 0.67855 0.0
C822 C 0.78989 0.93417 0.72874 0.0
C823 C 0.77638 0.96431 0.72435 0.0
C824 C 0.78447 0.9015 0.71675 0.0
C825 C 0.76598 0.89841 0.6999 0.0
C826 C 0.75089 0.92745 0.69576 0.0
C827 C 0.75566 0.95973 0.70789 0.0
H828 H 0.87934 0.84583 0.06831 0.0
H829 H 0.7704 0.7263 0.04858 0.0
H830 H 0.92726 0.83887 0.04705 0.0
H831 H 0.81948 0.71912 0.02741 0.0
H832 H 0.9599 0.72599 1.00767 0.0
H833 H 0.9047 0.71935 0.02933 0.0
H834 H 0.91527 0.8385 1.00959 0.0
H835 H 0.96894 0.84487 0.98786 0.0
C836 C 0.8656 0.81751 0.05972 0.0
C837 C 0.82066 0.78679 0.06016 0.0
C838 C 0.89323 0.81366 0.0475 0.0
C839 C 0.87706 0.77862 0.03554 0.0
C840 C 0.83278 0.7464 0.03654 0.0
C841 C 0.80474 0.75058 0.04866 0.0
C842 C 0.9498 0.75029 1.00772 0.0
C843 C 0.96923 0.78608 0.996 0.0
C844 C 0.91822 0.74643 1.02011 0.0
C845 C 0.90604 0.77862 1.02119 0.0
C846 C 0.92423 0.81336 1.0091 0.0
C847 C 0.95501 0.81685 0.9966 0.0
H848 H 0.13258 0.93081 0.31075 0.0
H849 H 0.2379 0.98269 0.34883 0.0
H850 H 0.08579 0.87503 0.33202 0.0
H851 H 0.19082 0.92681 0.37018 0.0
H852 H 0.06937 0.8677 0.40871 0.0
H853 H 0.12514 0.91447 0.38744 0.0
H854 H 0.07347 0.80943 0.34933 0.0
H855 H 0.0176 0.76236 0.37069 0.0
C856 C 0.14607 0.92987 0.32354 0.0
C857 C 0.18909 0.96149 0.32804 0.0
C858 C 0.1192 0.89769 0.33574 0.0
C859 C 0.13436 0.89651 0.35289 0.0
C860 C 0.17794 0.927 0.35715 0.0
C861 C 0.20506 0.95886 0.34485 0.0
C862 C 0.07034 0.8542 0.39593 0.0
C863 C 0.03876 0.81118 0.39145 0.0
C864 C 0.1025 0.88106 0.38372 0.0
C865 C 0.10372 0.86589 0.36659 0.0
C866 C 0.07326 0.82232 0.36234 0.0
C867 C 0.04141 0.79521 0.37466 0.0
H868 H 0.14415 0.01741 0.72999 0.0
H869 H 0.27434 0.044 0.7173 0.0
H870 H 0.15159 0.07239 0.70874 0.0
H871 H 0.28183 0.10019 0.69608 0.0
H872 H 0.27161 0.22741 0.67414 0.0
H873 H 0.27601 0.17783 0.69591 0.0
H874 H 0.16106 0.06995 0.67308 0.0
H875 H 0.15697 0.11838 0.65128 0.0
C876 C 0.17476 0.03545 0.72294 0.0
C877 C 0.20853 0.02576 0.72536 0.0
C878 C 0.17886 0.06692 0.71067 0.0
C879 C 0.2171 0.09031 0.70063 0.0
C880 C 0.25197 0.08263 0.70365 0.0
C881 C 0.24761 0.0504 0.71579 0.0
C882 C 0.24778 0.19299 0.67355 0.0
C883 C 0.21378 0.17715 0.66094 0.0
C884 C 0.25034 0.16465 0.68602 0.0
C885 C 0.21855 0.12013 0.68631 0.0
C886 C 0.18575 0.10416 0.6733 0.0
C887 C 0.18358 0.13209 0.66074 0.0
H888 H 0.30033 0.23715 0.16448 0.0
H889 H 0.36291 0.17109 0.14144 0.0
H890 H 0.31455 0.21956 0.1942 0.0
H891 H 0.37733 0.15312 0.17125 0.0
H892 H 0.31353 0.06848 0.22312 0.0
H893 H 0.3269 0.10148 0.19364 0.0
H894 H 0.36669 0.22675 0.21753 0.0
H895 H 0.35313 0.19323 0.24705 0.0
C896 C 0.31875 0.22036 0.16586 0.0
C897 C 0.33118 0.20611 0.15072 0.0
C898 C 0.32685 0.21011 0.18288 0.0
C899 C 0.34696 0.18469 0.18519 0.0
C900 C 0.36155 0.1725 0.16998 0.0
C901 C 0.35383 0.18323 0.15292 0.0
C902 C 0.32691 0.10338 0.22204 0.0
C903 C 0.33306 0.12847 0.23732 0.0
C904 C 0.33446 0.12237 0.20514 0.0
C905 C 0.34766 0.16683 0.20314 0.0
C906 C 0.35626 0.1924 0.21856 0.0
C907 C 0.34907 0.17341 0.23547 0.0
H908 H 0.06899 0.3087 0.49737 0.0
H909 H 0.19484 0.35393 0.47342 0.0
H910 H 0.102 0.32221 0.52685 0.0
H911 H 0.22846 0.3678 0.50296 0.0
H912 H 0.24279 0.30297 0.55571 0.0
H913 H 0.22473 0.3173 0.52609 0.0
H914 H 0.15132 0.37222 0.54949 0.0
H915 H 0.16957 0.35748 0.57916 0.0
C916 C 0.10408 0.32331 0.49846 0.0
C917 C 0.12949 0.33099 0.48316 0.0
C918 C 0.1231 0.33098 0.51536 0.0
C919 C 0.16799 0.34593 0.51738 0.0
C920 C 0.19378 0.35599 0.50195 0.0
C921 C 0.17472 0.34863 0.48502 0.0
C922 C 0.2244 0.31982 0.55447 0.0
C923 C 0.20824 0.32985 0.56968 0.0
C924 C 0.21384 0.32794 0.53749 0.0
C925 C 0.18625 0.3457 0.53532 0.0
C926 C 0.17232 0.35818 0.55064 0.0
C927 C 0.18323 0.35035 0.56764 0.0
H928 H 0.81373 0.16334 0.91258 0.0
H929 H 0.939 0.24602 0.8886 0.0
H930 H 0.78018 0.14297 0.88305 0.0
H931 H 0.90592 0.22605 0.8591 0.0
H932 H 0.83529 0.19296 0.80691 0.0
H933 H 0.85418 0.22562 0.83666 0.0
H934 H 0.78683 0.097 0.85986 0.0
H935 H 0.76843 0.06488 0.8302 0.0
C936 C 0.83369 0.17847 0.90098 0.0
C937 C 0.87876 0.20681 0.90283 0.0
C938 C 0.81467 0.16643 0.88406 0.0
C939 C 0.84032 0.18265 0.86863 0.0
C940 C 0.88498 0.21331 0.87062 0.0
C941 C 0.904 0.22494 0.88752 0.0
C942 C 0.82317 0.17195 0.81843 0.0
C943 C 0.79975 0.12648 0.81632 0.0
C944 C 0.83442 0.19054 0.83546 0.0
C945 C 0.82221 0.16399 0.85072 0.0
C946 C 0.79632 0.11855 0.8485 0.0
C947 C 0.78559 0.10006 0.8315 0.0
H948 H 0.65019 0.80745 0.24629 0.0
H949 H 0.6873 0.93251 0.22326 0.0
H950 H 0.63631 0.77488 0.21655 0.0
H951 H 0.67362 0.90047 0.19357 0.0
H952 H 0.63723 0.83318 0.14105 0.0
H953 H 0.623 0.84935 0.17119 0.0
H954 H 0.68765 0.78327 0.19272 0.0
H955 H 0.70161 0.7674 0.16265 0.0
C956 C 0.65365 0.82752 0.23487 0.0
C957 C 0.66901 0.87227 0.23703 0.0
C958 C 0.64628 0.80908 0.21783 0.0
C959 C 0.65403 0.83503 0.20259 0.0
C960 C 0.66667 0.87928 0.20493 0.0
C961 C 0.67441 0.89771 0.22194 0.0
C962 C 0.64665 0.82061 0.15228 0.0
C963 C 0.66971 0.79829 0.14959 0.0
C964 C 0.63909 0.83035 0.16954 0.0
C965 C 0.65436 0.81785 0.18445 0.0
C966 C 0.67484 0.79292 0.18164 0.0
C967 C 0.68274 0.78361 0.16441 0.0
H968 H 0.93449 0.6941 0.49686 0.0
H969 H 0.80762 0.64219 0.47288 0.0
H970 H 0.90166 0.68079 0.52633 0.0
H971 H 0.77415 0.62836 0.50243 0.0
H972 H 0.75548 0.69243 0.55436 0.0
H973 H 0.77501 0.67835 0.525 0.0
H974 H 0.85441 0.63136 0.54934 0.0
H975 H 0.83482 0.646 0.57875 0.0
C976 C 0.89929 0.67808 0.49796 0.0
C977 C 0.87351 0.66852 0.48264 0.0
C978 C 0.88036 0.67051 0.51486 0.0
C979 C 0.83515 0.6537 0.51685 0.0
C980 C 0.80908 0.64169 0.50143 0.0
C981 C 0.82809 0.649 0.4845 0.0
C982 C 0.77572 0.67749 0.55339 0.0
C983 C 0.79316 0.66973 0.56878 0.0
C984 C 0.78705 0.66946 0.53656 0.0
C985 C 0.81659 0.65393 0.53471 0.0
C986 C 0.83192 0.64369 0.55022 0.0
C987 C 0.82031 0.6515 0.56708 0.0
H988 H 0.16502 0.80032 0.80845 0.0
H989 H 0.224 0.93176 0.82823 0.0
H990 H 0.15073 0.77241 0.83898 0.0
H991 H 0.20994 0.9044 0.8587 0.0
H992 H 0.06929 0.75209 0.89184 0.0
H993 H 0.0989 0.7696 0.86171 0.0
H994 H 0.22382 0.86594 0.88285 0.0
H995 H 0.19376 0.84816 0.91295 0.0
C996 C 0.1764 0.82324 0.81939 0.0
C997 C 0.19643 0.86819 0.81606 0.0
C998 C 0.16773 0.80732 0.83686 0.0
C999 C 0.17903 0.83608 0.85137 0.0
C1000 C 0.20134 0.88124 0.84794 0.0
C1001 C 0.2096 0.89705 0.83049 0.0
C1002 C 0.10355 0.7756 0.89003 0.0
C1003 C 0.12949 0.79817 0.90469 0.0
C1004 C 0.12057 0.78588 0.87277 0.0
C1005 C 0.16375 0.81949 0.86978 0.0
C1006 C 0.19037 0.84018 0.88462 0.0
C1007 C 0.17341 0.8296 0.90187 0.0
loop_
_geom_bond_atom_site_label_1
_geom_bond_atom_site_label_2
_geom_bond_distance
_geom_bond_site_symmetry_2
_ccdc_geom_bond_type
Co0 O3 1.970 . S
Co0 N17 1.989 . S
Co0 O25 1.967 . S
Co0 O32 1.920 . S
Co1 O4 1.966 . S
Co1 N10 2.022 . S
Co1 N18 1.993 . S
Co1 O26 1.941 . S
C2 O3 1.258 . S
C2 O4 1.263 . S
O3 Co0 1.970 . S
O3 C2 1.258 . S
O4 Co1 1.966 . S
O4 C2 1.263 . S
C5 O6 1.235 . S
C5 O32 1.289 . S
O6 C5 1.235 . S
C7 C9 1.400 . S
C7 N10 1.351 . S
C7 C12 1.501 . S
C8 C9 1.387 . S
C8 N11 1.341 . S
C9 C7 1.400 . S
C9 C8 1.387 . S
N10 Co1 2.022 . S
N10 C7 1.351 . S
N10 N11 1.365 . S
N11 C8 1.341 . S
N11 N10 1.365 . S
N11 H31 0.862 . S
C12 C7 1.501 . S
C12 H13 0.961 . S
C12 H14 0.961 . S
C12 H15 0.960 . S
H13 C12 0.961 . S
H14 C12 0.961 . S
H15 C12 0.960 . S
C16 N17 1.342 . S
C16 C20 1.401 . S
C16 C21 1.499 . S
N17 Co0 1.989 . S
N17 C16 1.342 . S
N17 N18 1.388 . S
N18 Co1 1.993 . S
N18 N17 1.388 . S
N18 C19 1.346 . S
C19 N18 1.346 . S
C19 C20 1.396 . S
C19 C29 1.510 . S
C20 C16 1.401 . S
C20 C19 1.396 . S
C21 C16 1.499 . S
C21 H22 0.959 . S
C21 H23 0.960 . S
C21 H24 0.961 . S
H22 C21 0.959 . S
H23 C21 0.960 . S
H24 C21 0.961 . S
O25 Co0 1.967 . S
O25 C33 1.258 . S
O26 Co1 1.941 . S
O26 C33 1.266 . S
H27 C29 0.959 . S
H28 C29 0.961 . S
C29 C19 1.510 . S
C29 H27 0.959 . S
C29 H28 0.961 . S
C29 H30 0.960 . S
H30 C29 0.960 . S
H31 N11 0.862 . S
O32 Co0 1.920 . S
O32 C5 1.289 . S
C33 O25 1.258 . S
C33 O26 1.266 . S
Co34 O37 1.970 . S
Co34 N51 1.989 . S
Co34 O59 1.967 . S
Co34 O66 1.920 . S
Co35 O38 1.966 . S
Co35 N44 2.022 . S
Co35 N52 1.993 . S
Co35 O60 1.941 . S
C36 O37 1.258 . S
C36 O38 1.263 . S
O37 Co34 1.970 . S
O37 C36 1.258 . S
O38 Co35 1.966 . S
O38 C36 1.263 . S
C39 O40 1.235 . S
C39 O66 1.289 . S
O40 C39 1.235 . S
C41 C43 1.400 . S
C41 N44 1.351 . S
C41 C46 1.501 . S
C42 C43 1.387 . S
C42 N45 1.341 . S
C43 C41 1.400 . S
C43 C42 1.387 . S
N44 Co35 2.022 . S
N44 C41 1.351 . S
N44 N45 1.365 . S
N45 C42 1.341 . S
N45 N44 1.365 . S
N45 H65 0.862 . S
C46 C41 1.501 . S
C46 H47 0.961 . S
C46 H48 0.961 . S
C46 H49 0.960 . S
H47 C46 0.961 . S
H48 C46 0.961 . S
H49 C46 0.960 . S
C50 N51 1.342 . S
C50 C54 1.401 . S
C50 C55 1.499 . S
N51 Co34 1.989 . S
N51 C50 1.342 . S
N51 N52 1.388 . S
N52 Co35 1.993 . S
N52 N51 1.388 . S
N52 C53 1.346 . S
C53 N52 1.346 . S
C53 C54 1.396 . S
C53 C63 1.510 . S
C54 C50 1.401 . S
C54 C53 1.396 . S
C55 C50 1.499 . S
C55 H56 0.959 . S
C55 H57 0.960 . S
C55 H58 0.961 . S
H56 C55 0.959 . S
H57 C55 0.960 . S
H58 C55 0.961 . S
O59 Co34 1.967 . S
O59 C67 1.258 . S
O60 Co35 1.941 . S
O60 C67 1.266 . S
H61 C63 0.959 . S
H62 C63 0.961 . S
C63 C53 1.510 . S
C63 H61 0.959 . S
C63 H62 0.961 . S
C63 H64 0.960 . S
H64 C63 0.960 . S
H65 N45 0.862 . S
O66 Co34 1.920 . S
O66 C39 1.289 . S
C67 O59 1.258 . S
C67 O60 1.266 . S
Co68 O71 1.970 . S
Co68 N85 1.989 . S
Co68 O93 1.967 . S
Co68 O100 1.920 . S
Co69 O72 1.966 . S
Co69 N78 2.022 . S
Co69 N86 1.993 . S
Co69 O94 1.941 . S
C70 O71 1.258 . S
C70 O72 1.263 . S
O71 Co68 1.970 . S
O71 C70 1.258 . S
O72 Co69 1.966 . S
O72 C70 1.263 . S
C73 O74 1.235 . S
C73 O100 1.289 . S
O74 C73 1.235 . S
C75 C77 1.400 . S
C75 N78 1.351 . S
C75 C80 1.501 . S
C76 C77 1.387 . S
C76 N79 1.341 . S
C77 C75 1.400 . S
C77 C76 1.387 . S
N78 Co69 2.022 . S
N78 C75 1.351 . S
N78 N79 1.365 . S
N79 C76 1.341 . S
N79 N78 1.365 . S
N79 H99 0.862 . S
C80 C75 1.501 . S
C80 H81 0.961 . S
C80 H82 0.961 . S
C80 H83 0.960 . S
H81 C80 0.961 . S
H82 C80 0.961 . S
H83 C80 0.960 . S
C84 N85 1.342 . S
C84 C88 1.401 . S
C84 C89 1.499 . S
N85 Co68 1.989 . S
N85 C84 1.342 . S
N85 N86 1.388 . S
N86 Co69 1.993 . S
N86 N85 1.388 . S
N86 C87 1.346 . S
C87 N86 1.346 . S
C87 C88 1.396 . S
C87 C97 1.510 . S
C88 C84 1.401 . S
C88 C87 1.396 . S
C89 C84 1.499 . S
C89 H90 0.959 . S
C89 H91 0.960 . S
C89 H92 0.961 . S
H90 C89 0.959 . S
H91 C89 0.960 . S
H92 C89 0.961 . S
O93 Co68 1.967 . S
O93 C101 1.258 . S
O94 Co69 1.941 . S
O94 C101 1.266 . S
H95 C97 0.959 . S
H96 C97 0.961 . S
C97 C87 1.510 . S
C97 H95 0.959 . S
C97 H96 0.961 . S
C97 H98 0.960 . S
H98 C97 0.960 . S
H99 N79 0.862 . S
O100 Co68 1.920 . S
O100 C73 1.289 . S
C101 O93 1.258 . S
C101 O94 1.266 . S
Co102 O105 1.970 . S
Co102 N119 1.989 . S
Co102 O127 1.967 . S
Co102 O134 1.920 . S
Co103 O106 1.966 . S
Co103 N112 2.022 . S
Co103 N120 1.993 . S
Co103 O128 1.941 . S
C104 O105 1.258 . S
C104 O106 1.263 . S
O105 Co102 1.970 . S
O105 C104 1.258 . S
O106 Co103 1.966 . S
O106 C104 1.263 . S
C107 O108 1.235 . S
C107 O134 1.289 . S
O108 C107 1.235 . S
C109 C111 1.400 . S
C109 N112 1.351 . S
C109 C114 1.501 . S
C110 C111 1.387 . S
C110 N113 1.341 . S
C111 C109 1.400 . S
C111 C110 1.387 . S
N112 Co103 2.022 . S
N112 C109 1.351 . S
N112 N113 1.365 . S
N113 C110 1.341 . S
N113 N112 1.365 . S
N113 H133 0.862 . S
C114 C109 1.501 . S
C114 H115 0.961 . S
C114 H116 0.961 . S
C114 H117 0.960 . S
H115 C114 0.961 . S
H116 C114 0.961 . S
H117 C114 0.960 . S
C118 N119 1.342 . S
C118 C122 1.401 . S
C118 C123 1.499 . S
N119 Co102 1.989 . S
N119 C118 1.342 . S
N119 N120 1.388 . S
N120 Co103 1.993 . S
N120 N119 1.388 . S
N120 C121 1.346 . S
C121 N120 1.346 . S
C121 C122 1.396 . S
C121 C131 1.510 . S
C122 C118 1.401 . S
C122 C121 1.396 . S
C123 C118 1.499 . S
C123 H124 0.959 . S
C123 H125 0.960 . S
C123 H126 0.961 . S
H124 C123 0.959 . S
H125 C123 0.960 . S
H126 C123 0.961 . S
O127 Co102 1.967 . S
O127 C135 1.258 . S
O128 Co103 1.941 . S
O128 C135 1.266 . S
H129 C131 0.959 . S
H130 C131 0.961 . S
C131 C121 1.510 . S
C131 H129 0.959 . S
C131 H130 0.961 . S
C131 H132 0.960 . S
H132 C131 0.960 . S
H133 N113 0.862 . S
O134 Co102 1.920 . S
O134 C107 1.289 . S
C135 O127 1.258 . S
C135 O128 1.266 . S
Co136 O139 1.970 . S
Co136 N153 1.989 . S
Co136 O161 1.967 . S
Co136 O168 1.920 . S
Co137 O140 1.966 . S
Co137 N146 2.022 . S
Co137 N154 1.993 . S
Co137 O162 1.941 . S
C138 O139 1.258 . S
C138 O140 1.263 . S
O139 Co136 1.970 . S
O139 C138 1.258 . S
O140 Co137 1.966 . S
O140 C138 1.263 . S
C141 O142 1.235 . S
C141 O168 1.289 . S
O142 C141 1.235 . S
C143 C145 1.400 . S
C143 N146 1.351 . S
C143 C148 1.501 . S
C144 C145 1.387 . S
C144 N147 1.341 . S
C145 C143 1.400 . S
C145 C144 1.387 . S
N146 Co137 2.022 . S
N146 C143 1.351 . S
N146 N147 1.365 . S
N147 C144 1.341 . S
N147 N146 1.365 . S
N147 H167 0.862 . S
C148 C143 1.501 . S
C148 H149 0.961 . S
C148 H150 0.961 . S
C148 H151 0.960 . S
H149 C148 0.961 . S
H150 C148 0.961 . S
H151 C148 0.960 . S
C152 N153 1.342 . S
C152 C156 1.401 . S
C152 C157 1.499 . S
N153 Co136 1.989 . S
N153 C152 1.342 . S
N153 N154 1.388 . S
N154 Co137 1.993 . S
N154 N153 1.388 . S
N154 C155 1.346 . S
C155 N154 1.346 . S
C155 C156 1.396 . S
C155 C165 1.510 . S
C156 C152 1.401 . S
C156 C155 1.396 . S
C157 C152 1.499 . S
C157 H158 0.959 . S
C157 H159 0.960 . S
C157 H160 0.961 . S
H158 C157 0.959 . S
H159 C157 0.960 . S
H160 C157 0.961 . S
O161 Co136 1.967 . S
O161 C169 1.258 . S
O162 Co137 1.941 . S
O162 C169 1.266 . S
H163 C165 0.959 . S
H164 C165 0.961 . S
C165 C155 1.510 . S
C165 H163 0.959 . S
C165 H164 0.961 . S
C165 H166 0.960 . S
H166 C165 0.960 . S
H167 N147 0.862 . S
O168 Co136 1.920 . S
O168 C141 1.289 . S
C169 O161 1.258 . S
C169 O162 1.266 . S
Co170 O173 1.970 . S
Co170 N187 1.989 . S
Co170 O195 1.967 . S
Co170 O202 1.920 . S
Co171 O174 1.966 . S
Co171 N180 2.022 . S
Co171 N188 1.993 . S
Co171 O196 1.941 . S
C172 O173 1.258 . S
C172 O174 1.263 . S
O173 Co170 1.970 . S
O173 C172 1.258 . S
O174 Co171 1.966 . S
O174 C172 1.263 . S
C175 O176 1.235 . S
C175 O202 1.289 . S
O176 C175 1.235 . S
C177 C179 1.400 . S
C177 N180 1.351 . S
C177 C182 1.501 . S
C178 C179 1.387 . S
C178 N181 1.341 . S
C179 C177 1.400 . S
C179 C178 1.387 . S
N180 Co171 2.022 . S
N180 C177 1.351 . S
N180 N181 1.365 . S
N181 C178 1.341 . S
N181 N180 1.365 . S
N181 H201 0.862 . S
C182 C177 1.501 . S
C182 H183 0.961 . S
C182 H184 0.961 . S
C182 H185 0.960 . S
H183 C182 0.961 . S
H184 C182 0.961 . S
H185 C182 0.960 . S
C186 N187 1.342 . S
C186 C190 1.401 . S
C186 C191 1.499 . S
N187 Co170 1.989 . S
N187 C186 1.342 . S
N187 N188 1.388 . S
N188 Co171 1.993 . S
N188 N187 1.388 . S
N188 C189 1.346 . S
C189 N188 1.346 . S
C189 C190 1.396 . S
C189 C199 1.510 . S
C190 C186 1.401 . S
C190 C189 1.396 . S
C191 C186 1.499 . S
C191 H192 0.959 . S
C191 H193 0.960 . S
C191 H194 0.961 . S
H192 C191 0.959 . S
H193 C191 0.960 . S
H194 C191 0.961 . S
O195 Co170 1.967 . S
O195 C203 1.258 . S
O196 Co171 1.941 . S
O196 C203 1.266 . S
H197 C199 0.959 . S
H198 C199 0.961 . S
C199 C189 1.510 . S
C199 H197 0.959 . S
C199 H198 0.961 . S
C199 H200 0.960 . S
H200 C199 0.960 . S
H201 N181 0.862 . S
O202 Co170 1.920 . S
O202 C175 1.289 . S
C203 O195 1.258 . S
C203 O196 1.266 . S
Co204 O207 1.970 . S
Co204 N221 1.989 . S
Co204 O229 1.967 . S
Co204 O236 1.920 . S
Co205 O208 1.966 . S
Co205 N214 2.022 . S
Co205 N222 1.993 . S
Co205 O230 1.941 . S
C206 O207 1.258 . S
C206 O208 1.263 . S
O207 Co204 1.970 . S
O207 C206 1.258 . S
O208 Co205 1.966 . S
O208 C206 1.263 . S
C209 O210 1.235 . S
C209 O236 1.289 . S
O210 C209 1.235 . S
C211 C213 1.400 . S
C211 N214 1.351 . S
C211 C216 1.501 . S
C212 C213 1.387 . S
C212 N215 1.341 . S
C213 C211 1.400 . S
C213 C212 1.387 . S
N214 Co205 2.022 . S
N214 C211 1.351 . S
N214 N215 1.365 . S
N215 C212 1.341 . S
N215 N214 1.365 . S
N215 H235 0.862 . S
C216 C211 1.501 . S
C216 H217 0.961 . S
C216 H218 0.961 . S
C216 H219 0.960 . S
H217 C216 0.961 . S
H218 C216 0.961 . S
H219 C216 0.960 . S
C220 N221 1.342 . S
C220 C224 1.401 . S
C220 C225 1.499 . S
N221 Co204 1.989 . S
N221 C220 1.342 . S
N221 N222 1.388 . S
N222 Co205 1.993 . S
N222 N221 1.388 . S
N222 C223 1.346 . S
C223 N222 1.346 . S
C223 C224 1.396 . S
C223 C233 1.510 . S
C224 C220 1.401 . S
C224 C223 1.396 . S
C225 C220 1.499 . S
C225 H226 0.959 . S
C225 H227 0.960 . S
C225 H228 0.961 . S
H226 C225 0.959 . S
H227 C225 0.960 . S
H228 C225 0.961 . S
O229 Co204 1.967 . S
O229 C237 1.258 . S
O230 Co205 1.941 . S
O230 C237 1.266 . S
H231 C233 0.959 . S
H232 C233 0.961 . S
C233 C223 1.510 . S
C233 H231 0.959 . S
C233 H232 0.961 . S
C233 H234 0.960 . S
H234 C233 0.960 . S
H235 N215 0.862 . S
O236 Co204 1.920 . S
O236 C209 1.289 . S
C237 O229 1.258 . S
C237 O230 1.266 . S
Co238 O241 1.970 . S
Co238 N255 1.989 . S
Co238 O263 1.967 . S
Co238 O270 1.920 . S
Co239 O242 1.966 . S
Co239 N248 2.022 . S
Co239 N256 1.993 . S
Co239 O264 1.941 . S
C240 O241 1.258 . S
C240 O242 1.263 . S
O241 Co238 1.970 . S
O241 C240 1.258 . S
O242 Co239 1.966 . S
O242 C240 1.263 . S
C243 O244 1.235 . S
C243 O270 1.289 . S
O244 C243 1.235 . S
C245 C247 1.400 . S
C245 N248 1.351 . S
C245 C250 1.501 . S
C246 C247 1.387 . S
C246 N249 1.341 . S
C247 C245 1.400 . S
C247 C246 1.387 . S
N248 Co239 2.022 . S
N248 C245 1.351 . S
N248 N249 1.365 . S
N249 C246 1.341 . S
N249 N248 1.365 . S
N249 H269 0.862 . S
C250 C245 1.501 . S
C250 H251 0.961 . S
C250 H252 0.961 . S
C250 H253 0.960 . S
H251 C250 0.961 . S
H252 C250 0.961 . S
H253 C250 0.960 . S
C254 N255 1.342 . S
C254 C258 1.401 . S
C254 C259 1.499 . S
N255 Co238 1.989 . S
N255 C254 1.342 . S
N255 N256 1.388 . S
N256 Co239 1.993 . S
N256 N255 1.388 . S
N256 C257 1.346 . S
C257 N256 1.346 . S
C257 C258 1.396 . S
C257 C267 1.510 . S
C258 C254 1.401 . S
C258 C257 1.396 . S
C259 C254 1.499 . S
C259 H260 0.959 . S
C259 H261 0.960 . S
C259 H262 0.961 . S
H260 C259 0.959 . S
H261 C259 0.960 . S
H262 C259 0.961 . S
O263 Co238 1.967 . S
O263 C271 1.258 . S
O264 Co239 1.941 . S
O264 C271 1.266 . S
H265 C267 0.959 . S
H266 C267 0.961 . S
C267 C257 1.510 . S
C267 H265 0.959 . S
C267 H266 0.961 . S
C267 H268 0.960 . S
H268 C267 0.960 . S
H269 N249 0.862 . S
O270 Co238 1.920 . S
O270 C243 1.289 . S
C271 O263 1.258 . S
C271 O264 1.266 . S
Co272 O275 1.970 . S
Co272 N289 1.989 . S
Co272 O297 1.967 . S
Co272 O304 1.920 . S
Co273 O276 1.966 . S
Co273 N282 2.022 . S
Co273 N290 1.993 . S
Co273 O298 1.941 . S
C274 O275 1.258 . S
C274 O276 1.263 . S
O275 Co272 1.970 . S
O275 C274 1.258 . S
O276 Co273 1.966 . S
O276 C274 1.263 . S
C277 O278 1.235 . S
C277 O304 1.289 . S
O278 C277 1.235 . S
C279 C281 1.400 . S
C279 N282 1.351 . S
C279 C284 1.501 . S
C280 C281 1.387 . S
C280 N283 1.341 . S
C281 C279 1.400 . S
C281 C280 1.387 . S
N282 Co273 2.022 . S
N282 C279 1.351 . S
N282 N283 1.365 . S
N283 C280 1.341 . S
N283 N282 1.365 . S
N283 H303 0.862 . S
C284 C279 1.501 . S
C284 H285 0.961 . S
C284 H286 0.961 . S
C284 H287 0.960 . S
H285 C284 0.961 . S
H286 C284 0.961 . S
H287 C284 0.960 . S
C288 N289 1.342 . S
C288 C292 1.401 . S
C288 C293 1.499 . S
N289 Co272 1.989 . S
N289 C288 1.342 . S
N289 N290 1.388 . S
N290 Co273 1.993 . S
N290 N289 1.388 . S
N290 C291 1.346 . S
C291 N290 1.346 . S
C291 C292 1.396 . S
C291 C301 1.510 . S
C292 C288 1.401 . S
C292 C291 1.396 . S
C293 C288 1.499 . S
C293 H294 0.959 . S
C293 H295 0.960 . S
C293 H296 0.961 . S
H294 C293 0.959 . S
H295 C293 0.960 . S
H296 C293 0.961 . S
O297 Co272 1.967 . S
O297 C305 1.258 . S
O298 Co273 1.941 . S
O298 C305 1.266 . S
H299 C301 0.959 . S
H300 C301 0.961 . S
C301 C291 1.510 . S
C301 H299 0.959 . S
C301 H300 0.961 . S
C301 H302 0.960 . S
H302 C301 0.960 . S
H303 N283 0.862 . S
O304 Co272 1.920 . S
O304 C277 1.289 . S
C305 O297 1.258 . S
C305 O298 1.266 . S
Co306 O309 1.970 . S
Co306 N323 1.989 . S
Co306 O331 1.967 . S
Co306 O338 1.920 . S
Co307 O310 1.966 . S
Co307 N316 2.022 . S
Co307 N324 1.993 . S
Co307 O332 1.941 . S
C308 O309 1.258 . S
C308 O310 1.263 . S
O309 Co306 1.970 . S
O309 C308 1.258 . S
O310 Co307 1.966 . S
O310 C308 1.263 . S
C311 O312 1.235 . S
C311 O338 1.289 . S
O312 C311 1.235 . S
C313 C315 1.400 . S
C313 N316 1.351 . S
C313 C318 1.501 . S
C314 C315 1.387 . S
C314 N317 1.341 . S
C315 C313 1.400 . S
C315 C314 1.387 . S
N316 Co307 2.022 . S
N316 C313 1.351 . S
N316 N317 1.365 . S
N317 C314 1.341 . S
N317 N316 1.365 . S
N317 H337 0.862 . S
C318 C313 1.501 . S
C318 H319 0.961 . S
C318 H320 0.961 . S
C318 H321 0.960 . S
H319 C318 0.961 . S
H320 C318 0.961 . S
H321 C318 0.960 . S
C322 N323 1.342 . S
C322 C326 1.401 . S
C322 C327 1.499 . S
N323 Co306 1.989 . S
N323 C322 1.342 . S
N323 N324 1.388 . S
N324 Co307 1.993 . S
N324 N323 1.388 . S
N324 C325 1.346 . S
C325 N324 1.346 . S
C325 C326 1.396 . S
C325 C335 1.510 . S
C326 C322 1.401 . S
C326 C325 1.396 . S
C327 C322 1.499 . S
C327 H328 0.959 . S
C327 H329 0.960 . S
C327 H330 0.961 . S
H328 C327 0.959 . S
H329 C327 0.960 . S
H330 C327 0.961 . S
O331 Co306 1.967 . S
O331 C339 1.258 . S
O332 Co307 1.941 . S
O332 C339 1.266 . S
H333 C335 0.959 . S
H334 C335 0.961 . S
C335 C325 1.510 . S
C335 H333 0.959 . S
C335 H334 0.961 . S
C335 H336 0.960 . S
H336 C335 0.960 . S
H337 N317 0.862 . S
O338 Co306 1.920 . S
O338 C311 1.289 . S
C339 O331 1.258 . S
C339 O332 1.266 . S
Co340 O343 1.970 . S
Co340 N357 1.989 . S
Co340 O365 1.967 . S
Co340 O372 1.920 . S
Co341 O344 1.966 . S
Co341 N350 2.022 . S
Co341 N358 1.993 . S
Co341 O366 1.941 . S
C342 O343 1.258 . S
C342 O344 1.263 . S
O343 Co340 1.970 . S
O343 C342 1.258 . S
O344 Co341 1.966 . S
O344 C342 1.263 . S
C345 O346 1.235 . S
C345 O372 1.289 . S
O346 C345 1.235 . S
C347 C349 1.400 . S
C347 N350 1.351 . S
C347 C352 1.501 . S
C348 C349 1.387 . S
C348 N351 1.341 . S
C349 C347 1.400 . S
C349 C348 1.387 . S
N350 Co341 2.022 . S
N350 C347 1.351 . S
N350 N351 1.365 . S
N351 C348 1.341 . S
N351 N350 1.365 . S
N351 H371 0.862 . S
C352 C347 1.501 . S
C352 H353 0.961 . S
C352 H354 0.961 . S
C352 H355 0.960 . S
H353 C352 0.961 . S
H354 C352 0.961 . S
H355 C352 0.960 . S
C356 N357 1.342 . S
C356 C360 1.401 . S
C356 C361 1.499 . S
N357 Co340 1.989 . S
N357 C356 1.342 . S
N357 N358 1.388 . S
N358 Co341 1.993 . S
N358 N357 1.388 . S
N358 C359 1.346 . S
C359 N358 1.346 . S
C359 C360 1.396 . S
C359 C369 1.510 . S
C360 C356 1.401 . S
C360 C359 1.396 . S
C361 C356 1.499 . S
C361 H362 0.959 . S
C361 H363 0.960 . S
C361 H364 0.961 . S
H362 C361 0.959 . S
H363 C361 0.960 . S
H364 C361 0.961 . S
O365 Co340 1.967 . S
O365 C373 1.258 . S
O366 Co341 1.941 . S
O366 C373 1.266 . S
H367 C369 0.959 . S
H368 C369 0.961 . S
C369 C359 1.510 . S
C369 H367 0.959 . S
C369 H368 0.961 . S
C369 H370 0.960 . S
H370 C369 0.960 . S
H371 N351 0.862 . S
O372 Co340 1.920 . S
O372 C345 1.289 . S
C373 O365 1.258 . S
C373 O366 1.266 . S
Co374 O377 1.970 . S
Co374 N391 1.989 . S
Co374 O399 1.967 . S
Co374 O406 1.920 . S
Co375 O378 1.966 . S
Co375 N384 2.022 . S
Co375 N392 1.993 . S
Co375 O400 1.941 . S
C376 O377 1.258 . S
C376 O378 1.263 . S
O377 Co374 1.970 . S
O377 C376 1.258 . S
O378 Co375 1.966 . S
O378 C376 1.263 . S
C379 O380 1.235 . S
C379 O406 1.289 . S
O380 C379 1.235 . S
C381 C383 1.400 . S
C381 N384 1.351 . S
C381 C386 1.501 . S
C382 C383 1.387 . S
C382 N385 1.341 . S
C383 C381 1.400 . S
C383 C382 1.387 . S
N384 Co375 2.022 . S
N384 C381 1.351 . S
N384 N385 1.365 . S
N385 C382 1.341 . S
N385 N384 1.365 . S
N385 H405 0.862 . S
C386 C381 1.501 . S
C386 H387 0.961 . S
C386 H388 0.961 . S
C386 H389 0.960 . S
H387 C386 0.961 . S
H388 C386 0.961 . S
H389 C386 0.960 . S
C390 N391 1.342 . S
C390 C394 1.401 . S
C390 C395 1.499 . S
N391 Co374 1.989 . S
N391 C390 1.342 . S
N391 N392 1.388 . S
N392 Co375 1.993 . S
N392 N391 1.388 . S
N392 C393 1.346 . S
C393 N392 1.346 . S
C393 C394 1.396 . S
C393 C403 1.510 . S
C394 C390 1.401 . S
C394 C393 1.396 . S
C395 C390 1.499 . S
C395 H396 0.959 . S
C395 H397 0.960 . S
C395 H398 0.961 . S
H396 C395 0.959 . S
H397 C395 0.960 . S
H398 C395 0.961 . S
O399 Co374 1.967 . S
O399 C407 1.258 . S
O400 Co375 1.941 . S
O400 C407 1.266 . S
H401 C403 0.959 . S
H402 C403 0.961 . S
C403 C393 1.510 . S
C403 H401 0.959 . S
C403 H402 0.961 . S
C403 H404 0.960 . S
H404 C403 0.960 . S
H405 N385 0.862 . S
O406 Co374 1.920 . S
O406 C379 1.289 . S
C407 O399 1.258 . S
C407 O400 1.266 . S
H408 C416 0.950 . S
H409 C421 0.950 . S
H410 C418 0.950 . S
H411 C420 0.950 . S
H412 C422 0.950 . S
H413 C424 0.950 . S
H414 C426 0.950 . S
H415 C427 0.950 . S
C416 H408 0.950 . S
C416 C417 1.386 . S
C416 C418 1.391 . S
C417 C416 1.386 . S
C417 C421 1.393 . S
C418 H410 0.950 . S
C418 C416 1.391 . S
C418 C419 1.400 . S
C419 C418 1.400 . S
C419 C420 1.398 . S
C419 C425 1.491 . S
C420 H411 0.950 . S
C420 C419 1.398 . S
C420 C421 1.391 . S
C421 H409 0.950 . S
C421 C417 1.393 . S
C421 C420 1.391 . S
C422 H412 0.950 . S
C422 C423 1.386 . S
C422 C424 1.391 . S
C423 C422 1.386 . S
C423 C427 1.393 . S
C424 H413 0.950 . S
C424 C422 1.391 . S
C424 C425 1.400 . S
C425 C419 1.491 . S
C425 C424 1.400 . S
C425 C426 1.398 . S
C426 H414 0.950 . S
C426 C425 1.398 . S
C426 C427 1.391 . S
C427 H415 0.950 . S
C427 C423 1.393 . S
C427 C426 1.391 . S
H428 C436 0.950 . S
H429 C441 0.950 . S
H430 C438 0.950 . S
H431 C440 0.950 . S
H432 C442 0.950 . S
H433 C444 0.950 . S
H434 C446 0.950 . S
H435 C447 0.950 . S
C436 H428 0.950 . S
C436 C437 1.386 . S
C436 C438 1.391 1_455 S
C437 C436 1.386 . S
C437 C441 1.393 . S
C438 H430 0.950 . S
C438 C436 1.391 1_655 S
C438 C439 1.400 1_655 S
C439 C438 1.400 1_455 S
C439 C440 1.398 . S
C439 C445 1.491 1_455 S
C440 H431 0.950 . S
C440 C439 1.398 . S
C440 C441 1.391 . S
C441 H429 0.950 . S
C441 C437 1.393 . S
C441 C440 1.391 . S
C442 H432 0.950 . S
C442 C443 1.386 . S
C442 C444 1.391 1_655 S
C443 C442 1.386 . S
C443 C447 1.393 . S
C444 H433 0.950 . S
C444 C442 1.391 1_455 S
C444 C445 1.400 1_455 S
C445 C439 1.491 1_655 S
C445 C444 1.400 1_655 S
C445 C446 1.398 . S
C446 H434 0.950 . S
C446 C445 1.398 . S
C446 C447 1.391 . S
C447 H435 0.950 . S
C447 C443 1.393 . S
C447 C446 1.391 . S
H448 C456 0.950 . S
H449 C461 0.964 . S
H450 C458 0.950 . S
H451 C460 0.950 . S
H452 C462 0.950 . S
H453 C464 0.950 . S
H454 C466 0.950 . S
H455 C467 0.964 . S
C456 H448 0.950 . S
C456 C457 1.386 . S
C456 C458 1.391 . S
C457 C456 1.386 . S
C457 C461 1.393 . S
C458 H450 0.950 . S
C458 C456 1.391 . S
C458 C459 1.400 . S
C459 C458 1.400 . S
C459 C460 1.398 1_545 S
C459 C465 1.491 1_545 S
C460 H451 0.950 . S
C460 C459 1.398 1_565 S
C460 C461 1.391 1_565 S
C461 H449 0.964 . S
C461 C457 1.393 . S
C461 C460 1.391 1_545 S
C462 H452 0.950 . S
C462 C463 1.386 . S
C462 C464 1.391 . S
C463 C462 1.386 . S
C463 C467 1.393 . S
C464 H453 0.950 . S
C464 C462 1.391 . S
C464 C465 1.400 . S
C465 C459 1.491 1_565 S
C465 C464 1.400 . S
C465 C466 1.398 1_565 S
C466 H454 0.950 . S
C466 C465 1.398 1_545 S
C466 C467 1.391 1_545 S
C467 H455 0.964 . S
C467 C463 1.393 . S
C467 C466 1.391 1_565 S
H468 C476 0.950 . S
H469 C481 0.950 . S
H470 C478 0.950 . S
H471 C480 0.950 . S
H472 C482 0.950 . S
H473 C484 0.950 . S
H474 C486 0.950 . S
H475 C487 0.950 . S
C476 H468 0.950 . S
C476 C477 1.386 . S
C476 C478 1.391 . S
C477 C476 1.386 . S
C477 C481 1.393 . S
C478 H470 0.950 . S
C478 C476 1.391 . S
C478 C479 1.400 . S
C479 C478 1.400 . S
C479 C480 1.398 . S
C479 C485 1.491 . S
C480 H471 0.950 . S
C480 C479 1.398 . S
C480 C481 1.391 . S
C481 H469 0.950 . S
C481 C477 1.393 . S
C481 C480 1.391 . S
C482 H472 0.950 . S
C482 C483 1.386 . S
C482 C484 1.391 . S
C483 C482 1.386 . S
C483 C487 1.393 . S
C484 H473 0.950 . S
C484 C482 1.391 . S
C484 C485 1.400 . S
C485 C479 1.491 . S
C485 C484 1.400 . S
C485 C486 1.398 . S
C486 H474 0.950 . S
C486 C485 1.398 . S
C486 C487 1.391 . S
C487 H475 0.950 . S
C487 C483 1.393 . S
C487 C486 1.391 . S
H488 C496 0.950 . S
H489 C501 0.950 . S
H490 C498 0.950 1_455 S
H491 C500 0.950 . S
H492 C502 0.950 . S
H493 C504 0.950 1_655 S
H494 C506 0.950 . S
H495 C507 0.950 . S
C496 H488 0.950 . S
C496 C497 1.386 . S
C496 C498 1.391 . S
C497 C496 1.386 . S
C497 C501 1.393 . S
C498 H490 0.950 1_655 S
C498 C496 1.391 . S
C498 C499 1.400 . S
C499 C498 1.400 . S
C499 C500 1.398 . S
C499 C505 1.491 1_655 S
C500 H491 0.950 . S
C500 C499 1.398 . S
C500 C501 1.391 . S
C501 H489 0.950 . S
C501 C497 1.393 . S
C501 C500 1.391 . S
C502 H492 0.950 . S
C502 C503 1.386 . S
C502 C504 1.391 . S
C503 C502 1.386 . S
C503 C507 1.393 . S
C504 H493 0.950 1_455 S
C504 C502 1.391 . S
C504 C505 1.400 . S
C505 C499 1.491 1_455 S
C505 C504 1.400 . S
C505 C506 1.398 . S
C506 H494 0.950 . S
C506 C505 1.398 . S
C506 C507 1.391 . S
C507 H495 0.950 . S
C507 C503 1.393 . S
C507 C506 1.391 . S
H508 C516 0.950 . S
H509 C521 0.950 . S
H510 C518 0.950 1_545 S
H511 C520 0.950 . S
H512 C522 0.950 . S
H513 C524 0.950 1_565 S
H514 C526 0.950 . S
H515 C527 0.950 . S
C516 H508 0.950 . S
C516 C517 1.386 . S
C516 C518 1.391 . S
C517 C516 1.386 . S
C517 C521 1.393 . S
C518 H510 0.950 1_565 S
C518 C516 1.391 . S
C518 C519 1.400 . S
C519 C518 1.400 . S
C519 C520 1.398 . S
C519 C525 1.491 1_565 S
C520 H511 0.950 . S
C520 C519 1.398 . S
C520 C521 1.391 . S
C521 H509 0.950 . S
C521 C517 1.393 . S
C521 C520 1.391 . S
C522 H512 0.950 . S
C522 C523 1.386 . S
C522 C524 1.391 . S
C523 C522 1.386 . S
C523 C527 1.393 . S
C524 H513 0.950 1_545 S
C524 C522 1.391 . S
C524 C525 1.400 . S
C525 C519 1.491 1_545 S
C525 C524 1.400 . S
C525 C526 1.398 . S
C526 H514 0.950 . S
C526 C525 1.398 . S
C526 C527 1.391 . S
C527 H515 0.950 . S
C527 C523 1.393 . S
C527 C526 1.391 . S
H528 C536 0.950 . S
H529 C541 0.950 . S
H530 C538 0.964 . S
H531 C540 0.950 1_545 S
H532 C542 0.950 . S
H533 C544 0.965 . S
H534 C546 0.950 1_565 S
H535 C547 0.950 . S
C536 H528 0.950 . S
C536 C537 1.386 . S
C536 C538 1.382 1_556 S
C537 C536 1.386 . S
C537 C541 1.393 . S
C538 H530 0.964 . S
C538 C536 1.382 1_554 S
C538 C539 1.395 1_554 S
C539 C538 1.395 1_556 S
C539 C540 1.398 . S
C539 C545 1.491 1_566 S
C540 H531 0.950 1_565 S
C540 C539 1.398 . S
C540 C541 1.391 . S
C541 H529 0.950 . S
C541 C537 1.393 . S
C541 C540 1.391 . S
C542 H532 0.950 . S
C542 C543 1.386 . S
C542 C544 1.382 1_554 S
C543 C542 1.386 . S
C543 C547 1.393 . S
C544 H533 0.965 . S
C544 C542 1.382 1_556 S
C544 C545 1.395 1_556 S
C545 C539 1.491 1_544 S
C545 C544 1.395 1_554 S
C545 C546 1.398 . S
C546 H534 0.950 1_545 S
C546 C545 1.398 . S
C546 C547 1.391 . S
C547 H535 0.950 . S
C547 C543 1.393 . S
C547 C546 1.391 . S
H548 C556 0.950 . S
H549 C561 0.950 . S
H550 C558 0.950 . S
H551 C560 0.950 . S
H552 C562 0.950 . S
H553 C564 0.950 . S
H554 C566 0.950 . S
H555 C567 0.950 . S
C556 H548 0.950 . S
C556 C557 1.386 . S
C556 C558 1.391 . S
C557 C556 1.386 . S
C557 C561 1.393 . S
C558 H550 0.950 . S
C558 C556 1.391 . S
C558 C559 1.400 . S
C559 C558 1.400 . S
C559 C560 1.398 . S
C559 C565 1.491 . S
C560 H551 0.950 . S
C560 C559 1.398 . S
C560 C561 1.391 . S
C561 H549 0.950 . S
C561 C557 1.393 . S
C561 C560 1.391 . S
C562 H552 0.950 . S
C562 C563 1.386 . S
C562 C564 1.391 . S
C563 C562 1.386 . S
C563 C567 1.393 . S
C564 H553 0.950 . S
C564 C562 1.391 . S
C564 C565 1.400 . S
C565 C559 1.491 . S
C565 C564 1.400 . S
C565 C566 1.398 . S
C566 H554 0.950 . S
C566 C565 1.398 . S
C566 C567 1.391 . S
C567 H555 0.950 . S
C567 C563 1.393 . S
C567 C566 1.391 . S
H568 C576 0.950 . S
H569 C581 0.950 . S
H570 C578 0.950 . S
H571 C580 0.950 1_655 S
H572 C582 0.950 . S
H573 C584 0.950 . S
H574 C586 0.950 1_455 S
H575 C587 0.950 . S
C576 H568 0.950 . S
C576 C577 1.386 . S
C576 C578 1.391 . S
C577 C576 1.386 . S
C577 C581 1.393 . S
C578 H570 0.950 . S
C578 C576 1.391 . S
C578 C579 1.400 . S
C579 C578 1.400 . S
C579 C580 1.398 . S
C579 C585 1.491 1_455 S
C580 H571 0.950 1_455 S
C580 C579 1.398 . S
C580 C581 1.391 . S
C581 H569 0.950 . S
C581 C577 1.393 . S
C581 C580 1.391 . S
C582 H572 0.950 . S
C582 C583 1.386 . S
C582 C584 1.391 . S
C583 C582 1.386 . S
C583 C587 1.393 . S
C584 H573 0.950 . S
C584 C582 1.391 . S
C584 C585 1.400 . S
C585 C579 1.491 1_655 S
C585 C584 1.400 . S
C585 C586 1.398 . S
C586 H574 0.950 1_655 S
C586 C585 1.398 . S
C586 C587 1.391 . S
C587 H575 0.950 . S
C587 C583 1.393 . S
C587 C586 1.391 . S
H588 C596 0.950 . S
H589 C601 0.950 . S
H590 C598 0.950 . S
H591 C600 0.950 1_545 S
H592 C602 0.950 . S
H593 C604 0.950 . S
H594 C606 0.950 1_565 S
H595 C607 0.950 . S
C596 H588 0.950 . S
C596 C597 1.386 . S
C596 C598 1.391 1_554 S
C597 C596 1.386 . S
C597 C601 1.393 . S
C598 H590 0.950 . S
C598 C596 1.391 1_556 S
C598 C599 1.400 1_556 S
C599 C598 1.400 1_554 S
C599 C600 1.398 . S
C599 C605 1.491 1_564 S
C600 H591 0.950 1_565 S
C600 C599 1.398 . S
C600 C601 1.391 . S
C601 H589 0.950 . S
C601 C597 1.393 . S
C601 C600 1.391 . S
C602 H592 0.950 . S
C602 C603 1.386 . S
C602 C604 1.391 1_556 S
C603 C602 1.386 . S
C603 C607 1.393 . S
C604 H593 0.950 . S
C604 C602 1.391 1_554 S
C604 C605 1.400 1_554 S
C605 C599 1.491 1_546 S
C605 C604 1.400 1_556 S
C605 C606 1.398 . S
C606 H594 0.950 1_545 S
C606 C605 1.398 . S
C606 C607 1.391 . S
C607 H595 0.950 . S
C607 C603 1.393 . S
C607 C606 1.391 . S
H608 C616 0.950 . S
H609 C621 0.950 . S
H610 C618 0.950 . S
H611 C620 0.950 . S
H612 C622 0.950 . S
H613 C624 0.950 . S
H614 C626 0.950 . S
H615 C627 0.950 . S
C616 H608 0.950 . S
C616 C617 1.386 . S
C616 C618 1.391 . S
C617 C616 1.386 . S
C617 C621 1.393 . S
C618 H610 0.950 . S
C618 C616 1.391 . S
C618 C619 1.400 . S
C619 C618 1.400 . S
C619 C620 1.398 . S
C619 C625 1.491 . S
C620 H611 0.950 . S
C620 C619 1.398 . S
C620 C621 1.391 . S
C621 H609 0.950 . S
C621 C617 1.393 . S
C621 C620 1.391 . S
C622 H612 0.950 . S
C622 C623 1.386 . S
C622 C624 1.391 . S
C623 C622 1.386 . S
C623 C627 1.393 . S
C624 H613 0.950 . S
C624 C622 1.391 . S
C624 C625 1.400 . S
C625 C619 1.491 . S
C625 C624 1.400 . S
C625 C626 1.398 . S
C626 H614 0.950 . S
C626 C625 1.398 . S
C626 C627 1.391 . S
C627 H615 0.950 . S
C627 C623 1.393 . S
C627 C626 1.391 . S
H628 C636 0.950 . S
H629 C641 0.950 . S
H630 C638 0.950 1_655 S
H631 C640 0.950 . S
H632 C642 0.950 . S
H633 C644 0.950 1_455 S
H634 C646 0.950 . S
H635 C647 0.950 . S
C636 H628 0.950 . S
C636 C637 1.386 . S
C636 C638 1.391 . S
C637 C636 1.386 . S
C637 C641 1.393 . S
C638 H630 0.950 1_455 S
C638 C636 1.391 . S
C638 C639 1.400 . S
C639 C638 1.400 . S
C639 C640 1.398 . S
C639 C645 1.491 1_455 S
C640 H631 0.950 . S
C640 C639 1.398 . S
C640 C641 1.391 . S
C641 H629 0.950 . S
C641 C637 1.393 . S
C641 C640 1.391 . S
C642 H632 0.950 . S
C642 C643 1.386 . S
C642 C644 1.391 . S
C643 C642 1.386 . S
C643 C647 1.393 . S
C644 H633 0.950 1_655 S
C644 C642 1.391 . S
C644 C645 1.400 . S
C645 C639 1.491 1_655 S
C645 C644 1.400 . S
C645 C646 1.398 . S
C646 H634 0.950 . S
C646 C645 1.398 . S
C646 C647 1.391 . S
C647 H635 0.950 . S
C647 C643 1.393 . S
C647 C646 1.391 . S
H648 C656 0.950 . S
H649 C661 0.950 . S
H650 C658 0.950 . S
H651 C660 0.950 . S
H652 C662 0.950 . S
H653 C664 0.950 . S
H654 C666 0.950 . S
H655 C667 0.950 . S
C656 H648 0.950 . S
C656 C657 1.386 . S
C656 C658 1.391 . S
C657 C656 1.386 . S
C657 C661 1.393 . S
C658 H650 0.950 . S
C658 C656 1.391 . S
C658 C659 1.400 . S
C659 C658 1.400 . S
C659 C660 1.398 . S
C659 C665 1.491 1_445 S
C660 H651 0.950 . S
C660 C659 1.398 . S
C660 C661 1.391 . S
C661 H649 0.950 . S
C661 C657 1.393 . S
C661 C660 1.391 . S
C662 H652 0.950 . S
C662 C663 1.386 . S
C662 C664 1.391 . S
C663 C662 1.386 . S
C663 C667 1.393 . S
C664 H653 0.950 . S
C664 C662 1.391 . S
C664 C665 1.400 . S
C665 C659 1.491 1_665 S
C665 C664 1.400 . S
C665 C666 1.398 . S
C666 H654 0.950 . S
C666 C665 1.398 . S
C666 C667 1.391 . S
C667 H655 0.950 . S
C667 C663 1.393 . S
C667 C666 1.391 . S
H668 C676 0.950 . S
H669 C681 0.950 . S
H670 C678 0.950 1_655 S
H671 C680 0.950 . S
H672 C682 0.950 . S
H673 C684 0.950 1_455 S
H674 C686 0.950 . S
H675 C687 0.950 . S
C676 H668 0.950 . S
C676 C677 1.386 . S
C676 C678 1.391 . S
C677 C676 1.386 . S
C677 C681 1.393 . S
C678 H670 0.950 1_455 S
C678 C676 1.391 . S
C678 C679 1.400 . S
C679 C678 1.400 . S
C679 C680 1.398 . S
C679 C685 1.491 1_445 S
C680 H671 0.950 . S
C680 C679 1.398 . S
C680 C681 1.391 . S
C681 H669 0.950 . S
C681 C677 1.393 . S
C681 C680 1.391 . S
C682 H672 0.950 . S
C682 C683 1.386 . S
C682 C684 1.391 . S
C683 C682 1.386 . S
C683 C687 1.393 . S
C684 H673 0.950 1_655 S
C684 C682 1.391 . S
C684 C685 1.400 . S
C685 C679 1.491 1_665 S
C685 C684 1.400 . S
C685 C686 1.398 . S
C686 H674 0.950 . S
C686 C685 1.398 . S
C686 C687 1.391 . S
C687 H675 0.950 . S
C687 C683 1.393 . S
C687 C686 1.391 . S
H688 C696 0.950 . S
H689 C701 0.950 . S
H690 C698 0.950 1_565 S
H691 C700 0.950 1_455 S
H692 C702 0.950 . S
H693 C704 0.950 1_545 S
H694 C706 0.950 1_655 S
H695 C707 0.950 . S
C696 H688 0.950 . S
C696 C697 1.386 . S
C696 C698 1.391 . S
C697 C696 1.386 . S
C697 C701 1.393 . S
C698 H690 0.950 1_545 S
C698 C696 1.391 . S
C698 C699 1.400 . S
C699 C698 1.400 . S
C699 C700 1.398 . S
C699 C705 1.491 1_645 S
C700 H691 0.950 1_655 S
C700 C699 1.398 . S
C700 C701 1.391 . S
C701 H689 0.950 . S
C701 C697 1.393 . S
C701 C700 1.391 . S
C702 H692 0.950 . S
C702 C703 1.386 . S
C702 C704 1.391 . S
C703 C702 1.386 . S
C703 C707 1.393 . S
C704 H693 0.950 1_565 S
C704 C702 1.391 . S
C704 C705 1.400 . S
C705 C699 1.491 1_465 S
C705 C704 1.400 . S
C705 C706 1.398 . S
C706 H694 0.950 1_455 S
C706 C705 1.398 . S
C706 C707 1.391 . S
C707 H695 0.950 . S
C707 C703 1.393 . S
C707 C706 1.391 . S
H708 C716 0.950 . S
H709 C721 0.950 . S
H710 C718 0.950 . S
H711 C720 0.950 . S
H712 C722 0.950 . S
H713 C724 0.950 . S
H714 C726 0.950 . S
H715 C727 0.950 . S
C716 H708 0.950 . S
C716 C717 1.386 . S
C716 C718 1.391 . S
C717 C716 1.386 . S
C717 C721 1.393 . S
C718 H710 0.950 . S
C718 C716 1.391 . S
C718 C719 1.400 . S
C719 C718 1.400 . S
C719 C720 1.398 1_655 S
C719 C725 1.491 1_665 S
C720 H711 0.950 . S
C720 C719 1.398 1_455 S
C720 C721 1.391 1_455 S
C721 H709 0.950 . S
C721 C717 1.393 . S
C721 C720 1.391 1_655 S
C722 H712 0.950 . S
C722 C723 1.386 . S
C722 C724 1.391 . S
C723 C722 1.386 . S
C723 C727 1.393 . S
C724 H713 0.950 . S
C724 C722 1.391 . S
C724 C725 1.400 . S
C725 C719 1.491 1_445 S
C725 C724 1.400 . S
C725 C726 1.398 1_455 S
C726 H714 0.950 . S
C726 C725 1.398 1_655 S
C726 C727 1.391 1_655 S
C727 H715 0.950 . S
C727 C723 1.393 . S
C727 C726 1.391 1_455 S
H728 C736 0.950 1_655 S
H729 C741 0.951 1_545 S
H730 C738 0.950 . S
H731 C740 0.950 . S
H732 C742 0.950 1_455 S
H733 C744 0.950 . S
H734 C746 0.950 . S
H735 C747 0.951 1_565 S
C736 H728 0.950 1_455 S
C736 C737 1.386 . S
C736 C738 1.391 1_455 S
C737 C736 1.386 . S
C737 C741 1.393 . S
C738 H730 0.950 . S
C738 C736 1.391 1_655 S
C738 C739 1.400 1_655 S
C739 C738 1.400 1_455 S
C739 C740 1.398 1_565 S
C739 C745 1.491 1_465 S
C740 H731 0.950 . S
C740 C739 1.398 1_545 S
C740 C741 1.391 1_545 S
C741 H729 0.951 1_565 S
C741 C737 1.393 . S
C741 C740 1.391 1_565 S
C742 H732 0.950 1_655 S
C742 C743 1.386 . S
C742 C744 1.391 1_655 S
C743 C742 1.386 . S
C743 C747 1.393 . S
C744 H733 0.950 . S
C744 C742 1.391 1_455 S
C744 C745 1.400 1_455 S
C745 C739 1.491 1_645 S
C745 C744 1.400 1_655 S
C745 C746 1.398 1_545 S
C746 H734 0.950 . S
C746 C745 1.398 1_565 S
C746 C747 1.391 1_565 S
C747 H735 0.951 1_545 S
C747 C743 1.393 . S
C747 C746 1.391 1_545 S
H748 C756 0.950 . S
H749 C761 0.950 . S
H750 C758 0.950 . S
H751 C760 0.950 . S
H752 C762 0.950 . S
H753 C764 0.950 . S
H754 C766 0.950 . S
H755 C767 0.950 . S
C756 H748 0.950 . S
C756 C757 1.386 . S
C756 C758 1.391 . S
C757 C756 1.386 . S
C757 C761 1.393 . S
C758 H750 0.950 . S
C758 C756 1.391 . S
C758 C759 1.400 . S
C759 C758 1.400 . S
C759 C760 1.398 . S
C759 C765 1.491 1_445 S
C760 H751 0.950 . S
C760 C759 1.398 . S
C760 C761 1.391 . S
C761 H749 0.950 . S
C761 C757 1.393 . S
C761 C760 1.391 . S
C762 H752 0.950 . S
C762 C763 1.386 . S
C762 C764 1.391 . S
C763 C762 1.386 . S
C763 C767 1.393 . S
C764 H753 0.950 . S
C764 C762 1.391 . S
C764 C765 1.400 . S
C765 C759 1.491 1_665 S
C765 C764 1.400 . S
C765 C766 1.398 . S
C766 H754 0.950 . S
C766 C765 1.398 . S
C766 C767 1.391 . S
C767 H755 0.950 . S
C767 C763 1.393 . S
C767 C766 1.391 . S
H768 C776 0.950 . S
H769 C781 0.950 . S
H770 C778 0.950 . S
H771 C780 0.950 . S
H772 C782 0.950 . S
H773 C784 0.950 . S
H774 C786 0.950 . S
H775 C787 0.950 . S
C776 H768 0.950 . S
C776 C777 1.386 . S
C776 C778 1.391 . S
C777 C776 1.386 . S
C777 C781 1.393 . S
C778 H770 0.950 . S
C778 C776 1.391 . S
C778 C779 1.400 . S
C779 C778 1.400 . S
C779 C780 1.398 1_556 S
C779 C785 1.491 1_556 S
C780 H771 0.950 . S
C780 C779 1.398 1_554 S
C780 C781 1.391 1_554 S
C781 H769 0.950 . S
C781 C777 1.393 . S
C781 C780 1.391 1_556 S
C782 H772 0.950 . S
C782 C783 1.386 . S
C782 C784 1.391 . S
C783 C782 1.386 . S
C783 C787 1.393 . S
C784 H773 0.950 . S
C784 C782 1.391 . S
C784 C785 1.400 . S
C785 C779 1.491 1_554 S
C785 C784 1.400 . S
C785 C786 1.398 1_554 S
C786 H774 0.950 . S
C786 C785 1.398 1_556 S
C786 C787 1.391 1_556 S
C787 H775 0.950 . S
C787 C783 1.393 . S
C787 C786 1.391 1_554 S
H788 C796 0.950 . S
H789 C801 0.950 . S
H790 C798 0.950 . S
H791 C800 0.950 . S
H792 C802 0.950 . S
H793 C804 0.950 . S
H794 C806 0.950 . S
H795 C807 0.950 1_565 S
C796 H788 0.950 . S
C796 C797 1.386 . S
C796 C798 1.391 . S
C797 C796 1.386 . S
C797 C801 1.393 . S
C798 H790 0.950 . S
C798 C796 1.391 . S
C798 C799 1.400 . S
C799 C798 1.400 . S
C799 C800 1.398 . S
C799 C805 1.491 . S
C800 H791 0.950 . S
C800 C799 1.398 . S
C800 C801 1.391 . S
C801 H789 0.950 . S
C801 C797 1.393 . S
C801 C800 1.391 . S
C802 H792 0.950 . S
C802 C803 1.386 . S
C802 C804 1.391 . S
C803 C802 1.386 . S
C803 C807 1.393 . S
C804 H793 0.950 . S
C804 C802 1.391 . S
C804 C805 1.400 . S
C805 C799 1.491 . S
C805 C804 1.400 . S
C805 C806 1.398 . S
C806 H794 0.950 . S
C806 C805 1.398 . S
C806 C807 1.391 . S
C807 H795 0.950 1_545 S
C807 C803 1.393 . S
C807 C806 1.391 . S
H808 C816 0.950 . S
H809 C821 0.950 . S
H810 C818 0.950 . S
H811 C820 0.950 . S
H812 C822 0.950 . S
H813 C824 0.950 . S
H814 C826 0.950 . S
H815 C827 0.950 . S
C816 H808 0.950 . S
C816 C817 1.386 . S
C816 C818 1.391 . S
C817 C816 1.386 . S
C817 C821 1.393 . S
C818 H810 0.950 . S
C818 C816 1.391 . S
C818 C819 1.400 . S
C819 C818 1.400 . S
C819 C820 1.398 . S
C819 C825 1.491 . S
C820 H811 0.950 . S
C820 C819 1.398 . S
C820 C821 1.391 . S
C821 H809 0.950 . S
C821 C817 1.393 . S
C821 C820 1.391 . S
C822 H812 0.950 . S
C822 C823 1.386 . S
C822 C824 1.391 . S
C823 C822 1.386 . S
C823 C827 1.393 . S
C824 H813 0.950 . S
C824 C822 1.391 . S
C824 C825 1.400 . S
C825 C819 1.491 . S
C825 C824 1.400 . S
C825 C826 1.398 . S
C826 H814 0.950 . S
C826 C825 1.398 . S
C826 C827 1.391 . S
C827 H815 0.950 . S
C827 C823 1.393 . S
C827 C826 1.391 . S
H828 C836 0.950 . S
H829 C841 0.950 . S
H830 C838 0.950 . S
H831 C840 0.950 . S
H832 C842 0.950 . S
H833 C844 0.950 . S
H834 C846 0.950 . S
H835 C847 0.950 1_455 S
C836 H828 0.950 . S
C836 C837 1.386 . S
C836 C838 1.391 . S
C837 C836 1.386 . S
C837 C841 1.393 . S
C838 H830 0.950 . S
C838 C836 1.391 . S
C838 C839 1.400 . S
C839 C838 1.400 . S
C839 C840 1.398 . S
C839 C845 1.491 1_554 S
C840 H831 0.950 . S
C840 C839 1.398 . S
C840 C841 1.391 . S
C841 H829 0.950 . S
C841 C837 1.393 . S
C841 C840 1.391 . S
C842 H832 0.950 . S
C842 C843 1.386 . S
C842 C844 1.391 . S
C843 C842 1.386 . S
C843 C847 1.393 . S
C844 H833 0.950 . S
C844 C842 1.391 . S
C844 C845 1.400 . S
C845 C839 1.491 1_556 S
C845 C844 1.400 . S
C845 C846 1.398 . S
C846 H834 0.950 . S
C846 C845 1.398 . S
C846 C847 1.391 . S
C847 H835 0.950 1_655 S
C847 C843 1.393 . S
C847 C846 1.391 . S
H848 C856 0.950 . S
H849 C861 0.950 1_545 S
H850 C858 0.950 . S
H851 C860 0.950 . S
H852 C862 0.950 1_655 S
H853 C864 0.950 . S
H854 C866 0.950 . S
H855 C867 0.950 . S
C856 H848 0.950 . S
C856 C857 1.386 . S
C856 C858 1.391 . S
C857 C856 1.386 . S
C857 C861 1.393 . S
C858 H850 0.950 . S
C858 C856 1.391 . S
C858 C859 1.400 . S
C859 C858 1.400 . S
C859 C860 1.398 . S
C859 C865 1.491 . S
C860 H851 0.950 . S
C860 C859 1.398 . S
C860 C861 1.391 . S
C861 H849 0.950 1_565 S
C861 C857 1.393 . S
C861 C860 1.391 . S
C862 H852 0.950 1_455 S
C862 C863 1.386 . S
C862 C864 1.391 . S
C863 C862 1.386 . S
C863 C867 1.393 . S
C864 H853 0.950 . S
C864 C862 1.391 . S
C864 C865 1.400 . S
C865 C859 1.491 . S
C865 C864 1.400 . S
C865 C866 1.398 . S
C866 H854 0.950 . S
C866 C865 1.398 . S
C866 C867 1.391 . S
C867 H855 0.950 . S
C867 C863 1.393 . S
C867 C866 1.391 . S
H868 C876 0.950 1_565 S
H869 C881 0.950 . S
H870 C878 0.950 . S
H871 C880 0.950 . S
H872 C882 0.950 . S
H873 C884 0.950 . S
H874 C886 0.950 . S
H875 C887 0.950 . S
C876 H868 0.950 1_545 S
C876 C877 1.386 . S
C876 C878 1.391 . S
C877 C876 1.386 . S
C877 C881 1.393 . S
C878 H870 0.950 . S
C878 C876 1.391 . S
C878 C879 1.400 . S
C879 C878 1.400 . S
C879 C880 1.398 . S
C879 C885 1.491 . S
C880 H871 0.950 . S
C880 C879 1.398 . S
C880 C881 1.391 . S
C881 H869 0.950 . S
C881 C877 1.393 . S
C881 C880 1.391 . S
C882 H872 0.950 . S
C882 C883 1.386 . S
C882 C884 1.391 . S
C883 C882 1.386 . S
C883 C887 1.393 . S
C884 H873 0.950 . S
C884 C882 1.391 . S
C884 C885 1.400 . S
C885 C879 1.491 . S
C885 C884 1.400 . S
C885 C886 1.398 . S
C886 H874 0.950 . S
C886 C885 1.398 . S
C886 C887 1.391 . S
C887 H875 0.950 . S
C887 C883 1.393 . S
C887 C886 1.391 . S
H888 C896 0.950 . S
H889 C901 0.950 . S
H890 C898 0.950 . S
H891 C900 0.950 . S
H892 C902 0.950 . S
H893 C904 0.950 . S
H894 C906 0.950 . S
H895 C907 0.950 . S
C896 H888 0.950 . S
C896 C897 1.386 . S
C896 C898 1.391 . S
C897 C896 1.386 . S
C897 C901 1.393 . S
C898 H890 0.950 . S
C898 C896 1.391 . S
C898 C899 1.400 . S
C899 C898 1.400 . S
C899 C900 1.398 . S
C899 C905 1.491 . S
C900 H891 0.950 . S
C900 C899 1.398 . S
C900 C901 1.391 . S
C901 H889 0.950 . S
C901 C897 1.393 . S
C901 C900 1.391 . S
C902 H892 0.950 . S
C902 C903 1.386 . S
C902 C904 1.391 . S
C903 C902 1.386 . S
C903 C907 1.393 . S
C904 H893 0.950 . S
C904 C902 1.391 . S
C904 C905 1.400 . S
C905 C899 1.491 . S
C905 C904 1.400 . S
C905 C906 1.398 . S
C906 H894 0.950 . S
C906 C905 1.398 . S
C906 C907 1.391 . S
C907 H895 0.950 . S
C907 C903 1.393 . S
C907 C906 1.391 . S
H908 C916 0.950 . S
H909 C921 0.950 . S
H910 C918 0.950 . S
H911 C920 0.950 . S
H912 C922 0.950 . S
H913 C924 0.950 . S
H914 C926 0.950 . S
H915 C927 0.950 . S
C916 H908 0.950 . S
C916 C917 1.386 . S
C916 C918 1.391 . S
C917 C916 1.386 . S
C917 C921 1.393 . S
C918 H910 0.950 . S
C918 C916 1.391 . S
C918 C919 1.400 . S
C919 C918 1.400 . S
C919 C920 1.398 . S
C919 C925 1.491 . S
C920 H911 0.950 . S
C920 C919 1.398 . S
C920 C921 1.391 . S
C921 H909 0.950 . S
C921 C917 1.393 . S
C921 C920 1.391 . S
C922 H912 0.950 . S
C922 C923 1.386 . S
C922 C924 1.391 . S
C923 C922 1.386 . S
C923 C927 1.393 . S
C924 H913 0.950 . S
C924 C922 1.391 . S
C924 C925 1.400 . S
C925 C919 1.491 . S
C925 C924 1.400 . S
C925 C926 1.398 . S
C926 H914 0.950 . S
C926 C925 1.398 . S
C926 C927 1.391 . S
C927 H915 0.950 . S
C927 C923 1.393 . S
C927 C926 1.391 . S
H928 C936 0.950 . S
H929 C941 0.950 . S
H930 C938 0.950 . S
H931 C940 0.950 . S
H932 C942 0.950 . S
H933 C944 0.950 . S
H934 C946 0.950 . S
H935 C947 0.950 . S
C936 H928 0.950 . S
C936 C937 1.386 . S
C936 C938 1.391 . S
C937 C936 1.386 . S
C937 C941 1.393 . S
C938 H930 0.950 . S
C938 C936 1.391 . S
C938 C939 1.400 . S
C939 C938 1.400 . S
C939 C940 1.398 . S
C939 C945 1.491 . S
C940 H931 0.950 . S
C940 C939 1.398 . S
C940 C941 1.391 . S
C941 H929 0.950 . S
C941 C937 1.393 . S
C941 C940 1.391 . S
C942 H932 0.950 . S
C942 C943 1.386 . S
C942 C944 1.391 . S
C943 C942 1.386 . S
C943 C947 1.393 . S
C944 H933 0.950 . S
C944 C942 1.391 . S
C944 C945 1.400 . S
C945 C939 1.491 . S
C945 C944 1.400 . S
C945 C946 1.398 . S
C946 H934 0.950 . S
C946 C945 1.398 . S
C946 C947 1.391 . S
C947 H935 0.950 . S
C947 C943 1.393 . S
C947 C946 1.391 . S
H948 C956 0.950 . S
H949 C961 0.950 . S
H950 C958 0.950 . S
H951 C960 0.950 . S
H952 C962 0.950 . S
H953 C964 0.950 . S
H954 C966 0.950 . S
H955 C967 0.950 . S
C956 H948 0.950 . S
C956 C957 1.386 . S
C956 C958 1.391 . S
C957 C956 1.386 . S
C957 C961 1.393 . S
C958 H950 0.950 . S
C958 C956 1.391 . S
C958 C959 1.400 . S
C959 C958 1.400 . S
C959 C960 1.398 . S
C959 C965 1.491 . S
C960 H951 0.950 . S
C960 C959 1.398 . S
C960 C961 1.391 . S
C961 H949 0.950 . S
C961 C957 1.393 . S
C961 C960 1.391 . S
C962 H952 0.950 . S
C962 C963 1.386 . S
C962 C964 1.391 . S
C963 C962 1.386 . S
C963 C967 1.393 . S
C964 H953 0.950 . S
C964 C962 1.391 . S
C964 C965 1.400 . S
C965 C959 1.491 . S
C965 C964 1.400 . S
C965 C966 1.398 . S
C966 H954 0.950 . S
C966 C965 1.398 . S
C966 C967 1.391 . S
C967 H955 0.950 . S
C967 C963 1.393 . S
C967 C966 1.391 . S
H968 C976 0.950 . S
H969 C981 0.950 . S
H970 C978 0.950 . S
H971 C980 0.950 . S
H972 C982 0.950 . S
H973 C984 0.950 . S
H974 C986 0.950 . S
H975 C987 0.950 . S
C976 H968 0.950 . S
C976 C977 1.386 . S
C976 C978 1.391 . S
C977 C976 1.386 . S
C977 C981 1.393 . S
C978 H970 0.950 . S
C978 C976 1.391 . S
C978 C979 1.400 . S
C979 C978 1.400 . S
C979 C980 1.398 . S
C979 C985 1.491 . S
C980 H971 0.950 . S
C980 C979 1.398 . S
C980 C981 1.391 . S
C981 H969 0.950 . S
C981 C977 1.393 . S
C981 C980 1.391 . S
C982 H972 0.950 . S
C982 C983 1.386 . S
C982 C984 1.391 . S
C983 C982 1.386 . S
C983 C987 1.393 . S
C984 H973 0.950 . S
C984 C982 1.391 . S
C984 C985 1.400 . S
C985 C979 1.491 . S
C985 C984 1.400 . S
C985 C986 1.398 . S
C986 H974 0.950 . S
C986 C985 1.398 . S
C986 C987 1.391 . S
C987 H975 0.950 . S
C987 C983 1.393 . S
C987 C986 1.391 . S
H988 C996 0.950 . S
H989 C1001 0.950 . S
H990 C998 0.950 . S
H991 C1000 0.950 . S
H992 C1002 0.950 . S
H993 C1004 0.950 . S
H994 C1006 0.950 . S
H995 C1007 0.950 . S
C996 H988 0.950 . S
C996 C997 1.386 . S
C996 C998 1.391 . S
C997 C996 1.386 . S
C997 C1001 1.393 . S
C998 H990 0.950 . S
C998 C996 1.391 . S
C998 C999 1.400 . S
C999 C998 1.400 . S
C999 C1000 1.398 . S
C999 C1005 1.491 . S
C1000 H991 0.950 . S
C1000 C999 1.398 . S
C1000 C1001 1.391 . S
C1001 H989 0.950 . S
C1001 C997 1.393 . S
C1001 C1000 1.391 . S
C1002 H992 0.950 . S
C1002 C1003 1.386 . S
C1002 C1004 1.391 . S
C1003 C1002 1.386 . S
C1003 C1007 1.393 . S
C1004 H993 0.950 . S
C1004 C1002 1.391 . S
C1004 C1005 1.400 . S
C1005 C999 1.491 . S
C1005 C1004 1.400 . S
C1005 C1006 1.398 . S
C1006 H994 0.950 . S
C1006 C1005 1.398 . S
C1006 C1007 1.391 . S
C1007 H995 0.950 . S
C1007 C1003 1.393 . S
C1007 C1006 1.391 . S
C417 C111 1.728 . S
C423 C9 1.728 . S
C437 C43 1.732 . S
C443 C145 1.729 . S
C457 C77 1.727 . S
C463 C179 1.731 . S
C477 C213 1.729 . S
C483 C315 1.732 . S
C497 C349 1.728 . S
C503 C247 1.728 . S
C517 C383 1.729 . S
C523 C281 1.728 . S
C537 C271 1.139 . S
C543 C33 1.111 . S
C557 C67 1.136 . S
C563 C305 1.119 . S
C577 C339 1.138 . S
C583 C101 1.106 . S
C597 C135 1.140 . S
C603 C373 1.109 . S
C617 C407 1.125 . S
C623 C169 1.112 . S
C637 C203 1.108 . S
C643 C237 1.139 . S
C657 C5 0.372 . S
C663 C107 0.371 . S
C677 C39 0.374 . S
C683 C141 0.383 . S
C697 C73 0.460 . S
C703 C175 0.466 . S
C717 C209 0.408 . S
C723 C311 0.425 . S
C737 C243 0.422 . S
C743 C345 0.438 . S
C757 C277 0.371 . S
C763 C379 0.374 . S
C777 C342 1.558 1_455 S
C783 C2 1.539 . S
C797 C36 1.554 1_655 S
C803 C376 1.540 1_545 S
C817 C206 1.559 . S
C823 C70 1.548 1_565 S
C837 C104 1.547 . S
C843 C240 1.544 1_655 S
C857 C274 1.555 1_565 S
C863 C138 1.554 1_455 S
C877 C172 1.545 1_545 S
C883 C308 1.545 . S
C897 C20 1.751 . S
C903 C292 1.757 . S
C917 C54 1.750 . S
C923 C326 1.759 . S
C937 C360 1.760 . S
C943 C88 1.748 . S
C957 C394 1.760 . S
C963 C122 1.748 . S
C977 C156 1.748 . S
C983 C224 1.760 . S
C997 C190 1.755 . S
C1003 C258 1.754 . S
