# Generated by pormake.
# Topology qtz-e, (6)-cn, num edge types: 1
# Building blocks:
#     Node 0, Type 0, BuildingBlock: BETFEN_clean_sbu_0, # of connection points: 6
#     Node 1, Type 0, BuildingBlock: BETFEN_clean_sbu_0, # of connection points: 6
#     Node 2, Type 0, BuildingBlock: BETFEN_clean_sbu_0, # of connection points: 6
#     Node 3, Type 0, BuildingBlock: BETFEN_clean_sbu_0, # of connection points: 6
#     Node 4, Type 0, BuildingBlock: BETFEN_clean_sbu_0, # of connection points: 6
#     Node 5, Type 0, BuildingBlock: BETFEN_clean_sbu_0, # of connection points: 6
#     Edge 6, Type (0, 0), BuildingBlock: CIFDUS_clean_linker_0, # of connection points: 2
#     Edge 7, Type (0, 0), BuildingBlock: CIFDUS_clean_linker_0, # of connection points: 2
#     Edge 8, Type (0, 0), BuildingBlock: CIFDUS_clean_linker_0, # of connection points: 2
#     Edge 9, Type (0, 0), BuildingBlock: CIFDUS_clean_linker_0, # of connection points: 2
#     Edge 10, Type (0, 0), BuildingBlock: CIFDUS_clean_linker_0, # of connection points: 2
#     Edge 11, Type (0, 0), BuildingBlock: CIFDUS_clean_linker_0, # of connection points: 2
#     Edge 12, Type (0, 0), BuildingBlock: CIFDUS_clean_linker_0, # of connection points: 2
#     Edge 13, Type (0, 0), BuildingBlock: CIFDUS_clean_linker_0, # of connection points: 2
#     Edge 14, Type (0, 0), BuildingBlock: CIFDUS_clean_linker_0, # of connection points: 2
#     Edge 15, Type (0, 0), BuildingBlock: CIFDUS_clean_linker_0, # of connection points: 2
#     Edge 16, Type (0, 0), BuildingBlock: CIFDUS_clean_linker_0, # of connection points: 2
#     Edge 17, Type (0, 0), BuildingBlock: CIFDUS_clean_linker_0, # of connection points: 2
#     Edge 18, Type (0, 0), BuildingBlock: CIFDUS_clean_linker_0, # of connection points: 2
#     Edge 19, Type (0, 0), BuildingBlock: CIFDUS_clean_linker_0, # of connection points: 2
#     Edge 20, Type (0, 0), BuildingBlock: CIFDUS_clean_linker_0, # of connection points: 2
#     Edge 21, Type (0, 0), BuildingBlock: CIFDUS_clean_linker_0, # of connection points: 2
#     Edge 22, Type (0, 0), BuildingBlock: CIFDUS_clean_linker_0, # of connection points: 2
#     Edge 23, Type (0, 0), BuildingBlock: CIFDUS_clean_linker_0, # of connection points: 2
# Relax obj value: 0.197
# Max RMSD: 0.216
# Mean RMSD: 0.216
data_MOF--net-qtz-e--node1-BETFEN_clean_sbu_0--edge1-CIFDUS_clean_linker_0
_symmetry_space_group_name_H-M    P1
_symmetry_Int_Tables_number       1
_symmetry_cell_setting            triclinic
loop_
_symmetry_equiv_pos_as_xyz
'x, y, z'
_cell_length_a     22.532884
_cell_length_b     22.471941
_cell_length_c     47.260332
_cell_angle_alpha  89.687854
_cell_angle_beta   89.917228
_cell_angle_gamma 119.89088
loop_
_atom_site_label
_atom_site_type_symbol
_atom_site_fract_x
_atom_site_fract_y
_atom_site_fract_z
_atom_type_partial_charge
Pr0 Pr 0.34993 0.50962 0.10666 0.0
Pr1 Pr 0.21932 0.37224 0.12139 0.0
C2 C 0.46735 0.60325 0.08264 0.0
C3 C 0.47611 0.62746 0.053 0.0
C4 C 0.4244 0.63528 0.03985 0.0
C5 C 0.42755 0.64959 1.01092 0.0
C6 C 0.48226 0.656 0.99433 0.0
C7 C 0.53423 0.64856 1.00762 0.0
C8 C 0.5311 0.63434 0.03665 0.0
C9 C 0.23178 0.51611 0.09996 0.0
C10 C 0.27594 0.38469 0.05712 0.0
C11 C 0.10209 0.27844 0.14736 0.0
C12 C 0.08078 0.2651 0.17756 0.0
C13 C 0.12987 0.29289 0.1991 0.0
C14 C 0.11011 0.28134 0.22765 0.0
C15 C 0.04054 0.24185 0.23553 0.0
C16 C 0.99144 0.21424 0.2138 0.0
C17 C 0.01138 0.22584 0.18515 0.0
C18 C 0.34392 0.37835 0.13332 0.0
C19 C 0.28983 0.49889 0.16923 0.0
O20 O 0.45187 0.53916 0.08592 0.0
O21 O 0.43104 0.62021 0.0989 0.0
O22 O 0.23665 0.46385 0.09361 0.0
O23 O 0.29086 0.56838 0.10595 0.0
O24 O 0.21964 0.34957 0.07257 0.0
O25 O 0.33026 0.43916 0.06733 0.0
O26 O 0.11067 0.33591 0.13662 0.0
O27 O 0.15037 0.2657 0.13962 0.0
O28 O 0.33 0.42481 0.13803 0.0
O29 O 0.29174 0.32451 0.12273 0.0
O30 O 0.34893 0.52648 0.15548 0.0
O31 O 0.23381 0.44823 0.1581 0.0
H32 H 0.38016 0.62813 0.05175 0.0
H33 H 0.38575 0.65321 1.00143 0.0
H34 H 0.57719 0.65313 0.99557 0.0
H35 H 0.57059 0.62681 0.04614 0.0
H36 H 0.18374 0.32367 0.19383 0.0
H37 H 0.14973 0.30289 0.24356 0.0
H38 H 0.93743 0.18456 0.21889 0.0
H39 H 0.97251 0.20439 0.16892 0.0
Pr40 Pr 0.65087 0.16177 0.5266 0.0
Pr41 Pr 0.74415 0.10452 0.50695 0.0
C42 C 0.55753 0.19382 0.54508 0.0
C43 C 0.54155 0.20568 0.57416 0.0
C44 C 0.59421 0.24088 0.59392 0.0
C45 C 0.57881 0.24531 0.62226 0.0
C46 C 0.51046 0.21386 0.63155 0.0
C47 C 0.45784 0.17984 0.61163 0.0
C48 C 0.47327 0.17589 0.58321 0.0
C49 C 0.79152 0.2552 0.53105 0.0
C50 C 0.69895 0.08632 0.57513 0.0
C51 C 0.83936 0.08197 0.48322 0.0
C52 C 0.86677 0.09788 0.45374 0.0
C53 C 0.86882 0.04723 0.43718 0.0
C54 C 0.8869 0.05924 0.40838 0.0
C55 C 0.90341 0.1223 0.39537 0.0
C56 C 0.90256 0.17341 0.41219 0.0
C57 C 0.88431 0.16132 0.44091 0.0
C58 C 0.60451 0.02282 0.49594 0.0
C59 C 0.6956 0.17764 0.45953 0.0
O60 O 0.54222 0.13076 0.53957 0.0
O61 O 0.61698 0.2396 0.53466 0.0
O62 O 0.76247 0.21413 0.51105 0.0
O63 O 0.74681 0.24547 0.55051 0.0
O64 O 0.74216 0.0837 0.55665 0.0
O65 O 0.65629 0.10778 0.56769 0.0
O66 O 0.8552 0.13435 0.49986 0.0
O67 O 0.77526 0.03362 0.48576 0.0
O68 O 0.63002 0.05365 0.51869 0.0
O69 O 0.65183 0.03021 0.47831 0.0
O70 O 0.64558 0.16966 0.47669 0.0
O71 O 0.74695 0.17086 0.46878 0.0
H72 H 0.6474 0.26328 0.58767 0.0
H73 H 0.62045 0.27102 0.63712 0.0
H74 H 0.40463 0.15548 0.6181 0.0
H75 H 0.43186 0.14792 0.56846 0.0
H76 H 0.85495 -0.00232 0.44637 0.0
H77 H 0.8877 0.01887 0.39628 0.0
H78 H 0.91368 0.22212 0.40295 0.0
H79 H 0.8821 0.20117 0.45285 0.0
Pr80 Pr 0.49862 0.823 0.76914 0.0
Pr81 Pr 0.64049 0.8624 0.79423 0.0
C82 C 0.37755 0.8017 0.74924 0.0
C83 C 0.34992 0.79961 0.72056 0.0
C84 C 0.29578 0.73776 0.71031 0.0
C85 C 0.27226 0.73348 0.68258 0.0
C86 C 0.302 0.79118 0.66454 0.0
C87 C 0.35521 0.8535 0.67502 0.0
C88 C 0.37908 0.85765 0.70266 0.0
C89 C 0.53651 0.72182 0.76368 0.0
C90 C 0.63325 0.90374 0.72688 0.0
C91 C 0.7523 0.87116 0.81899 0.0
C92 C 0.7615 0.84809 0.84729 0.0
C93 C 0.82673 0.87595 0.8594 0.0
C94 C 0.8345 0.85712 0.88696 0.0
C95 C 0.77701 0.81077 0.90309 0.0
C96 C 0.71188 0.78255 0.89074 0.0
C97 C 0.70435 0.80066 0.86314 0.0
C98 C 0.59134 0.95175 0.80647 0.0
C99 C 0.50671 0.78372 0.83537 0.0
O100 O 0.42532 0.86126 0.75848 0.0
O101 O 0.38909 0.75173 0.75564 0.0
O102 O 0.54583 0.759 0.78485 0.0
O103 O 0.50945 0.73939 0.74333 0.0
O104 O 0.6696 0.89124 0.74565 0.0
O105 O 0.5698 0.88908 0.73215 0.0
O106 O 0.71449 0.82284 0.801 0.0
O107 O 0.73902 0.92159 0.81898 0.0
O108 O 0.58866 0.9253 0.78274 0.0
O109 O 0.62362 0.93512 0.82472 0.0
O110 O 0.47484 0.80584 0.81849 0.0
O111 O 0.5637 0.78618 0.82722 0.0
H112 H 0.27226 0.69231 0.72365 0.0
H113 H 0.2306 0.68499 0.67528 0.0
H114 H 0.37961 0.89875 0.66159 0.0
H115 H 0.42117 0.90608 0.70978 0.0
H116 H 0.87156 0.9129 0.84769 0.0
H117 H 0.88536 0.88009 0.89591 0.0
H118 H 0.66667 0.74604 0.90238 0.0
H119 H 0.65362 0.77785 0.8543 0.0
Pr120 Pr 0.81861 0.44572 0.19129 0.0
Pr121 Pr 0.82544 0.58399 0.17882 0.0
C122 C 0.83966 0.34643 0.21206 0.0
C123 C 0.81862 0.3112 0.23975 0.0
C124 C 0.75617 0.29754 0.25203 0.0
C125 C 0.73884 0.27106 0.27947 0.0
C126 C 0.78393 0.25841 0.29551 0.0
C127 C 0.84617 0.27124 0.28301 0.0
C128 C 0.86332 0.29742 0.25537 0.0
C129 C 0.69401 0.43948 0.19929 0.0
C130 C 0.8824 0.57316 0.24019 0.0
C131 C 0.80189 0.68027 0.1557 0.0
C132 C 0.79286 0.69724 0.12602 0.0
C133 C 0.8497 0.73555 0.10816 0.0
C134 C 0.84084 0.74931 0.08 0.0
C135 C 0.77494 0.72547 0.06887 0.0
C136 C 0.71814 0.68753 0.0868 0.0
C137 C 0.72698 0.67368 0.11497 0.0
C138 C 0.94394 0.57893 0.16597 0.0
C139 C 0.7761 0.46527 0.12798 0.0
O140 O 0.88637 0.41142 0.21301 0.0
O141 O 0.79018 0.33412 0.1944 0.0
O142 O 0.75103 0.49109 0.20591 0.0
O143 O 0.70106 0.38762 0.19258 0.0
O144 O 0.85565 0.60632 0.22695 0.0
O145 O 0.87888 0.51757 0.22917 0.0
O146 O 0.75316 0.62257 0.16633 0.0
O147 O 0.86291 0.69242 0.16295 0.0
O148 O 0.88393 0.53272 0.161 0.0
O149 O 0.94528 0.63239 0.177 0.0
O150 O 0.80517 0.43536 0.14197 0.0
O151 O 0.76907 0.5146 0.1397 0.0
H152 H 0.7211 0.30863 0.2406 0.0
H153 H 0.69009 0.26076 0.28814 0.0
H154 H 0.8826 0.26293 0.29482 0.0
H155 H 0.9122 0.30857 0.2465 0.0
H156 H 0.90129 0.75491 0.11588 0.0
H157 H 0.88587 0.77965 0.06706 0.0
H158 H 0.6666 0.66768 0.07901 0.0
H159 H 0.68202 0.644 0.12806 0.0
Pr160 Pr 0.14571 0.66455 0.43856 0.0
Pr161 Pr 0.10213 0.76714 0.4556 0.0
C162 C 0.15603 0.56188 0.41478 0.0
C163 C 0.17118 0.55283 0.38539 0.0
C164 C 0.20355 0.60992 0.36711 0.0
C165 C 0.21517 0.6014 0.33876 0.0
C166 C 0.19368 0.53557 0.32818 0.0
C167 C 0.16193 0.47869 0.34659 0.0
C168 C 0.15076 0.48723 0.37502 0.0
C169 C 0.25066 0.79834 0.43366 0.0
C170 C 0.06322 0.71218 0.39136 0.0
C171 C 0.09892 0.87105 0.48212 0.0
C172 C 0.10108 0.88505 0.5127 0.0
C173 C 0.07874 0.83089 0.53237 0.0
C174 C 0.08344 0.84378 0.56141 0.0
C175 C 0.11113 0.91119 0.57145 0.0
C176 C 0.1344 0.9655 0.55171 0.0
C177 C 0.12931 0.95248 0.52256 0.0
C178 C 0.00435 0.62976 0.46604 0.0
C179 C 0.17725 0.71492 0.50344 0.0
O180 O 0.09714 0.55893 0.41886 0.0
O181 O 0.20637 0.61212 0.42841 0.0
O182 O 0.18957 0.77941 0.4265 0.0
O183 O 0.25891 0.74771 0.44145 0.0
O184 O 0.07222 0.76339 0.40781 0.0
O185 O 0.08168 0.66754 0.39974 0.0
O186 O 0.15511 0.87674 0.47146 0.0
O187 O 0.04373 0.81673 0.4731 0.0
O188 O 0.06728 0.6571 0.47055 0.0
O189 O 0.98842 0.67452 0.45675 0.0
O190 O 0.16217 0.66128 0.48738 0.0
O191 O 0.16667 0.76441 0.49426 0.0
H192 H 0.21893 0.661 0.3747 0.0
H193 H 0.23911 0.64591 0.32491 0.0
H194 H 0.14577 0.42768 0.33891 0.0
H195 H 0.1255 0.44264 0.38878 0.0
H196 H 0.05821 0.77851 0.52527 0.0
H197 H 0.06624 0.801 0.57605 0.0
H198 H 0.1557 0.01796 0.5588 0.0
H199 H 0.1477 0.99503 0.50774 0.0
Pr200 Pr 0.4676 0.3063 0.86215 0.0
Pr201 Pr 0.32379 0.20821 0.83962 0.0
C202 C 0.59226 0.40159 0.88043 0.0
C203 C 0.6222 0.41533 0.90897 0.0
C204 C 0.59754 0.3625 0.92933 0.0
C205 C 0.62181 0.37608 0.95707 0.0
C206 C 0.67086 0.44294 0.96511 0.0
C207 C 0.69597 0.49571 0.94457 0.0
C208 C 0.6718 0.48195 0.91672 0.0
C209 C 0.42801 0.16671 0.86713 0.0
C210 C 0.3381 0.26004 0.90671 0.0
C211 C 0.2075 0.10531 0.8185 0.0
C212 C 0.19583 0.07242 0.79048 0.0
C213 C 0.13635 0.05593 0.77514 0.0
C214 C 0.13019 0.03499 0.74687 0.0
C215 C 0.18382 0.03093 0.73338 0.0
C216 C 0.2421 0.04493 0.74918 0.0
C217 C 0.24808 0.06548 0.77738 0.0
C218 C 0.37348 0.34642 0.82693 0.0
C219 C 0.4512 0.26454 0.79476 0.0
O220 O 0.5421 0.41422 0.87685 0.0
O221 O 0.58014 0.34376 0.86901 0.0
O222 O 0.41732 0.19518 0.84634 0.0
O223 O 0.45573 0.21048 0.88755 0.0
O224 O 0.29867 0.21201 0.88837 0.0
O225 O 0.40252 0.30502 0.90077 0.0
O226 O 0.24652 0.09486 0.83604 0.0
O227 O 0.2215 0.16923 0.81794 0.0
O228 O 0.37891 0.32291 0.85044 0.0
O229 O 0.33708 0.29738 0.80942 0.0
O230 O 0.48588 0.31572 0.81253 0.0
O231 O 0.39322 0.21028 0.80264 0.0
H232 H 0.55832 0.31088 0.92395 0.0
H233 H 0.60048 0.33457 0.97243 0.0
H234 H 0.73405 0.5477 0.95007 0.0
H235 H 0.69096 0.5235 0.90138 0.0
H236 H 0.09578 0.06169 0.7847 0.0
H237 H 0.0848 0.02488 0.7352 0.0
H238 H 0.28367 0.04106 0.73958 0.0
H239 H 0.2947 0.07809 0.78863 0.0
H240 H 0.30954 0.59884 0.29578 0.0
H241 H 0.09402 0.45016 0.29255 0.0
H242 H 0.10467 0.42946 0.24263 0.0
H243 H 0.17499 0.44983 0.20094 0.0
H244 H 0.39198 0.59458 0.20323 0.0
H245 H 0.38092 0.62133 0.25258 0.0
C246 C 0.26507 0.56226 0.28399 0.0
C247 C 0.20119 0.52552 0.29775 0.0
C248 C 0.27182 0.54993 0.25532 0.0
C249 C 0.14378 0.47826 0.28242 0.0
C250 C 0.14981 0.46666 0.2539 0.0
C251 C 0.22021 0.48749 0.21204 0.0
C252 C 0.28444 0.51991 0.19837 0.0
C253 C 0.21364 0.50152 0.2403 0.0
C254 C 0.34198 0.56883 0.21323 0.0
C255 C 0.33567 0.58395 0.24146 0.0
H256 H 0.40491 0.15899 0.75793 0.0
H257 H 0.55145 0.37495 0.7652 0.0
H258 H 0.58383 0.37839 0.71539 0.0
H259 H 0.56669 0.32035 0.66914 0.0
H260 H 0.41845 0.10459 0.66288 0.0
H261 H 0.3911 0.10083 0.71298 0.0
C262 C 0.44405 0.207 0.74874 0.0
C263 C 0.4754 0.26679 0.76531 0.0
C264 C 0.46178 0.20868 0.72015 0.0
C265 C 0.52659 0.32815 0.75299 0.0
C266 C 0.54485 0.33018 0.72446 0.0
C267 C 0.52841 0.27257 0.6788 0.0
C268 C 0.49408 0.213 0.66215 0.0
C269 C 0.5122 0.27087 0.70773 0.0
C270 C 0.44462 0.15147 0.67499 0.0
C271 C 0.42908 0.1492 0.7037 0.0
H272 H 0.44208 0.7365 0.96556 0.0
H273 H 0.52485 0.60161 0.95269 0.0
H274 H 0.53237 0.62423 0.90205 0.0
H275 H 0.52169 0.68654 0.86193 0.0
H276 H 0.43889 0.82121 0.87342 0.0
H277 H 0.4218 0.79166 0.92409 0.0
C278 C 0.46078 0.71115 0.95169 0.0
C279 C 0.48393 0.66819 0.9632 0.0
C280 C 0.46407 0.7236 0.92234 0.0
C281 C 0.50851 0.6364 0.94472 0.0
C282 C 0.5121 0.64864 0.91565 0.0
C283 C 0.49889 0.7087 0.87543 0.0
C284 C 0.48175 0.75615 0.86406 0.0
C285 C 0.49096 0.6928 0.90434 0.0
C286 C 0.45177 0.78402 0.88168 0.0
C287 C 0.4429 0.76777 0.91066 0.0
H288 H 0.74203 0.13107 0.41811 0.0
H289 H 0.65187 0.25828 0.43273 0.0
H290 H 0.67019 0.29377 0.38263 0.0
H291 H 0.72005 0.29449 0.33582 0.0
H292 H 0.80743 0.1639 0.32215 0.0
H293 H 0.78222 0.12418 0.37106 0.0
C294 C 0.726 0.16637 0.41032 0.0
C295 C 0.6964 0.1928 0.42905 0.0
C296 C 0.73711 0.18654 0.38185 0.0
C297 C 0.67462 0.23727 0.41864 0.0
C298 C 0.68564 0.25787 0.3901 0.0
C299 C 0.73293 0.25673 0.3434 0.0
C300 C 0.76637 0.23284 0.32523 0.0
C301 C 0.71807 0.23375 0.37165 0.0
C302 C 0.78323 0.18446 0.33567 0.0
C303 C 0.76858 0.16143 0.36363 0.0
H304 H 0.27388 0.68965 0.6265 0.0
H305 H 0.27686 0.8821 0.63576 0.0
H306 H 0.24004 0.87584 0.58675 0.0
H307 H 0.2075 0.81627 0.54143 0.0
H308 H 0.20211 0.62263 0.53185 0.0
H309 H 0.23967 0.62899 0.58087 0.0
C310 C 0.26594 0.72992 0.61784 0.0
C311 C 0.27827 0.78633 0.6348 0.0
C312 C 0.24478 0.72601 0.58958 0.0
C313 C 0.2686 0.83856 0.62312 0.0
C314 C 0.24731 0.8349 0.59511 0.0
C315 C 0.21443 0.77525 0.54996 0.0
C316 C 0.20185 0.71891 0.53288 0.0
C317 C 0.23551 0.77902 0.57815 0.0
C318 C 0.21143 0.66658 0.54444 0.0
C319 C 0.2328 0.67014 0.5725 0.0
H320 H 0.74746 0.54035 0.09131 0.0
H321 H 0.76345 0.35694 0.09654 0.0
H322 H 0.73343 0.33448 0.04636 0.0
H323 H 0.70245 0.36731 1.00112 0.0
H324 H 0.68838 0.55189 0.99668 0.0
H325 H 0.71915 0.57412 0.0465 0.0
C326 C 0.7441 0.4951 0.08164 0.0
C327 C 0.75712 0.44994 0.09779 0.0
C328 C 0.72778 0.48315 0.05286 0.0
C329 C 0.75346 0.39232 0.08465 0.0
C330 C 0.73637 0.37956 0.05596 0.0
C331 C 0.70588 0.41225 1.0111 0.0
C332 C 0.69303 0.45781 0.99513 0.0
C333 C 0.72337 0.42463 0.03988 0.0
C334 C 0.69877 0.5164 1.0083 0.0
C335 C 0.71585 0.5289 0.03687 0.0
H336 H 0.44969 0.48304 0.16105 0.0
H337 H 0.37675 0.27773 0.13009 0.0
H338 H 0.47731 0.27846 0.14964 0.0
H339 H 0.5845 0.33661 0.17483 0.0
H340 H 0.66158 0.54244 0.20574 0.0
H341 H 0.55939 0.54213 0.18716 0.0
C342 C 0.456 0.43856 0.15857 0.0
C343 C 0.406 0.38025 0.14417 0.0
C344 C 0.51393 0.43936 0.16995 0.0
C345 C 0.41459 0.32304 0.14105 0.0
C346 C 0.47186 0.3234 0.15229 0.0
C347 C 0.57919 0.3816 0.17774 0.0
C348 C 0.63088 0.43991 0.1914 0.0
C349 C 0.52153 0.38111 0.16677 0.0
C350 C 0.62274 0.49732 0.19505 0.0
C351 C 0.56449 0.49704 0.1844 0.0
H352 H 0.03407 0.53728 0.48871 0.0
H353 H 0.86501 0.56854 0.46802 0.0
H354 H 0.78474 0.45638 0.48863 0.0
H355 H 0.76307 0.34956 0.51203 0.0
H356 H 0.93085 0.31564 0.53095 0.0
H357 H 0.01231 0.4301 0.51198 0.0
C358 C 0.97963 0.51954 0.48872 0.0
C359 C 0.95524 0.56098 0.47698 0.0
C360 C 0.93414 0.45536 0.50061 0.0
C361 C 0.88474 0.53737 0.47693 0.0
C362 C 0.83902 0.47354 0.48881 0.0
C363 C 0.81771 0.3681 0.51243 0.0
C364 C 0.84181 0.32589 0.52339 0.0
C365 C 0.86327 0.43241 0.50078 0.0
C366 C 0.91198 0.34851 0.52312 0.0
C367 C 0.95812 0.41338 0.51208 0.0
H368 H 0.42281 0.10498 0.81749 0.0
H369 H 0.47782 0.11013 0.90524 0.0
H370 H 0.53114 0.04084 0.89426 0.0
H371 H 0.57172 0.98868 0.85881 0.0
H372 H 0.524 0.99272 0.77068 0.0
H373 H 0.45909 0.0497 0.78265 0.0
C374 C 0.44548 0.09014 0.83437 0.0
C375 C 0.4467 0.11307 0.86216 0.0
C376 C 0.4786 0.0532 0.82768 0.0
C377 C 0.47618 0.09312 0.88371 0.0
C378 C 0.50725 0.05411 0.87737 0.0
C379 C 0.54708 0.00209 0.84226 0.0
C380 C 0.55272 0.98673 0.81388 0.0
C381 C 0.51061 0.03572 0.84928 0.0
C382 C 0.52019 0.00387 0.79267 0.0
C383 C 0.48306 0.03638 0.7995 0.0
H384 H 0.55384 0.66608 0.81146 0.0
H385 H 0.47689 0.61479 0.72628 0.0
H386 H 0.42199 0.49238 0.73823 0.0
H387 H 0.3848 0.40102 0.77448 0.0
H388 H 0.45299 0.45496 0.86062 0.0
H389 H 0.52125 0.57565 0.84689 0.0
C390 C 0.52578 0.62823 0.79535 0.0
C391 C 0.51858 0.64953 0.76812 0.0
C392 C 0.49141 0.55854 0.80278 0.0
C393 C 0.48301 0.59974 0.74741 0.0
C394 C 0.45096 0.52981 0.75434 0.0
C395 C 0.41461 0.4393 0.79021 0.0
C396 C 0.41377 0.41933 0.81855 0.0
C397 C 0.4527 0.50879 0.78224 0.0
C398 C 0.45299 0.46918 0.83869 0.0
C399 C 0.49201 0.53813 0.83084 0.0
H400 H 0.22555 0.61963 0.12439 0.0
H401 H 0.09732 0.41311 0.09431 0.0
H402 H -0.00424 0.41412 0.1129 0.0
H403 H 0.94538 0.47391 0.13869 0.0
H404 H 0.07683 0.67964 0.16912 0.0
H405 H 0.17656 0.67838 0.14958 0.0
C406 C 0.17542 0.5747 0.12166 0.0
C407 C 0.16872 0.5161 0.10812 0.0
C408 C 0.11845 0.5755 0.1327 0.0
C409 C 0.1035 0.45859 0.10478 0.0
C410 C 0.04576 0.45922 0.11546 0.0
C411 C -0.00407 0.5184 0.14104 0.0
C412 C 0.00409 0.57698 0.15524 0.0
C413 C 0.05288 0.51728 0.1297 0.0
C414 C 0.06957 0.63415 0.15827 0.0
C415 C 0.12639 0.63349 0.14704 0.0
H416 H 0.28642 0.86681 0.48229 0.0
H417 H 0.34351 0.88064 0.39459 0.0
H418 H 0.46314 0.96005 0.40654 0.0
H419 H 0.55268 0.0036 0.44305 0.0
H420 H 0.49537 0.98224 0.53121 0.0
H421 H 0.37433 0.92658 0.51821 0.0
C422 C 0.32454 0.89013 0.46567 0.0
C423 C 0.30645 0.86865 0.4376 0.0
C424 C 0.39345 0.93167 0.47304 0.0
C425 C 0.35628 0.89782 0.41625 0.0
C426 C 0.42486 0.94179 0.42321 0.0
C427 C 0.5136 0.98725 0.45936 0.0
C428 C 0.53233 0.99506 0.48804 0.0
C429 C 0.44435 0.95534 0.4517 0.0
C430 C 0.48173 0.97554 0.50901 0.0
C431 C 0.4127 0.94408 0.50158 0.0
H432 H 0.37466 0.37878 0.93312 0.0
H433 H 0.23818 0.16108 0.9418 0.0
H434 H 0.20171 0.17893 0.98869 0.0
H435 H 0.21549 0.25809 0.02904 0.0
H436 H 0.35131 0.47586 1.01681 0.0
H437 H 0.38018 0.45622 0.96984 0.0
C438 C 0.33671 0.33499 0.94518 0.0
C439 C 0.31005 0.2686 0.93409 0.0
C440 C 0.31572 0.3458 0.97174 0.0
C441 C 0.25981 0.21279 0.94984 0.0
C442 C 0.2391 0.22308 0.97672 0.0
C443 C 0.25037 0.3011 1.01587 0.0
C444 C 0.28182 0.36838 0.02693 0.0
C445 C 0.26746 0.28953 0.98819 0.0
C446 C 0.32702 0.42341 1.00935 0.0
C447 C 0.34378 0.41239 0.98229 0.0
H448 H 0.00041 0.23953 0.36873 0.0
H449 H 0.84208 0.0319 0.35168 0.0
H450 H 0.86834 0.0505 0.30112 0.0
H451 H 0.93842 0.12518 0.26153 0.0
H452 H 0.09654 0.33257 0.27924 0.0
H453 H 0.0675 0.31429 0.32935 0.0
C454 C 0.97113 0.19837 0.354 0.0
C455 C 0.91961 0.13414 0.3643 0.0
C456 C 0.98646 0.20935 0.32482 0.0
C457 C 0.88298 0.08146 0.34465 0.0
C458 C 0.89762 0.09223 0.3156 0.0
C459 C 0.96612 0.16681 0.27624 0.0
C460 C 0.01993 0.23038 0.26623 0.0
C461 C 0.94961 0.15591 0.3054 0.0
C462 C 0.05547 0.28301 0.286 0.0
C463 C 0.03882 0.27275 0.3148 0.0
H464 H 0.61926 0.00408 0.70289 0.0
H465 H 0.7139 0.88101 0.68905 0.0
H466 H 0.74758 0.92923 0.64086 0.0
H467 H 0.74082 0.00072 0.601 0.0
H468 H 0.64789 0.125 0.61834 0.0
H469 H 0.62369 0.08254 0.66641 0.0
C470 C 0.64799 0.98829 0.68945 0.0
C471 C 0.66354 0.93868 0.69943 0.0
C472 C 0.66718 0.0163 0.6621 0.0
C473 C 0.70149 0.91938 0.6819 0.0
C474 C 0.72033 0.94669 0.65426 0.0
C475 C 0.71626 0.01916 0.61544 0.0
C476 C 0.69508 0.06516 0.6055 0.0
C477 C 0.70223 0.99441 0.64383 0.0
C478 C 0.66364 0.08863 0.62482 0.0
C479 C 0.64972 0.0645 0.65257 0.0
H480 H 0.70222 0.80429 0.94972 0.0
H481 H 0.86909 0.77519 0.92307 0.0
H482 H 0.88204 0.74455 0.97152 0.0
H483 H 0.8462 0.72629 1.02161 0.0
H484 H 0.68286 0.761 0.04853 0.0
H485 H 0.66819 0.78861 0.99997 0.0
C486 C 0.74124 0.79095 0.95449 0.0
C487 C 0.78467 0.79212 0.93272 0.0
C488 C 0.74902 0.77423 0.98252 0.0
C489 C 0.83542 0.77538 0.93941 0.0
C490 C 0.84266 0.75756 0.96712 0.0
C491 C 0.80765 0.74032 1.01694 0.0
C492 C 0.76562 0.74124 0.03891 0.0
C493 C 0.79994 0.75707 0.98889 0.0
C494 C 0.71534 0.75871 0.03217 0.0
C495 C 0.70717 0.77502 1.00435 0.0
H496 H 0.05946 0.627 0.35042 0.0
H497 H 0.99129 0.77139 0.36817 0.0
H498 H 0.93018 0.74363 0.32276 0.0
H499 H 0.8921 0.67328 0.27821 0.0
H500 H 0.9633 0.52926 0.26353 0.0
H501 H 0.02621 0.56194 0.3072 0.0
C502 C 0.03142 0.65281 0.34454 0.0
C503 C 0.02988 0.701 0.36299 0.0
C504 C -0.00386 0.63619 0.31871 0.0
C505 C 0.99365 0.73412 0.35449 0.0
C506 C 0.95837 0.71796 0.3285 0.0
C507 C 0.92149 0.64928 0.28457 0.0
C508 C 0.92161 0.59803 0.26731 0.0
C509 C 0.95852 0.66829 0.31044 0.0
C510 C 0.96066 0.56801 0.27612 0.0
C511 C -0.0027 0.5868 0.30127 0.0
H512 H 0.07746 0.93053 0.70365 0.0
H513 H 0.28383 0.09879 0.6939 0.0
H514 H 0.28071 0.07606 0.6433 0.0
H515 H 0.21834 0.00953 0.60142 0.0
H516 H 0.01148 0.84185 0.61106 0.0
H517 H 0.01561 0.86316 0.66185 0.0
C518 C 0.12158 0.96231 0.69039 0.0
C519 C 0.181 0.01593 0.7026 0.0
C520 C 0.11924 0.94914 0.6612 0.0
C521 C 0.23799 0.05632 0.68516 0.0
C522 C 0.23603 0.04373 0.65615 0.0
C523 C 0.17406 0.97798 0.61464 0.0
C524 C 0.11461 0.92436 0.60242 0.0
C525 C 0.17682 0.99044 0.6439 0.0
C526 C 0.05806 0.88314 0.61993 0.0
C527 C 0.06026 0.89548 0.64898 0.0
loop_
_geom_bond_atom_site_label_1
_geom_bond_atom_site_label_2
_geom_bond_distance
_geom_bond_site_symmetry_2
_ccdc_geom_bond_type
Pr0 C2 2.880 . S
Pr0 O20 2.562 . S
Pr0 O21 2.490 . S
Pr0 O22 2.695 . S
Pr0 O23 2.512 . S
Pr0 O25 2.437 . S
Pr0 O28 2.436 . S
Pr0 O30 2.438 . S
Pr1 C11 2.880 . S
Pr1 O22 2.436 . S
Pr1 O24 2.438 . S
Pr1 O26 2.562 . S
Pr1 O27 2.490 . S
Pr1 O28 2.695 . S
Pr1 O29 2.512 . S
Pr1 O31 2.437 . S
C2 Pr0 2.880 . S
C2 C3 1.491 1_554 S
C2 O20 1.254 . S
C2 O21 1.225 . S
C3 C2 1.491 1_556 S
C3 C4 1.392 . S
C3 C8 1.356 . S
C4 C3 1.392 . S
C4 C5 1.368 . S
C4 H32 0.929 . S
C5 C4 1.368 . S
C5 C6 1.386 . S
C5 H33 0.929 . S
C6 C5 1.386 . S
C6 C7 1.373 . S
C7 C6 1.373 . S
C7 C8 1.409 . S
C7 H34 0.931 . S
C8 C3 1.356 . S
C8 C7 1.409 . S
C8 H35 0.930 . S
C9 O22 1.270 . S
C9 O23 1.248 . S
C10 O24 1.267 . S
C10 O25 1.278 . S
C11 Pr1 2.880 . S
C11 C12 1.491 . S
C11 O26 1.254 . S
C11 O27 1.225 . S
C12 C11 1.491 . S
C12 C13 1.392 . S
C12 C17 1.356 . S
C13 C12 1.392 . S
C13 C14 1.368 . S
C13 H36 0.929 . S
C14 C13 1.368 . S
C14 C15 1.386 . S
C14 H37 0.929 . S
C15 C14 1.386 . S
C15 C16 1.373 . S
C16 C15 1.373 . S
C16 C17 1.409 . S
C16 H38 0.931 . S
C17 C12 1.356 . S
C17 C16 1.409 . S
C17 H39 0.930 . S
C18 O28 1.270 . S
C18 O29 1.248 . S
C19 O30 1.267 . S
C19 O31 1.278 . S
O20 Pr0 2.562 . S
O20 C2 1.254 . S
O21 Pr0 2.490 . S
O21 C2 1.225 . S
O22 Pr0 2.695 . S
O22 Pr1 2.436 . S
O22 C9 1.270 . S
O23 Pr0 2.512 . S
O23 C9 1.248 . S
O24 Pr1 2.438 . S
O24 C10 1.267 . S
O25 Pr0 2.437 . S
O25 C10 1.278 . S
O26 Pr1 2.562 . S
O26 C11 1.254 . S
O27 Pr1 2.490 . S
O27 C11 1.225 . S
O28 Pr0 2.436 . S
O28 Pr1 2.695 . S
O28 C18 1.270 . S
O29 Pr1 2.512 . S
O29 C18 1.248 . S
O30 Pr0 2.438 . S
O30 C19 1.267 . S
O31 Pr1 2.437 . S
O31 C19 1.278 . S
H32 C4 0.929 . S
H33 C5 0.929 . S
H34 C7 0.931 . S
H35 C8 0.930 . S
H36 C13 0.929 . S
H37 C14 0.929 . S
H38 C16 0.931 . S
H39 C17 0.930 . S
Pr40 C42 2.880 . S
Pr40 O60 2.562 . S
Pr40 O61 2.490 . S
Pr40 O62 2.695 . S
Pr40 O63 2.512 . S
Pr40 O65 2.437 . S
Pr40 O68 2.436 . S
Pr40 O70 2.438 . S
Pr41 C51 2.880 . S
Pr41 O62 2.436 . S
Pr41 O64 2.438 . S
Pr41 O66 2.562 . S
Pr41 O67 2.490 1_545 S
Pr41 O68 2.695 . S
Pr41 O69 2.512 1_545 S
Pr41 O71 2.437 . S
C42 Pr40 2.880 . S
C42 C43 1.491 . S
C42 O60 1.254 . S
C42 O61 1.225 . S
C43 C42 1.491 . S
C43 C44 1.392 . S
C43 C48 1.356 . S
C44 C43 1.392 . S
C44 C45 1.368 . S
C44 H72 0.929 . S
C45 C44 1.368 . S
C45 C46 1.386 . S
C45 H73 0.929 . S
C46 C45 1.386 . S
C46 C47 1.373 . S
C47 C46 1.373 . S
C47 C48 1.409 . S
C47 H74 0.931 . S
C48 C43 1.356 . S
C48 C47 1.409 . S
C48 H75 0.930 . S
C49 O62 1.270 . S
C49 O63 1.248 . S
C50 O64 1.267 . S
C50 O65 1.278 . S
C51 Pr41 2.880 . S
C51 C52 1.491 . S
C51 O66 1.254 . S
C51 O67 1.225 1_545 S
C52 C51 1.491 . S
C52 C53 1.392 1_545 S
C52 C57 1.356 . S
C53 C52 1.392 1_565 S
C53 C54 1.368 . S
C53 H76 0.929 . S
C54 C53 1.368 . S
C54 C55 1.386 1_565 S
C54 H77 0.929 . S
C55 C54 1.386 1_545 S
C55 C56 1.373 . S
C56 C55 1.373 . S
C56 C57 1.409 . S
C56 H78 0.931 . S
C57 C52 1.356 . S
C57 C56 1.409 . S
C57 H79 0.930 . S
C58 O68 1.270 1_565 S
C58 O69 1.248 . S
C59 O70 1.267 . S
C59 O71 1.278 . S
O60 Pr40 2.562 . S
O60 C42 1.254 . S
O61 Pr40 2.490 . S
O61 C42 1.225 . S
O62 Pr40 2.695 . S
O62 Pr41 2.436 . S
O62 C49 1.270 . S
O63 Pr40 2.512 . S
O63 C49 1.248 . S
O64 Pr41 2.438 . S
O64 C50 1.267 . S
O65 Pr40 2.437 . S
O65 C50 1.278 . S
O66 Pr41 2.562 . S
O66 C51 1.254 . S
O67 Pr41 2.490 1_565 S
O67 C51 1.225 1_565 S
O68 Pr40 2.436 . S
O68 Pr41 2.695 . S
O68 C58 1.270 1_545 S
O69 Pr41 2.512 1_565 S
O69 C58 1.248 . S
O70 Pr40 2.438 . S
O70 C59 1.267 . S
O71 Pr41 2.437 . S
O71 C59 1.278 . S
H72 C44 0.929 . S
H73 C45 0.929 . S
H74 C47 0.931 . S
H75 C48 0.930 . S
H76 C53 0.929 . S
H77 C54 0.929 . S
H78 C56 0.931 . S
H79 C57 0.930 . S
Pr80 C82 2.880 . S
Pr80 O100 2.562 . S
Pr80 O101 2.490 . S
Pr80 O102 2.695 . S
Pr80 O103 2.512 . S
Pr80 O105 2.437 . S
Pr80 O108 2.436 . S
Pr80 O110 2.438 . S
Pr81 C91 2.880 . S
Pr81 O102 2.436 . S
Pr81 O104 2.438 . S
Pr81 O106 2.562 . S
Pr81 O107 2.490 . S
Pr81 O108 2.695 . S
Pr81 O109 2.512 1_565 S
Pr81 O111 2.437 . S
C82 Pr80 2.880 . S
C82 C83 1.491 . S
C82 O100 1.254 . S
C82 O101 1.225 . S
C83 C82 1.491 . S
C83 C84 1.392 . S
C83 C88 1.356 . S
C84 C83 1.392 . S
C84 C85 1.368 . S
C84 H112 0.929 . S
C85 C84 1.368 . S
C85 C86 1.386 . S
C85 H113 0.929 . S
C86 C85 1.386 . S
C86 C87 1.373 . S
C87 C86 1.373 . S
C87 C88 1.409 . S
C87 H114 0.931 . S
C88 C83 1.356 . S
C88 C87 1.409 . S
C88 H115 0.930 . S
C89 O102 1.270 . S
C89 O103 1.248 . S
C90 O104 1.267 . S
C90 O105 1.278 . S
C91 Pr81 2.880 . S
C91 C92 1.491 . S
C91 O106 1.254 . S
C91 O107 1.225 . S
C92 C91 1.491 . S
C92 C93 1.392 . S
C92 C97 1.356 . S
C93 C92 1.392 . S
C93 C94 1.368 . S
C93 H116 0.929 1_565 S
C94 C93 1.368 . S
C94 C95 1.386 . S
C94 H117 0.929 1_565 S
C95 C94 1.386 . S
C95 C96 1.373 . S
C96 C95 1.373 . S
C96 C97 1.409 . S
C96 H118 0.931 . S
C97 C92 1.356 . S
C97 C96 1.409 . S
C97 H119 0.930 . S
C98 O108 1.270 1_545 S
C98 O109 1.248 . S
C99 O110 1.267 . S
C99 O111 1.278 . S
O100 Pr80 2.562 . S
O100 C82 1.254 . S
O101 Pr80 2.490 . S
O101 C82 1.225 . S
O102 Pr80 2.695 . S
O102 Pr81 2.436 . S
O102 C89 1.270 . S
O103 Pr80 2.512 . S
O103 C89 1.248 . S
O104 Pr81 2.438 . S
O104 C90 1.267 . S
O105 Pr80 2.437 . S
O105 C90 1.278 . S
O106 Pr81 2.562 . S
O106 C91 1.254 . S
O107 Pr81 2.490 . S
O107 C91 1.225 . S
O108 Pr80 2.436 . S
O108 Pr81 2.695 . S
O108 C98 1.270 1_565 S
O109 Pr81 2.512 1_545 S
O109 C98 1.248 . S
O110 Pr80 2.438 . S
O110 C99 1.267 . S
O111 Pr81 2.437 . S
O111 C99 1.278 . S
H112 C84 0.929 . S
H113 C85 0.929 . S
H114 C87 0.931 . S
H115 C88 0.930 . S
H116 C93 0.929 1_545 S
H117 C94 0.929 1_545 S
H118 C96 0.931 . S
H119 C97 0.930 . S
Pr120 C122 2.880 . S
Pr120 O140 2.562 . S
Pr120 O141 2.490 . S
Pr120 O142 2.695 . S
Pr120 O143 2.512 . S
Pr120 O145 2.437 . S
Pr120 O148 2.436 . S
Pr120 O150 2.438 . S
Pr121 C131 2.880 . S
Pr121 O142 2.436 . S
Pr121 O144 2.438 . S
Pr121 O146 2.562 . S
Pr121 O147 2.490 . S
Pr121 O148 2.695 . S
Pr121 O149 2.512 1_655 S
Pr121 O151 2.437 . S
C122 Pr120 2.880 . S
C122 C123 1.491 . S
C122 O140 1.254 . S
C122 O141 1.225 . S
C123 C122 1.491 . S
C123 C124 1.392 . S
C123 C128 1.356 . S
C124 C123 1.392 . S
C124 C125 1.368 . S
C124 H152 0.929 . S
C125 C124 1.368 . S
C125 C126 1.386 . S
C125 H153 0.929 . S
C126 C125 1.386 . S
C126 C127 1.373 . S
C127 C126 1.373 . S
C127 C128 1.409 . S
C127 H154 0.931 . S
C128 C123 1.356 . S
C128 C127 1.409 . S
C128 H155 0.930 . S
C129 O142 1.270 . S
C129 O143 1.248 . S
C130 O144 1.267 . S
C130 O145 1.278 . S
C131 Pr121 2.880 . S
C131 C132 1.491 . S
C131 O146 1.254 . S
C131 O147 1.225 . S
C132 C131 1.491 . S
C132 C133 1.392 . S
C132 C137 1.356 . S
C133 C132 1.392 . S
C133 C134 1.368 . S
C133 H156 0.929 1_655 S
C134 C133 1.368 . S
C134 C135 1.386 . S
C134 H157 0.929 1_655 S
C135 C134 1.386 . S
C135 C136 1.373 . S
C136 C135 1.373 . S
C136 C137 1.409 . S
C136 H158 0.931 . S
C137 C132 1.356 . S
C137 C136 1.409 . S
C137 H159 0.930 . S
C138 O148 1.270 1_455 S
C138 O149 1.248 . S
C139 O150 1.267 . S
C139 O151 1.278 . S
O140 Pr120 2.562 . S
O140 C122 1.254 . S
O141 Pr120 2.490 . S
O141 C122 1.225 . S
O142 Pr120 2.695 . S
O142 Pr121 2.436 . S
O142 C129 1.270 . S
O143 Pr120 2.512 . S
O143 C129 1.248 . S
O144 Pr121 2.438 . S
O144 C130 1.267 . S
O145 Pr120 2.437 . S
O145 C130 1.278 . S
O146 Pr121 2.562 . S
O146 C131 1.254 . S
O147 Pr121 2.490 . S
O147 C131 1.225 . S
O148 Pr120 2.436 . S
O148 Pr121 2.695 . S
O148 C138 1.270 1_655 S
O149 Pr121 2.512 1_455 S
O149 C138 1.248 . S
O150 Pr120 2.438 . S
O150 C139 1.267 . S
O151 Pr121 2.437 . S
O151 C139 1.278 . S
H152 C124 0.929 . S
H153 C125 0.929 . S
H154 C127 0.931 . S
H155 C128 0.930 . S
H156 C133 0.929 1_455 S
H157 C134 0.929 1_455 S
H158 C136 0.931 . S
H159 C137 0.930 . S
Pr160 C162 2.880 . S
Pr160 O180 2.562 . S
Pr160 O181 2.490 . S
Pr160 O182 2.695 . S
Pr160 O183 2.512 . S
Pr160 O185 2.437 . S
Pr160 O188 2.436 . S
Pr160 O190 2.438 . S
Pr161 C171 2.880 . S
Pr161 O182 2.436 . S
Pr161 O184 2.438 . S
Pr161 O186 2.562 . S
Pr161 O187 2.490 1_455 S
Pr161 O188 2.695 . S
Pr161 O189 2.512 1_455 S
Pr161 O191 2.437 . S
C162 Pr160 2.880 . S
C162 C163 1.491 . S
C162 O180 1.254 . S
C162 O181 1.225 . S
C163 C162 1.491 . S
C163 C164 1.392 . S
C163 C168 1.356 . S
C164 C163 1.392 . S
C164 C165 1.368 . S
C164 H192 0.929 . S
C165 C164 1.368 . S
C165 C166 1.386 . S
C165 H193 0.929 . S
C166 C165 1.386 . S
C166 C167 1.373 . S
C167 C166 1.373 . S
C167 C168 1.409 . S
C167 H194 0.931 . S
C168 C163 1.356 . S
C168 C167 1.409 . S
C168 H195 0.930 . S
C169 O182 1.270 . S
C169 O183 1.248 . S
C170 O184 1.267 . S
C170 O185 1.278 . S
C171 Pr161 2.880 . S
C171 C172 1.491 . S
C171 O186 1.254 . S
C171 O187 1.225 1_455 S
C172 C171 1.491 . S
C172 C173 1.392 1_455 S
C172 C177 1.356 . S
C173 C172 1.392 1_655 S
C173 C174 1.368 . S
C173 H196 0.929 . S
C174 C173 1.368 . S
C174 C175 1.386 1_655 S
C174 H197 0.929 . S
C175 C174 1.386 1_455 S
C175 C176 1.373 . S
C176 C175 1.373 . S
C176 C177 1.409 . S
C176 H198 0.931 . S
C177 C172 1.356 . S
C177 C176 1.409 . S
C177 H199 0.930 . S
C178 O188 1.270 1_655 S
C178 O189 1.248 . S
C179 O190 1.267 . S
C179 O191 1.278 . S
O180 Pr160 2.562 . S
O180 C162 1.254 . S
O181 Pr160 2.490 . S
O181 C162 1.225 . S
O182 Pr160 2.695 . S
O182 Pr161 2.436 . S
O182 C169 1.270 . S
O183 Pr160 2.512 . S
O183 C169 1.248 . S
O184 Pr161 2.438 . S
O184 C170 1.267 . S
O185 Pr160 2.437 . S
O185 C170 1.278 . S
O186 Pr161 2.562 . S
O186 C171 1.254 . S
O187 Pr161 2.490 1_655 S
O187 C171 1.225 1_655 S
O188 Pr160 2.436 . S
O188 Pr161 2.695 . S
O188 C178 1.270 1_455 S
O189 Pr161 2.512 1_655 S
O189 C178 1.248 . S
O190 Pr160 2.438 . S
O190 C179 1.267 . S
O191 Pr161 2.437 . S
O191 C179 1.278 . S
H192 C164 0.929 . S
H193 C165 0.929 . S
H194 C167 0.931 . S
H195 C168 0.930 . S
H196 C173 0.929 . S
H197 C174 0.929 . S
H198 C176 0.931 . S
H199 C177 0.930 . S
Pr200 C202 2.880 . S
Pr200 O220 2.562 . S
Pr200 O221 2.490 . S
Pr200 O222 2.695 . S
Pr200 O223 2.512 . S
Pr200 O225 2.437 . S
Pr200 O228 2.436 . S
Pr200 O230 2.438 . S
Pr201 C211 2.880 . S
Pr201 O222 2.436 . S
Pr201 O224 2.438 . S
Pr201 O226 2.562 . S
Pr201 O227 2.490 . S
Pr201 O228 2.695 . S
Pr201 O229 2.512 . S
Pr201 O231 2.437 . S
C202 Pr200 2.880 . S
C202 C203 1.491 . S
C202 O220 1.254 . S
C202 O221 1.225 . S
C203 C202 1.491 . S
C203 C204 1.392 . S
C203 C208 1.356 . S
C204 C203 1.392 . S
C204 C205 1.368 . S
C204 H232 0.929 . S
C205 C204 1.368 . S
C205 C206 1.386 . S
C205 H233 0.929 . S
C206 C205 1.386 . S
C206 C207 1.373 . S
C207 C206 1.373 . S
C207 C208 1.409 . S
C207 H234 0.931 . S
C208 C203 1.356 . S
C208 C207 1.409 . S
C208 H235 0.930 . S
C209 O222 1.270 . S
C209 O223 1.248 . S
C210 O224 1.267 . S
C210 O225 1.278 . S
C211 Pr201 2.880 . S
C211 C212 1.491 . S
C211 O226 1.254 . S
C211 O227 1.225 . S
C212 C211 1.491 . S
C212 C213 1.392 . S
C212 C217 1.356 . S
C213 C212 1.392 . S
C213 C214 1.368 . S
C213 H236 0.929 . S
C214 C213 1.368 . S
C214 C215 1.386 . S
C214 H237 0.929 . S
C215 C214 1.386 . S
C215 C216 1.373 . S
C216 C215 1.373 . S
C216 C217 1.409 . S
C216 H238 0.931 . S
C217 C212 1.356 . S
C217 C216 1.409 . S
C217 H239 0.930 . S
C218 O228 1.270 . S
C218 O229 1.248 . S
C219 O230 1.267 . S
C219 O231 1.278 . S
O220 Pr200 2.562 . S
O220 C202 1.254 . S
O221 Pr200 2.490 . S
O221 C202 1.225 . S
O222 Pr200 2.695 . S
O222 Pr201 2.436 . S
O222 C209 1.270 . S
O223 Pr200 2.512 . S
O223 C209 1.248 . S
O224 Pr201 2.438 . S
O224 C210 1.267 . S
O225 Pr200 2.437 . S
O225 C210 1.278 . S
O226 Pr201 2.562 . S
O226 C211 1.254 . S
O227 Pr201 2.490 . S
O227 C211 1.225 . S
O228 Pr200 2.436 . S
O228 Pr201 2.695 . S
O228 C218 1.270 . S
O229 Pr201 2.512 . S
O229 C218 1.248 . S
O230 Pr200 2.438 . S
O230 C219 1.267 . S
O231 Pr201 2.437 . S
O231 C219 1.278 . S
H232 C204 0.929 . S
H233 C205 0.929 . S
H234 C207 0.931 . S
H235 C208 0.930 . S
H236 C213 0.929 . S
H237 C214 0.929 . S
H238 C216 0.931 . S
H239 C217 0.930 . S
H240 C246 0.930 . S
H241 C249 0.930 . S
H242 C250 0.930 . S
H243 C251 0.930 . S
H244 C254 0.930 . S
H245 C255 0.930 . S
C246 H240 0.930 . S
C246 C247 1.355 . S
C246 C248 1.415 . S
C247 C246 1.355 . S
C247 C249 1.419 . S
C248 C246 1.415 . S
C248 C253 1.425 . S
C248 C255 1.409 . S
C249 H241 0.930 . S
C249 C247 1.419 . S
C249 C250 1.362 . S
C250 H242 0.930 . S
C250 C249 1.362 . S
C250 C253 1.409 . S
C251 H243 0.930 . S
C251 C252 1.355 . S
C251 C253 1.415 . S
C252 C251 1.355 . S
C252 C254 1.419 . S
C253 C248 1.425 . S
C253 C250 1.409 . S
C253 C251 1.415 . S
C254 H244 0.930 . S
C254 C252 1.419 . S
C254 C255 1.362 . S
C255 H245 0.930 . S
C255 C248 1.409 . S
C255 C254 1.362 . S
H256 C262 0.930 . S
H257 C265 0.930 . S
H258 C266 0.930 . S
H259 C267 0.930 . S
H260 C270 0.930 . S
H261 C271 0.930 . S
C262 H256 0.930 . S
C262 C263 1.355 . S
C262 C264 1.415 . S
C263 C262 1.355 . S
C263 C265 1.419 . S
C264 C262 1.415 . S
C264 C269 1.425 . S
C264 C271 1.409 . S
C265 H257 0.930 . S
C265 C263 1.419 . S
C265 C266 1.362 . S
C266 H258 0.930 . S
C266 C265 1.362 . S
C266 C269 1.409 . S
C267 H259 0.930 . S
C267 C268 1.355 . S
C267 C269 1.415 . S
C268 C267 1.355 . S
C268 C270 1.419 . S
C269 C264 1.425 . S
C269 C266 1.409 . S
C269 C267 1.415 . S
C270 H260 0.930 . S
C270 C268 1.419 . S
C270 C271 1.362 . S
C271 H261 0.930 . S
C271 C264 1.409 . S
C271 C270 1.362 . S
H272 C278 0.930 . S
H273 C281 0.930 . S
H274 C282 0.930 . S
H275 C283 0.930 . S
H276 C286 0.930 . S
H277 C287 0.930 . S
C278 H272 0.930 . S
C278 C279 1.355 . S
C278 C280 1.415 . S
C279 C278 1.355 . S
C279 C281 1.419 . S
C280 C278 1.415 . S
C280 C285 1.425 . S
C280 C287 1.409 . S
C281 H273 0.930 . S
C281 C279 1.419 . S
C281 C282 1.362 . S
C282 H274 0.930 . S
C282 C281 1.362 . S
C282 C285 1.409 . S
C283 H275 0.930 . S
C283 C284 1.355 . S
C283 C285 1.415 . S
C284 C283 1.355 . S
C284 C286 1.419 . S
C285 C280 1.425 . S
C285 C282 1.409 . S
C285 C283 1.415 . S
C286 H276 0.930 . S
C286 C284 1.419 . S
C286 C287 1.362 . S
C287 H277 0.930 . S
C287 C280 1.409 . S
C287 C286 1.362 . S
H288 C294 0.930 . S
H289 C297 0.930 . S
H290 C298 0.930 . S
H291 C299 0.930 . S
H292 C302 0.930 . S
H293 C303 0.930 . S
C294 H288 0.930 . S
C294 C295 1.355 . S
C294 C296 1.415 . S
C295 C294 1.355 . S
C295 C297 1.419 . S
C296 C294 1.415 . S
C296 C301 1.425 . S
C296 C303 1.409 . S
C297 H289 0.930 . S
C297 C295 1.419 . S
C297 C298 1.362 . S
C298 H290 0.930 . S
C298 C297 1.362 . S
C298 C301 1.409 . S
C299 H291 0.930 . S
C299 C300 1.355 . S
C299 C301 1.415 . S
C300 C299 1.355 . S
C300 C302 1.419 . S
C301 C296 1.425 . S
C301 C298 1.409 . S
C301 C299 1.415 . S
C302 H292 0.930 . S
C302 C300 1.419 . S
C302 C303 1.362 . S
C303 H293 0.930 . S
C303 C296 1.409 . S
C303 C302 1.362 . S
H304 C310 0.930 . S
H305 C313 0.930 . S
H306 C314 0.930 . S
H307 C315 0.930 . S
H308 C318 0.930 . S
H309 C319 0.930 . S
C310 H304 0.930 . S
C310 C311 1.355 . S
C310 C312 1.415 . S
C311 C310 1.355 . S
C311 C313 1.419 . S
C312 C310 1.415 . S
C312 C317 1.425 . S
C312 C319 1.409 . S
C313 H305 0.930 . S
C313 C311 1.419 . S
C313 C314 1.362 . S
C314 H306 0.930 . S
C314 C313 1.362 . S
C314 C317 1.409 . S
C315 H307 0.930 . S
C315 C316 1.355 . S
C315 C317 1.415 . S
C316 C315 1.355 . S
C316 C318 1.419 . S
C317 C312 1.425 . S
C317 C314 1.409 . S
C317 C315 1.415 . S
C318 H308 0.930 . S
C318 C316 1.419 . S
C318 C319 1.362 . S
C319 H309 0.930 . S
C319 C312 1.409 . S
C319 C318 1.362 . S
H320 C326 0.930 . S
H321 C329 0.930 . S
H322 C330 0.930 . S
H323 C331 0.930 1_556 S
H324 C334 0.930 . S
H325 C335 0.930 . S
C326 H320 0.930 . S
C326 C327 1.355 . S
C326 C328 1.415 . S
C327 C326 1.355 . S
C327 C329 1.419 . S
C328 C326 1.415 . S
C328 C333 1.425 . S
C328 C335 1.409 . S
C329 H321 0.930 . S
C329 C327 1.419 . S
C329 C330 1.362 . S
C330 H322 0.930 . S
C330 C329 1.362 . S
C330 C333 1.409 . S
C331 H323 0.930 1_554 S
C331 C332 1.355 1_554 S
C331 C333 1.415 . S
C332 C331 1.355 1_556 S
C332 C334 1.419 1_556 S
C333 C328 1.425 . S
C333 C330 1.409 . S
C333 C331 1.415 . S
C334 H324 0.930 . S
C334 C332 1.419 1_554 S
C334 C335 1.362 . S
C335 H325 0.930 . S
C335 C328 1.409 . S
C335 C334 1.362 . S
H336 C342 0.930 . S
H337 C345 0.930 . S
H338 C346 0.930 . S
H339 C347 0.930 . S
H340 C350 0.930 . S
H341 C351 0.930 . S
C342 H336 0.930 . S
C342 C343 1.355 . S
C342 C344 1.415 . S
C343 C342 1.355 . S
C343 C345 1.419 . S
C344 C342 1.415 . S
C344 C349 1.425 . S
C344 C351 1.409 . S
C345 H337 0.930 . S
C345 C343 1.419 . S
C345 C346 1.362 . S
C346 H338 0.930 . S
C346 C345 1.362 . S
C346 C349 1.409 . S
C347 H339 0.930 . S
C347 C348 1.355 . S
C347 C349 1.415 . S
C348 C347 1.355 . S
C348 C350 1.419 . S
C349 C344 1.425 . S
C349 C346 1.409 . S
C349 C347 1.415 . S
C350 H340 0.930 . S
C350 C348 1.419 . S
C350 C351 1.362 . S
C351 H341 0.930 . S
C351 C344 1.409 . S
C351 C350 1.362 . S
H352 C358 0.930 1_455 S
H353 C361 0.930 . S
H354 C362 0.930 . S
H355 C363 0.930 . S
H356 C366 0.930 . S
H357 C367 0.930 1_455 S
C358 H352 0.930 1_655 S
C358 C359 1.355 . S
C358 C360 1.415 . S
C359 C358 1.355 . S
C359 C361 1.419 . S
C360 C358 1.415 . S
C360 C365 1.425 . S
C360 C367 1.409 . S
C361 H353 0.930 . S
C361 C359 1.419 . S
C361 C362 1.362 . S
C362 H354 0.930 . S
C362 C361 1.362 . S
C362 C365 1.409 . S
C363 H355 0.930 . S
C363 C364 1.355 . S
C363 C365 1.415 . S
C364 C363 1.355 . S
C364 C366 1.419 . S
C365 C360 1.425 . S
C365 C362 1.409 . S
C365 C363 1.415 . S
C366 H356 0.930 . S
C366 C364 1.419 . S
C366 C367 1.362 . S
C367 H357 0.930 1_655 S
C367 C360 1.409 . S
C367 C366 1.362 . S
H368 C374 0.930 . S
H369 C377 0.930 . S
H370 C378 0.930 . S
H371 C379 0.930 . S
H372 C382 0.930 1_565 S
H373 C383 0.930 . S
C374 H368 0.930 . S
C374 C375 1.355 . S
C374 C376 1.415 . S
C375 C374 1.355 . S
C375 C377 1.419 . S
C376 C374 1.415 . S
C376 C381 1.425 . S
C376 C383 1.409 . S
C377 H369 0.930 . S
C377 C375 1.419 . S
C377 C378 1.362 . S
C378 H370 0.930 . S
C378 C377 1.362 . S
C378 C381 1.409 . S
C379 H371 0.930 . S
C379 C380 1.355 . S
C379 C381 1.415 . S
C380 C379 1.355 . S
C380 C382 1.419 . S
C381 C376 1.425 . S
C381 C378 1.409 . S
C381 C379 1.415 . S
C382 H372 0.930 1_545 S
C382 C380 1.419 . S
C382 C383 1.362 . S
C383 H373 0.930 . S
C383 C376 1.409 . S
C383 C382 1.362 . S
H384 C390 0.930 . S
H385 C393 0.930 . S
H386 C394 0.930 . S
H387 C395 0.930 . S
H388 C398 0.930 . S
H389 C399 0.930 . S
C390 H384 0.930 . S
C390 C391 1.355 . S
C390 C392 1.415 . S
C391 C390 1.355 . S
C391 C393 1.419 . S
C392 C390 1.415 . S
C392 C397 1.425 . S
C392 C399 1.409 . S
C393 H385 0.930 . S
C393 C391 1.419 . S
C393 C394 1.362 . S
C394 H386 0.930 . S
C394 C393 1.362 . S
C394 C397 1.409 . S
C395 H387 0.930 . S
C395 C396 1.355 . S
C395 C397 1.415 . S
C396 C395 1.355 . S
C396 C398 1.419 . S
C397 C392 1.425 . S
C397 C394 1.409 . S
C397 C395 1.415 . S
C398 H388 0.930 . S
C398 C396 1.419 . S
C398 C399 1.362 . S
C399 H389 0.930 . S
C399 C392 1.409 . S
C399 C398 1.362 . S
H400 C406 0.930 . S
H401 C409 0.930 . S
H402 C410 0.930 . S
H403 C411 0.930 . S
H404 C414 0.930 . S
H405 C415 0.930 . S
C406 H400 0.930 . S
C406 C407 1.355 . S
C406 C408 1.415 . S
C407 C406 1.355 . S
C407 C409 1.419 . S
C408 C406 1.415 . S
C408 C413 1.425 . S
C408 C415 1.409 . S
C409 H401 0.930 . S
C409 C407 1.419 . S
C409 C410 1.362 . S
C410 H402 0.930 . S
C410 C409 1.362 . S
C410 C413 1.409 . S
C411 H403 0.930 . S
C411 C412 1.355 . S
C411 C413 1.415 . S
C412 C411 1.355 . S
C412 C414 1.419 . S
C413 C408 1.425 . S
C413 C410 1.409 . S
C413 C411 1.415 . S
C414 H404 0.930 . S
C414 C412 1.419 . S
C414 C415 1.362 . S
C415 H405 0.930 . S
C415 C408 1.409 . S
C415 C414 1.362 . S
H416 C422 0.930 . S
H417 C425 0.930 . S
H418 C426 0.930 . S
H419 C427 0.930 . S
H420 C430 0.930 . S
H421 C431 0.930 . S
C422 H416 0.930 . S
C422 C423 1.355 . S
C422 C424 1.415 . S
C423 C422 1.355 . S
C423 C425 1.419 . S
C424 C422 1.415 . S
C424 C429 1.425 . S
C424 C431 1.409 . S
C425 H417 0.930 . S
C425 C423 1.419 . S
C425 C426 1.362 . S
C426 H418 0.930 . S
C426 C425 1.362 . S
C426 C429 1.409 . S
C427 H419 0.930 . S
C427 C428 1.355 . S
C427 C429 1.415 . S
C428 C427 1.355 . S
C428 C430 1.419 . S
C429 C424 1.425 . S
C429 C426 1.409 . S
C429 C427 1.415 . S
C430 H420 0.930 . S
C430 C428 1.419 . S
C430 C431 1.362 . S
C431 H421 0.930 . S
C431 C424 1.409 . S
C431 C430 1.362 . S
H432 C438 0.930 . S
H433 C441 0.930 . S
H434 C442 0.930 . S
H435 C443 0.949 . S
H436 C446 0.912 1_554 S
H437 C447 0.930 . S
C438 H432 0.930 . S
C438 C439 1.355 . S
C438 C440 1.415 . S
C439 C438 1.355 . S
C439 C441 1.419 . S
C440 C438 1.415 . S
C440 C445 1.425 . S
C440 C447 1.409 . S
C441 H433 0.930 . S
C441 C439 1.419 . S
C441 C442 1.362 . S
C442 H434 0.930 . S
C442 C441 1.362 . S
C442 C445 1.409 . S
C443 H435 0.949 . S
C443 C444 1.355 1_556 S
C443 C445 1.415 . S
C444 C443 1.355 1_554 S
C444 C446 1.419 1_554 S
C445 C440 1.425 . S
C445 C442 1.409 . S
C445 C443 1.415 . S
C446 H436 0.912 1_556 S
C446 C444 1.419 1_556 S
C446 C447 1.362 . S
C447 H437 0.930 . S
C447 C440 1.409 . S
C447 C446 1.362 . S
H448 C454 0.930 . S
H449 C457 0.931 . S
H450 C458 0.930 . S
H451 C459 0.930 1_655 S
H452 C462 0.930 . S
H453 C463 0.930 . S
C454 H448 0.930 . S
C454 C455 1.355 . S
C454 C456 1.415 1_655 S
C455 C454 1.355 . S
C455 C457 1.419 . S
C456 C454 1.415 1_455 S
C456 C461 1.425 1_455 S
C456 C463 1.409 . S
C457 H449 0.931 . S
C457 C455 1.419 . S
C457 C458 1.362 . S
C458 H450 0.930 . S
C458 C457 1.362 . S
C458 C461 1.409 . S
C459 H451 0.930 1_455 S
C459 C460 1.355 . S
C459 C461 1.415 1_455 S
C460 C459 1.355 . S
C460 C462 1.419 . S
C461 C456 1.425 1_655 S
C461 C458 1.409 . S
C461 C459 1.415 1_655 S
C462 H452 0.930 . S
C462 C460 1.419 . S
C462 C463 1.362 . S
C463 H453 0.930 . S
C463 C456 1.409 . S
C463 C462 1.362 . S
H464 C470 0.930 . S
H465 C473 0.930 . S
H466 C474 0.930 . S
H467 C475 0.930 . S
H468 C478 0.930 . S
H469 C479 0.930 . S
C470 H464 0.930 . S
C470 C471 1.355 1_545 S
C470 C472 1.415 . S
C471 C470 1.355 1_565 S
C471 C473 1.419 . S
C472 C470 1.415 . S
C472 C477 1.425 1_545 S
C472 C479 1.409 . S
C473 H465 0.930 . S
C473 C471 1.419 . S
C473 C474 1.362 . S
C474 H466 0.930 . S
C474 C473 1.362 . S
C474 C477 1.409 . S
C475 H467 0.930 . S
C475 C476 1.355 1_565 S
C475 C477 1.415 . S
C476 C475 1.355 1_545 S
C476 C478 1.419 . S
C477 C472 1.425 1_565 S
C477 C474 1.409 . S
C477 C475 1.415 . S
C478 H468 0.930 . S
C478 C476 1.419 . S
C478 C479 1.362 . S
C479 H469 0.930 . S
C479 C472 1.409 . S
C479 C478 1.362 . S
H480 C486 0.930 . S
H481 C489 0.930 . S
H482 C490 0.930 . S
H483 C491 0.930 . S
H484 C494 0.932 . S
H485 C495 0.930 . S
C486 H480 0.930 . S
C486 C487 1.355 . S
C486 C488 1.415 . S
C487 C486 1.355 . S
C487 C489 1.419 . S
C488 C486 1.415 . S
C488 C493 1.425 . S
C488 C495 1.409 . S
C489 H481 0.930 . S
C489 C487 1.419 . S
C489 C490 1.362 . S
C490 H482 0.930 . S
C490 C489 1.362 . S
C490 C493 1.409 . S
C491 H483 0.930 . S
C491 C492 1.355 . S
C491 C493 1.415 . S
C492 C491 1.355 . S
C492 C494 1.419 1_556 S
C493 C488 1.425 . S
C493 C490 1.409 . S
C493 C491 1.415 . S
C494 H484 0.932 . S
C494 C492 1.419 1_554 S
C494 C495 1.360 1_554 S
C495 H485 0.930 . S
C495 C488 1.409 . S
C495 C494 1.360 1_556 S
H496 C502 0.930 . S
H497 C505 0.930 . S
H498 C506 0.930 . S
H499 C507 0.930 . S
H500 C510 0.930 . S
H501 C511 0.930 . S
C502 H496 0.930 . S
C502 C503 1.355 . S
C502 C504 1.415 . S
C503 C502 1.355 . S
C503 C505 1.419 1_455 S
C504 C502 1.415 . S
C504 C509 1.425 1_455 S
C504 C511 1.409 . S
C505 H497 0.930 . S
C505 C503 1.419 1_655 S
C505 C506 1.362 . S
C506 H498 0.930 . S
C506 C505 1.362 . S
C506 C509 1.409 . S
C507 H499 0.930 . S
C507 C508 1.355 . S
C507 C509 1.415 . S
C508 C507 1.355 . S
C508 C510 1.419 1_655 S
C509 C504 1.425 1_655 S
C509 C506 1.409 . S
C509 C507 1.415 . S
C510 H500 0.930 . S
C510 C508 1.419 1_455 S
C510 C511 1.362 . S
C511 H501 0.930 . S
C511 C504 1.409 . S
C511 C510 1.362 . S
H512 C518 0.930 . S
H513 C521 0.930 . S
H514 C522 0.938 . S
H515 C523 0.930 . S
H516 C526 0.930 . S
H517 C527 0.930 1_655 S
C518 H512 0.930 . S
C518 C519 1.355 . S
C518 C520 1.415 1_545 S
C519 C518 1.355 . S
C519 C521 1.419 . S
C520 C518 1.415 1_565 S
C520 C525 1.425 . S
C520 C527 1.409 . S
C521 H513 0.930 . S
C521 C519 1.419 . S
C521 C522 1.362 . S
C522 H514 0.938 . S
C522 C521 1.362 . S
C522 C525 1.409 1_545 S
C523 H515 0.930 . S
C523 C524 1.355 . S
C523 C525 1.415 . S
C524 C523 1.355 . S
C524 C526 1.419 1_455 S
C525 C520 1.425 . S
C525 C522 1.409 1_565 S
C525 C523 1.415 . S
C526 H516 0.930 . S
C526 C524 1.419 1_655 S
C526 C527 1.362 1_655 S
C527 H517 0.930 1_455 S
C527 C520 1.409 . S
C527 C526 1.362 1_455 S
C247 C166 1.558 . S
C252 C19 1.589 . S
C263 C219 1.604 . S
C268 C46 1.581 . S
C279 C6 1.552 . S
C284 C99 1.585 . S
C295 C59 1.581 . S
C300 C126 1.547 . S
C311 C86 1.583 . S
C316 C179 1.604 . S
C327 C139 1.586 . S
C332 C206 1.553 . S
C343 C18 1.541 . S
C348 C129 1.387 . S
C359 C178 1.606 . S
C364 C49 1.434 . S
C375 C209 1.360 . S
C380 C98 1.596 . S
C391 C89 1.313 . S
C396 C218 1.561 . S
C407 C9 1.356 . S
C412 C138 1.535 . S
C423 C169 1.444 . S
C428 C58 1.599 . S
C439 C210 1.764 . S
C444 C10 1.762 . S
C455 C55 0.926 . S
C460 C15 0.940 . S
C471 C90 1.766 . S
C476 C50 1.771 . S
C487 C95 0.933 . S
C492 C135 0.875 1_556 S
C503 C170 1.788 . S
C508 C130 1.782 . S
C519 C215 0.876 . S
C524 C175 0.937 . S
