# Generated by pormake.
# Topology smd, (6)-cn, num edge types: 1
# Building blocks:
#     Node 0, Type 0, BuildingBlock: BETDAH_clean_sbu_0, # of connection points: 6
#     Node 1, Type 0, BuildingBlock: BETDAH_clean_sbu_0, # of connection points: 6
#     Node 2, Type 0, BuildingBlock: BETDAH_clean_sbu_0, # of connection points: 6
#     Node 3, Type 0, BuildingBlock: BETDAH_clean_sbu_0, # of connection points: 6
#     Node 4, Type 0, BuildingBlock: BETDAH_clean_sbu_0, # of connection points: 6
#     Node 5, Type 0, BuildingBlock: BETDAH_clean_sbu_0, # of connection points: 6
#     Node 6, Type 0, BuildingBlock: BETDAH_clean_sbu_0, # of connection points: 6
#     Node 7, Type 0, BuildingBlock: BETDAH_clean_sbu_0, # of connection points: 6
#     Node 8, Type 0, BuildingBlock: BETDAH_clean_sbu_0, # of connection points: 6
#     Node 9, Type 0, BuildingBlock: BETDAH_clean_sbu_0, # of connection points: 6
#     Node 10, Type 0, BuildingBlock: BETDAH_clean_sbu_0, # of connection points: 6
#     Node 11, Type 0, BuildingBlock: BETDAH_clean_sbu_0, # of connection points: 6
#     Node 12, Type 0, BuildingBlock: BETDAH_clean_sbu_0, # of connection points: 6
#     Node 13, Type 0, BuildingBlock: BETDAH_clean_sbu_0, # of connection points: 6
#     Node 14, Type 0, BuildingBlock: BETDAH_clean_sbu_0, # of connection points: 6
#     Node 15, Type 0, BuildingBlock: BETDAH_clean_sbu_0, # of connection points: 6
#     Node 16, Type 0, BuildingBlock: BETDAH_clean_sbu_0, # of connection points: 6
#     Node 17, Type 0, BuildingBlock: BETDAH_clean_sbu_0, # of connection points: 6
#     Edge 18, Type (0, 0), BuildingBlock: UVAHIK_clean_linker_0, # of connection points: 2
#     Edge 19, Type (0, 0), BuildingBlock: UVAHIK_clean_linker_0, # of connection points: 2
#     Edge 20, Type (0, 0), BuildingBlock: UVAHIK_clean_linker_0, # of connection points: 2
#     Edge 21, Type (0, 0), BuildingBlock: UVAHIK_clean_linker_0, # of connection points: 2
#     Edge 22, Type (0, 0), BuildingBlock: UVAHIK_clean_linker_0, # of connection points: 2
#     Edge 23, Type (0, 0), BuildingBlock: UVAHIK_clean_linker_0, # of connection points: 2
#     Edge 24, Type (0, 0), BuildingBlock: UVAHIK_clean_linker_0, # of connection points: 2
#     Edge 25, Type (0, 0), BuildingBlock: UVAHIK_clean_linker_0, # of connection points: 2
#     Edge 26, Type (0, 0), BuildingBlock: UVAHIK_clean_linker_0, # of connection points: 2
#     Edge 27, Type (0, 0), BuildingBlock: UVAHIK_clean_linker_0, # of connection points: 2
#     Edge 28, Type (0, 0), BuildingBlock: UVAHIK_clean_linker_0, # of connection points: 2
#     Edge 29, Type (0, 0), BuildingBlock: UVAHIK_clean_linker_0, # of connection points: 2
#     Edge 30, Type (0, 0), BuildingBlock: UVAHIK_clean_linker_0, # of connection points: 2
#     Edge 31, Type (0, 0), BuildingBlock: UVAHIK_clean_linker_0, # of connection points: 2
#     Edge 32, Type (0, 0), BuildingBlock: UVAHIK_clean_linker_0, # of connection points: 2
#     Edge 33, Type (0, 0), BuildingBlock: UVAHIK_clean_linker_0, # of connection points: 2
#     Edge 34, Type (0, 0), BuildingBlock: UVAHIK_clean_linker_0, # of connection points: 2
#     Edge 35, Type (0, 0), BuildingBlock: UVAHIK_clean_linker_0, # of connection points: 2
#     Edge 36, Type (0, 0), BuildingBlock: UVAHIK_clean_linker_0, # of connection points: 2
#     Edge 37, Type (0, 0), BuildingBlock: UVAHIK_clean_linker_0, # of connection points: 2
#     Edge 38, Type (0, 0), BuildingBlock: UVAHIK_clean_linker_0, # of connection points: 2
#     Edge 39, Type (0, 0), BuildingBlock: UVAHIK_clean_linker_0, # of connection points: 2
#     Edge 40, Type (0, 0), BuildingBlock: UVAHIK_clean_linker_0, # of connection points: 2
#     Edge 41, Type (0, 0), BuildingBlock: UVAHIK_clean_linker_0, # of connection points: 2
#     Edge 42, Type (0, 0), BuildingBlock: UVAHIK_clean_linker_0, # of connection points: 2
#     Edge 43, Type (0, 0), BuildingBlock: UVAHIK_clean_linker_0, # of connection points: 2
#     Edge 44, Type (0, 0), BuildingBlock: UVAHIK_clean_linker_0, # of connection points: 2
#     Edge 45, Type (0, 0), BuildingBlock: UVAHIK_clean_linker_0, # of connection points: 2
#     Edge 46, Type (0, 0), BuildingBlock: UVAHIK_clean_linker_0, # of connection points: 2
#     Edge 47, Type (0, 0), BuildingBlock: UVAHIK_clean_linker_0, # of connection points: 2
#     Edge 48, Type (0, 0), BuildingBlock: UVAHIK_clean_linker_0, # of connection points: 2
#     Edge 49, Type (0, 0), BuildingBlock: UVAHIK_clean_linker_0, # of connection points: 2
#     Edge 50, Type (0, 0), BuildingBlock: UVAHIK_clean_linker_0, # of connection points: 2
#     Edge 51, Type (0, 0), BuildingBlock: UVAHIK_clean_linker_0, # of connection points: 2
#     Edge 52, Type (0, 0), BuildingBlock: UVAHIK_clean_linker_0, # of connection points: 2
#     Edge 53, Type (0, 0), BuildingBlock: UVAHIK_clean_linker_0, # of connection points: 2
#     Edge 54, Type (0, 0), BuildingBlock: UVAHIK_clean_linker_0, # of connection points: 2
#     Edge 55, Type (0, 0), BuildingBlock: UVAHIK_clean_linker_0, # of connection points: 2
#     Edge 56, Type (0, 0), BuildingBlock: UVAHIK_clean_linker_0, # of connection points: 2
#     Edge 57, Type (0, 0), BuildingBlock: UVAHIK_clean_linker_0, # of connection points: 2
#     Edge 58, Type (0, 0), BuildingBlock: UVAHIK_clean_linker_0, # of connection points: 2
#     Edge 59, Type (0, 0), BuildingBlock: UVAHIK_clean_linker_0, # of connection points: 2
#     Edge 60, Type (0, 0), BuildingBlock: UVAHIK_clean_linker_0, # of connection points: 2
#     Edge 61, Type (0, 0), BuildingBlock: UVAHIK_clean_linker_0, # of connection points: 2
#     Edge 62, Type (0, 0), BuildingBlock: UVAHIK_clean_linker_0, # of connection points: 2
#     Edge 63, Type (0, 0), BuildingBlock: UVAHIK_clean_linker_0, # of connection points: 2
#     Edge 64, Type (0, 0), BuildingBlock: UVAHIK_clean_linker_0, # of connection points: 2
#     Edge 65, Type (0, 0), BuildingBlock: UVAHIK_clean_linker_0, # of connection points: 2
#     Edge 66, Type (0, 0), BuildingBlock: UVAHIK_clean_linker_0, # of connection points: 2
#     Edge 67, Type (0, 0), BuildingBlock: UVAHIK_clean_linker_0, # of connection points: 2
#     Edge 68, Type (0, 0), BuildingBlock: UVAHIK_clean_linker_0, # of connection points: 2
#     Edge 69, Type (0, 0), BuildingBlock: UVAHIK_clean_linker_0, # of connection points: 2
#     Edge 70, Type (0, 0), BuildingBlock: UVAHIK_clean_linker_0, # of connection points: 2
#     Edge 71, Type (0, 0), BuildingBlock: UVAHIK_clean_linker_0, # of connection points: 2
# Relax obj value: 0.263
# Max RMSD: 0.343
# Mean RMSD: 0.309
data_MOF--net-smd--node1-BETDAH_clean_sbu_0--edge1-UVAHIK_clean_linker_0
_symmetry_space_group_name_H-M    P1
_symmetry_Int_Tables_number       1
_symmetry_cell_setting            triclinic
loop_
_symmetry_equiv_pos_as_xyz
'x, y, z'
_cell_length_a     85.151982
_cell_length_b     85.238583
_cell_length_c     30.080391
_cell_angle_alpha  93.533524
_cell_angle_beta   93.451677
_cell_angle_gamma 119.92551
loop_
_atom_site_label
_atom_site_type_symbol
_atom_site_fract_x
_atom_site_fract_y
_atom_site_fract_z
_atom_type_partial_charge
Ho0 Ho 0.02631 0.24437 0.55515 0.0
Ho1 Ho 1.0064 0.22795 0.46491 0.0
C2 C 0.99336 0.20185 0.53952 0.0
C3 C 0.0381 0.25558 0.6391 0.0
C4 C 0.03316 0.25101 0.68468 0.0
C5 C 1.01634 0.24757 0.69848 0.0
C6 C 1.01274 0.24451 0.74299 0.0
C7 C 0.02586 0.24478 0.7744 0.0
C8 C 0.04253 0.24796 0.76008 0.0
C9 C 0.04612 0.25106 0.7158 0.0
C10 C 0.04511 0.23535 0.49982 0.0
C11 C 0.03834 0.26991 0.47649 0.0
C12 C 0.99482 0.21668 0.38092 0.0
C13 C 0.99952 0.22208 0.33567 0.0
C14 C 1.01671 0.22699 0.32176 0.0
C15 C 0.02016 0.23069 0.2775 0.0
C16 C 1.00654 0.22968 0.24646 0.0
C17 C 0.98953 0.22517 0.26092 0.0
C18 C 0.98607 0.22138 0.30496 0.0
C19 C 0.98947 0.23967 0.52135 0.0
O20 O 1.00187 0.21698 0.56776 0.0
O21 O 0.99565 0.20234 0.49674 0.0
O22 O 0.04184 0.24473 0.61539 0.0
O23 O 0.02889 0.26117 0.6152 0.0
O24 O 0.05205 0.25004 0.5271 0.0
O25 O 0.02819 0.22557 0.50339 0.0
O26 O 0.02976 0.25458 0.44967 0.0
O27 O 0.03706 0.27003 0.5202 0.0
O28 O 0.98978 0.22626 0.40532 0.0
O29 O 1.00512 0.21214 0.40426 0.0
O30 O 0.981 0.22477 0.49442 0.0
O31 O 1.0061 0.24766 0.51589 0.0
H32 H 1.00607 0.24743 0.67511 0.0
H33 H 0.9997 0.24193 0.75281 0.0
H34 H 0.05306 0.24856 0.78341 0.0
H35 H 0.05924 0.25384 0.706 0.0
H36 H 0.02739 0.22772 0.34481 0.0
H37 H 0.03347 0.23432 0.26754 0.0
H38 H 0.97867 0.22404 0.23781 0.0
H39 H 0.97268 0.21752 0.31486 0.0
Ho40 Ho 0.7898 0.77801 0.482 0.0
Ho41 Ho 0.79389 0.79793 0.57079 0.0
C42 C 0.80272 0.8214 0.49088 0.0
C43 C 0.7832 0.76406 0.39911 0.0
C44 C 0.78444 0.76907 0.35276 0.0
C45 C 0.77778 0.78009 0.33717 0.0
C46 C 0.77865 0.78388 0.29233 0.0
C47 C 0.78625 0.7768 0.26242 0.0
C48 C 0.79297 0.76589 0.27846 0.0
C49 C 0.79205 0.76208 0.32303 0.0
C50 C 0.82161 0.78869 0.53218 0.0
C51 C 0.7794 0.75447 0.56489 0.0
C52 C 0.8011 0.81182 0.65376 0.0
C53 C 0.79743 0.8062 0.69937 0.0
C54 C 0.8021 0.79393 0.71667 0.0
C55 C 0.79982 0.79009 0.76125 0.0
C56 C 0.79274 0.79834 0.78934 0.0
C57 C 0.78767 0.81023 0.7715 0.0
C58 C 0.79005 0.81415 0.72711 0.0
C59 C 0.76157 0.78543 0.52003 0.0
O60 O 0.79367 0.80557 0.46539 0.0
O61 O 0.8079 0.82208 0.53338 0.0
O62 O 0.79861 0.76973 0.42354 0.0
O63 O 0.77102 0.76498 0.42183 0.0
O64 O 0.81172 0.773 0.50911 0.0
O65 O 0.81428 0.79839 0.52743 0.0
O66 O 0.78753 0.77031 0.58994 0.0
O67 O 0.77639 0.75354 0.52079 0.0
O68 O 0.78733 0.80982 0.62738 0.0
O69 O 0.81178 0.80771 0.63265 0.0
O70 O 0.77026 0.80117 0.54365 0.0
O71 O 0.7701 0.77712 0.52585 0.0
H72 H 0.77186 0.7857 0.35946 0.0
H73 H 0.77349 0.79246 0.28118 0.0
H74 H 0.79863 0.75996 0.25632 0.0
H75 H 0.79714 0.75344 0.33423 0.0
H76 H 0.80777 0.78752 0.69607 0.0
H77 H 0.80366 0.7807 0.77379 0.0
H78 H 0.78238 0.81699 0.79228 0.0
H79 H 0.78646 0.82374 0.71467 0.0
Ho80 Ho 0.24301 1.00621 0.53899 0.0
Ho81 Ho 0.24026 0.01907 0.44979 0.0
C82 C 0.23249 0.03733 0.53277 0.0
C83 C 0.25155 0.99774 0.61431 0.0
C84 C 0.24655 0.99641 0.66049 0.0
C85 C 0.23586 1.00348 0.67584 0.0
C86 C 0.23215 1.00294 0.72067 0.0
C87 C 0.23905 0.9953 0.75089 0.0
C88 C 0.24954 0.98801 0.73494 0.0
C89 C 0.25324 0.98858 0.69022 0.0
C90 C 0.20818 0.99055 0.49917 0.0
C91 C 0.25054 0.98787 0.45099 0.0
C92 C 0.23554 0.02575 0.36881 0.0
C93 C 0.23133 0.01812 0.32136 0.0
C94 C 0.23917 1.00837 0.30323 0.0
C95 C 0.23721 1.00386 0.25682 0.0
C96 C 0.22742 1.00906 0.22775 0.0
C97 C 0.21885 0.018 0.24642 0.0
C98 C 0.22082 0.0225 0.29268 0.0
C99 C 0.27207 0.04029 0.50402 0.0
O100 O 0.24218 0.03211 0.55743 0.0
O101 O 0.22643 0.03034 0.49078 0.0
O102 O 0.23923 0.98574 0.58324 0.0
O103 O 0.26001 0.01418 0.60179 0.0
O104 O 0.21318 0.9962 0.54132 0.0
O105 O 0.22209 0.99369 0.47986 0.0
O106 O 0.24361 0.99564 0.42635 0.0
O107 O 0.25329 0.99117 0.4953 0.0
O108 O 0.25132 0.02959 0.38873 0.0
O109 O 0.2224 0.01902 0.39491 0.0
O110 O 0.26374 0.04679 0.48094 0.0
O111 O 0.26324 0.02331 0.49671 0.0
H112 H 0.23057 1.00958 0.65329 0.0
H113 H 0.22386 1.00848 0.73164 0.0
H114 H 0.2553 0.98227 0.75728 0.0
H115 H 0.26161 0.98315 0.67899 0.0
H116 H 0.24736 1.00483 0.3247 0.0
H117 H 0.24406 0.99704 0.24363 0.0
H118 H 0.2109 0.02187 0.22517 0.0
H119 H 0.21466 0.03002 0.30593 0.0
Ho120 Ho 0.02302 0.79736 0.59027 0.0
Ho121 Ho 1.00785 0.77998 0.48895 0.0
C122 C 0.99042 0.75548 0.57121 0.0
C123 C 0.02832 0.80867 0.67446 0.0
C124 C 0.0201 0.80277 0.71675 0.0
C125 C 1.01186 0.8116 0.73756 0.0
C126 C 1.00597 0.80769 0.78002 0.0
C127 C 1.00833 0.79497 0.80284 0.0
C128 C 1.01605 0.78571 0.78131 0.0
C129 C 0.02186 0.78956 0.7388 0.0
C130 C 0.04119 0.78398 0.54458 0.0
C131 C 0.04072 0.82277 0.51387 0.0
C132 C 1.0049 0.76464 0.40968 0.0
C133 C 1.00187 0.76671 0.36236 0.0
C134 C 1.00654 0.75775 0.32979 0.0
C135 C 1.0043 0.75975 0.28453 0.0
C136 C 0.99732 0.77077 0.27091 0.0
C137 C 0.99261 0.77974 0.30382 0.0
C138 C 0.99489 0.77774 0.34925 0.0
C139 C 0.98988 0.79672 0.51951 0.0
O140 O 0.99867 0.7706 0.59903 0.0
O141 O 0.99329 0.75532 0.52812 0.0
O142 O 0.03572 0.79987 0.65646 0.0
O143 O 0.01954 0.8129 0.64463 0.0
O144 O 0.04926 0.79836 0.57352 0.0
O145 O 0.02428 0.77742 0.54311 0.0
O146 O 0.03286 0.80805 0.48392 0.0
O147 O 0.03628 0.82225 0.55532 0.0
O148 O 0.99112 0.75987 0.43358 0.0
O149 O 0.02046 0.77725 0.4311 0.0
O150 O 0.9869 0.7889 0.47909 0.0
O151 O 1.00254 0.79554 0.53981 0.0
H152 H 1.0104 0.8219 0.7215 0.0
H153 H 0.99983 0.81487 0.79528 0.0
H154 H 0.01832 0.77602 0.79803 0.0
H155 H 0.02826 0.78257 0.72395 0.0
H156 H 1.01212 0.74932 0.33943 0.0
H157 H 1.00841 0.75293 0.26027 0.0
H158 H 0.98708 0.78822 0.29446 0.0
H159 H 0.99128 0.78482 0.37408 0.0
Ho160 Ho 0.23828 0.22518 0.45898 0.0
Ho161 Ho 0.24226 0.24544 0.54698 0.0
C162 C 0.253 0.26855 0.46314 0.0
C163 C 0.23132 0.21125 0.37602 0.0
C164 C 0.23503 0.2169 0.33038 0.0
C165 C 0.23057 0.22934 0.31329 0.0
C166 C 0.2328 0.23319 0.26869 0.0
C167 C 0.23962 0.22476 0.24027 0.0
C168 C 0.24449 0.21269 0.2579 0.0
C169 C 0.24217 0.20877 0.30234 0.0
C170 C 0.27074 0.23828 0.50995 0.0
C171 C 0.22923 0.202 0.53903 0.0
C172 C 0.2488 0.25961 0.62971 0.0
C173 C 0.24768 0.25476 0.67627 0.0
C174 C 0.25416 0.24361 0.69194 0.0
C175 C 0.25337 0.23994 0.7369 0.0
C176 C 0.246 0.24728 0.76691 0.0
C177 C 0.23947 0.25833 0.75079 0.0
C178 C 0.24032 0.26202 0.7061 0.0
C179 C 0.21075 0.23517 0.49612 0.0
O180 O 0.24471 0.25259 0.4387 0.0
O181 O 0.25589 0.26972 0.50738 0.0
O182 O 0.24507 0.21333 0.40266 0.0
O183 O 0.22052 0.21524 0.3969 0.0
O184 O 0.26213 0.22235 0.48721 0.0
O185 O 0.26199 0.24632 0.5035 0.0
O186 O 0.23837 0.21791 0.56416 0.0
O187 O 0.22407 0.20119 0.4965 0.0
O188 O 0.23334 0.25371 0.60527 0.0
O189 O 0.26105 0.25879 0.60707 0.0
O190 O 0.22082 0.25086 0.51907 0.0
O191 O 0.2177 0.22515 0.50143 0.0
H192 H 0.2251 0.2359 0.3341 0.0
H193 H 0.22913 0.24273 0.25638 0.0
H194 H 0.24958 0.20579 0.23692 0.0
H195 H 0.24559 0.19904 0.31458 0.0
H196 H 0.25987 0.2378 0.66959 0.0
H197 H 0.25837 0.23124 0.74805 0.0
H198 H 0.234 0.26447 0.77295 0.0
H199 H 0.23536 0.27075 0.69486 0.0
Ho200 Ho 0.79392 1.00545 0.57056 0.0
Ho201 Ho 0.7927 0.01943 0.482 0.0
C202 C 0.78477 0.0376 0.56993 0.0
C203 C 0.79788 0.998 0.65115 0.0
C204 C 0.80181 1.00535 0.69875 0.0
C205 C 0.79399 0.01514 0.71681 0.0
C206 C 0.79593 0.01965 0.76322 0.0
C207 C 0.80566 0.01439 0.79232 0.0
C208 C 0.81413 1.00534 0.77374 0.0
C209 C 0.81219 1.00085 0.7275 0.0
C210 C 0.76253 0.98537 0.51434 0.0
C211 C 0.80224 0.98757 0.48797 0.0
C212 C 0.78491 0.02858 0.40684 0.0
C213 C 0.78975 0.02969 0.36056 0.0
C214 C 0.80002 0.02217 0.34496 0.0
C215 C 0.80352 0.02248 0.29999 0.0
C216 C 0.79682 0.03034 0.26992 0.0
C217 C 0.78676 0.03808 0.28614 0.0
C218 C 0.78327 0.03774 0.33099 0.0
C219 C 0.82705 0.03421 0.52394 0.0
O220 O 0.7901 0.0285 0.59457 0.0
O221 O 0.78347 0.03549 0.52551 0.0
O222 O 0.78225 0.99434 0.63064 0.0
O223 O 0.81125 1.00492 0.62579 0.0
O224 O 0.77027 0.97824 0.53723 0.0
O225 O 0.77176 1.0023 0.52262 0.0
O226 O 0.79309 0.99329 0.46293 0.0
O227 O 0.80789 0.9942 0.53025 0.0
O228 O 0.79755 0.04021 0.43785 0.0
O229 O 0.77583 0.01217 0.41921 0.0
O230 O 0.82247 0.02897 0.48145 0.0
O231 O 0.81294 0.03104 0.54242 0.0
H232 H 0.78589 0.01875 0.69529 0.0
H233 H 0.78916 0.02655 0.77638 0.0
H234 H 0.82201 1.0014 0.79504 0.0
H235 H 0.81833 0.99331 0.71428 0.0
H236 H 0.80513 0.01588 0.36741 0.0
H237 H 0.81149 0.01659 0.2888 0.0
H238 H 0.78115 0.04399 0.2639 0.0
H239 H 0.77521 0.04351 0.34243 0.0
Ho240 Ho 0.67769 0.56745 0.76133 0.0
Ho241 Ho 0.69504 0.56689 0.85822 0.0
C242 C 0.71022 0.55739 0.7731 0.0
C243 C 0.67289 0.57857 0.68652 0.0
C244 C 0.67011 0.5733 0.63791 0.0
C245 C 0.6782 0.5641 0.61821 0.0
C246 C 0.67686 0.56091 0.57153 0.0
C247 C 0.66738 0.56686 0.54377 0.0
C248 C 0.65876 0.57547 0.56387 0.0
C249 C 0.66016 0.57869 0.61045 0.0
C250 C 0.6598 0.53334 0.78817 0.0
C251 C 0.66195 0.57519 0.8505 0.0
C252 C 0.70283 0.56264 0.93935 0.0
C253 C 0.69533 0.55984 0.98287 0.0
C254 C 0.68391 0.5665 0.99505 0.0
C255 C 0.6783 0.56508 0.03816 0.0
C256 C 0.68407 0.55702 0.06988 0.0
C257 C 0.69511 0.54994 0.05693 0.0
C258 C 0.70066 0.55134 0.01386 0.0
C259 C 0.71194 0.59774 0.81638 0.0
O260 O 0.70209 0.56416 0.74785 0.0
O261 O 0.70703 0.55433 0.81509 0.0
O262 O 0.65948 0.56864 0.70986 0.0
O263 O 0.68897 0.58335 0.70665 0.0
O264 O 0.65617 0.53739 0.74943 0.0
O265 O 0.67328 0.54751 0.80821 0.0
O266 O 0.67049 0.56852 0.87402 0.0
O267 O 0.66438 0.57817 0.80787 0.0
O268 O 0.70804 0.57854 0.92501 0.0
O269 O 0.69443 0.54911 0.90748 0.0
O270 O 0.7207 0.59187 0.8406 0.0
O271 O 0.69517 0.58733 0.81714 0.0
H272 H 0.68596 0.55982 0.63884 0.0
H273 H 0.68378 0.55437 0.55722 0.0
H274 H 0.65109 0.57993 0.54357 0.0
H275 H 0.65379 0.58577 0.62505 0.0
H276 H 0.67969 0.57316 0.97161 0.0
H277 H 0.66962 0.57047 0.04678 0.0
H278 H 0.70004 0.54389 0.08057 0.0
H279 H 0.70957 0.54621 1.00514 0.0
Ho280 Ho 0.45771 0.11865 0.79794 0.0
Ho281 Ho 0.46202 0.13958 0.88581 0.0
C282 C 0.47074 0.16213 0.80446 0.0
C283 C 0.45084 0.10415 0.71539 0.0
C284 C 0.45201 0.10887 0.66867 0.0
C285 C 0.4463 0.12063 0.65309 0.0
C286 C 0.4472 0.12424 0.60806 0.0
C287 C 0.45389 0.11624 0.57785 0.0
C288 C 0.45963 0.10455 0.59389 0.0
C289 C 0.45868 0.10093 0.63865 0.0
C290 C 0.48938 0.1293 0.84826 0.0
C291 C 0.4475 0.09625 0.88304 0.0
C292 C 0.4691 0.15381 0.96858 0.0
C293 C 0.46565 0.14828 0.01444 0.0
C294 C 0.46965 0.13544 0.03092 0.0
C295 C 0.46752 0.13155 0.07556 0.0
C296 C 0.46127 0.14036 0.10466 0.0
C297 C 0.45692 0.1529 0.08766 0.0
C298 C 0.45913 0.15683 0.04317 0.0
C299 C 0.42948 0.12614 0.8349 0.0
O300 O 0.46167 0.14608 0.77988 0.0
O301 O 0.47593 0.16329 0.84718 0.0
O302 O 0.46626 0.10983 0.73978 0.0
O303 O 0.43877 0.10535 0.73804 0.0
O304 O 0.47939 0.11356 0.8255 0.0
O305 O 0.48232 0.13923 0.84298 0.0
O306 O 0.45584 0.11236 0.9068 0.0
O307 O 0.44439 0.0947 0.83876 0.0
O308 O 0.45514 0.15136 0.94213 0.0
O309 O 0.48001 0.15003 0.94757 0.0
O310 O 0.43807 0.14219 0.85708 0.0
O311 O 0.4383 0.11821 0.84194 0.0
H312 H 0.44113 0.12698 0.67558 0.0
H313 H 0.44282 0.13344 0.59703 0.0
H314 H 0.46456 0.09789 0.57162 0.0
H315 H 0.46305 0.09173 0.6498 0.0
H316 H 0.47465 0.12856 1.00956 0.0
H317 H 0.47078 0.12166 0.08731 0.0
H318 H 0.45229 0.16011 0.10911 0.0
H319 H 0.45606 0.16686 0.03141 0.0
Ho320 Ho 0.91554 0.35379 0.78197 0.0
Ho321 Ho 0.90294 0.34077 0.86977 0.0
C322 C 0.87455 0.32161 0.7856 0.0
C323 C 0.9309 0.36335 0.70897 0.0
C324 C 0.92724 0.36588 0.6622 0.0
C325 C 0.91095 0.35345 0.63579 0.0
C326 C 0.9088 0.35508 0.59008 0.0
C327 C 0.92288 0.36915 0.56999 0.0
C328 C 0.93884 0.38197 0.5971 0.0
C329 C 0.94099 0.38031 0.64267 0.0
C330 C 0.89591 0.36801 0.81642 0.0
C331 C 0.94313 0.37405 0.8726 0.0
C332 C 0.8936 0.33336 0.94948 0.0
C333 C 0.89652 0.34146 0.99599 0.0
C334 C 0.91288 0.35714 0.0135 0.0
C335 C 0.91579 0.36332 0.05917 0.0
C336 C 0.90238 0.35393 0.08797 0.0
C337 C 0.88584 0.33856 0.06971 0.0
C338 C 0.88296 0.33242 0.02425 0.0
C339 C 0.91434 0.32105 0.81945 0.0
O340 O 0.88884 0.32696 0.76237 0.0
O341 O 0.87661 0.32882 0.82695 0.0
O342 O 0.93145 0.375 0.74036 0.0
O343 O 0.92282 0.34663 0.71967 0.0
O344 O 0.89456 0.36221 0.7748 0.0
O345 O 0.90757 0.36565 0.83849 0.0
O346 O 0.92886 0.36614 0.89516 0.0
O347 O 0.94185 0.36991 0.82879 0.0
O348 O 0.90729 0.33272 0.93379 0.0
O349 O 0.88457 0.33741 0.92002 0.0
O350 O 0.90011 0.31375 0.84108 0.0
O351 O 0.92151 0.33794 0.82622 0.0
H352 H 0.90012 0.34219 0.65014 0.0
H353 H 0.89639 0.34491 0.57017 0.0
H354 H 0.94981 0.39316 0.58294 0.0
H355 H 0.95364 0.39006 0.66248 0.0
H356 H 0.92352 0.36433 0.99214 0.0
H357 H 0.9286 0.37533 0.072 0.0
H358 H 0.87533 0.3308 0.09085 0.0
H359 H 0.8703 0.32023 0.01136 0.0
Ho360 Ho 0.6925 0.13816 0.88728 0.0
Ho361 Ho 0.67464 0.11709 0.7972 0.0
C362 C 0.66343 0.09477 0.88197 0.0
C363 C 0.70051 0.15234 0.97022 0.0
C364 C 0.69759 0.14678 0.01621 0.0
C365 C 0.68006 0.13611 0.02958 0.0
C366 C 0.67781 0.13219 0.07419 0.0
C367 C 0.69303 0.13875 0.10633 0.0
C368 C 0.71053 0.14909 0.09251 0.0
C369 C 0.71276 0.15309 0.04809 0.0
C370 C 0.71119 0.1251 0.84271 0.0
C371 C 0.70617 0.16033 0.80544 0.0
C372 C 0.66577 0.10272 0.71432 0.0
C373 C 0.66954 0.10755 0.66809 0.0
C374 C 0.68733 0.11696 0.6554 0.0
C375 C 0.69018 0.12053 0.61071 0.0
C376 C 0.67533 0.11483 0.57787 0.0
C377 C 0.6576 0.10554 0.59099 0.0
C378 C 0.65476 0.10194 0.63545 0.0
C379 C 0.65436 0.12763 0.8421 0.0
O380 O 0.67102 0.11088 0.90563 0.0
O381 O 0.66506 0.09327 0.83854 0.0
O382 O 0.71104 0.1483 0.94835 0.0
O383 O 0.68648 0.1502 0.94451 0.0
O384 O 0.71889 0.14098 0.86563 0.0
O385 O 0.69439 0.117 0.84599 0.0
O386 O 0.69824 0.14422 0.78123 0.0
O387 O 0.70305 0.16184 0.84742 0.0
O388 O 0.65693 0.10925 0.73525 0.0
O389 O 0.67861 0.10284 0.7407 0.0
O390 O 0.64813 0.11191 0.81955 0.0
O391 O 0.67131 0.13757 0.83925 0.0
H392 H 0.66808 0.13097 1.00578 0.0
H393 H 0.66415 0.12401 0.08351 0.0
H394 H 0.72255 0.15456 0.11634 0.0
H395 H 0.72641 0.16143 0.03877 0.0
H396 H 0.69901 0.12148 0.67986 0.0
H397 H 0.70403 0.12787 0.60196 0.0
H398 H 0.64581 0.10066 0.56667 0.0
H399 H 0.64092 0.09453 0.64428 0.0
Ho400 Ho 0.90328 0.56866 0.86468 0.0
Ho401 Ho 0.92025 0.57164 0.77193 0.0
C402 C 0.9449 0.5782 0.86499 0.0
C403 C 0.89259 0.56338 0.94373 0.0
C404 C 0.89793 0.56015 0.98841 0.0
C405 C 0.88555 0.54476 1.00793 0.0
C406 C 0.8892 0.54254 0.05231 0.0
C407 C 0.90527 0.55578 0.07833 0.0
C408 C 0.91803 0.57082 0.05808 0.0
C409 C 0.91441 0.57298 0.01358 0.0
C410 C 0.91538 0.60005 0.825 0.0
C411 C 0.87713 0.55932 0.77598 0.0
C412 C 0.93554 0.58466 0.70094 0.0
C413 C 0.93334 0.57952 0.65255 0.0
C414 C 0.9457 0.59188 0.62589 0.0
C415 C 0.94377 0.58756 0.57961 0.0
C416 C 0.92941 0.57077 0.55908 0.0
C417 C 0.91704 0.55836 0.58608 0.0
C418 C 0.91901 0.5627 0.63252 0.0
C419 C 0.90486 0.53682 0.79401 0.0
O420 O 0.92985 0.5703 0.88516 0.0
O421 O 0.94495 0.58252 0.82326 0.0
O422 O 0.90277 0.57954 0.93074 0.0
O423 O 0.88691 0.55017 0.91123 0.0
O424 O 0.90071 0.59288 0.84539 0.0
O425 O 0.92264 0.59043 0.8277 0.0
O426 O 0.89181 0.56756 0.75382 0.0
O427 O 0.87807 0.55529 0.8174 0.0
O428 O 0.94043 0.57566 0.72678 0.0
O429 O 0.9229 0.58735 0.71636 0.0
O430 O 0.91215 0.54193 0.75704 0.0
O431 O 0.90565 0.55044 0.81517 0.0
H432 H 0.87275 0.53467 0.98923 0.0
H433 H 0.87924 0.53061 0.0665 0.0
H434 H 0.93047 0.58138 0.07712 0.0
H435 H 0.92427 0.58501 0.9995 0.0
H436 H 0.95677 0.60497 0.64087 0.0
H437 H 0.95334 0.59755 0.5598 0.0
H438 H 0.90593 0.54526 0.57136 0.0
H439 H 0.90935 0.55301 0.65274 0.0
Ho440 Ho 0.46329 0.34675 0.88392 0.0
Ho441 Ho 0.4584 0.35829 0.79438 0.0
C442 C 0.4528 0.37784 0.8835 0.0
C443 C 0.46944 0.34113 0.9652 0.0
C444 C 0.47322 0.34904 0.01235 0.0
C445 C 0.46635 0.36009 0.0278 0.0
C446 C 0.46761 0.36495 0.07384 0.0
C447 C 0.47577 0.35886 0.10527 0.0
C448 C 0.48332 0.34846 0.0893 0.0
C449 C 0.48203 0.34361 0.04338 0.0
C450 C 0.43033 0.32516 0.83425 0.0
C451 C 0.46876 0.32696 0.80023 0.0
C452 C 0.44843 0.36578 0.71932 0.0
C453 C 0.45268 0.36677 0.67242 0.0
C454 C 0.46216 0.35863 0.65503 0.0
C455 C 0.4652 0.35901 0.60968 0.0
C456 C 0.45879 0.36752 0.58092 0.0
C457 C 0.44959 0.37592 0.59893 0.0
C458 C 0.44657 0.37552 0.64415 0.0
C459 C 0.49398 0.37344 0.82757 0.0
O460 O 0.46011 0.37025 0.90754 0.0
O461 O 0.44931 0.37414 0.83931 0.0
O462 O 0.45325 0.33596 0.94554 0.0
O463 O 0.48231 0.34866 0.93866 0.0
O464 O 0.43921 0.31886 0.85592 0.0
O465 O 0.43937 0.34217 0.84007 0.0
O466 O 0.45854 0.33193 0.77669 0.0
O467 O 0.47582 0.3345 0.84145 0.0
O468 O 0.46105 0.37816 0.74927 0.0
O469 O 0.44044 0.34951 0.73296 0.0
O470 O 0.48752 0.36717 0.78628 0.0
O471 O 0.48104 0.3713 0.85 0.0
H472 H 0.45947 0.36444 1.00445 0.0
H473 H 0.4619 0.3732 0.08484 0.0
H474 H 0.4895 0.34333 0.11236 0.0
H475 H 0.48727 0.33494 0.03222 0.0
H476 H 0.46697 0.35177 0.67635 0.0
H477 H 0.47219 0.35227 0.59695 0.0
H478 H 0.44475 0.38287 0.5781 0.0
H479 H 0.43927 0.38192 0.65699 0.0
Ho480 Ho 0.36152 0.91705 0.22154 0.0
Ho481 Ho 0.34762 0.89627 0.12225 0.0
C482 C 0.33161 0.87327 0.20312 0.0
C483 C 0.36264 0.933 0.29865 0.0
C484 C 0.36513 0.93104 0.34642 0.0
C485 C 0.36377 0.94275 0.37869 0.0
C486 C 0.36492 0.94046 0.42419 0.0
C487 C 0.36742 0.92634 0.43835 0.0
C488 C 0.36901 0.91474 0.40575 0.0
C489 C 0.36786 0.91707 0.36017 0.0
C490 C 0.38132 0.90119 0.19893 0.0
C491 C 0.37715 0.93963 0.1352 0.0
C492 C 0.34378 0.88257 0.0404 0.0
C493 C 0.34943 0.88837 0.99599 0.0
C494 C 0.35254 0.87709 0.9664 0.0
C495 C 0.35613 0.88121 0.92254 0.0
C496 C 0.35657 0.89668 0.90713 0.0
C497 C 0.35412 0.90835 0.9375 0.0
C498 C 0.35061 0.90425 0.98153 0.0
C499 C 0.32762 0.9091 0.16148 0.0
O500 O 0.33751 0.88882 0.22901 0.0
O501 O 0.33683 0.8728 0.16279 0.0
O502 O 0.37689 0.9382 0.27624 0.0
O503 O 0.3476 0.91989 0.27631 0.0
O504 O 0.38359 0.91013 0.23748 0.0
O505 O 0.36833 0.90094 0.17595 0.0
O506 O 0.36931 0.92402 0.10915 0.0
O507 O 0.37487 0.94059 0.1786 0.0
O508 O 0.33242 0.88694 0.05687 0.0
O509 O 0.3564 0.88428 0.07071 0.0
O510 O 0.32039 0.89395 0.13525 0.0
O511 O 0.34463 0.91652 0.16365 0.0
H512 H 0.36147 0.9535 0.36862 0.0
H513 H 0.36336 0.94946 0.44817 0.0
H514 H 0.37112 0.90386 0.41545 0.0
H515 H 0.36887 0.90785 0.33563 0.0
H516 H 0.35179 0.86482 0.97693 0.0
H517 H 0.35835 0.87212 0.90053 0.0
H518 H 0.35426 0.92033 0.92687 0.0
H519 H 0.34833 0.91323 1.00385 0.0
Ho520 Ho 0.12706 0.44948 0.14302 0.0
Ho521 Ho 0.13461 0.46923 0.24262 0.0
C522 C 0.13897 0.49253 0.16187 0.0
C523 C 0.11184 0.43349 0.06381 0.0
C524 C 0.11638 0.43564 0.01734 0.0
C525 C 0.1037 0.42336 0.9825 0.0
C526 C 0.10736 0.42564 0.93791 0.0
C527 C 0.1238 0.44032 0.9273 0.0
C528 C 0.13659 0.45251 0.96254 0.0
C529 C 0.13291 0.45019 1.00719 0.0
C530 C 0.16329 0.46674 0.17195 0.0
C531 C 0.12165 0.42622 0.22916 0.0
C532 C 0.14562 0.48295 0.32529 0.0
C533 C 0.14563 0.47724 0.37058 0.0
C534 C 0.15992 0.48887 0.40325 0.0
C535 C 0.15944 0.48483 0.44766 0.0
C536 C 0.14456 0.46907 0.46044 0.0
C537 C 0.13056 0.45703 0.42714 0.0
C538 C 0.1311 0.46107 0.38259 0.0
C539 C 0.10083 0.45503 0.19745 0.0
O540 O 0.12932 0.47703 0.13507 0.0
O541 O 0.14578 0.49304 0.20297 0.0
O542 O 0.12101 0.42837 0.08986 0.0
O543 O 0.10987 0.44645 0.0836 0.0
O544 O 0.15629 0.45792 0.13264 0.0
O545 O 0.15054 0.46607 0.19237 0.0
O546 O 0.12956 0.44156 0.25638 0.0
O547 O 0.11765 0.42566 0.18532 0.0
O548 O 0.12981 0.47898 0.30525 0.0
O549 O 0.15596 0.48068 0.29816 0.0
O550 O 0.10843 0.46994 0.22465 0.0
O551 O 0.11119 0.44859 0.19765 0.0
H552 H 0.09082 0.41212 0.98976 0.0
H553 H 0.0971 0.41616 0.9117 0.0
H554 H 0.14946 0.46384 0.95563 0.0
H555 H 0.14286 0.45982 0.03375 0.0
H556 H 0.1713 0.50136 0.39462 0.0
H557 H 0.17064 0.49421 0.47213 0.0
H558 H 0.11885 0.44483 0.43574 0.0
H559 H 0.11993 0.45184 0.35784 0.0
Ho560 Ho 0.57864 0.67677 0.21307 0.0
Ho561 Ho 0.57477 0.6925 0.13006 0.0
C562 C 0.56505 0.70647 0.21528 0.0
C563 C 0.58525 0.66947 0.29223 0.0
C564 C 0.58449 0.67337 0.34026 0.0
C565 C 0.58894 0.69071 0.35957 0.0
C566 C 0.58829 0.69373 0.40567 0.0
C567 C 0.58309 0.67945 0.43308 0.0
C568 C 0.57867 0.66216 0.4133 0.0
C569 C 0.57936 0.65918 0.3675 0.0
C570 C 0.54715 0.65511 0.16041 0.0
C571 C 0.58915 0.66367 0.12388 0.0
C572 C 0.56785 0.69939 0.05076 0.0
C573 C 0.57217 0.69819 1.00422 0.0
C574 C 0.57032 0.68211 0.98301 0.0
C575 C 0.57297 0.68092 0.93767 0.0
C576 C 0.57757 0.6958 0.91269 0.0
C577 C 0.5799 0.71202 0.93445 0.0
C578 C 0.57717 0.71316 0.97966 0.0
C579 C 0.60717 0.71219 0.18246 0.0
O580 O 0.57481 0.70063 0.23732 0.0
O581 O 0.55963 0.70126 0.17246 0.0
O582 O 0.56963 0.65997 0.26769 0.0
O583 O 0.5975 0.6825 0.27169 0.0
O584 O 0.55705 0.64957 0.18056 0.0
O585 O 0.55425 0.67218 0.16952 0.0
O586 O 0.58123 0.67143 0.10261 0.0
O587 O 0.59188 0.66558 0.16823 0.0
O588 O 0.58106 0.71146 0.07987 0.0
O589 O 0.55757 0.68409 0.06739 0.0
O590 O 0.59863 0.71945 0.16343 0.0
O591 O 0.59833 0.69534 0.17194 0.0
H592 H 0.59291 0.70187 0.33912 0.0
H593 H 0.59165 0.70717 0.41976 0.0
H594 H 0.57493 0.65093 0.43337 0.0
H595 H 0.57598 0.64573 0.3533 0.0
H596 H 0.56653 0.67035 1.00116 0.0
H597 H 0.5713 0.66831 0.92209 0.0
H598 H 0.58324 0.72366 0.91617 0.0
H599 H 0.57857 0.72567 0.99522 0.0
Ho600 Ho 0.3626 0.47057 0.23517 0.0
Ho601 Ho 0.34592 0.45103 0.1361 0.0
C602 C 0.33058 0.42809 0.22148 0.0
C603 C 0.36971 0.48339 0.31869 0.0
C604 C 0.36408 0.47787 0.36341 0.0
C605 C 0.34672 0.47337 0.37543 0.0
C606 C 0.34248 0.46977 0.41935 0.0
C607 C 0.35553 0.47066 0.45206 0.0
C608 C 0.37266 0.47462 0.43941 0.0
C609 C 0.37689 0.47827 0.39573 0.0
C610 C 0.38046 0.45694 0.18884 0.0
C611 C 0.3768 0.49457 0.15513 0.0
C612 C 0.34312 0.43568 0.05694 0.0
C613 C 0.34141 0.43862 1.0094 0.0
C614 C 0.35499 0.44018 0.98278 0.0
C615 C 0.35408 0.44317 0.93785 0.0
C616 C 0.33945 0.44453 0.91831 0.0
C617 C 0.32565 0.44269 0.94474 0.0
C618 C 0.32665 0.43984 0.98999 0.0
C619 C 0.32787 0.46775 0.16589 0.0
O620 O 0.33946 0.44355 0.24812 0.0
O621 O 0.33224 0.4272 0.17775 0.0
O622 O 0.37824 0.47609 0.29925 0.0
O623 O 0.35841 0.48507 0.29052 0.0
O624 O 0.38874 0.47212 0.21502 0.0
O625 O 0.36359 0.44998 0.18972 0.0
O626 O 0.36983 0.47924 0.12766 0.0
O627 O 0.37315 0.49474 0.19714 0.0
O628 O 0.32911 0.43129 0.07987 0.0
O629 O 0.35871 0.44733 0.07993 0.0
O630 O 0.32447 0.45917 0.12623 0.0
O631 O 0.34098 0.46727 0.1861 0.0
H632 H 0.33655 0.47299 0.35127 0.0
H633 H 0.3292 0.46687 0.428 0.0
H634 H 0.38291 0.47507 0.46341 0.0
H635 H 0.39038 0.48173 0.38741 0.0
H636 H 0.36641 0.43912 0.99685 0.0
H637 H 0.36477 0.44425 0.91822 0.0
H638 H 0.31427 0.44377 0.93062 0.0
H639 H 0.31597 0.43869 0.00971 0.0
Ho640 Ho 0.57459 0.89785 0.13389 0.0
Ho641 Ho 0.58421 0.91885 0.2324 0.0
C642 C 0.58932 0.94137 0.14532 0.0
C643 C 0.56286 0.88398 0.05136 0.0
C644 C 0.56388 0.88969 1.00572 0.0
C645 C 0.54985 0.87842 0.97209 0.0
C646 C 0.5512 0.88249 0.92763 0.0
C647 C 0.56669 0.89791 0.91567 0.0
C648 C 0.58049 0.90956 0.94986 0.0
C649 C 0.57909 0.90549 0.99446 0.0
C650 C 0.60842 0.91044 0.17691 0.0
C651 C 0.56925 0.87507 0.21588 0.0
C652 C 0.60067 0.93471 0.31096 0.0
C653 C 0.59669 0.93224 0.35788 0.0
C654 C 0.60979 0.94418 0.39253 0.0
C655 C 0.60652 0.94174 0.43735 0.0
C656 C 0.59004 0.92725 0.44848 0.0
C657 C 0.57688 0.91536 0.41344 0.0
C658 C 0.58017 0.91783 0.36857 0.0
C659 C 0.54778 0.90285 0.20647 0.0
O660 O 0.58102 0.9258 0.11901 0.0
O661 O 0.59359 0.94235 0.18917 0.0
O662 O 0.57794 0.88624 0.07191 0.0
O663 O 0.55348 0.88802 0.078 0.0
O664 O 0.59958 0.89516 0.15122 0.0
O665 O 0.59914 0.91813 0.17684 0.0
O666 O 0.58009 0.89067 0.24144 0.0
O667 O 0.56217 0.87457 0.17509 0.0
O668 O 0.59115 0.93991 0.28651 0.0
O669 O 0.60249 0.92193 0.28957 0.0
O670 O 0.55559 0.91197 0.24512 0.0
O671 O 0.55989 0.90257 0.185 0.0
H672 H 0.53796 0.86621 0.98007 0.0
H673 H 0.54012 0.87341 0.90251 0.0
H674 H 0.59266 0.92149 0.942 0.0
H675 H 0.59009 0.91442 0.01992 0.0
H676 H 0.62267 0.95531 0.38492 0.0
H677 H 0.61708 0.951 0.4633 0.0
H678 H 0.56396 0.90419 0.42066 0.0
H679 H 0.56988 0.90846 0.34222 0.0
Ho680 Ho 0.13126 0.67866 0.25288 0.0
Ho681 Ho 0.12885 0.69119 0.16289 0.0
C682 C 0.12084 0.70972 0.24978 0.0
C683 C 0.13632 0.67306 0.33471 0.0
C684 C 0.14022 0.68164 0.38142 0.0
C685 C 0.15637 0.68559 0.40689 0.0
C686 C 0.15912 0.69115 0.45282 0.0
C687 C 0.14568 0.6927 0.47448 0.0
C688 C 0.12984 0.68946 0.4485 0.0
C689 C 0.12715 0.68403 0.40254 0.0
C690 C 0.09927 0.65773 0.19926 0.0
C691 C 0.13813 0.65927 0.1705 0.0
C692 C 0.1216 0.70011 0.08692 0.0
C693 C 0.12732 0.70159 0.04123 0.0
C694 C 0.12822 0.68739 0.01747 0.0
C695 C 0.13224 0.68851 0.97296 0.0
C696 C 0.13557 0.7039 0.95129 0.0
C697 C 0.13515 0.7183 0.9757 0.0
C698 C 0.13101 0.71712 0.02011 0.0
C699 C 0.16356 0.70617 0.20279 0.0
O700 O 0.12764 0.70203 0.27512 0.0
O701 O 0.11835 0.70632 0.20549 0.0
O702 O 0.12032 0.66803 0.31392 0.0
O703 O 0.14943 0.67981 0.30851 0.0
O704 O 0.10724 0.65105 0.22309 0.0
O705 O 0.10853 0.67472 0.20559 0.0
O706 O 0.12874 0.66473 0.14548 0.0
O707 O 0.14435 0.66642 0.21234 0.0
O708 O 0.13346 0.71201 0.11889 0.0
O709 O 0.11256 0.68367 0.09924 0.0
O710 O 0.15842 0.70012 0.16089 0.0
O711 O 0.14979 0.70365 0.22192 0.0
H712 H 0.16664 0.6838 0.39155 0.0
H713 H 0.17164 0.69386 0.47152 0.0
H714 H 0.11907 0.69029 0.46394 0.0
H715 H 0.11449 0.68103 0.38402 0.0
H716 H 0.12545 0.67523 0.03292 0.0
H717 H 0.13221 0.67706 0.95519 0.0
H718 H 0.13796 0.7305 0.96045 0.0
H719 H 0.13043 0.72825 0.0378 0.0
C720 C 0.09844 0.39339 0.23451 0.0
C721 C 0.11509 0.40907 0.25056 0.0
C722 C 0.09092 0.37827 0.25919 0.0
C723 C 0.10164 0.35482 0.34349 0.0
H724 H 0.05253 0.33727 0.37529 0.0
C725 C 0.05805 0.28642 0.4177 0.0
C726 C 0.04949 0.28696 0.45587 0.0
C727 C 0.06714 0.30182 0.39482 0.0
C728 C 0.06628 0.34209 0.36683 0.0
H729 H 0.13723 0.42088 0.30407 0.0
H730 H 0.12447 0.39425 0.34598 0.0
H731 H 0.06604 0.36231 0.32801 0.0
H732 H 0.04386 0.30414 0.50017 0.0
H733 H 0.05939 0.33109 0.45911 0.0
H734 H 0.10171 0.33429 0.38134 0.0
C735 C 0.11712 0.39374 0.31474 0.0
C736 C 0.07394 0.35628 0.33943 0.0
C737 C 0.12442 0.40898 0.2907 0.0
C738 C 0.05047 0.30338 0.47111 0.0
C739 C 0.05921 0.31872 0.44744 0.0
C740 C 0.09384 0.34036 0.37003 0.0
C741 C 0.10009 0.37837 0.29982 0.0
C742 C 0.09173 0.36284 0.32756 0.0
C743 C 0.06754 0.31804 0.40887 0.0
C744 C 0.0761 0.33388 0.38217 0.0
H745 H 0.09082 0.39313 0.20403 0.0
H746 H 0.07781 0.36656 0.24677 0.0
H747 H 0.11537 0.3596 0.33491 0.0
H748 H 0.05754 0.27397 0.40514 0.0
H749 H 0.07335 0.30085 0.36515 0.0
C750 C 0.73633 0.76099 0.46641 0.0
C751 C 0.74526 0.77891 0.4873 0.0
C752 C 0.72125 0.75478 0.43456 0.0
C753 C 0.6977 0.77046 0.35645 0.0
H754 H 0.65794 0.7208 0.35432 0.0
C755 C 0.63031 0.73941 0.23514 0.0
C756 C 0.62342 0.72144 0.21606 0.0
C757 C 0.64508 0.7474 0.26884 0.0
C758 C 0.66898 0.73466 0.35412 0.0
H759 H 0.74537 0.80441 0.49122 0.0
H760 H 0.7188 0.79351 0.43585 0.0
H761 H 0.68353 0.73277 0.41209 0.0
H762 H 0.62699 0.69798 0.2162 0.0
H763 H 0.65256 0.71178 0.27432 0.0
H764 H 0.68302 0.77223 0.29817 0.0
C765 C 0.72359 0.78428 0.44375 0.0
C766 C 0.68371 0.74154 0.38732 0.0
C767 C 0.73872 0.7905 0.47576 0.0
C768 C 0.63183 0.71179 0.23057 0.0
C769 C 0.64646 0.71968 0.26415 0.0
C770 C 0.68289 0.76356 0.32315 0.0
C771 C 0.71461 0.7663 0.42275 0.0
C772 C 0.69843 0.75945 0.38864 0.0
C773 C 0.65319 0.73751 0.28419 0.0
C774 C 0.66846 0.74546 0.32114 0.0
H775 H 0.74106 0.75173 0.47456 0.0
H776 H 0.71495 0.74096 0.41869 0.0
H777 H 0.70883 0.78426 0.35612 0.0
H778 H 0.62406 0.74716 0.22469 0.0
H779 H 0.64986 0.76113 0.28362 0.0
C780 C 0.27295 0.97734 0.43938 0.0
C781 C 0.25615 0.97602 0.42707 0.0
C782 C 0.27946 0.96834 0.412 0.0
C783 C 0.27125 0.94578 0.29416 0.0
H784 H 0.30719 0.934 0.34014 0.0
C785 C 0.299 0.90522 0.19186 0.0
C786 C 0.31793 0.91557 0.1901 0.0
C787 C 0.29035 0.91133 0.22082 0.0
C788 C 0.29708 0.93715 0.32694 0.0
H789 H 0.23248 0.96344 0.37801 0.0
H790 H 0.24298 0.94671 0.33231 0.0
H791 H 0.29373 0.94586 0.39205 0.0
H792 H 0.34247 0.94073 0.21607 0.0
H793 H 0.32751 0.95089 0.26783 0.0
H794 H 0.27435 0.93638 0.2291 0.0
C795 C 0.25178 0.95538 0.36157 0.0
C796 C 0.28945 0.94416 0.35664 0.0
C797 C 0.24556 0.96478 0.3882 0.0
C798 C 0.32792 0.93228 0.21715 0.0
C799 C 0.31939 0.93812 0.24683 0.0
C800 C 0.27854 0.93832 0.26469 0.0
C801 C 0.26911 0.95742 0.37211 0.0
C802 C 0.27656 0.94886 0.34076 0.0
C803 C 0.30054 0.9277 0.2491 0.0
C804 C 0.2917 0.93418 0.28071 0.0
H805 H 0.28152 0.98613 0.46884 0.0
H806 H 0.29296 0.97063 0.42142 0.0
H807 H 0.26179 0.94955 0.27989 0.0
H808 H 0.29094 0.89235 0.17123 0.0
H809 H 0.27576 0.90311 0.22183 0.0
C810 C 0.29598 0.06939 0.54953 0.0
C811 C 0.28852 0.05069 0.5368 0.0
C812 C 0.31144 0.07885 0.58108 0.0
C813 C 0.35065 0.0758 0.63167 0.0
H814 H 0.35376 0.11024 0.72715 0.0
C815 C 0.40436 0.10041 0.78411 0.0
C816 C 0.41307 0.11873 0.80201 0.0
C817 C 0.38946 0.09327 0.75139 0.0
C818 C 0.35324 0.10085 0.70038 0.0
H819 H 0.29134 0.02726 0.54723 0.0
H820 H 0.31807 0.04359 0.60189 0.0
H821 H 0.32739 0.09584 0.67035 0.0
H822 H 0.41277 0.14393 0.80012 0.0
H823 H 0.38662 0.13147 0.74254 0.0
H824 H 0.37636 0.08068 0.66137 0.0
C825 C 0.31222 0.0511 0.58739 0.0
C826 C 0.3381 0.09258 0.66777 0.0
C827 C 0.2968 0.04168 0.55619 0.0
C828 C 0.40628 0.12973 0.78703 0.0
C829 C 0.39128 0.12256 0.7541 0.0
C830 C 0.36574 0.08406 0.66406 0.0
C831 C 0.31984 0.06984 0.60023 0.0
C832 C 0.33646 0.0797 0.63338 0.0
C833 C 0.38278 0.10425 0.73546 0.0
C834 C 0.36714 0.09647 0.69938 0.0
H835 H 0.28983 0.07667 0.53528 0.0
H836 H 0.31696 0.09328 0.58998 0.0
H837 H 0.35011 0.0663 0.60516 0.0
H838 H 0.40914 0.09152 0.79526 0.0
H839 H 0.38309 0.07904 0.73872 0.0
C840 C 0.91358 0.29262 0.78606 0.0
C841 C 0.92109 0.31158 0.78969 0.0
C842 C 0.9205 0.28416 0.758 0.0
C843 C 0.96045 0.29581 0.68976 0.0
H844 H 0.93119 0.24499 0.64393 0.0
C845 C 0.99206 0.26249 0.58229 0.0
C846 C 0.981 0.24692 0.55227 0.0
C847 C 0.98447 0.26936 0.6123 0.0
C848 C 0.93958 0.25931 0.65553 0.0
H849 H 0.94182 0.3365 0.76691 0.0
H850 H 0.95245 0.32204 0.71534 0.0
H851 H 0.91833 0.25873 0.69117 0.0
H852 H 0.95307 0.22669 0.52907 0.0
H853 H 0.93962 0.23946 0.57841 0.0
H854 H 0.98104 0.29704 0.65125 0.0
C855 C 0.94193 0.31341 0.73534 0.0
C856 C 0.93223 0.2672 0.68382 0.0
C857 C 0.93549 0.32183 0.76445 0.0
C858 C 0.96201 0.23864 0.55213 0.0
C859 C 0.95431 0.24593 0.58106 0.0
C860 C 0.96752 0.28814 0.66036 0.0
C861 C 0.93483 0.29442 0.7319 0.0
C862 C 0.94254 0.28565 0.70165 0.0
C863 C 0.9654 0.26147 0.61193 0.0
C864 C 0.95737 0.26966 0.64289 0.0
H865 H 0.90256 0.28434 0.80541 0.0
H866 H 0.91471 0.26961 0.75751 0.0
H867 H 0.96933 0.30985 0.7032 0.0
H868 H 1.00671 0.26948 0.58267 0.0
H869 H 0.9938 0.28089 0.63587 0.0
C870 C 0.77653 0.73889 0.63468 0.0
C871 C 0.77328 0.7376 0.58776 0.0
C872 C 0.77076 0.72329 0.65697 0.0
C873 C 0.73804 0.67354 0.64452 0.0
H874 H 0.76747 0.67475 0.74967 0.0
C875 C 0.73849 0.62242 0.78252 0.0
C876 C 0.71994 0.61339 0.78921 0.0
C877 C 0.74565 0.637 0.756 0.0
C878 C 0.75913 0.67405 0.72013 0.0
H879 H 0.76143 0.71864 0.52761 0.0
H880 H 0.75144 0.69133 0.56654 0.0
H881 H 0.77896 0.70082 0.70631 0.0
H882 H 0.69442 0.61276 0.77403 0.0
H883 H 0.7068 0.63812 0.72854 0.0
H884 H 0.7183 0.64669 0.65805 0.0
C885 C 0.75833 0.7045 0.58614 0.0
C886 C 0.76564 0.68914 0.69548 0.0
C887 C 0.76414 0.72019 0.56373 0.0
C888 C 0.70876 0.61933 0.76921 0.0
C889 C 0.71585 0.63383 0.74278 0.0
C890 C 0.73153 0.65845 0.66917 0.0
C891 C 0.76156 0.70584 0.63314 0.0
C892 C 0.75509 0.68922 0.65763 0.0
C893 C 0.73439 0.64288 0.73562 0.0
C894 C 0.74187 0.65856 0.70771 0.0
H895 H 0.78347 0.75202 0.65455 0.0
H896 H 0.77323 0.72494 0.69315 0.0
H897 H 0.72945 0.67308 0.61583 0.0
H898 H 0.74744 0.61811 0.79741 0.0
H899 H 0.75995 0.6435 0.751 0.0
C900 C 0.97198 0.72089 0.5678 0.0
C901 C 0.97915 0.73821 0.59165 0.0
C902 C 0.96331 0.70501 0.58986 0.0
C903 C 0.9645 0.69028 0.70128 0.0
H904 H 0.9176 0.64735 0.66246 0.0
C905 C 0.93922 0.6236 0.78382 0.0
C906 C 0.92145 0.61533 0.79669 0.0
C907 C 0.94529 0.63784 0.75661 0.0
C908 C 0.9307 0.65928 0.67372 0.0
H909 H 0.98187 0.7521 0.65731 0.0
H910 H 0.96723 0.7248 0.69497 0.0
H911 H 0.9297 0.67337 0.61752 0.0
H912 H 0.89596 0.61526 0.79028 0.0
H913 H 0.90657 0.64021 0.74205 0.0
H914 H 0.96571 0.67636 0.75709 0.0
C915 C 0.96838 0.72342 0.65943 0.0
C916 C 0.93768 0.67408 0.6478 0.0
C917 C 0.97677 0.73913 0.63754 0.0
C918 C 0.90977 0.62149 0.78121 0.0
C919 C 0.9158 0.63564 0.75331 0.0
C920 C 0.95771 0.67545 0.72663 0.0
C921 C 0.96187 0.70618 0.63624 0.0
C922 C 0.9546 0.68984 0.6616 0.0
C923 C 0.93371 0.64409 0.74103 0.0
C924 C 0.94069 0.65979 0.71341 0.0
H925 H 0.97354 0.71961 0.53252 0.0
H926 H 0.95841 0.69188 0.57108 0.0
H927 H 0.97762 0.70216 0.71272 0.0
H928 H 0.94851 0.61909 0.79497 0.0
H929 H 0.95909 0.6439 0.74748 0.0
C930 C 0.29481 0.23496 0.5547 0.0
C931 C 0.2876 0.24581 0.54136 0.0
C932 C 0.31053 0.24235 0.58545 0.0
C933 C 0.35071 0.28673 0.63229 0.0
H934 H 0.35372 0.26069 0.73063 0.0
C935 C 0.40665 0.29601 0.78829 0.0
C936 C 0.41384 0.31463 0.80161 0.0
C937 C 0.39149 0.28661 0.75584 0.0
C938 C 0.35323 0.26807 0.70305 0.0
H939 H 0.2912 0.27288 0.54974 0.0
H940 H 0.31837 0.28569 0.6029 0.0
H941 H 0.32703 0.24607 0.67481 0.0
H942 H 0.41053 0.33785 0.7922 0.0
H943 H 0.38421 0.32159 0.73654 0.0
H944 H 0.37677 0.30872 0.6602 0.0
C945 C 0.31212 0.27154 0.58955 0.0
C946 C 0.3379 0.25967 0.67099 0.0
C947 C 0.29644 0.26415 0.5592 0.0
C948 C 0.40541 0.32354 0.78242 0.0
C949 C 0.39035 0.31421 0.75017 0.0
C950 C 0.36599 0.29508 0.66412 0.0
C951 C 0.31945 0.2608 0.60312 0.0
C952 C 0.33629 0.26902 0.63558 0.0
C953 C 0.38323 0.29565 0.73598 0.0
C954 C 0.36737 0.28603 0.70047 0.0
H955 H 0.28824 0.22074 0.54167 0.0
H956 H 0.31583 0.23369 0.59495 0.0
H957 H 0.35019 0.29422 0.60498 0.0
H958 H 0.4129 0.2888 0.80238 0.0
H959 H 0.38648 0.27236 0.74562 0.0
C960 C 0.71033 0.10007 0.79282 0.0
C961 C 0.7201 0.11814 0.81286 0.0
C962 C 0.71828 0.09339 0.76346 0.0
C963 C 0.76285 0.10131 0.73244 0.0
H964 H 0.73348 0.06753 0.62872 0.0
C965 C 0.76974 0.05681 0.57093 0.0
C966 C 0.7795 0.04988 0.59366 0.0
C967 C 0.76362 0.06711 0.59469 0.0
C968 C 0.74198 0.07712 0.65717 0.0
H969 H 0.74592 0.14338 0.81799 0.0
H970 H 0.75994 0.1317 0.7667 0.0
H971 H 0.72059 0.08181 0.67523 0.0
H972 H 0.79096 0.04895 0.65927 0.0
H973 H 0.78032 0.06664 0.70018 0.0
H974 H 0.78423 0.0966 0.71442 0.0
C975 C 0.74611 0.12265 0.77386 0.0
C976 C 0.7345 0.08515 0.68423 0.0
C977 C 0.7381 0.12936 0.80322 0.0
C978 C 0.78344 0.05398 0.64047 0.0
C979 C 0.77744 0.0643 0.66406 0.0
C980 C 0.77031 0.09324 0.70545 0.0
C981 C 0.73627 0.10456 0.75344 0.0
C982 C 0.74472 0.09712 0.72268 0.0
C983 C 0.76726 0.07085 0.64168 0.0
C984 C 0.75989 0.0808 0.66785 0.0
H985 H 0.69649 0.09103 0.79991 0.0
H986 H 0.71038 0.07931 0.74917 0.0
H987 H 0.77113 0.11038 0.76182 0.0
H988 H 0.76644 0.05393 0.53494 0.0
H989 H 0.75596 0.07208 0.57627 0.0
C990 C 0.63151 0.90491 0.21891 0.0
C991 C 0.62512 0.91668 0.20797 0.0
C992 C 0.64682 0.91101 0.25036 0.0
C993 C 0.68754 0.95342 0.30408 0.0
H994 H 0.68703 0.92441 0.39891 0.0
C995 C 0.73916 0.98559 0.46074 0.0
C996 C 0.74668 0.97582 0.47959 0.0
C997 C 0.72476 0.97727 0.4266 0.0
C998 C 0.68753 0.93259 0.37231 0.0
H999 H 0.62979 0.94404 0.22101 0.0
H1000 H 0.65635 0.95465 0.2752 0.0
H1001 H 0.66135 0.91186 0.34031 0.0
H1002 H 0.7448 0.9495 0.47783 0.0
H1003 H 0.71949 0.93482 0.41765 0.0
H1004 H 0.71355 0.97417 0.33575 0.0
C1005 C 0.64974 0.94077 0.25954 0.0
C1006 C 0.67278 0.92539 0.33869 0.0
C1007 C 0.63444 0.93466 0.22856 0.0
C1008 C 0.73923 0.95736 0.464 0.0
C1009 C 0.72472 0.94896 0.4296 0.0
C1010 C 0.70224 0.96057 0.33744 0.0
C1011 C 0.65616 0.92906 0.271 0.0
C1012 C 0.67245 0.93587 0.30462 0.0
C1013 C 0.71742 0.9589 0.41009 0.0
C1014 C 0.70231 0.95044 0.37261 0.0
H1015 H 0.62451 0.89094 0.20376 0.0
H1016 H 0.65144 0.90165 0.25825 0.0
H1017 H 0.68797 0.96175 0.27787 0.0
H1018 H 0.74447 0.99979 0.47228 0.0
H1019 H 0.71929 0.98529 0.41331 0.0
C1020 C 0.03947 0.76175 0.48349 0.0
C1021 C 0.05014 0.77731 0.51391 0.0
C1022 C 0.04749 0.75575 0.45261 0.0
C1023 C 0.09188 0.77002 0.40358 0.0
H1024 H 0.06723 0.71872 0.36013 0.0
C1025 C 0.12398 0.73164 0.31367 0.0
C1026 C 0.11451 0.7211 0.27295 0.0
C1027 C 0.11674 0.7402 0.33967 0.0
C1028 C 0.07417 0.73312 0.37165 0.0
H1029 H 0.07777 0.79831 0.53735 0.0
H1030 H 0.092 0.78722 0.48566 0.0
H1031 H 0.05383 0.72949 0.41454 0.0
H1032 H 0.09015 0.7115 0.22726 0.0
H1033 H 0.07713 0.72601 0.27371 0.0
H1034 H 0.11282 0.77313 0.36227 0.0
C1035 C 0.07729 0.78008 0.48379 0.0
C1036 C 0.06645 0.73941 0.40281 0.0
C1037 C 0.06916 0.78637 0.51397 0.0
C1038 C 0.09785 0.71973 0.25816 0.0
C1039 C 0.09036 0.7279 0.28486 0.0
C1040 C 0.09982 0.7636 0.37323 0.0
C1041 C 0.06657 0.76473 0.45222 0.0
C1042 C 0.07509 0.758 0.41923 0.0
C1043 C 0.09963 0.73801 0.32616 0.0
C1044 C 0.09098 0.7451 0.35678 0.0
H1045 H 0.02477 0.75432 0.48291 0.0
H1046 H 0.03855 0.74417 0.42863 0.0
H1047 H 0.09891 0.78445 0.41435 0.0
H1048 H 0.1368 0.73286 0.32601 0.0
H1049 H 0.12412 0.74782 0.37144 0.0
C1050 C 0.31777 0.4126 0.28951 0.0
C1051 C 0.31981 0.4112 0.24352 0.0
C1052 C 0.30952 0.39714 0.31238 0.0
C1053 C 0.27928 0.34723 0.29873 0.0
H1054 H 0.30384 0.35003 0.41436 0.0
C1055 C 0.25868 0.2835 0.39198 0.0
C1056 C 0.25984 0.28518 0.43912 0.0
C1057 C 0.26532 0.29885 0.3685 0.0
C1058 C 0.29659 0.34904 0.38252 0.0
H1059 H 0.314 0.39209 0.18536 0.0
H1060 H 0.29935 0.36491 0.22549 0.0
H1061 H 0.31622 0.37635 0.37191 0.0
H1062 H 0.2688 0.3045 0.49835 0.0
H1063 H 0.28009 0.33138 0.45729 0.0
H1064 H 0.25952 0.32001 0.30947 0.0
C1065 C 0.30426 0.37814 0.2437 0.0
C1066 C 0.30376 0.36416 0.35801 0.0
C1067 C 0.31266 0.39372 0.22067 0.0
C1068 C 0.26773 0.30269 0.46213 0.0
C1069 C 0.2743 0.31812 0.43848 0.0
C1070 C 0.27202 0.33214 0.32341 0.0
C1071 C 0.30294 0.37972 0.29008 0.0
C1072 C 0.29523 0.36345 0.31576 0.0
C1073 C 0.27324 0.31642 0.39126 0.0
C1074 C 0.28061 0.33277 0.36563 0.0
H1075 H 0.3229 0.42575 0.30841 0.0
H1076 H 0.30841 0.39886 0.34782 0.0
H1077 H 0.27223 0.34628 0.26661 0.0
H1078 H 0.25282 0.27029 0.37289 0.0
H1079 H 0.26454 0.29688 0.33235 0.0
C1080 C 0.97668 0.38604 0.88937 0.0
C1081 C 0.96096 0.38656 0.8987 0.0
C1082 C 0.99255 0.39518 0.91952 0.0
C1083 C 0.01919 0.43187 1.00723 0.0
H1084 H 0.02988 0.39861 0.06613 0.0
C1085 C 0.07479 0.45735 0.15971 0.0
C1086 C 0.08431 0.44797 0.16513 0.0
C1087 C 0.05973 0.4506 0.12708 0.0
C1088 C 0.02751 0.40827 0.0496 0.0
H1089 H 0.94984 0.39785 0.94538 0.0
H1090 H 0.97785 0.41448 0.99681 0.0
H1091 H 1.00533 0.38684 1.00575 0.0
H1092 H 0.08528 0.42399 0.14135 0.0
H1093 H 0.06025 0.41297 0.08337 0.0
H1094 H 0.04172 0.45344 0.04963 0.0
C1095 C 0.97778 0.4068 0.96666 0.0
C1096 C 1.01328 0.40141 0.01504 0.0
C1097 C 0.96179 0.39729 0.93724 0.0
C1098 C 0.07831 0.43163 0.1379 0.0
C1099 C 0.06367 0.42515 0.10478 0.0
C1100 C 0.03379 0.43884 0.04112 0.0
C1101 C 0.99313 0.40541 0.95877 0.0
C1102 C 1.00895 0.4131 0.99358 0.0
C1103 C 0.05401 0.43442 0.09875 0.0
C1104 C 0.0382 0.42714 0.06297 0.0
H1105 H 0.97635 0.37769 0.86028 0.0
H1106 H 1.00423 0.39387 0.91286 0.0
H1107 H 1.01602 0.44115 0.99126 0.0
H1108 H 0.07904 0.46994 0.18042 0.0
H1109 H 0.05256 0.45805 0.12435 0.0
C1110 C 0.64556 0.59292 0.85731 0.0
C1111 C 0.6509 0.5812 0.87505 0.0
C1112 C 0.63728 0.60037 0.88347 0.0
C1113 C 0.63498 0.61237 1.0017 0.0
H1114 H 0.59429 0.61725 0.95594 0.0
C1115 C 0.60144 0.64223 0.11565 0.0
C1116 C 0.59557 0.65329 0.09645 0.0
C1117 C 0.60726 0.63242 0.08885 0.0
C1118 C 0.60581 0.61622 0.9692 0.0
H1119 H 0.65055 0.56723 0.9333 0.0
H1120 H 0.63638 0.58029 0.97859 0.0
H1121 H 0.6058 0.60205 0.9077 0.0
H1122 H 0.59154 0.66291 0.03394 0.0
H1123 H 0.60204 0.64639 0.98797 0.0
H1124 H 0.63537 0.6269 0.06275 0.0
C1125 C 0.63887 0.584 0.94484 0.0
C1126 C 0.61236 0.60745 0.94147 0.0
C1127 C 0.64698 0.57647 0.91872 0.0
C1128 C 0.59578 0.6544 0.04998 0.0
C1129 C 0.60171 0.64477 0.02338 0.0
C1130 C 0.62854 0.62129 0.02929 0.0
C1131 C 0.63427 0.59633 0.92794 0.0
C1132 C 0.62704 0.60544 0.95737 0.0
C1133 C 0.60747 0.63357 0.04228 0.0
C1134 C 0.61391 0.62343 0.01342 0.0
H1135 H 0.64837 0.59687 0.82387 0.0
H1136 H 0.63391 0.60987 0.86949 0.0
H1137 H 0.64648 0.61128 0.01481 0.0
H1138 H 0.60137 0.64099 0.15127 0.0
H1139 H 0.61138 0.62378 0.10463 0.0
C1140 C 0.43397 0.06231 0.8862 0.0
C1141 C 0.441 0.07991 0.90804 0.0
C1142 C 0.42799 0.04721 0.91094 0.0
C1143 C 0.43096 0.03501 0.0278 0.0
H1144 H 0.38854 0.98899 0.98075 0.0
C1145 C 0.39306 0.97391 0.13404 0.0
C1146 C 0.38716 0.95647 0.11245 0.0
C1147 C 0.40064 0.98927 0.11005 0.0
C1148 C 0.40051 1.00171 0.99427 0.0
H1149 H 0.44695 0.09526 0.9733 0.0
H1150 H 0.43625 0.06925 0.01564 0.0
H1151 H 0.39958 0.0147 0.9363 0.0
H1152 H 0.38546 0.94182 0.04881 0.0
H1153 H 0.39849 0.96831 1.00779 0.0
H1154 H 0.43159 0.02198 0.08619 0.0
C1155 C 0.43575 0.06698 0.97964 0.0
C1156 C 0.40691 0.01648 0.96862 0.0
C1157 C 0.4418 0.08198 0.9551 0.0
C1158 C 0.38963 0.95493 0.06678 0.0
C1159 C 0.39703 0.97016 0.04295 0.0
C1160 C 0.42445 0.02026 0.05362 0.0
C1161 C 0.4288 0.04935 0.9581 0.0
C1162 C 0.42224 0.03338 0.98496 0.0
C1163 C 0.40235 0.98749 0.06394 0.0
C1164 C 0.40917 1.0034 0.03713 0.0
H1165 H 0.4332 0.0602 0.85007 0.0
H1166 H 0.42293 0.0339 0.89306 0.0
H1167 H 0.443 0.04765 0.04137 0.0
H1168 H 0.39135 0.97564 0.16905 0.0
H1169 H 0.40458 1.00245 0.12724 0.0
C1170 C 0.65213 0.06166 0.89096 0.0
C1171 C 0.65385 0.0784 0.90632 0.0
C1172 C 0.64472 0.04694 0.91698 0.0
C1173 C 0.63402 0.03648 0.03474 0.0
H1174 H 0.60715 0.98674 0.97931 0.0
C1175 C 0.6114 0.97453 0.13875 0.0
C1176 C 0.59538 0.95821 0.12273 0.0
C1177 C 0.61828 0.98946 0.11331 0.0
C1178 C 0.61439 1.00053 0.9956 0.0
H1179 H 0.64832 0.09251 0.96012 0.0
H1180 H 0.63477 0.06687 1.00414 0.0
H1181 H 0.61869 1.01157 0.93255 0.0
H1182 H 0.5735 0.9451 0.06867 0.0
H1183 H 0.58486 0.97113 0.02573 0.0
H1184 H 0.62903 0.02545 0.0978 0.0
C1185 C 0.63976 0.06514 0.97302 0.0
C1186 C 0.62133 0.01486 0.96854 0.0
C1187 C 0.64739 0.07987 0.94743 0.0
C1188 C 0.58598 0.95743 0.08183 0.0
C1189 C 0.59266 0.97236 0.05685 0.0
C1190 C 0.62688 0.02215 0.06182 0.0
C1191 C 0.6386 0.04852 0.95873 0.0
C1192 C 0.63124 0.0331 0.98761 0.0
C1193 C 0.60916 0.98849 0.07151 0.0
C1194 C 0.6169 1.00392 0.04273 0.0
H1195 H 0.65712 0.06014 0.85963 0.0
H1196 H 0.6443 0.0345 0.90483 0.0
H1197 H 0.64186 0.05025 0.05102 0.0
H1198 H 0.61907 0.9755 0.16988 0.0
H1199 H 0.6311 1.0015 0.12577 0.0
C1200 C 0.07743 0.65721 0.13917 0.0
C1201 C 0.08354 0.64758 0.16446 0.0
C1202 C 0.0633 0.64816 0.10451 0.0
C1203 C 0.02187 0.60682 0.06781 0.0
H1204 H 0.03022 0.6207 0.94735 0.0
C1205 C 0.96269 0.57318 0.92591 0.0
C1206 C 0.96228 0.58377 0.8924 0.0
C1207 C 0.97826 0.57939 0.95611 0.0
C1208 C 0.02747 0.61678 0.98079 0.0
H1209 H 0.07912 0.62078 0.17435 0.0
H1210 H 0.05361 0.60472 0.11467 0.0
H1211 H 0.05546 0.63461 1.00674 0.0
H1212 H 0.97796 0.60911 0.86383 0.0
H1213 H 1.00482 0.62048 0.91761 0.0
H1214 H 0.99379 0.58997 0.04345 0.0
C1215 C 0.06021 0.61939 0.12121 0.0
C1216 C 0.04204 0.62466 0.01473 0.0
C1217 C 0.07474 0.62855 0.15532 0.0
C1218 C 0.97797 0.60054 0.88895 0.0
C1219 C 0.99344 0.60701 0.91993 0.0
C1220 C 1.00719 0.59925 0.03419 0.0
C1221 C 0.05455 0.62918 0.09512 0.0
C1222 C 0.03937 0.61981 0.05858 0.0
C1223 C 0.99375 0.59667 0.95459 0.0
C1224 C 1.00968 0.60416 0.99005 0.0
H1225 H 0.08368 0.67184 0.14592 0.0
H1226 H 0.05903 0.65598 0.08534 0.0
H1227 H 0.01941 0.60303 0.1015 0.0
H1228 H 0.95081 0.56012 0.9292 0.0
H1229 H 0.97797 0.57066 0.98105 0.0
C1230 C 0.40766 0.45952 0.15308 0.0
C1231 C 0.38895 0.44977 0.15794 0.0
C1232 C 0.41518 0.45272 0.12227 0.0
C1233 C 0.40378 0.40991 0.04889 0.0
H1234 H 0.44648 0.44302 0.99357 0.0
C1235 C 0.43054 0.38858 0.89551 0.0
C1236 C 0.44718 0.38955 0.90823 0.0
C1237 C 0.42383 0.39717 0.92363 0.0
C1238 C 0.43449 0.43366 1.00868 0.0
H1239 H 0.36357 0.42501 0.13511 0.0
H1240 H 0.37614 0.41384 0.07987 0.0
H1241 H 0.43391 0.4552 0.04762 0.0
H1242 H 0.47022 0.40097 0.95922 0.0
H1243 H 0.4589 0.41665 1.00706 0.0
H1244 H 0.40413 0.38848 1.00828 0.0
C1245 C 0.38538 0.42641 0.10046 0.0
C1246 C 0.42735 0.44058 0.04018 0.0
C1247 C 0.37803 0.43297 0.13196 0.0
C1248 C 0.4574 0.40006 0.9484 0.0
C1249 C 0.45094 0.40903 0.9758 0.0
C1250 C 0.41065 0.40307 0.01662 0.0
C1251 C 0.40411 0.4361 0.09499 0.0
C1252 C 0.41189 0.42882 0.0611 0.0
C1253 C 0.43389 0.40729 0.96427 0.0
C1254 C 0.42611 0.41485 0.99636 0.0
H1255 H 0.41648 0.47244 0.17294 0.0
H1256 H 0.42971 0.46051 0.1202 0.0
H1257 H 0.39224 0.4002 0.06471 0.0
H1258 H 0.42225 0.38038 0.86513 0.0
H1259 H 0.4106 0.39559 0.91412 0.0
C1260 C 0.05683 0.21343 0.49274 0.0
C1261 C 0.05722 0.22935 0.48125 0.0
C1262 C 0.07171 0.21087 0.48625 0.0
C1263 C 0.12137 0.23966 0.47947 0.0
H1264 H 0.12078 0.19447 0.44945 0.0
C1265 C 0.18837 0.24176 0.45849 0.0
C1266 C 0.19166 0.22927 0.47947 0.0
C1267 C 0.1708 0.23915 0.45226 0.0
C1268 C 0.12116 0.20718 0.45815 0.0
H1269 H 0.07269 0.25436 0.45125 0.0
H1270 H 0.098 0.2496 0.43797 0.0
H1271 H 0.0919 0.1945 0.44948 0.0
H1272 H 0.17894 0.20372 0.5086 0.0
H1273 H 0.14796 0.19916 0.49822 0.0
H1274 H 0.15034 0.25239 0.48892 0.0
C1275 C 0.08665 0.23929 0.45325 0.0
C1276 C 0.1046 0.20721 0.45816 0.0
C1277 C 0.072 0.24192 0.46022 0.0
C1278 C 0.17674 0.21343 0.49169 0.0
C1279 C 0.15902 0.2109 0.48592 0.0
C1280 C 0.13776 0.23964 0.47945 0.0
C1281 C 0.08718 0.22419 0.46809 0.0
C1282 C 0.1045 0.22354 0.46826 0.0
C1283 C 0.15596 0.22414 0.46773 0.0
C1284 C 0.13801 0.2235 0.46823 0.0
H1285 H 0.04575 0.20369 0.50983 0.0
H1286 H 0.07159 0.19908 0.49813 0.0
H1287 H 0.12197 0.25243 0.48899 0.0
H1288 H 0.19962 0.2541 0.44877 0.0
H1289 H 0.169 0.24939 0.43692 0.0
C1290 C 0.7918 0.95816 0.43896 0.0
C1291 C 0.80446 0.97199 0.47165 0.0
C1292 C 0.79233 0.94201 0.43 0.0
C1293 C 0.82199 0.92153 0.44889 0.0
H1294 H 0.77635 0.87591 0.4436 0.0
C1295 C 0.81835 0.85543 0.49685 0.0
C1296 C 0.80507 0.8385 0.47435 0.0
C1297 C 0.81889 0.87154 0.48709 0.0
C1298 C 0.78921 0.88848 0.44421 0.0
H1299 H 0.82805 0.97998 0.51896 0.0
H1300 H 0.82907 0.95225 0.50334 0.0
H1301 H 0.77616 0.90448 0.44294 0.0
H1302 H 0.78218 0.82537 0.4229 0.0
H1303 H 0.78313 0.8536 0.40572 0.0
H1304 H 0.83508 0.90564 0.45154 0.0
C1305 C 0.81874 0.9537 0.48432 0.0
C1306 C 0.78911 0.90492 0.44381 0.0
C1307 C 0.81811 0.96965 0.49348 0.0
C1308 C 0.79272 0.83819 0.44053 0.0
C1309 C 0.79313 0.85436 0.43108 0.0
C1310 C 0.8221 0.90514 0.44939 0.0
C1311 C 0.80566 0.93944 0.45314 0.0
C1312 C 0.80553 0.92174 0.4473 0.0
C1313 C 0.80607 0.87124 0.45478 0.0
C1314 C 0.80574 0.8884 0.44819 0.0
H1315 H 0.78098 0.95942 0.42189 0.0
H1316 H 0.78212 0.93142 0.40549 0.0
H1317 H 0.83491 0.93411 0.4506 0.0
H1318 H 0.82803 0.85621 0.52322 0.0
H1319 H 0.82893 0.88416 0.50646 0.0
C1320 C 0.0611 0.84393 0.45947 0.0
C1321 C 0.05632 0.84039 0.50327 0.0
C1322 C 0.0763 0.86062 0.4516 0.0
C1323 C 0.1085 0.90773 0.50941 0.0
H1324 H 0.13942 0.91048 0.41748 0.0
C1325 C 0.18717 0.95843 0.46465 0.0
C1326 C 0.18964 0.97491 0.4849 0.0
C1327 C 0.1699 0.94257 0.45972 0.0
C1328 C 0.13111 0.91002 0.44374 0.0
H1329 H 0.0644 0.85164 0.57311 0.0
H1330 H 0.09061 0.87971 0.55983 0.0
H1331 H 0.11175 0.88177 0.42395 0.0
H1332 H 0.17587 0.98806 0.51311 0.0
H1333 H 0.14565 0.96106 0.50133 0.0
H1334 H 0.12818 0.93531 0.53164 0.0
C1335 C 0.08241 0.8702 0.53101 0.0
C1336 C 0.11496 0.89349 0.44695 0.0
C1337 C 0.06726 0.85383 0.53872 0.0
C1338 C 0.17435 0.97551 0.49747 0.0
C1339 C 0.15701 0.95984 0.49134 0.0
C1340 C 0.12472 0.92405 0.50682 0.0
C1341 C 0.08717 0.87407 0.48739 0.0
C1342 C 0.10355 0.89199 0.48046 0.0
C1343 C 0.15455 0.94287 0.47406 0.0
C1344 C 0.13649 0.92553 0.47426 0.0
H1345 H 0.05309 0.83388 0.43135 0.0
H1346 H 0.07939 0.86301 0.41744 0.0
H1347 H 0.09997 0.90748 0.53494 0.0
H1348 H 0.19879 0.95751 0.45522 0.0
H1349 H 0.1689 0.92995 0.44672 0.0
C1350 C 0.23956 0.18534 0.58882 0.0
C1351 C 0.22695 0.18496 0.55571 0.0
C1352 C 0.23936 0.16921 0.59767 0.0
C1353 C 0.21089 0.11833 0.57767 0.0
H1354 H 0.25726 0.11993 0.58163 0.0
C1355 C 0.21635 0.05505 0.52772 0.0
C1356 C 0.23006 0.05274 0.54937 0.0
C1357 C 0.21539 0.07076 0.53799 0.0
C1358 C 0.2442 0.11923 0.58142 0.0
H1359 H 0.20369 0.16721 0.50768 0.0
H1360 H 0.20317 0.13935 0.52328 0.0
H1361 H 0.2565 0.14824 0.58334 0.0
H1362 H 0.25329 0.06511 0.59986 0.0
H1363 H 0.25161 0.09269 0.61803 0.0
H1364 H 0.19855 0.08934 0.57451 0.0
C1365 C 0.21325 0.15196 0.54261 0.0
C1366 C 0.24377 0.13552 0.58242 0.0
C1367 C 0.21357 0.16802 0.53351 0.0
C1368 C 0.24245 0.06636 0.58284 0.0
C1369 C 0.2416 0.08226 0.59287 0.0
C1370 C 0.21133 0.10209 0.57667 0.0
C1371 C 0.22639 0.15232 0.57401 0.0
C1372 C 0.22707 0.13527 0.57938 0.0
C1373 C 0.22819 0.08479 0.57007 0.0
C1374 C 0.22795 0.10224 0.57735 0.0
H1375 H 0.25018 0.19818 0.60619 0.0
H1376 H 0.24959 0.17001 0.62238 0.0
H1377 H 0.19779 0.11758 0.57623 0.0
H1378 H 0.20659 0.04488 0.5017 0.0
H1379 H 0.20501 0.07222 0.51925 0.0
C1380 C 0.84877 0.06204 0.57681 0.0
C1381 C 0.8457 0.04939 0.54025 0.0
C1382 C 0.86587 0.07796 0.58702 0.0
C1383 C 0.9147 0.09955 0.56431 0.0
H1384 H 0.91486 0.14499 0.58461 0.0
C1385 C 0.97479 0.16791 0.52756 0.0
C1386 C 0.97934 0.18417 0.55359 0.0
C1387 C 0.95977 0.15134 0.53508 0.0
C1388 C 0.91516 0.13245 0.57986 0.0
H1389 H 0.85841 0.04313 0.48714 0.0
H1390 H 0.88809 0.07059 0.505 0.0
H1391 H 0.88623 0.1161 0.58127 0.0
H1392 H 0.97185 0.19558 0.6091 0.0
H1393 H 0.94546 0.16644 0.62254 0.0
H1394 H 0.94351 0.11583 0.56185 0.0
C1395 C 0.87741 0.06834 0.52599 0.0
C1396 C 0.89868 0.11582 0.57789 0.0
C1397 C 0.86034 0.05257 0.5156 0.0
C1398 C 0.96883 0.18329 0.58871 0.0
C1399 C 0.95358 0.16661 0.59603 0.0
C1400 C 0.93113 0.11613 0.56635 0.0
C1401 C 0.88035 0.08149 0.56123 0.0
C1402 C 0.89815 0.09913 0.56897 0.0
C1403 C 0.94867 0.15044 0.56877 0.0
C1404 C 0.93156 0.13285 0.57299 0.0
H1405 H 0.83775 0.06004 0.59636 0.0
H1406 H 0.86766 0.08765 0.6147 0.0
H1407 H 0.91493 0.08701 0.55834 0.0
H1408 H 0.98256 0.16805 0.50018 0.0
H1409 H 0.95641 0.13933 0.51296 0.0
C1410 C 0.97503 0.81539 0.51494 0.0
C1411 C 0.97813 0.80318 0.5378 0.0
C1412 C 0.96058 0.81816 0.52373 0.0
C1413 C 0.92214 0.80519 0.59725 0.0
H1414 H 0.89941 0.81315 0.49216 0.0
C1415 C 0.84558 0.78327 0.56624 0.0
C1416 C 0.84097 0.79533 0.54753 0.0
C1417 C 0.86377 0.78761 0.5731 0.0
C1418 C 0.90571 0.81121 0.52206 0.0
H1419 H 0.96878 0.78446 0.5883 0.0
H1420 H 0.94302 0.78851 0.60248 0.0
H1421 H 0.92829 0.81421 0.48874 0.0
H1422 H 0.85182 0.82162 0.52228 0.0
H1423 H 0.88379 0.82907 0.53309 0.0
H1424 H 0.89856 0.80088 0.62913 0.0
C1425 C 0.95209 0.79665 0.57895 0.0
C1426 C 0.92245 0.8119 0.52032 0.0
C1427 C 0.96693 0.7943 0.571 0.0
C1428 C 0.85501 0.81219 0.53734 0.0
C1429 C 0.87326 0.81636 0.54318 0.0
C1430 C 0.90516 0.80412 0.59861 0.0
C1431 C 0.94829 0.8082 0.55435 0.0
C1432 C 0.93096 0.80876 0.55775 0.0
C1433 C 0.8778 0.80394 0.56033 0.0
C1434 C 0.89668 0.80698 0.5609 0.0
H1435 H 0.98339 0.82227 0.48885 0.0
H1436 H 0.95874 0.82769 0.50511 0.0
H1437 H 0.92821 0.80304 0.62718 0.0
H1438 H 0.83499 0.77011 0.57401 0.0
H1439 H 0.86676 0.77768 0.586 0.0
C1440 C 0.85762 0.5677 0.72773 0.0
C1441 C 0.8591 0.55611 0.75688 0.0
C1442 C 0.84073 0.56661 0.71718 0.0
C1443 C 0.7905 0.53705 0.72448 0.0
H1444 H 0.79051 0.58261 0.73377 0.0
C1445 C 0.72911 0.54242 0.77534 0.0
C1446 C 0.72484 0.55464 0.75613 0.0
C1447 C 0.74449 0.54156 0.76508 0.0
C1448 C 0.79022 0.56975 0.73026 0.0
H1449 H 0.8438 0.53367 0.79578 0.0
H1450 H 0.81471 0.5317 0.77751 0.0
H1451 H 0.81936 0.58294 0.73368 0.0
H1452 H 0.73327 0.57528 0.71005 0.0
H1453 H 0.76035 0.57388 0.69223 0.0
H1454 H 0.76144 0.5239 0.72281 0.0
C1455 C 0.8264 0.54162 0.76245 0.0
C1456 C 0.80681 0.56993 0.73015 0.0
C1457 C 0.84318 0.54281 0.77318 0.0
C1458 C 0.73606 0.56559 0.72509 0.0
C1459 C 0.75168 0.56491 0.71526 0.0
C1460 C 0.77397 0.53689 0.72481 0.0
C1461 C 0.82493 0.55376 0.73516 0.0
C1462 C 0.80723 0.55358 0.72849 0.0
C1463 C 0.75624 0.55306 0.73567 0.0
C1464 C 0.77361 0.55323 0.72888 0.0
H1465 H 0.86964 0.57823 0.71499 0.0
H1466 H 0.84013 0.57607 0.69571 0.0
H1467 H 0.79018 0.52417 0.7221 0.0
H1468 H 0.72081 0.53381 0.79944 0.0
H1469 H 0.74761 0.5324 0.78185 0.0
C1470 C 0.48494 0.30929 0.80362 0.0
C1471 C 0.47075 0.31128 0.78365 0.0
C1472 C 0.48561 0.29339 0.79403 0.0
C1473 C 0.45579 0.2444 0.75653 0.0
H1474 H 0.50193 0.24554 0.7586 0.0
C1475 C 0.46014 0.17819 0.75343 0.0
C1476 C 0.47293 0.17894 0.78666 0.0
C1477 C 0.46031 0.19417 0.74328 0.0
C1478 C 0.48891 0.24494 0.75798 0.0
H1479 H 0.44638 0.29817 0.73668 0.0
H1480 H 0.4476 0.27028 0.71951 0.0
H1481 H 0.50136 0.27382 0.75771 0.0
H1482 H 0.49643 0.19716 0.83355 0.0
H1483 H 0.49693 0.22481 0.81548 0.0
H1484 H 0.44342 0.2155 0.75781 0.0
C1485 C 0.45818 0.28108 0.74293 0.0
C1486 C 0.48857 0.2612 0.75754 0.0
C1487 C 0.45759 0.29716 0.75235 0.0
C1488 C 0.48642 0.19608 0.80767 0.0
C1489 C 0.48673 0.21199 0.79717 0.0
C1490 C 0.45613 0.22809 0.75683 0.0
C1491 C 0.47207 0.27887 0.76425 0.0
C1492 C 0.47207 0.26126 0.75808 0.0
C1493 C 0.47343 0.21126 0.76564 0.0
C1494 C 0.47275 0.22819 0.75879 0.0
H1495 H 0.4953 0.31986 0.82795 0.0
H1496 H 0.49639 0.29222 0.81166 0.0
H1497 H 0.44283 0.24385 0.75734 0.0
H1498 H 0.44943 0.1652 0.73698 0.0
H1499 H 0.44994 0.1931 0.71856 0.0
C1500 C 0.72617 0.19423 0.80808 0.0
C1501 C 0.7208 0.17673 0.78782 0.0
C1502 C 0.74152 0.20963 0.79618 0.0
C1503 C 0.78564 0.22382 0.75316 0.0
H1504 H 0.78677 0.26958 0.74542 0.0
C1505 C 0.85356 0.29129 0.73995 0.0
C1506 C 0.8561 0.30622 0.76859 0.0
C1507 C 0.8363 0.27535 0.73199 0.0
C1508 C 0.78679 0.25696 0.7477 0.0
H1509 H 0.72729 0.16182 0.7384 0.0
H1510 H 0.75427 0.18877 0.71788 0.0
H1511 H 0.75795 0.24198 0.75149 0.0
H1512 H 0.84232 0.31648 0.8092 0.0
H1513 H 0.81268 0.28914 0.7956 0.0
H1514 H 0.81461 0.23893 0.75133 0.0
C1515 C 0.7465 0.19053 0.74292 0.0
C1516 C 0.77019 0.2411 0.75109 0.0
C1517 C 0.73092 0.1751 0.75436 0.0
C1518 C 0.84087 0.30524 0.78692 0.0
C1519 C 0.82374 0.2895 0.77885 0.0
C1520 C 0.80231 0.23976 0.75014 0.0
C1521 C 0.75212 0.20798 0.7641 0.0
C1522 C 0.76943 0.22438 0.75491 0.0
C1523 C 0.82121 0.27411 0.75216 0.0
C1524 C 0.80321 0.25668 0.74854 0.0
H1525 H 0.71875 0.196 0.83407 0.0
H1526 H 0.74551 0.22279 0.81353 0.0
H1527 H 0.7856 0.21122 0.75634 0.0
H1528 H 0.86505 0.29154 0.72569 0.0
H1529 H 0.83487 0.26387 0.71085 0.0
C1530 C 0.89131 0.50351 0.77554 0.0
C1531 C 0.89853 0.51848 0.8084 0.0
C1532 C 0.88797 0.48648 0.78651 0.0
C1533 C 0.90547 0.46564 0.86023 0.0
H1534 H 0.8613 0.42081 0.81461 0.0
C1535 C 0.90083 0.39529 0.86693 0.0
C1536 C 0.89212 0.38294 0.82825 0.0
C1537 C 0.89939 0.41102 0.87337 0.0
C1538 C 0.87383 0.43315 0.82731 0.0
H1539 H 0.90783 0.52738 0.87877 0.0
H1540 H 0.90249 0.49748 0.89797 0.0
H1541 H 0.86277 0.44992 0.80918 0.0
H1542 H 0.87443 0.377 0.7672 0.0
H1543 H 0.87222 0.4042 0.77767 0.0
H1544 H 0.917 0.44906 0.87582 0.0
C1545 C 0.89908 0.49895 0.86379 0.0
C1546 C 0.87458 0.44985 0.8245 0.0
C1547 C 0.90198 0.51598 0.85294 0.0
C1548 C 0.88129 0.38621 0.79741 0.0
C1549 C 0.87993 0.40186 0.80367 0.0
C1550 C 0.90483 0.44891 0.86242 0.0
C1551 C 0.89222 0.48407 0.83049 0.0
C1552 C 0.89053 0.46632 0.84 0.0
C1553 C 0.88924 0.41476 0.84127 0.0
C1554 C 0.88915 0.4324 0.84488 0.0
H1555 H 0.8887 0.50511 0.74088 0.0
H1556 H 0.88284 0.47538 0.76002 0.0
H1557 H 0.91802 0.47811 0.87212 0.0
H1558 H 0.9093 0.39319 0.89133 0.0
H1559 H 0.90653 0.42039 0.90314 0.0
C1560 C 0.52605 0.38946 0.80863 0.0
C1561 C 0.51344 0.38785 0.83867 0.0
C1562 C 0.5438 0.40437 0.81384 0.0
C1563 C 0.57104 0.45236 0.86544 0.0
H1564 H 0.61046 0.4481 0.81935 0.0
C1565 C 0.64291 0.51537 0.85016 0.0
C1566 C 0.64769 0.51591 0.8061 0.0
C1567 C 0.62836 0.49937 0.86316 0.0
C1568 C 0.59963 0.44953 0.83259 0.0
H1569 H 0.5099 0.40037 0.89915 0.0
H1570 H 0.5412 0.4264 0.90903 0.0
H1571 H 0.58171 0.42071 0.82723 0.0
H1572 H 0.64161 0.50007 0.74192 0.0
H1573 H 0.617 0.47212 0.76497 0.0
H1574 H 0.58917 0.48132 0.87043 0.0
C1575 C 0.53721 0.41621 0.88079 0.0
C1576 C 0.58304 0.4338 0.83685 0.0
C1577 C 0.51931 0.40118 0.87547 0.0
C1578 C 0.63837 0.49998 0.77623 0.0
C1579 C 0.62423 0.48396 0.78945 0.0
C1580 C 0.58778 0.46814 0.86172 0.0
C1581 C 0.54965 0.4182 0.84951 0.0
C1582 C 0.56823 0.43493 0.85187 0.0
C1583 C 0.61869 0.48354 0.83266 0.0
C1584 C 0.60209 0.46692 0.84394 0.0
H1585 H 0.52199 0.37946 0.77984 0.0
H1586 H 0.55267 0.40537 0.7885 0.0
H1587 H 0.56002 0.45393 0.87683 0.0
H1588 H 0.64966 0.52757 0.87363 0.0
H1589 H 0.62443 0.49947 0.89671 0.0
C1590 C 0.6427 0.1497 0.84843 0.0
C1591 C 0.64179 0.13341 0.85866 0.0
C1592 C 0.62794 0.1525 0.85462 0.0
C1593 C 0.57802 0.1243 0.85928 0.0
H1594 H 0.57953 0.16963 0.89396 0.0
C1595 C 0.51191 0.12295 0.88578 0.0
C1596 C 0.5085 0.13534 0.86472 0.0
C1597 C 0.52946 0.12551 0.89125 0.0
C1598 C 0.57891 0.1569 0.88398 0.0
H1599 H 0.62556 0.10803 0.88655 0.0
H1600 H 0.60048 0.11315 0.8993 0.0
H1601 H 0.60812 0.16906 0.8926 0.0
H1602 H 0.52102 0.16074 0.83488 0.0
H1603 H 0.55202 0.16526 0.84415 0.0
H1604 H 0.54909 0.11207 0.85026 0.0
C1605 C 0.61209 0.12354 0.88496 0.0
C1606 C 0.5953 0.15657 0.88317 0.0
C1607 C 0.62659 0.12068 0.87819 0.0
C1608 C 0.52332 0.15111 0.85188 0.0
C1609 C 0.54104 0.15362 0.85698 0.0
C1610 C 0.56182 0.12462 0.86023 0.0
C1611 C 0.61212 0.13907 0.87139 0.0
C1612 C 0.59504 0.14015 0.87145 0.0
C1613 C 0.54416 0.1404 0.87504 0.0
C1614 C 0.56193 0.14081 0.87322 0.0
H1615 H 0.65418 0.15965 0.83279 0.0
H1616 H 0.6285 0.16463 0.84384 0.0
H1617 H 0.57716 0.11151 0.8485 0.0
H1618 H 0.50074 0.11066 0.89594 0.0
H1619 H 0.53137 0.11529 0.9064 0.0
C1620 C 0.516 0.88906 0.22464 0.0
C1621 C 0.52823 0.89557 0.19209 0.0
C1622 C 0.49845 0.88633 0.21692 0.0
C1623 C 0.46277 0.88381 0.13446 0.0
H1624 H 0.45211 0.9044 0.23893 0.0
C1625 C 0.4008 0.89694 0.14473 0.0
C1626 C 0.39342 0.89423 0.18605 0.0
C1627 C 0.41592 0.89474 0.13858 0.0
C1628 C 0.45467 0.89836 0.20954 0.0
H1629 H 0.53142 0.90346 0.12473 0.0
H1630 H 0.50047 0.8989 0.11114 0.0
H1631 H 0.48068 0.90469 0.24019 0.0
H1632 H 0.39492 0.8857 0.25164 0.0
H1633 H 0.42046 0.88116 0.2405 0.0
H1634 H 0.43646 0.87765 0.10395 0.0
C1635 C 0.50447 0.89565 0.14255 0.0
C1636 C 0.47114 0.89853 0.21027 0.0
C1637 C 0.52214 0.89818 0.15019 0.0
C1638 C 0.40038 0.88794 0.21951 0.0
C1639 C 0.41517 0.88553 0.21325 0.0
C1640 C 0.44609 0.88364 0.13372 0.0
C1641 C 0.4927 0.89043 0.17669 0.0
C1642 C 0.47532 0.89092 0.17325 0.0
C1643 C 0.42375 0.88974 0.17363 0.0
C1644 C 0.44169 0.89058 0.17176 0.0
H1645 H 0.52033 0.8869 0.2572 0.0
H1646 H 0.48964 0.8818 0.24352 0.0
H1647 H 0.4656 0.87795 0.10524 0.0
H1648 H 0.39582 0.90204 0.1186 0.0
H1649 H 0.42216 0.89806 0.1076 0.0
C1650 C 0.1276 0.62995 0.1211 0.0
C1651 C 0.14013 0.64354 0.15443 0.0
C1652 C 0.12808 0.61382 0.11154 0.0
C1653 C 0.15756 0.59317 0.129 0.0
H1654 H 0.11187 0.54751 0.1221 0.0
C1655 C 0.15407 0.52658 0.1713 0.0
C1656 C 0.14078 0.50982 0.14804 0.0
C1657 C 0.1545 0.54277 0.16321 0.0
C1658 C 0.12474 0.56009 0.12315 0.0
H1659 H 0.16345 0.6511 0.20236 0.0
H1660 H 0.16437 0.62336 0.18569 0.0
H1661 H 0.11173 0.57613 0.12328 0.0
H1662 H 0.11772 0.49713 0.09699 0.0
H1663 H 0.11848 0.52552 0.0827 0.0
H1664 H 0.17061 0.57724 0.13007 0.0
C1665 C 0.15417 0.62501 0.16667 0.0
C1666 C 0.12466 0.57656 0.12382 0.0
C1667 C 0.15359 0.64096 0.17645 0.0
C1668 C 0.12824 0.50979 0.11529 0.0
C1669 C 0.12856 0.52605 0.10744 0.0
C1670 C 0.15764 0.57676 0.12837 0.0
C1671 C 0.14124 0.61103 0.13471 0.0
C1672 C 0.14111 0.59337 0.12789 0.0
C1673 C 0.14156 0.54275 0.13177 0.0
C1674 C 0.14127 0.55999 0.12656 0.0
H1675 H 0.11695 0.63142 0.1038 0.0
H1676 H 0.11799 0.60343 0.08645 0.0
H1677 H 0.17048 0.60578 0.13117 0.0
H1678 H 0.16395 0.52717 0.19679 0.0
H1679 H 0.16458 0.55524 0.18305 0.0
C1680 C 0.52366 0.62492 0.12256 0.0
C1681 C 0.52793 0.64198 0.14343 0.0
C1682 C 0.50558 0.6107 0.11434 0.0
C1683 C 0.46255 0.5937 0.16273 0.0
H1684 H 0.44292 0.55806 0.05817 0.0
C1685 C 0.39269 0.52855 0.1603 0.0
C1686 C 0.39075 0.51217 0.14088 0.0
C1687 C 0.40762 0.54535 0.15352 0.0
C1688 C 0.44821 0.56775 0.08785 0.0
H1689 H 0.51659 0.65779 0.1707 0.0
H1690 H 0.48477 0.63273 0.15693 0.0
H1691 H 0.47222 0.58601 0.05822 0.0
H1692 H 0.40271 0.50062 0.09786 0.0
H1693 H 0.42912 0.52986 0.08703 0.0
H1694 H 0.43925 0.57525 0.19352 0.0
C1695 C 0.49549 0.63044 0.1466 0.0
C1696 C 0.46498 0.58387 0.08771 0.0
C1697 C 0.51366 0.64484 0.15408 0.0
C1698 C 0.4037 0.51302 0.11284 0.0
C1699 C 0.41888 0.52986 0.10667 0.0
C1700 C 0.44592 0.57752 0.16312 0.0
C1701 C 0.49129 0.61306 0.12758 0.0
C1702 C 0.47247 0.59696 0.12536 0.0
C1703 C 0.42133 0.5463 0.1279 0.0
C1704 C 0.43853 0.56415 0.12589 0.0
H1705 H 0.53443 0.62232 0.1143 0.0
H1706 H 0.50292 0.59752 0.10004 0.0
H1707 H 0.46805 0.6033 0.19261 0.0
H1708 H 0.38286 0.52837 0.18183 0.0
H1709 H 0.40858 0.55759 0.16934 0.0
C1710 C 0.54727 0.72236 0.2191 0.0
C1711 C 0.56259 0.7214 0.23498 0.0
C1712 C 0.54681 0.73845 0.22663 0.0
C1713 C 0.5694 0.78503 0.28778 0.0
H1714 H 0.55267 0.79608 0.17775 0.0
C1715 C 0.57987 0.857 0.2591 0.0
C1716 C 0.56653 0.85758 0.23042 0.0
C1717 C 0.57867 0.84028 0.2661 0.0
C1718 C 0.55709 0.79318 0.20914 0.0
H1719 H 0.58903 0.7363 0.27372 0.0
H1720 H 0.58828 0.76464 0.28693 0.0
H1721 H 0.55162 0.76724 0.18004 0.0
H1722 H 0.54082 0.84097 0.1893 0.0
H1723 H 0.53835 0.81203 0.20266 0.0
H1724 H 0.57499 0.81125 0.31663 0.0
C1725 C 0.57652 0.75282 0.26892 0.0
C1726 C 0.55651 0.77655 0.21042 0.0
C1727 C 0.57691 0.73654 0.26161 0.0
C1728 C 0.55145 0.84105 0.21118 0.0
C1729 C 0.55013 0.82442 0.21856 0.0
C1730 C 0.56991 0.80177 0.28657 0.0
C1731 C 0.56177 0.75418 0.2498 0.0
C1732 C 0.56251 0.77212 0.24976 0.0
C1733 C 0.56402 0.82376 0.24482 0.0
C1734 C 0.56362 0.80602 0.24722 0.0
H1735 H 0.53601 0.71091 0.19856 0.0
H1736 H 0.53501 0.73881 0.21243 0.0
H1737 H 0.57415 0.78209 0.31865 0.0
H1738 H 0.59176 0.8695 0.27414 0.0
H1739 H 0.58967 0.8404 0.28642 0.0
C1740 C 0.30478 0.85518 0.24659 0.0
C1741 C 0.31707 0.85574 0.21659 0.0
C1742 C 0.2892 0.83856 0.25251 0.0
C1743 C 0.25912 0.79324 0.18976 0.0
H1744 H 0.23771 0.77904 0.30102 0.0
C1745 C 0.19668 0.72259 0.19326 0.0
C1746 C 0.1824 0.72134 0.21668 0.0
C1747 C 0.21385 0.73838 0.19933 0.0
C1748 C 0.24344 0.78286 0.2696 0.0
H1749 H 0.32329 0.83906 0.17199 0.0
H1750 H 0.29661 0.81035 0.18289 0.0
H1751 H 0.26636 0.80792 0.30093 0.0
H1752 H 0.17519 0.73535 0.26675 0.0
H1753 H 0.20518 0.76315 0.27699 0.0
H1754 H 0.23629 0.76862 0.15804 0.0
C1755 C 0.2986 0.82271 0.20094 0.0
C1756 C 0.25988 0.79943 0.26958 0.0
C1757 C 0.31402 0.83921 0.19491 0.0
C1758 C 0.18597 0.73587 0.24838 0.0
C1759 C 0.20318 0.75183 0.25419 0.0
C1760 C 0.24278 0.77682 0.18975 0.0
C1761 C 0.28563 0.82217 0.22859 0.0
C1762 C 0.26803 0.80475 0.22963 0.0
C1763 C 0.21719 0.75352 0.2286 0.0
C1764 C 0.23473 0.77124 0.22965 0.0
H1765 H 0.30665 0.86766 0.26362 0.0
H1766 H 0.27952 0.83869 0.27406 0.0
H1767 H 0.26465 0.79706 0.15811 0.0
H1768 H 0.19438 0.71157 0.16884 0.0
H1769 H 0.22439 0.7389 0.17998 0.0
C1770 C 0.30823 0.47021 0.22207 0.0
C1771 C 0.31679 0.47532 0.18266 0.0
C1772 C 0.29353 0.47287 0.23005 0.0
C1773 C 0.2579 0.47619 0.16198 0.0
H1774 H 0.24382 0.48739 0.27445 0.0
C1775 C 0.19566 0.48412 0.15872 0.0
C1776 C 0.18274 0.47461 0.18811 0.0
C1777 C 0.21338 0.48723 0.16579 0.0
C1778 C 0.24755 0.48416 0.24284 0.0
H1779 H 0.31784 0.48848 0.12285 0.0
H1780 H 0.29316 0.494 0.13766 0.0
H1781 H 0.27279 0.48754 0.27316 0.0
H1782 H 0.1784 0.46163 0.24935 0.0
H1783 H 0.20957 0.46681 0.26161 0.0
H1784 H 0.23287 0.47249 0.13149 0.0
C1785 C 0.29715 0.48737 0.16176 0.0
C1786 C 0.26414 0.48425 0.2421 0.0
C1787 C 0.31149 0.48444 0.15351 0.0
C1788 C 0.18824 0.46931 0.22663 0.0
C1789 C 0.20606 0.47219 0.23345 0.0
C1790 C 0.24151 0.47612 0.16272 0.0
C1791 C 0.2873 0.48078 0.19882 0.0
C1792 C 0.26965 0.48052 0.20141 0.0
C1793 C 0.21859 0.48047 0.20188 0.0
C1794 C 0.23616 0.48037 0.20291 0.0
H1795 H 0.31189 0.46286 0.2447 0.0
H1796 H 0.28631 0.46764 0.25897 0.0
H1797 H 0.26124 0.47258 0.13021 0.0
H1798 H 0.19174 0.48827 0.12867 0.0
H1799 H 0.22276 0.49411 0.14146 0.0
C1800 C 1.00319 0.24235 0.17543 0.0
C1801 C 1.0097 0.23258 0.19873 0.0
C1802 C 1.00514 0.2441 0.12984 0.0
C1803 C 0.03074 0.23974 0.03872 0.0
H1804 H 0.99023 0.23515 0.96138 0.0
C1805 C 0.02844 0.2322 0.8462 0.0
C1806 C 0.02257 0.24233 0.82225 0.0
C1807 C 0.02655 0.23093 0.8919 0.0
C1808 C 1.00174 0.23665 0.98256 0.0
H1809 H 0.02344 0.21705 0.19228 0.0
H1810 H 0.02676 0.22001 0.1128 0.0
H1811 H 0.98809 0.23362 0.04165 0.0
H1812 H 1.00985 0.25887 0.8277 0.0
H1813 H 1.00647 0.25657 0.90745 0.0
H1814 H 0.04434 0.24265 0.97959 0.0
C1815 C 0.02039 0.22658 0.12989 0.0
C1816 C 1.00053 0.23581 0.02865 0.0
C1817 C 0.0185 0.22488 0.17552 0.0
C1818 C 1.01432 0.25077 0.84495 0.0
C1819 C 1.01241 0.24948 0.89072 0.0
C1820 C 0.03192 0.24054 0.99266 0.0
C1821 C 1.01359 0.23607 0.10634 0.0
C1822 C 1.01501 0.2373 0.05734 0.0
C1823 C 0.01871 0.23972 0.91487 0.0
C1824 C 1.01742 0.23895 0.96396 0.0
H1825 H 0.99659 0.24868 0.19247 0.0
H1826 H 1.00005 0.25181 0.11306 0.0
H1827 H 0.04227 0.24125 0.05983 0.0
H1828 H 0.03455 0.22525 0.82962 0.0
H1829 H 0.03121 0.22299 0.90923 0.0
C1830 C 0.80239 0.78381 0.19266 0.0
C1831 C 0.78701 0.78043 0.21447 0.0
C1832 C 0.80279 0.78617 0.14707 0.0
C1833 C 0.77243 0.77608 0.0428 0.0
H1834 H 0.81715 0.81104 0.99759 0.0
C1835 C 0.77603 0.79291 0.85824 0.0
C1836 C 0.79132 0.79521 0.83752 0.0
C1837 C 0.77516 0.79094 0.90404 0.0
C1838 C 0.8046 0.80107 0.00959 0.0
H1839 H 0.76004 0.77713 0.20522 0.0
H1840 H 0.76086 0.78161 0.12577 0.0
H1841 H 0.81637 0.80868 0.07784 0.0
H1842 H 0.81764 0.79713 0.84888 0.0
H1843 H 0.81603 0.7935 0.92861 0.0
H1844 H 0.76067 0.76853 0.97441 0.0
C1845 C 0.77254 0.78219 0.1439 0.0
C1846 C 0.80414 0.79972 0.05567 0.0
C1847 C 0.77216 0.77984 0.18962 0.0
C1848 C 0.80559 0.79522 0.86364 0.0
C1849 C 0.80476 0.79336 0.90948 0.0
C1850 C 0.77288 0.77747 0.99668 0.0
C1851 C 0.78782 0.78524 0.12193 0.0
C1852 C 0.78809 0.78713 0.07292 0.0
C1853 C 0.7896 0.79133 0.93035 0.0
C1854 C 0.789 0.78992 0.97947 0.0
H1855 H 0.81417 0.78458 0.21084 0.0
H1856 H 0.81472 0.78832 0.13131 0.0
H1857 H 0.7599 0.76603 0.05473 0.0
H1858 H 0.76473 0.79268 0.83902 0.0
H1859 H 0.76332 0.78951 0.91905 0.0
C1860 C 0.22517 0.9901 0.15709 0.0
C1861 C 0.22702 1.00622 0.17817 0.0
C1862 C 0.22522 0.9878 0.11056 0.0
C1863 C 0.21899 1.00589 1.00558 0.0
H1864 H 0.24573 0.98422 0.95666 0.0
C1865 C 0.2367 1.01063 0.82244 0.0
C1866 C 0.23583 0.99535 0.7991 0.0
C1867 C 0.23451 1.01102 0.86817 0.0
C1868 C 0.23799 0.99008 0.96967 0.0
H1869 H 0.23083 0.03272 0.16666 0.0
H1870 H 0.23092 0.02873 0.08601 0.0
H1871 H 0.24392 0.98645 0.03721 0.0
H1872 H 0.2314 0.96827 0.80557 0.0
H1873 H 0.22761 0.96897 0.88526 0.0
H1874 H 0.21322 1.0097 0.93812 0.0
C1875 C 0.22902 0.01767 0.10517 0.0
C1876 C 0.23695 0.99135 0.01592 0.0
C1877 C 0.22895 0.01996 0.15155 0.0
C1878 C 0.23245 0.98038 0.82259 0.0
C1879 C 0.23028 0.98078 0.86833 0.0
C1880 C 0.22005 1.00464 0.95938 0.0
C1881 C 0.22716 1.00158 0.084 0.0
C1882 C 0.22756 0.99941 0.03454 0.0
C1883 C 0.2314 0.99615 0.89179 0.0
C1884 C 0.22969 0.99685 0.94084 0.0
H1885 H 0.2235 0.97918 0.1765 0.0
H1886 H 0.22355 0.97514 0.09534 0.0
H1887 H 0.21136 1.01187 0.01859 0.0
H1888 H 0.23956 0.02252 0.80567 0.0
H1889 H 0.23572 0.02319 0.88526 0.0
C1890 C 0.9966 0.77487 0.86509 0.0
C1891 C 1.00392 0.79221 0.84993 0.0
C1892 C 0.99389 0.77261 0.91021 0.0
C1893 C 1.01049 0.79855 0.02219 0.0
H1894 H 0.96925 0.75604 0.05986 0.0
C1895 C 1.00036 0.79037 0.20903 0.0
C1896 C 0.99543 0.77316 0.22264 0.0
C1897 C 0.99976 0.79281 0.16352 0.0
C1898 C 0.98091 0.76794 0.04987 0.0
H1899 H 1.0138 0.82073 0.87053 0.0
H1900 H 1.0086 0.8167 0.94871 0.0
H1901 H 0.97105 0.76003 0.98029 0.0
H1902 H 0.98526 0.74486 0.19893 0.0
H1903 H 0.98457 0.74918 0.11971 0.0
H1904 H 0.02049 0.80636 0.09156 0.0
C1905 C 1.00521 0.80487 0.92585 0.0
C1906 C 0.98194 0.77022 1.00425 0.0
C1907 C 1.00795 0.80714 0.8808 0.0
C1908 C 0.9894 0.75835 0.18963 0.0
C1909 C 0.98879 0.76079 0.14417 0.0
C1910 C 1.00945 0.79628 0.06773 0.0
C1911 C 0.99842 0.78764 0.94127 0.0
C1912 C 0.99681 0.7855 0.98983 0.0
C1913 C 0.99418 0.77809 0.13053 0.0
C1914 C 0.99472 0.78089 0.08215 0.0
H1915 H 0.99313 0.76303 0.84217 0.0
H1916 H 0.98876 0.75916 0.92095 0.0
H1917 H 0.0223 0.81032 0.01229 0.0
H1918 H 1.0052 0.80209 0.23351 0.0
H1919 H 1.00378 0.80628 0.15417 0.0
C1920 C 0.25609 0.2299 0.1709 0.0
C1921 C 0.24099 0.22793 0.19203 0.0
C1922 C 0.25694 0.232 0.12512 0.0
C1923 C 0.22752 0.22297 0.01995 0.0
H1924 H 0.27257 0.25723 0.97482 0.0
C1925 C 0.23005 0.24071 0.83708 0.0
C1926 C 0.24527 0.24372 0.81498 0.0
C1927 C 0.22965 0.23832 0.88268 0.0
C1928 C 0.25993 0.24741 0.98672 0.0
H1929 H 0.21497 0.22668 0.1813 0.0
H1930 H 0.21654 0.23053 0.10167 0.0
H1931 H 0.27181 0.25445 0.05503 0.0
H1932 H 0.27196 0.24635 0.82386 0.0
H1933 H 0.27113 0.24181 0.90327 0.0
H1934 H 0.21563 0.21586 0.95178 0.0
C1935 C 0.22768 0.23033 0.12045 0.0
C1936 C 0.25949 0.24584 0.0328 0.0
C1937 C 0.22688 0.22834 0.16627 0.0
C1938 C 0.25996 0.24393 0.83964 0.0
C1939 C 0.25957 0.24155 0.88536 0.0
C1940 C 0.22797 0.2245 0.97391 0.0
C1941 C 0.24266 0.23207 0.09918 0.0
C1942 C 0.24324 0.23367 0.05006 0.0
C1943 C 0.24445 0.23883 0.9076 0.0
C1944 C 0.24416 0.2368 0.95662 0.0
H1945 H 0.26728 0.22982 0.18978 0.0
H1946 H 0.26863 0.23319 0.10984 0.0
H1947 H 0.21485 0.21321 0.03192 0.0
H1948 H 0.21838 0.24023 0.81911 0.0
H1949 H 0.21785 0.23645 0.8986 0.0
C1950 C 0.79836 0.01448 0.19827 0.0
C1951 C 0.79977 0.03003 0.22158 0.0
C1952 C 0.80025 0.01385 0.15241 0.0
C1953 C 0.79672 0.03469 0.0509 0.0
H1954 H 0.82229 1.01189 1.00102 0.0
C1955 C 0.80836 0.03365 0.86279 0.0
C1956 C 0.80616 0.01736 0.84187 0.0
C1957 C 0.80855 0.03613 0.90936 0.0
C1958 C 0.81495 0.01815 0.01431 0.0
H1959 H 0.80487 0.05734 0.21493 0.0
H1960 H 0.80813 0.05621 0.13497 0.0
H1961 H 0.82098 0.01445 0.08168 0.0
H1962 H 0.80194 0.99073 0.8536 0.0
H1963 H 0.80222 0.99502 0.93433 0.0
H1964 H 0.79051 0.03821 0.98346 0.0
C1965 C 0.80526 0.04439 0.15206 0.0
C1966 C 0.81421 0.01963 0.06061 0.0
C1967 C 0.8034 0.04503 0.19793 0.0
C1968 C 0.80408 1.00361 0.86863 0.0
C1969 C 0.80424 1.00607 0.91503 0.0
C1970 C 0.79744 0.03319 1.00455 0.0
C1971 C 0.80359 0.02874 0.12864 0.0
C1972 C 0.80497 0.02779 0.07948 0.0
C1973 C 0.8065 0.02236 0.93608 0.0
C1974 C 0.80643 0.02476 0.9856 0.0
H1975 H 0.79529 1.00257 0.21519 0.0
H1976 H 0.79862 1.00149 0.13534 0.0
H1977 H 0.78929 0.04085 0.06421 0.0
H1978 H 0.81015 0.04457 0.84324 0.0
H1979 H 0.81052 0.04893 0.92448 0.0
C1980 C 0.67554 0.54182 0.14083 0.0
C1981 C 0.6795 0.55684 0.11696 0.0
C1982 C 0.67274 0.5423 0.18613 0.0
C1983 C 0.68362 0.57504 0.28545 0.0
H1984 H 0.6477 0.53274 0.33715 0.0
C1985 C 0.66937 0.57916 0.46928 0.0
C1986 C 0.66721 0.5649 0.49416 0.0
C1987 C 0.66986 0.57772 0.42294 0.0
C1988 C 0.65791 0.54462 0.32328 0.0
H1989 H 0.68322 0.58402 0.12208 0.0
H1990 H 0.67789 0.58466 0.20062 0.0
H1991 H 0.64994 0.53101 0.25661 0.0
H1992 H 0.66354 0.53775 0.48944 0.0
H1993 H 0.66471 0.53536 0.4085 0.0
H1994 H 0.69168 0.58863 0.35197 0.0
C1995 C 0.67723 0.57261 0.18448 0.0
C1996 C 0.65919 0.54363 0.27711 0.0
C1997 C 0.68005 0.57214 0.13922 0.0
C1998 C 0.66538 0.54906 0.47138 0.0
C1999 C 0.66585 0.54761 0.42491 0.0
C2000 C 0.68233 0.57603 0.33151 0.0
C2001 C 0.67381 0.55781 0.2087 0.0
C2002 C 0.67207 0.55884 0.25763 0.0
C2003 C 0.66825 0.562 0.40019 0.0
C2004 C 0.66947 0.56084 0.35103 0.0
H2005 H 0.67479 0.52973 0.12461 0.0
H2006 H 0.67025 0.5307 0.20376 0.0
H2007 H 0.69396 0.58691 0.27179 0.0
H2008 H 0.67106 0.59165 0.48573 0.0
H2009 H 0.67151 0.58897 0.4049 0.0
C2010 C 0.4406 0.12057 0.50531 0.0
C2011 C 0.45479 0.11981 0.52971 0.0
C2012 C 0.44113 0.12303 0.4596 0.0
C2013 C 0.4728 0.13866 0.37075 0.0
H2014 H 0.42847 0.1111 0.28986 0.0
C2015 C 0.47354 0.13569 0.17803 0.0
C2016 C 0.45985 0.13701 0.15286 0.0
C2017 C 0.47269 0.13348 0.22378 0.0
C2018 C 0.44095 0.11905 0.31201 0.0
H2019 H 0.48096 0.12162 0.52504 0.0
H2020 H 0.48172 0.12553 0.44562 0.0
H2021 H 0.42755 0.10799 0.3699 0.0
H2022 H 0.43424 0.13651 0.1562 0.0
H2023 H 0.43283 0.13279 0.23593 0.0
H2024 H 0.48622 0.14962 0.31284 0.0
C2025 C 0.4702 0.12436 0.46173 0.0
C2026 C 0.44042 0.11729 0.35802 0.0
C2027 C 0.46966 0.12189 0.50731 0.0
C2028 C 0.44512 0.13573 0.17457 0.0
C2029 C 0.44422 0.13342 0.22026 0.0
C2030 C 0.47334 0.14037 0.32476 0.0
C2031 C 0.4559 0.12485 0.43708 0.0
C2032 C 0.45635 0.12704 0.38808 0.0
C2033 C 0.45808 0.13243 0.24562 0.0
C2034 C 0.45744 0.13056 0.2947 0.0
H2035 H 0.42886 0.11887 0.52127 0.0
H2036 H 0.42997 0.12355 0.44196 0.0
H2037 H 0.4853 0.14664 0.39281 0.0
H2038 H 0.48517 0.13678 0.16262 0.0
H2039 H 0.4835 0.13254 0.24204 0.0
C2040 C 0.92287 0.36458 0.16038 0.0
C2041 C 0.90586 0.35933 0.13722 0.0
C2042 C 0.92554 0.36774 0.20715 0.0
C2043 C 0.90571 0.37558 0.30738 0.0
H2044 H 0.9321 0.35535 0.36727 0.0
C2045 C 0.90493 0.36605 0.49686 0.0
C2046 C 0.92142 0.36993 0.52067 0.0
C2047 C 0.90353 0.36615 0.45026 0.0
C2048 C 0.92489 0.36129 0.35115 0.0
H2049 H 0.87861 0.35426 0.14518 0.0
H2050 H 0.88312 0.35933 0.22664 0.0
H2051 H 0.92914 0.35362 0.28594 0.0
H2052 H 0.94933 0.3769 0.51387 0.0
H2053 H 0.94697 0.37738 0.43302 0.0
H2054 H 0.90125 0.38298 0.37286 0.0
C2055 C 0.89447 0.36114 0.2087 0.0
C2056 C 0.92322 0.36034 0.30443 0.0
C2057 C 0.89181 0.35802 0.16194 0.0
C2058 C 0.93649 0.37407 0.49677 0.0
C2059 C 0.93508 0.37413 0.45028 0.0
C2060 C 0.90734 0.37649 0.3542 0.0
C2061 C 0.91126 0.3657 0.23197 0.0
C2062 C 0.91358 0.36743 0.28188 0.0
C2063 C 0.91856 0.37003 0.42637 0.0
C2064 C 0.91694 0.36933 0.37663 0.0
H2065 H 0.93396 0.3656 0.14254 0.0
H2066 H 0.93875 0.37154 0.22391 0.0
H2067 H 0.89837 0.38138 0.29118 0.0
H2068 H 0.8931 0.36295 0.51425 0.0
H2069 H 0.89056 0.36279 0.43283 0.0
C2070 C 0.70248 0.13123 0.17949 0.0
C2071 C 0.69076 0.13534 0.15435 0.0
C2072 C 0.7009 0.12887 0.22504 0.0
C2073 C 0.68304 0.14051 0.32347 0.0
H2074 H 0.68852 0.10268 0.37483 0.0
C2075 C 0.66708 0.12305 0.50438 0.0
C2076 C 0.67813 0.11825 0.52998 0.0
C2077 C 0.66904 0.12543 0.45899 0.0
C2078 C 0.6872 0.11349 0.36124 0.0
H2079 H 0.66811 0.14012 0.15778 0.0
H2080 H 0.66521 0.13582 0.23697 0.0
H2081 H 0.69074 0.1058 0.29502 0.0
H2082 H 0.70007 0.11234 0.52745 0.0
H2083 H 0.70374 0.11684 0.44853 0.0
H2084 H 0.67957 0.14827 0.3896 0.0
C2085 C 0.67575 0.13455 0.22153 0.0
C2086 C 0.68844 0.11525 0.31534 0.0
C2087 C 0.67726 0.13681 0.17591 0.0
C2088 C 0.69141 0.11618 0.50899 0.0
C2089 C 0.69336 0.11854 0.46349 0.0
C2090 C 0.68185 0.13878 0.36935 0.0
C2091 C 0.68762 0.13067 0.24682 0.0
C2092 C 0.68632 0.12875 0.29578 0.0
C2093 C 0.68213 0.1231 0.43775 0.0
C2094 C 0.68384 0.1252 0.38892 0.0
H2095 H 0.71292 0.12982 0.16394 0.0
H2096 H 0.71036 0.12602 0.24342 0.0
H2097 H 0.68167 0.15128 0.30983 0.0
H2098 H 0.65685 0.12499 0.51944 0.0
H2099 H 0.66001 0.12876 0.44034 0.0
C2100 C 0.89351 0.5485 0.15341 0.0
C2101 C 0.90816 0.55454 0.12705 0.0
C2102 C 0.89628 0.54841 0.19962 0.0
C2103 C 0.93179 0.57077 0.29466 0.0
H2104 H 0.89682 0.53194 0.35775 0.0
C2105 C 0.94249 0.57132 0.4861 0.0
C2106 C 0.9272 0.56653 0.50959 0.0
C2107 C 0.94058 0.56838 0.43937 0.0
C2108 C 0.90664 0.54296 0.34067 0.0
H2109 H 0.93719 0.56468 0.12878 0.0
H2110 H 0.94205 0.56468 0.20962 0.0
H2111 H 0.89285 0.52936 0.27607 0.0
H2112 H 0.89785 0.55468 0.50226 0.0
H2113 H 0.8945 0.54958 0.42075 0.0
H2114 H 0.9454 0.58455 0.35914 0.0
C2115 C 0.92842 0.56018 0.19441 0.0
C2116 C 0.90437 0.54147 0.29386 0.0
C2117 C 0.92564 0.56019 0.14808 0.0
C2118 C 0.90988 0.55832 0.48527 0.0
C2119 C 0.90797 0.55539 0.4385 0.0
C2120 C 0.93404 0.57228 0.34145 0.0
C2121 C 0.9138 0.55444 0.22076 0.0
C2122 C 0.91683 0.55544 0.27033 0.0
C2123 C 0.92332 0.56058 0.41493 0.0
C2124 C 0.9214 0.55848 0.36507 0.0
H2125 H 0.87993 0.54439 0.13862 0.0
H2126 H 0.88477 0.54419 0.219 0.0
H2127 H 0.94148 0.5819 0.27763 0.0
H2128 H 0.95599 0.57737 0.50387 0.0
H2129 H 0.95265 0.57223 0.42236 0.0
C2130 C 0.45981 0.36091 0.17139 0.0
C2131 C 0.47545 0.36228 0.15445 0.0
C2132 C 0.45891 0.36269 0.21762 0.0
C2133 C 0.47926 0.35869 0.32566 0.0
H2134 H 0.45519 0.38297 0.37633 0.0
C2135 C 0.47774 0.36988 0.51742 0.0
C2136 C 0.46137 0.36743 0.53221 0.0
C2137 C 0.48011 0.36995 0.47169 0.0
C2138 C 0.4618 0.37597 0.36271 0.0
H2139 H 0.50269 0.36731 0.17327 0.0
H2140 H 0.50113 0.37044 0.25381 0.0
H2141 H 0.45832 0.3823 0.29631 0.0
H2142 H 0.43447 0.36261 0.50998 0.0
H2143 H 0.43858 0.36272 0.43062 0.0
H2144 H 0.48263 0.35225 0.39201 0.0
C2145 C 0.48941 0.36766 0.2313 0.0
C2146 C 0.46361 0.3756 0.31675 0.0
C2147 C 0.49032 0.36589 0.18505 0.0
C2148 C 0.4474 0.36491 0.50001 0.0
C2149 C 0.44976 0.36498 0.45438 0.0
C2150 C 0.47745 0.35906 0.37164 0.0
C2151 C 0.47362 0.36588 0.24823 0.0
C2152 C 0.47227 0.36686 0.29752 0.0
C2153 C 0.46616 0.36755 0.43955 0.0
C2154 C 0.46859 0.3676 0.39076 0.0
H2155 H 0.44798 0.35783 0.14896 0.0
H2156 H 0.44643 0.36099 0.22935 0.0
H2157 H 0.48576 0.35159 0.31199 0.0
H2158 H 0.48888 0.37209 0.54124 0.0
H2159 H 0.493 0.37218 0.4616 0.0
C2160 C 0.37664 0.93832 0.52009 0.0
C2161 C 0.36775 0.92344 0.48675 0.0
C2162 C 0.3762 0.93561 0.56555 0.0
C2163 C 0.34927 0.90192 0.64205 0.0
H2164 H 0.39173 0.93074 0.72809 0.0
C2165 C 0.35025 0.88551 0.82501 0.0
C2166 C 0.35877 0.90011 0.85915 0.0
C2167 C 0.35187 0.88857 0.77995 0.0
C2168 C 0.37968 0.92271 0.70461 0.0
H2169 H 0.35152 0.89399 0.47544 0.0
H2170 H 0.35101 0.88926 0.55456 0.0
H2171 H 0.39376 0.93557 0.64898 0.0
H2172 H 0.37589 0.92944 0.87219 0.0
H2173 H 0.37837 0.93482 0.79345 0.0
H2174 H 0.33512 0.88914 0.69748 0.0
C2175 C 0.35817 0.90306 0.54555 0.0
C2176 C 0.38085 0.92547 0.65919 0.0
C2177 C 0.35866 0.90576 0.5001 0.0
C2178 C 0.36901 0.91788 0.84687 0.0
C2179 C 0.37061 0.92095 0.80167 0.0
C2180 C 0.34808 0.89919 0.68739 0.0
C2181 C 0.36681 0.91795 0.57889 0.0
C2182 C 0.36567 0.91506 0.6273 0.0
C2183 C 0.36197 0.90633 0.76758 0.0
C2184 C 0.36328 0.90949 0.71931 0.0
H2185 H 0.38395 0.95211 0.51106 0.0
H2186 H 0.38289 0.9474 0.59025 0.0
H2187 H 0.3372 0.8939 0.61861 0.0
H2188 H 0.34203 0.87166 0.83299 0.0
H2189 H 0.34522 0.87695 0.75476 0.0
C2190 C 0.13518 0.46073 0.86566 0.0
C2191 C 0.12727 0.44316 0.87963 0.0
C2192 C 0.13763 0.46334 0.82057 0.0
C2193 C 0.14003 0.44147 0.71266 0.0
H2194 H 0.12837 0.47559 0.66175 0.0
C2195 C 0.13631 0.4481 0.52164 0.0
C2196 C 0.14327 0.46575 0.50857 0.0
C2197 C 0.1347 0.4451 0.56686 0.0
C2198 C 0.13191 0.46617 0.67549 0.0
H2199 H 0.11624 0.41461 0.85709 0.0
H2200 H 0.12028 0.41913 0.77835 0.0
H2201 H 0.12528 0.47098 0.7405 0.0
H2202 H 0.15386 0.49405 0.53318 0.0
H2203 H 0.15149 0.48891 0.61167 0.0
H2204 H 0.14665 0.43667 0.64747 0.0
C2205 C 0.12468 0.43092 0.80234 0.0
C2206 C 0.13014 0.46353 0.72073 0.0
C2207 C 0.12218 0.42831 0.84744 0.0
C2208 C 0.14867 0.48031 0.54192 0.0
C2209 C 0.14707 0.47732 0.587 0.0
C2210 C 0.14182 0.44413 0.66732 0.0
C2211 C 0.13227 0.44845 0.78826 0.0
C2212 C 0.13422 0.4512 0.73998 0.0
C2213 C 0.13996 0.45968 0.6001 0.0
C2214 C 0.13785 0.45657 0.64819 0.0
H2215 H 0.1391 0.47247 0.8894 0.0
H2216 H 0.14374 0.47705 0.81103 0.0
H2217 H 0.14348 0.43201 0.72648 0.0
H2218 H 0.13216 0.43658 0.49694 0.0
H2219 H 0.12903 0.43131 0.57567 0.0
C2220 C 0.59309 0.70867 0.8442 0.0
C2221 C 0.57922 0.69423 0.86377 0.0
C2222 C 0.59409 0.70747 0.79792 0.0
C2223 C 0.57772 0.67413 0.69618 0.0
H2224 H 0.59018 0.71654 0.6332 0.0
C2225 C 0.56829 0.66893 0.50362 0.0
C2226 C 0.58238 0.68236 0.48216 0.0
C2227 C 0.56819 0.67093 0.55004 0.0
C2228 C 0.58686 0.70463 0.65034 0.0
H2229 H 0.55544 0.66724 0.84976 0.0
H2230 H 0.55709 0.66517 0.76924 0.0
H2231 H 0.58972 0.71878 0.71436 0.0
H2232 H 0.60723 0.70865 0.49297 0.0
H2233 H 0.60698 0.71219 0.57417 0.0
H2234 H 0.57468 0.65994 0.63216 0.0
C2235 C 0.56744 0.67732 0.78968 0.0
C2236 C 0.58663 0.7059 0.69693 0.0
C2237 C 0.56648 0.6785 0.83594 0.0
C2238 C 0.59609 0.69812 0.5083 0.0
C2239 C 0.59596 0.70014 0.55487 0.0
C2240 C 0.57789 0.67284 0.64965 0.0
C2241 C 0.58121 0.69181 0.76997 0.0
C2242 C 0.58196 0.69064 0.72047 0.0
C2243 C 0.58214 0.68643 0.57637 0.0
C2244 C 0.58235 0.68803 0.62608 0.0
H2245 H 0.60325 0.7209 0.86473 0.0
H2246 H 0.60507 0.71877 0.78411 0.0
H2247 H 0.57441 0.66218 0.71315 0.0
H2248 H 0.5573 0.6568 0.48448 0.0
H2249 H 0.55712 0.66029 0.56534 0.0
C2250 C 0.3227 0.43783 0.84138 0.0
C2251 C 0.33881 0.44796 0.87055 0.0
C2252 C 0.32253 0.44049 0.79588 0.0
C2253 C 0.34769 0.47354 0.71635 0.0
H2254 H 0.32652 0.43133 0.62798 0.0
C2255 C 0.36527 0.4793 0.53452 0.0
C2256 C 0.35168 0.46817 0.49961 0.0
C2257 C 0.362 0.47695 0.57922 0.0
C2258 C 0.33223 0.44327 0.65212 0.0
H2259 H 0.36718 0.46923 0.87522 0.0
H2260 H 0.36689 0.47385 0.7961 0.0
H2261 H 0.32365 0.42717 0.70728 0.0
H2262 H 0.32386 0.44586 0.48461 0.0
H2263 H 0.318 0.44197 0.56292 0.0
H2264 H 0.35639 0.48968 0.66151 0.0
C2265 C 0.35438 0.46385 0.80825 0.0
C2266 C 0.3306 0.44088 0.6976 0.0
C2267 C 0.3546 0.46109 0.85351 0.0
C2268 C 0.3346 0.45474 0.51065 0.0
C2269 C 0.3313 0.4524 0.55554 0.0
C2270 C 0.34924 0.47594 0.67097 0.0
C2271 C 0.3384 0.45349 0.7788 0.0
C2272 C 0.33862 0.45599 0.73028 0.0
C2273 C 0.34499 0.46346 0.5904 0.0
C2274 C 0.34186 0.46084 0.6383 0.0
H2275 H 0.31035 0.42755 0.85351 0.0
H2276 H 0.30998 0.43238 0.77407 0.0
H2277 H 0.35373 0.48547 0.74065 0.0
H2278 H 0.3785 0.48997 0.52737 0.0
H2279 H 0.37296 0.48556 0.60505 0.0
C2280 C 0.57659 0.91911 0.85474 0.0
C2281 C 0.56871 0.90134 0.8676 0.0
C2282 C 0.57867 0.92217 0.80962 0.0
C2283 C 0.58057 0.90047 0.70049 0.0
H2284 H 0.57188 0.93661 0.65029 0.0
C2285 C 0.57833 0.90678 0.51015 0.0
C2286 C 0.58682 0.9244 0.49639 0.0
C2287 C 0.57587 0.90414 0.55528 0.0
C2288 C 0.57455 0.92659 0.66385 0.0
H2289 H 0.55704 0.87291 0.84256 0.0
H2290 H 0.56024 0.87819 0.76429 0.0
H2291 H 0.56826 0.93185 0.72908 0.0
H2292 H 0.59894 0.95305 0.51961 0.0
H2293 H 0.5949 0.94848 0.59829 0.0
H2294 H 0.58684 0.89519 0.63537 0.0
C2295 C 0.56502 0.88982 0.78905 0.0
C2296 C 0.57248 0.92387 0.70913 0.0
C2297 C 0.56294 0.88676 0.83405 0.0
C2298 C 0.59254 0.9393 0.52898 0.0
C2299 C 0.59004 0.93666 0.57411 0.0
C2300 C 0.58261 0.90318 0.65528 0.0
C2301 C 0.57297 0.90756 0.77615 0.0
C2302 C 0.57541 0.91072 0.72805 0.0
C2303 C 0.58178 0.91905 0.58795 0.0
C2304 C 0.57958 0.91623 0.63626 0.0
H2305 H 0.58106 0.93067 0.87952 0.0
H2306 H 0.58501 0.93604 0.80107 0.0
H2307 H 0.58329 0.89048 0.71398 0.0
H2308 H 0.5739 0.89499 0.48616 0.0
H2309 H 0.56924 0.89037 0.56454 0.0
C2310 C 0.15511 0.6886 0.55182 0.0
C2311 C 0.14753 0.69641 0.52423 0.0
C2312 C 0.1556 0.69084 0.5984 0.0
C2313 C 0.15061 0.71818 0.69218 0.0
H2314 H 0.13946 0.67602 0.75504 0.0
C2315 C 0.13142 0.71228 0.87436 0.0
C2316 C 0.13883 0.70464 0.90308 0.0
C2317 C 0.13385 0.71236 0.82879 0.0
C2318 C 0.14282 0.68799 0.73809 0.0
H2319 H 0.13511 0.71329 0.52458 0.0
H2320 H 0.13539 0.71667 0.60564 0.0
H2321 H 0.14122 0.67429 0.67458 0.0
H2322 H 0.15512 0.69158 0.9062 0.0
H2323 H 0.1591 0.69147 0.82656 0.0
H2324 H 0.15174 0.73168 0.75585 0.0
C2325 C 0.14121 0.70901 0.59128 0.0
C2326 C 0.14388 0.68703 0.6919 0.0
C2327 C 0.14083 0.70687 0.54465 0.0
C2328 C 0.14893 0.69728 0.88504 0.0
C2329 C 0.15126 0.69725 0.83939 0.0
C2330 C 0.14942 0.71909 0.73839 0.0
C2331 C 0.14838 0.70081 0.61877 0.0
C2332 C 0.14776 0.7021 0.66826 0.0
C2333 C 0.14365 0.70469 0.8107 0.0
C2334 C 0.14546 0.70398 0.76184 0.0
H2335 H 0.16021 0.68027 0.53746 0.0
H2336 H 0.16151 0.68458 0.61844 0.0
H2337 H 0.1539 0.73014 0.6753 0.0
H2338 H 0.12329 0.71778 0.88679 0.0
H2339 H 0.12761 0.71797 0.80747 0.0
loop_
_geom_bond_atom_site_label_1
_geom_bond_atom_site_label_2
_geom_bond_distance
_geom_bond_site_symmetry_2
_ccdc_geom_bond_type
Ho0 C3 2.811 . S
Ho0 O20 2.322 1_455 S
Ho0 O22 2.378 . S
Ho0 O23 2.524 1_455 S
Ho0 O24 2.381 . S
Ho0 O25 2.669 . S
Ho0 O27 2.346 . S
Ho0 O31 2.305 1_455 S
Ho1 C12 2.811 . S
Ho1 O21 2.346 . S
Ho1 O25 2.305 1_655 S
Ho1 O26 2.322 1_655 S
Ho1 O28 2.378 . S
Ho1 O29 2.524 1_655 S
Ho1 O30 2.381 . S
Ho1 O31 2.669 . S
C2 O20 1.259 . S
C2 O21 1.268 . S
C3 Ho0 2.811 . S
C3 C4 1.488 . S
C3 O22 1.215 . S
C3 O23 1.289 1_455 S
C4 C3 1.488 . S
C4 C5 1.348 1_455 S
C4 C9 1.413 . S
C5 C4 1.348 1_655 S
C5 C6 1.442 . S
C5 H32 0.930 . S
C6 C5 1.442 . S
C6 C7 1.381 1_655 S
C6 H33 0.931 . S
C7 C6 1.381 1_455 S
C7 C8 1.321 . S
C8 C7 1.321 . S
C8 C9 1.403 . S
C8 H34 0.934 . S
C9 C4 1.413 . S
C9 C8 1.403 . S
C9 H35 0.930 . S
C10 O24 1.275 . S
C10 O25 1.256 . S
C11 O26 1.259 . S
C11 O27 1.268 . S
C12 Ho1 2.811 . S
C12 C13 1.488 1_655 S
C12 O28 1.215 . S
C12 O29 1.289 1_655 S
C13 C12 1.488 1_455 S
C13 C14 1.348 . S
C13 C18 1.413 1_455 S
C14 C13 1.348 . S
C14 C15 1.442 . S
C14 H36 0.930 . S
C15 C14 1.442 . S
C15 C16 1.381 . S
C15 H37 0.931 . S
C16 C15 1.381 . S
C16 C17 1.321 1_455 S
C17 C16 1.321 1_655 S
C17 C18 1.403 . S
C17 H38 0.934 . S
C18 C13 1.413 1_655 S
C18 C17 1.403 . S
C18 H39 0.930 . S
C19 O30 1.275 . S
C19 O31 1.256 . S
O20 Ho0 2.322 1_655 S
O20 C2 1.259 . S
O21 Ho1 2.346 . S
O21 C2 1.268 . S
O22 Ho0 2.378 . S
O22 C3 1.215 . S
O23 Ho0 2.524 1_655 S
O23 C3 1.289 1_655 S
O24 Ho0 2.381 . S
O24 C10 1.275 . S
O25 Ho0 2.669 . S
O25 Ho1 2.305 1_455 S
O25 C10 1.256 . S
O26 Ho1 2.322 1_455 S
O26 C11 1.259 . S
O27 Ho0 2.346 . S
O27 C11 1.268 . S
O28 Ho1 2.378 . S
O28 C12 1.215 . S
O29 Ho1 2.524 1_455 S
O29 C12 1.289 1_455 S
O30 Ho1 2.381 . S
O30 C19 1.275 . S
O31 Ho0 2.305 1_655 S
O31 Ho1 2.669 . S
O31 C19 1.256 . S
H32 C5 0.930 . S
H33 C6 0.931 . S
H34 C8 0.934 . S
H35 C9 0.930 . S
H36 C14 0.930 . S
H37 C15 0.931 . S
H38 C17 0.934 . S
H39 C18 0.930 . S
Ho40 C43 2.811 . S
Ho40 O60 2.322 . S
Ho40 O62 2.378 . S
Ho40 O63 2.524 . S
Ho40 O64 2.381 . S
Ho40 O65 2.669 . S
Ho40 O67 2.346 . S
Ho40 O71 2.305 . S
Ho41 C52 2.811 . S
Ho41 O61 2.346 . S
Ho41 O65 2.305 . S
Ho41 O66 2.322 . S
Ho41 O68 2.378 . S
Ho41 O69 2.524 . S
Ho41 O70 2.381 . S
Ho41 O71 2.669 . S
C42 O60 1.259 . S
C42 O61 1.268 . S
C43 Ho40 2.811 . S
C43 C44 1.488 . S
C43 O62 1.215 . S
C43 O63 1.289 . S
C44 C43 1.488 . S
C44 C45 1.348 . S
C44 C49 1.413 . S
C45 C44 1.348 . S
C45 C46 1.442 . S
C45 H72 0.930 . S
C46 C45 1.442 . S
C46 C47 1.381 . S
C46 H73 0.931 . S
C47 C46 1.381 . S
C47 C48 1.321 . S
C48 C47 1.321 . S
C48 C49 1.403 . S
C48 H74 0.934 . S
C49 C44 1.413 . S
C49 C48 1.403 . S
C49 H75 0.930 . S
C50 O64 1.275 . S
C50 O65 1.256 . S
C51 O66 1.259 . S
C51 O67 1.268 . S
C52 Ho41 2.811 . S
C52 C53 1.488 . S
C52 O68 1.215 . S
C52 O69 1.289 . S
C53 C52 1.488 . S
C53 C54 1.348 . S
C53 C58 1.413 . S
C54 C53 1.348 . S
C54 C55 1.442 . S
C54 H76 0.930 . S
C55 C54 1.442 . S
C55 C56 1.381 . S
C55 H77 0.931 . S
C56 C55 1.381 . S
C56 C57 1.321 . S
C57 C56 1.321 . S
C57 C58 1.403 . S
C57 H78 0.934 . S
C58 C53 1.413 . S
C58 C57 1.403 . S
C58 H79 0.930 . S
C59 O70 1.275 . S
C59 O71 1.256 . S
O60 Ho40 2.322 . S
O60 C42 1.259 . S
O61 Ho41 2.346 . S
O61 C42 1.268 . S
O62 Ho40 2.378 . S
O62 C43 1.215 . S
O63 Ho40 2.524 . S
O63 C43 1.289 . S
O64 Ho40 2.381 . S
O64 C50 1.275 . S
O65 Ho40 2.669 . S
O65 Ho41 2.305 . S
O65 C50 1.256 . S
O66 Ho41 2.322 . S
O66 C51 1.259 . S
O67 Ho40 2.346 . S
O67 C51 1.268 . S
O68 Ho41 2.378 . S
O68 C52 1.215 . S
O69 Ho41 2.524 . S
O69 C52 1.289 . S
O70 Ho41 2.381 . S
O70 C59 1.275 . S
O71 Ho40 2.305 . S
O71 Ho41 2.669 . S
O71 C59 1.256 . S
H72 C45 0.930 . S
H73 C46 0.931 . S
H74 C48 0.934 . S
H75 C49 0.930 . S
H76 C54 0.930 . S
H77 C55 0.931 . S
H78 C57 0.934 . S
H79 C58 0.930 . S
Ho80 C83 2.811 1_565 S
Ho80 O100 2.322 1_565 S
Ho80 O102 2.378 . S
Ho80 O103 2.524 1_565 S
Ho80 O104 2.381 . S
Ho80 O105 2.669 . S
Ho80 O107 2.346 . S
Ho80 O111 2.305 1_565 S
Ho81 C92 2.811 . S
Ho81 O101 2.346 . S
Ho81 O105 2.305 1_545 S
Ho81 O106 2.322 1_545 S
Ho81 O108 2.378 . S
Ho81 O109 2.524 1_545 S
Ho81 O110 2.381 . S
Ho81 O111 2.669 . S
C82 O100 1.259 . S
C82 O101 1.268 . S
C83 Ho80 2.811 1_545 S
C83 C84 1.488 . S
C83 O102 1.215 1_545 S
C83 O103 1.289 . S
C84 C83 1.488 . S
C84 C85 1.348 . S
C84 C89 1.413 1_545 S
C85 C84 1.348 . S
C85 C86 1.442 . S
C85 H112 0.930 . S
C86 C85 1.442 . S
C86 C87 1.381 . S
C86 H113 0.931 . S
C87 C86 1.381 . S
C87 C88 1.321 1_545 S
C88 C87 1.321 1_565 S
C88 C89 1.403 . S
C88 H114 0.934 . S
C89 C84 1.413 1_565 S
C89 C88 1.403 . S
C89 H115 0.930 . S
C90 O104 1.275 . S
C90 O105 1.256 . S
C91 O106 1.259 . S
C91 O107 1.268 . S
C92 Ho81 2.811 . S
C92 C93 1.488 1_545 S
C92 O108 1.215 . S
C92 O109 1.289 1_545 S
C93 C92 1.488 1_565 S
C93 C94 1.348 . S
C93 C98 1.413 1_565 S
C94 C93 1.348 . S
C94 C95 1.442 . S
C94 H116 0.930 . S
C95 C94 1.442 . S
C95 C96 1.381 . S
C95 H117 0.931 . S
C96 C95 1.381 . S
C96 C97 1.321 1_565 S
C97 C96 1.321 1_545 S
C97 C98 1.403 . S
C97 H118 0.934 . S
C98 C93 1.413 1_545 S
C98 C97 1.403 . S
C98 H119 0.930 . S
C99 O110 1.275 . S
C99 O111 1.256 . S
O100 Ho80 2.322 1_545 S
O100 C82 1.259 . S
O101 Ho81 2.346 . S
O101 C82 1.268 . S
O102 Ho80 2.378 . S
O102 C83 1.215 1_565 S
O103 Ho80 2.524 1_545 S
O103 C83 1.289 . S
O104 Ho80 2.381 . S
O104 C90 1.275 . S
O105 Ho80 2.669 . S
O105 Ho81 2.305 1_565 S
O105 C90 1.256 . S
O106 Ho81 2.322 1_565 S
O106 C91 1.259 . S
O107 Ho80 2.346 . S
O107 C91 1.268 . S
O108 Ho81 2.378 . S
O108 C92 1.215 . S
O109 Ho81 2.524 1_565 S
O109 C92 1.289 1_565 S
O110 Ho81 2.381 . S
O110 C99 1.275 . S
O111 Ho80 2.305 1_545 S
O111 Ho81 2.669 . S
O111 C99 1.256 . S
H112 C85 0.930 . S
H113 C86 0.931 . S
H114 C88 0.934 . S
H115 C89 0.930 . S
H116 C94 0.930 . S
H117 C95 0.931 . S
H118 C97 0.934 . S
H119 C98 0.930 . S
Ho120 C123 2.811 . S
Ho120 O140 2.322 1_455 S
Ho120 O142 2.378 . S
Ho120 O143 2.524 1_455 S
Ho120 O144 2.381 . S
Ho120 O145 2.669 . S
Ho120 O147 2.346 . S
Ho120 O151 2.305 1_455 S
Ho121 C132 2.811 . S
Ho121 O141 2.346 . S
Ho121 O145 2.305 1_655 S
Ho121 O146 2.322 1_655 S
Ho121 O148 2.378 . S
Ho121 O149 2.524 1_655 S
Ho121 O150 2.381 . S
Ho121 O151 2.669 . S
C122 O140 1.259 . S
C122 O141 1.268 . S
C123 Ho120 2.811 . S
C123 C124 1.488 . S
C123 O142 1.215 . S
C123 O143 1.289 1_455 S
C124 C123 1.488 . S
C124 C125 1.348 1_455 S
C124 C129 1.413 . S
C125 C124 1.348 1_655 S
C125 C126 1.442 . S
C125 H152 0.930 . S
C126 C125 1.442 . S
C126 C127 1.381 1_655 S
C126 H153 0.931 . S
C127 C126 1.381 1_455 S
C127 C128 1.321 . S
C128 C127 1.321 . S
C128 C129 1.403 . S
C128 H154 0.934 . S
C129 C124 1.413 . S
C129 C128 1.403 . S
C129 H155 0.930 . S
C130 O144 1.275 . S
C130 O145 1.256 . S
C131 O146 1.259 . S
C131 O147 1.268 . S
C132 Ho121 2.811 . S
C132 C133 1.488 1_655 S
C132 O148 1.215 . S
C132 O149 1.289 1_655 S
C133 C132 1.488 1_455 S
C133 C134 1.348 . S
C133 C138 1.413 1_455 S
C134 C133 1.348 . S
C134 C135 1.442 . S
C134 H156 0.930 . S
C135 C134 1.442 . S
C135 C136 1.381 . S
C135 H157 0.931 . S
C136 C135 1.381 . S
C136 C137 1.321 1_455 S
C137 C136 1.321 1_655 S
C137 C138 1.403 . S
C137 H158 0.934 . S
C138 C133 1.413 1_655 S
C138 C137 1.403 . S
C138 H159 0.930 . S
C139 O150 1.275 . S
C139 O151 1.256 . S
O140 Ho120 2.322 1_655 S
O140 C122 1.259 . S
O141 Ho121 2.346 . S
O141 C122 1.268 . S
O142 Ho120 2.378 . S
O142 C123 1.215 . S
O143 Ho120 2.524 1_655 S
O143 C123 1.289 1_655 S
O144 Ho120 2.381 . S
O144 C130 1.275 . S
O145 Ho120 2.669 . S
O145 Ho121 2.305 1_455 S
O145 C130 1.256 . S
O146 Ho121 2.322 1_455 S
O146 C131 1.259 . S
O147 Ho120 2.346 . S
O147 C131 1.268 . S
O148 Ho121 2.378 . S
O148 C132 1.215 . S
O149 Ho121 2.524 1_455 S
O149 C132 1.289 1_455 S
O150 Ho121 2.381 . S
O150 C139 1.275 . S
O151 Ho120 2.305 1_655 S
O151 Ho121 2.669 . S
O151 C139 1.256 . S
H152 C125 0.930 . S
H153 C126 0.931 . S
H154 C128 0.934 . S
H155 C129 0.930 . S
H156 C134 0.930 . S
H157 C135 0.931 . S
H158 C137 0.934 . S
H159 C138 0.930 . S
Ho160 C163 2.811 . S
Ho160 O180 2.322 . S
Ho160 O182 2.378 . S
Ho160 O183 2.524 . S
Ho160 O184 2.381 . S
Ho160 O185 2.669 . S
Ho160 O187 2.346 . S
Ho160 O191 2.305 . S
Ho161 C172 2.811 . S
Ho161 O181 2.346 . S
Ho161 O185 2.305 . S
Ho161 O186 2.322 . S
Ho161 O188 2.378 . S
Ho161 O189 2.524 . S
Ho161 O190 2.381 . S
Ho161 O191 2.669 . S
C162 O180 1.259 . S
C162 O181 1.268 . S
C163 Ho160 2.811 . S
C163 C164 1.488 . S
C163 O182 1.215 . S
C163 O183 1.289 . S
C164 C163 1.488 . S
C164 C165 1.348 . S
C164 C169 1.413 . S
C165 C164 1.348 . S
C165 C166 1.442 . S
C165 H192 0.930 . S
C166 C165 1.442 . S
C166 C167 1.381 . S
C166 H193 0.931 . S
C167 C166 1.381 . S
C167 C168 1.321 . S
C168 C167 1.321 . S
C168 C169 1.403 . S
C168 H194 0.934 . S
C169 C164 1.413 . S
C169 C168 1.403 . S
C169 H195 0.930 . S
C170 O184 1.275 . S
C170 O185 1.256 . S
C171 O186 1.259 . S
C171 O187 1.268 . S
C172 Ho161 2.811 . S
C172 C173 1.488 . S
C172 O188 1.215 . S
C172 O189 1.289 . S
C173 C172 1.488 . S
C173 C174 1.348 . S
C173 C178 1.413 . S
C174 C173 1.348 . S
C174 C175 1.442 . S
C174 H196 0.930 . S
C175 C174 1.442 . S
C175 C176 1.381 . S
C175 H197 0.931 . S
C176 C175 1.381 . S
C176 C177 1.321 . S
C177 C176 1.321 . S
C177 C178 1.403 . S
C177 H198 0.934 . S
C178 C173 1.413 . S
C178 C177 1.403 . S
C178 H199 0.930 . S
C179 O190 1.275 . S
C179 O191 1.256 . S
O180 Ho160 2.322 . S
O180 C162 1.259 . S
O181 Ho161 2.346 . S
O181 C162 1.268 . S
O182 Ho160 2.378 . S
O182 C163 1.215 . S
O183 Ho160 2.524 . S
O183 C163 1.289 . S
O184 Ho160 2.381 . S
O184 C170 1.275 . S
O185 Ho160 2.669 . S
O185 Ho161 2.305 . S
O185 C170 1.256 . S
O186 Ho161 2.322 . S
O186 C171 1.259 . S
O187 Ho160 2.346 . S
O187 C171 1.268 . S
O188 Ho161 2.378 . S
O188 C172 1.215 . S
O189 Ho161 2.524 . S
O189 C172 1.289 . S
O190 Ho161 2.381 . S
O190 C179 1.275 . S
O191 Ho160 2.305 . S
O191 Ho161 2.669 . S
O191 C179 1.256 . S
H192 C165 0.930 . S
H193 C166 0.931 . S
H194 C168 0.934 . S
H195 C169 0.930 . S
H196 C174 0.930 . S
H197 C175 0.931 . S
H198 C177 0.934 . S
H199 C178 0.930 . S
Ho200 C203 2.811 1_565 S
Ho200 O220 2.322 1_565 S
Ho200 O222 2.378 . S
Ho200 O223 2.524 1_565 S
Ho200 O224 2.381 . S
Ho200 O225 2.669 . S
Ho200 O227 2.346 . S
Ho200 O231 2.305 1_565 S
Ho201 C212 2.811 . S
Ho201 O221 2.346 . S
Ho201 O225 2.305 1_545 S
Ho201 O226 2.322 1_545 S
Ho201 O228 2.378 . S
Ho201 O229 2.524 1_545 S
Ho201 O230 2.381 . S
Ho201 O231 2.669 . S
C202 O220 1.259 . S
C202 O221 1.268 . S
C203 Ho200 2.811 1_545 S
C203 C204 1.488 . S
C203 O222 1.215 1_545 S
C203 O223 1.289 . S
C204 C203 1.488 . S
C204 C205 1.348 . S
C204 C209 1.413 1_545 S
C205 C204 1.348 . S
C205 C206 1.442 . S
C205 H232 0.930 . S
C206 C205 1.442 . S
C206 C207 1.381 . S
C206 H233 0.931 . S
C207 C206 1.381 . S
C207 C208 1.321 . S
C208 C207 1.321 . S
C208 C209 1.403 1_545 S
C208 H234 0.934 1_545 S
C209 C204 1.413 1_565 S
C209 C208 1.403 1_565 S
C209 H235 0.930 . S
C210 O224 1.275 . S
C210 O225 1.256 . S
C211 O226 1.259 . S
C211 O227 1.268 . S
C212 Ho201 2.811 . S
C212 C213 1.488 . S
C212 O228 1.215 . S
C212 O229 1.289 1_545 S
C213 C212 1.488 . S
C213 C214 1.348 1_545 S
C213 C218 1.413 . S
C214 C213 1.348 1_565 S
C214 C215 1.442 . S
C214 H236 0.930 . S
C215 C214 1.442 . S
C215 C216 1.381 . S
C215 H237 0.931 . S
C216 C215 1.381 . S
C216 C217 1.321 1_565 S
C217 C216 1.321 1_545 S
C217 C218 1.403 . S
C217 H238 0.934 . S
C218 C213 1.413 . S
C218 C217 1.403 . S
C218 H239 0.930 . S
C219 O230 1.275 . S
C219 O231 1.256 . S
O220 Ho200 2.322 1_545 S
O220 C202 1.259 . S
O221 Ho201 2.346 . S
O221 C202 1.268 . S
O222 Ho200 2.378 . S
O222 C203 1.215 1_565 S
O223 Ho200 2.524 1_545 S
O223 C203 1.289 . S
O224 Ho200 2.381 . S
O224 C210 1.275 . S
O225 Ho200 2.669 . S
O225 Ho201 2.305 1_565 S
O225 C210 1.256 . S
O226 Ho201 2.322 1_565 S
O226 C211 1.259 . S
O227 Ho200 2.346 . S
O227 C211 1.268 . S
O228 Ho201 2.378 . S
O228 C212 1.215 . S
O229 Ho201 2.524 1_565 S
O229 C212 1.289 1_565 S
O230 Ho201 2.381 . S
O230 C219 1.275 . S
O231 Ho200 2.305 1_545 S
O231 Ho201 2.669 . S
O231 C219 1.256 . S
H232 C205 0.930 . S
H233 C206 0.931 . S
H234 C208 0.934 1_565 S
H235 C209 0.930 . S
H236 C214 0.930 . S
H237 C215 0.931 . S
H238 C217 0.934 . S
H239 C218 0.930 . S
Ho240 C243 2.811 . S
Ho240 O260 2.322 . S
Ho240 O262 2.378 . S
Ho240 O263 2.524 . S
Ho240 O264 2.381 . S
Ho240 O265 2.669 . S
Ho240 O267 2.346 . S
Ho240 O271 2.305 . S
Ho241 C252 2.811 . S
Ho241 O261 2.346 . S
Ho241 O265 2.305 . S
Ho241 O266 2.322 . S
Ho241 O268 2.378 . S
Ho241 O269 2.524 . S
Ho241 O270 2.381 . S
Ho241 O271 2.669 . S
C242 O260 1.259 . S
C242 O261 1.268 . S
C243 Ho240 2.811 . S
C243 C244 1.488 . S
C243 O262 1.215 . S
C243 O263 1.289 . S
C244 C243 1.488 . S
C244 C245 1.348 . S
C244 C249 1.413 . S
C245 C244 1.348 . S
C245 C246 1.442 . S
C245 H272 0.930 . S
C246 C245 1.442 . S
C246 C247 1.381 . S
C246 H273 0.931 . S
C247 C246 1.381 . S
C247 C248 1.321 . S
C248 C247 1.321 . S
C248 C249 1.403 . S
C248 H274 0.934 . S
C249 C244 1.413 . S
C249 C248 1.403 . S
C249 H275 0.930 . S
C250 O264 1.275 . S
C250 O265 1.256 . S
C251 O266 1.259 . S
C251 O267 1.268 . S
C252 Ho241 2.811 . S
C252 C253 1.488 . S
C252 O268 1.215 . S
C252 O269 1.289 . S
C253 C252 1.488 . S
C253 C254 1.348 . S
C253 C258 1.401 1_556 S
C254 C253 1.348 . S
C254 C255 1.442 1_556 S
C254 H276 0.930 . S
C255 C254 1.442 1_554 S
C255 C256 1.381 . S
C255 H277 0.931 . S
C256 C255 1.381 . S
C256 C257 1.321 . S
C257 C256 1.321 . S
C257 C258 1.428 . S
C257 H278 0.934 . S
C258 C253 1.401 1_554 S
C258 C257 1.428 . S
C258 H279 0.917 1_554 S
C259 O270 1.275 . S
C259 O271 1.256 . S
O260 Ho240 2.322 . S
O260 C242 1.259 . S
O261 Ho241 2.346 . S
O261 C242 1.268 . S
O262 Ho240 2.378 . S
O262 C243 1.215 . S
O263 Ho240 2.524 . S
O263 C243 1.289 . S
O264 Ho240 2.381 . S
O264 C250 1.275 . S
O265 Ho240 2.669 . S
O265 Ho241 2.305 . S
O265 C250 1.256 . S
O266 Ho241 2.322 . S
O266 C251 1.259 . S
O267 Ho240 2.346 . S
O267 C251 1.268 . S
O268 Ho241 2.378 . S
O268 C252 1.215 . S
O269 Ho241 2.524 . S
O269 C252 1.289 . S
O270 Ho241 2.381 . S
O270 C259 1.275 . S
O271 Ho240 2.305 . S
O271 Ho241 2.669 . S
O271 C259 1.256 . S
H272 C245 0.930 . S
H273 C246 0.931 . S
H274 C248 0.934 . S
H275 C249 0.930 . S
H276 C254 0.930 . S
H277 C255 0.931 . S
H278 C257 0.934 . S
H279 C258 0.917 1_556 S
Ho280 C283 2.811 . S
Ho280 O300 2.322 . S
Ho280 O302 2.378 . S
Ho280 O303 2.524 . S
Ho280 O304 2.381 . S
Ho280 O305 2.669 . S
Ho280 O307 2.346 . S
Ho280 O311 2.305 . S
Ho281 C292 2.811 . S
Ho281 O301 2.346 . S
Ho281 O305 2.305 . S
Ho281 O306 2.322 . S
Ho281 O308 2.378 . S
Ho281 O309 2.524 . S
Ho281 O310 2.381 . S
Ho281 O311 2.669 . S
C282 O300 1.259 . S
C282 O301 1.268 . S
C283 Ho280 2.811 . S
C283 C284 1.488 . S
C283 O302 1.215 . S
C283 O303 1.289 . S
C284 C283 1.488 . S
C284 C285 1.348 . S
C284 C289 1.413 . S
C285 C284 1.348 . S
C285 C286 1.442 . S
C285 H312 0.930 . S
C286 C285 1.442 . S
C286 C287 1.381 . S
C286 H313 0.931 . S
C287 C286 1.381 . S
C287 C288 1.321 . S
C288 C287 1.321 . S
C288 C289 1.403 . S
C288 H314 0.934 . S
C289 C284 1.413 . S
C289 C288 1.403 . S
C289 H315 0.930 . S
C290 O304 1.275 . S
C290 O305 1.256 . S
C291 O306 1.259 . S
C291 O307 1.268 . S
C292 Ho281 2.811 . S
C292 C293 1.488 . S
C292 O308 1.215 . S
C292 O309 1.289 . S
C293 C292 1.488 . S
C293 C294 1.348 . S
C293 C298 1.413 . S
C294 C293 1.348 . S
C294 C295 1.442 1_556 S
C294 H316 0.930 . S
C295 C294 1.442 1_554 S
C295 C296 1.381 . S
C295 H317 0.931 . S
C296 C295 1.381 . S
C296 C297 1.321 . S
C297 C296 1.321 . S
C297 C298 1.403 1_554 S
C297 H318 0.934 . S
C298 C293 1.413 . S
C298 C297 1.403 1_556 S
C298 H319 0.930 . S
C299 O310 1.275 . S
C299 O311 1.256 . S
O300 Ho280 2.322 . S
O300 C282 1.259 . S
O301 Ho281 2.346 . S
O301 C282 1.268 . S
O302 Ho280 2.378 . S
O302 C283 1.215 . S
O303 Ho280 2.524 . S
O303 C283 1.289 . S
O304 Ho280 2.381 . S
O304 C290 1.275 . S
O305 Ho280 2.669 . S
O305 Ho281 2.305 . S
O305 C290 1.256 . S
O306 Ho281 2.322 . S
O306 C291 1.259 . S
O307 Ho280 2.346 . S
O307 C291 1.268 . S
O308 Ho281 2.378 . S
O308 C292 1.215 . S
O309 Ho281 2.524 . S
O309 C292 1.289 . S
O310 Ho281 2.381 . S
O310 C299 1.275 . S
O311 Ho280 2.305 . S
O311 Ho281 2.669 . S
O311 C299 1.256 . S
H312 C285 0.930 . S
H313 C286 0.931 . S
H314 C288 0.934 . S
H315 C289 0.930 . S
H316 C294 0.930 . S
H317 C295 0.931 . S
H318 C297 0.934 . S
H319 C298 0.930 . S
Ho320 C323 2.811 . S
Ho320 O340 2.322 . S
Ho320 O342 2.378 . S
Ho320 O343 2.524 . S
Ho320 O344 2.381 . S
Ho320 O345 2.669 . S
Ho320 O347 2.346 . S
Ho320 O351 2.305 . S
Ho321 C332 2.811 . S
Ho321 O341 2.346 . S
Ho321 O345 2.305 . S
Ho321 O346 2.322 . S
Ho321 O348 2.378 . S
Ho321 O349 2.524 . S
Ho321 O350 2.381 . S
Ho321 O351 2.669 . S
C322 O340 1.259 . S
C322 O341 1.268 . S
C323 Ho320 2.811 . S
C323 C324 1.488 . S
C323 O342 1.215 . S
C323 O343 1.289 . S
C324 C323 1.488 . S
C324 C325 1.348 . S
C324 C329 1.413 . S
C325 C324 1.348 . S
C325 C326 1.442 . S
C325 H352 0.930 . S
C326 C325 1.442 . S
C326 C327 1.381 . S
C326 H353 0.931 . S
C327 C326 1.381 . S
C327 C328 1.321 . S
C328 C327 1.321 . S
C328 C329 1.403 . S
C328 H354 0.934 . S
C329 C324 1.413 . S
C329 C328 1.403 . S
C329 H355 0.930 . S
C330 O344 1.275 . S
C330 O345 1.256 . S
C331 O346 1.259 . S
C331 O347 1.268 . S
C332 Ho321 2.811 . S
C332 C333 1.488 . S
C332 O348 1.215 . S
C332 O349 1.289 . S
C333 C332 1.488 . S
C333 C334 1.348 . S
C333 C338 1.413 . S
C334 C333 1.348 . S
C334 C335 1.442 1_556 S
C334 H356 0.930 . S
C335 C334 1.442 1_554 S
C335 C336 1.381 . S
C335 H357 0.931 . S
C336 C335 1.381 . S
C336 C337 1.321 . S
C337 C336 1.321 . S
C337 C338 1.403 1_554 S
C337 H358 0.934 . S
C338 C333 1.413 . S
C338 C337 1.403 1_556 S
C338 H359 0.930 . S
C339 O350 1.275 . S
C339 O351 1.256 . S
O340 Ho320 2.322 . S
O340 C322 1.259 . S
O341 Ho321 2.346 . S
O341 C322 1.268 . S
O342 Ho320 2.378 . S
O342 C323 1.215 . S
O343 Ho320 2.524 . S
O343 C323 1.289 . S
O344 Ho320 2.381 . S
O344 C330 1.275 . S
O345 Ho320 2.669 . S
O345 Ho321 2.305 . S
O345 C330 1.256 . S
O346 Ho321 2.322 . S
O346 C331 1.259 . S
O347 Ho320 2.346 . S
O347 C331 1.268 . S
O348 Ho321 2.378 . S
O348 C332 1.215 . S
O349 Ho321 2.524 . S
O349 C332 1.289 . S
O350 Ho321 2.381 . S
O350 C339 1.275 . S
O351 Ho320 2.305 . S
O351 Ho321 2.669 . S
O351 C339 1.256 . S
H352 C325 0.930 . S
H353 C326 0.931 . S
H354 C328 0.934 . S
H355 C329 0.930 . S
H356 C334 0.930 . S
H357 C335 0.931 . S
H358 C337 0.934 . S
H359 C338 0.930 . S
Ho360 C363 2.811 . S
Ho360 O380 2.322 . S
Ho360 O382 2.378 . S
Ho360 O383 2.524 . S
Ho360 O384 2.381 . S
Ho360 O385 2.669 . S
Ho360 O387 2.346 . S
Ho360 O391 2.305 . S
Ho361 C372 2.811 . S
Ho361 O381 2.346 . S
Ho361 O385 2.305 . S
Ho361 O386 2.322 . S
Ho361 O388 2.378 . S
Ho361 O389 2.524 . S
Ho361 O390 2.381 . S
Ho361 O391 2.669 . S
C362 O380 1.259 . S
C362 O381 1.268 . S
C363 Ho360 2.811 . S
C363 C364 1.488 . S
C363 O382 1.215 . S
C363 O383 1.289 . S
C364 C363 1.488 . S
C364 C365 1.348 1_556 S
C364 C369 1.413 1_556 S
C365 C364 1.348 1_554 S
C365 C366 1.442 . S
C365 H392 0.930 1_554 S
C366 C365 1.442 . S
C366 C367 1.381 . S
C366 H393 0.931 . S
C367 C366 1.381 . S
C367 C368 1.321 . S
C368 C367 1.321 . S
C368 C369 1.403 . S
C368 H394 0.934 . S
C369 C364 1.413 1_554 S
C369 C368 1.403 . S
C369 H395 0.930 1_554 S
C370 O384 1.275 . S
C370 O385 1.256 . S
C371 O386 1.259 . S
C371 O387 1.268 . S
C372 Ho361 2.811 . S
C372 C373 1.488 . S
C372 O388 1.215 . S
C372 O389 1.289 . S
C373 C372 1.488 . S
C373 C374 1.348 . S
C373 C378 1.413 . S
C374 C373 1.348 . S
C374 C375 1.442 . S
C374 H396 0.930 . S
C375 C374 1.442 . S
C375 C376 1.381 . S
C375 H397 0.931 . S
C376 C375 1.381 . S
C376 C377 1.321 . S
C377 C376 1.321 . S
C377 C378 1.403 . S
C377 H398 0.934 . S
C378 C373 1.413 . S
C378 C377 1.403 . S
C378 H399 0.930 . S
C379 O390 1.275 . S
C379 O391 1.256 . S
O380 Ho360 2.322 . S
O380 C362 1.259 . S
O381 Ho361 2.346 . S
O381 C362 1.268 . S
O382 Ho360 2.378 . S
O382 C363 1.215 . S
O383 Ho360 2.524 . S
O383 C363 1.289 . S
O384 Ho360 2.381 . S
O384 C370 1.275 . S
O385 Ho360 2.669 . S
O385 Ho361 2.305 . S
O385 C370 1.256 . S
O386 Ho361 2.322 . S
O386 C371 1.259 . S
O387 Ho360 2.346 . S
O387 C371 1.268 . S
O388 Ho361 2.378 . S
O388 C372 1.215 . S
O389 Ho361 2.524 . S
O389 C372 1.289 . S
O390 Ho361 2.381 . S
O390 C379 1.275 . S
O391 Ho360 2.305 . S
O391 Ho361 2.669 . S
O391 C379 1.256 . S
H392 C365 0.930 1_556 S
H393 C366 0.931 . S
H394 C368 0.934 . S
H395 C369 0.930 1_556 S
H396 C374 0.930 . S
H397 C375 0.931 . S
H398 C377 0.934 . S
H399 C378 0.930 . S
Ho400 C403 2.811 . S
Ho400 O420 2.322 . S
Ho400 O422 2.378 . S
Ho400 O423 2.524 . S
Ho400 O424 2.381 . S
Ho400 O425 2.669 . S
Ho400 O427 2.346 . S
Ho400 O431 2.305 . S
Ho401 C412 2.811 . S
Ho401 O421 2.346 . S
Ho401 O425 2.305 . S
Ho401 O426 2.322 . S
Ho401 O428 2.378 . S
Ho401 O429 2.524 . S
Ho401 O430 2.381 . S
Ho401 O431 2.669 . S
C402 O420 1.259 . S
C402 O421 1.268 . S
C403 Ho400 2.811 . S
C403 C404 1.488 1_556 S
C403 O422 1.215 . S
C403 O423 1.289 . S
C404 C403 1.488 1_554 S
C404 C405 1.348 . S
C404 C409 1.413 . S
C405 C404 1.348 . S
C405 C406 1.442 . S
C405 H432 0.930 . S
C406 C405 1.442 . S
C406 C407 1.381 . S
C406 H433 0.931 . S
C407 C406 1.381 . S
C407 C408 1.321 . S
C408 C407 1.321 . S
C408 C409 1.403 . S
C408 H434 0.934 . S
C409 C404 1.413 . S
C409 C408 1.403 . S
C409 H435 0.930 . S
C410 O424 1.275 . S
C410 O425 1.256 . S
C411 O426 1.259 . S
C411 O427 1.268 . S
C412 Ho401 2.811 . S
C412 C413 1.488 . S
C412 O428 1.215 . S
C412 O429 1.289 . S
C413 C412 1.488 . S
C413 C414 1.348 . S
C413 C418 1.413 . S
C414 C413 1.348 . S
C414 C415 1.442 . S
C414 H436 0.930 . S
C415 C414 1.442 . S
C415 C416 1.381 . S
C415 H437 0.931 . S
C416 C415 1.381 . S
C416 C417 1.321 . S
C417 C416 1.321 . S
C417 C418 1.403 . S
C417 H438 0.934 . S
C418 C413 1.413 . S
C418 C417 1.403 . S
C418 H439 0.930 . S
C419 O430 1.275 . S
C419 O431 1.256 . S
O420 Ho400 2.322 . S
O420 C402 1.259 . S
O421 Ho401 2.346 . S
O421 C402 1.268 . S
O422 Ho400 2.378 . S
O422 C403 1.215 . S
O423 Ho400 2.524 . S
O423 C403 1.289 . S
O424 Ho400 2.381 . S
O424 C410 1.275 . S
O425 Ho400 2.669 . S
O425 Ho401 2.305 . S
O425 C410 1.256 . S
O426 Ho401 2.322 . S
O426 C411 1.259 . S
O427 Ho400 2.346 . S
O427 C411 1.268 . S
O428 Ho401 2.378 . S
O428 C412 1.215 . S
O429 Ho401 2.524 . S
O429 C412 1.289 . S
O430 Ho401 2.381 . S
O430 C419 1.275 . S
O431 Ho400 2.305 . S
O431 Ho401 2.669 . S
O431 C419 1.256 . S
H432 C405 0.930 . S
H433 C406 0.931 . S
H434 C408 0.934 . S
H435 C409 0.930 . S
H436 C414 0.930 . S
H437 C415 0.931 . S
H438 C417 0.934 . S
H439 C418 0.930 . S
Ho440 C443 2.811 . S
Ho440 O460 2.322 . S
Ho440 O462 2.378 . S
Ho440 O463 2.524 . S
Ho440 O464 2.381 . S
Ho440 O465 2.669 . S
Ho440 O467 2.346 . S
Ho440 O471 2.305 . S
Ho441 C452 2.811 . S
Ho441 O461 2.346 . S
Ho441 O465 2.305 . S
Ho441 O466 2.322 . S
Ho441 O468 2.378 . S
Ho441 O469 2.524 . S
Ho441 O470 2.381 . S
Ho441 O471 2.669 . S
C442 O460 1.259 . S
C442 O461 1.268 . S
C443 Ho440 2.811 . S
C443 C444 1.488 . S
C443 O462 1.215 . S
C443 O463 1.289 . S
C444 C443 1.488 . S
C444 C445 1.348 1_556 S
C444 C449 1.413 1_556 S
C445 C444 1.348 1_554 S
C445 C446 1.442 . S
C445 H472 0.930 1_554 S
C446 C445 1.442 . S
C446 C447 1.381 . S
C446 H473 0.931 . S
C447 C446 1.381 . S
C447 C448 1.321 . S
C448 C447 1.321 . S
C448 C449 1.403 . S
C448 H474 0.934 . S
C449 C444 1.413 1_554 S
C449 C448 1.403 . S
C449 H475 0.930 1_554 S
C450 O464 1.275 . S
C450 O465 1.256 . S
C451 O466 1.259 . S
C451 O467 1.268 . S
C452 Ho441 2.811 . S
C452 C453 1.488 . S
C452 O468 1.215 . S
C452 O469 1.289 . S
C453 C452 1.488 . S
C453 C454 1.348 . S
C453 C458 1.413 . S
C454 C453 1.348 . S
C454 C455 1.442 . S
C454 H476 0.930 . S
C455 C454 1.442 . S
C455 C456 1.381 . S
C455 H477 0.931 . S
C456 C455 1.381 . S
C456 C457 1.321 . S
C457 C456 1.321 . S
C457 C458 1.403 . S
C457 H478 0.934 . S
C458 C453 1.413 . S
C458 C457 1.403 . S
C458 H479 0.930 . S
C459 O470 1.275 . S
C459 O471 1.256 . S
O460 Ho440 2.322 . S
O460 C442 1.259 . S
O461 Ho441 2.346 . S
O461 C442 1.268 . S
O462 Ho440 2.378 . S
O462 C443 1.215 . S
O463 Ho440 2.524 . S
O463 C443 1.289 . S
O464 Ho440 2.381 . S
O464 C450 1.275 . S
O465 Ho440 2.669 . S
O465 Ho441 2.305 . S
O465 C450 1.256 . S
O466 Ho441 2.322 . S
O466 C451 1.259 . S
O467 Ho440 2.346 . S
O467 C451 1.268 . S
O468 Ho441 2.378 . S
O468 C452 1.215 . S
O469 Ho441 2.524 . S
O469 C452 1.289 . S
O470 Ho441 2.381 . S
O470 C459 1.275 . S
O471 Ho440 2.305 . S
O471 Ho441 2.669 . S
O471 C459 1.256 . S
H472 C445 0.930 1_556 S
H473 C446 0.931 . S
H474 C448 0.934 . S
H475 C449 0.930 1_556 S
H476 C454 0.930 . S
H477 C455 0.931 . S
H478 C457 0.934 . S
H479 C458 0.930 . S
Ho480 C483 2.811 . S
Ho480 O500 2.322 . S
Ho480 O502 2.378 . S
Ho480 O503 2.524 . S
Ho480 O504 2.381 . S
Ho480 O505 2.669 . S
Ho480 O507 2.346 . S
Ho480 O511 2.305 . S
Ho481 C492 2.811 . S
Ho481 O501 2.346 . S
Ho481 O505 2.305 . S
Ho481 O506 2.322 . S
Ho481 O508 2.378 . S
Ho481 O509 2.524 . S
Ho481 O510 2.381 . S
Ho481 O511 2.669 . S
C482 O500 1.259 . S
C482 O501 1.268 . S
C483 Ho480 2.811 . S
C483 C484 1.488 . S
C483 O502 1.215 . S
C483 O503 1.289 . S
C484 C483 1.488 . S
C484 C485 1.348 . S
C484 C489 1.413 . S
C485 C484 1.348 . S
C485 C486 1.442 . S
C485 H512 0.930 . S
C486 C485 1.442 . S
C486 C487 1.381 . S
C486 H513 0.931 . S
C487 C486 1.381 . S
C487 C488 1.321 . S
C488 C487 1.321 . S
C488 C489 1.403 . S
C488 H514 0.934 . S
C489 C484 1.413 . S
C489 C488 1.403 . S
C489 H515 0.930 . S
C490 O504 1.275 . S
C490 O505 1.256 . S
C491 O506 1.259 . S
C491 O507 1.268 . S
C492 Ho481 2.811 . S
C492 C493 1.488 1_554 S
C492 O508 1.215 . S
C492 O509 1.289 . S
C493 C492 1.488 1_556 S
C493 C494 1.348 . S
C493 C498 1.413 . S
C494 C493 1.348 . S
C494 C495 1.442 . S
C494 H516 0.930 . S
C495 C494 1.442 . S
C495 C496 1.381 . S
C495 H517 0.931 . S
C496 C495 1.381 . S
C496 C497 1.321 . S
C497 C496 1.321 . S
C497 C498 1.403 . S
C497 H518 0.934 . S
C498 C493 1.413 . S
C498 C497 1.403 . S
C498 H519 0.930 . S
C499 O510 1.275 . S
C499 O511 1.256 . S
O500 Ho480 2.322 . S
O500 C482 1.259 . S
O501 Ho481 2.346 . S
O501 C482 1.268 . S
O502 Ho480 2.378 . S
O502 C483 1.215 . S
O503 Ho480 2.524 . S
O503 C483 1.289 . S
O504 Ho480 2.381 . S
O504 C490 1.275 . S
O505 Ho480 2.669 . S
O505 Ho481 2.305 . S
O505 C490 1.256 . S
O506 Ho481 2.322 . S
O506 C491 1.259 . S
O507 Ho480 2.346 . S
O507 C491 1.268 . S
O508 Ho481 2.378 . S
O508 C492 1.215 . S
O509 Ho481 2.524 . S
O509 C492 1.289 . S
O510 Ho481 2.381 . S
O510 C499 1.275 . S
O511 Ho480 2.305 . S
O511 Ho481 2.669 . S
O511 C499 1.256 . S
H512 C485 0.930 . S
H513 C486 0.931 . S
H514 C488 0.934 . S
H515 C489 0.930 . S
H516 C494 0.930 . S
H517 C495 0.931 . S
H518 C497 0.934 . S
H519 C498 0.930 . S
Ho520 C523 2.811 . S
Ho520 O540 2.322 . S
Ho520 O542 2.378 . S
Ho520 O543 2.524 . S
Ho520 O544 2.381 . S
Ho520 O545 2.669 . S
Ho520 O547 2.346 . S
Ho520 O551 2.305 . S
Ho521 C532 2.811 . S
Ho521 O541 2.346 . S
Ho521 O545 2.305 . S
Ho521 O546 2.322 . S
Ho521 O548 2.378 . S
Ho521 O549 2.524 . S
Ho521 O550 2.381 . S
Ho521 O551 2.669 . S
C522 O540 1.259 . S
C522 O541 1.268 . S
C523 Ho520 2.811 . S
C523 C524 1.488 1_554 S
C523 O542 1.215 . S
C523 O543 1.289 . S
C524 C523 1.488 1_556 S
C524 C525 1.348 . S
C524 C529 1.413 . S
C525 C524 1.348 . S
C525 C526 1.442 . S
C525 H552 0.930 . S
C526 C525 1.442 . S
C526 C527 1.381 . S
C526 H553 0.931 . S
C527 C526 1.381 . S
C527 C528 1.321 . S
C528 C527 1.321 . S
C528 C529 1.403 . S
C528 H554 0.934 . S
C529 C524 1.413 . S
C529 C528 1.403 . S
C529 H555 0.930 . S
C530 O544 1.275 . S
C530 O545 1.256 . S
C531 O546 1.259 . S
C531 O547 1.268 . S
C532 Ho521 2.811 . S
C532 C533 1.488 . S
C532 O548 1.215 . S
C532 O549 1.289 . S
C533 C532 1.488 . S
C533 C534 1.348 . S
C533 C538 1.413 . S
C534 C533 1.348 . S
C534 C535 1.442 . S
C534 H556 0.930 . S
C535 C534 1.442 . S
C535 C536 1.381 . S
C535 H557 0.931 . S
C536 C535 1.381 . S
C536 C537 1.321 . S
C537 C536 1.321 . S
C537 C538 1.403 . S
C537 H558 0.934 . S
C538 C533 1.413 . S
C538 C537 1.403 . S
C538 H559 0.930 . S
C539 O550 1.275 . S
C539 O551 1.256 . S
O540 Ho520 2.322 . S
O540 C522 1.259 . S
O541 Ho521 2.346 . S
O541 C522 1.268 . S
O542 Ho520 2.378 . S
O542 C523 1.215 . S
O543 Ho520 2.524 . S
O543 C523 1.289 . S
O544 Ho520 2.381 . S
O544 C530 1.275 . S
O545 Ho520 2.669 . S
O545 Ho521 2.305 . S
O545 C530 1.256 . S
O546 Ho521 2.322 . S
O546 C531 1.259 . S
O547 Ho520 2.346 . S
O547 C531 1.268 . S
O548 Ho521 2.378 . S
O548 C532 1.215 . S
O549 Ho521 2.524 . S
O549 C532 1.289 . S
O550 Ho521 2.381 . S
O550 C539 1.275 . S
O551 Ho520 2.305 . S
O551 Ho521 2.669 . S
O551 C539 1.256 . S
H552 C525 0.930 . S
H553 C526 0.931 . S
H554 C528 0.934 . S
H555 C529 0.930 . S
H556 C534 0.930 . S
H557 C535 0.931 . S
H558 C537 0.934 . S
H559 C538 0.930 . S
Ho560 C563 2.811 . S
Ho560 O580 2.322 . S
Ho560 O582 2.378 . S
Ho560 O583 2.524 . S
Ho560 O584 2.381 . S
Ho560 O585 2.669 . S
Ho560 O587 2.346 . S
Ho560 O591 2.305 . S
Ho561 C572 2.811 . S
Ho561 O581 2.346 . S
Ho561 O585 2.305 . S
Ho561 O586 2.322 . S
Ho561 O588 2.378 . S
Ho561 O589 2.524 . S
Ho561 O590 2.381 . S
Ho561 O591 2.669 . S
C562 O580 1.259 . S
C562 O581 1.268 . S
C563 Ho560 2.811 . S
C563 C564 1.488 . S
C563 O582 1.215 . S
C563 O583 1.289 . S
C564 C563 1.488 . S
C564 C565 1.348 . S
C564 C569 1.413 . S
C565 C564 1.348 . S
C565 C566 1.442 . S
C565 H592 0.930 . S
C566 C565 1.442 . S
C566 C567 1.381 . S
C566 H593 0.931 . S
C567 C566 1.381 . S
C567 C568 1.321 . S
C568 C567 1.321 . S
C568 C569 1.403 . S
C568 H594 0.934 . S
C569 C564 1.413 . S
C569 C568 1.403 . S
C569 H595 0.930 . S
C570 O584 1.275 . S
C570 O585 1.256 . S
C571 O586 1.259 . S
C571 O587 1.268 . S
C572 Ho561 2.811 . S
C572 C573 1.488 . S
C572 O588 1.215 . S
C572 O589 1.289 . S
C573 C572 1.488 . S
C573 C574 1.348 1_554 S
C573 C578 1.413 1_554 S
C574 C573 1.348 1_556 S
C574 C575 1.442 . S
C574 H596 0.930 . S
C575 C574 1.442 . S
C575 C576 1.381 . S
C575 H597 0.931 . S
C576 C575 1.381 . S
C576 C577 1.321 . S
C577 C576 1.321 . S
C577 C578 1.403 . S
C577 H598 0.934 . S
C578 C573 1.413 1_556 S
C578 C577 1.403 . S
C578 H599 0.934 . S
C579 O590 1.275 . S
C579 O591 1.256 . S
O580 Ho560 2.322 . S
O580 C562 1.259 . S
O581 Ho561 2.346 . S
O581 C562 1.268 . S
O582 Ho560 2.378 . S
O582 C563 1.215 . S
O583 Ho560 2.524 . S
O583 C563 1.289 . S
O584 Ho560 2.381 . S
O584 C570 1.275 . S
O585 Ho560 2.669 . S
O585 Ho561 2.305 . S
O585 C570 1.256 . S
O586 Ho561 2.322 . S
O586 C571 1.259 . S
O587 Ho560 2.346 . S
O587 C571 1.268 . S
O588 Ho561 2.378 . S
O588 C572 1.215 . S
O589 Ho561 2.524 . S
O589 C572 1.289 . S
O590 Ho561 2.381 . S
O590 C579 1.275 . S
O591 Ho560 2.305 . S
O591 Ho561 2.669 . S
O591 C579 1.256 . S
H592 C565 0.930 . S
H593 C566 0.931 . S
H594 C568 0.934 . S
H595 C569 0.930 . S
H596 C574 0.930 . S
H597 C575 0.931 . S
H598 C577 0.934 . S
H599 C578 0.934 . S
Ho600 C603 2.811 . S
Ho600 O620 2.322 . S
Ho600 O622 2.378 . S
Ho600 O623 2.524 . S
Ho600 O624 2.381 . S
Ho600 O625 2.669 . S
Ho600 O627 2.346 . S
Ho600 O631 2.305 . S
Ho601 C612 2.811 . S
Ho601 O621 2.346 . S
Ho601 O625 2.305 . S
Ho601 O626 2.322 . S
Ho601 O628 2.378 . S
Ho601 O629 2.524 . S
Ho601 O630 2.381 . S
Ho601 O631 2.669 . S
C602 O620 1.259 . S
C602 O621 1.268 . S
C603 Ho600 2.811 . S
C603 C604 1.488 . S
C603 O622 1.215 . S
C603 O623 1.289 . S
C604 C603 1.488 . S
C604 C605 1.348 . S
C604 C609 1.413 . S
C605 C604 1.348 . S
C605 C606 1.442 . S
C605 H632 0.930 . S
C606 C605 1.442 . S
C606 C607 1.381 . S
C606 H633 0.931 . S
C607 C606 1.381 . S
C607 C608 1.321 . S
C608 C607 1.321 . S
C608 C609 1.403 . S
C608 H634 0.934 . S
C609 C604 1.413 . S
C609 C608 1.403 . S
C609 H635 0.930 . S
C610 O624 1.275 . S
C610 O625 1.256 . S
C611 O626 1.259 . S
C611 O627 1.268 . S
C612 Ho601 2.811 . S
C612 C613 1.488 1_554 S
C612 O628 1.215 . S
C612 O629 1.289 . S
C613 C612 1.488 1_556 S
C613 C614 1.348 . S
C613 C618 1.413 . S
C614 C613 1.348 . S
C614 C615 1.442 . S
C614 H636 0.930 . S
C615 C614 1.442 . S
C615 C616 1.381 . S
C615 H637 0.931 . S
C616 C615 1.381 . S
C616 C617 1.321 . S
C617 C616 1.321 . S
C617 C618 1.403 . S
C617 H638 0.934 . S
C618 C613 1.413 . S
C618 C617 1.403 . S
C618 H639 0.930 . S
C619 O630 1.275 . S
C619 O631 1.256 . S
O620 Ho600 2.322 . S
O620 C602 1.259 . S
O621 Ho601 2.346 . S
O621 C602 1.268 . S
O622 Ho600 2.378 . S
O622 C603 1.215 . S
O623 Ho600 2.524 . S
O623 C603 1.289 . S
O624 Ho600 2.381 . S
O624 C610 1.275 . S
O625 Ho600 2.669 . S
O625 Ho601 2.305 . S
O625 C610 1.256 . S
O626 Ho601 2.322 . S
O626 C611 1.259 . S
O627 Ho600 2.346 . S
O627 C611 1.268 . S
O628 Ho601 2.378 . S
O628 C612 1.215 . S
O629 Ho601 2.524 . S
O629 C612 1.289 . S
O630 Ho601 2.381 . S
O630 C619 1.275 . S
O631 Ho600 2.305 . S
O631 Ho601 2.669 . S
O631 C619 1.256 . S
H632 C605 0.930 . S
H633 C606 0.931 . S
H634 C608 0.934 . S
H635 C609 0.930 . S
H636 C614 0.930 . S
H637 C615 0.931 . S
H638 C617 0.934 . S
H639 C618 0.930 . S
Ho640 C643 2.811 . S
Ho640 O660 2.322 . S
Ho640 O662 2.378 . S
Ho640 O663 2.524 . S
Ho640 O664 2.381 . S
Ho640 O665 2.669 . S
Ho640 O667 2.346 . S
Ho640 O671 2.305 . S
Ho641 C652 2.811 . S
Ho641 O661 2.346 . S
Ho641 O665 2.305 . S
Ho641 O666 2.322 . S
Ho641 O668 2.378 . S
Ho641 O669 2.524 . S
Ho641 O670 2.381 . S
Ho641 O671 2.669 . S
C642 O660 1.259 . S
C642 O661 1.268 . S
C643 Ho640 2.811 . S
C643 C644 1.488 . S
C643 O662 1.215 . S
C643 O663 1.289 . S
C644 C643 1.488 . S
C644 C645 1.348 . S
C644 C649 1.413 . S
C645 C644 1.348 . S
C645 C646 1.442 1_554 S
C645 H672 0.930 . S
C646 C645 1.442 1_556 S
C646 C647 1.381 . S
C646 H673 0.931 . S
C647 C646 1.381 . S
C647 C648 1.321 . S
C648 C647 1.321 . S
C648 C649 1.403 1_556 S
C648 H674 0.934 . S
C649 C644 1.413 . S
C649 C648 1.403 1_554 S
C649 H675 0.930 . S
C650 O664 1.275 . S
C650 O665 1.256 . S
C651 O666 1.259 . S
C651 O667 1.268 . S
C652 Ho641 2.811 . S
C652 C653 1.488 . S
C652 O668 1.215 . S
C652 O669 1.289 . S
C653 C652 1.488 . S
C653 C654 1.348 . S
C653 C658 1.413 . S
C654 C653 1.348 . S
C654 C655 1.442 . S
C654 H676 0.930 . S
C655 C654 1.442 . S
C655 C656 1.381 . S
C655 H677 0.931 . S
C656 C655 1.381 . S
C656 C657 1.321 . S
C657 C656 1.321 . S
C657 C658 1.403 . S
C657 H678 0.934 . S
C658 C653 1.413 . S
C658 C657 1.403 . S
C658 H679 0.930 . S
C659 O670 1.275 . S
C659 O671 1.256 . S
O660 Ho640 2.322 . S
O660 C642 1.259 . S
O661 Ho641 2.346 . S
O661 C642 1.268 . S
O662 Ho640 2.378 . S
O662 C643 1.215 . S
O663 Ho640 2.524 . S
O663 C643 1.289 . S
O664 Ho640 2.381 . S
O664 C650 1.275 . S
O665 Ho640 2.669 . S
O665 Ho641 2.305 . S
O665 C650 1.256 . S
O666 Ho641 2.322 . S
O666 C651 1.259 . S
O667 Ho640 2.346 . S
O667 C651 1.268 . S
O668 Ho641 2.378 . S
O668 C652 1.215 . S
O669 Ho641 2.524 . S
O669 C652 1.289 . S
O670 Ho641 2.381 . S
O670 C659 1.275 . S
O671 Ho640 2.305 . S
O671 Ho641 2.669 . S
O671 C659 1.256 . S
H672 C645 0.930 . S
H673 C646 0.931 . S
H674 C648 0.934 . S
H675 C649 0.930 . S
H676 C654 0.930 . S
H677 C655 0.931 . S
H678 C657 0.934 . S
H679 C658 0.930 . S
Ho680 C683 2.811 . S
Ho680 O700 2.322 . S
Ho680 O702 2.378 . S
Ho680 O703 2.524 . S
Ho680 O704 2.381 . S
Ho680 O705 2.669 . S
Ho680 O707 2.346 . S
Ho680 O711 2.305 . S
Ho681 C692 2.811 . S
Ho681 O701 2.346 . S
Ho681 O705 2.305 . S
Ho681 O706 2.322 . S
Ho681 O708 2.378 . S
Ho681 O709 2.524 . S
Ho681 O710 2.381 . S
Ho681 O711 2.669 . S
C682 O700 1.259 . S
C682 O701 1.268 . S
C683 Ho680 2.811 . S
C683 C684 1.488 . S
C683 O702 1.215 . S
C683 O703 1.289 . S
C684 C683 1.488 . S
C684 C685 1.348 . S
C684 C689 1.413 . S
C685 C684 1.348 . S
C685 C686 1.442 . S
C685 H712 0.930 . S
C686 C685 1.442 . S
C686 C687 1.381 . S
C686 H713 0.931 . S
C687 C686 1.381 . S
C687 C688 1.321 . S
C688 C687 1.321 . S
C688 C689 1.403 . S
C688 H714 0.934 . S
C689 C684 1.413 . S
C689 C688 1.403 . S
C689 H715 0.930 . S
C690 O704 1.275 . S
C690 O705 1.256 . S
C691 O706 1.259 . S
C691 O707 1.268 . S
C692 Ho681 2.811 . S
C692 C693 1.488 . S
C692 O708 1.215 . S
C692 O709 1.289 . S
C693 C692 1.488 . S
C693 C694 1.348 . S
C693 C698 1.413 . S
C694 C693 1.348 . S
C694 C695 1.442 1_554 S
C694 H716 0.930 . S
C695 C694 1.442 1_556 S
C695 C696 1.381 . S
C695 H717 0.931 . S
C696 C695 1.381 . S
C696 C697 1.321 . S
C697 C696 1.321 . S
C697 C698 1.403 1_556 S
C697 H718 0.934 . S
C698 C693 1.413 . S
C698 C697 1.403 1_554 S
C698 H719 0.930 . S
C699 O710 1.275 . S
C699 O711 1.256 . S
O700 Ho680 2.322 . S
O700 C682 1.259 . S
O701 Ho681 2.346 . S
O701 C682 1.268 . S
O702 Ho680 2.378 . S
O702 C683 1.215 . S
O703 Ho680 2.524 . S
O703 C683 1.289 . S
O704 Ho680 2.381 . S
O704 C690 1.275 . S
O705 Ho680 2.669 . S
O705 Ho681 2.305 . S
O705 C690 1.256 . S
O706 Ho681 2.322 . S
O706 C691 1.259 . S
O707 Ho680 2.346 . S
O707 C691 1.268 . S
O708 Ho681 2.378 . S
O708 C692 1.215 . S
O709 Ho681 2.524 . S
O709 C692 1.289 . S
O710 Ho681 2.381 . S
O710 C699 1.275 . S
O711 Ho680 2.305 . S
O711 Ho681 2.669 . S
O711 C699 1.256 . S
H712 C685 0.930 . S
H713 C686 0.931 . S
H714 C688 0.934 . S
H715 C689 0.930 . S
H716 C694 0.930 . S
H717 C695 0.931 . S
H718 C697 0.934 . S
H719 C698 0.930 . S
C720 C721 1.349 . S
C720 C722 1.327 . S
C720 H745 0.950 . S
C721 C720 1.349 . S
C721 C737 1.349 . S
C722 C720 1.327 . S
C722 C741 1.429 . S
C722 H746 0.950 . S
C723 C740 1.574 . S
C723 C742 1.368 . S
C723 H747 0.949 . S
H724 C728 0.949 . S
C725 C726 1.349 . S
C725 C727 1.327 . S
C725 H748 0.950 . S
C726 C725 1.349 . S
C726 C738 1.349 . S
C727 C725 1.327 . S
C727 C743 1.429 . S
C727 H749 0.950 . S
C728 H724 0.949 . S
C728 C736 1.574 . S
C728 C744 1.368 . S
H729 C737 0.950 . S
H730 C735 0.950 . S
H731 C736 0.949 . S
H732 C738 0.950 . S
H733 C739 0.950 . S
H734 C740 0.949 . S
C735 H730 0.950 . S
C735 C737 1.327 . S
C735 C741 1.429 . S
C736 C728 1.574 . S
C736 H731 0.949 . S
C736 C742 1.368 . S
C737 C721 1.349 . S
C737 H729 0.950 . S
C737 C735 1.327 . S
C738 C726 1.349 . S
C738 H732 0.950 . S
C738 C739 1.327 . S
C739 H733 0.950 . S
C739 C738 1.327 . S
C739 C743 1.429 . S
C740 C723 1.574 . S
C740 H734 0.949 . S
C740 C744 1.368 . S
C741 C722 1.429 . S
C741 C735 1.429 . S
C741 C742 1.523 . S
C742 C723 1.368 . S
C742 C736 1.368 . S
C742 C741 1.523 . S
C743 C727 1.429 . S
C743 C739 1.429 . S
C743 C744 1.523 . S
C744 C728 1.368 . S
C744 C740 1.368 . S
C744 C743 1.523 . S
H745 C720 0.950 . S
H746 C722 0.950 . S
H747 C723 0.949 . S
H748 C725 0.950 . S
H749 C727 0.950 . S
C750 C751 1.349 . S
C750 C752 1.327 . S
C750 H775 0.950 . S
C751 C750 1.349 . S
C751 C767 1.349 . S
C752 C750 1.327 . S
C752 C771 1.429 . S
C752 H776 0.950 . S
C753 C770 1.574 . S
C753 C772 1.368 . S
C753 H777 0.949 . S
H754 C758 0.949 . S
C755 C756 1.349 . S
C755 C757 1.327 . S
C755 H778 0.950 . S
C756 C755 1.349 . S
C756 C768 1.349 . S
C757 C755 1.327 . S
C757 C773 1.429 . S
C757 H779 0.950 . S
C758 H754 0.949 . S
C758 C766 1.574 . S
C758 C774 1.368 . S
H759 C767 0.950 . S
H760 C765 0.950 . S
H761 C766 0.949 . S
H762 C768 0.950 . S
H763 C769 0.950 . S
H764 C770 0.949 . S
C765 H760 0.950 . S
C765 C767 1.327 . S
C765 C771 1.429 . S
C766 C758 1.574 . S
C766 H761 0.949 . S
C766 C772 1.368 . S
C767 C751 1.349 . S
C767 H759 0.950 . S
C767 C765 1.327 . S
C768 C756 1.349 . S
C768 H762 0.950 . S
C768 C769 1.327 . S
C769 H763 0.950 . S
C769 C768 1.327 . S
C769 C773 1.429 . S
C770 C753 1.574 . S
C770 H764 0.949 . S
C770 C774 1.368 . S
C771 C752 1.429 . S
C771 C765 1.429 . S
C771 C772 1.523 . S
C772 C753 1.368 . S
C772 C766 1.368 . S
C772 C771 1.523 . S
C773 C757 1.429 . S
C773 C769 1.429 . S
C773 C774 1.523 . S
C774 C758 1.368 . S
C774 C770 1.368 . S
C774 C773 1.523 . S
H775 C750 0.950 . S
H776 C752 0.950 . S
H777 C753 0.949 . S
H778 C755 0.950 . S
H779 C757 0.950 . S
C780 C781 1.349 . S
C780 C782 1.327 . S
C780 H805 0.950 . S
C781 C780 1.349 . S
C781 C797 1.349 . S
C782 C780 1.327 . S
C782 C801 1.429 . S
C782 H806 0.950 . S
C783 C800 1.574 . S
C783 C802 1.368 . S
C783 H807 0.949 . S
H784 C788 0.949 . S
C785 C786 1.349 . S
C785 C787 1.327 . S
C785 H808 0.950 . S
C786 C785 1.349 . S
C786 C798 1.349 . S
C787 C785 1.327 . S
C787 C803 1.429 . S
C787 H809 0.950 . S
C788 H784 0.949 . S
C788 C796 1.574 . S
C788 C804 1.368 . S
H789 C797 0.950 . S
H790 C795 0.950 . S
H791 C796 0.949 . S
H792 C798 0.950 . S
H793 C799 0.950 . S
H794 C800 0.949 . S
C795 H790 0.950 . S
C795 C797 1.327 . S
C795 C801 1.429 . S
C796 C788 1.574 . S
C796 H791 0.949 . S
C796 C802 1.368 . S
C797 C781 1.349 . S
C797 H789 0.950 . S
C797 C795 1.327 . S
C798 C786 1.349 . S
C798 H792 0.950 . S
C798 C799 1.327 . S
C799 H793 0.950 . S
C799 C798 1.327 . S
C799 C803 1.429 . S
C800 C783 1.574 . S
C800 H794 0.949 . S
C800 C804 1.368 . S
C801 C782 1.429 . S
C801 C795 1.429 . S
C801 C802 1.523 . S
C802 C783 1.368 . S
C802 C796 1.368 . S
C802 C801 1.523 . S
C803 C787 1.429 . S
C803 C799 1.429 . S
C803 C804 1.523 . S
C804 C788 1.368 . S
C804 C800 1.368 . S
C804 C803 1.523 . S
H805 C780 0.950 . S
H806 C782 0.950 . S
H807 C783 0.949 . S
H808 C785 0.950 . S
H809 C787 0.950 . S
C810 C811 1.349 . S
C810 C812 1.327 . S
C810 H835 0.950 . S
C811 C810 1.349 . S
C811 C827 1.349 . S
C812 C810 1.327 . S
C812 C831 1.429 . S
C812 H836 0.950 . S
C813 C830 1.574 . S
C813 C832 1.368 . S
C813 H837 0.949 . S
H814 C818 0.949 . S
C815 C816 1.349 . S
C815 C817 1.327 . S
C815 H838 0.950 . S
C816 C815 1.349 . S
C816 C828 1.349 . S
C817 C815 1.327 . S
C817 C833 1.429 . S
C817 H839 0.950 . S
C818 H814 0.949 . S
C818 C826 1.574 . S
C818 C834 1.368 . S
H819 C827 0.950 . S
H820 C825 0.950 . S
H821 C826 0.949 . S
H822 C828 0.950 . S
H823 C829 0.950 . S
H824 C830 0.949 . S
C825 H820 0.950 . S
C825 C827 1.327 . S
C825 C831 1.429 . S
C826 C818 1.574 . S
C826 H821 0.949 . S
C826 C832 1.368 . S
C827 C811 1.349 . S
C827 H819 0.950 . S
C827 C825 1.327 . S
C828 C816 1.349 . S
C828 H822 0.950 . S
C828 C829 1.327 . S
C829 H823 0.950 . S
C829 C828 1.327 . S
C829 C833 1.429 . S
C830 C813 1.574 . S
C830 H824 0.949 . S
C830 C834 1.368 . S
C831 C812 1.429 . S
C831 C825 1.429 . S
C831 C832 1.523 . S
C832 C813 1.368 . S
C832 C826 1.368 . S
C832 C831 1.523 . S
C833 C817 1.429 . S
C833 C829 1.429 . S
C833 C834 1.523 . S
C834 C818 1.368 . S
C834 C830 1.368 . S
C834 C833 1.523 . S
H835 C810 0.950 . S
H836 C812 0.950 . S
H837 C813 0.949 . S
H838 C815 0.950 . S
H839 C817 0.950 . S
C840 C841 1.349 . S
C840 C842 1.327 . S
C840 H865 0.950 . S
C841 C840 1.349 . S
C841 C857 1.349 . S
C842 C840 1.327 . S
C842 C861 1.429 . S
C842 H866 0.950 . S
C843 C860 1.574 . S
C843 C862 1.368 . S
C843 H867 0.949 . S
H844 C848 0.949 . S
C845 C846 1.349 . S
C845 C847 1.327 . S
C845 H868 0.950 . S
C846 C845 1.349 . S
C846 C858 1.349 . S
C847 C845 1.327 . S
C847 C863 1.429 . S
C847 H869 0.950 . S
C848 H844 0.949 . S
C848 C856 1.574 . S
C848 C864 1.368 . S
H849 C857 0.950 . S
H850 C855 0.950 . S
H851 C856 0.949 . S
H852 C858 0.950 . S
H853 C859 0.950 . S
H854 C860 0.949 . S
C855 H850 0.950 . S
C855 C857 1.327 . S
C855 C861 1.429 . S
C856 C848 1.574 . S
C856 H851 0.949 . S
C856 C862 1.368 . S
C857 C841 1.349 . S
C857 H849 0.950 . S
C857 C855 1.327 . S
C858 C846 1.349 . S
C858 H852 0.950 . S
C858 C859 1.327 . S
C859 H853 0.950 . S
C859 C858 1.327 . S
C859 C863 1.429 . S
C860 C843 1.574 . S
C860 H854 0.949 . S
C860 C864 1.368 . S
C861 C842 1.429 . S
C861 C855 1.429 . S
C861 C862 1.523 . S
C862 C843 1.368 . S
C862 C856 1.368 . S
C862 C861 1.523 . S
C863 C847 1.429 . S
C863 C859 1.429 . S
C863 C864 1.523 . S
C864 C848 1.368 . S
C864 C860 1.368 . S
C864 C863 1.523 . S
H865 C840 0.950 . S
H866 C842 0.950 . S
H867 C843 0.949 . S
H868 C845 0.950 . S
H869 C847 0.950 . S
C870 C871 1.349 . S
C870 C872 1.327 . S
C870 H895 0.950 . S
C871 C870 1.349 . S
C871 C887 1.349 . S
C872 C870 1.327 . S
C872 C891 1.429 . S
C872 H896 0.950 . S
C873 C890 1.574 . S
C873 C892 1.368 . S
C873 H897 0.949 . S
H874 C878 0.949 . S
C875 C876 1.349 . S
C875 C877 1.327 . S
C875 H898 0.950 . S
C876 C875 1.349 . S
C876 C888 1.349 . S
C877 C875 1.327 . S
C877 C893 1.429 . S
C877 H899 0.950 . S
C878 H874 0.949 . S
C878 C886 1.574 . S
C878 C894 1.368 . S
H879 C887 0.950 . S
H880 C885 0.950 . S
H881 C886 0.949 . S
H882 C888 0.950 . S
H883 C889 0.950 . S
H884 C890 0.949 . S
C885 H880 0.950 . S
C885 C887 1.327 . S
C885 C891 1.429 . S
C886 C878 1.574 . S
C886 H881 0.949 . S
C886 C892 1.368 . S
C887 C871 1.349 . S
C887 H879 0.950 . S
C887 C885 1.327 . S
C888 C876 1.349 . S
C888 H882 0.950 . S
C888 C889 1.327 . S
C889 H883 0.950 . S
C889 C888 1.327 . S
C889 C893 1.429 . S
C890 C873 1.574 . S
C890 H884 0.949 . S
C890 C894 1.368 . S
C891 C872 1.429 . S
C891 C885 1.429 . S
C891 C892 1.523 . S
C892 C873 1.368 . S
C892 C886 1.368 . S
C892 C891 1.523 . S
C893 C877 1.429 . S
C893 C889 1.429 . S
C893 C894 1.523 . S
C894 C878 1.368 . S
C894 C890 1.368 . S
C894 C893 1.523 . S
H895 C870 0.950 . S
H896 C872 0.950 . S
H897 C873 0.949 . S
H898 C875 0.950 . S
H899 C877 0.950 . S
C900 C901 1.349 . S
C900 C902 1.327 . S
C900 H925 0.950 . S
C901 C900 1.349 . S
C901 C917 1.349 . S
C902 C900 1.327 . S
C902 C921 1.429 . S
C902 H926 0.950 . S
C903 C920 1.574 . S
C903 C922 1.368 . S
C903 H927 0.949 . S
H904 C908 0.949 . S
C905 C906 1.349 . S
C905 C907 1.327 . S
C905 H928 0.950 . S
C906 C905 1.349 . S
C906 C918 1.349 . S
C907 C905 1.327 . S
C907 C923 1.429 . S
C907 H929 0.950 . S
C908 H904 0.949 . S
C908 C916 1.574 . S
C908 C924 1.368 . S
H909 C917 0.950 . S
H910 C915 0.950 . S
H911 C916 0.949 . S
H912 C918 0.950 . S
H913 C919 0.950 . S
H914 C920 0.949 . S
C915 H910 0.950 . S
C915 C917 1.327 . S
C915 C921 1.429 . S
C916 C908 1.574 . S
C916 H911 0.949 . S
C916 C922 1.368 . S
C917 C901 1.349 . S
C917 H909 0.950 . S
C917 C915 1.327 . S
C918 C906 1.349 . S
C918 H912 0.950 . S
C918 C919 1.327 . S
C919 H913 0.950 . S
C919 C918 1.327 . S
C919 C923 1.429 . S
C920 C903 1.574 . S
C920 H914 0.949 . S
C920 C924 1.368 . S
C921 C902 1.429 . S
C921 C915 1.429 . S
C921 C922 1.523 . S
C922 C903 1.368 . S
C922 C916 1.368 . S
C922 C921 1.523 . S
C923 C907 1.429 . S
C923 C919 1.429 . S
C923 C924 1.523 . S
C924 C908 1.368 . S
C924 C920 1.368 . S
C924 C923 1.523 . S
H925 C900 0.950 . S
H926 C902 0.950 . S
H927 C903 0.949 . S
H928 C905 0.950 . S
H929 C907 0.950 . S
C930 C931 1.349 . S
C930 C932 1.327 . S
C930 H955 0.950 . S
C931 C930 1.349 . S
C931 C947 1.349 . S
C932 C930 1.327 . S
C932 C951 1.429 . S
C932 H956 0.950 . S
C933 C950 1.574 . S
C933 C952 1.368 . S
C933 H957 0.949 . S
H934 C938 0.949 . S
C935 C936 1.349 . S
C935 C937 1.327 . S
C935 H958 0.950 . S
C936 C935 1.349 . S
C936 C948 1.349 . S
C937 C935 1.327 . S
C937 C953 1.429 . S
C937 H959 0.950 . S
C938 H934 0.949 . S
C938 C946 1.574 . S
C938 C954 1.368 . S
H939 C947 0.950 . S
H940 C945 0.950 . S
H941 C946 0.949 . S
H942 C948 0.950 . S
H943 C949 0.950 . S
H944 C950 0.949 . S
C945 H940 0.950 . S
C945 C947 1.327 . S
C945 C951 1.429 . S
C946 C938 1.574 . S
C946 H941 0.949 . S
C946 C952 1.368 . S
C947 C931 1.349 . S
C947 H939 0.950 . S
C947 C945 1.327 . S
C948 C936 1.349 . S
C948 H942 0.950 . S
C948 C949 1.327 . S
C949 H943 0.950 . S
C949 C948 1.327 . S
C949 C953 1.429 . S
C950 C933 1.574 . S
C950 H944 0.949 . S
C950 C954 1.368 . S
C951 C932 1.429 . S
C951 C945 1.429 . S
C951 C952 1.523 . S
C952 C933 1.368 . S
C952 C946 1.368 . S
C952 C951 1.523 . S
C953 C937 1.429 . S
C953 C949 1.429 . S
C953 C954 1.523 . S
C954 C938 1.368 . S
C954 C950 1.368 . S
C954 C953 1.523 . S
H955 C930 0.950 . S
H956 C932 0.950 . S
H957 C933 0.949 . S
H958 C935 0.950 . S
H959 C937 0.950 . S
C960 C961 1.349 . S
C960 C962 1.327 . S
C960 H985 0.950 . S
C961 C960 1.349 . S
C961 C977 1.349 . S
C962 C960 1.327 . S
C962 C981 1.429 . S
C962 H986 0.950 . S
C963 C980 1.574 . S
C963 C982 1.368 . S
C963 H987 0.949 . S
H964 C968 0.949 . S
C965 C966 1.349 . S
C965 C967 1.327 . S
C965 H988 0.950 . S
C966 C965 1.349 . S
C966 C978 1.349 . S
C967 C965 1.327 . S
C967 C983 1.429 . S
C967 H989 0.950 . S
C968 H964 0.949 . S
C968 C976 1.574 . S
C968 C984 1.368 . S
H969 C977 0.950 . S
H970 C975 0.950 . S
H971 C976 0.949 . S
H972 C978 0.950 . S
H973 C979 0.950 . S
H974 C980 0.949 . S
C975 H970 0.950 . S
C975 C977 1.327 . S
C975 C981 1.429 . S
C976 C968 1.574 . S
C976 H971 0.949 . S
C976 C982 1.368 . S
C977 C961 1.349 . S
C977 H969 0.950 . S
C977 C975 1.327 . S
C978 C966 1.349 . S
C978 H972 0.950 . S
C978 C979 1.327 . S
C979 H973 0.950 . S
C979 C978 1.327 . S
C979 C983 1.429 . S
C980 C963 1.574 . S
C980 H974 0.949 . S
C980 C984 1.368 . S
C981 C962 1.429 . S
C981 C975 1.429 . S
C981 C982 1.523 . S
C982 C963 1.368 . S
C982 C976 1.368 . S
C982 C981 1.523 . S
C983 C967 1.429 . S
C983 C979 1.429 . S
C983 C984 1.523 . S
C984 C968 1.368 . S
C984 C980 1.368 . S
C984 C983 1.523 . S
H985 C960 0.950 . S
H986 C962 0.950 . S
H987 C963 0.949 . S
H988 C965 0.950 . S
H989 C967 0.950 . S
C990 C991 1.349 . S
C990 C992 1.327 . S
C990 H1015 0.950 . S
C991 C990 1.349 . S
C991 C1007 1.349 . S
C992 C990 1.327 . S
C992 C1011 1.429 . S
C992 H1016 0.950 . S
C993 C1010 1.574 . S
C993 C1012 1.368 . S
C993 H1017 0.949 . S
H994 C998 0.949 . S
C995 C996 1.349 . S
C995 C997 1.327 . S
C995 H1018 0.950 . S
C996 C995 1.349 . S
C996 C1008 1.349 . S
C997 C995 1.327 . S
C997 C1013 1.429 . S
C997 H1019 0.950 . S
C998 H994 0.949 . S
C998 C1006 1.574 . S
C998 C1014 1.368 . S
H999 C1007 0.950 . S
H1000 C1005 0.950 . S
H1001 C1006 0.949 . S
H1002 C1008 0.950 . S
H1003 C1009 0.950 . S
H1004 C1010 0.949 . S
C1005 H1000 0.950 . S
C1005 C1007 1.327 . S
C1005 C1011 1.429 . S
C1006 C998 1.574 . S
C1006 H1001 0.949 . S
C1006 C1012 1.368 . S
C1007 C991 1.349 . S
C1007 H999 0.950 . S
C1007 C1005 1.327 . S
C1008 C996 1.349 . S
C1008 H1002 0.950 . S
C1008 C1009 1.327 . S
C1009 H1003 0.950 . S
C1009 C1008 1.327 . S
C1009 C1013 1.429 . S
C1010 C993 1.574 . S
C1010 H1004 0.949 . S
C1010 C1014 1.368 . S
C1011 C992 1.429 . S
C1011 C1005 1.429 . S
C1011 C1012 1.523 . S
C1012 C993 1.368 . S
C1012 C1006 1.368 . S
C1012 C1011 1.523 . S
C1013 C997 1.429 . S
C1013 C1009 1.429 . S
C1013 C1014 1.523 . S
C1014 C998 1.368 . S
C1014 C1010 1.368 . S
C1014 C1013 1.523 . S
H1015 C990 0.950 . S
H1016 C992 0.950 . S
H1017 C993 0.949 . S
H1018 C995 0.950 . S
H1019 C997 0.950 . S
C1020 C1021 1.349 . S
C1020 C1022 1.327 . S
C1020 H1045 0.950 . S
C1021 C1020 1.349 . S
C1021 C1037 1.349 . S
C1022 C1020 1.327 . S
C1022 C1041 1.429 . S
C1022 H1046 0.950 . S
C1023 C1040 1.574 . S
C1023 C1042 1.368 . S
C1023 H1047 0.949 . S
H1024 C1028 0.949 . S
C1025 C1026 1.349 . S
C1025 C1027 1.327 . S
C1025 H1048 0.950 . S
C1026 C1025 1.349 . S
C1026 C1038 1.349 . S
C1027 C1025 1.327 . S
C1027 C1043 1.429 . S
C1027 H1049 0.950 . S
C1028 H1024 0.949 . S
C1028 C1036 1.574 . S
C1028 C1044 1.368 . S
H1029 C1037 0.950 . S
H1030 C1035 0.950 . S
H1031 C1036 0.949 . S
H1032 C1038 0.950 . S
H1033 C1039 0.950 . S
H1034 C1040 0.949 . S
C1035 H1030 0.950 . S
C1035 C1037 1.327 . S
C1035 C1041 1.429 . S
C1036 C1028 1.574 . S
C1036 H1031 0.949 . S
C1036 C1042 1.368 . S
C1037 C1021 1.349 . S
C1037 H1029 0.950 . S
C1037 C1035 1.327 . S
C1038 C1026 1.349 . S
C1038 H1032 0.950 . S
C1038 C1039 1.327 . S
C1039 H1033 0.950 . S
C1039 C1038 1.327 . S
C1039 C1043 1.429 . S
C1040 C1023 1.574 . S
C1040 H1034 0.949 . S
C1040 C1044 1.368 . S
C1041 C1022 1.429 . S
C1041 C1035 1.429 . S
C1041 C1042 1.523 . S
C1042 C1023 1.368 . S
C1042 C1036 1.368 . S
C1042 C1041 1.523 . S
C1043 C1027 1.429 . S
C1043 C1039 1.429 . S
C1043 C1044 1.523 . S
C1044 C1028 1.368 . S
C1044 C1040 1.368 . S
C1044 C1043 1.523 . S
H1045 C1020 0.950 . S
H1046 C1022 0.950 . S
H1047 C1023 0.949 . S
H1048 C1025 0.950 . S
H1049 C1027 0.950 . S
C1050 C1051 1.349 . S
C1050 C1052 1.327 . S
C1050 H1075 0.950 . S
C1051 C1050 1.349 . S
C1051 C1067 1.349 . S
C1052 C1050 1.327 . S
C1052 C1071 1.429 . S
C1052 H1076 0.950 . S
C1053 C1070 1.574 . S
C1053 C1072 1.368 . S
C1053 H1077 0.949 . S
H1054 C1058 0.949 . S
C1055 C1056 1.349 . S
C1055 C1057 1.327 . S
C1055 H1078 0.950 . S
C1056 C1055 1.349 . S
C1056 C1068 1.349 . S
C1057 C1055 1.327 . S
C1057 C1073 1.429 . S
C1057 H1079 0.950 . S
C1058 H1054 0.949 . S
C1058 C1066 1.574 . S
C1058 C1074 1.368 . S
H1059 C1067 0.950 . S
H1060 C1065 0.950 . S
H1061 C1066 0.949 . S
H1062 C1068 0.950 . S
H1063 C1069 0.950 . S
H1064 C1070 0.949 . S
C1065 H1060 0.950 . S
C1065 C1067 1.327 . S
C1065 C1071 1.429 . S
C1066 C1058 1.574 . S
C1066 H1061 0.949 . S
C1066 C1072 1.368 . S
C1067 C1051 1.349 . S
C1067 H1059 0.950 . S
C1067 C1065 1.327 . S
C1068 C1056 1.349 . S
C1068 H1062 0.950 . S
C1068 C1069 1.327 . S
C1069 H1063 0.950 . S
C1069 C1068 1.327 . S
C1069 C1073 1.429 . S
C1070 C1053 1.574 . S
C1070 H1064 0.949 . S
C1070 C1074 1.368 . S
C1071 C1052 1.429 . S
C1071 C1065 1.429 . S
C1071 C1072 1.523 . S
C1072 C1053 1.368 . S
C1072 C1066 1.368 . S
C1072 C1071 1.523 . S
C1073 C1057 1.429 . S
C1073 C1069 1.429 . S
C1073 C1074 1.523 . S
C1074 C1058 1.368 . S
C1074 C1070 1.368 . S
C1074 C1073 1.523 . S
H1075 C1050 0.950 . S
H1076 C1052 0.950 . S
H1077 C1053 0.949 . S
H1078 C1055 0.950 . S
H1079 C1057 0.950 . S
C1080 C1081 1.349 . S
C1080 C1082 1.327 . S
C1080 H1105 0.950 . S
C1081 C1080 1.349 . S
C1081 C1097 1.349 . S
C1082 C1080 1.327 . S
C1082 C1101 1.429 . S
C1082 H1106 0.950 . S
C1083 C1100 1.574 1_656 S
C1083 C1102 1.368 . S
C1083 H1107 0.949 . S
H1084 C1088 0.949 . S
C1085 C1086 1.349 . S
C1085 C1087 1.327 . S
C1085 H1108 0.950 . S
C1086 C1085 1.349 . S
C1086 C1098 1.349 . S
C1087 C1085 1.327 . S
C1087 C1103 1.429 . S
C1087 H1109 0.950 . S
C1088 H1084 0.949 . S
C1088 C1096 1.574 1_455 S
C1088 C1104 1.368 1_556 S
H1089 C1097 0.950 . S
H1090 C1095 0.950 . S
H1091 C1096 0.949 . S
H1092 C1098 0.950 . S
H1093 C1099 0.950 . S
H1094 C1100 0.949 . S
C1095 H1090 0.950 . S
C1095 C1097 1.327 . S
C1095 C1101 1.429 . S
C1096 C1088 1.574 1_655 S
C1096 H1091 0.949 . S
C1096 C1102 1.368 . S
C1097 C1081 1.349 . S
C1097 H1089 0.950 . S
C1097 C1095 1.327 . S
C1098 C1086 1.349 . S
C1098 H1092 0.950 . S
C1098 C1099 1.327 . S
C1099 H1093 0.950 . S
C1099 C1098 1.327 . S
C1099 C1103 1.429 . S
C1100 C1083 1.574 1_454 S
C1100 H1094 0.949 . S
C1100 C1104 1.368 . S
C1101 C1082 1.429 . S
C1101 C1095 1.429 . S
C1101 C1102 1.523 . S
C1102 C1083 1.368 . S
C1102 C1096 1.368 . S
C1102 C1101 1.523 . S
C1103 C1087 1.429 . S
C1103 C1099 1.429 . S
C1103 C1104 1.523 . S
C1104 C1088 1.368 1_554 S
C1104 C1100 1.368 . S
C1104 C1103 1.523 . S
H1105 C1080 0.950 . S
H1106 C1082 0.950 . S
H1107 C1083 0.949 . S
H1108 C1085 0.950 . S
H1109 C1087 0.950 . S
C1110 C1111 1.349 . S
C1110 C1112 1.327 . S
C1110 H1135 0.950 . S
C1111 C1110 1.349 . S
C1111 C1127 1.349 . S
C1112 C1110 1.327 . S
C1112 C1131 1.429 . S
C1112 H1136 0.950 . S
C1113 C1130 1.574 1_556 S
C1113 C1132 1.368 . S
C1113 H1137 0.949 . S
H1114 C1118 0.949 . S
C1115 C1116 1.349 . S
C1115 C1117 1.327 . S
C1115 H1138 0.950 . S
C1116 C1115 1.349 . S
C1116 C1128 1.349 . S
C1117 C1115 1.327 . S
C1117 C1133 1.429 . S
C1117 H1139 0.950 . S
C1118 H1114 0.949 . S
C1118 C1126 1.574 . S
C1118 C1134 1.368 1_556 S
H1119 C1127 0.950 . S
H1120 C1125 0.950 . S
H1121 C1126 0.949 . S
H1122 C1128 0.950 . S
H1123 C1129 0.950 . S
H1124 C1130 0.949 . S
C1125 H1120 0.950 . S
C1125 C1127 1.327 . S
C1125 C1131 1.429 . S
C1126 C1118 1.574 . S
C1126 H1121 0.949 . S
C1126 C1132 1.368 . S
C1127 C1111 1.349 . S
C1127 H1119 0.950 . S
C1127 C1125 1.327 . S
C1128 C1116 1.349 . S
C1128 H1122 0.950 . S
C1128 C1129 1.327 . S
C1129 H1123 0.950 . S
C1129 C1128 1.327 . S
C1129 C1133 1.429 . S
C1130 C1113 1.574 1_554 S
C1130 H1124 0.949 . S
C1130 C1134 1.368 . S
C1131 C1112 1.429 . S
C1131 C1125 1.429 . S
C1131 C1132 1.523 . S
C1132 C1113 1.368 . S
C1132 C1126 1.368 . S
C1132 C1131 1.523 . S
C1133 C1117 1.429 . S
C1133 C1129 1.429 . S
C1133 C1134 1.523 . S
C1134 C1118 1.368 1_554 S
C1134 C1130 1.368 . S
C1134 C1133 1.523 . S
H1135 C1110 0.950 . S
H1136 C1112 0.950 . S
H1137 C1113 0.949 . S
H1138 C1115 0.950 . S
H1139 C1117 0.950 . S
C1140 C1141 1.349 . S
C1140 C1142 1.327 . S
C1140 H1165 0.950 . S
C1141 C1140 1.349 . S
C1141 C1157 1.349 . S
C1142 C1140 1.327 . S
C1142 C1161 1.429 . S
C1142 H1166 0.950 . S
C1143 C1160 1.574 1_545 S
C1143 C1162 1.368 . S
C1143 H1167 0.949 . S
H1144 C1148 0.949 . S
C1145 C1146 1.349 . S
C1145 C1147 1.327 . S
C1145 H1168 0.950 . S
C1146 C1145 1.349 . S
C1146 C1158 1.349 . S
C1147 C1145 1.327 . S
C1147 C1163 1.429 . S
C1147 H1169 0.950 . S
C1148 H1144 0.949 . S
C1148 C1156 1.574 1_565 S
C1148 C1164 1.368 . S
H1149 C1157 0.950 . S
H1150 C1155 0.950 . S
H1151 C1156 0.949 . S
H1152 C1158 0.950 . S
H1153 C1159 0.950 . S
H1154 C1160 0.949 . S
C1155 H1150 0.950 . S
C1155 C1157 1.327 . S
C1155 C1161 1.429 . S
C1156 C1148 1.574 1_545 S
C1156 H1151 0.949 . S
C1156 C1162 1.368 . S
C1157 C1141 1.349 . S
C1157 H1149 0.950 . S
C1157 C1155 1.327 . S
C1158 C1146 1.349 . S
C1158 H1152 0.950 . S
C1158 C1159 1.327 . S
C1159 H1153 0.950 . S
C1159 C1158 1.327 . S
C1159 C1163 1.429 . S
C1160 C1143 1.574 1_565 S
C1160 H1154 0.949 . S
C1160 C1164 1.368 . S
C1161 C1142 1.429 . S
C1161 C1155 1.429 . S
C1161 C1162 1.523 . S
C1162 C1143 1.368 . S
C1162 C1156 1.368 . S
C1162 C1161 1.523 . S
C1163 C1147 1.429 . S
C1163 C1159 1.429 . S
C1163 C1164 1.523 1_554 S
C1164 C1148 1.368 . S
C1164 C1160 1.368 . S
C1164 C1163 1.523 1_556 S
H1165 C1140 0.950 . S
H1166 C1142 0.950 . S
H1167 C1143 0.949 . S
H1168 C1145 0.950 . S
H1169 C1147 0.950 . S
C1170 C1171 1.349 . S
C1170 C1172 1.327 . S
C1170 H1195 0.950 . S
C1171 C1170 1.349 . S
C1171 C1187 1.349 . S
C1172 C1170 1.327 . S
C1172 C1191 1.429 . S
C1172 H1196 0.950 . S
C1173 C1190 1.574 . S
C1173 C1192 1.368 1_554 S
C1173 H1197 0.949 . S
H1174 C1178 0.949 . S
C1175 C1176 1.349 . S
C1175 C1177 1.327 . S
C1175 H1198 0.950 . S
C1176 C1175 1.349 . S
C1176 C1188 1.349 . S
C1177 C1175 1.327 . S
C1177 C1193 1.429 . S
C1177 H1199 0.950 . S
C1178 H1174 0.949 . S
C1178 C1186 1.574 . S
C1178 C1194 1.368 1_556 S
H1179 C1187 0.950 . S
H1180 C1185 0.950 . S
H1181 C1186 0.949 . S
H1182 C1188 0.950 . S
H1183 C1189 0.950 . S
H1184 C1190 0.949 . S
C1185 H1180 0.950 . S
C1185 C1187 1.327 . S
C1185 C1191 1.429 . S
C1186 C1178 1.574 . S
C1186 H1181 0.949 . S
C1186 C1192 1.368 1_565 S
C1187 C1171 1.349 . S
C1187 H1179 0.950 . S
C1187 C1185 1.327 . S
C1188 C1176 1.349 . S
C1188 H1182 0.950 . S
C1188 C1189 1.327 . S
C1189 H1183 0.950 . S
C1189 C1188 1.327 . S
C1189 C1193 1.429 . S
C1190 C1173 1.574 . S
C1190 H1184 0.949 . S
C1190 C1194 1.368 1_545 S
C1191 C1172 1.429 . S
C1191 C1185 1.429 . S
C1191 C1192 1.523 . S
C1192 C1173 1.368 1_556 S
C1192 C1186 1.368 1_545 S
C1192 C1191 1.523 . S
C1193 C1177 1.429 . S
C1193 C1189 1.429 . S
C1193 C1194 1.523 . S
C1194 C1178 1.368 1_554 S
C1194 C1190 1.368 1_565 S
C1194 C1193 1.523 . S
H1195 C1170 0.950 . S
H1196 C1172 0.950 . S
H1197 C1173 0.949 . S
H1198 C1175 0.950 . S
H1199 C1177 0.950 . S
C1200 C1201 1.349 . S
C1200 C1202 1.327 . S
C1200 H1225 0.950 . S
C1201 C1200 1.349 . S
C1201 C1217 1.349 . S
C1202 C1200 1.327 . S
C1202 C1221 1.429 . S
C1202 H1226 0.950 . S
C1203 C1220 1.574 1_455 S
C1203 C1222 1.368 . S
C1203 H1227 0.949 . S
H1204 C1208 0.949 . S
C1205 C1206 1.349 . S
C1205 C1207 1.327 . S
C1205 H1228 0.950 . S
C1206 C1205 1.349 . S
C1206 C1218 1.349 . S
C1207 C1205 1.327 . S
C1207 C1223 1.429 . S
C1207 H1229 0.950 1_556 S
C1208 H1204 0.949 . S
C1208 C1216 1.574 1_556 S
C1208 C1224 1.368 1_456 S
H1209 C1217 0.950 . S
H1210 C1215 0.950 . S
H1211 C1216 0.949 . S
H1212 C1218 0.950 . S
H1213 C1219 0.950 . S
H1214 C1220 0.949 . S
C1215 H1210 0.950 . S
C1215 C1217 1.327 . S
C1215 C1221 1.429 . S
C1216 C1208 1.574 1_554 S
C1216 H1211 0.949 . S
C1216 C1222 1.368 . S
C1217 C1201 1.349 . S
C1217 H1209 0.950 . S
C1217 C1215 1.327 . S
C1218 C1206 1.349 . S
C1218 H1212 0.950 . S
C1218 C1219 1.327 . S
C1219 H1213 0.950 . S
C1219 C1218 1.327 . S
C1219 C1223 1.429 . S
C1220 C1203 1.574 1_655 S
C1220 H1214 0.949 . S
C1220 C1224 1.368 . S
C1221 C1202 1.429 . S
C1221 C1215 1.429 . S
C1221 C1222 1.523 . S
C1222 C1203 1.368 . S
C1222 C1216 1.368 . S
C1222 C1221 1.523 . S
C1223 C1207 1.429 . S
C1223 C1219 1.429 . S
C1223 C1224 1.523 1_556 S
C1224 C1208 1.368 1_654 S
C1224 C1220 1.368 . S
C1224 C1223 1.523 1_554 S
H1225 C1200 0.950 . S
H1226 C1202 0.950 . S
H1227 C1203 0.949 . S
H1228 C1205 0.950 . S
H1229 C1207 0.950 1_554 S
C1230 C1231 1.349 . S
C1230 C1232 1.327 . S
C1230 H1255 0.950 . S
C1231 C1230 1.349 . S
C1231 C1247 1.349 . S
C1232 C1230 1.327 . S
C1232 C1251 1.429 . S
C1232 H1256 0.950 . S
C1233 C1250 1.574 1_554 S
C1233 C1252 1.368 . S
C1233 H1257 0.949 . S
H1234 C1238 0.949 1_556 S
C1235 C1236 1.349 . S
C1235 C1237 1.327 . S
C1235 H1258 0.950 . S
C1236 C1235 1.349 . S
C1236 C1248 1.349 . S
C1237 C1235 1.327 . S
C1237 C1253 1.429 . S
C1237 H1259 0.950 . S
C1238 H1234 0.949 1_554 S
C1238 C1246 1.574 . S
C1238 C1254 1.368 1_554 S
H1239 C1247 0.950 . S
H1240 C1245 0.950 . S
H1241 C1246 0.949 . S
H1242 C1248 0.950 . S
H1243 C1249 0.950 . S
H1244 C1250 0.949 . S
C1245 H1240 0.950 . S
C1245 C1247 1.327 . S
C1245 C1251 1.429 . S
C1246 C1238 1.574 . S
C1246 H1241 0.949 . S
C1246 C1252 1.368 . S
C1247 C1231 1.349 . S
C1247 H1239 0.950 . S
C1247 C1245 1.327 . S
C1248 C1236 1.349 . S
C1248 H1242 0.950 . S
C1248 C1249 1.327 . S
C1249 H1243 0.950 . S
C1249 C1248 1.327 . S
C1249 C1253 1.429 . S
C1250 C1233 1.574 1_556 S
C1250 H1244 0.949 . S
C1250 C1254 1.368 . S
C1251 C1232 1.429 . S
C1251 C1245 1.429 . S
C1251 C1252 1.523 . S
C1252 C1233 1.368 . S
C1252 C1246 1.368 . S
C1252 C1251 1.523 . S
C1253 C1237 1.429 . S
C1253 C1249 1.429 . S
C1253 C1254 1.523 . S
C1254 C1238 1.368 1_556 S
C1254 C1250 1.368 . S
C1254 C1253 1.523 . S
H1255 C1230 0.950 . S
H1256 C1232 0.950 . S
H1257 C1233 0.949 . S
H1258 C1235 0.950 . S
H1259 C1237 0.950 . S
C1260 C1261 1.349 . S
C1260 C1262 1.327 . S
C1260 H1285 0.950 . S
C1261 C1260 1.349 . S
C1261 C1277 1.349 . S
C1262 C1260 1.327 . S
C1262 C1281 1.429 . S
C1262 H1286 0.950 . S
C1263 C1280 1.574 . S
C1263 C1282 1.368 . S
C1263 H1287 0.949 . S
H1264 C1268 0.949 . S
C1265 C1266 1.349 . S
C1265 C1267 1.327 . S
C1265 H1288 0.950 . S
C1266 C1265 1.349 . S
C1266 C1278 1.349 . S
C1267 C1265 1.327 . S
C1267 C1283 1.429 . S
C1267 H1289 0.950 . S
C1268 H1264 0.949 . S
C1268 C1276 1.574 . S
C1268 C1284 1.368 . S
H1269 C1277 0.950 . S
H1270 C1275 0.950 . S
H1271 C1276 0.949 . S
H1272 C1278 0.950 . S
H1273 C1279 0.950 . S
H1274 C1280 0.949 . S
C1275 H1270 0.950 . S
C1275 C1277 1.327 . S
C1275 C1281 1.429 . S
C1276 C1268 1.574 . S
C1276 H1271 0.949 . S
C1276 C1282 1.368 . S
C1277 C1261 1.349 . S
C1277 H1269 0.950 . S
C1277 C1275 1.327 . S
C1278 C1266 1.349 . S
C1278 H1272 0.950 . S
C1278 C1279 1.327 . S
C1279 H1273 0.950 . S
C1279 C1278 1.327 . S
C1279 C1283 1.429 . S
C1280 C1263 1.574 . S
C1280 H1274 0.949 . S
C1280 C1284 1.368 . S
C1281 C1262 1.429 . S
C1281 C1275 1.429 . S
C1281 C1282 1.523 . S
C1282 C1263 1.368 . S
C1282 C1276 1.368 . S
C1282 C1281 1.523 . S
C1283 C1267 1.429 . S
C1283 C1279 1.429 . S
C1283 C1284 1.523 . S
C1284 C1268 1.368 . S
C1284 C1280 1.368 . S
C1284 C1283 1.523 . S
H1285 C1260 0.950 . S
H1286 C1262 0.950 . S
H1287 C1263 0.949 . S
H1288 C1265 0.950 . S
H1289 C1267 0.950 . S
C1290 C1291 1.349 . S
C1290 C1292 1.327 . S
C1290 H1315 0.950 . S
C1291 C1290 1.349 . S
C1291 C1307 1.349 . S
C1292 C1290 1.327 . S
C1292 C1311 1.429 . S
C1292 H1316 0.950 . S
C1293 C1310 1.574 . S
C1293 C1312 1.368 . S
C1293 H1317 0.949 . S
H1294 C1298 0.949 . S
C1295 C1296 1.349 . S
C1295 C1297 1.327 . S
C1295 H1318 0.950 . S
C1296 C1295 1.349 . S
C1296 C1308 1.349 . S
C1297 C1295 1.327 . S
C1297 C1313 1.429 . S
C1297 H1319 0.950 . S
C1298 H1294 0.949 . S
C1298 C1306 1.574 . S
C1298 C1314 1.368 . S
H1299 C1307 0.950 . S
H1300 C1305 0.950 . S
H1301 C1306 0.949 . S
H1302 C1308 0.950 . S
H1303 C1309 0.950 . S
H1304 C1310 0.949 . S
C1305 H1300 0.950 . S
C1305 C1307 1.327 . S
C1305 C1311 1.429 . S
C1306 C1298 1.574 . S
C1306 H1301 0.949 . S
C1306 C1312 1.368 . S
C1307 C1291 1.349 . S
C1307 H1299 0.950 . S
C1307 C1305 1.327 . S
C1308 C1296 1.349 . S
C1308 H1302 0.950 . S
C1308 C1309 1.327 . S
C1309 H1303 0.950 . S
C1309 C1308 1.327 . S
C1309 C1313 1.429 . S
C1310 C1293 1.574 . S
C1310 H1304 0.949 . S
C1310 C1314 1.368 . S
C1311 C1292 1.429 . S
C1311 C1305 1.429 . S
C1311 C1312 1.523 . S
C1312 C1293 1.368 . S
C1312 C1306 1.368 . S
C1312 C1311 1.523 . S
C1313 C1297 1.429 . S
C1313 C1309 1.429 . S
C1313 C1314 1.523 . S
C1314 C1298 1.368 . S
C1314 C1310 1.368 . S
C1314 C1313 1.523 . S
H1315 C1290 0.950 . S
H1316 C1292 0.950 . S
H1317 C1293 0.949 . S
H1318 C1295 0.950 . S
H1319 C1297 0.950 . S
C1320 C1321 1.349 . S
C1320 C1322 1.327 . S
C1320 H1345 0.950 . S
C1321 C1320 1.349 . S
C1321 C1337 1.349 . S
C1322 C1320 1.327 . S
C1322 C1341 1.429 . S
C1322 H1346 0.950 . S
C1323 C1340 1.574 . S
C1323 C1342 1.368 . S
C1323 H1347 0.949 . S
H1324 C1328 0.949 . S
C1325 C1326 1.349 . S
C1325 C1327 1.327 . S
C1325 H1348 0.950 . S
C1326 C1325 1.349 . S
C1326 C1338 1.349 . S
C1327 C1325 1.327 . S
C1327 C1343 1.429 . S
C1327 H1349 0.950 . S
C1328 H1324 0.949 . S
C1328 C1336 1.574 . S
C1328 C1344 1.368 . S
H1329 C1337 0.950 . S
H1330 C1335 0.950 . S
H1331 C1336 0.949 . S
H1332 C1338 0.950 . S
H1333 C1339 0.950 . S
H1334 C1340 0.949 . S
C1335 H1330 0.950 . S
C1335 C1337 1.327 . S
C1335 C1341 1.429 . S
C1336 C1328 1.574 . S
C1336 H1331 0.949 . S
C1336 C1342 1.368 . S
C1337 C1321 1.349 . S
C1337 H1329 0.950 . S
C1337 C1335 1.327 . S
C1338 C1326 1.349 . S
C1338 H1332 0.950 . S
C1338 C1339 1.327 . S
C1339 H1333 0.950 . S
C1339 C1338 1.327 . S
C1339 C1343 1.429 . S
C1340 C1323 1.574 . S
C1340 H1334 0.949 . S
C1340 C1344 1.368 . S
C1341 C1322 1.429 . S
C1341 C1335 1.429 . S
C1341 C1342 1.523 . S
C1342 C1323 1.368 . S
C1342 C1336 1.368 . S
C1342 C1341 1.523 . S
C1343 C1327 1.429 . S
C1343 C1339 1.429 . S
C1343 C1344 1.523 . S
C1344 C1328 1.368 . S
C1344 C1340 1.368 . S
C1344 C1343 1.523 . S
H1345 C1320 0.950 . S
H1346 C1322 0.950 . S
H1347 C1323 0.949 . S
H1348 C1325 0.950 . S
H1349 C1327 0.950 . S
C1350 C1351 1.349 . S
C1350 C1352 1.327 . S
C1350 H1375 0.950 . S
C1351 C1350 1.349 . S
C1351 C1367 1.349 . S
C1352 C1350 1.327 . S
C1352 C1371 1.429 . S
C1352 H1376 0.950 . S
C1353 C1370 1.574 . S
C1353 C1372 1.368 . S
C1353 H1377 0.949 . S
H1354 C1358 0.949 . S
C1355 C1356 1.349 . S
C1355 C1357 1.327 . S
C1355 H1378 0.950 . S
C1356 C1355 1.349 . S
C1356 C1368 1.349 . S
C1357 C1355 1.327 . S
C1357 C1373 1.429 . S
C1357 H1379 0.950 . S
C1358 H1354 0.949 . S
C1358 C1366 1.574 . S
C1358 C1374 1.368 . S
H1359 C1367 0.950 . S
H1360 C1365 0.950 . S
H1361 C1366 0.949 . S
H1362 C1368 0.950 . S
H1363 C1369 0.950 . S
H1364 C1370 0.949 . S
C1365 H1360 0.950 . S
C1365 C1367 1.327 . S
C1365 C1371 1.429 . S
C1366 C1358 1.574 . S
C1366 H1361 0.949 . S
C1366 C1372 1.368 . S
C1367 C1351 1.349 . S
C1367 H1359 0.950 . S
C1367 C1365 1.327 . S
C1368 C1356 1.349 . S
C1368 H1362 0.950 . S
C1368 C1369 1.327 . S
C1369 H1363 0.950 . S
C1369 C1368 1.327 . S
C1369 C1373 1.429 . S
C1370 C1353 1.574 . S
C1370 H1364 0.949 . S
C1370 C1374 1.368 . S
C1371 C1352 1.429 . S
C1371 C1365 1.429 . S
C1371 C1372 1.523 . S
C1372 C1353 1.368 . S
C1372 C1366 1.368 . S
C1372 C1371 1.523 . S
C1373 C1357 1.429 . S
C1373 C1369 1.429 . S
C1373 C1374 1.523 . S
C1374 C1358 1.368 . S
C1374 C1370 1.368 . S
C1374 C1373 1.523 . S
H1375 C1350 0.950 . S
H1376 C1352 0.950 . S
H1377 C1353 0.949 . S
H1378 C1355 0.950 . S
H1379 C1357 0.950 . S
C1380 C1381 1.349 . S
C1380 C1382 1.327 . S
C1380 H1405 0.950 . S
C1381 C1380 1.349 . S
C1381 C1397 1.349 . S
C1382 C1380 1.327 . S
C1382 C1401 1.429 . S
C1382 H1406 0.950 . S
C1383 C1400 1.574 . S
C1383 C1402 1.368 . S
C1383 H1407 0.949 . S
H1384 C1388 0.949 . S
C1385 C1386 1.349 . S
C1385 C1387 1.327 . S
C1385 H1408 0.950 . S
C1386 C1385 1.349 . S
C1386 C1398 1.349 . S
C1387 C1385 1.327 . S
C1387 C1403 1.429 . S
C1387 H1409 0.950 . S
C1388 H1384 0.949 . S
C1388 C1396 1.574 . S
C1388 C1404 1.368 . S
H1389 C1397 0.950 . S
H1390 C1395 0.950 . S
H1391 C1396 0.949 . S
H1392 C1398 0.950 . S
H1393 C1399 0.950 . S
H1394 C1400 0.949 . S
C1395 H1390 0.950 . S
C1395 C1397 1.327 . S
C1395 C1401 1.429 . S
C1396 C1388 1.574 . S
C1396 H1391 0.949 . S
C1396 C1402 1.368 . S
C1397 C1381 1.349 . S
C1397 H1389 0.950 . S
C1397 C1395 1.327 . S
C1398 C1386 1.349 . S
C1398 H1392 0.950 . S
C1398 C1399 1.327 . S
C1399 H1393 0.950 . S
C1399 C1398 1.327 . S
C1399 C1403 1.429 . S
C1400 C1383 1.574 . S
C1400 H1394 0.949 . S
C1400 C1404 1.368 . S
C1401 C1382 1.429 . S
C1401 C1395 1.429 . S
C1401 C1402 1.523 . S
C1402 C1383 1.368 . S
C1402 C1396 1.368 . S
C1402 C1401 1.523 . S
C1403 C1387 1.429 . S
C1403 C1399 1.429 . S
C1403 C1404 1.523 . S
C1404 C1388 1.368 . S
C1404 C1400 1.368 . S
C1404 C1403 1.523 . S
H1405 C1380 0.950 . S
H1406 C1382 0.950 . S
H1407 C1383 0.949 . S
H1408 C1385 0.950 . S
H1409 C1387 0.950 . S
C1410 C1411 1.349 . S
C1410 C1412 1.327 . S
C1410 H1435 0.950 . S
C1411 C1410 1.349 . S
C1411 C1427 1.349 . S
C1412 C1410 1.327 . S
C1412 C1431 1.429 . S
C1412 H1436 0.950 . S
C1413 C1430 1.574 . S
C1413 C1432 1.368 . S
C1413 H1437 0.949 . S
H1414 C1418 0.949 . S
C1415 C1416 1.349 . S
C1415 C1417 1.327 . S
C1415 H1438 0.950 . S
C1416 C1415 1.349 . S
C1416 C1428 1.349 . S
C1417 C1415 1.327 . S
C1417 C1433 1.429 . S
C1417 H1439 0.950 . S
C1418 H1414 0.949 . S
C1418 C1426 1.574 . S
C1418 C1434 1.368 . S
H1419 C1427 0.950 . S
H1420 C1425 0.950 . S
H1421 C1426 0.949 . S
H1422 C1428 0.950 . S
H1423 C1429 0.950 . S
H1424 C1430 0.949 . S
C1425 H1420 0.950 . S
C1425 C1427 1.327 . S
C1425 C1431 1.429 . S
C1426 C1418 1.574 . S
C1426 H1421 0.949 . S
C1426 C1432 1.368 . S
C1427 C1411 1.349 . S
C1427 H1419 0.950 . S
C1427 C1425 1.327 . S
C1428 C1416 1.349 . S
C1428 H1422 0.950 . S
C1428 C1429 1.327 . S
C1429 H1423 0.950 . S
C1429 C1428 1.327 . S
C1429 C1433 1.429 . S
C1430 C1413 1.574 . S
C1430 H1424 0.949 . S
C1430 C1434 1.368 . S
C1431 C1412 1.429 . S
C1431 C1425 1.429 . S
C1431 C1432 1.523 . S
C1432 C1413 1.368 . S
C1432 C1426 1.368 . S
C1432 C1431 1.523 . S
C1433 C1417 1.429 . S
C1433 C1429 1.429 . S
C1433 C1434 1.523 . S
C1434 C1418 1.368 . S
C1434 C1430 1.368 . S
C1434 C1433 1.523 . S
H1435 C1410 0.950 . S
H1436 C1412 0.950 . S
H1437 C1413 0.949 . S
H1438 C1415 0.950 . S
H1439 C1417 0.950 . S
C1440 C1441 1.349 . S
C1440 C1442 1.327 . S
C1440 H1465 0.950 . S
C1441 C1440 1.349 . S
C1441 C1457 1.349 . S
C1442 C1440 1.327 . S
C1442 C1461 1.429 . S
C1442 H1466 0.950 . S
C1443 C1460 1.574 . S
C1443 C1462 1.368 . S
C1443 H1467 0.949 . S
H1444 C1448 0.949 . S
C1445 C1446 1.349 . S
C1445 C1447 1.327 . S
C1445 H1468 0.950 . S
C1446 C1445 1.349 . S
C1446 C1458 1.349 . S
C1447 C1445 1.327 . S
C1447 C1463 1.429 . S
C1447 H1469 0.950 . S
C1448 H1444 0.949 . S
C1448 C1456 1.574 . S
C1448 C1464 1.368 . S
H1449 C1457 0.950 . S
H1450 C1455 0.950 . S
H1451 C1456 0.949 . S
H1452 C1458 0.950 . S
H1453 C1459 0.950 . S
H1454 C1460 0.949 . S
C1455 H1450 0.950 . S
C1455 C1457 1.327 . S
C1455 C1461 1.429 . S
C1456 C1448 1.574 . S
C1456 H1451 0.949 . S
C1456 C1462 1.368 . S
C1457 C1441 1.349 . S
C1457 H1449 0.950 . S
C1457 C1455 1.327 . S
C1458 C1446 1.349 . S
C1458 H1452 0.950 . S
C1458 C1459 1.327 . S
C1459 H1453 0.950 . S
C1459 C1458 1.327 . S
C1459 C1463 1.429 . S
C1460 C1443 1.574 . S
C1460 H1454 0.949 . S
C1460 C1464 1.368 . S
C1461 C1442 1.429 . S
C1461 C1455 1.429 . S
C1461 C1462 1.523 . S
C1462 C1443 1.368 . S
C1462 C1456 1.368 . S
C1462 C1461 1.523 . S
C1463 C1447 1.429 . S
C1463 C1459 1.429 . S
C1463 C1464 1.523 . S
C1464 C1448 1.368 . S
C1464 C1460 1.368 . S
C1464 C1463 1.523 . S
H1465 C1440 0.950 . S
H1466 C1442 0.950 . S
H1467 C1443 0.949 . S
H1468 C1445 0.950 . S
H1469 C1447 0.950 . S
C1470 C1471 1.349 . S
C1470 C1472 1.327 . S
C1470 H1495 0.950 . S
C1471 C1470 1.349 . S
C1471 C1487 1.349 . S
C1472 C1470 1.327 . S
C1472 C1491 1.429 . S
C1472 H1496 0.950 . S
C1473 C1490 1.574 . S
C1473 C1492 1.368 . S
C1473 H1497 0.949 . S
H1474 C1478 0.949 . S
C1475 C1476 1.349 . S
C1475 C1477 1.327 . S
C1475 H1498 0.950 . S
C1476 C1475 1.349 . S
C1476 C1488 1.349 . S
C1477 C1475 1.327 . S
C1477 C1493 1.429 . S
C1477 H1499 0.950 . S
C1478 H1474 0.949 . S
C1478 C1486 1.574 . S
C1478 C1494 1.368 . S
H1479 C1487 0.950 . S
H1480 C1485 0.950 . S
H1481 C1486 0.949 . S
H1482 C1488 0.950 . S
H1483 C1489 0.950 . S
H1484 C1490 0.949 . S
C1485 H1480 0.950 . S
C1485 C1487 1.327 . S
C1485 C1491 1.429 . S
C1486 C1478 1.574 . S
C1486 H1481 0.949 . S
C1486 C1492 1.368 . S
C1487 C1471 1.349 . S
C1487 H1479 0.950 . S
C1487 C1485 1.327 . S
C1488 C1476 1.349 . S
C1488 H1482 0.950 . S
C1488 C1489 1.327 . S
C1489 H1483 0.950 . S
C1489 C1488 1.327 . S
C1489 C1493 1.429 . S
C1490 C1473 1.574 . S
C1490 H1484 0.949 . S
C1490 C1494 1.368 . S
C1491 C1472 1.429 . S
C1491 C1485 1.429 . S
C1491 C1492 1.523 . S
C1492 C1473 1.368 . S
C1492 C1486 1.368 . S
C1492 C1491 1.523 . S
C1493 C1477 1.429 . S
C1493 C1489 1.429 . S
C1493 C1494 1.523 . S
C1494 C1478 1.368 . S
C1494 C1490 1.368 . S
C1494 C1493 1.523 . S
H1495 C1470 0.950 . S
H1496 C1472 0.950 . S
H1497 C1473 0.949 . S
H1498 C1475 0.950 . S
H1499 C1477 0.950 . S
C1500 C1501 1.349 . S
C1500 C1502 1.327 . S
C1500 H1525 0.950 . S
C1501 C1500 1.349 . S
C1501 C1517 1.349 . S
C1502 C1500 1.327 . S
C1502 C1521 1.429 . S
C1502 H1526 0.950 . S
C1503 C1520 1.574 . S
C1503 C1522 1.368 . S
C1503 H1527 0.949 . S
H1504 C1508 0.949 . S
C1505 C1506 1.349 . S
C1505 C1507 1.327 . S
C1505 H1528 0.950 . S
C1506 C1505 1.349 . S
C1506 C1518 1.349 . S
C1507 C1505 1.327 . S
C1507 C1523 1.429 . S
C1507 H1529 0.950 . S
C1508 H1504 0.949 . S
C1508 C1516 1.574 . S
C1508 C1524 1.368 . S
H1509 C1517 0.950 . S
H1510 C1515 0.950 . S
H1511 C1516 0.949 . S
H1512 C1518 0.950 . S
H1513 C1519 0.950 . S
H1514 C1520 0.949 . S
C1515 H1510 0.950 . S
C1515 C1517 1.327 . S
C1515 C1521 1.429 . S
C1516 C1508 1.574 . S
C1516 H1511 0.949 . S
C1516 C1522 1.368 . S
C1517 C1501 1.349 . S
C1517 H1509 0.950 . S
C1517 C1515 1.327 . S
C1518 C1506 1.349 . S
C1518 H1512 0.950 . S
C1518 C1519 1.327 . S
C1519 H1513 0.950 . S
C1519 C1518 1.327 . S
C1519 C1523 1.429 . S
C1520 C1503 1.574 . S
C1520 H1514 0.949 . S
C1520 C1524 1.368 . S
C1521 C1502 1.429 . S
C1521 C1515 1.429 . S
C1521 C1522 1.523 . S
C1522 C1503 1.368 . S
C1522 C1516 1.368 . S
C1522 C1521 1.523 . S
C1523 C1507 1.429 . S
C1523 C1519 1.429 . S
C1523 C1524 1.523 . S
C1524 C1508 1.368 . S
C1524 C1520 1.368 . S
C1524 C1523 1.523 . S
H1525 C1500 0.950 . S
H1526 C1502 0.950 . S
H1527 C1503 0.949 . S
H1528 C1505 0.950 . S
H1529 C1507 0.950 . S
C1530 C1531 1.349 . S
C1530 C1532 1.327 . S
C1530 H1555 0.950 . S
C1531 C1530 1.349 . S
C1531 C1547 1.349 . S
C1532 C1530 1.327 . S
C1532 C1551 1.429 . S
C1532 H1556 0.950 . S
C1533 C1550 1.574 . S
C1533 C1552 1.368 . S
C1533 H1557 0.949 . S
H1534 C1538 0.949 . S
C1535 C1536 1.349 . S
C1535 C1537 1.327 . S
C1535 H1558 0.950 . S
C1536 C1535 1.349 . S
C1536 C1548 1.349 . S
C1537 C1535 1.327 . S
C1537 C1553 1.429 . S
C1537 H1559 0.950 . S
C1538 H1534 0.949 . S
C1538 C1546 1.574 . S
C1538 C1554 1.368 . S
H1539 C1547 0.950 . S
H1540 C1545 0.950 . S
H1541 C1546 0.949 . S
H1542 C1548 0.950 . S
H1543 C1549 0.950 . S
H1544 C1550 0.949 . S
C1545 H1540 0.950 . S
C1545 C1547 1.327 . S
C1545 C1551 1.429 . S
C1546 C1538 1.574 . S
C1546 H1541 0.949 . S
C1546 C1552 1.368 . S
C1547 C1531 1.349 . S
C1547 H1539 0.950 . S
C1547 C1545 1.327 . S
C1548 C1536 1.349 . S
C1548 H1542 0.950 . S
C1548 C1549 1.327 . S
C1549 H1543 0.950 . S
C1549 C1548 1.327 . S
C1549 C1553 1.429 . S
C1550 C1533 1.574 . S
C1550 H1544 0.949 . S
C1550 C1554 1.368 . S
C1551 C1532 1.429 . S
C1551 C1545 1.429 . S
C1551 C1552 1.523 . S
C1552 C1533 1.368 . S
C1552 C1546 1.368 . S
C1552 C1551 1.523 . S
C1553 C1537 1.429 . S
C1553 C1549 1.429 . S
C1553 C1554 1.523 . S
C1554 C1538 1.368 . S
C1554 C1550 1.368 . S
C1554 C1553 1.523 . S
H1555 C1530 0.950 . S
H1556 C1532 0.950 . S
H1557 C1533 0.949 . S
H1558 C1535 0.950 . S
H1559 C1537 0.950 . S
C1560 C1561 1.349 . S
C1560 C1562 1.327 . S
C1560 H1585 0.950 . S
C1561 C1560 1.349 . S
C1561 C1577 1.349 . S
C1562 C1560 1.327 . S
C1562 C1581 1.429 . S
C1562 H1586 0.950 . S
C1563 C1580 1.574 . S
C1563 C1582 1.368 . S
C1563 H1587 0.949 . S
H1564 C1568 0.949 . S
C1565 C1566 1.349 . S
C1565 C1567 1.327 . S
C1565 H1588 0.950 . S
C1566 C1565 1.349 . S
C1566 C1578 1.349 . S
C1567 C1565 1.327 . S
C1567 C1583 1.429 . S
C1567 H1589 0.950 . S
C1568 H1564 0.949 . S
C1568 C1576 1.574 . S
C1568 C1584 1.368 . S
H1569 C1577 0.950 . S
H1570 C1575 0.950 . S
H1571 C1576 0.949 . S
H1572 C1578 0.950 . S
H1573 C1579 0.950 . S
H1574 C1580 0.949 . S
C1575 H1570 0.950 . S
C1575 C1577 1.327 . S
C1575 C1581 1.429 . S
C1576 C1568 1.574 . S
C1576 H1571 0.949 . S
C1576 C1582 1.368 . S
C1577 C1561 1.349 . S
C1577 H1569 0.950 . S
C1577 C1575 1.327 . S
C1578 C1566 1.349 . S
C1578 H1572 0.950 . S
C1578 C1579 1.327 . S
C1579 H1573 0.950 . S
C1579 C1578 1.327 . S
C1579 C1583 1.429 . S
C1580 C1563 1.574 . S
C1580 H1574 0.949 . S
C1580 C1584 1.368 . S
C1581 C1562 1.429 . S
C1581 C1575 1.429 . S
C1581 C1582 1.523 . S
C1582 C1563 1.368 . S
C1582 C1576 1.368 . S
C1582 C1581 1.523 . S
C1583 C1567 1.429 . S
C1583 C1579 1.429 . S
C1583 C1584 1.523 . S
C1584 C1568 1.368 . S
C1584 C1580 1.368 . S
C1584 C1583 1.523 . S
H1585 C1560 0.950 . S
H1586 C1562 0.950 . S
H1587 C1563 0.949 . S
H1588 C1565 0.950 . S
H1589 C1567 0.950 . S
C1590 C1591 1.349 . S
C1590 C1592 1.327 . S
C1590 H1615 0.950 . S
C1591 C1590 1.349 . S
C1591 C1607 1.349 . S
C1592 C1590 1.327 . S
C1592 C1611 1.429 . S
C1592 H1616 0.950 . S
C1593 C1610 1.574 . S
C1593 C1612 1.368 . S
C1593 H1617 0.949 . S
H1594 C1598 0.949 . S
C1595 C1596 1.349 . S
C1595 C1597 1.327 . S
C1595 H1618 0.950 . S
C1596 C1595 1.349 . S
C1596 C1608 1.349 . S
C1597 C1595 1.327 . S
C1597 C1613 1.429 . S
C1597 H1619 0.950 . S
C1598 H1594 0.949 . S
C1598 C1606 1.574 . S
C1598 C1614 1.368 . S
H1599 C1607 0.950 . S
H1600 C1605 0.950 . S
H1601 C1606 0.949 . S
H1602 C1608 0.950 . S
H1603 C1609 0.950 . S
H1604 C1610 0.949 . S
C1605 H1600 0.950 . S
C1605 C1607 1.327 . S
C1605 C1611 1.429 . S
C1606 C1598 1.574 . S
C1606 H1601 0.949 . S
C1606 C1612 1.368 . S
C1607 C1591 1.349 . S
C1607 H1599 0.950 . S
C1607 C1605 1.327 . S
C1608 C1596 1.349 . S
C1608 H1602 0.950 . S
C1608 C1609 1.327 . S
C1609 H1603 0.950 . S
C1609 C1608 1.327 . S
C1609 C1613 1.429 . S
C1610 C1593 1.574 . S
C1610 H1604 0.949 . S
C1610 C1614 1.368 . S
C1611 C1592 1.429 . S
C1611 C1605 1.429 . S
C1611 C1612 1.523 . S
C1612 C1593 1.368 . S
C1612 C1606 1.368 . S
C1612 C1611 1.523 . S
C1613 C1597 1.429 . S
C1613 C1609 1.429 . S
C1613 C1614 1.523 . S
C1614 C1598 1.368 . S
C1614 C1610 1.368 . S
C1614 C1613 1.523 . S
H1615 C1590 0.950 . S
H1616 C1592 0.950 . S
H1617 C1593 0.949 . S
H1618 C1595 0.950 . S
H1619 C1597 0.950 . S
C1620 C1621 1.349 . S
C1620 C1622 1.327 . S
C1620 H1645 0.950 . S
C1621 C1620 1.349 . S
C1621 C1637 1.349 . S
C1622 C1620 1.327 . S
C1622 C1641 1.429 . S
C1622 H1646 0.950 . S
C1623 C1640 1.574 . S
C1623 C1642 1.368 . S
C1623 H1647 0.949 . S
H1624 C1628 0.949 . S
C1625 C1626 1.349 . S
C1625 C1627 1.327 . S
C1625 H1648 0.950 . S
C1626 C1625 1.349 . S
C1626 C1638 1.349 . S
C1627 C1625 1.327 . S
C1627 C1643 1.429 . S
C1627 H1649 0.950 . S
C1628 H1624 0.949 . S
C1628 C1636 1.574 . S
C1628 C1644 1.368 . S
H1629 C1637 0.950 . S
H1630 C1635 0.950 . S
H1631 C1636 0.949 . S
H1632 C1638 0.950 . S
H1633 C1639 0.950 . S
H1634 C1640 0.949 . S
C1635 H1630 0.950 . S
C1635 C1637 1.327 . S
C1635 C1641 1.429 . S
C1636 C1628 1.574 . S
C1636 H1631 0.949 . S
C1636 C1642 1.368 . S
C1637 C1621 1.349 . S
C1637 H1629 0.950 . S
C1637 C1635 1.327 . S
C1638 C1626 1.349 . S
C1638 H1632 0.950 . S
C1638 C1639 1.327 . S
C1639 H1633 0.950 . S
C1639 C1638 1.327 . S
C1639 C1643 1.429 . S
C1640 C1623 1.574 . S
C1640 H1634 0.949 . S
C1640 C1644 1.368 . S
C1641 C1622 1.429 . S
C1641 C1635 1.429 . S
C1641 C1642 1.523 . S
C1642 C1623 1.368 . S
C1642 C1636 1.368 . S
C1642 C1641 1.523 . S
C1643 C1627 1.429 . S
C1643 C1639 1.429 . S
C1643 C1644 1.523 . S
C1644 C1628 1.368 . S
C1644 C1640 1.368 . S
C1644 C1643 1.523 . S
H1645 C1620 0.950 . S
H1646 C1622 0.950 . S
H1647 C1623 0.949 . S
H1648 C1625 0.950 . S
H1649 C1627 0.950 . S
C1650 C1651 1.349 . S
C1650 C1652 1.327 . S
C1650 H1675 0.950 . S
C1651 C1650 1.349 . S
C1651 C1667 1.349 . S
C1652 C1650 1.327 . S
C1652 C1671 1.429 . S
C1652 H1676 0.950 . S
C1653 C1670 1.574 . S
C1653 C1672 1.368 . S
C1653 H1677 0.949 . S
H1654 C1658 0.949 . S
C1655 C1656 1.349 . S
C1655 C1657 1.327 . S
C1655 H1678 0.950 . S
C1656 C1655 1.349 . S
C1656 C1668 1.349 . S
C1657 C1655 1.327 . S
C1657 C1673 1.429 . S
C1657 H1679 0.950 . S
C1658 H1654 0.949 . S
C1658 C1666 1.574 . S
C1658 C1674 1.368 . S
H1659 C1667 0.950 . S
H1660 C1665 0.950 . S
H1661 C1666 0.949 . S
H1662 C1668 0.950 . S
H1663 C1669 0.950 . S
H1664 C1670 0.949 . S
C1665 H1660 0.950 . S
C1665 C1667 1.327 . S
C1665 C1671 1.429 . S
C1666 C1658 1.574 . S
C1666 H1661 0.949 . S
C1666 C1672 1.368 . S
C1667 C1651 1.349 . S
C1667 H1659 0.950 . S
C1667 C1665 1.327 . S
C1668 C1656 1.349 . S
C1668 H1662 0.950 . S
C1668 C1669 1.327 . S
C1669 H1663 0.950 . S
C1669 C1668 1.327 . S
C1669 C1673 1.429 . S
C1670 C1653 1.574 . S
C1670 H1664 0.949 . S
C1670 C1674 1.368 . S
C1671 C1652 1.429 . S
C1671 C1665 1.429 . S
C1671 C1672 1.523 . S
C1672 C1653 1.368 . S
C1672 C1666 1.368 . S
C1672 C1671 1.523 . S
C1673 C1657 1.429 . S
C1673 C1669 1.429 . S
C1673 C1674 1.523 . S
C1674 C1658 1.368 . S
C1674 C1670 1.368 . S
C1674 C1673 1.523 . S
H1675 C1650 0.950 . S
H1676 C1652 0.950 . S
H1677 C1653 0.949 . S
H1678 C1655 0.950 . S
H1679 C1657 0.950 . S
C1680 C1681 1.349 . S
C1680 C1682 1.327 . S
C1680 H1705 0.950 . S
C1681 C1680 1.349 . S
C1681 C1697 1.349 . S
C1682 C1680 1.327 . S
C1682 C1701 1.429 . S
C1682 H1706 0.950 . S
C1683 C1700 1.574 . S
C1683 C1702 1.368 . S
C1683 H1707 0.949 . S
H1684 C1688 0.949 . S
C1685 C1686 1.349 . S
C1685 C1687 1.327 . S
C1685 H1708 0.950 . S
C1686 C1685 1.349 . S
C1686 C1698 1.349 . S
C1687 C1685 1.327 . S
C1687 C1703 1.429 . S
C1687 H1709 0.950 . S
C1688 H1684 0.949 . S
C1688 C1696 1.574 . S
C1688 C1704 1.368 . S
H1689 C1697 0.950 . S
H1690 C1695 0.950 . S
H1691 C1696 0.949 . S
H1692 C1698 0.950 . S
H1693 C1699 0.950 . S
H1694 C1700 0.949 . S
C1695 H1690 0.950 . S
C1695 C1697 1.327 . S
C1695 C1701 1.429 . S
C1696 C1688 1.574 . S
C1696 H1691 0.949 . S
C1696 C1702 1.368 . S
C1697 C1681 1.349 . S
C1697 H1689 0.950 . S
C1697 C1695 1.327 . S
C1698 C1686 1.349 . S
C1698 H1692 0.950 . S
C1698 C1699 1.327 . S
C1699 H1693 0.950 . S
C1699 C1698 1.327 . S
C1699 C1703 1.429 . S
C1700 C1683 1.574 . S
C1700 H1694 0.949 . S
C1700 C1704 1.368 . S
C1701 C1682 1.429 . S
C1701 C1695 1.429 . S
C1701 C1702 1.523 . S
C1702 C1683 1.368 . S
C1702 C1696 1.368 . S
C1702 C1701 1.523 . S
C1703 C1687 1.429 . S
C1703 C1699 1.429 . S
C1703 C1704 1.523 . S
C1704 C1688 1.368 . S
C1704 C1700 1.368 . S
C1704 C1703 1.523 . S
H1705 C1680 0.950 . S
H1706 C1682 0.950 . S
H1707 C1683 0.949 . S
H1708 C1685 0.950 . S
H1709 C1687 0.950 . S
C1710 C1711 1.349 . S
C1710 C1712 1.327 . S
C1710 H1735 0.950 . S
C1711 C1710 1.349 . S
C1711 C1727 1.349 . S
C1712 C1710 1.327 . S
C1712 C1731 1.429 . S
C1712 H1736 0.950 . S
C1713 C1730 1.574 . S
C1713 C1732 1.368 . S
C1713 H1737 0.949 . S
H1714 C1718 0.949 . S
C1715 C1716 1.349 . S
C1715 C1717 1.327 . S
C1715 H1738 0.950 . S
C1716 C1715 1.349 . S
C1716 C1728 1.349 . S
C1717 C1715 1.327 . S
C1717 C1733 1.429 . S
C1717 H1739 0.950 . S
C1718 H1714 0.949 . S
C1718 C1726 1.574 . S
C1718 C1734 1.368 . S
H1719 C1727 0.950 . S
H1720 C1725 0.950 . S
H1721 C1726 0.949 . S
H1722 C1728 0.950 . S
H1723 C1729 0.950 . S
H1724 C1730 0.949 . S
C1725 H1720 0.950 . S
C1725 C1727 1.327 . S
C1725 C1731 1.429 . S
C1726 C1718 1.574 . S
C1726 H1721 0.949 . S
C1726 C1732 1.368 . S
C1727 C1711 1.349 . S
C1727 H1719 0.950 . S
C1727 C1725 1.327 . S
C1728 C1716 1.349 . S
C1728 H1722 0.950 . S
C1728 C1729 1.327 . S
C1729 H1723 0.950 . S
C1729 C1728 1.327 . S
C1729 C1733 1.429 . S
C1730 C1713 1.574 . S
C1730 H1724 0.949 . S
C1730 C1734 1.368 . S
C1731 C1712 1.429 . S
C1731 C1725 1.429 . S
C1731 C1732 1.523 . S
C1732 C1713 1.368 . S
C1732 C1726 1.368 . S
C1732 C1731 1.523 . S
C1733 C1717 1.429 . S
C1733 C1729 1.429 . S
C1733 C1734 1.523 . S
C1734 C1718 1.368 . S
C1734 C1730 1.368 . S
C1734 C1733 1.523 . S
H1735 C1710 0.950 . S
H1736 C1712 0.950 . S
H1737 C1713 0.949 . S
H1738 C1715 0.950 . S
H1739 C1717 0.950 . S
C1740 C1741 1.349 . S
C1740 C1742 1.327 . S
C1740 H1765 0.950 . S
C1741 C1740 1.349 . S
C1741 C1757 1.349 . S
C1742 C1740 1.327 . S
C1742 C1761 1.429 . S
C1742 H1766 0.950 . S
C1743 C1760 1.574 . S
C1743 C1762 1.368 . S
C1743 H1767 0.949 . S
H1744 C1748 0.949 . S
C1745 C1746 1.349 . S
C1745 C1747 1.327 . S
C1745 H1768 0.950 . S
C1746 C1745 1.349 . S
C1746 C1758 1.349 . S
C1747 C1745 1.327 . S
C1747 C1763 1.429 . S
C1747 H1769 0.950 . S
C1748 H1744 0.949 . S
C1748 C1756 1.574 . S
C1748 C1764 1.368 . S
H1749 C1757 0.950 . S
H1750 C1755 0.950 . S
H1751 C1756 0.949 . S
H1752 C1758 0.950 . S
H1753 C1759 0.950 . S
H1754 C1760 0.949 . S
C1755 H1750 0.950 . S
C1755 C1757 1.327 . S
C1755 C1761 1.429 . S
C1756 C1748 1.574 . S
C1756 H1751 0.949 . S
C1756 C1762 1.368 . S
C1757 C1741 1.349 . S
C1757 H1749 0.950 . S
C1757 C1755 1.327 . S
C1758 C1746 1.349 . S
C1758 H1752 0.950 . S
C1758 C1759 1.327 . S
C1759 H1753 0.950 . S
C1759 C1758 1.327 . S
C1759 C1763 1.429 . S
C1760 C1743 1.574 . S
C1760 H1754 0.949 . S
C1760 C1764 1.368 . S
C1761 C1742 1.429 . S
C1761 C1755 1.429 . S
C1761 C1762 1.523 . S
C1762 C1743 1.368 . S
C1762 C1756 1.368 . S
C1762 C1761 1.523 . S
C1763 C1747 1.429 . S
C1763 C1759 1.429 . S
C1763 C1764 1.523 . S
C1764 C1748 1.368 . S
C1764 C1760 1.368 . S
C1764 C1763 1.523 . S
H1765 C1740 0.950 . S
H1766 C1742 0.950 . S
H1767 C1743 0.949 . S
H1768 C1745 0.950 . S
H1769 C1747 0.950 . S
C1770 C1771 1.349 . S
C1770 C1772 1.327 . S
C1770 H1795 0.950 . S
C1771 C1770 1.349 . S
C1771 C1787 1.349 . S
C1772 C1770 1.327 . S
C1772 C1791 1.429 . S
C1772 H1796 0.950 . S
C1773 C1790 1.574 . S
C1773 C1792 1.368 . S
C1773 H1797 0.949 . S
H1774 C1778 0.949 . S
C1775 C1776 1.349 . S
C1775 C1777 1.327 . S
C1775 H1798 0.950 . S
C1776 C1775 1.349 . S
C1776 C1788 1.349 . S
C1777 C1775 1.327 . S
C1777 C1793 1.429 . S
C1777 H1799 0.950 . S
C1778 H1774 0.949 . S
C1778 C1786 1.574 . S
C1778 C1794 1.368 . S
H1779 C1787 0.950 . S
H1780 C1785 0.950 . S
H1781 C1786 0.949 . S
H1782 C1788 0.950 . S
H1783 C1789 0.950 . S
H1784 C1790 0.949 . S
C1785 H1780 0.950 . S
C1785 C1787 1.327 . S
C1785 C1791 1.429 . S
C1786 C1778 1.574 . S
C1786 H1781 0.949 . S
C1786 C1792 1.368 . S
C1787 C1771 1.349 . S
C1787 H1779 0.950 . S
C1787 C1785 1.327 . S
C1788 C1776 1.349 . S
C1788 H1782 0.950 . S
C1788 C1789 1.327 . S
C1789 H1783 0.950 . S
C1789 C1788 1.327 . S
C1789 C1793 1.429 . S
C1790 C1773 1.574 . S
C1790 H1784 0.949 . S
C1790 C1794 1.368 . S
C1791 C1772 1.429 . S
C1791 C1785 1.429 . S
C1791 C1792 1.523 . S
C1792 C1773 1.368 . S
C1792 C1786 1.368 . S
C1792 C1791 1.523 . S
C1793 C1777 1.429 . S
C1793 C1789 1.429 . S
C1793 C1794 1.523 . S
C1794 C1778 1.368 . S
C1794 C1790 1.368 . S
C1794 C1793 1.523 . S
H1795 C1770 0.950 . S
H1796 C1772 0.950 . S
H1797 C1773 0.949 . S
H1798 C1775 0.950 . S
H1799 C1777 0.950 . S
C1800 C1801 1.349 1_655 S
C1800 C1802 1.327 . S
C1800 H1825 0.950 . S
C1801 C1800 1.349 1_455 S
C1801 C1817 1.349 . S
C1802 C1800 1.327 . S
C1802 C1821 1.429 1_655 S
C1802 H1826 0.950 . S
C1803 C1820 1.574 . S
C1803 C1822 1.368 . S
C1803 H1827 0.949 . S
H1804 C1808 0.949 . S
C1805 C1806 1.349 . S
C1805 C1807 1.327 . S
C1805 H1828 0.950 . S
C1806 C1805 1.349 . S
C1806 C1818 1.349 1_455 S
C1807 C1805 1.327 . S
C1807 C1823 1.429 . S
C1807 H1829 0.950 . S
C1808 H1804 0.949 . S
C1808 C1816 1.574 1_556 S
C1808 C1824 1.368 1_655 S
H1809 C1817 0.950 . S
H1810 C1815 0.950 . S
H1811 C1816 0.949 . S
H1812 C1818 0.950 . S
H1813 C1819 0.950 . S
H1814 C1820 0.949 1_556 S
C1815 H1810 0.950 . S
C1815 C1817 1.327 . S
C1815 C1821 1.429 . S
C1816 C1808 1.574 1_554 S
C1816 H1811 0.949 . S
C1816 C1822 1.368 1_655 S
C1817 C1801 1.349 . S
C1817 H1809 0.950 . S
C1817 C1815 1.327 . S
C1818 C1806 1.349 1_655 S
C1818 H1812 0.950 . S
C1818 C1819 1.327 . S
C1819 H1813 0.950 . S
C1819 C1818 1.327 . S
C1819 C1823 1.429 1_655 S
C1820 C1803 1.574 . S
C1820 H1814 0.949 1_554 S
C1820 C1824 1.368 1_554 S
C1821 C1802 1.429 1_455 S
C1821 C1815 1.429 . S
C1821 C1822 1.523 . S
C1822 C1803 1.368 . S
C1822 C1816 1.368 1_455 S
C1822 C1821 1.523 . S
C1823 C1807 1.429 . S
C1823 C1819 1.429 1_455 S
C1823 C1824 1.523 . S
C1824 C1808 1.368 1_455 S
C1824 C1820 1.368 1_556 S
C1824 C1823 1.523 . S
H1825 C1800 0.950 . S
H1826 C1802 0.950 . S
H1827 C1803 0.949 . S
H1828 C1805 0.950 . S
H1829 C1807 0.950 . S
C1830 C1831 1.349 . S
C1830 C1832 1.327 . S
C1830 H1855 0.950 . S
C1831 C1830 1.349 . S
C1831 C1847 1.349 . S
C1832 C1830 1.327 . S
C1832 C1851 1.429 . S
C1832 H1856 0.950 . S
C1833 C1850 1.574 1_554 S
C1833 C1852 1.368 . S
C1833 H1857 0.949 . S
H1834 C1838 0.949 . S
C1835 C1836 1.349 . S
C1835 C1837 1.327 . S
C1835 H1858 0.950 . S
C1836 C1835 1.349 . S
C1836 C1848 1.349 . S
C1837 C1835 1.327 . S
C1837 C1853 1.429 . S
C1837 H1859 0.950 . S
C1838 H1834 0.949 . S
C1838 C1846 1.574 1_556 S
C1838 C1854 1.368 . S
H1839 C1847 0.950 . S
H1840 C1845 0.950 . S
H1841 C1846 0.949 . S
H1842 C1848 0.950 . S
H1843 C1849 0.950 . S
H1844 C1850 0.949 . S
C1845 H1840 0.950 . S
C1845 C1847 1.327 . S
C1845 C1851 1.429 . S
C1846 C1838 1.574 1_554 S
C1846 H1841 0.949 . S
C1846 C1852 1.368 . S
C1847 C1831 1.349 . S
C1847 H1839 0.950 . S
C1847 C1845 1.327 . S
C1848 C1836 1.349 . S
C1848 H1842 0.950 . S
C1848 C1849 1.327 . S
C1849 H1843 0.950 . S
C1849 C1848 1.327 . S
C1849 C1853 1.429 . S
C1850 C1833 1.574 1_556 S
C1850 H1844 0.949 . S
C1850 C1854 1.368 . S
C1851 C1832 1.429 . S
C1851 C1845 1.429 . S
C1851 C1852 1.523 . S
C1852 C1833 1.368 . S
C1852 C1846 1.368 . S
C1852 C1851 1.523 . S
C1853 C1837 1.429 . S
C1853 C1849 1.429 . S
C1853 C1854 1.523 . S
C1854 C1838 1.368 . S
C1854 C1850 1.368 . S
C1854 C1853 1.523 . S
H1855 C1830 0.950 . S
H1856 C1832 0.950 . S
H1857 C1833 0.949 . S
H1858 C1835 0.950 . S
H1859 C1837 0.950 . S
C1860 C1861 1.349 . S
C1860 C1862 1.327 . S
C1860 H1885 0.950 . S
C1861 C1860 1.349 . S
C1861 C1877 1.349 1_565 S
C1862 C1860 1.327 . S
C1862 C1881 1.429 . S
C1862 H1886 0.950 . S
C1863 C1880 1.574 1_554 S
C1863 C1882 1.332 1_545 S
C1863 H1887 0.949 . S
H1864 C1868 0.949 . S
C1865 C1866 1.349 . S
C1865 C1867 1.327 . S
C1865 H1888 0.950 . S
C1866 C1865 1.349 . S
C1866 C1878 1.313 1_545 S
C1867 C1865 1.327 . S
C1867 C1883 1.429 . S
C1867 H1889 0.950 . S
C1868 H1864 0.949 . S
C1868 C1876 1.574 1_556 S
C1868 C1884 1.368 1_565 S
H1869 C1877 0.950 . S
H1870 C1875 0.950 . S
H1871 C1876 0.949 . S
H1872 C1878 0.970 . S
H1873 C1879 0.950 . S
H1874 C1880 0.949 . S
C1875 H1870 0.950 . S
C1875 C1877 1.327 . S
C1875 C1881 1.429 1_545 S
C1876 C1868 1.574 1_554 S
C1876 H1871 0.949 . S
C1876 C1882 1.393 . S
C1877 C1861 1.349 1_545 S
C1877 H1869 0.950 . S
C1877 C1875 1.327 . S
C1878 C1866 1.313 1_565 S
C1878 H1872 0.970 . S
C1878 C1879 1.346 . S
C1879 H1873 0.950 . S
C1879 C1878 1.346 . S
C1879 C1883 1.429 1_565 S
C1880 C1863 1.574 1_556 S
C1880 H1874 0.949 . S
C1880 C1884 1.368 . S
C1881 C1862 1.429 . S
C1881 C1875 1.429 1_565 S
C1881 C1882 1.542 . S
C1882 C1863 1.332 1_565 S
C1882 C1876 1.393 . S
C1882 C1881 1.542 . S
C1883 C1867 1.429 . S
C1883 C1879 1.429 1_545 S
C1883 C1884 1.523 . S
C1884 C1868 1.368 1_545 S
C1884 C1880 1.368 . S
C1884 C1883 1.523 . S
H1885 C1860 0.950 . S
H1886 C1862 0.950 . S
H1887 C1863 0.949 . S
H1888 C1865 0.950 . S
H1889 C1867 0.950 . S
C1890 C1891 1.349 . S
C1890 C1892 1.327 . S
C1890 H1915 0.950 . S
C1891 C1890 1.349 . S
C1891 C1907 1.349 1_455 S
C1892 C1890 1.327 . S
C1892 C1911 1.429 . S
C1892 H1916 0.950 . S
C1893 C1910 1.569 . S
C1893 C1912 1.394 . S
C1893 H1917 0.932 1_454 S
H1894 C1898 0.949 . S
C1895 C1896 1.349 . S
C1895 C1897 1.327 . S
C1895 H1918 0.950 . S
C1896 C1895 1.349 . S
C1896 C1908 1.349 . S
C1897 C1895 1.327 . S
C1897 C1913 1.429 . S
C1897 H1919 0.973 . S
C1898 H1894 0.949 . S
C1898 C1906 1.574 . S
C1898 C1914 1.368 . S
H1899 C1907 0.950 . S
H1900 C1905 0.977 . S
H1901 C1906 0.949 . S
H1902 C1908 0.950 . S
H1903 C1909 0.950 . S
H1904 C1910 0.942 1_655 S
C1905 H1900 0.977 . S
C1905 C1907 1.321 . S
C1905 C1911 1.410 1_655 S
C1906 C1898 1.574 . S
C1906 H1901 0.949 . S
C1906 C1912 1.368 . S
C1907 C1891 1.349 1_655 S
C1907 H1899 0.950 . S
C1907 C1905 1.321 . S
C1908 C1896 1.349 . S
C1908 H1902 0.950 . S
C1908 C1909 1.327 . S
C1909 H1903 0.950 . S
C1909 C1908 1.327 . S
C1909 C1913 1.429 . S
C1910 C1893 1.569 . S
C1910 H1904 0.942 1_455 S
C1910 C1914 1.368 . S
C1911 C1892 1.429 . S
C1911 C1905 1.410 1_455 S
C1911 C1912 1.523 1_556 S
C1912 C1893 1.394 . S
C1912 C1906 1.368 . S
C1912 C1911 1.523 1_554 S
C1913 C1897 1.429 . S
C1913 C1909 1.429 . S
C1913 C1914 1.523 . S
C1914 C1898 1.368 . S
C1914 C1910 1.368 . S
C1914 C1913 1.523 . S
H1915 C1890 0.950 . S
H1916 C1892 0.950 . S
H1917 C1893 0.932 1_656 S
H1918 C1895 0.950 . S
H1919 C1897 0.973 . S
C1920 C1921 1.349 . S
C1920 C1922 1.327 . S
C1920 H1945 0.950 . S
C1921 C1920 1.349 . S
C1921 C1937 1.349 . S
C1922 C1920 1.327 . S
C1922 C1941 1.429 . S
C1922 H1946 0.950 . S
C1923 C1940 1.574 . S
C1923 C1942 1.368 . S
C1923 H1947 0.949 . S
H1924 C1928 0.949 . S
C1925 C1926 1.349 . S
C1925 C1927 1.327 . S
C1925 H1948 0.950 . S
C1926 C1925 1.349 . S
C1926 C1938 1.349 . S
C1927 C1925 1.327 . S
C1927 C1943 1.429 . S
C1927 H1949 0.950 . S
C1928 H1924 0.949 . S
C1928 C1936 1.574 . S
C1928 C1944 1.368 . S
H1929 C1937 0.950 . S
H1930 C1935 0.950 . S
H1931 C1936 0.949 . S
H1932 C1938 0.950 . S
H1933 C1939 0.950 . S
H1934 C1940 0.949 . S
C1935 H1930 0.950 . S
C1935 C1937 1.327 . S
C1935 C1941 1.429 . S
C1936 C1928 1.574 . S
C1936 H1931 0.949 . S
C1936 C1942 1.368 . S
C1937 C1921 1.349 . S
C1937 H1929 0.950 . S
C1937 C1935 1.327 . S
C1938 C1926 1.349 . S
C1938 H1932 0.950 . S
C1938 C1939 1.327 . S
C1939 H1933 0.950 . S
C1939 C1938 1.327 . S
C1939 C1943 1.429 . S
C1940 C1923 1.574 . S
C1940 H1934 0.949 . S
C1940 C1944 1.368 . S
C1941 C1922 1.429 . S
C1941 C1935 1.429 . S
C1941 C1942 1.523 . S
C1942 C1923 1.368 . S
C1942 C1936 1.368 . S
C1942 C1941 1.523 . S
C1943 C1927 1.429 . S
C1943 C1939 1.429 . S
C1943 C1944 1.523 1_556 S
C1944 C1928 1.368 . S
C1944 C1940 1.368 . S
C1944 C1943 1.523 1_554 S
H1945 C1920 0.950 . S
H1946 C1922 0.950 . S
H1947 C1923 0.949 . S
H1948 C1925 0.950 . S
H1949 C1927 0.950 . S
C1950 C1951 1.349 . S
C1950 C1952 1.327 . S
C1950 H1975 0.950 . S
C1951 C1950 1.349 . S
C1951 C1967 1.349 1_565 S
C1952 C1950 1.327 . S
C1952 C1971 1.443 . S
C1952 H1976 0.950 . S
C1953 C1970 1.574 1_554 S
C1953 C1972 1.368 . S
C1953 H1977 0.949 . S
H1954 C1958 0.949 . S
C1955 C1956 1.349 . S
C1955 C1957 1.327 . S
C1955 H1978 0.950 . S
C1956 C1955 1.349 . S
C1956 C1968 1.349 . S
C1957 C1955 1.327 . S
C1957 C1973 1.429 . S
C1957 H1979 0.950 . S
C1958 H1954 0.949 . S
C1958 C1966 1.574 1_556 S
C1958 C1974 1.368 1_565 S
H1959 C1967 0.950 . S
H1960 C1965 0.950 . S
H1961 C1966 0.949 . S
H1962 C1968 0.950 1_565 S
H1963 C1969 0.954 . S
H1964 C1970 0.949 . S
C1965 H1960 0.950 . S
C1965 C1967 1.327 . S
C1965 C1971 1.424 1_545 S
C1966 C1958 1.574 1_554 S
C1966 H1961 0.949 . S
C1966 C1972 1.368 1_565 S
C1967 C1951 1.349 1_545 S
C1967 H1959 0.950 . S
C1967 C1965 1.327 . S
C1968 C1956 1.349 . S
C1968 H1962 0.950 1_545 S
C1968 C1969 1.324 1_545 S
C1969 H1963 0.954 . S
C1969 C1968 1.324 1_565 S
C1969 C1973 1.427 1_565 S
C1970 C1953 1.574 1_556 S
C1970 H1964 0.949 . S
C1970 C1974 1.368 . S
C1971 C1952 1.443 . S
C1971 C1965 1.424 1_565 S
C1971 C1972 1.514 1_565 S
C1972 C1953 1.368 . S
C1972 C1966 1.368 1_545 S
C1972 C1971 1.514 1_545 S
C1973 C1957 1.429 . S
C1973 C1969 1.427 1_545 S
C1973 C1974 1.523 . S
C1974 C1958 1.368 1_545 S
C1974 C1970 1.368 . S
C1974 C1973 1.523 . S
H1975 C1950 0.950 . S
H1976 C1952 0.950 . S
H1977 C1953 0.949 . S
H1978 C1955 0.950 . S
H1979 C1957 0.950 . S
C1980 C1981 1.349 . S
C1980 C1982 1.327 . S
C1980 H2005 0.950 . S
C1981 C1980 1.349 . S
C1981 C1997 1.349 . S
C1982 C1980 1.327 . S
C1982 C2001 1.429 . S
C1982 H2006 0.950 . S
C1983 C2000 1.574 . S
C1983 C2002 1.368 . S
C1983 H2007 0.949 . S
H1984 C1988 0.949 . S
C1985 C1986 1.349 . S
C1985 C1987 1.327 . S
C1985 H2008 0.950 . S
C1986 C1985 1.349 . S
C1986 C1998 1.349 . S
C1987 C1985 1.327 . S
C1987 C2003 1.429 . S
C1987 H2009 0.950 . S
C1988 H1984 0.949 . S
C1988 C1996 1.574 . S
C1988 C2004 1.368 . S
H1989 C1997 0.950 . S
H1990 C1995 0.950 . S
H1991 C1996 0.949 . S
H1992 C1998 0.950 . S
H1993 C1999 0.950 . S
H1994 C2000 0.949 . S
C1995 H1990 0.950 . S
C1995 C1997 1.327 . S
C1995 C2001 1.429 . S
C1996 C1988 1.574 . S
C1996 H1991 0.949 . S
C1996 C2002 1.368 . S
C1997 C1981 1.349 . S
C1997 H1989 0.950 . S
C1997 C1995 1.327 . S
C1998 C1986 1.349 . S
C1998 H1992 0.950 . S
C1998 C1999 1.327 . S
C1999 H1993 0.950 . S
C1999 C1998 1.327 . S
C1999 C2003 1.429 . S
C2000 C1983 1.574 . S
C2000 H1994 0.949 . S
C2000 C2004 1.368 . S
C2001 C1982 1.429 . S
C2001 C1995 1.429 . S
C2001 C2002 1.523 . S
C2002 C1983 1.368 . S
C2002 C1996 1.368 . S
C2002 C2001 1.523 . S
C2003 C1987 1.429 . S
C2003 C1999 1.429 . S
C2003 C2004 1.523 . S
C2004 C1988 1.368 . S
C2004 C2000 1.368 . S
C2004 C2003 1.523 . S
H2005 C1980 0.950 . S
H2006 C1982 0.950 . S
H2007 C1983 0.949 . S
H2008 C1985 0.950 . S
H2009 C1987 0.950 . S
C2010 C2011 1.349 . S
C2010 C2012 1.327 . S
C2010 H2035 0.950 . S
C2011 C2010 1.349 . S
C2011 C2027 1.349 . S
C2012 C2010 1.327 . S
C2012 C2031 1.429 . S
C2012 H2036 0.950 . S
C2013 C2030 1.574 . S
C2013 C2032 1.368 . S
C2013 H2037 0.949 . S
H2014 C2018 0.949 . S
C2015 C2016 1.349 . S
C2015 C2017 1.327 . S
C2015 H2038 0.950 . S
C2016 C2015 1.349 . S
C2016 C2028 1.349 . S
C2017 C2015 1.327 . S
C2017 C2033 1.429 . S
C2017 H2039 0.950 . S
C2018 H2014 0.949 . S
C2018 C2026 1.574 . S
C2018 C2034 1.368 . S
H2019 C2027 0.950 . S
H2020 C2025 0.950 . S
H2021 C2026 0.949 . S
H2022 C2028 0.950 . S
H2023 C2029 0.950 . S
H2024 C2030 0.949 . S
C2025 H2020 0.950 . S
C2025 C2027 1.327 . S
C2025 C2031 1.429 . S
C2026 C2018 1.574 . S
C2026 H2021 0.949 . S
C2026 C2032 1.368 . S
C2027 C2011 1.349 . S
C2027 H2019 0.950 . S
C2027 C2025 1.327 . S
C2028 C2016 1.349 . S
C2028 H2022 0.950 . S
C2028 C2029 1.327 . S
C2029 H2023 0.950 . S
C2029 C2028 1.327 . S
C2029 C2033 1.429 . S
C2030 C2013 1.574 . S
C2030 H2024 0.949 . S
C2030 C2034 1.368 . S
C2031 C2012 1.429 . S
C2031 C2025 1.429 . S
C2031 C2032 1.523 . S
C2032 C2013 1.368 . S
C2032 C2026 1.368 . S
C2032 C2031 1.523 . S
C2033 C2017 1.429 . S
C2033 C2029 1.429 . S
C2033 C2034 1.523 . S
C2034 C2018 1.368 . S
C2034 C2030 1.368 . S
C2034 C2033 1.523 . S
H2035 C2010 0.950 . S
H2036 C2012 0.950 . S
H2037 C2013 0.949 . S
H2038 C2015 0.950 . S
H2039 C2017 0.950 . S
C2040 C2041 1.349 . S
C2040 C2042 1.327 . S
C2040 H2065 0.950 . S
C2041 C2040 1.349 . S
C2041 C2057 1.349 . S
C2042 C2040 1.327 . S
C2042 C2061 1.429 . S
C2042 H2066 0.950 . S
C2043 C2060 1.574 . S
C2043 C2062 1.368 . S
C2043 H2067 0.949 . S
H2044 C2048 0.949 . S
C2045 C2046 1.349 . S
C2045 C2047 1.327 . S
C2045 H2068 0.950 . S
C2046 C2045 1.349 . S
C2046 C2058 1.349 . S
C2047 C2045 1.327 . S
C2047 C2063 1.429 . S
C2047 H2069 0.950 . S
C2048 H2044 0.949 . S
C2048 C2056 1.574 . S
C2048 C2064 1.368 . S
H2049 C2057 0.950 . S
H2050 C2055 0.950 . S
H2051 C2056 0.949 . S
H2052 C2058 0.950 . S
H2053 C2059 0.950 . S
H2054 C2060 0.949 . S
C2055 H2050 0.950 . S
C2055 C2057 1.327 . S
C2055 C2061 1.429 . S
C2056 C2048 1.574 . S
C2056 H2051 0.949 . S
C2056 C2062 1.368 . S
C2057 C2041 1.349 . S
C2057 H2049 0.950 . S
C2057 C2055 1.327 . S
C2058 C2046 1.349 . S
C2058 H2052 0.950 . S
C2058 C2059 1.327 . S
C2059 H2053 0.950 . S
C2059 C2058 1.327 . S
C2059 C2063 1.429 . S
C2060 C2043 1.574 . S
C2060 H2054 0.949 . S
C2060 C2064 1.368 . S
C2061 C2042 1.429 . S
C2061 C2055 1.429 . S
C2061 C2062 1.523 . S
C2062 C2043 1.368 . S
C2062 C2056 1.368 . S
C2062 C2061 1.523 . S
C2063 C2047 1.429 . S
C2063 C2059 1.429 . S
C2063 C2064 1.523 . S
C2064 C2048 1.368 . S
C2064 C2060 1.368 . S
C2064 C2063 1.523 . S
H2065 C2040 0.950 . S
H2066 C2042 0.950 . S
H2067 C2043 0.949 . S
H2068 C2045 0.950 . S
H2069 C2047 0.950 . S
C2070 C2071 1.349 . S
C2070 C2072 1.327 . S
C2070 H2095 0.950 . S
C2071 C2070 1.349 . S
C2071 C2087 1.349 . S
C2072 C2070 1.327 . S
C2072 C2091 1.429 . S
C2072 H2096 0.950 . S
C2073 C2090 1.574 . S
C2073 C2092 1.368 . S
C2073 H2097 0.949 . S
H2074 C2078 0.949 . S
C2075 C2076 1.349 . S
C2075 C2077 1.327 . S
C2075 H2098 0.950 . S
C2076 C2075 1.349 . S
C2076 C2088 1.349 . S
C2077 C2075 1.327 . S
C2077 C2093 1.429 . S
C2077 H2099 0.950 . S
C2078 H2074 0.949 . S
C2078 C2086 1.574 . S
C2078 C2094 1.368 . S
H2079 C2087 0.950 . S
H2080 C2085 0.950 . S
H2081 C2086 0.949 . S
H2082 C2088 0.950 . S
H2083 C2089 0.950 . S
H2084 C2090 0.949 . S
C2085 H2080 0.950 . S
C2085 C2087 1.327 . S
C2085 C2091 1.429 . S
C2086 C2078 1.574 . S
C2086 H2081 0.949 . S
C2086 C2092 1.368 . S
C2087 C2071 1.349 . S
C2087 H2079 0.950 . S
C2087 C2085 1.327 . S
C2088 C2076 1.349 . S
C2088 H2082 0.950 . S
C2088 C2089 1.327 . S
C2089 H2083 0.950 . S
C2089 C2088 1.327 . S
C2089 C2093 1.429 . S
C2090 C2073 1.574 . S
C2090 H2084 0.949 . S
C2090 C2094 1.368 . S
C2091 C2072 1.429 . S
C2091 C2085 1.429 . S
C2091 C2092 1.523 . S
C2092 C2073 1.368 . S
C2092 C2086 1.368 . S
C2092 C2091 1.523 . S
C2093 C2077 1.429 . S
C2093 C2089 1.429 . S
C2093 C2094 1.523 . S
C2094 C2078 1.368 . S
C2094 C2090 1.368 . S
C2094 C2093 1.523 . S
H2095 C2070 0.950 . S
H2096 C2072 0.950 . S
H2097 C2073 0.949 . S
H2098 C2075 0.950 . S
H2099 C2077 0.950 . S
C2100 C2101 1.349 . S
C2100 C2102 1.327 . S
C2100 H2125 0.950 . S
C2101 C2100 1.349 . S
C2101 C2117 1.349 . S
C2102 C2100 1.327 . S
C2102 C2121 1.429 . S
C2102 H2126 0.950 . S
C2103 C2120 1.574 . S
C2103 C2122 1.368 . S
C2103 H2127 0.949 . S
H2104 C2108 0.949 . S
C2105 C2106 1.349 . S
C2105 C2107 1.327 . S
C2105 H2128 0.950 . S
C2106 C2105 1.349 . S
C2106 C2118 1.349 . S
C2107 C2105 1.327 . S
C2107 C2123 1.429 . S
C2107 H2129 0.950 . S
C2108 H2104 0.949 . S
C2108 C2116 1.574 . S
C2108 C2124 1.368 . S
H2109 C2117 0.950 . S
H2110 C2115 0.950 . S
H2111 C2116 0.949 . S
H2112 C2118 0.950 . S
H2113 C2119 0.950 . S
H2114 C2120 0.949 . S
C2115 H2110 0.950 . S
C2115 C2117 1.327 . S
C2115 C2121 1.429 . S
C2116 C2108 1.574 . S
C2116 H2111 0.949 . S
C2116 C2122 1.368 . S
C2117 C2101 1.349 . S
C2117 H2109 0.950 . S
C2117 C2115 1.327 . S
C2118 C2106 1.349 . S
C2118 H2112 0.950 . S
C2118 C2119 1.327 . S
C2119 H2113 0.950 . S
C2119 C2118 1.327 . S
C2119 C2123 1.429 . S
C2120 C2103 1.574 . S
C2120 H2114 0.949 . S
C2120 C2124 1.368 . S
C2121 C2102 1.429 . S
C2121 C2115 1.429 . S
C2121 C2122 1.523 . S
C2122 C2103 1.368 . S
C2122 C2116 1.368 . S
C2122 C2121 1.523 . S
C2123 C2107 1.429 . S
C2123 C2119 1.429 . S
C2123 C2124 1.523 . S
C2124 C2108 1.368 . S
C2124 C2120 1.368 . S
C2124 C2123 1.523 . S
H2125 C2100 0.950 . S
H2126 C2102 0.950 . S
H2127 C2103 0.949 . S
H2128 C2105 0.950 . S
H2129 C2107 0.950 . S
C2130 C2131 1.349 . S
C2130 C2132 1.327 . S
C2130 H2155 0.950 . S
C2131 C2130 1.349 . S
C2131 C2147 1.349 . S
C2132 C2130 1.327 . S
C2132 C2151 1.429 . S
C2132 H2156 0.950 . S
C2133 C2150 1.574 . S
C2133 C2152 1.368 . S
C2133 H2157 0.949 . S
H2134 C2138 0.949 . S
C2135 C2136 1.349 . S
C2135 C2137 1.327 . S
C2135 H2158 0.950 . S
C2136 C2135 1.349 . S
C2136 C2148 1.349 . S
C2137 C2135 1.327 . S
C2137 C2153 1.429 . S
C2137 H2159 0.950 . S
C2138 H2134 0.949 . S
C2138 C2146 1.574 . S
C2138 C2154 1.368 . S
H2139 C2147 0.950 . S
H2140 C2145 0.950 . S
H2141 C2146 0.949 . S
H2142 C2148 0.950 . S
H2143 C2149 0.950 . S
H2144 C2150 0.949 . S
C2145 H2140 0.950 . S
C2145 C2147 1.327 . S
C2145 C2151 1.429 . S
C2146 C2138 1.574 . S
C2146 H2141 0.949 . S
C2146 C2152 1.368 . S
C2147 C2131 1.349 . S
C2147 H2139 0.950 . S
C2147 C2145 1.327 . S
C2148 C2136 1.349 . S
C2148 H2142 0.950 . S
C2148 C2149 1.327 . S
C2149 H2143 0.950 . S
C2149 C2148 1.327 . S
C2149 C2153 1.429 . S
C2150 C2133 1.574 . S
C2150 H2144 0.949 . S
C2150 C2154 1.368 . S
C2151 C2132 1.429 . S
C2151 C2145 1.429 . S
C2151 C2152 1.523 . S
C2152 C2133 1.368 . S
C2152 C2146 1.368 . S
C2152 C2151 1.523 . S
C2153 C2137 1.429 . S
C2153 C2149 1.429 . S
C2153 C2154 1.523 . S
C2154 C2138 1.368 . S
C2154 C2150 1.368 . S
C2154 C2153 1.523 . S
H2155 C2130 0.950 . S
H2156 C2132 0.950 . S
H2157 C2133 0.949 . S
H2158 C2135 0.950 . S
H2159 C2137 0.950 . S
C2160 C2161 1.349 . S
C2160 C2162 1.327 . S
C2160 H2185 0.950 . S
C2161 C2160 1.349 . S
C2161 C2177 1.349 . S
C2162 C2160 1.327 . S
C2162 C2181 1.429 . S
C2162 H2186 0.950 . S
C2163 C2180 1.574 . S
C2163 C2182 1.368 . S
C2163 H2187 0.949 . S
H2164 C2168 0.949 . S
C2165 C2166 1.349 . S
C2165 C2167 1.327 . S
C2165 H2188 0.950 . S
C2166 C2165 1.349 . S
C2166 C2178 1.349 . S
C2167 C2165 1.327 . S
C2167 C2183 1.429 . S
C2167 H2189 0.950 . S
C2168 H2164 0.949 . S
C2168 C2176 1.574 . S
C2168 C2184 1.368 . S
H2169 C2177 0.950 . S
H2170 C2175 0.950 . S
H2171 C2176 0.949 . S
H2172 C2178 0.950 . S
H2173 C2179 0.950 . S
H2174 C2180 0.949 . S
C2175 H2170 0.950 . S
C2175 C2177 1.327 . S
C2175 C2181 1.429 . S
C2176 C2168 1.574 . S
C2176 H2171 0.949 . S
C2176 C2182 1.368 . S
C2177 C2161 1.349 . S
C2177 H2169 0.950 . S
C2177 C2175 1.327 . S
C2178 C2166 1.349 . S
C2178 H2172 0.950 . S
C2178 C2179 1.327 . S
C2179 H2173 0.950 . S
C2179 C2178 1.327 . S
C2179 C2183 1.429 . S
C2180 C2163 1.574 . S
C2180 H2174 0.949 . S
C2180 C2184 1.368 . S
C2181 C2162 1.429 . S
C2181 C2175 1.429 . S
C2181 C2182 1.523 . S
C2182 C2163 1.368 . S
C2182 C2176 1.368 . S
C2182 C2181 1.523 . S
C2183 C2167 1.429 . S
C2183 C2179 1.429 . S
C2183 C2184 1.523 . S
C2184 C2168 1.368 . S
C2184 C2180 1.368 . S
C2184 C2183 1.523 . S
H2185 C2160 0.950 . S
H2186 C2162 0.950 . S
H2187 C2163 0.949 . S
H2188 C2165 0.950 . S
H2189 C2167 0.950 . S
C2190 C2191 1.349 . S
C2190 C2192 1.327 . S
C2190 H2215 0.950 . S
C2191 C2190 1.349 . S
C2191 C2207 1.349 . S
C2192 C2190 1.327 . S
C2192 C2211 1.429 . S
C2192 H2216 0.950 . S
C2193 C2210 1.574 . S
C2193 C2212 1.368 . S
C2193 H2217 0.949 . S
H2194 C2198 0.949 . S
C2195 C2196 1.349 . S
C2195 C2197 1.327 . S
C2195 H2218 0.950 . S
C2196 C2195 1.349 . S
C2196 C2208 1.349 . S
C2197 C2195 1.327 . S
C2197 C2213 1.429 . S
C2197 H2219 0.950 . S
C2198 H2194 0.949 . S
C2198 C2206 1.574 . S
C2198 C2214 1.368 . S
H2199 C2207 0.950 . S
H2200 C2205 0.950 . S
H2201 C2206 0.949 . S
H2202 C2208 0.950 . S
H2203 C2209 0.950 . S
H2204 C2210 0.949 . S
C2205 H2200 0.950 . S
C2205 C2207 1.327 . S
C2205 C2211 1.429 . S
C2206 C2198 1.574 . S
C2206 H2201 0.949 . S
C2206 C2212 1.368 . S
C2207 C2191 1.349 . S
C2207 H2199 0.950 . S
C2207 C2205 1.327 . S
C2208 C2196 1.349 . S
C2208 H2202 0.950 . S
C2208 C2209 1.327 . S
C2209 H2203 0.950 . S
C2209 C2208 1.327 . S
C2209 C2213 1.429 . S
C2210 C2193 1.574 . S
C2210 H2204 0.949 . S
C2210 C2214 1.368 . S
C2211 C2192 1.429 . S
C2211 C2205 1.429 . S
C2211 C2212 1.523 . S
C2212 C2193 1.368 . S
C2212 C2206 1.368 . S
C2212 C2211 1.523 . S
C2213 C2197 1.429 . S
C2213 C2209 1.429 . S
C2213 C2214 1.523 . S
C2214 C2198 1.368 . S
C2214 C2210 1.368 . S
C2214 C2213 1.523 . S
H2215 C2190 0.950 . S
H2216 C2192 0.950 . S
H2217 C2193 0.949 . S
H2218 C2195 0.950 . S
H2219 C2197 0.950 . S
C2220 C2221 1.349 . S
C2220 C2222 1.327 . S
C2220 H2245 0.950 . S
C2221 C2220 1.349 . S
C2221 C2237 1.349 . S
C2222 C2220 1.327 . S
C2222 C2241 1.429 . S
C2222 H2246 0.950 . S
C2223 C2240 1.574 . S
C2223 C2242 1.368 . S
C2223 H2247 0.949 . S
H2224 C2228 0.949 . S
C2225 C2226 1.349 . S
C2225 C2227 1.327 . S
C2225 H2248 0.950 . S
C2226 C2225 1.349 . S
C2226 C2238 1.349 . S
C2227 C2225 1.327 . S
C2227 C2243 1.429 . S
C2227 H2249 0.950 . S
C2228 H2224 0.949 . S
C2228 C2236 1.574 . S
C2228 C2244 1.368 . S
H2229 C2237 0.950 . S
H2230 C2235 0.950 . S
H2231 C2236 0.949 . S
H2232 C2238 0.950 . S
H2233 C2239 0.950 . S
H2234 C2240 0.949 . S
C2235 H2230 0.950 . S
C2235 C2237 1.327 . S
C2235 C2241 1.429 . S
C2236 C2228 1.574 . S
C2236 H2231 0.949 . S
C2236 C2242 1.368 . S
C2237 C2221 1.349 . S
C2237 H2229 0.950 . S
C2237 C2235 1.327 . S
C2238 C2226 1.349 . S
C2238 H2232 0.950 . S
C2238 C2239 1.327 . S
C2239 H2233 0.950 . S
C2239 C2238 1.327 . S
C2239 C2243 1.429 . S
C2240 C2223 1.574 . S
C2240 H2234 0.949 . S
C2240 C2244 1.368 . S
C2241 C2222 1.429 . S
C2241 C2235 1.429 . S
C2241 C2242 1.523 . S
C2242 C2223 1.368 . S
C2242 C2236 1.368 . S
C2242 C2241 1.523 . S
C2243 C2227 1.429 . S
C2243 C2239 1.429 . S
C2243 C2244 1.523 . S
C2244 C2228 1.368 . S
C2244 C2240 1.368 . S
C2244 C2243 1.523 . S
H2245 C2220 0.950 . S
H2246 C2222 0.950 . S
H2247 C2223 0.949 . S
H2248 C2225 0.950 . S
H2249 C2227 0.950 . S
C2250 C2251 1.349 . S
C2250 C2252 1.327 . S
C2250 H2275 0.950 . S
C2251 C2250 1.349 . S
C2251 C2267 1.349 . S
C2252 C2250 1.327 . S
C2252 C2271 1.429 . S
C2252 H2276 0.950 . S
C2253 C2270 1.574 . S
C2253 C2272 1.368 . S
C2253 H2277 0.949 . S
H2254 C2258 0.949 . S
C2255 C2256 1.349 . S
C2255 C2257 1.327 . S
C2255 H2278 0.950 . S
C2256 C2255 1.349 . S
C2256 C2268 1.349 . S
C2257 C2255 1.327 . S
C2257 C2273 1.429 . S
C2257 H2279 0.950 . S
C2258 H2254 0.949 . S
C2258 C2266 1.574 . S
C2258 C2274 1.368 . S
H2259 C2267 0.950 . S
H2260 C2265 0.950 . S
H2261 C2266 0.949 . S
H2262 C2268 0.950 . S
H2263 C2269 0.950 . S
H2264 C2270 0.949 . S
C2265 H2260 0.950 . S
C2265 C2267 1.327 . S
C2265 C2271 1.429 . S
C2266 C2258 1.574 . S
C2266 H2261 0.949 . S
C2266 C2272 1.368 . S
C2267 C2251 1.349 . S
C2267 H2259 0.950 . S
C2267 C2265 1.327 . S
C2268 C2256 1.349 . S
C2268 H2262 0.950 . S
C2268 C2269 1.327 . S
C2269 H2263 0.950 . S
C2269 C2268 1.327 . S
C2269 C2273 1.429 . S
C2270 C2253 1.574 . S
C2270 H2264 0.949 . S
C2270 C2274 1.368 . S
C2271 C2252 1.429 . S
C2271 C2265 1.429 . S
C2271 C2272 1.523 . S
C2272 C2253 1.368 . S
C2272 C2266 1.368 . S
C2272 C2271 1.523 . S
C2273 C2257 1.429 . S
C2273 C2269 1.429 . S
C2273 C2274 1.523 . S
C2274 C2258 1.368 . S
C2274 C2270 1.368 . S
C2274 C2273 1.523 . S
H2275 C2250 0.950 . S
H2276 C2252 0.950 . S
H2277 C2253 0.949 . S
H2278 C2255 0.950 . S
H2279 C2257 0.950 . S
C2280 C2281 1.349 . S
C2280 C2282 1.327 . S
C2280 H2305 0.950 . S
C2281 C2280 1.349 . S
C2281 C2297 1.349 . S
C2282 C2280 1.327 . S
C2282 C2301 1.429 . S
C2282 H2306 0.950 . S
C2283 C2300 1.574 . S
C2283 C2302 1.368 . S
C2283 H2307 0.949 . S
H2284 C2288 0.949 . S
C2285 C2286 1.349 . S
C2285 C2287 1.327 . S
C2285 H2308 0.950 . S
C2286 C2285 1.349 . S
C2286 C2298 1.349 . S
C2287 C2285 1.327 . S
C2287 C2303 1.429 . S
C2287 H2309 0.950 . S
C2288 H2284 0.949 . S
C2288 C2296 1.574 . S
C2288 C2304 1.368 . S
H2289 C2297 0.950 . S
H2290 C2295 0.950 . S
H2291 C2296 0.949 . S
H2292 C2298 0.950 . S
H2293 C2299 0.950 . S
H2294 C2300 0.949 . S
C2295 H2290 0.950 . S
C2295 C2297 1.327 . S
C2295 C2301 1.429 . S
C2296 C2288 1.574 . S
C2296 H2291 0.949 . S
C2296 C2302 1.368 . S
C2297 C2281 1.349 . S
C2297 H2289 0.950 . S
C2297 C2295 1.327 . S
C2298 C2286 1.349 . S
C2298 H2292 0.950 . S
C2298 C2299 1.327 . S
C2299 H2293 0.950 . S
C2299 C2298 1.327 . S
C2299 C2303 1.429 . S
C2300 C2283 1.574 . S
C2300 H2294 0.949 . S
C2300 C2304 1.368 . S
C2301 C2282 1.429 . S
C2301 C2295 1.429 . S
C2301 C2302 1.523 . S
C2302 C2283 1.368 . S
C2302 C2296 1.368 . S
C2302 C2301 1.523 . S
C2303 C2287 1.429 . S
C2303 C2299 1.429 . S
C2303 C2304 1.523 . S
C2304 C2288 1.368 . S
C2304 C2300 1.368 . S
C2304 C2303 1.523 . S
H2305 C2280 0.950 . S
H2306 C2282 0.950 . S
H2307 C2283 0.949 . S
H2308 C2285 0.950 . S
H2309 C2287 0.950 . S
C2310 C2311 1.349 . S
C2310 C2312 1.327 . S
C2310 H2335 0.950 . S
C2311 C2310 1.349 . S
C2311 C2327 1.349 . S
C2312 C2310 1.327 . S
C2312 C2331 1.429 . S
C2312 H2336 0.950 . S
C2313 C2330 1.574 . S
C2313 C2332 1.368 . S
C2313 H2337 0.949 . S
H2314 C2318 0.949 . S
C2315 C2316 1.349 . S
C2315 C2317 1.327 . S
C2315 H2338 0.950 . S
C2316 C2315 1.349 . S
C2316 C2328 1.349 . S
C2317 C2315 1.327 . S
C2317 C2333 1.429 . S
C2317 H2339 0.950 . S
C2318 H2314 0.949 . S
C2318 C2326 1.574 . S
C2318 C2334 1.368 . S
H2319 C2327 0.950 . S
H2320 C2325 0.950 . S
H2321 C2326 0.949 . S
H2322 C2328 0.950 . S
H2323 C2329 0.950 . S
H2324 C2330 0.949 . S
C2325 H2320 0.950 . S
C2325 C2327 1.327 . S
C2325 C2331 1.429 . S
C2326 C2318 1.574 . S
C2326 H2321 0.949 . S
C2326 C2332 1.368 . S
C2327 C2311 1.349 . S
C2327 H2319 0.950 . S
C2327 C2325 1.327 . S
C2328 C2316 1.349 . S
C2328 H2322 0.950 . S
C2328 C2329 1.327 . S
C2329 H2323 0.950 . S
C2329 C2328 1.327 . S
C2329 C2333 1.429 . S
C2330 C2313 1.574 . S
C2330 H2324 0.949 . S
C2330 C2334 1.368 . S
C2331 C2312 1.429 . S
C2331 C2325 1.429 . S
C2331 C2332 1.523 . S
C2332 C2313 1.368 . S
C2332 C2326 1.368 . S
C2332 C2331 1.523 . S
C2333 C2317 1.429 . S
C2333 C2329 1.429 . S
C2333 C2334 1.523 . S
C2334 C2318 1.368 . S
C2334 C2330 1.368 . S
C2334 C2333 1.523 . S
H2335 C2310 0.950 . S
H2336 C2312 0.950 . S
H2337 C2313 0.949 . S
H2338 C2315 0.950 . S
H2339 C2317 0.950 . S
C721 C531 2.426 . S
C726 C11 2.429 . S
C751 C59 1.529 . S
C756 C579 1.529 . S
C781 C91 2.004 . S
C786 C499 2.057 . S
C811 C99 1.337 . S
C816 C299 1.338 . S
C841 C339 1.711 . S
C846 C19 1.714 . S
C871 C51 2.093 . S
C876 C259 2.139 . S
C901 C122 2.000 . S
C906 C410 2.031 . S
C931 C170 1.196 . S
C936 C450 1.196 . S
C961 C370 1.682 . S
C966 C202 1.634 . S
C991 C650 1.546 . S
C996 C210 1.544 . S
C1021 C130 2.042 . S
C1026 C682 2.002 . S
C1051 C602 2.445 . S
C1056 C162 2.424 . S
C1081 C331 1.868 . S
C1086 C539 1.915 . S
C1111 C251 2.315 . S
C1116 C571 2.303 . S
C1141 C291 2.637 . S
C1146 C491 2.653 . S
C1171 C362 2.784 . S
C1176 C642 2.776 . S
C1201 C690 2.069 . S
C1206 C402 2.035 . S
C1231 C610 2.424 . S
C1236 C442 2.372 . S
C1261 C10 1.381 . S
C1266 C179 1.383 . S
C1291 C211 1.753 . S
C1296 C42 1.752 . S
C1321 C131 1.562 . S
C1326 C90 1.444 . S
C1351 C171 1.816 . S
C1356 C82 1.851 . S
C1381 C219 1.579 . S
C1386 C2 1.636 . S
C1411 C139 1.493 . S
C1416 C50 1.528 . S
C1441 C411 1.933 . S
C1446 C242 1.922 . S
C1471 C451 1.990 . S
C1476 C282 1.978 . S
C1501 C371 1.988 . S
C1506 C322 1.919 . S
C1531 C419 1.443 . S
C1536 C330 1.449 . S
C1561 C459 1.403 . S
C1566 C250 1.471 . S
C1591 C379 1.421 . S
C1596 C290 1.431 . S
C1621 C659 1.563 . S
C1626 C490 1.528 . S
C1651 C691 1.881 . S
C1656 C522 1.847 . S
C1681 C570 1.614 . S
C1686 C611 1.672 . S
C1711 C562 2.045 . S
C1716 C651 2.045 . S
C1741 C482 1.808 . S
C1746 C699 1.676 . S
C1771 C619 1.562 . S
C1776 C530 1.563 . S
C1801 C16 1.295 . S
C1806 C7 1.295 . S
C1831 C47 1.412 . S
C1836 C56 1.412 . S
C1861 C96 1.388 . S
C1866 C87 1.388 . S
C1891 C127 1.358 . S
C1896 C136 1.358 . S
C1921 C167 1.329 . S
C1926 C176 1.329 . S
C1951 C216 1.502 . S
C1956 C207 1.502 . S
C1981 C256 1.527 . S
C1986 C247 1.527 . S
C2011 C287 1.294 . S
C2016 C296 1.294 . S
C2041 C336 1.617 . S
C2046 C327 1.617 . S
C2071 C367 1.252 . S
C2076 C376 1.252 . S
C2101 C407 1.530 . S
C2106 C416 1.530 . S
C2131 C447 1.355 . S
C2136 C456 1.355 . S
C2161 C487 1.260 . S
C2166 C496 1.260 . S
C2191 C527 1.382 . S
C2196 C536 1.382 . S
C2221 C576 1.354 . S
C2226 C567 1.354 . S
C2251 C616 1.379 . S
C2256 C607 1.379 . S
C2281 C647 1.288 . S
C2286 C656 1.288 . S
C2311 C687 1.416 . S
C2316 C696 1.416 . S
