# Generated by pormake.
# Topology ukt, (4)-cn, num edge types: 1
# Building blocks:
#     Node 0, Type 0, BuildingBlock: ICAMEG_clean_sbu_1, # of connection points: 4
#     Node 1, Type 0, BuildingBlock: ICAMEG_clean_sbu_1, # of connection points: 4
#     Node 2, Type 0, BuildingBlock: ICAMEG_clean_sbu_1, # of connection points: 4
#     Node 3, Type 0, BuildingBlock: ICAMEG_clean_sbu_1, # of connection points: 4
#     Node 4, Type 0, BuildingBlock: ICAMEG_clean_sbu_1, # of connection points: 4
#     Node 5, Type 0, BuildingBlock: ICAMEG_clean_sbu_1, # of connection points: 4
#     Node 6, Type 0, BuildingBlock: ICAMEG_clean_sbu_1, # of connection points: 4
#     Node 7, Type 0, BuildingBlock: ICAMEG_clean_sbu_1, # of connection points: 4
#     Node 8, Type 0, BuildingBlock: ICAMEG_clean_sbu_1, # of connection points: 4
#     Node 9, Type 0, BuildingBlock: ICAMEG_clean_sbu_1, # of connection points: 4
#     Node 10, Type 0, BuildingBlock: ICAMEG_clean_sbu_1, # of connection points: 4
#     Node 11, Type 0, BuildingBlock: ICAMEG_clean_sbu_1, # of connection points: 4
#     Node 12, Type 0, BuildingBlock: ICAMEG_clean_sbu_1, # of connection points: 4
#     Node 13, Type 0, BuildingBlock: ICAMEG_clean_sbu_1, # of connection points: 4
#     Node 14, Type 0, BuildingBlock: ICAMEG_clean_sbu_1, # of connection points: 4
#     Node 15, Type 0, BuildingBlock: ICAMEG_clean_sbu_1, # of connection points: 4
#     Edge 16, Type (0, 0), BuildingBlock: AJUNOK_clean_linker_0, # of connection points: 2
#     Edge 17, Type (0, 0), BuildingBlock: AJUNOK_clean_linker_0, # of connection points: 2
#     Edge 18, Type (0, 0), BuildingBlock: AJUNOK_clean_linker_0, # of connection points: 2
#     Edge 19, Type (0, 0), BuildingBlock: AJUNOK_clean_linker_0, # of connection points: 2
#     Edge 20, Type (0, 0), BuildingBlock: AJUNOK_clean_linker_0, # of connection points: 2
#     Edge 21, Type (0, 0), BuildingBlock: AJUNOK_clean_linker_0, # of connection points: 2
#     Edge 22, Type (0, 0), BuildingBlock: AJUNOK_clean_linker_0, # of connection points: 2
#     Edge 23, Type (0, 0), BuildingBlock: AJUNOK_clean_linker_0, # of connection points: 2
#     Edge 24, Type (0, 0), BuildingBlock: AJUNOK_clean_linker_0, # of connection points: 2
#     Edge 25, Type (0, 0), BuildingBlock: AJUNOK_clean_linker_0, # of connection points: 2
#     Edge 26, Type (0, 0), BuildingBlock: AJUNOK_clean_linker_0, # of connection points: 2
#     Edge 27, Type (0, 0), BuildingBlock: AJUNOK_clean_linker_0, # of connection points: 2
#     Edge 28, Type (0, 0), BuildingBlock: AJUNOK_clean_linker_0, # of connection points: 2
#     Edge 29, Type (0, 0), BuildingBlock: AJUNOK_clean_linker_0, # of connection points: 2
#     Edge 30, Type (0, 0), BuildingBlock: AJUNOK_clean_linker_0, # of connection points: 2
#     Edge 31, Type (0, 0), BuildingBlock: AJUNOK_clean_linker_0, # of connection points: 2
#     Edge 32, Type (0, 0), BuildingBlock: AJUNOK_clean_linker_0, # of connection points: 2
#     Edge 33, Type (0, 0), BuildingBlock: AJUNOK_clean_linker_0, # of connection points: 2
#     Edge 34, Type (0, 0), BuildingBlock: AJUNOK_clean_linker_0, # of connection points: 2
#     Edge 35, Type (0, 0), BuildingBlock: AJUNOK_clean_linker_0, # of connection points: 2
#     Edge 36, Type (0, 0), BuildingBlock: AJUNOK_clean_linker_0, # of connection points: 2
#     Edge 37, Type (0, 0), BuildingBlock: AJUNOK_clean_linker_0, # of connection points: 2
#     Edge 38, Type (0, 0), BuildingBlock: AJUNOK_clean_linker_0, # of connection points: 2
#     Edge 39, Type (0, 0), BuildingBlock: AJUNOK_clean_linker_0, # of connection points: 2
#     Edge 40, Type (0, 0), BuildingBlock: AJUNOK_clean_linker_0, # of connection points: 2
#     Edge 41, Type (0, 0), BuildingBlock: AJUNOK_clean_linker_0, # of connection points: 2
#     Edge 42, Type (0, 0), BuildingBlock: AJUNOK_clean_linker_0, # of connection points: 2
#     Edge 43, Type (0, 0), BuildingBlock: AJUNOK_clean_linker_0, # of connection points: 2
#     Edge 44, Type (0, 0), BuildingBlock: AJUNOK_clean_linker_0, # of connection points: 2
#     Edge 45, Type (0, 0), BuildingBlock: AJUNOK_clean_linker_0, # of connection points: 2
#     Edge 46, Type (0, 0), BuildingBlock: AJUNOK_clean_linker_0, # of connection points: 2
#     Edge 47, Type (0, 0), BuildingBlock: AJUNOK_clean_linker_0, # of connection points: 2
# Relax obj value: 0.216
# Max RMSD: 0.134
# Mean RMSD: 0.134
data_MOF--net-ukt--node1-ICAMEG_clean_sbu_1--edge1-AJUNOK_clean_linker_0
_symmetry_space_group_name_H-M    P1
_symmetry_Int_Tables_number       1
_symmetry_cell_setting            triclinic
loop_
_symmetry_equiv_pos_as_xyz
'x, y, z'
_cell_length_a     33.649869
_cell_length_b     33.649849
_cell_length_c     30.660476
_cell_angle_alpha  89.961533
_cell_angle_beta   89.970906
_cell_angle_gamma 90.052081
loop_
_atom_site_label
_atom_site_type_symbol
_atom_site_fract_x
_atom_site_fract_y
_atom_site_fract_z
_atom_type_partial_charge
Co0 Co 0.58955 0.16494 0.12142 0.0
Co1 Co 0.52877 0.16684 0.03047 0.0
O2 O 0.53901 0.15541 0.09206 0.0
C3 C 0.53306 0.21549 0.1712 0.0
O4 O 0.51931 0.22981 0.13436 0.0
C5 C 0.5237 0.08014 0.03764 0.0
O6 O 0.55379 0.08329 0.06447 0.0
O7 O 0.58256 0.14797 0.01176 0.0
O8 O 0.61878 0.13962 0.07269 0.0
H9 H 0.55905 0.22462 0.88296 0.0
H10 H 0.52403 0.12313 0.16729 0.0
O11 O 0.56099 0.19006 0.17134 0.0
H12 H 0.6366 0.0294 0.16777 0.0
H13 H 0.68013 0.17321 0.25208 0.0
H14 H 0.66993 0.19027 0.09277 0.0
H15 H 0.64373 0.09602 0.13511 0.0
H16 H 0.61679 0.16031 0.21412 0.0
O17 O 0.50807 0.11143 0.02162 0.0
H18 H 0.57221 0.20941 0.96031 0.0
H19 H 0.4619 0.14855 0.97003 0.0
H20 H 0.73403 0.20209 0.12911 0.0
H21 H 0.51576 0.057 0.20092 0.0
H22 H 0.73943 0.19415 0.2095 0.0
H23 H 0.57224 0.00952 0.201 0.0
O24 O 0.59571 0.21774 0.09216 0.0
H25 H 0.39787 0.15692 0.1086 0.0
H26 H 0.4814 0.23982 0.01253 0.0
H27 H 0.41542 0.26421 0.03517 0.0
H28 H 0.37313 0.22258 0.08345 0.0
H29 H 0.4642 0.13384 0.08545 0.0
H30 H 0.44774 0.16272 0.89259 0.0
H31 H 0.49644 0.20118 0.84859 0.0
O32 O 0.5503 0.22135 0.0381 0.0
C33 C 0.61398 0.13714 0.03163 0.0
C34 C 0.53754 0.20794 0.90182 0.0
C35 C 0.47509 0.17316 0.90722 0.0
N36 N 0.51769 0.1784 0.96972 0.0
C37 C 0.54476 0.19935 0.94568 0.0
C38 C 0.4833 0.16514 0.951 0.0
C39 C 0.50242 0.19475 0.88255 0.0
C40 C 0.54889 0.10281 0.16773 0.0
N41 N 0.58436 0.11348 0.14944 0.0
C42 C 0.54398 0.06535 0.18663 0.0
C43 C 0.57567 0.03871 0.18664 0.0
C44 C 0.61179 0.04984 0.168 0.0
C45 C 0.61563 0.08758 0.1495 0.0
C46 C 0.67816 0.17695 0.21708 0.0
C47 C 0.67204 0.18625 0.12763 0.0
C48 C 0.64231 0.16987 0.19541 0.0
N49 N 0.63962 0.17448 0.15119 0.0
C50 C 0.70843 0.19325 0.14812 0.0
C51 C 0.71142 0.18868 0.19318 0.0
C52 C 0.57798 0.23614 0.06132 0.0
C53 C 0.41597 0.17528 0.08745 0.0
C54 C 0.46321 0.2216 0.03366 0.0
C55 C 0.42585 0.23553 0.04629 0.0
C56 C 0.40213 0.21215 0.07337 0.0
N57 N 0.47649 0.18535 0.04748 0.0
C58 C 0.45348 0.16231 0.07412 0.0
Co59 Co 0.33344 0.60029 0.11683 0.0
Co60 Co 0.33865 0.54178 0.02446 0.0
O61 O 0.3489 0.55201 0.08603 0.0
C62 C 0.29454 0.53861 0.17069 0.0
O63 O 0.27824 0.52474 0.13489 0.0
C64 C 0.42517 0.53655 0.03007 0.0
O65 O 0.42293 0.56953 0.05274 0.0
O66 O 0.35945 0.59496 0.00729 0.0
O67 O 0.34765 0.63411 0.06541 0.0
H68 H 0.28878 0.57316 0.8737 0.0
H69 H 0.38962 0.54413 0.1588 0.0
O70 O 0.31848 0.56786 0.16895 0.0
H71 H 0.46354 0.67003 0.14381 0.0
H72 H 0.32811 0.68946 0.24867 0.0
H73 H 0.28547 0.67181 0.09618 0.0
H74 H 0.39378 0.66521 0.11976 0.0
H75 H 0.34689 0.62929 0.20759 0.0
O76 O 0.39338 0.51937 0.01764 0.0
H77 H 0.30157 0.58647 0.95146 0.0
H78 H 0.35587 0.47347 0.96572 0.0
H79 H 0.26776 0.73328 0.13519 0.0
H80 H 0.45921 0.54779 0.18378 0.0
H81 H 0.28853 0.74222 0.21228 0.0
H82 H 0.49672 0.61102 0.17607 0.0
O83 O 0.27794 0.59667 0.09415 0.0
H84 H 0.34186 0.41088 0.1032 0.0
H85 H 0.26459 0.49678 0.00428 0.0
H86 H 0.23725 0.43176 0.02643 0.0
H87 H 0.27604 0.38828 0.07615 0.0
H88 H 0.3679 0.47631 0.0805 0.0
H89 H 0.34416 0.45899 0.88791 0.0
H90 H 0.3102 0.50897 0.84138 0.0
O91 O 0.28459 0.56534 0.02954 0.0
C92 C 0.35835 0.62883 0.02587 0.0
C93 C 0.30343 0.55105 0.89366 0.0
C94 C 0.33456 0.48701 0.90164 0.0
N95 N 0.32891 0.53063 0.96328 0.0
C96 C 0.31055 0.55839 0.9378 0.0
C97 C 0.34115 0.4954 0.94566 0.0
C98 C 0.3155 0.51506 0.87555 0.0
C99 C 0.40559 0.57189 0.15588 0.0
N100 N 0.3876 0.60445 0.13806 0.0
C101 C 0.44505 0.57373 0.16987 0.0
C102 C 0.46609 0.6092 0.16549 0.0
C103 C 0.44751 0.64231 0.14735 0.0
C104 C 0.40803 0.63937 0.1337 0.0
C105 C 0.319 0.68606 0.21502 0.0
C106 C 0.29568 0.67603 0.12918 0.0
C107 C 0.32952 0.65204 0.19158 0.0
N108 N 0.31832 0.64764 0.14897 0.0
C109 C 0.28502 0.71063 0.1514 0.0
C110 C 0.29677 0.71563 0.19462 0.0
C111 C 0.26433 0.58456 0.05767 0.0
C112 C 0.32473 0.42951 0.08142 0.0
C113 C 0.28157 0.47806 0.02605 0.0
C114 C 0.26598 0.44125 0.03839 0.0
C115 C 0.28778 0.41687 0.06628 0.0
N116 N 0.31789 0.49016 0.04092 0.0
C117 C 0.33939 0.46649 0.06834 0.0
Co118 Co 0.91196 0.32245 0.11559 0.0
Co119 Co 0.96498 0.32902 0.01918 0.0
O120 O 0.95856 0.3385 0.08169 0.0
C121 C 0.97438 0.27904 0.16437 0.0
O122 O 0.9859 0.26287 0.12752 0.0
C123 C 0.97165 0.41605 0.02536 0.0
O124 O 0.94019 0.41442 0.05066 0.0
O125 O 0.91074 0.34973 0.00627 0.0
O126 O 0.87567 0.33942 0.06758 0.0
H127 H 0.92302 0.27963 0.87155 0.0
H128 H 0.97173 0.37627 0.15515 0.0
O129 O 0.94699 0.30508 0.1647 0.0
H130 H 0.84621 0.45183 0.15515 0.0
H131 H 0.83207 0.31055 0.25411 0.0
H132 H 0.83819 0.27683 0.09782 0.0
H133 H 0.8484 0.38328 0.12681 0.0
H134 H 0.88876 0.33241 0.20897 0.0
O135 O 0.98691 0.38398 0.011 0.0
H136 H 0.91542 0.29176 0.95045 0.0
H137 H 0.0293 0.34605 0.95487 0.0
H138 H 0.78059 0.2552 0.14142 0.0
H139 H 0.97081 0.44465 0.18417 0.0
H140 H 0.7773 0.27181 0.22025 0.0
H141 H 0.90773 0.48293 0.18415 0.0
O142 O 0.91294 0.26759 0.0906 0.0
H143 H 0.10034 0.33288 0.08799 0.0
H144 H 0.00958 0.25582 0.99426 0.0
H145 H 0.07605 0.22908 0.01108 0.0
H146 H 0.12199 0.26778 0.05817 0.0
H147 H 0.0334 0.35829 0.07068 0.0
H148 H 0.03795 0.33504 0.8759 0.0
H149 H 0.98461 0.30143 0.83373 0.0
O150 O 0.94275 0.27456 0.02557 0.0
C151 C 0.87826 0.35006 0.0277 0.0
C152 C 0.94648 0.29429 0.88956 0.0
C153 C 0.01096 0.32543 0.89199 0.0
N154 N 0.97191 0.31958 0.95723 0.0
C155 C 0.94239 0.30117 0.93426 0.0
C156 C 0.00584 0.33176 0.93665 0.0
C157 C 0.98104 0.30655 0.86836 0.0
C158 C 0.94411 0.39264 0.15541 0.0
N159 N 0.91015 0.37577 0.1395 0.0
C160 C 0.9438 0.43138 0.17172 0.0
C161 C 0.9084 0.45287 0.17165 0.0
C162 C 0.87388 0.43544 0.15535 0.0
C163 C 0.87532 0.39666 0.13926 0.0
C164 C 0.83299 0.30333 0.21972 0.0
C165 C 0.83664 0.28488 0.13188 0.0
C166 C 0.865 0.31565 0.19396 0.0
N167 N 0.86635 0.30669 0.15048 0.0
C168 C 0.80409 0.27222 0.15653 0.0
C169 C 0.8023 0.28155 0.20075 0.0
C170 C 0.9242 0.25383 0.05385 0.0
C171 C 0.08062 0.31578 0.06736 0.0
C172 C 0.02932 0.27272 0.01495 0.0
C173 C 0.06697 0.2575 0.02425 0.0
C174 C 0.09274 0.27923 0.05065 0.0
N175 N 0.01771 0.30865 0.03135 0.0
C176 C 0.04276 0.33009 0.05733 0.0
Co177 Co 0.16311 0.91015 0.1138 0.0
Co178 Co 0.15752 0.96913 0.02134 0.0
O179 O 0.14995 0.95976 0.08389 0.0
C180 C 0.21622 0.9652 0.16342 0.0
O181 O 0.23403 0.97574 0.12712 0.0
C182 C 0.07151 0.97489 0.03315 0.0
O183 O 0.07521 0.94422 0.05922 0.0
O184 O 0.13661 0.91544 0.00523 0.0
O185 O 0.13806 0.8787 0.06635 0.0
H186 H 0.20562 0.93633 0.8704 0.0
H187 H 0.11884 0.97406 0.15918 0.0
O188 O 0.18754 0.94058 0.16291 0.0
H189 H 0.03195 0.85616 0.16657 0.0
H190 H 0.1797 0.82164 0.24533 0.0
H191 H 0.19263 0.83138 0.08546 0.0
H192 H 0.09792 0.85218 0.13175 0.0
H193 H 0.16214 0.88368 0.20704 0.0
O194 O 0.10229 0.99054 0.01613 0.0
H195 H 0.19581 0.92476 0.94908 0.0
H196 H 0.13592 0.03525 0.96104 0.0
H197 H 0.20855 0.76835 0.12212 0.0
H198 H 0.05333 0.97928 0.19486 0.0
H199 H 0.20298 0.76328 0.20282 0.0
H200 H 0.00927 0.9201 0.19843 0.0
O201 O 0.21583 0.90678 0.08342 0.0
H202 H 0.1544 0.10114 0.09764 0.0
H203 H 0.22967 0.01551 0.99667 0.0
H204 H 0.25621 0.08155 0.01599 0.0
H205 H 0.21841 0.1249 0.06673 0.0
H206 H 0.12913 0.03471 0.0777 0.0
H207 H 0.14483 0.04794 0.88238 0.0
H208 H 0.17998 0.9983 0.83651 0.0
O209 O 0.21193 0.94718 0.02519 0.0
C210 C 0.13007 0.88331 0.02608 0.0
C211 C 0.19031 0.95822 0.89003 0.0
C212 C 0.15613 0.02083 0.89675 0.0
N213 N 0.16536 0.97931 0.95964 0.0
C214 C 0.18472 0.95186 0.93463 0.0
C215 C 0.15107 0.01343 0.94125 0.0
C216 C 0.17588 0.99297 0.87104 0.0
C217 C 0.09996 0.94809 0.16094 0.0
N218 N 0.11211 0.91288 0.14322 0.0
C219 C 0.06286 0.95126 0.18107 0.0
C220 C 0.03814 0.91805 0.18304 0.0
C221 C 0.05083 0.88219 0.16512 0.0
C222 C 0.08813 0.88014 0.14526 0.0
C223 C 0.18247 0.82348 0.21021 0.0
C224 C 0.18935 0.82929 0.12046 0.0
C225 C 0.17277 0.85861 0.18835 0.0
N226 N 0.17618 0.86113 0.14398 0.0
C227 C 0.19883 0.79357 0.14114 0.0
C228 C 0.19553 0.79075 0.18635 0.0
C229 C 0.23078 0.92281 0.04933 0.0
C230 C 0.1711 0.08256 0.07543 0.0
C231 C 0.21315 0.03414 0.01891 0.0
C232 C 0.22827 0.07154 0.02965 0.0
C233 C 0.20703 0.09586 0.0581 0.0
N234 N 0.17781 0.02139 0.03592 0.0
C235 C 0.15688 0.04499 0.06393 0.0
Co236 Co 0.58823 0.33749 0.38619 0.0
Co237 Co 0.53134 0.33759 0.48038 0.0
O238 O 0.53945 0.34933 0.4184 0.0
C239 C 0.52895 0.28931 0.33812 0.0
O240 O 0.51594 0.27545 0.37552 0.0
C241 C 0.52533 0.42454 0.47595 0.0
O242 O 0.55578 0.42315 0.44926 0.0
O243 O 0.58564 0.35697 0.49649 0.0
O244 O 0.62071 0.36004 0.43415 0.0
H245 H 0.56786 0.2801 0.62626 0.0
H246 H 0.5235 0.38373 0.34476 0.0
O247 O 0.55659 0.31506 0.33698 0.0
H248 H 0.64133 0.47087 0.33966 0.0
H249 H 0.67314 0.32677 0.25116 0.0
H250 H 0.66764 0.30645 0.41034 0.0
H251 H 0.64576 0.40357 0.37119 0.0
H252 H 0.61239 0.34315 0.29247 0.0
O253 O 0.51032 0.39241 0.49051 0.0
H254 H 0.57745 0.29489 0.54819 0.0
H255 H 0.46619 0.35414 0.54383 0.0
H256 H 0.72922 0.2908 0.37054 0.0
H257 H 0.51778 0.4507 0.31252 0.0
H258 H 0.7322 0.30043 0.29025 0.0
H259 H 0.57697 0.49481 0.30999 0.0
O260 O 0.59237 0.28329 0.41293 0.0
H261 H 0.3978 0.34677 0.40794 0.0
H262 H 0.48462 0.26448 0.50073 0.0
H263 H 0.41796 0.23982 0.48105 0.0
H264 H 0.37399 0.28116 0.43444 0.0
H265 H 0.46488 0.37008 0.42806 0.0
H266 H 0.4555 0.34038 0.622 0.0
H267 H 0.50654 0.30302 0.66374 0.0
O268 O 0.55261 0.2834 0.47174 0.0
C269 C 0.61717 0.36502 0.47513 0.0
C270 C 0.54541 0.29646 0.60847 0.0
C271 C 0.48239 0.33035 0.60609 0.0
N272 N 0.52255 0.32564 0.54156 0.0
C273 C 0.55068 0.30492 0.56424 0.0
C274 C 0.4887 0.33826 0.56189 0.0
C275 C 0.51102 0.30934 0.62947 0.0
C276 C 0.54942 0.4027 0.34354 0.0
N277 N 0.5849 0.38983 0.35993 0.0
C278 C 0.54599 0.44061 0.32535 0.0
C279 C 0.5792 0.46536 0.32397 0.0
C280 C 0.61531 0.45196 0.34065 0.0
C281 C 0.61761 0.41389 0.35862 0.0
C282 C 0.67222 0.32234 0.28612 0.0
C283 C 0.66881 0.31132 0.37551 0.0
C284 C 0.63784 0.33143 0.30967 0.0
N285 N 0.63648 0.32591 0.35384 0.0
C286 C 0.70372 0.30211 0.35307 0.0
C287 C 0.70535 0.30758 0.30805 0.0
C288 C 0.57666 0.26615 0.44588 0.0
C289 C 0.41666 0.32852 0.42832 0.0
C290 C 0.46577 0.28251 0.48021 0.0
C291 C 0.428 0.26845 0.4693 0.0
C292 C 0.40333 0.29168 0.44317 0.0
N293 N 0.47857 0.31871 0.46563 0.0
C294 C 0.45461 0.34161 0.43992 0.0
Co295 Co 0.17159 0.592 0.38817 0.0
Co296 Co 0.16851 0.53025 0.47853 0.0
O297 O 0.15868 0.54165 0.41679 0.0
C298 C 0.22336 0.53587 0.33944 0.0
O299 O 0.23674 0.52192 0.3766 0.0
C300 C 0.08116 0.52553 0.4716 0.0
O301 O 0.08332 0.55579 0.44471 0.0
O302 O 0.14967 0.58406 0.49717 0.0
O303 O 0.14601 0.62157 0.43645 0.0
H304 H 0.2226 0.5588 0.628 0.0
H305 H 0.12864 0.52885 0.33991 0.0
O306 O 0.19703 0.56296 0.33864 0.0
H307 H 0.03985 0.64536 0.33717 0.0
H308 H 0.18682 0.6837 0.25907 0.0
H309 H 0.19997 0.67072 0.41863 0.0
H310 H 0.10535 0.64912 0.37299 0.0
H311 H 0.17038 0.6205 0.29577 0.0
O312 O 0.11292 0.50985 0.48625 0.0
H313 H 0.20882 0.57301 0.55055 0.0
H314 H 0.15025 0.46185 0.53726 0.0
H315 H 0.21532 0.73479 0.38344 0.0
H316 H 0.06352 0.52386 0.30332 0.0
H317 H 0.20924 0.7415 0.30302 0.0
H318 H 0.01858 0.58237 0.30195 0.0
O319 O 0.22418 0.59577 0.41862 0.0
H320 H 0.1584 0.40211 0.3954 0.0
H321 H 0.2386 0.47922 0.49978 0.0
H322 H 0.26221 0.41345 0.47581 0.0
H323 H 0.22186 0.37431 0.42329 0.0
H324 H 0.13634 0.46835 0.41986 0.0
H325 H 0.16269 0.44673 0.6148 0.0
H326 H 0.19936 0.49532 0.66065 0.0
O327 O 0.22352 0.55095 0.47291 0.0
C328 C 0.14082 0.61606 0.47713 0.0
C329 C 0.20659 0.5374 0.60837 0.0
C330 C 0.17293 0.47452 0.60097 0.0
N331 N 0.17872 0.51829 0.53942 0.0
C332 C 0.19876 0.54524 0.56447 0.0
C333 C 0.16576 0.48333 0.55716 0.0
C334 C 0.19353 0.50178 0.62667 0.0
C335 C 0.10934 0.5545 0.33916 0.0
N336 N 0.12076 0.58923 0.35852 0.0
C337 C 0.07247 0.55147 0.31851 0.0
C338 C 0.04725 0.58431 0.31778 0.0
C339 C 0.05916 0.61965 0.33753 0.0
C340 C 0.09624 0.62158 0.35785 0.0
C341 C 0.18967 0.68113 0.29413 0.0
C342 C 0.19672 0.6735 0.38369 0.0
C343 C 0.18058 0.64535 0.31508 0.0
N344 N 0.18404 0.64193 0.35936 0.0
C345 C 0.20574 0.70981 0.3639 0.0
C346 C 0.20225 0.71356 0.31879 0.0
C347 C 0.24082 0.57771 0.45042 0.0
C348 C 0.17629 0.4189 0.41822 0.0
C349 C 0.22128 0.46269 0.47649 0.0
C350 C 0.23459 0.4253 0.46325 0.0
C351 C 0.21191 0.40333 0.43385 0.0
N352 N 0.18639 0.47781 0.46096 0.0
C353 C 0.16392 0.45639 0.43224 0.0
Co354 Co 0.91015 0.17093 0.38728 0.0
Co355 Co 0.96635 0.16166 0.48093 0.0
O356 O 0.95779 0.15358 0.41855 0.0
C357 C 0.97216 0.21227 0.33518 0.0
O358 O 0.98461 0.22963 0.371 0.0
C359 C 0.97411 0.07504 0.47228 0.0
O360 O 0.9415 0.07642 0.44884 0.0
O361 O 0.91305 0.13952 0.49517 0.0
O362 O 0.87517 0.15518 0.43716 0.0
H363 H 0.92839 0.20582 0.63183 0.0
H364 H 0.96645 0.1155 0.34448 0.0
O365 O 0.9438 0.18723 0.33651 0.0
H366 H 0.83858 0.04395 0.35019 0.0
H367 H 0.82514 0.18648 0.25301 0.0
H368 H 0.83772 0.21678 0.40962 0.0
H369 H 0.84429 0.11206 0.37922 0.0
H370 H 0.88336 0.1633 0.29478 0.0
O371 O 0.9895 0.10713 0.48637 0.0
H372 H 0.91849 0.19595 0.55288 0.0
H373 H 0.03299 0.14393 0.54205 0.0
H374 H 0.77848 0.2394 0.36962 0.0
H375 H 0.96197 0.04758 0.31462 0.0
H376 H 0.77198 0.22459 0.29055 0.0
H377 H 0.89769 0.01131 0.3175 0.0
O378 O 0.91394 0.22546 0.41239 0.0
H379 H 0.0996 0.16236 0.40705 0.0
H380 H 0.01039 0.23502 0.50659 0.0
H381 H 0.07598 0.26336 0.48851 0.0
H382 H 0.12115 0.22688 0.43853 0.0
H383 H 0.03354 0.13529 0.42571 0.0
H384 H 0.04396 0.15273 0.62101 0.0
H385 H 0.99146 0.18404 0.66643 0.0
O386 O 0.94298 0.21579 0.47738 0.0
C387 C 0.87963 0.14211 0.47592 0.0
C388 C 0.95151 0.19219 0.61239 0.0
C389 C 0.01635 0.16235 0.60632 0.0
N390 N 0.97519 0.16949 0.54286 0.0
C391 C 0.94612 0.18661 0.56764 0.0
C392 C 0.00992 0.1573 0.56166 0.0
C393 C 0.98689 0.17994 0.63178 0.0
C394 C 0.9383 0.10003 0.34548 0.0
N395 N 0.90564 0.11778 0.36335 0.0
C396 C 0.93598 0.06153 0.32868 0.0
C397 C 0.89992 0.04117 0.33036 0.0
C398 C 0.86674 0.05946 0.34873 0.0
C399 C 0.87018 0.09799 0.36521 0.0
C400 C 0.82749 0.19296 0.2875 0.0
C401 C 0.8347 0.20941 0.37557 0.0
C402 C 0.86042 0.17996 0.31133 0.0
N403 N 0.86357 0.18804 0.35491 0.0
C404 C 0.80127 0.22268 0.35289 0.0
C405 C 0.79769 0.21438 0.30854 0.0
C406 C 0.92497 0.23772 0.44985 0.0
C407 C 0.08022 0.17849 0.42895 0.0
C408 C 0.02978 0.21908 0.48463 0.0
C409 C 0.06694 0.23522 0.47461 0.0
C410 C 0.09227 0.21472 0.44658 0.0
N411 N 0.01826 0.18346 0.46734 0.0
C412 C 0.04285 0.16325 0.43972 0.0
Co413 Co 0.33278 0.90267 0.38615 0.0
Co414 Co 0.33642 0.96709 0.47419 0.0
O415 O 0.34593 0.95369 0.41293 0.0
C416 C 0.28543 0.95943 0.33353 0.0
O417 O 0.27206 0.97501 0.36991 0.0
C418 C 0.42311 0.97128 0.46505 0.0
O419 O 0.41957 0.93919 0.44118 0.0
O420 O 0.35598 0.91449 0.49498 0.0
O421 O 0.35563 0.87374 0.43678 0.0
H422 H 0.28436 0.94398 0.62577 0.0
H423 H 0.3794 0.96264 0.33689 0.0
O424 O 0.31009 0.93081 0.33442 0.0
H425 H 0.46517 0.84409 0.34497 0.0
H426 H 0.31923 0.80733 0.26028 0.0
H427 H 0.30027 0.82611 0.41844 0.0
H428 H 0.39787 0.8432 0.37683 0.0
H429 H 0.33681 0.87098 0.29524 0.0
O430 O 0.392 0.98832 0.47969 0.0
H431 H 0.29695 0.92696 0.54877 0.0
H432 H 0.35613 0.03713 0.52955 0.0
H433 H 0.28347 0.76164 0.38505 0.0
H434 H 0.44639 0.9647 0.30418 0.0
H435 H 0.29248 0.75204 0.30531 0.0
H436 H 0.48986 0.90521 0.30838 0.0
O437 O 0.27925 0.90177 0.41461 0.0
H438 H 0.34333 0.09384 0.3879 0.0
H439 H 0.2639 0.01522 0.49213 0.0
H440 H 0.23852 0.07987 0.46639 0.0
H441 H 0.27841 0.11969 0.41397 0.0
H442 H 0.36739 0.02884 0.41421 0.0
H443 H 0.34456 0.05519 0.60651 0.0
H444 H 0.30827 0.00851 0.65512 0.0
O445 O 0.28169 0.94514 0.47027 0.0
C446 C 0.36218 0.88104 0.47688 0.0
C447 C 0.30009 0.96463 0.60488 0.0
C448 C 0.33392 0.02703 0.59408 0.0
N449 N 0.32691 0.9812 0.53461 0.0
C450 C 0.30719 0.95522 0.56121 0.0
C451 C 0.34045 0.01662 0.55057 0.0
C452 C 0.31354 0.00083 0.62133 0.0
C453 C 0.39799 0.93649 0.33839 0.0
N454 N 0.38472 0.90283 0.35867 0.0
C455 C 0.43594 0.93788 0.31997 0.0
C456 C 0.46033 0.9045 0.32237 0.0
C457 C 0.4465 0.8702 0.34289 0.0
C458 C 0.40838 0.86989 0.36092 0.0
C459 C 0.31508 0.81116 0.29504 0.0
C460 C 0.30481 0.82203 0.38383 0.0
C461 C 0.32485 0.84719 0.315 0.0
N462 N 0.31976 0.85222 0.3589 0.0
C463 C 0.29496 0.78552 0.36503 0.0
C464 C 0.30008 0.78014 0.32032 0.0
C465 C 0.26344 0.91943 0.44716 0.0
C466 C 0.32573 0.07681 0.41082 0.0
C467 C 0.28134 0.03232 0.4692 0.0
C468 C 0.26687 0.06894 0.45482 0.0
C469 C 0.28927 0.09128 0.42543 0.0
N470 N 0.31718 0.01842 0.45482 0.0
C471 C 0.33927 0.04008 0.42593 0.0
Co472 Co 0.40748 0.84325 0.88416 0.0
Co473 Co 0.46409 0.83826 0.97811 0.0
O474 O 0.45669 0.85191 0.91655 0.0
C475 C 0.46461 0.79215 0.83638 0.0
O476 O 0.47746 0.77842 0.87387 0.0
C477 C 0.47044 0.92542 0.97582 0.0
O478 O 0.44111 0.92447 0.9477 0.0
O479 O 0.40948 0.85683 0.9946 0.0
O480 O 0.37634 0.86749 0.93209 0.0
H481 H 0.42665 0.77538 0.12109 0.0
H482 H 0.47507 0.88494 0.84215 0.0
O483 O 0.43777 0.8187 0.83504 0.0
H484 H 0.36386 0.98025 0.83889 0.0
H485 H 0.32261 0.83931 0.74879 0.0
H486 H 0.3261 0.81668 0.90766 0.0
H487 H 0.35483 0.91331 0.87025 0.0
H488 H 0.38414 0.85122 0.79053 0.0
O489 O 0.48478 0.89302 0.99053 0.0
H490 H 0.41749 0.79311 0.04373 0.0
H491 H 0.52853 0.85311 0.04281 0.0
H492 H 0.26376 0.80543 0.86738 0.0
H493 H 0.48534 0.95145 0.81007 0.0
H494 H 0.26179 0.8163 0.78727 0.0
H495 H 0.4295 -0.00034 0.80846 0.0
O496 O 0.39951 0.78977 0.91135 0.0
H497 H 0.59854 0.85028 0.908 0.0
H498 H 0.51028 0.76433 0.99534 0.0
H499 H 0.57714 0.74043 0.97539 0.0
H500 H 0.62182 0.7836 0.93152 0.0
H501 H 0.53128 0.87284 0.92833 0.0
H502 H 0.53876 0.83647 0.12038 0.0
H503 H 0.48763 0.79721 0.16001 0.0
O504 O 0.44286 0.78427 0.96708 0.0
C505 C 0.37897 0.8685 0.9735 0.0
C506 C 0.44914 0.79255 0.10422 0.0
C507 C 0.51202 0.82688 0.10383 0.0
N508 N 0.47234 0.82434 0.03885 0.0
C509 C 0.44412 0.80265 0.06039 0.0
C510 C 0.50598 0.83642 0.05999 0.0
C511 C 0.48334 0.80482 0.12603 0.0
C512 C 0.45056 0.90567 0.84123 0.0
N513 N 0.41437 0.89526 0.85794 0.0
C514 C 0.45658 0.94332 0.82317 0.0
C515 C 0.42525 0.97037 0.82231 0.0
C516 C 0.38842 0.95951 0.8394 0.0
C517 C 0.3835 0.92161 0.85722 0.0
C518 C 0.32309 0.83438 0.78368 0.0
C519 C 0.32542 0.82198 0.8729 0.0
C520 C 0.35789 0.84095 0.80748 0.0
N521 N 0.35871 0.83483 0.85156 0.0
C522 C 0.29006 0.81532 0.85021 0.0
C523 C 0.28897 0.82149 0.80528 0.0
C524 C 0.4161 0.77032 0.9421 0.0
C525 C 0.57939 0.83125 0.92722 0.0
C526 C 0.5295 0.78321 0.97609 0.0
C527 C 0.56736 0.76956 0.96499 0.0
C528 C 0.59241 0.79381 0.94039 0.0
N529 N 0.51701 0.82003 0.96319 0.0
C530 C 0.54134 0.84392 0.93895 0.0
Co531 Co 0.66868 0.40268 0.88573 0.0
Co532 Co 0.66213 0.46152 0.9774 0.0
O533 O 0.65409 0.45185 0.91533 0.0
C534 C 0.7111 0.46211 0.83146 0.0
O535 O 0.72825 0.4754 0.86705 0.0
C536 C 0.5766 0.4748 0.96783 0.0
O537 O 0.57624 0.44174 0.9451 0.0
O538 O 0.63573 0.41045 0.99295 0.0
O539 O 0.65193 0.36999 0.93723 0.0
H540 H 0.69669 0.42564 0.13215 0.0
H541 H 0.61558 0.46015 0.84116 0.0
O542 O 0.68593 0.43394 0.83356 0.0
H543 H 0.53763 0.3365 0.85388 0.0
H544 H 0.67512 0.3123 0.75501 0.0
H545 H 0.71269 0.32931 0.9092 0.0
H546 H 0.60637 0.33971 0.8815 0.0
H547 H 0.65726 0.37343 0.79478 0.0
O548 O 0.60955 0.48898 0.98107 0.0
H549 H 0.68704 0.41309 0.05372 0.0
H550 H 0.65165 0.53264 0.03409 0.0
H551 H 0.72935 0.2669 0.87145 0.0
H552 H 0.5471 0.45809 0.81258 0.0
H553 H 0.71112 0.25825 0.79351 0.0
H554 H 0.50759 0.39597 0.81901 0.0
O555 O 0.72367 0.40474 0.91023 0.0
H556 H 0.67474 0.59174 0.89843 0.0
H557 H 0.73923 0.49947 1.00139 0.0
H558 H 0.77355 0.56145 0.98047 0.0
H559 H 0.7412 0.60813 0.92874 0.0
H560 H 0.64168 0.5292 0.91988 0.0
H561 H 0.66013 0.54654 0.11247 0.0
H562 H 0.68311 0.49287 0.16208 0.0
O563 O 0.71403 0.43306 0.97599 0.0
C564 C 0.63795 0.37619 0.97537 0.0
C565 C 0.68697 0.44938 0.11084 0.0
C566 C 0.66639 0.51719 0.09981 0.0
N567 N 0.66961 0.47219 0.03912 0.0
C568 C 0.68176 0.44245 0.0663 0.0
C569 C 0.66159 0.50912 0.05544 0.0
C570 C 0.67927 0.48707 0.12762 0.0
C571 C 0.59872 0.43289 0.84366 0.0
N572 N 0.61503 0.40004 0.86275 0.0
C573 C 0.55989 0.43196 0.8276 0.0
C574 C 0.53772 0.39711 0.83127 0.0
C575 C 0.55455 0.36374 0.85087 0.0
C576 C 0.59345 0.36577 0.86657 0.0
C577 C 0.68313 0.31559 0.789 0.0
C578 C 0.70364 0.3253 0.87577 0.0
C579 C 0.67316 0.35017 0.81171 0.0
N580 N 0.683 0.35446 0.85474 0.0
C581 C 0.71368 0.29013 0.8543 0.0
C582 C 0.70335 0.2853 0.8106 0.0
C583 C 0.73523 0.41401 0.94855 0.0
C584 C 0.68908 0.5717 0.9211 0.0
C585 C 0.72506 0.51956 0.9787 0.0
C586 C 0.74458 0.55466 0.96708 0.0
C587 C 0.7264 0.58085 0.93807 0.0
N588 N 0.6884 0.51089 0.96204 0.0
C589 C 0.67044 0.53634 0.93349 0.0
Co590 Co 0.08982 0.67137 0.88971 0.0
Co591 Co 0.03206 0.6589 0.98176 0.0
O592 O 0.04246 0.65133 0.91945 0.0
C593 C 0.02855 0.70903 0.83317 0.0
O594 O 0.01178 0.72435 0.86798 0.0
C595 C 0.03022 0.57214 0.97236 0.0
O596 O 0.0633 0.57627 0.95013 0.0
O597 O 0.08628 0.64012 0.99792 0.0
O598 O 0.12383 0.65806 0.94078 0.0
H599 H 0.06253 0.70605 0.13362 0.0
H600 H 0.03868 0.612 0.84558 0.0
O601 O 0.05766 0.68518 0.83718 0.0
H602 H 0.17001 0.54822 0.85907 0.0
H603 H 0.17981 0.68993 0.75973 0.0
H604 H 0.15628 0.72515 0.9136 0.0
H605 H 0.15953 0.61671 0.88518 0.0
H606 H 0.12233 0.6623 0.79953 0.0
O607 O 0.01221 0.60286 0.98644 0.0
H608 H 0.07542 0.69666 0.0551 0.0
H609 H 0.96551 0.6359 0.04084 0.0
H610 H 0.21432 0.75295 0.87537 0.0
H611 H 0.04796 0.54353 0.81864 0.0
H612 H 0.22639 0.73559 0.79769 0.0
H613 H 0.11395 0.51114 0.82555 0.0
O614 O 0.08139 0.72563 0.91396 0.0
H615 H 0.90123 0.65189 0.90331 0.0
H616 H 0.98319 0.72943 0.00593 0.0
H617 H 0.91678 0.75409 0.98533 0.0
H618 H 0.87528 0.71515 0.93374 0.0
H619 H 0.968 0.62851 0.92452 0.0
H620 H 0.9516 0.64428 0.11932 0.0
H621 H 0.00024 0.67972 0.16622 0.0
O622 O 0.05237 0.71454 0.97875 0.0
C623 C 0.11989 0.64461 0.97942 0.0
C624 C 0.04104 0.69067 0.1135 0.0
C625 C 0.9788 0.65596 0.10548 0.0
N626 N 0.02108 0.66609 0.04336 0.0
C627 C 0.04812 0.68537 0.06899 0.0
C628 C 0.98687 0.65124 0.06109 0.0
C629 C 0.0061 0.67586 0.13177 0.0
C630 C 0.0676 0.59824 0.84819 0.0
N631 N 0.09854 0.61837 0.86675 0.0
C632 C 0.07263 0.55942 0.83307 0.0
C633 C 0.10966 0.54124 0.83702 0.0
C634 C 0.14111 0.56202 0.85586 0.0
C635 C 0.13497 0.60077 0.87067 0.0
C636 C 0.17504 0.69757 0.79362 0.0
C637 C 0.16161 0.71688 0.88007 0.0
C638 C 0.14256 0.68197 0.81636 0.0
N639 N 0.13635 0.69144 0.8592 0.0
C640 C 0.19444 0.73296 0.85845 0.0
C641 C 0.20115 0.7232 0.81491 0.0
C642 C 0.06931 0.73742 0.9512 0.0
C643 C 0.919 0.66906 0.9259 0.0
C644 C 0.96536 0.7124 0.98334 0.0
C645 C 0.92774 0.72646 0.97188 0.0
C646 C 0.90447 0.70459 0.94295 0.0
N647 N 0.97933 0.67748 0.96657 0.0
C648 C 0.95674 0.65591 0.93813 0.0
Co649 Co 0.82507 0.08992 0.89027 0.0
Co650 Co 0.82813 0.02591 0.9784 0.0
O651 O 0.8375 0.03833 0.91661 0.0
C652 C 0.78474 0.02947 0.8316 0.0
O653 O 0.79626 0.99899 0.85508 0.0
C654 C 0.91552 0.02277 0.97098 0.0
O655 O 0.91312 0.05178 0.94251 0.0
O656 O 0.84591 0.08005 0.99829 0.0
O657 O 0.85461 0.11641 0.93766 0.0
H658 H 0.77343 0.05181 0.12817 0.0
H659 H 0.86543 0.02616 0.83858 0.0
O660 O 0.79427 0.06494 0.84159 0.0
H661 H 0.95498 0.14187 0.832 0.0
H662 H 0.80841 0.18761 0.76685 0.0
H663 H 0.80224 0.16839 0.92618 0.0
H664 H 0.89175 0.14568 0.87229 0.0
H665 H 0.82258 0.12201 0.79928 0.0
O666 O 0.88402 0.00705 0.98624 0.0
H667 H 0.78669 0.06687 0.05082 0.0
H668 H 0.84758 0.9572 0.03628 0.0
H669 H 0.78965 0.23475 0.89533 0.0
H670 H 0.92795 0.02125 0.7975 0.0
H671 H 0.79222 0.24467 0.81499 0.0
H672 H 0.97339 0.07936 0.79403 0.0
O673 O 0.77416 0.09449 0.92385 0.0
H674 H 0.84331 0.89765 0.89643 0.0
H675 H 0.75825 0.97361 0.99716 0.0
H676 H 0.73696 0.90703 0.97315 0.0
H677 H 0.77975 0.86847 0.92252 0.0
H678 H 0.86303 0.96469 0.92078 0.0
H679 H 0.83546 0.94114 0.11368 0.0
H680 H 0.79798 0.98857 0.16014 0.0
O681 O 0.77275 0.04489 0.97264 0.0
C682 C 0.85805 0.11117 0.97854 0.0
C683 C 0.78981 0.0309 0.10829 0.0
C684 C 0.82463 0.9688 0.10015 0.0
N685 N 0.81796 0.01298 0.03908 0.0
C686 C 0.79738 0.03924 0.06445 0.0
C687 C 0.83156 0.97813 0.05641 0.0
C688 C 0.80359 0.99542 0.1262 0.0
C689 C 0.88447 0.05183 0.83671 0.0
N690 N 0.87431 0.08641 0.85719 0.0
C691 C 0.92012 0.04876 0.81362 0.0
C692 C 0.94565 0.08134 0.81176 0.0
C693 C 0.93533 0.1164 0.83305 0.0
C694 C 0.89944 0.11836 0.85583 0.0
C695 C 0.8071 0.18366 0.80186 0.0
C696 C 0.80395 0.17251 0.89127 0.0
C697 C 0.81485 0.14653 0.82041 0.0
N698 N 0.81346 0.1414 0.86463 0.0
C699 C 0.79648 0.21014 0.87392 0.0
C700 C 0.79801 0.21567 0.82889 0.0
C701 C 0.75645 0.07393 0.95301 0.0
C702 C 0.82439 0.91416 0.91848 0.0
C703 C 0.77668 0.95732 0.97468 0.0
C704 C 0.76465 0.91947 0.96142 0.0
C705 C 0.78871 0.89783 0.93308 0.0
N706 N 0.81167 0.97317 0.96018 0.0
C707 C 0.83546 0.95207 0.93249 0.0
Co708 Co 0.40692 0.66996 0.61735 0.0
Co709 Co 0.47056 0.66625 0.52865 0.0
O710 O 0.45749 0.65642 0.58994 0.0
C711 C 0.46425 0.71761 0.66935 0.0
O712 O 0.47932 0.73175 0.63303 0.0
C713 C 0.47242 0.57952 0.53688 0.0
O714 O 0.44123 0.5835 0.56209 0.0
O715 O 0.41683 0.64876 0.50815 0.0
O716 O 0.37744 0.64678 0.56744 0.0
H717 H 0.44822 0.72304 0.37905 0.0
H718 H 0.46736 0.62351 0.66588 0.0
O719 O 0.43564 0.6929 0.66846 0.0
H720 H 0.34813 0.53829 0.66148 0.0
H721 H 0.31285 0.68384 0.74436 0.0
H722 H 0.33005 0.7022 0.58587 0.0
H723 H 0.34724 0.60514 0.62849 0.0
H724 H 0.3763 0.66669 0.70875 0.0
O725 O 0.48968 0.6103 0.52181 0.0
H726 H 0.4315 0.7092 0.45588 0.0
H727 H 0.53876 0.64425 0.47132 0.0
H728 H 0.26573 0.7185 0.61995 0.0
H729 H 0.46941 0.55703 0.69978 0.0
H730 H 0.2569 0.70969 0.69984 0.0
H731 H 0.40956 0.51382 0.69743 0.0
O732 O 0.40593 0.72328 0.58828 0.0
H733 H 0.59647 0.65349 0.61544 0.0
H734 H 0.52362 0.73511 0.50869 0.0
H735 H 0.58944 0.75727 0.53429 0.0
H736 H 0.62641 0.71622 0.58801 0.0
H737 H 0.53029 0.63282 0.58927 0.0
H738 H 0.55635 0.65684 0.39441 0.0
H739 H 0.51104 0.69672 0.34781 0.0
O740 O 0.45092 0.7216 0.53402 0.0
C741 C 0.38381 0.64155 0.52694 0.0
C742 C 0.46827 0.70571 0.39905 0.0
C743 C 0.52893 0.66852 0.40766 0.0
N744 N 0.48429 0.67624 0.46816 0.0
C745 C 0.45903 0.69789 0.44263 0.0
C746 C 0.51875 0.66136 0.45114 0.0
C747 C 0.5035 0.69091 0.38154 0.0
C748 C 0.44106 0.60505 0.6652 0.0
N749 N 0.40719 0.61824 0.64536 0.0
C750 C 0.44245 0.56738 0.68427 0.0
C751 C 0.40887 0.54314 0.68292 0.0
C752 C 0.37439 0.55684 0.66276 0.0
C753 C 0.37408 0.5947 0.64408 0.0
C754 C 0.31634 0.68788 0.70954 0.0
C755 C 0.32633 0.69786 0.62057 0.0
C756 C 0.35226 0.67838 0.6892 0.0
N757 N 0.35683 0.68326 0.6452 0.0
C758 C 0.2899 0.7074 0.63974 0.0
C759 C 0.28496 0.70239 0.68455 0.0
C760 C 0.42469 0.73953 0.55666 0.0
C761 C 0.58064 0.67167 0.59208 0.0
C762 C 0.53925 0.71744 0.53244 0.0
C763 C 0.57665 0.72996 0.54663 0.0
C764 C 0.5974 0.70689 0.57672 0.0
N765 N 0.52295 0.68295 0.54772 0.0
C766 C 0.54318 0.6601 0.57711 0.0
Co767 Co 0.83178 0.41108 0.61276 0.0
Co768 Co 0.83814 0.46953 0.51986 0.0
O769 O 0.84598 0.46024 0.58241 0.0
C770 C 0.78016 0.46781 0.66121 0.0
O771 O 0.76462 0.47967 0.62419 0.0
C772 C 0.92464 0.47398 0.53073 0.0
O773 O 0.92063 0.44307 0.55643 0.0
O774 O 0.85791 0.41548 0.50397 0.0
O775 O 0.85573 0.37883 0.56525 0.0
H776 H 0.78899 0.43701 0.36927 0.0
H777 H 0.87769 0.47407 0.65775 0.0
O778 O 0.80799 0.44226 0.66176 0.0
H779 H 0.96213 0.35449 0.66399 0.0
H780 H 0.81216 0.32441 0.74523 0.0
H781 H 0.79818 0.33348 0.58543 0.0
H782 H 0.89567 0.35179 0.63016 0.0
H783 H 0.8337 0.38469 0.70588 0.0
O784 O 0.89388 0.49016 0.51425 0.0
H785 H 0.7988 0.42555 0.44795 0.0
H786 H 0.86066 0.53512 0.45921 0.0
H787 H 0.77661 0.27253 0.62344 0.0
H788 H 0.94378 0.47805 0.69233 0.0
H789 H 0.7833 0.26783 0.70397 0.0
H790 H 0.98659 0.41802 0.69532 0.0
O791 O 0.77908 0.40869 0.58284 0.0
H792 H 0.84378 0.60185 0.59538 0.0
H793 H 0.76662 0.51677 0.4955 0.0
H794 H 0.74123 0.58327 0.51463 0.0
H795 H 0.77998 0.62634 0.56481 0.0
H796 H 0.86789 0.53497 0.57564 0.0
H797 H 0.85175 0.54769 0.38054 0.0
H798 H 0.81561 0.49845 0.33503 0.0
O799 O 0.7832 0.44831 0.52401 0.0
C800 C 0.86359 0.38323 0.52487 0.0
C801 C 0.80474 0.45872 0.38875 0.0
C802 C 0.84002 0.5208 0.39507 0.0
N803 N 0.83024 0.47963 0.45816 0.0
C804 C 0.81034 0.45242 0.43334 0.0
C805 C 0.84507 0.51347 0.43957 0.0
C806 C 0.81972 0.49318 0.36956 0.0
C807 C 0.89604 0.44775 0.65927 0.0
N808 N 0.88295 0.41277 0.64179 0.0
C809 C 0.93346 0.45021 0.67877 0.0
C810 C 0.95748 0.41652 0.68041 0.0
C811 C 0.9438 0.38088 0.66279 0.0
C812 C 0.90622 0.37955 0.64352 0.0
C813 C 0.80915 0.32609 0.71012 0.0
C814 C 0.8017 0.33146 0.6204 0.0
C815 C 0.82125 0.36017 0.68766 0.0
N816 N 0.81744 0.36254 0.64333 0.0
C817 C 0.78925 0.29694 0.64178 0.0
C818 C 0.79297 0.29434 0.68696 0.0
C819 C 0.76418 0.4244 0.54866 0.0
C820 C 0.82667 0.58339 0.5734 0.0
C821 C 0.78356 0.53528 0.5175 0.0
C822 C 0.76908 0.57294 0.52813 0.0
C823 C 0.79085 0.5971 0.55627 0.0
N824 N 0.81879 0.52213 0.53431 0.0
C825 C 0.84024 0.54557 0.56202 0.0
Co826 Co 0.0936 0.82859 0.61381 0.0
Co827 Co 0.03225 0.83312 0.52352 0.0
O828 O 0.04339 0.84258 0.58543 0.0
C829 C 0.02975 0.78838 0.66764 0.0
O830 O 0.0016 0.79792 0.64004 0.0
C831 C 0.03153 0.92061 0.53087 0.0
O832 O 0.06118 0.91708 0.55832 0.0
O833 O 0.08741 0.84875 0.50533 0.0
O834 O 0.12297 0.85642 0.56678 0.0
H835 H 0.05888 0.7753 0.37533 0.0
H836 H 0.0301 0.87004 0.66403 0.0
O837 O 0.06566 0.7992 0.6618 0.0
H838 H 0.14676 0.9585 0.67044 0.0
H839 H 0.18555 0.80944 0.74187 0.0
H840 H 0.1724 0.80175 0.58188 0.0
H841 H 0.15037 0.8945 0.63159 0.0
H842 H 0.12221 0.82665 0.70604 0.0
O843 O 0.01513 0.88964 0.51518 0.0
H844 H 0.07271 0.78862 0.4529 0.0
H845 H 0.96691 0.85674 0.463 0.0
H846 H 0.23663 0.7857 0.61623 0.0
H847 H 0.02535 0.93345 0.7037 0.0
H848 H 0.24344 0.78914 0.69685 0.0
H849 H 0.08393 0.9783 0.70699 0.0
O850 O 0.09735 0.77734 0.58119 0.0
H851 H 0.90214 0.85236 0.60106 0.0
H852 H 0.97864 0.76475 0.50348 0.0
H853 H 0.9108 0.74544 0.52532 0.0
H854 H 0.87199 0.78951 0.57438 0.0
H855 H 0.97038 0.8701 0.57892 0.0
H856 H 0.9521 0.84449 0.38536 0.0
H857 H 0.99818 0.80336 0.34103 0.0
O858 O 0.04952 0.77709 0.53028 0.0
C859 C 0.11879 0.85926 0.52563 0.0
C860 C 0.03852 0.79321 0.39431 0.0
C861 C 0.97862 0.83208 0.39994 0.0
N862 N 0.02054 0.82324 0.46252 0.0
C863 C 0.04616 0.80079 0.43829 0.0
C864 C 0.98722 0.83901 0.44385 0.0
C865 C 0.00448 0.80898 0.37509 0.0
C866 C 0.05591 0.88899 0.66582 0.0
N867 N 0.09062 0.87819 0.646 0.0
C868 C 0.05296 0.92505 0.68812 0.0
C869 C 0.08582 0.95024 0.68989 0.0
C870 C 0.12107 0.93915 0.66939 0.0
C871 C 0.12291 0.90286 0.64741 0.0
C872 C 0.18295 0.8078 0.70672 0.0
C873 C 0.17523 0.80381 0.61692 0.0
C874 C 0.14711 0.81733 0.68625 0.0
N875 N 0.14364 0.81542 0.64185 0.0
C876 C 0.21162 0.7944 0.63623 0.0
C877 C 0.21542 0.79638 0.68145 0.0
C878 C 0.07732 0.76006 0.55136 0.0
C879 C 0.91874 0.8329 0.57968 0.0
C880 C 0.96217 0.78377 0.52523 0.0
C881 C 0.92365 0.77284 0.53729 0.0
C882 C 0.90186 0.79761 0.56475 0.0
N883 N 0.97856 0.81836 0.54008 0.0
C884 C 0.95734 0.84287 0.56689 0.0
Co885 Co 0.66124 0.09728 0.60984 0.0
Co886 Co 0.66537 0.03505 0.51989 0.0
O887 O 0.65227 0.04621 0.58104 0.0
C888 C 0.70933 0.04117 0.66392 0.0
O889 O 0.72215 0.02371 0.62832 0.0
C890 C 0.57816 0.02795 0.52327 0.0
O891 O 0.57903 0.05921 0.54877 0.0
O892 O 0.64576 0.08813 0.49959 0.0
O893 O 0.63751 0.1255 0.55968 0.0
H894 H 0.72459 0.06462 0.3729 0.0
H895 H 0.61845 0.03294 0.65643 0.0
O896 O 0.68506 0.07007 0.66142 0.0
H897 H 0.52447 0.14518 0.65042 0.0
H898 H 0.66607 0.19018 0.73874 0.0
H899 H 0.68824 0.17699 0.58052 0.0
H900 H 0.59166 0.15144 0.61896 0.0
H901 H 0.65269 0.12666 0.7014 0.0
O902 O 0.61066 0.01278 0.50984 0.0
H903 H 0.70823 0.0783 0.44985 0.0
H904 H 0.65094 0.96626 0.46076 0.0
H905 H 0.70163 0.24115 0.6164 0.0
H906 H 0.55164 0.02548 0.68866 0.0
H907 H 0.69077 0.248 0.69618 0.0
H908 H 0.5041 0.08184 0.68563 0.0
O909 O 0.71494 0.1028 0.58262 0.0
H910 H 0.65652 0.9054 0.60068 0.0
H911 H 0.73984 0.98902 0.50516 0.0
H912 H 0.76523 0.92415 0.53019 0.0
H913 H 0.7234 0.88183 0.57823 0.0
H914 H 0.63247 0.97068 0.57521 0.0
H915 H 0.66628 0.95147 0.38376 0.0
H916 H 0.70347 0.00083 0.33932 0.0
O917 O 0.71934 0.05776 0.52836 0.0
C918 C 0.63508 0.11999 0.51875 0.0
C919 C 0.70837 0.04287 0.39191 0.0
C920 C 0.6756 0.97939 0.39799 0.0
N921 N 0.67857 0.02314 0.45972 0.0
C922 C 0.69907 0.05043 0.43552 0.0
C923 C 0.66685 0.98798 0.44151 0.0
C924 C 0.69649 0.00709 0.37309 0.0
C925 C 0.59803 0.05769 0.65534 0.0
N926 N 0.60898 0.09263 0.63604 0.0
C927 C 0.5602 0.05325 0.67349 0.0
C928 C 0.53353 0.08488 0.67174 0.0
C929 C 0.54492 0.12042 0.65197 0.0
C930 C 0.58298 0.12376 0.63415 0.0
C931 C 0.67104 0.18753 0.70399 0.0
C932 C 0.68332 0.17972 0.61516 0.0
C933 C 0.66369 0.15157 0.68268 0.0
N934 N 0.66996 0.14795 0.63879 0.0
C935 C 0.69097 0.21615 0.63534 0.0
C936 C 0.68486 0.21998 0.68009 0.0
C937 C 0.73384 0.08519 0.55212 0.0
C938 C 0.67498 0.92353 0.57967 0.0
C939 C 0.72153 0.97082 0.52618 0.0
C940 C 0.73602 0.93409 0.54017 0.0
C941 C 0.71253 0.91034 0.5671 0.0
N942 N 0.68463 0.98349 0.53857 0.0
C943 C 0.66145 0.96044 0.56503 0.0
C944 C 0.57389 0.30894 0.04582 0.0
C945 C 0.59548 0.27325 0.0454 0.0
C946 C 0.58855 0.3429 0.02443 0.0
C947 C 0.62433 0.34144 1.00065 0.0
H948 H 0.54529 0.31034 0.06199 0.0
H949 H 0.57104 0.3699 0.02496 0.0
S950 S 0.69133 0.25442 0.98983 0.0
N951 N 0.6543 0.2384 0.02049 0.0
N952 N 0.68106 0.30135 0.97894 0.0
C953 C 0.6461 0.30582 1.00049 0.0
C954 C 0.63183 0.27188 0.02322 0.0
C955 C 0.15482 0.60536 0.03819 0.0
C956 C 0.15652 0.63214 0.00271 0.0
C957 C 0.18979 0.59051 0.0575 0.0
C958 C 0.2272 0.6021 0.04175 0.0
H959 H 0.12643 0.5948 0.05018 0.0
H960 H 0.18757 0.56906 0.08375 0.0
S961 S 0.24844 0.67444 0.95369 0.0
N962 N 0.19957 0.67185 0.95586 0.0
N963 N 0.26431 0.64376 0.9918 0.0
C964 C 0.22929 0.62996 0.00795 0.0
C965 C 0.19418 0.64506 0.98849 0.0
C966 C 0.90867 0.16449 0.9814 0.0
C967 C 0.87883 0.14283 0.00292 0.0
C968 C 0.92507 0.19863 0.99978 0.0
C969 C 0.9122 0.213 0.04055 0.0
H970 H 0.91866 0.15573 0.94921 0.0
H971 H 0.94676 0.21479 0.98061 0.0
S972 S 0.83892 0.16338 0.11333 0.0
N973 N 0.84006 0.13518 0.06926 0.0
N974 N 0.87117 0.19955 0.10451 0.0
C975 C 0.88462 0.18973 0.06416 0.0
C976 C 0.86786 0.15462 0.04519 0.0
C977 C 0.32144 0.91425 0.97689 0.0
C978 C 0.34459 0.88503 0.99738 0.0
C979 C 0.2859 0.92737 0.99519 0.0
C980 C 0.2714 0.91155 0.03471 0.0
H981 H 0.33045 0.92667 0.94582 0.0
H982 H 0.26912 0.94931 0.97708 0.0
S983 S 0.32306 0.83691 0.10373 0.0
N984 N 0.35258 0.84281 0.06115 0.0
N985 N 0.28502 0.86701 0.09563 0.0
C986 C 0.2953 0.88363 0.05682 0.0
C987 C 0.33206 0.87054 0.03819 0.0
C988 C 0.56868 0.20598 0.49237 0.0
C989 C 0.58833 0.22489 0.45741 0.0
C990 C 0.58289 0.17063 0.51011 0.0
C991 C 0.61699 0.15227 0.49338 0.0
H992 H 0.54307 0.21942 0.5078 0.0
H993 H 0.56785 0.15832 0.53833 0.0
S994 S 0.6769 0.18594 0.39894 0.0
N995 N 0.64186 0.22 0.40399 0.0
N996 N 0.66833 0.15293 0.43774 0.0
C997 C 0.63537 0.16877 0.45649 0.0
C998 C 0.62106 0.20524 0.43837 0.0
C999 C 0.33238 0.64241 0.46807 0.0
C1000 C 0.35192 0.62235 0.50199 0.0
C1001 C 0.2975 0.62669 0.44958 0.0
C1002 C 0.28126 0.59039 0.46443 0.0
H1003 H 0.3429 0.67127 0.45743 0.0
H1004 H 0.28222 0.64409 0.42505 0.0
S1005 S 0.32602 0.52405 0.54823 0.0
N1006 N 0.35576 0.56298 0.54645 0.0
N1007 N 0.29107 0.53297 0.51183 0.0
C1008 C 0.30261 0.56899 0.49633 0.0
C1009 C 0.3377 0.58514 0.51513 0.0
C1010 C 0.90828 0.32472 0.52562 0.0
C1011 C 0.88219 0.34927 0.50224 0.0
C1012 C 0.9237 0.29012 0.50725 0.0
C1013 C 0.91337 0.27813 0.46469 0.0
H1014 H 0.91652 0.33194 0.55879 0.0
H1015 H 0.94283 0.27199 0.5275 0.0
S1016 S 0.84891 0.33445 0.3881 0.0
N1017 N 0.84895 0.36132 0.43316 0.0
N1018 N 0.87775 0.29585 0.39823 0.0
C1019 C 0.88893 0.30365 0.43994 0.0
C1020 C 0.8734 0.3393 0.45879 0.0
C1021 C 0.17334 0.90856 0.52026 0.0
C1022 C 0.15199 0.87727 0.50111 0.0
C1023 C 0.20785 0.92349 0.50098 0.0
C1024 C 0.22304 0.90732 0.46196 0.0
H1025 H 0.16373 0.92114 0.55104 0.0
H1026 H 0.22349 0.94693 0.51804 0.0
S1027 S 0.17583 0.82694 0.39682 0.0
N1028 N 0.14631 0.83233 0.43947 0.0
N1029 N 0.21175 0.85994 0.40305 0.0
C1030 C 0.2007 0.87725 0.4412 0.0
C1031 C 0.16506 0.86234 0.46081 0.0
C1032 C 0.41789 0.69671 0.95157 0.0
C1033 C 0.39791 0.73305 0.95624 0.0
C1034 C 0.40387 0.66239 0.97275 0.0
C1035 C 0.37055 0.66407 1.00052 0.0
H1036 H 0.44498 0.69511 0.93254 0.0
H1037 H 0.42028 0.6349 0.96908 0.0
S1038 S 0.30808 0.75274 0.02239 0.0
N1039 N 0.34273 0.76874 0.98854 0.0
N1040 N 0.31764 0.70518 0.03021 0.0
C1041 C 0.35025 0.70036 0.0047 0.0
C1042 C 0.36366 0.73469 0.98205 0.0
C1043 C 0.80913 0.40239 0.94717 0.0
C1044 C 0.77161 0.3956 0.96578 0.0
C1045 C 0.84366 0.38698 0.96686 0.0
C1046 C 0.84157 0.36431 0.00564 0.0
H1047 H 0.81186 0.42056 0.91815 0.0
H1048 H 0.87218 0.39368 0.95218 0.0
S1049 S 0.74891 0.33405 0.06294 0.0
N1050 N 0.73375 0.36165 0.02178 0.0
N1051 N 0.79775 0.33332 0.05903 0.0
C1052 C 0.80372 0.35616 0.02308 0.0
C1053 C 0.76898 0.37162 0.00304 0.0
C1054 C 0.07059 0.78935 0.00922 0.0
C1055 C 0.07951 0.77829 0.966 0.0
C1056 C 0.08603 0.82402 0.02754 0.0
C1057 C 0.11073 0.84959 0.00349 0.0
H1058 H 0.05282 0.77031 0.03002 0.0
H1059 H 0.07908 0.83036 0.06127 0.0
S1060 S 0.1388 0.83794 0.88719 0.0
N1061 N 0.11135 0.79843 0.898 0.0
N1062 N 0.14035 0.86384 0.93288 0.0
C1063 C 0.11765 0.8407 0.95934 0.0
C1064 C 0.10205 0.80504 0.94051 0.0
C1065 C 0.66498 0.13819 0.9724 0.0
C1066 C 0.64596 0.11811 0.0067 0.0
C1067 C 0.69978 0.12278 0.95355 0.0
C1068 C 0.71634 0.08658 0.96815 0.0
H1069 H 0.65407 0.16685 0.96164 0.0
H1070 H 0.71459 0.14022 0.92867 0.0
S1071 S 0.67269 0.02 0.05268 0.0
N1072 N 0.64278 0.05875 0.05127 0.0
N1073 N 0.70727 0.0291 0.01585 0.0
C1074 C 0.69545 0.06507 1.00045 0.0
C1075 C 0.6605 0.08104 0.01975 0.0
C1076 C 0.37618 0.79626 0.55608 0.0
C1077 C 0.41273 0.77997 0.54224 0.0
C1078 C 0.36065 0.83063 0.53647 0.0
C1079 C 0.38113 0.84955 0.50243 0.0
H1080 H 0.35839 0.78131 0.58055 0.0
H1081 H 0.3316 0.84121 0.54636 0.0
S1082 S 0.4803 0.82365 0.45883 0.0
N1083 N 0.471 0.78932 0.49591 0.0
N1084 N 0.44115 0.8531 0.45902 0.0
C1085 C 0.4186 0.83545 0.49033 0.0
C1086 C 0.43463 0.80087 0.51034 0.0
C1087 C 0.70937 0.42623 0.494 0.0
C1088 C 0.72365 0.41248 0.53448 0.0
C1089 C 0.67421 0.41157 0.47611 0.0
C1090 C 0.65139 0.38287 0.49798 0.0
H1091 H 0.72606 0.44758 0.47491 0.0
H1092 H 0.66519 0.42244 0.44439 0.0
S1093 S 0.67251 0.34002 0.60697 0.0
N1094 N 0.71 0.37062 0.59774 0.0
N1095 N 0.64345 0.34331 0.56373 0.0
C1096 C 0.66368 0.3705 0.53961 0.0
C1097 C 0.69992 0.38522 0.55792 0.0
C1098 C 0.14034 0.6672 0.53603 0.0
C1099 C 0.12119 0.64822 0.50117 0.0
C1100 C 0.12481 0.70239 0.55381 0.0
C1101 C 0.08953 0.71951 0.53738 0.0
H1102 H 0.16849 0.65603 0.548 0.0
H1103 H 0.14161 0.71711 0.57924 0.0
S1104 S 0.02541 0.67638 0.45054 0.0
N1105 N 0.06347 0.64572 0.45406 0.0
N1106 N 0.03373 0.71114 0.48735 0.0
C1107 C 0.06883 0.69873 0.50448 0.0
C1108 C 0.08486 0.66329 0.48636 0.0
C1109 C 0.80649 0.07757 0.53779 0.0
C1110 C 0.77231 0.10151 0.53849 0.0
C1111 C 0.84202 0.09158 0.51918 0.0
C1112 C 0.84376 0.12936 0.49957 0.0
H1113 H 0.80548 0.04767 0.55089 0.0
H1114 H 0.8677 0.07219 0.51843 0.0
S1115 S 0.76218 0.20308 0.49317 0.0
N1116 N 0.74239 0.16456 0.51854 0.0
N1117 N 0.80883 0.19075 0.48337 0.0
C1118 C 0.8099 0.15364 0.5008 0.0
C1119 C 0.77416 0.1397 0.52031 0.0
C1120 C 0.46837 -0.00034 0.9758 0.0
C1121 C 0.48511 0.96428 0.99202 0.0
C1122 C 0.48057 0.03687 0.99121 0.0
C1123 C 0.51004 0.0403 0.02349 0.0
H1124 H 0.44555 0.99879 0.95091 0.0
H1125 H 0.46689 0.06314 0.97735 0.0
S1126 S 0.56322 0.9568 0.0773 0.0
N1127 N 0.53274 0.93513 0.04251 0.0
N1128 N 0.55552 0.00492 0.07162 0.0
C1129 C 0.52699 0.00516 0.04022 0.0
C1130 C 0.51461 0.96723 0.02443 0.0
C1131 C 0.466 0.48903 0.98624 0.0
C1132 C 0.46428 0.52138 0.01528 0.0
C1133 C 0.50234 0.47495 0.97027 0.0
C1134 C 0.53856 0.49257 0.98264 0.0
H1135 H 0.43905 0.47439 0.9755 0.0
H1136 H 0.5019 0.44974 0.94832 0.0
S1137 S 0.55053 0.57843 0.0578 0.0
N1138 N 0.50213 0.57081 0.05574 0.0
N1139 N 0.57032 0.54461 0.02551 0.0
C1140 C 0.53729 0.52521 0.01141 0.0
C1141 C 0.50023 0.53948 0.02781 0.0
C1142 C 0.98409 0.52791 0.01434 0.0
C1143 C 0.01545 0.53194 0.98423 0.0
C1144 C 0.97057 0.49043 0.02771 0.0
C1145 C 0.98775 0.45527 0.01153 0.0
H1146 H 0.96995 0.55393 0.02816 0.0
H1147 H 0.94636 0.48916 0.05097 0.0
S1148 S 0.07026 0.4493 0.93109 0.0
N1149 N 0.06296 0.49736 0.93797 0.0
N1150 N 0.03773 0.42703 0.96315 0.0
C1151 C 0.01909 0.45882 0.98122 0.0
C1152 C 0.03284 0.49706 0.96755 0.0
C1153 C 0.0273 0.01237 0.9822 0.0
C1154 C 0.03157 0.98829 0.01947 0.0
C1155 C 0.9897 0.02309 0.96662 0.0
C1156 C 0.95486 0.01016 0.98768 0.0
H1157 H 0.05318 0.0225 0.96431 0.0
H1158 H 0.98802 0.04141 0.93761 0.0
S1159 S 0.9499 0.94905 0.08866 0.0
N1160 N 0.99782 0.9535 0.0784 0.0
N1161 N 0.92724 0.97362 0.04931 0.0
C1162 C 0.95874 0.9867 0.02554 0.0
C1163 C 0.99705 0.97581 0.04141 0.0
C1164 C 0.51728 0.53584 0.49315 0.0
C1165 C 0.48566 0.53953 0.52293 0.0
C1166 C 0.5294 0.49864 0.47777 0.0
C1167 C 0.51045 0.4635 0.49152 0.0
H1168 H 0.53281 0.5619 0.48128 0.0
H1169 H 0.55401 0.49756 0.45502 0.0
S1170 S 0.42584 0.45675 0.56921 0.0
N1171 N 0.43558 0.50469 0.56578 0.0
N1172 N 0.4581 0.43486 0.5366 0.0
C1173 C 0.47867 0.46671 0.52126 0.0
C1174 C 0.46639 0.50466 0.53706 0.0
C1175 C 0.00681 0.52683 0.46839 0.0
C1176 C 0.04175 0.51149 0.48719 0.0
C1177 C 0.96917 0.51514 0.48322 0.0
C1178 C 0.96483 0.48763 0.51754 0.0
H1179 H 0.00842 0.54802 0.44182 0.0
H1180 H 0.94329 0.52748 0.46719 0.0
S1181 S 0.0468 0.44004 0.57959 0.0
N1182 N 0.0694 0.46817 0.54313 0.0
N1183 N 0.99884 0.44639 0.57101 0.0
C1184 C -0.00052 0.47244 0.53709 0.0
C1185 C 0.03784 0.48427 0.5219 0.0
C1186 C 0.98353 0.96385 0.49053 0.0
C1187 C 0.01794 0.96042 0.51637 0.0
C1188 C 0.97018 0.00087 0.4757 0.0
C1189 C 0.99068 0.0361 0.48598 0.0
H1190 H 0.96645 0.93773 0.48181 0.0
H1191 H 0.9432 0.00177 0.45645 0.0
S1192 S 0.08375 0.04334 0.55081 0.0
N1193 N 0.07309 0.99548 0.55045 0.0
N1194 N 0.04822 0.06496 0.52235 0.0
C1195 C 0.02559 0.03307 0.51117 0.0
C1196 C 0.03911 0.99532 0.52646 0.0
C1197 C 0.50386 0.03041 0.52236 0.0
C1198 C 0.53925 0.01222 0.50813 0.0
C1199 C 0.46664 0.01743 0.50769 0.0
C1200 C 0.46311 0.98564 0.47815 0.0
H1201 H 0.50474 0.05505 0.54506 0.0
H1202 H 0.44043 0.03235 0.52 0.0
S1203 S 0.54655 0.92782 0.43042 0.0
N1204 N 0.56828 0.96064 0.46251 0.0
N1205 N 0.49845 0.93635 0.43481 0.0
C1206 C 0.49824 0.96718 0.46346 0.0
C1207 C 0.53622 0.98039 0.4785 0.0
C1208 C 0.51643 0.29247 0.25832 0.0
C1209 C 0.51857 0.26968 0.29677 0.0
C1210 C 0.51721 0.27435 0.21716 0.0
C1211 C 0.52127 0.23297 0.2133 0.0
H1212 H 0.51648 0.32463 0.26008 0.0
H1213 H 0.51796 0.29306 0.1884 0.0
S1214 S 0.52385 0.15988 0.30385 0.0
N1215 N 0.5209 0.20348 0.32835 0.0
N1216 N 0.5235 0.16944 0.25102 0.0
C1217 C 0.52064 0.20973 0.25144 0.0
C1218 C 0.51896 0.22811 0.29326 0.0
C1219 C 0.21995 0.52115 0.26017 0.0
C1220 C 0.24306 0.52589 0.29801 0.0
C1221 C 0.23749 0.52124 0.21871 0.0
C1222 C 0.27859 0.52731 0.21378 0.0
H1223 H 0.18785 0.51946 0.26256 0.0
H1224 H 0.21833 0.51985 0.19036 0.0
S1225 S 0.35245 0.53759 0.30278 0.0
N1226 N 0.30938 0.53313 0.32822 0.0
N1227 N 0.34233 0.5347 0.25017 0.0
C1228 C 0.30228 0.52957 0.25147 0.0
C1229 C 0.2845 0.5285 0.2937 0.0
C1230 C 0.98821 0.28538 0.2438 0.0
C1231 C 0.98539 0.2611 0.20659 0.0
C1232 C 0.98807 0.26894 0.28586 0.0
C1233 C 0.984 0.22774 0.29201 0.0
H1234 H 0.98816 0.31745 0.24044 0.0
H1235 H 0.98774 0.28888 0.31359 0.0
S1236 S 0.97958 0.15107 0.20535 0.0
N1237 N 0.98232 0.1936 0.17858 0.0
N1238 N 0.98087 0.16278 0.25763 0.0
C1239 C 0.98393 0.203 0.25508 0.0
C1240 C 0.98495 0.21967 0.2123 0.0
C1241 C 0.29219 0.9691 0.25334 0.0
C1242 C 0.26828 0.97067 0.291 0.0
C1243 C 0.27541 0.97141 0.21156 0.0
C1244 C 0.23407 0.97438 0.20616 0.0
H1245 H 0.3239 0.96413 0.25617 0.0
H1246 H 0.2946 0.96767 0.18348 0.0
S1247 S 0.15892 0.98333 0.2941 0.0
N1248 N 0.20165 0.97907 0.32017 0.0
N1249 N 0.16996 0.98223 0.24163 0.0
C1250 C 0.21014 0.97848 0.2435 0.0
C1251 C 0.2273 0.97697 0.286 0.0
C1252 C 0.47813 0.79493 0.75669 0.0
C1253 C 0.4751 0.77229 0.79516 0.0
C1254 C 0.47854 0.77664 0.71561 0.0
C1255 C 0.47478 0.73522 0.71179 0.0
H1256 H 0.47809 0.82711 0.75829 0.0
H1257 H 0.47856 0.79525 0.68675 0.0
S1258 S 0.46978 0.66249 0.80254 0.0
N1259 N 0.47203 0.70618 0.82694 0.0
N1260 N 0.47149 0.67184 0.74968 0.0
C1261 C 0.47428 0.71214 0.75003 0.0
C1262 C 0.47481 0.73069 0.79182 0.0
C1263 C 0.78408 0.48229 0.74064 0.0
C1264 C 0.76068 0.47694 0.70309 0.0
C1265 C 0.76712 0.4812 0.78241 0.0
C1266 C 0.72634 0.47356 0.788 0.0
H1267 H 0.81605 0.48524 0.73776 0.0
H1268 H 0.78659 0.48325 0.81045 0.0
S1269 S 0.65174 0.46093 0.7 0.0
N1270 N 0.69427 0.46716 0.67395 0.0
N1271 N 0.66245 0.46403 0.75245 0.0
C1272 C 0.70227 0.47064 0.75061 0.0
C1273 C 0.71944 0.47261 0.70809 0.0
C1274 C 0.04275 0.72936 0.71307 0.0
C1275 C 0.02099 0.7643 0.70643 0.0
C1276 C 0.04194 0.70975 0.75322 0.0
C1277 C 0.02027 0.72502 0.78887 0.0
H1278 H 0.06194 0.71801 0.68755 0.0
H1279 H 0.06047 0.68366 0.75688 0.0
S1280 S 0.95508 0.81402 0.78613 0.0
N1281 N 0.97423 0.81171 0.73656 0.0
N1282 N 0.97332 0.77557 0.81302 0.0
C1283 C 0.99619 0.75866 0.78159 0.0
C1284 C 0.99653 0.77824 0.74013 0.0
C1285 C 0.70936 0.04988 0.7446 0.0
C1286 C 0.72545 0.03087 0.70762 0.0
C1287 C 0.72745 0.04687 0.78543 0.0
C1288 C 0.76176 0.02395 0.79133 0.0
H1289 H 0.68355 0.0689 0.74184 0.0
H1290 H 0.71542 0.06401 0.8123 0.0
S1291 S 0.81368 0.96464 0.70712 0.0
N1292 N 0.77634 0.98559 0.68074 0.0
N1293 N 0.80984 0.97947 0.75832 0.0
C1294 C 0.77671 0.00239 0.75577 0.0
C1295 C 0.7586 0.00588 0.7137 0.0
loop_
_geom_bond_atom_site_label_1
_geom_bond_atom_site_label_2
_geom_bond_distance
_geom_bond_site_symmetry_2
_ccdc_geom_bond_type
Co0 O2 2.143 . S
Co0 O8 2.074 . S
Co0 O11 2.093 . S
Co0 O24 2.097 . S
Co0 N41 2.151 . S
Co0 N49 2.214 . S
Co1 O2 2.160 . S
Co1 O7 2.059 . S
Co1 O17 2.057 . S
Co1 O32 2.037 . S
Co1 N36 2.145 1_554 S
Co1 N57 2.257 . S
O2 Co0 2.143 . S
O2 Co1 2.160 . S
C3 O4 1.278 . S
C3 O11 1.224 . S
O4 C3 1.278 . S
C5 O6 1.245 . S
C5 O17 1.232 . S
O6 C5 1.245 . S
O7 Co1 2.059 . S
O7 C33 1.274 . S
O8 Co0 2.074 . S
O8 C33 1.257 . S
H9 C34 0.930 . S
H10 C40 0.930 . S
O11 Co0 2.093 . S
O11 C3 1.224 . S
H12 C44 0.929 . S
H13 C46 0.930 . S
H14 C47 0.930 . S
H15 C45 0.929 . S
H16 C48 0.928 . S
O17 Co1 2.057 . S
O17 C5 1.232 . S
H18 C37 0.929 . S
H19 C38 0.929 . S
H20 C50 0.931 . S
H21 C42 0.929 . S
H22 C51 0.930 . S
H23 C43 0.931 . S
O24 Co0 2.097 . S
O24 C52 1.214 . S
H25 C53 0.929 . S
H26 C54 0.929 . S
H27 C55 0.930 . S
H28 C56 0.929 . S
H29 C58 0.930 . S
H30 C35 0.930 . S
H31 C39 0.930 . S
O32 Co1 2.037 . S
O32 C52 1.235 . S
C33 O7 1.274 . S
C33 O8 1.257 . S
C34 H9 0.930 . S
C34 C37 1.388 . S
C34 C39 1.418 . S
C35 H30 0.930 . S
C35 C38 1.404 . S
C35 C39 1.353 . S
N36 Co1 2.145 1_556 S
N36 C37 1.397 . S
N36 C38 1.334 . S
C37 H18 0.929 . S
C37 C34 1.388 . S
C37 N36 1.397 . S
C38 H19 0.929 . S
C38 C35 1.404 . S
C38 N36 1.334 . S
C39 H31 0.930 . S
C39 C34 1.418 . S
C39 C35 1.353 . S
C40 H10 0.930 . S
C40 N41 1.330 . S
C40 C42 1.446 . S
N41 Co0 2.151 . S
N41 C40 1.330 . S
N41 C45 1.418 . S
C42 H21 0.929 . S
C42 C40 1.446 . S
C42 C43 1.332 . S
C43 H23 0.931 . S
C43 C42 1.332 . S
C43 C44 1.267 . S
C44 H12 0.929 . S
C44 C43 1.267 . S
C44 C45 1.251 . S
C45 H15 0.929 . S
C45 N41 1.418 . S
C45 C44 1.251 . S
C46 H13 0.930 . S
C46 C48 1.406 . S
C46 C51 1.261 . S
C47 H14 0.930 . S
C47 N49 1.325 . S
C47 C50 1.357 . S
C48 H16 0.928 . S
C48 C46 1.406 . S
C48 N49 1.261 . S
N49 Co0 2.214 . S
N49 C47 1.325 . S
N49 C48 1.261 . S
C50 H20 0.931 . S
C50 C47 1.357 . S
C50 C51 1.312 . S
C51 H22 0.930 . S
C51 C46 1.261 . S
C51 C50 1.312 . S
C52 O24 1.214 . S
C52 O32 1.235 . S
C53 H25 0.929 . S
C53 C56 1.391 . S
C53 C58 1.391 . S
C54 H26 0.929 . S
C54 C55 1.390 . S
C54 N57 1.391 1_556 S
C55 H27 0.930 . S
C55 C54 1.390 . S
C55 C56 1.391 1_556 S
C56 H28 0.929 . S
C56 C53 1.391 . S
C56 C55 1.391 1_554 S
N57 Co1 2.257 . S
N57 C54 1.391 1_554 S
N57 C58 1.388 . S
C58 H29 0.930 . S
C58 C53 1.391 . S
C58 N57 1.388 . S
Co59 O61 2.143 . S
Co59 O67 2.074 . S
Co59 O70 2.093 . S
Co59 O83 2.097 . S
Co59 N100 2.151 . S
Co59 N108 2.214 . S
Co60 O61 2.160 . S
Co60 O66 2.059 . S
Co60 O76 2.057 . S
Co60 O91 2.037 . S
Co60 N95 2.145 1_554 S
Co60 N116 2.257 . S
O61 Co59 2.143 . S
O61 Co60 2.160 . S
C62 O63 1.278 . S
C62 O70 1.224 . S
O63 C62 1.278 . S
C64 O65 1.245 . S
C64 O76 1.232 . S
O65 C64 1.245 . S
O66 Co60 2.059 . S
O66 C92 1.274 . S
O67 Co59 2.074 . S
O67 C92 1.257 . S
H68 C93 0.930 . S
H69 C99 0.930 . S
O70 Co59 2.093 . S
O70 C62 1.224 . S
H71 C103 0.929 . S
H72 C105 0.930 . S
H73 C106 0.930 . S
H74 C104 0.929 . S
H75 C107 0.928 . S
O76 Co60 2.057 . S
O76 C64 1.232 . S
H77 C96 0.929 . S
H78 C97 0.929 . S
H79 C109 0.931 . S
H80 C101 0.929 . S
H81 C110 0.930 . S
H82 C102 0.931 . S
O83 Co59 2.097 . S
O83 C111 1.214 . S
H84 C112 0.929 . S
H85 C113 0.929 . S
H86 C114 0.930 . S
H87 C115 0.929 . S
H88 C117 0.930 . S
H89 C94 0.930 . S
H90 C98 0.930 . S
O91 Co60 2.037 . S
O91 C111 1.235 . S
C92 O66 1.274 . S
C92 O67 1.257 . S
C93 H68 0.930 . S
C93 C96 1.388 . S
C93 C98 1.418 . S
C94 H89 0.930 . S
C94 C97 1.404 . S
C94 C98 1.353 . S
N95 Co60 2.145 1_556 S
N95 C96 1.397 . S
N95 C97 1.334 . S
C96 H77 0.929 . S
C96 C93 1.388 . S
C96 N95 1.397 . S
C97 H78 0.929 . S
C97 C94 1.404 . S
C97 N95 1.334 . S
C98 H90 0.930 . S
C98 C93 1.418 . S
C98 C94 1.353 . S
C99 H69 0.930 . S
C99 N100 1.330 . S
C99 C101 1.446 . S
N100 Co59 2.151 . S
N100 C99 1.330 . S
N100 C104 1.418 . S
C101 H80 0.929 . S
C101 C99 1.446 . S
C101 C102 1.332 . S
C102 H82 0.931 . S
C102 C101 1.332 . S
C102 C103 1.267 . S
C103 H71 0.929 . S
C103 C102 1.267 . S
C103 C104 1.251 . S
C104 H74 0.929 . S
C104 N100 1.418 . S
C104 C103 1.251 . S
C105 H72 0.930 . S
C105 C107 1.406 . S
C105 C110 1.261 . S
C106 H73 0.930 . S
C106 N108 1.325 . S
C106 C109 1.357 . S
C107 H75 0.928 . S
C107 C105 1.406 . S
C107 N108 1.261 . S
N108 Co59 2.214 . S
N108 C106 1.325 . S
N108 C107 1.261 . S
C109 H79 0.931 . S
C109 C106 1.357 . S
C109 C110 1.312 . S
C110 H81 0.930 . S
C110 C105 1.261 . S
C110 C109 1.312 . S
C111 O83 1.214 . S
C111 O91 1.235 . S
C112 H84 0.929 . S
C112 C115 1.391 . S
C112 C117 1.391 . S
C113 H85 0.929 . S
C113 C114 1.390 . S
C113 N116 1.391 1_556 S
C114 H86 0.930 . S
C114 C113 1.390 . S
C114 C115 1.391 1_556 S
C115 H87 0.929 . S
C115 C112 1.391 . S
C115 C114 1.391 1_554 S
N116 Co60 2.257 . S
N116 C113 1.391 1_554 S
N116 C117 1.388 . S
C117 H88 0.930 . S
C117 C112 1.391 . S
C117 N116 1.388 . S
Co118 O120 2.143 . S
Co118 O126 2.074 . S
Co118 O129 2.093 . S
Co118 O142 2.097 . S
Co118 N159 2.151 . S
Co118 N167 2.214 . S
Co119 O120 2.160 . S
Co119 O125 2.059 . S
Co119 O135 2.057 . S
Co119 O150 2.037 . S
Co119 N154 2.145 1_554 S
Co119 N175 2.257 1_655 S
O120 Co118 2.143 . S
O120 Co119 2.160 . S
C121 O122 1.278 . S
C121 O129 1.224 . S
O122 C121 1.278 . S
C123 O124 1.253 . S
C123 O135 1.233 . S
O124 C123 1.253 . S
O125 Co119 2.059 . S
O125 C151 1.274 . S
O126 Co118 2.074 . S
O126 C151 1.257 . S
H127 C152 0.930 . S
H128 C158 0.930 . S
O129 Co118 2.093 . S
O129 C121 1.224 . S
H130 C162 0.929 . S
H131 C164 0.930 . S
H132 C165 0.930 . S
H133 C163 0.929 . S
H134 C166 0.928 . S
O135 Co119 2.057 . S
O135 C123 1.233 . S
H136 C155 0.929 . S
H137 C156 0.929 . S
H138 C168 0.931 . S
H139 C160 0.929 . S
H140 C169 0.930 . S
H141 C161 0.931 . S
O142 Co118 2.097 . S
O142 C170 1.214 . S
H143 C171 0.929 . S
H144 C172 0.929 . S
H145 C173 0.930 . S
H146 C174 0.929 . S
H147 C176 0.930 . S
H148 C153 0.930 . S
H149 C157 0.930 1_455 S
O150 Co119 2.037 . S
O150 C170 1.235 . S
C151 O125 1.274 . S
C151 O126 1.257 . S
C152 H127 0.930 . S
C152 C155 1.388 . S
C152 C157 1.418 . S
C153 H148 0.930 . S
C153 C156 1.404 . S
C153 C157 1.353 1_455 S
N154 Co119 2.145 1_556 S
N154 C155 1.397 . S
N154 C156 1.334 1_655 S
C155 H136 0.929 . S
C155 C152 1.388 . S
C155 N154 1.397 . S
C156 H137 0.929 . S
C156 C153 1.404 . S
C156 N154 1.334 1_455 S
C157 H149 0.930 1_655 S
C157 C152 1.418 . S
C157 C153 1.353 1_655 S
C158 H128 0.930 . S
C158 N159 1.330 . S
C158 C160 1.446 . S
N159 Co118 2.151 . S
N159 C158 1.330 . S
N159 C163 1.418 . S
C160 H139 0.929 . S
C160 C158 1.446 . S
C160 C161 1.332 . S
C161 H141 0.931 . S
C161 C160 1.332 . S
C161 C162 1.267 . S
C162 H130 0.929 . S
C162 C161 1.267 . S
C162 C163 1.251 . S
C163 H133 0.929 . S
C163 N159 1.418 . S
C163 C162 1.251 . S
C164 H131 0.930 . S
C164 C166 1.406 . S
C164 C169 1.261 . S
C165 H132 0.930 . S
C165 N167 1.325 . S
C165 C168 1.357 . S
C166 H134 0.928 . S
C166 C164 1.406 . S
C166 N167 1.261 . S
N167 Co118 2.214 . S
N167 C165 1.325 . S
N167 C166 1.261 . S
C168 H138 0.931 . S
C168 C165 1.357 . S
C168 C169 1.312 . S
C169 H140 0.930 . S
C169 C164 1.261 . S
C169 C168 1.312 . S
C170 O142 1.214 . S
C170 O150 1.235 . S
C171 H143 0.929 . S
C171 C174 1.391 . S
C171 C176 1.391 . S
C172 H144 0.929 . S
C172 C173 1.390 . S
C172 N175 1.391 1_556 S
C173 H145 0.930 . S
C173 C172 1.390 . S
C173 C174 1.391 1_556 S
C174 H146 0.929 . S
C174 C171 1.391 . S
C174 C173 1.391 1_554 S
N175 Co119 2.257 1_455 S
N175 C172 1.391 1_554 S
N175 C176 1.388 . S
C176 H147 0.930 . S
C176 C171 1.391 . S
C176 N175 1.388 . S
Co177 O179 2.143 . S
Co177 O185 2.074 . S
Co177 O188 2.093 . S
Co177 O201 2.097 . S
Co177 N218 2.151 . S
Co177 N226 2.214 . S
Co178 O179 2.160 . S
Co178 O184 2.059 . S
Co178 O194 2.057 . S
Co178 O209 2.037 . S
Co178 N213 2.145 1_554 S
Co178 N234 2.257 1_565 S
O179 Co177 2.143 . S
O179 Co178 2.160 . S
C180 O181 1.278 . S
C180 O188 1.224 . S
O181 C180 1.278 . S
C182 O183 1.252 . S
C182 O194 1.233 . S
O183 C182 1.252 . S
O184 Co178 2.059 . S
O184 C210 1.274 . S
O185 Co177 2.074 . S
O185 C210 1.257 . S
H186 C211 0.930 . S
H187 C217 0.930 . S
O188 Co177 2.093 . S
O188 C180 1.224 . S
H189 C221 0.929 . S
H190 C223 0.930 . S
H191 C224 0.930 . S
H192 C222 0.929 . S
H193 C225 0.928 . S
O194 Co178 2.057 . S
O194 C182 1.233 . S
H195 C214 0.929 . S
H196 C215 0.929 . S
H197 C227 0.931 . S
H198 C219 0.929 . S
H199 C228 0.930 . S
H200 C220 0.931 . S
O201 Co177 2.097 . S
O201 C229 1.214 . S
H202 C230 0.929 . S
H203 C231 0.929 . S
H204 C232 0.930 . S
H205 C233 0.929 . S
H206 C235 0.930 . S
H207 C212 0.930 . S
H208 C216 0.930 1_545 S
O209 Co178 2.037 . S
O209 C229 1.235 . S
C210 O184 1.274 . S
C210 O185 1.257 . S
C211 H186 0.930 . S
C211 C214 1.388 . S
C211 C216 1.418 . S
C212 H207 0.930 . S
C212 C215 1.404 . S
C212 C216 1.353 1_545 S
N213 Co178 2.145 1_556 S
N213 C214 1.397 . S
N213 C215 1.334 1_565 S
C214 H195 0.929 . S
C214 C211 1.388 . S
C214 N213 1.397 . S
C215 H196 0.929 . S
C215 C212 1.404 . S
C215 N213 1.334 1_545 S
C216 H208 0.930 1_565 S
C216 C211 1.418 . S
C216 C212 1.353 1_565 S
C217 H187 0.930 . S
C217 N218 1.330 . S
C217 C219 1.446 . S
N218 Co177 2.151 . S
N218 C217 1.330 . S
N218 C222 1.418 . S
C219 H198 0.929 . S
C219 C217 1.446 . S
C219 C220 1.332 . S
C220 H200 0.931 . S
C220 C219 1.332 . S
C220 C221 1.267 . S
C221 H189 0.929 . S
C221 C220 1.267 . S
C221 C222 1.251 . S
C222 H192 0.929 . S
C222 N218 1.418 . S
C222 C221 1.251 . S
C223 H190 0.930 . S
C223 C225 1.406 . S
C223 C228 1.261 . S
C224 H191 0.930 . S
C224 N226 1.325 . S
C224 C227 1.357 . S
C225 H193 0.928 . S
C225 C223 1.406 . S
C225 N226 1.261 . S
N226 Co177 2.214 . S
N226 C224 1.325 . S
N226 C225 1.261 . S
C227 H197 0.931 . S
C227 C224 1.357 . S
C227 C228 1.312 . S
C228 H199 0.930 . S
C228 C223 1.261 . S
C228 C227 1.312 . S
C229 O201 1.214 . S
C229 O209 1.235 . S
C230 H202 0.929 . S
C230 C233 1.391 . S
C230 C235 1.391 . S
C231 H203 0.929 . S
C231 C232 1.390 . S
C231 N234 1.391 1_556 S
C232 H204 0.930 . S
C232 C231 1.390 . S
C232 C233 1.391 1_556 S
C233 H205 0.929 . S
C233 C230 1.391 . S
C233 C232 1.391 1_554 S
N234 Co178 2.257 1_545 S
N234 C231 1.391 1_554 S
N234 C235 1.388 . S
C235 H206 0.930 . S
C235 C230 1.391 . S
C235 N234 1.388 . S
Co236 O238 2.143 . S
Co236 O244 2.074 . S
Co236 O247 2.093 . S
Co236 O260 2.097 . S
Co236 N277 2.151 . S
Co236 N285 2.214 . S
Co237 O238 2.160 . S
Co237 O243 2.058 . S
Co237 O253 2.057 . S
Co237 O268 2.037 . S
Co237 N272 2.145 . S
Co237 N293 2.257 . S
O238 Co236 2.143 . S
O238 Co237 2.160 . S
C239 O240 1.278 . S
C239 O247 1.224 . S
O240 C239 1.278 . S
C241 O242 1.245 . S
C241 O253 1.232 . S
O242 C241 1.245 . S
O243 Co237 2.058 . S
O243 C269 1.269 . S
O244 Co236 2.074 . S
O244 C269 1.257 . S
H245 C270 0.930 . S
H246 C276 0.930 . S
O247 Co236 2.093 . S
O247 C239 1.224 . S
H248 C280 0.929 . S
H249 C282 0.930 . S
H250 C283 0.930 . S
H251 C281 0.929 . S
H252 C284 0.928 . S
O253 Co237 2.057 . S
O253 C241 1.232 . S
H254 C273 0.929 . S
H255 C274 0.929 . S
H256 C286 0.931 . S
H257 C278 0.929 . S
H258 C287 0.930 . S
H259 C279 0.931 . S
O260 Co236 2.097 . S
O260 C288 1.214 . S
H261 C289 0.929 . S
H262 C290 0.929 . S
H263 C291 0.930 . S
H264 C292 0.929 . S
H265 C294 0.930 . S
H266 C271 0.930 . S
H267 C275 0.930 . S
O268 Co237 2.037 . S
O268 C288 1.234 . S
C269 O243 1.269 . S
C269 O244 1.257 . S
C270 H245 0.930 . S
C270 C273 1.388 . S
C270 C275 1.418 . S
C271 H266 0.930 . S
C271 C274 1.404 . S
C271 C275 1.353 . S
N272 Co237 2.145 . S
N272 C273 1.397 . S
N272 C274 1.334 . S
C273 H254 0.929 . S
C273 C270 1.388 . S
C273 N272 1.397 . S
C274 H255 0.929 . S
C274 C271 1.404 . S
C274 N272 1.334 . S
C275 H267 0.930 . S
C275 C270 1.418 . S
C275 C271 1.353 . S
C276 H246 0.930 . S
C276 N277 1.330 . S
C276 C278 1.446 . S
N277 Co236 2.151 . S
N277 C276 1.330 . S
N277 C281 1.418 . S
C278 H257 0.929 . S
C278 C276 1.446 . S
C278 C279 1.332 . S
C279 H259 0.931 . S
C279 C278 1.332 . S
C279 C280 1.267 . S
C280 H248 0.929 . S
C280 C279 1.267 . S
C280 C281 1.251 . S
C281 H251 0.929 . S
C281 N277 1.418 . S
C281 C280 1.251 . S
C282 H249 0.930 . S
C282 C284 1.406 . S
C282 C287 1.261 . S
C283 H250 0.930 . S
C283 N285 1.325 . S
C283 C286 1.357 . S
C284 H252 0.928 . S
C284 C282 1.406 . S
C284 N285 1.261 . S
N285 Co236 2.214 . S
N285 C283 1.325 . S
N285 C284 1.261 . S
C286 H256 0.931 . S
C286 C283 1.357 . S
C286 C287 1.312 . S
C287 H258 0.930 . S
C287 C282 1.261 . S
C287 C286 1.312 . S
C288 O260 1.214 . S
C288 O268 1.234 . S
C289 H261 0.929 . S
C289 C292 1.391 . S
C289 C294 1.391 . S
C290 H262 0.929 . S
C290 C291 1.390 . S
C290 N293 1.391 . S
C291 H263 0.930 . S
C291 C290 1.390 . S
C291 C292 1.392 . S
C292 H264 0.929 . S
C292 C289 1.391 . S
C292 C291 1.392 . S
N293 Co237 2.257 . S
N293 C290 1.391 . S
N293 C294 1.388 . S
C294 H265 0.930 . S
C294 C289 1.391 . S
C294 N293 1.388 . S
Co295 O297 2.143 . S
Co295 O303 2.074 . S
Co295 O306 2.093 . S
Co295 O319 2.097 . S
Co295 N336 2.151 . S
Co295 N344 2.214 . S
Co296 O297 2.160 . S
Co296 O302 2.058 . S
Co296 O312 2.057 . S
Co296 O327 2.037 . S
Co296 N331 2.145 . S
Co296 N352 2.257 . S
O297 Co295 2.143 . S
O297 Co296 2.160 . S
C298 O299 1.278 . S
C298 O306 1.224 . S
O299 C298 1.278 . S
C300 O301 1.245 . S
C300 O312 1.232 . S
O301 C300 1.245 . S
O302 Co296 2.058 . S
O302 C328 1.269 . S
O303 Co295 2.074 . S
O303 C328 1.257 . S
H304 C329 0.930 . S
H305 C335 0.930 . S
O306 Co295 2.093 . S
O306 C298 1.224 . S
H307 C339 0.929 . S
H308 C341 0.930 . S
H309 C342 0.930 . S
H310 C340 0.929 . S
H311 C343 0.928 . S
O312 Co296 2.057 . S
O312 C300 1.232 . S
H313 C332 0.929 . S
H314 C333 0.929 . S
H315 C345 0.931 . S
H316 C337 0.929 . S
H317 C346 0.930 . S
H318 C338 0.931 . S
O319 Co295 2.097 . S
O319 C347 1.214 . S
H320 C348 0.929 . S
H321 C349 0.929 . S
H322 C350 0.930 . S
H323 C351 0.929 . S
H324 C353 0.930 . S
H325 C330 0.930 . S
H326 C334 0.930 . S
O327 Co296 2.037 . S
O327 C347 1.234 . S
C328 O302 1.269 . S
C328 O303 1.257 . S
C329 H304 0.930 . S
C329 C332 1.388 . S
C329 C334 1.418 . S
C330 H325 0.930 . S
C330 C333 1.404 . S
C330 C334 1.353 . S
N331 Co296 2.145 . S
N331 C332 1.397 . S
N331 C333 1.334 . S
C332 H313 0.929 . S
C332 C329 1.388 . S
C332 N331 1.397 . S
C333 H314 0.929 . S
C333 C330 1.404 . S
C333 N331 1.334 . S
C334 H326 0.930 . S
C334 C329 1.418 . S
C334 C330 1.353 . S
C335 H305 0.930 . S
C335 N336 1.330 . S
C335 C337 1.446 . S
N336 Co295 2.151 . S
N336 C335 1.330 . S
N336 C340 1.418 . S
C337 H316 0.929 . S
C337 C335 1.446 . S
C337 C338 1.332 . S
C338 H318 0.931 . S
C338 C337 1.332 . S
C338 C339 1.267 . S
C339 H307 0.929 . S
C339 C338 1.267 . S
C339 C340 1.251 . S
C340 H310 0.929 . S
C340 N336 1.418 . S
C340 C339 1.251 . S
C341 H308 0.930 . S
C341 C343 1.406 . S
C341 C346 1.261 . S
C342 H309 0.930 . S
C342 N344 1.325 . S
C342 C345 1.357 . S
C343 H311 0.928 . S
C343 C341 1.406 . S
C343 N344 1.261 . S
N344 Co295 2.214 . S
N344 C342 1.325 . S
N344 C343 1.261 . S
C345 H315 0.931 . S
C345 C342 1.357 . S
C345 C346 1.312 . S
C346 H317 0.930 . S
C346 C341 1.261 . S
C346 C345 1.312 . S
C347 O319 1.214 . S
C347 O327 1.234 . S
C348 H320 0.929 . S
C348 C351 1.391 . S
C348 C353 1.391 . S
C349 H321 0.929 . S
C349 C350 1.390 . S
C349 N352 1.391 . S
C350 H322 0.930 . S
C350 C349 1.390 . S
C350 C351 1.392 . S
C351 H323 0.929 . S
C351 C348 1.391 . S
C351 C350 1.392 . S
N352 Co296 2.257 . S
N352 C349 1.391 . S
N352 C353 1.388 . S
C353 H324 0.930 . S
C353 C348 1.391 . S
C353 N352 1.388 . S
Co354 O356 2.143 . S
Co354 O362 2.074 . S
Co354 O365 2.093 . S
Co354 O378 2.097 . S
Co354 N395 2.151 . S
Co354 N403 2.214 . S
Co355 O356 2.160 . S
Co355 O361 2.058 . S
Co355 O371 2.057 . S
Co355 O386 2.037 . S
Co355 N390 2.145 . S
Co355 N411 2.257 1_655 S
O356 Co354 2.143 . S
O356 Co355 2.160 . S
C357 O358 1.278 . S
C357 O365 1.224 . S
O358 C357 1.278 . S
C359 O360 1.252 . S
C359 O371 1.233 . S
O360 C359 1.252 . S
O361 Co355 2.058 . S
O361 C387 1.269 . S
O362 Co354 2.074 . S
O362 C387 1.257 . S
H363 C388 0.930 . S
H364 C394 0.930 . S
O365 Co354 2.093 . S
O365 C357 1.224 . S
H366 C398 0.929 . S
H367 C400 0.930 . S
H368 C401 0.930 . S
H369 C399 0.929 . S
H370 C402 0.928 . S
O371 Co355 2.057 . S
O371 C359 1.233 . S
H372 C391 0.929 . S
H373 C392 0.929 . S
H374 C404 0.931 . S
H375 C396 0.929 . S
H376 C405 0.930 . S
H377 C397 0.931 . S
O378 Co354 2.097 . S
O378 C406 1.214 . S
H379 C407 0.929 . S
H380 C408 0.929 . S
H381 C409 0.930 . S
H382 C410 0.929 . S
H383 C412 0.930 . S
H384 C389 0.930 . S
H385 C393 0.930 1_455 S
O386 Co355 2.037 . S
O386 C406 1.234 . S
C387 O361 1.269 . S
C387 O362 1.257 . S
C388 H363 0.930 . S
C388 C391 1.388 . S
C388 C393 1.418 . S
C389 H384 0.930 . S
C389 C392 1.404 . S
C389 C393 1.353 1_455 S
N390 Co355 2.145 . S
N390 C391 1.397 . S
N390 C392 1.334 1_655 S
C391 H372 0.929 . S
C391 C388 1.388 . S
C391 N390 1.397 . S
C392 H373 0.929 . S
C392 C389 1.404 . S
C392 N390 1.334 1_455 S
C393 H385 0.930 1_655 S
C393 C388 1.418 . S
C393 C389 1.353 1_655 S
C394 H364 0.930 . S
C394 N395 1.330 . S
C394 C396 1.446 . S
N395 Co354 2.151 . S
N395 C394 1.330 . S
N395 C399 1.418 . S
C396 H375 0.929 . S
C396 C394 1.446 . S
C396 C397 1.332 . S
C397 H377 0.931 . S
C397 C396 1.332 . S
C397 C398 1.267 . S
C398 H366 0.929 . S
C398 C397 1.267 . S
C398 C399 1.251 . S
C399 H369 0.929 . S
C399 N395 1.418 . S
C399 C398 1.251 . S
C400 H367 0.930 . S
C400 C402 1.406 . S
C400 C405 1.261 . S
C401 H368 0.930 . S
C401 N403 1.325 . S
C401 C404 1.357 . S
C402 H370 0.928 . S
C402 C400 1.406 . S
C402 N403 1.261 . S
N403 Co354 2.214 . S
N403 C401 1.325 . S
N403 C402 1.261 . S
C404 H374 0.931 . S
C404 C401 1.357 . S
C404 C405 1.312 . S
C405 H376 0.930 . S
C405 C400 1.261 . S
C405 C404 1.312 . S
C406 O378 1.214 . S
C406 O386 1.234 . S
C407 H379 0.929 . S
C407 C410 1.391 . S
C407 C412 1.391 . S
C408 H380 0.929 . S
C408 C409 1.390 . S
C408 N411 1.391 . S
C409 H381 0.930 . S
C409 C408 1.390 . S
C409 C410 1.392 . S
C410 H382 0.929 . S
C410 C407 1.391 . S
C410 C409 1.392 . S
N411 Co355 2.257 1_455 S
N411 C408 1.391 . S
N411 C412 1.388 . S
C412 H383 0.930 . S
C412 C407 1.391 . S
C412 N411 1.388 . S
Co413 O415 2.143 . S
Co413 O421 2.074 . S
Co413 O424 2.093 . S
Co413 O437 2.097 . S
Co413 N454 2.151 . S
Co413 N462 2.214 . S
Co414 O415 2.160 . S
Co414 O420 2.058 . S
Co414 O430 2.057 . S
Co414 O445 2.037 . S
Co414 N449 2.145 . S
Co414 N470 2.257 1_565 S
O415 Co413 2.143 . S
O415 Co414 2.160 . S
C416 O417 1.278 . S
C416 O424 1.224 . S
O417 C416 1.278 . S
C418 O419 1.253 . S
C418 O430 1.233 . S
O419 C418 1.253 . S
O420 Co414 2.058 . S
O420 C446 1.269 . S
O421 Co413 2.074 . S
O421 C446 1.257 . S
H422 C447 0.930 . S
H423 C453 0.930 . S
O424 Co413 2.093 . S
O424 C416 1.224 . S
H425 C457 0.929 . S
H426 C459 0.930 . S
H427 C460 0.930 . S
H428 C458 0.929 . S
H429 C461 0.928 . S
O430 Co414 2.057 . S
O430 C418 1.233 . S
H431 C450 0.929 . S
H432 C451 0.929 . S
H433 C463 0.931 . S
H434 C455 0.929 . S
H435 C464 0.930 . S
H436 C456 0.931 . S
O437 Co413 2.097 . S
O437 C465 1.214 . S
H438 C466 0.929 . S
H439 C467 0.929 . S
H440 C468 0.930 . S
H441 C469 0.929 . S
H442 C471 0.930 . S
H443 C448 0.930 . S
H444 C452 0.930 1_545 S
O445 Co414 2.037 . S
O445 C465 1.234 . S
C446 O420 1.269 . S
C446 O421 1.257 . S
C447 H422 0.930 . S
C447 C450 1.388 . S
C447 C452 1.418 . S
C448 H443 0.930 . S
C448 C451 1.404 . S
C448 C452 1.353 1_545 S
N449 Co414 2.145 . S
N449 C450 1.397 . S
N449 C451 1.334 1_565 S
C450 H431 0.929 . S
C450 C447 1.388 . S
C450 N449 1.397 . S
C451 H432 0.929 . S
C451 C448 1.404 . S
C451 N449 1.334 1_545 S
C452 H444 0.930 1_565 S
C452 C447 1.418 . S
C452 C448 1.353 1_565 S
C453 H423 0.930 . S
C453 N454 1.330 . S
C453 C455 1.446 . S
N454 Co413 2.151 . S
N454 C453 1.330 . S
N454 C458 1.418 . S
C455 H434 0.929 . S
C455 C453 1.446 . S
C455 C456 1.332 . S
C456 H436 0.931 . S
C456 C455 1.332 . S
C456 C457 1.267 . S
C457 H425 0.929 . S
C457 C456 1.267 . S
C457 C458 1.251 . S
C458 H428 0.929 . S
C458 N454 1.418 . S
C458 C457 1.251 . S
C459 H426 0.930 . S
C459 C461 1.406 . S
C459 C464 1.261 . S
C460 H427 0.930 . S
C460 N462 1.325 . S
C460 C463 1.357 . S
C461 H429 0.928 . S
C461 C459 1.406 . S
C461 N462 1.261 . S
N462 Co413 2.214 . S
N462 C460 1.325 . S
N462 C461 1.261 . S
C463 H433 0.931 . S
C463 C460 1.357 . S
C463 C464 1.312 . S
C464 H435 0.930 . S
C464 C459 1.261 . S
C464 C463 1.312 . S
C465 O437 1.214 . S
C465 O445 1.234 . S
C466 H438 0.929 . S
C466 C469 1.391 . S
C466 C471 1.391 . S
C467 H439 0.929 . S
C467 C468 1.390 . S
C467 N470 1.391 . S
C468 H440 0.930 . S
C468 C467 1.390 . S
C468 C469 1.392 . S
C469 H441 0.929 . S
C469 C466 1.391 . S
C469 C468 1.392 . S
N470 Co414 2.257 1_545 S
N470 C467 1.391 . S
N470 C471 1.388 . S
C471 H442 0.930 . S
C471 C466 1.391 . S
C471 N470 1.388 . S
Co472 O474 2.143 . S
Co472 O480 2.074 . S
Co472 O483 2.093 . S
Co472 O496 2.097 . S
Co472 N513 2.151 . S
Co472 N521 2.214 . S
Co473 O474 2.160 . S
Co473 O479 2.059 . S
Co473 O489 2.057 . S
Co473 O504 2.037 . S
Co473 N508 2.145 1_556 S
Co473 N529 2.257 . S
O474 Co472 2.143 . S
O474 Co473 2.160 . S
C475 O476 1.278 . S
C475 O483 1.224 . S
O476 C475 1.278 . S
C477 O478 1.245 . S
C477 O489 1.232 . S
O478 C477 1.245 . S
O479 Co473 2.059 . S
O479 C505 1.274 . S
O480 Co472 2.074 . S
O480 C505 1.257 . S
H481 C506 0.930 . S
H482 C512 0.930 . S
O483 Co472 2.093 . S
O483 C475 1.224 . S
H484 C516 0.929 . S
H485 C518 0.930 . S
H486 C519 0.930 . S
H487 C517 0.929 . S
H488 C520 0.928 . S
O489 Co473 2.057 . S
O489 C477 1.232 . S
H490 C509 0.929 . S
H491 C510 0.929 . S
H492 C522 0.931 . S
H493 C514 0.929 . S
H494 C523 0.930 . S
H495 C515 0.931 . S
O496 Co472 2.097 . S
O496 C524 1.214 . S
H497 C525 0.929 . S
H498 C526 0.929 . S
H499 C527 0.930 . S
H500 C528 0.929 . S
H501 C530 0.930 . S
H502 C507 0.930 . S
H503 C511 0.930 . S
O504 Co473 2.037 . S
O504 C524 1.235 . S
C505 O479 1.274 . S
C505 O480 1.257 . S
C506 H481 0.930 . S
C506 C509 1.388 . S
C506 C511 1.418 . S
C507 H502 0.930 . S
C507 C510 1.404 . S
C507 C511 1.353 . S
N508 Co473 2.145 1_554 S
N508 C509 1.397 . S
N508 C510 1.334 . S
C509 H490 0.929 . S
C509 C506 1.388 . S
C509 N508 1.397 . S
C510 H491 0.929 . S
C510 C507 1.404 . S
C510 N508 1.334 . S
C511 H503 0.930 . S
C511 C506 1.418 . S
C511 C507 1.353 . S
C512 H482 0.930 . S
C512 N513 1.330 . S
C512 C514 1.446 . S
N513 Co472 2.151 . S
N513 C512 1.330 . S
N513 C517 1.418 . S
C514 H493 0.929 . S
C514 C512 1.446 . S
C514 C515 1.332 . S
C515 H495 0.931 . S
C515 C514 1.332 . S
C515 C516 1.267 . S
C516 H484 0.929 . S
C516 C515 1.267 . S
C516 C517 1.251 . S
C517 H487 0.929 . S
C517 N513 1.418 . S
C517 C516 1.251 . S
C518 H485 0.930 . S
C518 C520 1.406 . S
C518 C523 1.261 . S
C519 H486 0.930 . S
C519 N521 1.325 . S
C519 C522 1.357 . S
C520 H488 0.928 . S
C520 C518 1.406 . S
C520 N521 1.261 . S
N521 Co472 2.214 . S
N521 C519 1.325 . S
N521 C520 1.261 . S
C522 H492 0.931 . S
C522 C519 1.357 . S
C522 C523 1.312 . S
C523 H494 0.930 . S
C523 C518 1.261 . S
C523 C522 1.312 . S
C524 O496 1.214 . S
C524 O504 1.235 . S
C525 H497 0.929 . S
C525 C528 1.391 . S
C525 C530 1.391 . S
C526 H498 0.929 . S
C526 C527 1.390 . S
C526 N529 1.391 1_554 S
C527 H499 0.930 . S
C527 C526 1.390 . S
C527 C528 1.391 1_554 S
C528 H500 0.929 . S
C528 C525 1.391 . S
C528 C527 1.391 1_556 S
N529 Co473 2.257 . S
N529 C526 1.391 1_556 S
N529 C530 1.388 . S
C530 H501 0.930 . S
C530 C525 1.391 . S
C530 N529 1.388 . S
Co531 O533 2.143 . S
Co531 O539 2.074 . S
Co531 O542 2.093 . S
Co531 O555 2.097 . S
Co531 N572 2.151 . S
Co531 N580 2.214 . S
Co532 O533 2.160 . S
Co532 O538 2.059 . S
Co532 O548 2.057 . S
Co532 O563 2.037 . S
Co532 N567 2.145 1_556 S
Co532 N588 2.257 . S
O533 Co531 2.143 . S
O533 Co532 2.160 . S
C534 O535 1.278 . S
C534 O542 1.224 . S
O535 C534 1.278 . S
C536 O537 1.245 . S
C536 O548 1.232 . S
O537 C536 1.245 . S
O538 Co532 2.059 . S
O538 C564 1.274 . S
O539 Co531 2.074 . S
O539 C564 1.257 . S
H540 C565 0.930 . S
H541 C571 0.930 . S
O542 Co531 2.093 . S
O542 C534 1.224 . S
H543 C575 0.929 . S
H544 C577 0.930 . S
H545 C578 0.930 . S
H546 C576 0.929 . S
H547 C579 0.928 . S
O548 Co532 2.057 . S
O548 C536 1.232 . S
H549 C568 0.929 . S
H550 C569 0.929 . S
H551 C581 0.931 . S
H552 C573 0.929 . S
H553 C582 0.930 . S
H554 C574 0.931 . S
O555 Co531 2.097 . S
O555 C583 1.214 . S
H556 C584 0.929 . S
H557 C585 0.929 . S
H558 C586 0.930 . S
H559 C587 0.929 . S
H560 C589 0.930 . S
H561 C566 0.930 . S
H562 C570 0.930 . S
O563 Co532 2.037 . S
O563 C583 1.235 . S
C564 O538 1.274 . S
C564 O539 1.257 . S
C565 H540 0.930 . S
C565 C568 1.388 . S
C565 C570 1.418 . S
C566 H561 0.930 . S
C566 C569 1.404 . S
C566 C570 1.353 . S
N567 Co532 2.145 1_554 S
N567 C568 1.397 . S
N567 C569 1.334 . S
C568 H549 0.929 . S
C568 C565 1.388 . S
C568 N567 1.397 . S
C569 H550 0.929 . S
C569 C566 1.404 . S
C569 N567 1.334 . S
C570 H562 0.930 . S
C570 C565 1.418 . S
C570 C566 1.353 . S
C571 H541 0.930 . S
C571 N572 1.330 . S
C571 C573 1.446 . S
N572 Co531 2.151 . S
N572 C571 1.330 . S
N572 C576 1.418 . S
C573 H552 0.929 . S
C573 C571 1.446 . S
C573 C574 1.332 . S
C574 H554 0.931 . S
C574 C573 1.332 . S
C574 C575 1.267 . S
C575 H543 0.929 . S
C575 C574 1.267 . S
C575 C576 1.251 . S
C576 H546 0.929 . S
C576 N572 1.418 . S
C576 C575 1.251 . S
C577 H544 0.930 . S
C577 C579 1.406 . S
C577 C582 1.261 . S
C578 H545 0.930 . S
C578 N580 1.325 . S
C578 C581 1.357 . S
C579 H547 0.928 . S
C579 C577 1.406 . S
C579 N580 1.261 . S
N580 Co531 2.214 . S
N580 C578 1.325 . S
N580 C579 1.261 . S
C581 H551 0.931 . S
C581 C578 1.357 . S
C581 C582 1.312 . S
C582 H553 0.930 . S
C582 C577 1.261 . S
C582 C581 1.312 . S
C583 O555 1.214 . S
C583 O563 1.235 . S
C584 H556 0.929 . S
C584 C587 1.391 . S
C584 C589 1.391 . S
C585 H557 0.929 . S
C585 C586 1.390 . S
C585 N588 1.391 1_554 S
C586 H558 0.930 . S
C586 C585 1.390 . S
C586 C587 1.391 1_554 S
C587 H559 0.929 . S
C587 C584 1.391 . S
C587 C586 1.391 1_556 S
N588 Co532 2.257 . S
N588 C585 1.391 1_556 S
N588 C589 1.388 . S
C589 H560 0.930 . S
C589 C584 1.391 . S
C589 N588 1.388 . S
Co590 O592 2.143 . S
Co590 O598 2.074 . S
Co590 O601 2.093 . S
Co590 O614 2.097 . S
Co590 N631 2.151 . S
Co590 N639 2.214 . S
Co591 O592 2.160 . S
Co591 O597 2.059 . S
Co591 O607 2.057 . S
Co591 O622 2.037 . S
Co591 N626 2.145 1_556 S
Co591 N647 2.257 1_455 S
O592 Co590 2.143 . S
O592 Co591 2.160 . S
C593 O594 1.278 . S
C593 O601 1.224 . S
O594 C593 1.278 . S
C595 O596 1.253 . S
C595 O607 1.233 . S
O596 C595 1.253 . S
O597 Co591 2.059 . S
O597 C623 1.274 . S
O598 Co590 2.074 . S
O598 C623 1.257 . S
H599 C624 0.930 . S
H600 C630 0.930 . S
O601 Co590 2.093 . S
O601 C593 1.224 . S
H602 C634 0.929 . S
H603 C636 0.930 . S
H604 C637 0.930 . S
H605 C635 0.929 . S
H606 C638 0.928 . S
O607 Co591 2.057 . S
O607 C595 1.233 . S
H608 C627 0.929 . S
H609 C628 0.929 . S
H610 C640 0.931 . S
H611 C632 0.929 . S
H612 C641 0.930 . S
H613 C633 0.931 . S
O614 Co590 2.097 . S
O614 C642 1.214 . S
H615 C643 0.929 . S
H616 C644 0.929 . S
H617 C645 0.930 . S
H618 C646 0.929 . S
H619 C648 0.930 . S
H620 C625 0.930 . S
H621 C629 0.930 1_655 S
O622 Co591 2.037 . S
O622 C642 1.235 . S
C623 O597 1.274 . S
C623 O598 1.257 . S
C624 H599 0.930 . S
C624 C627 1.388 . S
C624 C629 1.418 . S
C625 H620 0.930 . S
C625 C628 1.404 . S
C625 C629 1.353 1_655 S
N626 Co591 2.145 1_554 S
N626 C627 1.397 . S
N626 C628 1.334 1_455 S
C627 H608 0.929 . S
C627 C624 1.388 . S
C627 N626 1.397 . S
C628 H609 0.929 . S
C628 C625 1.404 . S
C628 N626 1.334 1_655 S
C629 H621 0.930 1_455 S
C629 C624 1.418 . S
C629 C625 1.353 1_455 S
C630 H600 0.930 . S
C630 N631 1.330 . S
C630 C632 1.446 . S
N631 Co590 2.151 . S
N631 C630 1.330 . S
N631 C635 1.418 . S
C632 H611 0.929 . S
C632 C630 1.446 . S
C632 C633 1.332 . S
C633 H613 0.931 . S
C633 C632 1.332 . S
C633 C634 1.267 . S
C634 H602 0.929 . S
C634 C633 1.267 . S
C634 C635 1.251 . S
C635 H605 0.929 . S
C635 N631 1.418 . S
C635 C634 1.251 . S
C636 H603 0.930 . S
C636 C638 1.406 . S
C636 C641 1.261 . S
C637 H604 0.930 . S
C637 N639 1.325 . S
C637 C640 1.357 . S
C638 H606 0.928 . S
C638 C636 1.406 . S
C638 N639 1.261 . S
N639 Co590 2.214 . S
N639 C637 1.325 . S
N639 C638 1.261 . S
C640 H610 0.931 . S
C640 C637 1.357 . S
C640 C641 1.312 . S
C641 H612 0.930 . S
C641 C636 1.261 . S
C641 C640 1.312 . S
C642 O614 1.214 . S
C642 O622 1.235 . S
C643 H615 0.929 . S
C643 C646 1.391 . S
C643 C648 1.391 . S
C644 H616 0.929 . S
C644 C645 1.390 . S
C644 N647 1.391 1_554 S
C645 H617 0.930 . S
C645 C644 1.390 . S
C645 C646 1.391 1_554 S
C646 H618 0.929 . S
C646 C643 1.391 . S
C646 C645 1.391 1_556 S
N647 Co591 2.257 1_655 S
N647 C644 1.391 1_556 S
N647 C648 1.388 . S
C648 H619 0.930 . S
C648 C643 1.391 . S
C648 N647 1.388 . S
Co649 O651 2.143 . S
Co649 O657 2.074 . S
Co649 O660 2.093 . S
Co649 O673 2.097 . S
Co649 N690 2.151 . S
Co649 N698 2.214 . S
Co650 O651 2.160 . S
Co650 O656 2.059 . S
Co650 O666 2.057 . S
Co650 O681 2.037 . S
Co650 N685 2.145 1_556 S
Co650 N706 2.257 1_545 S
O651 Co649 2.143 . S
O651 Co650 2.160 . S
C652 O653 1.278 . S
C652 O660 1.224 . S
O653 C652 1.278 . S
C654 O655 1.252 . S
C654 O666 1.233 . S
O655 C654 1.252 . S
O656 Co650 2.059 . S
O656 C682 1.274 . S
O657 Co649 2.074 . S
O657 C682 1.257 . S
H658 C683 0.930 . S
H659 C689 0.930 . S
O660 Co649 2.093 . S
O660 C652 1.224 . S
H661 C693 0.929 . S
H662 C695 0.930 . S
H663 C696 0.930 . S
H664 C694 0.929 . S
H665 C697 0.928 . S
O666 Co650 2.057 . S
O666 C654 1.233 . S
H667 C686 0.929 . S
H668 C687 0.929 . S
H669 C699 0.931 . S
H670 C691 0.929 . S
H671 C700 0.930 . S
H672 C692 0.931 . S
O673 Co649 2.097 . S
O673 C701 1.214 . S
H674 C702 0.929 . S
H675 C703 0.929 . S
H676 C704 0.930 . S
H677 C705 0.929 . S
H678 C707 0.930 . S
H679 C684 0.930 . S
H680 C688 0.930 1_565 S
O681 Co650 2.037 . S
O681 C701 1.235 . S
C682 O656 1.274 . S
C682 O657 1.257 . S
C683 H658 0.930 . S
C683 C686 1.388 . S
C683 C688 1.418 . S
C684 H679 0.930 . S
C684 C687 1.404 . S
C684 C688 1.353 1_565 S
N685 Co650 2.145 1_554 S
N685 C686 1.397 . S
N685 C687 1.334 1_545 S
C686 H667 0.929 . S
C686 C683 1.388 . S
C686 N685 1.397 . S
C687 H668 0.929 . S
C687 C684 1.404 . S
C687 N685 1.334 1_565 S
C688 H680 0.930 1_545 S
C688 C683 1.418 . S
C688 C684 1.353 1_545 S
C689 H659 0.930 . S
C689 N690 1.330 . S
C689 C691 1.446 . S
N690 Co649 2.151 . S
N690 C689 1.330 . S
N690 C694 1.418 . S
C691 H670 0.929 . S
C691 C689 1.446 . S
C691 C692 1.332 . S
C692 H672 0.931 . S
C692 C691 1.332 . S
C692 C693 1.267 . S
C693 H661 0.929 . S
C693 C692 1.267 . S
C693 C694 1.251 . S
C694 H664 0.929 . S
C694 N690 1.418 . S
C694 C693 1.251 . S
C695 H662 0.930 . S
C695 C697 1.406 . S
C695 C700 1.261 . S
C696 H663 0.930 . S
C696 N698 1.325 . S
C696 C699 1.357 . S
C697 H665 0.928 . S
C697 C695 1.406 . S
C697 N698 1.261 . S
N698 Co649 2.214 . S
N698 C696 1.325 . S
N698 C697 1.261 . S
C699 H669 0.931 . S
C699 C696 1.357 . S
C699 C700 1.312 . S
C700 H671 0.930 . S
C700 C695 1.261 . S
C700 C699 1.312 . S
C701 O673 1.214 . S
C701 O681 1.235 . S
C702 H674 0.929 . S
C702 C705 1.391 . S
C702 C707 1.391 . S
C703 H675 0.929 . S
C703 C704 1.390 . S
C703 N706 1.391 1_554 S
C704 H676 0.930 . S
C704 C703 1.390 . S
C704 C705 1.391 1_554 S
C705 H677 0.929 . S
C705 C702 1.391 . S
C705 C704 1.391 1_556 S
N706 Co650 2.257 1_565 S
N706 C703 1.391 1_556 S
N706 C707 1.388 . S
C707 H678 0.930 . S
C707 C702 1.391 . S
C707 N706 1.388 . S
Co708 O710 2.143 . S
Co708 O716 2.074 . S
Co708 O719 2.093 . S
Co708 O732 2.097 . S
Co708 N749 2.151 . S
Co708 N757 2.214 . S
Co709 O710 2.160 . S
Co709 O715 2.058 . S
Co709 O725 2.057 . S
Co709 O740 2.037 . S
Co709 N744 2.145 . S
Co709 N765 2.257 . S
O710 Co708 2.143 . S
O710 Co709 2.160 . S
C711 O712 1.278 . S
C711 O719 1.224 . S
O712 C711 1.278 . S
C713 O714 1.245 . S
C713 O725 1.232 . S
O714 C713 1.245 . S
O715 Co709 2.058 . S
O715 C741 1.269 . S
O716 Co708 2.074 . S
O716 C741 1.257 . S
H717 C742 0.930 . S
H718 C748 0.930 . S
O719 Co708 2.093 . S
O719 C711 1.224 . S
H720 C752 0.929 . S
H721 C754 0.930 . S
H722 C755 0.930 . S
H723 C753 0.929 . S
H724 C756 0.928 . S
O725 Co709 2.057 . S
O725 C713 1.232 . S
H726 C745 0.929 . S
H727 C746 0.929 . S
H728 C758 0.931 . S
H729 C750 0.929 . S
H730 C759 0.930 . S
H731 C751 0.931 . S
O732 Co708 2.097 . S
O732 C760 1.214 . S
H733 C761 0.929 . S
H734 C762 0.929 . S
H735 C763 0.930 . S
H736 C764 0.929 . S
H737 C766 0.930 . S
H738 C743 0.930 . S
H739 C747 0.930 . S
O740 Co709 2.037 . S
O740 C760 1.234 . S
C741 O715 1.269 . S
C741 O716 1.257 . S
C742 H717 0.930 . S
C742 C745 1.388 . S
C742 C747 1.418 . S
C743 H738 0.930 . S
C743 C746 1.404 . S
C743 C747 1.353 . S
N744 Co709 2.145 . S
N744 C745 1.397 . S
N744 C746 1.334 . S
C745 H726 0.929 . S
C745 C742 1.388 . S
C745 N744 1.397 . S
C746 H727 0.929 . S
C746 C743 1.404 . S
C746 N744 1.334 . S
C747 H739 0.930 . S
C747 C742 1.418 . S
C747 C743 1.353 . S
C748 H718 0.930 . S
C748 N749 1.330 . S
C748 C750 1.446 . S
N749 Co708 2.151 . S
N749 C748 1.330 . S
N749 C753 1.418 . S
C750 H729 0.929 . S
C750 C748 1.446 . S
C750 C751 1.332 . S
C751 H731 0.931 . S
C751 C750 1.332 . S
C751 C752 1.267 . S
C752 H720 0.929 . S
C752 C751 1.267 . S
C752 C753 1.251 . S
C753 H723 0.929 . S
C753 N749 1.418 . S
C753 C752 1.251 . S
C754 H721 0.930 . S
C754 C756 1.406 . S
C754 C759 1.261 . S
C755 H722 0.930 . S
C755 N757 1.325 . S
C755 C758 1.357 . S
C756 H724 0.928 . S
C756 C754 1.406 . S
C756 N757 1.261 . S
N757 Co708 2.214 . S
N757 C755 1.325 . S
N757 C756 1.261 . S
C758 H728 0.931 . S
C758 C755 1.357 . S
C758 C759 1.312 . S
C759 H730 0.930 . S
C759 C754 1.261 . S
C759 C758 1.312 . S
C760 O732 1.214 . S
C760 O740 1.234 . S
C761 H733 0.929 . S
C761 C764 1.391 . S
C761 C766 1.391 . S
C762 H734 0.929 . S
C762 C763 1.390 . S
C762 N765 1.391 . S
C763 H735 0.930 . S
C763 C762 1.390 . S
C763 C764 1.392 . S
C764 H736 0.929 . S
C764 C761 1.391 . S
C764 C763 1.392 . S
N765 Co709 2.257 . S
N765 C762 1.391 . S
N765 C766 1.388 . S
C766 H737 0.930 . S
C766 C761 1.391 . S
C766 N765 1.388 . S
Co767 O769 2.143 . S
Co767 O775 2.074 . S
Co767 O778 2.093 . S
Co767 O791 2.097 . S
Co767 N808 2.151 . S
Co767 N816 2.214 . S
Co768 O769 2.160 . S
Co768 O774 2.058 . S
Co768 O784 2.057 . S
Co768 O799 2.037 . S
Co768 N803 2.145 . S
Co768 N824 2.257 . S
O769 Co767 2.143 . S
O769 Co768 2.160 . S
C770 O771 1.278 . S
C770 O778 1.224 . S
O771 C770 1.278 . S
C772 O773 1.245 . S
C772 O784 1.232 . S
O773 C772 1.245 . S
O774 Co768 2.058 . S
O774 C800 1.269 . S
O775 Co767 2.074 . S
O775 C800 1.257 . S
H776 C801 0.930 . S
H777 C807 0.930 . S
O778 Co767 2.093 . S
O778 C770 1.224 . S
H779 C811 0.929 . S
H780 C813 0.930 . S
H781 C814 0.930 . S
H782 C812 0.929 . S
H783 C815 0.928 . S
O784 Co768 2.057 . S
O784 C772 1.232 . S
H785 C804 0.929 . S
H786 C805 0.929 . S
H787 C817 0.931 . S
H788 C809 0.929 . S
H789 C818 0.930 . S
H790 C810 0.931 . S
O791 Co767 2.097 . S
O791 C819 1.214 . S
H792 C820 0.929 . S
H793 C821 0.929 . S
H794 C822 0.930 . S
H795 C823 0.929 . S
H796 C825 0.930 . S
H797 C802 0.930 . S
H798 C806 0.930 . S
O799 Co768 2.037 . S
O799 C819 1.234 . S
C800 O774 1.269 . S
C800 O775 1.257 . S
C801 H776 0.930 . S
C801 C804 1.388 . S
C801 C806 1.418 . S
C802 H797 0.930 . S
C802 C805 1.404 . S
C802 C806 1.353 . S
N803 Co768 2.145 . S
N803 C804 1.397 . S
N803 C805 1.334 . S
C804 H785 0.929 . S
C804 C801 1.388 . S
C804 N803 1.397 . S
C805 H786 0.929 . S
C805 C802 1.404 . S
C805 N803 1.334 . S
C806 H798 0.930 . S
C806 C801 1.418 . S
C806 C802 1.353 . S
C807 H777 0.930 . S
C807 N808 1.330 . S
C807 C809 1.446 . S
N808 Co767 2.151 . S
N808 C807 1.330 . S
N808 C812 1.418 . S
C809 H788 0.929 . S
C809 C807 1.446 . S
C809 C810 1.332 . S
C810 H790 0.931 . S
C810 C809 1.332 . S
C810 C811 1.267 . S
C811 H779 0.929 . S
C811 C810 1.267 . S
C811 C812 1.251 . S
C812 H782 0.929 . S
C812 N808 1.418 . S
C812 C811 1.251 . S
C813 H780 0.930 . S
C813 C815 1.406 . S
C813 C818 1.261 . S
C814 H781 0.930 . S
C814 N816 1.325 . S
C814 C817 1.357 . S
C815 H783 0.928 . S
C815 C813 1.406 . S
C815 N816 1.261 . S
N816 Co767 2.214 . S
N816 C814 1.325 . S
N816 C815 1.261 . S
C817 H787 0.931 . S
C817 C814 1.357 . S
C817 C818 1.312 . S
C818 H789 0.930 . S
C818 C813 1.261 . S
C818 C817 1.312 . S
C819 O791 1.214 . S
C819 O799 1.234 . S
C820 H792 0.929 . S
C820 C823 1.391 . S
C820 C825 1.391 . S
C821 H793 0.929 . S
C821 C822 1.390 . S
C821 N824 1.391 . S
C822 H794 0.930 . S
C822 C821 1.390 . S
C822 C823 1.392 . S
C823 H795 0.929 . S
C823 C820 1.391 . S
C823 C822 1.392 . S
N824 Co768 2.257 . S
N824 C821 1.391 . S
N824 C825 1.388 . S
C825 H796 0.930 . S
C825 C820 1.391 . S
C825 N824 1.388 . S
Co826 O828 2.143 . S
Co826 O834 2.074 . S
Co826 O837 2.093 . S
Co826 O850 2.097 . S
Co826 N867 2.151 . S
Co826 N875 2.214 . S
Co827 O828 2.160 . S
Co827 O833 2.058 . S
Co827 O843 2.057 . S
Co827 O858 2.037 . S
Co827 N862 2.145 . S
Co827 N883 2.257 1_455 S
O828 Co826 2.143 . S
O828 Co827 2.160 . S
C829 O830 1.278 . S
C829 O837 1.224 . S
O830 C829 1.278 . S
C831 O832 1.252 . S
C831 O843 1.233 . S
O832 C831 1.252 . S
O833 Co827 2.058 . S
O833 C859 1.269 . S
O834 Co826 2.074 . S
O834 C859 1.257 . S
H835 C860 0.930 . S
H836 C866 0.930 . S
O837 Co826 2.093 . S
O837 C829 1.224 . S
H838 C870 0.929 . S
H839 C872 0.930 . S
H840 C873 0.930 . S
H841 C871 0.929 . S
H842 C874 0.928 . S
O843 Co827 2.057 . S
O843 C831 1.233 . S
H844 C863 0.929 . S
H845 C864 0.929 . S
H846 C876 0.931 . S
H847 C868 0.929 . S
H848 C877 0.930 . S
H849 C869 0.931 . S
O850 Co826 2.097 . S
O850 C878 1.214 . S
H851 C879 0.929 . S
H852 C880 0.929 . S
H853 C881 0.930 . S
H854 C882 0.929 . S
H855 C884 0.930 . S
H856 C861 0.930 . S
H857 C865 0.930 1_655 S
O858 Co827 2.037 . S
O858 C878 1.234 . S
C859 O833 1.269 . S
C859 O834 1.257 . S
C860 H835 0.930 . S
C860 C863 1.388 . S
C860 C865 1.418 . S
C861 H856 0.930 . S
C861 C864 1.404 . S
C861 C865 1.353 1_655 S
N862 Co827 2.145 . S
N862 C863 1.397 . S
N862 C864 1.334 1_455 S
C863 H844 0.929 . S
C863 C860 1.388 . S
C863 N862 1.397 . S
C864 H845 0.929 . S
C864 C861 1.404 . S
C864 N862 1.334 1_655 S
C865 H857 0.930 1_455 S
C865 C860 1.418 . S
C865 C861 1.353 1_455 S
C866 H836 0.930 . S
C866 N867 1.330 . S
C866 C868 1.446 . S
N867 Co826 2.151 . S
N867 C866 1.330 . S
N867 C871 1.418 . S
C868 H847 0.929 . S
C868 C866 1.446 . S
C868 C869 1.332 . S
C869 H849 0.931 . S
C869 C868 1.332 . S
C869 C870 1.267 . S
C870 H838 0.929 . S
C870 C869 1.267 . S
C870 C871 1.251 . S
C871 H841 0.929 . S
C871 N867 1.418 . S
C871 C870 1.251 . S
C872 H839 0.930 . S
C872 C874 1.406 . S
C872 C877 1.261 . S
C873 H840 0.930 . S
C873 N875 1.325 . S
C873 C876 1.357 . S
C874 H842 0.928 . S
C874 C872 1.406 . S
C874 N875 1.261 . S
N875 Co826 2.214 . S
N875 C873 1.325 . S
N875 C874 1.261 . S
C876 H846 0.931 . S
C876 C873 1.357 . S
C876 C877 1.312 . S
C877 H848 0.930 . S
C877 C872 1.261 . S
C877 C876 1.312 . S
C878 O850 1.214 . S
C878 O858 1.234 . S
C879 H851 0.929 . S
C879 C882 1.391 . S
C879 C884 1.391 . S
C880 H852 0.929 . S
C880 C881 1.390 . S
C880 N883 1.391 . S
C881 H853 0.930 . S
C881 C880 1.390 . S
C881 C882 1.392 . S
C882 H854 0.929 . S
C882 C879 1.391 . S
C882 C881 1.392 . S
N883 Co827 2.257 1_655 S
N883 C880 1.391 . S
N883 C884 1.388 . S
C884 H855 0.930 . S
C884 C879 1.391 . S
C884 N883 1.388 . S
Co885 O887 2.143 . S
Co885 O893 2.074 . S
Co885 O896 2.093 . S
Co885 O909 2.097 . S
Co885 N926 2.151 . S
Co885 N934 2.214 . S
Co886 O887 2.160 . S
Co886 O892 2.058 . S
Co886 O902 2.057 . S
Co886 O917 2.037 . S
Co886 N921 2.145 . S
Co886 N942 2.257 1_545 S
O887 Co885 2.143 . S
O887 Co886 2.160 . S
C888 O889 1.278 . S
C888 O896 1.224 . S
O889 C888 1.278 . S
C890 O891 1.253 . S
C890 O902 1.233 . S
O891 C890 1.253 . S
O892 Co886 2.058 . S
O892 C918 1.269 . S
O893 Co885 2.074 . S
O893 C918 1.257 . S
H894 C919 0.930 . S
H895 C925 0.930 . S
O896 Co885 2.093 . S
O896 C888 1.224 . S
H897 C929 0.929 . S
H898 C931 0.930 . S
H899 C932 0.930 . S
H900 C930 0.929 . S
H901 C933 0.928 . S
O902 Co886 2.057 . S
O902 C890 1.233 . S
H903 C922 0.929 . S
H904 C923 0.929 . S
H905 C935 0.931 . S
H906 C927 0.929 . S
H907 C936 0.930 . S
H908 C928 0.931 . S
O909 Co885 2.097 . S
O909 C937 1.214 . S
H910 C938 0.929 . S
H911 C939 0.929 . S
H912 C940 0.930 . S
H913 C941 0.929 . S
H914 C943 0.930 . S
H915 C920 0.930 . S
H916 C924 0.930 1_565 S
O917 Co886 2.037 . S
O917 C937 1.234 . S
C918 O892 1.269 . S
C918 O893 1.257 . S
C919 H894 0.930 . S
C919 C922 1.388 . S
C919 C924 1.418 . S
C920 H915 0.930 . S
C920 C923 1.404 . S
C920 C924 1.353 1_565 S
N921 Co886 2.145 . S
N921 C922 1.397 . S
N921 C923 1.334 1_545 S
C922 H903 0.929 . S
C922 C919 1.388 . S
C922 N921 1.397 . S
C923 H904 0.929 . S
C923 C920 1.404 . S
C923 N921 1.334 1_565 S
C924 H916 0.930 1_545 S
C924 C919 1.418 . S
C924 C920 1.353 1_545 S
C925 H895 0.930 . S
C925 N926 1.330 . S
C925 C927 1.446 . S
N926 Co885 2.151 . S
N926 C925 1.330 . S
N926 C930 1.418 . S
C927 H906 0.929 . S
C927 C925 1.446 . S
C927 C928 1.332 . S
C928 H908 0.931 . S
C928 C927 1.332 . S
C928 C929 1.267 . S
C929 H897 0.929 . S
C929 C928 1.267 . S
C929 C930 1.251 . S
C930 H900 0.929 . S
C930 N926 1.418 . S
C930 C929 1.251 . S
C931 H898 0.930 . S
C931 C933 1.406 . S
C931 C936 1.261 . S
C932 H899 0.930 . S
C932 N934 1.325 . S
C932 C935 1.357 . S
C933 H901 0.928 . S
C933 C931 1.406 . S
C933 N934 1.261 . S
N934 Co885 2.214 . S
N934 C932 1.325 . S
N934 C933 1.261 . S
C935 H905 0.931 . S
C935 C932 1.357 . S
C935 C936 1.312 . S
C936 H907 0.930 . S
C936 C931 1.261 . S
C936 C935 1.312 . S
C937 O909 1.214 . S
C937 O917 1.234 . S
C938 H910 0.929 . S
C938 C941 1.391 . S
C938 C943 1.391 . S
C939 H911 0.929 . S
C939 C940 1.390 . S
C939 N942 1.391 . S
C940 H912 0.930 . S
C940 C939 1.390 . S
C940 C941 1.392 . S
C941 H913 0.929 . S
C941 C938 1.391 . S
C941 C940 1.392 . S
N942 Co886 2.257 1_565 S
N942 C939 1.391 . S
N942 C943 1.388 . S
C943 H914 0.930 . S
C943 C938 1.391 . S
C943 N942 1.388 . S
C944 C945 1.369 1_556 S
C944 C946 1.419 . S
C944 H948 0.930 . S
C945 C944 1.369 1_554 S
C945 C954 1.429 . S
C946 C944 1.419 . S
C946 C947 1.363 . S
C946 H949 0.929 . S
C947 C946 1.363 . S
C947 C953 1.428 1_556 S
H948 C944 0.930 . S
H949 C946 0.929 . S
S950 N951 1.613 . S
S950 N952 1.610 . S
N951 S950 1.613 . S
N951 C954 1.350 . S
N952 S950 1.610 . S
N952 C953 1.351 . S
C953 C947 1.428 1_554 S
C953 N952 1.351 . S
C953 C954 1.434 . S
C954 C945 1.429 . S
C954 N951 1.350 . S
C954 C953 1.434 . S
C955 C956 1.369 1_554 S
C955 C957 1.419 . S
C955 H959 0.930 . S
C956 C955 1.369 1_556 S
C956 C965 1.429 . S
C957 C955 1.419 . S
C957 C958 1.363 . S
C957 H960 0.929 . S
C958 C957 1.363 . S
C958 C964 1.428 1_554 S
H959 C955 0.930 . S
H960 C957 0.929 . S
S961 N962 1.613 . S
S961 N963 1.610 . S
N962 S961 1.613 . S
N962 C965 1.350 . S
N963 S961 1.610 . S
N963 C964 1.351 . S
C964 C958 1.428 1_556 S
C964 N963 1.351 . S
C964 C965 1.434 . S
C965 C956 1.429 . S
C965 N962 1.350 . S
C965 C964 1.434 . S
C966 C967 1.369 . S
C966 C968 1.419 . S
C966 H970 0.930 . S
C967 C966 1.369 . S
C967 C976 1.429 1_556 S
C968 C966 1.419 . S
C968 C969 1.363 1_556 S
C968 H971 0.929 . S
C969 C968 1.363 1_554 S
C969 C975 1.428 . S
H970 C966 0.930 . S
H971 C968 0.929 . S
S972 N973 1.613 . S
S972 N974 1.610 . S
N973 S972 1.613 . S
N973 C976 1.350 . S
N974 S972 1.610 . S
N974 C975 1.351 . S
C975 C969 1.428 . S
C975 N974 1.351 . S
C975 C976 1.434 . S
C976 C967 1.429 1_554 S
C976 N973 1.350 . S
C976 C975 1.434 . S
C977 C978 1.369 1_554 S
C977 C979 1.419 . S
C977 H981 0.930 . S
C978 C977 1.369 1_556 S
C978 C987 1.429 . S
C979 C977 1.419 . S
C979 C980 1.363 . S
C979 H982 0.929 . S
C980 C979 1.363 . S
C980 C986 1.428 . S
H981 C977 0.930 . S
H982 C979 0.929 . S
S983 N984 1.613 . S
S983 N985 1.610 1_556 S
N984 S983 1.613 . S
N984 C987 1.350 . S
N985 S983 1.610 1_554 S
N985 C986 1.351 . S
C986 C980 1.428 . S
C986 N985 1.351 . S
C986 C987 1.434 1_554 S
C987 C978 1.429 . S
C987 N984 1.350 . S
C987 C986 1.434 1_556 S
C988 C989 1.369 . S
C988 C990 1.419 . S
C988 H992 0.930 . S
C989 C988 1.369 . S
C989 C998 1.429 . S
C990 C988 1.419 . S
C990 C991 1.363 . S
C990 H993 0.929 . S
C991 C990 1.363 . S
C991 C997 1.428 . S
H992 C988 0.930 . S
H993 C990 0.929 . S
S994 N995 1.613 . S
S994 N996 1.610 . S
N995 S994 1.613 . S
N995 C998 1.350 . S
N996 S994 1.610 . S
N996 C997 1.351 . S
C997 C991 1.428 . S
C997 N996 1.351 . S
C997 C998 1.434 . S
C998 C989 1.429 . S
C998 N995 1.350 . S
C998 C997 1.434 . S
C999 C1000 1.369 . S
C999 C1001 1.419 . S
C999 H1003 0.930 . S
C1000 C999 1.369 . S
C1000 C1009 1.429 . S
C1001 C999 1.419 . S
C1001 C1002 1.363 . S
C1001 H1004 0.929 . S
C1002 C1001 1.363 . S
C1002 C1008 1.428 . S
H1003 C999 0.930 . S
H1004 C1001 0.929 . S
S1005 N1006 1.613 . S
S1005 N1007 1.610 . S
N1006 S1005 1.613 . S
N1006 C1009 1.350 . S
N1007 S1005 1.610 . S
N1007 C1008 1.351 . S
C1008 C1002 1.428 . S
C1008 N1007 1.351 . S
C1008 C1009 1.434 . S
C1009 C1000 1.429 . S
C1009 N1006 1.350 . S
C1009 C1008 1.434 . S
C1010 C1011 1.369 . S
C1010 C1012 1.419 . S
C1010 H1014 0.930 . S
C1011 C1010 1.369 . S
C1011 C1020 1.429 . S
C1012 C1010 1.419 . S
C1012 C1013 1.363 . S
C1012 H1015 0.929 . S
C1013 C1012 1.363 . S
C1013 C1019 1.428 . S
H1014 C1010 0.930 . S
H1015 C1012 0.929 . S
S1016 N1017 1.613 . S
S1016 N1018 1.610 . S
N1017 S1016 1.613 . S
N1017 C1020 1.350 . S
N1018 S1016 1.610 . S
N1018 C1019 1.351 . S
C1019 C1013 1.428 . S
C1019 N1018 1.351 . S
C1019 C1020 1.434 . S
C1020 C1011 1.429 . S
C1020 N1017 1.350 . S
C1020 C1019 1.434 . S
C1021 C1022 1.369 . S
C1021 C1023 1.419 . S
C1021 H1025 0.930 . S
C1022 C1021 1.369 . S
C1022 C1031 1.429 . S
C1023 C1021 1.419 . S
C1023 C1024 1.363 . S
C1023 H1026 0.929 . S
C1024 C1023 1.363 . S
C1024 C1030 1.428 . S
H1025 C1021 0.930 . S
H1026 C1023 0.929 . S
S1027 N1028 1.613 . S
S1027 N1029 1.610 . S
N1028 S1027 1.613 . S
N1028 C1031 1.350 . S
N1029 S1027 1.610 . S
N1029 C1030 1.351 . S
C1030 C1024 1.428 . S
C1030 N1029 1.351 . S
C1030 C1031 1.434 . S
C1031 C1022 1.429 . S
C1031 N1028 1.350 . S
C1031 C1030 1.434 . S
C1032 C1033 1.369 . S
C1032 C1034 1.419 . S
C1032 H1036 0.930 . S
C1033 C1032 1.369 . S
C1033 C1042 1.429 1_556 S
C1034 C1032 1.419 . S
C1034 C1035 1.363 1_556 S
C1034 H1037 0.929 . S
C1035 C1034 1.363 1_554 S
C1035 C1041 1.428 . S
H1036 C1032 0.930 . S
H1037 C1034 0.929 . S
S1038 N1039 1.613 . S
S1038 N1040 1.610 . S
N1039 S1038 1.613 . S
N1039 C1042 1.350 . S
N1040 S1038 1.610 . S
N1040 C1041 1.351 . S
C1041 C1035 1.428 . S
C1041 N1040 1.351 . S
C1041 C1042 1.434 . S
C1042 C1033 1.429 1_554 S
C1042 N1039 1.350 . S
C1042 C1041 1.434 . S
C1043 C1044 1.369 1_554 S
C1043 C1045 1.419 . S
C1043 H1047 0.930 . S
C1044 C1043 1.369 1_556 S
C1044 C1053 1.429 . S
C1045 C1043 1.419 . S
C1045 C1046 1.363 . S
C1045 H1048 0.929 . S
C1046 C1045 1.363 . S
C1046 C1052 1.428 1_554 S
H1047 C1043 0.930 . S
H1048 C1045 0.929 . S
S1049 N1050 1.613 . S
S1049 N1051 1.610 . S
N1050 S1049 1.613 . S
N1050 C1053 1.350 . S
N1051 S1049 1.610 . S
N1051 C1052 1.351 . S
C1052 C1046 1.428 1_556 S
C1052 N1051 1.351 . S
C1052 C1053 1.434 . S
C1053 C1044 1.429 . S
C1053 N1050 1.350 . S
C1053 C1052 1.434 . S
C1054 C1055 1.369 1_554 S
C1054 C1056 1.419 . S
C1054 H1058 0.930 . S
C1055 C1054 1.369 1_556 S
C1055 C1064 1.429 . S
C1056 C1054 1.419 . S
C1056 C1057 1.363 . S
C1056 H1059 0.929 . S
C1057 C1056 1.363 . S
C1057 C1063 1.428 1_554 S
H1058 C1054 0.930 . S
H1059 C1056 0.929 . S
S1060 N1061 1.613 . S
S1060 N1062 1.610 . S
N1061 S1060 1.613 . S
N1061 C1064 1.350 . S
N1062 S1060 1.610 . S
N1062 C1063 1.351 . S
C1063 C1057 1.428 1_556 S
C1063 N1062 1.351 . S
C1063 C1064 1.434 . S
C1064 C1055 1.429 . S
C1064 N1061 1.350 . S
C1064 C1063 1.434 . S
C1065 C1066 1.369 1_556 S
C1065 C1067 1.419 . S
C1065 H1069 0.930 . S
C1066 C1065 1.369 1_554 S
C1066 C1075 1.429 . S
C1067 C1065 1.419 . S
C1067 C1068 1.363 . S
C1067 H1070 0.929 . S
C1068 C1067 1.363 . S
C1068 C1074 1.428 1_556 S
H1069 C1065 0.930 . S
H1070 C1067 0.929 . S
S1071 N1072 1.613 . S
S1071 N1073 1.610 . S
N1072 S1071 1.613 . S
N1072 C1075 1.350 . S
N1073 S1071 1.610 . S
N1073 C1074 1.351 . S
C1074 C1068 1.428 1_554 S
C1074 N1073 1.351 . S
C1074 C1075 1.434 . S
C1075 C1066 1.429 . S
C1075 N1072 1.350 . S
C1075 C1074 1.434 . S
C1076 C1077 1.369 . S
C1076 C1078 1.419 . S
C1076 H1080 0.930 . S
C1077 C1076 1.369 . S
C1077 C1086 1.429 . S
C1078 C1076 1.419 . S
C1078 C1079 1.363 . S
C1078 H1081 0.929 . S
C1079 C1078 1.363 . S
C1079 C1085 1.428 . S
H1080 C1076 0.930 . S
H1081 C1078 0.929 . S
S1082 N1083 1.613 . S
S1082 N1084 1.610 . S
N1083 S1082 1.613 . S
N1083 C1086 1.350 . S
N1084 S1082 1.610 . S
N1084 C1085 1.351 . S
C1085 C1079 1.428 . S
C1085 N1084 1.351 . S
C1085 C1086 1.434 . S
C1086 C1077 1.429 . S
C1086 N1083 1.350 . S
C1086 C1085 1.434 . S
C1087 C1088 1.369 . S
C1087 C1089 1.419 . S
C1087 H1091 0.930 . S
C1088 C1087 1.369 . S
C1088 C1097 1.429 . S
C1089 C1087 1.419 . S
C1089 C1090 1.363 . S
C1089 H1092 0.929 . S
C1090 C1089 1.363 . S
C1090 C1096 1.428 . S
H1091 C1087 0.930 . S
H1092 C1089 0.929 . S
S1093 N1094 1.613 . S
S1093 N1095 1.610 . S
N1094 S1093 1.613 . S
N1094 C1097 1.350 . S
N1095 S1093 1.610 . S
N1095 C1096 1.351 . S
C1096 C1090 1.428 . S
C1096 N1095 1.351 . S
C1096 C1097 1.434 . S
C1097 C1088 1.429 . S
C1097 N1094 1.350 . S
C1097 C1096 1.434 . S
C1098 C1099 1.369 . S
C1098 C1100 1.419 . S
C1098 H1102 0.930 . S
C1099 C1098 1.369 . S
C1099 C1108 1.429 . S
C1100 C1098 1.419 . S
C1100 C1101 1.363 . S
C1100 H1103 0.929 . S
C1101 C1100 1.363 . S
C1101 C1107 1.428 . S
H1102 C1098 0.930 . S
H1103 C1100 0.929 . S
S1104 N1105 1.613 . S
S1104 N1106 1.610 . S
N1105 S1104 1.613 . S
N1105 C1108 1.350 . S
N1106 S1104 1.610 . S
N1106 C1107 1.351 . S
C1107 C1101 1.428 . S
C1107 N1106 1.351 . S
C1107 C1108 1.434 . S
C1108 C1099 1.429 . S
C1108 N1105 1.350 . S
C1108 C1107 1.434 . S
C1109 C1110 1.369 . S
C1109 C1111 1.419 . S
C1109 H1113 0.930 . S
C1110 C1109 1.369 . S
C1110 C1119 1.429 . S
C1111 C1109 1.419 . S
C1111 C1112 1.363 . S
C1111 H1114 0.929 . S
C1112 C1111 1.363 . S
C1112 C1118 1.428 . S
H1113 C1109 0.930 . S
H1114 C1111 0.929 . S
S1115 N1116 1.613 . S
S1115 N1117 1.610 . S
N1116 S1115 1.613 . S
N1116 C1119 1.350 . S
N1117 S1115 1.610 . S
N1117 C1118 1.351 . S
C1118 C1112 1.428 . S
C1118 N1117 1.351 . S
C1118 C1119 1.434 . S
C1119 C1110 1.429 . S
C1119 N1116 1.350 . S
C1119 C1118 1.434 . S
C1120 C1121 1.369 . S
C1120 C1122 1.419 1_566 S
C1120 H1124 0.930 . S
C1121 C1120 1.369 . S
C1121 C1130 1.429 . S
C1122 C1120 1.419 1_544 S
C1122 C1123 1.363 . S
C1122 H1125 0.929 . S
C1123 C1122 1.363 . S
C1123 C1129 1.428 . S
H1124 C1120 0.930 . S
H1125 C1122 0.929 . S
S1126 N1127 1.613 1_544 S
S1126 N1128 1.610 . S
N1127 S1126 1.613 1_566 S
N1127 C1130 1.350 . S
N1128 S1126 1.610 . S
N1128 C1129 1.351 . S
C1129 C1123 1.428 . S
C1129 N1128 1.351 . S
C1129 C1130 1.434 1_544 S
C1130 C1121 1.429 . S
C1130 N1127 1.350 . S
C1130 C1129 1.434 1_566 S
C1131 C1132 1.369 1_556 S
C1131 C1133 1.419 . S
C1131 H1135 0.930 . S
C1132 C1131 1.369 1_554 S
C1132 C1141 1.429 . S
C1133 C1131 1.419 . S
C1133 C1134 1.363 . S
C1133 H1136 0.929 . S
C1134 C1133 1.363 . S
C1134 C1140 1.428 1_556 S
H1135 C1131 0.930 . S
H1136 C1133 0.929 . S
S1137 N1138 1.613 . S
S1137 N1139 1.610 . S
N1138 S1137 1.613 . S
N1138 C1141 1.350 . S
N1139 S1137 1.610 . S
N1139 C1140 1.351 . S
C1140 C1134 1.428 1_554 S
C1140 N1139 1.351 . S
C1140 C1141 1.434 . S
C1141 C1132 1.429 . S
C1141 N1138 1.350 . S
C1141 C1140 1.434 . S
C1142 C1143 1.369 1_454 S
C1142 C1144 1.419 . S
C1142 H1146 0.930 . S
C1143 C1142 1.369 1_656 S
C1143 C1152 1.429 . S
C1144 C1142 1.419 . S
C1144 C1145 1.363 . S
C1144 H1147 0.929 . S
C1145 C1144 1.363 . S
C1145 C1151 1.428 1_454 S
H1146 C1142 0.930 . S
H1147 C1144 0.929 . S
S1148 N1149 1.613 . S
S1148 N1150 1.610 . S
N1149 S1148 1.613 . S
N1149 C1152 1.350 . S
N1150 S1148 1.610 . S
N1150 C1151 1.351 . S
C1151 C1145 1.428 1_656 S
C1151 N1150 1.351 . S
C1151 C1152 1.434 . S
C1152 C1143 1.429 . S
C1152 N1149 1.350 . S
C1152 C1151 1.434 . S
C1153 C1154 1.369 1_566 S
C1153 C1155 1.419 1_455 S
C1153 H1157 0.930 . S
C1154 C1153 1.369 1_544 S
C1154 C1163 1.429 . S
C1155 C1153 1.419 1_655 S
C1155 C1156 1.363 . S
C1155 H1158 0.929 . S
C1156 C1155 1.363 . S
C1156 C1162 1.428 1_566 S
H1157 C1153 0.930 . S
H1158 C1155 0.929 . S
S1159 N1160 1.613 1_655 S
S1159 N1161 1.610 . S
N1160 S1159 1.613 1_455 S
N1160 C1163 1.350 . S
N1161 S1159 1.610 . S
N1161 C1162 1.351 . S
C1162 C1156 1.428 1_544 S
C1162 N1161 1.351 . S
C1162 C1163 1.434 1_655 S
C1163 C1154 1.429 . S
C1163 N1160 1.350 . S
C1163 C1162 1.434 1_455 S
C1164 C1165 1.369 . S
C1164 C1166 1.419 . S
C1164 H1168 0.930 . S
C1165 C1164 1.369 . S
C1165 C1174 1.429 . S
C1166 C1164 1.419 . S
C1166 C1167 1.363 . S
C1166 H1169 0.929 . S
C1167 C1166 1.363 . S
C1167 C1173 1.428 . S
H1168 C1164 0.930 . S
H1169 C1166 0.929 . S
S1170 N1171 1.613 . S
S1170 N1172 1.610 . S
N1171 S1170 1.613 . S
N1171 C1174 1.350 . S
N1172 S1170 1.610 . S
N1172 C1173 1.351 . S
C1173 C1167 1.428 . S
C1173 N1172 1.351 . S
C1173 C1174 1.434 . S
C1174 C1165 1.429 . S
C1174 N1171 1.350 . S
C1174 C1173 1.434 . S
C1175 C1176 1.369 . S
C1175 C1177 1.419 1_455 S
C1175 H1179 0.930 . S
C1176 C1175 1.369 . S
C1176 C1185 1.429 . S
C1177 C1175 1.419 1_655 S
C1177 C1178 1.363 . S
C1177 H1180 0.929 . S
C1178 C1177 1.363 . S
C1178 C1184 1.428 . S
H1179 C1175 0.930 . S
H1180 C1177 0.929 . S
S1181 N1182 1.613 . S
S1181 N1183 1.610 . S
N1182 S1181 1.613 . S
N1182 C1185 1.350 . S
N1183 S1181 1.610 . S
N1183 C1184 1.351 1_455 S
C1184 C1178 1.428 . S
C1184 N1183 1.351 1_655 S
C1184 C1185 1.434 1_655 S
C1185 C1176 1.429 . S
C1185 N1182 1.350 . S
C1185 C1184 1.434 1_455 S
C1186 C1187 1.369 . S
C1186 C1188 1.419 1_565 S
C1186 H1190 0.930 . S
C1187 C1186 1.369 . S
C1187 C1196 1.429 1_655 S
C1188 C1186 1.419 1_545 S
C1188 C1189 1.363 1_655 S
C1188 H1191 0.929 . S
C1189 C1188 1.363 1_455 S
C1189 C1195 1.428 . S
H1190 C1186 0.930 . S
H1191 C1188 0.929 . S
S1192 N1193 1.613 1_545 S
S1192 N1194 1.610 . S
N1193 S1192 1.613 1_565 S
N1193 C1196 1.350 . S
N1194 S1192 1.610 . S
N1194 C1195 1.351 . S
C1195 C1189 1.428 . S
C1195 N1194 1.351 . S
C1195 C1196 1.434 1_545 S
C1196 C1187 1.429 1_455 S
C1196 N1193 1.350 . S
C1196 C1195 1.434 1_565 S
C1197 C1198 1.369 1_545 S
C1197 C1199 1.419 . S
C1197 H1201 0.930 . S
C1198 C1197 1.369 1_565 S
C1198 C1207 1.429 . S
C1199 C1197 1.419 . S
C1199 C1200 1.363 . S
C1199 H1202 0.929 . S
C1200 C1199 1.363 . S
C1200 C1206 1.428 1_545 S
H1201 C1197 0.930 . S
H1202 C1199 0.929 . S
S1203 N1204 1.613 . S
S1203 N1205 1.610 . S
N1204 S1203 1.613 . S
N1204 C1207 1.350 . S
N1205 S1203 1.610 . S
N1205 C1206 1.351 . S
C1206 C1200 1.428 1_565 S
C1206 N1205 1.351 . S
C1206 C1207 1.434 . S
C1207 C1198 1.429 . S
C1207 N1204 1.350 . S
C1207 C1206 1.434 . S
C1208 C1209 1.369 . S
C1208 C1210 1.419 . S
C1208 H1212 0.930 . S
C1209 C1208 1.369 . S
C1209 C1218 1.429 . S
C1210 C1208 1.419 . S
C1210 C1211 1.363 . S
C1210 H1213 0.929 . S
C1211 C1210 1.363 . S
C1211 C1217 1.428 . S
H1212 C1208 0.930 . S
H1213 C1210 0.929 . S
S1214 N1215 1.613 . S
S1214 N1216 1.610 . S
N1215 S1214 1.613 . S
N1215 C1218 1.350 . S
N1216 S1214 1.610 . S
N1216 C1217 1.351 . S
C1217 C1211 1.428 . S
C1217 N1216 1.351 . S
C1217 C1218 1.434 . S
C1218 C1209 1.429 . S
C1218 N1215 1.350 . S
C1218 C1217 1.434 . S
C1219 C1220 1.369 . S
C1219 C1221 1.419 . S
C1219 H1223 0.930 . S
C1220 C1219 1.369 . S
C1220 C1229 1.429 . S
C1221 C1219 1.419 . S
C1221 C1222 1.363 . S
C1221 H1224 0.929 . S
C1222 C1221 1.363 . S
C1222 C1228 1.428 . S
H1223 C1219 0.930 . S
H1224 C1221 0.929 . S
S1225 N1226 1.613 . S
S1225 N1227 1.610 . S
N1226 S1225 1.613 . S
N1226 C1229 1.350 . S
N1227 S1225 1.610 . S
N1227 C1228 1.351 . S
C1228 C1222 1.428 . S
C1228 N1227 1.351 . S
C1228 C1229 1.434 . S
C1229 C1220 1.429 . S
C1229 N1226 1.350 . S
C1229 C1228 1.434 . S
C1230 C1231 1.369 . S
C1230 C1232 1.419 . S
C1230 H1234 0.930 . S
C1231 C1230 1.369 . S
C1231 C1240 1.429 . S
C1232 C1230 1.419 . S
C1232 C1233 1.363 . S
C1232 H1235 0.929 . S
C1233 C1232 1.363 . S
C1233 C1239 1.428 . S
H1234 C1230 0.930 . S
H1235 C1232 0.929 . S
S1236 N1237 1.613 . S
S1236 N1238 1.610 . S
N1237 S1236 1.613 . S
N1237 C1240 1.350 . S
N1238 S1236 1.610 . S
N1238 C1239 1.351 . S
C1239 C1233 1.428 . S
C1239 N1238 1.351 . S
C1239 C1240 1.434 . S
C1240 C1231 1.429 . S
C1240 N1237 1.350 . S
C1240 C1239 1.434 . S
C1241 C1242 1.369 . S
C1241 C1243 1.419 . S
C1241 H1245 0.930 . S
C1242 C1241 1.369 . S
C1242 C1251 1.429 1_565 S
C1243 C1241 1.419 . S
C1243 C1244 1.363 . S
C1243 H1246 0.929 . S
C1244 C1243 1.363 . S
C1244 C1250 1.428 1_565 S
H1245 C1241 0.930 . S
H1246 C1243 0.929 . S
S1247 N1248 1.613 . S
S1247 N1249 1.610 . S
N1248 S1247 1.613 . S
N1248 C1251 1.350 . S
N1249 S1247 1.610 . S
N1249 C1250 1.351 . S
C1250 C1244 1.428 1_545 S
C1250 N1249 1.351 . S
C1250 C1251 1.434 . S
C1251 C1242 1.429 1_545 S
C1251 N1248 1.350 . S
C1251 C1250 1.434 . S
C1252 C1253 1.369 . S
C1252 C1254 1.419 . S
C1252 H1256 0.930 . S
C1253 C1252 1.369 . S
C1253 C1262 1.429 . S
C1254 C1252 1.419 . S
C1254 C1255 1.363 . S
C1254 H1257 0.929 . S
C1255 C1254 1.363 . S
C1255 C1261 1.428 . S
H1256 C1252 0.930 . S
H1257 C1254 0.929 . S
S1258 N1259 1.613 . S
S1258 N1260 1.610 . S
N1259 S1258 1.613 . S
N1259 C1262 1.350 . S
N1260 S1258 1.610 . S
N1260 C1261 1.351 . S
C1261 C1255 1.428 . S
C1261 N1260 1.351 . S
C1261 C1262 1.434 . S
C1262 C1253 1.429 . S
C1262 N1259 1.350 . S
C1262 C1261 1.434 . S
C1263 C1264 1.369 . S
C1263 C1265 1.419 . S
C1263 H1267 0.930 . S
C1264 C1263 1.369 . S
C1264 C1273 1.429 . S
C1265 C1263 1.419 . S
C1265 C1266 1.363 . S
C1265 H1268 0.929 . S
C1266 C1265 1.363 . S
C1266 C1272 1.428 . S
H1267 C1263 0.930 . S
H1268 C1265 0.929 . S
S1269 N1270 1.613 . S
S1269 N1271 1.610 . S
N1270 S1269 1.613 . S
N1270 C1273 1.350 . S
N1271 S1269 1.610 . S
N1271 C1272 1.351 . S
C1272 C1266 1.428 . S
C1272 N1271 1.351 . S
C1272 C1273 1.434 . S
C1273 C1264 1.429 . S
C1273 N1270 1.350 . S
C1273 C1272 1.434 . S
C1274 C1275 1.369 . S
C1274 C1276 1.419 . S
C1274 H1278 0.930 . S
C1275 C1274 1.369 . S
C1275 C1284 1.429 . S
C1276 C1274 1.419 . S
C1276 C1277 1.363 . S
C1276 H1279 0.929 . S
C1277 C1276 1.363 . S
C1277 C1283 1.428 . S
H1278 C1274 0.930 . S
H1279 C1276 0.929 . S
S1280 N1281 1.613 1_655 S
S1280 N1282 1.610 1_655 S
N1281 S1280 1.613 1_455 S
N1281 C1284 1.350 . S
N1282 S1280 1.610 1_455 S
N1282 C1283 1.351 . S
C1283 C1277 1.428 . S
C1283 N1282 1.351 . S
C1283 C1284 1.434 . S
C1284 C1275 1.429 . S
C1284 N1281 1.350 . S
C1284 C1283 1.434 . S
C1285 C1286 1.369 . S
C1285 C1287 1.419 . S
C1285 H1289 0.930 . S
C1286 C1285 1.369 . S
C1286 C1295 1.429 1_545 S
C1287 C1285 1.419 . S
C1287 C1288 1.363 . S
C1287 H1290 0.929 . S
C1288 C1287 1.363 . S
C1288 C1294 1.428 1_545 S
H1289 C1285 0.930 . S
H1290 C1287 0.929 . S
S1291 N1292 1.613 . S
S1291 N1293 1.610 . S
N1292 S1291 1.613 . S
N1292 C1295 1.350 . S
N1293 S1291 1.610 . S
N1293 C1294 1.351 . S
C1294 C1288 1.428 1_565 S
C1294 N1293 1.351 . S
C1294 C1295 1.434 . S
C1295 C1286 1.429 1_565 S
C1295 N1292 1.350 . S
C1295 C1294 1.434 . S
C945 C52 1.146 . S
C947 C564 1.166 . S
C956 C623 1.160 . S
C958 C111 1.153 . S
C967 C682 1.164 . S
C969 C170 1.150 . S
C978 C505 1.162 . S
C980 C229 1.153 . S
C989 C288 1.151 . S
C991 C918 1.163 . S
C1000 C741 1.159 . S
C1002 C347 1.154 . S
C1011 C800 1.166 . S
C1013 C406 1.148 . S
C1022 C859 1.166 . S
C1024 C465 1.147 . S
C1033 C524 1.150 . S
C1035 C92 1.163 . S
C1044 C583 1.147 . S
C1046 C151 1.165 . S
C1055 C642 1.150 . S
C1057 C210 1.164 . S
C1066 C33 1.159 . S
C1068 C701 1.155 . S
C1077 C760 1.154 . S
C1079 C446 1.161 . S
C1088 C819 1.152 . S
C1090 C269 1.162 . S
C1099 C328 1.160 . S
C1101 C878 1.154 . S
C1110 C937 1.153 . S
C1112 C387 1.161 . S
C1121 C477 1.841 . S
C1123 C5 1.833 . S
C1132 C64 1.833 . S
C1134 C536 1.840 . S
C1143 C595 1.840 1_655 S
C1145 C123 1.831 1_455 S
C1154 C182 1.839 1_545 S
C1156 C654 1.831 1_565 S
C1165 C713 1.839 . S
C1167 C241 1.836 . S
C1176 C300 1.835 . S
C1178 C772 1.839 . S
C1187 C831 1.834 1_655 S
C1189 C359 1.836 1_455 S
C1198 C890 1.840 1_565 S
C1200 C418 1.831 1_545 S
C1209 C239 1.659 . S
C1211 C3 1.665 . S
C1220 C298 1.658 . S
C1222 C62 1.661 . S
C1231 C121 1.658 . S
C1233 C357 1.663 . S
C1242 C416 1.663 . S
C1244 C180 1.665 . S
C1253 C475 1.661 . S
C1255 C711 1.665 . S
C1264 C770 1.664 . S
C1266 C534 1.664 . S
C1275 C829 1.665 . S
C1277 C593 1.659 . S
C1286 C888 1.665 . S
C1288 C652 1.664 . S
