# Generated by pormake.
# Topology neb, (4)-cn, num edge types: 1
# Building blocks:
#     Node 0, Type 0, BuildingBlock: QUQFOY_clean_sbu_3, # of connection points: 4
#     Node 1, Type 0, BuildingBlock: QUQFOY_clean_sbu_3, # of connection points: 4
#     Node 2, Type 0, BuildingBlock: QUQFOY_clean_sbu_3, # of connection points: 4
#     Node 3, Type 0, BuildingBlock: QUQFOY_clean_sbu_3, # of connection points: 4
#     Node 4, Type 0, BuildingBlock: QUQFOY_clean_sbu_3, # of connection points: 4
#     Node 5, Type 0, BuildingBlock: QUQFOY_clean_sbu_3, # of connection points: 4
#     Node 6, Type 0, BuildingBlock: QUQFOY_clean_sbu_3, # of connection points: 4
#     Node 7, Type 0, BuildingBlock: QUQFOY_clean_sbu_3, # of connection points: 4
#     Node 8, Type 0, BuildingBlock: QUQFOY_clean_sbu_3, # of connection points: 4
#     Node 9, Type 0, BuildingBlock: QUQFOY_clean_sbu_3, # of connection points: 4
#     Node 10, Type 0, BuildingBlock: QUQFOY_clean_sbu_3, # of connection points: 4
#     Node 11, Type 0, BuildingBlock: QUQFOY_clean_sbu_3, # of connection points: 4
#     Node 12, Type 0, BuildingBlock: QUQFOY_clean_sbu_3, # of connection points: 4
#     Node 13, Type 0, BuildingBlock: QUQFOY_clean_sbu_3, # of connection points: 4
#     Node 14, Type 0, BuildingBlock: QUQFOY_clean_sbu_3, # of connection points: 4
#     Node 15, Type 0, BuildingBlock: QUQFOY_clean_sbu_3, # of connection points: 4
#     Edge 16, Type (0, 0), BuildingBlock: XIVTED_clean_linker_0, # of connection points: 2
#     Edge 17, Type (0, 0), BuildingBlock: XIVTED_clean_linker_0, # of connection points: 2
#     Edge 18, Type (0, 0), BuildingBlock: XIVTED_clean_linker_0, # of connection points: 2
#     Edge 19, Type (0, 0), BuildingBlock: XIVTED_clean_linker_0, # of connection points: 2
#     Edge 20, Type (0, 0), BuildingBlock: XIVTED_clean_linker_0, # of connection points: 2
#     Edge 21, Type (0, 0), BuildingBlock: XIVTED_clean_linker_0, # of connection points: 2
#     Edge 22, Type (0, 0), BuildingBlock: XIVTED_clean_linker_0, # of connection points: 2
#     Edge 23, Type (0, 0), BuildingBlock: XIVTED_clean_linker_0, # of connection points: 2
#     Edge 24, Type (0, 0), BuildingBlock: XIVTED_clean_linker_0, # of connection points: 2
#     Edge 25, Type (0, 0), BuildingBlock: XIVTED_clean_linker_0, # of connection points: 2
#     Edge 26, Type (0, 0), BuildingBlock: XIVTED_clean_linker_0, # of connection points: 2
#     Edge 27, Type (0, 0), BuildingBlock: XIVTED_clean_linker_0, # of connection points: 2
#     Edge 28, Type (0, 0), BuildingBlock: XIVTED_clean_linker_0, # of connection points: 2
#     Edge 29, Type (0, 0), BuildingBlock: XIVTED_clean_linker_0, # of connection points: 2
#     Edge 30, Type (0, 0), BuildingBlock: XIVTED_clean_linker_0, # of connection points: 2
#     Edge 31, Type (0, 0), BuildingBlock: XIVTED_clean_linker_0, # of connection points: 2
#     Edge 32, Type (0, 0), BuildingBlock: XIVTED_clean_linker_0, # of connection points: 2
#     Edge 33, Type (0, 0), BuildingBlock: XIVTED_clean_linker_0, # of connection points: 2
#     Edge 34, Type (0, 0), BuildingBlock: XIVTED_clean_linker_0, # of connection points: 2
#     Edge 35, Type (0, 0), BuildingBlock: XIVTED_clean_linker_0, # of connection points: 2
#     Edge 36, Type (0, 0), BuildingBlock: XIVTED_clean_linker_0, # of connection points: 2
#     Edge 37, Type (0, 0), BuildingBlock: XIVTED_clean_linker_0, # of connection points: 2
#     Edge 38, Type (0, 0), BuildingBlock: XIVTED_clean_linker_0, # of connection points: 2
#     Edge 39, Type (0, 0), BuildingBlock: XIVTED_clean_linker_0, # of connection points: 2
#     Edge 40, Type (0, 0), BuildingBlock: XIVTED_clean_linker_0, # of connection points: 2
#     Edge 41, Type (0, 0), BuildingBlock: XIVTED_clean_linker_0, # of connection points: 2
#     Edge 42, Type (0, 0), BuildingBlock: XIVTED_clean_linker_0, # of connection points: 2
#     Edge 43, Type (0, 0), BuildingBlock: XIVTED_clean_linker_0, # of connection points: 2
#     Edge 44, Type (0, 0), BuildingBlock: XIVTED_clean_linker_0, # of connection points: 2
#     Edge 45, Type (0, 0), BuildingBlock: XIVTED_clean_linker_0, # of connection points: 2
#     Edge 46, Type (0, 0), BuildingBlock: XIVTED_clean_linker_0, # of connection points: 2
#     Edge 47, Type (0, 0), BuildingBlock: XIVTED_clean_linker_0, # of connection points: 2
# Relax obj value: 0.002
# Max RMSD: 0.027
# Mean RMSD: 0.027
data_MOF--net-neb--node1-QUQFOY_clean_sbu_3--edge1-XIVTED_clean_linker_0
_symmetry_space_group_name_H-M    P1
_symmetry_Int_Tables_number       1
_symmetry_cell_setting            triclinic
loop_
_symmetry_equiv_pos_as_xyz
'x, y, z'
_cell_length_a     43.758557
_cell_length_b     23.379847
_cell_length_c     78.935681
_cell_angle_alpha  89.954748
_cell_angle_beta   94.115751
_cell_angle_gamma 90.22783
loop_
_atom_site_label
_atom_site_type_symbol
_atom_site_fract_x
_atom_site_fract_y
_atom_site_fract_z
_atom_type_partial_charge
C0 C 0.19355 0.11047 0.46072 0.0
O1 O 0.20875 0.08465 0.44995 0.0
Cd2 Cd 0.18571 0.02112 0.42841 0.0
O3 O 0.16487 0.10208 0.46098 0.0
Cd4 Cd 0.12475 0.04469 0.44562 0.0
C5 C 0.13355 0.11129 0.4083 0.0
O6 O 0.15157 0.95405 0.44027 0.0
O7 O 0.10629 0.96752 0.42792 0.0
O8 O 0.10361 0.01957 0.47223 0.0
C9 C 0.12887 0.93455 0.43106 0.0
O10 O 0.15769 0.08139 0.40765 0.0
C11 C 0.07721 0.03991 0.46824 0.0
O12 O 0.11797 0.1096 0.42132 0.0
O13 O 0.07329 0.06461 0.45391 0.0
C14 C 0.04732 0.0999 0.79417 0.0
O15 O 0.03229 0.07204 0.80464 0.0
Cd16 Cd 0.05638 0.00574 0.82508 0.0
O17 O 0.07595 0.09195 0.79359 0.0
Cd18 Cd 0.11715 0.03371 0.80721 0.0
C19 C 0.10947 0.09428 0.84558 0.0
O20 O 0.09019 0.94243 0.81157 0.0
O21 O 0.13647 0.95271 0.82294 0.0
O22 O 0.1365 0.01635 0.7796 0.0
C23 C 0.11322 0.92091 0.81997 0.0
O24 O 0.08525 0.06416 0.84614 0.0
C25 C 0.16296 0.03697 0.78348 0.0
O26 O 0.12467 0.09429 0.8324 0.0
O27 O 0.16783 0.05757 0.79832 0.0
C28 C 0.77915 0.8726 0.5306 0.0
O29 O 0.76249 0.89386 0.54147 0.0
Cd30 Cd 0.78544 0.93098 0.56799 0.0
O31 O 0.80814 0.87546 0.53293 0.0
Cd32 Cd 0.84678 0.91659 0.5535 0.0
C33 C 0.83054 0.81937 0.58237 0.0
O34 O 0.82434 0.00342 0.56578 0.0
O35 O 0.86394 0.96347 0.57901 0.0
O36 O 0.87127 0.96575 0.53102 0.0
C37 C 0.84574 0.00545 0.57761 0.0
O38 O 0.80681 0.84971 0.58393 0.0
C39 C 0.89696 0.94117 0.53373 0.0
O40 O 0.84918 0.83135 0.57121 0.0
O41 O 0.8991 0.90367 0.54541 0.0
C42 C 0.95576 0.88131 0.2085 0.0
O43 O 0.97241 0.9034 0.1977 0.0
Cd44 Cd 0.94915 0.94562 0.17191 0.0
O45 O 0.92681 0.88545 0.20647 0.0
Cd46 Cd 0.88819 0.92986 0.18671 0.0
C47 C 0.9026 0.83755 0.15618 0.0
O48 O 0.9112 0.01845 0.17548 0.0
O49 O 0.87048 0.98177 0.16227 0.0
O50 O 0.86454 0.97468 0.21015 0.0
C51 C 0.8893 0.02298 0.16402 0.0
O52 O 0.92649 0.86796 0.15478 0.0
C53 C 0.83869 0.95046 0.20722 0.0
O54 O 0.88463 0.84763 0.16779 0.0
O55 O 0.83611 0.91529 0.19493 0.0
C56 C 0.20192 0.60322 0.9512 0.0
O57 O 0.2185 0.57694 0.94121 0.0
Cd58 Cd 0.19681 0.5107 0.91993 0.0
O59 O 0.17332 0.59312 0.95084 0.0
Cd60 Cd 0.13465 0.53206 0.93584 0.0
C61 C 0.14422 0.59663 0.89837 0.0
O62 O 0.16317 0.4423 0.93181 0.0
O63 O 0.1181 0.45223 0.9188 0.0
O64 O 0.1134 0.50967 0.96261 0.0
C65 C 0.14103 0.4207 0.9226 0.0
O66 O 0.169 0.56826 0.89833 0.0
C67 C 0.08671 0.52794 0.95824 0.0
O68 O 0.12788 0.5946 0.91107 0.0
O69 O 0.08257 0.55003 0.94355 0.0
C70 C 0.0463 0.61191 0.29723 0.0
O71 O 0.02927 0.58666 0.30727 0.0
Cd72 Cd 0.05033 0.52378 0.32957 0.0
O73 O 0.07492 0.60228 0.29813 0.0
Cd74 Cd 0.113 0.54338 0.31421 0.0
C75 C 0.10244 0.61276 0.35065 0.0
O76 O 0.08438 0.4538 0.3191 0.0
O77 O 0.12923 0.46612 0.33226 0.0
O78 O 0.13336 0.5179 0.28758 0.0
C79 C 0.10637 0.43383 0.32873 0.0
O80 O 0.07757 0.58431 0.35065 0.0
C81 C 0.1603 0.53609 0.2915 0.0
O82 O 0.11938 0.60934 0.33823 0.0
O83 O 0.16519 0.55934 0.306 0.0
C84 C 0.79101 0.38219 0.02953 0.0
O85 O 0.77557 0.40597 0.04055 0.0
Cd86 Cd 0.80074 0.4493 0.06567 0.0
O87 O 0.82007 0.38513 0.03087 0.0
Cd88 Cd 0.86087 0.4292 0.04943 0.0
C89 C 0.8465 0.33973 0.08092 0.0
O90 O 0.83982 0.51899 0.06069 0.0
O91 O 0.88111 0.48237 0.07313 0.0
O92 O 0.88366 0.47126 0.02519 0.0
C93 C 0.86243 0.5236 0.07172 0.0
O94 O 0.82327 0.3713 0.08259 0.0
C95 C 0.90921 0.44604 0.02778 0.0
O96 O 0.86398 0.34836 0.06895 0.0
O97 O 0.91195 0.4115 0.04022 0.0
C98 C 0.94551 0.37383 0.71057 0.0
O99 O 0.96045 0.39747 0.69927 0.0
Cd100 Cd 0.93456 0.43662 0.67382 0.0
O101 O 0.91641 0.37524 0.70942 0.0
Cd102 Cd 0.87463 0.41625 0.69091 0.0
C103 C 0.88903 0.32338 0.66041 0.0
O104 O 0.89506 0.50492 0.67857 0.0
O105 O 0.85375 0.46628 0.66667 0.0
O106 O 0.8523 0.45982 0.71501 0.0
C107 C 0.87245 0.50781 0.66749 0.0
O108 O 0.91209 0.35524 0.65825 0.0
C109 C 0.82686 0.43362 0.71286 0.0
O110 O 0.87158 0.33324 0.6723 0.0
O111 O 0.82393 0.39804 0.70068 0.0
C112 C 0.69111 0.09681 0.94852 0.0
O113 O 0.70687 0.06971 0.93828 0.0
Cd114 Cd 0.68436 4e-05 0.91823 0.0
O115 O 0.66266 0.08642 0.94904 0.0
Cd116 Cd 0.62289 0.02426 0.93556 0.0
C117 C 0.63014 0.08286 0.89681 0.0
O118 O 0.65168 0.93477 0.93209 0.0
O119 O 0.60527 0.94037 0.92059 0.0
O120 O 0.60294 0.00818 0.9631 0.0
C121 C 0.62911 0.91071 0.92387 0.0
O122 O 0.6549 0.05454 0.89651 0.0
C123 C 0.57637 0.02727 0.95882 0.0
O124 O 0.61483 0.08248 0.90993 0.0
O125 O 0.57168 0.04614 0.94376 0.0
C126 C 0.54475 0.10617 0.28302 0.0
O127 O 0.52874 0.07952 0.2933 0.0
Cd128 Cd 0.55002 0.01126 0.31399 0.0
O129 O 0.57328 0.09637 0.28284 0.0
Cd130 Cd 0.61208 0.03531 0.2976 0.0
C131 C 0.60306 0.09624 0.33572 0.0
O132 O 0.58332 0.94526 0.30124 0.0
O133 O 0.62884 0.95365 0.31381 0.0
O134 O 0.63328 0.01553 0.2707 0.0
C135 C 0.6055 0.92274 0.31011 0.0
O136 O 0.57845 0.06704 0.33581 0.0
C137 C 0.65996 0.03396 0.2752 0.0
O138 O 0.61896 0.09598 0.32282 0.0
O139 O 0.66409 0.05497 0.29003 0.0
C140 C 0.28745 0.89908 0.03373 0.0
O141 O 0.27015 0.9242 0.04357 0.0
Cd142 Cd 0.2908 0.97589 0.0682 0.0
O143 O 0.31636 0.90498 0.03588 0.0
Cd144 Cd 0.35389 0.95827 0.05458 0.0
C145 C 0.3389 0.87438 0.08701 0.0
O146 O 0.32821 0.04723 0.06229 0.0
O147 O 0.36593 0.01662 0.07911 0.0
O148 O 0.37854 -0.00263 0.03057 0.0
C149 C 0.34688 0.05588 0.07513 0.0
O150 O 0.31475 0.90452 0.08742 0.0
C151 C 0.40461 0.9757 0.03458 0.0
O152 O 0.35711 0.8814 0.0753 0.0
O153 O 0.40712 0.94532 0.04796 0.0
C154 C 0.45416 0.89472 0.71296 0.0
O155 O 0.47185 0.91936 0.70319 0.0
Cd156 Cd 0.45214 0.96959 0.67815 0.0
O157 O 0.4253 0.90066 0.71056 0.0
Cd158 Cd 0.38878 0.95391 0.6913 0.0
C159 C 0.4036 0.8676 0.65956 0.0
O160 O 0.41518 0.04209 0.68313 0.0
O161 O 0.37807 0.00961 0.66611 0.0
O162 O 0.36433 -0.0034 0.71477 0.0
C163 C 0.39698 0.04942 0.67002 0.0
O164 O 0.42801 0.89738 0.65922 0.0
C165 C 0.33797 0.97566 0.71086 0.0
O166 O 0.38509 0.87552 0.67106 0.0
O167 O 0.33521 0.94372 0.69781 0.0
C168 C 0.68711 0.60601 0.44157 0.0
O169 O 0.70395 0.58055 0.43154 0.0
Cd170 Cd 0.68291 0.51418 0.41012 0.0
O171 O 0.6586 0.59506 0.44116 0.0
Cd172 Cd 0.6202 0.53338 0.4262 0.0
C173 C 0.6291 0.59871 0.38878 0.0
O174 O 0.64993 0.44526 0.42221 0.0
O175 O 0.60441 0.45201 0.40955 0.0
O176 O 0.60081 0.51128 0.45338 0.0
C177 C 0.62807 0.42215 0.41315 0.0
O178 O 0.65417 0.57123 0.38877 0.0
C179 C 0.57366 0.52798 0.44945 0.0
O180 O 0.61269 0.59601 0.40145 0.0
O181 O 0.56819 0.54881 0.43467 0.0
C182 C 0.54133 0.59748 0.79417 0.0
O183 O 0.52453 0.57115 0.80411 0.0
Cd184 Cd 0.54573 0.50264 0.82482 0.0
O185 O 0.56975 0.58631 0.79433 0.0
Cd186 Cd 0.60776 0.52308 0.80873 0.0
C187 C 0.59983 0.5852 0.84669 0.0
O188 O 0.578 0.43396 0.81222 0.0
O189 O 0.62338 0.44127 0.82508 0.0
O190 O 0.62824 0.50183 0.78171 0.0
C191 C 0.59998 0.41081 0.82111 0.0
O192 O 0.57472 0.55751 0.84671 0.0
C193 C 0.6552 0.5192 0.78602 0.0
O194 O 0.61585 0.58367 0.83385 0.0
O195 O 0.65989 0.5403 0.80081 0.0
C196 C 0.29596 0.3956 0.54133 0.0
O197 O 0.28278 0.41691 0.55367 0.0
Cd198 Cd 0.31077 0.47194 0.57598 0.0
O199 O 0.32438 0.40415 0.54006 0.0
Cd200 Cd 0.36735 0.45321 0.55517 0.0
C201 C 0.36292 0.37276 0.59035 0.0
O202 O 0.34466 0.54267 0.56536 0.0
O203 O 0.39048 0.51907 0.57515 0.0
O204 O 0.3852 0.48574 0.5283 0.0
C205 C 0.36906 0.55542 0.57435 0.0
O206 O 0.34076 0.40475 0.59385 0.0
C207 C 0.41127 0.46213 0.53051 0.0
O208 O 0.37508 0.37732 0.57623 0.0
O209 O 0.41654 0.43331 0.54405 0.0
C210 C 0.44455 0.4007 0.20532 0.0
O211 O 0.4581 0.42131 0.19298 0.0
Cd212 Cd 0.43082 0.47617 0.17044 0.0
O213 O 0.41617 0.40969 0.20641 0.0
Cd214 Cd 0.37394 0.45845 0.19077 0.0
C215 C 0.37876 0.37672 0.15594 0.0
O216 O 0.39724 0.54783 0.18063 0.0
O217 O 0.35165 0.52366 0.17042 0.0
O218 O 0.35548 0.49184 0.21736 0.0
C219 C 0.37305 0.56036 0.17147 0.0
O220 O 0.40101 0.40879 0.15243 0.0
C221 C 0.32928 0.46846 0.21495 0.0
O222 O 0.36641 0.38165 0.16999 0.0
O223 O 0.32425 0.43927 0.20147 0.0
H224 H 0.23584 0.35961 0.54056 0.0
H225 H 0.25346 0.1463 0.46245 0.0
H226 H 0.31805 0.34382 0.51377 0.0
H227 H 0.16844 0.17036 0.48609 0.0
H228 H 0.27758 0.21781 0.4816 0.0
H229 H 0.21043 0.29058 0.52085 0.0
C230 C 0.24847 0.34202 0.53049 0.0
C231 C 0.27916 0.35747 0.52888 0.0
C232 C 0.25364 0.20746 0.48261 0.0
C233 C 0.25036 0.27817 0.50639 0.0
C234 C 0.23987 0.16643 0.4717 0.0
C235 C 0.20887 0.1522 0.47264 0.0
C236 C 0.23634 0.23446 0.49461 0.0
C237 C 0.19241 0.17993 0.48488 0.0
C238 C 0.234 0.3025 0.51927 0.0
C239 C 0.29441 0.33316 0.51557 0.0
N240 N 0.20634 0.21969 0.49538 0.0
N241 N 0.27991 0.29464 0.50493 0.0
H242 H 0.89814 0.01642 0.50729 0.0
H243 H 0.07801 0.98154 0.49826 0.0
H244 H 0.95598 0.903 0.53846 0.0
H245 H 0.01815 0.0775 0.46297 0.0
H246 H 0.03432 0.95929 0.5147 0.0
H247 H 0.9425 0.04485 0.49214 0.0
C248 C 0.92017 -0.00264 0.51091 0.0
C249 C 0.92338 0.95713 0.52411 0.0
C250 C 0.03076 -0.01456 0.50341 0.0
C251 C 0.97426 -0.0102 0.50692 0.0
C252 C 0.05572 -0.0016 0.49406 0.0
C253 C 0.05166 0.03121 0.47918 0.0
C254 C 0.00154 0.00551 0.49786 0.0
C255 C 0.02228 0.05191 0.47434 0.0
C256 C 0.94549 0.0137 0.50228 0.0
C257 C 0.95247 0.93398 0.52831 0.0
N258 N -0.00171 0.0385 0.48362 0.0
N259 N 0.97681 0.95071 0.51975 0.0
H260 H 0.33806 0.04023 0.73966 0.0
H261 H 0.16002 -0.01048 0.75175 0.0
H262 H 0.27838 0.94006 0.70521 0.0
H263 H 0.22179 0.0768 0.7883 0.0
H264 H 0.20208 0.97785 0.73332 0.0
H265 H 0.29478 0.06009 0.75655 0.0
C266 C 0.31582 0.02243 0.73563 0.0
C267 C 0.31183 -0.01179 0.72105 0.0
C268 C 0.20639 -0.0002 0.74533 0.0
C269 C 0.26215 0.01092 0.74031 0.0
C270 C 0.18238 0.00664 0.75584 0.0
C271 C 0.18748 0.03393 0.77162 0.0
C272 C 0.2357 0.02043 0.75065 0.0
C273 C 0.21688 0.05531 0.77627 0.0
C274 C 0.29111 0.03384 0.74528 0.0
C275 C 0.2825 0.96646 0.71641 0.0
N276 N 0.23992 0.04788 0.76585 0.0
N277 N 0.25876 0.97811 0.72603 0.0
H278 H 0.98661 0.13098 0.79164 0.0
H279 H 0.00722 0.35382 0.71609 0.0
H280 H 0.07308 0.16713 0.77063 0.0
H281 H 0.92034 0.31679 0.73651 0.0
H282 H 0.03228 0.29021 0.73732 0.0
H283 H 0.96224 0.2025 0.77255 0.0
C284 C 0.00047 0.15387 0.78303 0.0
C285 C 0.03192 0.14276 0.7827 0.0
C286 C 0.00775 0.29628 0.73722 0.0
C287 C 0.00421 0.22485 0.76087 0.0
C288 C 0.99344 0.33279 0.72513 0.0
C289 C 0.96158 0.34042 0.72442 0.0
C290 C 0.9901 0.26707 0.74867 0.0
C291 C 0.94493 0.31201 0.7365 0.0
C292 C 0.98656 0.19482 0.77215 0.0
C293 C 0.04875 0.174 0.77131 0.0
N294 N 0.95935 0.27636 0.74804 0.0
N295 N 0.03469 0.21346 0.76084 0.0
H296 H 0.8083 0.82347 0.50478 0.0
H297 H 0.65702 0.66884 0.46431 0.0
H298 H 0.71838 0.84762 0.52282 0.0
H299 H 0.74706 0.64158 0.44675 0.0
H300 H 0.67873 0.73881 0.48465 0.0
H301 H 0.78579 0.76228 0.48215 0.0
C302 C 0.78376 0.81634 0.50392 0.0
C303 C 0.76523 0.84047 0.51583 0.0
C304 C 0.69376 0.71767 0.47633 0.0
C305 C 0.73935 0.76994 0.48995 0.0
C306 C 0.68139 0.67754 0.46471 0.0
C307 C 0.70028 0.64894 0.45383 0.0
C308 C 0.7253 0.72943 0.47717 0.0
C309 C 0.73165 0.66235 0.45492 0.0
C310 C 0.77094 0.78123 0.49099 0.0
C311 C 0.73358 0.82982 0.51398 0.0
N312 N 0.74319 0.70151 0.46643 0.0
N313 N 0.72168 0.79504 0.50137 0.0
H314 H 0.65851 0.98341 0.24398 0.0
H315 H 0.83848 0.01961 0.23511 0.0
H316 H 0.71952 0.06874 0.28135 0.0
H317 H 0.77944 0.9133 0.20208 0.0
H318 H 0.79457 0.0443 0.25105 0.0
H319 H 0.7019 0.96497 0.22703 0.0
C320 C 0.68101 -0.00129 0.24855 0.0
C321 C 0.68547 0.02742 0.26414 0.0
C322 C 0.79123 0.01552 0.24033 0.0
C323 C 0.73524 0.00609 0.24486 0.0
C324 C 0.81628 0.00134 0.23124 0.0
C325 C 0.81259 0.96419 0.21729 0.0
C326 C 0.76226 -0.00739 0.23538 0.0
C327 C 0.78332 0.94191 0.2128 0.0
C328 C 0.70579 -0.01207 0.2389 0.0
C329 C 0.71509 0.04629 0.26943 0.0
N330 N 0.75926 0.95654 0.22181 0.0
N331 N 0.7389 0.03509 0.25983 0.0
H332 H 0.92654 0.83106 0.23417 0.0
H333 H 0.07658 0.67227 0.27387 0.0
H334 H 0.01625 0.85296 0.21553 0.0
H335 H 0.9865 0.64712 0.29175 0.0
H336 H 0.05525 0.74158 0.25326 0.0
H337 H 0.94861 0.76786 0.25633 0.0
C338 C 0.95095 0.82294 0.23479 0.0
C339 C 0.96955 0.8472 0.22288 0.0
C340 C 0.04013 0.72099 0.26169 0.0
C341 C -0.00506 0.77433 0.24824 0.0
C342 C 0.05228 0.68124 0.27348 0.0
C343 C 0.03328 0.65357 0.28456 0.0
C344 C 0.00871 0.73335 0.26093 0.0
C345 C 0.002 0.6672 0.28344 0.0
C346 C 0.96351 0.78667 0.24745 0.0
C347 C 0.00102 0.83518 0.2244 0.0
N348 N 0.99069 0.70608 0.27182 0.0
N349 N 0.01269 0.79934 0.23679 0.0
H350 H 0.22704 0.87097 0.02641 0.0
H351 H 0.26198 0.63876 0.95576 0.0
H352 H 0.31781 0.83692 0.01082 0.0
H353 H 0.17232 0.66865 0.97351 0.0
H354 H 0.28281 0.71362 0.97501 0.0
H355 H 0.20634 0.80029 0.0059 0.0
C356 C 0.24261 0.84896 0.0186 0.0
C357 C 0.27424 0.8598 0.02041 0.0
C358 C 0.25858 0.70372 0.97467 0.0
C359 C 0.25069 0.77837 -0.00305 0.0
C360 C 0.24669 0.6609 0.96371 0.0
C361 C 0.21536 0.64723 0.96302 0.0
C362 C 0.23899 0.73312 0.98499 0.0
C363 C 0.19663 0.67753 0.9736 0.0
C364 C 0.23078 0.80842 0.00691 0.0
C365 C 0.29328 0.82988 0.00991 0.0
N366 N 0.20872 0.71897 0.98411 0.0
N367 N 0.28123 0.79039 -0.00132 0.0
H368 H 0.08825 0.47522 0.98917 0.0
H369 H 0.90906 0.51412 -0.0004 0.0
H370 H 0.02719 0.56262 0.95244 0.0
H371 H 0.968 0.4067 0.03212 0.0
H372 H 0.95257 0.53736 0.98308 0.0
H373 H 0.04506 0.45612 0.00627 0.0
C374 C 0.06578 0.49078 0.98476 0.0
C375 C 0.06126 0.52038 0.96933 0.0
C376 C 0.95596 0.5086 0.9938 0.0
C377 C 0.0117 0.49832 0.98879 0.0
C378 C 0.93113 0.49524 0.00322 0.0
C379 C 0.93493 0.45831 0.01723 0.0
C380 C 0.98482 0.4851 -0.00152 0.0
C381 C 0.96404 0.4352 0.02138 0.0
C382 C 0.04111 0.47962 0.9945 0.0
C383 C 0.03167 0.53952 0.96424 0.0
N384 N 0.9879 0.4491 0.01206 0.0
N385 N 0.00797 0.52801 0.97393 0.0
H386 H 0.33354 0.52746 0.24497 0.0
H387 H 0.15629 0.48428 0.26048 0.0
H388 H 0.27026 0.4294 0.21195 0.0
H389 H 0.22049 0.56908 0.2963 0.0
H390 H 0.19768 0.46698 0.24209 0.0
H391 H 0.29247 0.54515 0.26372 0.0
C392 C 0.31105 0.50942 0.24171 0.0
C393 C 0.30527 0.47694 0.22688 0.0
C394 C 0.20276 0.48943 0.25396 0.0
C395 C 0.25821 0.49735 0.24818 0.0
C396 C 0.1791 0.49951 0.26445 0.0
C397 C 0.18498 0.52814 0.27995 0.0
C398 C 0.23255 0.50819 0.25897 0.0
C399 C 0.21497 0.54684 0.28445 0.0
C400 C 0.28762 0.51961 0.2524 0.0
C401 C 0.27573 0.45465 0.22326 0.0
N402 N 0.23769 0.53648 0.274 0.0
N403 N 0.25328 0.46544 0.23381 0.0
H404 H 0.66353 0.16299 0.9715 0.0
H405 H 0.81725 0.32802 0.00354 0.0
H406 H 0.75109 0.13346 0.95111 0.0
H407 H 0.72991 0.35496 0.02444 0.0
H408 H 0.79275 0.26162 0.98294 0.0
H409 H 0.68695 0.23708 0.98987 0.0
C410 C 0.68772 0.17201 0.97087 0.0
C411 C 0.7054 0.14163 0.95977 0.0
C412 C 0.77889 0.28229 0.99196 0.0
C413 C 0.73238 0.2269 0.98082 0.0
C414 C 0.79284 0.32039 0.00372 0.0
C415 C 0.77565 0.34689 0.01585 0.0
C416 C 0.74749 0.27035 0.99231 0.0
C417 C 0.7441 0.33544 0.01538 0.0
C418 C 0.70107 0.21451 0.98137 0.0
C419 C 0.7366 0.15554 0.95951 0.0
N420 N 0.73108 0.29773 0.00388 0.0
N421 N 0.7491 0.19709 0.96991 0.0
H422 H 0.71484 0.55463 0.79126 0.0
H423 H 0.7682 0.39238 0.70933 0.0
H424 H 0.6528 0.46575 0.75521 0.0
H425 H 0.82769 0.50291 0.74077 0.0
H426 H 0.726 0.41601 0.7267 0.0
H427 H 0.75685 0.53471 0.77333 0.0
C428 C 0.71002 0.5313 0.77951 0.0
C429 C 0.68032 0.5117 0.77473 0.0
C430 C 0.74829 0.43513 0.72979 0.0
C431 C 0.72824 0.48827 0.75428 0.0
C432 C 0.77241 0.42144 0.71994 0.0
C433 C 0.80148 0.44568 0.72363 0.0
C434 C 0.75332 0.4731 0.7435 0.0
C435 C 0.80563 0.48324 0.73748 0.0
C436 C 0.734 0.51986 0.7693 0.0
C437 C 0.67536 0.48165 0.75939 0.0
N438 N 0.7818 0.49574 0.74693 0.0
N439 N 0.69912 0.47057 0.74976 0.0
H440 H 0.51776 0.06683 0.95345 0.0
H441 H 0.4637 0.93858 0.04046 0.0
H442 H 0.57867 0.9821 0.99084 0.0
H443 H 0.40489 0.03528 0.00483 0.0
H444 H 0.50633 0.9548 0.02262 0.0
H445 H 0.4763 0.05707 0.97238 0.0
C446 C 0.52245 0.04647 0.96569 0.0
C447 C 0.55166 0.02507 0.97057 0.0
C448 C 0.48411 0.9726 0.01874 0.0
C449 C 0.5043 0.01341 0.99224 0.0
C450 C 0.45977 0.96326 0.0289 0.0
C451 C 0.43071 -0.01452 0.02409 0.0
C452 C 0.4793 0.0042 0.00364 0.0
C453 C 0.42691 0.01727 0.00901 0.0
C454 C 0.49877 0.04087 0.97649 0.0
C455 C 0.55647 -0.00086 0.98657 0.0
N456 N 0.45091 0.02553 -0.00071 0.0
N457 N 0.53297 -0.00624 -0.00319 0.0
H458 H 0.42205 0.35258 0.2334 0.0
H459 H 0.57158 0.16676 0.2583 0.0
H460 H 0.50374 0.36059 0.20584 0.0
H461 H 0.48592 0.14698 0.28169 0.0
H462 H 0.54847 0.24169 0.24009 0.0
H463 H 0.4468 0.28254 0.25255 0.0
C464 C 0.44531 0.33994 0.23142 0.0
C465 C 0.46077 0.36238 0.21789 0.0
C466 C 0.53473 0.22092 0.24919 0.0
C467 C 0.48923 0.28152 0.23983 0.0
C468 C 0.54788 0.17804 0.2596 0.0
C469 C 0.53064 0.15035 0.27155 0.0
C470 C 0.50413 0.2365 0.25076 0.0
C471 C 0.50006 0.16693 0.27264 0.0
C472 C 0.4594 0.29969 0.24237 0.0
C473 C 0.49093 0.34441 0.21607 0.0
N474 N 0.48782 0.20895 0.2624 0.0
N475 N 0.50414 0.3048 0.22688 0.0
H476 H 0.42298 0.83384 0.73597 0.0
H477 H 0.57174 0.66379 0.77233 0.0
H478 H 0.51422 0.86571 0.72054 0.0
H479 H 0.48164 0.63465 0.78975 0.0
H480 H 0.55085 0.7391 0.75371 0.0
H481 H 0.44394 0.76312 0.75639 0.0
C482 C 0.44745 0.82635 0.73695 0.0
C483 C 0.46685 0.85565 0.72644 0.0
C484 C 0.5356 0.71636 0.7616 0.0
C485 C 0.49092 0.77435 0.74973 0.0
C486 C 0.5475 0.67311 0.77223 0.0
C487 C 0.5284 0.64259 0.78262 0.0
C488 C 0.50428 0.72937 0.76124 0.0
C489 C 0.49721 0.65692 0.78194 0.0
C490 C 0.45938 0.78583 0.7486 0.0
C491 C 0.49836 0.84414 0.72832 0.0
N492 N 0.4861 0.69924 0.77141 0.0
N493 N 0.50936 0.8042 0.73966 0.0
H494 H 0.47002 0.42244 0.533 0.0
H495 H 0.51342 0.56003 0.44496 0.0
H496 H 0.4063 0.51968 0.50023 0.0
H497 H 0.57867 0.47935 0.48093 0.0
H498 H 0.47328 0.54335 0.46447 0.0
H499 H 0.50951 0.43936 0.51327 0.0
C500 C 0.4643 0.44714 0.5216 0.0
C501 C 0.43485 0.46975 0.51825 0.0
C502 C 0.49641 0.52949 0.4681 0.0
C503 C 0.47999 0.48954 0.49564 0.0
C504 C 0.51932 0.53906 0.45699 0.0
C505 C 0.5494 0.52103 0.46134 0.0
C506 C 0.50367 0.50146 0.48361 0.0
C507 C 0.55579 0.494 0.47706 0.0
C508 C 0.48689 0.45698 0.51037 0.0
C509 C 0.42873 0.50151 0.5033 0.0
N510 N 0.5331 0.48489 0.4876 0.0
N511 N 0.45114 0.51052 0.49254 0.0
H512 H 0.15366 0.68116 0.35582 0.0
H513 H 0.08042 0.86349 0.42612 0.0
H514 H 0.0702 0.63295 0.37834 0.0
H515 H 0.17649 0.87769 0.4179 0.0
H516 H 0.07731 0.77656 0.40911 0.0
H517 H 0.16394 0.75138 0.3786 0.0
C518 C 0.13766 0.68492 0.3656 0.0
C519 C 0.11076 0.65175 0.365 0.0
C520 C 0.09925 0.79796 0.41121 0.0
C521 C 0.12239 0.73172 0.39098 0.0
C522 C 0.10099 0.84757 0.4209 0.0
C523 C 0.1287 0.87755 0.42329 0.0
C524 C 0.12525 0.77897 0.40345 0.0
C525 C 0.15475 0.85536 0.41633 0.0
C526 C 0.14363 0.72476 0.37863 0.0
C527 C 0.09101 0.65804 0.37811 0.0
N528 N 0.15228 0.80775 0.40639 0.0
N529 N 0.09704 0.6977 0.39042 0.0
H530 H 0.0834 0.18213 0.40443 0.0
H531 H 0.15332 0.35963 0.33194 0.0
H532 H 0.16305 0.1283 0.37941 0.0
H533 H 0.05875 0.37903 0.34274 0.0
H534 H 0.15599 0.27187 0.34862 0.0
H535 H 0.07224 0.25204 0.38169 0.0
C536 C 0.09836 0.18458 0.39411 0.0
C537 C 0.12452 0.14996 0.394 0.0
C538 C 0.13443 0.29456 0.34715 0.0
C539 C 0.11187 0.2296 0.36804 0.0
C540 C 0.13294 0.34461 0.33764 0.0
C541 C 0.10583 0.37627 0.33608 0.0
C542 C 0.10885 0.27692 0.35559 0.0
C543 C 0.08002 0.35533 0.34365 0.0
C544 C 0.09187 0.22425 0.38109 0.0
C545 C 0.14289 0.15457 0.3802 0.0
N546 N 0.08231 0.30732 0.35343 0.0
N547 N 0.13643 0.19414 0.36792 0.0
H548 H 0.0804 0.10934 0.87472 0.0
H549 H 0.18933 0.36399 0.91012 0.0
H550 H 0.16009 0.16447 0.84971 0.0
H551 H 0.09374 0.3464 0.91918 0.0
H552 H 0.18605 0.2738 0.8939 0.0
H553 H 0.09281 0.17891 0.89713 0.0
C554 C 0.1007 0.13564 0.87399 0.0
C555 C 0.11889 0.13183 0.86011 0.0
C556 C 0.16603 0.28933 0.89975 0.0
C557 C 0.13322 0.21145 0.88582 0.0
C558 C 0.16794 0.34031 0.90905 0.0
C559 C 0.14167 0.3624 0.91579 0.0
C560 C 0.13783 0.26034 0.89756 0.0
C561 C 0.1144 0.3308 0.914 0.0
C562 C 0.10775 0.17532 0.88682 0.0
C563 C 0.14516 0.1666 0.86004 0.0
N564 N 0.11314 0.28146 0.90499 0.0
N565 N 0.15139 0.20549 0.87263 0.0
H566 H 0.17506 0.61418 0.86994 0.0
H567 H 0.06513 0.8633 0.83268 0.0
H568 H 0.09314 0.6646 0.89342 0.0
H569 H 0.16103 0.84849 0.82418 0.0
H570 H 0.06868 0.77412 0.84935 0.0
H571 H 0.16323 0.68343 0.8474 0.0
C572 C 0.15442 0.63943 0.87031 0.0
C573 C 0.13537 0.63431 0.8838 0.0
C574 C 0.08873 0.79005 0.84356 0.0
C575 C 0.12171 0.71365 0.85793 0.0
C576 C 0.08667 0.84048 0.83399 0.0
C577 C 0.11292 0.86311 0.82725 0.0
C578 C 0.11708 0.76212 0.84603 0.0
C579 C 0.14038 0.83253 0.82935 0.0
C580 C 0.1477 0.67895 0.85741 0.0
C581 C 0.10871 0.66774 0.8834 0.0
N582 N 0.14178 0.78372 0.83862 0.0
N583 N 0.10279 0.70651 0.87075 0.0
H584 H 0.92881 0.26833 0.64122 0.0
H585 H 0.80393 0.08628 0.58635 0.0
H586 H 0.83367 0.27095 0.65237 0.0
H587 H 0.89841 0.0353 0.59536 0.0
H588 H 0.81349 0.16471 0.60697 0.0
H589 H 0.91713 0.19245 0.62057 0.0
C590 C 0.90545 0.25281 0.63933 0.0
C591 C 0.88219 0.27567 0.64855 0.0
C592 C 0.83198 0.13612 0.60435 0.0
C593 C 0.86862 0.18949 0.62478 0.0
C594 C 0.82662 0.09184 0.59257 0.0
C595 C 0.85041 0.0544 0.58922 0.0
C596 C 0.86143 0.14324 0.61244 0.0
C597 C 0.87938 0.06303 0.59764 0.0
C598 C 0.89882 0.20951 0.62757 0.0
C599 C 0.8523 0.25398 0.64561 0.0
N600 N 0.8841 0.10668 0.60878 0.0
N601 N 0.84626 0.21219 0.63384 0.0
H602 H 0.91463 0.58678 0.65764 0.0
H603 H 0.7899 0.76246 0.60077 0.0
H604 H 0.81937 0.53791 0.65026 0.0
H605 H 0.88586 0.76893 0.5914 0.0
H606 H 0.80102 0.68814 0.62194 0.0
H607 H 0.90525 0.66302 0.63633 0.0
C608 C 0.89178 0.59241 0.65164 0.0
C609 C 0.86774 0.55612 0.65565 0.0
C610 C 0.81965 0.7056 0.61521 0.0
C611 C 0.85694 0.64243 0.63156 0.0
C612 C 0.81332 0.74803 0.60313 0.0
C613 C 0.83698 0.77168 0.59429 0.0
C614 C 0.84993 0.68719 0.61869 0.0
C615 C 0.86692 0.75137 0.59786 0.0
C616 C 0.88651 0.63544 0.63945 0.0
C617 C 0.8386 0.56478 0.64748 0.0
N618 N 0.87264 0.71043 0.60991 0.0
N619 N 0.83401 0.60712 0.63589 0.0
H620 H 0.9166 0.56121 0.08603 0.0
H621 H 0.84747 0.78325 0.14869 0.0
H622 H 0.81992 0.59905 0.08278 0.0
H623 H 0.94132 0.78793 0.13512 0.0
H624 H 0.83629 0.7095 0.12694 0.0
H625 H 0.92556 0.63872 0.1063 0.0
C626 C 0.89724 0.58621 0.08954 0.0
C627 C 0.86747 0.57385 0.08276 0.0
C628 C 0.85925 0.72697 0.12875 0.0
C629 C 0.87754 0.66231 0.10615 0.0
C630 C 0.86572 0.76857 0.14122 0.0
C631 C 0.89541 0.79156 0.14373 0.0
C632 C 0.88276 0.70784 0.119 0.0
C633 C 0.91812 0.77147 0.13361 0.0
C634 C 0.90238 0.63052 0.10108 0.0
C635 C 0.84322 0.60763 0.08768 0.0
N636 N 0.91135 0.73057 0.12177 0.0
N637 N 0.84874 0.65021 0.09929 0.0
H638 H 0.93235 0.10016 0.15409 0.0
H639 H 0.80748 0.29069 0.10202 0.0
H640 H 0.83574 0.06032 0.14904 0.0
H641 H 0.90129 0.28516 0.08846 0.0
H642 H 0.81918 0.21706 0.12332 0.0
H643 H 0.92299 0.17987 0.13388 0.0
C644 C 0.90924 0.1086 0.14887 0.0
C645 C 0.88478 0.07373 0.15312 0.0
C646 C 0.83721 0.23189 0.11567 0.0
C647 C 0.87401 0.16393 0.13037 0.0
C648 C 0.83057 0.27393 0.10352 0.0
C649 C 0.85341 0.29378 0.0934 0.0
C650 C 0.86702 0.20993 0.11791 0.0
C651 C 0.88295 0.27054 0.09592 0.0
C652 C 0.90396 0.15357 0.13731 0.0
C653 C 0.85527 0.08597 0.14599 0.0
N654 N 0.889 0.22985 0.10801 0.0
N655 N 0.85071 0.1301 0.13502 0.0
H656 H 0.5709 0.59858 0.87594 0.0
H657 H 0.67778 0.85672 0.91087 0.0
H658 H 0.65047 0.65526 0.8511 0.0
H659 H 0.58314 0.8333 0.92126 0.0
H660 H 0.67543 0.76633 0.89478 0.0
H661 H 0.58311 0.66758 0.89853 0.0
C662 C 0.59113 0.62513 0.87529 0.0
C663 C 0.60932 0.62195 0.86139 0.0
C664 C 0.65543 0.78061 0.90089 0.0
C665 C 0.62339 0.70104 0.88729 0.0
C666 C 0.65683 0.83174 0.91013 0.0
C667 C 0.63051 0.85229 0.91719 0.0
C668 C 0.62769 0.74995 0.89907 0.0
C669 C 0.6038 0.81896 0.91581 0.0
C670 C 0.59808 0.66448 0.88822 0.0
C671 C 0.63553 0.65689 0.86144 0.0
N672 N 0.60303 0.76957 0.90684 0.0
N673 N 0.64161 0.69558 0.87411 0.0
H674 H 0.65857 0.097 0.86738 0.0
H675 H 0.5512 0.35425 0.83339 0.0
H676 H 0.57929 0.1516 0.89261 0.0
H677 H 0.64621 0.33475 0.82349 0.0
H678 H 0.55362 0.26264 0.84891 0.0
H679 H 0.64602 0.16634 0.84493 0.0
C680 C 0.63832 0.12309 0.86813 0.0
C681 C 0.62034 0.11934 0.88212 0.0
C682 C 0.57368 0.27805 0.84302 0.0
C683 C 0.60587 0.19874 0.85638 0.0
C684 C 0.57225 0.32987 0.83411 0.0
C685 C 0.59865 0.35185 0.82739 0.0
C686 C 0.60154 0.24816 0.84482 0.0
C687 C 0.62549 0.31928 0.82871 0.0
C688 C 0.63118 0.16263 0.85529 0.0
C689 C 0.59408 0.15373 0.88221 0.0
N690 N 0.6263 0.26919 0.83735 0.0
N691 N 0.58781 0.1926 0.86963 0.0
H692 H 0.57374 0.10818 0.36489 0.0
H693 H 0.67759 0.36897 0.40081 0.0
H694 H 0.65282 0.16846 0.34025 0.0
H695 H 0.58223 0.34477 0.40947 0.0
H696 H 0.67631 0.27874 0.38461 0.0
H697 H 0.58484 0.17766 0.38746 0.0
C698 C 0.59364 0.1356 0.36428 0.0
C699 C 0.612 0.1333 0.35043 0.0
C700 C 0.65591 0.29285 0.39037 0.0
C701 C 0.6248 0.21289 0.37634 0.0
C702 C 0.65668 0.34387 0.39965 0.0
C703 C 0.62988 0.36411 0.40626 0.0
C704 C 0.62831 0.26195 0.38808 0.0
C705 C 0.60326 0.33066 0.40437 0.0
C706 C 0.59995 0.17523 0.3772 0.0
C707 C 0.63777 0.1694 0.35054 0.0
N708 N 0.6031 0.28133 0.39539 0.0
N709 N 0.64324 0.2083 0.36322 0.0
H710 H 0.57862 0.66851 0.38426 0.0
H711 H 0.65151 0.84631 0.31287 0.0
H712 H 0.65912 0.61467 0.36001 0.0
H713 H 0.55707 0.86867 0.32353 0.0
H714 H 0.65297 0.75738 0.32898 0.0
H715 H 0.56812 0.73834 0.36143 0.0
C716 C 0.59388 0.67085 0.37406 0.0
C717 C 0.62013 0.63643 0.37423 0.0
C718 C 0.63169 0.78097 0.32759 0.0
C719 C 0.60825 0.71603 0.34819 0.0
C720 C 0.6309 0.8317 0.3184 0.0
C721 C 0.60419 0.86457 0.317 0.0
C722 C 0.60583 0.76382 0.33588 0.0
C723 C 0.57804 0.84409 0.32433 0.0
C724 C 0.58778 0.71053 0.36101 0.0
C725 C 0.63889 0.6409 0.3606 0.0
N726 N 0.57967 0.79538 0.33382 0.0
N727 N 0.63281 0.68049 0.34828 0.0
H728 H 0.34902 0.27703 0.16244 0.0
H729 H 0.33462 0.1674 0.06648 0.0
H730 H 0.38333 0.37593 0.12162 0.0
H731 H 0.35382 0.05564 0.1094 0.0
H732 H 0.33682 0.24986 0.08603 0.0
H733 H 0.33475 0.20049 0.14215 0.0
C734 C 0.35317 0.28292 0.14918 0.0
C735 C 0.36773 0.33242 0.1437 0.0
C736 C 0.34012 0.20707 0.09108 0.0
C737 C 0.35106 0.24589 0.12055 0.0
C738 C 0.33874 0.1603 0.08002 0.0
C739 C 0.34436 0.10517 0.08642 0.0
C740 C 0.3463 0.19789 0.10858 0.0
C741 C 0.34973 0.09777 0.104 0.0
C742 C 0.34509 0.23932 0.13767 0.0
C743 C 0.37256 0.33798 0.12638 0.0
N744 N 0.35054 0.14366 0.1145 0.0
N745 N 0.36427 0.29509 0.11537 0.0
H746 H 0.32038 0.61538 0.16224 0.0
H747 H 0.39203 0.81353 0.09372 0.0
H748 H 0.41798 0.62489 0.15791 0.0
H749 H 0.30171 0.83825 0.11119 0.0
H750 H 0.40238 0.74249 0.11625 0.0
H751 H 0.31338 0.69611 0.14291 0.0
C752 C 0.3404 0.635 0.15731 0.0
C753 C 0.36978 0.61352 0.16158 0.0
C754 C 0.38042 0.76387 0.11518 0.0
C755 C 0.36193 0.7054 0.1392 0.0
C756 C 0.3744 0.80405 0.10227 0.0
C757 C 0.34586 0.83155 0.10048 0.0
C758 C 0.3576 0.75076 0.1262 0.0
C759 C 0.32397 0.81801 0.11201 0.0
C760 C 0.3364 0.68113 0.14629 0.0
C761 C 0.39497 0.64054 0.15493 0.0
N762 N 0.33024 0.77833 0.12428 0.0
N763 N 0.39044 0.6848 0.14383 0.0
H764 H 0.35017 0.80696 0.6526 0.0
H765 H 0.42184 0.61049 0.58381 0.0
H766 H 0.44121 0.83036 0.63584 0.0
H767 H 0.32427 0.61877 0.58821 0.0
H768 H 0.42902 0.69015 0.6035 0.0
H769 H 0.3398 0.736 0.63002 0.0
C770 C 0.36796 0.79718 0.64421 0.0
C771 C 0.39668 0.82436 0.64618 0.0
C772 C 0.40596 0.67513 0.60007 0.0
C773 C 0.38492 0.74371 0.62041 0.0
C774 C 0.40186 0.62963 0.58883 0.0
C775 C 0.37244 0.6081 0.58447 0.0
C776 C 0.3805 0.69879 0.60727 0.0
C777 C 0.34731 0.63448 0.59125 0.0
C778 C 0.36194 0.75704 0.63127 0.0
C779 C 0.41878 0.81042 0.63486 0.0
N780 N 0.35194 0.67818 0.60256 0.0
N781 N 0.41249 0.77087 0.62255 0.0
H782 H 0.35789 0.37238 0.62464 0.0
H783 H 0.39115 0.04733 0.63574 0.0
H784 H 0.39333 0.27391 0.58422 0.0
H785 H 0.40804 0.16178 0.67822 0.0
H786 H 0.38925 0.12931 0.6165 0.0
H787 H 0.37325 0.29589 0.64467 0.0
C788 C 0.36906 0.33481 0.62001 0.0
C789 C 0.37408 0.32906 0.60273 0.0
C790 C 0.39383 0.13648 0.63 0.0
C791 C 0.39138 0.24176 0.62547 0.0
C792 C 0.39477 0.08988 0.64096 0.0
C793 C 0.3996 0.09823 0.65852 0.0
C794 C 0.39684 0.19187 0.6367 0.0
C795 C 0.40432 0.15392 0.66472 0.0
C796 C 0.37802 0.29153 0.63145 0.0
C797 C 0.38894 0.27988 0.59742 0.0
N798 N 0.4022 0.19905 0.6538 0.0
N799 N 0.39661 0.23758 0.60872 0.0
loop_
_geom_bond_atom_site_label_1
_geom_bond_atom_site_label_2
_geom_bond_distance
_geom_bond_site_symmetry_2
_ccdc_geom_bond_type
C0 O1 1.306 . S
C0 O3 1.160 . S
O1 C0 1.306 . S
O1 Cd2 2.228 . S
Cd2 O1 2.228 . S
Cd2 O6 2.273 . S
Cd2 O10 2.277 . S
O3 C0 1.160 . S
O3 Cd4 2.203 . S
Cd4 O3 2.203 . S
Cd4 O6 2.411 . S
Cd4 O7 2.333 . S
Cd4 O8 2.352 . S
Cd4 O12 2.277 . S
Cd4 O13 2.356 . S
C5 O10 1.209 . S
C5 O12 1.226 . S
O6 Cd2 2.273 . S
O6 Cd4 2.411 . S
O6 C9 1.320 . S
O7 Cd4 2.333 . S
O7 C9 1.214 . S
O8 Cd4 2.352 . S
O8 C11 1.258 . S
C9 O6 1.320 . S
C9 O7 1.214 . S
O10 Cd2 2.277 . S
O10 C5 1.209 . S
C11 O8 1.258 . S
C11 O13 1.282 . S
O12 Cd4 2.277 . S
O12 C5 1.226 . S
O13 Cd4 2.356 . S
O13 C11 1.282 . S
C14 O15 1.306 . S
C14 O17 1.160 . S
O15 C14 1.306 . S
O15 Cd16 2.228 . S
Cd16 O15 2.228 . S
Cd16 O20 2.273 . S
Cd16 O24 2.277 . S
O17 C14 1.160 . S
O17 Cd18 2.203 . S
Cd18 O17 2.203 . S
Cd18 O20 2.411 . S
Cd18 O21 2.333 . S
Cd18 O22 2.352 . S
Cd18 O26 2.277 . S
Cd18 O27 2.356 . S
C19 O24 1.209 . S
C19 O26 1.226 . S
O20 Cd16 2.273 . S
O20 Cd18 2.411 . S
O20 C23 1.320 . S
O21 Cd18 2.333 . S
O21 C23 1.214 . S
O22 Cd18 2.352 . S
O22 C25 1.258 . S
C23 O20 1.320 . S
C23 O21 1.214 . S
O24 Cd16 2.277 . S
O24 C19 1.209 . S
C25 O22 1.258 . S
C25 O27 1.282 . S
O26 Cd18 2.277 . S
O26 C19 1.226 . S
O27 Cd18 2.356 . S
O27 C25 1.282 . S
C28 O29 1.306 . S
C28 O31 1.160 . S
O29 C28 1.306 . S
O29 Cd30 2.228 . S
Cd30 O29 2.228 . S
Cd30 O34 2.273 . S
Cd30 O38 2.277 . S
O31 C28 1.160 . S
O31 Cd32 2.203 . S
Cd32 O31 2.203 . S
Cd32 O34 2.411 . S
Cd32 O35 2.333 . S
Cd32 O36 2.352 . S
Cd32 O40 2.277 . S
Cd32 O41 2.356 . S
C33 O38 1.209 . S
C33 O40 1.226 . S
O34 Cd30 2.273 . S
O34 Cd32 2.411 . S
O34 C37 1.320 . S
O35 Cd32 2.333 . S
O35 C37 1.214 . S
O36 Cd32 2.352 . S
O36 C39 1.258 . S
C37 O34 1.320 . S
C37 O35 1.214 . S
O38 Cd30 2.277 . S
O38 C33 1.209 . S
C39 O36 1.258 . S
C39 O41 1.282 . S
O40 Cd32 2.277 . S
O40 C33 1.226 . S
O41 Cd32 2.356 . S
O41 C39 1.282 . S
C42 O43 1.306 . S
C42 O45 1.160 . S
O43 C42 1.306 . S
O43 Cd44 2.228 . S
Cd44 O43 2.228 . S
Cd44 O48 2.273 . S
Cd44 O52 2.277 . S
O45 C42 1.160 . S
O45 Cd46 2.203 . S
Cd46 O45 2.203 . S
Cd46 O48 2.411 . S
Cd46 O49 2.333 . S
Cd46 O50 2.352 . S
Cd46 O54 2.277 . S
Cd46 O55 2.356 . S
C47 O52 1.209 . S
C47 O54 1.226 . S
O48 Cd44 2.273 . S
O48 Cd46 2.411 . S
O48 C51 1.320 . S
O49 Cd46 2.333 . S
O49 C51 1.214 . S
O50 Cd46 2.352 . S
O50 C53 1.258 . S
C51 O48 1.320 . S
C51 O49 1.214 . S
O52 Cd44 2.277 . S
O52 C47 1.209 . S
C53 O50 1.258 . S
C53 O55 1.282 . S
O54 Cd46 2.277 . S
O54 C47 1.226 . S
O55 Cd46 2.356 . S
O55 C53 1.282 . S
C56 O57 1.306 . S
C56 O59 1.160 . S
O57 C56 1.306 . S
O57 Cd58 2.228 . S
Cd58 O57 2.228 . S
Cd58 O62 2.273 . S
Cd58 O66 2.277 . S
O59 C56 1.160 . S
O59 Cd60 2.203 . S
Cd60 O59 2.203 . S
Cd60 O62 2.411 . S
Cd60 O63 2.333 . S
Cd60 O64 2.352 . S
Cd60 O68 2.277 . S
Cd60 O69 2.356 . S
C61 O66 1.209 . S
C61 O68 1.226 . S
O62 Cd58 2.273 . S
O62 Cd60 2.411 . S
O62 C65 1.320 . S
O63 Cd60 2.333 . S
O63 C65 1.214 . S
O64 Cd60 2.352 . S
O64 C67 1.258 . S
C65 O62 1.320 . S
C65 O63 1.214 . S
O66 Cd58 2.277 . S
O66 C61 1.209 . S
C67 O64 1.258 . S
C67 O69 1.282 . S
O68 Cd60 2.277 . S
O68 C61 1.226 . S
O69 Cd60 2.356 . S
O69 C67 1.282 . S
C70 O71 1.306 . S
C70 O73 1.160 . S
O71 C70 1.306 . S
O71 Cd72 2.228 . S
Cd72 O71 2.228 . S
Cd72 O76 2.273 . S
Cd72 O80 2.277 . S
O73 C70 1.160 . S
O73 Cd74 2.203 . S
Cd74 O73 2.203 . S
Cd74 O76 2.411 . S
Cd74 O77 2.333 . S
Cd74 O78 2.352 . S
Cd74 O82 2.277 . S
Cd74 O83 2.356 . S
C75 O80 1.209 . S
C75 O82 1.226 . S
O76 Cd72 2.273 . S
O76 Cd74 2.411 . S
O76 C79 1.320 . S
O77 Cd74 2.333 . S
O77 C79 1.214 . S
O78 Cd74 2.352 . S
O78 C81 1.258 . S
C79 O76 1.320 . S
C79 O77 1.214 . S
O80 Cd72 2.277 . S
O80 C75 1.209 . S
C81 O78 1.258 . S
C81 O83 1.282 . S
O82 Cd74 2.277 . S
O82 C75 1.226 . S
O83 Cd74 2.356 . S
O83 C81 1.282 . S
C84 O85 1.306 . S
C84 O87 1.160 . S
O85 C84 1.306 . S
O85 Cd86 2.228 . S
Cd86 O85 2.228 . S
Cd86 O90 2.273 . S
Cd86 O94 2.277 . S
O87 C84 1.160 . S
O87 Cd88 2.203 . S
Cd88 O87 2.203 . S
Cd88 O90 2.411 . S
Cd88 O91 2.333 . S
Cd88 O92 2.352 . S
Cd88 O96 2.277 . S
Cd88 O97 2.356 . S
C89 O94 1.209 . S
C89 O96 1.226 . S
O90 Cd86 2.273 . S
O90 Cd88 2.411 . S
O90 C93 1.320 . S
O91 Cd88 2.333 . S
O91 C93 1.214 . S
O92 Cd88 2.352 . S
O92 C95 1.258 . S
C93 O90 1.320 . S
C93 O91 1.214 . S
O94 Cd86 2.277 . S
O94 C89 1.209 . S
C95 O92 1.258 . S
C95 O97 1.282 . S
O96 Cd88 2.277 . S
O96 C89 1.226 . S
O97 Cd88 2.356 . S
O97 C95 1.282 . S
C98 O99 1.306 . S
C98 O101 1.160 . S
O99 C98 1.306 . S
O99 Cd100 2.228 . S
Cd100 O99 2.228 . S
Cd100 O104 2.273 . S
Cd100 O108 2.277 . S
O101 C98 1.160 . S
O101 Cd102 2.203 . S
Cd102 O101 2.203 . S
Cd102 O104 2.411 . S
Cd102 O105 2.333 . S
Cd102 O106 2.352 . S
Cd102 O110 2.277 . S
Cd102 O111 2.356 . S
C103 O108 1.209 . S
C103 O110 1.226 . S
O104 Cd100 2.273 . S
O104 Cd102 2.411 . S
O104 C107 1.320 . S
O105 Cd102 2.333 . S
O105 C107 1.214 . S
O106 Cd102 2.352 . S
O106 C109 1.258 . S
C107 O104 1.320 . S
C107 O105 1.214 . S
O108 Cd100 2.277 . S
O108 C103 1.209 . S
C109 O106 1.258 . S
C109 O111 1.282 . S
O110 Cd102 2.277 . S
O110 C103 1.226 . S
O111 Cd102 2.356 . S
O111 C109 1.282 . S
C112 O113 1.306 . S
C112 O115 1.160 . S
O113 C112 1.306 . S
O113 Cd114 2.228 . S
Cd114 O113 2.228 . S
Cd114 O118 2.273 . S
Cd114 O122 2.277 . S
O115 C112 1.160 . S
O115 Cd116 2.203 . S
Cd116 O115 2.203 . S
Cd116 O118 2.411 . S
Cd116 O119 2.333 . S
Cd116 O120 2.352 . S
Cd116 O124 2.277 . S
Cd116 O125 2.356 . S
C117 O122 1.209 . S
C117 O124 1.226 . S
O118 Cd114 2.273 . S
O118 Cd116 2.411 . S
O118 C121 1.320 . S
O119 Cd116 2.333 . S
O119 C121 1.214 . S
O120 Cd116 2.352 . S
O120 C123 1.258 . S
C121 O118 1.320 . S
C121 O119 1.214 . S
O122 Cd114 2.277 . S
O122 C117 1.209 . S
C123 O120 1.258 . S
C123 O125 1.282 . S
O124 Cd116 2.277 . S
O124 C117 1.226 . S
O125 Cd116 2.356 . S
O125 C123 1.282 . S
C126 O127 1.306 . S
C126 O129 1.160 . S
O127 C126 1.306 . S
O127 Cd128 2.228 . S
Cd128 O127 2.228 . S
Cd128 O132 2.273 . S
Cd128 O136 2.277 . S
O129 C126 1.160 . S
O129 Cd130 2.203 . S
Cd130 O129 2.203 . S
Cd130 O132 2.411 . S
Cd130 O133 2.333 . S
Cd130 O134 2.352 . S
Cd130 O138 2.277 . S
Cd130 O139 2.356 . S
C131 O136 1.209 . S
C131 O138 1.226 . S
O132 Cd128 2.273 . S
O132 Cd130 2.411 . S
O132 C135 1.320 . S
O133 Cd130 2.333 . S
O133 C135 1.214 . S
O134 Cd130 2.352 . S
O134 C137 1.258 . S
C135 O132 1.320 . S
C135 O133 1.214 . S
O136 Cd128 2.277 . S
O136 C131 1.209 . S
C137 O134 1.258 . S
C137 O139 1.282 . S
O138 Cd130 2.277 . S
O138 C131 1.226 . S
O139 Cd130 2.356 . S
O139 C137 1.282 . S
C140 O141 1.306 . S
C140 O143 1.160 . S
O141 C140 1.306 . S
O141 Cd142 2.228 . S
Cd142 O141 2.228 . S
Cd142 O146 2.273 . S
Cd142 O150 2.277 . S
O143 C140 1.160 . S
O143 Cd144 2.203 . S
Cd144 O143 2.203 . S
Cd144 O146 2.411 . S
Cd144 O147 2.333 . S
Cd144 O148 2.352 . S
Cd144 O152 2.277 . S
Cd144 O153 2.356 . S
C145 O150 1.209 . S
C145 O152 1.226 . S
O146 Cd142 2.273 . S
O146 Cd144 2.411 . S
O146 C149 1.320 . S
O147 Cd144 2.333 . S
O147 C149 1.214 . S
O148 Cd144 2.352 . S
O148 C151 1.258 . S
C149 O146 1.320 . S
C149 O147 1.214 . S
O150 Cd142 2.277 . S
O150 C145 1.209 . S
C151 O148 1.258 . S
C151 O153 1.282 . S
O152 Cd144 2.277 . S
O152 C145 1.226 . S
O153 Cd144 2.356 . S
O153 C151 1.282 . S
C154 O155 1.306 . S
C154 O157 1.160 . S
O155 C154 1.306 . S
O155 Cd156 2.228 . S
Cd156 O155 2.228 . S
Cd156 O160 2.273 . S
Cd156 O164 2.277 . S
O157 C154 1.160 . S
O157 Cd158 2.203 . S
Cd158 O157 2.203 . S
Cd158 O160 2.411 . S
Cd158 O161 2.333 . S
Cd158 O162 2.352 . S
Cd158 O166 2.277 . S
Cd158 O167 2.356 . S
C159 O164 1.209 . S
C159 O166 1.226 . S
O160 Cd156 2.273 . S
O160 Cd158 2.411 . S
O160 C163 1.320 . S
O161 Cd158 2.333 . S
O161 C163 1.214 . S
O162 Cd158 2.352 . S
O162 C165 1.258 . S
C163 O160 1.320 . S
C163 O161 1.214 . S
O164 Cd156 2.277 . S
O164 C159 1.209 . S
C165 O162 1.258 . S
C165 O167 1.282 . S
O166 Cd158 2.277 . S
O166 C159 1.226 . S
O167 Cd158 2.356 . S
O167 C165 1.282 . S
C168 O169 1.306 . S
C168 O171 1.160 . S
O169 C168 1.306 . S
O169 Cd170 2.228 . S
Cd170 O169 2.228 . S
Cd170 O174 2.273 . S
Cd170 O178 2.277 . S
O171 C168 1.160 . S
O171 Cd172 2.203 . S
Cd172 O171 2.203 . S
Cd172 O174 2.411 . S
Cd172 O175 2.333 . S
Cd172 O176 2.352 . S
Cd172 O180 2.277 . S
Cd172 O181 2.356 . S
C173 O178 1.209 . S
C173 O180 1.226 . S
O174 Cd170 2.273 . S
O174 Cd172 2.411 . S
O174 C177 1.320 . S
O175 Cd172 2.333 . S
O175 C177 1.214 . S
O176 Cd172 2.352 . S
O176 C179 1.258 . S
C177 O174 1.320 . S
C177 O175 1.214 . S
O178 Cd170 2.277 . S
O178 C173 1.209 . S
C179 O176 1.258 . S
C179 O181 1.282 . S
O180 Cd172 2.277 . S
O180 C173 1.226 . S
O181 Cd172 2.356 . S
O181 C179 1.282 . S
C182 O183 1.306 . S
C182 O185 1.160 . S
O183 C182 1.306 . S
O183 Cd184 2.228 . S
Cd184 O183 2.228 . S
Cd184 O188 2.273 . S
Cd184 O192 2.277 . S
O185 C182 1.160 . S
O185 Cd186 2.203 . S
Cd186 O185 2.203 . S
Cd186 O188 2.411 . S
Cd186 O189 2.333 . S
Cd186 O190 2.352 . S
Cd186 O194 2.277 . S
Cd186 O195 2.356 . S
C187 O192 1.209 . S
C187 O194 1.226 . S
O188 Cd184 2.273 . S
O188 Cd186 2.411 . S
O188 C191 1.320 . S
O189 Cd186 2.333 . S
O189 C191 1.214 . S
O190 Cd186 2.352 . S
O190 C193 1.258 . S
C191 O188 1.320 . S
C191 O189 1.214 . S
O192 Cd184 2.277 . S
O192 C187 1.209 . S
C193 O190 1.258 . S
C193 O195 1.282 . S
O194 Cd186 2.277 . S
O194 C187 1.226 . S
O195 Cd186 2.356 . S
O195 C193 1.282 . S
C196 O197 1.306 . S
C196 O199 1.160 . S
O197 C196 1.306 . S
O197 Cd198 2.228 . S
Cd198 O197 2.228 . S
Cd198 O202 2.273 . S
Cd198 O206 2.277 . S
O199 C196 1.160 . S
O199 Cd200 2.203 . S
Cd200 O199 2.203 . S
Cd200 O202 2.411 . S
Cd200 O203 2.333 . S
Cd200 O204 2.352 . S
Cd200 O208 2.277 . S
Cd200 O209 2.356 . S
C201 O206 1.209 . S
C201 O208 1.226 . S
O202 Cd198 2.273 . S
O202 Cd200 2.411 . S
O202 C205 1.320 . S
O203 Cd200 2.333 . S
O203 C205 1.214 . S
O204 Cd200 2.352 . S
O204 C207 1.258 . S
C205 O202 1.320 . S
C205 O203 1.214 . S
O206 Cd198 2.277 . S
O206 C201 1.209 . S
C207 O204 1.258 . S
C207 O209 1.282 . S
O208 Cd200 2.277 . S
O208 C201 1.226 . S
O209 Cd200 2.356 . S
O209 C207 1.282 . S
C210 O211 1.306 . S
C210 O213 1.160 . S
O211 C210 1.306 . S
O211 Cd212 2.228 . S
Cd212 O211 2.228 . S
Cd212 O216 2.273 . S
Cd212 O220 2.277 . S
O213 C210 1.160 . S
O213 Cd214 2.203 . S
Cd214 O213 2.203 . S
Cd214 O216 2.411 . S
Cd214 O217 2.333 . S
Cd214 O218 2.352 . S
Cd214 O222 2.277 . S
Cd214 O223 2.356 . S
C215 O220 1.209 . S
C215 O222 1.226 . S
O216 Cd212 2.273 . S
O216 Cd214 2.411 . S
O216 C219 1.320 . S
O217 Cd214 2.333 . S
O217 C219 1.214 . S
O218 Cd214 2.352 . S
O218 C221 1.258 . S
C219 O216 1.320 . S
C219 O217 1.214 . S
O220 Cd212 2.277 . S
O220 C215 1.209 . S
C221 O218 1.258 . S
C221 O223 1.282 . S
O222 Cd214 2.277 . S
O222 C215 1.226 . S
O223 Cd214 2.356 . S
O223 C221 1.282 . S
H224 C230 0.930 . S
H225 C234 0.930 . S
H226 C239 0.929 . S
H227 C237 0.929 . S
H228 C232 0.929 . S
H229 C238 0.929 . S
C230 H224 0.930 . S
C230 C231 1.367 . S
C230 C238 1.378 . S
C231 C230 1.367 . S
C231 C239 1.433 . S
C232 H228 0.929 . S
C232 C234 1.378 . S
C232 C236 1.350 . S
C233 C236 1.463 . S
C233 C238 1.350 . S
C233 N241 1.427 . S
C234 H225 0.930 . S
C234 C232 1.378 . S
C234 C235 1.367 . S
C235 C234 1.367 . S
C235 C237 1.433 . S
C236 C232 1.350 . S
C236 C233 1.463 . S
C236 N240 1.427 . S
C237 H227 0.929 . S
C237 C235 1.433 . S
C237 N240 1.384 . S
C238 H229 0.929 . S
C238 C230 1.378 . S
C238 C233 1.350 . S
C239 H226 0.929 . S
C239 C231 1.433 . S
C239 N241 1.384 . S
N240 C236 1.427 . S
N240 C237 1.384 . S
N241 C233 1.427 . S
N241 C239 1.384 . S
H242 C248 0.930 1_545 S
H243 C252 0.930 1_565 S
H244 C257 0.929 . S
H245 C255 0.929 . S
H246 C250 0.929 . S
H247 C256 0.929 . S
C248 H242 0.930 1_565 S
C248 C249 1.367 . S
C248 C256 1.378 1_565 S
C249 C248 1.367 . S
C249 C257 1.433 . S
C250 H246 0.929 . S
C250 C252 1.378 1_565 S
C250 C254 1.350 1_565 S
C251 C254 1.463 1_665 S
C251 C256 1.350 1_565 S
C251 N259 1.427 . S
C252 H243 0.930 1_545 S
C252 C250 1.378 1_545 S
C252 C253 1.367 . S
C253 C252 1.367 . S
C253 C255 1.433 . S
C254 C250 1.350 1_545 S
C254 C251 1.463 1_445 S
C254 N258 1.427 . S
C255 H245 0.929 . S
C255 C253 1.433 . S
C255 N258 1.384 . S
C256 H247 0.929 . S
C256 C248 1.378 1_545 S
C256 C251 1.350 1_545 S
C257 H244 0.929 . S
C257 C249 1.433 . S
C257 N259 1.384 . S
N258 C254 1.427 . S
N258 C255 1.384 . S
N259 C251 1.427 . S
N259 C257 1.384 . S
H260 C266 0.930 1_545 S
H261 C270 0.930 1_565 S
H262 C275 0.929 . S
H263 C273 0.929 . S
H264 C268 0.929 . S
H265 C274 0.929 . S
C266 H260 0.930 1_565 S
C266 C267 1.367 . S
C266 C274 1.378 1_565 S
C267 C266 1.367 . S
C267 C275 1.433 . S
C268 H264 0.929 . S
C268 C270 1.378 1_565 S
C268 C272 1.350 1_565 S
C269 C272 1.463 1_565 S
C269 C274 1.350 1_565 S
C269 N277 1.427 . S
C270 H261 0.930 1_545 S
C270 C268 1.378 1_545 S
C270 C271 1.367 . S
C271 C270 1.367 . S
C271 C273 1.433 . S
C272 C268 1.350 1_545 S
C272 C269 1.463 1_545 S
C272 N276 1.427 . S
C273 H263 0.929 . S
C273 C271 1.433 . S
C273 N276 1.384 . S
C274 H265 0.929 . S
C274 C266 1.378 1_545 S
C274 C269 1.350 1_545 S
C275 H262 0.929 . S
C275 C267 1.433 . S
C275 N277 1.384 . S
N276 C272 1.427 . S
N276 C273 1.384 . S
N277 C269 1.427 . S
N277 C275 1.384 . S
H278 C284 0.930 . S
H279 C288 0.930 . S
H280 C293 0.929 . S
H281 C291 0.929 . S
H282 C286 0.929 1_455 S
H283 C292 0.929 1_655 S
C284 H278 0.930 . S
C284 C285 1.367 . S
C284 C292 1.378 . S
C285 C284 1.367 . S
C285 C293 1.433 . S
C286 H282 0.929 1_655 S
C286 C288 1.378 . S
C286 C290 1.350 . S
C287 C290 1.463 1_455 S
C287 C292 1.350 . S
C287 N295 1.427 . S
C288 H279 0.930 . S
C288 C286 1.378 . S
C288 C289 1.367 . S
C289 C288 1.367 . S
C289 C291 1.433 . S
C290 C286 1.350 . S
C290 C287 1.463 1_655 S
C290 N294 1.427 . S
C291 H281 0.929 . S
C291 C289 1.433 . S
C291 N294 1.384 . S
C292 H283 0.929 1_455 S
C292 C284 1.378 . S
C292 C287 1.350 . S
C293 H280 0.929 . S
C293 C285 1.433 . S
C293 N295 1.384 . S
N294 C290 1.427 . S
N294 C291 1.384 . S
N295 C287 1.427 . S
N295 C293 1.384 . S
H296 C302 0.930 . S
H297 C306 0.930 . S
H298 C311 0.929 . S
H299 C309 0.929 . S
H300 C304 0.929 . S
H301 C310 0.929 . S
C302 H296 0.930 . S
C302 C303 1.367 . S
C302 C310 1.378 . S
C303 C302 1.367 . S
C303 C311 1.433 . S
C304 H300 0.929 . S
C304 C306 1.378 . S
C304 C308 1.350 . S
C305 C308 1.463 . S
C305 C310 1.350 . S
C305 N313 1.427 . S
C306 H297 0.930 . S
C306 C304 1.378 . S
C306 C307 1.367 . S
C307 C306 1.367 . S
C307 C309 1.433 . S
C308 C304 1.350 . S
C308 C305 1.463 . S
C308 N312 1.427 . S
C309 H299 0.929 . S
C309 C307 1.433 . S
C309 N312 1.384 . S
C310 H301 0.929 . S
C310 C302 1.378 . S
C310 C305 1.350 . S
C311 H298 0.929 . S
C311 C303 1.433 . S
C311 N313 1.384 . S
N312 C308 1.427 . S
N312 C309 1.384 . S
N313 C305 1.427 . S
N313 C311 1.384 . S
H314 C320 0.931 . S
H315 C324 0.932 . S
H316 C329 0.929 . S
H317 C327 0.929 . S
H318 C322 0.929 . S
H319 C328 0.929 . S
C320 H314 0.931 . S
C320 C321 1.365 1_565 S
C320 C328 1.378 . S
C321 C320 1.365 1_545 S
C321 C329 1.433 . S
C322 H318 0.929 . S
C322 C324 1.379 . S
C322 C326 1.350 1_545 S
C323 C326 1.463 1_545 S
C323 C328 1.350 1_545 S
C323 N331 1.427 . S
C324 H315 0.932 . S
C324 C322 1.379 . S
C324 C325 1.364 1_545 S
C325 C324 1.364 1_565 S
C325 C327 1.433 . S
C326 C322 1.350 1_565 S
C326 C323 1.463 1_565 S
C326 N330 1.427 . S
C327 H317 0.929 . S
C327 C325 1.433 . S
C327 N330 1.384 . S
C328 H319 0.929 . S
C328 C320 1.378 . S
C328 C323 1.350 1_565 S
C329 H316 0.929 . S
C329 C321 1.433 . S
C329 N331 1.384 . S
N330 C326 1.427 . S
N330 C327 1.384 . S
N331 C323 1.427 . S
N331 C329 1.384 . S
H332 C338 0.930 . S
H333 C342 0.930 . S
H334 C347 0.929 . S
H335 C345 0.929 . S
H336 C340 0.929 . S
H337 C346 0.929 . S
C338 H332 0.930 . S
C338 C339 1.367 . S
C338 C346 1.378 . S
C339 C338 1.367 . S
C339 C347 1.433 . S
C340 H336 0.929 . S
C340 C342 1.378 . S
C340 C344 1.350 . S
C341 C344 1.463 1_655 S
C341 C346 1.350 . S
C341 N349 1.427 . S
C342 H333 0.930 . S
C342 C340 1.378 . S
C342 C343 1.367 . S
C343 C342 1.367 . S
C343 C345 1.433 . S
C344 C340 1.350 . S
C344 C341 1.463 1_455 S
C344 N348 1.427 . S
C345 H335 0.929 . S
C345 C343 1.433 . S
C345 N348 1.384 . S
C346 H337 0.929 . S
C346 C338 1.378 . S
C346 C341 1.350 . S
C347 H334 0.929 . S
C347 C339 1.433 . S
C347 N349 1.384 . S
N348 C344 1.427 . S
N348 C345 1.384 . S
N349 C341 1.427 . S
N349 C347 1.384 . S
H350 C356 0.930 . S
H351 C360 0.930 . S
H352 C365 0.929 . S
H353 C363 0.929 . S
H354 C358 0.929 . S
H355 C364 0.929 . S
C356 H350 0.930 . S
C356 C357 1.367 . S
C356 C364 1.378 . S
C357 C356 1.367 . S
C357 C365 1.433 . S
C358 H354 0.929 . S
C358 C360 1.378 . S
C358 C362 1.350 . S
C359 C362 1.463 1_554 S
C359 C364 1.350 . S
C359 N367 1.441 . S
C360 H351 0.930 . S
C360 C358 1.378 . S
C360 C361 1.367 . S
C361 C360 1.367 . S
C361 C363 1.433 . S
C362 C358 1.350 . S
C362 C359 1.463 1_556 S
C362 N366 1.441 . S
C363 H353 0.929 . S
C363 C361 1.433 . S
C363 N366 1.407 . S
C364 H355 0.929 . S
C364 C356 1.378 . S
C364 C359 1.350 . S
C365 H352 0.929 . S
C365 C357 1.433 . S
C365 N367 1.407 . S
N366 C362 1.441 . S
N366 C363 1.407 . S
N367 C359 1.441 . S
N367 C365 1.407 . S
H368 C374 0.930 . S
H369 C378 0.930 . S
H370 C383 0.929 . S
H371 C381 0.929 . S
H372 C376 0.890 1_556 S
H373 C382 0.890 1_554 S
C374 H368 0.930 . S
C374 C375 1.367 . S
C374 C382 1.407 . S
C375 C374 1.367 . S
C375 C383 1.433 . S
C376 H372 0.890 1_554 S
C376 C378 1.407 . S
C376 C380 1.361 . S
C377 C380 1.463 1_456 S
C377 C382 1.361 . S
C377 N385 1.427 . S
C378 H369 0.930 . S
C378 C376 1.407 . S
C378 C379 1.367 . S
C379 C378 1.367 . S
C379 C381 1.433 . S
C380 C376 1.361 . S
C380 C377 1.463 1_654 S
C380 N384 1.427 . S
C381 H371 0.929 . S
C381 C379 1.433 . S
C381 N384 1.384 . S
C382 H373 0.890 1_556 S
C382 C374 1.407 . S
C382 C377 1.361 . S
C383 H370 0.929 . S
C383 C375 1.433 . S
C383 N385 1.384 . S
N384 C380 1.427 . S
N384 C381 1.384 . S
N385 C377 1.427 . S
N385 C383 1.384 . S
H386 C392 0.930 . S
H387 C396 0.930 . S
H388 C401 0.929 . S
H389 C399 0.929 . S
H390 C394 0.929 . S
H391 C400 0.929 . S
C392 H386 0.930 . S
C392 C393 1.367 . S
C392 C400 1.378 . S
C393 C392 1.367 . S
C393 C401 1.433 . S
C394 H390 0.929 . S
C394 C396 1.378 . S
C394 C398 1.350 . S
C395 C398 1.463 . S
C395 C400 1.350 . S
C395 N403 1.427 . S
C396 H387 0.930 . S
C396 C394 1.378 . S
C396 C397 1.367 . S
C397 C396 1.367 . S
C397 C399 1.433 . S
C398 C394 1.350 . S
C398 C395 1.463 . S
C398 N402 1.427 . S
C399 H389 0.929 . S
C399 C397 1.433 . S
C399 N402 1.384 . S
C400 H391 0.929 . S
C400 C392 1.378 . S
C400 C395 1.350 . S
C401 H388 0.929 . S
C401 C393 1.433 . S
C401 N403 1.384 . S
N402 C398 1.427 . S
N402 C399 1.384 . S
N403 C395 1.427 . S
N403 C401 1.384 . S
H404 C410 0.930 . S
H405 C414 0.930 . S
H406 C419 0.929 . S
H407 C417 0.929 . S
H408 C412 0.906 1_556 S
H409 C418 0.906 1_554 S
C410 H404 0.930 . S
C410 C411 1.367 . S
C410 C418 1.392 . S
C411 C410 1.367 . S
C411 C419 1.433 . S
C412 H408 0.906 1_554 S
C412 C414 1.392 . S
C412 C416 1.358 . S
C413 C416 1.463 1_556 S
C413 C418 1.358 . S
C413 N421 1.427 . S
C414 H405 0.930 . S
C414 C412 1.392 . S
C414 C415 1.367 . S
C415 C414 1.367 . S
C415 C417 1.433 . S
C416 C412 1.358 . S
C416 C413 1.463 1_554 S
C416 N420 1.427 . S
C417 H407 0.929 . S
C417 C415 1.433 . S
C417 N420 1.384 . S
C418 H409 0.906 1_556 S
C418 C410 1.392 . S
C418 C413 1.358 . S
C419 H406 0.929 . S
C419 C411 1.433 . S
C419 N421 1.384 . S
N420 C416 1.427 . S
N420 C417 1.384 . S
N421 C413 1.427 . S
N421 C419 1.384 . S
H422 C428 0.930 . S
H423 C432 0.930 . S
H424 C437 0.929 . S
H425 C435 0.929 . S
H426 C430 0.929 . S
H427 C436 0.929 . S
C428 H422 0.930 . S
C428 C429 1.367 . S
C428 C436 1.378 . S
C429 C428 1.367 . S
C429 C437 1.433 . S
C430 H426 0.929 . S
C430 C432 1.378 . S
C430 C434 1.350 . S
C431 C434 1.463 . S
C431 C436 1.350 . S
C431 N439 1.427 . S
C432 H423 0.930 . S
C432 C430 1.378 . S
C432 C433 1.367 . S
C433 C432 1.367 . S
C433 C435 1.433 . S
C434 C430 1.350 . S
C434 C431 1.463 . S
C434 N438 1.427 . S
C435 H425 0.929 . S
C435 C433 1.433 . S
C435 N438 1.384 . S
C436 H427 0.929 . S
C436 C428 1.378 . S
C436 C431 1.350 . S
C437 H424 0.929 . S
C437 C429 1.433 . S
C437 N439 1.384 . S
N438 C434 1.427 . S
N438 C435 1.384 . S
N439 C431 1.427 . S
N439 C437 1.384 . S
H440 C446 0.930 . S
H441 C450 0.930 . S
H442 C455 0.929 . S
H443 C453 0.929 . S
H444 C448 0.929 . S
H445 C454 0.929 . S
C446 H440 0.930 . S
C446 C447 1.367 . S
C446 C454 1.378 . S
C447 C446 1.367 . S
C447 C455 1.433 1_545 S
C448 H444 0.929 . S
C448 C450 1.378 . S
C448 C452 1.350 . S
C449 C452 1.463 1_546 S
C449 C454 1.350 . S
C449 N457 1.427 1_545 S
C450 H441 0.930 . S
C450 C448 1.378 . S
C450 C451 1.367 . S
C451 C450 1.367 . S
C451 C453 1.433 1_565 S
C452 C448 1.350 . S
C452 C449 1.463 1_564 S
C452 N456 1.427 1_565 S
C453 H443 0.929 . S
C453 C451 1.433 1_545 S
C453 N456 1.384 . S
C454 H445 0.929 . S
C454 C446 1.378 . S
C454 C449 1.350 . S
C455 H442 0.929 . S
C455 C447 1.433 1_565 S
C455 N457 1.384 . S
N456 C452 1.427 1_545 S
N456 C453 1.384 . S
N457 C449 1.427 1_565 S
N457 C455 1.384 . S
H458 C464 0.930 . S
H459 C468 0.930 . S
H460 C473 0.929 . S
H461 C471 0.929 . S
H462 C466 0.929 . S
H463 C472 0.929 . S
C464 H458 0.930 . S
C464 C465 1.367 . S
C464 C472 1.378 . S
C465 C464 1.367 . S
C465 C473 1.433 . S
C466 H462 0.929 . S
C466 C468 1.378 . S
C466 C470 1.350 . S
C467 C470 1.463 . S
C467 C472 1.350 . S
C467 N475 1.427 . S
C468 H459 0.930 . S
C468 C466 1.378 . S
C468 C469 1.367 . S
C469 C468 1.367 . S
C469 C471 1.433 . S
C470 C466 1.350 . S
C470 C467 1.463 . S
C470 N474 1.427 . S
C471 H461 0.929 . S
C471 C469 1.433 . S
C471 N474 1.384 . S
C472 H463 0.929 . S
C472 C464 1.378 . S
C472 C467 1.350 . S
C473 H460 0.929 . S
C473 C465 1.433 . S
C473 N475 1.384 . S
N474 C470 1.427 . S
N474 C471 1.384 . S
N475 C467 1.427 . S
N475 C473 1.384 . S
H476 C482 0.930 . S
H477 C486 0.930 . S
H478 C491 0.929 . S
H479 C489 0.929 . S
H480 C484 0.929 . S
H481 C490 0.929 . S
C482 H476 0.930 . S
C482 C483 1.367 . S
C482 C490 1.378 . S
C483 C482 1.367 . S
C483 C491 1.433 . S
C484 H480 0.929 . S
C484 C486 1.378 . S
C484 C488 1.350 . S
C485 C488 1.463 . S
C485 C490 1.350 . S
C485 N493 1.427 . S
C486 H477 0.930 . S
C486 C484 1.378 . S
C486 C487 1.367 . S
C487 C486 1.367 . S
C487 C489 1.433 . S
C488 C484 1.350 . S
C488 C485 1.463 . S
C488 N492 1.427 . S
C489 H479 0.929 . S
C489 C487 1.433 . S
C489 N492 1.384 . S
C490 H481 0.929 . S
C490 C482 1.378 . S
C490 C485 1.350 . S
C491 H478 0.929 . S
C491 C483 1.433 . S
C491 N493 1.384 . S
N492 C488 1.427 . S
N492 C489 1.384 . S
N493 C485 1.427 . S
N493 C491 1.384 . S
H494 C500 0.930 . S
H495 C504 0.930 . S
H496 C509 0.929 . S
H497 C507 0.929 . S
H498 C502 0.929 . S
H499 C508 0.929 . S
C500 H494 0.930 . S
C500 C501 1.367 . S
C500 C508 1.378 . S
C501 C500 1.367 . S
C501 C509 1.433 . S
C502 H498 0.929 . S
C502 C504 1.378 . S
C502 C506 1.350 . S
C503 C506 1.463 . S
C503 C508 1.350 . S
C503 N511 1.427 . S
C504 H495 0.930 . S
C504 C502 1.378 . S
C504 C505 1.367 . S
C505 C504 1.367 . S
C505 C507 1.433 . S
C506 C502 1.350 . S
C506 C503 1.463 . S
C506 N510 1.427 . S
C507 H497 0.929 . S
C507 C505 1.433 . S
C507 N510 1.384 . S
C508 H499 0.929 . S
C508 C500 1.378 . S
C508 C503 1.350 . S
C509 H496 0.929 . S
C509 C501 1.433 . S
C509 N511 1.384 . S
N510 C506 1.427 . S
N510 C507 1.384 . S
N511 C503 1.427 . S
N511 C509 1.384 . S
H512 C518 0.930 . S
H513 C522 0.930 . S
H514 C527 0.929 . S
H515 C525 0.929 1_545 S
H516 C520 0.929 . S
H517 C526 0.929 . S
C518 H512 0.930 . S
C518 C519 1.367 . S
C518 C526 1.378 . S
C519 C518 1.367 . S
C519 C527 1.433 . S
C520 H516 0.929 . S
C520 C522 1.378 . S
C520 C524 1.350 . S
C521 C524 1.463 . S
C521 C526 1.350 . S
C521 N529 1.427 . S
C522 H513 0.930 . S
C522 C520 1.378 . S
C522 C523 1.367 . S
C523 C522 1.367 . S
C523 C525 1.433 . S
C524 C520 1.350 . S
C524 C521 1.463 . S
C524 N528 1.427 . S
C525 H515 0.929 1_565 S
C525 C523 1.433 . S
C525 N528 1.384 . S
C526 H517 0.929 . S
C526 C518 1.378 . S
C526 C521 1.350 . S
C527 H514 0.929 . S
C527 C519 1.433 . S
C527 N529 1.384 . S
N528 C524 1.427 . S
N528 C525 1.384 . S
N529 C521 1.427 . S
N529 C527 1.384 . S
H530 C536 0.930 . S
H531 C540 0.930 . S
H532 C545 0.929 . S
H533 C543 0.929 . S
H534 C538 0.929 . S
H535 C544 0.929 . S
C536 H530 0.930 . S
C536 C537 1.367 . S
C536 C544 1.378 . S
C537 C536 1.367 . S
C537 C545 1.433 . S
C538 H534 0.929 . S
C538 C540 1.378 . S
C538 C542 1.350 . S
C539 C542 1.463 . S
C539 C544 1.350 . S
C539 N547 1.427 . S
C540 H531 0.930 . S
C540 C538 1.378 . S
C540 C541 1.367 . S
C541 C540 1.367 . S
C541 C543 1.433 . S
C542 C538 1.350 . S
C542 C539 1.463 . S
C542 N546 1.427 . S
C543 H533 0.929 . S
C543 C541 1.433 . S
C543 N546 1.384 . S
C544 H535 0.929 . S
C544 C536 1.378 . S
C544 C539 1.350 . S
C545 H532 0.929 . S
C545 C537 1.433 . S
C545 N547 1.384 . S
N546 C542 1.427 . S
N546 C543 1.384 . S
N547 C539 1.427 . S
N547 C545 1.384 . S
H548 C554 0.930 . S
H549 C558 0.930 . S
H550 C563 0.929 . S
H551 C561 0.929 . S
H552 C556 0.929 . S
H553 C562 0.929 . S
C554 H548 0.930 . S
C554 C555 1.367 . S
C554 C562 1.378 . S
C555 C554 1.367 . S
C555 C563 1.433 . S
C556 H552 0.929 . S
C556 C558 1.378 . S
C556 C560 1.350 . S
C557 C560 1.463 . S
C557 C562 1.350 . S
C557 N565 1.427 . S
C558 H549 0.930 . S
C558 C556 1.378 . S
C558 C559 1.367 . S
C559 C558 1.367 . S
C559 C561 1.433 . S
C560 C556 1.350 . S
C560 C557 1.463 . S
C560 N564 1.427 . S
C561 H551 0.929 . S
C561 C559 1.433 . S
C561 N564 1.384 . S
C562 H553 0.929 . S
C562 C554 1.378 . S
C562 C557 1.350 . S
C563 H550 0.929 . S
C563 C555 1.433 . S
C563 N565 1.384 . S
N564 C560 1.427 . S
N564 C561 1.384 . S
N565 C557 1.427 . S
N565 C563 1.384 . S
H566 C572 0.930 . S
H567 C576 0.930 . S
H568 C581 0.929 . S
H569 C579 0.929 . S
H570 C574 0.929 . S
H571 C580 0.929 . S
C572 H566 0.930 . S
C572 C573 1.367 . S
C572 C580 1.378 . S
C573 C572 1.367 . S
C573 C581 1.433 . S
C574 H570 0.929 . S
C574 C576 1.378 1_565 S
C574 C578 1.350 . S
C575 C578 1.463 . S
C575 C580 1.350 . S
C575 N583 1.427 . S
C576 H567 0.930 . S
C576 C574 1.378 1_545 S
C576 C577 1.367 1_545 S
C577 C576 1.367 1_565 S
C577 C579 1.433 . S
C578 C574 1.350 . S
C578 C575 1.463 . S
C578 N582 1.427 . S
C579 H569 0.929 . S
C579 C577 1.433 . S
C579 N582 1.384 . S
C580 H571 0.929 . S
C580 C572 1.378 . S
C580 C575 1.350 . S
C581 H568 0.929 . S
C581 C573 1.433 . S
C581 N583 1.384 . S
N582 C578 1.427 . S
N582 C579 1.384 . S
N583 C575 1.427 . S
N583 C581 1.384 . S
H584 C590 0.930 . S
H585 C594 0.930 1_565 S
H586 C599 0.929 . S
H587 C597 0.929 . S
H588 C592 0.929 . S
H589 C598 0.929 . S
C590 H584 0.930 . S
C590 C591 1.367 . S
C590 C598 1.378 . S
C591 C590 1.367 . S
C591 C599 1.433 . S
C592 H588 0.929 . S
C592 C594 1.378 . S
C592 C596 1.350 . S
C593 C596 1.463 . S
C593 C598 1.350 . S
C593 N601 1.427 . S
C594 H585 0.930 1_545 S
C594 C592 1.378 . S
C594 C595 1.367 . S
C595 C594 1.367 . S
C595 C597 1.433 . S
C596 C592 1.350 . S
C596 C593 1.463 . S
C596 N600 1.427 . S
C597 H587 0.929 . S
C597 C595 1.433 . S
C597 N600 1.384 . S
C598 H589 0.929 . S
C598 C590 1.378 . S
C598 C593 1.350 . S
C599 H586 0.929 . S
C599 C591 1.433 . S
C599 N601 1.384 . S
N600 C596 1.427 . S
N600 C597 1.384 . S
N601 C593 1.427 . S
N601 C599 1.384 . S
H602 C608 0.930 . S
H603 C612 0.930 . S
H604 C617 0.929 . S
H605 C615 0.929 . S
H606 C610 0.929 . S
H607 C616 0.929 . S
C608 H602 0.930 . S
C608 C609 1.367 . S
C608 C616 1.378 . S
C609 C608 1.367 . S
C609 C617 1.433 . S
C610 H606 0.929 . S
C610 C612 1.378 . S
C610 C614 1.350 . S
C611 C614 1.463 . S
C611 C616 1.350 . S
C611 N619 1.427 . S
C612 H603 0.930 . S
C612 C610 1.378 . S
C612 C613 1.367 . S
C613 C612 1.367 . S
C613 C615 1.433 . S
C614 C610 1.350 . S
C614 C611 1.463 . S
C614 N618 1.427 . S
C615 H605 0.929 . S
C615 C613 1.433 . S
C615 N618 1.384 . S
C616 H607 0.929 . S
C616 C608 1.378 . S
C616 C611 1.350 . S
C617 H604 0.929 . S
C617 C609 1.433 . S
C617 N619 1.384 . S
N618 C614 1.427 . S
N618 C615 1.384 . S
N619 C611 1.427 . S
N619 C617 1.384 . S
H620 C626 0.930 . S
H621 C630 0.930 . S
H622 C635 0.929 . S
H623 C633 0.929 . S
H624 C628 0.929 . S
H625 C634 0.929 . S
C626 H620 0.930 . S
C626 C627 1.367 . S
C626 C634 1.378 . S
C627 C626 1.367 . S
C627 C635 1.433 . S
C628 H624 0.929 . S
C628 C630 1.378 . S
C628 C632 1.350 . S
C629 C632 1.463 . S
C629 C634 1.350 . S
C629 N637 1.427 . S
C630 H621 0.930 . S
C630 C628 1.378 . S
C630 C631 1.367 . S
C631 C630 1.367 . S
C631 C633 1.433 . S
C632 C628 1.350 . S
C632 C629 1.463 . S
C632 N636 1.427 . S
C633 H623 0.929 . S
C633 C631 1.433 . S
C633 N636 1.384 . S
C634 H625 0.929 . S
C634 C626 1.378 . S
C634 C629 1.350 . S
C635 H622 0.929 . S
C635 C627 1.433 . S
C635 N637 1.384 . S
N636 C632 1.427 . S
N636 C633 1.384 . S
N637 C629 1.427 . S
N637 C635 1.384 . S
H638 C644 0.930 . S
H639 C648 0.930 . S
H640 C653 0.929 1_565 S
H641 C651 0.929 . S
H642 C646 0.929 . S
H643 C652 0.929 . S
C644 H638 0.930 . S
C644 C645 1.367 . S
C644 C652 1.378 . S
C645 C644 1.367 . S
C645 C653 1.433 . S
C646 H642 0.929 . S
C646 C648 1.378 . S
C646 C650 1.350 . S
C647 C650 1.463 . S
C647 C652 1.350 . S
C647 N655 1.427 . S
C648 H639 0.930 . S
C648 C646 1.378 . S
C648 C649 1.367 . S
C649 C648 1.367 . S
C649 C651 1.433 . S
C650 C646 1.350 . S
C650 C647 1.463 . S
C650 N654 1.427 . S
C651 H641 0.929 . S
C651 C649 1.433 . S
C651 N654 1.384 . S
C652 H643 0.929 . S
C652 C644 1.378 . S
C652 C647 1.350 . S
C653 H640 0.929 1_545 S
C653 C645 1.433 . S
C653 N655 1.384 . S
N654 C650 1.427 . S
N654 C651 1.384 . S
N655 C647 1.427 . S
N655 C653 1.384 . S
H656 C662 0.930 . S
H657 C666 0.930 . S
H658 C671 0.929 . S
H659 C669 0.929 . S
H660 C664 0.929 . S
H661 C670 0.929 . S
C662 H656 0.930 . S
C662 C663 1.367 . S
C662 C670 1.378 . S
C663 C662 1.367 . S
C663 C671 1.433 . S
C664 H660 0.929 . S
C664 C666 1.378 1_565 S
C664 C668 1.350 . S
C665 C668 1.463 . S
C665 C670 1.350 . S
C665 N673 1.427 . S
C666 H657 0.930 . S
C666 C664 1.378 1_545 S
C666 C667 1.367 1_545 S
C667 C666 1.367 1_565 S
C667 C669 1.433 . S
C668 C664 1.350 . S
C668 C665 1.463 . S
C668 N672 1.427 . S
C669 H659 0.929 . S
C669 C667 1.433 . S
C669 N672 1.384 . S
C670 H661 0.929 . S
C670 C662 1.378 . S
C670 C665 1.350 . S
C671 H658 0.929 . S
C671 C663 1.433 . S
C671 N673 1.384 . S
N672 C668 1.427 . S
N672 C669 1.384 . S
N673 C665 1.427 . S
N673 C671 1.384 . S
H674 C680 0.930 . S
H675 C684 0.930 . S
H676 C689 0.929 . S
H677 C687 0.929 . S
H678 C682 0.929 . S
H679 C688 0.929 . S
C680 H674 0.930 . S
C680 C681 1.367 . S
C680 C688 1.378 . S
C681 C680 1.367 . S
C681 C689 1.433 . S
C682 H678 0.929 . S
C682 C684 1.378 . S
C682 C686 1.350 . S
C683 C686 1.463 . S
C683 C688 1.350 . S
C683 N691 1.427 . S
C684 H675 0.930 . S
C684 C682 1.378 . S
C684 C685 1.367 . S
C685 C684 1.367 . S
C685 C687 1.433 . S
C686 C682 1.350 . S
C686 C683 1.463 . S
C686 N690 1.427 . S
C687 H677 0.929 . S
C687 C685 1.433 . S
C687 N690 1.384 . S
C688 H679 0.929 . S
C688 C680 1.378 . S
C688 C683 1.350 . S
C689 H676 0.929 . S
C689 C681 1.433 . S
C689 N691 1.384 . S
N690 C686 1.427 . S
N690 C687 1.384 . S
N691 C683 1.427 . S
N691 C689 1.384 . S
H692 C698 0.930 . S
H693 C702 0.930 . S
H694 C707 0.929 . S
H695 C705 0.929 . S
H696 C700 0.929 . S
H697 C706 0.929 . S
C698 H692 0.930 . S
C698 C699 1.367 . S
C698 C706 1.378 . S
C699 C698 1.367 . S
C699 C707 1.433 . S
C700 H696 0.929 . S
C700 C702 1.378 . S
C700 C704 1.350 . S
C701 C704 1.463 . S
C701 C706 1.350 . S
C701 N709 1.427 . S
C702 H693 0.930 . S
C702 C700 1.378 . S
C702 C703 1.367 . S
C703 C702 1.367 . S
C703 C705 1.433 . S
C704 C700 1.350 . S
C704 C701 1.463 . S
C704 N708 1.427 . S
C705 H695 0.929 . S
C705 C703 1.433 . S
C705 N708 1.384 . S
C706 H697 0.929 . S
C706 C698 1.378 . S
C706 C701 1.350 . S
C707 H694 0.929 . S
C707 C699 1.433 . S
C707 N709 1.384 . S
N708 C704 1.427 . S
N708 C705 1.384 . S
N709 C701 1.427 . S
N709 C707 1.384 . S
H710 C716 0.930 . S
H711 C720 0.930 . S
H712 C725 0.929 . S
H713 C723 0.929 . S
H714 C718 0.929 . S
H715 C724 0.929 . S
C716 H710 0.930 . S
C716 C717 1.367 . S
C716 C724 1.378 . S
C717 C716 1.367 . S
C717 C725 1.433 . S
C718 H714 0.929 . S
C718 C720 1.378 . S
C718 C722 1.350 . S
C719 C722 1.463 . S
C719 C724 1.350 . S
C719 N727 1.427 . S
C720 H711 0.930 . S
C720 C718 1.378 . S
C720 C721 1.367 . S
C721 C720 1.367 . S
C721 C723 1.433 1_565 S
C722 C718 1.350 . S
C722 C719 1.463 . S
C722 N726 1.427 . S
C723 H713 0.929 . S
C723 C721 1.433 1_545 S
C723 N726 1.384 1_545 S
C724 H715 0.929 . S
C724 C716 1.378 . S
C724 C719 1.350 . S
C725 H712 0.929 . S
C725 C717 1.433 . S
C725 N727 1.384 . S
N726 C722 1.427 . S
N726 C723 1.384 1_565 S
N727 C719 1.427 . S
N727 C725 1.384 . S
H728 C734 0.930 . S
H729 C738 0.930 . S
H730 C743 0.929 . S
H731 C741 0.929 . S
H732 C736 0.929 . S
H733 C742 0.929 . S
C734 H728 0.930 . S
C734 C735 1.367 . S
C734 C742 1.378 . S
C735 C734 1.367 . S
C735 C743 1.433 . S
C736 H732 0.929 . S
C736 C738 1.378 . S
C736 C740 1.350 . S
C737 C740 1.463 . S
C737 C742 1.350 . S
C737 N745 1.427 . S
C738 H729 0.930 . S
C738 C736 1.378 . S
C738 C739 1.367 . S
C739 C738 1.367 . S
C739 C741 1.433 1_545 S
C740 C736 1.350 . S
C740 C737 1.463 . S
C740 N744 1.427 . S
C741 H731 0.929 . S
C741 C739 1.433 1_565 S
C741 N744 1.384 1_565 S
C742 H733 0.929 . S
C742 C734 1.378 . S
C742 C737 1.350 . S
C743 H730 0.929 . S
C743 C735 1.433 . S
C743 N745 1.384 . S
N744 C740 1.427 . S
N744 C741 1.384 1_545 S
N745 C737 1.427 . S
N745 C743 1.384 . S
H746 C752 0.930 . S
H747 C756 0.930 . S
H748 C761 0.929 . S
H749 C759 0.929 . S
H750 C754 0.929 . S
H751 C760 0.929 . S
C752 H746 0.930 . S
C752 C753 1.367 . S
C752 C760 1.378 . S
C753 C752 1.367 . S
C753 C761 1.433 . S
C754 H750 0.929 . S
C754 C756 1.378 . S
C754 C758 1.350 . S
C755 C758 1.463 . S
C755 C760 1.350 . S
C755 N763 1.427 . S
C756 H747 0.930 . S
C756 C754 1.378 . S
C756 C757 1.367 . S
C757 C756 1.367 . S
C757 C759 1.433 . S
C758 C754 1.350 . S
C758 C755 1.463 . S
C758 N762 1.427 . S
C759 H749 0.929 . S
C759 C757 1.433 . S
C759 N762 1.384 . S
C760 H751 0.929 . S
C760 C752 1.378 . S
C760 C755 1.350 . S
C761 H748 0.929 . S
C761 C753 1.433 . S
C761 N763 1.384 . S
N762 C758 1.427 . S
N762 C759 1.384 . S
N763 C755 1.427 . S
N763 C761 1.384 . S
H764 C770 0.930 . S
H765 C774 0.930 . S
H766 C779 0.929 . S
H767 C777 0.929 . S
H768 C772 0.929 . S
H769 C778 0.929 . S
C770 H764 0.930 . S
C770 C771 1.367 . S
C770 C778 1.378 . S
C771 C770 1.367 . S
C771 C779 1.433 . S
C772 H768 0.929 . S
C772 C774 1.378 . S
C772 C776 1.350 . S
C773 C776 1.463 . S
C773 C778 1.350 . S
C773 N781 1.427 . S
C774 H765 0.930 . S
C774 C772 1.378 . S
C774 C775 1.367 . S
C775 C774 1.367 . S
C775 C777 1.433 . S
C776 C772 1.350 . S
C776 C773 1.463 . S
C776 N780 1.427 . S
C777 H767 0.929 . S
C777 C775 1.433 . S
C777 N780 1.384 . S
C778 H769 0.929 . S
C778 C770 1.378 . S
C778 C773 1.350 . S
C779 H766 0.929 . S
C779 C771 1.433 . S
C779 N781 1.384 . S
N780 C776 1.427 . S
N780 C777 1.384 . S
N781 C773 1.427 . S
N781 C779 1.384 . S
H782 C788 0.930 . S
H783 C792 0.943 . S
H784 C797 0.929 . S
H785 C795 0.929 . S
H786 C790 0.929 . S
H787 C796 0.929 . S
C788 H782 0.930 . S
C788 C789 1.367 . S
C788 C796 1.378 . S
C789 C788 1.367 . S
C789 C797 1.433 . S
C790 H786 0.929 . S
C790 C792 1.367 1_545 S
C790 C794 1.350 . S
C791 C794 1.463 . S
C791 C796 1.350 . S
C791 N799 1.427 . S
C792 H783 0.943 . S
C792 C790 1.367 1_565 S
C792 C793 1.365 1_565 S
C793 C792 1.365 1_545 S
C793 C795 1.433 . S
C794 C790 1.350 . S
C794 C791 1.463 . S
C794 N798 1.427 . S
C795 H785 0.929 . S
C795 C793 1.433 . S
C795 N798 1.384 . S
C796 H787 0.929 . S
C796 C788 1.378 . S
C796 C791 1.350 . S
C797 H784 0.929 . S
C797 C789 1.433 . S
C797 N799 1.384 . S
N798 C794 1.427 . S
N798 C795 1.384 . S
N799 C791 1.427 . S
N799 C797 1.384 . S
C231 C196 1.489 . S
C235 C0 1.489 . S
C249 C39 1.495 . S
C253 C11 1.495 . S
C267 C165 1.496 . S
C271 C25 1.496 . S
C285 C14 1.490 . S
C289 C98 1.490 . S
C303 C28 1.493 . S
C307 C168 1.493 . S
C321 C137 1.496 . S
C325 C53 1.496 . S
C339 C42 1.493 . S
C343 C70 1.493 . S
C357 C140 1.489 . S
C361 C56 1.489 . S
C375 C67 1.497 . S
C379 C95 1.497 . S
C393 C221 1.497 . S
C397 C81 1.497 . S
C411 C112 1.493 . S
C415 C84 1.493 . S
C429 C193 1.495 . S
C433 C109 1.495 . S
C447 C123 1.496 . S
C451 C151 1.496 . S
C465 C210 1.494 . S
C469 C126 1.494 . S
C483 C154 1.494 . S
C487 C182 1.494 . S
C501 C207 1.495 . S
C505 C179 1.495 . S
C519 C75 1.441 . S
C523 C9 1.433 1_565 S
C537 C5 1.440 . S
C541 C79 1.435 . S
C555 C19 1.439 . S
C559 C65 1.436 . S
C573 C61 1.439 . S
C577 C23 1.436 1_565 S
C591 C103 1.439 . S
C595 C37 1.438 1_545 S
C609 C107 1.438 . S
C613 C33 1.439 . S
C627 C93 1.433 . S
C631 C47 1.441 . S
C645 C51 1.438 1_545 S
C649 C89 1.440 . S
C663 C187 1.440 . S
C667 C121 1.435 1_565 S
C681 C117 1.440 . S
C685 C191 1.435 . S
C699 C131 1.439 . S
C703 C177 1.438 . S
C717 C173 1.441 . S
C721 C135 1.436 1_565 S
C735 C215 1.441 . S
C739 C149 1.435 1_545 S
C753 C219 1.434 . S
C757 C145 1.440 . S
C771 C159 1.441 . S
C775 C205 1.433 . S
C789 C201 1.440 . S
C793 C163 1.435 1_545 S
