# Generated by pormake.
# Topology umw, (4)-cn, num edge types: 1
# Building blocks:
#     Node 0, Type 0, BuildingBlock: QUQFOY_clean_sbu_3, # of connection points: 4
#     Node 1, Type 0, BuildingBlock: QUQFOY_clean_sbu_3, # of connection points: 4
#     Node 2, Type 0, BuildingBlock: QUQFOY_clean_sbu_3, # of connection points: 4
#     Node 3, Type 0, BuildingBlock: QUQFOY_clean_sbu_3, # of connection points: 4
#     Node 4, Type 0, BuildingBlock: QUQFOY_clean_sbu_3, # of connection points: 4
#     Node 5, Type 0, BuildingBlock: QUQFOY_clean_sbu_3, # of connection points: 4
#     Node 6, Type 0, BuildingBlock: QUQFOY_clean_sbu_3, # of connection points: 4
#     Node 7, Type 0, BuildingBlock: QUQFOY_clean_sbu_3, # of connection points: 4
#     Edge 8, Type (0, 0), BuildingBlock: KIFKEQ_clean_linker_1, # of connection points: 2
#     Edge 9, Type (0, 0), BuildingBlock: KIFKEQ_clean_linker_1, # of connection points: 2
#     Edge 10, Type (0, 0), BuildingBlock: KIFKEQ_clean_linker_1, # of connection points: 2
#     Edge 11, Type (0, 0), BuildingBlock: KIFKEQ_clean_linker_1, # of connection points: 2
#     Edge 12, Type (0, 0), BuildingBlock: KIFKEQ_clean_linker_1, # of connection points: 2
#     Edge 13, Type (0, 0), BuildingBlock: KIFKEQ_clean_linker_1, # of connection points: 2
#     Edge 14, Type (0, 0), BuildingBlock: KIFKEQ_clean_linker_1, # of connection points: 2
#     Edge 15, Type (0, 0), BuildingBlock: KIFKEQ_clean_linker_1, # of connection points: 2
#     Edge 16, Type (0, 0), BuildingBlock: KIFKEQ_clean_linker_1, # of connection points: 2
#     Edge 17, Type (0, 0), BuildingBlock: KIFKEQ_clean_linker_1, # of connection points: 2
#     Edge 18, Type (0, 0), BuildingBlock: KIFKEQ_clean_linker_1, # of connection points: 2
#     Edge 19, Type (0, 0), BuildingBlock: KIFKEQ_clean_linker_1, # of connection points: 2
#     Edge 20, Type (0, 0), BuildingBlock: KIFKEQ_clean_linker_1, # of connection points: 2
#     Edge 21, Type (0, 0), BuildingBlock: KIFKEQ_clean_linker_1, # of connection points: 2
#     Edge 22, Type (0, 0), BuildingBlock: KIFKEQ_clean_linker_1, # of connection points: 2
#     Edge 23, Type (0, 0), BuildingBlock: KIFKEQ_clean_linker_1, # of connection points: 2
# Relax obj value: 0.126
# Max RMSD: 0.103
# Mean RMSD: 0.103
data_MOF--net-umw--node1-QUQFOY_clean_sbu_3--edge1-KIFKEQ_clean_linker_1
_symmetry_space_group_name_H-M    P1
_symmetry_Int_Tables_number       1
_symmetry_cell_setting            triclinic
loop_
_symmetry_equiv_pos_as_xyz
'x, y, z'
_cell_length_a     43.167028
_cell_length_b     43.170964
_cell_length_c     27.33302
_cell_angle_alpha  89.937939
_cell_angle_beta   89.987675
_cell_angle_gamma 89.972147
loop_
_atom_site_label
_atom_site_type_symbol
_atom_site_fract_x
_atom_site_fract_y
_atom_site_fract_z
_atom_type_partial_charge
C0 C 0.45713 0.19741 0.21077 0.0
O1 O 0.47766 0.19151 0.24264 0.0
Cd2 Cd 0.47032 0.17799 0.32524 0.0
O3 O 0.42833 0.1967 0.22178 0.0
Cd4 Cd 0.39907 0.1854 0.29948 0.0
C5 C 0.42585 0.1126 0.3073 0.0
O6 O 0.43298 0.21355 0.35368 0.0
O7 O 0.40475 0.17916 0.38834 0.0
O8 O 0.36205 0.22729 0.28994 0.0
C9 C 0.4233 0.20167 0.39299 0.0
O10 O 0.45052 0.12521 0.3233 0.0
C11 C 0.33883 0.21177 0.30454 0.0
O12 O 0.40343 0.12909 0.2917 0.0
O13 O 0.34286 0.18284 0.31007 0.0
C14 C 0.78673 0.46694 0.46617 0.0
O15 O 0.79449 0.48708 0.49761 0.0
Cd16 Cd 0.81409 0.4781 0.5765 0.0
O17 O 0.78841 0.43799 0.47595 0.0
Cd18 Cd 0.80412 0.40698 0.54996 0.0
C19 C 0.87715 0.43292 0.54413 0.0
O20 O 0.78036 0.44048 0.60909 0.0
O21 O 0.81643 0.41153 0.63756 0.0
O22 O 0.76056 0.37173 0.54419 0.0
C23 C 0.79454 0.4303 0.64608 0.0
O24 O 0.86597 0.45763 0.56251 0.0
C25 C 0.77568 0.34776 0.55676 0.0
O26 O 0.85951 0.41051 0.53209 0.0
O27 O 0.8049 0.35058 0.55954 0.0
C28 C 0.53513 0.79147 0.71281 0.0
O29 O 0.51454 0.79829 0.74411 0.0
Cd30 Cd 0.52208 0.8158 0.82455 0.0
O31 O 0.56394 0.79322 0.7235 0.0
Cd32 Cd 0.59353 0.80771 0.79954 0.0
C33 C 0.56645 0.88045 0.79843 0.0
O34 O 0.55973 0.78168 0.85615 0.0
O35 O 0.58759 0.81747 0.88777 0.0
O36 O 0.63006 0.76522 0.79251 0.0
C37 C 0.56916 0.79503 0.89433 0.0
O38 O 0.54175 0.86836 0.81535 0.0
C39 C 0.65347 0.7807 0.80637 0.0
O40 O 0.58922 0.86352 0.7855 0.0
O41 O 0.64979 0.80976 0.81056 0.0
C42 C 0.20441 0.5369 0.94425 0.0
O43 O 0.19937 0.51404 0.97238 0.0
Cd44 Cd 0.18313 0.51429 0.05436 0.0
O45 O 0.20199 0.56485 0.95944 0.0
Cd46 Cd 0.19171 0.5893 0.04167 0.0
C47 C 0.11853 0.56166 0.04388 0.0
O48 O 0.21899 0.54986 0.08624 0.0
O49 O 0.19166 0.58019 0.13076 0.0
O50 O 0.23342 0.62689 0.03528 0.0
C51 C 0.2112 0.55838 0.12854 0.0
O52 O 0.13059 0.53516 0.05158 0.0
C53 C 0.21791 0.64923 0.05304 0.0
O54 O 0.13534 0.58554 0.03729 0.0
O55 O 0.18911 0.6447 0.05914 0.0
C56 C 0.46444 0.79227 0.36648 0.0
O57 O 0.48475 0.79988 0.33517 0.0
Cd58 Cd 0.47666 0.81664 0.25439 0.0
O59 O 0.43559 0.79286 0.35575 0.0
Cd60 Cd 0.40564 0.80639 0.27957 0.0
C61 C 0.4303 0.87999 0.27921 0.0
O62 O 0.4402 0.78112 0.22328 0.0
O63 O 0.41128 0.81597 0.19121 0.0
O64 O 0.37027 0.76291 0.28641 0.0
C65 C 0.43032 0.79401 0.18493 0.0
O66 O 0.45534 0.86861 0.26232 0.0
C67 C 0.34645 0.77785 0.27272 0.0
O68 O 0.40818 0.8624 0.2927 0.0
O69 O 0.34934 0.80702 0.26884 0.0
C70 C 0.19381 0.46299 0.59998 0.0
O71 O 0.18816 0.48334 0.56763 0.0
Cd72 Cd 0.17457 0.47517 0.48531 0.0
O73 O 0.19246 0.43406 0.58998 0.0
Cd74 Cd 0.18177 0.40341 0.51345 0.0
C75 C 0.10897 0.43091 0.50238 0.0
O76 O 0.21182 0.43764 0.46347 0.0
O77 O 0.18288 0.40673 0.42292 0.0
O78 O 0.22202 0.36534 0.52965 0.0
C79 C 0.20442 0.42662 0.42249 0.0
O80 O 0.12152 0.45575 0.48687 0.0
C81 C 0.20659 0.34246 0.51355 0.0
O82 O 0.1255 0.40848 0.5177 0.0
O83 O 0.17819 0.34731 0.50425 0.0
C84 C 0.52887 0.19675 0.86266 0.0
O85 O 0.50863 0.18998 0.83078 0.0
Cd86 Cd 0.51672 0.17682 0.74822 0.0
O87 O 0.55769 0.19712 0.85177 0.0
Cd88 Cd 0.58758 0.18659 0.77447 0.0
C89 C 0.56323 0.11293 0.76667 0.0
O90 O 0.5529 0.21378 0.72023 0.0
O91 O 0.58243 0.18056 0.68547 0.0
O92 O 0.62334 0.22951 0.78465 0.0
C93 C 0.56316 0.20249 0.6809 0.0
O94 O 0.53822 0.12469 0.75033 0.0
C95 C 0.64703 0.21472 0.77001 0.0
O96 O 0.585 0.13017 0.78245 0.0
O97 O 0.64384 0.18573 0.76414 0.0
C98 C 0.79427 0.53581 0.12084 0.0
O99 O 0.80167 0.51469 0.09081 0.0
Cd100 Cd 0.82175 0.52084 0.01195 0.0
O101 O 0.79663 0.56445 0.10922 0.0
Cd102 Cd 0.81272 0.59315 0.03269 0.0
C103 C 0.88542 0.56629 0.04009 0.0
O104 O 0.78797 0.55788 0.97747 0.0
O105 O 0.82318 0.58603 0.94471 0.0
O106 O 0.76949 0.62895 0.03739 0.0
C107 C 0.80117 0.56702 0.93896 0.0
O108 O 0.87376 0.54075 0.0259 0.0
C109 C 0.78459 0.65246 0.02286 0.0
O110 O 0.86844 0.5899 0.04802 0.0
O111 O 0.81374 0.64929 0.01918 0.0
H112 H 0.42631 0.16303 0.47154 0.0
H113 H 0.45961 0.25088 0.4165 0.0
H114 H 0.46226 0.16671 0.54017 0.0
H115 H 0.49524 0.25466 0.48604 0.0
H116 H 0.52579 0.25097 0.65752 0.0
H117 H 0.49038 0.25431 0.58766 0.0
H118 H 0.52584 0.16756 0.53279 0.0
H119 H 0.56158 0.16433 0.6018 0.0
C120 C 0.4408 0.18342 0.47469 0.0
C121 C 0.44048 0.20656 0.43861 0.0
C122 C 0.46145 0.18536 0.51364 0.0
C123 C 0.4816 0.21071 0.51746 0.0
C124 C 0.4799 0.23487 0.48334 0.0
C125 C 0.45959 0.23269 0.44384 0.0
C126 C 0.52641 0.23297 0.62995 0.0
C127 C 0.54614 0.20726 0.6351 0.0
C128 C 0.50623 0.23491 0.59024 0.0
C129 C 0.50529 0.21093 0.55583 0.0
C130 C 0.52608 0.18607 0.55954 0.0
C131 C 0.5466 0.18437 0.59871 0.0
H132 H 0.747 0.46626 0.67728 0.0
H133 H 0.83754 0.43242 0.71895 0.0
H134 H 0.74678 0.50067 0.74821 0.0
H135 H 0.8373 0.46704 0.78958 0.0
H136 H 0.84159 0.56301 0.86263 0.0
H137 H 0.83804 0.52784 0.79285 0.0
H138 H 0.74867 0.49631 0.84348 0.0
H139 H 0.75222 0.53125 0.91351 0.0
C140 C 0.7666 0.46588 0.70203 0.0
C141 C 0.79237 0.44692 0.69266 0.0
C142 C 0.76645 0.48551 0.7424 0.0
C143 C 0.79223 0.48667 0.7735 0.0
C144 C 0.8174 0.46676 0.76542 0.0
C145 C 0.81739 0.4468 0.72542 0.0
C146 C 0.82101 0.54891 0.85843 0.0
C147 C 0.79725 0.5496 0.89343 0.0
C148 C 0.81914 0.52865 0.81892 0.0
C149 C 0.7933 0.50923 0.81359 0.0
C150 C 0.76883 0.51107 0.84714 0.0
C151 C 0.77088 0.531 0.88701 0.0
H152 H 0.43297 0.83477 0.10891 0.0
H153 H 0.46694 0.74582 0.15824 0.0
H154 H 0.4684 0.83273 0.03932 0.0
H155 H 0.50214 0.74376 0.08818 0.0
H156 H 0.5338 0.74606 0.92168 0.0
H157 H 0.49853 0.74345 -0.00839 0.0
H158 H 0.52969 0.83357 0.03903 0.0
H159 H 0.56519 0.83616 0.96957 0.0
C160 C 0.44755 0.81455 0.10435 0.0
C161 C 0.44748 0.79055 0.13898 0.0
C162 C 0.46796 0.81355 0.06492 0.0
C163 C 0.48814 0.78832 0.05924 0.0
C164 C 0.48679 0.76347 0.09216 0.0
C165 C 0.46671 0.76467 0.13202 0.0
C166 C 0.53345 0.76505 0.94756 0.0
C167 C 0.55198 0.79139 0.94024 0.0
C168 C 0.51332 0.76354 -0.01266 0.0
C169 C 0.51122 0.78854 0.01982 0.0
C170 C 0.5307 0.81427 0.01377 0.0
C171 C 0.55116 0.81559 0.97443 0.0
H172 H 0.18874 0.41183 0.32857 0.0
H173 H 0.242 0.47681 0.41463 0.0
H174 H 0.19808 0.44327 0.25563 0.0
H175 H 0.25104 0.50813 0.34185 0.0
H176 H 0.20261 0.57307 0.22428 0.0
H177 H 0.20879 0.53873 0.29463 0.0
H178 H 0.24148 0.46591 0.19946 0.0
H179 H 0.23564 0.50027 0.12902 0.0
C180 C 0.2029 0.43244 0.33168 0.0
C181 C 0.21415 0.44222 0.37727 0.0
C182 C 0.20838 0.45028 0.29002 0.0
C183 C 0.22499 0.47815 0.2936 0.0
C184 C 0.23792 0.48684 0.33852 0.0
C185 C 0.23272 0.4689 0.38001 0.0
C186 C 0.21158 0.54991 0.21855 0.0
C187 C 0.21837 0.53919 0.17137 0.0
C188 C 0.21531 0.53038 0.2587 0.0
C189 C 0.22555 0.49978 0.25209 0.0
C190 C 0.23346 0.48942 0.20518 0.0
C191 C 0.23017 0.50909 0.16509 0.0
H192 H 0.32764 0.27378 0.30741 0.0
H193 H 0.28932 0.18572 0.35237 0.0
H194 H 0.29287 0.30029 0.36361 0.0
H195 H 0.2541 0.21267 0.4084 0.0
H196 H 0.26841 0.32994 0.51616 0.0
H197 H 0.29602 0.29508 0.4614 0.0
H198 H 0.20921 0.25798 0.40994 0.0
H199 H 0.1812 0.29321 0.4645 0.0
C200 C 0.31118 0.2601 0.32812 0.0
C201 C 0.31158 0.2276 0.32589 0.0
C202 C 0.29151 0.27529 0.36068 0.0
C203 C 0.27154 0.25837 0.39118 0.0
C204 C 0.2696 0.22613 0.38558 0.0
C205 C 0.2896 0.2108 0.35326 0.0
C206 C 0.25512 0.31374 0.49441 0.0
C207 C 0.22259 0.31475 0.49413 0.0
C208 C 0.27095 0.29402 0.46268 0.0
C209 C 0.25462 0.2746 0.43061 0.0
C210 C 0.22224 0.27303 0.43402 0.0
C211 C 0.20629 0.29307 0.4655 0.0
H212 H 0.71348 0.33802 0.562 0.0
H213 H 0.8013 0.29754 0.60329 0.0
H214 H 0.68698 0.30338 0.61843 0.0
H215 H 0.77441 0.26258 0.65976 0.0
H216 H 0.65712 0.27697 0.76959 0.0
H217 H 0.69095 0.30504 0.71379 0.0
H218 H 0.7308 0.21884 0.66467 0.0
H219 H 0.69669 0.19041 0.72049 0.0
C220 C 0.72708 0.32115 0.58204 0.0
C221 C 0.75955 0.32086 0.57861 0.0
C222 C 0.71191 0.30157 0.61478 0.0
C223 C 0.72881 0.28103 0.64441 0.0
C224 C 0.76094 0.27849 0.63767 0.0
C225 C 0.77625 0.29836 0.60508 0.0
C226 C 0.67366 0.26395 0.74802 0.0
C227 C 0.67385 0.23142 0.74898 0.0
C228 C 0.69279 0.28003 0.71566 0.0
C229 C 0.71274 0.26397 0.68399 0.0
C230 C 0.71533 0.23169 0.68839 0.0
C231 C 0.69594 0.21549 0.72059 0.0
H232 H 0.72242 0.66263 0.01947 0.0
H233 H 0.80987 0.70155 0.97295 0.0
H234 H 0.69532 0.69637 0.96235 0.0
H235 H 0.78235 0.73567 0.91586 0.0
H236 H 0.66474 0.7187 0.80937 0.0
H237 H 0.69929 0.69216 0.86594 0.0
H238 H 0.73759 0.77981 0.91133 0.0
H239 H 0.70268 0.80675 0.8548 0.0
C240 C 0.73583 0.67899 -0.00186 0.0
C241 C 0.76834 0.67906 0.00029 0.0
C242 C 0.7203 0.69808 0.96506 0.0
C243 C 0.7369 0.7179 0.93385 0.0
C244 C 0.76913 0.72031 0.93924 0.0
C245 C 0.78479 0.70092 0.97215 0.0
C246 C 0.68108 0.73237 0.83029 0.0
C247 C 0.68061 0.76487 0.82808 0.0
C248 C 0.70063 0.71716 0.86305 0.0
C249 C 0.72038 0.73408 0.89385 0.0
C250 C 0.72229 0.76633 0.88826 0.0
C251 C 0.70245 0.78167 0.85567 0.0
H252 H 0.19183 0.69702 0.10481 0.0
H253 H 0.27993 0.66051 0.05648 0.0
H254 H 0.21877 0.73085 0.16279 0.0
H255 H 0.30648 0.69398 0.11451 0.0
H256 H 0.33726 0.71556 0.26768 0.0
H257 H 0.3034 0.68876 0.21051 0.0
H258 H 0.26199 0.77577 0.16853 0.0
H259 H 0.2962 0.80298 0.22564 0.0
C260 C 0.21691 0.69686 0.10545 0.0
C261 C 0.23373 0.67577 0.07644 0.0
C262 C 0.23225 0.71608 0.13886 0.0
C263 C 0.26454 0.71427 0.14395 0.0
C264 C 0.28146 0.69521 0.11202 0.0
C265 C 0.26624 0.67631 0.0784 0.0
C266 C 0.3204 0.729 0.24738 0.0
C267 C 0.31977 0.76146 0.25072 0.0
C268 C 0.30125 0.71365 0.21425 0.0
C269 C 0.28081 0.73037 0.18423 0.0
C270 C 0.27784 0.76245 0.19096 0.0
C271 C 0.29728 0.77794 0.22389 0.0
H272 H 0.47419 0.92305 0.25732 0.0
H273 H 0.3802 0.91419 0.31038 0.0
H274 H 0.47083 0.97885 0.26523 0.0
H275 H 0.37706 0.97064 0.31877 0.0
H276 H 0.3785 0.07612 0.27235 0.0
H277 H 0.37765 0.0195 0.26659 0.0
H278 H 0.4679 0.01541 0.33438 0.0
H279 H 0.46905 0.07146 0.33971 0.0
C280 C 0.45277 0.93296 0.27077 0.0
C281 C 0.42752 0.91406 0.28352 0.0
C282 C 0.45093 0.96501 0.27551 0.0
C283 C 0.4238 0.97906 0.29308 0.0
C284 C 0.39823 0.96037 0.30498 0.0
C285 C 0.40011 0.9281 0.30041 0.0
C286 C 0.39807 0.06309 0.28621 0.0
C287 C 0.42399 0.07837 0.30597 0.0
C288 C 0.39749 0.03071 0.28313 0.0
C289 C 0.42286 0.01312 0.29955 0.0
C290 C 0.44826 0.02839 0.3206 0.0
C291 C 0.44884 0.06057 0.32377 0.0
H292 H 0.92009 0.47778 0.56111 0.0
H293 H 0.91104 0.38343 0.51004 0.0
H294 H 0.97563 0.47528 0.5485 0.0
H295 H 0.96713 0.38116 0.49686 0.0
H296 H 0.07314 0.38324 0.53753 0.0
H297 H 0.01672 0.38211 0.54544 0.0
H298 H 0.01119 0.47257 0.47842 0.0
H299 H 0.06724 0.47401 0.47105 0.0
C300 C 0.9299 0.45648 0.54704 0.0
C301 C 0.91103 0.43083 0.53641 0.0
C302 C 0.96178 0.45514 0.53954 0.0
C303 C 0.97568 0.42813 0.52127 0.0
C304 C 0.95701 0.40225 0.51115 0.0
C305 C 0.92492 0.40362 0.51849 0.0
C306 C 0.05986 0.40279 0.5242 0.0
C307 C 0.07475 0.42886 0.50416 0.0
C308 C 0.02755 0.40204 0.52851 0.0
C309 C 0.00961 0.42739 0.513 0.0
C310 C 0.02446 0.45293 0.4915 0.0
C311 C 0.05662 0.45368 0.48713 0.0
H312 H 0.52086 0.92214 0.81825 0.0
H313 H 0.61559 0.9161 0.76756 0.0
H314 H 0.52237 0.97798 0.80923 0.0
H315 H 0.61686 0.97255 0.75805 0.0
H316 H 0.6115 0.07811 0.80287 0.0
H317 H 0.61419 0.02158 0.80934 0.0
H318 H 0.52471 0.01434 0.73968 0.0
H319 H 0.52174 0.07032 0.73366 0.0
C320 C 0.54205 0.93268 0.80509 0.0
C321 C 0.56807 0.91456 0.79336 0.0
C322 C 0.54282 0.96474 0.79969 0.0
C323 C 0.56962 0.97958 0.78248 0.0
C324 C 0.59593 0.96168 0.77155 0.0
C325 C 0.59512 0.9294 0.77676 0.0
C326 C 0.5925 0.06441 0.78873 0.0
C327 C 0.56625 0.07878 0.76828 0.0
C328 C 0.59413 0.03208 0.79222 0.0
C329 C 0.5695 0.01362 0.7755 0.0
C330 C 0.54379 0.02799 0.7537 0.0
C331 C 0.54217 0.06013 0.75014 0.0
H332 H 0.92326 0.61608 0.02377 0.0
H333 H 0.92376 0.52045 0.0699 0.0
H334 H 0.97991 0.61645 0.02431 0.0
H335 H 0.97992 0.52114 0.07351 0.0
H336 H 0.07729 0.517 0.01929 0.0
H337 H 0.02122 0.52008 0.01968 0.0
H338 H 0.02648 0.61511 0.06917 0.0
H339 H 0.083 0.61234 0.06588 0.0
C340 C 0.93555 0.59538 0.03503 0.0
C341 C 0.91927 0.56814 0.04625 0.0
C342 C 0.96799 0.59556 0.03549 0.0
C343 C 0.98466 0.56864 0.0481 0.0
C344 C 0.96804 0.542 0.06193 0.0
C345 C 0.9358 0.54164 0.06037 0.0
C346 C 0.06646 0.53857 0.03011 0.0
C347 C 0.08446 0.56436 0.04281 0.0
C348 C 0.03423 0.54031 0.03079 0.0
C349 C 0.01912 0.56769 0.04538 0.0
C350 C 0.03722 0.59372 0.05739 0.0
C351 C 0.06961 0.59214 0.05571 0.0
H352 H 0.47145 0.18629 0.8998 0.0
H353 H 0.56195 0.22087 0.93967 0.0
H354 H 0.45411 0.19206 -0.01671 0.0
H355 H 0.54401 0.22805 0.0237 0.0
H356 H 0.51523 0.19041 0.17422 0.0
H357 H 0.53223 0.19572 0.0905 0.0
H358 H 0.44018 0.22496 0.04832 0.0
H359 H 0.42265 0.21821 0.1327 0.0
C360 C 0.48756 0.19568 0.92629 0.0
C361 C 0.51825 0.20282 0.91316 0.0
C362 C 0.47743 0.1993 0.97428 0.0
C363 C 0.4976 0.2105 0.01042 0.0
C364 C 0.528 0.21885 -0.00307 0.0
C365 C 0.5383 0.21484 0.9488 0.0
C366 C 0.49855 0.19823 0.1473 0.0
C367 C 0.46743 0.20355 0.16009 0.0
C368 C 0.50846 0.2016 0.09915 0.0
C369 C 0.48763 0.21072 0.06246 0.0
C370 C 0.45674 0.21736 0.07555 0.0
C371 C 0.44668 0.21361 0.12388 0.0
H372 H 0.79757 0.47805 0.1596 0.0
H373 H 0.76899 0.5715 0.19419 0.0
H374 H 0.78736 0.46217 0.24244 0.0
H375 H 0.75706 0.55504 0.27772 0.0
H376 H 0.7926 0.52529 0.43011 0.0
H377 H 0.78636 0.54231 0.34666 0.0
H378 H 0.75356 0.45114 0.30646 0.0
H379 H 0.76159 0.43349 0.39041 0.0
C380 C 0.78844 0.49517 0.18471 0.0
C381 C 0.78456 0.52623 0.17043 0.0
C382 C 0.78217 0.48587 0.23238 0.0
C383 C 0.77142 0.50726 0.26709 0.0
C384 C 0.76587 0.53805 0.25216 0.0
C385 C 0.77261 0.54751 0.20432 0.0
C386 C 0.78369 0.50885 0.40373 0.0
C387 C 0.77819 0.4778 0.41672 0.0
C388 C 0.77975 0.5188 0.3557 0.0
C389 C 0.76977 0.49808 0.31945 0.0
C390 C 0.76204 0.46755 0.33321 0.0
C391 C 0.7665 0.45742 0.38132 0.0
H392 H 0.47677 0.79571 0.67631 0.0
H393 H 0.56994 0.76904 0.63629 0.0
H394 H 0.46004 0.78882 0.59288 0.0
H395 H 0.55268 0.76052 0.55224 0.0
H396 H 0.52209 0.80047 0.40388 0.0
H397 H 0.53917 0.793 0.48704 0.0
H398 H 0.44876 0.75731 0.52561 0.0
H399 H 0.43105 0.76637 0.44188 0.0
C400 C 0.49363 0.7877 0.64983 0.0
C401 C 0.52487 0.78342 0.66283 0.0
C402 C 0.48387 0.78339 0.60182 0.0
C403 C 0.50498 0.77428 0.56553 0.0
C404 C 0.53591 0.76819 0.57909 0.0
C405 C 0.54582 0.77295 0.62724 0.0
C406 C 0.50582 0.79074 0.42985 0.0
C407 C 0.47501 0.78443 0.41639 0.0
C408 C 0.5158 0.7861 0.47767 0.0
C409 C 0.49539 0.77463 0.51332 0.0
C410 C 0.46496 0.76676 0.49929 0.0
C411 C 0.45479 0.77184 0.45133 0.0
H412 H 0.18905 0.57085 0.86324 0.0
H413 H 0.23473 0.48675 0.90941 0.0
H414 H 0.19113 0.55316 0.77841 0.0
H415 H 0.23781 0.46951 0.82489 0.0
H416 H 0.19222 0.43005 0.68573 0.0
H417 H 0.20032 0.45006 0.76817 0.0
H418 H 0.22197 0.54024 0.70838 0.0
H419 H 0.21296 0.52055 0.62641 0.0
C420 C 0.20035 0.54905 0.85501 0.0
C421 C 0.21135 0.52998 0.89272 0.0
C422 C 0.20157 0.53886 0.8065 0.0
C423 C 0.21415 0.50961 0.79504 0.0
C424 C 0.22722 0.49172 0.83261 0.0
C425 C 0.22567 0.50172 0.88095 0.0
C426 C 0.19901 0.45403 0.69026 0.0
C427 C 0.20158 0.47377 0.6497 0.0
C428 C 0.20383 0.46551 0.73744 0.0
C429 C 0.21164 0.49685 0.74484 0.0
C430 C 0.21541 0.51619 0.70402 0.0
C431 C 0.21035 0.50481 0.65703 0.0
loop_
_geom_bond_atom_site_label_1
_geom_bond_atom_site_label_2
_geom_bond_distance
_geom_bond_site_symmetry_2
_ccdc_geom_bond_type
C0 O1 1.306 . S
C0 O3 1.160 . S
O1 C0 1.306 . S
O1 Cd2 2.228 . S
Cd2 O1 2.228 . S
Cd2 O6 2.273 . S
Cd2 O10 2.277 . S
O3 C0 1.160 . S
O3 Cd4 2.203 . S
Cd4 O3 2.203 . S
Cd4 O6 2.411 . S
Cd4 O7 2.333 . S
Cd4 O8 2.352 . S
Cd4 O12 2.277 . S
Cd4 O13 2.356 . S
C5 O10 1.209 . S
C5 O12 1.226 . S
O6 Cd2 2.273 . S
O6 Cd4 2.411 . S
O6 C9 1.320 . S
O7 Cd4 2.333 . S
O7 C9 1.214 . S
O8 Cd4 2.352 . S
O8 C11 1.258 . S
C9 O6 1.320 . S
C9 O7 1.214 . S
O10 Cd2 2.277 . S
O10 C5 1.209 . S
C11 O8 1.258 . S
C11 O13 1.282 . S
O12 Cd4 2.277 . S
O12 C5 1.226 . S
O13 Cd4 2.356 . S
O13 C11 1.282 . S
C14 O15 1.306 . S
C14 O17 1.160 . S
O15 C14 1.306 . S
O15 Cd16 2.228 . S
Cd16 O15 2.228 . S
Cd16 O20 2.273 . S
Cd16 O24 2.277 . S
O17 C14 1.160 . S
O17 Cd18 2.203 . S
Cd18 O17 2.203 . S
Cd18 O20 2.411 . S
Cd18 O21 2.333 . S
Cd18 O22 2.352 . S
Cd18 O26 2.277 . S
Cd18 O27 2.356 . S
C19 O24 1.209 . S
C19 O26 1.226 . S
O20 Cd16 2.273 . S
O20 Cd18 2.411 . S
O20 C23 1.320 . S
O21 Cd18 2.333 . S
O21 C23 1.214 . S
O22 Cd18 2.352 . S
O22 C25 1.258 . S
C23 O20 1.320 . S
C23 O21 1.214 . S
O24 Cd16 2.277 . S
O24 C19 1.209 . S
C25 O22 1.258 . S
C25 O27 1.282 . S
O26 Cd18 2.277 . S
O26 C19 1.226 . S
O27 Cd18 2.356 . S
O27 C25 1.282 . S
C28 O29 1.306 . S
C28 O31 1.160 . S
O29 C28 1.306 . S
O29 Cd30 2.228 . S
Cd30 O29 2.228 . S
Cd30 O34 2.273 . S
Cd30 O38 2.277 . S
O31 C28 1.160 . S
O31 Cd32 2.203 . S
Cd32 O31 2.203 . S
Cd32 O34 2.411 . S
Cd32 O35 2.333 . S
Cd32 O36 2.352 . S
Cd32 O40 2.277 . S
Cd32 O41 2.356 . S
C33 O38 1.209 . S
C33 O40 1.226 . S
O34 Cd30 2.273 . S
O34 Cd32 2.411 . S
O34 C37 1.320 . S
O35 Cd32 2.333 . S
O35 C37 1.214 . S
O36 Cd32 2.352 . S
O36 C39 1.258 . S
C37 O34 1.320 . S
C37 O35 1.214 . S
O38 Cd30 2.277 . S
O38 C33 1.209 . S
C39 O36 1.258 . S
C39 O41 1.282 . S
O40 Cd32 2.277 . S
O40 C33 1.226 . S
O41 Cd32 2.356 . S
O41 C39 1.282 . S
C42 O43 1.306 1_556 S
C42 O45 1.160 . S
O43 C42 1.306 1_554 S
O43 Cd44 2.228 . S
Cd44 O43 2.228 . S
Cd44 O48 2.273 . S
Cd44 O52 2.277 . S
O45 C42 1.160 . S
O45 Cd46 2.203 1_556 S
Cd46 O45 2.203 1_554 S
Cd46 O48 2.411 . S
Cd46 O49 2.333 . S
Cd46 O50 2.352 . S
Cd46 O54 2.277 . S
Cd46 O55 2.356 . S
C47 O52 1.209 . S
C47 O54 1.226 . S
O48 Cd44 2.273 . S
O48 Cd46 2.411 . S
O48 C51 1.320 . S
O49 Cd46 2.333 . S
O49 C51 1.214 . S
O50 Cd46 2.352 . S
O50 C53 1.258 . S
C51 O48 1.320 . S
C51 O49 1.214 . S
O52 Cd44 2.277 . S
O52 C47 1.209 . S
C53 O50 1.258 . S
C53 O55 1.282 . S
O54 Cd46 2.277 . S
O54 C47 1.226 . S
O55 Cd46 2.356 . S
O55 C53 1.282 . S
C56 O57 1.306 . S
C56 O59 1.160 . S
O57 C56 1.306 . S
O57 Cd58 2.228 . S
Cd58 O57 2.228 . S
Cd58 O62 2.273 . S
Cd58 O66 2.277 . S
O59 C56 1.160 . S
O59 Cd60 2.203 . S
Cd60 O59 2.203 . S
Cd60 O62 2.411 . S
Cd60 O63 2.333 . S
Cd60 O64 2.352 . S
Cd60 O68 2.277 . S
Cd60 O69 2.356 . S
C61 O66 1.209 . S
C61 O68 1.226 . S
O62 Cd58 2.273 . S
O62 Cd60 2.411 . S
O62 C65 1.320 . S
O63 Cd60 2.333 . S
O63 C65 1.214 . S
O64 Cd60 2.352 . S
O64 C67 1.258 . S
C65 O62 1.320 . S
C65 O63 1.214 . S
O66 Cd58 2.277 . S
O66 C61 1.209 . S
C67 O64 1.258 . S
C67 O69 1.282 . S
O68 Cd60 2.277 . S
O68 C61 1.226 . S
O69 Cd60 2.356 . S
O69 C67 1.282 . S
C70 O71 1.306 . S
C70 O73 1.160 . S
O71 C70 1.306 . S
O71 Cd72 2.228 . S
Cd72 O71 2.228 . S
Cd72 O76 2.273 . S
Cd72 O80 2.277 . S
O73 C70 1.160 . S
O73 Cd74 2.203 . S
Cd74 O73 2.203 . S
Cd74 O76 2.411 . S
Cd74 O77 2.333 . S
Cd74 O78 2.352 . S
Cd74 O82 2.277 . S
Cd74 O83 2.356 . S
C75 O80 1.209 . S
C75 O82 1.226 . S
O76 Cd72 2.273 . S
O76 Cd74 2.411 . S
O76 C79 1.320 . S
O77 Cd74 2.333 . S
O77 C79 1.214 . S
O78 Cd74 2.352 . S
O78 C81 1.258 . S
C79 O76 1.320 . S
C79 O77 1.214 . S
O80 Cd72 2.277 . S
O80 C75 1.209 . S
C81 O78 1.258 . S
C81 O83 1.282 . S
O82 Cd74 2.277 . S
O82 C75 1.226 . S
O83 Cd74 2.356 . S
O83 C81 1.282 . S
C84 O85 1.306 . S
C84 O87 1.160 . S
O85 C84 1.306 . S
O85 Cd86 2.228 . S
Cd86 O85 2.228 . S
Cd86 O90 2.273 . S
Cd86 O94 2.277 . S
O87 C84 1.160 . S
O87 Cd88 2.203 . S
Cd88 O87 2.203 . S
Cd88 O90 2.411 . S
Cd88 O91 2.333 . S
Cd88 O92 2.352 . S
Cd88 O96 2.277 . S
Cd88 O97 2.356 . S
C89 O94 1.209 . S
C89 O96 1.226 . S
O90 Cd86 2.273 . S
O90 Cd88 2.411 . S
O90 C93 1.320 . S
O91 Cd88 2.333 . S
O91 C93 1.214 . S
O92 Cd88 2.352 . S
O92 C95 1.258 . S
C93 O90 1.320 . S
C93 O91 1.214 . S
O94 Cd86 2.277 . S
O94 C89 1.209 . S
C95 O92 1.258 . S
C95 O97 1.282 . S
O96 Cd88 2.277 . S
O96 C89 1.226 . S
O97 Cd88 2.356 . S
O97 C95 1.282 . S
C98 O99 1.306 . S
C98 O101 1.160 . S
O99 C98 1.306 . S
O99 Cd100 2.228 . S
Cd100 O99 2.228 . S
Cd100 O104 2.273 1_554 S
Cd100 O108 2.277 . S
O101 C98 1.160 . S
O101 Cd102 2.203 . S
Cd102 O101 2.203 . S
Cd102 O104 2.411 1_554 S
Cd102 O105 2.333 1_554 S
Cd102 O106 2.352 . S
Cd102 O110 2.277 . S
Cd102 O111 2.356 . S
C103 O108 1.209 . S
C103 O110 1.226 . S
O104 Cd100 2.273 1_556 S
O104 Cd102 2.411 1_556 S
O104 C107 1.320 . S
O105 Cd102 2.333 1_556 S
O105 C107 1.214 . S
O106 Cd102 2.352 . S
O106 C109 1.258 . S
C107 O104 1.320 . S
C107 O105 1.214 . S
O108 Cd100 2.277 . S
O108 C103 1.209 . S
C109 O106 1.258 . S
C109 O111 1.282 . S
O110 Cd102 2.277 . S
O110 C103 1.226 . S
O111 Cd102 2.356 . S
O111 C109 1.282 . S
H112 C120 0.950 . S
H113 C125 0.950 . S
H114 C122 0.950 . S
H115 C124 0.950 . S
H116 C126 0.950 . S
H117 C128 0.950 . S
H118 C130 0.950 . S
H119 C131 0.950 . S
C120 H112 0.950 . S
C120 C121 1.386 . S
C120 C122 1.391 . S
C121 C120 1.386 . S
C121 C125 1.393 . S
C122 H114 0.950 . S
C122 C120 1.391 . S
C122 C123 1.400 . S
C123 C122 1.400 . S
C123 C124 1.398 . S
C123 C129 1.491 . S
C124 H115 0.950 . S
C124 C123 1.398 . S
C124 C125 1.391 . S
C125 H113 0.950 . S
C125 C121 1.393 . S
C125 C124 1.391 . S
C126 H116 0.950 . S
C126 C127 1.386 . S
C126 C128 1.391 . S
C127 C126 1.386 . S
C127 C131 1.393 . S
C128 H117 0.950 . S
C128 C126 1.391 . S
C128 C129 1.400 . S
C129 C123 1.491 . S
C129 C128 1.400 . S
C129 C130 1.398 . S
C130 H118 0.950 . S
C130 C129 1.398 . S
C130 C131 1.391 . S
C131 H119 0.950 . S
C131 C127 1.393 . S
C131 C130 1.391 . S
H132 C140 0.950 . S
H133 C145 0.950 . S
H134 C142 0.950 . S
H135 C144 0.950 . S
H136 C146 0.950 . S
H137 C148 0.950 . S
H138 C150 0.950 . S
H139 C151 0.950 . S
C140 H132 0.950 . S
C140 C141 1.386 . S
C140 C142 1.391 . S
C141 C140 1.386 . S
C141 C145 1.393 . S
C142 H134 0.950 . S
C142 C140 1.391 . S
C142 C143 1.400 . S
C143 C142 1.400 . S
C143 C144 1.398 . S
C143 C149 1.491 . S
C144 H135 0.950 . S
C144 C143 1.398 . S
C144 C145 1.391 . S
C145 H133 0.950 . S
C145 C141 1.393 . S
C145 C144 1.391 . S
C146 H136 0.950 . S
C146 C147 1.386 . S
C146 C148 1.391 . S
C147 C146 1.386 . S
C147 C151 1.393 . S
C148 H137 0.950 . S
C148 C146 1.391 . S
C148 C149 1.400 . S
C149 C143 1.491 . S
C149 C148 1.400 . S
C149 C150 1.398 . S
C150 H138 0.950 . S
C150 C149 1.398 . S
C150 C151 1.391 . S
C151 H139 0.950 . S
C151 C147 1.393 . S
C151 C150 1.391 . S
H152 C160 0.950 . S
H153 C165 0.950 . S
H154 C162 0.950 . S
H155 C164 0.950 . S
H156 C166 0.950 . S
H157 C168 0.950 . S
H158 C170 0.950 . S
H159 C171 0.950 . S
C160 H152 0.950 . S
C160 C161 1.386 . S
C160 C162 1.391 . S
C161 C160 1.386 . S
C161 C165 1.393 . S
C162 H154 0.950 . S
C162 C160 1.391 . S
C162 C163 1.400 . S
C163 C162 1.400 . S
C163 C164 1.398 . S
C163 C169 1.491 . S
C164 H155 0.950 . S
C164 C163 1.398 . S
C164 C165 1.391 . S
C165 H153 0.950 . S
C165 C161 1.393 . S
C165 C164 1.391 . S
C166 H156 0.950 . S
C166 C167 1.386 . S
C166 C168 1.391 1_556 S
C167 C166 1.386 . S
C167 C171 1.393 . S
C168 H157 0.950 . S
C168 C166 1.391 1_554 S
C168 C169 1.400 . S
C169 C163 1.491 . S
C169 C168 1.400 . S
C169 C170 1.398 1_554 S
C170 H158 0.950 . S
C170 C169 1.398 1_556 S
C170 C171 1.391 . S
C171 H159 0.950 . S
C171 C167 1.393 . S
C171 C170 1.391 . S
H172 C180 0.950 . S
H173 C185 0.950 . S
H174 C182 0.950 . S
H175 C184 0.950 . S
H176 C186 0.950 . S
H177 C188 0.950 . S
H178 C190 0.950 . S
H179 C191 0.950 . S
C180 H172 0.950 . S
C180 C181 1.386 . S
C180 C182 1.391 . S
C181 C180 1.386 . S
C181 C185 1.393 . S
C182 H174 0.950 . S
C182 C180 1.391 . S
C182 C183 1.400 . S
C183 C182 1.400 . S
C183 C184 1.398 . S
C183 C189 1.491 . S
C184 H175 0.950 . S
C184 C183 1.398 . S
C184 C185 1.391 . S
C185 H173 0.950 . S
C185 C181 1.393 . S
C185 C184 1.391 . S
C186 H176 0.950 . S
C186 C187 1.386 . S
C186 C188 1.391 . S
C187 C186 1.386 . S
C187 C191 1.393 . S
C188 H177 0.950 . S
C188 C186 1.391 . S
C188 C189 1.400 . S
C189 C183 1.491 . S
C189 C188 1.400 . S
C189 C190 1.398 . S
C190 H178 0.950 . S
C190 C189 1.398 . S
C190 C191 1.391 . S
C191 H179 0.950 . S
C191 C187 1.393 . S
C191 C190 1.391 . S
H192 C200 0.950 . S
H193 C205 0.950 . S
H194 C202 0.950 . S
H195 C204 0.950 . S
H196 C206 0.950 . S
H197 C208 0.950 . S
H198 C210 0.950 . S
H199 C211 0.950 . S
C200 H192 0.950 . S
C200 C201 1.386 . S
C200 C202 1.391 . S
C201 C200 1.386 . S
C201 C205 1.393 . S
C202 H194 0.950 . S
C202 C200 1.391 . S
C202 C203 1.400 . S
C203 C202 1.400 . S
C203 C204 1.398 . S
C203 C209 1.491 . S
C204 H195 0.950 . S
C204 C203 1.398 . S
C204 C205 1.391 . S
C205 H193 0.950 . S
C205 C201 1.393 . S
C205 C204 1.391 . S
C206 H196 0.950 . S
C206 C207 1.386 . S
C206 C208 1.391 . S
C207 C206 1.386 . S
C207 C211 1.393 . S
C208 H197 0.950 . S
C208 C206 1.391 . S
C208 C209 1.400 . S
C209 C203 1.491 . S
C209 C208 1.400 . S
C209 C210 1.398 . S
C210 H198 0.950 . S
C210 C209 1.398 . S
C210 C211 1.391 . S
C211 H199 0.950 . S
C211 C207 1.393 . S
C211 C210 1.391 . S
H212 C220 0.950 . S
H213 C225 0.950 . S
H214 C222 0.950 . S
H215 C224 0.950 . S
H216 C226 0.950 . S
H217 C228 0.950 . S
H218 C230 0.950 . S
H219 C231 0.950 . S
C220 H212 0.950 . S
C220 C221 1.386 . S
C220 C222 1.391 . S
C221 C220 1.386 . S
C221 C225 1.393 . S
C222 H214 0.950 . S
C222 C220 1.391 . S
C222 C223 1.400 . S
C223 C222 1.400 . S
C223 C224 1.398 . S
C223 C229 1.491 . S
C224 H215 0.950 . S
C224 C223 1.398 . S
C224 C225 1.391 . S
C225 H213 0.950 . S
C225 C221 1.393 . S
C225 C224 1.391 . S
C226 H216 0.950 . S
C226 C227 1.386 . S
C226 C228 1.391 . S
C227 C226 1.386 . S
C227 C231 1.393 . S
C228 H217 0.950 . S
C228 C226 1.391 . S
C228 C229 1.400 . S
C229 C223 1.491 . S
C229 C228 1.400 . S
C229 C230 1.398 . S
C230 H218 0.950 . S
C230 C229 1.398 . S
C230 C231 1.391 . S
C231 H219 0.950 . S
C231 C227 1.393 . S
C231 C230 1.391 . S
H232 C240 0.950 . S
H233 C245 0.950 . S
H234 C242 0.946 1_554 S
H235 C244 0.950 . S
H236 C246 0.950 . S
H237 C248 0.950 . S
H238 C250 0.950 . S
H239 C251 0.950 . S
C240 H232 0.950 . S
C240 C241 1.386 . S
C240 C242 1.387 1_554 S
C241 C240 1.386 . S
C241 C245 1.393 1_554 S
C242 H234 0.946 1_556 S
C242 C240 1.387 1_556 S
C242 C243 1.408 . S
C243 C242 1.408 . S
C243 C244 1.398 . S
C243 C249 1.491 . S
C244 H235 0.950 . S
C244 C243 1.398 . S
C244 C245 1.391 . S
C245 H233 0.950 . S
C245 C241 1.393 1_556 S
C245 C244 1.391 . S
C246 H236 0.950 . S
C246 C247 1.386 . S
C246 C248 1.391 . S
C247 C246 1.386 . S
C247 C251 1.393 . S
C248 H237 0.950 . S
C248 C246 1.391 . S
C248 C249 1.400 . S
C249 C243 1.491 . S
C249 C248 1.400 . S
C249 C250 1.398 . S
C250 H238 0.950 . S
C250 C249 1.398 . S
C250 C251 1.391 . S
C251 H239 0.950 . S
C251 C247 1.393 . S
C251 C250 1.391 . S
H252 C260 0.950 . S
H253 C265 0.950 . S
H254 C262 0.950 . S
H255 C264 0.950 . S
H256 C266 0.950 . S
H257 C268 0.950 . S
H258 C270 0.950 . S
H259 C271 0.950 . S
C260 H252 0.950 . S
C260 C261 1.386 . S
C260 C262 1.391 . S
C261 C260 1.386 . S
C261 C265 1.393 . S
C262 H254 0.950 . S
C262 C260 1.391 . S
C262 C263 1.400 . S
C263 C262 1.400 . S
C263 C264 1.398 . S
C263 C269 1.491 . S
C264 H255 0.950 . S
C264 C263 1.398 . S
C264 C265 1.391 . S
C265 H253 0.950 . S
C265 C261 1.393 . S
C265 C264 1.391 . S
C266 H256 0.950 . S
C266 C267 1.386 . S
C266 C268 1.391 . S
C267 C266 1.386 . S
C267 C271 1.393 . S
C268 H257 0.950 . S
C268 C266 1.391 . S
C268 C269 1.400 . S
C269 C263 1.491 . S
C269 C268 1.400 . S
C269 C270 1.398 . S
C270 H258 0.950 . S
C270 C269 1.398 . S
C270 C271 1.391 . S
C271 H259 0.950 . S
C271 C267 1.393 . S
C271 C270 1.391 . S
H272 C280 0.950 . S
H273 C285 0.950 . S
H274 C282 0.950 . S
H275 C284 0.950 . S
H276 C286 0.950 . S
H277 C288 0.950 . S
H278 C290 0.950 . S
H279 C291 0.950 . S
C280 H272 0.950 . S
C280 C281 1.386 . S
C280 C282 1.391 . S
C281 C280 1.386 . S
C281 C285 1.393 . S
C282 H274 0.950 . S
C282 C280 1.391 . S
C282 C283 1.400 . S
C283 C282 1.400 . S
C283 C284 1.398 . S
C283 C289 1.491 1_565 S
C284 H275 0.950 . S
C284 C283 1.398 . S
C284 C285 1.391 . S
C285 H273 0.950 . S
C285 C281 1.393 . S
C285 C284 1.391 . S
C286 H276 0.950 . S
C286 C287 1.386 . S
C286 C288 1.391 . S
C287 C286 1.386 . S
C287 C291 1.393 . S
C288 H277 0.950 . S
C288 C286 1.391 . S
C288 C289 1.400 . S
C289 C283 1.491 1_545 S
C289 C288 1.400 . S
C289 C290 1.398 . S
C290 H278 0.950 . S
C290 C289 1.398 . S
C290 C291 1.391 . S
C291 H279 0.950 . S
C291 C287 1.393 . S
C291 C290 1.391 . S
H292 C300 0.950 . S
H293 C305 0.950 . S
H294 C302 0.950 . S
H295 C304 0.950 . S
H296 C306 0.950 . S
H297 C308 0.950 . S
H298 C310 0.950 . S
H299 C311 0.950 . S
C300 H292 0.950 . S
C300 C301 1.386 . S
C300 C302 1.391 . S
C301 C300 1.386 . S
C301 C305 1.393 . S
C302 H294 0.950 . S
C302 C300 1.391 . S
C302 C303 1.400 . S
C303 C302 1.400 . S
C303 C304 1.398 . S
C303 C309 1.491 1_655 S
C304 H295 0.950 . S
C304 C303 1.398 . S
C304 C305 1.391 . S
C305 H293 0.950 . S
C305 C301 1.393 . S
C305 C304 1.391 . S
C306 H296 0.950 . S
C306 C307 1.386 . S
C306 C308 1.391 . S
C307 C306 1.386 . S
C307 C311 1.393 . S
C308 H297 0.950 . S
C308 C306 1.391 . S
C308 C309 1.400 . S
C309 C303 1.491 1_455 S
C309 C308 1.400 . S
C309 C310 1.398 . S
C310 H298 0.950 . S
C310 C309 1.398 . S
C310 C311 1.391 . S
C311 H299 0.950 . S
C311 C307 1.393 . S
C311 C310 1.391 . S
H312 C320 0.950 . S
H313 C325 0.950 . S
H314 C322 0.950 . S
H315 C324 0.950 . S
H316 C326 0.950 . S
H317 C328 0.950 . S
H318 C330 0.950 . S
H319 C331 0.950 . S
C320 H312 0.950 . S
C320 C321 1.386 . S
C320 C322 1.391 . S
C321 C320 1.386 . S
C321 C325 1.393 . S
C322 H314 0.950 . S
C322 C320 1.391 . S
C322 C323 1.400 . S
C323 C322 1.400 . S
C323 C324 1.398 . S
C323 C329 1.491 1_565 S
C324 H315 0.950 . S
C324 C323 1.398 . S
C324 C325 1.391 . S
C325 H313 0.950 . S
C325 C321 1.393 . S
C325 C324 1.391 . S
C326 H316 0.950 . S
C326 C327 1.386 . S
C326 C328 1.391 . S
C327 C326 1.386 . S
C327 C331 1.393 . S
C328 H317 0.950 . S
C328 C326 1.391 . S
C328 C329 1.400 . S
C329 C323 1.491 1_545 S
C329 C328 1.400 . S
C329 C330 1.398 . S
C330 H318 0.950 . S
C330 C329 1.398 . S
C330 C331 1.391 . S
C331 H319 0.950 . S
C331 C327 1.393 . S
C331 C330 1.391 . S
H332 C340 0.950 . S
H333 C345 0.950 . S
H334 C342 0.950 . S
H335 C344 0.950 . S
H336 C346 0.950 . S
H337 C348 0.950 . S
H338 C350 0.950 . S
H339 C351 0.950 . S
C340 H332 0.950 . S
C340 C341 1.386 . S
C340 C342 1.391 . S
C341 C340 1.386 . S
C341 C345 1.393 . S
C342 H334 0.950 . S
C342 C340 1.391 . S
C342 C343 1.400 . S
C343 C342 1.400 . S
C343 C344 1.398 . S
C343 C349 1.491 1_655 S
C344 H335 0.950 . S
C344 C343 1.398 . S
C344 C345 1.391 . S
C345 H333 0.950 . S
C345 C341 1.393 . S
C345 C344 1.391 . S
C346 H336 0.950 . S
C346 C347 1.386 . S
C346 C348 1.391 . S
C347 C346 1.386 . S
C347 C351 1.393 . S
C348 H337 0.950 . S
C348 C346 1.391 . S
C348 C349 1.400 . S
C349 C343 1.491 1_455 S
C349 C348 1.400 . S
C349 C350 1.398 . S
C350 H338 0.950 . S
C350 C349 1.398 . S
C350 C351 1.391 . S
C351 H339 0.950 . S
C351 C347 1.393 . S
C351 C350 1.391 . S
H352 C360 0.950 . S
H353 C365 0.950 . S
H354 C362 0.951 . S
H355 C364 0.950 . S
H356 C366 0.950 . S
H357 C368 0.950 . S
H358 C370 0.950 . S
H359 C371 0.950 . S
C360 H352 0.950 . S
C360 C361 1.386 . S
C360 C362 1.391 . S
C361 C360 1.386 . S
C361 C365 1.393 . S
C362 H354 0.951 . S
C362 C360 1.391 . S
C362 C363 1.400 1_556 S
C363 C362 1.400 1_554 S
C363 C364 1.398 . S
C363 C369 1.491 . S
C364 H355 0.950 . S
C364 C363 1.398 . S
C364 C365 1.391 1_554 S
C365 H353 0.950 . S
C365 C361 1.393 . S
C365 C364 1.391 1_556 S
C366 H356 0.950 . S
C366 C367 1.386 . S
C366 C368 1.391 . S
C367 C366 1.386 . S
C367 C371 1.393 . S
C368 H357 0.950 . S
C368 C366 1.391 . S
C368 C369 1.400 . S
C369 C363 1.491 . S
C369 C368 1.400 . S
C369 C370 1.398 . S
C370 H358 0.950 . S
C370 C369 1.398 . S
C370 C371 1.391 . S
C371 H359 0.950 . S
C371 C367 1.393 . S
C371 C370 1.391 . S
H372 C380 0.950 . S
H373 C385 0.950 . S
H374 C382 0.950 . S
H375 C384 0.950 . S
H376 C386 0.950 . S
H377 C388 0.950 . S
H378 C390 0.950 . S
H379 C391 0.950 . S
C380 H372 0.950 . S
C380 C381 1.386 . S
C380 C382 1.391 . S
C381 C380 1.386 . S
C381 C385 1.393 . S
C382 H374 0.950 . S
C382 C380 1.391 . S
C382 C383 1.400 . S
C383 C382 1.400 . S
C383 C384 1.398 . S
C383 C389 1.491 . S
C384 H375 0.950 . S
C384 C383 1.398 . S
C384 C385 1.391 . S
C385 H373 0.950 . S
C385 C381 1.393 . S
C385 C384 1.391 . S
C386 H376 0.950 . S
C386 C387 1.386 . S
C386 C388 1.391 . S
C387 C386 1.386 . S
C387 C391 1.393 . S
C388 H377 0.950 . S
C388 C386 1.391 . S
C388 C389 1.400 . S
C389 C383 1.491 . S
C389 C388 1.400 . S
C389 C390 1.398 . S
C390 H378 0.950 . S
C390 C389 1.398 . S
C390 C391 1.391 . S
C391 H379 0.950 . S
C391 C387 1.393 . S
C391 C390 1.391 . S
H392 C400 0.950 . S
H393 C405 0.950 . S
H394 C402 0.950 . S
H395 C404 0.950 . S
H396 C406 0.950 . S
H397 C408 0.950 . S
H398 C410 0.950 . S
H399 C411 0.950 . S
C400 H392 0.950 . S
C400 C401 1.386 . S
C400 C402 1.391 . S
C401 C400 1.386 . S
C401 C405 1.393 . S
C402 H394 0.950 . S
C402 C400 1.391 . S
C402 C403 1.400 . S
C403 C402 1.400 . S
C403 C404 1.398 . S
C403 C409 1.491 . S
C404 H395 0.950 . S
C404 C403 1.398 . S
C404 C405 1.391 . S
C405 H393 0.950 . S
C405 C401 1.393 . S
C405 C404 1.391 . S
C406 H396 0.950 . S
C406 C407 1.386 . S
C406 C408 1.391 . S
C407 C406 1.386 . S
C407 C411 1.393 . S
C408 H397 0.950 . S
C408 C406 1.391 . S
C408 C409 1.400 . S
C409 C403 1.491 . S
C409 C408 1.400 . S
C409 C410 1.398 . S
C410 H398 0.950 . S
C410 C409 1.398 . S
C410 C411 1.391 . S
C411 H399 0.950 . S
C411 C407 1.393 . S
C411 C410 1.391 . S
H412 C420 0.950 . S
H413 C425 0.950 . S
H414 C422 0.950 . S
H415 C424 0.950 . S
H416 C426 0.950 . S
H417 C428 0.950 . S
H418 C430 0.950 . S
H419 C431 0.950 . S
C420 H412 0.950 . S
C420 C421 1.386 . S
C420 C422 1.391 . S
C421 C420 1.386 . S
C421 C425 1.393 . S
C422 H414 0.950 . S
C422 C420 1.391 . S
C422 C423 1.400 . S
C423 C422 1.400 . S
C423 C424 1.398 . S
C423 C429 1.491 . S
C424 H415 0.950 . S
C424 C423 1.398 . S
C424 C425 1.391 . S
C425 H413 0.950 . S
C425 C421 1.393 . S
C425 C424 1.391 . S
C426 H416 0.950 . S
C426 C427 1.386 . S
C426 C428 1.391 . S
C427 C426 1.386 . S
C427 C431 1.393 . S
C428 H417 0.950 . S
C428 C426 1.391 . S
C428 C429 1.400 . S
C429 C423 1.491 . S
C429 C428 1.400 . S
C429 C430 1.398 . S
C430 H418 0.950 . S
C430 C429 1.398 . S
C430 C431 1.391 . S
C431 H419 0.950 . S
C431 C427 1.393 . S
C431 C430 1.391 . S
C121 C9 0.722 . S
C127 C93 0.723 . S
C141 C23 0.699 . S
C147 C107 0.698 . S
C161 C65 0.720 . S
C167 C37 0.721 . S
C181 C79 0.713 . S
C187 C51 0.714 . S
C201 C11 1.509 . S
C207 C81 1.515 . S
C221 C25 1.501 . S
C227 C95 1.501 . S
C241 C109 1.507 . S
C247 C39 1.512 . S
C261 C53 1.509 . S
C267 C67 1.504 . S
C281 C61 1.499 . S
C287 C5 1.503 . S
C301 C19 1.500 . S
C307 C75 1.502 . S
C321 C33 1.500 . S
C327 C89 1.502 . S
C341 C103 1.502 . S
C347 C47 1.502 . S
C361 C84 1.491 . S
C367 C0 1.502 . S
C381 C98 1.504 . S
C387 C14 1.510 . S
C401 C28 1.491 . S
C407 C56 1.501 . S
C421 C42 1.506 . S
C427 C70 1.492 . S
