# Generated by pormake.
# Topology rob, (6)-cn, num edge types: 1
# Building blocks:
#     Node 0, Type 0, BuildingBlock: BETFAJ_clean_sbu_0, # of connection points: 6
#     Node 1, Type 0, BuildingBlock: BETFAJ_clean_sbu_0, # of connection points: 6
#     Node 2, Type 0, BuildingBlock: BETFAJ_clean_sbu_0, # of connection points: 6
#     Node 3, Type 0, BuildingBlock: BETFAJ_clean_sbu_0, # of connection points: 6
#     Edge 4, Type (0, 0), BuildingBlock: MIFKUJ_clean_linker_0, # of connection points: 2
#     Edge 5, Type (0, 0), BuildingBlock: MIFKUJ_clean_linker_0, # of connection points: 2
#     Edge 6, Type (0, 0), BuildingBlock: MIFKUJ_clean_linker_0, # of connection points: 2
#     Edge 7, Type (0, 0), BuildingBlock: MIFKUJ_clean_linker_0, # of connection points: 2
#     Edge 8, Type (0, 0), BuildingBlock: MIFKUJ_clean_linker_0, # of connection points: 2
#     Edge 9, Type (0, 0), BuildingBlock: MIFKUJ_clean_linker_0, # of connection points: 2
#     Edge 10, Type (0, 0), BuildingBlock: MIFKUJ_clean_linker_0, # of connection points: 2
#     Edge 11, Type (0, 0), BuildingBlock: MIFKUJ_clean_linker_0, # of connection points: 2
#     Edge 12, Type (0, 0), BuildingBlock: MIFKUJ_clean_linker_0, # of connection points: 2
#     Edge 13, Type (0, 0), BuildingBlock: MIFKUJ_clean_linker_0, # of connection points: 2
#     Edge 14, Type (0, 0), BuildingBlock: MIFKUJ_clean_linker_0, # of connection points: 2
#     Edge 15, Type (0, 0), BuildingBlock: MIFKUJ_clean_linker_0, # of connection points: 2
# Relax obj value: 0.107
# Max RMSD: 0.172
# Mean RMSD: 0.172
data_MOF--net-rob--node1-BETFAJ_clean_sbu_0--edge1-MIFKUJ_clean_linker_0
_symmetry_space_group_name_H-M    P1
_symmetry_Int_Tables_number       1
_symmetry_cell_setting            triclinic
loop_
_symmetry_equiv_pos_as_xyz
'x, y, z'
_cell_length_a     19.415566
_cell_length_b     32.60978
_cell_length_c     45.92337
_cell_angle_alpha  90.082143
_cell_angle_beta   120.82927
_cell_angle_gamma 90.109781
loop_
_atom_site_label
_atom_site_type_symbol
_atom_site_fract_x
_atom_site_fract_y
_atom_site_fract_z
_atom_type_partial_charge
Sm0 Sm 0.18288 0.27036 0.00112 0.0
Sm1 Sm 0.32761 0.24685 0.99535 0.0
C2 C 0.06766 0.27531 0.01613 0.0
C3 C 0.0584 0.27406 0.04613 0.0
C4 C 0.10962 0.25055 0.07473 0.0
C5 C 0.10048 0.25022 0.1031 0.0
C6 C 0.03969 0.2734 0.10343 0.0
C7 C 0.98827 0.29675 0.07455 0.0
C8 C 0.99764 0.29707 0.04627 0.0
C9 C 0.27368 0.33572 0.0015 0.0
C10 C 0.35417 0.24466 0.06944 0.0
C11 C 0.4417 0.24051 0.97986 0.0
C12 C 0.45142 0.23864 0.94986 0.0
C13 C 0.42659 0.27086 0.92628 0.0
C14 C 0.43962 0.26889 0.89897 0.0
C15 C 0.47719 0.23458 0.89451 0.0
C16 C 0.50095 0.2022 0.91787 0.0
C17 C 0.48857 0.20433 0.9453 0.0
C18 C 0.23678 0.18163 0.99505 0.0
C19 C 0.15705 0.27427 0.92726 0.0
O20 O 0.08781 0.24115 0.00746 0.0
O21 O 0.1045 0.3073 0.01337 0.0
O22 O 0.30154 0.30238 0.01717 0.0
O23 O 0.19591 0.33606 0.98616 0.0
O24 O 0.27507 0.24528 0.05382 0.0
O25 O 0.39242 0.25116 0.05303 0.0
O26 O 0.41977 0.27539 0.98673 0.0
O27 O 0.40817 0.20886 0.98513 0.0
O28 O 0.20903 0.21486 0.97919 0.0
O29 O 0.31453 0.18139 0.01065 0.0
O30 O 0.23606 0.27252 0.9428 0.0
O31 O 0.11825 0.26775 0.94341 0.0
H32 H 0.15653 0.23236 0.07507 0.0
H33 H 0.14174 0.23218 0.12492 0.0
H34 H 0.94011 0.3145 0.07363 0.0
H35 H 0.95723 0.31534 0.02442 0.0
H36 H 0.39738 0.29766 0.92893 0.0
H37 H 0.41942 0.29402 0.88109 0.0
H38 H 0.5304 0.17547 0.91526 0.0
H39 H 0.50867 0.17917 0.96318 0.0
Sm40 Sm 0.68099 0.7738 0.00042 0.0
Sm41 Sm 0.82711 0.74641 0.9975 0.0
C42 C 0.56718 0.78411 0.01557 0.0
C43 C 0.55957 0.78407 0.046 0.0
C44 C 0.59933 0.75509 0.07201 0.0
C45 C 0.59233 0.75648 0.10091 0.0
C46 C 0.54601 0.78705 0.10448 0.0
C47 C 0.50649 0.81597 0.07837 0.0
C48 C 0.51313 0.81442 0.04945 0.0
C49 C 0.77333 0.83689 0.99894 0.0
C50 C 0.84849 0.74864 0.07059 0.0
C51 C 0.94214 0.73908 0.98263 0.0
C52 C 0.9478 0.73378 0.9519 0.0
C53 C 0.8896 0.75009 0.92051 0.0
C54 C 0.89505 0.74398 0.89153 0.0
C55 C 0.95908 0.72153 0.8933 0.0
C56 C 0.01758 0.70559 0.92496 0.0
C57 C 0.01186 0.71161 0.95387 0.0
C58 C 0.73489 0.68299 0.99888 0.0
C59 C 0.65732 0.77075 0.9267 0.0
O60 O 0.58096 0.74902 0.00562 0.0
O61 O 0.60839 0.81433 0.0133 0.0
O62 O 0.80056 0.80455 0.0163 0.0
O63 O 0.69555 0.83733 0.98271 0.0
O64 O 0.76939 0.74948 0.05386 0.0
O65 O 0.88925 0.7538 0.05508 0.0
O66 O 0.91548 0.77437 0.9863 0.0
O67 O 0.91357 0.70805 0.99119 0.0
O68 O 0.7076 0.71546 0.98165 0.0
O69 O 0.81274 0.68234 0.01459 0.0
O70 O 0.73563 0.76509 0.94261 0.0
O71 O 0.61722 0.77102 0.94274 0.0
H72 H 0.63613 0.73156 0.07011 0.0
H73 H 0.62423 0.73402 0.1207 0.0
H74 H 0.4696 0.8396 0.0801 0.0
H75 H 0.48206 0.83711 0.02974 0.0
H76 H 0.83966 0.76742 0.91831 0.0
H77 H 0.84828 0.75634 0.86764 0.0
H78 H 0.06845 0.68878 0.92755 0.0
H79 H 0.05764 0.6989 0.97785 0.0
Sm80 Sm 0.33617 0.78273 0.50332 0.0
Sm81 Sm 0.18528 0.75249 0.50031 0.0
C82 C 0.45605 0.79173 0.49192 0.0
C83 C 0.46282 0.79411 0.46129 0.0
C84 C 0.51877 0.76937 0.45893 0.0
C85 C 0.52367 0.76956 0.42955 0.0
C86 C 0.47327 0.79493 0.40206 0.0
C87 C 0.41787 0.82014 0.40459 0.0
C88 C 0.41227 0.81953 0.43381 0.0
C89 C 0.23815 0.84439 0.50159 0.0
C90 C 0.17353 0.76115 0.4291 0.0
C91 C 0.06703 0.73739 0.51199 0.0
C92 C 0.05827 0.73202 0.54201 0.0
C93 C 0.09037 0.76041 0.56893 0.0
C94 C 0.08208 0.75416 0.5972 0.0
C95 C 0.04198 0.71924 0.59937 0.0
C96 C 0.01064 0.6908 0.57241 0.0
C97 C 0.01845 0.69722 0.5441 0.0
C98 C 0.28461 0.69159 0.50135 0.0
C99 C 0.34251 0.78178 0.57329 0.0
O100 O 0.43451 0.75616 0.49786 0.0
O101 O 0.42176 0.82253 0.49781 0.0
O102 O 0.21404 0.812 0.4839 0.0
O103 O 0.31597 0.8459 0.5197 0.0
O104 O 0.25237 0.76445 0.44745 0.0
O105 O 0.12882 0.76065 0.44312 0.0
O106 O 0.08399 0.77412 0.50594 0.0
O107 O 0.10615 0.70862 0.50674 0.0
O108 O 0.30772 0.72337 0.51977 0.0
O109 O 0.20707 0.69064 0.48239 0.0
O110 O 0.26391 0.77807 0.5544 0.0
O111 O 0.38923 0.77778 0.56045 0.0
H112 H 0.55833 0.74967 0.47983 0.0
H113 H 0.56741 0.75013 0.42841 0.0
H114 H 0.37779 0.83974 0.38369 0.0
H115 H 0.36785 0.83865 0.43472 0.0
H116 H 0.12187 0.78746 0.56817 0.0
H117 H 0.10623 0.77706 0.61713 0.0
H118 H 0.9808 0.66314 0.57326 0.0
H119 H 0.99374 0.67471 0.52383 0.0
Sm120 Sm 0.83547 0.27967 0.50287 0.0
Sm121 Sm 0.67414 0.25323 0.49333 0.0
C122 C 0.96058 0.28597 0.49458 0.0
C123 C 0.97034 0.28681 0.46463 0.0
C124 C 0.02863 0.26219 0.46388 0.0
C125 C 0.03558 0.26098 0.43497 0.0
C126 C 0.98419 0.28436 0.40609 0.0
C127 C 0.92624 0.30924 0.40708 0.0
C128 C 0.91949 0.31049 0.43599 0.0
C129 C 0.74795 0.34286 0.50722 0.0
C130 C 0.6749 0.2688 0.42553 0.0
C131 C 0.5519 0.24152 0.50274 0.0
C132 C 0.54488 0.23918 0.53346 0.0
C133 C 0.55242 0.27442 0.55255 0.0
C134 C 0.54985 0.27151 0.58237 0.0
C135 C 0.54017 0.23334 0.59415 0.0
C136 C 0.53191 0.19812 0.57482 0.0
C137 C 0.53384 0.20106 0.5448 0.0
C138 C 0.76409 0.19082 0.48959 0.0
C139 C 0.83234 0.26725 0.57047 0.0
O140 O 0.93669 0.2511 0.50053 0.0
O141 O 0.92573 0.31763 0.49911 0.0
O142 O 0.71908 0.3138 0.48588 0.0
O143 O 0.82569 0.34052 0.52567 0.0
O144 O 0.75363 0.26886 0.44559 0.0
O145 O 0.62622 0.2677 0.43762 0.0
O146 O 0.56923 0.27729 0.49512 0.0
O147 O 0.5903 0.21148 0.49843 0.0
O148 O 0.79091 0.21967 0.51104 0.0
O149 O 0.68679 0.19337 0.46986 0.0
O150 O 0.75372 0.26716 0.55027 0.0
O151 O 0.8814 0.26685 0.55858 0.0
H152 H 0.06844 0.24359 0.48561 0.0
H153 H 0.08158 0.24187 0.43534 0.0
H154 H 0.8847 0.32712 0.3852 0.0
H155 H 0.87335 0.32947 0.43565 0.0
H156 H 0.56097 0.30433 0.54465 0.0
H157 H 0.55486 0.29935 0.59611 0.0
H158 H 0.52549 0.16806 0.58312 0.0
H159 H 0.52796 0.1733 0.5307 0.0
H160 H 0.78862 0.61028 0.03168 0.0
H161 H 0.7099 0.55189 0.03189 0.0
H162 H 0.4915 0.6178 0.96677 0.0
H163 H 0.57053 0.67667 0.96648 0.0
H164 H 0.48634 0.57886 0.01868 0.0
H165 H 0.5523 0.54237 0.93473 0.0
H166 H 0.64145 0.53074 0.91203 0.0
H167 H 0.76859 0.43848 0.98745 0.0
H168 H 0.68089 0.44998 0.01094 0.0
H169 H 0.21968 0.4094 0.97033 0.0
H170 H 0.29842 0.46814 0.97065 0.0
H171 H 0.51676 0.40114 0.03376 0.0
H172 H 0.43778 0.34196 0.0334 0.0
H173 H 0.52228 0.44069 0.98305 0.0
H174 H 0.45815 0.47661 0.06723 0.0
H175 H 0.37094 0.48807 0.0909 0.0
H176 H 0.24273 0.58112 0.01639 0.0
H177 H 0.32848 0.56978 0.99193 0.0
C178 C 0.7238 0.61239 0.01732 0.0
C179 C 0.68578 0.64805 0.9989 0.0
C180 C 0.67881 0.57887 0.01739 0.0
C181 C 0.59462 0.58011 0.99901 0.0
C182 C 0.55636 0.61601 0.98106 0.0
C183 C 0.60151 0.6496 0.98084 0.0
C184 C 0.54705 0.54393 0.99876 0.0
C185 C 0.49328 0.54879 0.01038 0.0
C186 C 0.55769 0.50433 0.98889 0.0
C187 C 0.61051 0.49733 0.97481 0.0
C188 C 0.5997 0.51985 0.94667 0.0
C189 C 0.6499 0.51323 0.93362 0.0
C190 C 0.71078 0.48397 0.94834 0.0
C191 C 0.72147 0.46118 0.9761 0.0
C192 C 0.6715 0.46771 0.98928 0.0
C193 C 0.28449 0.40716 0.98436 0.0
C194 C 0.32252 0.37107 0.00195 0.0
C195 C 0.32951 0.44088 0.98462 0.0
C196 C 0.41371 0.4394 0.00256 0.0
C197 C 0.45192 0.40313 0.0198 0.0
C198 C 0.40677 0.36935 0.01964 0.0
C199 C 0.4614 0.47561 0.00291 0.0
C200 C 0.51525 0.47076 0.99132 0.0
C201 C 0.45106 0.51517 0.01294 0.0
C202 C 0.39923 0.52203 0.02752 0.0
C203 C 0.4109 0.49926 0.05569 0.0
C204 C 0.36182 0.50578 0.06929 0.0
C205 C 0.30119 0.53523 0.0551 0.0
C206 C 0.28964 0.55827 0.02732 0.0
C207 C 0.33851 0.55183 0.01359 0.0
H208 H 0.26328 0.54026 0.06568 0.0
H209 H 0.74956 0.47888 0.93819 0.0
H210 H 0.44866 0.68472 0.54177 0.0
H211 H 0.53242 0.62688 0.54408 0.0
H212 H 0.32202 0.5649 0.46566 0.0
H213 H 0.23868 0.62208 0.46347 0.0
H214 H 0.40984 0.51413 0.51678 0.0
H215 H 0.46261 0.61035 0.45024 0.0
H216 H 0.50914 0.67434 0.43716 0.0
H217 H 0.74298 0.65801 0.52521 0.0
H218 H 0.69762 0.5941 0.53895 0.0
H219 H 0.58544 0.35543 0.4693 0.0
H220 H 0.51064 0.41514 0.47087 0.0
H221 H 0.73098 0.46959 0.54946 0.0
H222 H 0.80573 0.41011 0.54801 0.0
H223 H 0.644 0.52483 0.50138 0.0
H224 H 0.5979 0.43349 0.57035 0.0
H225 H 0.55977 0.36965 0.58696 0.0
H226 H 0.32285 0.37708 0.4993 0.0
H227 H 0.35969 0.44143 0.48226 0.0
C228 C 0.42057 0.6588 0.52495 0.0
C229 C 0.33708 0.65785 0.50254 0.0
C230 C 0.46847 0.62585 0.52615 0.0
C231 C 0.43365 0.59149 0.50491 0.0
C232 C 0.35038 0.5909 0.48236 0.0
C233 C 0.30276 0.6237 0.48112 0.0
C234 C 0.48255 0.55521 0.5069 0.0
C235 C 0.46037 0.51651 0.51293 0.0
C236 C 0.5505 0.55824 0.50321 0.0
C237 C 0.57647 0.59766 0.4958 0.0
C238 C 0.52363 0.62068 0.46704 0.0
C239 C 0.54992 0.65684 0.45943 0.0
C240 C 0.62901 0.67019 0.48034 0.0
C241 C 0.68178 0.6476 0.50903 0.0
C242 C 0.65583 0.61141 0.51672 0.0
C243 C 0.61775 0.38004 0.48703 0.0
C244 C 0.70144 0.37813 0.50846 0.0
C245 C 0.57497 0.4141 0.48801 0.0
C246 C 0.6151 0.44689 0.5104 0.0
C247 C 0.69866 0.44482 0.53191 0.0
C248 C 0.74129 0.41073 0.53109 0.0
C249 C 0.57039 0.48386 0.51072 0.0
C250 C 0.59344 0.52258 0.50522 0.0
C251 C 0.50394 0.48104 0.51534 0.0
C252 C 0.48178 0.44197 0.52486 0.0
C253 C 0.53788 0.42132 0.55445 0.0
C254 C 0.51636 0.38511 0.56402 0.0
C255 C 0.43896 0.36911 0.54413 0.0
C256 C 0.38281 0.38946 0.51466 0.0
C257 C 0.40387 0.4259 0.5051 0.0
H258 H 0.4224 0.34104 0.55158 0.0
H259 H 0.64958 0.69797 0.4743 0.0
H260 H 0.07273 0.17466 0.962 0.0
H261 H 0.99414 0.11569 0.96215 0.0
H262 H 0.21278 0.04978 0.02709 0.0
H263 H 0.29124 0.10838 0.02684 0.0
H264 H 0.10418 1.00008 0.97785 0.0
H265 H 0.10792 0.09271 0.06009 0.0
H266 H 0.08978 0.15918 0.08086 0.0
H267 H 0.83958 0.15805 0.00443 0.0
H268 H 0.85638 0.09149 0.98313 0.0
H269 H 0.93755 0.84364 0.03259 0.0
H270 H 0.01676 0.90216 0.03204 0.0
H271 H 0.7987 0.96733 0.96507 0.0
H272 H 0.71967 0.90926 0.96565 0.0
H273 H 0.9073 0.0171 0.01531 0.0
H274 H 0.90437 0.92188 0.93469 0.0
H275 H 0.92393 0.85376 0.91667 0.0
H276 H 0.17512 0.85919 0.99141 0.0
H277 H 0.15678 0.92705 0.01032 0.0
C278 C 0.10389 0.14759 0.9763 0.0
C279 C 0.18813 0.14622 0.99452 0.0
C280 C 0.059 0.11391 0.97643 0.0
C281 C 0.0975 0.07828 0.99486 0.0
C282 C 0.18161 0.07677 0.01263 0.0
C283 C 0.22641 0.1104 0.01256 0.0
C284 C 0.05046 0.04285 0.99621 0.0
C285 C 0.06177 1.00374 0.98638 0.0
C286 C 0.99422 0.04756 0.00689 0.0
C287 C 0.98356 0.08731 0.01984 0.0
C288 C 0.04912 0.10675 0.0476 0.0
C289 C 0.03906 0.14443 0.05948 0.0
C290 C 0.96363 0.16296 0.04388 0.0
C291 C 0.89801 0.14369 0.01646 0.0
C292 C 0.90771 0.10593 0.00453 0.0
C293 C 0.90668 0.87047 0.01778 0.0
C294 C 0.82245 0.87183 -0.0009 0.0
C295 C 0.95191 0.90386 0.01742 0.0
C296 C 0.91368 0.93914 0.99833 0.0
C297 C 0.82959 0.94059 0.98004 0.0
C298 C 0.78449 0.90726 0.9803 0.0
C299 C 0.9609 0.97437 0.99691 0.0
C300 C 0.9496 0.01344 0.00671 0.0
C301 C 0.01728 0.96956 0.9863 0.0
C302 C 0.02906 0.92943 0.97414 0.0
C303 C 0.96373 0.90848 0.94739 0.0
C304 C 0.97457 0.8699 0.93703 0.0
C305 C 0.05067 0.85211 0.95294 0.0
C306 C 0.11617 0.87299 0.97913 0.0
C307 C 0.1056 0.91153 0.98968 0.0
H308 H 0.05887 0.82218 0.94494 0.0
H309 H 0.95596 0.19216 0.05308 0.0
H310 H 0.71344 0.12721 0.44478 0.0
H311 H 0.79121 0.06819 0.44493 0.0
H312 H 1.00086 0.11619 0.53386 0.0
H313 H 0.92333 0.17566 0.53355 0.0
H314 H 0.03777 0.08778 0.48855 0.0
H315 H 0.88878 0.03733 0.53881 0.0
H316 H 0.76704 0.02307 0.54123 0.0
H317 H 0.67364 0.94865 0.45155 0.0
H318 H 0.79438 0.96295 0.44831 0.0
H319 H 0.28176 0.9121 0.54163 0.0
H320 H 0.19831 0.97021 0.53761 0.0
H321 H 0.9936 0.91306 0.45219 0.0
H322 H 0.07697 0.85402 0.45682 0.0
H323 H 0.9502 0.94595 0.49266 0.0
H324 H 0.09817 0.99402 0.4425 0.0
H325 H 0.21802 1.00827 0.43865 0.0
H326 H 0.31076 0.08723 0.52573 0.0
H327 H 0.19198 0.07299 0.53042 0.0
C328 C 0.77614 0.12519 0.46436 0.0
C329 C 0.81224 0.15589 0.48929 0.0
C330 C 0.82045 0.09135 0.4645 0.0
C331 C 0.90164 0.08735 0.48972 0.0
C332 C 0.93824 0.11849 0.51422 0.0
C333 C 0.89392 0.15242 0.51406 0.0
C334 C 0.94844 0.05077 0.49057 0.0
C335 C 0.01918 0.05678 0.48989 0.0
C336 C 0.92285 1.01021 0.49119 0.0
C337 C 0.85025 1.00158 0.49312 0.0
C338 C 0.84199 0.01821 0.51944 0.0
C339 C 0.77321 1.01007 0.52099 0.0
C340 C 0.71254 0.98507 0.4965 0.0
C341 C 0.72061 0.96807 0.47046 0.0
C342 C 0.78922 0.97616 0.46877 0.0
C343 C 0.21895 0.9119 0.52198 0.0
C344 C 0.186 0.87874 0.49932 0.0
C345 C 0.17133 0.94527 0.51958 0.0
C346 C 0.08992 0.94658 0.49411 0.0
C347 C 0.05635 0.91296 0.47191 0.0
C348 C 0.10398 0.87928 0.47451 0.0
C349 C 0.04016 0.98293 0.49101 0.0
C350 C 0.96877 0.9769 0.49121 0.0
C351 C 0.06486 0.02351 0.48972 0.0
C352 C 0.13646 0.03213 0.48699 0.0
C353 C 0.14441 0.01416 0.461 0.0
C354 C 0.21211 0.02228 0.45864 0.0
C355 C 0.27205 0.04856 0.48198 0.0
C356 C 0.26433 0.06684 0.50769 0.0
C357 C 0.19679 0.05879 0.5102 0.0
H358 H 0.3244 0.05482 0.4801 0.0
H359 H 0.65936 0.97879 0.49775 0.0
H360 H 0.52069 0.25278 0.37388 0.0
H361 H 0.47462 0.24587 0.31334 0.0
H362 H 0.71236 0.27566 0.33413 0.0
H363 H 0.7581 0.28302 0.39388 0.0
H364 H 0.60108 0.31326 0.27801 0.0
H365 H 0.65426 0.17797 0.32423 0.0
H366 H 0.64347 0.11961 0.35577 0.0
H367 H 0.39035 0.11162 0.28446 0.0
H368 H 0.39942 0.1704 0.25279 0.0
H369 H 0.51576 0.25496 0.11412 0.0
H370 H 0.58449 0.25278 0.17619 0.0
H371 H 0.36167 0.21985 0.16983 0.0
H372 H 0.29434 0.21991 0.10852 0.0
H373 H 0.48063 0.18104 0.22051 0.0
H374 H 0.42963 0.32276 0.17856 0.0
H375 H 0.44473 0.38016 0.14726 0.0
H376 H 0.70094 0.37404 0.21135 0.0
H377 H 0.68728 0.31634 0.24279 0.0
C378 C 0.56268 0.25833 0.36542 0.0
C379 C 0.64314 0.26815 0.38869 0.0
C380 C 0.53652 0.25417 0.33095 0.0
C381 C 0.59056 0.25975 0.31947 0.0
C382 C 0.66984 0.27115 0.34249 0.0
C383 C 0.69589 0.27519 0.37672 0.0
C384 C 0.56576 0.25246 0.28368 0.0
C385 C 0.57549 0.28422 0.26551 0.0
C386 C 0.533 0.21448 0.26757 0.0
C387 C 0.5274 0.17883 0.28632 0.0
C388 C 0.59619 0.16395 0.31541 0.0
C389 C 0.5904 0.13078 0.33329 0.0
C390 C 0.51624 0.11197 0.32216 0.0
C391 C 0.44774 0.12625 0.29307 0.0
C392 C 0.45317 0.15948 0.27513 0.0
C393 C 0.48195 0.24652 0.12603 0.0
C394 C 0.39918 0.2386 0.10645 0.0
C395 C 0.52112 0.24548 0.16143 0.0
C396 C 0.47764 0.2371 0.17756 0.0
C397 C 0.39631 0.22667 0.15796 0.0
C398 C 0.35761 0.22721 0.1228 0.0
C399 C 0.51379 0.24222 0.21455 0.0
C400 C 0.50666 0.20999 0.23308 0.0
C401 C 0.54947 0.27968 0.23107 0.0
C402 C 0.55745 0.31511 0.21282 0.0
C403 C 0.48914 0.33365 0.18591 0.0
C404 C 0.49745 0.36619 0.16814 0.0
C405 C 0.57376 0.38066 0.17725 0.0
C406 C 0.6419 0.36276 0.20428 0.0
C407 C 0.63391 0.33019 0.22211 0.0
H408 H 0.58008 0.40578 0.1634 0.0
H409 H 0.51187 0.08629 0.33604 0.0
H410 H 0.52172 0.72341 0.13719 0.0
H411 H 0.50661 0.72678 0.1869 0.0
H412 H 0.53717 0.85809 0.19074 0.0
H413 H 0.55355 0.85485 0.14135 0.0
H414 H 0.62211 0.82587 0.25291 0.0
H415 H 0.35176 0.8192 0.16221 0.0
H416 H 0.23454 0.79338 0.10956 0.0
H417 H 0.25461 0.67693 0.15672 0.0
H418 H 0.37257 0.70197 0.20965 0.0
H419 H 0.48292 0.86115 0.36782 0.0
H420 H 0.49405 0.86105 0.31696 0.0
H421 H 0.48553 0.72886 0.31478 0.0
H422 H 0.47511 0.7288 0.36582 0.0
H423 H 0.38522 0.76522 0.25085 0.0
H424 H 0.66087 0.77305 0.34224 0.0
H425 H 0.77593 0.80158 0.39431 0.0
H426 H 0.74432 0.91762 0.34498 0.0
H427 H 0.62841 0.88988 0.29271 0.0
C428 C 0.52578 0.75297 0.14876 0.0
C429 C 0.53849 0.78887 0.13518 0.0
C430 C 0.51637 0.75491 0.17699 0.0
C431 C 0.51963 0.79277 0.19232 0.0
C432 C 0.53391 0.82857 0.17925 0.0
C433 C 0.54277 0.82668 0.15088 0.0
C434 C 0.50924 0.79485 0.22226 0.0
C435 C 0.57015 0.81276 0.25238 0.0
C436 C 0.44132 0.77787 0.22165 0.0
C437 C 0.37126 0.76237 0.18981 0.0
C438 C 0.33155 0.78798 0.16128 0.0
C439 C 0.26487 0.77352 0.13143 0.0
C440 C 0.23714 0.73354 0.12983 0.0
C441 C 0.27609 0.70792 0.15807 0.0
C442 C 0.34277 0.72225 0.18802 0.0
C443 C 0.48313 0.8321 0.3564 0.0
C444 C 0.47848 0.79498 0.37085 0.0
C445 C 0.4899 0.83206 0.32747 0.0
C446 C 0.49126 0.79493 0.31222 0.0
C447 C 0.48492 0.75785 0.3262 0.0
C448 C 0.47938 0.75785 0.35542 0.0
C449 C 0.49957 0.79476 0.28177 0.0
C450 C 0.4378 0.77764 0.25148 0.0
C451 C 0.56664 0.81255 0.2822 0.0
C452 C 0.63547 0.82952 0.31371 0.0
C453 C 0.67797 0.80477 0.34262 0.0
C454 C 0.74346 0.82076 0.37213 0.0
C455 C 0.76729 0.86142 0.37299 0.0
C456 C 0.72569 0.88616 0.34431 0.0
C457 C 0.66009 0.87032 0.31474 0.0
H458 H 0.81809 0.87373 0.39584 0.0
H459 H 0.18546 0.72241 0.1067 0.0
H460 H 0.52628 0.8192 0.88826 0.0
H461 H 0.46799 0.83628 0.82797 0.0
H462 H 0.63777 0.75569 0.82289 0.0
H463 H 0.69694 0.73965 0.88276 0.0
H464 H 0.62768 0.82805 0.79315 0.0
H465 H 0.43998 0.7331 0.79978 0.0
H466 H 0.34519 0.718 0.81881 0.0
H467 H 0.19202 0.8155 0.75694 0.0
H468 H 0.28962 0.83365 0.73986 0.0
H469 H 0.49127 0.76328 0.62673 0.0
H470 H 0.5405 0.7761 0.68671 0.0
H471 H 0.32118 0.83897 0.6605 0.0
H472 H 0.27001 0.82459 0.60073 0.0
H473 H 0.3475 0.79217 0.70667 0.0
H474 H 0.51739 0.88599 0.69512 0.0
H475 H 0.61391 0.91302 0.68019 0.0
H476 H 0.79264 0.8289 0.74946 0.0
H477 H 0.6967 0.80049 0.76412 0.0
C478 C 0.55026 0.80492 0.87403 0.0
C479 C 0.6158 0.77807 0.88997 0.0
C480 C 0.51742 0.81486 0.83976 0.0
C481 C 0.54856 0.7972 0.82097 0.0
C482 C 0.61321 0.76993 0.83694 0.0
C483 C 0.64667 0.76059 0.87109 0.0
C484 C 0.51429 0.80591 0.78449 0.0
C485 C 0.56649 0.82012 0.77406 0.0
C486 C 0.4332 0.79768 0.75988 0.0
C487 C 0.3731 0.78527 0.76906 0.0
C488 C 0.38672 0.75174 0.79057 0.0
C489 C 0.33247 0.74269 0.80108 0.0
C490 C 0.26226 0.7656 0.78894 0.0
C491 C 0.24654 0.79786 0.76644 0.0
C492 C 0.30181 0.80785 0.75665 0.0
C493 C 0.45407 0.78018 0.63382 0.0
C494 C 0.37664 0.79252 0.60924 0.0
C495 C 0.48247 0.78772 0.66809 0.0
C496 C 0.43513 0.80868 0.67832 0.0
C497 C 0.3589 0.82249 0.65346 0.0
C498 C 0.32971 0.81421 0.61929 0.0
C499 C 0.46204 0.81265 0.7149 0.0
C500 C 0.40843 0.80093 0.72544 0.0
C501 C 0.54144 0.82416 0.73964 0.0
C502 C 0.59932 0.84087 0.73054 0.0
C503 C 0.57696 0.87291 0.70692 0.0
C504 C 0.63166 0.8885 0.6985 0.0
C505 C 0.7093 0.87264 0.71381 0.0
C506 C 0.73249 0.84121 0.73763 0.0
C507 C 0.67789 0.82531 0.74597 0.0
H508 H 0.75154 0.88477 0.70726 0.0
H509 H 0.22003 0.75838 0.79695 0.0
H510 H 0.45325 0.18022 0.61001 0.0
H511 H 0.44986 0.17699 0.66225 0.0
H512 H 0.61499 0.27893 0.70283 0.0
H513 H 0.62484 0.27956 0.65206 0.0
H514 H 0.65242 0.2312 0.75094 0.0
H515 H 0.39883 0.28579 0.66689 0.0
H516 H 0.2698 0.28829 0.61274 0.0
H517 H 0.19523 0.17656 0.63803 0.0
H518 H 0.3243 0.17309 0.69216 0.0
H519 H 0.53617 0.29445 0.87124 0.0
H520 H 0.55442 0.29118 0.82219 0.0
H521 H 0.46555 0.16693 0.80255 0.0
H522 H 0.44872 0.16964 0.85189 0.0
H523 H 0.39033 0.22473 0.74503 0.0
H524 H 0.64892 0.17676 0.83316 0.0
H525 H 0.77813 0.18004 0.88714 0.0
H526 H 0.84227 0.28877 0.85373 0.0
H527 H 0.7126 0.28672 0.79983 0.0
C528 C 0.49008 0.20153 0.63021 0.0
C529 C 0.53854 0.23063 0.62636 0.0
C530 C 0.48697 0.20011 0.66 0.0
C531 C 0.53031 0.2285 0.68636 0.0
C532 C 0.58016 0.2569 0.6829 0.0
C533 C 0.58477 0.25768 0.65348 0.0
C534 C 0.52408 0.22868 0.71751 0.0
C535 C 0.5949 0.23038 0.7495 0.0
C536 C 0.44924 0.22701 0.716 0.0
C537 C 0.3716 0.22896 0.68342 0.0
C538 C 0.35516 0.26159 0.66079 0.0
C539 C 0.28198 0.2632 0.63012 0.0
C540 C 0.22444 0.23254 0.6219 0.0
C541 C 0.23991 0.20025 0.64439 0.0
C542 C 0.31304 0.19845 0.67508 0.0
C543 C 0.52078 0.26639 0.85652 0.0
C544 C 0.49079 0.23234 0.86541 0.0
C545 C 0.53165 0.2645 0.82865 0.0
C546 C 0.51156 0.22877 0.80883 0.0
C547 C 0.48171 0.19473 0.81761 0.0
C548 C 0.47249 0.19628 0.8459 0.0
C549 C 0.51839 0.22747 0.77806 0.0
C550 C 0.44763 0.2256 0.74624 0.0
C551 C 0.59311 0.2301 0.77974 0.0
C552 C 0.67031 0.23192 0.81259 0.0
C553 C 0.68991 0.20177 0.8375 0.0
C554 C 0.76343 0.20333 0.86807 0.0
C555 C 0.81824 0.23469 0.87392 0.0
C556 C 0.79965 0.26458 0.84922 0.0
C557 C 0.7261 0.26324 0.81867 0.0
H558 H 0.87525 0.23575 0.89754 0.0
H559 H 0.16781 0.23386 0.59815 0.0
H560 H 1.00181 0.77116 0.11915 0.0
H561 H 0.0608 0.7681 0.18089 0.0
H562 H 0.84705 0.70811 0.16648 0.0
H563 H 0.78776 0.71184 0.10537 0.0
H564 H 0.88147 0.77026 0.20696 0.0
H565 H 0.02801 0.65894 0.19708 0.0
H566 H 0.11821 0.62226 0.18307 0.0
H567 H 0.31215 0.70242 0.24887 0.0
H568 H 0.22255 0.74062 0.26235 0.0
H569 H 0.02617 0.72984 0.38204 0.0
H570 H 0.97152 0.72279 0.3208 0.0
H571 H 0.18332 0.78125 0.33174 0.0
H572 H 0.23888 0.78696 0.39251 0.0
H573 H 0.14849 0.71715 0.29311 0.0
H574 H 0.99661 0.83131 0.29932 0.0
H575 H 0.9073 0.86452 0.31571 0.0
H576 H 0.72402 0.77513 0.25809 0.0
H577 H 0.81244 0.74124 0.24165 0.0
C578 C 0.9682 0.75677 0.12928 0.0
C579 C 0.88991 0.74225 0.10754 0.0
C580 C 1.00189 0.75495 0.1645 0.0
C581 C 0.9581 0.73799 0.17827 0.0
C582 C 0.88159 0.72169 0.15645 0.0
C583 C 0.8478 0.72387 0.12149 0.0
C584 C 0.98855 0.73984 0.21515 0.0
C585 C 0.93955 0.75816 0.22576 0.0
C586 C 0.06491 0.7248 0.23971 0.0
C587 C 0.11807 0.70302 0.23039 0.0
C588 C 0.08947 0.66928 0.20808 0.0
C589 C 0.14058 0.64818 0.20026 0.0
C590 C 0.22076 0.66014 0.21494 0.0
C591 C 0.24989 0.69341 0.23731 0.0
C592 C 0.1989 0.71486 0.24499 0.0
C593 C 0.06057 0.74136 0.37122 0.0
C594 C 0.13672 0.75883 0.392 0.0
C595 C 0.02938 0.7374 0.3363 0.0
C596 C 0.07317 0.75177 0.32165 0.0
C597 C 0.14865 0.76973 0.34244 0.0
C598 C 0.18021 0.77307 0.37721 0.0
C599 C 0.04173 0.74785 0.28478 0.0
C600 C 0.09049 0.72922 0.2742 0.0
C601 C 0.96516 0.76253 0.26019 0.0
C602 C 0.91146 0.7835 0.26955 0.0
C603 C 0.93739 0.81866 0.29028 0.0
C604 C 0.88689 0.83763 0.29956 0.0
C605 C 0.81012 0.82191 0.28803 0.0
C606 C 0.78346 0.78733 0.26703 0.0
C607 C 0.83372 0.76824 0.2577 0.0
H608 H 0.77136 0.83658 0.29535 0.0
H609 H 0.26044 0.6435 0.20913 0.0
H610 H 0.0122 0.21707 0.37752 0.0
H611 H 0.02065 0.21425 0.32622 0.0
H612 H 0.97713 0.34437 0.31234 0.0
H613 H 0.96933 0.34754 0.36375 0.0
H614 H 0.88789 0.30416 0.25369 0.0
H615 H 0.16532 0.3041 0.3424 0.0
H616 H 0.28519 0.27956 0.39446 0.0
H617 H 0.26347 0.16228 0.34782 0.0
H618 H 0.14275 0.18593 0.29563 0.0
H619 H 1.00407 0.33845 0.13149 0.0
H620 H 0.98991 0.33868 0.18137 0.0
H621 H 0.04044 0.2091 0.19444 0.0
H622 H 0.05411 0.20855 0.14437 0.0
H623 H 0.12403 0.24735 0.25319 0.0
H624 H 0.84959 0.2477 0.16382 0.0
H625 H 0.72686 0.27082 0.1123 0.0
H626 H 0.7398 0.3862 0.16003 0.0
H627 H 0.86341 0.36408 0.21166 0.0
C628 C 1.00543 0.24522 0.36383 0.0
C629 C 0.99032 0.28257 0.37495 0.0
C630 C 0.01009 0.24353 0.3344 0.0
C631 C 1.00029 0.27916 0.31549 0.0
C632 C 0.98475 0.31642 0.3264 0.0
C633 C 0.98006 0.31815 0.3558 0.0
C634 C 1.00508 0.27762 0.2841 0.0
C635 C 0.94002 0.29229 0.25366 0.0
C636 C 0.07205 0.26098 0.28379 0.0
C637 C 0.14446 0.24666 0.31522 0.0
C638 C 0.18566 0.27296 0.34335 0.0
C639 C 0.25386 0.25923 0.37286 0.0
C640 C 0.28181 0.21936 0.37448 0.0
C641 C 0.24169 0.19314 0.34656 0.0
C642 C 0.17341 0.2067 0.31699 0.0
C643 C 0.01112 0.30983 0.14466 0.0
C644 C 0.03016 0.27345 0.13375 0.0
C645 C 1.00299 0.31002 0.17326 0.0
C646 C 0.01319 0.27381 0.19159 0.0
C647 C 0.03231 0.23747 0.18081 0.0
C648 C 0.0405 0.23724 0.15221 0.0
C649 C 0.00693 0.27414 0.22268 0.0
C650 C 0.07178 0.25923 0.25312 0.0
C651 C 0.93961 0.29051 0.22295 0.0
C652 C 0.86654 0.30439 0.1915 0.0
C653 C 0.82695 0.27821 0.16319 0.0
C654 C 0.75703 0.2911 0.13399 0.0
C655 C 0.7257 0.33 0.13285 0.0
C656 C 0.76427 0.35612 0.1609 0.0
C657 C 0.83427 0.34342 0.19014 0.0
H658 H 0.67143 0.33987 0.11026 0.0
H659 H 0.33465 0.2088 0.39735 0.0
H660 H 0.75118 0.25265 0.60319 0.0
H661 H 0.8004 0.2596 0.66348 0.0
H662 H 0.033 0.29557 0.68118 0.0
H663 H 0.98459 0.28756 0.62068 0.0
H664 H 0.04971 0.24339 0.72659 0.0
H665 H 0.89632 0.36412 0.67975 0.0
H666 H 0.77925 0.40686 0.64247 0.0
H667 H 0.64754 0.3532 0.68465 0.0
H668 H 0.76284 0.30903 0.72141 0.0
H669 H 0.21411 0.31251 0.8916 0.0
H670 H 0.14911 0.31842 0.83026 0.0
H671 H 0.93579 0.26114 0.81857 0.0
H672 H 1.00034 0.25576 0.88049 0.0
H673 H 0.90691 0.32541 0.7705 0.0
H674 H 0.0693 0.20235 0.81621 0.0
H675 H 0.19538 0.16684 0.85569 0.0
H676 H 0.31883 0.23506 0.81613 0.0
H677 H 0.19421 0.27135 0.77699 0.0
C678 C 0.81295 0.26199 0.61987 0.0
C679 C 0.86417 0.26967 0.60722 0.0
C680 C 0.84074 0.26623 0.65432 0.0
C681 C 0.91984 0.27887 0.6767 0.0
C682 C 0.97154 0.28596 0.66424 0.0
C683 C 0.94398 0.28129 0.62975 0.0
C684 C 0.94944 0.28326 0.7133 0.0
C685 C 0.01886 0.26178 0.73611 0.0
C686 C 0.90837 0.30677 0.72568 0.0
C687 C 0.83816 0.33281 0.70312 0.0
C688 C 0.84206 0.36093 0.68077 0.0
C689 C 0.77598 0.38547 0.65973 0.0
C690 C 0.70596 0.38266 0.66114 0.0
C691 C 0.70182 0.35528 0.68356 0.0
C692 C 0.76745 0.33038 0.70443 0.0
C693 C 0.15293 0.30167 0.87606 0.0
C694 C 0.11271 0.28286 0.89068 0.0
C695 C 0.11585 0.30524 0.84105 0.0
C696 C 0.03854 0.28941 0.82005 0.0
C697 C 0.9958 0.2733 0.83452 0.0
C698 C 0.03273 0.27012 0.86977 0.0
C699 C 0.00673 0.2857 0.78332 0.0
C700 C 0.93704 0.30706 0.76065 0.0
C701 C 0.04814 0.26274 0.77094 0.0
C702 C 0.12252 0.23975 0.79382 0.0
C703 C 0.12349 0.20985 0.81607 0.0
C704 C 0.19478 0.18959 0.83843 0.0
C705 C 0.26527 0.19869 0.83854 0.0
C706 C 0.26449 0.22795 0.81617 0.0
C707 C 0.1935 0.24837 0.79385 0.0
H708 H 0.32038 0.18302 0.85591 0.0
H709 H 0.65507 0.40186 0.64499 0.0
H710 H 0.14797 0.73794 0.66666 0.0
H711 H 0.12967 0.72822 0.71498 0.0
H712 H 0.89764 0.67353 0.64895 0.0
H713 H 0.91329 0.68543 0.60036 0.0
H714 H 0.87935 0.71668 0.68762 0.0
H715 H 0.06187 0.62002 0.7035 0.0
H716 H 0.17783 0.58281 0.70898 0.0
H717 H 0.33239 0.64256 0.80409 0.0
H718 H 0.21765 0.6811 0.79886 0.0
H719 H 0.00928 0.65239 0.87496 0.0
H720 H 0.01892 0.64163 0.82448 0.0
H721 H 0.93108 0.76416 0.79075 0.0
H722 H 0.9222 0.77529 0.84126 0.0
H723 H 0.09846 0.66966 0.79975 0.0
H724 H 0.80556 0.76517 0.70246 0.0
H725 H 0.66532 0.76909 0.68839 0.0
H726 H 0.69769 0.6617 0.74806 0.0
H727 H 0.83659 0.65562 0.76087 0.0
C728 C 0.09255 0.72429 0.66226 0.0
C729 C 0.03216 0.71254 0.62934 0.0
C730 C 0.08261 0.71821 0.69012 0.0
C731 C 0.01246 0.69978 0.68591 0.0
C732 C 0.95231 0.6879 0.65311 0.0
C733 C 0.96186 0.6943 0.62524 0.0
C734 C 1.0007 0.69433 0.71545 0.0
C735 C 0.92773 0.70672 0.71215 0.0
C736 C 0.06083 0.67766 0.74687 0.0
C737 C 0.13105 0.65493 0.75012 0.0
C738 C 0.12074 0.62619 0.72522 0.0
C739 C 0.18633 0.60459 0.72837 0.0
C740 C 0.26264 0.61074 0.75666 0.0
C741 C 0.27335 0.63825 0.78197 0.0
C742 C 0.20799 0.66011 0.77884 0.0
C743 C 0.99274 0.67726 0.857 0.0
C744 C 0.96483 0.71476 0.86235 0.0
C745 C 0.99817 0.67098 0.82802 0.0
C746 C 0.97536 0.70193 0.80353 0.0
C747 C 0.94792 0.73946 0.8089 0.0
C748 C 0.94261 0.74578 0.83786 0.0
C749 C 0.98018 0.69552 0.77234 0.0
C750 C 0.05108 0.68025 0.77524 0.0
C751 C 0.91535 0.70548 0.73973 0.0
C752 C 0.8325 0.71045 0.73321 0.0
C753 C 0.78291 0.74233 0.71258 0.0
C754 C 0.70327 0.74477 0.70466 0.0
C755 C 0.67279 0.71588 0.71765 0.0
C756 C 0.72158 0.68426 0.73827 0.0
C757 C 0.80072 0.68125 0.74578 0.0
H758 H 0.61127 0.71759 0.71162 0.0
H759 H 0.31333 0.59389 0.75912 0.0
loop_
_geom_bond_atom_site_label_1
_geom_bond_atom_site_label_2
_geom_bond_distance
_geom_bond_site_symmetry_2
_ccdc_geom_bond_type
Sm0 C2 2.846 . S
Sm0 O20 2.543 . S
Sm0 O21 2.450 . S
Sm0 O22 2.681 1_554 S
Sm0 O23 2.464 . S
Sm0 O24 2.396 . S
Sm0 O28 2.386 . S
Sm0 O31 2.408 1_554 S
Sm1 C11 2.846 . S
Sm1 O22 2.386 . S
Sm1 O25 2.408 1_556 S
Sm1 O26 2.543 . S
Sm1 O27 2.450 . S
Sm1 O28 2.681 1_556 S
Sm1 O29 2.464 . S
Sm1 O30 2.396 . S
C2 Sm0 2.846 . S
C2 C3 1.506 . S
C2 O20 1.261 . S
C2 O21 1.242 . S
C3 C2 1.506 . S
C3 C4 1.358 . S
C3 C8 1.382 . S
C4 C3 1.358 . S
C4 C5 1.385 . S
C4 H32 0.930 . S
C5 C4 1.385 . S
C5 C6 1.395 . S
C5 H33 0.929 . S
C6 C5 1.395 . S
C6 C7 1.335 . S
C7 C6 1.335 . S
C7 C8 1.398 . S
C7 H34 0.930 . S
C8 C3 1.382 . S
C8 C7 1.398 . S
C8 H35 0.929 . S
C9 O22 1.271 1_554 S
C9 O23 1.251 . S
C10 O24 1.252 . S
C10 O25 1.272 . S
C11 Sm1 2.846 . S
C11 C12 1.506 . S
C11 O26 1.261 . S
C11 O27 1.242 . S
C12 C11 1.506 . S
C12 C13 1.358 . S
C12 C17 1.382 . S
C13 C12 1.358 . S
C13 C14 1.385 . S
C13 H36 0.930 . S
C14 C13 1.385 . S
C14 C15 1.395 . S
C14 H37 0.929 . S
C15 C14 1.395 . S
C15 C16 1.335 . S
C16 C15 1.335 . S
C16 C17 1.398 . S
C16 H38 0.930 . S
C17 C12 1.382 . S
C17 C16 1.398 . S
C17 H39 0.929 . S
C18 O28 1.271 1_556 S
C18 O29 1.251 . S
C19 O30 1.252 . S
C19 O31 1.272 . S
O20 Sm0 2.543 . S
O20 C2 1.261 . S
O21 Sm0 2.450 . S
O21 C2 1.242 . S
O22 Sm0 2.681 1_556 S
O22 Sm1 2.386 . S
O22 C9 1.271 1_556 S
O23 Sm0 2.464 . S
O23 C9 1.251 . S
O24 Sm0 2.396 . S
O24 C10 1.252 . S
O25 Sm1 2.408 1_554 S
O25 C10 1.272 . S
O26 Sm1 2.543 . S
O26 C11 1.261 . S
O27 Sm1 2.450 . S
O27 C11 1.242 . S
O28 Sm0 2.386 . S
O28 Sm1 2.681 1_554 S
O28 C18 1.271 1_554 S
O29 Sm1 2.464 . S
O29 C18 1.251 . S
O30 Sm1 2.396 . S
O30 C19 1.252 . S
O31 Sm0 2.408 1_556 S
O31 C19 1.272 . S
H32 C4 0.930 . S
H33 C5 0.929 . S
H34 C7 0.930 . S
H35 C8 0.929 . S
H36 C13 0.930 . S
H37 C14 0.929 . S
H38 C16 0.930 . S
H39 C17 0.929 . S
Sm40 C42 2.846 . S
Sm40 O60 2.543 . S
Sm40 O61 2.450 . S
Sm40 O62 2.681 1_554 S
Sm40 O63 2.464 . S
Sm40 O64 2.396 . S
Sm40 O68 2.386 . S
Sm40 O71 2.408 1_554 S
Sm41 C51 2.846 . S
Sm41 O62 2.386 . S
Sm41 O65 2.408 1_556 S
Sm41 O66 2.543 . S
Sm41 O67 2.450 . S
Sm41 O68 2.681 1_556 S
Sm41 O69 2.464 . S
Sm41 O70 2.396 . S
C42 Sm40 2.846 . S
C42 C43 1.506 . S
C42 O60 1.261 . S
C42 O61 1.242 . S
C43 C42 1.506 . S
C43 C44 1.358 . S
C43 C48 1.382 . S
C44 C43 1.358 . S
C44 C45 1.385 . S
C44 H72 0.930 . S
C45 C44 1.385 . S
C45 C46 1.395 . S
C45 H73 0.929 . S
C46 C45 1.395 . S
C46 C47 1.335 . S
C47 C46 1.335 . S
C47 C48 1.398 . S
C47 H74 0.930 . S
C48 C43 1.382 . S
C48 C47 1.398 . S
C48 H75 0.929 . S
C49 O62 1.271 1_554 S
C49 O63 1.251 . S
C50 O64 1.252 . S
C50 O65 1.272 . S
C51 Sm41 2.846 . S
C51 C52 1.506 . S
C51 O66 1.261 . S
C51 O67 1.242 . S
C52 C51 1.506 . S
C52 C53 1.358 . S
C52 C57 1.382 . S
C53 C52 1.358 . S
C53 C54 1.385 . S
C53 H76 0.930 . S
C54 C53 1.385 . S
C54 C55 1.395 . S
C54 H77 0.929 . S
C55 C54 1.395 . S
C55 C56 1.335 . S
C56 C55 1.335 . S
C56 C57 1.398 . S
C56 H78 0.930 . S
C57 C52 1.382 . S
C57 C56 1.398 . S
C57 H79 0.929 . S
C58 O68 1.271 1_556 S
C58 O69 1.251 . S
C59 O70 1.252 . S
C59 O71 1.272 . S
O60 Sm40 2.543 . S
O60 C42 1.261 . S
O61 Sm40 2.450 . S
O61 C42 1.242 . S
O62 Sm40 2.681 1_556 S
O62 Sm41 2.386 . S
O62 C49 1.271 1_556 S
O63 Sm40 2.464 . S
O63 C49 1.251 . S
O64 Sm40 2.396 . S
O64 C50 1.252 . S
O65 Sm41 2.408 1_554 S
O65 C50 1.272 . S
O66 Sm41 2.543 . S
O66 C51 1.261 . S
O67 Sm41 2.450 . S
O67 C51 1.242 . S
O68 Sm40 2.386 . S
O68 Sm41 2.681 1_554 S
O68 C58 1.271 1_554 S
O69 Sm41 2.464 . S
O69 C58 1.251 . S
O70 Sm41 2.396 . S
O70 C59 1.252 . S
O71 Sm40 2.408 1_556 S
O71 C59 1.272 . S
H72 C44 0.930 . S
H73 C45 0.929 . S
H74 C47 0.930 . S
H75 C48 0.929 . S
H76 C53 0.930 . S
H77 C54 0.929 . S
H78 C56 0.930 . S
H79 C57 0.929 . S
Sm80 C82 2.846 . S
Sm80 O100 2.543 . S
Sm80 O101 2.450 . S
Sm80 O102 2.681 . S
Sm80 O103 2.464 . S
Sm80 O104 2.396 . S
Sm80 O108 2.386 . S
Sm80 O111 2.408 . S
Sm81 C91 2.846 . S
Sm81 O102 2.386 . S
Sm81 O105 2.408 . S
Sm81 O106 2.543 . S
Sm81 O107 2.450 . S
Sm81 O108 2.681 . S
Sm81 O109 2.464 . S
Sm81 O110 2.396 . S
C82 Sm80 2.846 . S
C82 C83 1.506 . S
C82 O100 1.261 . S
C82 O101 1.242 . S
C83 C82 1.506 . S
C83 C84 1.358 . S
C83 C88 1.382 . S
C84 C83 1.358 . S
C84 C85 1.385 . S
C84 H112 0.930 . S
C85 C84 1.385 . S
C85 C86 1.395 . S
C85 H113 0.929 . S
C86 C85 1.395 . S
C86 C87 1.335 . S
C87 C86 1.335 . S
C87 C88 1.398 . S
C87 H114 0.930 . S
C88 C83 1.382 . S
C88 C87 1.398 . S
C88 H115 0.929 . S
C89 O102 1.271 . S
C89 O103 1.251 . S
C90 O104 1.252 . S
C90 O105 1.272 . S
C91 Sm81 2.846 . S
C91 C92 1.506 . S
C91 O106 1.261 . S
C91 O107 1.242 . S
C92 C91 1.506 . S
C92 C93 1.358 . S
C92 C97 1.382 . S
C93 C92 1.358 . S
C93 C94 1.385 . S
C93 H116 0.930 . S
C94 C93 1.385 . S
C94 C95 1.395 . S
C94 H117 0.929 . S
C95 C94 1.395 . S
C95 C96 1.335 . S
C96 C95 1.335 . S
C96 C97 1.398 . S
C96 H118 0.930 . S
C97 C92 1.382 . S
C97 C96 1.398 . S
C97 H119 0.929 . S
C98 O108 1.271 . S
C98 O109 1.251 . S
C99 O110 1.252 . S
C99 O111 1.272 . S
O100 Sm80 2.543 . S
O100 C82 1.261 . S
O101 Sm80 2.450 . S
O101 C82 1.242 . S
O102 Sm80 2.681 . S
O102 Sm81 2.386 . S
O102 C89 1.271 . S
O103 Sm80 2.464 . S
O103 C89 1.251 . S
O104 Sm80 2.396 . S
O104 C90 1.252 . S
O105 Sm81 2.408 . S
O105 C90 1.272 . S
O106 Sm81 2.543 . S
O106 C91 1.261 . S
O107 Sm81 2.450 . S
O107 C91 1.242 . S
O108 Sm80 2.386 . S
O108 Sm81 2.681 . S
O108 C98 1.271 . S
O109 Sm81 2.464 . S
O109 C98 1.251 . S
O110 Sm81 2.396 . S
O110 C99 1.252 . S
O111 Sm80 2.408 . S
O111 C99 1.272 . S
H112 C84 0.930 . S
H113 C85 0.929 . S
H114 C87 0.930 . S
H115 C88 0.929 . S
H116 C93 0.930 . S
H117 C94 0.929 . S
H118 C96 0.930 . S
H119 C97 0.929 . S
Sm120 C122 2.846 . S
Sm120 O140 2.543 . S
Sm120 O141 2.450 . S
Sm120 O142 2.681 . S
Sm120 O143 2.464 . S
Sm120 O144 2.396 . S
Sm120 O148 2.386 . S
Sm120 O151 2.408 . S
Sm121 C131 2.846 . S
Sm121 O142 2.386 . S
Sm121 O145 2.408 . S
Sm121 O146 2.543 . S
Sm121 O147 2.450 . S
Sm121 O148 2.681 . S
Sm121 O149 2.464 . S
Sm121 O150 2.396 . S
C122 Sm120 2.846 . S
C122 C123 1.506 . S
C122 O140 1.261 . S
C122 O141 1.242 . S
C123 C122 1.506 . S
C123 C124 1.358 . S
C123 C128 1.382 . S
C124 C123 1.358 . S
C124 C125 1.385 . S
C124 H152 0.930 . S
C125 C124 1.385 . S
C125 C126 1.395 . S
C125 H153 0.929 . S
C126 C125 1.395 . S
C126 C127 1.335 . S
C127 C126 1.335 . S
C127 C128 1.398 . S
C127 H154 0.930 . S
C128 C123 1.382 . S
C128 C127 1.398 . S
C128 H155 0.929 . S
C129 O142 1.271 . S
C129 O143 1.251 . S
C130 O144 1.252 . S
C130 O145 1.272 . S
C131 Sm121 2.846 . S
C131 C132 1.506 . S
C131 O146 1.261 . S
C131 O147 1.242 . S
C132 C131 1.506 . S
C132 C133 1.358 . S
C132 C137 1.382 . S
C133 C132 1.358 . S
C133 C134 1.385 . S
C133 H156 0.930 . S
C134 C133 1.385 . S
C134 C135 1.395 . S
C134 H157 0.929 . S
C135 C134 1.395 . S
C135 C136 1.335 . S
C136 C135 1.335 . S
C136 C137 1.398 . S
C136 H158 0.930 . S
C137 C132 1.382 . S
C137 C136 1.398 . S
C137 H159 0.929 . S
C138 O148 1.271 . S
C138 O149 1.251 . S
C139 O150 1.252 . S
C139 O151 1.272 . S
O140 Sm120 2.543 . S
O140 C122 1.261 . S
O141 Sm120 2.450 . S
O141 C122 1.242 . S
O142 Sm120 2.681 . S
O142 Sm121 2.386 . S
O142 C129 1.271 . S
O143 Sm120 2.464 . S
O143 C129 1.251 . S
O144 Sm120 2.396 . S
O144 C130 1.252 . S
O145 Sm121 2.408 . S
O145 C130 1.272 . S
O146 Sm121 2.543 . S
O146 C131 1.261 . S
O147 Sm121 2.450 . S
O147 C131 1.242 . S
O148 Sm120 2.386 . S
O148 Sm121 2.681 . S
O148 C138 1.271 . S
O149 Sm121 2.464 . S
O149 C138 1.251 . S
O150 Sm121 2.396 . S
O150 C139 1.252 . S
O151 Sm120 2.408 . S
O151 C139 1.272 . S
H152 C124 0.930 . S
H153 C125 0.929 . S
H154 C127 0.930 . S
H155 C128 0.929 . S
H156 C133 0.930 . S
H157 C134 0.929 . S
H158 C136 0.930 . S
H159 C137 0.929 . S
H160 C178 0.951 . S
H161 C180 0.951 . S
H162 C182 0.950 . S
H163 C183 0.950 . S
H164 C185 0.950 . S
H165 C188 0.950 . S
H166 C189 0.950 . S
H167 C191 0.950 . S
H168 C192 0.950 . S
H169 C193 0.951 . S
H170 C195 0.951 . S
H171 C197 0.950 . S
H172 C198 0.950 . S
H173 C200 0.950 . S
H174 C203 0.950 . S
H175 C204 0.950 . S
H176 C206 0.950 . S
H177 C207 0.950 . S
C178 H160 0.951 . S
C178 C179 1.366 1_554 S
C178 C180 1.388 . S
C179 C178 1.366 1_556 S
C179 C183 1.385 . S
C180 H161 0.951 . S
C180 C178 1.388 . S
C180 C181 1.366 1_554 S
C181 C180 1.366 1_556 S
C181 C182 1.414 . S
C181 C184 1.499 . S
C182 H162 0.950 . S
C182 C181 1.414 . S
C182 C183 1.374 . S
C183 H163 0.950 . S
C183 C179 1.385 . S
C183 C182 1.374 . S
C184 C181 1.499 . S
C184 C185 1.373 1_556 S
C184 C186 1.389 . S
C185 H164 0.950 . S
C185 C184 1.373 1_554 S
C185 C201 1.377 . S
C186 C184 1.389 . S
C186 C187 1.524 . S
C186 C200 1.377 . S
C187 C186 1.524 . S
C187 C188 1.397 . S
C187 C192 1.363 . S
C188 H165 0.950 . S
C188 C187 1.397 . S
C188 C189 1.334 . S
C189 H166 0.950 . S
C189 C188 1.334 . S
C189 C190 1.287 . S
C190 C189 1.287 . S
C190 C191 1.524 . S
C190 H209 0.913 . S
C191 H167 0.950 . S
C191 C190 1.524 . S
C191 C192 1.415 . S
C192 H168 0.950 . S
C192 C187 1.363 . S
C192 C191 1.415 . S
C193 H169 0.951 . S
C193 C194 1.366 1_556 S
C193 C195 1.388 . S
C194 C193 1.366 1_554 S
C194 C198 1.385 . S
C195 H170 0.951 . S
C195 C193 1.388 . S
C195 C196 1.366 1_556 S
C196 C195 1.366 1_554 S
C196 C197 1.414 . S
C196 C199 1.499 . S
C197 H171 0.950 . S
C197 C196 1.414 . S
C197 C198 1.374 . S
C198 H172 0.950 . S
C198 C194 1.385 . S
C198 C197 1.374 . S
C199 C196 1.499 . S
C199 C200 1.373 1_554 S
C199 C201 1.389 . S
C200 H173 0.950 . S
C200 C186 1.377 . S
C200 C199 1.373 1_556 S
C201 C185 1.377 . S
C201 C199 1.389 . S
C201 C202 1.524 . S
C202 C201 1.524 . S
C202 C203 1.397 . S
C202 C207 1.363 . S
C203 H174 0.950 . S
C203 C202 1.397 . S
C203 C204 1.334 . S
C204 H175 0.950 . S
C204 C203 1.334 . S
C204 C205 1.287 . S
C205 C204 1.287 . S
C205 C206 1.524 . S
C205 H208 0.999 . S
C206 H176 0.950 . S
C206 C205 1.524 . S
C206 C207 1.415 . S
C207 H177 0.950 . S
C207 C202 1.363 . S
C207 C206 1.415 . S
H208 C205 0.999 . S
H209 C190 0.913 . S
H210 C228 0.951 . S
H211 C230 0.951 . S
H212 C232 0.950 . S
H213 C233 0.950 . S
H214 C235 0.950 . S
H215 C238 0.950 . S
H216 C239 0.950 . S
H217 C241 0.950 . S
H218 C242 0.950 . S
H219 C243 0.951 . S
H220 C245 0.951 . S
H221 C247 0.950 . S
H222 C248 0.950 . S
H223 C250 0.950 . S
H224 C253 0.950 . S
H225 C254 0.950 . S
H226 C256 0.950 . S
H227 C257 0.950 . S
C228 H210 0.951 . S
C228 C229 1.366 . S
C228 C230 1.388 . S
C229 C228 1.366 . S
C229 C233 1.385 . S
C230 H211 0.951 . S
C230 C228 1.388 . S
C230 C231 1.366 . S
C231 C230 1.366 . S
C231 C232 1.414 . S
C231 C234 1.499 . S
C232 H212 0.950 . S
C232 C231 1.414 . S
C232 C233 1.374 . S
C233 H213 0.950 . S
C233 C229 1.385 . S
C233 C232 1.374 . S
C234 C231 1.499 . S
C234 C235 1.373 . S
C234 C236 1.389 . S
C235 H214 0.950 . S
C235 C234 1.373 . S
C235 C251 1.377 . S
C236 C234 1.389 . S
C236 C237 1.524 . S
C236 C250 1.377 . S
C237 C236 1.524 . S
C237 C238 1.397 . S
C237 C242 1.363 . S
C238 H215 0.950 . S
C238 C237 1.397 . S
C238 C239 1.334 . S
C239 H216 0.950 . S
C239 C238 1.334 . S
C239 C240 1.287 . S
C240 C239 1.287 . S
C240 C241 1.524 . S
C240 H259 0.913 . S
C241 H217 0.950 . S
C241 C240 1.524 . S
C241 C242 1.415 . S
C242 H218 0.950 . S
C242 C237 1.363 . S
C242 C241 1.415 . S
C243 H219 0.951 . S
C243 C244 1.366 . S
C243 C245 1.388 . S
C244 C243 1.366 . S
C244 C248 1.385 . S
C245 H220 0.951 . S
C245 C243 1.388 . S
C245 C246 1.366 . S
C246 C245 1.366 . S
C246 C247 1.414 . S
C246 C249 1.499 . S
C247 H221 0.950 . S
C247 C246 1.414 . S
C247 C248 1.374 . S
C248 H222 0.950 . S
C248 C244 1.385 . S
C248 C247 1.374 . S
C249 C246 1.499 . S
C249 C250 1.373 . S
C249 C251 1.389 . S
C250 H223 0.950 . S
C250 C236 1.377 . S
C250 C249 1.373 . S
C251 C235 1.377 . S
C251 C249 1.389 . S
C251 C252 1.524 . S
C252 C251 1.524 . S
C252 C253 1.397 . S
C252 C257 1.363 . S
C253 H224 0.950 . S
C253 C252 1.397 . S
C253 C254 1.334 . S
C254 H225 0.950 . S
C254 C253 1.334 . S
C254 C255 1.287 . S
C255 C254 1.287 . S
C255 C256 1.524 . S
C255 H258 0.999 . S
C256 H226 0.950 . S
C256 C255 1.524 . S
C256 C257 1.415 . S
C257 H227 0.950 . S
C257 C252 1.363 . S
C257 C256 1.415 . S
H258 C255 0.999 . S
H259 C240 0.913 . S
H260 C278 0.951 . S
H261 C280 0.951 1_655 S
H262 C282 0.950 . S
H263 C283 0.950 . S
H264 C285 0.950 1_565 S
H265 C288 0.950 . S
H266 C289 0.950 . S
H267 C291 0.950 . S
H268 C292 0.950 . S
H269 C293 0.951 . S
H270 C295 0.951 1_455 S
H271 C297 0.950 . S
H272 C298 0.950 . S
H273 C300 0.950 1_545 S
H274 C303 0.950 . S
H275 C304 0.950 . S
H276 C306 0.950 . S
H277 C307 0.950 . S
C278 H260 0.951 . S
C278 C279 1.366 . S
C278 C280 1.388 . S
C279 C278 1.366 . S
C279 C283 1.385 1_556 S
C280 H261 0.951 1_455 S
C280 C278 1.388 . S
C280 C281 1.365 1_556 S
C281 C280 1.365 1_554 S
C281 C282 1.409 . S
C281 C284 1.504 . S
C282 H262 0.950 . S
C282 C281 1.409 . S
C282 C283 1.374 . S
C283 H263 0.950 . S
C283 C279 1.385 1_554 S
C283 C282 1.374 . S
C284 C281 1.504 . S
C284 C285 1.374 1_554 S
C284 C286 1.389 1_455 S
C285 H264 0.950 1_545 S
C285 C284 1.374 1_556 S
C285 C301 1.376 1_545 S
C286 C284 1.389 1_655 S
C286 C287 1.524 . S
C286 C300 1.376 1_545 S
C287 C286 1.524 . S
C287 C288 1.397 1_655 S
C287 C292 1.363 . S
C288 H265 0.950 . S
C288 C287 1.397 1_455 S
C288 C289 1.334 . S
C289 H266 0.950 . S
C289 C288 1.334 . S
C289 C290 1.287 . S
C290 C289 1.287 . S
C290 C291 1.524 1_455 S
C290 H309 0.913 . S
C291 H267 0.950 . S
C291 C290 1.524 1_655 S
C291 C292 1.415 . S
C292 H268 0.950 . S
C292 C287 1.363 . S
C292 C291 1.415 . S
C293 H269 0.951 . S
C293 C294 1.366 . S
C293 C295 1.388 . S
C294 C293 1.366 . S
C294 C298 1.385 1_554 S
C295 H270 0.951 1_655 S
C295 C293 1.388 . S
C295 C296 1.365 . S
C296 C295 1.365 . S
C296 C297 1.413 1_554 S
C296 C299 1.500 1_554 S
C297 H271 0.950 . S
C297 C296 1.413 1_556 S
C297 C298 1.374 . S
C298 H272 0.950 . S
C298 C294 1.385 1_556 S
C298 C297 1.374 . S
C299 C296 1.500 1_556 S
C299 C300 1.374 1_556 S
C299 C301 1.389 1_655 S
C300 H273 0.950 1_565 S
C300 C286 1.376 1_565 S
C300 C299 1.374 1_554 S
C301 C285 1.376 1_565 S
C301 C299 1.389 1_455 S
C301 C302 1.524 . S
C302 C301 1.524 . S
C302 C303 1.397 1_455 S
C302 C307 1.363 . S
C303 H274 0.950 . S
C303 C302 1.397 1_655 S
C303 C304 1.334 . S
C304 H275 0.950 . S
C304 C303 1.334 . S
C304 C305 1.287 . S
C305 C304 1.287 . S
C305 C306 1.524 1_655 S
C305 H308 0.999 . S
C306 H276 0.950 . S
C306 C305 1.524 1_455 S
C306 C307 1.415 . S
C307 H277 0.950 . S
C307 C302 1.363 . S
C307 C306 1.415 . S
H308 C305 0.999 . S
H309 C290 0.913 . S
H310 C328 0.951 . S
H311 C330 0.951 . S
H312 C332 0.950 1_455 S
H313 C333 0.950 . S
H314 C335 0.950 . S
H315 C338 0.952 . S
H316 C339 0.950 1_545 S
H317 C341 0.950 . S
H318 C342 0.950 . S
H319 C343 0.951 . S
H320 C345 0.951 . S
H321 C347 0.950 1_655 S
H322 C348 0.950 . S
H323 C350 0.950 . S
H324 C353 0.952 . S
H325 C354 0.950 1_565 S
H326 C356 0.950 . S
H327 C357 0.950 . S
C328 H310 0.951 . S
C328 C329 1.366 . S
C328 C330 1.388 . S
C329 C328 1.366 . S
C329 C333 1.385 . S
C330 H311 0.951 . S
C330 C328 1.388 . S
C330 C331 1.366 . S
C331 C330 1.366 . S
C331 C332 1.414 . S
C331 C334 1.499 . S
C332 H312 0.950 1_655 S
C332 C331 1.414 . S
C332 C333 1.374 . S
C333 H313 0.950 . S
C333 C329 1.385 . S
C333 C332 1.374 . S
C334 C331 1.499 . S
C334 C335 1.373 1_655 S
C334 C336 1.389 1_545 S
C335 H314 0.950 . S
C335 C334 1.373 1_455 S
C335 C351 1.377 . S
C336 C334 1.389 1_565 S
C336 C337 1.524 . S
C336 C350 1.377 . S
C337 C336 1.524 . S
C337 C338 1.395 1_565 S
C337 C342 1.363 . S
C338 H315 0.952 . S
C338 C337 1.395 1_545 S
C338 C339 1.333 1_545 S
C339 H316 0.950 1_565 S
C339 C338 1.333 1_565 S
C339 C340 1.287 . S
C340 C339 1.287 . S
C340 C341 1.524 . S
C340 H359 0.913 . S
C341 H317 0.950 . S
C341 C340 1.524 . S
C341 C342 1.415 . S
C342 H318 0.950 . S
C342 C337 1.363 . S
C342 C341 1.415 . S
C343 H319 0.951 . S
C343 C344 1.366 . S
C343 C345 1.388 . S
C344 C343 1.366 . S
C344 C348 1.385 . S
C345 H320 0.951 . S
C345 C343 1.388 . S
C345 C346 1.366 . S
C346 C345 1.366 . S
C346 C347 1.414 . S
C346 C349 1.499 . S
C347 H321 0.950 1_455 S
C347 C346 1.414 . S
C347 C348 1.374 . S
C348 H322 0.950 . S
C348 C344 1.385 . S
C348 C347 1.374 . S
C349 C346 1.499 . S
C349 C350 1.373 1_455 S
C349 C351 1.389 1_565 S
C350 H323 0.950 . S
C350 C336 1.377 . S
C350 C349 1.373 1_655 S
C351 C335 1.377 . S
C351 C349 1.389 1_545 S
C351 C352 1.524 . S
C352 C351 1.524 . S
C352 C353 1.395 1_545 S
C352 C357 1.363 . S
C353 H324 0.952 . S
C353 C352 1.395 1_565 S
C353 C354 1.333 1_565 S
C354 H325 0.950 1_545 S
C354 C353 1.333 1_545 S
C354 C355 1.287 . S
C355 C354 1.287 . S
C355 C356 1.524 . S
C355 H358 0.999 . S
C356 H326 0.950 . S
C356 C355 1.524 . S
C356 C357 1.415 . S
C357 H327 0.950 . S
C357 C352 1.363 . S
C357 C356 1.415 . S
H358 C355 0.999 . S
H359 C340 0.913 . S
H360 C378 0.951 . S
H361 C380 0.951 . S
H362 C382 0.950 . S
H363 C383 0.950 . S
H364 C385 0.950 . S
H365 C388 0.950 . S
H366 C389 0.950 . S
H367 C391 0.950 . S
H368 C392 0.950 . S
H369 C393 0.951 . S
H370 C395 0.951 . S
H371 C397 0.950 . S
H372 C398 0.950 . S
H373 C400 0.950 . S
H374 C403 0.950 . S
H375 C404 0.950 . S
H376 C406 0.950 . S
H377 C407 0.950 . S
C378 H360 0.951 . S
C378 C379 1.366 . S
C378 C380 1.388 . S
C379 C378 1.366 . S
C379 C383 1.385 . S
C380 H361 0.951 . S
C380 C378 1.388 . S
C380 C381 1.366 . S
C381 C380 1.366 . S
C381 C382 1.414 . S
C381 C384 1.499 . S
C382 H362 0.950 . S
C382 C381 1.414 . S
C382 C383 1.374 . S
C383 H363 0.950 . S
C383 C379 1.385 . S
C383 C382 1.374 . S
C384 C381 1.499 . S
C384 C385 1.373 . S
C384 C386 1.389 . S
C385 H364 0.950 . S
C385 C384 1.373 . S
C385 C401 1.377 . S
C386 C384 1.389 . S
C386 C387 1.524 . S
C386 C400 1.377 . S
C387 C386 1.524 . S
C387 C388 1.397 . S
C387 C392 1.363 . S
C388 H365 0.950 . S
C388 C387 1.397 . S
C388 C389 1.334 . S
C389 H366 0.950 . S
C389 C388 1.334 . S
C389 C390 1.287 . S
C390 C389 1.287 . S
C390 C391 1.524 . S
C390 H409 0.913 . S
C391 H367 0.950 . S
C391 C390 1.524 . S
C391 C392 1.415 . S
C392 H368 0.950 . S
C392 C387 1.363 . S
C392 C391 1.415 . S
C393 H369 0.951 . S
C393 C394 1.366 . S
C393 C395 1.388 . S
C394 C393 1.366 . S
C394 C398 1.385 . S
C395 H370 0.951 . S
C395 C393 1.388 . S
C395 C396 1.366 . S
C396 C395 1.366 . S
C396 C397 1.414 . S
C396 C399 1.499 . S
C397 H371 0.950 . S
C397 C396 1.414 . S
C397 C398 1.374 . S
C398 H372 0.950 . S
C398 C394 1.385 . S
C398 C397 1.374 . S
C399 C396 1.499 . S
C399 C400 1.373 . S
C399 C401 1.389 . S
C400 H373 0.950 . S
C400 C386 1.377 . S
C400 C399 1.373 . S
C401 C385 1.377 . S
C401 C399 1.389 . S
C401 C402 1.524 . S
C402 C401 1.524 . S
C402 C403 1.397 . S
C402 C407 1.363 . S
C403 H374 0.950 . S
C403 C402 1.397 . S
C403 C404 1.334 . S
C404 H375 0.950 . S
C404 C403 1.334 . S
C404 C405 1.287 . S
C405 C404 1.287 . S
C405 C406 1.524 . S
C405 H408 0.999 . S
C406 H376 0.950 . S
C406 C405 1.524 . S
C406 C407 1.415 . S
C407 H377 0.950 . S
C407 C402 1.363 . S
C407 C406 1.415 . S
H408 C405 0.999 . S
H409 C390 0.913 . S
H410 C428 0.951 . S
H411 C430 0.951 . S
H412 C432 0.950 . S
H413 C433 0.950 . S
H414 C435 0.950 . S
H415 C438 0.950 . S
H416 C439 0.950 . S
H417 C441 0.950 . S
H418 C442 0.950 . S
H419 C443 0.951 . S
H420 C445 0.951 . S
H421 C447 0.950 . S
H422 C448 0.950 . S
H423 C450 0.950 . S
H424 C453 0.950 . S
H425 C454 0.950 . S
H426 C456 0.950 . S
H427 C457 0.950 . S
C428 H410 0.951 . S
C428 C429 1.366 . S
C428 C430 1.388 . S
C429 C428 1.366 . S
C429 C433 1.385 . S
C430 H411 0.951 . S
C430 C428 1.388 . S
C430 C431 1.366 . S
C431 C430 1.366 . S
C431 C432 1.414 . S
C431 C434 1.499 . S
C432 H412 0.950 . S
C432 C431 1.414 . S
C432 C433 1.374 . S
C433 H413 0.950 . S
C433 C429 1.385 . S
C433 C432 1.374 . S
C434 C431 1.499 . S
C434 C435 1.373 . S
C434 C436 1.389 . S
C435 H414 0.950 . S
C435 C434 1.373 . S
C435 C451 1.377 . S
C436 C434 1.389 . S
C436 C437 1.524 . S
C436 C450 1.377 . S
C437 C436 1.524 . S
C437 C438 1.397 . S
C437 C442 1.363 . S
C438 H415 0.950 . S
C438 C437 1.397 . S
C438 C439 1.334 . S
C439 H416 0.950 . S
C439 C438 1.334 . S
C439 C440 1.287 . S
C440 C439 1.287 . S
C440 C441 1.524 . S
C440 H459 0.913 . S
C441 H417 0.950 . S
C441 C440 1.524 . S
C441 C442 1.415 . S
C442 H418 0.950 . S
C442 C437 1.363 . S
C442 C441 1.415 . S
C443 H419 0.951 . S
C443 C444 1.366 . S
C443 C445 1.388 . S
C444 C443 1.366 . S
C444 C448 1.385 . S
C445 H420 0.951 . S
C445 C443 1.388 . S
C445 C446 1.366 . S
C446 C445 1.366 . S
C446 C447 1.414 . S
C446 C449 1.499 . S
C447 H421 0.950 . S
C447 C446 1.414 . S
C447 C448 1.374 . S
C448 H422 0.950 . S
C448 C444 1.385 . S
C448 C447 1.374 . S
C449 C446 1.499 . S
C449 C450 1.373 . S
C449 C451 1.389 . S
C450 H423 0.950 . S
C450 C436 1.377 . S
C450 C449 1.373 . S
C451 C435 1.377 . S
C451 C449 1.389 . S
C451 C452 1.524 . S
C452 C451 1.524 . S
C452 C453 1.397 . S
C452 C457 1.363 . S
C453 H424 0.950 . S
C453 C452 1.397 . S
C453 C454 1.334 . S
C454 H425 0.950 . S
C454 C453 1.334 . S
C454 C455 1.287 . S
C455 C454 1.287 . S
C455 C456 1.524 . S
C455 H458 0.999 . S
C456 H426 0.950 . S
C456 C455 1.524 . S
C456 C457 1.415 . S
C457 H427 0.950 . S
C457 C452 1.363 . S
C457 C456 1.415 . S
H458 C455 0.999 . S
H459 C440 0.913 . S
H460 C478 0.951 . S
H461 C480 0.951 . S
H462 C482 0.950 . S
H463 C483 0.950 . S
H464 C485 0.950 . S
H465 C488 0.950 . S
H466 C489 0.950 . S
H467 C491 0.950 . S
H468 C492 0.950 . S
H469 C493 0.951 . S
H470 C495 0.951 . S
H471 C497 0.950 . S
H472 C498 0.950 . S
H473 C500 0.950 . S
H474 C503 0.950 . S
H475 C504 0.950 . S
H476 C506 0.950 . S
H477 C507 0.950 . S
C478 H460 0.951 . S
C478 C479 1.366 . S
C478 C480 1.388 . S
C479 C478 1.366 . S
C479 C483 1.385 . S
C480 H461 0.951 . S
C480 C478 1.388 . S
C480 C481 1.366 . S
C481 C480 1.366 . S
C481 C482 1.414 . S
C481 C484 1.499 . S
C482 H462 0.950 . S
C482 C481 1.414 . S
C482 C483 1.374 . S
C483 H463 0.950 . S
C483 C479 1.385 . S
C483 C482 1.374 . S
C484 C481 1.499 . S
C484 C485 1.373 . S
C484 C486 1.389 . S
C485 H464 0.950 . S
C485 C484 1.373 . S
C485 C501 1.377 . S
C486 C484 1.389 . S
C486 C487 1.524 . S
C486 C500 1.377 . S
C487 C486 1.524 . S
C487 C488 1.397 . S
C487 C492 1.363 . S
C488 H465 0.950 . S
C488 C487 1.397 . S
C488 C489 1.334 . S
C489 H466 0.950 . S
C489 C488 1.334 . S
C489 C490 1.287 . S
C490 C489 1.287 . S
C490 C491 1.524 . S
C490 H509 0.913 . S
C491 H467 0.950 . S
C491 C490 1.524 . S
C491 C492 1.415 . S
C492 H468 0.950 . S
C492 C487 1.363 . S
C492 C491 1.415 . S
C493 H469 0.951 . S
C493 C494 1.366 . S
C493 C495 1.388 . S
C494 C493 1.366 . S
C494 C498 1.385 . S
C495 H470 0.951 . S
C495 C493 1.388 . S
C495 C496 1.366 . S
C496 C495 1.366 . S
C496 C497 1.414 . S
C496 C499 1.499 . S
C497 H471 0.950 . S
C497 C496 1.414 . S
C497 C498 1.374 . S
C498 H472 0.950 . S
C498 C494 1.385 . S
C498 C497 1.374 . S
C499 C496 1.499 . S
C499 C500 1.373 . S
C499 C501 1.389 . S
C500 H473 0.950 . S
C500 C486 1.377 . S
C500 C499 1.373 . S
C501 C485 1.377 . S
C501 C499 1.389 . S
C501 C502 1.524 . S
C502 C501 1.524 . S
C502 C503 1.397 . S
C502 C507 1.363 . S
C503 H474 0.950 . S
C503 C502 1.397 . S
C503 C504 1.334 . S
C504 H475 0.950 . S
C504 C503 1.334 . S
C504 C505 1.287 . S
C505 C504 1.287 . S
C505 C506 1.524 . S
C505 H508 0.999 . S
C506 H476 0.950 . S
C506 C505 1.524 . S
C506 C507 1.415 . S
C507 H477 0.950 . S
C507 C502 1.363 . S
C507 C506 1.415 . S
H508 C505 0.999 . S
H509 C490 0.913 . S
H510 C528 0.951 . S
H511 C530 0.951 . S
H512 C532 0.950 . S
H513 C533 0.950 . S
H514 C535 0.950 . S
H515 C538 0.950 . S
H516 C539 0.950 . S
H517 C541 0.950 . S
H518 C542 0.950 . S
H519 C543 0.951 . S
H520 C545 0.951 . S
H521 C547 0.950 . S
H522 C548 0.950 . S
H523 C550 0.950 . S
H524 C553 0.950 . S
H525 C554 0.950 . S
H526 C556 0.950 . S
H527 C557 0.950 . S
C528 H510 0.951 . S
C528 C529 1.366 . S
C528 C530 1.388 . S
C529 C528 1.366 . S
C529 C533 1.385 . S
C530 H511 0.951 . S
C530 C528 1.388 . S
C530 C531 1.366 . S
C531 C530 1.366 . S
C531 C532 1.414 . S
C531 C534 1.499 . S
C532 H512 0.950 . S
C532 C531 1.414 . S
C532 C533 1.374 . S
C533 H513 0.950 . S
C533 C529 1.385 . S
C533 C532 1.374 . S
C534 C531 1.499 . S
C534 C535 1.373 . S
C534 C536 1.389 . S
C535 H514 0.950 . S
C535 C534 1.373 . S
C535 C551 1.377 . S
C536 C534 1.389 . S
C536 C537 1.524 . S
C536 C550 1.377 . S
C537 C536 1.524 . S
C537 C538 1.397 . S
C537 C542 1.363 . S
C538 H515 0.950 . S
C538 C537 1.397 . S
C538 C539 1.334 . S
C539 H516 0.950 . S
C539 C538 1.334 . S
C539 C540 1.287 . S
C540 C539 1.287 . S
C540 C541 1.524 . S
C540 H559 0.913 . S
C541 H517 0.950 . S
C541 C540 1.524 . S
C541 C542 1.415 . S
C542 H518 0.950 . S
C542 C537 1.363 . S
C542 C541 1.415 . S
C543 H519 0.951 . S
C543 C544 1.366 . S
C543 C545 1.388 . S
C544 C543 1.366 . S
C544 C548 1.385 . S
C545 H520 0.951 . S
C545 C543 1.388 . S
C545 C546 1.366 . S
C546 C545 1.366 . S
C546 C547 1.414 . S
C546 C549 1.499 . S
C547 H521 0.950 . S
C547 C546 1.414 . S
C547 C548 1.374 . S
C548 H522 0.950 . S
C548 C544 1.385 . S
C548 C547 1.374 . S
C549 C546 1.499 . S
C549 C550 1.373 . S
C549 C551 1.389 . S
C550 H523 0.950 . S
C550 C536 1.377 . S
C550 C549 1.373 . S
C551 C535 1.377 . S
C551 C549 1.389 . S
C551 C552 1.524 . S
C552 C551 1.524 . S
C552 C553 1.397 . S
C552 C557 1.363 . S
C553 H524 0.950 . S
C553 C552 1.397 . S
C553 C554 1.334 . S
C554 H525 0.950 . S
C554 C553 1.334 . S
C554 C555 1.287 . S
C555 C554 1.287 . S
C555 C556 1.524 . S
C555 H558 0.999 . S
C556 H526 0.950 . S
C556 C555 1.524 . S
C556 C557 1.415 . S
C557 H527 0.950 . S
C557 C552 1.363 . S
C557 C556 1.415 . S
H558 C555 0.999 . S
H559 C540 0.913 . S
H560 C578 0.951 . S
H561 C580 0.951 1_455 S
H562 C582 0.950 . S
H563 C583 0.950 . S
H564 C585 0.950 . S
H565 C588 0.950 . S
H566 C589 0.950 . S
H567 C591 0.950 . S
H568 C592 0.950 . S
H569 C593 0.951 . S
H570 C595 0.951 1_655 S
H571 C597 0.950 . S
H572 C598 0.950 . S
H573 C600 0.950 . S
H574 C603 0.950 . S
H575 C604 0.950 . S
H576 C606 0.950 . S
H577 C607 0.950 . S
C578 H560 0.951 . S
C578 C579 1.366 . S
C578 C580 1.388 . S
C579 C578 1.366 . S
C579 C583 1.385 . S
C580 H561 0.951 1_655 S
C580 C578 1.388 . S
C580 C581 1.366 . S
C581 C580 1.366 . S
C581 C582 1.414 . S
C581 C584 1.499 . S
C582 H562 0.950 . S
C582 C581 1.414 . S
C582 C583 1.374 . S
C583 H563 0.950 . S
C583 C579 1.385 . S
C583 C582 1.374 . S
C584 C581 1.499 . S
C584 C585 1.373 . S
C584 C586 1.389 1_655 S
C585 H564 0.950 . S
C585 C584 1.373 . S
C585 C601 1.377 . S
C586 C584 1.389 1_455 S
C586 C587 1.524 . S
C586 C600 1.377 . S
C587 C586 1.524 . S
C587 C588 1.397 . S
C587 C592 1.363 . S
C588 H565 0.950 . S
C588 C587 1.397 . S
C588 C589 1.334 . S
C589 H566 0.950 . S
C589 C588 1.334 . S
C589 C590 1.287 . S
C590 C589 1.287 . S
C590 C591 1.524 . S
C590 H609 0.913 . S
C591 H567 0.950 . S
C591 C590 1.524 . S
C591 C592 1.415 . S
C592 H568 0.950 . S
C592 C587 1.363 . S
C592 C591 1.415 . S
C593 H569 0.951 . S
C593 C594 1.366 . S
C593 C595 1.388 . S
C594 C593 1.366 . S
C594 C598 1.385 . S
C595 H570 0.951 1_455 S
C595 C593 1.388 . S
C595 C596 1.366 . S
C596 C595 1.366 . S
C596 C597 1.414 . S
C596 C599 1.499 . S
C597 H571 0.950 . S
C597 C596 1.414 . S
C597 C598 1.374 . S
C598 H572 0.950 . S
C598 C594 1.385 . S
C598 C597 1.374 . S
C599 C596 1.499 . S
C599 C600 1.373 . S
C599 C601 1.389 1_455 S
C600 H573 0.950 . S
C600 C586 1.377 . S
C600 C599 1.373 . S
C601 C585 1.377 . S
C601 C599 1.389 1_655 S
C601 C602 1.524 . S
C602 C601 1.524 . S
C602 C603 1.397 . S
C602 C607 1.363 . S
C603 H574 0.950 . S
C603 C602 1.397 . S
C603 C604 1.334 . S
C604 H575 0.950 . S
C604 C603 1.334 . S
C604 C605 1.287 . S
C605 C604 1.287 . S
C605 C606 1.524 . S
C605 H608 0.999 . S
C606 H576 0.950 . S
C606 C605 1.524 . S
C606 C607 1.415 . S
C607 H577 0.950 . S
C607 C602 1.363 . S
C607 C606 1.415 . S
H608 C605 0.999 . S
H609 C590 0.913 . S
H610 C628 0.951 . S
H611 C630 0.951 . S
H612 C632 0.950 1_455 S
H613 C633 0.950 . S
H614 C635 0.950 . S
H615 C638 0.950 . S
H616 C639 0.950 . S
H617 C641 0.950 . S
H618 C642 0.950 . S
H619 C643 0.951 . S
H620 C645 0.951 . S
H621 C647 0.950 1_655 S
H622 C648 0.950 . S
H623 C650 0.950 . S
H624 C653 0.950 . S
H625 C654 0.950 . S
H626 C656 0.950 . S
H627 C657 0.950 . S
C628 H610 0.951 . S
C628 C629 1.366 . S
C628 C630 1.388 . S
C629 C628 1.366 . S
C629 C633 1.385 . S
C630 H611 0.951 . S
C630 C628 1.388 . S
C630 C631 1.366 . S
C631 C630 1.366 . S
C631 C632 1.414 . S
C631 C634 1.499 . S
C632 H612 0.950 1_655 S
C632 C631 1.414 . S
C632 C633 1.374 . S
C633 H613 0.950 . S
C633 C629 1.385 . S
C633 C632 1.374 . S
C634 C631 1.499 . S
C634 C635 1.373 . S
C634 C636 1.389 1_655 S
C635 H614 0.950 . S
C635 C634 1.373 . S
C635 C651 1.377 . S
C636 C634 1.389 1_455 S
C636 C637 1.524 . S
C636 C650 1.377 . S
C637 C636 1.524 . S
C637 C638 1.397 . S
C637 C642 1.363 . S
C638 H615 0.950 . S
C638 C637 1.397 . S
C638 C639 1.334 . S
C639 H616 0.950 . S
C639 C638 1.334 . S
C639 C640 1.287 . S
C640 C639 1.287 . S
C640 C641 1.524 . S
C640 H659 0.913 . S
C641 H617 0.950 . S
C641 C640 1.524 . S
C641 C642 1.415 . S
C642 H618 0.950 . S
C642 C637 1.363 . S
C642 C641 1.415 . S
C643 H619 0.951 . S
C643 C644 1.366 . S
C643 C645 1.388 . S
C644 C643 1.366 . S
C644 C648 1.385 . S
C645 H620 0.951 . S
C645 C643 1.388 . S
C645 C646 1.366 . S
C646 C645 1.366 . S
C646 C647 1.414 . S
C646 C649 1.499 . S
C647 H621 0.950 1_455 S
C647 C646 1.414 . S
C647 C648 1.374 . S
C648 H622 0.950 . S
C648 C644 1.385 . S
C648 C647 1.374 . S
C649 C646 1.499 . S
C649 C650 1.373 . S
C649 C651 1.389 1_455 S
C650 H623 0.950 . S
C650 C636 1.377 . S
C650 C649 1.373 . S
C651 C635 1.377 . S
C651 C649 1.389 1_655 S
C651 C652 1.524 . S
C652 C651 1.524 . S
C652 C653 1.397 . S
C652 C657 1.363 . S
C653 H624 0.950 . S
C653 C652 1.397 . S
C653 C654 1.334 . S
C654 H625 0.950 . S
C654 C653 1.334 . S
C654 C655 1.287 . S
C655 C654 1.287 . S
C655 C656 1.524 . S
C655 H658 0.999 . S
C656 H626 0.950 . S
C656 C655 1.524 . S
C656 C657 1.415 . S
C657 H627 0.950 . S
C657 C652 1.363 . S
C657 C656 1.415 . S
H658 C655 0.999 . S
H659 C640 0.913 . S
H660 C678 0.951 . S
H661 C680 0.951 . S
H662 C682 0.950 1_455 S
H663 C683 0.950 . S
H664 C685 0.950 . S
H665 C688 0.950 . S
H666 C689 0.950 . S
H667 C691 0.950 . S
H668 C692 0.950 . S
H669 C693 0.951 . S
H670 C695 0.951 . S
H671 C697 0.950 1_655 S
H672 C698 0.950 . S
H673 C700 0.950 . S
H674 C703 0.950 . S
H675 C704 0.950 . S
H676 C706 0.950 . S
H677 C707 0.950 . S
C678 H660 0.951 . S
C678 C679 1.366 . S
C678 C680 1.388 . S
C679 C678 1.366 . S
C679 C683 1.385 . S
C680 H661 0.951 . S
C680 C678 1.388 . S
C680 C681 1.366 . S
C681 C680 1.366 . S
C681 C682 1.414 . S
C681 C684 1.499 . S
C682 H662 0.950 1_655 S
C682 C681 1.414 . S
C682 C683 1.374 . S
C683 H663 0.950 . S
C683 C679 1.385 . S
C683 C682 1.374 . S
C684 C681 1.499 . S
C684 C685 1.373 1_655 S
C684 C686 1.389 . S
C685 H664 0.950 . S
C685 C684 1.373 1_455 S
C685 C701 1.377 . S
C686 C684 1.389 . S
C686 C687 1.524 . S
C686 C700 1.377 . S
C687 C686 1.524 . S
C687 C688 1.397 . S
C687 C692 1.363 . S
C688 H665 0.950 . S
C688 C687 1.397 . S
C688 C689 1.334 . S
C689 H666 0.950 . S
C689 C688 1.334 . S
C689 C690 1.287 . S
C690 C689 1.287 . S
C690 C691 1.524 . S
C690 H709 0.913 . S
C691 H667 0.950 . S
C691 C690 1.524 . S
C691 C692 1.415 . S
C692 H668 0.950 . S
C692 C687 1.363 . S
C692 C691 1.415 . S
C693 H669 0.951 . S
C693 C694 1.366 . S
C693 C695 1.388 . S
C694 C693 1.366 . S
C694 C698 1.385 . S
C695 H670 0.951 . S
C695 C693 1.388 . S
C695 C696 1.366 . S
C696 C695 1.366 . S
C696 C697 1.414 . S
C696 C699 1.499 . S
C697 H671 0.950 1_455 S
C697 C696 1.414 . S
C697 C698 1.374 . S
C698 H672 0.950 . S
C698 C694 1.385 . S
C698 C697 1.374 . S
C699 C696 1.499 . S
C699 C700 1.373 1_455 S
C699 C701 1.389 . S
C700 H673 0.950 . S
C700 C686 1.377 . S
C700 C699 1.373 1_655 S
C701 C685 1.377 . S
C701 C699 1.389 . S
C701 C702 1.524 . S
C702 C701 1.524 . S
C702 C703 1.397 . S
C702 C707 1.363 . S
C703 H674 0.950 . S
C703 C702 1.397 . S
C703 C704 1.334 . S
C704 H675 0.950 . S
C704 C703 1.334 . S
C704 C705 1.287 . S
C705 C704 1.287 . S
C705 C706 1.524 . S
C705 H708 0.999 . S
C706 H676 0.950 . S
C706 C705 1.524 . S
C706 C707 1.415 . S
C707 H677 0.950 . S
C707 C702 1.363 . S
C707 C706 1.415 . S
H708 C705 0.999 . S
H709 C690 0.913 . S
H710 C728 0.951 . S
H711 C730 0.951 . S
H712 C732 0.950 . S
H713 C733 0.950 1_655 S
H714 C735 0.950 . S
H715 C738 0.950 . S
H716 C739 0.950 . S
H717 C741 0.950 . S
H718 C742 0.950 . S
H719 C743 0.951 . S
H720 C745 0.951 . S
H721 C747 0.950 . S
H722 C748 0.950 1_455 S
H723 C750 0.950 . S
H724 C753 0.950 . S
H725 C754 0.950 . S
H726 C756 0.950 . S
H727 C757 0.950 . S
C728 H710 0.951 . S
C728 C729 1.366 . S
C728 C730 1.388 . S
C729 C728 1.366 . S
C729 C733 1.389 . S
C730 H711 0.951 . S
C730 C728 1.388 . S
C730 C731 1.366 . S
C731 C730 1.366 . S
C731 C732 1.414 1_455 S
C731 C734 1.499 . S
C732 H712 0.950 . S
C732 C731 1.414 1_655 S
C732 C733 1.370 1_655 S
C733 H713 0.950 1_455 S
C733 C729 1.389 . S
C733 C732 1.370 1_455 S
C734 C731 1.499 . S
C734 C735 1.373 1_455 S
C734 C736 1.389 . S
C735 H714 0.950 . S
C735 C734 1.373 1_655 S
C735 C751 1.377 . S
C736 C734 1.389 . S
C736 C737 1.524 . S
C736 C750 1.377 . S
C737 C736 1.524 . S
C737 C738 1.397 . S
C737 C742 1.363 . S
C738 H715 0.950 . S
C738 C737 1.397 . S
C738 C739 1.334 . S
C739 H716 0.950 . S
C739 C738 1.334 . S
C739 C740 1.287 . S
C740 C739 1.287 . S
C740 C741 1.524 . S
C740 H759 0.913 . S
C741 H717 0.950 . S
C741 C740 1.524 . S
C741 C742 1.415 . S
C742 H718 0.950 . S
C742 C737 1.363 . S
C742 C741 1.415 . S
C743 H719 0.951 . S
C743 C744 1.366 . S
C743 C745 1.388 . S
C744 C743 1.366 . S
C744 C748 1.389 . S
C745 H720 0.951 . S
C745 C743 1.388 . S
C745 C746 1.366 . S
C746 C745 1.366 . S
C746 C747 1.414 1_655 S
C746 C749 1.499 . S
C747 H721 0.950 . S
C747 C746 1.414 1_455 S
C747 C748 1.370 1_455 S
C748 H722 0.950 1_655 S
C748 C744 1.389 . S
C748 C747 1.370 1_655 S
C749 C746 1.499 . S
C749 C750 1.373 1_655 S
C749 C751 1.389 . S
C750 H723 0.950 . S
C750 C736 1.377 . S
C750 C749 1.373 1_455 S
C751 C735 1.377 . S
C751 C749 1.389 . S
C751 C752 1.524 . S
C752 C751 1.524 . S
C752 C753 1.397 . S
C752 C757 1.363 . S
C753 H724 0.950 . S
C753 C752 1.397 . S
C753 C754 1.334 . S
C754 H725 0.950 . S
C754 C753 1.334 . S
C754 C755 1.287 . S
C755 C754 1.287 . S
C755 C756 1.524 . S
C755 H758 0.999 . S
C756 H726 0.950 . S
C756 C755 1.524 . S
C756 C757 1.415 . S
C757 H727 0.950 . S
C757 C752 1.363 . S
C757 C756 1.415 . S
H758 C755 0.999 . S
H759 C740 0.913 . S
C179 C58 1.534 . S
C194 C9 1.534 . S
C229 C98 1.534 . S
C244 C129 1.534 . S
C279 C18 1.534 . S
C294 C49 1.534 . S
C329 C138 1.534 . S
C344 C89 1.534 . S
C379 C130 1.560 . S
C394 C10 1.561 . S
C429 C46 0.881 . S
C444 C86 0.881 . S
C479 C59 1.561 . S
C494 C99 1.560 . S
C529 C135 0.881 . S
C544 C15 0.881 . S
C579 C50 1.560 . S
C594 C90 1.561 . S
C629 C126 0.881 . S
C644 C6 0.881 . S
C679 C139 1.560 . S
C694 C19 1.561 . S
C729 C95 0.881 . S
C744 C55 0.882 . S
