# Generated by pormake.
# Topology snl, (6)-cn, num edge types: 1
# Building blocks:
#     Node 0, Type 0, BuildingBlock: CUWYAW_clean_sbu_0, # of connection points: 6
#     Node 1, Type 0, BuildingBlock: CUWYAW_clean_sbu_0, # of connection points: 6
#     Node 2, Type 0, BuildingBlock: CUWYAW_clean_sbu_0, # of connection points: 6
#     Node 3, Type 0, BuildingBlock: CUWYAW_clean_sbu_0, # of connection points: 6
#     Node 4, Type 0, BuildingBlock: CUWYAW_clean_sbu_0, # of connection points: 6
#     Node 5, Type 0, BuildingBlock: CUWYAW_clean_sbu_0, # of connection points: 6
#     Node 6, Type 0, BuildingBlock: CUWYAW_clean_sbu_0, # of connection points: 6
#     Node 7, Type 0, BuildingBlock: CUWYAW_clean_sbu_0, # of connection points: 6
#     Node 8, Type 0, BuildingBlock: CUWYAW_clean_sbu_0, # of connection points: 6
#     Node 9, Type 0, BuildingBlock: CUWYAW_clean_sbu_0, # of connection points: 6
#     Node 10, Type 0, BuildingBlock: CUWYAW_clean_sbu_0, # of connection points: 6
#     Node 11, Type 0, BuildingBlock: CUWYAW_clean_sbu_0, # of connection points: 6
#     Node 12, Type 0, BuildingBlock: CUWYAW_clean_sbu_0, # of connection points: 6
#     Node 13, Type 0, BuildingBlock: CUWYAW_clean_sbu_0, # of connection points: 6
#     Node 14, Type 0, BuildingBlock: CUWYAW_clean_sbu_0, # of connection points: 6
#     Node 15, Type 0, BuildingBlock: CUWYAW_clean_sbu_0, # of connection points: 6
#     Edge 16, Type (0, 0), None
#     Edge 17, Type (0, 0), None
#     Edge 18, Type (0, 0), None
#     Edge 19, Type (0, 0), None
#     Edge 20, Type (0, 0), None
#     Edge 21, Type (0, 0), None
#     Edge 22, Type (0, 0), None
#     Edge 23, Type (0, 0), None
#     Edge 24, Type (0, 0), None
#     Edge 25, Type (0, 0), None
#     Edge 26, Type (0, 0), None
#     Edge 27, Type (0, 0), None
#     Edge 28, Type (0, 0), None
#     Edge 29, Type (0, 0), None
#     Edge 30, Type (0, 0), None
#     Edge 31, Type (0, 0), None
#     Edge 32, Type (0, 0), None
#     Edge 33, Type (0, 0), None
#     Edge 34, Type (0, 0), None
#     Edge 35, Type (0, 0), None
#     Edge 36, Type (0, 0), None
#     Edge 37, Type (0, 0), None
#     Edge 38, Type (0, 0), None
#     Edge 39, Type (0, 0), None
#     Edge 40, Type (0, 0), None
#     Edge 41, Type (0, 0), None
#     Edge 42, Type (0, 0), None
#     Edge 43, Type (0, 0), None
#     Edge 44, Type (0, 0), None
#     Edge 45, Type (0, 0), None
#     Edge 46, Type (0, 0), None
#     Edge 47, Type (0, 0), None
#     Edge 48, Type (0, 0), None
#     Edge 49, Type (0, 0), None
#     Edge 50, Type (0, 0), None
#     Edge 51, Type (0, 0), None
#     Edge 52, Type (0, 0), None
#     Edge 53, Type (0, 0), None
#     Edge 54, Type (0, 0), None
#     Edge 55, Type (0, 0), None
#     Edge 56, Type (0, 0), None
#     Edge 57, Type (0, 0), None
#     Edge 58, Type (0, 0), None
#     Edge 59, Type (0, 0), None
#     Edge 60, Type (0, 0), None
#     Edge 61, Type (0, 0), None
#     Edge 62, Type (0, 0), None
#     Edge 63, Type (0, 0), None
# Relax obj value: 0.229
# Max RMSD: 0.319
# Mean RMSD: 0.302
data_MOF--net-snl--node1-CUWYAW_clean_sbu_0--edge1-none
_symmetry_space_group_name_H-M    P1
_symmetry_Int_Tables_number       1
_symmetry_cell_setting            triclinic
loop_
_symmetry_equiv_pos_as_xyz
'x, y, z'
_cell_length_a     24.261739
_cell_length_b     24.842057
_cell_length_c     16.108917
_cell_angle_alpha  87.468394
_cell_angle_beta   92.278481
_cell_angle_gamma 89.163055
loop_
_atom_site_label
_atom_site_type_symbol
_atom_site_fract_x
_atom_site_fract_y
_atom_site_fract_z
_atom_type_partial_charge
C0 C 0.19067 0.67112 0.98586 0.0
Eu1 Eu 0.16386 0.63025 0.13063 0.0
C2 C 0.17305 0.65822 0.90057 0.0
C3 C 0.19716 0.68393 0.83236 0.0
C4 C 0.18155 0.67067 0.75129 0.0
C5 C 0.14459 0.6287 0.73807 0.0
C6 C 0.11948 0.60379 0.80616 0.0
C7 C 0.13245 0.61955 0.8866 0.0
C8 C 0.24164 0.62012 0.2645 0.0
C9 C 0.15084 0.5063 0.0993 0.0
C10 C 0.11372 0.53585 0.41822 0.0
Eu11 Eu 0.1291 0.57038 0.2663 0.0
C12 C 0.12187 0.56115 0.49893 0.0
C13 C 0.09913 0.61234 0.51314 0.0
C14 C 0.10711 0.63519 0.59059 0.0
C15 C 0.13678 0.60661 0.65511 0.0
C16 C 0.15956 0.55591 0.64066 0.0
C17 C 0.15367 0.53414 0.56257 0.0
C18 C 0.0405 0.5865 0.15892 0.0
C19 C 0.11856 0.703 0.25839 0.0
O20 O 0.15272 0.69161 1.03058 0.0
O21 O 0.21971 0.6337 1.02754 0.0
O22 O 0.22946 0.66432 0.22145 0.0
O23 O 0.21375 0.58324 0.23292 0.0
O24 O 0.14378 0.55438 1.06501 0.0
O25 O 0.15374 0.5008 0.18217 0.0
O26 O 0.15832 0.52465 0.37913 0.0
O27 O 0.07435 0.55614 0.36842 0.0
O28 O 0.05722 0.53981 0.19017 0.0
O29 O 0.07756 0.62042 0.17519 0.0
O30 O 0.13658 0.6607 0.30604 0.0
O31 O 0.10911 0.69339 0.18007 0.0
H32 H 0.22814 0.71403 0.84219 0.0
H33 H 0.20042 0.69126 0.69932 0.0
H34 H 0.0903 0.57174 0.79708 0.0
H35 H 0.11123 0.60088 0.93759 0.0
H36 H 0.07528 0.63476 0.46458 0.0
H37 H 0.0894 0.67454 0.60059 0.0
H38 H 0.18238 0.53337 0.68984 0.0
H39 H 0.17344 0.49578 0.55218 0.0
C40 C 0.6885 0.79096 0.66454 0.0
Eu41 Eu 0.67026 0.83463 0.51532 0.0
C42 C 0.67186 0.80826 0.74663 0.0
C43 C 0.68649 0.77727 0.81875 0.0
C44 C 0.66934 0.7926 0.89628 0.0
C45 C 0.63966 0.84145 0.90461 0.0
C46 C 0.62506 0.87229 0.83111 0.0
C47 C 0.63981 0.8552 0.75334 0.0
C48 C 0.74659 0.83869 0.38616 0.0
C49 C 0.65258 0.9593 0.5426 0.0
C50 C 0.61521 0.93605 0.22501 0.0
Eu51 Eu 0.63075 0.88976 0.37232 0.0
C52 C 0.61766 0.91021 0.1444 0.0
C53 C 0.58298 0.92685 0.07623 0.0
C54 C 0.5879 0.90299 0.99938 0.0
C55 C 0.62801 0.8621 0.98894 0.0
C56 C 0.65954 0.84335 1.06006 0.0
C57 C 0.65458 0.86708 0.13615 0.0
C58 C 0.54377 0.85723 0.46119 0.0
C59 C 0.62775 0.76057 0.38262 0.0
O60 O 0.64809 0.77723 0.61429 0.0
O61 O 0.72406 0.82117 0.62652 0.0
O62 O 0.73618 0.79626 0.43244 0.0
O63 O 0.71758 0.87659 0.41187 0.0
O64 O 0.67279 0.91408 0.57588 0.0
O65 O 0.63404 0.96145 0.4629 0.0
O66 O 0.66191 0.93719 0.26804 0.0
O67 O 0.57468 0.92168 0.2712 0.0
O68 O 0.55085 0.84691 0.38426 0.0
O69 O 0.58737 0.87838 0.49086 0.0
O70 O 0.64382 0.80153 0.33456 0.0
O71 O 0.61974 0.76999 0.46011 0.0
H72 H 0.7114 0.74122 0.81544 0.0
H73 H 0.68032 0.76581 0.94912 0.0
H74 H 0.60325 0.91044 0.83257 0.0
H75 H 0.62627 0.8791 0.69856 0.0
H76 H 0.55279 0.95892 0.08194 0.0
H77 H 0.56026 0.91723 0.94862 0.0
H78 H 0.68991 0.81144 1.05788 0.0
H79 H 0.68068 0.85213 0.18847 0.0
C80 C 0.30206 0.32408 0.51735 0.0
Eu81 Eu 0.34368 0.34756 0.66299 0.0
C82 C 0.3177 0.3406 0.43119 0.0
C83 C 0.28442 0.37768 0.38236 0.0
C84 C 0.29989 0.39572 0.30291 0.0
C85 C 0.34959 0.37774 0.27039 0.0
C86 C 0.38288 0.34066 0.31933 0.0
C87 C 0.36718 0.32234 0.39848 0.0
C88 C 0.27984 0.34083 0.8071 0.0
C89 C 0.37026 0.4654 0.62305 0.0
C90 C 0.41972 0.42784 0.93522 0.0
Eu91 Eu 0.39671 0.3834 0.79246 0.0
C92 C 0.40007 0.42168 1.02133 0.0
C93 C 0.43803 0.42196 0.08939 0.0
C94 C 0.42184 0.40814 0.17011 0.0
C95 C 0.36645 0.39645 0.18538 0.0
C96 C 0.32765 0.40162 0.11805 0.0
C97 C 0.34434 0.41265 1.03675 0.0
C98 C 0.47999 0.35773 0.69126 0.0
C99 C 0.40169 0.25859 0.75847 0.0
O100 O 0.33571 0.29161 0.56187 0.0
O101 O 0.28273 0.36252 0.56124 0.0
O102 O 0.28705 0.30218 0.75689 0.0
O103 O 0.30619 0.38046 0.77885 0.0
O104 O 0.33918 0.42709 0.59951 0.0
O105 O 0.39815 0.45944 0.69679 0.0
O106 O 0.38547 0.44867 0.87784 0.0
O107 O 0.4464 0.38666 0.90866 0.0
O108 O 0.47846 0.34475 0.76978 0.0
O109 O 0.43365 0.38067 0.66738 0.0
O110 O 0.38796 0.28955 0.81983 0.0
O111 O 0.40327 0.28244 0.68562 0.0
H112 H 0.24664 0.39345 0.40618 0.0
H113 H 0.27337 0.42463 0.26769 0.0
H114 H 0.42101 0.32522 0.29606 0.0
H115 H 0.39424 0.29424 0.43431 0.0
H116 H 0.48045 0.43229 0.0801 0.0
H117 H 0.45267 0.40704 0.22068 0.0
H118 H 0.28441 0.3965 0.12791 0.0
H119 H 0.31368 0.414 0.98603 0.0
C120 C 0.78614 0.13443 0.13594 0.0
Eu121 Eu 0.83608 0.12111 0.9988 0.0
C122 C 0.80243 0.12036 0.22439 0.0
C123 C 0.82353 0.15988 0.27597 0.0
C124 C 0.83927 0.1472 0.35911 0.0
C125 C 0.83383 0.09449 0.39302 0.0
C126 C 0.81221 0.05498 0.34171 0.0
C127 C 0.79787 0.06746 0.25808 0.0
C128 C 0.76767 0.11749 0.85422 0.0
C129 C 0.87541 0.0107 1.06157 0.0
C130 C 0.90416 0.03994 0.73563 0.0
Eu131 Eu 0.88314 0.07515 0.88231 0.0
C132 C 0.88544 0.05437 0.64846 0.0
C133 C 0.91774 0.0876 0.59768 0.0
C134 C 0.90093 0.10069 0.5151 0.0
C135 C 0.85152 0.08059 0.48104 0.0
C136 C 0.81932 0.04709 0.53167 0.0
C137 C 0.83567 0.03479 0.61471 0.0
C138 C 0.96985 0.08915 0.98655 0.0
C139 C 0.88059 0.21007 0.89244 0.0
O140 O 0.81394 0.17262 0.09883 0.0
O141 O 0.77621 0.09422 0.08785 0.0
O142 O 0.77727 0.15974 0.89585 0.0
O143 O 0.79418 0.07866 0.89081 0.0
O144 O 0.8792 0.05939 0.08515 0.0
O145 O 0.86744 0.00499 0.98004 0.0
O146 O 0.86823 0.01831 0.78441 0.0
O147 O 0.93431 0.07485 0.77364 0.0
O148 O 0.95549 0.04298 0.95878 0.0
O149 O 0.92974 0.12313 0.97309 0.0
O150 O 0.88915 0.16853 0.84404 0.0
O151 O 0.86139 0.20089 0.96579 0.0
H152 H 0.82825 0.20056 0.25162 0.0
H153 H 0.8551 0.17887 0.39708 0.0
H154 H 0.80701 0.01412 0.36578 0.0
H155 H 0.7836 0.03538 0.22001 0.0
H156 H 0.95613 0.10363 0.62182 0.0
H157 H 0.92713 0.12597 0.47753 0.0
H158 H 0.78085 0.03117 0.50763 0.0
H159 H 0.80928 0.00975 0.65228 0.0
C160 C 0.18862 0.29118 0.16552 0.0
Eu161 Eu 0.17056 0.33466 1.01604 0.0
C162 C 0.17228 0.3089 0.24767 0.0
C163 C 0.18712 0.27826 0.32008 0.0
C164 C 0.17018 0.29394 0.3976 0.0
C165 C 0.14042 0.34279 0.40567 0.0
C166 C 0.1257 0.37333 0.33189 0.0
C167 C 0.14026 0.3559 0.25417 0.0
C168 C 0.24641 0.33882 0.88612 0.0
C169 C 0.15395 0.45918 1.04382 0.0
C170 C 0.11421 0.43733 0.72633 0.0
Eu171 Eu 0.13069 0.3903 0.87308 0.0
C172 C 0.1176 0.41189 0.64541 0.0
C173 C 0.08323 0.42849 0.57683 0.0
C174 C 0.08855 0.40467 0.5 0.0
C175 C 0.12864 0.36369 0.48994 0.0
C176 C 0.15982 0.34495 0.56145 0.0
C177 C 0.1546 0.3688 0.63748 0.0
C178 C 0.04398 0.3574 0.96245 0.0
C179 C 0.12797 0.26101 0.88278 0.0
O180 O 0.14801 0.27771 0.11543 0.0
O181 O 0.22449 0.32087 0.12715 0.0
O182 O 0.23639 0.2964 0.93274 0.0
O183 O 0.21749 0.37667 0.91213 0.0
O184 O 0.17403 0.41388 0.07679 0.0
O185 O 0.13491 0.46157 0.96434 0.0
O186 O 0.16066 0.43986 0.76975 0.0
O187 O 0.07411 0.42132 0.77213 0.0
O188 O 0.05092 0.34727 0.88545 0.0
O189 O 0.08764 0.37862 0.99191 0.0
O190 O 0.14386 0.30213 0.8348 0.0
O191 O 0.12011 0.27015 0.96042 0.0
H192 H 0.21205 0.24219 0.31703 0.0
H193 H 0.18136 0.26739 0.45063 0.0
H194 H 0.10389 0.4115 0.33307 0.0
H195 H 0.12656 0.37958 0.19924 0.0
H196 H 0.05286 0.46044 0.58227 0.0
H197 H 0.06109 0.41891 0.44902 0.0
H198 H 0.19 0.31285 0.5597 0.0
H199 H 0.18041 0.35384 0.69012 0.0
C200 C 0.80213 0.82343 1.0176 0.0
Eu201 Eu 0.84394 0.84676 0.16318 0.0
C202 C 0.81803 0.8397 0.93147 0.0
C203 C 0.7847 0.87631 0.88186 0.0
C204 C 0.80051 0.89415 0.80246 0.0
C205 C 0.85056 0.87638 0.77074 0.0
C206 C 0.88386 0.83973 0.82046 0.0
C207 C 0.86786 0.82167 0.89957 0.0
C208 C 0.78024 0.84051 0.30739 0.0
C209 C 0.87081 0.96477 0.12395 0.0
C210 C 0.92198 0.92565 0.43592 0.0
Eu211 Eu 0.8976 0.88224 0.29275 0.0
C212 C 0.90209 0.91956 0.52187 0.0
C213 C 0.93982 0.91987 0.59021 0.0
C214 C 0.92327 0.90639 0.67087 0.0
C215 C 0.86779 0.89478 0.68574 0.0
C216 C 0.82928 0.89968 0.61801 0.0
C217 C 0.8463 0.91051 0.53683 0.0
C218 C 0.98027 0.85649 0.19018 0.0
C219 C 0.90168 0.75748 0.25931 0.0
O220 O 0.83552 0.79078 1.06225 0.0
O221 O 0.78299 0.86203 1.06137 0.0
O222 O 0.78706 0.80186 0.25709 0.0
O223 O 0.80696 0.87994 0.27931 0.0
O224 O 0.84 0.92637 0.09988 0.0
O225 O 0.89858 0.95872 0.1978 0.0
O226 O 0.88825 0.94742 0.37869 0.0
O227 O 0.94759 0.88399 0.40893 0.0
O228 O 0.979 0.84322 0.2686 0.0
O229 O 0.93392 0.87963 0.16718 0.0
O230 O 0.88835 0.78862 0.32058 0.0
O231 O 0.90284 0.78101 0.18612 0.0
H232 H 0.74662 0.89186 0.90504 0.0
H233 H 0.77394 0.92273 0.76664 0.0
H234 H 0.92223 0.82441 0.79785 0.0
H235 H 0.89497 0.79393 0.93601 0.0
H236 H 0.98236 0.92994 0.5812 0.0
H237 H 0.95391 0.90542 0.72169 0.0
H238 H 0.786 0.89469 0.62747 0.0
H239 H 0.81583 0.91176 0.48585 0.0
C240 C 0.28506 0.6326 0.63336 0.0
Eu241 Eu 0.33594 0.62084 0.49676 0.0
C242 C 0.30117 0.61908 0.72213 0.0
C243 C 0.32651 0.65762 0.77154 0.0
C244 C 0.34166 0.64536 0.85501 0.0
C245 C 0.33182 0.59406 0.89143 0.0
C246 C 0.30606 0.55557 0.84226 0.0
C247 C 0.2917 0.56766 0.75844 0.0
C248 C 0.26834 0.61835 0.35132 0.0
C249 C 0.37519 0.51101 0.56025 0.0
C250 C 0.40377 0.5401 0.23384 0.0
Eu251 Eu 0.38304 0.57509 0.38075 0.0
C252 C 0.38442 0.55437 0.14688 0.0
C253 C 0.4178 0.58519 0.09437 0.0
C254 C 0.40073 0.59803 1.01184 0.0
C255 C 0.34969 0.58042 0.9796 0.0
C256 C 0.31619 0.54961 1.03218 0.0
C257 C 0.3331 0.53717 0.11502 0.0
C258 C 0.46982 0.5884 0.48511 0.0
C259 C 0.38129 0.7099 0.39201 0.0
O260 O 0.31176 0.67165 0.5963 0.0
O261 O 0.27631 0.59207 0.58539 0.0
O262 O 0.27793 0.66038 0.39345 0.0
O263 O 0.29415 0.57915 0.38807 0.0
O264 O 0.37954 0.55973 0.58342 0.0
O265 O 0.36683 0.50518 0.4788 0.0
O266 O 0.36845 0.51797 0.28317 0.0
O267 O 0.4337 0.57539 0.27142 0.0
O268 O 0.45535 0.54242 0.45674 0.0
O269 O 0.42985 0.62258 0.47197 0.0
O270 O 0.3893 0.66855 0.34304 0.0
O271 O 0.36239 0.7005 0.46553 0.0
H272 H 0.33481 0.69731 0.74557 0.0
H273 H 0.36066 0.67634 0.8912 0.0
H274 H 0.29813 0.51555 0.86795 0.0
H275 H 0.27402 0.53628 0.72194 0.0
H276 H 0.45725 0.59955 0.11719 0.0
H277 H 0.42799 0.62117 0.97293 0.0
H278 H 0.27648 0.53563 1.00968 0.0
H279 H 0.30596 0.51385 0.15385 0.0
C280 C 0.70216 0.16513 0.48701 0.0
Eu281 Eu 0.66589 0.12928 0.62991 0.0
C282 C 0.69232 0.1471 0.40141 0.0
C283 C 0.69244 0.18378 0.33282 0.0
C284 C 0.67643 0.16776 0.25308 0.0
C285 C 0.66181 0.114 0.24055 0.0
C286 C 0.664 0.07708 0.30902 0.0
C287 C 0.68011 0.09317 0.3878 0.0
C288 C 0.74079 0.1191 0.76746 0.0
C289 C 0.64886 0.00646 0.59809 0.0
C290 C 0.60935 0.03543 0.91439 0.0
Eu291 Eu 0.62738 0.07094 0.76376 0.0
C292 C 0.62213 0.05672 0.997 0.0
C293 C 0.5999 0.10617 1.02086 0.0
C294 C 0.61314 0.12537 0.09955 0.0
C295 C 0.64793 0.095 0.15617 0.0
C296 C 0.66976 0.04567 0.13177 0.0
C297 C 0.6582 0.02752 1.05255 0.0
C298 C 0.54013 0.08851 0.65476 0.0
C299 C 0.62027 0.20394 0.75552 0.0
O300 O 0.65959 0.18596 0.52176 0.0
O301 O 0.72956 0.13146 0.53813 0.0
O302 O 0.72938 0.16326 0.72394 0.0
O303 O 0.71322 0.08214 0.73522 0.0
O304 O 0.64052 0.05461 0.56464 0.0
O305 O 0.65257 0.00107 0.68077 0.0
O306 O 0.65152 0.01966 0.8732 0.0
O307 O 0.57254 0.06196 0.867 0.0
O308 O 0.55584 0.04156 0.68606 0.0
O309 O 0.57793 0.12187 0.6709 0.0
O310 O 0.63529 0.16097 0.80411 0.0
O311 O 0.61425 0.19577 0.676 0.0
H312 H 0.70595 0.2244 0.34078 0.0
H313 H 0.67723 0.19687 0.20109 0.0
H314 H 0.65335 0.03549 0.30191 0.0
H315 H 0.68384 0.06284 0.43739 0.0
H316 H 0.57244 0.13014 0.97888 0.0
H317 H 0.59539 0.16338 0.11662 0.0
H318 H 0.69679 0.02127 0.17335 0.0
H319 H 0.67705 -0.00991 1.03504 0.0
C320 C 0.92201 0.42443 0.71983 0.0
Eu321 Eu 0.89901 0.39276 0.87133 0.0
C322 C 0.91002 0.4035 0.63628 0.0
C323 C 0.9517 0.37744 0.59401 0.0
C324 C 0.94088 0.35758 0.51498 0.0
C325 C 0.8879 0.36315 0.4767 0.0
C326 C 0.84655 0.38942 0.51915 0.0
C327 C 0.85705 0.40844 0.59836 0.0
C328 C 0.98751 0.37552 0.98011 0.0
C329 C 0.90509 0.26395 0.88421 0.0
C330 C 0.82566 0.30227 0.14447 0.0
Eu331 Eu 0.85962 0.33949 1.00174 0.0
C332 C 0.845 0.31116 0.23066 0.0
C333 C 0.80865 0.30375 0.29531 0.0
C334 C 0.82397 0.31792 0.37588 0.0
C335 C 0.87505 0.34208 0.39293 0.0
C336 C 0.91211 0.34826 0.32828 0.0
C337 C 0.89727 0.33271 0.2479 0.0
C338 C 0.78024 0.3534 0.86916 0.0
C339 C 0.88208 0.4571 1.03982 0.0
O340 O 0.8808 0.44397 0.75946 0.0
O341 O 0.95517 0.39487 0.76893 0.0
O342 O 0.97299 0.42183 0.9452 0.0
O343 O 0.94897 0.3427 0.96587 0.0
O344 O 0.88379 0.30326 0.8345 0.0
O345 O 0.92048 0.28029 0.95698 0.0
O346 O 0.85819 0.27496 0.09845 0.0
O347 O 0.80489 0.34517 0.10479 0.0
O348 O 0.79227 0.30859 0.91091 0.0
O349 O 0.81121 0.38919 0.89823 0.0
O350 O 0.88732 0.40913 0.07328 0.0
O351 O 0.87817 0.46292 0.95694 0.0
H352 H 0.99251 0.37163 0.62278 0.0
H353 H 0.97371 0.33717 0.48456 0.0
H354 H 0.80611 0.39627 0.49044 0.0
H355 H 0.82368 0.42777 0.62914 0.0
H356 H 0.768 0.2878 0.28305 0.0
H357 H 0.7954 0.31079 0.4248 0.0
H358 H 0.95169 0.3669 0.33898 0.0
H359 H 0.92585 0.33927 0.19864 0.0
C360 C 0.40948 0.01883 0.9129 0.0
Eu361 Eu 0.39821 0.07132 0.76883 0.0
C362 C 0.40047 0.03594 0.99875 0.0
C363 C 0.44267 0.06021 1.0458 0.0
C364 C 0.43225 0.08033 0.12377 0.0
C365 C 0.37978 0.07547 0.1573 0.0
C366 C 0.33849 0.04912 0.11178 0.0
C367 C 0.34832 0.03057 1.033 0.0
C368 C 0.48414 0.10376 0.67789 0.0
C369 C 0.40289 0.19916 0.75265 0.0
C370 C 0.33043 0.16371 0.47477 0.0
Eu371 Eu 0.3559 0.12446 0.6238 0.0
C372 C 0.3416 0.1419 0.39254 0.0
C373 C 0.3241 0.0901 0.37247 0.0
C374 C 0.33626 0.06889 0.29635 0.0
C375 C 0.36753 0.09816 0.23887 0.0
C376 C 0.38558 0.14975 0.2591 0.0
C377 C 0.37248 0.17147 0.33493 0.0
C378 C 0.28366 0.1204 0.75577 0.0
C379 C 0.37822 0.00334 0.59423 0.0
O380 O 0.36563 0.0164 0.86376 0.0
O381 O 0.45067 0.04016 0.87443 0.0
O382 O 0.4792 0.11157 0.75629 0.0
O383 O 0.44018 0.0828 0.64856 0.0
O384 O 0.38711 0.16105 0.80651 0.0
O385 O 0.40928 0.1857 0.67632 0.0
O386 O 0.37346 0.1794 0.51835 0.0
O387 O 0.29595 0.13688 0.52061 0.0
O388 O 0.28995 0.16185 0.70537 0.0
O389 O 0.31214 0.08265 0.7295 0.0
O390 O 0.35655 0.04747 0.56109 0.0
O391 O 0.39704 0.00133 0.67404 0.0
H392 H 0.48347 0.06463 1.02174 0.0
H393 H 0.46535 0.09945 0.15797 0.0
H394 H 0.2981 0.04355 0.13653 0.0
H395 H 0.31486 0.01185 0.99897 0.0
H396 H 0.30057 0.06577 0.41522 0.0
H397 H 0.32135 0.02925 0.28295 0.0
H398 H 0.40913 0.1737 0.21575 0.0
H399 H 0.38696 0.21118 0.34885 0.0
C400 C 0.69217 0.63673 0.62612 0.0
Eu401 Eu 0.66139 0.61565 0.47309 0.0
C402 C 0.67587 0.61907 0.71041 0.0
C403 C 0.70703 0.63531 0.77923 0.0
C404 C 0.69166 0.62105 0.85992 0.0
C405 C 0.64634 0.58747 0.87424 0.0
C406 C 0.61459 0.57159 0.80453 0.0
C407 C 0.62889 0.58781 0.7235 0.0
C408 C 0.64431 0.70457 0.36907 0.0
C409 C 0.52583 0.60245 0.45868 0.0
C410 C 0.60365 0.52444 0.21935 0.0
Eu411 Eu 0.62178 0.57771 0.35405 0.0
C412 C 0.6135 0.53785 0.12989 0.0
C413 C 0.5698 0.54374 1.07004 0.0
C414 C 0.57982 0.55945 0.98692 0.0
C415 C 0.63407 0.56855 0.96146 0.0
C416 C 0.67765 0.55963 1.02094 0.0
C417 C 0.66762 0.54524 0.10357 0.0
C418 C 0.61965 0.50996 0.52802 0.0
C419 C 0.7361 0.61311 0.31225 0.0
O420 O 0.71667 0.60112 0.58275 0.0
O421 O 0.65564 0.66499 0.58116 0.0
O422 O 0.69078 0.69024 0.40612 0.0
O423 O 0.61032 0.66647 0.37907 0.0
O424 O 0.56877 0.60912 0.51043 0.0
O425 O 0.53544 0.59302 0.38189 0.0
O426 O 0.56438 0.55061 0.25494 0.0
O427 O 0.64797 0.51922 0.26757 0.0
O428 O 0.65225 0.5254 0.46807 0.0
O429 O 0.64983 0.52642 0.46822 0.0
O430 O 0.68661 0.61873 0.28027 0.0
O431 O 0.73964 0.60177 0.39381 0.0
H432 H 0.74319 0.65964 0.77046 0.0
H433 H 0.71552 0.63663 0.91126 0.0
H434 H 0.57928 0.54597 0.81219 0.0
H435 H 0.60345 0.57568 0.67116 0.0
H436 H 0.52791 0.53662 0.08772 0.0
H437 H 0.54496 0.56533 0.94326 0.0
H438 H 0.72008 0.56327 1.00383 0.0
H439 H 0.70286 0.53972 0.14668 0.0
C440 C 0.0999 0.92606 0.40975 0.0
Eu441 Eu 0.12207 0.89281 0.26316 0.0
C442 C 0.11585 0.90898 0.4962 0.0
C443 C 0.07844 0.88006 0.54404 0.0
C444 C 0.09136 0.86542 0.62693 0.0
C445 C 0.143 0.87775 0.66336 0.0
C446 C 0.18122 0.9055 0.61463 0.0
C447 C 0.16773 0.9211 0.53188 0.0
C448 C 0.03563 0.87385 0.16162 0.0
C449 C 0.13999 0.75828 0.26859 0.0
C450 C 0.19292 0.8137 1.00748 0.0
Eu451 Eu 0.1708 0.84921 0.15132 0.0
C452 C 0.1801 0.83165 0.92036 0.0
C453 C 0.14646 0.79966 0.87076 0.0
C454 C 0.13556 0.81388 0.78717 0.0
C455 C 0.15649 0.86172 0.75176 0.0
C456 C 0.18896 0.89467 0.80225 0.0
C457 C 0.20006 0.88012 0.88595 0.0
C458 C 0.24525 0.85555 0.28675 0.0
C459 C 0.13704 0.96843 0.09444 0.0
O460 O 0.13808 0.94682 0.36418 0.0
O461 O 0.06908 0.89306 0.36896 0.0
O462 O 0.04847 0.92174 0.18437 0.0
O463 O 0.07741 0.84171 0.17666 0.0
O464 O 0.11041 0.79936 0.29508 0.0
O465 O 0.17684 0.76969 0.21504 0.0
O466 O 0.15048 0.79832 1.04948 0.0
O467 O 0.22768 0.84212 1.05102 0.0
O468 O 0.23869 0.81428 0.24159 0.0
O469 O 0.21354 0.8935 0.25625 0.0
O470 O 0.16984 0.92897 0.07764 0.0
O471 O 0.11277 0.96527 0.16675 0.0
H472 H 0.03878 0.86899 0.51741 0.0
H473 H 0.0603 0.84505 0.6625 0.0
H474 H 0.22166 0.91509 0.64008 0.0
H475 H 0.19793 0.94269 0.49617 0.0
H476 H 0.1285 0.76339 0.89666 0.0
H477 H 0.11103 0.78693 0.75039 0.0
H478 H 0.20532 0.93209 0.77771 0.0
H479 H 0.22387 0.9071 0.92337 0.0
C480 C 0.90769 0.51744 0.41506 0.0
Eu481 Eu 0.89768 0.57012 0.27112 0.0
C482 C 0.89945 0.53489 0.50089 0.0
C483 C 0.94222 0.55877 0.54733 0.0
C484 C 0.93247 0.57918 0.62532 0.0
C485 C 0.8801 0.57501 0.6594 0.0
C486 C 0.83823 0.54912 0.61443 0.0
C487 C 0.84741 0.53027 0.53567 0.0
C488 C 0.98451 0.60123 0.18214 0.0
C489 C 0.90416 0.698 0.25473 0.0
C490 C 0.8324 0.66401 0.97675 0.0
Eu491 Eu 0.85695 0.62412 0.1257 0.0
C492 C 0.84331 0.64204 0.8946 0.0
C493 C 0.82536 0.59036 0.87479 0.0
C494 C 0.83716 0.56893 0.79875 0.0
C495 C 0.86853 0.59787 0.74103 0.0
C496 C 0.88717 0.6493 0.76103 0.0
C497 C 0.87442 0.67124 0.83685 0.0
C498 C 0.78392 0.62028 0.25648 0.0
C499 C 0.87788 0.50291 0.09582 0.0
O500 O 0.8636 0.51632 0.36615 0.0
O501 O 0.94946 0.53745 0.37643 0.0
O502 O 0.97932 0.60896 0.2605 0.0
O503 O 0.94049 0.58114 0.15158 0.0
O504 O 0.88725 0.66014 0.30817 0.0
O505 O 0.91151 0.68419 0.17888 0.0
O506 O 0.87566 0.67889 1.02059 0.0
O507 O 0.79734 0.63775 1.02231 0.0
O508 O 0.79107 0.66199 0.20695 0.0
O509 O 0.8121 0.58236 0.23021 0.0
O510 O 0.85715 0.54738 1.06248 0.0
O511 O 0.89604 0.50044 0.17594 0.0
H512 H 0.98296 0.56266 0.52281 0.0
H513 H 0.96598 0.59795 0.65912 0.0
H514 H 0.79789 0.54412 0.63963 0.0
H515 H 0.81354 0.51189 0.50209 0.0
H516 H 0.8017 0.56627 0.91767 0.0
H517 H 0.82182 0.52942 0.78553 0.0
H518 H 0.91086 0.67296 0.7175 0.0
H519 H 0.88933 0.71082 0.85064 0.0
C520 C 0.1923 0.13674 0.12568 0.0
Eu521 Eu 0.1613 0.11591 0.97264 0.0
C522 C 0.17554 0.11945 0.2099 0.0
C523 C 0.20616 0.13622 0.27889 0.0
C524 C 0.19046 0.12219 0.35949 0.0
C525 C 0.14525 0.08843 0.3736 0.0
C526 C 0.11394 0.07213 0.30374 0.0
C527 C 0.12863 0.08803 0.22276 0.0
C528 C 0.14427 0.20499 0.86872 0.0
C529 C 0.02569 0.10328 0.95947 0.0
C530 C 0.10182 0.0256 0.71852 0.0
Eu531 Eu 0.12105 0.07834 0.85349 0.0
C532 C 0.11182 0.0391 0.62914 0.0
C533 C 0.06819 0.04526 0.56917 0.0
C534 C 0.0784 0.06084 0.48605 0.0
C535 C 0.13274 0.06968 0.46077 0.0
C536 C 0.1762 0.06066 0.52041 0.0
C537 C 0.16601 0.04633 0.603 0.0
C538 C 0.119 0.01022 1.02717 0.0
C539 C 0.23582 0.11293 0.81156 0.0
O540 O 0.21629 0.1007 0.08248 0.0
O541 O 0.15631 0.16553 0.08052 0.0
O542 O 0.19081 0.19039 0.90536 0.0
O543 O 0.11017 0.16703 0.87903 0.0
O544 O 0.06887 0.10968 1.01082 0.0
O545 O 0.03492 0.09399 0.88248 0.0
O546 O 0.06306 0.05231 0.75434 0.0
O547 O 0.14609 0.01952 0.7667 0.0
O548 O 0.15152 0.02571 0.96716 0.0
O549 O 0.14912 0.02673 0.9673 0.0
O550 O 0.18629 0.1188 0.77971 0.0
O551 O 0.23942 0.10176 0.89317 0.0
H552 H 0.24224 0.1607 0.27027 0.0
H553 H 0.21398 0.13803 0.41095 0.0
H554 H 0.07871 0.04639 0.31129 0.0
H555 H 0.10356 0.07554 0.17028 0.0
H556 H 0.02622 0.03847 0.58676 0.0
H557 H 0.04364 0.06685 0.44223 0.0
H558 H 0.21867 0.06408 0.50335 0.0
H559 H 0.20117 0.04067 0.64621 0.0
C560 C 0.59909 0.42555 0.91102 0.0
Eu561 Eu 0.62191 0.39298 0.76419 0.0
C562 C 0.61402 0.40809 0.99766 0.0
C563 C 0.57538 0.38046 1.04494 0.0
C564 C 0.587 0.3662 0.12836 0.0
C565 C 0.63866 0.37737 0.16585 0.0
C566 C 0.67826 0.40336 0.11735 0.0
C567 C 0.66596 0.41885 1.03424 0.0
C568 C 0.53549 0.37454 0.66267 0.0
C569 C 0.64097 0.25884 0.77038 0.0
C570 C 0.69069 0.31287 0.50947 0.0
Eu571 Eu 0.67053 0.34927 0.65327 0.0
C572 C 0.67575 0.33152 0.42321 0.0
C573 C 0.63875 0.30159 0.37562 0.0
C574 C 0.62728 0.31594 0.29206 0.0
C575 C 0.65092 0.36198 0.25495 0.0
C576 C 0.68581 0.39348 0.30415 0.0
C577 C 0.6976 0.37873 0.38749 0.0
C578 C 0.7455 0.35625 0.78788 0.0
C579 C 0.63767 0.46843 0.59566 0.0
O580 O 0.63785 0.44611 0.86643 0.0
O581 O 0.56831 0.39302 0.86933 0.0
O582 O 0.54871 0.42244 0.685 0.0
O583 O 0.57699 0.34206 0.67804 0.0
O584 O 0.60946 0.29944 0.79363 0.0
O585 O 0.67982 0.27114 0.72079 0.0
O586 O 0.64959 0.29637 0.55365 0.0
O587 O 0.72592 0.34164 0.55154 0.0
O588 O 0.73914 0.31497 0.74268 0.0
O589 O 0.71342 0.39402 0.75766 0.0
O590 O 0.67071 0.42899 0.57951 0.0
O591 O 0.61297 0.46534 0.66762 0.0
H592 H 0.53567 0.37027 1.01751 0.0
H593 H 0.55492 0.34714 0.16341 0.0
H594 H 0.7189 0.41178 0.14323 0.0
H595 H 0.69711 0.43936 0.99898 0.0
H596 H 0.62015 0.26575 0.40222 0.0
H597 H 0.60089 0.28996 0.25644 0.0
H598 H 0.70404 0.42975 0.27876 0.0
H599 H 0.72391 0.40442 0.42342 0.0
C600 C 0.42178 0.92411 0.21822 0.0
Eu601 Eu 0.39888 0.89268 0.36989 0.0
C602 C 0.41021 0.9029 0.13471 0.0
C603 C 0.45192 0.8761 0.09345 0.0
C604 C 0.44147 0.85606 1.01443 0.0
C605 C 0.38883 0.86213 0.97519 0.0
C606 C 0.34749 0.8892 1.01653 0.0
C607 C 0.35761 0.90844 0.09569 0.0
C608 C 0.48736 0.87553 0.47865 0.0
C609 C 0.40546 0.76389 0.38347 0.0
C610 C 0.32611 0.80178 0.64321 0.0
Eu611 Eu 0.3596 0.83946 0.50055 0.0
C612 C 0.34591 0.81008 0.72933 0.0
C613 C 0.30965 0.8027 0.79398 0.0
C614 C 0.32511 0.81664 0.87459 0.0
C615 C 0.37623 0.8407 0.89161 0.0
C616 C 0.41331 0.84675 0.82697 0.0
C617 C 0.39833 0.83135 0.74653 0.0
C618 C 0.28028 0.85285 0.3678 0.0
C619 C 0.3823 0.95732 0.5384 0.0
O620 O 0.38029 0.94336 0.25755 0.0
O621 O 0.45516 0.89502 0.26765 0.0
O622 O 0.47292 0.9218 0.44354 0.0
O623 O 0.44883 0.84272 0.46453 0.0
O624 O 0.38402 0.80301 0.33352 0.0
O625 O 0.42078 0.78048 0.4561 0.0
O626 O 0.35817 0.77445 0.59652 0.0
O627 O 0.30545 0.845 0.60427 0.0
O628 O 0.29234 0.80817 0.40986 0.0
O629 O 0.31105 0.88882 0.3968 0.0
O630 O 0.38711 0.90933 0.57204 0.0
O631 O 0.37839 0.96302 0.45547 0.0
H632 H 0.49246 0.86987 0.123 0.0
H633 H 0.47427 0.83509 0.98477 0.0
H634 H 0.30733 0.8964 0.98696 0.0
H635 H 0.32423 0.92834 0.12563 0.0
H636 H 0.26875 0.78752 0.78141 0.0
H637 H 0.29655 0.80966 0.92353 0.0
H638 H 0.45294 0.86528 0.83773 0.0
H639 H 0.42683 0.83797 0.69715 0.0
loop_
_geom_bond_atom_site_label_1
_geom_bond_atom_site_label_2
_geom_bond_distance
_geom_bond_site_symmetry_2
_ccdc_geom_bond_type
C0 Eu1 2.835 1_556 S
C0 C2 1.500 . S
C0 O20 1.257 . S
C0 O21 1.260 . S
Eu1 C0 2.835 1_554 S
Eu1 O20 2.473 1_554 S
Eu1 O21 2.480 1_554 S
Eu1 O22 2.430 . S
Eu1 O23 2.670 . S
Eu1 O24 2.394 . S
Eu1 O29 2.355 . S
Eu1 O31 2.374 . S
C2 C0 1.500 . S
C2 C3 1.377 . S
C2 C7 1.377 . S
C3 C2 1.377 . S
C3 C4 1.395 . S
C3 H32 0.931 . S
C4 C3 1.395 . S
C4 C5 1.383 . S
C4 H33 0.931 . S
C5 C4 1.383 . S
C5 C6 1.394 . S
C6 C5 1.394 . S
C6 C7 1.378 . S
C6 H34 0.931 . S
C7 C2 1.377 . S
C7 C6 1.378 . S
C7 H35 0.931 . S
C8 O22 1.259 . S
C8 O23 1.270 . S
C9 O24 1.251 . S
C9 O25 1.251 . S
C10 Eu11 2.835 . S
C10 C12 1.500 . S
C10 O26 1.257 . S
C10 O27 1.260 . S
Eu11 C10 2.835 . S
Eu11 O23 2.355 . S
Eu11 O25 2.374 . S
Eu11 O26 2.473 . S
Eu11 O27 2.480 . S
Eu11 O28 2.430 . S
Eu11 O29 2.670 . S
Eu11 O30 2.394 . S
C12 C10 1.500 . S
C12 C13 1.377 . S
C12 C17 1.377 . S
C13 C12 1.377 . S
C13 C14 1.395 . S
C13 H36 0.931 . S
C14 C13 1.395 . S
C14 C15 1.383 . S
C14 H37 0.931 . S
C15 C14 1.383 . S
C15 C16 1.394 . S
C16 C15 1.394 . S
C16 C17 1.378 . S
C16 H38 0.931 . S
C17 C12 1.377 . S
C17 C16 1.378 . S
C17 H39 0.931 . S
C18 O28 1.259 . S
C18 O29 1.270 . S
C19 O30 1.251 . S
C19 O31 1.251 . S
O20 C0 1.257 . S
O20 Eu1 2.473 1_556 S
O21 C0 1.260 . S
O21 Eu1 2.480 1_556 S
O22 Eu1 2.430 . S
O22 C8 1.259 . S
O23 Eu1 2.670 . S
O23 C8 1.270 . S
O23 Eu11 2.355 . S
O24 Eu1 2.394 . S
O24 C9 1.251 . S
O25 C9 1.251 . S
O25 Eu11 2.374 . S
O26 C10 1.257 . S
O26 Eu11 2.473 . S
O27 C10 1.260 . S
O27 Eu11 2.480 . S
O28 Eu11 2.430 . S
O28 C18 1.259 . S
O29 Eu1 2.355 . S
O29 Eu11 2.670 . S
O29 C18 1.270 . S
O30 Eu11 2.394 . S
O30 C19 1.251 . S
O31 Eu1 2.374 . S
O31 C19 1.251 . S
H32 C3 0.931 . S
H33 C4 0.931 . S
H34 C6 0.931 . S
H35 C7 0.931 . S
H36 C13 0.931 . S
H37 C14 0.931 . S
H38 C16 0.931 . S
H39 C17 0.931 . S
C40 Eu41 2.835 . S
C40 C42 1.500 . S
C40 O60 1.257 . S
C40 O61 1.260 . S
Eu41 C40 2.835 . S
Eu41 O60 2.473 . S
Eu41 O61 2.480 . S
Eu41 O62 2.430 . S
Eu41 O63 2.670 . S
Eu41 O64 2.394 . S
Eu41 O69 2.355 . S
Eu41 O71 2.374 . S
C42 C40 1.500 . S
C42 C43 1.377 . S
C42 C47 1.377 . S
C43 C42 1.377 . S
C43 C44 1.395 . S
C43 H72 0.931 . S
C44 C43 1.395 . S
C44 C45 1.383 . S
C44 H73 0.931 . S
C45 C44 1.383 . S
C45 C46 1.394 . S
C46 C45 1.394 . S
C46 C47 1.378 . S
C46 H74 0.931 . S
C47 C42 1.377 . S
C47 C46 1.378 . S
C47 H75 0.931 . S
C48 O62 1.259 . S
C48 O63 1.270 . S
C49 O64 1.251 . S
C49 O65 1.251 1_565 S
C50 Eu51 2.835 . S
C50 C52 1.500 . S
C50 O66 1.257 . S
C50 O67 1.260 . S
Eu51 C50 2.835 . S
Eu51 O63 2.355 . S
Eu51 O65 2.363 1_565 S
Eu51 O66 2.473 . S
Eu51 O67 2.480 . S
Eu51 O68 2.430 . S
Eu51 O69 2.670 . S
Eu51 O70 2.394 . S
C52 C50 1.500 . S
C52 C53 1.377 1_554 S
C52 C57 1.377 . S
C53 C52 1.377 1_556 S
C53 C54 1.395 . S
C53 H76 0.931 1_556 S
C54 C53 1.395 . S
C54 C55 1.383 . S
C54 H77 0.931 . S
C55 C54 1.383 . S
C55 C56 1.394 . S
C56 C55 1.394 . S
C56 C57 1.378 1_556 S
C56 H78 0.931 . S
C57 C52 1.377 . S
C57 C56 1.378 1_554 S
C57 H79 0.931 . S
C58 O68 1.259 . S
C58 O69 1.270 . S
C59 O70 1.251 . S
C59 O71 1.251 . S
O60 C40 1.257 . S
O60 Eu41 2.473 . S
O61 C40 1.260 . S
O61 Eu41 2.480 . S
O62 Eu41 2.430 . S
O62 C48 1.259 . S
O63 Eu41 2.670 . S
O63 C48 1.270 . S
O63 Eu51 2.355 . S
O64 Eu41 2.394 . S
O64 C49 1.251 . S
O65 C49 1.251 1_545 S
O65 Eu51 2.363 1_545 S
O66 C50 1.257 . S
O66 Eu51 2.473 . S
O67 C50 1.260 . S
O67 Eu51 2.480 . S
O68 Eu51 2.430 . S
O68 C58 1.259 . S
O69 Eu41 2.355 . S
O69 Eu51 2.670 . S
O69 C58 1.270 . S
O70 Eu51 2.394 . S
O70 C59 1.251 . S
O71 Eu41 2.374 . S
O71 C59 1.251 . S
H72 C43 0.931 . S
H73 C44 0.931 . S
H74 C46 0.931 . S
H75 C47 0.931 . S
H76 C53 0.931 1_554 S
H77 C54 0.931 . S
H78 C56 0.931 . S
H79 C57 0.931 . S
C80 Eu81 2.835 . S
C80 C82 1.500 . S
C80 O100 1.257 . S
C80 O101 1.260 . S
Eu81 C80 2.835 . S
Eu81 O100 2.473 . S
Eu81 O101 2.480 . S
Eu81 O102 2.430 . S
Eu81 O103 2.670 . S
Eu81 O104 2.394 . S
Eu81 O109 2.355 . S
Eu81 O111 2.374 . S
C82 C80 1.500 . S
C82 C83 1.377 . S
C82 C87 1.377 . S
C83 C82 1.377 . S
C83 C84 1.395 . S
C83 H112 0.931 . S
C84 C83 1.395 . S
C84 C85 1.383 . S
C84 H113 0.931 . S
C85 C84 1.383 . S
C85 C86 1.394 . S
C86 C85 1.394 . S
C86 C87 1.378 . S
C86 H114 0.931 . S
C87 C82 1.377 . S
C87 C86 1.378 . S
C87 H115 0.931 . S
C88 O102 1.259 . S
C88 O103 1.270 . S
C89 O104 1.251 . S
C89 O105 1.251 . S
C90 Eu91 2.835 . S
C90 C92 1.500 . S
C90 O106 1.257 . S
C90 O107 1.260 . S
Eu91 C90 2.835 . S
Eu91 O103 2.355 . S
Eu91 O105 2.374 . S
Eu91 O106 2.473 . S
Eu91 O107 2.480 . S
Eu91 O108 2.430 . S
Eu91 O109 2.670 . S
Eu91 O110 2.394 . S
C92 C90 1.500 . S
C92 C93 1.377 1_556 S
C92 C97 1.377 1_556 S
C93 C92 1.377 1_554 S
C93 C94 1.395 . S
C93 H116 0.931 . S
C94 C93 1.395 . S
C94 C95 1.383 . S
C94 H117 0.931 . S
C95 C94 1.383 . S
C95 C96 1.394 . S
C96 C95 1.394 . S
C96 C97 1.378 . S
C96 H118 0.931 . S
C97 C92 1.377 1_554 S
C97 C96 1.378 . S
C97 H119 0.931 1_554 S
C98 O108 1.259 . S
C98 O109 1.270 . S
C99 O110 1.251 . S
C99 O111 1.251 . S
O100 C80 1.257 . S
O100 Eu81 2.473 . S
O101 C80 1.260 . S
O101 Eu81 2.480 . S
O102 Eu81 2.430 . S
O102 C88 1.259 . S
O103 Eu81 2.670 . S
O103 C88 1.270 . S
O103 Eu91 2.355 . S
O104 Eu81 2.394 . S
O104 C89 1.251 . S
O105 C89 1.251 . S
O105 Eu91 2.374 . S
O106 C90 1.257 . S
O106 Eu91 2.473 . S
O107 C90 1.260 . S
O107 Eu91 2.480 . S
O108 Eu91 2.430 . S
O108 C98 1.259 . S
O109 Eu81 2.355 . S
O109 Eu91 2.670 . S
O109 C98 1.270 . S
O110 Eu91 2.394 . S
O110 C99 1.251 . S
O111 Eu81 2.374 . S
O111 C99 1.251 . S
H112 C83 0.931 . S
H113 C84 0.931 . S
H114 C86 0.931 . S
H115 C87 0.931 . S
H116 C93 0.931 . S
H117 C94 0.931 . S
H118 C96 0.931 . S
H119 C97 0.931 1_556 S
C120 Eu121 2.835 1_554 S
C120 C122 1.500 . S
C120 O140 1.257 . S
C120 O141 1.260 . S
Eu121 C120 2.835 1_556 S
Eu121 O140 2.473 1_556 S
Eu121 O141 2.480 1_556 S
Eu121 O142 2.430 . S
Eu121 O143 2.670 . S
Eu121 O144 2.394 . S
Eu121 O149 2.355 . S
Eu121 O151 2.374 . S
C122 C120 1.500 . S
C122 C123 1.377 . S
C122 C127 1.377 . S
C123 C122 1.377 . S
C123 C124 1.395 . S
C123 H152 0.931 . S
C124 C123 1.395 . S
C124 C125 1.383 . S
C124 H153 0.931 . S
C125 C124 1.383 . S
C125 C126 1.394 . S
C126 C125 1.394 . S
C126 C127 1.378 . S
C126 H154 0.931 . S
C127 C122 1.377 . S
C127 C126 1.378 . S
C127 H155 0.931 . S
C128 O142 1.259 . S
C128 O143 1.270 . S
C129 O144 1.251 . S
C129 O145 1.251 . S
C130 Eu131 2.835 . S
C130 C132 1.500 . S
C130 O146 1.257 . S
C130 O147 1.260 . S
Eu131 C130 2.835 . S
Eu131 O143 2.355 . S
Eu131 O145 2.374 . S
Eu131 O146 2.473 . S
Eu131 O147 2.480 . S
Eu131 O148 2.430 . S
Eu131 O149 2.670 . S
Eu131 O150 2.394 . S
C132 C130 1.500 . S
C132 C133 1.377 . S
C132 C137 1.377 . S
C133 C132 1.377 . S
C133 C134 1.395 . S
C133 H156 0.931 . S
C134 C133 1.395 . S
C134 C135 1.383 . S
C134 H157 0.931 . S
C135 C134 1.383 . S
C135 C136 1.394 . S
C136 C135 1.394 . S
C136 C137 1.378 . S
C136 H158 0.931 . S
C137 C132 1.377 . S
C137 C136 1.378 . S
C137 H159 0.931 . S
C138 O148 1.259 . S
C138 O149 1.270 . S
C139 O150 1.251 . S
C139 O151 1.251 . S
O140 C120 1.257 . S
O140 Eu121 2.473 1_554 S
O141 C120 1.260 . S
O141 Eu121 2.480 1_554 S
O142 Eu121 2.430 . S
O142 C128 1.259 . S
O143 Eu121 2.670 . S
O143 C128 1.270 . S
O143 Eu131 2.355 . S
O144 Eu121 2.394 . S
O144 C129 1.251 . S
O145 C129 1.251 . S
O145 Eu131 2.374 . S
O146 C130 1.257 . S
O146 Eu131 2.473 . S
O147 C130 1.260 . S
O147 Eu131 2.480 . S
O148 Eu131 2.430 . S
O148 C138 1.259 . S
O149 Eu121 2.355 . S
O149 Eu131 2.670 . S
O149 C138 1.270 . S
O150 Eu131 2.394 . S
O150 C139 1.251 . S
O151 Eu121 2.374 . S
O151 C139 1.251 . S
H152 C123 0.931 . S
H153 C124 0.931 . S
H154 C126 0.931 . S
H155 C127 0.931 . S
H156 C133 0.931 . S
H157 C134 0.931 . S
H158 C136 0.931 . S
H159 C137 0.931 . S
C160 Eu161 2.835 1_554 S
C160 C162 1.500 . S
C160 O180 1.257 . S
C160 O181 1.260 . S
Eu161 C160 2.835 1_556 S
Eu161 O180 2.473 1_556 S
Eu161 O181 2.480 1_556 S
Eu161 O182 2.430 . S
Eu161 O183 2.670 . S
Eu161 O184 2.394 . S
Eu161 O189 2.355 . S
Eu161 O191 2.374 . S
C162 C160 1.500 . S
C162 C163 1.377 . S
C162 C167 1.377 . S
C163 C162 1.377 . S
C163 C164 1.395 . S
C163 H192 0.931 . S
C164 C163 1.395 . S
C164 C165 1.383 . S
C164 H193 0.931 . S
C165 C164 1.383 . S
C165 C166 1.394 . S
C166 C165 1.394 . S
C166 C167 1.378 . S
C166 H194 0.931 . S
C167 C162 1.377 . S
C167 C166 1.378 . S
C167 H195 0.931 . S
C168 O182 1.259 . S
C168 O183 1.270 . S
C169 O184 1.251 . S
C169 O185 1.251 . S
C170 Eu171 2.835 . S
C170 C172 1.500 . S
C170 O186 1.257 . S
C170 O187 1.260 . S
Eu171 C170 2.835 . S
Eu171 O183 2.355 . S
Eu171 O185 2.374 . S
Eu171 O186 2.473 . S
Eu171 O187 2.480 . S
Eu171 O188 2.430 . S
Eu171 O189 2.670 . S
Eu171 O190 2.394 . S
C172 C170 1.500 . S
C172 C173 1.377 . S
C172 C177 1.377 . S
C173 C172 1.377 . S
C173 C174 1.395 . S
C173 H196 0.931 . S
C174 C173 1.395 . S
C174 C175 1.383 . S
C174 H197 0.931 . S
C175 C174 1.383 . S
C175 C176 1.394 . S
C176 C175 1.394 . S
C176 C177 1.378 . S
C176 H198 0.931 . S
C177 C172 1.377 . S
C177 C176 1.378 . S
C177 H199 0.931 . S
C178 O188 1.259 . S
C178 O189 1.270 . S
C179 O190 1.251 . S
C179 O191 1.251 . S
O180 C160 1.257 . S
O180 Eu161 2.473 1_554 S
O181 C160 1.260 . S
O181 Eu161 2.480 1_554 S
O182 Eu161 2.430 . S
O182 C168 1.259 . S
O183 Eu161 2.670 . S
O183 C168 1.270 . S
O183 Eu171 2.355 . S
O184 Eu161 2.394 . S
O184 C169 1.251 . S
O185 C169 1.251 . S
O185 Eu171 2.374 . S
O186 C170 1.257 . S
O186 Eu171 2.473 . S
O187 C170 1.260 . S
O187 Eu171 2.480 . S
O188 Eu171 2.430 . S
O188 C178 1.259 . S
O189 Eu161 2.355 . S
O189 Eu171 2.670 . S
O189 C178 1.270 . S
O190 Eu171 2.394 . S
O190 C179 1.251 . S
O191 Eu161 2.374 . S
O191 C179 1.251 . S
H192 C163 0.931 . S
H193 C164 0.931 . S
H194 C166 0.931 . S
H195 C167 0.931 . S
H196 C173 0.931 . S
H197 C174 0.931 . S
H198 C176 0.931 . S
H199 C177 0.931 . S
C200 Eu201 2.835 1_556 S
C200 C202 1.500 . S
C200 O220 1.257 . S
C200 O221 1.260 . S
Eu201 C200 2.835 1_554 S
Eu201 O220 2.473 1_554 S
Eu201 O221 2.480 1_554 S
Eu201 O222 2.430 . S
Eu201 O223 2.670 . S
Eu201 O224 2.394 . S
Eu201 O229 2.355 . S
Eu201 O231 2.374 . S
C202 C200 1.500 . S
C202 C203 1.377 . S
C202 C207 1.377 . S
C203 C202 1.377 . S
C203 C204 1.395 . S
C203 H232 0.931 . S
C204 C203 1.395 . S
C204 C205 1.383 . S
C204 H233 0.931 . S
C205 C204 1.383 . S
C205 C206 1.394 . S
C206 C205 1.394 . S
C206 C207 1.378 . S
C206 H234 0.931 . S
C207 C202 1.377 . S
C207 C206 1.378 . S
C207 H235 0.931 . S
C208 O222 1.259 . S
C208 O223 1.270 . S
C209 O224 1.251 1_545 S
C209 O225 1.251 . S
C210 Eu211 2.835 . S
C210 C212 1.500 . S
C210 O226 1.257 . S
C210 O227 1.260 . S
Eu211 C210 2.835 . S
Eu211 O223 2.355 . S
Eu211 O225 2.374 1_565 S
Eu211 O226 2.473 . S
Eu211 O227 2.480 . S
Eu211 O228 2.430 . S
Eu211 O229 2.670 . S
Eu211 O230 2.394 . S
C212 C210 1.500 . S
C212 C213 1.377 . S
C212 C217 1.377 . S
C213 C212 1.377 . S
C213 C214 1.395 . S
C213 H236 0.931 . S
C214 C213 1.395 . S
C214 C215 1.383 . S
C214 H237 0.931 . S
C215 C214 1.383 . S
C215 C216 1.394 . S
C216 C215 1.394 . S
C216 C217 1.378 . S
C216 H238 0.931 . S
C217 C212 1.377 . S
C217 C216 1.378 . S
C217 H239 0.931 . S
C218 O228 1.259 . S
C218 O229 1.270 . S
C219 O230 1.251 . S
C219 O231 1.251 . S
O220 C200 1.257 . S
O220 Eu201 2.473 1_556 S
O221 C200 1.260 . S
O221 Eu201 2.480 1_556 S
O222 Eu201 2.430 . S
O222 C208 1.259 . S
O223 Eu201 2.670 . S
O223 C208 1.270 . S
O223 Eu211 2.355 . S
O224 Eu201 2.394 . S
O224 C209 1.251 1_565 S
O225 C209 1.251 . S
O225 Eu211 2.374 1_545 S
O226 C210 1.257 . S
O226 Eu211 2.473 . S
O227 C210 1.260 . S
O227 Eu211 2.480 . S
O228 Eu211 2.430 . S
O228 C218 1.259 . S
O229 Eu201 2.355 . S
O229 Eu211 2.670 . S
O229 C218 1.270 . S
O230 Eu211 2.394 . S
O230 C219 1.251 . S
O231 Eu201 2.374 . S
O231 C219 1.251 . S
H232 C203 0.931 . S
H233 C204 0.931 . S
H234 C206 0.931 . S
H235 C207 0.931 . S
H236 C213 0.931 . S
H237 C214 0.931 . S
H238 C216 0.931 . S
H239 C217 0.931 . S
C240 Eu241 2.835 . S
C240 C242 1.500 . S
C240 O260 1.257 . S
C240 O261 1.260 . S
Eu241 C240 2.835 . S
Eu241 O260 2.473 . S
Eu241 O261 2.480 . S
Eu241 O262 2.430 . S
Eu241 O263 2.670 . S
Eu241 O264 2.394 . S
Eu241 O269 2.355 . S
Eu241 O271 2.374 . S
C242 C240 1.500 . S
C242 C243 1.377 . S
C242 C247 1.377 . S
C243 C242 1.377 . S
C243 C244 1.395 . S
C243 H272 0.931 . S
C244 C243 1.395 . S
C244 C245 1.383 . S
C244 H273 0.931 . S
C245 C244 1.383 . S
C245 C246 1.394 . S
C246 C245 1.394 . S
C246 C247 1.378 . S
C246 H274 0.931 . S
C247 C242 1.377 . S
C247 C246 1.378 . S
C247 H275 0.931 . S
C248 O262 1.259 . S
C248 O263 1.270 . S
C249 O264 1.251 . S
C249 O265 1.251 . S
C250 Eu251 2.835 . S
C250 C252 1.500 . S
C250 O266 1.257 . S
C250 O267 1.260 . S
Eu251 C250 2.835 . S
Eu251 O263 2.355 . S
Eu251 O265 2.374 . S
Eu251 O266 2.473 . S
Eu251 O267 2.480 . S
Eu251 O268 2.430 . S
Eu251 O269 2.670 . S
Eu251 O270 2.394 . S
C252 C250 1.500 . S
C252 C253 1.377 1_554 S
C252 C257 1.377 1_554 S
C253 C252 1.377 1_556 S
C253 C254 1.395 . S
C253 H276 0.931 1_556 S
C254 C253 1.395 . S
C254 C255 1.383 . S
C254 H277 0.931 . S
C255 C254 1.383 . S
C255 C256 1.394 . S
C256 C255 1.394 . S
C256 C257 1.378 . S
C256 H278 0.931 . S
C257 C252 1.377 1_556 S
C257 C256 1.378 . S
C257 H279 0.931 1_556 S
C258 O268 1.259 . S
C258 O269 1.270 . S
C259 O270 1.251 . S
C259 O271 1.251 . S
O260 C240 1.257 . S
O260 Eu241 2.473 . S
O261 C240 1.260 . S
O261 Eu241 2.480 . S
O262 Eu241 2.430 . S
O262 C248 1.259 . S
O263 Eu241 2.670 . S
O263 C248 1.270 . S
O263 Eu251 2.355 . S
O264 Eu241 2.394 . S
O264 C249 1.251 . S
O265 C249 1.251 . S
O265 Eu251 2.374 . S
O266 C250 1.257 . S
O266 Eu251 2.473 . S
O267 C250 1.260 . S
O267 Eu251 2.480 . S
O268 Eu251 2.430 . S
O268 C258 1.259 . S
O269 Eu241 2.355 . S
O269 Eu251 2.670 . S
O269 C258 1.270 . S
O270 Eu251 2.394 . S
O270 C259 1.251 . S
O271 Eu241 2.374 . S
O271 C259 1.251 . S
H272 C243 0.931 . S
H273 C244 0.931 . S
H274 C246 0.931 . S
H275 C247 0.931 . S
H276 C253 0.931 1_554 S
H277 C254 0.931 . S
H278 C256 0.931 . S
H279 C257 0.931 1_554 S
C280 Eu281 2.835 . S
C280 C282 1.500 . S
C280 O300 1.257 . S
C280 O301 1.260 . S
Eu281 C280 2.835 . S
Eu281 O300 2.473 . S
Eu281 O301 2.480 . S
Eu281 O302 2.430 . S
Eu281 O303 2.670 . S
Eu281 O304 2.394 . S
Eu281 O309 2.355 . S
Eu281 O311 2.374 . S
C282 C280 1.500 . S
C282 C283 1.377 . S
C282 C287 1.377 . S
C283 C282 1.377 . S
C283 C284 1.395 . S
C283 H312 0.931 . S
C284 C283 1.395 . S
C284 C285 1.383 . S
C284 H313 0.931 . S
C285 C284 1.383 . S
C285 C286 1.394 . S
C286 C285 1.394 . S
C286 C287 1.378 . S
C286 H314 0.931 . S
C287 C282 1.377 . S
C287 C286 1.378 . S
C287 H315 0.931 . S
C288 O302 1.259 . S
C288 O303 1.270 . S
C289 O304 1.251 1_565 S
C289 O305 1.251 . S
C290 Eu291 2.835 . S
C290 C292 1.500 . S
C290 O306 1.257 . S
C290 O307 1.260 . S
Eu291 C290 2.835 . S
Eu291 O303 2.355 . S
Eu291 O305 2.374 1_545 S
Eu291 O306 2.473 . S
Eu291 O307 2.480 . S
Eu291 O308 2.430 . S
Eu291 O309 2.670 . S
Eu291 O310 2.394 . S
C292 C290 1.500 . S
C292 C293 1.377 1_556 S
C292 C297 1.377 1_556 S
C293 C292 1.377 1_554 S
C293 C294 1.395 . S
C293 H316 0.931 1_554 S
C294 C293 1.395 . S
C294 C295 1.383 . S
C294 H317 0.931 . S
C295 C294 1.383 . S
C295 C296 1.394 . S
C296 C295 1.394 . S
C296 C297 1.378 . S
C296 H318 0.931 . S
C297 C292 1.377 1_554 S
C297 C296 1.378 . S
C297 H319 0.931 1_554 S
C298 O308 1.259 . S
C298 O309 1.270 . S
C299 O310 1.251 . S
C299 O311 1.251 . S
O300 C280 1.257 . S
O300 Eu281 2.473 . S
O301 C280 1.260 . S
O301 Eu281 2.480 . S
O302 Eu281 2.430 . S
O302 C288 1.259 . S
O303 Eu281 2.670 . S
O303 C288 1.270 . S
O303 Eu291 2.355 . S
O304 Eu281 2.394 . S
O304 C289 1.251 1_545 S
O305 C289 1.251 . S
O305 Eu291 2.374 1_565 S
O306 C290 1.257 . S
O306 Eu291 2.473 . S
O307 C290 1.260 . S
O307 Eu291 2.480 . S
O308 Eu291 2.430 . S
O308 C298 1.259 . S
O309 Eu281 2.355 . S
O309 Eu291 2.670 . S
O309 C298 1.270 . S
O310 Eu291 2.394 . S
O310 C299 1.251 . S
O311 Eu281 2.374 . S
O311 C299 1.251 . S
H312 C283 0.931 . S
H313 C284 0.931 . S
H314 C286 0.931 . S
H315 C287 0.931 . S
H316 C293 0.931 1_556 S
H317 C294 0.931 . S
H318 C296 0.931 . S
H319 C297 0.931 1_556 S
C320 Eu321 2.835 . S
C320 C322 1.500 . S
C320 O340 1.257 . S
C320 O341 1.260 . S
Eu321 C320 2.835 . S
Eu321 O340 2.473 . S
Eu321 O341 2.480 . S
Eu321 O342 2.430 . S
Eu321 O343 2.670 . S
Eu321 O344 2.394 . S
Eu321 O349 2.355 . S
Eu321 O351 2.374 . S
C322 C320 1.500 . S
C322 C323 1.377 . S
C322 C327 1.377 . S
C323 C322 1.377 . S
C323 C324 1.395 . S
C323 H352 0.931 . S
C324 C323 1.395 . S
C324 C325 1.383 . S
C324 H353 0.931 . S
C325 C324 1.383 . S
C325 C326 1.394 . S
C326 C325 1.394 . S
C326 C327 1.378 . S
C326 H354 0.931 . S
C327 C322 1.377 . S
C327 C326 1.378 . S
C327 H355 0.931 . S
C328 O342 1.259 . S
C328 O343 1.270 . S
C329 O344 1.251 . S
C329 O345 1.251 . S
C330 Eu331 2.835 1_554 S
C330 C332 1.500 . S
C330 O346 1.257 . S
C330 O347 1.260 . S
Eu331 C330 2.835 1_556 S
Eu331 O343 2.355 . S
Eu331 O345 2.374 . S
Eu331 O346 2.473 1_556 S
Eu331 O347 2.480 1_556 S
Eu331 O348 2.430 . S
Eu331 O349 2.670 . S
Eu331 O350 2.394 . S
C332 C330 1.500 . S
C332 C333 1.377 . S
C332 C337 1.377 . S
C333 C332 1.377 . S
C333 C334 1.395 . S
C333 H356 0.931 . S
C334 C333 1.395 . S
C334 C335 1.383 . S
C334 H357 0.931 . S
C335 C334 1.383 . S
C335 C336 1.394 . S
C336 C335 1.394 . S
C336 C337 1.378 . S
C336 H358 0.931 . S
C337 C332 1.377 . S
C337 C336 1.378 . S
C337 H359 0.931 . S
C338 O348 1.259 . S
C338 O349 1.270 . S
C339 O350 1.251 . S
C339 O351 1.251 . S
O340 C320 1.257 . S
O340 Eu321 2.473 . S
O341 C320 1.260 . S
O341 Eu321 2.480 . S
O342 Eu321 2.430 . S
O342 C328 1.259 . S
O343 Eu321 2.670 . S
O343 C328 1.270 . S
O343 Eu331 2.355 . S
O344 Eu321 2.394 . S
O344 C329 1.251 . S
O345 C329 1.251 . S
O345 Eu331 2.374 . S
O346 C330 1.257 . S
O346 Eu331 2.473 1_554 S
O347 C330 1.260 . S
O347 Eu331 2.480 1_554 S
O348 Eu331 2.430 . S
O348 C338 1.259 . S
O349 Eu321 2.355 . S
O349 Eu331 2.670 . S
O349 C338 1.270 . S
O350 Eu331 2.394 . S
O350 C339 1.251 . S
O351 Eu321 2.374 . S
O351 C339 1.251 . S
H352 C323 0.931 . S
H353 C324 0.931 . S
H354 C326 0.931 . S
H355 C327 0.931 . S
H356 C333 0.931 . S
H357 C334 0.931 . S
H358 C336 0.931 . S
H359 C337 0.931 . S
C360 Eu361 2.835 . S
C360 C362 1.500 . S
C360 O380 1.257 . S
C360 O381 1.260 . S
Eu361 C360 2.835 . S
Eu361 O380 2.473 . S
Eu361 O381 2.480 . S
Eu361 O382 2.430 . S
Eu361 O383 2.670 . S
Eu361 O384 2.394 . S
Eu361 O389 2.355 . S
Eu361 O391 2.374 1_545 S
C362 C360 1.500 . S
C362 C363 1.377 1_556 S
C362 C367 1.377 . S
C363 C362 1.377 1_554 S
C363 C364 1.395 . S
C363 H392 0.931 1_554 S
C364 C363 1.395 . S
C364 C365 1.383 . S
C364 H393 0.931 . S
C365 C364 1.383 . S
C365 C366 1.394 . S
C366 C365 1.394 . S
C366 C367 1.378 1_554 S
C366 H394 0.931 . S
C367 C362 1.377 . S
C367 C366 1.378 1_556 S
C367 H395 0.931 . S
C368 O382 1.259 . S
C368 O383 1.270 . S
C369 O384 1.251 . S
C369 O385 1.251 . S
C370 Eu371 2.835 . S
C370 C372 1.500 . S
C370 O386 1.257 . S
C370 O387 1.260 . S
Eu371 C370 2.835 . S
Eu371 O383 2.355 . S
Eu371 O385 2.374 . S
Eu371 O386 2.473 . S
Eu371 O387 2.480 . S
Eu371 O388 2.430 . S
Eu371 O389 2.670 . S
Eu371 O390 2.394 . S
C372 C370 1.500 . S
C372 C373 1.377 . S
C372 C377 1.377 . S
C373 C372 1.377 . S
C373 C374 1.395 . S
C373 H396 0.931 . S
C374 C373 1.395 . S
C374 C375 1.383 . S
C374 H397 0.931 . S
C375 C374 1.383 . S
C375 C376 1.394 . S
C376 C375 1.394 . S
C376 C377 1.378 . S
C376 H398 0.931 . S
C377 C372 1.377 . S
C377 C376 1.378 . S
C377 H399 0.931 . S
C378 O388 1.259 . S
C378 O389 1.270 . S
C379 O390 1.239 1_565 S
C379 O391 1.252 . S
O380 C360 1.257 . S
O380 Eu361 2.473 . S
O381 C360 1.260 . S
O381 Eu361 2.480 . S
O382 Eu361 2.430 . S
O382 C368 1.259 . S
O383 Eu361 2.670 . S
O383 C368 1.270 . S
O383 Eu371 2.355 . S
O384 Eu361 2.394 . S
O384 C369 1.251 . S
O385 C369 1.251 . S
O385 Eu371 2.374 . S
O386 C370 1.257 . S
O386 Eu371 2.473 . S
O387 C370 1.260 . S
O387 Eu371 2.480 . S
O388 Eu371 2.430 . S
O388 C378 1.259 . S
O389 Eu361 2.355 . S
O389 Eu371 2.670 . S
O389 C378 1.270 . S
O390 Eu371 2.394 . S
O390 C379 1.239 1_545 S
O391 Eu361 2.374 1_565 S
O391 C379 1.252 . S
H392 C363 0.931 1_556 S
H393 C364 0.931 . S
H394 C366 0.931 . S
H395 C367 0.931 . S
H396 C373 0.931 . S
H397 C374 0.931 . S
H398 C376 0.931 . S
H399 C377 0.931 . S
C400 Eu401 2.835 . S
C400 C402 1.500 . S
C400 O420 1.257 . S
C400 O421 1.260 . S
Eu401 C400 2.835 . S
Eu401 O420 2.473 . S
Eu401 O421 2.480 . S
Eu401 O422 2.430 . S
Eu401 O423 2.670 . S
Eu401 O424 2.394 . S
Eu401 O429 2.355 . S
Eu401 O431 2.374 . S
C402 C400 1.500 . S
C402 C403 1.377 . S
C402 C407 1.377 . S
C403 C402 1.377 . S
C403 C404 1.395 . S
C403 H432 0.931 . S
C404 C403 1.395 . S
C404 C405 1.383 . S
C404 H433 0.931 . S
C405 C404 1.383 . S
C405 C406 1.394 . S
C406 C405 1.394 . S
C406 C407 1.378 . S
C406 H434 0.931 . S
C407 C402 1.377 . S
C407 C406 1.378 . S
C407 H435 0.931 . S
C408 O422 1.259 . S
C408 O423 1.270 . S
C409 O424 1.251 . S
C409 O425 1.251 . S
C410 Eu411 2.835 . S
C410 C412 1.500 . S
C410 O426 1.257 . S
C410 O427 1.260 . S
Eu411 C410 2.835 . S
Eu411 O423 2.355 . S
Eu411 O425 2.374 . S
Eu411 O426 2.473 . S
Eu411 O427 2.480 . S
Eu411 O428 2.430 . S
Eu411 O429 2.670 . S
Eu411 O430 2.394 . S
C412 C410 1.500 . S
C412 C413 1.377 1_554 S
C412 C417 1.377 1_554 S
C413 C412 1.377 1_556 S
C413 C414 1.395 . S
C413 H436 0.931 1_556 S
C414 C413 1.395 . S
C414 C415 1.383 . S
C414 H437 0.931 . S
C415 C414 1.383 . S
C415 C416 1.394 . S
C416 C415 1.394 . S
C416 C417 1.378 . S
C416 H438 0.931 . S
C417 C412 1.377 1_556 S
C417 C416 1.378 . S
C417 H439 0.931 1_556 S
C418 O428 1.259 . S
C418 O429 1.270 . S
C419 O430 1.251 . S
C419 O431 1.251 . S
O420 C400 1.257 . S
O420 Eu401 2.473 . S
O421 C400 1.260 . S
O421 Eu401 2.480 . S
O422 Eu401 2.430 . S
O422 C408 1.259 . S
O423 Eu401 2.670 . S
O423 C408 1.270 . S
O423 Eu411 2.355 . S
O424 Eu401 2.394 . S
O424 C409 1.251 . S
O425 C409 1.251 . S
O425 Eu411 2.374 . S
O426 C410 1.257 . S
O426 Eu411 2.473 . S
O427 C410 1.260 . S
O427 Eu411 2.480 . S
O428 Eu411 2.430 . S
O428 C418 1.259 . S
O429 Eu401 2.355 . S
O429 Eu411 2.670 . S
O429 C418 1.270 . S
O430 Eu411 2.394 . S
O430 C419 1.251 . S
O431 Eu401 2.374 . S
O431 C419 1.251 . S
H432 C403 0.931 . S
H433 C404 0.931 . S
H434 C406 0.931 . S
H435 C407 0.931 . S
H436 C413 0.931 1_554 S
H437 C414 0.931 . S
H438 C416 0.931 . S
H439 C417 0.931 1_554 S
C440 Eu441 2.835 . S
C440 C442 1.500 . S
C440 O460 1.257 . S
C440 O461 1.260 . S
Eu441 C440 2.835 . S
Eu441 O460 2.473 . S
Eu441 O461 2.480 . S
Eu441 O462 2.430 . S
Eu441 O463 2.670 . S
Eu441 O464 2.394 . S
Eu441 O469 2.355 . S
Eu441 O471 2.374 1_565 S
C442 C440 1.500 . S
C442 C443 1.377 . S
C442 C447 1.377 . S
C443 C442 1.377 . S
C443 C444 1.395 . S
C443 H472 0.931 . S
C444 C443 1.395 . S
C444 C445 1.383 . S
C444 H473 0.931 . S
C445 C444 1.383 . S
C445 C446 1.394 . S
C446 C445 1.394 . S
C446 C447 1.378 . S
C446 H474 0.931 . S
C447 C442 1.377 . S
C447 C446 1.378 . S
C447 H475 0.931 . S
C448 O462 1.259 . S
C448 O463 1.270 . S
C449 O464 1.251 . S
C449 O465 1.251 . S
C450 Eu451 2.835 1_556 S
C450 C452 1.500 . S
C450 O466 1.257 . S
C450 O467 1.260 . S
Eu451 C450 2.835 1_554 S
Eu451 O463 2.355 . S
Eu451 O465 2.374 . S
Eu451 O466 2.473 1_554 S
Eu451 O467 2.480 1_554 S
Eu451 O468 2.430 . S
Eu451 O469 2.670 . S
Eu451 O470 2.394 . S
C452 C450 1.500 . S
C452 C453 1.377 . S
C452 C457 1.377 . S
C453 C452 1.377 . S
C453 C454 1.395 . S
C453 H476 0.931 . S
C454 C453 1.395 . S
C454 C455 1.383 . S
C454 H477 0.931 . S
C455 C454 1.383 . S
C455 C456 1.394 . S
C456 C455 1.394 . S
C456 C457 1.378 . S
C456 H478 0.931 . S
C457 C452 1.377 . S
C457 C456 1.378 . S
C457 H479 0.931 . S
C458 O468 1.259 . S
C458 O469 1.270 . S
C459 O470 1.251 . S
C459 O471 1.251 1_565 S
O460 C440 1.257 . S
O460 Eu441 2.473 . S
O461 C440 1.260 . S
O461 Eu441 2.480 . S
O462 Eu441 2.430 . S
O462 C448 1.259 . S
O463 Eu441 2.670 . S
O463 C448 1.270 . S
O463 Eu451 2.355 . S
O464 Eu441 2.394 . S
O464 C449 1.251 . S
O465 C449 1.251 . S
O465 Eu451 2.374 . S
O466 C450 1.257 . S
O466 Eu451 2.473 1_556 S
O467 C450 1.260 . S
O467 Eu451 2.480 1_556 S
O468 Eu451 2.430 . S
O468 C458 1.259 . S
O469 Eu441 2.355 . S
O469 Eu451 2.670 . S
O469 C458 1.270 . S
O470 Eu451 2.394 . S
O470 C459 1.251 . S
O471 Eu441 2.374 1_545 S
O471 C459 1.251 1_545 S
H472 C443 0.931 . S
H473 C444 0.931 . S
H474 C446 0.931 . S
H475 C447 0.931 . S
H476 C453 0.931 . S
H477 C454 0.931 . S
H478 C456 0.931 . S
H479 C457 0.931 . S
C480 Eu481 2.835 . S
C480 C482 1.500 . S
C480 O500 1.257 . S
C480 O501 1.260 . S
Eu481 C480 2.835 . S
Eu481 O500 2.473 . S
Eu481 O501 2.480 . S
Eu481 O502 2.430 . S
Eu481 O503 2.670 . S
Eu481 O504 2.394 . S
Eu481 O509 2.355 . S
Eu481 O511 2.374 . S
C482 C480 1.500 . S
C482 C483 1.377 . S
C482 C487 1.377 . S
C483 C482 1.377 . S
C483 C484 1.395 . S
C483 H512 0.931 . S
C484 C483 1.395 . S
C484 C485 1.383 . S
C484 H513 0.931 . S
C485 C484 1.383 . S
C485 C486 1.394 . S
C486 C485 1.394 . S
C486 C487 1.378 . S
C486 H514 0.931 . S
C487 C482 1.377 . S
C487 C486 1.378 . S
C487 H515 0.931 . S
C488 O502 1.259 . S
C488 O503 1.270 . S
C489 O504 1.251 . S
C489 O505 1.251 . S
C490 Eu491 2.835 1_556 S
C490 C492 1.500 . S
C490 O506 1.257 . S
C490 O507 1.260 . S
Eu491 C490 2.835 1_554 S
Eu491 O503 2.355 . S
Eu491 O505 2.374 . S
Eu491 O506 2.473 1_554 S
Eu491 O507 2.480 1_554 S
Eu491 O508 2.430 . S
Eu491 O509 2.670 . S
Eu491 O510 2.394 . S
C492 C490 1.500 . S
C492 C493 1.377 . S
C492 C497 1.377 . S
C493 C492 1.377 . S
C493 C494 1.395 . S
C493 H516 0.931 . S
C494 C493 1.395 . S
C494 C495 1.383 . S
C494 H517 0.931 . S
C495 C494 1.383 . S
C495 C496 1.394 . S
C496 C495 1.394 . S
C496 C497 1.378 . S
C496 H518 0.931 . S
C497 C492 1.377 . S
C497 C496 1.378 . S
C497 H519 0.931 . S
C498 O508 1.259 . S
C498 O509 1.270 . S
C499 O510 1.251 . S
C499 O511 1.251 . S
O500 C480 1.257 . S
O500 Eu481 2.473 . S
O501 C480 1.260 . S
O501 Eu481 2.480 . S
O502 Eu481 2.430 . S
O502 C488 1.259 . S
O503 Eu481 2.670 . S
O503 C488 1.270 . S
O503 Eu491 2.355 . S
O504 Eu481 2.394 . S
O504 C489 1.251 . S
O505 C489 1.251 . S
O505 Eu491 2.374 . S
O506 C490 1.257 . S
O506 Eu491 2.473 1_556 S
O507 C490 1.260 . S
O507 Eu491 2.480 1_556 S
O508 Eu491 2.430 . S
O508 C498 1.259 . S
O509 Eu481 2.355 . S
O509 Eu491 2.670 . S
O509 C498 1.270 . S
O510 Eu491 2.394 . S
O510 C499 1.251 . S
O511 Eu481 2.374 . S
O511 C499 1.251 . S
H512 C483 0.931 . S
H513 C484 0.931 . S
H514 C486 0.931 . S
H515 C487 0.931 . S
H516 C493 0.931 . S
H517 C494 0.931 . S
H518 C496 0.931 . S
H519 C497 0.931 . S
C520 Eu521 2.835 1_554 S
C520 C522 1.500 . S
C520 O540 1.257 . S
C520 O541 1.260 . S
Eu521 C520 2.835 1_556 S
Eu521 O540 2.473 1_556 S
Eu521 O541 2.480 1_556 S
Eu521 O542 2.430 . S
Eu521 O543 2.670 . S
Eu521 O544 2.394 . S
Eu521 O549 2.355 . S
Eu521 O551 2.374 . S
C522 C520 1.500 . S
C522 C523 1.377 . S
C522 C527 1.377 . S
C523 C522 1.377 . S
C523 C524 1.395 . S
C523 H552 0.931 . S
C524 C523 1.395 . S
C524 C525 1.383 . S
C524 H553 0.931 . S
C525 C524 1.383 . S
C525 C526 1.394 . S
C526 C525 1.394 . S
C526 C527 1.378 . S
C526 H554 0.931 . S
C527 C522 1.377 . S
C527 C526 1.378 . S
C527 H555 0.931 . S
C528 O542 1.259 . S
C528 O543 1.270 . S
C529 O544 1.251 . S
C529 O545 1.251 . S
C530 Eu531 2.835 . S
C530 C532 1.500 . S
C530 O546 1.257 . S
C530 O547 1.260 . S
Eu531 C530 2.835 . S
Eu531 O543 2.355 . S
Eu531 O545 2.374 . S
Eu531 O546 2.473 . S
Eu531 O547 2.480 . S
Eu531 O548 2.430 1_545 S
Eu531 O549 2.670 . S
Eu531 O550 2.394 . S
C532 C530 1.500 . S
C532 C533 1.377 . S
C532 C537 1.377 . S
C533 C532 1.377 . S
C533 C534 1.395 . S
C533 H556 0.931 1_545 S
C534 C533 1.395 . S
C534 C535 1.383 . S
C534 H557 0.931 1_545 S
C535 C534 1.383 . S
C535 C536 1.394 . S
C536 C535 1.394 . S
C536 C537 1.378 . S
C536 H558 0.931 . S
C537 C532 1.377 . S
C537 C536 1.378 . S
C537 H559 0.931 . S
C538 O548 1.259 . S
C538 O549 1.270 1_565 S
C539 O550 1.251 . S
C539 O551 1.251 . S
O540 C520 1.257 . S
O540 Eu521 2.473 1_554 S
O541 C520 1.260 . S
O541 Eu521 2.480 1_554 S
O542 Eu521 2.430 . S
O542 C528 1.259 . S
O543 Eu521 2.670 . S
O543 C528 1.270 . S
O543 Eu531 2.355 . S
O544 Eu521 2.394 . S
O544 C529 1.251 . S
O545 C529 1.251 . S
O545 Eu531 2.374 . S
O546 C530 1.257 . S
O546 Eu531 2.473 . S
O547 C530 1.260 . S
O547 Eu531 2.480 . S
O548 Eu531 2.430 1_565 S
O548 C538 1.259 . S
O549 Eu521 2.355 . S
O549 Eu531 2.670 . S
O549 C538 1.270 1_545 S
O550 Eu531 2.394 . S
O550 C539 1.251 . S
O551 Eu521 2.374 . S
O551 C539 1.251 . S
H552 C523 0.931 . S
H553 C524 0.931 . S
H554 C526 0.931 . S
H555 C527 0.931 . S
H556 C533 0.931 1_565 S
H557 C534 0.931 1_565 S
H558 C536 0.931 . S
H559 C537 0.931 . S
C560 Eu561 2.835 . S
C560 C562 1.500 . S
C560 O580 1.257 . S
C560 O581 1.260 . S
Eu561 C560 2.835 . S
Eu561 O580 2.473 . S
Eu561 O581 2.480 . S
Eu561 O582 2.430 . S
Eu561 O583 2.670 . S
Eu561 O584 2.394 . S
Eu561 O589 2.355 . S
Eu561 O591 2.374 . S
C562 C560 1.500 . S
C562 C563 1.377 1_556 S
C562 C567 1.384 . S
C563 C562 1.377 1_554 S
C563 C564 1.395 . S
C563 H592 0.931 1_554 S
C564 C563 1.395 . S
C564 C565 1.383 . S
C564 H593 0.931 . S
C565 C564 1.383 . S
C565 C566 1.394 . S
C566 C565 1.394 . S
C566 C567 1.363 1_554 S
C566 H594 0.931 . S
C567 C562 1.384 . S
C567 C566 1.363 1_556 S
C567 H595 0.939 . S
C568 O582 1.259 . S
C568 O583 1.270 . S
C569 O584 1.251 . S
C569 O585 1.251 . S
C570 Eu571 2.835 . S
C570 C572 1.500 . S
C570 O586 1.257 . S
C570 O587 1.260 . S
Eu571 C570 2.835 . S
Eu571 O583 2.355 . S
Eu571 O585 2.374 . S
Eu571 O586 2.473 . S
Eu571 O587 2.480 . S
Eu571 O588 2.430 . S
Eu571 O589 2.670 . S
Eu571 O590 2.394 . S
C572 C570 1.500 . S
C572 C573 1.377 . S
C572 C577 1.377 . S
C573 C572 1.377 . S
C573 C574 1.395 . S
C573 H596 0.931 . S
C574 C573 1.395 . S
C574 C575 1.383 . S
C574 H597 0.931 . S
C575 C574 1.383 . S
C575 C576 1.394 . S
C576 C575 1.394 . S
C576 C577 1.378 . S
C576 H598 0.931 . S
C577 C572 1.377 . S
C577 C576 1.378 . S
C577 H599 0.931 . S
C578 O588 1.259 . S
C578 O589 1.270 . S
C579 O590 1.251 . S
C579 O591 1.251 . S
O580 C560 1.257 . S
O580 Eu561 2.473 . S
O581 C560 1.260 . S
O581 Eu561 2.480 . S
O582 Eu561 2.430 . S
O582 C568 1.259 . S
O583 Eu561 2.670 . S
O583 C568 1.270 . S
O583 Eu571 2.355 . S
O584 Eu561 2.394 . S
O584 C569 1.251 . S
O585 C569 1.251 . S
O585 Eu571 2.374 . S
O586 C570 1.257 . S
O586 Eu571 2.473 . S
O587 C570 1.260 . S
O587 Eu571 2.480 . S
O588 Eu571 2.430 . S
O588 C578 1.259 . S
O589 Eu561 2.355 . S
O589 Eu571 2.670 . S
O589 C578 1.270 . S
O590 Eu571 2.394 . S
O590 C579 1.251 . S
O591 Eu561 2.374 . S
O591 C579 1.251 . S
H592 C563 0.931 1_556 S
H593 C564 0.931 . S
H594 C566 0.931 . S
H595 C567 0.939 . S
H596 C573 0.931 . S
H597 C574 0.931 . S
H598 C576 0.931 . S
H599 C577 0.931 . S
C600 Eu601 2.835 . S
C600 C602 1.500 . S
C600 O620 1.257 . S
C600 O621 1.260 . S
Eu601 C600 2.835 . S
Eu601 O620 2.473 . S
Eu601 O621 2.480 . S
Eu601 O622 2.430 . S
Eu601 O623 2.670 . S
Eu601 O624 2.394 . S
Eu601 O629 2.355 . S
Eu601 O631 2.374 1_565 S
C602 C600 1.500 . S
C602 C603 1.377 1_554 S
C602 C607 1.377 1_554 S
C603 C602 1.377 1_556 S
C603 C604 1.395 . S
C603 H632 0.926 1_556 S
C604 C603 1.395 . S
C604 C605 1.383 . S
C604 H633 0.931 . S
C605 C604 1.383 . S
C605 C606 1.394 . S
C606 C605 1.394 . S
C606 C607 1.378 . S
C606 H634 0.931 . S
C607 C602 1.377 1_556 S
C607 C606 1.378 . S
C607 H635 0.931 1_556 S
C608 O622 1.259 . S
C608 O623 1.270 . S
C609 O624 1.251 . S
C609 O625 1.251 . S
C610 Eu611 2.835 . S
C610 C612 1.500 . S
C610 O626 1.257 . S
C610 O627 1.260 . S
Eu611 C610 2.835 . S
Eu611 O623 2.355 . S
Eu611 O625 2.374 . S
Eu611 O626 2.473 . S
Eu611 O627 2.480 . S
Eu611 O628 2.430 . S
Eu611 O629 2.670 . S
Eu611 O630 2.394 . S
C612 C610 1.500 . S
C612 C613 1.377 . S
C612 C617 1.377 . S
C613 C612 1.377 . S
C613 C614 1.395 . S
C613 H636 0.931 . S
C614 C613 1.395 . S
C614 C615 1.383 . S
C614 H637 0.931 . S
C615 C614 1.383 . S
C615 C616 1.394 . S
C616 C615 1.394 . S
C616 C617 1.378 . S
C616 H638 0.931 . S
C617 C612 1.377 . S
C617 C616 1.378 . S
C617 H639 0.931 . S
C618 O628 1.259 . S
C618 O629 1.270 . S
C619 O630 1.251 1_545 S
C619 O631 1.251 . S
O620 C600 1.257 . S
O620 Eu601 2.473 . S
O621 C600 1.260 . S
O621 Eu601 2.480 . S
O622 Eu601 2.430 . S
O622 C608 1.259 . S
O623 Eu601 2.670 . S
O623 C608 1.270 . S
O623 Eu611 2.355 . S
O624 Eu601 2.394 . S
O624 C609 1.251 . S
O625 C609 1.251 . S
O625 Eu611 2.374 . S
O626 C610 1.257 . S
O626 Eu611 2.473 . S
O627 C610 1.260 . S
O627 Eu611 2.480 . S
O628 Eu611 2.430 . S
O628 C618 1.259 . S
O629 Eu601 2.355 . S
O629 Eu611 2.670 . S
O629 C618 1.270 . S
O630 Eu611 2.394 . S
O630 C619 1.251 1_565 S
O631 Eu601 2.374 1_545 S
O631 C619 1.251 . S
H632 C603 0.926 1_554 S
H633 C604 0.931 . S
H634 C606 0.931 . S
H635 C607 0.931 1_554 S
H636 C613 0.931 . S
H637 C614 0.931 . S
H638 C616 0.931 . S
H639 C617 0.931 . S
C5 C15 1.909 . S
C55 C45 1.791 . S
C85 C95 2.901 . S
C135 C125 2.036 . S
C165 C175 1.791 . S
C205 C215 2.901 . S
C245 C255 2.036 . S
C295 C285 1.909 . S
C335 C325 1.853 . S
C375 C365 1.777 . S
C415 C405 3.139 . S
C445 C455 2.038 . S
C495 C485 1.777 . S
C535 C525 3.139 . S
C575 C565 2.038 . S
C605 C615 1.853 . S
C19 C449 2.366 . S
C58 C608 1.540 . S
C99 C369 2.368 . S
C138 C529 1.651 1_655 S
C179 C528 2.155 . S
C448 C218 1.507 1_455 S
C259 C609 2.285 . S
C298 C368 1.443 . S
C139 C329 2.285 . S
C59 C408 2.155 . S
C489 C219 2.368 . S
C299 C569 2.366 . S
C328 C178 1.540 1_655 S
C258 C409 1.651 . S
C98 C568 1.507 . S
C18 C488 1.443 1_455 S
C9 C169 3.505 1_554 S
C48 C208 3.336 . S
C89 C249 3.056 . S
C128 C288 2.909 . S
C499 C339 3.514 1_554 S
C539 C378 2.649 . S
C418 C579 3.821 . S
C618 C458 2.942 . S
C49 C289 3.505 . S
C168 C88 3.336 . S
C209 C129 3.056 1_554 S
C8 C248 2.909 . S
C619 C379 3.514 1_545 S
C498 C419 2.649 . S
C538 C459 3.821 1_556 S
C578 C338 2.942 . S
