# Generated by pormake.
# Topology ukk, (4)-cn, num edge types: 1
# Building blocks:
#     Node 0, Type 0, BuildingBlock: GALJAG_clean_sbu_0, # of connection points: 4
#     Node 1, Type 0, BuildingBlock: GALJAG_clean_sbu_0, # of connection points: 4
#     Node 2, Type 0, BuildingBlock: GALJAG_clean_sbu_0, # of connection points: 4
#     Node 3, Type 0, BuildingBlock: GALJAG_clean_sbu_0, # of connection points: 4
#     Node 4, Type 0, BuildingBlock: GALJAG_clean_sbu_0, # of connection points: 4
#     Node 5, Type 0, BuildingBlock: GALJAG_clean_sbu_0, # of connection points: 4
#     Node 6, Type 0, BuildingBlock: GALJAG_clean_sbu_0, # of connection points: 4
#     Node 7, Type 0, BuildingBlock: GALJAG_clean_sbu_0, # of connection points: 4
#     Node 8, Type 0, BuildingBlock: GALJAG_clean_sbu_0, # of connection points: 4
#     Node 9, Type 0, BuildingBlock: GALJAG_clean_sbu_0, # of connection points: 4
#     Node 10, Type 0, BuildingBlock: GALJAG_clean_sbu_0, # of connection points: 4
#     Node 11, Type 0, BuildingBlock: GALJAG_clean_sbu_0, # of connection points: 4
#     Node 12, Type 0, BuildingBlock: GALJAG_clean_sbu_0, # of connection points: 4
#     Node 13, Type 0, BuildingBlock: GALJAG_clean_sbu_0, # of connection points: 4
#     Node 14, Type 0, BuildingBlock: GALJAG_clean_sbu_0, # of connection points: 4
#     Node 15, Type 0, BuildingBlock: GALJAG_clean_sbu_0, # of connection points: 4
#     Edge 16, Type (0, 0), BuildingBlock: XIVTED_clean_linker_0, # of connection points: 2
#     Edge 17, Type (0, 0), BuildingBlock: XIVTED_clean_linker_0, # of connection points: 2
#     Edge 18, Type (0, 0), BuildingBlock: XIVTED_clean_linker_0, # of connection points: 2
#     Edge 19, Type (0, 0), BuildingBlock: XIVTED_clean_linker_0, # of connection points: 2
#     Edge 20, Type (0, 0), BuildingBlock: XIVTED_clean_linker_0, # of connection points: 2
#     Edge 21, Type (0, 0), BuildingBlock: XIVTED_clean_linker_0, # of connection points: 2
#     Edge 22, Type (0, 0), BuildingBlock: XIVTED_clean_linker_0, # of connection points: 2
#     Edge 23, Type (0, 0), BuildingBlock: XIVTED_clean_linker_0, # of connection points: 2
#     Edge 24, Type (0, 0), BuildingBlock: XIVTED_clean_linker_0, # of connection points: 2
#     Edge 25, Type (0, 0), BuildingBlock: XIVTED_clean_linker_0, # of connection points: 2
#     Edge 26, Type (0, 0), BuildingBlock: XIVTED_clean_linker_0, # of connection points: 2
#     Edge 27, Type (0, 0), BuildingBlock: XIVTED_clean_linker_0, # of connection points: 2
#     Edge 28, Type (0, 0), BuildingBlock: XIVTED_clean_linker_0, # of connection points: 2
#     Edge 29, Type (0, 0), BuildingBlock: XIVTED_clean_linker_0, # of connection points: 2
#     Edge 30, Type (0, 0), BuildingBlock: XIVTED_clean_linker_0, # of connection points: 2
#     Edge 31, Type (0, 0), BuildingBlock: XIVTED_clean_linker_0, # of connection points: 2
#     Edge 32, Type (0, 0), BuildingBlock: XIVTED_clean_linker_0, # of connection points: 2
#     Edge 33, Type (0, 0), BuildingBlock: XIVTED_clean_linker_0, # of connection points: 2
#     Edge 34, Type (0, 0), BuildingBlock: XIVTED_clean_linker_0, # of connection points: 2
#     Edge 35, Type (0, 0), BuildingBlock: XIVTED_clean_linker_0, # of connection points: 2
#     Edge 36, Type (0, 0), BuildingBlock: XIVTED_clean_linker_0, # of connection points: 2
#     Edge 37, Type (0, 0), BuildingBlock: XIVTED_clean_linker_0, # of connection points: 2
#     Edge 38, Type (0, 0), BuildingBlock: XIVTED_clean_linker_0, # of connection points: 2
#     Edge 39, Type (0, 0), BuildingBlock: XIVTED_clean_linker_0, # of connection points: 2
#     Edge 40, Type (0, 0), BuildingBlock: XIVTED_clean_linker_0, # of connection points: 2
#     Edge 41, Type (0, 0), BuildingBlock: XIVTED_clean_linker_0, # of connection points: 2
#     Edge 42, Type (0, 0), BuildingBlock: XIVTED_clean_linker_0, # of connection points: 2
#     Edge 43, Type (0, 0), BuildingBlock: XIVTED_clean_linker_0, # of connection points: 2
#     Edge 44, Type (0, 0), BuildingBlock: XIVTED_clean_linker_0, # of connection points: 2
#     Edge 45, Type (0, 0), BuildingBlock: XIVTED_clean_linker_0, # of connection points: 2
#     Edge 46, Type (0, 0), BuildingBlock: XIVTED_clean_linker_0, # of connection points: 2
#     Edge 47, Type (0, 0), BuildingBlock: XIVTED_clean_linker_0, # of connection points: 2
# Relax obj value: 0.105
# Max RMSD: 0.246
# Mean RMSD: 0.246
data_MOF--net-ukk--node1-GALJAG_clean_sbu_0--edge1-XIVTED_clean_linker_0
_symmetry_space_group_name_H-M    P1
_symmetry_Int_Tables_number       1
_symmetry_cell_setting            triclinic
loop_
_symmetry_equiv_pos_as_xyz
'x, y, z'
_cell_length_a     53.568174
_cell_length_b     53.634865
_cell_length_c     18.513174
_cell_angle_alpha  89.96406
_cell_angle_beta   90.082895
_cell_angle_gamma 90.000426
loop_
_atom_site_label
_atom_site_type_symbol
_atom_site_fract_x
_atom_site_fract_y
_atom_site_fract_z
_atom_type_partial_charge
In0 In 0.35004 0.10561 0.12738 0.0
O1 O 0.33973 0.08861 0.01748 0.0
O2 O 0.31189 0.09106 0.09962 0.0
C3 C 0.39886 0.1155 0.13917 0.0
C4 C 0.33537 0.15325 0.11587 0.0
C5 C 0.35107 0.06988 0.22834 0.0
O6 O 0.39022 0.10472 0.08336 0.0
O7 O 0.38283 0.12145 0.18607 0.0
O8 O 0.3369 0.08869 0.23461 0.0
O9 O 0.36396 0.06908 0.17132 0.0
C10 C 0.31721 0.08488 0.03571 0.0
O11 O 0.33239 0.14098 0.17379 0.0
O12 O 0.34529 0.14129 0.06469 0.0
In13 In 0.11211 0.63953 0.8801 0.0
O14 O 0.09641 0.65324 0.98818 0.0
O15 O 0.09357 0.67682 0.89575 0.0
C16 C 0.12933 0.59307 0.89985 0.0
C17 C 0.15772 0.66023 0.87595 0.0
C18 C 0.07645 0.62958 0.78173 0.0
O19 O 0.11299 0.60221 0.94174 0.0
O20 O 0.13644 0.60727 0.84957 0.0
O21 O 0.09325 0.6457 0.76996 0.0
O22 O 0.07785 0.61879 0.84215 0.0
C23 C 0.0897 0.67411 0.96249 0.0
O24 O 0.1452 0.65634 0.81881 0.0
O25 O 0.14681 0.65436 0.93393 0.0
In26 In 0.64551 0.89119 0.14266 0.0
O27 O 0.65842 0.85563 0.20149 0.0
O28 O 0.64317 0.85279 0.09537 0.0
C29 C 0.65555 0.93065 0.226 0.0
C30 C 0.68116 0.90077 0.04578 0.0
C31 C 0.59547 0.89426 0.14479 0.0
O32 O 0.65473 0.90885 0.25246 0.0
O33 O 0.65133 0.93218 0.15903 0.0
O34 O 0.60737 0.89462 0.0858 0.0
O35 O 0.60874 0.8924 0.20079 0.0
C36 C 0.65279 0.84172 0.1486 0.0
O37 O 0.6582 0.9032 0.03039 0.0
O38 O 0.68578 0.89367 0.10953 0.0
In39 In 0.88731 0.36057 0.89214 0.0
O40 O 0.85413 0.34615 0.8263 0.0
O41 O 0.85162 0.34666 0.94151 0.0
C42 C 0.92417 0.37267 0.80007 0.0
C43 C 0.90807 0.32323 0.9682 0.0
C44 C 0.87319 0.40741 0.92294 0.0
O45 O 0.90667 0.35822 0.7808 0.0
O46 O 0.92285 0.38035 0.86425 0.0
O47 O 0.88852 0.39569 0.96262 0.0
O48 O 0.86494 0.39533 0.86951 0.0
C49 C 0.84105 0.34191 0.88208 0.0
O50 O 0.90257 0.34393 0.99696 0.0
O51 O 0.90365 0.32181 0.90135 0.0
In52 In 0.35657 0.38477 0.10745 0.0
O53 O 0.34075 0.34902 0.15304 0.0
O54 O 0.34677 0.35022 0.03963 0.0
C55 C 0.35946 0.41745 0.99609 0.0
C56 C 0.32464 0.40513 0.20345 0.0
C57 C 0.40489 0.3779 0.14242 0.0
O58 O 0.37713 0.41338 0.03929 0.0
O59 O 0.34019 0.40449 0.0073 0.0
O60 O 0.39262 0.36263 0.10454 0.0
O61 O 0.3926 0.39656 0.16447 0.0
C62 C 0.3396 0.33767 0.09363 0.0
O63 O 0.3202 0.40403 0.1367 0.0
O64 O 0.34582 0.39692 0.22183 0.0
In65 In 0.38838 0.63764 0.8753 0.0
O66 O 0.35405 0.65203 0.93621 0.0
O67 O 0.3532 0.65134 0.82106 0.0
C68 C 0.42306 0.63107 0.97946 0.0
C69 C 0.40978 0.6724 0.7905 0.0
C70 C 0.37604 0.58986 0.84986 0.0
O71 O 0.40576 0.64697 0.98588 0.0
O72 O 0.42254 0.61865 0.92175 0.0
O73 O 0.39268 0.60089 0.81324 0.0
O74 O 0.3658 0.60298 0.898 0.0
C75 C 0.34177 0.65622 0.87889 0.0
O76 O 0.4037 0.65116 0.7664 0.0
O77 O 0.40583 0.67547 0.857 0.0
In78 In 0.64194 0.60868 0.1336 0.0
O79 O 0.65377 0.64454 0.07676 0.0
O80 O 0.65308 0.64401 0.19194 0.0
C81 C 0.63778 0.57731 0.0206 0.0
C82 C 0.67741 0.58722 0.21665 0.0
C83 C 0.59306 0.61641 0.15877 0.0
O84 O 0.65384 0.59458 0.0213 0.0
O85 O 0.62416 0.57614 0.07585 0.0
O86 O 0.60494 0.5989 0.18936 0.0
O87 O 0.60596 0.63002 0.11763 0.0
C88 C 0.65701 0.65642 0.13513 0.0
O89 O 0.65598 0.59239 0.24115 0.0
O90 O 0.68038 0.59218 0.15071 0.0
In91 In 0.61013 0.36192 0.87699 0.0
O92 O 0.64441 0.34825 0.93951 0.0
O93 O 0.64559 0.34827 0.82443 0.0
C94 C 0.5762 0.3677 0.98322 0.0
C95 C 0.58883 0.32767 0.79033 0.0
C96 C 0.62118 0.40982 0.84877 0.0
O97 O 0.59313 0.35133 0.98693 0.0
O98 O 0.57676 0.38103 0.92723 0.0
O99 O 0.60401 0.39843 0.81526 0.0
O100 O 0.63267 0.39698 0.89532 0.0
C101 C 0.65689 0.34384 0.88286 0.0
O102 O 0.59532 0.34888 0.76718 0.0
O103 O 0.59232 0.32432 0.85694 0.0
In104 In 0.85788 0.60401 0.62818 0.0
O105 O 0.82003 0.58672 0.60673 0.0
O106 O 0.84498 0.58893 0.51794 0.0
C107 C 0.90688 0.61028 0.60068 0.0
C108 C 0.84369 0.65212 0.62908 0.0
C109 C 0.8598 0.57391 0.74507 0.0
O110 O 0.89392 0.62581 0.6353 0.0
O111 O 0.89503 0.59143 0.57781 0.0
O112 O 0.87547 0.57316 0.69452 0.0
O113 O 0.84297 0.59022 0.73782 0.0
C114 C 0.82352 0.58292 0.5404 0.0
O115 O 0.84554 0.63943 0.57198 0.0
O116 O 0.84838 0.6403 0.68674 0.0
In117 In 0.61603 0.14785 0.3802 0.0
O118 O 0.64688 0.16614 0.31296 0.0
O119 O 0.65215 0.16144 0.42686 0.0
C120 C 0.57441 0.13705 0.30605 0.0
C121 C 0.59672 0.1831 0.46543 0.0
C122 C 0.63407 0.10142 0.38769 0.0
O123 O 0.59154 0.15021 0.27784 0.0
O124 O 0.57875 0.12968 0.36961 0.0
O125 O 0.62219 0.11085 0.44026 0.0
O126 O 0.63645 0.11534 0.33309 0.0
C127 C 0.66112 0.16875 0.36741 0.0
O128 O 0.6032 0.16197 0.49011 0.0
O129 O 0.59979 0.18601 0.39824 0.0
In130 In 0.14523 0.38872 0.63536 0.0
O131 O 0.15692 0.35179 0.6886 0.0
O132 O 0.14149 0.35116 0.58246 0.0
C133 C 0.15404 0.42528 0.73042 0.0
C134 C 0.18297 0.40017 0.54648 0.0
C135 C 0.09534 0.39376 0.63119 0.0
O136 O 0.15168 0.40285 0.75096 0.0
O137 O 0.1522 0.42885 0.6632 0.0
O138 O 0.10812 0.3943 0.57376 0.0
O139 O 0.10763 0.39068 0.68853 0.0
C140 C 0.15073 0.33891 0.63411 0.0
O141 O 0.16041 0.40405 0.52881 0.0
O142 O 0.18612 0.39054 0.60814 0.0
In143 In 0.38637 0.85771 0.40022 0.0
O144 O 0.35517 0.84114 0.3309 0.0
O145 O 0.35067 0.84236 0.4456 0.0
C146 C 0.4239 0.87062 0.31166 0.0
C147 C 0.40728 0.82218 0.48291 0.0
C148 C 0.36959 0.90418 0.42379 0.0
O149 O 0.40737 0.85519 0.29157 0.0
O150 O 0.42138 0.87875 0.37508 0.0
O151 O 0.38523 0.89396 0.46585 0.0
O152 O 0.36229 0.89079 0.37188 0.0
C153 C 0.34139 0.83665 0.38508 0.0
O154 O 0.40008 0.84279 0.50894 0.0
O155 O 0.40457 0.82003 0.41546 0.0
In156 In 0.85868 0.88739 0.60331 0.0
O157 O 0.84487 0.90176 0.71208 0.0
O158 O 0.81813 0.88862 0.63518 0.0
C159 C 0.90836 0.89391 0.6088 0.0
C160 C 0.85365 0.83749 0.60152 0.0
C161 C 0.84852 0.92393 0.50896 0.0
O162 O 0.89547 0.89317 0.6659 0.0
O163 O 0.8963 0.89132 0.55087 0.0
O164 O 0.85236 0.90178 0.48785 0.0
O165 O 0.84955 0.92721 0.5764 0.0
C166 C 0.82214 0.89772 0.69705 0.0
O167 O 0.84641 0.85079 0.54898 0.0
O168 O 0.86381 0.84935 0.65234 0.0
In169 In 0.88885 0.13884 0.35403 0.0
O170 O 0.90393 0.15102 0.2436 0.0
O171 O 0.90871 0.17521 0.3338 0.0
C172 C 0.87122 0.09234 0.33766 0.0
C173 C 0.84403 0.16123 0.35877 0.0
C174 C 0.92426 0.12948 0.45376 0.0
O175 O 0.88778 0.10098 0.29566 0.0
O176 O 0.86393 0.1071 0.38631 0.0
O177 O 0.90765 0.1459 0.46375 0.0
O178 O 0.92282 0.11807 0.39435 0.0
C179 C 0.91166 0.17184 0.26696 0.0
O180 O 0.85692 0.15769 0.41535 0.0
O181 O 0.85405 0.15387 0.3009 0.0
In182 In 0.14265 0.10525 0.60466 0.0
O183 O 0.15516 0.08901 0.7137 0.0
O184 O 0.18084 0.08863 0.6264 0.0
C185 C 0.09382 0.11184 0.63346 0.0
C186 C 0.15695 0.15334 0.60499 0.0
C187 C 0.14001 0.07503 0.48809 0.0
O188 O 0.10663 0.12708 0.59722 0.0
O189 O 0.10574 0.09314 0.65716 0.0
O190 O 0.12441 0.07468 0.53882 0.0
O191 O 0.15718 0.09101 0.49494 0.0
C192 C 0.17692 0.0838 0.69198 0.0
O193 O 0.15484 0.14051 0.6618 0.0
O194 O 0.15243 0.14168 0.54697 0.0
In195 In 0.11346 0.86145 0.33947 0.0
O196 O 0.14568 0.84572 0.40642 0.0
O197 O 0.14893 0.84631 0.29141 0.0
C198 C 0.0779 0.87407 0.43502 0.0
C199 C 0.09157 0.82495 0.26246 0.0
C200 C 0.12818 0.90815 0.30811 0.0
O201 O 0.09517 0.85904 0.45208 0.0
O202 O 0.07872 0.88205 0.37106 0.0
O203 O 0.11185 0.89698 0.27059 0.0
O204 O 0.13725 0.89553 0.35935 0.0
C205 C 0.15888 0.84095 0.35132 0.0
O206 O 0.09853 0.84519 0.23363 0.0
O207 O 0.09499 0.82366 0.32979 0.0
H208 H 0.32623 0.92594 0.38074 0.0
H209 H 0.39287 0.04645 0.2737 0.0
H210 H 0.39868 0.94282 0.46975 0.0
H211 H 0.31311 0.04758 0.30355 0.0
H212 H 0.3954 0.00891 0.34838 0.0
H213 H 0.31978 0.97038 0.35666 0.0
C214 C 0.34048 0.93914 0.39701 0.0
C215 C 0.36307 0.93082 0.42682 0.0
C216 C 0.37739 0.01764 0.34003 0.0
C217 C 0.35617 0.98136 0.39746 0.0
C218 C 0.37594 0.03894 0.29716 0.0
C219 C 0.35275 0.04988 0.28244 0.0
C220 C 0.35539 0.00674 0.3662 0.0
C221 C 0.33133 0.03959 0.31398 0.0
C222 C 0.33678 0.96446 0.38337 0.0
C223 C 0.38099 0.94857 0.4468 0.0
N224 N 0.33306 0.01813 0.35307 0.0
N225 N 0.37745 0.973 0.42994 0.0
H226 H 0.04947 0.58693 0.7698 0.0
H227 H 0.93417 0.65299 0.60232 0.0
H228 H 0.05551 0.66119 0.68223 0.0
H229 H 0.94167 0.573 0.59576 0.0
H230 H 0.97901 0.6566 0.62515 0.0
H231 H 0.01077 0.58094 0.70196 0.0
C232 C 0.0428 0.60184 0.73528 0.0
C233 C 0.05552 0.62466 0.73193 0.0
C234 C 0.97099 0.63828 0.61699 0.0
C235 C 0.01104 0.61812 0.65532 0.0
C236 C 0.94542 0.63621 0.60402 0.0
C237 C 0.93427 0.61266 0.59761 0.0
C238 C 0.98535 0.6166 0.62568 0.0
C239 C 0.9496 0.5915 0.60028 0.0
C240 C 0.02078 0.59837 0.69634 0.0
C241 C 0.0462 0.64333 0.68622 0.0
N242 N 0.97432 0.59393 0.61583 0.0
N243 N 0.02418 0.63986 0.65081 0.0
H244 H 0.68342 0.97015 0.18708 0.0
H245 H 0.6179 0.06078 0.46598 0.0
H246 H 0.6372 0.94266 0.35995 0.0
H247 H 0.67149 0.08346 0.30523 0.0
H248 H 0.62922 0.01699 0.44335 0.0
H249 H 0.68443 0.0109 0.24447 0.0
C250 C 0.67383 0.9727 0.23807 0.0
C251 C 0.66009 0.95324 0.26878 0.0
C252 C 0.63883 0.03162 0.41418 0.0
C253 C 0.66033 0.00012 0.33391 0.0
C254 C 0.63242 0.05655 0.42722 0.0
C255 C 0.64348 0.07561 0.38636 0.0
C256 C 0.6564 0.02596 0.36016 0.0
C257 C 0.66217 0.06926 0.33688 0.0
C258 C 0.67434 0.99598 0.2709 0.0
C259 C 0.64804 0.95734 0.33491 0.0
N260 N 0.66782 0.04502 0.32465 0.0
N261 N 0.64797 0.98057 0.3647 0.0
H262 H 0.06959 0.42423 0.71858 0.0
H263 H 0.94355 0.34817 0.68142 0.0
H264 H 0.05963 0.36878 0.55281 0.0
H265 H 0.95338 0.41331 0.81496 0.0
H266 H 0.98354 0.35761 0.62158 0.0
H267 H 0.02497 0.42336 0.74246 0.0
C268 C 0.05776 0.41221 0.68621 0.0
C269 C 0.0681 0.39659 0.63377 0.0
C270 C 0.97664 0.37006 0.66303 0.0
C271 C 0.01701 0.39466 0.66242 0.0
C272 C 0.95385 0.3647 0.69699 0.0
C273 C 0.94547 0.37975 0.75398 0.0
C274 C 0.99088 0.39058 0.68653 0.0
C275 C 0.95942 0.40093 0.7722 0.0
C276 C 0.03227 0.41162 0.69989 0.0
C277 C 0.05215 0.38123 0.5934 0.0
N278 N 0.98148 0.40554 0.7392 0.0
N279 N 0.02733 0.38024 0.60957 0.0
H280 H 0.40068 0.43872 0.93658 0.0
H281 H 0.33337 0.56596 0.88847 0.0
H282 H 0.32043 0.44452 0.9418 0.0
H283 H 0.40634 0.55283 0.79818 0.0
H284 H 0.32717 0.52098 0.89883 0.0
H285 H 0.40274 0.47909 0.87557 0.0
C286 C 0.38345 0.44827 0.92328 0.0
C287 C 0.36037 0.43847 0.9448 0.0
C288 C 0.34433 0.52786 0.87528 0.0
C289 C 0.36259 0.4849 0.87681 0.0
C290 C 0.34791 0.55353 0.86958 0.0
C291 C 0.37051 0.56303 0.84318 0.0
C292 C 0.36377 0.51159 0.8562 0.0
C293 C 0.38868 0.54619 0.81905 0.0
C294 C 0.38463 0.4713 0.88842 0.0
C295 C 0.3386 0.4515 0.92619 0.0
N296 N 0.38515 0.52124 0.82763 0.0
N297 N 0.34026 0.47437 0.89472 0.0
H298 H 0.4436 0.6669 0.06648 0.0
H299 H 0.55833 0.57999 0.18293 0.0
H300 H 0.45014 0.58939 0.00783 0.0
H301 H 0.56568 0.65855 0.13805 0.0
H302 H 0.51324 0.58324 0.16017 0.0
H303 H 0.48315 0.66357 0.13363 0.0
C304 C 0.45302 0.64905 0.06943 0.0
C305 C 0.44384 0.62844 0.0312 0.0
C306 C 0.5247 0.59984 0.15702 0.0
C307 C 0.4886 0.62447 0.1079 0.0
C308 C 0.55033 0.59804 0.17044 0.0
C309 C 0.56567 0.619 0.16166 0.0
C310 C 0.51442 0.62283 0.13599 0.0
C311 C 0.55446 0.64192 0.14472 0.0
C312 C 0.47557 0.6472 0.10729 0.0
C313 C 0.45679 0.60577 0.03611 0.0
N314 N 0.52951 0.64321 0.13191 0.0
N315 N 0.4786 0.6044 0.07342 0.0
H316 H 0.58851 0.44576 0.80359 0.0
H317 H 0.67608 0.55617 0.94479 0.0
H318 H 0.66388 0.43513 0.87981 0.0
H319 H 0.59617 0.55419 0.97129 0.0
H320 H 0.67365 0.51727 0.87467 0.0
H321 H 0.59367 0.49096 0.81865 0.0
C322 C 0.60636 0.453 0.82144 0.0
C323 C 0.62568 0.4368 0.84165 0.0
C324 C 0.65663 0.5258 0.89422 0.0
C325 C 0.63172 0.48813 0.85835 0.0
C326 C 0.65798 0.54798 0.9337 0.0
C327 C 0.6363 0.55807 0.96424 0.0
C328 C 0.6334 0.51409 0.88446 0.0
C329 C 0.61331 0.54673 0.94912 0.0
C330 C 0.60925 0.47871 0.83026 0.0
C331 C 0.64842 0.44706 0.86469 0.0
N332 N 0.61246 0.5252 0.91074 0.0
N333 N 0.65076 0.4721 0.87315 0.0
H334 H 0.43828 0.41506 0.17184 0.0
H335 H 0.55585 0.33076 0.0665 0.0
H336 H 0.4336 0.33622 0.12806 0.0
H337 H 0.54905 0.40894 0.01561 0.0
H338 H 0.51586 0.3329 0.1313 0.0
H339 H 0.48373 0.4128 0.15735 0.0
C340 C 0.44689 0.39716 0.16119 0.0
C341 C 0.43222 0.37585 0.15007 0.0
C342 C 0.52348 0.34967 0.10731 0.0
C343 C 0.48395 0.37316 0.13372 0.0
C344 C 0.54629 0.3485 0.0708 0.0
C345 C 0.55548 0.36965 0.03514 0.0
C346 C 0.51016 0.37223 0.10894 0.0
C347 C 0.54237 0.39216 0.0418 0.0
C348 C 0.47276 0.39592 0.15259 0.0
C349 C 0.44427 0.35313 0.13612 0.0
N350 N 0.52026 0.39283 0.07746 0.0
N351 N 0.46945 0.35241 0.12761 0.0
H352 H 0.90345 0.44361 0.97888 0.0
H353 H 0.81961 0.55266 0.81189 0.0
H354 H 0.83112 0.43201 0.88212 0.0
H355 H 0.90005 0.55137 0.80581 0.0
H356 H 0.82024 0.51414 0.88402 0.0
H357 H 0.89823 0.48876 0.96213 0.0
C358 C 0.88614 0.45063 0.95641 0.0
C359 C 0.86781 0.43419 0.9309 0.0
C360 C 0.83773 0.52274 0.86853 0.0
C361 C 0.86172 0.48544 0.91203 0.0
C362 C 0.83739 0.54472 0.82785 0.0
C363 C 0.85982 0.55489 0.80243 0.0
C364 C 0.86066 0.5113 0.88469 0.0
C365 C 0.88236 0.54385 0.82387 0.0
C366 C 0.88324 0.47631 0.94651 0.0
C367 C 0.8458 0.44416 0.90165 0.0
N368 N 0.88223 0.5225 0.86329 0.0
N369 N 0.84345 0.46916 0.89228 0.0
H370 H 0.53659 0.10998 0.36211 0.0
H371 H 0.43879 0.1139 0.0439 0.0
H372 H 0.55697 0.1514 0.17096 0.0
H373 H 0.42006 0.12502 0.26832 0.0
H374 H 0.4835 0.11839 0.07585 0.0
H375 H 0.49499 0.10408 0.31297 0.0
C376 C 0.53241 0.1177 0.30937 0.0
C377 C 0.5502 0.13156 0.27105 0.0
C378 C 0.46941 0.11997 0.11747 0.0
C379 C 0.5024 0.12466 0.21439 0.0
C380 C 0.44405 0.11734 0.0995 0.0
C381 C 0.42575 0.11908 0.1536 0.0
C382 C 0.47618 0.12361 0.19001 0.0
C383 C 0.43346 0.1236 0.22478 0.0
C384 C 0.50861 0.11433 0.2815 0.0
C385 C 0.54367 0.1408 0.20247 0.0
N386 N 0.45803 0.12541 0.24092 0.0
N387 N 0.5201 0.1373 0.17616 0.0
H388 H 0.17358 0.57577 0.85153 0.0
H389 H 0.13059 0.4334 0.85987 0.0
H390 H 0.10577 0.55165 0.95553 0.0
H391 H 0.18327 0.46562 0.71091 0.0
H392 H 0.12897 0.47344 0.92514 0.0
H393 H 0.18526 0.53239 0.83277 0.0
C394 C 0.16134 0.56125 0.87157 0.0
C395 C 0.13847 0.5672 0.90385 0.0
C396 C 0.14131 0.47147 0.87922 0.0
C397 C 0.15147 0.51746 0.88121 0.0
C398 C 0.14238 0.44867 0.84245 0.0
C399 C 0.15697 0.44647 0.77994 0.0
C400 C 0.15526 0.49183 0.85353 0.0
C401 C 0.17166 0.46673 0.75867 0.0
C402 C 0.16799 0.53649 0.86074 0.0
C403 C 0.12349 0.54773 0.92987 0.0
N404 N 0.17031 0.48859 0.79508 0.0
N405 N 0.13 0.52359 0.91661 0.0
H406 H 0.45119 0.91251 0.32773 0.0
H407 H 0.56013 0.87264 0.0568 0.0
H408 H 0.44551 0.84654 0.19553 0.0
H409 H 0.56904 0.91835 0.24652 0.0
H410 H 0.51488 0.87011 0.08164 0.0
H411 H 0.49065 0.92261 0.27009 0.0
C412 C 0.45817 0.90025 0.28585 0.0
C413 C 0.44538 0.87839 0.26733 0.0
C414 C 0.52678 0.88101 0.11688 0.0
C415 C 0.49082 0.88971 0.20161 0.0
C416 C 0.55244 0.88258 0.10255 0.0
C417 C 0.56814 0.8956 0.1501 0.0
C418 C 0.51702 0.89301 0.17814 0.0
C419 C 0.55751 0.90798 0.20897 0.0
C420 C 0.48072 0.90604 0.25298 0.0
C421 C 0.45501 0.86346 0.21169 0.0
N422 N 0.53266 0.90634 0.22137 0.0
N423 N 0.4775 0.86917 0.18141 0.0
H424 H 0.87146 0.93267 0.37903 0.0
H425 H 0.82777 0.0748 0.39185 0.0
H426 H 0.81887 0.96392 0.52987 0.0
H427 H 0.89429 0.0509 0.28069 0.0
H428 H 0.81651 0.03138 0.41195 0.0
H429 H 0.87244 0.97287 0.31448 0.0
C430 C 0.85956 0.94776 0.39707 0.0
C431 C 0.8452 0.94523 0.45992 0.0
C432 C 0.8334 0.03554 0.3822 0.0
C433 C 0.84621 0.99082 0.38717 0.0
C434 C 0.83982 0.06033 0.37063 0.0
C435 C 0.86222 0.06637 0.33579 0.0
C436 C 0.84968 0.01656 0.35983 0.0
C437 C 0.87695 0.04694 0.30835 0.0
C438 C 0.86026 0.97067 0.36069 0.0
C439 C 0.83034 0.96528 0.48189 0.0
N440 N 0.87067 0.02278 0.32224 0.0
N441 N 0.83136 0.98726 0.4459 0.0
H442 H 0.95106 0.08685 0.46968 0.0
H443 H 0.0665 0.15452 0.62941 0.0
H444 H 0.94515 0.16195 0.55079 0.0
H445 H 0.0591 0.07462 0.64303 0.0
H446 H 0.02157 0.15788 0.60781 0.0
H447 H 0.98974 0.08145 0.53813 0.0
C448 C 0.95775 0.10207 0.50293 0.0
C449 C 0.9451 0.12495 0.5042 0.0
C450 C 0.02963 0.13965 0.61726 0.0
C451 C 0.98954 0.11909 0.58147 0.0
C452 C 0.05526 0.13773 0.62952 0.0
C453 C 0.06645 0.11425 0.63745 0.0
C454 C 0.01527 0.11788 0.61082 0.0
C455 C 0.05113 0.09306 0.6372 0.0
C456 C 0.97975 0.09895 0.54223 0.0
C457 C 0.95443 0.14404 0.54837 0.0
N458 N 0.02635 0.09532 0.62226 0.0
N459 N 0.97643 0.14088 0.5841 0.0
H460 H 0.17081 0.93225 0.3466 0.0
H461 H 0.09917 0.05302 0.42939 0.0
H462 H 0.09753 0.94495 0.25734 0.0
H463 H 0.17955 0.05306 0.41987 0.0
H464 H 0.09845 0.01505 0.35655 0.0
H465 H 0.17576 0.97719 0.3635 0.0
C466 C 0.15603 0.94462 0.32884 0.0
C467 C 0.13364 0.93497 0.30121 0.0
C468 C 0.11625 0.02367 0.36867 0.0
C469 C 0.13886 0.98623 0.3222 0.0
C470 C 0.11665 0.0453 0.41034 0.0
C471 C 0.13946 0.05597 0.43093 0.0
C472 C 0.13884 0.0122 0.34952 0.0
C473 C 0.1616 0.04533 0.40499 0.0
C474 C 0.15886 0.97026 0.33838 0.0
C475 C 0.11506 0.95171 0.27894 0.0
N476 N 0.16079 0.02361 0.3671 0.0
N477 N 0.11781 0.97654 0.29167 0.0
H478 H 0.93396 0.92618 0.52629 0.0
H479 H 0.05927 0.84906 0.55356 0.0
H480 H 0.94403 0.86836 0.68525 0.0
H481 H 0.04952 0.91551 0.42531 0.0
H482 H 0.01997 0.85859 0.61666 0.0
H483 H 0.97866 0.92606 0.50327 0.0
C484 C 0.94583 0.9138 0.55739 0.0
C485 C 0.93553 0.89725 0.60746 0.0
C486 C 0.02675 0.87131 0.57572 0.0
C487 C 0.98664 0.89616 0.57963 0.0
C488 C 0.04915 0.8659 0.53989 0.0
C489 C 0.05728 0.88127 0.4833 0.0
C490 C 0.01264 0.89222 0.55448 0.0
C491 C 0.04361 0.90288 0.46763 0.0
C492 C 0.97136 0.91363 0.54422 0.0
C493 C 0.9515 0.88148 0.6464 0.0
N494 N 0.02188 0.90753 0.50235 0.0
N495 N 0.97634 0.8809 0.63052 0.0
H496 H 0.34217 0.30613 0.97719 0.0
H497 H 0.31813 0.18514 0.22029 0.0
H498 H 0.32164 0.30863 0.20238 0.0
H499 H 0.34004 0.18246 0.9962 0.0
H500 H 0.31373 0.23045 0.21035 0.0
H501 H 0.33585 0.26089 0.97833 0.0
C502 C 0.336 0.2972 0.02653 0.0
C503 C 0.3327 0.31106 0.08995 0.0
C504 C 0.31925 0.21992 0.16313 0.0
C505 C 0.32563 0.25942 0.09198 0.0
C506 C 0.32172 0.19406 0.16883 0.0
C507 C 0.32972 0.18009 0.10925 0.0
C508 C 0.32492 0.23184 0.09746 0.0
C509 C 0.33404 0.19256 0.04372 0.0
C510 C 0.33245 0.27138 0.02728 0.0
C511 C 0.32465 0.2986 0.15242 0.0
N512 N 0.33182 0.21773 0.03977 0.0
N513 N 0.32162 0.27347 0.15204 0.0
H514 H 0.18705 0.67081 0.99227 0.0
H515 H 0.31271 0.66665 0.76178 0.0
H516 H 0.18889 0.66617 0.75966 0.0
H517 H 0.31054 0.66319 0.99456 0.0
H518 H 0.26779 0.67417 0.76004 0.0
H519 H 0.2323 0.67599 0.99355 0.0
C520 C 0.19695 0.67127 0.9413 0.0
C521 C 0.18424 0.66775 0.87573 0.0
C522 C 0.27714 0.67204 0.81157 0.0
C523 C 0.23612 0.67341 0.87694 0.0
C524 C 0.30281 0.66776 0.81266 0.0
C525 C 0.31531 0.66398 0.87846 0.0
C526 C 0.26381 0.67247 0.87674 0.0
C527 C 0.30159 0.66582 0.94265 0.0
C528 C 0.22281 0.67416 0.94213 0.0
C529 C 0.19798 0.66868 0.8114 0.0
N530 N 0.2765 0.66969 0.94016 0.0
N531 N 0.22325 0.67112 0.81367 0.0
H532 H 0.65041 0.81152 0.03159 0.0
H533 H 0.66518 0.68541 0.25406 0.0
H534 H 0.6657 0.81034 0.2605 0.0
H535 H 0.66023 0.68887 0.02159 0.0
H536 H 0.66808 0.73089 0.25797 0.0
H537 H 0.65614 0.76661 0.02729 0.0
C538 C 0.65502 0.80176 0.08111 0.0
C539 C 0.65734 0.81462 0.14672 0.0
C540 C 0.66667 0.72169 0.20608 0.0
C541 C 0.6639 0.76298 0.14217 0.0
C542 C 0.66503 0.69574 0.20376 0.0
C543 C 0.66222 0.6834 0.13737 0.0
C544 C 0.66529 0.73538 0.14157 0.0
C545 C 0.66224 0.69764 0.07392 0.0
C546 C 0.6584 0.77608 0.07851 0.0
C547 C 0.66362 0.80107 0.20892 0.0
N548 N 0.66347 0.7229 0.07766 0.0
N549 N 0.66646 0.77587 0.20528 0.0
H550 H 0.68702 0.3357 0.00036 0.0
H551 H 0.81107 0.33639 0.76275 0.0
H552 H 0.68716 0.33543 0.76726 0.0
H553 H 0.81053 0.33132 0.99539 0.0
H554 H 0.7657 0.33067 0.7623 0.0
H555 H 0.73217 0.32882 0.99929 0.0
C556 C 0.69651 0.33387 0.94901 0.0
C557 C 0.68342 0.33645 0.88386 0.0
C558 C 0.77556 0.33048 0.81339 0.0
C559 C 0.73503 0.32883 0.88202 0.0
C560 C 0.80145 0.33368 0.81358 0.0
C561 C 0.81449 0.33466 0.8792 0.0
C562 C 0.76269 0.3284 0.87933 0.0
C563 C 0.80115 0.33098 0.94355 0.0
C564 C 0.72228 0.32997 0.94834 0.0
C565 C 0.69659 0.33381 0.8188 0.0
N566 N 0.77597 0.32832 0.94206 0.0
N567 N 0.72171 0.33044 0.81952 0.0
H568 H 0.83133 0.68076 0.51246 0.0
H569 H 0.86304 0.80754 0.71659 0.0
H570 H 0.84763 0.68538 0.74039 0.0
H571 H 0.83523 0.80562 0.49775 0.0
H572 H 0.85667 0.76276 0.72585 0.0
H573 H 0.83096 0.7263 0.50605 0.0
C574 C 0.83449 0.69138 0.56138 0.0
C575 C 0.8397 0.67931 0.62701 0.0
C576 C 0.85184 0.77206 0.67581 0.0
C577 C 0.83964 0.73135 0.6198 0.0
C578 C 0.8556 0.79766 0.67031 0.0
C579 C 0.8498 0.81029 0.60606 0.0
C580 C 0.84238 0.75884 0.61645 0.0
C581 C 0.84005 0.79655 0.54812 0.0
C582 C 0.83432 0.71736 0.55762 0.0
C583 C 0.8436 0.69393 0.68869 0.0
N584 N 0.83677 0.77147 0.55452 0.0
N585 N 0.84376 0.71919 0.6834 0.0
H586 H 0.81564 0.17394 0.47628 0.0
H587 H 0.68975 0.17505 0.24569 0.0
H588 H 0.81336 0.16955 0.24364 0.0
H589 H 0.69253 0.17997 0.47817 0.0
H590 H 0.73518 0.18037 0.24206 0.0
H591 H 0.77094 0.18333 0.47667 0.0
C592 C 0.80581 0.17533 0.42527 0.0
C593 C 0.81812 0.17062 0.35996 0.0
C594 C 0.72579 0.18068 0.2938 0.0
C595 C 0.76698 0.18109 0.35983 0.0
C596 C 0.69985 0.17776 0.29579 0.0
C597 C 0.68745 0.1767 0.36234 0.0
C598 C 0.73931 0.18246 0.35885 0.0
C599 C 0.70142 0.18032 0.42569 0.0
C600 C 0.78028 0.18065 0.42544 0.0
C601 C 0.80451 0.17277 0.29534 0.0
N602 N 0.72661 0.18271 0.42245 0.0
N603 N 0.77962 0.17753 0.29695 0.0
H604 H 0.14334 0.30963 0.51639 0.0
H605 H 0.16866 0.18161 0.7228 0.0
H606 H 0.16656 0.30631 0.7395 0.0
H607 H 0.1545 0.18688 0.49379 0.0
H608 H 0.17006 0.2271 0.72962 0.0
H609 H 0.14873 0.26471 0.50706 0.0
C610 C 0.1496 0.29941 0.56355 0.0
C611 C 0.15436 0.31169 0.62903 0.0
C612 C 0.16692 0.21832 0.67775 0.0
C613 C 0.16061 0.26007 0.61863 0.0
C614 C 0.16616 0.19235 0.67375 0.0
C615 C 0.16129 0.18048 0.60765 0.0
C616 C 0.16256 0.23251 0.61528 0.0
C617 C 0.15825 0.19527 0.54584 0.0
C618 C 0.15278 0.27373 0.55806 0.0
C619 C 0.16259 0.29753 0.68813 0.0
N620 N 0.15869 0.22053 0.55131 0.0
N621 N 0.16531 0.27239 0.68167 0.0
H622 H 0.18995 0.82948 0.23981 0.0
H623 H 0.30987 0.824 0.49428 0.0
H624 H 0.18713 0.83266 0.47259 0.0
H625 H 0.31323 0.83101 0.26227 0.0
H626 H 0.26486 0.81784 0.48609 0.0
H627 H 0.23463 0.82095 0.24658 0.0
C628 C 0.19869 0.82805 0.29246 0.0
C629 C 0.18492 0.83216 0.35579 0.0
C630 C 0.27545 0.82038 0.43685 0.0
C631 C 0.23607 0.82252 0.3638 0.0
C632 C 0.30117 0.82385 0.44143 0.0
C633 C 0.31522 0.82841 0.37887 0.0
C634 C 0.26365 0.82161 0.36925 0.0
C635 C 0.30304 0.82776 0.31185 0.0
C636 C 0.22421 0.8232 0.29622 0.0
C637 C 0.19712 0.82985 0.42246 0.0
N638 N 0.27785 0.82479 0.30886 0.0
N639 N 0.2221 0.82547 0.42471 0.0
H640 H 0.2253 0.07367 0.65653 0.0
H641 H 0.26942 0.07203 0.06822 0.0
H642 H 0.17506 0.07624 0.83837 0.0
H643 H 0.32003 0.07919 0.8883 0.0
H644 H 0.23515 0.06499 0.98394 0.0
H645 H 0.26021 0.06724 0.73952 0.0
C646 C 0.22155 0.07249 0.71392 0.0
C647 C 0.19727 0.0758 0.74073 0.0
C648 C 0.25377 0.0678 0.96275 0.0
C649 C 0.2372 0.06861 0.83598 0.0
C650 C 0.27339 0.07178 0.01086 0.0
C651 C 0.29756 0.07654 0.98512 0.0
C652 C 0.25827 0.06871 0.88816 0.0
C653 C 0.30165 0.07574 0.91036 0.0
C654 C 0.24152 0.06888 0.76125 0.0
C655 C 0.1935 0.07396 0.81545 0.0
N656 N 0.28211 0.07224 0.86437 0.0
N657 N 0.21331 0.07075 0.86054 0.0
H658 H 0.07999 0.77854 0.31274 0.0
H659 H 0.0744 0.71991 0.91694 0.0
H660 H 0.08417 0.82166 0.11625 0.0
H661 H 0.08625 0.67653 0.11035 0.0
H662 H 0.06789 0.75691 0.99113 0.0
H663 H 0.07243 0.74106 0.24101 0.0
C664 C 0.07892 0.7802 0.2545 0.0
C665 C 0.08303 0.8032 0.22026 0.0
C666 C 0.07158 0.73925 0.01745 0.0
C667 C 0.07449 0.76035 0.13799 0.0
C668 C 0.07522 0.71808 0.97517 0.0
C669 C 0.08122 0.69517 0.00757 0.0
C670 C 0.07398 0.73755 0.09275 0.0
C671 C 0.08184 0.69386 0.0832 0.0
C672 C 0.07467 0.75877 0.21364 0.0
C673 C 0.08131 0.80427 0.14476 0.0
N674 N 0.07859 0.71486 0.12329 0.0
N675 N 0.07741 0.78308 0.10608 0.0
H676 H 0.67724 0.9074 0.89942 0.0
H677 H 0.82535 0.91039 0.84005 0.0
H678 H 0.731 0.90357 0.07292 0.0
H679 H 0.77222 0.89607 0.66957 0.0
H680 H 0.79064 0.91532 0.92489 0.0
H681 H 0.71169 0.91069 0.81289 0.0
C682 C 0.69627 0.9075 0.91927 0.0
C683 C 0.70134 0.90496 0.99319 0.0
C684 C 0.78661 0.91125 0.86879 0.0
C685 C 0.74067 0.90873 0.89506 0.0
C686 C 0.80639 0.90849 0.82043 0.0
C687 C 0.80161 0.90258 0.748 0.0
C688 C 0.76195 0.90822 0.84426 0.0
C689 C 0.77671 0.90039 0.72521 0.0
C690 C 0.7159 0.9093 0.86998 0.0
C691 C 0.7263 0.90524 0.01623 0.0
N692 N 0.7578 0.90312 0.77325 0.0
N693 N 0.74505 0.90697 0.9673 0.0
H694 H 0.91332 0.17282 0.11875 0.0
H695 H 0.91906 0.32078 0.11259 0.0
H696 H 0.92817 0.21778 0.3072 0.0
H697 H 0.91574 0.27584 0.91957 0.0
H698 H 0.92714 0.28311 0.18332 0.0
H699 H 0.91916 0.20978 0.04287 0.0
C700 C 0.9183 0.19035 0.144 0.0
C701 C 0.91992 0.19233 0.21936 0.0
C702 C 0.925 0.2815 0.12534 0.0
C703 C 0.92622 0.23471 0.13331 0.0
C704 C 0.92038 0.30303 0.085 0.0
C705 C 0.91644 0.30138 0.01031 0.0
C706 C 0.92538 0.25815 0.09079 0.0
C707 C 0.91847 0.27792 0.97721 0.0
C708 C 0.92156 0.21147 0.10075 0.0
C709 C 0.92645 0.21548 0.24931 0.0
N710 N 0.92245 0.25718 0.01778 0.0
N711 N 0.92899 0.23582 0.20632 0.0
H712 H 0.23237 0.39696 0.5795 0.0
H713 H 0.27751 0.42202 0.17562 0.0
H714 H 0.18223 0.41656 0.40587 0.0
H715 H 0.32704 0.40268 0.35091 0.0
H716 H 0.24317 0.42559 0.26171 0.0
H717 H 0.26773 0.40387 0.49931 0.0
C718 C 0.22881 0.40285 0.52446 0.0
C719 C 0.20432 0.40594 0.49901 0.0
C720 C 0.2616 0.42089 0.28153 0.0
C721 C 0.2448 0.41385 0.40666 0.0
C722 C 0.28125 0.41894 0.23245 0.0
C723 C 0.3051 0.41179 0.25614 0.0
C724 C 0.26582 0.41551 0.35476 0.0
C725 C 0.30892 0.40811 0.33031 0.0
C726 C 0.24903 0.40685 0.47871 0.0
C727 C 0.20082 0.41381 0.42747 0.0
N728 N 0.2894 0.40972 0.37688 0.0
N729 N 0.22086 0.41729 0.38352 0.0
H730 H 0.41419 0.82112 0.62956 0.0
H731 H 0.41497 0.67298 0.64302 0.0
H732 H 0.41847 0.77491 0.43927 0.0
H733 H 0.42192 0.71959 0.83189 0.0
H734 H 0.42094 0.70983 0.56681 0.0
H735 H 0.4216 0.78424 0.70434 0.0
C736 C 0.41706 0.80328 0.6035 0.0
C737 C 0.41544 0.80101 0.52823 0.0
C738 C 0.42155 0.71194 0.62495 0.0
C739 C 0.42359 0.75868 0.61328 0.0
C740 C 0.41819 0.69088 0.66842 0.0
C741 C 0.41764 0.6933 0.7438 0.0
C742 C 0.42412 0.73554 0.65724 0.0
C743 C 0.42195 0.71692 0.77393 0.0
C744 C 0.42127 0.78221 0.64616 0.0
C745 C 0.41938 0.77746 0.49722 0.0
N746 N 0.42466 0.73716 0.73059 0.0
N747 N 0.42293 0.75715 0.5399 0.0
H748 H 0.72501 0.57682 0.17431 0.0
H749 H 0.77631 0.56951 0.57891 0.0
H750 H 0.6779 0.57904 0.36306 0.0
H751 H 0.82343 0.57968 0.39238 0.0
H752 H 0.7404 0.56415 0.49911 0.0
H753 H 0.76111 0.56921 0.25188 0.0
C754 C 0.72219 0.57534 0.23209 0.0
C755 C 0.69844 0.57886 0.26242 0.0
C756 C 0.75863 0.56724 0.47553 0.0
C757 C 0.73977 0.57028 0.35156 0.0
C758 C 0.77918 0.57022 0.52103 0.0
C759 C 0.80285 0.57535 0.4922 0.0
C760 C 0.76172 0.56945 0.40055 0.0
C761 C 0.80548 0.57591 0.41686 0.0
C762 C 0.74285 0.57105 0.27633 0.0
C763 C 0.69589 0.57661 0.3375 0.0
N764 N 0.78509 0.5733 0.37361 0.0
N765 N 0.71636 0.57271 0.3796 0.0
H766 H 0.58395 0.23017 0.42393 0.0
H767 H 0.57631 0.28026 0.82904 0.0
H768 H 0.5902 0.18312 0.61231 0.0
H769 H 0.58479 0.32789 0.64273 0.0
H770 H 0.57167 0.24441 0.74897 0.0
H771 H 0.5749 0.26565 0.50214 0.0
C772 C 0.58312 0.22724 0.48178 0.0
C773 C 0.58817 0.20374 0.51184 0.0
C774 C 0.5742 0.26274 0.72555 0.0
C775 C 0.57787 0.2443 0.60155 0.0
C776 C 0.57675 0.28324 0.77118 0.0
C777 C 0.5813 0.30703 0.7424 0.0
C778 C 0.57623 0.26604 0.6506 0.0
C779 C 0.58153 0.30984 0.66712 0.0
C780 C 0.57798 0.24752 0.52635 0.0
C781 C 0.58665 0.20098 0.58701 0.0
N782 N 0.57935 0.28951 0.62375 0.0
N783 N 0.58187 0.2211 0.6294 0.0
loop_
_geom_bond_atom_site_label_1
_geom_bond_atom_site_label_2
_geom_bond_distance
_geom_bond_site_symmetry_2
_ccdc_geom_bond_type
In0 O1 2.294 . S
In0 O2 2.326 . S
In0 O6 2.266 . S
In0 O7 2.326 . S
In0 O8 2.266 . S
In0 O9 2.326 . S
In0 O11 2.294 . S
In0 O12 2.326 . S
O1 In0 2.294 . S
O1 C10 1.240 . S
O2 In0 2.326 . S
O2 C10 1.252 . S
C3 O6 1.252 . S
C3 O7 1.260 . S
C4 O11 1.240 . S
C4 O12 1.252 . S
C5 O8 1.252 . S
C5 O9 1.260 . S
O6 In0 2.266 . S
O6 C3 1.252 . S
O7 In0 2.326 . S
O7 C3 1.260 . S
O8 In0 2.266 . S
O8 C5 1.252 . S
O9 In0 2.326 . S
O9 C5 1.260 . S
C10 O1 1.240 . S
C10 O2 1.252 . S
O11 In0 2.294 . S
O11 C4 1.240 . S
O12 In0 2.326 . S
O12 C4 1.252 . S
In13 O14 2.294 . S
In13 O15 2.326 . S
In13 O19 2.266 . S
In13 O20 2.326 . S
In13 O21 2.266 . S
In13 O22 2.326 . S
In13 O24 2.294 . S
In13 O25 2.326 . S
O14 In13 2.294 . S
O14 C23 1.240 . S
O15 In13 2.326 . S
O15 C23 1.252 . S
C16 O19 1.252 . S
C16 O20 1.260 . S
C17 O24 1.240 . S
C17 O25 1.252 . S
C18 O21 1.252 . S
C18 O22 1.260 . S
O19 In13 2.266 . S
O19 C16 1.252 . S
O20 In13 2.326 . S
O20 C16 1.260 . S
O21 In13 2.266 . S
O21 C18 1.252 . S
O22 In13 2.326 . S
O22 C18 1.260 . S
C23 O14 1.240 . S
C23 O15 1.252 . S
O24 In13 2.294 . S
O24 C17 1.240 . S
O25 In13 2.326 . S
O25 C17 1.252 . S
In26 O27 2.294 . S
In26 O28 2.326 . S
In26 O32 2.266 . S
In26 O33 2.326 . S
In26 O34 2.266 . S
In26 O35 2.326 . S
In26 O37 2.294 . S
In26 O38 2.326 . S
O27 In26 2.294 . S
O27 C36 1.240 . S
O28 In26 2.326 . S
O28 C36 1.252 . S
C29 O32 1.252 . S
C29 O33 1.260 . S
C30 O37 1.240 . S
C30 O38 1.252 . S
C31 O34 1.252 . S
C31 O35 1.260 . S
O32 In26 2.266 . S
O32 C29 1.252 . S
O33 In26 2.326 . S
O33 C29 1.260 . S
O34 In26 2.266 . S
O34 C31 1.252 . S
O35 In26 2.326 . S
O35 C31 1.260 . S
C36 O27 1.240 . S
C36 O28 1.252 . S
O37 In26 2.294 . S
O37 C30 1.240 . S
O38 In26 2.326 . S
O38 C30 1.252 . S
In39 O40 2.294 . S
In39 O41 2.326 . S
In39 O45 2.266 . S
In39 O46 2.326 . S
In39 O47 2.266 . S
In39 O48 2.326 . S
In39 O50 2.294 . S
In39 O51 2.326 . S
O40 In39 2.294 . S
O40 C49 1.240 . S
O41 In39 2.326 . S
O41 C49 1.252 . S
C42 O45 1.252 . S
C42 O46 1.260 . S
C43 O50 1.240 . S
C43 O51 1.252 . S
C44 O47 1.252 . S
C44 O48 1.260 . S
O45 In39 2.266 . S
O45 C42 1.252 . S
O46 In39 2.326 . S
O46 C42 1.260 . S
O47 In39 2.266 . S
O47 C44 1.252 . S
O48 In39 2.326 . S
O48 C44 1.260 . S
C49 O40 1.240 . S
C49 O41 1.252 . S
O50 In39 2.294 . S
O50 C43 1.240 . S
O51 In39 2.326 . S
O51 C43 1.252 . S
In52 O53 2.294 . S
In52 O54 2.326 . S
In52 O58 2.266 1_554 S
In52 O59 2.326 . S
In52 O60 2.266 . S
In52 O61 2.326 . S
In52 O63 2.294 . S
In52 O64 2.326 . S
O53 In52 2.294 . S
O53 C62 1.240 . S
O54 In52 2.326 . S
O54 C62 1.252 . S
C55 O58 1.252 1_554 S
C55 O59 1.260 . S
C56 O63 1.240 . S
C56 O64 1.252 . S
C57 O60 1.252 . S
C57 O61 1.260 . S
O58 In52 2.266 1_556 S
O58 C55 1.252 1_556 S
O59 In52 2.326 . S
O59 C55 1.260 . S
O60 In52 2.266 . S
O60 C57 1.252 . S
O61 In52 2.326 . S
O61 C57 1.260 . S
C62 O53 1.240 . S
C62 O54 1.252 . S
O63 In52 2.294 . S
O63 C56 1.240 . S
O64 In52 2.326 . S
O64 C56 1.252 . S
In65 O66 2.294 . S
In65 O67 2.326 . S
In65 O71 2.266 1_556 S
In65 O72 2.326 . S
In65 O73 2.266 . S
In65 O74 2.326 . S
In65 O76 2.294 . S
In65 O77 2.326 . S
O66 In65 2.294 . S
O66 C75 1.240 . S
O67 In65 2.326 . S
O67 C75 1.252 . S
C68 O71 1.252 1_556 S
C68 O72 1.260 . S
C69 O76 1.240 . S
C69 O77 1.252 . S
C70 O73 1.252 . S
C70 O74 1.260 . S
O71 In65 2.266 1_554 S
O71 C68 1.252 1_554 S
O72 In65 2.326 . S
O72 C68 1.260 . S
O73 In65 2.266 . S
O73 C70 1.252 . S
O74 In65 2.326 . S
O74 C70 1.260 . S
C75 O66 1.240 . S
C75 O67 1.252 . S
O76 In65 2.294 . S
O76 C69 1.240 . S
O77 In65 2.326 . S
O77 C69 1.252 . S
In78 O79 2.294 . S
In78 O80 2.326 . S
In78 O84 2.266 1_554 S
In78 O85 2.326 . S
In78 O86 2.266 . S
In78 O87 2.326 . S
In78 O89 2.294 . S
In78 O90 2.326 . S
O79 In78 2.294 . S
O79 C88 1.240 . S
O80 In78 2.326 . S
O80 C88 1.252 . S
C81 O84 1.252 1_554 S
C81 O85 1.260 . S
C82 O89 1.240 . S
C82 O90 1.252 . S
C83 O86 1.252 . S
C83 O87 1.260 . S
O84 In78 2.266 1_556 S
O84 C81 1.252 1_556 S
O85 In78 2.326 . S
O85 C81 1.260 . S
O86 In78 2.266 . S
O86 C83 1.252 . S
O87 In78 2.326 . S
O87 C83 1.260 . S
C88 O79 1.240 . S
C88 O80 1.252 . S
O89 In78 2.294 . S
O89 C82 1.240 . S
O90 In78 2.326 . S
O90 C82 1.252 . S
In91 O92 2.294 . S
In91 O93 2.326 . S
In91 O97 2.266 1_556 S
In91 O98 2.326 . S
In91 O99 2.266 . S
In91 O100 2.326 . S
In91 O102 2.294 . S
In91 O103 2.326 . S
O92 In91 2.294 . S
O92 C101 1.240 . S
O93 In91 2.326 . S
O93 C101 1.252 . S
C94 O97 1.252 1_556 S
C94 O98 1.260 . S
C95 O102 1.240 . S
C95 O103 1.252 . S
C96 O99 1.252 . S
C96 O100 1.260 . S
O97 In91 2.266 1_554 S
O97 C94 1.252 1_554 S
O98 In91 2.326 . S
O98 C94 1.260 . S
O99 In91 2.266 . S
O99 C96 1.252 . S
O100 In91 2.326 . S
O100 C96 1.260 . S
C101 O92 1.240 . S
C101 O93 1.252 . S
O102 In91 2.294 . S
O102 C95 1.240 . S
O103 In91 2.326 . S
O103 C95 1.252 . S
In104 O105 2.294 . S
In104 O106 2.326 . S
In104 O110 2.266 . S
In104 O111 2.326 . S
In104 O112 2.266 . S
In104 O113 2.326 . S
In104 O115 2.294 . S
In104 O116 2.326 . S
O105 In104 2.294 . S
O105 C114 1.240 . S
O106 In104 2.326 . S
O106 C114 1.252 . S
C107 O110 1.252 . S
C107 O111 1.260 . S
C108 O115 1.240 . S
C108 O116 1.252 . S
C109 O112 1.252 . S
C109 O113 1.260 . S
O110 In104 2.266 . S
O110 C107 1.252 . S
O111 In104 2.326 . S
O111 C107 1.260 . S
O112 In104 2.266 . S
O112 C109 1.252 . S
O113 In104 2.326 . S
O113 C109 1.260 . S
C114 O105 1.240 . S
C114 O106 1.252 . S
O115 In104 2.294 . S
O115 C108 1.240 . S
O116 In104 2.326 . S
O116 C108 1.252 . S
In117 O118 2.294 . S
In117 O119 2.326 . S
In117 O123 2.266 . S
In117 O124 2.326 . S
In117 O125 2.266 . S
In117 O126 2.326 . S
In117 O128 2.294 . S
In117 O129 2.326 . S
O118 In117 2.294 . S
O118 C127 1.240 . S
O119 In117 2.326 . S
O119 C127 1.252 . S
C120 O123 1.252 . S
C120 O124 1.260 . S
C121 O128 1.240 . S
C121 O129 1.252 . S
C122 O125 1.252 . S
C122 O126 1.260 . S
O123 In117 2.266 . S
O123 C120 1.252 . S
O124 In117 2.326 . S
O124 C120 1.260 . S
O125 In117 2.266 . S
O125 C122 1.252 . S
O126 In117 2.326 . S
O126 C122 1.260 . S
C127 O118 1.240 . S
C127 O119 1.252 . S
O128 In117 2.294 . S
O128 C121 1.240 . S
O129 In117 2.326 . S
O129 C121 1.252 . S
In130 O131 2.294 . S
In130 O132 2.326 . S
In130 O136 2.266 . S
In130 O137 2.326 . S
In130 O138 2.266 . S
In130 O139 2.326 . S
In130 O141 2.294 . S
In130 O142 2.326 . S
O131 In130 2.294 . S
O131 C140 1.240 . S
O132 In130 2.326 . S
O132 C140 1.252 . S
C133 O136 1.252 . S
C133 O137 1.260 . S
C134 O141 1.240 . S
C134 O142 1.252 . S
C135 O138 1.252 . S
C135 O139 1.260 . S
O136 In130 2.266 . S
O136 C133 1.252 . S
O137 In130 2.326 . S
O137 C133 1.260 . S
O138 In130 2.266 . S
O138 C135 1.252 . S
O139 In130 2.326 . S
O139 C135 1.260 . S
C140 O131 1.240 . S
C140 O132 1.252 . S
O141 In130 2.294 . S
O141 C134 1.240 . S
O142 In130 2.326 . S
O142 C134 1.252 . S
In143 O144 2.294 . S
In143 O145 2.326 . S
In143 O149 2.266 . S
In143 O150 2.326 . S
In143 O151 2.266 . S
In143 O152 2.326 . S
In143 O154 2.294 . S
In143 O155 2.326 . S
O144 In143 2.294 . S
O144 C153 1.240 . S
O145 In143 2.326 . S
O145 C153 1.252 . S
C146 O149 1.252 . S
C146 O150 1.260 . S
C147 O154 1.240 . S
C147 O155 1.252 . S
C148 O151 1.252 . S
C148 O152 1.260 . S
O149 In143 2.266 . S
O149 C146 1.252 . S
O150 In143 2.326 . S
O150 C146 1.260 . S
O151 In143 2.266 . S
O151 C148 1.252 . S
O152 In143 2.326 . S
O152 C148 1.260 . S
C153 O144 1.240 . S
C153 O145 1.252 . S
O154 In143 2.294 . S
O154 C147 1.240 . S
O155 In143 2.326 . S
O155 C147 1.252 . S
In156 O157 2.294 . S
In156 O158 2.326 . S
In156 O162 2.266 . S
In156 O163 2.326 . S
In156 O164 2.266 . S
In156 O165 2.326 . S
In156 O167 2.294 . S
In156 O168 2.326 . S
O157 In156 2.294 . S
O157 C166 1.240 . S
O158 In156 2.326 . S
O158 C166 1.252 . S
C159 O162 1.252 . S
C159 O163 1.260 . S
C160 O167 1.240 . S
C160 O168 1.252 . S
C161 O164 1.252 . S
C161 O165 1.260 . S
O162 In156 2.266 . S
O162 C159 1.252 . S
O163 In156 2.326 . S
O163 C159 1.260 . S
O164 In156 2.266 . S
O164 C161 1.252 . S
O165 In156 2.326 . S
O165 C161 1.260 . S
C166 O157 1.240 . S
C166 O158 1.252 . S
O167 In156 2.294 . S
O167 C160 1.240 . S
O168 In156 2.326 . S
O168 C160 1.252 . S
In169 O170 2.294 . S
In169 O171 2.326 . S
In169 O175 2.266 . S
In169 O176 2.326 . S
In169 O177 2.266 . S
In169 O178 2.326 . S
In169 O180 2.294 . S
In169 O181 2.326 . S
O170 In169 2.294 . S
O170 C179 1.240 . S
O171 In169 2.326 . S
O171 C179 1.252 . S
C172 O175 1.252 . S
C172 O176 1.260 . S
C173 O180 1.240 . S
C173 O181 1.252 . S
C174 O177 1.252 . S
C174 O178 1.260 . S
O175 In169 2.266 . S
O175 C172 1.252 . S
O176 In169 2.326 . S
O176 C172 1.260 . S
O177 In169 2.266 . S
O177 C174 1.252 . S
O178 In169 2.326 . S
O178 C174 1.260 . S
C179 O170 1.240 . S
C179 O171 1.252 . S
O180 In169 2.294 . S
O180 C173 1.240 . S
O181 In169 2.326 . S
O181 C173 1.252 . S
In182 O183 2.294 . S
In182 O184 2.326 . S
In182 O188 2.266 . S
In182 O189 2.326 . S
In182 O190 2.266 . S
In182 O191 2.326 . S
In182 O193 2.294 . S
In182 O194 2.326 . S
O183 In182 2.294 . S
O183 C192 1.240 . S
O184 In182 2.326 . S
O184 C192 1.252 . S
C185 O188 1.252 . S
C185 O189 1.260 . S
C186 O193 1.240 . S
C186 O194 1.252 . S
C187 O190 1.252 . S
C187 O191 1.260 . S
O188 In182 2.266 . S
O188 C185 1.252 . S
O189 In182 2.326 . S
O189 C185 1.260 . S
O190 In182 2.266 . S
O190 C187 1.252 . S
O191 In182 2.326 . S
O191 C187 1.260 . S
C192 O183 1.240 . S
C192 O184 1.252 . S
O193 In182 2.294 . S
O193 C186 1.240 . S
O194 In182 2.326 . S
O194 C186 1.252 . S
In195 O196 2.294 . S
In195 O197 2.326 . S
In195 O201 2.266 . S
In195 O202 2.326 . S
In195 O203 2.266 . S
In195 O204 2.326 . S
In195 O206 2.294 . S
In195 O207 2.326 . S
O196 In195 2.294 . S
O196 C205 1.240 . S
O197 In195 2.326 . S
O197 C205 1.252 . S
C198 O201 1.252 . S
C198 O202 1.260 . S
C199 O206 1.240 . S
C199 O207 1.252 . S
C200 O203 1.252 . S
C200 O204 1.260 . S
O201 In195 2.266 . S
O201 C198 1.252 . S
O202 In195 2.326 . S
O202 C198 1.260 . S
O203 In195 2.266 . S
O203 C200 1.252 . S
O204 In195 2.326 . S
O204 C200 1.260 . S
C205 O196 1.240 . S
C205 O197 1.252 . S
O206 In195 2.294 . S
O206 C199 1.240 . S
O207 In195 2.326 . S
O207 C199 1.252 . S
H208 C214 0.930 . S
H209 C218 0.930 . S
H210 C223 0.929 . S
H211 C221 0.929 . S
H212 C216 0.929 . S
H213 C222 0.929 . S
C214 H208 0.930 . S
C214 C215 1.367 . S
C214 C222 1.378 . S
C215 C214 1.367 . S
C215 C223 1.433 . S
C216 H212 0.929 . S
C216 C218 1.378 . S
C216 C220 1.350 . S
C217 C220 1.463 1_565 S
C217 C222 1.350 . S
C217 N225 1.427 . S
C218 H209 0.930 . S
C218 C216 1.378 . S
C218 C219 1.367 . S
C219 C218 1.367 . S
C219 C221 1.433 . S
C220 C216 1.350 . S
C220 C217 1.463 1_545 S
C220 N224 1.427 . S
C221 H211 0.929 . S
C221 C219 1.433 . S
C221 N224 1.384 . S
C222 H213 0.929 . S
C222 C214 1.378 . S
C222 C217 1.350 . S
C223 H210 0.929 . S
C223 C215 1.433 . S
C223 N225 1.384 . S
N224 C220 1.427 . S
N224 C221 1.384 . S
N225 C217 1.427 . S
N225 C223 1.384 . S
H226 C232 0.930 . S
H227 C236 0.930 . S
H228 C241 0.929 . S
H229 C239 0.929 . S
H230 C234 0.929 . S
H231 C240 0.929 . S
C232 H226 0.930 . S
C232 C233 1.367 . S
C232 C240 1.378 . S
C233 C232 1.367 . S
C233 C241 1.433 . S
C234 H230 0.929 . S
C234 C236 1.378 . S
C234 C238 1.350 . S
C235 C238 1.463 1_455 S
C235 C240 1.350 . S
C235 N243 1.427 . S
C236 H227 0.930 . S
C236 C234 1.378 . S
C236 C237 1.367 . S
C237 C236 1.367 . S
C237 C239 1.433 . S
C238 C234 1.350 . S
C238 C235 1.463 1_655 S
C238 N242 1.427 . S
C239 H229 0.929 . S
C239 C237 1.433 . S
C239 N242 1.384 . S
C240 H231 0.929 . S
C240 C232 1.378 . S
C240 C235 1.350 . S
C241 H228 0.929 . S
C241 C233 1.433 . S
C241 N243 1.384 . S
N242 C238 1.427 . S
N242 C239 1.384 . S
N243 C235 1.427 . S
N243 C241 1.384 . S
H244 C250 0.930 . S
H245 C254 0.930 . S
H246 C259 0.929 . S
H247 C257 0.929 . S
H248 C252 0.929 . S
H249 C258 0.918 1_545 S
C250 H244 0.930 . S
C250 C251 1.367 . S
C250 C258 1.378 . S
C251 C250 1.367 . S
C251 C259 1.433 . S
C252 H248 0.929 . S
C252 C254 1.378 . S
C252 C256 1.350 . S
C253 C256 1.463 1_565 S
C253 C258 1.350 . S
C253 N261 1.427 . S
C254 H245 0.930 . S
C254 C252 1.378 . S
C254 C255 1.367 . S
C255 C254 1.367 . S
C255 C257 1.433 . S
C256 C252 1.350 . S
C256 C253 1.463 1_545 S
C256 N260 1.427 . S
C257 H247 0.929 . S
C257 C255 1.433 . S
C257 N260 1.384 . S
C258 H249 0.918 1_565 S
C258 C250 1.378 . S
C258 C253 1.350 . S
C259 H246 0.929 . S
C259 C251 1.433 . S
C259 N261 1.384 . S
N260 C256 1.427 . S
N260 C257 1.384 . S
N261 C253 1.427 . S
N261 C259 1.384 . S
H262 C268 0.930 . S
H263 C272 0.930 . S
H264 C277 0.929 . S
H265 C275 0.929 . S
H266 C270 0.929 . S
H267 C276 0.929 . S
C268 H262 0.930 . S
C268 C269 1.367 . S
C268 C276 1.378 . S
C269 C268 1.367 . S
C269 C277 1.433 . S
C270 H266 0.929 . S
C270 C272 1.378 . S
C270 C274 1.350 . S
C271 C274 1.463 1_455 S
C271 C276 1.350 . S
C271 N279 1.427 . S
C272 H263 0.930 . S
C272 C270 1.378 . S
C272 C273 1.367 . S
C273 C272 1.367 . S
C273 C275 1.433 . S
C274 C270 1.350 . S
C274 C271 1.463 1_655 S
C274 N278 1.427 . S
C275 H265 0.929 . S
C275 C273 1.433 . S
C275 N278 1.384 . S
C276 H267 0.929 . S
C276 C268 1.378 . S
C276 C271 1.350 . S
C277 H264 0.929 . S
C277 C269 1.433 . S
C277 N279 1.384 . S
N278 C274 1.427 . S
N278 C275 1.384 . S
N279 C271 1.427 . S
N279 C277 1.384 . S
H280 C286 0.930 . S
H281 C290 0.930 1_554 S
H282 C295 0.929 . S
H283 C293 0.929 . S
H284 C288 0.929 . S
H285 C294 0.929 . S
C286 H280 0.930 . S
C286 C287 1.367 . S
C286 C294 1.378 . S
C287 C286 1.367 . S
C287 C295 1.433 1_556 S
C288 H284 0.929 . S
C288 C290 1.378 1_554 S
C288 C292 1.350 1_554 S
C289 C292 1.463 . S
C289 C294 1.350 . S
C289 N297 1.427 1_556 S
C290 H281 0.930 1_556 S
C290 C288 1.378 1_556 S
C290 C291 1.367 . S
C291 C290 1.367 . S
C291 C293 1.433 . S
C292 C288 1.350 1_556 S
C292 C289 1.463 . S
C292 N296 1.427 . S
C293 H283 0.929 . S
C293 C291 1.433 . S
C293 N296 1.384 . S
C294 H285 0.929 . S
C294 C286 1.378 . S
C294 C289 1.350 . S
C295 H282 0.929 . S
C295 C287 1.433 1_554 S
C295 N297 1.384 . S
N296 C292 1.427 . S
N296 C293 1.384 . S
N297 C289 1.427 1_554 S
N297 C295 1.384 . S
H298 C304 0.930 . S
H299 C308 0.930 . S
H300 C313 0.929 . S
H301 C311 0.929 . S
H302 C306 0.929 . S
H303 C312 0.929 . S
C304 H298 0.930 . S
C304 C305 1.366 1_556 S
C304 C312 1.378 1_556 S
C305 C304 1.366 1_554 S
C305 C313 1.434 . S
C306 H302 0.929 . S
C306 C308 1.378 . S
C306 C310 1.350 . S
C307 C310 1.463 . S
C307 C312 1.350 . S
C307 N315 1.427 . S
C308 H299 0.930 . S
C308 C306 1.378 . S
C308 C309 1.367 . S
C309 C308 1.367 . S
C309 C311 1.433 . S
C310 C306 1.350 . S
C310 C307 1.463 . S
C310 N314 1.427 . S
C311 H301 0.929 . S
C311 C309 1.433 . S
C311 N314 1.384 . S
C312 H303 0.929 . S
C312 C304 1.378 1_554 S
C312 C307 1.350 . S
C313 H300 0.929 . S
C313 C305 1.434 . S
C313 N315 1.384 . S
N314 C310 1.427 . S
N314 C311 1.384 . S
N315 C307 1.427 . S
N315 C313 1.384 . S
H316 C322 0.930 . S
H317 C326 0.930 . S
H318 C331 0.929 . S
H319 C329 0.929 . S
H320 C324 0.929 . S
H321 C330 0.929 . S
C322 H316 0.930 . S
C322 C323 1.367 . S
C322 C330 1.378 . S
C323 C322 1.367 . S
C323 C331 1.433 . S
C324 H320 0.929 . S
C324 C326 1.378 . S
C324 C328 1.350 1_554 S
C325 C328 1.463 . S
C325 C330 1.350 . S
C325 N333 1.427 . S
C326 H317 0.930 . S
C326 C324 1.378 . S
C326 C327 1.368 . S
C327 C326 1.368 . S
C327 C329 1.431 1_554 S
C328 C324 1.350 1_556 S
C328 C325 1.463 . S
C328 N332 1.427 . S
C329 H319 0.929 . S
C329 C327 1.431 1_556 S
C329 N332 1.384 . S
C330 H321 0.929 . S
C330 C322 1.378 . S
C330 C325 1.350 . S
C331 H318 0.929 . S
C331 C323 1.433 . S
C331 N333 1.384 . S
N332 C328 1.427 . S
N332 C329 1.384 . S
N333 C325 1.427 . S
N333 C331 1.384 . S
H334 C340 0.930 1_556 S
H335 C344 0.930 . S
H336 C349 0.929 . S
H337 C347 0.929 . S
H338 C342 0.929 . S
H339 C348 0.929 . S
C340 H334 0.930 1_554 S
C340 C341 1.367 . S
C340 C348 1.378 1_554 S
C341 C340 1.367 . S
C341 C349 1.433 . S
C342 H338 0.929 . S
C342 C344 1.378 . S
C342 C346 1.350 . S
C343 C346 1.463 . S
C343 C348 1.350 1_554 S
C343 N351 1.427 . S
C344 H335 0.930 . S
C344 C342 1.378 . S
C344 C345 1.367 . S
C345 C344 1.367 . S
C345 C347 1.433 1_554 S
C346 C342 1.350 . S
C346 C343 1.463 . S
C346 N350 1.427 1_554 S
C347 H337 0.929 . S
C347 C345 1.433 1_556 S
C347 N350 1.384 . S
C348 H339 0.929 . S
C348 C340 1.378 1_556 S
C348 C343 1.350 1_556 S
C349 H336 0.929 . S
C349 C341 1.433 . S
C349 N351 1.384 . S
N350 C346 1.427 1_556 S
N350 C347 1.384 . S
N351 C343 1.427 . S
N351 C349 1.384 . S
H352 C358 0.930 . S
H353 C362 0.930 . S
H354 C367 0.929 . S
H355 C365 0.929 . S
H356 C360 0.929 . S
H357 C366 0.929 . S
C358 H352 0.930 . S
C358 C359 1.367 . S
C358 C366 1.378 . S
C359 C358 1.367 . S
C359 C367 1.433 . S
C360 H356 0.929 . S
C360 C362 1.378 . S
C360 C364 1.350 . S
C361 C364 1.463 . S
C361 C366 1.350 . S
C361 N369 1.427 . S
C362 H353 0.930 . S
C362 C360 1.378 . S
C362 C363 1.367 . S
C363 C362 1.367 . S
C363 C365 1.433 . S
C364 C360 1.350 . S
C364 C361 1.463 . S
C364 N368 1.427 . S
C365 H355 0.929 . S
C365 C363 1.433 . S
C365 N368 1.384 . S
C366 H357 0.929 . S
C366 C358 1.378 . S
C366 C361 1.350 . S
C367 H354 0.929 . S
C367 C359 1.433 . S
C367 N369 1.384 . S
N368 C364 1.427 . S
N368 C365 1.384 . S
N369 C361 1.427 . S
N369 C367 1.384 . S
H370 C376 0.930 . S
H371 C380 0.930 . S
H372 C385 0.929 . S
H373 C383 0.929 . S
H374 C378 0.929 . S
H375 C384 0.929 . S
C376 H370 0.930 . S
C376 C377 1.367 . S
C376 C384 1.378 . S
C377 C376 1.367 . S
C377 C385 1.433 . S
C378 H374 0.929 . S
C378 C380 1.378 . S
C378 C382 1.350 . S
C379 C382 1.463 . S
C379 C384 1.350 . S
C379 N387 1.427 . S
C380 H371 0.930 . S
C380 C378 1.378 . S
C380 C381 1.367 . S
C381 C380 1.367 . S
C381 C383 1.433 . S
C382 C378 1.350 . S
C382 C379 1.463 . S
C382 N386 1.427 . S
C383 H373 0.929 . S
C383 C381 1.433 . S
C383 N386 1.384 . S
C384 H375 0.929 . S
C384 C376 1.378 . S
C384 C379 1.350 . S
C385 H372 0.929 . S
C385 C377 1.433 . S
C385 N387 1.384 . S
N386 C382 1.427 . S
N386 C383 1.384 . S
N387 C379 1.427 . S
N387 C385 1.384 . S
H388 C394 0.930 . S
H389 C398 0.930 . S
H390 C403 0.929 . S
H391 C401 0.929 . S
H392 C396 0.929 . S
H393 C402 0.929 . S
C394 H388 0.930 . S
C394 C395 1.367 . S
C394 C402 1.378 . S
C395 C394 1.367 . S
C395 C403 1.433 . S
C396 H392 0.929 . S
C396 C398 1.378 . S
C396 C400 1.350 . S
C397 C400 1.463 . S
C397 C402 1.350 . S
C397 N405 1.427 . S
C398 H389 0.930 . S
C398 C396 1.378 . S
C398 C399 1.367 . S
C399 C398 1.367 . S
C399 C401 1.433 . S
C400 C396 1.350 . S
C400 C397 1.463 . S
C400 N404 1.427 . S
C401 H391 0.929 . S
C401 C399 1.433 . S
C401 N404 1.384 . S
C402 H393 0.929 . S
C402 C394 1.378 . S
C402 C397 1.350 . S
C403 H390 0.929 . S
C403 C395 1.433 . S
C403 N405 1.384 . S
N404 C400 1.427 . S
N404 C401 1.384 . S
N405 C397 1.427 . S
N405 C403 1.384 . S
H406 C412 0.930 . S
H407 C416 0.930 . S
H408 C421 0.929 . S
H409 C419 0.929 . S
H410 C414 0.929 . S
H411 C420 0.929 . S
C412 H406 0.930 . S
C412 C413 1.367 . S
C412 C420 1.378 . S
C413 C412 1.367 . S
C413 C421 1.433 . S
C414 H410 0.929 . S
C414 C416 1.378 . S
C414 C418 1.350 . S
C415 C418 1.463 . S
C415 C420 1.350 . S
C415 N423 1.427 . S
C416 H407 0.930 . S
C416 C414 1.378 . S
C416 C417 1.367 . S
C417 C416 1.367 . S
C417 C419 1.433 . S
C418 C414 1.350 . S
C418 C415 1.463 . S
C418 N422 1.427 . S
C419 H409 0.929 . S
C419 C417 1.433 . S
C419 N422 1.384 . S
C420 H411 0.929 . S
C420 C412 1.378 . S
C420 C415 1.350 . S
C421 H408 0.929 . S
C421 C413 1.433 . S
C421 N423 1.384 . S
N422 C418 1.427 . S
N422 C419 1.384 . S
N423 C415 1.427 . S
N423 C421 1.384 . S
H424 C430 0.930 . S
H425 C434 0.930 . S
H426 C439 0.929 . S
H427 C437 0.929 . S
H428 C432 0.929 . S
H429 C438 0.929 . S
C430 H424 0.930 . S
C430 C431 1.367 . S
C430 C438 1.378 . S
C431 C430 1.367 . S
C431 C439 1.433 . S
C432 H428 0.929 . S
C432 C434 1.378 . S
C432 C436 1.350 . S
C433 C436 1.463 1_565 S
C433 C438 1.350 . S
C433 N441 1.427 . S
C434 H425 0.930 . S
C434 C432 1.378 . S
C434 C435 1.367 . S
C435 C434 1.367 . S
C435 C437 1.433 . S
C436 C432 1.350 . S
C436 C433 1.463 1_545 S
C436 N440 1.427 . S
C437 H427 0.929 . S
C437 C435 1.433 . S
C437 N440 1.384 . S
C438 H429 0.929 . S
C438 C430 1.378 . S
C438 C433 1.350 . S
C439 H426 0.929 . S
C439 C431 1.433 . S
C439 N441 1.384 . S
N440 C436 1.427 . S
N440 C437 1.384 . S
N441 C433 1.427 . S
N441 C439 1.384 . S
H442 C448 0.930 . S
H443 C452 0.930 . S
H444 C457 0.929 . S
H445 C455 0.929 . S
H446 C450 0.929 . S
H447 C456 0.929 . S
C448 H442 0.930 . S
C448 C449 1.367 . S
C448 C456 1.378 . S
C449 C448 1.367 . S
C449 C457 1.433 . S
C450 H446 0.929 . S
C450 C452 1.378 . S
C450 C454 1.350 . S
C451 C454 1.463 1_655 S
C451 C456 1.350 . S
C451 N459 1.427 . S
C452 H443 0.930 . S
C452 C450 1.378 . S
C452 C453 1.367 . S
C453 C452 1.367 . S
C453 C455 1.433 . S
C454 C450 1.350 . S
C454 C451 1.463 1_455 S
C454 N458 1.427 . S
C455 H445 0.929 . S
C455 C453 1.433 . S
C455 N458 1.384 . S
C456 H447 0.929 . S
C456 C448 1.378 . S
C456 C451 1.350 . S
C457 H444 0.929 . S
C457 C449 1.433 . S
C457 N459 1.384 . S
N458 C454 1.427 . S
N458 C455 1.384 . S
N459 C451 1.427 . S
N459 C457 1.384 . S
H460 C466 0.930 . S
H461 C470 0.930 . S
H462 C475 0.929 . S
H463 C473 0.929 . S
H464 C468 0.929 . S
H465 C474 0.929 . S
C466 H460 0.930 . S
C466 C467 1.367 . S
C466 C474 1.378 . S
C467 C466 1.367 . S
C467 C475 1.433 . S
C468 H464 0.929 . S
C468 C470 1.378 . S
C468 C472 1.350 . S
C469 C472 1.463 1_565 S
C469 C474 1.350 . S
C469 N477 1.427 . S
C470 H461 0.930 . S
C470 C468 1.378 . S
C470 C471 1.367 . S
C471 C470 1.367 . S
C471 C473 1.433 . S
C472 C468 1.350 . S
C472 C469 1.463 1_545 S
C472 N476 1.427 . S
C473 H463 0.929 . S
C473 C471 1.433 . S
C473 N476 1.384 . S
C474 H465 0.929 . S
C474 C466 1.378 . S
C474 C469 1.350 . S
C475 H462 0.929 . S
C475 C467 1.433 . S
C475 N477 1.384 . S
N476 C472 1.427 . S
N476 C473 1.384 . S
N477 C469 1.427 . S
N477 C475 1.384 . S
H478 C484 0.930 . S
H479 C488 0.930 . S
H480 C493 0.929 . S
H481 C491 0.929 . S
H482 C486 0.929 . S
H483 C492 0.929 . S
C484 H478 0.930 . S
C484 C485 1.367 . S
C484 C492 1.378 . S
C485 C484 1.367 . S
C485 C493 1.433 . S
C486 H482 0.929 . S
C486 C488 1.378 . S
C486 C490 1.350 . S
C487 C490 1.463 1_655 S
C487 C492 1.350 . S
C487 N495 1.427 . S
C488 H479 0.930 . S
C488 C486 1.378 . S
C488 C489 1.367 . S
C489 C488 1.367 . S
C489 C491 1.433 . S
C490 C486 1.350 . S
C490 C487 1.463 1_455 S
C490 N494 1.427 . S
C491 H481 0.929 . S
C491 C489 1.433 . S
C491 N494 1.384 . S
C492 H483 0.929 . S
C492 C484 1.378 . S
C492 C487 1.350 . S
C493 H480 0.929 . S
C493 C485 1.433 . S
C493 N495 1.384 . S
N494 C490 1.427 . S
N494 C491 1.384 . S
N495 C487 1.427 . S
N495 C493 1.384 . S
H496 C502 0.930 . S
H497 C506 0.930 . S
H498 C511 0.929 . S
H499 C509 0.929 . S
H500 C504 0.929 . S
H501 C510 0.929 . S
C502 H496 0.930 . S
C502 C503 1.367 . S
C502 C510 1.378 . S
C503 C502 1.367 . S
C503 C511 1.433 . S
C504 H500 0.929 . S
C504 C506 1.378 . S
C504 C508 1.350 . S
C505 C508 1.463 . S
C505 C510 1.350 . S
C505 N513 1.427 . S
C506 H497 0.930 . S
C506 C504 1.378 . S
C506 C507 1.367 . S
C507 C506 1.367 . S
C507 C509 1.433 . S
C508 C504 1.350 . S
C508 C505 1.463 . S
C508 N512 1.427 . S
C509 H499 0.929 . S
C509 C507 1.433 . S
C509 N512 1.384 . S
C510 H501 0.929 . S
C510 C502 1.378 . S
C510 C505 1.350 . S
C511 H498 0.929 . S
C511 C503 1.433 . S
C511 N513 1.384 . S
N512 C508 1.427 . S
N512 C509 1.384 . S
N513 C505 1.427 . S
N513 C511 1.384 . S
H514 C520 0.930 . S
H515 C524 0.930 . S
H516 C529 0.929 . S
H517 C527 0.929 . S
H518 C522 0.929 . S
H519 C528 0.929 . S
C520 H514 0.930 . S
C520 C521 1.367 . S
C520 C528 1.378 . S
C521 C520 1.367 . S
C521 C529 1.433 . S
C522 H518 0.929 . S
C522 C524 1.378 . S
C522 C526 1.350 . S
C523 C526 1.463 . S
C523 C528 1.350 . S
C523 N531 1.427 . S
C524 H515 0.930 . S
C524 C522 1.378 . S
C524 C525 1.367 . S
C525 C524 1.367 . S
C525 C527 1.433 . S
C526 C522 1.350 . S
C526 C523 1.463 . S
C526 N530 1.427 . S
C527 H517 0.929 . S
C527 C525 1.433 . S
C527 N530 1.384 . S
C528 H519 0.929 . S
C528 C520 1.378 . S
C528 C523 1.350 . S
C529 H516 0.929 . S
C529 C521 1.433 . S
C529 N531 1.384 . S
N530 C526 1.427 . S
N530 C527 1.384 . S
N531 C523 1.427 . S
N531 C529 1.384 . S
H532 C538 0.930 . S
H533 C542 0.930 . S
H534 C547 0.929 . S
H535 C545 0.929 1_556 S
H536 C540 0.929 . S
H537 C546 0.929 . S
C538 H532 0.930 . S
C538 C539 1.367 . S
C538 C546 1.378 . S
C539 C538 1.367 . S
C539 C547 1.433 . S
C540 H536 0.929 . S
C540 C542 1.378 . S
C540 C544 1.350 . S
C541 C544 1.463 . S
C541 C546 1.350 . S
C541 N549 1.427 . S
C542 H533 0.930 . S
C542 C540 1.378 . S
C542 C543 1.367 . S
C543 C542 1.367 . S
C543 C545 1.433 . S
C544 C540 1.350 . S
C544 C541 1.463 . S
C544 N548 1.427 . S
C545 H535 0.929 1_554 S
C545 C543 1.433 . S
C545 N548 1.384 . S
C546 H537 0.929 . S
C546 C538 1.378 . S
C546 C541 1.350 . S
C547 H534 0.929 . S
C547 C539 1.433 . S
C547 N549 1.384 . S
N548 C544 1.427 . S
N548 C545 1.384 . S
N549 C541 1.427 . S
N549 C547 1.384 . S
H550 C556 0.930 1_554 S
H551 C560 0.930 . S
H552 C565 0.929 . S
H553 C563 0.929 . S
H554 C558 0.929 . S
H555 C564 0.929 . S
C556 H550 0.930 1_556 S
C556 C557 1.367 . S
C556 C564 1.378 . S
C557 C556 1.367 . S
C557 C565 1.433 . S
C558 H554 0.929 . S
C558 C560 1.378 . S
C558 C562 1.350 . S
C559 C562 1.463 . S
C559 C564 1.350 . S
C559 N567 1.427 . S
C560 H551 0.930 . S
C560 C558 1.378 . S
C560 C561 1.367 . S
C561 C560 1.367 . S
C561 C563 1.433 . S
C562 C558 1.350 . S
C562 C559 1.463 . S
C562 N566 1.427 . S
C563 H553 0.929 . S
C563 C561 1.433 . S
C563 N566 1.384 . S
C564 H555 0.929 . S
C564 C556 1.378 . S
C564 C559 1.350 . S
C565 H552 0.929 . S
C565 C557 1.433 . S
C565 N567 1.384 . S
N566 C562 1.427 . S
N566 C563 1.384 . S
N567 C559 1.427 . S
N567 C565 1.384 . S
H568 C574 0.930 . S
H569 C578 0.930 . S
H570 C583 0.929 . S
H571 C581 0.929 . S
H572 C576 0.929 . S
H573 C582 0.929 . S
C574 H568 0.930 . S
C574 C575 1.367 . S
C574 C582 1.378 . S
C575 C574 1.367 . S
C575 C583 1.433 . S
C576 H572 0.929 . S
C576 C578 1.378 . S
C576 C580 1.350 . S
C577 C580 1.463 . S
C577 C582 1.350 . S
C577 N585 1.427 . S
C578 H569 0.930 . S
C578 C576 1.378 . S
C578 C579 1.367 . S
C579 C578 1.367 . S
C579 C581 1.433 . S
C580 C576 1.350 . S
C580 C577 1.463 . S
C580 N584 1.427 . S
C581 H571 0.929 . S
C581 C579 1.433 . S
C581 N584 1.384 . S
C582 H573 0.929 . S
C582 C574 1.378 . S
C582 C577 1.350 . S
C583 H570 0.929 . S
C583 C575 1.433 . S
C583 N585 1.384 . S
N584 C580 1.427 . S
N584 C581 1.384 . S
N585 C577 1.427 . S
N585 C583 1.384 . S
H586 C592 0.930 . S
H587 C596 0.930 . S
H588 C601 0.929 . S
H589 C599 0.929 . S
H590 C594 0.929 . S
H591 C600 0.929 . S
C592 H586 0.930 . S
C592 C593 1.367 . S
C592 C600 1.378 . S
C593 C592 1.367 . S
C593 C601 1.433 . S
C594 H590 0.929 . S
C594 C596 1.378 . S
C594 C598 1.350 . S
C595 C598 1.463 . S
C595 C600 1.350 . S
C595 N603 1.427 . S
C596 H587 0.930 . S
C596 C594 1.378 . S
C596 C597 1.367 . S
C597 C596 1.367 . S
C597 C599 1.433 . S
C598 C594 1.350 . S
C598 C595 1.463 . S
C598 N602 1.427 . S
C599 H589 0.929 . S
C599 C597 1.433 . S
C599 N602 1.384 . S
C600 H591 0.929 . S
C600 C592 1.378 . S
C600 C595 1.350 . S
C601 H588 0.929 . S
C601 C593 1.433 . S
C601 N603 1.384 . S
N602 C598 1.427 . S
N602 C599 1.384 . S
N603 C595 1.427 . S
N603 C601 1.384 . S
H604 C610 0.930 . S
H605 C614 0.930 . S
H606 C619 0.929 . S
H607 C617 0.929 . S
H608 C612 0.929 . S
H609 C618 0.929 . S
C610 H604 0.930 . S
C610 C611 1.367 . S
C610 C618 1.378 . S
C611 C610 1.367 . S
C611 C619 1.433 . S
C612 H608 0.929 . S
C612 C614 1.378 . S
C612 C616 1.350 . S
C613 C616 1.463 . S
C613 C618 1.350 . S
C613 N621 1.427 . S
C614 H605 0.930 . S
C614 C612 1.378 . S
C614 C615 1.367 . S
C615 C614 1.367 . S
C615 C617 1.433 . S
C616 C612 1.350 . S
C616 C613 1.463 . S
C616 N620 1.427 . S
C617 H607 0.929 . S
C617 C615 1.433 . S
C617 N620 1.384 . S
C618 H609 0.929 . S
C618 C610 1.378 . S
C618 C613 1.350 . S
C619 H606 0.929 . S
C619 C611 1.433 . S
C619 N621 1.384 . S
N620 C616 1.427 . S
N620 C617 1.384 . S
N621 C613 1.427 . S
N621 C619 1.384 . S
H622 C628 0.930 . S
H623 C632 0.930 . S
H624 C637 0.929 . S
H625 C635 0.929 . S
H626 C630 0.929 . S
H627 C636 0.929 . S
C628 H622 0.930 . S
C628 C629 1.367 . S
C628 C636 1.378 . S
C629 C628 1.367 . S
C629 C637 1.433 . S
C630 H626 0.929 . S
C630 C632 1.378 . S
C630 C634 1.350 . S
C631 C634 1.463 . S
C631 C636 1.350 . S
C631 N639 1.427 . S
C632 H623 0.930 . S
C632 C630 1.378 . S
C632 C633 1.367 . S
C633 C632 1.367 . S
C633 C635 1.433 . S
C634 C630 1.350 . S
C634 C631 1.463 . S
C634 N638 1.427 . S
C635 H625 0.929 . S
C635 C633 1.433 . S
C635 N638 1.384 . S
C636 H627 0.929 . S
C636 C628 1.378 . S
C636 C631 1.350 . S
C637 H624 0.929 . S
C637 C629 1.433 . S
C637 N639 1.384 . S
N638 C634 1.427 . S
N638 C635 1.384 . S
N639 C631 1.427 . S
N639 C637 1.384 . S
H640 C646 0.930 . S
H641 C650 0.930 1_554 S
H642 C655 0.929 . S
H643 C653 0.929 . S
H644 C648 0.929 . S
H645 C654 0.929 . S
C646 H640 0.930 . S
C646 C647 1.367 . S
C646 C654 1.378 . S
C647 C646 1.367 . S
C647 C655 1.433 . S
C648 H644 0.929 . S
C648 C650 1.378 . S
C648 C652 1.350 . S
C649 C652 1.463 . S
C649 C654 1.350 . S
C649 N657 1.427 . S
C650 H641 0.930 1_556 S
C650 C648 1.378 . S
C650 C651 1.367 . S
C651 C650 1.367 . S
C651 C653 1.433 . S
C652 C648 1.350 . S
C652 C649 1.463 . S
C652 N656 1.427 . S
C653 H643 0.929 . S
C653 C651 1.433 . S
C653 N656 1.384 . S
C654 H645 0.929 . S
C654 C646 1.378 . S
C654 C649 1.350 . S
C655 H642 0.929 . S
C655 C647 1.433 . S
C655 N657 1.384 . S
N656 C652 1.427 . S
N656 C653 1.384 . S
N657 C649 1.427 . S
N657 C655 1.384 . S
H658 C664 0.930 . S
H659 C668 0.930 . S
H660 C673 0.929 . S
H661 C671 0.929 . S
H662 C666 0.929 . S
H663 C672 0.929 . S
C664 H658 0.930 . S
C664 C665 1.367 . S
C664 C672 1.378 . S
C665 C664 1.367 . S
C665 C673 1.433 . S
C666 H662 0.929 . S
C666 C668 1.378 . S
C666 C670 1.350 . S
C667 C670 1.463 . S
C667 C672 1.350 . S
C667 N675 1.427 . S
C668 H659 0.930 . S
C668 C666 1.378 . S
C668 C669 1.367 . S
C669 C668 1.367 . S
C669 C671 1.433 . S
C670 C666 1.350 . S
C670 C667 1.463 . S
C670 N674 1.427 . S
C671 H661 0.929 . S
C671 C669 1.433 . S
C671 N674 1.384 . S
C672 H663 0.929 . S
C672 C664 1.378 . S
C672 C667 1.350 . S
C673 H660 0.929 . S
C673 C665 1.433 . S
C673 N675 1.384 . S
N674 C670 1.427 . S
N674 C671 1.384 . S
N675 C667 1.427 . S
N675 C673 1.384 . S
H676 C682 0.930 . S
H677 C686 0.930 . S
H678 C691 0.929 1_554 S
H679 C689 0.929 . S
H680 C684 0.929 . S
H681 C690 0.929 . S
C682 H676 0.930 . S
C682 C683 1.367 . S
C682 C690 1.378 . S
C683 C682 1.367 . S
C683 C691 1.433 . S
C684 H680 0.929 . S
C684 C686 1.378 . S
C684 C688 1.350 . S
C685 C688 1.463 . S
C685 C690 1.350 . S
C685 N693 1.427 . S
C686 H677 0.930 . S
C686 C684 1.378 . S
C686 C687 1.367 . S
C687 C686 1.367 . S
C687 C689 1.433 . S
C688 C684 1.350 . S
C688 C685 1.463 . S
C688 N692 1.427 . S
C689 H679 0.929 . S
C689 C687 1.433 . S
C689 N692 1.384 . S
C690 H681 0.929 . S
C690 C682 1.378 . S
C690 C685 1.350 . S
C691 H678 0.929 1_556 S
C691 C683 1.433 . S
C691 N693 1.384 . S
N692 C688 1.427 . S
N692 C689 1.384 . S
N693 C685 1.427 . S
N693 C691 1.384 . S
H694 C700 0.930 . S
H695 C704 0.930 . S
H696 C709 0.929 . S
H697 C707 0.929 . S
H698 C702 0.929 . S
H699 C708 0.929 . S
C700 H694 0.930 . S
C700 C701 1.367 . S
C700 C708 1.378 . S
C701 C700 1.367 . S
C701 C709 1.433 . S
C702 H698 0.929 . S
C702 C704 1.378 . S
C702 C706 1.350 . S
C703 C706 1.463 . S
C703 C708 1.350 . S
C703 N711 1.427 . S
C704 H695 0.930 . S
C704 C702 1.378 . S
C704 C705 1.367 . S
C705 C704 1.367 . S
C705 C707 1.433 1_554 S
C706 C702 1.350 . S
C706 C703 1.463 . S
C706 N710 1.427 . S
C707 H697 0.929 . S
C707 C705 1.433 1_556 S
C707 N710 1.384 1_556 S
C708 H699 0.929 . S
C708 C700 1.378 . S
C708 C703 1.350 . S
C709 H696 0.929 . S
C709 C701 1.433 . S
C709 N711 1.384 . S
N710 C706 1.427 . S
N710 C707 1.384 1_554 S
N711 C703 1.427 . S
N711 C709 1.384 . S
H712 C718 0.930 . S
H713 C722 0.930 . S
H714 C727 0.929 . S
H715 C725 0.929 . S
H716 C720 0.929 . S
H717 C726 0.929 . S
C718 H712 0.930 . S
C718 C719 1.367 . S
C718 C726 1.378 . S
C719 C718 1.367 . S
C719 C727 1.433 . S
C720 H716 0.929 . S
C720 C722 1.378 . S
C720 C724 1.350 . S
C721 C724 1.463 . S
C721 C726 1.350 . S
C721 N729 1.427 . S
C722 H713 0.930 . S
C722 C720 1.378 . S
C722 C723 1.367 . S
C723 C722 1.367 . S
C723 C725 1.433 . S
C724 C720 1.350 . S
C724 C721 1.463 . S
C724 N728 1.427 . S
C725 H715 0.929 . S
C725 C723 1.433 . S
C725 N728 1.384 . S
C726 H717 0.929 . S
C726 C718 1.378 . S
C726 C721 1.350 . S
C727 H714 0.929 . S
C727 C719 1.433 . S
C727 N729 1.384 . S
N728 C724 1.427 . S
N728 C725 1.384 . S
N729 C721 1.427 . S
N729 C727 1.384 . S
H730 C736 0.930 . S
H731 C740 0.930 . S
H732 C745 0.929 . S
H733 C743 0.929 . S
H734 C738 0.929 . S
H735 C744 0.929 . S
C736 H730 0.930 . S
C736 C737 1.367 . S
C736 C744 1.378 . S
C737 C736 1.367 . S
C737 C745 1.433 . S
C738 H734 0.929 . S
C738 C740 1.378 . S
C738 C742 1.350 . S
C739 C742 1.463 . S
C739 C744 1.350 . S
C739 N747 1.427 . S
C740 H731 0.930 . S
C740 C738 1.378 . S
C740 C741 1.367 . S
C741 C740 1.367 . S
C741 C743 1.433 . S
C742 C738 1.350 . S
C742 C739 1.463 . S
C742 N746 1.427 . S
C743 H733 0.929 . S
C743 C741 1.433 . S
C743 N746 1.384 . S
C744 H735 0.929 . S
C744 C736 1.378 . S
C744 C739 1.350 . S
C745 H732 0.929 . S
C745 C737 1.433 . S
C745 N747 1.384 . S
N746 C742 1.427 . S
N746 C743 1.384 . S
N747 C739 1.427 . S
N747 C745 1.384 . S
H748 C754 0.930 . S
H749 C758 0.930 . S
H750 C763 0.929 . S
H751 C761 0.929 . S
H752 C756 0.929 . S
H753 C762 0.929 . S
C754 H748 0.930 . S
C754 C755 1.367 . S
C754 C762 1.378 . S
C755 C754 1.367 . S
C755 C763 1.433 . S
C756 H752 0.929 . S
C756 C758 1.378 . S
C756 C760 1.350 . S
C757 C760 1.463 . S
C757 C762 1.350 . S
C757 N765 1.427 . S
C758 H749 0.930 . S
C758 C756 1.378 . S
C758 C759 1.367 . S
C759 C758 1.367 . S
C759 C761 1.433 . S
C760 C756 1.350 . S
C760 C757 1.463 . S
C760 N764 1.427 . S
C761 H751 0.929 . S
C761 C759 1.433 . S
C761 N764 1.384 . S
C762 H753 0.929 . S
C762 C754 1.378 . S
C762 C757 1.350 . S
C763 H750 0.929 . S
C763 C755 1.433 . S
C763 N765 1.384 . S
N764 C760 1.427 . S
N764 C761 1.384 . S
N765 C757 1.427 . S
N765 C763 1.384 . S
H766 C772 0.930 . S
H767 C776 0.930 . S
H768 C781 0.929 . S
H769 C779 0.929 . S
H770 C774 0.929 . S
H771 C780 0.929 . S
C772 H766 0.930 . S
C772 C773 1.367 . S
C772 C780 1.378 . S
C773 C772 1.367 . S
C773 C781 1.433 . S
C774 H770 0.929 . S
C774 C776 1.378 . S
C774 C778 1.350 . S
C775 C778 1.463 . S
C775 C780 1.350 . S
C775 N783 1.427 . S
C776 H767 0.930 . S
C776 C774 1.378 . S
C776 C777 1.367 . S
C777 C776 1.367 . S
C777 C779 1.433 . S
C778 C774 1.350 . S
C778 C775 1.463 . S
C778 N782 1.427 . S
C779 H769 0.929 . S
C779 C777 1.433 . S
C779 N782 1.384 . S
C780 H771 0.929 . S
C780 C772 1.378 . S
C780 C775 1.350 . S
C781 H768 0.929 . S
C781 C773 1.433 . S
C781 N783 1.384 . S
N782 C778 1.427 . S
N782 C779 1.384 . S
N783 C775 1.427 . S
N783 C781 1.384 . S
C215 C148 1.392 . S
C219 C5 1.367 . S
C233 C18 1.367 . S
C237 C107 1.396 . S
C251 C29 1.369 . S
C255 C122 1.398 . S
C269 C135 1.395 . S
C273 C42 1.379 . S
C287 C55 1.379 1_556 S
C291 C70 1.395 . S
C305 C68 1.375 1_554 S
C309 C83 1.400 . S
C323 C96 1.400 . S
C327 C81 1.375 . S
C341 C57 1.395 . S
C345 C94 1.380 1_554 S
C359 C44 1.398 . S
C363 C109 1.369 . S
C377 C120 1.367 . S
C381 C3 1.396 . S
C395 C16 1.392 . S
C399 C133 1.377 . S
C413 C146 1.367 . S
C417 C31 1.393 . S
C431 C161 1.379 . S
C435 C172 1.395 . S
C449 C174 1.366 . S
C453 C185 1.394 . S
C467 C200 1.392 . S
C471 C187 1.375 . S
C485 C159 1.397 . S
C489 C198 1.380 . S
C503 C62 1.144 . S
C507 C4 1.150 . S
C521 C17 1.138 . S
C525 C75 1.132 . S
C539 C36 1.136 . S
C543 C88 1.131 . S
C557 C101 1.148 . S
C561 C49 1.150 . S
C575 C108 1.136 . S
C579 C160 1.131 . S
C593 C173 1.150 . S
C597 C127 1.145 . S
C611 C140 1.131 . S
C615 C186 1.137 . S
C629 C205 1.132 . S
C633 C153 1.131 . S
C647 C192 1.566 . S
C651 C10 1.564 1_556 S
C665 C199 1.568 . S
C669 C23 1.565 1_554 S
C683 C30 1.567 1_556 S
C687 C166 1.569 . S
C701 C179 1.570 . S
C705 C43 1.570 1_554 S
C719 C134 1.566 . S
C723 C56 1.568 . S
C737 C147 1.568 . S
C741 C69 1.565 . S
C755 C82 1.566 . S
C759 C114 1.568 . S
C773 C121 1.563 . S
C777 C95 1.564 . S
