# Generated by pormake.
# Topology unv, (4)-cn, num edge types: 1
# Building blocks:
#     Node 0, Type 0, BuildingBlock: GALJAG_clean_sbu_0, # of connection points: 4
#     Node 1, Type 0, BuildingBlock: GALJAG_clean_sbu_0, # of connection points: 4
#     Node 2, Type 0, BuildingBlock: GALJAG_clean_sbu_0, # of connection points: 4
#     Node 3, Type 0, BuildingBlock: GALJAG_clean_sbu_0, # of connection points: 4
#     Node 4, Type 0, BuildingBlock: GALJAG_clean_sbu_0, # of connection points: 4
#     Node 5, Type 0, BuildingBlock: GALJAG_clean_sbu_0, # of connection points: 4
#     Node 6, Type 0, BuildingBlock: GALJAG_clean_sbu_0, # of connection points: 4
#     Node 7, Type 0, BuildingBlock: GALJAG_clean_sbu_0, # of connection points: 4
#     Node 8, Type 0, BuildingBlock: GALJAG_clean_sbu_0, # of connection points: 4
#     Node 9, Type 0, BuildingBlock: GALJAG_clean_sbu_0, # of connection points: 4
#     Node 10, Type 0, BuildingBlock: GALJAG_clean_sbu_0, # of connection points: 4
#     Node 11, Type 0, BuildingBlock: GALJAG_clean_sbu_0, # of connection points: 4
#     Node 12, Type 0, BuildingBlock: GALJAG_clean_sbu_0, # of connection points: 4
#     Node 13, Type 0, BuildingBlock: GALJAG_clean_sbu_0, # of connection points: 4
#     Node 14, Type 0, BuildingBlock: GALJAG_clean_sbu_0, # of connection points: 4
#     Node 15, Type 0, BuildingBlock: GALJAG_clean_sbu_0, # of connection points: 4
#     Node 16, Type 0, BuildingBlock: GALJAG_clean_sbu_0, # of connection points: 4
#     Node 17, Type 0, BuildingBlock: GALJAG_clean_sbu_0, # of connection points: 4
#     Node 18, Type 0, BuildingBlock: GALJAG_clean_sbu_0, # of connection points: 4
#     Node 19, Type 0, BuildingBlock: GALJAG_clean_sbu_0, # of connection points: 4
#     Node 20, Type 0, BuildingBlock: GALJAG_clean_sbu_0, # of connection points: 4
#     Node 21, Type 0, BuildingBlock: GALJAG_clean_sbu_0, # of connection points: 4
#     Node 22, Type 0, BuildingBlock: GALJAG_clean_sbu_0, # of connection points: 4
#     Node 23, Type 0, BuildingBlock: GALJAG_clean_sbu_0, # of connection points: 4
#     Edge 24, Type (0, 0), BuildingBlock: XIVTED_clean_linker_0, # of connection points: 2
#     Edge 25, Type (0, 0), BuildingBlock: XIVTED_clean_linker_0, # of connection points: 2
#     Edge 26, Type (0, 0), BuildingBlock: XIVTED_clean_linker_0, # of connection points: 2
#     Edge 27, Type (0, 0), BuildingBlock: XIVTED_clean_linker_0, # of connection points: 2
#     Edge 28, Type (0, 0), BuildingBlock: XIVTED_clean_linker_0, # of connection points: 2
#     Edge 29, Type (0, 0), BuildingBlock: XIVTED_clean_linker_0, # of connection points: 2
#     Edge 30, Type (0, 0), BuildingBlock: XIVTED_clean_linker_0, # of connection points: 2
#     Edge 31, Type (0, 0), BuildingBlock: XIVTED_clean_linker_0, # of connection points: 2
#     Edge 32, Type (0, 0), BuildingBlock: XIVTED_clean_linker_0, # of connection points: 2
#     Edge 33, Type (0, 0), BuildingBlock: XIVTED_clean_linker_0, # of connection points: 2
#     Edge 34, Type (0, 0), BuildingBlock: XIVTED_clean_linker_0, # of connection points: 2
#     Edge 35, Type (0, 0), BuildingBlock: XIVTED_clean_linker_0, # of connection points: 2
#     Edge 36, Type (0, 0), BuildingBlock: XIVTED_clean_linker_0, # of connection points: 2
#     Edge 37, Type (0, 0), BuildingBlock: XIVTED_clean_linker_0, # of connection points: 2
#     Edge 38, Type (0, 0), BuildingBlock: XIVTED_clean_linker_0, # of connection points: 2
#     Edge 39, Type (0, 0), BuildingBlock: XIVTED_clean_linker_0, # of connection points: 2
#     Edge 40, Type (0, 0), BuildingBlock: XIVTED_clean_linker_0, # of connection points: 2
#     Edge 41, Type (0, 0), BuildingBlock: XIVTED_clean_linker_0, # of connection points: 2
#     Edge 42, Type (0, 0), BuildingBlock: XIVTED_clean_linker_0, # of connection points: 2
#     Edge 43, Type (0, 0), BuildingBlock: XIVTED_clean_linker_0, # of connection points: 2
#     Edge 44, Type (0, 0), BuildingBlock: XIVTED_clean_linker_0, # of connection points: 2
#     Edge 45, Type (0, 0), BuildingBlock: XIVTED_clean_linker_0, # of connection points: 2
#     Edge 46, Type (0, 0), BuildingBlock: XIVTED_clean_linker_0, # of connection points: 2
#     Edge 47, Type (0, 0), BuildingBlock: XIVTED_clean_linker_0, # of connection points: 2
#     Edge 48, Type (0, 0), BuildingBlock: XIVTED_clean_linker_0, # of connection points: 2
#     Edge 49, Type (0, 0), BuildingBlock: XIVTED_clean_linker_0, # of connection points: 2
#     Edge 50, Type (0, 0), BuildingBlock: XIVTED_clean_linker_0, # of connection points: 2
#     Edge 51, Type (0, 0), BuildingBlock: XIVTED_clean_linker_0, # of connection points: 2
#     Edge 52, Type (0, 0), BuildingBlock: XIVTED_clean_linker_0, # of connection points: 2
#     Edge 53, Type (0, 0), BuildingBlock: XIVTED_clean_linker_0, # of connection points: 2
#     Edge 54, Type (0, 0), BuildingBlock: XIVTED_clean_linker_0, # of connection points: 2
#     Edge 55, Type (0, 0), BuildingBlock: XIVTED_clean_linker_0, # of connection points: 2
#     Edge 56, Type (0, 0), BuildingBlock: XIVTED_clean_linker_0, # of connection points: 2
#     Edge 57, Type (0, 0), BuildingBlock: XIVTED_clean_linker_0, # of connection points: 2
#     Edge 58, Type (0, 0), BuildingBlock: XIVTED_clean_linker_0, # of connection points: 2
#     Edge 59, Type (0, 0), BuildingBlock: XIVTED_clean_linker_0, # of connection points: 2
#     Edge 60, Type (0, 0), BuildingBlock: XIVTED_clean_linker_0, # of connection points: 2
#     Edge 61, Type (0, 0), BuildingBlock: XIVTED_clean_linker_0, # of connection points: 2
#     Edge 62, Type (0, 0), BuildingBlock: XIVTED_clean_linker_0, # of connection points: 2
#     Edge 63, Type (0, 0), BuildingBlock: XIVTED_clean_linker_0, # of connection points: 2
#     Edge 64, Type (0, 0), BuildingBlock: XIVTED_clean_linker_0, # of connection points: 2
#     Edge 65, Type (0, 0), BuildingBlock: XIVTED_clean_linker_0, # of connection points: 2
#     Edge 66, Type (0, 0), BuildingBlock: XIVTED_clean_linker_0, # of connection points: 2
#     Edge 67, Type (0, 0), BuildingBlock: XIVTED_clean_linker_0, # of connection points: 2
#     Edge 68, Type (0, 0), BuildingBlock: XIVTED_clean_linker_0, # of connection points: 2
#     Edge 69, Type (0, 0), BuildingBlock: XIVTED_clean_linker_0, # of connection points: 2
#     Edge 70, Type (0, 0), BuildingBlock: XIVTED_clean_linker_0, # of connection points: 2
#     Edge 71, Type (0, 0), BuildingBlock: XIVTED_clean_linker_0, # of connection points: 2
# Relax obj value: 0.404
# Max RMSD: 0.239
# Mean RMSD: 0.210
data_MOF--net-unv--node1-GALJAG_clean_sbu_0--edge1-XIVTED_clean_linker_0
_symmetry_space_group_name_H-M    P1
_symmetry_Int_Tables_number       1
_symmetry_cell_setting            triclinic
loop_
_symmetry_equiv_pos_as_xyz
'x, y, z'
_cell_length_a     48.767754
_cell_length_b     48.768343
_cell_length_c     48.880256
_cell_angle_alpha  90.020263
_cell_angle_beta   89.986496
_cell_angle_gamma 89.940614
loop_
_atom_site_label
_atom_site_type_symbol
_atom_site_fract_x
_atom_site_fract_y
_atom_site_fract_z
_atom_type_partial_charge
In0 In 0.04754 0.09494 0.38152 0.0
O1 O 0.07103 0.07681 0.345 0.0
O2 O 0.02779 0.08156 0.34207 0.0
C3 C 0.08773 0.09554 0.41946 0.0
C4 C 0.03099 0.1466 0.37129 0.0
C5 C 0.01595 0.05636 0.4051 0.0
O6 O 0.09203 0.08829 0.39503 0.0
O7 O 0.06368 0.10381 0.42417 0.0
O8 O 0.011 0.08164 0.40769 0.0
O9 O 0.03691 0.05076 0.3911 0.0
C10 C 0.04953 0.07297 0.33108 0.0
O11 O 0.01514 0.128 0.37957 0.0
O12 O 0.0557 0.13935 0.36836 0.0
In13 In 0.93915 0.38764 0.37339 0.0
O14 O 0.9732 0.35627 0.37013 0.0
O15 O 0.933 0.3433 0.3593 0.0
C16 C 0.96947 0.42896 0.39384 0.0
C17 C 0.92956 0.41228 0.32498 0.0
C18 C 0.90409 0.38032 0.41539 0.0
O19 O 0.97889 0.40499 0.39115 0.0
O20 O 0.94477 0.43178 0.38686 0.0
O21 O 0.89593 0.38505 0.39132 0.0
O22 O 0.92974 0.37826 0.4179 0.0
C23 C 0.958 0.33702 0.36206 0.0
O24 O 0.9107 0.4084 0.34225 0.0
O25 O 0.9523 0.40177 0.33134 0.0
In26 In 0.01036 0.90551 0.13958 0.0
O27 O 0.98353 0.86904 0.15138 0.0
O28 O 0.02661 0.86527 0.15656 0.0
C29 C 0.97064 0.94075 0.12423 0.0
C30 C 0.02601 0.93318 0.18439 0.0
C31 C 0.04017 0.90159 0.09314 0.0
O32 O 0.96825 0.91523 0.12051 0.0
O33 O 0.99278 0.94812 0.13519 0.0
O34 O 0.05066 0.90815 0.11579 0.0
O35 O 0.01486 0.89657 0.09405 0.0
C36 C 0.00337 0.85428 0.15898 0.0
O37 O 0.04114 0.93137 0.16345 0.0
O38 O 0.00365 0.92018 0.18294 0.0
In39 In 0.96556 0.60466 0.16377 0.0
O40 O 0.93229 0.57781 0.18289 0.0
O41 O 0.96641 0.58928 0.20745 0.0
C42 C 0.94197 0.61419 0.11475 0.0
C43 C 0.97449 0.65574 0.18254 0.0
C44 C 0.00486 0.56816 0.15062 0.0
O45 O 0.92806 0.60901 0.13591 0.0
O46 O 0.96754 0.61443 0.11839 0.0
O47 O 0.00995 0.59345 0.15289 0.0
O48 O 0.98016 0.56163 0.15443 0.0
C49 C 0.94465 0.57541 0.20547 0.0
O50 O 0.9936 0.63873 0.17867 0.0
O51 O 0.95074 0.64663 0.17793 0.0
In52 In 0.37792 0.03985 0.09873 0.0
O53 O 0.37517 0.00587 0.13017 0.0
O54 O 0.35498 0.04348 0.13937 0.0
C55 C 0.40906 0.01498 0.06072 0.0
C56 C 0.33187 0.04109 0.06848 0.0
C57 C 0.41472 0.07961 0.10936 0.0
O58 O 0.40285 0.00323 0.08293 0.0
O59 O 0.39984 0.039 0.05813 0.0
O60 O 0.39206 0.08452 0.0978 0.0
O61 O 0.41768 0.05517 0.1173 0.0
C62 C 0.36052 0.01926 0.14673 0.0
O63 O 0.34116 0.06258 0.07963 0.0
O64 O 0.34502 0.01952 0.07382 0.0
In65 In 0.60356 0.47276 0.0909 0.0
O66 O 0.64165 0.45606 0.06953 0.0
O67 O 0.6314 0.49824 0.06416 0.0
C68 C 0.57816 0.42449 0.08209 0.0
C69 C 0.61759 0.47705 0.1441 0.0
C70 C 0.56906 0.5091 0.06736 0.0
O71 O 0.59855 0.43231 0.06826 0.0
O72 O 0.57151 0.4404 0.10135 0.0
O73 O 0.59017 0.51677 0.0802 0.0
O74 O 0.56497 0.48364 0.06773 0.0
C75 C 0.64737 0.47873 0.05835 0.0
O76 O 0.59384 0.48236 0.13552 0.0
O77 O 0.63442 0.47014 0.12588 0.0
In78 In 0.34303 0.93006 0.38232 0.0
O79 O 0.32624 0.96121 0.35211 0.0
O80 O 0.33401 0.92075 0.33764 0.0
C81 C 0.34929 0.96419 0.42533 0.0
C82 C 0.30327 0.8988 0.40446 0.0
C83 C 0.39541 0.91668 0.37044 0.0
O84 O 0.34311 0.97285 0.40177 0.0
O85 O 0.3525 0.93861 0.42698 0.0
O86 O 0.37713 0.89863 0.37372 0.0
O87 O 0.38723 0.941 0.37344 0.0
C88 C 0.32664 0.94494 0.33202 0.0
O89 O 0.32813 0.89154 0.40429 0.0
O90 O 0.29838 0.9208 0.39179 0.0
In91 In 0.63278 0.48635 0.39612 0.0
O92 O 0.63548 0.51644 0.43149 0.0
O93 O 0.67062 0.51168 0.406 0.0
C94 C 0.58274 0.50912 0.3897 0.0
C95 C 0.64618 0.47281 0.3444 0.0
C96 C 0.63903 0.44151 0.4279 0.0
O97 O 0.58692 0.48835 0.40445 0.0
O98 O 0.6039 0.51879 0.37849 0.0
O99 O 0.61759 0.4463 0.41431 0.0
O100 O 0.65795 0.4588 0.42464 0.0
C101 C 0.66001 0.52315 0.42666 0.0
O102 O 0.6316 0.45786 0.3595 0.0
O103 O 0.65534 0.49407 0.35585 0.0
In104 In 0.09729 0.38061 0.02144 0.0
O105 O 0.07792 0.34582 0.04602 0.0
O106 O 0.08421 0.34018 0.00327 0.0
C107 C 0.10137 0.41894 0.06086 0.0
C108 C 0.1483 0.36806 0.00493 0.0
C109 C 0.05592 0.4029 0.99254 0.0
O110 O 0.09539 0.39429 0.06596 0.0
O111 O 0.1066 0.42386 0.03607 0.0
O112 O 0.08063 0.40575 0.98525 0.0
O113 O 0.05252 0.38937 0.0142 0.0
C114 C 0.07473 0.33063 0.02531 0.0
O115 O 0.13069 0.37852 0.98915 0.0
O116 O 0.14036 0.3645 0.02925 0.0
In117 In 0.08962 0.62234 0.51231 0.0
O118 O 0.06529 0.65498 0.4894 0.0
O119 O 0.08304 0.6654 0.52789 0.0
C120 C 0.07119 0.58613 0.47518 0.0
C121 C 0.14404 0.63027 0.50799 0.0
C122 C 0.06378 0.60107 0.55653 0.0
O123 O 0.05975 0.60903 0.47914 0.0
O124 O 0.09251 0.58199 0.48923 0.0
O125 O 0.07803 0.58658 0.54062 0.0
O126 O 0.06438 0.62628 0.55127 0.0
C127 C 0.0684 0.67283 0.50791 0.0
O128 O 0.13296 0.6228 0.53008 0.0
O129 O 0.12775 0.6334 0.48826 0.0
In130 In 0.90427 0.87036 0.54162 0.0
O131 O 0.85891 0.87811 0.55125 0.0
O132 O 0.86884 0.84361 0.52706 0.0
C133 C 0.92911 0.8882 0.5877 0.0
C134 C 0.93738 0.82752 0.53223 0.0
C135 C 0.91613 0.90913 0.50425 0.0
O136 O 0.91866 0.86461 0.58595 0.0
O137 O 0.9251 0.90318 0.56712 0.0
O138 O 0.92531 0.88499 0.50285 0.0
O139 O 0.90034 0.91361 0.52421 0.0
C140 C 0.8503 0.85809 0.53749 0.0
O141 O 0.92929 0.84313 0.51323 0.0
O142 O 0.92806 0.83306 0.5557 0.0
In143 In 0.40036 0.63664 0.47946 0.0
O144 O 0.35753 0.64077 0.46144 0.0
O145 O 0.36247 0.64781 0.50408 0.0
C146 C 0.42007 0.61073 0.4347 0.0
C147 C 0.42356 0.68637 0.48331 0.0
C148 C 0.41914 0.59929 0.51553 0.0
O149 O 0.40207 0.60025 0.44994 0.0
O150 O 0.42678 0.63478 0.44114 0.0
O151 O 0.4338 0.61867 0.50671 0.0
O152 O 0.39473 0.59947 0.50705 0.0
C153 C 0.34631 0.64643 0.48401 0.0
O154 O 0.42371 0.66957 0.503 0.0
O155 O 0.41059 0.67848 0.4624 0.0
In156 In 0.48045 0.59861 0.8445 0.0
O157 O 0.46288 0.64164 0.83881 0.0
O158 O 0.50572 0.63602 0.83311 0.0
C159 C 0.42998 0.57696 0.85183 0.0
C160 C 0.50278 0.56898 0.80372 0.0
C161 C 0.50222 0.58473 0.89318 0.0
O162 O 0.44225 0.59021 0.87027 0.0
O163 O 0.44189 0.57729 0.82897 0.0
O164 O 0.495 0.56741 0.87545 0.0
O165 O 0.49963 0.60945 0.88598 0.0
C166 C 0.48576 0.65246 0.83344 0.0
O167 O 0.51432 0.57132 0.82673 0.0
O168 O 0.48121 0.58301 0.80094 0.0
In169 In 0.53127 0.90583 0.85906 0.0
O170 O 0.54548 0.86132 0.85267 0.0
O171 O 0.50378 0.87096 0.84527 0.0
C172 C 0.58091 0.92368 0.8757 0.0
C173 C 0.51717 0.93564 0.81501 0.0
C174 C 0.50263 0.92504 0.90212 0.0
O175 O 0.5645 0.9114 0.89142 0.0
O176 O 0.57328 0.92457 0.85107 0.0
O177 O 0.50851 0.93937 0.8815 0.0
O178 O 0.51075 0.90047 0.90098 0.0
C179 C 0.52212 0.85284 0.84556 0.0
O180 O 0.50051 0.93025 0.83402 0.0
O181 O 0.54069 0.92512 0.81774 0.0
In182 In 0.52421 0.38857 0.62601 0.0
O183 O 0.49352 0.35539 0.616 0.0
O184 O 0.52313 0.3467 0.64691 0.0
C185 C 0.50048 0.43135 0.60024 0.0
C186 C 0.52531 0.41271 0.67539 0.0
C187 C 0.56549 0.37588 0.59168 0.0
O188 O 0.48697 0.41063 0.60778 0.0
O189 O 0.52582 0.43003 0.60501 0.0
O190 O 0.56991 0.38702 0.61463 0.0
O191 O 0.54066 0.37087 0.58668 0.0
C192 C 0.50316 0.33822 0.63275 0.0
O193 O 0.54713 0.40714 0.66254 0.0
O194 O 0.50361 0.40434 0.66413 0.0
In195 In 0.46616 0.08319 0.61177 0.0
O196 O 0.48135 0.12519 0.59887 0.0
O197 O 0.45411 0.12324 0.63286 0.0
C198 C 0.50456 0.05015 0.58988 0.0
C199 C 0.47314 0.06488 0.66295 0.0
C200 C 0.42364 0.07238 0.57802 0.0
O201 O 0.50709 0.07593 0.5895 0.0
O202 O 0.4828 0.04152 0.60071 0.0
O203 O 0.42444 0.0638 0.60235 0.0
O204 O 0.44346 0.08747 0.57135 0.0
C205 C 0.46839 0.13801 0.61718 0.0
O206 O 0.44976 0.06563 0.65173 0.0
O207 O 0.49245 0.07481 0.64887 0.0
In208 In 0.82705 0.52121 0.5986 0.0
O209 O 0.8127 0.55342 0.56825 0.0
O210 O 0.78232 0.53085 0.59007 0.0
C211 C 0.88041 0.53597 0.59911 0.0
C212 C 0.81346 0.52433 0.65179 0.0
C213 C 0.82635 0.47583 0.56703 0.0
O214 O 0.86126 0.55307 0.59591 0.0
O215 O 0.87269 0.51147 0.60148 0.0
O216 O 0.83081 0.47453 0.59247 0.0
O217 O 0.82225 0.49964 0.55795 0.0
C218 C 0.78748 0.54874 0.57206 0.0
O219 O 0.81216 0.50207 0.63864 0.0
O220 O 0.82086 0.54477 0.63791 0.0
In221 In 0.16887 0.94635 0.60017 0.0
O222 O 0.19295 0.97122 0.63169 0.0
O223 O 0.18449 0.92965 0.6408 0.0
C224 C 0.16641 0.99266 0.56975 0.0
C225 C 0.19095 0.91171 0.56327 0.0
C226 C 0.11764 0.93123 0.61482 0.0
O227 O 0.14844 0.98621 0.5871 0.0
O228 O 0.18626 0.97614 0.56815 0.0
O229 O 0.13542 0.914 0.60722 0.0
O230 O 0.12569 0.95575 0.61471 0.0
C231 C 0.19447 0.95203 0.64886 0.0
O232 O 0.16649 0.92011 0.56174 0.0
O233 O 0.20404 0.92015 0.58393 0.0
In234 In 0.84949 0.53066 0.90672 0.0
O235 O 0.84104 0.55268 0.86617 0.0
O236 O 0.83878 0.50924 0.86707 0.0
C237 C 0.86336 0.57492 0.93732 0.0
C238 C 0.80371 0.51336 0.93152 0.0
C239 C 0.89321 0.49783 0.91433 0.0
O240 O 0.87914 0.56493 0.91951 0.0
O241 O 0.84022 0.56368 0.9384 0.0
O242 O 0.86989 0.4927 0.92428 0.0
O243 O 0.8944 0.51934 0.90003 0.0
C244 C 0.83635 0.53081 0.85319 0.0
O245 O 0.82655 0.50152 0.93477 0.0
O246 O 0.80399 0.53363 0.9154 0.0
In247 In 0.1486 0.00591 0.89336 0.0
O248 O 0.16433 0.03369 0.92757 0.0
O249 O 0.19347 0.01128 0.90401 0.0
C250 C 0.10484 0.03952 0.88862 0.0
C251 C 0.16836 0.99415 0.84309 0.0
C252 C 0.13212 0.96438 0.92638 0.0
O253 O 0.12798 0.0478 0.8967 0.0
O254 O 0.10408 0.01455 0.88201 0.0
O255 O 0.11744 0.97356 0.90728 0.0
O256 O 0.1554 0.97529 0.92806 0.0
C257 C 0.18921 0.02756 0.92366 0.0
O258 O 0.16185 0.97583 0.86007 0.0
O259 O 0.16448 0.01834 0.85127 0.0
In260 In 0.60913 0.86362 0.45471 0.0
O261 O 0.65419 0.87052 0.44392 0.0
O262 O 0.64464 0.83716 0.46983 0.0
C263 C 0.58383 0.87788 0.40772 0.0
C264 C 0.5721 0.82465 0.4666 0.0
C265 C 0.60282 0.90505 0.49035 0.0
O266 O 0.59489 0.8547 0.41088 0.0
O267 O 0.58749 0.89426 0.42729 0.0
O268 O 0.59946 0.88025 0.49702 0.0
O269 O 0.60972 0.90888 0.46576 0.0
C270 C 0.66302 0.85122 0.45856 0.0
O271 O 0.57674 0.84452 0.48248 0.0
O272 O 0.58688 0.8239 0.44541 0.0
In273 In 0.60034 0.15067 0.96668 0.0
O274 O 0.56104 0.14909 0.9415 0.0
O275 O 0.58322 0.18662 0.94231 0.0
C276 C 0.61428 0.10028 0.94842 0.0
C277 C 0.64995 0.17492 0.97127 0.0
C278 C 0.57065 0.14928 0.01337 0.0
O279 O 0.60765 0.11956 0.93253 0.0
O280 O 0.61352 0.10631 0.97348 0.0
O281 O 0.58449 0.12915 0.00485 0.0
O282 O 0.57235 0.17054 -0.00124 0.0
C283 C 0.56239 0.17377 0.93386 0.0
O284 O 0.63462 0.17072 0.99158 0.0
O285 O 0.63979 0.16793 0.94868 0.0
In286 In 0.39259 0.34312 0.93308 0.0
O287 O 0.41725 0.32289 0.89889 0.0
O288 O 0.39654 0.29704 0.92706 0.0
C289 C 0.38658 0.39465 0.91367 0.0
C290 C 0.34023 0.33255 0.94601 0.0
C291 C 0.43311 0.34739 0.97032 0.0
O292 O 0.38816 0.37411 0.89799 0.0
O293 O 0.38846 0.38914 0.93877 0.0
O294 O 0.40828 0.34501 0.97721 0.0
O295 O 0.43726 0.34807 0.94488 0.0
C296 C 0.41271 0.29874 0.90699 0.0
O297 O 0.35929 0.3321 0.96348 0.0
O298 O 0.3478 0.33725 0.92174 0.0
In299 In 0.90085 0.14357 -0.00067 0.0
O300 O 0.86349 0.15087 0.97194 0.0
O301 O 0.86199 0.16487 0.01312 0.0
C302 C 0.94016 0.12618 0.96482 0.0
C303 C 0.92858 0.18926 0.01173 0.0
C304 C 0.89407 0.09896 0.03118 0.0
O305 O 0.9153 0.12717 0.95741 0.0
O306 O 0.94455 0.13308 0.98924 0.0
O307 O 0.90068 0.1221 0.04064 0.0
O308 O 0.8902 0.09846 0.00569 0.0
C309 C 0.84988 0.16281 0.99045 0.0
O310 O 0.92417 0.17068 0.02922 0.0
O311 O 0.91772 0.18531 0.98859 0.0
H312 H 0.13083 0.03541 0.57475 0.0
H313 H 0.13725 0.06899 0.41666 0.0
H314 H 0.19244 0.00188 0.52094 0.0
H315 H 0.08225 0.10866 0.47341 0.0
H316 H 0.16323 0.05056 0.45536 0.0
H317 H 0.11823 0.06833 0.53937 0.0
C318 C 0.14202 0.03531 0.5556 0.0
C319 C 0.16243 0.01569 0.55059 0.0
C320 C 0.14582 0.06377 0.45935 0.0
C321 C 0.14779 0.05297 0.50971 0.0
C322 C 0.13105 0.07439 0.43725 0.0
C323 C 0.10729 0.08997 0.44186 0.0
C324 C 0.13659 0.06864 0.48617 0.0
C325 C 0.10022 0.0964 0.46893 0.0
C326 C 0.13483 0.05411 0.53537 0.0
C327 C 0.17645 0.0166 0.52554 0.0
N328 N 0.11452 0.08533 0.49004 0.0
N329 N 0.16851 0.03459 0.50579 0.0
H330 H 0.91659 0.36907 0.46869 0.0
H331 H 0.80179 0.46956 0.51769 0.0
H332 H 0.85036 0.39635 0.41689 0.0
H333 H 0.85693 0.42914 0.57361 0.0
H334 H 0.81378 0.43623 0.48248 0.0
H335 H 0.89035 0.38337 0.50879 0.0
C336 C 0.89623 0.37747 0.4658 0.0
C337 C 0.88586 0.38211 0.43943 0.0
C338 C 0.82288 0.43418 0.50259 0.0
C339 C 0.85594 0.39896 0.48516 0.0
C340 C 0.81604 0.45324 0.52268 0.0
C341 C 0.82875 0.45227 0.54836 0.0
C342 C 0.84316 0.41444 0.50799 0.0
C343 C 0.84683 0.43063 0.55394 0.0
C344 C 0.88124 0.38565 0.48872 0.0
C345 C 0.85928 0.39277 0.43686 0.0
N346 N 0.85403 0.41291 0.53367 0.0
N347 N 0.84548 0.4014 0.45941 0.0
H348 H 0.02046 0.89354 0.04147 0.0
H349 H 0.15891 0.9455 0.97162 0.0
H350 H 0.09485 0.91153 0.08574 0.0
H351 H 0.08097 0.94163 0.93002 0.0
H352 H 0.13838 0.92263 0.01107 0.0
H353 H 0.04493 0.901 -0.00155 0.0
C354 C 0.04206 0.89868 0.04212 0.0
C355 C 0.05559 0.9023 0.06718 0.0
C356 C 0.12586 0.92641 0.99316 0.0
C357 C 0.08365 0.91093 0.0181 0.0
C358 C 0.1376 0.93935 0.97058 0.0
C359 C 0.12149 0.94581 0.9477 0.0
C360 C 0.09782 0.91994 0.99285 0.0
C361 C 0.09404 0.93725 0.94738 0.0
C362 C 0.05599 0.90297 0.01756 0.0
C363 C 0.08359 0.90881 0.06685 0.0
N364 N 0.08296 0.92506 0.9698 0.0
N365 N 0.09663 0.91319 0.04268 0.0
H366 H 0.96837 0.6236 0.06644 0.0
H367 H 0.83341 0.5968 0.97911 0.0
H368 H 0.88756 0.6136 0.101 0.0
H369 H 0.91538 0.59407 0.94595 0.0
H370 H 0.85176 0.6156 0.02161 0.0
H371 H 0.94814 0.6245 0.02073 0.0
C372 C 0.94631 0.62191 0.06442 0.0
C373 C 0.92962 0.61802 0.08748 0.0
C374 C 0.86568 0.61142 0.00485 0.0
C375 C 0.90638 0.61905 0.03526 0.0
C376 C 0.8552 0.60084 0.98051 0.0
C377 C 0.873 0.59335 0.95921 0.0
C378 C 0.89415 0.61437 0.00792 0.0
C379 C 0.90099 0.59925 0.96202 0.0
C380 C 0.93479 0.62247 0.03832 0.0
C381 C 0.90118 0.61626 0.08371 0.0
N382 N 0.9108 0.60894 0.98618 0.0
N383 N 0.89047 0.61646 0.05805 0.0
H384 H 0.46653 0.07164 0.1289 0.0
H385 H 0.52738 0.18274 0.02611 0.0
H386 H 0.41701 0.12998 0.08456 0.0
H387 H 0.56966 0.10977 0.05279 0.0
H388 H 0.49063 0.17289 0.05893 0.0
H389 H 0.5077 0.09551 0.11349 0.0
C390 C 0.46427 0.08995 0.11657 0.0
C391 C 0.43833 0.09849 0.10749 0.0
C392 C 0.50825 0.15938 0.05797 0.0
C393 C 0.48538 0.12562 0.08946 0.0
C394 C 0.52925 0.16502 0.03934 0.0
C395 C 0.55134 0.14678 0.03648 0.0
C396 C 0.50956 0.13548 0.07395 0.0
C397 C 0.55278 0.12414 0.05409 0.0
C398 C 0.48781 0.10347 0.10764 0.0
C399 C 0.43664 0.12249 0.09173 0.0
N400 N 0.53202 0.11897 0.07187 0.0
N401 N 0.4599 0.13493 0.08273 0.0
H402 H 0.52812 0.40969 0.10261 0.0
H403 H 0.48782 0.34352 0.96035 0.0
H404 H 0.5862 0.38986 0.03898 0.0
H405 H 0.42964 0.35761 0.02537 0.0
H406 H 0.52516 0.353 0.99208 0.0
H407 H 0.49337 0.38271 0.0787 0.0
C408 C 0.53378 0.39903 0.084 0.0
C409 C 0.5599 0.40244 0.07244 0.0
C410 C 0.50428 0.35372 -0.00042 0.0
C411 C 0.52017 0.37203 0.04477 0.0
C412 C 0.48294 0.34842 0.98142 0.0
C413 C 0.45564 0.35027 0.99018 0.0
C414 C 0.49828 0.36134 0.02664 0.0
C415 C 0.45046 0.35626 0.01776 0.0
C416 C 0.51388 0.38376 0.07027 0.0
C417 C 0.56617 0.3881 0.04839 0.0
N418 N 0.4716 0.36203 0.03496 0.0
N419 N 0.54629 0.37394 0.03507 0.0
H420 H 0.55256 0.83999 0.38098 0.0
H421 H 0.43657 0.95266 0.35949 0.0
H422 H 0.56443 0.92713 0.3901 0.0
H423 H 0.42044 0.86619 0.36888 0.0
H424 H 0.4855 0.94274 0.35647 0.0
H425 H 0.5071 0.84877 0.36159 0.0
C426 C 0.54606 0.86101 0.37786 0.0
C427 C 0.56202 0.88291 0.3875 0.0
C428 C 0.47126 0.92587 0.35882 0.0
C429 C 0.51006 0.893 0.3659 0.0
C430 C 0.44332 0.93151 0.36062 0.0
C431 C 0.4245 0.91024 0.36503 0.0
C432 C 0.48053 0.89877 0.36163 0.0
C433 C 0.43434 0.88322 0.36588 0.0
C434 C 0.51998 0.86598 0.3671 0.0
C435 C 0.55256 0.90969 0.3832 0.0
N436 N 0.46178 0.87826 0.36462 0.0
N437 N 0.52699 0.91399 0.37313 0.0
H438 H 0.41856 0.55529 0.42674 0.0
H439 H 0.56954 0.55766 0.36494 0.0
H440 H 0.46005 0.62866 0.4 0.0
H441 H 0.53384 0.48922 0.40802 0.0
H442 H 0.52484 0.58057 0.36536 0.0
H443 H 0.45521 0.52777 0.40647 0.0
C444 C 0.43494 0.56559 0.41586 0.0
C445 C 0.43666 0.59429 0.41557 0.0
C446 C 0.52672 0.56036 0.37436 0.0
C447 C 0.47877 0.56302 0.39284 0.0
C448 C 0.55221 0.54732 0.37417 0.0
C449 C 0.55544 0.52179 0.38695 0.0
C450 C 0.50439 0.5477 0.38737 0.0
C451 C 0.5323 0.50913 0.39835 0.0
C452 C 0.45597 0.54987 0.40449 0.0
C453 C 0.45823 0.60656 0.40109 0.0
N454 N 0.5078 0.52236 0.39856 0.0
N455 N 0.47877 0.59086 0.39074 0.0
H456 H 0.08061 0.41476 0.11254 0.0
H457 H 0.05411 0.57602 0.1247 0.0
H458 H 0.11208 0.47362 0.05461 0.0
H459 H 0.00287 0.51348 0.1604 0.0
H460 H 0.08565 0.54006 0.10861 0.0
H461 H 0.06332 0.45251 0.14057 0.0
C462 C 0.0845 0.43563 0.10607 0.0
C463 C 0.09731 0.4411 0.08098 0.0
C464 C 0.06769 0.53434 0.12033 0.0
C465 C 0.07737 0.48425 0.11274 0.0
C466 C 0.04977 0.55478 0.1295 0.0
C467 C 0.02572 0.54755 0.14346 0.0
C468 C 0.06161 0.50669 0.12563 0.0
C469 C 0.02099 0.51983 0.14928 0.0
C470 C 0.07449 0.45715 0.12198 0.0
C471 C 0.10194 0.46854 0.07365 0.0
N472 N 0.0387 0.50039 0.14022 0.0
N473 N 0.09159 0.48916 0.08927 0.0
H474 H 0.02278 0.42837 0.41143 0.0
H475 H 0.0235 0.58884 0.44607 0.0
H476 H 0.95395 0.48244 0.39814 0.0
H477 H 0.09013 0.53415 0.46623 0.0
H478 H -7e-05 0.55092 0.42349 0.0
H479 H 0.04969 0.46756 0.42754 0.0
C480 C 0.01336 0.44849 0.41191 0.0
C481 C 0.98608 0.45218 0.40366 0.0
C482 C 0.01982 0.54724 0.43264 0.0
C483 C 0.01666 0.49702 0.42181 0.0
C484 C 0.03333 0.56892 0.44541 0.0
C485 C 0.05869 0.56455 0.45818 0.0
C486 C 0.03172 0.521 0.43272 0.0
C487 C 0.07052 0.53835 0.45671 0.0
C488 C 0.02871 0.47084 0.42103 0.0
C489 C 0.97488 0.47867 0.40451 0.0
N490 N 0.05683 0.51748 0.44441 0.0
N491 N 0.9902 0.50006 0.41349 0.0
H492 H 0.90433 0.96397 0.50665 0.0
H493 H 0.02032 0.0013 0.39764 0.0
H494 H 0.95043 0.90409 0.4606 0.0
H495 H 0.97214 0.06246 0.43973 0.0
H496 H 0.99245 0.96553 0.41844 0.0
H497 H 0.92593 0.00048 0.47989 0.0
C498 C 0.91869 0.95851 0.49064 0.0
C499 C 0.92582 0.93103 0.48594 0.0
C500 C 0.98783 0.98676 0.42308 0.0
C501 C 0.95074 0.97254 0.45556 0.0
C502 C 0.00381 0.00719 0.41128 0.0
C503 C -0.00136 0.03483 0.41718 0.0
C504 C 0.96659 0.99397 0.44111 0.0
C505 C 0.97686 0.04133 0.43478 0.0
C506 C 0.93107 0.97933 0.47545 0.0
C507 C 0.94451 0.92504 0.465 0.0
N508 N 0.96171 0.02101 0.44631 0.0
N509 N 0.9565 0.94564 0.45074 0.0
H510 H 0.4718 0.59257 0.53327 0.0
H511 H 0.44612 0.44033 0.58921 0.0
H512 H 0.39234 0.5537 0.53394 0.0
H513 H 0.52575 0.47855 0.58449 0.0
H514 H 0.42547 0.48235 0.57103 0.0
H515 H 0.49133 0.55197 0.5551 0.0
C516 C 0.45841 0.57561 0.53832 0.0
C517 C 0.43045 0.57643 0.53173 0.0
C518 C 0.44746 0.48152 0.57397 0.0
C519 C 0.45267 0.52976 0.55637 0.0
C520 C 0.45924 0.45752 0.58424 0.0
C521 C 0.48767 0.45596 0.58824 0.0
C522 C 0.46426 0.50408 0.56773 0.0
C523 C 0.50374 0.47886 0.58162 0.0
C524 C 0.46958 0.55236 0.55066 0.0
C525 C 0.41403 0.55387 0.53866 0.0
N526 N 0.49182 0.50196 0.57171 0.0
N527 N 0.42542 0.53136 0.55047 0.0
H528 H 0.58308 0.56021 0.04831 0.0
H529 H 0.49439 0.53514 0.91665 0.0
H530 H 0.52068 0.49781 0.04257 0.0
H531 H 0.52763 0.61547 0.93303 0.0
H532 H 0.50593 0.52126 0.96298 0.0
H533 H 0.56372 0.58243 0.00753 0.0
C534 C 0.56483 0.55168 0.03899 0.0
C535 C 0.55368 0.52692 0.04848 0.0
C536 C 0.5106 0.54201 0.95659 0.0
C537 C 0.53204 0.55169 0.00183 0.0
C538 C 0.50429 0.54984 0.93002 0.0
C539 C 0.51029 0.57641 0.92098 0.0
C540 C 0.52348 0.56068 0.97424 0.0
C541 C 0.52281 0.59473 0.93928 0.0
C542 C 0.55393 0.56425 0.01566 0.0
C543 C 0.53015 0.51665 0.03565 0.0
N544 N 0.52932 0.58642 0.96508 0.0
N545 N 0.52043 0.52879 0.0127 0.0
H546 H 0.42666 0.03814 0.01347 0.0
H547 H 0.4892 0.89993 0.95067 0.0
H548 H 0.42664 0.96146 0.05753 0.0
H549 H 0.48462 0.97735 0.90813 0.0
H550 H 0.46747 0.92146 0.99063 0.0
H551 H 0.44976 0.0158 0.97549 0.0
C552 C 0.43164 0.01655 0.01518 0.0
C553 C 0.42465 0.00158 0.03862 0.0
C554 C 0.47122 0.93366 0.9725 0.0
C555 C 0.45103 0.97569 0.99499 0.0
C556 C 0.48352 0.92138 0.94972 0.0
C557 C 0.48863 0.93689 0.92609 0.0
C558 C 0.46411 0.96158 0.97152 0.0
C559 C 0.48102 0.9646 0.92591 0.0
C560 C 0.44481 0.00376 0.99343 0.0
C561 C 0.4317 0.9737 0.03977 0.0
N562 N 0.46919 0.97602 0.94825 0.0
N563 N 0.44445 0.96156 0.01814 0.0
H564 H 0.56278 0.34464 0.54575 0.0
H565 H 0.67209 0.43965 0.47303 0.0
H566 H 0.61551 0.40133 0.58832 0.0
H567 H 0.6064 0.39652 0.43264 0.0
H568 H 0.66327 0.41299 0.51459 0.0
H569 H 0.59065 0.35023 0.5047 0.0
C570 C 0.58068 0.35776 0.54663 0.0
C571 C 0.58649 0.37311 0.57018 0.0
C572 C 0.65131 0.40884 0.49638 0.0
C573 C 0.6181 0.38004 0.52317 0.0
C574 C 0.65643 0.42392 0.47263 0.0
C575 C 0.63951 0.42062 0.44964 0.0
C576 C 0.62926 0.39034 0.49694 0.0
C577 C 0.61955 0.40001 0.45014 0.0
C578 C 0.59655 0.36099 0.52318 0.0
C579 C 0.61014 0.38943 0.57041 0.0
N580 N 0.61467 0.38595 0.47358 0.0
N581 N 0.62475 0.39302 0.54697 0.0
H582 H 0.41511 0.09102 0.52607 0.0
H583 H 0.35222 0.94973 0.47902 0.0
H584 H 0.38884 0.02879 0.58301 0.0
H585 H 0.35606 0.01996 0.42552 0.0
H586 H 0.36324 0.9793 0.51778 0.0
H587 H 0.39072 0.06708 0.4895 0.0
C588 C 0.4037 0.07262 0.53098 0.0
C589 C 0.40419 0.0617 0.55752 0.0
C590 C 0.36135 0.98836 0.49764 0.0
C591 C 0.37677 0.03391 0.51572 0.0
C592 C 0.35519 0.97145 0.47549 0.0
C593 C 0.35353 0.98241 0.44903 0.0
C594 C 0.36634 0.01636 0.49326 0.0
C595 C 0.3573 0.01071 0.44562 0.0
C596 C 0.38982 0.05893 0.51009 0.0
C597 C 0.38905 0.03785 0.56279 0.0
N598 N 0.36394 0.02668 0.46744 0.0
N599 N 0.37636 0.02446 0.54196 0.0
H600 H 0.02907 0.62863 0.5905 0.0
H601 H 0.92533 0.50244 0.59755 0.0
H602 H 0.04951 0.54712 0.56273 0.0
H603 H 0.90166 0.58755 0.60294 0.0
H604 H 0.97358 0.51642 0.59641 0.0
H605 H 0.98577 0.61118 0.60843 0.0
C606 C 0.0248 0.60689 0.58888 0.0
C607 C 0.04263 0.58938 0.57464 0.0
C608 C 0.95781 0.53198 0.59813 0.0
C609 C 0.99295 0.56944 0.59461 0.0
C610 C 0.93032 0.52405 0.59871 0.0
C611 C 0.90953 0.54394 0.59992 0.0
C612 C 0.96448 0.55996 0.59903 0.0
C613 C 0.91706 0.5716 0.6016 0.0
C614 C -3e-05 0.597 0.59891 0.0
C615 C 0.03618 0.56138 0.57332 0.0
N616 N 0.94393 0.57881 0.60096 0.0
N617 N 0.01156 0.55232 0.5827 0.0
H618 H 0.94661 0.93882 0.60324 0.0
H619 H 0.09479 0.87995 0.61747 0.0
H620 H 0.96257 0.85263 0.61482 0.0
H621 H 0.0757 0.96572 0.62802 0.0
H622 H 0.04615 0.86904 0.62338 0.0
H623 H 0.9923 0.94917 0.62068 0.0
C624 C 0.95942 0.92214 0.61042 0.0
C625 C 0.95104 0.89486 0.60726 0.0
C626 C 0.05267 0.89021 0.62491 0.0
C627 C 0.00373 0.90636 0.62609 0.0
C628 C 0.0804 0.89643 0.62138 0.0
C629 C 0.08915 0.9238 0.62171 0.0
C630 C 0.03359 0.91157 0.62841 0.0
C631 C 0.06975 0.94435 0.62718 0.0
C632 C 0.98562 0.928 0.62019 0.0
C633 C 0.96836 0.87398 0.61683 0.0
N634 N 0.04283 0.93786 0.62986 0.0
N635 N 0.99425 0.8801 0.62508 0.0
H636 H 0.00228 0.39058 -0.00024 0.0
H637 H 0.94665 0.50716 0.8997 0.0
H638 H 0.05609 0.44096 0.95098 0.0
H639 H 0.8951 0.45078 0.94419 0.0
H640 H 0.9871 0.4817 0.91531 0.0
H641 H 0.96296 0.41092 0.97696 0.0
C642 C 0.00581 0.40594 0.98414 0.0
C643 C 0.03244 0.41432 0.9774 0.0
C644 C 0.96691 0.47476 0.9214 0.0
C645 C 0.98737 0.43789 0.95119 0.0
C646 C 0.94385 0.48924 0.91248 0.0
C647 C 0.91755 0.48116 0.92088 0.0
C648 C 0.96355 0.45217 0.93888 0.0
C649 C 0.91502 0.45783 0.93739 0.0
C650 C 0.98332 0.41751 0.97104 0.0
C651 C 0.03583 0.43405 0.95681 0.0
N652 N 0.93773 0.4443 0.94601 0.0
N653 N 0.01347 0.44542 0.94456 0.0
H654 H 0.05209 0.02519 0.8758 0.0
H655 H 0.99247 0.14362 0.96808 0.0
H656 H 0.10066 0.09224 0.90685 0.0
H657 H 0.9398 0.0906 0.921 0.0
H658 H 0.03184 0.12694 0.94246 0.0
H659 H 0.01039 0.05041 0.88803 0.0
C660 C 0.05397 0.04545 0.88468 0.0
C661 C 0.07985 0.05649 0.89073 0.0
C662 C 0.01171 0.11911 0.93737 0.0
C663 C 0.03236 0.08521 0.90502 0.0
C664 C 0.98923 0.12855 0.9521 0.0
C665 C 0.96299 0.11817 0.94681 0.0
C666 C 0.0081 0.09862 0.91753 0.0
C667 C 0.9598 0.09898 0.92569 0.0
C668 C 0.03017 0.05982 0.89166 0.0
C669 C 0.08113 0.08283 0.90211 0.0
N670 N 0.98225 0.08939 0.91209 0.0
N671 N 0.05773 0.09609 0.90928 0.0
H672 H 0.5453 0.06054 0.55244 0.0
H673 H 0.58575 0.9018 0.54333 0.0
H674 H 0.51037 0.9964 0.6022 0.0
H675 H 0.60435 0.96009 0.47956 0.0
H676 H 0.56773 0.93911 0.57135 0.0
H677 H 0.57599 0.02647 0.53136 0.0
C678 C 0.54437 0.03939 0.55913 0.0
C679 C 0.52509 0.03109 0.57872 0.0
C680 C 0.57604 0.9438 0.55135 0.0
C681 C 0.56 0.99239 0.55514 0.0
C682 C 0.5864 0.92252 0.53539 0.0
C683 C 0.5961 0.92785 0.50895 0.0
C684 C 0.57531 0.97055 0.54074 0.0
C685 C 0.59673 0.95511 0.49976 0.0
C686 C 0.56179 0.02001 0.54713 0.0
C687 C 0.52468 0.00354 0.58683 0.0
N688 N 0.5861 0.97547 0.51552 0.0
N689 N 0.54177 0.98516 0.57492 0.0
H690 H 0.6226 0.05396 0.97883 0.0
H691 H 0.61263 0.95968 0.84687 0.0
H692 H 0.62123 0.08337 0.89559 0.0
H693 H 0.5959 0.93191 0.929 0.0
H694 H 0.63226 0.00171 0.86556 0.0
H695 H 0.6277 0.00706 0.96169 0.0
C696 C 0.62377 0.05058 0.95695 0.0
C697 C 0.62089 0.07246 0.93855 0.0
C698 C 0.62496 0.9861 0.87953 0.0
C699 C 0.62688 0.01901 0.91888 0.0
C700 C 0.61397 0.96196 0.86888 0.0
C701 C 0.60186 0.94267 0.8864 0.0
C702 C 0.62372 0.9909 0.90783 0.0
C703 C 0.60449 0.94655 0.91473 0.0
C704 C 0.62675 0.02383 0.9472 0.0
C705 C 0.62287 0.067 0.91046 0.0
N706 N 0.61452 0.97058 0.92459 0.0
N707 N 0.6254 0.04077 0.90146 0.0
H708 H 0.4071 0.53911 0.81747 0.0
H709 H 0.38 0.44099 0.94415 0.0
H710 H 0.40714 0.5657 0.90166 0.0
H711 H 0.38611 0.41303 0.86061 0.0
H712 H 0.37926 0.48829 0.92794 0.0
H713 H 0.38739 0.49538 0.83172 0.0
C714 C 0.4021 0.53613 0.83885 0.0
C715 C 0.40935 0.55583 0.8585 0.0
C716 C 0.38044 0.47184 0.91309 0.0
C717 C 0.38743 0.50562 0.875 0.0
C718 C 0.38097 0.44481 0.92235 0.0
C719 C 0.38361 0.42309 0.90371 0.0
C720 C 0.38278 0.47726 0.88497 0.0
C721 C 0.3844 0.42922 0.87569 0.0
C722 C 0.39109 0.51102 0.84702 0.0
C723 C 0.40225 0.55092 0.88588 0.0
N724 N 0.38436 0.45577 0.86718 0.0
N725 N 0.39224 0.52606 0.8934 0.0
H726 H 0.88674 0.04586 0.01449 0.0
H727 H 0.96147 0.99068 0.14641 0.0
H728 H 0.90309 0.09501 0.08606 0.0
H729 H 0.9339 0.93714 0.08185 0.0
H730 H 0.93364 0.02752 0.12748 0.0
H731 H 0.89699 0.00454 0.04102 0.0
C732 C 0.89194 0.04791 0.03594 0.0
C733 C 0.89462 0.07389 0.048 0.0
C734 C 0.93324 0.00765 0.11758 0.0
C735 C 0.9066 0.02687 0.07831 0.0
C736 C 0.94918 0.98664 0.12839 0.0
C737 C 0.95021 0.96107 0.11538 0.0
C738 C 0.91871 0.0033 0.09316 0.0
C739 C 0.9337 0.9567 0.09233 0.0
C740 C 0.8978 0.02433 0.05107 0.0
C741 C 0.90121 0.07539 0.07585 0.0
N742 N 0.91901 0.97785 0.08155 0.0
N743 N 0.90739 0.05224 0.08994 0.0
H744 H 0.06117 0.19275 0.36039 0.0
H745 H 0.9288 0.29 0.35296 0.0
H746 H 0.97801 0.16397 0.36954 0.0
H747 H 0.01135 0.32038 0.36233 0.0
H748 H 0.9469 0.24318 0.35115 0.0
H749 H 0.04355 0.23939 0.35361 0.0
C750 C 0.03923 0.19624 0.36081 0.0
C751 C 0.02102 0.1746 0.36578 0.0
C752 C 0.96106 0.26013 0.3534 0.0
C753 C 0.00078 0.2276 0.35793 0.0
C754 C 0.95074 0.28682 0.35433 0.0
C755 C 0.9686 0.309 0.35805 0.0
C756 C 0.98942 0.25568 0.35609 0.0
C757 C -0.00314 0.30379 0.35967 0.0
C758 C 0.02919 0.2228 0.35697 0.0
C759 C 0.99278 0.18015 0.36602 0.0
N760 N 0.0064 0.27764 0.35883 0.0
N761 N 0.98353 0.20611 0.36223 0.0
H762 H 0.02401 0.68068 0.18946 0.0
H763 H 0.04199 0.82127 0.18229 0.0
H764 H 0.93714 0.69729 0.18728 0.0
H765 H 0.95668 0.82334 0.1591 0.0
H766 H 0.0367 0.77374 0.19628 0.0
H767 H 0.03298 0.72955 0.18963 0.0
C768 C 0.00678 0.69472 0.18973 0.0
C769 C 0.97982 0.68495 0.18809 0.0
C770 C 0.01914 0.78425 0.18782 0.0
C771 C 0.98978 0.74135 0.18857 0.0
C772 C 0.02214 0.81158 0.18002 0.0
C773 C -0.00014 0.82605 0.16907 0.0
C774 C 0.99372 0.77115 0.18415 0.0
C775 C 0.97447 0.81278 0.16715 0.0
C776 C 0.01188 0.72283 0.18995 0.0
C777 C 0.95827 0.70399 0.18839 0.0
N778 N 0.97217 0.78599 0.17435 0.0
N779 N 0.96374 0.73129 0.18821 0.0
H780 H 0.36474 0.96614 0.16329 0.0
H781 H 0.31257 0.99631 0.31453 0.0
H782 H 0.33381 0.04501 0.18889 0.0
H783 H 0.33373 0.91562 0.28495 0.0
H784 H 0.31589 0.01383 0.2678 0.0
H785 H 0.35014 0.94669 0.20686 0.0
C786 C 0.35479 0.97935 0.17809 0.0
C787 C 0.35072 0.00728 0.17263 0.0
C788 C 0.31939 0.99221 0.27145 0.0
C789 C 0.33395 0.98516 0.22261 0.0
C790 C 0.3174 0.98218 0.29811 0.0
C791 C 0.32319 0.95454 0.30362 0.0
C792 C 0.32747 0.97451 0.25026 0.0
C793 C 0.32929 0.93712 0.28162 0.0
C794 C 0.34633 0.96821 0.20293 0.0
C795 C 0.33748 0.0234 0.1924 0.0
N796 N 0.33164 0.94748 0.25595 0.0
N797 N 0.32979 0.01216 0.21667 0.0
H798 H 0.66813 0.48263 0.16763 0.0
H799 H 0.61638 0.43701 0.31405 0.0
H800 H 0.58273 0.46958 0.18666 0.0
H801 H 0.67862 0.49953 0.30714 0.0
H802 H 0.61167 0.4369 0.26432 0.0
H803 H 0.67904 0.47886 0.2167 0.0
C804 C 0.65174 0.47904 0.18216 0.0
C805 C 0.6245 0.47654 0.17331 0.0
C806 C 0.62663 0.45031 0.27375 0.0
C807 C 0.63689 0.47134 0.22862 0.0
C808 C 0.62953 0.45025 0.30204 0.0
C809 C 0.64772 0.46854 0.31466 0.0
C810 C 0.64237 0.46841 0.25802 0.0
C811 C 0.66423 0.48528 0.29811 0.0
C812 C 0.65798 0.47688 0.20996 0.0
C813 C 0.60395 0.47185 0.19276 0.0
N814 N 0.66107 0.48494 0.27047 0.0
N815 N 0.61061 0.4691 0.21954 0.0
H816 H 0.31897 0.32292 -0.00323 0.0
H817 H 0.16862 0.37042 0.95297 0.0
H818 H 0.29542 0.34016 0.91341 0.0
H819 H 0.19033 0.34695 0.03531 0.0
H820 H 0.21438 0.35701 0.93767 0.0
H821 H 0.27118 0.32824 0.01079 0.0
C822 C 0.30365 0.32743 0.98136 0.0
C823 C 0.31113 0.33134 0.95394 0.0
C824 C 0.20912 0.35467 0.95907 0.0
C825 C 0.25656 0.33785 0.96986 0.0
C826 C 0.18305 0.36244 0.96783 0.0
C827 C 0.17581 0.35997 -0.00453 0.0
C828 C 0.22812 0.34449 0.97813 0.0
C829 C 0.19518 0.34932 0.01382 0.0
C830 C 0.2764 0.33056 0.98938 0.0
C831 C 0.29051 0.33709 0.9348 0.0
N832 N 0.22052 0.3421 0.00484 0.0
N833 N 0.26418 0.34047 0.94317 0.0
H834 H 0.18307 0.62944 0.54817 0.0
H835 H 0.30751 0.64696 0.44377 0.0
H836 H 0.1723 0.6422 0.46145 0.0
H837 H 0.31717 0.65048 0.53148 0.0
H838 H 0.25778 0.64566 0.4498 0.0
H839 H 0.23237 0.63695 0.5426 0.0
C840 C 0.1911 0.63385 0.52798 0.0
C841 C 0.17369 0.63508 0.50521 0.0
C842 C 0.27077 0.64698 0.46773 0.0
C843 C 0.22986 0.64366 0.49867 0.0
C844 C 0.29912 0.64774 0.46428 0.0
C845 C 0.31639 0.64868 0.48717 0.0
C846 C 0.25968 0.64686 0.49426 0.0
C847 C 0.30452 0.6497 0.51329 0.0
C848 C 0.21918 0.63825 0.52482 0.0
C849 C 0.18507 0.641 0.47953 0.0
N850 N 0.27686 0.64849 0.51615 0.0
N851 N 0.21247 0.64492 0.47693 0.0
H852 H 0.68913 0.80697 0.48102 0.0
H853 H 0.81021 0.89683 0.53875 0.0
H854 H 0.70208 0.89074 0.45574 0.0
H855 H 0.82513 0.81216 0.51775 0.0
H856 H 0.76473 0.89349 0.51783 0.0
H857 H 0.73496 0.80688 0.50204 0.0
C858 C 0.70182 0.82513 0.4795 0.0
C859 C 0.69197 0.84887 0.46658 0.0
C860 C 0.77792 0.87561 0.51809 0.0
C861 C 0.74339 0.8492 0.49134 0.0
C862 C 0.80366 0.87738 0.53029 0.0
C863 C 0.82135 0.85474 0.52986 0.0
C864 C 0.76972 0.85089 0.50592 0.0
C865 C 0.81201 0.83007 0.51838 0.0
C866 C 0.72776 0.82509 0.49157 0.0
C867 C 0.70902 0.87196 0.46532 0.0
N868 N 0.78669 0.82875 0.50683 0.0
N869 N 0.73376 0.87171 0.47798 0.0
H870 H 0.47416 0.83152 0.82668 0.0
H871 H 0.44636 0.69227 0.83498 0.0
H872 H 0.55645 0.80849 0.84961 0.0
H873 H 0.53349 0.68044 0.82509 0.0
H874 H 0.45341 0.74167 0.83453 0.0
H875 H 0.46335 0.78347 0.81875 0.0
C876 C 0.48993 0.81626 0.83018 0.0
C877 C 0.51613 0.82392 0.83919 0.0
C878 C 0.47098 0.72844 0.83168 0.0
C879 C 0.50366 0.76863 0.83102 0.0
C880 C 0.46693 0.70013 0.83217 0.0
C881 C 0.48936 0.68228 0.83009 0.0
C882 C 0.49771 0.73894 0.82902 0.0
C883 C 0.51562 0.69352 0.82674 0.0
C884 C 0.48366 0.78873 0.82591 0.0
C885 C 0.53592 0.8034 0.84291 0.0
N886 N 0.5191 0.72115 0.82659 0.0
N887 N 0.52923 0.77664 0.83893 0.0
H888 H 0.51137 0.29964 0.67274 0.0
H889 H 0.47896 0.17522 0.5773 0.0
H890 H 0.47411 0.31159 0.59355 0.0
H891 H 0.46233 0.16852 0.66372 0.0
H892 H 0.48381 0.22492 0.5826 0.0
H893 H 0.49943 0.25068 0.67023 0.0
C894 C 0.50045 0.292 0.65501 0.0
C895 C 0.49374 0.30955 0.63329 0.0
C896 C 0.47891 0.21255 0.60034 0.0
C897 C 0.48074 0.254 0.63008 0.0
C898 C 0.47629 0.18429 0.59736 0.0
C899 C 0.47023 0.16794 0.62011 0.0
C900 C 0.47622 0.22438 0.62636 0.0
C901 C 0.46688 0.18058 0.64569 0.0
C902 C 0.49361 0.26422 0.65364 0.0
C903 C 0.4796 0.29873 0.61076 0.0
N904 N 0.47032 0.20814 0.64825 0.0
N905 N 0.47397 0.27153 0.60952 0.0
H906 H 0.82332 0.48603 0.82264 0.0
H907 H 0.81334 0.57037 0.68328 0.0
H908 H 0.83144 0.57402 0.81777 0.0
H909 H 0.80577 0.48234 0.6881 0.0
H910 H 0.81438 0.57264 0.73311 0.0
H911 H 0.812 0.48476 0.77407 0.0
C912 C 0.82264 0.50512 0.81132 0.0
C913 C 0.82859 0.53016 0.82411 0.0
C914 C 0.81219 0.55284 0.72332 0.0
C915 C 0.8156 0.52886 0.76854 0.0
C916 C 0.81152 0.55153 0.69487 0.0
C917 C 0.80977 0.52609 0.68161 0.0
C918 C 0.81129 0.5285 0.73859 0.0
C919 C 0.8073 0.50236 0.69756 0.0
C920 C 0.8161 0.50438 0.78361 0.0
C921 C 0.82718 0.55426 0.80859 0.0
N922 N 0.80845 0.50411 0.72527 0.0
N923 N 0.821 0.553 0.78153 0.0
H924 H 0.19745 0.91425 0.68996 0.0
H925 H 0.18519 0.0302 0.80379 0.0
H926 H 0.20724 0.00063 0.67359 0.0
H927 H 0.17659 0.94369 0.82018 0.0
H928 H 0.20042 0.01934 0.75741 0.0
H929 H 0.19811 0.92399 0.73894 0.0
C930 C 0.20037 0.93521 0.69669 0.0
C931 C 0.20183 0.95673 0.67773 0.0
C932 C 0.19546 0.0027 0.77121 0.0
C933 C 0.20202 0.96811 0.73369 0.0
C934 C 0.18667 0.0089 0.79765 0.0
C935 C 0.17925 0.98781 0.81567 0.0
C936 C 0.19667 0.97522 0.76268 0.0
C937 C 0.18183 0.96058 0.8068 0.0
C938 C 0.2006 0.94079 0.72467 0.0
C939 C 0.20577 0.98346 0.68755 0.0
N940 N 0.19007 0.95507 0.78082 0.0
N941 N 0.20524 0.98847 0.71488 0.0
H942 H 0.81901 0.193 0.02587 0.0
H943 H 0.67768 0.18759 0.01812 0.0
H944 H 0.81624 0.15467 0.94636 0.0
H945 H 0.68824 0.17969 0.93083 0.0
H946 H 0.72708 0.1915 0.02328 0.0
H947 H 0.77071 0.20492 0.02146 0.0
C948 C 0.80815 0.18705 0.00747 0.0
C949 C 0.82145 0.17234 0.98667 0.0
C950 C 0.71875 0.18985 0.00286 0.0
C951 C 0.76584 0.18508 0.98182 0.0
C952 C 0.69041 0.18746 -5e-05 0.0
C953 C 0.6789 0.18307 0.97406 0.0
C954 C 0.73569 0.18781 0.97963 0.0
C955 C 0.69632 0.18291 0.95121 0.0
C956 C 0.78045 0.19365 0.00506 0.0
C957 C 0.80664 0.1657 0.96303 0.0
N958 N 0.72389 0.18475 0.95458 0.0
N959 N 0.77952 0.17189 0.96137 0.0
H960 H 0.99175 0.94775 0.22568 0.0
H961 H 0.09242 0.04798 0.30409 0.0
H962 H 0.07323 0.96228 0.19434 0.0
H963 H 0.00446 0.05797 0.30232 0.0
H964 H 0.08851 0.01321 0.26774 0.0
H965 H -0.00097 0.98339 0.25982 0.0
C966 C 0.01133 0.95822 0.2262 0.0
C967 C 0.03189 0.95215 0.20711 0.0
C968 C 0.0702 0.02335 0.27519 0.0
C969 C 0.04025 0.99312 0.24603 0.0
C970 C 0.07241 0.04321 0.29577 0.0
C971 C 0.04871 0.05574 0.3063 0.0
C972 C 0.04413 0.0158 0.26566 0.0
C973 C 0.02326 0.04876 0.29492 0.0
C974 C 0.01537 0.97873 0.24553 0.0
C975 C 0.05684 0.96644 0.20871 0.0
N976 N 0.02162 0.02902 0.2755 0.0
N977 N 0.06039 0.98635 0.22792 0.0
H978 H 0.884 0.44096 0.30774 0.0
H979 H 0.9756 0.5583 0.24831 0.0
H980 H 0.97071 0.43107 0.29274 0.0
H981 H 0.89867 0.54273 0.20747 0.0
H982 H 0.96907 0.51678 0.27528 0.0
H983 H 0.88432 0.48205 0.27833 0.0
C984 C 0.9029 0.44704 0.29782 0.0
C985 C 0.92741 0.4327 0.30281 0.0
C986 C 0.95349 0.52266 0.26061 0.0
C987 C 0.92799 0.47976 0.2704 0.0
C988 C 0.95702 0.54648 0.24541 0.0
C989 C 0.93773 0.55385 0.22547 0.0
C990 C 0.9303 0.50631 0.25622 0.0
C991 C 0.91407 0.53765 0.22259 0.0
C992 C 0.90306 0.47047 0.28126 0.0
C993 C 0.95136 0.44152 0.28959 0.0
N994 N 0.91097 0.51445 0.23782 0.0
N995 N 0.95116 0.46478 0.27446 0.0
H996 H 0.18632 0.06273 0.96756 0.0
H997 H 0.31868 -0.00024 0.03413 0.0
H998 H 0.24181 0.00927 0.92399 0.0
H999 H 0.29496 0.08225 0.05591 0.0
H1000 H 0.28488 0.0001 -0.00235 0.0
H1001 H 0.22143 0.06885 0.00322 0.0
C1002 C 0.20599 0.05266 0.96528 0.0
C1003 C 0.21113 0.03528 0.94293 0.0
C1004 C 0.28704 0.01815 0.01038 0.0
C1005 C 0.25072 0.04172 0.98362 0.0
C1006 C 0.30615 0.01791 0.0314 0.0
C1007 C 0.30963 0.04104 0.04807 0.0
C1008 C 0.27086 0.04151 0.00614 0.0
C1009 C 0.29287 0.06402 0.04345 0.0
C1010 C 0.22591 0.05617 0.98559 0.0
C1011 C 0.23692 0.02273 0.94092 0.0
N1012 N 0.27396 0.06366 0.0229 0.0
N1013 N 0.25557 0.02585 0.96122 0.0
H1014 H 0.68854 0.44234 0.04646 0.0
H1015 H 0.75424 0.53932 0.93208 0.0
H1016 H 0.65781 0.5228 0.02601 0.0
H1017 H 0.79755 0.47055 0.96713 0.0
H1018 H 0.71528 0.52943 0.96179 0.0
H1019 H 0.72585 0.44877 0.01339 0.0
C1020 C 0.68968 0.46132 0.03502 0.0
C1021 C 0.67023 0.48214 0.03901 0.0
C1022 C 0.73326 0.51642 0.9629 0.0
C1023 C 0.71239 0.48946 0.00115 0.0
C1024 C 0.75543 0.52196 0.94586 0.0
C1025 C 0.77917 0.50582 0.94732 0.0
C1026 C 0.73479 0.4945 0.98146 0.0
C1027 C 0.77962 0.48357 0.9655 0.0
C1028 C 0.71091 0.46497 0.0162 0.0
C1029 C 0.67251 0.50631 0.02367 0.0
N1030 N 0.75776 0.4786 0.98199 0.0
N1031 N 0.69318 0.50928 0.00538 0.0
H1032 H 0.31203 0.86051 0.4445 0.0
H1033 H 0.24243 0.88951 0.56226 0.0
H1034 H 0.24858 0.91022 0.4081 0.0
H1035 H 0.17041 0.90115 0.51236 0.0
H1036 H 0.26759 0.87452 0.52189 0.0
H1037 H 0.28194 0.85178 0.48356 0.0
C1038 C 0.29153 0.86906 0.44442 0.0
C1039 C 0.28301 0.88672 0.42339 0.0
C1040 C 0.24604 0.87934 0.51979 0.0
C1041 C 0.24894 0.87768 0.46838 0.0
C1042 C 0.2317 0.88814 0.5429 0.0
C1043 C 0.20442 0.89692 0.54057 0.0
C1044 C 0.23303 0.87962 0.4941 0.0
C1045 C 0.19151 0.89475 0.51501 0.0
C1046 C 0.27451 0.86441 0.46694 0.0
C1047 C 0.25614 0.89695 0.42417 0.0
N1048 N 0.20611 0.88694 0.49265 0.0
N1049 N 0.24022 0.89266 0.44655 0.0
H1050 H 0.79438 0.58034 0.52634 0.0
H1051 H 0.71219 0.54225 0.42006 0.0
H1052 H 0.73228 0.53974 0.5744 0.0
H1053 H 0.64501 0.54092 0.47748 0.0
H1054 H 0.74187 0.56039 0.45573 0.0
H1055 H 0.76112 0.58623 0.48942 0.0
C1056 C 0.77359 0.57311 0.52931 0.0
C1057 C 0.76624 0.55883 0.55312 0.0
C1058 C 0.72043 0.55716 0.46042 0.0
C1059 C 0.72847 0.56459 0.5107 0.0
C1060 C 0.70351 0.54654 0.44002 0.0
C1061 C 0.67626 0.53971 0.44597 0.0
C1062 C 0.71002 0.56069 0.48703 0.0
C1063 C 0.66601 0.54569 0.47212 0.0
C1064 C 0.75471 0.57617 0.50808 0.0
C1065 C 0.73895 0.55034 0.55612 0.0
N1066 N 0.68309 0.55524 0.49189 0.0
N1067 N 0.72115 0.55294 0.53493 0.0
H1068 H 0.06221 0.29781 0.98222 0.0
H1069 H 0.95368 0.20414 0.05975 0.0
H1070 H 0.04639 0.30837 0.0685 0.0
H1071 H 0.94975 0.22387 0.97375 0.0
H1072 H 0.99166 0.23687 0.06484 0.0
H1073 H 0.02642 0.26308 0.98036 0.0
C1074 C 0.0515 0.29249 0.0009 0.0
C1075 C 0.05707 0.30615 0.0255 0.0
C1076 C 0.98225 0.2341 0.04497 0.0
C1077 C 0.01586 0.26667 0.0234 0.0
C1078 C 0.96057 0.2156 0.04206 0.0
C1079 C 0.94857 0.21138 0.0163 0.0
C1080 C 0.99218 0.24792 0.02183 0.0
C1081 C 0.95832 0.22657 0.994 0.0
C1082 C 0.03091 0.27285 -0.00025 0.0
C1083 C 0.04261 0.29835 0.04909 0.0
N1084 N 0.97973 0.24396 -0.00276 0.0
N1085 N 0.02245 0.27916 0.04745 0.0
H1086 H 0.03482 0.69393 0.46815 0.0
H1087 H 0.96643 0.79981 0.5708 0.0
H1088 H 0.06627 0.71028 0.54907 0.0
H1089 H 0.95449 0.80571 0.48351 0.0
H1090 H 0.00107 0.76449 0.56323 0.0
H1091 H 0.00397 0.73341 0.47283 0.0
C1092 C 0.03553 0.70608 0.48669 0.0
C1093 C 0.05295 0.69878 0.50833 0.0
C1094 C 0.99095 0.77356 0.54571 0.0
C1095 C 0.01755 0.74337 0.51398 0.0
C1096 C 0.97102 0.79353 0.55003 0.0
C1097 C 0.95754 0.80553 0.52773 0.0
C1098 C -0.00282 0.76525 0.51892 0.0
C1099 C 0.96444 0.79686 0.50123 0.0
C1100 C 0.01791 0.72852 0.48937 0.0
C1101 C 0.05308 0.71514 0.53193 0.0
N1102 N 0.98371 0.77705 0.49753 0.0
N1103 N 0.03538 0.73646 0.53426 0.0
H1104 H 0.5445 0.81382 0.51424 0.0
H1105 H 0.43356 0.71991 0.44001 0.0
H1106 H 0.54774 0.79212 0.4287 0.0
H1107 H 0.45353 0.70861 0.52531 0.0
H1108 H 0.46848 0.75558 0.43707 0.0
H1109 H 0.50513 0.78282 0.51994 0.0
C1110 C 0.53697 0.80247 0.49674 0.0
C1111 C 0.54944 0.80525 0.47102 0.0
C1112 C 0.465 0.74548 0.4565 0.0
C1113 C 0.50435 0.77068 0.47722 0.0
C1114 C 0.44494 0.72528 0.45827 0.0
C1115 C 0.44086 0.71112 0.48289 0.0
C1116 C 0.48089 0.75175 0.47956 0.0
C1117 C 0.4562 0.71895 0.5059 0.0
C1118 C 0.51457 0.78491 0.49999 0.0
C1119 C 0.53889 0.79029 0.44894 0.0
N1120 N 0.47573 0.73872 0.50366 0.0
N1121 N 0.51683 0.77377 0.45251 0.0
H1122 H 0.54918 0.53676 0.80268 0.0
H1123 H 0.47996 0.43071 0.70204 0.0
H1124 H 0.4733 0.5521 0.75984 0.0
H1125 H 0.56808 0.43919 0.70107 0.0
H1126 H 0.47699 0.46929 0.73351 0.0
H1127 H 0.55694 0.49645 0.7732 0.0
C1128 C 0.53443 0.53192 0.78684 0.0
C1129 C 0.51055 0.54774 0.78367 0.0
C1130 C 0.497 0.46252 0.72661 0.0
C1131 C 0.51882 0.50157 0.75095 0.0
C1132 C 0.49876 0.44035 0.70885 0.0
C1133 C 0.5243 0.43191 0.6987 0.0
C1134 C 0.52093 0.47624 0.73459 0.0
C1135 C 0.54798 0.44516 0.70836 0.0
C1136 C 0.53882 0.50894 0.77021 0.0
C1137 C 0.492 0.54054 0.76299 0.0
N1138 N 0.54575 0.46689 0.72577 0.0
N1139 N 0.49633 0.51776 0.74771 0.0
H1140 H 0.5519 0.95739 0.77707 0.0
H1141 H 0.4359 0.03995 0.69678 0.0
H1142 H 0.46716 0.9577 0.80255 0.0
H1143 H 0.52258 0.05469 0.68674 0.0
H1144 H 0.44624 0.00901 0.73491 0.0
H1145 H 0.54088 0.99135 0.74202 0.0
C1146 C 0.53092 0.96447 0.77513 0.0
C1147 C 0.51038 0.95469 0.79263 0.0
C1148 C 0.46295 0.01928 0.72453 0.0
C1149 C 0.49765 0.99367 0.75276 0.0
C1150 C 0.45706 0.03701 0.70288 0.0
C1151 C 0.47843 0.0498 0.68855 0.0
C1152 C 0.49039 0.01413 0.73161 0.0
C1153 C 0.50547 0.04522 0.6972 0.0
C1154 C 0.52468 0.98401 0.75529 0.0
C1155 C 0.48359 0.96471 0.7894 0.0
N1156 N 0.5107 0.02753 0.71798 0.0
N1157 N 0.47795 0.98361 0.76977 0.0
H1158 H 0.40555 0.24467 0.91945 0.0
H1159 H 0.51231 0.1526 0.92006 0.0
H1160 H 0.45959 0.29978 0.87644 0.0
H1161 H 0.56093 0.22624 0.91437 0.0
H1162 H 0.47263 0.17808 0.90299 0.0
H1163 H 0.4406 0.20918 0.91713 0.0
C1164 C 0.42447 0.24896 0.90864 0.0
C1165 C 0.42982 0.27528 0.89842 0.0
C1166 C 0.49196 0.18867 0.90543 0.0
C1167 C 0.47024 0.23477 0.89573 0.0
C1168 C 0.5147 0.17407 0.91493 0.0
C1169 C 0.53976 0.18751 0.91922 0.0
C1170 C 0.49436 0.21693 0.90038 0.0
C1171 C 0.54185 0.21521 0.91184 0.0
C1172 C 0.44453 0.2286 0.90721 0.0
C1173 C 0.45468 0.27979 0.88471 0.0
N1174 N 0.51935 0.22908 0.90307 0.0
N1175 N 0.47427 0.25996 0.8844 0.0
loop_
_geom_bond_atom_site_label_1
_geom_bond_atom_site_label_2
_geom_bond_distance
_geom_bond_site_symmetry_2
_ccdc_geom_bond_type
In0 O1 2.294 . S
In0 O2 2.326 1_455 S
In0 O6 2.266 . S
In0 O7 2.325 . S
In0 O8 2.266 1_455 S
In0 O9 2.326 1_455 S
In0 O11 2.294 1_455 S
In0 O12 2.326 . S
O1 In0 2.294 . S
O1 C10 1.240 1_455 S
O2 In0 2.326 1_655 S
O2 C10 1.252 . S
C3 O6 1.252 . S
C3 O7 1.260 . S
C4 O11 1.240 . S
C4 O12 1.252 1_655 S
C5 O8 1.252 . S
C5 O9 1.260 . S
O6 In0 2.266 . S
O6 C3 1.252 . S
O7 In0 2.325 . S
O7 C3 1.260 . S
O8 In0 2.266 1_655 S
O8 C5 1.252 . S
O9 In0 2.326 1_655 S
O9 C5 1.260 . S
C10 O1 1.240 1_655 S
C10 O2 1.252 . S
O11 In0 2.294 1_655 S
O11 C4 1.240 . S
O12 In0 2.326 . S
O12 C4 1.252 1_455 S
In13 O14 2.294 1_655 S
In13 O15 2.326 . S
In13 O19 2.266 1_655 S
In13 O20 2.326 1_655 S
In13 O21 2.266 . S
In13 O22 2.325 . S
In13 O24 2.294 . S
In13 O25 2.326 1_655 S
O14 In13 2.294 1_455 S
O14 C23 1.240 . S
O15 In13 2.326 . S
O15 C23 1.252 1_655 S
C16 O19 1.252 . S
C16 O20 1.260 . S
C17 O24 1.227 1_455 S
C17 O25 1.265 . S
C18 O21 1.252 . S
C18 O22 1.260 . S
O19 In13 2.266 1_455 S
O19 C16 1.252 . S
O20 In13 2.326 1_455 S
O20 C16 1.260 . S
O21 In13 2.266 . S
O21 C18 1.252 . S
O22 In13 2.325 . S
O22 C18 1.260 . S
C23 O14 1.240 . S
C23 O15 1.252 1_455 S
O24 In13 2.294 . S
O24 C17 1.227 1_655 S
O25 In13 2.326 1_455 S
O25 C17 1.265 . S
In26 O27 2.294 1_455 S
In26 O28 2.326 . S
In26 O32 2.266 1_455 S
In26 O33 2.326 1_455 S
In26 O34 2.266 . S
In26 O35 2.325 . S
In26 O37 2.294 . S
In26 O38 2.326 1_455 S
O27 In26 2.294 1_655 S
O27 C36 1.240 . S
O28 In26 2.326 . S
O28 C36 1.252 1_455 S
C29 O32 1.252 . S
C29 O33 1.260 . S
C30 O37 1.255 . S
C30 O38 1.237 1_455 S
C31 O34 1.252 . S
C31 O35 1.260 . S
O32 In26 2.266 1_655 S
O32 C29 1.252 . S
O33 In26 2.326 1_655 S
O33 C29 1.260 . S
O34 In26 2.266 . S
O34 C31 1.252 . S
O35 In26 2.325 . S
O35 C31 1.260 . S
C36 O27 1.240 . S
C36 O28 1.252 1_655 S
O37 In26 2.294 . S
O37 C30 1.255 . S
O38 In26 2.326 1_655 S
O38 C30 1.237 1_655 S
In39 O40 2.294 . S
In39 O41 2.326 1_655 S
In39 O45 2.266 . S
In39 O46 2.325 . S
In39 O47 2.266 1_655 S
In39 O48 2.326 1_655 S
In39 O50 2.294 1_655 S
In39 O51 2.326 . S
O40 In39 2.294 . S
O40 C49 1.240 . S
O41 In39 2.326 1_455 S
O41 C49 1.252 1_455 S
C42 O45 1.252 . S
C42 O46 1.260 . S
C43 O50 1.240 . S
C43 O51 1.252 1_455 S
C44 O47 1.252 . S
C44 O48 1.260 . S
O45 In39 2.266 . S
O45 C42 1.252 . S
O46 In39 2.325 . S
O46 C42 1.260 . S
O47 In39 2.266 1_455 S
O47 C44 1.252 . S
O48 In39 2.326 1_455 S
O48 C44 1.260 . S
C49 O40 1.240 . S
C49 O41 1.252 1_655 S
O50 In39 2.294 1_455 S
O50 C43 1.240 . S
O51 In39 2.326 . S
O51 C43 1.252 1_655 S
In52 O53 2.294 1_545 S
In52 O54 2.326 . S
In52 O58 2.266 1_545 S
In52 O59 2.326 1_545 S
In52 O60 2.266 . S
In52 O61 2.325 . S
In52 O63 2.294 . S
In52 O64 2.326 1_545 S
O53 In52 2.294 1_565 S
O53 C62 1.240 . S
O54 In52 2.326 . S
O54 C62 1.252 1_545 S
C55 O58 1.252 . S
C55 O59 1.260 . S
C56 O63 1.240 1_565 S
C56 O64 1.252 . S
C57 O60 1.252 . S
C57 O61 1.260 . S
O58 In52 2.266 1_565 S
O58 C55 1.252 . S
O59 In52 2.326 1_565 S
O59 C55 1.260 . S
O60 In52 2.266 . S
O60 C57 1.252 . S
O61 In52 2.325 . S
O61 C57 1.260 . S
C62 O53 1.240 . S
C62 O54 1.252 1_565 S
O63 In52 2.294 . S
O63 C56 1.240 1_545 S
O64 In52 2.326 1_565 S
O64 C56 1.252 . S
In65 O66 2.294 . S
In65 O67 2.326 . S
In65 O71 2.266 . S
In65 O72 2.326 . S
In65 O73 2.266 . S
In65 O74 2.326 . S
In65 O76 2.294 . S
In65 O77 2.326 . S
O66 In65 2.294 . S
O66 C75 1.240 . S
O67 In65 2.326 . S
O67 C75 1.252 . S
C68 O71 1.252 . S
C68 O72 1.260 . S
C69 O76 1.240 . S
C69 O77 1.252 . S
C70 O73 1.252 . S
C70 O74 1.260 . S
O71 In65 2.266 . S
O71 C68 1.252 . S
O72 In65 2.326 . S
O72 C68 1.260 . S
O73 In65 2.266 . S
O73 C70 1.252 . S
O74 In65 2.326 . S
O74 C70 1.260 . S
C75 O66 1.240 . S
C75 O67 1.252 . S
O76 In65 2.294 . S
O76 C69 1.240 . S
O77 In65 2.326 . S
O77 C69 1.252 . S
In78 O79 2.294 1_565 S
In78 O80 2.326 . S
In78 O84 2.266 1_565 S
In78 O85 2.326 1_565 S
In78 O86 2.266 . S
In78 O87 2.325 . S
In78 O89 2.294 . S
In78 O90 2.326 1_565 S
O79 In78 2.294 1_545 S
O79 C88 1.240 . S
O80 In78 2.326 . S
O80 C88 1.252 1_565 S
C81 O84 1.252 . S
C81 O85 1.260 . S
C82 O89 1.227 1_545 S
C82 O90 1.265 . S
C83 O86 1.252 . S
C83 O87 1.260 . S
O84 In78 2.266 1_545 S
O84 C81 1.252 . S
O85 In78 2.326 1_545 S
O85 C81 1.260 . S
O86 In78 2.266 . S
O86 C83 1.252 . S
O87 In78 2.325 . S
O87 C83 1.260 . S
C88 O79 1.240 . S
C88 O80 1.252 1_545 S
O89 In78 2.294 . S
O89 C82 1.227 1_565 S
O90 In78 2.326 1_545 S
O90 C82 1.265 . S
In91 O92 2.294 . S
In91 O93 2.326 . S
In91 O97 2.266 . S
In91 O98 2.326 . S
In91 O99 2.266 . S
In91 O100 2.326 . S
In91 O102 2.294 . S
In91 O103 2.326 . S
O92 In91 2.294 . S
O92 C101 1.240 . S
O93 In91 2.326 . S
O93 C101 1.252 . S
C94 O97 1.252 . S
C94 O98 1.260 . S
C95 O102 1.240 . S
C95 O103 1.252 . S
C96 O99 1.252 . S
C96 O100 1.260 . S
O97 In91 2.266 . S
O97 C94 1.252 . S
O98 In91 2.326 . S
O98 C94 1.260 . S
O99 In91 2.266 . S
O99 C96 1.252 . S
O100 In91 2.326 . S
O100 C96 1.260 . S
C101 O92 1.240 . S
C101 O93 1.252 . S
O102 In91 2.294 . S
O102 C95 1.240 . S
O103 In91 2.326 . S
O103 C95 1.252 . S
In104 O105 2.294 . S
In104 O106 2.326 1_554 S
In104 O110 2.266 . S
In104 O111 2.325 . S
In104 O112 2.266 1_554 S
In104 O113 2.326 1_554 S
In104 O115 2.294 1_554 S
In104 O116 2.326 . S
O105 In104 2.294 . S
O105 C114 1.240 1_554 S
O106 In104 2.326 1_556 S
O106 C114 1.252 . S
C107 O110 1.252 . S
C107 O111 1.260 . S
C108 O115 1.240 . S
C108 O116 1.252 1_556 S
C109 O112 1.252 . S
C109 O113 1.260 . S
O110 In104 2.266 . S
O110 C107 1.252 . S
O111 In104 2.325 . S
O111 C107 1.260 . S
O112 In104 2.266 1_556 S
O112 C109 1.252 . S
O113 In104 2.326 1_556 S
O113 C109 1.260 . S
C114 O105 1.240 1_556 S
C114 O106 1.252 . S
O115 In104 2.294 1_556 S
O115 C108 1.240 . S
O116 In104 2.326 . S
O116 C108 1.252 1_554 S
In117 O118 2.294 . S
In117 O119 2.326 . S
In117 O123 2.266 . S
In117 O124 2.326 . S
In117 O125 2.266 . S
In117 O126 2.326 . S
In117 O128 2.294 . S
In117 O129 2.326 . S
O118 In117 2.294 . S
O118 C127 1.240 . S
O119 In117 2.326 . S
O119 C127 1.252 . S
C120 O123 1.252 . S
C120 O124 1.260 . S
C121 O128 1.240 . S
C121 O129 1.252 . S
C122 O125 1.252 . S
C122 O126 1.260 . S
O123 In117 2.266 . S
O123 C120 1.252 . S
O124 In117 2.326 . S
O124 C120 1.260 . S
O125 In117 2.266 . S
O125 C122 1.252 . S
O126 In117 2.326 . S
O126 C122 1.260 . S
C127 O118 1.240 . S
C127 O119 1.252 . S
O128 In117 2.294 . S
O128 C121 1.240 . S
O129 In117 2.326 . S
O129 C121 1.252 . S
In130 O131 2.294 . S
In130 O132 2.326 . S
In130 O136 2.266 . S
In130 O137 2.326 . S
In130 O138 2.266 . S
In130 O139 2.326 . S
In130 O141 2.294 . S
In130 O142 2.326 . S
O131 In130 2.294 . S
O131 C140 1.240 . S
O132 In130 2.326 . S
O132 C140 1.252 . S
C133 O136 1.252 . S
C133 O137 1.260 . S
C134 O141 1.240 . S
C134 O142 1.252 . S
C135 O138 1.252 . S
C135 O139 1.260 . S
O136 In130 2.266 . S
O136 C133 1.252 . S
O137 In130 2.326 . S
O137 C133 1.260 . S
O138 In130 2.266 . S
O138 C135 1.252 . S
O139 In130 2.326 . S
O139 C135 1.260 . S
C140 O131 1.240 . S
C140 O132 1.252 . S
O141 In130 2.294 . S
O141 C134 1.240 . S
O142 In130 2.326 . S
O142 C134 1.252 . S
In143 O144 2.294 . S
In143 O145 2.326 . S
In143 O149 2.266 . S
In143 O150 2.326 . S
In143 O151 2.266 . S
In143 O152 2.326 . S
In143 O154 2.294 . S
In143 O155 2.326 . S
O144 In143 2.294 . S
O144 C153 1.240 . S
O145 In143 2.326 . S
O145 C153 1.252 . S
C146 O149 1.252 . S
C146 O150 1.260 . S
C147 O154 1.240 . S
C147 O155 1.252 . S
C148 O151 1.252 . S
C148 O152 1.260 . S
O149 In143 2.266 . S
O149 C146 1.252 . S
O150 In143 2.326 . S
O150 C146 1.260 . S
O151 In143 2.266 . S
O151 C148 1.252 . S
O152 In143 2.326 . S
O152 C148 1.260 . S
C153 O144 1.240 . S
C153 O145 1.252 . S
O154 In143 2.294 . S
O154 C147 1.240 . S
O155 In143 2.326 . S
O155 C147 1.252 . S
In156 O157 2.294 . S
In156 O158 2.326 . S
In156 O162 2.266 . S
In156 O163 2.326 . S
In156 O164 2.266 . S
In156 O165 2.326 . S
In156 O167 2.294 . S
In156 O168 2.326 . S
O157 In156 2.294 . S
O157 C166 1.240 . S
O158 In156 2.326 . S
O158 C166 1.252 . S
C159 O162 1.252 . S
C159 O163 1.260 . S
C160 O167 1.240 . S
C160 O168 1.252 . S
C161 O164 1.252 . S
C161 O165 1.260 . S
O162 In156 2.266 . S
O162 C159 1.252 . S
O163 In156 2.326 . S
O163 C159 1.260 . S
O164 In156 2.266 . S
O164 C161 1.252 . S
O165 In156 2.326 . S
O165 C161 1.260 . S
C166 O157 1.240 . S
C166 O158 1.252 . S
O167 In156 2.294 . S
O167 C160 1.240 . S
O168 In156 2.326 . S
O168 C160 1.252 . S
In169 O170 2.294 . S
In169 O171 2.326 . S
In169 O175 2.266 . S
In169 O176 2.326 . S
In169 O177 2.266 . S
In169 O178 2.326 . S
In169 O180 2.294 . S
In169 O181 2.326 . S
O170 In169 2.294 . S
O170 C179 1.240 . S
O171 In169 2.326 . S
O171 C179 1.252 . S
C172 O175 1.252 . S
C172 O176 1.260 . S
C173 O180 1.240 . S
C173 O181 1.252 . S
C174 O177 1.252 . S
C174 O178 1.260 . S
O175 In169 2.266 . S
O175 C172 1.252 . S
O176 In169 2.326 . S
O176 C172 1.260 . S
O177 In169 2.266 . S
O177 C174 1.252 . S
O178 In169 2.326 . S
O178 C174 1.260 . S
C179 O170 1.240 . S
C179 O171 1.252 . S
O180 In169 2.294 . S
O180 C173 1.240 . S
O181 In169 2.326 . S
O181 C173 1.252 . S
In182 O183 2.294 . S
In182 O184 2.326 . S
In182 O188 2.266 . S
In182 O189 2.326 . S
In182 O190 2.266 . S
In182 O191 2.326 . S
In182 O193 2.294 . S
In182 O194 2.326 . S
O183 In182 2.294 . S
O183 C192 1.240 . S
O184 In182 2.326 . S
O184 C192 1.252 . S
C185 O188 1.252 . S
C185 O189 1.260 . S
C186 O193 1.240 . S
C186 O194 1.252 . S
C187 O190 1.252 . S
C187 O191 1.260 . S
O188 In182 2.266 . S
O188 C185 1.252 . S
O189 In182 2.326 . S
O189 C185 1.260 . S
O190 In182 2.266 . S
O190 C187 1.252 . S
O191 In182 2.326 . S
O191 C187 1.260 . S
C192 O183 1.240 . S
C192 O184 1.252 . S
O193 In182 2.294 . S
O193 C186 1.240 . S
O194 In182 2.326 . S
O194 C186 1.252 . S
In195 O196 2.294 . S
In195 O197 2.326 . S
In195 O201 2.266 . S
In195 O202 2.326 . S
In195 O203 2.266 . S
In195 O204 2.326 . S
In195 O206 2.294 . S
In195 O207 2.326 . S
O196 In195 2.294 . S
O196 C205 1.240 . S
O197 In195 2.326 . S
O197 C205 1.252 . S
C198 O201 1.252 . S
C198 O202 1.260 . S
C199 O206 1.240 . S
C199 O207 1.252 . S
C200 O203 1.252 . S
C200 O204 1.260 . S
O201 In195 2.266 . S
O201 C198 1.252 . S
O202 In195 2.326 . S
O202 C198 1.260 . S
O203 In195 2.266 . S
O203 C200 1.252 . S
O204 In195 2.326 . S
O204 C200 1.260 . S
C205 O196 1.240 . S
C205 O197 1.252 . S
O206 In195 2.294 . S
O206 C199 1.240 . S
O207 In195 2.326 . S
O207 C199 1.252 . S
In208 O209 2.294 . S
In208 O210 2.326 . S
In208 O214 2.266 . S
In208 O215 2.326 . S
In208 O216 2.266 . S
In208 O217 2.326 . S
In208 O219 2.294 . S
In208 O220 2.326 . S
O209 In208 2.294 . S
O209 C218 1.240 . S
O210 In208 2.326 . S
O210 C218 1.252 . S
C211 O214 1.252 . S
C211 O215 1.260 . S
C212 O219 1.240 . S
C212 O220 1.252 . S
C213 O216 1.252 . S
C213 O217 1.260 . S
O214 In208 2.266 . S
O214 C211 1.252 . S
O215 In208 2.326 . S
O215 C211 1.260 . S
O216 In208 2.266 . S
O216 C213 1.252 . S
O217 In208 2.326 . S
O217 C213 1.260 . S
C218 O209 1.240 . S
C218 O210 1.252 . S
O219 In208 2.294 . S
O219 C212 1.240 . S
O220 In208 2.326 . S
O220 C212 1.252 . S
In221 O222 2.294 1_565 S
In221 O223 2.326 . S
In221 O227 2.266 1_565 S
In221 O228 2.326 1_565 S
In221 O229 2.266 . S
In221 O230 2.325 . S
In221 O232 2.294 . S
In221 O233 2.326 1_565 S
O222 In221 2.294 1_545 S
O222 C231 1.240 . S
O223 In221 2.326 . S
O223 C231 1.252 1_565 S
C224 O227 1.252 . S
C224 O228 1.260 . S
C225 O232 1.240 . S
C225 O233 1.252 1_565 S
C226 O229 1.252 . S
C226 O230 1.260 . S
O227 In221 2.266 1_545 S
O227 C224 1.252 . S
O228 In221 2.326 1_545 S
O228 C224 1.260 . S
O229 In221 2.266 . S
O229 C226 1.252 . S
O230 In221 2.325 . S
O230 C226 1.260 . S
C231 O222 1.240 . S
C231 O223 1.252 1_545 S
O232 In221 2.294 . S
O232 C225 1.240 . S
O233 In221 2.326 1_545 S
O233 C225 1.252 1_545 S
In234 O235 2.294 . S
In234 O236 2.326 . S
In234 O240 2.266 . S
In234 O241 2.326 . S
In234 O242 2.266 . S
In234 O243 2.326 . S
In234 O245 2.294 . S
In234 O246 2.326 . S
O235 In234 2.294 . S
O235 C244 1.240 . S
O236 In234 2.326 . S
O236 C244 1.252 . S
C237 O240 1.252 . S
C237 O241 1.260 . S
C238 O245 1.240 . S
C238 O246 1.252 . S
C239 O242 1.252 . S
C239 O243 1.260 . S
O240 In234 2.266 . S
O240 C237 1.252 . S
O241 In234 2.326 . S
O241 C237 1.260 . S
O242 In234 2.266 . S
O242 C239 1.252 . S
O243 In234 2.326 . S
O243 C239 1.260 . S
C244 O235 1.240 . S
C244 O236 1.252 . S
O245 In234 2.294 . S
O245 C238 1.240 . S
O246 In234 2.326 . S
O246 C238 1.252 . S
In247 O248 2.294 . S
In247 O249 2.326 1_545 S
In247 O253 2.266 . S
In247 O254 2.325 . S
In247 O255 2.266 1_545 S
In247 O256 2.326 1_545 S
In247 O258 2.294 1_545 S
In247 O259 2.326 . S
O248 In247 2.294 . S
O248 C257 1.255 . S
O249 In247 2.326 1_565 S
O249 C257 1.237 1_565 S
C250 O253 1.252 . S
C250 O254 1.260 . S
C251 O258 1.240 . S
C251 O259 1.252 1_565 S
C252 O255 1.252 . S
C252 O256 1.260 . S
O253 In247 2.266 . S
O253 C250 1.252 . S
O254 In247 2.325 . S
O254 C250 1.260 . S
O255 In247 2.266 1_565 S
O255 C252 1.252 . S
O256 In247 2.326 1_565 S
O256 C252 1.260 . S
C257 O248 1.255 . S
C257 O249 1.237 1_545 S
O258 In247 2.294 1_565 S
O258 C251 1.240 . S
O259 In247 2.326 . S
O259 C251 1.252 1_545 S
In260 O261 2.294 . S
In260 O262 2.326 . S
In260 O266 2.266 . S
In260 O267 2.326 . S
In260 O268 2.266 . S
In260 O269 2.326 . S
In260 O271 2.294 . S
In260 O272 2.326 . S
O261 In260 2.294 . S
O261 C270 1.240 . S
O262 In260 2.326 . S
O262 C270 1.252 . S
C263 O266 1.252 . S
C263 O267 1.260 . S
C264 O271 1.240 . S
C264 O272 1.252 . S
C265 O268 1.252 . S
C265 O269 1.260 . S
O266 In260 2.266 . S
O266 C263 1.252 . S
O267 In260 2.326 . S
O267 C263 1.260 . S
O268 In260 2.266 . S
O268 C265 1.252 . S
O269 In260 2.326 . S
O269 C265 1.260 . S
C270 O261 1.240 . S
C270 O262 1.252 . S
O271 In260 2.294 . S
O271 C264 1.240 . S
O272 In260 2.326 . S
O272 C264 1.252 . S
In273 O274 2.294 . S
In273 O275 2.326 1_556 S
In273 O279 2.266 . S
In273 O280 2.325 . S
In273 O281 2.266 1_556 S
In273 O282 2.326 1_556 S
In273 O284 2.294 1_556 S
In273 O285 2.326 . S
O274 In273 2.294 . S
O274 C283 1.240 . S
O275 In273 2.326 1_554 S
O275 C283 1.252 1_554 S
C276 O279 1.252 . S
C276 O280 1.260 . S
C277 O284 1.240 . S
C277 O285 1.252 1_554 S
C278 O281 1.252 . S
C278 O282 1.260 . S
O279 In273 2.266 . S
O279 C276 1.252 . S
O280 In273 2.325 . S
O280 C276 1.260 . S
O281 In273 2.266 1_554 S
O281 C278 1.252 . S
O282 In273 2.326 1_554 S
O282 C278 1.260 . S
C283 O274 1.240 . S
C283 O275 1.252 1_556 S
O284 In273 2.294 1_554 S
O284 C277 1.240 . S
O285 In273 2.326 . S
O285 C277 1.252 1_556 S
In286 O287 2.294 . S
In286 O288 2.326 1_556 S
In286 O292 2.266 . S
In286 O293 2.325 . S
In286 O294 2.266 1_556 S
In286 O295 2.326 1_556 S
In286 O297 2.294 1_556 S
In286 O298 2.326 . S
O287 In286 2.294 . S
O287 C296 1.227 1_556 S
O288 In286 2.326 1_554 S
O288 C296 1.265 . S
C289 O292 1.252 . S
C289 O293 1.260 . S
C290 O297 1.240 . S
C290 O298 1.252 1_554 S
C291 O294 1.252 . S
C291 O295 1.260 . S
O292 In286 2.266 . S
O292 C289 1.252 . S
O293 In286 2.325 . S
O293 C289 1.260 . S
O294 In286 2.266 1_554 S
O294 C291 1.252 . S
O295 In286 2.326 1_554 S
O295 C291 1.260 . S
C296 O287 1.227 1_554 S
C296 O288 1.265 . S
O297 In286 2.294 1_554 S
O297 C290 1.240 . S
O298 In286 2.326 . S
O298 C290 1.252 1_556 S
In299 O300 2.294 1_554 S
In299 O301 2.326 . S
In299 O305 2.266 1_554 S
In299 O306 2.326 1_554 S
In299 O307 2.266 . S
In299 O308 2.325 . S
In299 O310 2.294 . S
In299 O311 2.326 1_554 S
O300 In299 2.294 1_556 S
O300 C309 1.240 . S
O301 In299 2.326 . S
O301 C309 1.252 1_554 S
C302 O305 1.252 . S
C302 O306 1.260 . S
C303 O310 1.255 . S
C303 O311 1.237 1_554 S
C304 O307 1.252 . S
C304 O308 1.260 . S
O305 In299 2.266 1_556 S
O305 C302 1.252 . S
O306 In299 2.326 1_556 S
O306 C302 1.260 . S
O307 In299 2.266 . S
O307 C304 1.252 . S
O308 In299 2.325 . S
O308 C304 1.260 . S
C309 O300 1.240 . S
C309 O301 1.252 1_556 S
O310 In299 2.294 . S
O310 C303 1.255 . S
O311 In299 2.326 1_556 S
O311 C303 1.237 1_556 S
H312 C318 0.930 . S
H313 C322 0.930 . S
H314 C327 0.929 . S
H315 C325 0.929 . S
H316 C320 0.929 . S
H317 C326 0.929 . S
C318 H312 0.930 . S
C318 C319 1.367 . S
C318 C326 1.378 . S
C319 C318 1.367 . S
C319 C327 1.433 . S
C320 H316 0.929 . S
C320 C322 1.378 . S
C320 C324 1.350 . S
C321 C324 1.463 . S
C321 C326 1.350 . S
C321 N329 1.427 . S
C322 H313 0.930 . S
C322 C320 1.378 . S
C322 C323 1.367 . S
C323 C322 1.367 . S
C323 C325 1.433 . S
C324 C320 1.350 . S
C324 C321 1.463 . S
C324 N328 1.427 . S
C325 H315 0.929 . S
C325 C323 1.433 . S
C325 N328 1.384 . S
C326 H317 0.929 . S
C326 C318 1.378 . S
C326 C321 1.350 . S
C327 H314 0.929 . S
C327 C319 1.433 . S
C327 N329 1.384 . S
N328 C324 1.427 . S
N328 C325 1.384 . S
N329 C321 1.427 . S
N329 C327 1.384 . S
H330 C336 0.930 . S
H331 C340 0.930 . S
H332 C345 0.929 . S
H333 C343 0.929 . S
H334 C338 0.929 . S
H335 C344 0.929 . S
C336 H330 0.930 . S
C336 C337 1.367 . S
C336 C344 1.378 . S
C337 C336 1.367 . S
C337 C345 1.433 . S
C338 H334 0.929 . S
C338 C340 1.378 . S
C338 C342 1.350 . S
C339 C342 1.463 . S
C339 C344 1.350 . S
C339 N347 1.427 . S
C340 H331 0.930 . S
C340 C338 1.378 . S
C340 C341 1.367 . S
C341 C340 1.367 . S
C341 C343 1.433 . S
C342 C338 1.350 . S
C342 C339 1.463 . S
C342 N346 1.427 . S
C343 H333 0.929 . S
C343 C341 1.433 . S
C343 N346 1.384 . S
C344 H335 0.929 . S
C344 C336 1.378 . S
C344 C339 1.350 . S
C345 H332 0.929 . S
C345 C337 1.433 . S
C345 N347 1.384 . S
N346 C342 1.427 . S
N346 C343 1.384 . S
N347 C339 1.427 . S
N347 C345 1.384 . S
H348 C354 0.930 . S
H349 C358 0.930 . S
H350 C363 0.929 . S
H351 C361 0.929 . S
H352 C356 0.929 . S
H353 C362 0.929 . S
C354 H348 0.930 . S
C354 C355 1.367 . S
C354 C362 1.378 . S
C355 C354 1.367 . S
C355 C363 1.433 . S
C356 H352 0.929 . S
C356 C358 1.378 1_554 S
C356 C360 1.350 . S
C357 C360 1.463 . S
C357 C362 1.350 . S
C357 N365 1.427 . S
C358 H349 0.930 . S
C358 C356 1.378 1_556 S
C358 C359 1.367 . S
C359 C358 1.367 . S
C359 C361 1.433 . S
C360 C356 1.350 . S
C360 C357 1.463 . S
C360 N364 1.427 1_554 S
C361 H351 0.929 . S
C361 C359 1.433 . S
C361 N364 1.384 . S
C362 H353 0.929 . S
C362 C354 1.378 . S
C362 C357 1.350 . S
C363 H350 0.929 . S
C363 C355 1.433 . S
C363 N365 1.384 . S
N364 C360 1.427 1_556 S
N364 C361 1.384 . S
N365 C357 1.427 . S
N365 C363 1.384 . S
H366 C372 0.930 . S
H367 C376 0.930 . S
H368 C381 0.929 . S
H369 C379 0.929 . S
H370 C374 0.929 . S
H371 C380 0.929 . S
C372 H366 0.930 . S
C372 C373 1.367 . S
C372 C380 1.378 . S
C373 C372 1.367 . S
C373 C381 1.433 . S
C374 H370 0.929 . S
C374 C376 1.378 1_554 S
C374 C378 1.350 . S
C375 C378 1.463 . S
C375 C380 1.350 . S
C375 N383 1.427 . S
C376 H367 0.930 . S
C376 C374 1.378 1_556 S
C376 C377 1.367 . S
C377 C376 1.367 . S
C377 C379 1.433 . S
C378 C374 1.350 . S
C378 C375 1.463 . S
C378 N382 1.427 1_554 S
C379 H369 0.929 . S
C379 C377 1.433 . S
C379 N382 1.384 . S
C380 H371 0.929 . S
C380 C372 1.378 . S
C380 C375 1.350 . S
C381 H368 0.929 . S
C381 C373 1.433 . S
C381 N383 1.384 . S
N382 C378 1.427 1_556 S
N382 C379 1.384 . S
N383 C375 1.427 . S
N383 C381 1.384 . S
H384 C390 0.930 . S
H385 C394 0.930 . S
H386 C399 0.929 . S
H387 C397 0.929 . S
H388 C392 0.929 . S
H389 C398 0.929 . S
C390 H384 0.930 . S
C390 C391 1.367 . S
C390 C398 1.378 . S
C391 C390 1.367 . S
C391 C399 1.433 . S
C392 H388 0.929 . S
C392 C394 1.378 . S
C392 C396 1.350 . S
C393 C396 1.463 . S
C393 C398 1.350 . S
C393 N401 1.427 . S
C394 H385 0.930 . S
C394 C392 1.378 . S
C394 C395 1.367 . S
C395 C394 1.367 . S
C395 C397 1.433 . S
C396 C392 1.350 . S
C396 C393 1.463 . S
C396 N400 1.427 . S
C397 H387 0.929 . S
C397 C395 1.433 . S
C397 N400 1.384 . S
C398 H389 0.929 . S
C398 C390 1.378 . S
C398 C393 1.350 . S
C399 H386 0.929 . S
C399 C391 1.433 . S
C399 N401 1.384 . S
N400 C396 1.427 . S
N400 C397 1.384 . S
N401 C393 1.427 . S
N401 C399 1.384 . S
H402 C408 0.930 . S
H403 C412 0.930 1_556 S
H404 C417 0.929 . S
H405 C415 0.929 . S
H406 C410 0.929 . S
H407 C416 0.929 . S
C408 H402 0.930 . S
C408 C409 1.367 . S
C408 C416 1.378 . S
C409 C408 1.367 . S
C409 C417 1.433 . S
C410 H406 0.929 . S
C410 C412 1.378 . S
C410 C414 1.350 . S
C411 C414 1.463 . S
C411 C416 1.350 . S
C411 N419 1.427 . S
C412 H403 0.930 1_554 S
C412 C410 1.378 . S
C412 C413 1.367 . S
C413 C412 1.367 . S
C413 C415 1.433 . S
C414 C410 1.350 . S
C414 C411 1.463 . S
C414 N418 1.427 . S
C415 H405 0.929 . S
C415 C413 1.433 . S
C415 N418 1.384 . S
C416 H407 0.929 . S
C416 C408 1.378 . S
C416 C411 1.350 . S
C417 H404 0.929 . S
C417 C409 1.433 . S
C417 N419 1.384 . S
N418 C414 1.427 . S
N418 C415 1.384 . S
N419 C411 1.427 . S
N419 C417 1.384 . S
H420 C426 0.930 . S
H421 C430 0.930 . S
H422 C435 0.929 . S
H423 C433 0.929 . S
H424 C428 0.929 . S
H425 C434 0.929 . S
C426 H420 0.930 . S
C426 C427 1.367 . S
C426 C434 1.378 . S
C427 C426 1.367 . S
C427 C435 1.433 . S
C428 H424 0.929 . S
C428 C430 1.378 . S
C428 C432 1.350 . S
C429 C432 1.463 . S
C429 C434 1.350 . S
C429 N437 1.427 . S
C430 H421 0.930 . S
C430 C428 1.378 . S
C430 C431 1.367 . S
C431 C430 1.367 . S
C431 C433 1.433 . S
C432 C428 1.350 . S
C432 C429 1.463 . S
C432 N436 1.427 . S
C433 H423 0.929 . S
C433 C431 1.433 . S
C433 N436 1.384 . S
C434 H425 0.929 . S
C434 C426 1.378 . S
C434 C429 1.350 . S
C435 H422 0.929 . S
C435 C427 1.433 . S
C435 N437 1.384 . S
N436 C432 1.427 . S
N436 C433 1.384 . S
N437 C429 1.427 . S
N437 C435 1.384 . S
H438 C444 0.930 . S
H439 C448 0.930 . S
H440 C453 0.929 . S
H441 C451 0.929 . S
H442 C446 0.929 . S
H443 C452 0.929 . S
C444 H438 0.930 . S
C444 C445 1.367 . S
C444 C452 1.378 . S
C445 C444 1.367 . S
C445 C453 1.433 . S
C446 H442 0.929 . S
C446 C448 1.378 . S
C446 C450 1.350 . S
C447 C450 1.463 . S
C447 C452 1.350 . S
C447 N455 1.427 . S
C448 H439 0.930 . S
C448 C446 1.378 . S
C448 C449 1.367 . S
C449 C448 1.367 . S
C449 C451 1.433 . S
C450 C446 1.350 . S
C450 C447 1.463 . S
C450 N454 1.427 . S
C451 H441 0.929 . S
C451 C449 1.433 . S
C451 N454 1.384 . S
C452 H443 0.929 . S
C452 C444 1.378 . S
C452 C447 1.350 . S
C453 H440 0.929 . S
C453 C445 1.433 . S
C453 N455 1.384 . S
N454 C450 1.427 . S
N454 C451 1.384 . S
N455 C447 1.427 . S
N455 C453 1.384 . S
H456 C462 0.930 . S
H457 C466 0.930 . S
H458 C471 0.929 . S
H459 C469 0.929 1_655 S
H460 C464 0.929 . S
H461 C470 0.929 . S
C462 H456 0.930 . S
C462 C463 1.367 . S
C462 C470 1.378 . S
C463 C462 1.367 . S
C463 C471 1.433 . S
C464 H460 0.929 . S
C464 C466 1.378 . S
C464 C468 1.350 . S
C465 C468 1.463 . S
C465 C470 1.350 . S
C465 N473 1.427 . S
C466 H457 0.930 . S
C466 C464 1.378 . S
C466 C467 1.367 . S
C467 C466 1.367 . S
C467 C469 1.433 . S
C468 C464 1.350 . S
C468 C465 1.463 . S
C468 N472 1.427 . S
C469 H459 0.929 1_455 S
C469 C467 1.433 . S
C469 N472 1.384 . S
C470 H461 0.929 . S
C470 C462 1.378 . S
C470 C465 1.350 . S
C471 H458 0.929 . S
C471 C463 1.433 . S
C471 N473 1.384 . S
N472 C468 1.427 . S
N472 C469 1.384 . S
N473 C465 1.427 . S
N473 C471 1.384 . S
H474 C480 0.930 . S
H475 C484 0.930 . S
H476 C489 0.929 . S
H477 C487 0.929 . S
H478 C482 0.929 . S
H479 C488 0.929 . S
C480 H474 0.930 . S
C480 C481 1.367 . S
C480 C488 1.378 . S
C481 C480 1.367 . S
C481 C489 1.433 . S
C482 H478 0.929 . S
C482 C484 1.378 . S
C482 C486 1.350 . S
C483 C486 1.463 . S
C483 C488 1.350 . S
C483 N491 1.427 . S
C484 H475 0.930 . S
C484 C482 1.378 . S
C484 C485 1.367 . S
C485 C484 1.367 . S
C485 C487 1.433 . S
C486 C482 1.350 . S
C486 C483 1.463 . S
C486 N490 1.427 . S
C487 H477 0.929 . S
C487 C485 1.433 . S
C487 N490 1.384 . S
C488 H479 0.929 . S
C488 C480 1.378 . S
C488 C483 1.350 . S
C489 H476 0.929 . S
C489 C481 1.433 . S
C489 N491 1.384 . S
N490 C486 1.427 . S
N490 C487 1.384 . S
N491 C483 1.427 . S
N491 C489 1.384 . S
H492 C498 0.930 . S
H493 C502 0.930 . S
H494 C507 0.929 . S
H495 C505 0.929 . S
H496 C500 0.929 . S
H497 C506 0.929 . S
C498 H492 0.930 . S
C498 C499 1.367 . S
C498 C506 1.378 . S
C499 C498 1.367 . S
C499 C507 1.433 . S
C500 H496 0.929 . S
C500 C502 1.378 1_565 S
C500 C504 1.350 . S
C501 C504 1.463 . S
C501 C506 1.350 . S
C501 N509 1.427 . S
C502 H493 0.930 . S
C502 C500 1.378 1_545 S
C502 C503 1.367 . S
C503 C502 1.367 . S
C503 C505 1.433 . S
C504 C500 1.350 . S
C504 C501 1.463 . S
C504 N508 1.427 1_565 S
C505 H495 0.929 . S
C505 C503 1.433 . S
C505 N508 1.384 . S
C506 H497 0.929 . S
C506 C498 1.378 . S
C506 C501 1.350 . S
C507 H494 0.929 . S
C507 C499 1.433 . S
C507 N509 1.384 . S
N508 C504 1.427 1_545 S
N508 C505 1.384 . S
N509 C501 1.427 . S
N509 C507 1.384 . S
H510 C516 0.930 . S
H511 C520 0.930 . S
H512 C525 0.929 . S
H513 C523 0.929 . S
H514 C518 0.929 . S
H515 C524 0.929 . S
C516 H510 0.930 . S
C516 C517 1.367 . S
C516 C524 1.378 . S
C517 C516 1.367 . S
C517 C525 1.433 . S
C518 H514 0.929 . S
C518 C520 1.378 . S
C518 C522 1.350 . S
C519 C522 1.463 . S
C519 C524 1.350 . S
C519 N527 1.427 . S
C520 H511 0.930 . S
C520 C518 1.378 . S
C520 C521 1.367 . S
C521 C520 1.367 . S
C521 C523 1.433 . S
C522 C518 1.350 . S
C522 C519 1.463 . S
C522 N526 1.427 . S
C523 H513 0.929 . S
C523 C521 1.433 . S
C523 N526 1.384 . S
C524 H515 0.929 . S
C524 C516 1.378 . S
C524 C519 1.350 . S
C525 H512 0.929 . S
C525 C517 1.433 . S
C525 N527 1.384 . S
N526 C522 1.427 . S
N526 C523 1.384 . S
N527 C519 1.427 . S
N527 C525 1.384 . S
H528 C534 0.930 . S
H529 C538 0.930 . S
H530 C543 0.929 . S
H531 C541 0.929 . S
H532 C536 0.929 . S
H533 C542 0.929 . S
C534 H528 0.930 . S
C534 C535 1.367 . S
C534 C542 1.378 1_554 S
C535 C534 1.367 . S
C535 C543 1.433 . S
C536 H532 0.929 . S
C536 C538 1.378 . S
C536 C540 1.350 . S
C537 C540 1.463 . S
C537 C542 1.350 . S
C537 N545 1.427 1_556 S
C538 H529 0.930 . S
C538 C536 1.378 . S
C538 C539 1.367 . S
C539 C538 1.367 . S
C539 C541 1.433 . S
C540 C536 1.350 . S
C540 C537 1.463 . S
C540 N544 1.427 . S
C541 H531 0.929 . S
C541 C539 1.433 . S
C541 N544 1.384 . S
C542 H533 0.929 . S
C542 C534 1.378 1_556 S
C542 C537 1.350 . S
C543 H530 0.929 . S
C543 C535 1.433 . S
C543 N545 1.384 . S
N544 C540 1.427 . S
N544 C541 1.384 . S
N545 C537 1.427 1_554 S
N545 C543 1.384 . S
H546 C552 0.926 . S
H547 C556 0.930 . S
H548 C561 0.929 . S
H549 C559 0.929 . S
H550 C554 0.929 . S
H551 C560 0.929 . S
C552 H546 0.926 . S
C552 C553 1.367 . S
C552 C560 1.378 1_554 S
C553 C552 1.367 . S
C553 C561 1.433 . S
C554 H550 0.929 . S
C554 C556 1.378 . S
C554 C558 1.350 . S
C555 C558 1.463 . S
C555 C560 1.350 . S
C555 N563 1.431 . S
C556 H547 0.930 . S
C556 C554 1.378 . S
C556 C557 1.367 . S
C557 C556 1.367 . S
C557 C559 1.433 . S
C558 C554 1.350 . S
C558 C555 1.463 . S
C558 N562 1.427 . S
C559 H549 0.929 . S
C559 C557 1.433 . S
C559 N562 1.384 . S
C560 H551 0.929 . S
C560 C552 1.378 1_556 S
C560 C555 1.350 . S
C561 H548 0.929 . S
C561 C553 1.433 . S
C561 N563 1.378 1_554 S
N562 C558 1.427 . S
N562 C559 1.384 . S
N563 C555 1.431 . S
N563 C561 1.378 1_556 S
H564 C570 0.930 . S
H565 C574 0.930 . S
H566 C579 0.929 . S
H567 C577 0.929 . S
H568 C572 0.929 . S
H569 C578 0.929 . S
C570 H564 0.930 . S
C570 C571 1.367 . S
C570 C578 1.378 . S
C571 C570 1.367 . S
C571 C579 1.433 . S
C572 H568 0.929 . S
C572 C574 1.378 . S
C572 C576 1.350 . S
C573 C576 1.463 . S
C573 C578 1.350 . S
C573 N581 1.427 . S
C574 H565 0.930 . S
C574 C572 1.378 . S
C574 C575 1.367 . S
C575 C574 1.367 . S
C575 C577 1.433 . S
C576 C572 1.350 . S
C576 C573 1.463 . S
C576 N580 1.427 . S
C577 H567 0.929 . S
C577 C575 1.433 . S
C577 N580 1.384 . S
C578 H569 0.929 . S
C578 C570 1.378 . S
C578 C573 1.350 . S
C579 H566 0.929 . S
C579 C571 1.433 . S
C579 N581 1.384 . S
N580 C576 1.427 . S
N580 C577 1.384 . S
N581 C573 1.427 . S
N581 C579 1.384 . S
H582 C588 0.930 . S
H583 C592 0.930 . S
H584 C597 0.929 . S
H585 C595 0.929 . S
H586 C590 0.929 . S
H587 C596 0.929 . S
C588 H582 0.930 . S
C588 C589 1.367 . S
C588 C596 1.378 . S
C589 C588 1.367 . S
C589 C597 1.433 . S
C590 H586 0.929 . S
C590 C592 1.378 . S
C590 C594 1.350 . S
C591 C594 1.463 . S
C591 C596 1.350 . S
C591 N599 1.427 . S
C592 H583 0.930 . S
C592 C590 1.378 . S
C592 C593 1.367 . S
C593 C592 1.367 . S
C593 C595 1.433 . S
C594 C590 1.350 . S
C594 C591 1.463 . S
C594 N598 1.427 . S
C595 H585 0.929 . S
C595 C593 1.433 . S
C595 N598 1.384 . S
C596 H587 0.929 . S
C596 C588 1.378 . S
C596 C591 1.350 . S
C597 H584 0.929 . S
C597 C589 1.433 . S
C597 N599 1.384 . S
N598 C594 1.427 . S
N598 C595 1.384 . S
N599 C591 1.427 . S
N599 C597 1.384 . S
H600 C606 0.930 . S
H601 C610 0.930 . S
H602 C615 0.929 . S
H603 C613 0.929 . S
H604 C608 0.929 . S
H605 C614 0.929 . S
C606 H600 0.930 . S
C606 C607 1.367 . S
C606 C614 1.378 1_455 S
C607 C606 1.367 . S
C607 C615 1.433 . S
C608 H604 0.929 . S
C608 C610 1.378 . S
C608 C612 1.350 . S
C609 C612 1.463 . S
C609 C614 1.350 . S
C609 N617 1.427 1_655 S
C610 H601 0.930 . S
C610 C608 1.378 . S
C610 C611 1.367 . S
C611 C610 1.367 . S
C611 C613 1.433 . S
C612 C608 1.350 . S
C612 C609 1.463 . S
C612 N616 1.427 . S
C613 H603 0.929 . S
C613 C611 1.433 . S
C613 N616 1.384 . S
C614 H605 0.929 . S
C614 C606 1.378 1_655 S
C614 C609 1.350 . S
C615 H602 0.929 . S
C615 C607 1.433 . S
C615 N617 1.384 . S
N616 C612 1.427 . S
N616 C613 1.384 . S
N617 C609 1.427 1_455 S
N617 C615 1.384 . S
H618 C624 0.930 . S
H619 C628 0.930 . S
H620 C633 0.929 . S
H621 C631 0.929 . S
H622 C626 0.929 . S
H623 C632 0.929 . S
C624 H618 0.930 . S
C624 C625 1.367 . S
C624 C632 1.378 . S
C625 C624 1.367 . S
C625 C633 1.433 . S
C626 H622 0.929 . S
C626 C628 1.378 . S
C626 C630 1.350 . S
C627 C630 1.463 . S
C627 C632 1.350 1_455 S
C627 N635 1.427 . S
C628 H619 0.930 . S
C628 C626 1.378 . S
C628 C629 1.367 . S
C629 C628 1.367 . S
C629 C631 1.433 . S
C630 C626 1.350 . S
C630 C627 1.463 . S
C630 N634 1.427 . S
C631 H621 0.929 . S
C631 C629 1.433 . S
C631 N634 1.384 . S
C632 H623 0.929 . S
C632 C624 1.378 . S
C632 C627 1.350 1_655 S
C633 H620 0.929 . S
C633 C625 1.433 . S
C633 N635 1.384 1_655 S
N634 C630 1.427 . S
N634 C631 1.384 . S
N635 C627 1.427 . S
N635 C633 1.384 1_455 S
H636 C642 0.930 . S
H637 C646 0.930 . S
H638 C651 0.929 . S
H639 C649 0.929 . S
H640 C644 0.929 . S
H641 C650 0.929 . S
C642 H636 0.930 . S
C642 C643 1.367 . S
C642 C650 1.378 1_455 S
C643 C642 1.367 . S
C643 C651 1.433 . S
C644 H640 0.929 . S
C644 C646 1.378 . S
C644 C648 1.350 . S
C645 C648 1.463 . S
C645 C650 1.350 . S
C645 N653 1.427 1_655 S
C646 H637 0.930 . S
C646 C644 1.378 . S
C646 C647 1.367 . S
C647 C646 1.367 . S
C647 C649 1.433 . S
C648 C644 1.350 . S
C648 C645 1.463 . S
C648 N652 1.427 . S
C649 H639 0.929 . S
C649 C647 1.433 . S
C649 N652 1.384 . S
C650 H641 0.929 . S
C650 C642 1.378 1_655 S
C650 C645 1.350 . S
C651 H638 0.929 . S
C651 C643 1.433 . S
C651 N653 1.384 . S
N652 C648 1.427 . S
N652 C649 1.384 . S
N653 C645 1.427 1_455 S
N653 C651 1.384 . S
H654 C660 0.930 . S
H655 C664 0.930 . S
H656 C669 0.929 . S
H657 C667 0.929 . S
H658 C662 0.929 . S
H659 C668 0.929 . S
C660 H654 0.930 . S
C660 C661 1.367 . S
C660 C668 1.378 . S
C661 C660 1.367 . S
C661 C669 1.433 . S
C662 H658 0.929 . S
C662 C664 1.378 1_455 S
C662 C666 1.350 . S
C663 C666 1.463 . S
C663 C668 1.350 . S
C663 N671 1.427 . S
C664 H655 0.930 . S
C664 C662 1.378 1_655 S
C664 C665 1.367 . S
C665 C664 1.367 . S
C665 C667 1.433 . S
C666 C662 1.350 . S
C666 C663 1.463 . S
C666 N670 1.427 1_455 S
C667 H657 0.929 . S
C667 C665 1.433 . S
C667 N670 1.384 . S
C668 H659 0.929 . S
C668 C660 1.378 . S
C668 C663 1.350 . S
C669 H656 0.929 . S
C669 C661 1.433 . S
C669 N671 1.384 . S
N670 C666 1.427 1_655 S
N670 C667 1.384 . S
N671 C663 1.427 . S
N671 C669 1.384 . S
H672 C678 0.930 . S
H673 C682 0.930 . S
H674 C687 0.929 . S
H675 C685 0.929 . S
H676 C680 0.929 . S
H677 C686 0.929 . S
C678 H672 0.930 . S
C678 C679 1.367 . S
C678 C686 1.378 . S
C679 C678 1.367 . S
C679 C687 1.433 . S
C680 H676 0.929 . S
C680 C682 1.378 . S
C680 C684 1.350 . S
C681 C684 1.463 . S
C681 C686 1.350 1_565 S
C681 N689 1.427 . S
C682 H673 0.930 . S
C682 C680 1.378 . S
C682 C683 1.367 . S
C683 C682 1.367 . S
C683 C685 1.433 . S
C684 C680 1.350 . S
C684 C681 1.463 . S
C684 N688 1.427 . S
C685 H675 0.929 . S
C685 C683 1.433 . S
C685 N688 1.384 . S
C686 H677 0.929 . S
C686 C678 1.378 . S
C686 C681 1.350 1_545 S
C687 H674 0.929 . S
C687 C679 1.433 . S
C687 N689 1.384 1_545 S
N688 C684 1.427 . S
N688 C685 1.384 . S
N689 C681 1.427 . S
N689 C687 1.384 1_565 S
H690 C696 0.930 . S
H691 C700 0.930 . S
H692 C705 0.929 . S
H693 C703 0.929 . S
H694 C698 0.929 . S
H695 C704 0.929 . S
C696 H690 0.930 . S
C696 C697 1.367 . S
C696 C704 1.378 . S
C697 C696 1.367 . S
C697 C705 1.433 . S
C698 H694 0.929 . S
C698 C700 1.378 1_545 S
C698 C702 1.350 . S
C699 C702 1.463 . S
C699 C704 1.350 . S
C699 N707 1.427 . S
C700 H691 0.930 . S
C700 C698 1.378 1_565 S
C700 C701 1.367 . S
C701 C700 1.367 . S
C701 C703 1.433 . S
C702 C698 1.350 . S
C702 C699 1.463 . S
C702 N706 1.427 1_545 S
C703 H693 0.929 . S
C703 C701 1.433 . S
C703 N706 1.384 . S
C704 H695 0.929 . S
C704 C696 1.378 . S
C704 C699 1.350 . S
C705 H692 0.929 . S
C705 C697 1.433 . S
C705 N707 1.384 . S
N706 C702 1.427 1_565 S
N706 C703 1.384 . S
N707 C699 1.427 . S
N707 C705 1.384 . S
H708 C714 0.930 . S
H709 C718 0.930 . S
H710 C723 0.929 . S
H711 C721 0.929 . S
H712 C716 0.929 . S
H713 C722 0.929 . S
C714 H708 0.930 . S
C714 C715 1.367 . S
C714 C722 1.378 . S
C715 C714 1.367 . S
C715 C723 1.433 . S
C716 H712 0.929 . S
C716 C718 1.378 . S
C716 C720 1.350 . S
C717 C720 1.463 . S
C717 C722 1.350 . S
C717 N725 1.427 . S
C718 H709 0.930 . S
C718 C716 1.378 . S
C718 C719 1.367 . S
C719 C718 1.367 . S
C719 C721 1.433 . S
C720 C716 1.350 . S
C720 C717 1.463 . S
C720 N724 1.427 . S
C721 H711 0.929 . S
C721 C719 1.433 . S
C721 N724 1.384 . S
C722 H713 0.929 . S
C722 C714 1.378 . S
C722 C717 1.350 . S
C723 H710 0.929 . S
C723 C715 1.433 . S
C723 N725 1.384 . S
N724 C720 1.427 . S
N724 C721 1.384 . S
N725 C717 1.427 . S
N725 C723 1.384 . S
H726 C732 0.930 . S
H727 C736 0.930 . S
H728 C741 0.929 . S
H729 C739 0.929 . S
H730 C734 0.929 . S
H731 C740 0.929 . S
C732 H726 0.930 . S
C732 C733 1.367 . S
C732 C740 1.378 . S
C733 C732 1.367 . S
C733 C741 1.433 . S
C734 H730 0.929 . S
C734 C736 1.378 1_545 S
C734 C738 1.350 . S
C735 C738 1.463 . S
C735 C740 1.350 . S
C735 N743 1.427 . S
C736 H727 0.930 . S
C736 C734 1.378 1_565 S
C736 C737 1.367 . S
C737 C736 1.367 . S
C737 C739 1.433 . S
C738 C734 1.350 . S
C738 C735 1.463 . S
C738 N742 1.427 1_545 S
C739 H729 0.929 . S
C739 C737 1.433 . S
C739 N742 1.384 . S
C740 H731 0.929 . S
C740 C732 1.378 . S
C740 C735 1.350 . S
C741 H728 0.929 . S
C741 C733 1.433 . S
C741 N743 1.384 . S
N742 C738 1.427 1_565 S
N742 C739 1.384 . S
N743 C735 1.427 . S
N743 C741 1.384 . S
H744 C750 0.930 . S
H745 C754 0.930 . S
H746 C759 0.929 . S
H747 C757 0.929 . S
H748 C752 0.929 . S
H749 C758 0.929 . S
C750 H744 0.930 . S
C750 C751 1.367 1_455 S
C750 C758 1.378 . S
C751 C750 1.367 1_655 S
C751 C759 1.433 . S
C752 H748 0.929 . S
C752 C754 1.378 . S
C752 C756 1.350 1_655 S
C753 C756 1.463 . S
C753 C758 1.353 . S
C753 N761 1.424 1_455 S
C754 H745 0.930 . S
C754 C752 1.378 . S
C754 C755 1.367 1_655 S
C755 C754 1.367 1_455 S
C755 C757 1.433 . S
C756 C752 1.350 1_455 S
C756 C753 1.463 . S
C756 N760 1.427 . S
C757 H747 0.929 . S
C757 C755 1.433 . S
C757 N760 1.384 . S
C758 H749 0.929 . S
C758 C750 1.378 . S
C758 C753 1.353 . S
C759 H746 0.929 . S
C759 C751 1.433 . S
C759 N761 1.384 . S
N760 C756 1.427 . S
N760 C757 1.384 . S
N761 C753 1.424 1_655 S
N761 C759 1.384 . S
H762 C768 0.930 . S
H763 C772 0.930 . S
H764 C777 0.929 . S
H765 C775 0.929 . S
H766 C770 0.929 . S
H767 C776 0.929 . S
C768 H762 0.930 . S
C768 C769 1.367 1_655 S
C768 C776 1.378 . S
C769 C768 1.367 1_455 S
C769 C777 1.433 . S
C770 H766 0.929 . S
C770 C772 1.378 . S
C770 C774 1.350 1_455 S
C771 C774 1.463 1_455 S
C771 C776 1.350 1_455 S
C771 N779 1.427 . S
C772 H763 0.930 . S
C772 C770 1.378 . S
C772 C773 1.367 1_455 S
C773 C772 1.367 1_655 S
C773 C775 1.433 . S
C774 C770 1.350 1_655 S
C774 C771 1.463 1_655 S
C774 N778 1.427 . S
C775 H765 0.929 . S
C775 C773 1.433 . S
C775 N778 1.384 . S
C776 H767 0.929 . S
C776 C768 1.378 . S
C776 C771 1.350 1_655 S
C777 H764 0.929 . S
C777 C769 1.433 . S
C777 N779 1.384 . S
N778 C774 1.427 . S
N778 C775 1.384 . S
N779 C771 1.427 . S
N779 C777 1.384 . S
H780 C786 0.930 . S
H781 C790 0.930 . S
H782 C795 0.929 . S
H783 C793 0.929 . S
H784 C788 0.929 . S
H785 C794 0.929 . S
C786 H780 0.930 . S
C786 C787 1.367 . S
C786 C794 1.378 . S
C787 C786 1.367 . S
C787 C795 1.433 1_565 S
C788 H784 0.929 . S
C788 C790 1.378 . S
C788 C792 1.350 . S
C789 C792 1.458 1_565 S
C789 C794 1.381 . S
C789 N797 1.400 1_565 S
C790 H781 0.930 . S
C790 C788 1.378 . S
C790 C791 1.367 . S
C791 C790 1.367 . S
C791 C793 1.433 1_545 S
C792 C788 1.350 . S
C792 C789 1.458 1_545 S
C792 N796 1.427 1_545 S
C793 H783 0.929 . S
C793 C791 1.433 1_565 S
C793 N796 1.384 . S
C794 H785 0.929 . S
C794 C786 1.378 . S
C794 C789 1.381 . S
C795 H782 0.929 . S
C795 C787 1.433 1_545 S
C795 N797 1.384 . S
N796 C792 1.427 1_565 S
N796 C793 1.384 . S
N797 C789 1.400 1_545 S
N797 C795 1.384 . S
H798 C804 0.930 . S
H799 C808 0.930 . S
H800 C813 0.929 . S
H801 C811 0.929 . S
H802 C806 0.929 . S
H803 C812 0.929 . S
C804 H798 0.930 . S
C804 C805 1.367 . S
C804 C812 1.378 . S
C805 C804 1.367 . S
C805 C813 1.433 . S
C806 H802 0.929 . S
C806 C808 1.378 . S
C806 C810 1.350 . S
C807 C810 1.463 . S
C807 C812 1.350 . S
C807 N815 1.427 . S
C808 H799 0.930 . S
C808 C806 1.378 . S
C808 C809 1.367 . S
C809 C808 1.367 . S
C809 C811 1.433 . S
C810 C806 1.350 . S
C810 C807 1.463 . S
C810 N814 1.427 . S
C811 H801 0.929 . S
C811 C809 1.433 . S
C811 N814 1.384 . S
C812 H803 0.929 . S
C812 C804 1.378 . S
C812 C807 1.350 . S
C813 H800 0.929 . S
C813 C805 1.433 . S
C813 N815 1.384 . S
N814 C810 1.427 . S
N814 C811 1.384 . S
N815 C807 1.427 . S
N815 C813 1.384 . S
H816 C822 0.930 . S
H817 C826 0.930 . S
H818 C831 0.929 . S
H819 C829 0.929 . S
H820 C824 0.929 . S
H821 C830 0.929 . S
C822 H816 0.930 . S
C822 C823 1.367 . S
C822 C830 1.378 . S
C823 C822 1.367 . S
C823 C831 1.433 1_554 S
C824 H820 0.929 . S
C824 C826 1.378 . S
C824 C828 1.350 . S
C825 C828 1.463 1_554 S
C825 C830 1.350 . S
C825 N833 1.427 1_554 S
C826 H817 0.930 . S
C826 C824 1.378 . S
C826 C827 1.367 . S
C827 C826 1.367 . S
C827 C829 1.433 1_556 S
C828 C824 1.350 . S
C828 C825 1.463 1_556 S
C828 N832 1.427 1_556 S
C829 H819 0.929 . S
C829 C827 1.433 1_554 S
C829 N832 1.384 . S
C830 H821 0.929 . S
C830 C822 1.378 . S
C830 C825 1.350 . S
C831 H818 0.929 . S
C831 C823 1.433 1_556 S
C831 N833 1.384 . S
N832 C828 1.427 1_554 S
N832 C829 1.384 . S
N833 C825 1.427 1_556 S
N833 C831 1.384 . S
H834 C840 0.930 . S
H835 C844 0.930 . S
H836 C849 0.929 . S
H837 C847 0.929 . S
H838 C842 0.929 . S
H839 C848 0.929 . S
C840 H834 0.930 . S
C840 C841 1.367 . S
C840 C848 1.378 . S
C841 C840 1.367 . S
C841 C849 1.433 . S
C842 H838 0.929 . S
C842 C844 1.378 . S
C842 C846 1.350 . S
C843 C846 1.463 . S
C843 C848 1.350 . S
C843 N851 1.427 . S
C844 H835 0.930 . S
C844 C842 1.378 . S
C844 C845 1.367 . S
C845 C844 1.367 . S
C845 C847 1.433 . S
C846 C842 1.350 . S
C846 C843 1.463 . S
C846 N850 1.427 . S
C847 H837 0.929 . S
C847 C845 1.433 . S
C847 N850 1.384 . S
C848 H839 0.929 . S
C848 C840 1.378 . S
C848 C843 1.350 . S
C849 H836 0.929 . S
C849 C841 1.433 . S
C849 N851 1.384 . S
N850 C846 1.427 . S
N850 C847 1.384 . S
N851 C843 1.427 . S
N851 C849 1.384 . S
H852 C858 0.930 . S
H853 C862 0.930 . S
H854 C867 0.929 . S
H855 C865 0.929 . S
H856 C860 0.929 . S
H857 C866 0.929 . S
C858 H852 0.930 . S
C858 C859 1.367 . S
C858 C866 1.378 . S
C859 C858 1.367 . S
C859 C867 1.433 . S
C860 H856 0.929 . S
C860 C862 1.378 . S
C860 C864 1.350 . S
C861 C864 1.463 . S
C861 C866 1.350 . S
C861 N869 1.427 . S
C862 H853 0.930 . S
C862 C860 1.378 . S
C862 C863 1.367 . S
C863 C862 1.367 . S
C863 C865 1.433 . S
C864 C860 1.350 . S
C864 C861 1.463 . S
C864 N868 1.427 . S
C865 H855 0.929 . S
C865 C863 1.433 . S
C865 N868 1.384 . S
C866 H857 0.929 . S
C866 C858 1.378 . S
C866 C861 1.350 . S
C867 H854 0.929 . S
C867 C859 1.433 . S
C867 N869 1.384 . S
N868 C864 1.427 . S
N868 C865 1.384 . S
N869 C861 1.427 . S
N869 C867 1.384 . S
H870 C876 0.930 . S
H871 C880 0.930 . S
H872 C885 0.929 . S
H873 C883 0.929 . S
H874 C878 0.929 . S
H875 C884 0.929 . S
C876 H870 0.930 . S
C876 C877 1.367 . S
C876 C884 1.378 . S
C877 C876 1.367 . S
C877 C885 1.433 . S
C878 H874 0.929 . S
C878 C880 1.378 . S
C878 C882 1.350 . S
C879 C882 1.463 . S
C879 C884 1.350 . S
C879 N887 1.427 . S
C880 H871 0.930 . S
C880 C878 1.378 . S
C880 C881 1.367 . S
C881 C880 1.367 . S
C881 C883 1.433 . S
C882 C878 1.350 . S
C882 C879 1.463 . S
C882 N886 1.427 . S
C883 H873 0.929 . S
C883 C881 1.433 . S
C883 N886 1.384 . S
C884 H875 0.929 . S
C884 C876 1.378 . S
C884 C879 1.350 . S
C885 H872 0.929 . S
C885 C877 1.433 . S
C885 N887 1.384 . S
N886 C882 1.427 . S
N886 C883 1.384 . S
N887 C879 1.427 . S
N887 C885 1.384 . S
H888 C894 0.930 . S
H889 C898 0.930 . S
H890 C903 0.929 . S
H891 C901 0.929 . S
H892 C896 0.929 . S
H893 C902 0.929 . S
C894 H888 0.930 . S
C894 C895 1.367 . S
C894 C902 1.378 . S
C895 C894 1.367 . S
C895 C903 1.433 . S
C896 H892 0.929 . S
C896 C898 1.378 . S
C896 C900 1.350 . S
C897 C900 1.463 . S
C897 C902 1.350 . S
C897 N905 1.427 . S
C898 H889 0.930 . S
C898 C896 1.378 . S
C898 C899 1.367 . S
C899 C898 1.367 . S
C899 C901 1.433 . S
C900 C896 1.350 . S
C900 C897 1.463 . S
C900 N904 1.427 . S
C901 H891 0.929 . S
C901 C899 1.433 . S
C901 N904 1.384 . S
C902 H893 0.929 . S
C902 C894 1.378 . S
C902 C897 1.350 . S
C903 H890 0.929 . S
C903 C895 1.433 . S
C903 N905 1.384 . S
N904 C900 1.427 . S
N904 C901 1.384 . S
N905 C897 1.427 . S
N905 C903 1.384 . S
H906 C912 0.930 . S
H907 C916 0.930 . S
H908 C921 0.929 . S
H909 C919 0.929 . S
H910 C914 0.929 . S
H911 C920 0.929 . S
C912 H906 0.930 . S
C912 C913 1.367 . S
C912 C920 1.378 . S
C913 C912 1.367 . S
C913 C921 1.433 . S
C914 H910 0.929 . S
C914 C916 1.378 . S
C914 C918 1.350 . S
C915 C918 1.463 . S
C915 C920 1.350 . S
C915 N923 1.427 . S
C916 H907 0.930 . S
C916 C914 1.378 . S
C916 C917 1.367 . S
C917 C916 1.367 . S
C917 C919 1.433 . S
C918 C914 1.350 . S
C918 C915 1.463 . S
C918 N922 1.427 . S
C919 H909 0.929 . S
C919 C917 1.433 . S
C919 N922 1.384 . S
C920 H911 0.929 . S
C920 C912 1.378 . S
C920 C915 1.350 . S
C921 H908 0.929 . S
C921 C913 1.433 . S
C921 N923 1.384 . S
N922 C918 1.427 . S
N922 C919 1.384 . S
N923 C915 1.427 . S
N923 C921 1.384 . S
H924 C930 0.930 . S
H925 C934 0.930 . S
H926 C939 0.929 . S
H927 C937 0.929 . S
H928 C932 0.929 . S
H929 C938 0.929 . S
C930 H924 0.930 . S
C930 C931 1.367 1_565 S
C930 C938 1.378 . S
C931 C930 1.367 1_545 S
C931 C939 1.433 . S
C932 H928 0.929 . S
C932 C934 1.378 . S
C932 C936 1.347 1_545 S
C933 C936 1.462 1_545 S
C933 C938 1.350 1_545 S
C933 N941 1.427 . S
C934 H925 0.930 . S
C934 C932 1.378 . S
C934 C935 1.367 1_545 S
C935 C934 1.367 1_565 S
C935 C937 1.433 . S
C936 C932 1.347 1_565 S
C936 C933 1.462 1_565 S
C936 N940 1.432 . S
C937 H927 0.929 . S
C937 C935 1.433 . S
C937 N940 1.384 . S
C938 H929 0.929 . S
C938 C930 1.378 . S
C938 C933 1.350 1_565 S
C939 H926 0.929 . S
C939 C931 1.433 . S
C939 N941 1.384 . S
N940 C936 1.432 . S
N940 C937 1.384 . S
N941 C933 1.427 . S
N941 C939 1.384 . S
H942 C948 0.930 . S
H943 C952 0.930 . S
H944 C957 0.929 . S
H945 C955 0.929 . S
H946 C950 0.929 . S
H947 C956 0.929 . S
C948 H942 0.930 . S
C948 C949 1.367 . S
C948 C956 1.378 . S
C949 C948 1.367 . S
C949 C957 1.433 1_556 S
C950 H946 0.929 . S
C950 C952 1.378 . S
C950 C954 1.350 . S
C951 C954 1.460 1_556 S
C951 C956 1.358 . S
C951 N959 1.422 1_556 S
C952 H943 0.930 . S
C952 C950 1.378 . S
C952 C953 1.367 . S
C953 C952 1.367 . S
C953 C955 1.433 1_554 S
C954 C950 1.350 . S
C954 C951 1.460 1_554 S
C954 N958 1.427 1_554 S
C955 H945 0.929 . S
C955 C953 1.433 1_556 S
C955 N958 1.384 . S
C956 H947 0.929 . S
C956 C948 1.378 . S
C956 C951 1.358 . S
C957 H944 0.929 . S
C957 C949 1.433 1_554 S
C957 N959 1.384 . S
N958 C954 1.427 1_556 S
N958 C955 1.384 . S
N959 C951 1.422 1_554 S
N959 C957 1.384 . S
H960 C966 0.930 . S
H961 C970 0.930 . S
H962 C975 0.929 . S
H963 C973 0.929 . S
H964 C968 0.929 1_565 S
H965 C974 0.929 1_545 S
C966 H960 0.930 . S
C966 C967 1.365 1_655 S
C966 C974 1.378 . S
C967 C966 1.365 1_455 S
C967 C975 1.435 . S
C968 H964 0.929 1_545 S
C968 C970 1.378 . S
C968 C972 1.346 1_455 S
C969 C972 1.462 1_565 S
C969 C974 1.357 . S
C969 N977 1.421 1_655 S
C970 H961 0.930 . S
C970 C968 1.378 . S
C970 C971 1.367 1_455 S
C971 C970 1.367 1_655 S
C971 C973 1.433 . S
C972 C968 1.346 1_655 S
C972 C969 1.462 1_545 S
C972 N976 1.431 . S
C973 H963 0.929 . S
C973 C971 1.433 . S
C973 N976 1.384 . S
C974 H965 0.929 1_565 S
C974 C966 1.378 . S
C974 C969 1.357 . S
C975 H962 0.929 . S
C975 C967 1.435 . S
C975 N977 1.384 . S
N976 C972 1.431 . S
N976 C973 1.384 . S
N977 C969 1.421 1_455 S
N977 C975 1.384 . S
H978 C984 0.930 . S
H979 C988 0.930 . S
H980 C993 0.929 . S
H981 C991 0.929 . S
H982 C986 0.929 . S
H983 C992 0.929 . S
C984 H978 0.930 . S
C984 C985 1.365 . S
C984 C992 1.378 . S
C985 C984 1.365 . S
C985 C993 1.435 1_655 S
C986 H982 0.929 . S
C986 C988 1.378 . S
C986 C990 1.348 1_455 S
C987 C990 1.462 . S
C987 C992 1.370 . S
C987 N995 1.407 1_655 S
C988 H979 0.930 . S
C988 C986 1.378 . S
C988 C989 1.367 1_455 S
C989 C988 1.367 1_655 S
C989 C991 1.433 . S
C990 C986 1.348 1_655 S
C990 C987 1.462 . S
C990 N994 1.430 . S
C991 H981 0.929 . S
C991 C989 1.433 . S
C991 N994 1.384 . S
C992 H983 0.929 . S
C992 C984 1.378 . S
C992 C987 1.370 . S
C993 H980 0.929 . S
C993 C985 1.435 1_455 S
C993 N995 1.384 . S
N994 C990 1.430 . S
N994 C991 1.384 . S
N995 C987 1.407 1_455 S
N995 C993 1.384 . S
H996 C1002 0.930 . S
H997 C1006 0.930 . S
H998 C1011 0.929 . S
H999 C1009 0.929 . S
H1000 C1004 0.929 . S
H1001 C1010 0.929 . S
C1002 H996 0.930 . S
C1002 C1003 1.399 . S
C1002 C1010 1.378 . S
C1003 C1002 1.399 . S
C1003 C1011 1.400 1_545 S
C1004 H1000 0.929 . S
C1004 C1006 1.378 . S
C1004 C1008 1.350 . S
C1005 C1008 1.461 1_546 S
C1005 C1010 1.365 . S
C1005 N1013 1.412 1_545 S
C1006 H997 0.930 . S
C1006 C1004 1.378 . S
C1006 C1007 1.367 . S
C1007 C1006 1.367 . S
C1007 C1009 1.433 1_565 S
C1008 C1004 1.350 . S
C1008 C1005 1.461 1_564 S
C1008 N1012 1.427 1_565 S
C1009 H999 0.929 . S
C1009 C1007 1.433 1_545 S
C1009 N1012 1.384 . S
C1010 H1001 0.929 . S
C1010 C1002 1.378 . S
C1010 C1005 1.365 . S
C1011 H998 0.929 . S
C1011 C1003 1.400 1_565 S
C1011 N1013 1.384 . S
N1012 C1008 1.427 1_545 S
N1012 C1009 1.384 . S
N1013 C1005 1.412 1_565 S
N1013 C1011 1.384 . S
H1014 C1020 0.930 . S
H1015 C1024 0.930 . S
H1016 C1029 0.929 . S
H1017 C1027 0.929 . S
H1018 C1022 0.929 . S
H1019 C1028 0.929 . S
C1020 H1014 0.930 . S
C1020 C1021 1.367 . S
C1020 C1028 1.378 . S
C1021 C1020 1.367 . S
C1021 C1029 1.433 . S
C1022 H1018 0.929 . S
C1022 C1024 1.378 . S
C1022 C1026 1.350 . S
C1023 C1026 1.463 1_554 S
C1023 C1028 1.350 . S
C1023 N1031 1.427 . S
C1024 H1015 0.930 . S
C1024 C1022 1.378 . S
C1024 C1025 1.367 . S
C1025 C1024 1.367 . S
C1025 C1027 1.433 . S
C1026 C1022 1.350 . S
C1026 C1023 1.463 1_556 S
C1026 N1030 1.427 . S
C1027 H1017 0.929 . S
C1027 C1025 1.433 . S
C1027 N1030 1.384 . S
C1028 H1019 0.929 . S
C1028 C1020 1.378 . S
C1028 C1023 1.350 . S
C1029 H1016 0.929 . S
C1029 C1021 1.433 . S
C1029 N1031 1.384 . S
N1030 C1026 1.427 . S
N1030 C1027 1.384 . S
N1031 C1023 1.427 . S
N1031 C1029 1.384 . S
H1032 C1038 0.930 . S
H1033 C1042 0.930 . S
H1034 C1047 0.929 . S
H1035 C1045 0.929 . S
H1036 C1040 0.929 . S
H1037 C1046 0.929 . S
C1038 H1032 0.930 . S
C1038 C1039 1.368 . S
C1038 C1046 1.378 . S
C1039 C1038 1.368 . S
C1039 C1047 1.432 1_565 S
C1040 H1036 0.929 . S
C1040 C1042 1.378 . S
C1040 C1044 1.351 1_545 S
C1041 C1044 1.462 . S
C1041 C1046 1.378 . S
C1041 N1049 1.399 1_565 S
C1042 H1033 0.930 . S
C1042 C1040 1.378 . S
C1042 C1043 1.340 1_545 S
C1043 C1042 1.340 1_565 S
C1043 C1045 1.460 . S
C1044 C1040 1.351 1_565 S
C1044 C1041 1.462 . S
C1044 N1048 1.427 . S
C1045 H1035 0.929 . S
C1045 C1043 1.460 . S
C1045 N1048 1.384 . S
C1046 H1037 0.929 . S
C1046 C1038 1.378 . S
C1046 C1041 1.378 . S
C1047 H1034 0.929 . S
C1047 C1039 1.432 1_545 S
C1047 N1049 1.384 . S
N1048 C1044 1.427 . S
N1048 C1045 1.384 . S
N1049 C1041 1.399 1_545 S
N1049 C1047 1.384 . S
H1050 C1056 0.930 . S
H1051 C1060 0.930 . S
H1052 C1065 0.929 . S
H1053 C1063 0.929 . S
H1054 C1058 0.929 . S
H1055 C1064 0.929 . S
C1056 H1050 0.930 . S
C1056 C1057 1.367 . S
C1056 C1064 1.378 . S
C1057 C1056 1.367 . S
C1057 C1065 1.433 . S
C1058 H1054 0.929 . S
C1058 C1060 1.378 . S
C1058 C1062 1.350 . S
C1059 C1062 1.463 . S
C1059 C1064 1.350 . S
C1059 N1067 1.427 . S
C1060 H1051 0.930 . S
C1060 C1058 1.378 . S
C1060 C1061 1.367 . S
C1061 C1060 1.367 . S
C1061 C1063 1.433 . S
C1062 C1058 1.350 . S
C1062 C1059 1.463 . S
C1062 N1066 1.427 . S
C1063 H1053 0.929 . S
C1063 C1061 1.433 . S
C1063 N1066 1.384 . S
C1064 H1055 0.929 . S
C1064 C1056 1.378 . S
C1064 C1059 1.350 . S
C1065 H1052 0.929 . S
C1065 C1057 1.433 . S
C1065 N1067 1.384 . S
N1066 C1062 1.427 . S
N1066 C1063 1.384 . S
N1067 C1059 1.427 . S
N1067 C1065 1.384 . S
H1068 C1074 0.930 . S
H1069 C1078 0.930 . S
H1070 C1083 0.929 . S
H1071 C1081 0.929 . S
H1072 C1076 0.929 . S
H1073 C1082 0.929 . S
C1074 H1068 0.930 . S
C1074 C1075 1.367 . S
C1074 C1082 1.378 . S
C1075 C1074 1.367 . S
C1075 C1083 1.433 1_556 S
C1076 H1072 0.929 . S
C1076 C1078 1.378 . S
C1076 C1080 1.359 . S
C1077 C1080 1.462 1_456 S
C1077 C1082 1.350 . S
C1077 N1085 1.427 1_556 S
C1078 H1069 0.930 . S
C1078 C1076 1.378 . S
C1078 C1079 1.391 . S
C1079 C1078 1.391 . S
C1079 C1081 1.409 1_554 S
C1080 C1076 1.359 . S
C1080 C1077 1.462 1_654 S
C1080 N1084 1.419 1_554 S
C1081 H1071 0.929 . S
C1081 C1079 1.409 1_556 S
C1081 N1084 1.384 . S
C1082 H1073 0.929 . S
C1082 C1074 1.378 . S
C1082 C1077 1.350 . S
C1083 H1070 0.929 . S
C1083 C1075 1.433 1_554 S
C1083 N1085 1.384 . S
N1084 C1080 1.419 1_556 S
N1084 C1081 1.384 . S
N1085 C1077 1.427 1_554 S
N1085 C1083 1.384 . S
H1086 C1092 0.930 . S
H1087 C1096 0.930 . S
H1088 C1101 0.929 . S
H1089 C1099 0.929 . S
H1090 C1094 0.929 . S
H1091 C1100 0.929 . S
C1092 H1086 0.930 . S
C1092 C1093 1.367 . S
C1092 C1100 1.378 . S
C1093 C1092 1.367 . S
C1093 C1101 1.433 . S
C1094 H1090 0.929 . S
C1094 C1096 1.378 . S
C1094 C1098 1.350 . S
C1095 C1098 1.463 1_455 S
C1095 C1100 1.350 . S
C1095 N1103 1.427 . S
C1096 H1087 0.930 . S
C1096 C1094 1.378 . S
C1096 C1097 1.367 . S
C1097 C1096 1.367 . S
C1097 C1099 1.433 . S
C1098 C1094 1.350 . S
C1098 C1095 1.463 1_655 S
C1098 N1102 1.427 . S
C1099 H1089 0.929 . S
C1099 C1097 1.433 . S
C1099 N1102 1.384 . S
C1100 H1091 0.929 . S
C1100 C1092 1.378 . S
C1100 C1095 1.350 . S
C1101 H1088 0.929 . S
C1101 C1093 1.433 . S
C1101 N1103 1.384 . S
N1102 C1098 1.427 . S
N1102 C1099 1.384 . S
N1103 C1095 1.427 . S
N1103 C1101 1.384 . S
H1104 C1110 0.930 . S
H1105 C1114 0.930 . S
H1106 C1119 0.929 . S
H1107 C1117 0.929 . S
H1108 C1112 0.929 . S
H1109 C1118 0.929 . S
C1110 H1104 0.930 . S
C1110 C1111 1.367 . S
C1110 C1118 1.378 . S
C1111 C1110 1.367 . S
C1111 C1119 1.433 . S
C1112 H1108 0.929 . S
C1112 C1114 1.378 . S
C1112 C1116 1.350 . S
C1113 C1116 1.463 . S
C1113 C1118 1.350 . S
C1113 N1121 1.427 . S
C1114 H1105 0.930 . S
C1114 C1112 1.378 . S
C1114 C1115 1.367 . S
C1115 C1114 1.367 . S
C1115 C1117 1.433 . S
C1116 C1112 1.350 . S
C1116 C1113 1.463 . S
C1116 N1120 1.427 . S
C1117 H1107 0.929 . S
C1117 C1115 1.433 . S
C1117 N1120 1.384 . S
C1118 H1109 0.929 . S
C1118 C1110 1.378 . S
C1118 C1113 1.350 . S
C1119 H1106 0.929 . S
C1119 C1111 1.433 . S
C1119 N1121 1.384 . S
N1120 C1116 1.427 . S
N1120 C1117 1.384 . S
N1121 C1113 1.427 . S
N1121 C1119 1.384 . S
H1122 C1128 0.930 . S
H1123 C1132 0.930 . S
H1124 C1137 0.929 . S
H1125 C1135 0.929 . S
H1126 C1130 0.929 . S
H1127 C1136 0.929 . S
C1128 H1122 0.930 . S
C1128 C1129 1.367 . S
C1128 C1136 1.378 . S
C1129 C1128 1.367 . S
C1129 C1137 1.433 . S
C1130 H1126 0.929 . S
C1130 C1132 1.378 . S
C1130 C1134 1.350 . S
C1131 C1134 1.463 . S
C1131 C1136 1.350 . S
C1131 N1139 1.427 . S
C1132 H1123 0.930 . S
C1132 C1130 1.378 . S
C1132 C1133 1.367 . S
C1133 C1132 1.367 . S
C1133 C1135 1.433 . S
C1134 C1130 1.350 . S
C1134 C1131 1.463 . S
C1134 N1138 1.427 . S
C1135 H1125 0.929 . S
C1135 C1133 1.433 . S
C1135 N1138 1.384 . S
C1136 H1127 0.929 . S
C1136 C1128 1.378 . S
C1136 C1131 1.350 . S
C1137 H1124 0.929 . S
C1137 C1129 1.433 . S
C1137 N1139 1.384 . S
N1138 C1134 1.427 . S
N1138 C1135 1.384 . S
N1139 C1131 1.427 . S
N1139 C1137 1.384 . S
H1140 C1146 0.930 . S
H1141 C1150 0.930 . S
H1142 C1155 0.929 . S
H1143 C1153 0.929 . S
H1144 C1148 0.929 . S
H1145 C1154 0.929 . S
C1146 H1140 0.930 . S
C1146 C1147 1.367 . S
C1146 C1154 1.378 . S
C1147 C1146 1.367 . S
C1147 C1155 1.433 . S
C1148 H1144 0.929 . S
C1148 C1150 1.378 . S
C1148 C1152 1.350 . S
C1149 C1152 1.463 1_565 S
C1149 C1154 1.350 . S
C1149 N1157 1.427 . S
C1150 H1141 0.930 . S
C1150 C1148 1.378 . S
C1150 C1151 1.367 . S
C1151 C1150 1.367 . S
C1151 C1153 1.433 . S
C1152 C1148 1.350 . S
C1152 C1149 1.463 1_545 S
C1152 N1156 1.427 . S
C1153 H1143 0.929 . S
C1153 C1151 1.433 . S
C1153 N1156 1.384 . S
C1154 H1145 0.929 . S
C1154 C1146 1.378 . S
C1154 C1149 1.350 . S
C1155 H1142 0.929 . S
C1155 C1147 1.433 . S
C1155 N1157 1.384 . S
N1156 C1152 1.427 . S
N1156 C1153 1.384 . S
N1157 C1149 1.427 . S
N1157 C1155 1.384 . S
H1158 C1164 0.930 . S
H1159 C1168 0.930 . S
H1160 C1173 0.929 . S
H1161 C1171 0.929 . S
H1162 C1166 0.929 . S
H1163 C1172 0.929 . S
C1164 H1158 0.930 . S
C1164 C1165 1.400 . S
C1164 C1172 1.378 . S
C1165 C1164 1.400 . S
C1165 C1173 1.400 1_554 S
C1166 H1162 0.929 . S
C1166 C1168 1.378 . S
C1166 C1170 1.350 . S
C1167 C1170 1.461 1_554 S
C1167 C1172 1.366 . S
C1167 N1175 1.411 1_554 S
C1168 H1159 0.930 . S
C1168 C1166 1.378 . S
C1168 C1169 1.367 . S
C1169 C1168 1.367 . S
C1169 C1171 1.433 1_556 S
C1170 C1166 1.350 . S
C1170 C1167 1.461 1_556 S
C1170 N1174 1.427 1_556 S
C1171 H1161 0.929 . S
C1171 C1169 1.433 1_554 S
C1171 N1174 1.384 . S
C1172 H1163 0.929 . S
C1172 C1164 1.378 . S
C1172 C1167 1.366 . S
C1173 H1160 0.929 . S
C1173 C1165 1.400 1_556 S
C1173 N1175 1.384 . S
N1174 C1170 1.427 1_554 S
N1174 C1171 1.384 . S
N1175 C1167 1.411 1_556 S
N1175 C1173 1.384 . S
C319 C224 0.509 . S
C323 C3 0.495 . S
C337 C18 0.529 . S
C341 C213 0.553 . S
C355 C31 0.663 . S
C359 C252 0.659 . S
C373 C42 0.702 . S
C377 C237 0.695 . S
C391 C57 0.492 . S
C395 C278 0.486 . S
C409 C68 0.622 . S
C413 C291 0.617 . S
C427 C263 0.567 . S
C431 C83 0.516 . S
C445 C146 0.658 . S
C449 C94 0.658 . S
C463 C107 0.486 . S
C467 C44 0.515 . S
C481 C16 0.631 . S
C485 C120 0.624 . S
C499 C135 0.796 . S
C503 C5 0.795 . S
C517 C148 0.654 . S
C521 C185 0.688 . S
C535 C70 0.837 . S
C539 C161 0.837 . S
C553 C55 0.788 . S
C557 C174 0.804 . S
C571 C187 0.653 . S
C575 C96 0.657 . S
C589 C200 0.617 . S
C593 C81 0.621 . S
C607 C122 0.827 . S
C611 C211 0.834 . S
C625 C133 0.707 . S
C629 C226 0.711 . S
C643 C109 0.797 . S
C647 C239 0.795 . S
C661 C250 0.668 . S
C665 C302 0.657 . S
C679 C198 0.830 . S
C683 C265 0.844 . S
C697 C276 0.699 . S
C701 C172 0.716 . S
C715 C159 0.560 . S
C719 C289 0.519 . S
C733 C304 0.668 . S
C737 C29 0.657 . S
C751 C4 2.000 . S
C755 C23 1.986 . S
C769 C43 1.907 . S
C773 C36 1.921 . S
C787 C62 2.000 . S
C791 C88 1.992 . S
C805 C69 2.181 . S
C809 C95 2.163 . S
C823 C290 1.992 . S
C827 C108 2.001 . S
C841 C121 2.187 . S
C845 C153 2.170 . S
C859 C270 2.092 . S
C863 C140 2.103 . S
C877 C179 2.106 . S
C881 C166 2.089 . S
C895 C192 2.171 . S
C899 C205 2.182 . S
C913 C244 2.100 . S
C917 C212 2.084 . S
C931 C231 1.912 . S
C935 C251 1.919 . S
C949 C309 1.923 . S
C953 C277 1.909 . S
C967 C30 1.325 . S
C971 C10 1.327 . S
C985 C17 1.583 1_655 S
C989 C49 1.579 . S
C1003 C257 1.330 . S
C1007 C56 1.333 . S
C1021 C75 1.486 . S
C1025 C238 1.486 . S
C1039 C82 1.571 1_565 S
C1043 C225 1.568 . S
C1057 C218 1.721 . S
C1061 C101 1.724 . S
C1075 C114 1.343 . S
C1079 C303 1.340 . S
C1093 C127 1.486 . S
C1097 C134 1.486 . S
C1111 C264 1.722 . S
C1115 C147 1.725 . S
C1129 C160 1.727 . S
C1133 C186 1.730 . S
C1147 C173 1.496 . S
C1151 C199 1.498 . S
C1165 C296 1.577 . S
C1169 C283 1.573 . S
