# Generated by pormake.
# Topology umr, (4)-cn, num edge types: 1
# Building blocks:
#     Node 0, Type 0, BuildingBlock: AZAVOO_clean_sbu_0, # of connection points: 4
#     Node 1, Type 0, BuildingBlock: AZAVOO_clean_sbu_0, # of connection points: 4
#     Node 2, Type 0, BuildingBlock: AZAVOO_clean_sbu_0, # of connection points: 4
#     Node 3, Type 0, BuildingBlock: AZAVOO_clean_sbu_0, # of connection points: 4
#     Node 4, Type 0, BuildingBlock: AZAVOO_clean_sbu_0, # of connection points: 4
#     Node 5, Type 0, BuildingBlock: AZAVOO_clean_sbu_0, # of connection points: 4
#     Node 6, Type 0, BuildingBlock: AZAVOO_clean_sbu_0, # of connection points: 4
#     Node 7, Type 0, BuildingBlock: AZAVOO_clean_sbu_0, # of connection points: 4
#     Node 8, Type 0, BuildingBlock: AZAVOO_clean_sbu_0, # of connection points: 4
#     Node 9, Type 0, BuildingBlock: AZAVOO_clean_sbu_0, # of connection points: 4
#     Node 10, Type 0, BuildingBlock: AZAVOO_clean_sbu_0, # of connection points: 4
#     Node 11, Type 0, BuildingBlock: AZAVOO_clean_sbu_0, # of connection points: 4
#     Node 12, Type 0, BuildingBlock: AZAVOO_clean_sbu_0, # of connection points: 4
#     Node 13, Type 0, BuildingBlock: AZAVOO_clean_sbu_0, # of connection points: 4
#     Node 14, Type 0, BuildingBlock: AZAVOO_clean_sbu_0, # of connection points: 4
#     Node 15, Type 0, BuildingBlock: AZAVOO_clean_sbu_0, # of connection points: 4
#     Node 16, Type 0, BuildingBlock: AZAVOO_clean_sbu_0, # of connection points: 4
#     Node 17, Type 0, BuildingBlock: AZAVOO_clean_sbu_0, # of connection points: 4
#     Node 18, Type 0, BuildingBlock: AZAVOO_clean_sbu_0, # of connection points: 4
#     Node 19, Type 0, BuildingBlock: AZAVOO_clean_sbu_0, # of connection points: 4
#     Node 20, Type 0, BuildingBlock: AZAVOO_clean_sbu_0, # of connection points: 4
#     Node 21, Type 0, BuildingBlock: AZAVOO_clean_sbu_0, # of connection points: 4
#     Node 22, Type 0, BuildingBlock: AZAVOO_clean_sbu_0, # of connection points: 4
#     Node 23, Type 0, BuildingBlock: AZAVOO_clean_sbu_0, # of connection points: 4
#     Node 24, Type 0, BuildingBlock: AZAVOO_clean_sbu_0, # of connection points: 4
#     Node 25, Type 0, BuildingBlock: AZAVOO_clean_sbu_0, # of connection points: 4
#     Node 26, Type 0, BuildingBlock: AZAVOO_clean_sbu_0, # of connection points: 4
#     Node 27, Type 0, BuildingBlock: AZAVOO_clean_sbu_0, # of connection points: 4
#     Node 28, Type 0, BuildingBlock: AZAVOO_clean_sbu_0, # of connection points: 4
#     Node 29, Type 0, BuildingBlock: AZAVOO_clean_sbu_0, # of connection points: 4
#     Node 30, Type 0, BuildingBlock: AZAVOO_clean_sbu_0, # of connection points: 4
#     Node 31, Type 0, BuildingBlock: AZAVOO_clean_sbu_0, # of connection points: 4
#     Edge 32, Type (0, 0), BuildingBlock: TEMPAE_clean_linker_10, # of connection points: 2
#     Edge 33, Type (0, 0), BuildingBlock: TEMPAE_clean_linker_10, # of connection points: 2
#     Edge 34, Type (0, 0), BuildingBlock: TEMPAE_clean_linker_10, # of connection points: 2
#     Edge 35, Type (0, 0), BuildingBlock: TEMPAE_clean_linker_10, # of connection points: 2
#     Edge 36, Type (0, 0), BuildingBlock: TEMPAE_clean_linker_10, # of connection points: 2
#     Edge 37, Type (0, 0), BuildingBlock: TEMPAE_clean_linker_10, # of connection points: 2
#     Edge 38, Type (0, 0), BuildingBlock: TEMPAE_clean_linker_10, # of connection points: 2
#     Edge 39, Type (0, 0), BuildingBlock: TEMPAE_clean_linker_10, # of connection points: 2
#     Edge 40, Type (0, 0), BuildingBlock: TEMPAE_clean_linker_10, # of connection points: 2
#     Edge 41, Type (0, 0), BuildingBlock: TEMPAE_clean_linker_10, # of connection points: 2
#     Edge 42, Type (0, 0), BuildingBlock: TEMPAE_clean_linker_10, # of connection points: 2
#     Edge 43, Type (0, 0), BuildingBlock: TEMPAE_clean_linker_10, # of connection points: 2
#     Edge 44, Type (0, 0), BuildingBlock: TEMPAE_clean_linker_10, # of connection points: 2
#     Edge 45, Type (0, 0), BuildingBlock: TEMPAE_clean_linker_10, # of connection points: 2
#     Edge 46, Type (0, 0), BuildingBlock: TEMPAE_clean_linker_10, # of connection points: 2
#     Edge 47, Type (0, 0), BuildingBlock: TEMPAE_clean_linker_10, # of connection points: 2
#     Edge 48, Type (0, 0), BuildingBlock: TEMPAE_clean_linker_10, # of connection points: 2
#     Edge 49, Type (0, 0), BuildingBlock: TEMPAE_clean_linker_10, # of connection points: 2
#     Edge 50, Type (0, 0), BuildingBlock: TEMPAE_clean_linker_10, # of connection points: 2
#     Edge 51, Type (0, 0), BuildingBlock: TEMPAE_clean_linker_10, # of connection points: 2
#     Edge 52, Type (0, 0), BuildingBlock: TEMPAE_clean_linker_10, # of connection points: 2
#     Edge 53, Type (0, 0), BuildingBlock: TEMPAE_clean_linker_10, # of connection points: 2
#     Edge 54, Type (0, 0), BuildingBlock: TEMPAE_clean_linker_10, # of connection points: 2
#     Edge 55, Type (0, 0), BuildingBlock: TEMPAE_clean_linker_10, # of connection points: 2
#     Edge 56, Type (0, 0), BuildingBlock: TEMPAE_clean_linker_10, # of connection points: 2
#     Edge 57, Type (0, 0), BuildingBlock: TEMPAE_clean_linker_10, # of connection points: 2
#     Edge 58, Type (0, 0), BuildingBlock: TEMPAE_clean_linker_10, # of connection points: 2
#     Edge 59, Type (0, 0), BuildingBlock: TEMPAE_clean_linker_10, # of connection points: 2
#     Edge 60, Type (0, 0), BuildingBlock: TEMPAE_clean_linker_10, # of connection points: 2
#     Edge 61, Type (0, 0), BuildingBlock: TEMPAE_clean_linker_10, # of connection points: 2
#     Edge 62, Type (0, 0), BuildingBlock: TEMPAE_clean_linker_10, # of connection points: 2
#     Edge 63, Type (0, 0), BuildingBlock: TEMPAE_clean_linker_10, # of connection points: 2
#     Edge 64, Type (0, 0), BuildingBlock: TEMPAE_clean_linker_10, # of connection points: 2
#     Edge 65, Type (0, 0), BuildingBlock: TEMPAE_clean_linker_10, # of connection points: 2
#     Edge 66, Type (0, 0), BuildingBlock: TEMPAE_clean_linker_10, # of connection points: 2
#     Edge 67, Type (0, 0), BuildingBlock: TEMPAE_clean_linker_10, # of connection points: 2
#     Edge 68, Type (0, 0), BuildingBlock: TEMPAE_clean_linker_10, # of connection points: 2
#     Edge 69, Type (0, 0), BuildingBlock: TEMPAE_clean_linker_10, # of connection points: 2
#     Edge 70, Type (0, 0), BuildingBlock: TEMPAE_clean_linker_10, # of connection points: 2
#     Edge 71, Type (0, 0), BuildingBlock: TEMPAE_clean_linker_10, # of connection points: 2
#     Edge 72, Type (0, 0), BuildingBlock: TEMPAE_clean_linker_10, # of connection points: 2
#     Edge 73, Type (0, 0), BuildingBlock: TEMPAE_clean_linker_10, # of connection points: 2
#     Edge 74, Type (0, 0), BuildingBlock: TEMPAE_clean_linker_10, # of connection points: 2
#     Edge 75, Type (0, 0), BuildingBlock: TEMPAE_clean_linker_10, # of connection points: 2
#     Edge 76, Type (0, 0), BuildingBlock: TEMPAE_clean_linker_10, # of connection points: 2
#     Edge 77, Type (0, 0), BuildingBlock: TEMPAE_clean_linker_10, # of connection points: 2
#     Edge 78, Type (0, 0), BuildingBlock: TEMPAE_clean_linker_10, # of connection points: 2
#     Edge 79, Type (0, 0), BuildingBlock: TEMPAE_clean_linker_10, # of connection points: 2
#     Edge 80, Type (0, 0), BuildingBlock: TEMPAE_clean_linker_10, # of connection points: 2
#     Edge 81, Type (0, 0), BuildingBlock: TEMPAE_clean_linker_10, # of connection points: 2
#     Edge 82, Type (0, 0), BuildingBlock: TEMPAE_clean_linker_10, # of connection points: 2
#     Edge 83, Type (0, 0), BuildingBlock: TEMPAE_clean_linker_10, # of connection points: 2
#     Edge 84, Type (0, 0), BuildingBlock: TEMPAE_clean_linker_10, # of connection points: 2
#     Edge 85, Type (0, 0), BuildingBlock: TEMPAE_clean_linker_10, # of connection points: 2
#     Edge 86, Type (0, 0), BuildingBlock: TEMPAE_clean_linker_10, # of connection points: 2
#     Edge 87, Type (0, 0), BuildingBlock: TEMPAE_clean_linker_10, # of connection points: 2
#     Edge 88, Type (0, 0), BuildingBlock: TEMPAE_clean_linker_10, # of connection points: 2
#     Edge 89, Type (0, 0), BuildingBlock: TEMPAE_clean_linker_10, # of connection points: 2
#     Edge 90, Type (0, 0), BuildingBlock: TEMPAE_clean_linker_10, # of connection points: 2
#     Edge 91, Type (0, 0), BuildingBlock: TEMPAE_clean_linker_10, # of connection points: 2
#     Edge 92, Type (0, 0), BuildingBlock: TEMPAE_clean_linker_10, # of connection points: 2
#     Edge 93, Type (0, 0), BuildingBlock: TEMPAE_clean_linker_10, # of connection points: 2
#     Edge 94, Type (0, 0), BuildingBlock: TEMPAE_clean_linker_10, # of connection points: 2
#     Edge 95, Type (0, 0), BuildingBlock: TEMPAE_clean_linker_10, # of connection points: 2
# Relax obj value: 0.170
# Max RMSD: 0.152
# Mean RMSD: 0.152
data_MOF--net-umr--node1-AZAVOO_clean_sbu_0--edge1-TEMPAE_clean_linker_10
_symmetry_space_group_name_H-M    P1
_symmetry_Int_Tables_number       1
_symmetry_cell_setting            triclinic
loop_
_symmetry_equiv_pos_as_xyz
'x, y, z'
_cell_length_a     85.545259
_cell_length_b     85.568613
_cell_length_c     25.667196
_cell_angle_alpha  90.01446
_cell_angle_beta   89.983728
_cell_angle_gamma 89.991131
loop_
_atom_site_label
_atom_site_type_symbol
_atom_site_fract_x
_atom_site_fract_y
_atom_site_fract_z
_atom_type_partial_charge
Mg0 Mg 0.15246 0.29329 0.0307 0.0
O1 O 0.17873 0.29499 0.04163 0.0
O2 O 0.18635 0.2965 0.12488 0.0
Mg3 Mg 0.16345 0.30366 0.16206 0.0
C4 C 0.18936 0.29528 0.07638 0.0
C5 C 0.14751 0.28343 0.91905 0.0
O6 O 0.13438 0.2791 0.94127 0.0
O7 O 0.14929 0.31965 0.0341 0.0
O8 O 0.16608 0.32235 0.09895 0.0
O9 O 0.15395 0.26859 0.05426 0.0
O10 O 0.14989 0.2884 0.10896 0.0
C11 C 0.15599 0.32816 0.06828 0.0
C12 C 0.15227 0.27373 0.10135 0.0
O13 O 0.15713 0.29166 0.94466 0.0
Mg14 Mg 0.94951 0.90382 0.29207 0.0
O15 O 0.94212 0.92938 0.29189 0.0
O16 O 0.93347 0.93783 0.36979 0.0
Mg17 Mg 0.93348 0.91661 0.423 0.0
C18 C 0.93673 0.94002 0.3218 0.0
C19 C 0.96623 0.89612 0.19275 0.0
O20 O 0.97176 0.88609 0.22685 0.0
O21 O 0.92405 0.89635 0.27699 0.0
O22 O 0.92225 0.90579 0.3554 0.0
O23 O 0.97227 0.91067 0.32654 0.0
O24 O 0.95161 0.90541 0.37491 0.0
C25 C 0.91577 0.89957 0.31663 0.0
C26 C 0.96583 0.91001 0.37199 0.0
O27 O 0.95517 0.90513 0.20635 0.0
Mg28 Mg 0.33654 0.69755 0.54348 0.0
O29 O 0.31095 0.69001 0.547 0.0
O30 O 0.30235 0.68352 0.62724 0.0
Mg31 Mg 0.32418 0.68165 0.67809 0.0
C32 C 0.30018 0.68587 0.57856 0.0
C33 C 0.33201 0.71678 0.44623 0.0
O34 O 0.3342 0.72712 0.48319 0.0
O35 O 0.34462 0.67209 0.5284 0.0
O36 O 0.33448 0.67446 0.60411 0.0
O37 O 0.32973 0.72013 0.57886 0.0
O38 O 0.33562 0.70004 0.6287 0.0
C39 C 0.3412 0.66583 0.57157 0.0
C40 C 0.33095 0.71426 0.62479 0.0
O41 O 0.33358 0.70235 0.45673 0.0
Mg42 Mg 0.54393 0.08236 0.78248 0.0
O43 O 0.54698 0.05598 0.78978 0.0
O44 O 0.55295 0.04812 0.87074 0.0
Mg45 Mg 0.56178 0.07091 0.90506 0.0
C46 C 0.5493 0.04527 0.82344 0.0
C47 C 0.53168 0.08998 0.67442 0.0
O48 O 0.53191 0.10403 0.69507 0.0
O49 O 0.56981 0.08674 0.76592 0.0
O50 O 0.57393 0.06959 0.82672 0.0
O51 O 0.52119 0.07973 0.82087 0.0
O52 O 0.54324 0.08456 0.86418 0.0
C53 C 0.57897 0.08081 0.79946 0.0
C54 C 0.52845 0.08169 0.8646 0.0
O55 O 0.53766 0.07866 0.69911 0.0
Mg56 Mg 0.15655 0.69308 0.45122 0.0
O57 O 0.18285 0.68899 0.44791 0.0
O58 O 0.19221 0.68707 0.36661 0.0
Mg59 Mg 0.17001 0.67909 0.3252 0.0
C60 C 0.19423 0.68806 0.41585 0.0
C61 C 0.15372 0.7101 0.55022 0.0
O62 O 0.14678 0.71861 0.51448 0.0
O63 O 0.15112 0.66717 0.45666 0.0
O64 O 0.16923 0.66405 0.39791 0.0
O65 O 0.16072 0.71677 0.42115 0.0
O66 O 0.15603 0.69653 0.36951 0.0
C67 C 0.15721 0.65887 0.42094 0.0
C68 C 0.15927 0.71115 0.37467 0.0
O69 O 0.15849 0.69652 0.5383 0.0
Mg70 Mg 0.53861 0.90326 0.68759 0.0
O71 O 0.54539 0.92862 0.68907 0.0
O72 O 0.55272 0.93779 0.61159 0.0
Mg73 Mg 0.5513 0.91646 0.55847 0.0
C74 C 0.55024 0.93966 0.66018 0.0
C75 C 0.53205 0.89431 0.80374 0.0
O76 O 0.52866 0.88058 0.78383 0.0
O77 O 0.56417 0.89704 0.6864 0.0
O78 O 0.57101 0.90569 0.60717 0.0
O79 O 0.51442 0.90953 0.66652 0.0
O80 O 0.53347 0.90555 0.60918 0.0
C81 C 0.57433 0.89944 0.65098 0.0
C82 C 0.51931 0.90983 0.61882 0.0
O83 O 0.53776 0.90482 0.77475 0.0
Mg84 Mg 0.33221 0.28992 0.92755 0.0
O85 O 0.30682 0.29517 0.9383 0.0
O86 O 0.29573 0.30248 0.86354 0.0
Mg87 Mg 0.31483 0.30009 0.80126 0.0
C88 C 0.29504 0.29977 0.91237 0.0
C89 C 0.33885 0.27626 0.03018 0.0
O90 O 0.34483 0.26675 -0.00467 0.0
O91 O 0.33736 0.31584 0.91929 0.0
O92 O 0.32888 0.32 0.83772 0.0
O93 O 0.32643 0.26509 0.91086 0.0
O94 O 0.32782 0.28355 0.8507 0.0
C95 C 0.3357 0.32455 0.87927 0.0
C96 C 0.32482 0.26927 0.86285 0.0
O97 O 0.33423 0.28966 0.01567 0.0
Mg98 Mg 0.94728 0.08201 0.18556 0.0
O99 O 0.94106 0.05648 0.18882 0.0
O100 O 0.93291 0.04765 0.11169 0.0
Mg101 Mg 0.93333 0.06883 0.0583 0.0
C102 C 0.93595 0.04556 0.15981 0.0
C103 C 0.95815 0.09168 0.29317 0.0
O104 O 0.96375 0.1031 0.26446 0.0
O105 O 0.92179 0.08741 0.18855 0.0
O106 O 0.91407 0.07935 0.10971 0.0
O107 O 0.97117 0.07633 0.16144 0.0
O108 O 0.95151 0.08009 0.10651 0.0
C109 C 0.91119 0.0852 0.15453 0.0
C110 C 0.96593 0.07629 0.11414 0.0
O111 O 0.94928 0.08163 0.2723 0.0
Mg112 Mg 0.83316 0.70248 0.93241 0.0
O113 O 0.80745 0.69654 0.93718 0.0
O114 O 0.79884 0.68929 0.85835 0.0
Mg115 Mg 0.81897 0.69296 0.80158 0.0
C116 C 0.79679 0.69144 0.90703 0.0
C117 C 0.84387 0.71144 0.03909 0.0
O118 O 0.85335 0.71895 0.00752 0.0
O119 O 0.83847 0.67682 0.92316 0.0
O120 O 0.8306 0.67202 0.84144 0.0
O121 O 0.82783 0.72738 0.91843 0.0
O122 O 0.83004 0.70939 0.85649 0.0
C123 C 0.83663 0.66761 0.88453 0.0
C124 C 0.82683 0.72357 0.86975 0.0
O125 O 0.8344 0.70162 0.01984 0.0
Mg126 Mg 0.03915 0.08305 0.68782 0.0
O127 O 0.04722 0.05808 0.6892 0.0
O128 O 0.05538 0.04973 0.61149 0.0
Mg129 Mg 0.05435 0.07161 0.56063 0.0
C130 C 0.05262 0.04748 0.65966 0.0
C131 C 0.03009 0.09108 0.80074 0.0
O132 O 0.02555 0.10409 0.77811 0.0
O133 O 0.06401 0.09093 0.69194 0.0
O134 O 0.07261 0.08361 0.61319 0.0
O135 O 0.01575 0.07597 0.66149 0.0
O136 O 0.03527 0.08187 0.60806 0.0
C137 C 0.07479 0.08979 0.65799 0.0
C138 C 0.02105 0.07723 0.61442 0.0
O139 O 0.03729 0.08092 0.77423 0.0
Mg140 Mg 0.65705 0.29106 0.44457 0.0
O141 O 0.68205 0.2994 0.44172 0.0
O142 O 0.68911 0.30705 0.36195 0.0
Mg143 Mg 0.66641 0.30633 0.31515 0.0
C144 C 0.69216 0.30461 0.40985 0.0
C145 C 0.65919 0.27425 0.54502 0.0
O146 O 0.65523 0.26366 0.51048 0.0
O147 O 0.64938 0.31601 0.45108 0.0
O148 O 0.65602 0.32441 0.37138 0.0
O149 O 0.66436 0.26796 0.41401 0.0
O150 O 0.65667 0.28768 0.36441 0.0
C151 C 0.65058 0.3268 0.4171 0.0
C152 C 0.66169 0.27356 0.36819 0.0
O153 O 0.65982 0.28848 0.53154 0.0
Mg154 Mg 0.44667 0.90594 0.1874 0.0
O155 O 0.44126 0.93167 0.18924 0.0
O156 O 0.43519 0.9409 0.11061 0.0
Mg157 Mg 0.43619 0.91989 0.05627 0.0
C158 C 0.43712 0.9428 0.15945 0.0
C159 C 0.46133 0.9006 0.29025 0.0
O160 O 0.46937 0.89221 0.25676 0.0
O161 O 0.4204 0.90143 0.18488 0.0
O162 O 0.41616 0.91006 0.10363 0.0
O163 O 0.47132 0.91053 0.16355 0.0
O164 O 0.4517 0.90709 0.1088 0.0
C165 C 0.41129 0.90427 0.14646 0.0
C166 C 0.46625 0.90996 0.11614 0.0
O167 O 0.44874 0.907 0.27509 0.0
Mg168 Mg 0.83383 0.29105 0.54368 0.0
O169 O 0.80771 0.29486 0.54383 0.0
O170 O 0.79846 0.2969 0.62506 0.0
Mg171 Mg 0.81992 0.29556 0.67775 0.0
C172 C 0.79653 0.29675 0.57585 0.0
C173 C 0.84344 0.28611 0.4319 0.0
O174 O 0.85574 0.281 0.45732 0.0
O175 O 0.83661 0.31686 0.55889 0.0
O176 O 0.82837 0.31869 0.64159 0.0
O177 O 0.83092 0.26543 0.55318 0.0
O178 O 0.83301 0.28239 0.61841 0.0
C179 C 0.83374 0.32485 0.59985 0.0
C180 C 0.83084 0.26828 0.60265 0.0
O181 O 0.83298 0.29351 0.45671 0.0
Mg182 Mg 0.44609 0.08539 0.28615 0.0
O183 O 0.43898 0.05946 0.28797 0.0
O184 O 0.42919 0.05139 0.3653 0.0
Mg185 Mg 0.4272 0.07297 0.41756 0.0
C186 C 0.43343 0.0489 0.31814 0.0
C187 C 0.46778 0.08715 0.19613 0.0
O188 O 0.47572 0.09207 0.23667 0.0
O189 O 0.4208 0.09314 0.26538 0.0
O190 O 0.42299 0.08302 0.34096 0.0
O191 O 0.46787 0.07895 0.32659 0.0
O192 O 0.44641 0.0844 0.37101 0.0
C193 C 0.41434 0.08954 0.30807 0.0
C194 C 0.46084 0.08017 0.37083 0.0
O195 O 0.45339 0.08385 0.20142 0.0
Mg196 Mg 0.65853 0.70235 0.05831 0.0
O197 O 0.68284 0.69236 0.04747 0.0
O198 O 0.69184 0.68232 0.12186 0.0
Mg199 Mg 0.67236 0.68567 0.18128 0.0
C200 C 0.69339 0.68531 0.07346 0.0
C201 C 0.64998 0.71797 0.95788 0.0
O202 O 0.64403 0.72698 0.99433 0.0
O203 O 0.64893 0.67793 0.05613 0.0
O204 O 0.65789 0.66865 0.13221 0.0
O205 O 0.66799 0.7251 0.08369 0.0
O206 O 0.66262 0.70557 0.13727 0.0
C207 C 0.65047 0.667 0.08941 0.0
C208 C 0.66774 0.71959 0.13065 0.0
O209 O 0.65659 0.70533 0.97127 0.0
Mg210 Mg 0.04613 0.90681 0.7862 0.0
O211 O 0.04996 0.93302 0.79708 0.0
O212 O 0.05291 0.9404 0.8804 0.0
Mg213 Mg 0.06179 0.91728 0.91319 0.0
C214 C 0.05114 0.94354 0.83211 0.0
C215 C 0.03496 0.90096 0.67579 0.0
O216 O 0.03353 0.88691 0.69589 0.0
O217 O 0.07204 0.90185 0.77471 0.0
O218 O 0.0752 0.91848 0.83737 0.0
O219 O 0.02263 0.90912 0.81925 0.0
O220 O 0.04358 0.90433 0.86792 0.0
C221 C 0.08035 0.90691 0.81204 0.0
C222 C 0.02878 0.90713 0.86482 0.0
O223 O 0.04167 0.91155 0.70192 0.0
Mg224 Mg 0.65551 0.79351 0.55297 0.0
O225 O 0.68178 0.7951 0.54924 0.0
O226 O 0.69204 0.79958 0.62764 0.0
Mg227 Mg 0.67149 0.79957 0.68435 0.0
C228 C 0.69347 0.79773 0.57857 0.0
C229 C 0.64739 0.78373 0.44365 0.0
O230 O 0.63663 0.77669 0.47165 0.0
O231 O 0.65479 0.81987 0.56308 0.0
O232 O 0.66306 0.822 0.64556 0.0
O233 O 0.65616 0.76793 0.56884 0.0
O234 O 0.65687 0.78639 0.62942 0.0
C235 C 0.65786 0.82807 0.6035 0.0
C236 C 0.65739 0.77183 0.61733 0.0
O237 O 0.65593 0.79397 0.46522 0.0
Mg238 Mg 0.44998 0.40856 0.80105 0.0
O239 O 0.44438 0.43414 0.79222 0.0
O240 O 0.441 0.44489 0.871 0.0
Mg241 Mg 0.44448 0.42553 0.93132 0.0
C242 C 0.44133 0.44575 0.82141 0.0
C243 C 0.45956 0.39871 0.69697 0.0
O244 O 0.46842 0.39127 0.73057 0.0
O245 O 0.42441 0.40396 0.81831 0.0
O246 O 0.42298 0.41239 0.90107 0.0
O247 O 0.47548 0.41367 0.80952 0.0
O248 O 0.45856 0.41264 0.87478 0.0
C249 C 0.41697 0.40587 0.86101 0.0
C250 C 0.4725 0.41537 0.85854 0.0
O251 O 0.4478 0.40615 0.71388 0.0
Mg252 Mg 0.83491 0.20068 0.04623 0.0
O253 O 0.80949 0.19251 0.04675 0.0
O254 O 0.79974 0.1912 0.12766 0.0
Mg255 Mg 0.82203 0.18798 0.17306 0.0
C256 C 0.79817 0.19054 0.07838 0.0
C257 C 0.83558 0.21653 0.94285 0.0
O258 O 0.84006 0.22689 0.97749 0.0
O259 O 0.84317 0.17546 0.04985 0.0
O260 O 0.82605 0.16918 0.11188 0.0
O261 O 0.82755 0.22437 0.07235 0.0
O262 O 0.8342 0.20523 0.12559 0.0
C263 C 0.83685 0.16545 0.08019 0.0
C264 C 0.82943 0.21933 0.11937 0.0
O265 O 0.83342 0.20251 0.95763 0.0
Mg266 Mg 0.03733 0.58181 0.30096 0.0
O267 O 0.04662 0.55728 0.29431 0.0
O268 O 0.05959 0.55009 0.36575 0.0
Mg269 Mg 0.05777 0.57121 0.4201 0.0
C270 C 0.05452 0.54734 0.32 0.0
C271 C 0.02156 0.58914 0.19826 0.0
O272 O 0.01336 0.5976 0.23114 0.0
O273 O 0.0613 0.59166 0.28815 0.0
O274 O 0.0731 0.58484 0.36264 0.0
O275 O 0.01564 0.57261 0.33574 0.0
O276 O 0.03641 0.5802 0.38114 0.0
C277 C 0.07323 0.59123 0.31767 0.0
C278 C 0.02247 0.57449 0.38032 0.0
O279 O 0.03298 0.58123 0.21521 0.0
Mg280 Mg 0.66035 0.19849 0.94478 0.0
O281 O 0.68489 0.18903 0.94248 0.0
O282 O 0.69196 0.18252 0.86169 0.0
Mg283 Mg 0.67013 0.18674 0.81208 0.0
C284 C 0.69485 0.18373 0.91023 0.0
C285 C 0.65275 0.20852 0.05124 0.0
O286 O 0.64299 0.21604 0.02074 0.0
O287 O 0.651 0.17408 0.94109 0.0
O288 O 0.65686 0.16805 0.85821 0.0
O289 O 0.66869 0.22225 0.92381 0.0
O290 O 0.66096 0.20416 0.86731 0.0
C291 C 0.651 0.16468 0.90261 0.0
C292 C 0.66616 0.218 0.87615 0.0
O293 O 0.66187 0.19852 0.0315 0.0
Mg294 Mg 0.03891 0.40752 0.18626 0.0
O295 O 0.04763 0.43218 0.18435 0.0
O296 O 0.05704 0.4397 0.10774 0.0
Mg297 Mg 0.05467 0.41745 0.05859 0.0
C298 C 0.05396 0.44242 0.15545 0.0
C299 C 0.03339 0.40037 0.30472 0.0
O300 O 0.03357 0.38575 0.2891 0.0
O301 O 0.0639 0.39937 0.19276 0.0
O302 O 0.07256 0.40614 0.11341 0.0
O303 O 0.01578 0.41477 0.15676 0.0
O304 O 0.03548 0.40727 0.10613 0.0
C305 C 0.07474 0.40045 0.15887 0.0
C306 C 0.02132 0.41221 0.11065 0.0
O307 O 0.03626 0.41113 0.27229 0.0
Mg308 Mg 0.83575 0.79175 0.43515 0.0
O309 O 0.80962 0.79493 0.43822 0.0
O310 O 0.80063 0.80349 0.36149 0.0
Mg311 Mg 0.82163 0.80372 0.30683 0.0
C312 C 0.79859 0.79961 0.40893 0.0
C313 C 0.84236 0.77904 0.54179 0.0
O314 O 0.85072 0.77004 0.511 0.0
O315 O 0.83885 0.81781 0.43526 0.0
O316 O 0.83117 0.82423 0.35476 0.0
O317 O 0.83279 0.76711 0.4131 0.0
O318 O 0.83421 0.78663 0.35639 0.0
C319 C 0.83649 0.82789 0.39963 0.0
C320 C 0.83213 0.77192 0.36537 0.0
O321 O 0.83544 0.79076 0.52242 0.0
Mg322 Mg 0.44935 0.5849 0.6875 0.0
O323 O 0.44215 0.55952 0.68335 0.0
O324 O 0.43458 0.55272 0.603 0.0
Mg325 Mg 0.43406 0.57559 0.55796 0.0
C326 C 0.43728 0.54946 0.65058 0.0
C327 C 0.46358 0.59042 0.79264 0.0
O328 O 0.47108 0.6001 0.76174 0.0
O329 O 0.42389 0.59087 0.69575 0.0
O330 O 0.41551 0.58406 0.61634 0.0
O331 O 0.47282 0.57901 0.65768 0.0
O332 O 0.4527 0.58517 0.60742 0.0
C333 C 0.41296 0.58893 0.66268 0.0
C334 C 0.46698 0.58055 0.61145 0.0
O335 O 0.45244 0.5824 0.77408 0.0
Mg336 Mg 0.33781 0.19861 0.43163 0.0
O337 O 0.31214 0.19392 0.43769 0.0
O338 O 0.30202 0.18496 0.36353 0.0
Mg339 Mg 0.32286 0.18385 0.30802 0.0
C340 C 0.30065 0.18896 0.41115 0.0
C341 C 0.34277 0.21415 0.53547 0.0
O342 O 0.3502 0.22353 0.50337 0.0
O343 O 0.34214 0.17272 0.43755 0.0
O344 O 0.33266 0.1646 0.3609 0.0
O345 O 0.33267 0.22243 0.4036 0.0
O346 O 0.33609 0.20188 0.35177 0.0
C347 C 0.33885 0.16187 0.4053 0.0
C348 C 0.33277 0.21648 0.35729 0.0
O349 O 0.33733 0.2014 0.51827 0.0
Mg350 Mg 0.54181 0.58245 0.18846 0.0
O351 O 0.54544 0.55658 0.19393 0.0
O352 O 0.54948 0.54547 0.11651 0.0
Mg353 Mg 0.5488 0.56563 0.0584 0.0
C354 C 0.54814 0.54465 0.16589 0.0
C355 C 0.53457 0.59209 0.30183 0.0
O356 O 0.52914 0.60447 0.27768 0.0
O357 O 0.5681 0.58563 0.17758 0.0
O358 O 0.57006 0.57631 0.09651 0.0
O359 O 0.5163 0.57919 0.17311 0.0
O360 O 0.5345 0.57982 0.11184 0.0
C361 C 0.5761 0.5827 0.13659 0.0
C362 C 0.5201 0.57786 0.12454 0.0
O363 O 0.5425 0.58217 0.27642 0.0
Mg364 Mg 0.15744 0.78778 0.95416 0.0
O365 O 0.1823 0.79641 0.94777 0.0
O366 O 0.18823 0.80346 0.86632 0.0
Mg367 Mg 0.16519 0.80124 0.82181 0.0
C368 C 0.19186 0.80155 0.91401 0.0
C369 C 0.14987 0.78272 0.06995 0.0
O370 O 0.13553 0.78321 0.05169 0.0
O371 O 0.14912 0.81274 0.95739 0.0
O372 O 0.15458 0.81992 0.87539 0.0
O373 O 0.16469 0.76425 0.92794 0.0
O374 O 0.15637 0.7831 0.87522 0.0
C375 C 0.14948 0.82292 0.92115 0.0
C376 C 0.16169 0.76916 0.88137 0.0
O377 O 0.16116 0.78605 0.04009 0.0
Mg378 Mg 0.94509 0.40556 0.68176 0.0
O379 O 0.94001 0.43147 0.68566 0.0
O380 O 0.9338 0.44068 0.60661 0.0
Mg381 Mg 0.93248 0.41948 0.55332 0.0
C382 C 0.9363 0.44258 0.65513 0.0
C383 C 0.96084 0.39916 0.78125 0.0
O384 O 0.96886 0.39211 0.74447 0.0
O385 O 0.91909 0.40126 0.6831 0.0
O386 O 0.91237 0.41006 0.60404 0.0
O387 O 0.9693 0.41057 0.65726 0.0
O388 O 0.94967 0.4073 0.60222 0.0
C389 C 0.90884 0.40417 0.6483 0.0
C390 C 0.96417 0.41067 0.60993 0.0
O391 O 0.94776 0.40526 0.76963 0.0
Mg392 Mg 0.33243 0.7922 0.04143 0.0
O393 O 0.30691 0.79853 0.04617 0.0
O394 O 0.29921 0.80385 0.12738 0.0
Mg395 Mg 0.32195 0.8036 0.17397 0.0
C396 C 0.29642 0.80233 0.07888 0.0
C397 C 0.34025 0.783 0.93233 0.0
O398 O 0.3531 0.77957 0.95788 0.0
O399 O 0.33764 0.81794 0.04064 0.0
O400 O 0.33029 0.82377 0.12218 0.0
O401 O 0.32729 0.7679 0.065 0.0
O402 O 0.33316 0.78713 0.11986 0.0
C403 C 0.33531 0.82777 0.0772 0.0
C404 C 0.32926 0.7728 0.1122 0.0
O405 O 0.32961 0.79066 0.95524 0.0
Mg406 Mg 0.94699 0.58367 0.79847 0.0
O407 O 0.94235 0.55773 0.79717 0.0
O408 O 0.93825 0.54853 0.87759 0.0
Mg409 Mg 0.93943 0.5698 0.93116 0.0
C410 C 0.93937 0.5466 0.82847 0.0
C411 C 0.95762 0.5904 0.69269 0.0
O412 O 0.96614 0.59894 0.72431 0.0
O413 O 0.92128 0.58744 0.80887 0.0
O414 O 0.91741 0.57979 0.89132 0.0
O415 O 0.97228 0.57993 0.81214 0.0
O416 O 0.9544 0.58199 0.8745 0.0
C417 C 0.9124 0.58539 0.84821 0.0
C418 C 0.96868 0.57948 0.86101 0.0
O419 O 0.94577 0.58343 0.71094 0.0
Mg420 Mg 0.15741 0.19795 0.53479 0.0
O421 O 0.18362 0.19242 0.53848 0.0
O422 O 0.19156 0.18666 0.6197 0.0
Mg423 Mg 0.16862 0.17941 0.65661 0.0
C424 C 0.19439 0.18966 0.57182 0.0
C425 C 0.1555 0.21733 0.43954 0.0
O426 O 0.1497 0.2257 0.47781 0.0
O427 O 0.14983 0.17262 0.52201 0.0
O428 O 0.16797 0.16739 0.57836 0.0
O429 O 0.16327 0.22041 0.5713 0.0
O430 O 0.15686 0.19942 0.61731 0.0
C431 C 0.15574 0.16317 0.5547 0.0
C432 C 0.16151 0.21375 0.61611 0.0
O433 O 0.15956 0.20331 0.44858 0.0
Mg434 Mg 0.53997 0.40468 0.29787 0.0
O435 O 0.54462 0.43079 0.30713 0.0
O436 O 0.54673 0.43799 0.39096 0.0
Mg437 Mg 0.55514 0.41491 0.42409 0.0
C438 C 0.54547 0.4412 0.34259 0.0
C439 C 0.5238 0.40403 0.19501 0.0
O440 O 0.51446 0.39652 0.22703 0.0
O441 O 0.56571 0.3987 0.29177 0.0
O442 O 0.57006 0.41664 0.35077 0.0
O443 O 0.51647 0.40901 0.33008 0.0
O444 O 0.53706 0.40244 0.37824 0.0
C445 C 0.57496 0.40524 0.32389 0.0
C446 C 0.5226 0.4065 0.37543 0.0
O447 O 0.53695 0.40868 0.21173 0.0
C448 C 0.2679 0.31031 0.92108 0.0
C449 C 0.28002 0.30089 0.93995 0.0
C450 C 0.25339 0.3107 0.94652 0.0
C451 C 0.25096 0.30111 0.99077 0.0
C452 C 0.26328 0.29188 0.01061 0.0
C453 C 0.27772 0.29201 0.98525 0.0
C454 C 0.24057 0.32103 0.92541 0.0
C455 C 0.26102 0.28128 0.05711 0.0
C456 C 0.21607 0.30649 0.07972 0.0
C457 C 0.20558 0.29568 0.05843 0.0
C458 C 0.23083 0.30872 0.05724 0.0
C459 C 0.23521 0.29956 0.0137 0.0
C460 C 0.22475 0.28834 0.99304 0.0
C461 C 0.20994 0.2867 0.0153 0.0
C462 C 0.24158 0.32107 0.07921 0.0
C463 C 0.22917 0.27812 0.94733 0.0
H464 H 0.26975 0.31733 0.88646 0.0
H465 H 0.28705 0.28465 -0.0001 0.0
H466 H 0.23091 0.31372 0.91003 0.0
H467 H 0.23565 0.32838 0.95706 0.0
H468 H 0.24478 0.32879 0.89365 0.0
H469 H 0.27204 0.27542 0.06909 0.0
H470 H 0.25644 0.288 0.09075 0.0
H471 H 0.25225 0.27216 0.04758 0.0
H472 H 0.21246 0.31368 0.11238 0.0
H473 H 0.20169 0.27845 -0.00122 0.0
H474 H 0.24495 0.32943 0.04812 0.0
H475 H 0.25249 0.3156 0.09372 0.0
H476 H 0.23609 0.32769 0.11167 0.0
H477 H 0.2318 0.28547 0.91284 0.0
H478 H 0.21975 0.26977 0.93676 0.0
H479 H 0.23991 0.2714 0.9566 0.0
C480 C 0.94799 0.96308 0.27937 0.0
C481 C 0.9349 0.95559 0.29998 0.0
C482 C 0.94664 0.97783 0.25668 0.0
C483 C 0.93172 0.98491 0.25321 0.0
C484 C 0.91837 0.97723 0.27336 0.0
C485 C 0.92017 0.96264 0.29743 0.0
C486 C 0.9612 0.98588 0.23683 0.0
C487 C 0.90227 0.98435 0.26896 0.0
C488 C 0.93386 0.02854 0.23793 0.0
C489 C 0.93332 0.03013 0.18355 0.0
C490 C 0.93241 0.0139 0.26142 0.0
C491 C 0.9304 0.00057 0.22969 0.0
C492 C 0.92902 0.00214 0.17501 0.0
C493 C 0.9305 0.01697 0.15248 0.0
C494 C 0.93389 0.01263 0.31994 0.0
C495 C 0.92677 0.9881 0.14017 0.0
H496 H 0.95933 0.95744 0.28165 0.0
H497 H 0.91008 0.95656 0.313 0.0
H498 H 0.96005 0.98831 0.19456 0.0
H499 H 0.9627 -0.00273 0.25687 0.0
H500 H 0.9719 0.97877 0.24313 0.0
H501 H 0.89307 0.97668 0.28567 0.0
H502 H 0.90195 -0.00423 0.28936 0.0
H503 H 0.89947 0.98661 0.22743 0.0
H504 H 0.93574 0.03872 0.26231 0.0
H505 H 0.92992 0.01816 0.11048 0.0
H506 H 0.94484 0.00635 0.32989 0.0
H507 H 0.92404 0.00577 0.33624 0.0
H508 H 0.93411 0.02426 0.33922 0.0
H509 H 0.93764 0.98103 0.13966 0.0
H510 H 0.92392 0.99149 0.09949 0.0
H511 H 0.91728 0.98052 0.15537 0.0
C512 C 0.21196 0.68118 0.48859 0.0
C513 C 0.21007 0.68686 0.43771 0.0
C514 C 0.22677 0.67984 0.51093 0.0
C515 C 0.23998 0.68458 0.482 0.0
C516 C 0.23824 0.69009 0.43029 0.0
C517 C 0.22324 0.69103 0.40845 0.0
C518 C 0.22824 0.67362 0.56582 0.0
C519 C 0.25216 0.69534 0.39865 0.0
C520 C 0.2746 0.6978 0.5617 0.0
C521 C 0.28444 0.68486 0.55769 0.0
C522 C 0.26012 0.69792 0.53652 0.0
C523 C 0.25547 0.68467 0.50733 0.0
C524 C 0.26536 0.67145 0.50385 0.0
C525 C 0.27991 0.67177 0.52886 0.0
C526 C 0.24991 0.71226 0.54058 0.0
C527 C 0.26058 0.65702 0.47396 0.0
H528 H 0.20181 0.67765 0.51102 0.0
H529 H 0.22178 0.69535 0.36905 0.0
H530 H 0.23666 0.66376 0.56685 0.0
H531 H 0.23286 0.68288 0.59184 0.0
H532 H 0.21687 0.66952 0.5817 0.0
H533 H 0.24884 0.69904 0.35868 0.0
H534 H 0.25802 0.70527 0.41844 0.0
H535 H 0.26084 0.68574 0.39575 0.0
H536 H 0.27845 0.70797 0.58344 0.0
H537 H 0.28781 0.6619 0.52559 0.0
H538 H 0.23862 0.7092 0.55924 0.0
H539 H 0.24724 0.7168 0.50108 0.0
H540 H 0.2555 0.72173 0.56361 0.0
H541 H 0.25004 0.6518 0.49215 0.0
H542 H 0.26997 0.64806 0.47303 0.0
H543 H 0.25744 0.66013 0.43334 0.0
C544 C 0.53804 0.0232 0.77412 0.0
C545 C 0.55024 0.02928 0.80407 0.0
C546 C 0.53959 0.00867 0.7497 0.0
C547 C 0.5539 0.00043 0.754 0.0
C548 C 0.56642 0.00679 0.78307 0.0
C549 C 0.56432 0.02109 0.80867 0.0
C550 C 0.52592 0.0021 0.71961 0.0
C551 C 0.58204 -0.00137 0.78635 0.0
C552 C 0.54971 0.95698 0.73791 0.0
C553 C 0.55279 0.95506 0.68456 0.0
C554 C 0.55079 0.97162 0.76149 0.0
C555 C 0.5552 0.98466 0.73113 0.0
C556 C 0.5593 0.9827 0.67809 0.0
C557 C 0.55793 0.96788 0.65522 0.0
C558 C 0.54639 0.97327 0.81829 0.0
C559 C 0.56445 -0.00368 0.64487 0.0
H560 H 0.52732 0.02985 0.76986 0.0
H561 H 0.57391 0.0262 0.83043 0.0
H562 H 0.52932 8e-05 0.67846 0.0
H563 H 0.52246 0.99063 0.73623 0.0
H564 H 0.51561 0.00998 0.72034 0.0
H565 H 0.59086 0.00564 0.80787 0.0
H566 H 0.5807 0.98719 0.80614 0.0
H567 H 0.58655 -0.00375 0.74658 0.0
H568 H 0.54597 0.9471 0.76122 0.0
H569 H 0.56057 0.96644 0.61419 0.0
H570 H 0.53575 0.98062 0.82181 0.0
H571 H 0.55586 0.97921 0.84013 0.0
H572 H 0.54405 0.96181 0.83706 0.0
H573 H 0.55407 0.00329 0.63344 0.0
H574 H 0.57044 0.99237 0.60878 0.0
H575 H 0.57244 0.00414 0.6668 0.0
C576 C 0.72071 0.67479 0.07437 0.0
C577 C 0.70804 0.68101 0.04658 0.0
C578 C 0.7353 0.67285 0.05038 0.0
C579 C 0.73719 0.67742 -0.0022 0.0
C580 C 0.72409 0.68221 0.96829 0.0
C581 C 0.70964 0.68391 0.99305 0.0
C582 C 0.74893 0.66718 0.08258 0.0
C583 C 0.7256 0.68702 0.91187 0.0
C584 C 0.77443 0.69846 0.96283 0.0
C585 C 0.78166 0.68764 0.93004 0.0
C586 C 0.76001 0.6951 0.98568 0.0
C587 C 0.753 0.68034 0.9768 0.0
C588 C 0.76061 0.66909 0.94533 0.0
C589 C 0.77481 0.67302 0.92136 0.0
C590 C 0.75211 0.70752 0.01829 0.0
C591 C 0.75381 0.653 0.93722 0.0
H592 H 0.71948 0.67213 0.11546 0.0
H593 H 0.69979 0.68829 0.97084 0.0
H594 H 0.75686 0.65969 0.05917 0.0
H595 H 0.75578 0.67738 0.09639 0.0
H596 H 0.74495 0.6605 0.11725 0.0
H597 H 0.71403 0.68832 0.89268 0.0
H598 H 0.73181 0.69839 0.90962 0.0
H599 H 0.73258 0.67837 0.88969 0.0
H600 H 0.77992 0.70971 0.96955 0.0
H601 H 0.78073 0.66457 0.89679 0.0
H602 H 0.75005 0.70308 0.0583 0.0
H603 H 0.74055 0.71046 0.00128 0.0
H604 H 0.75914 0.7184 0.02094 0.0
H605 H 0.75176 0.64729 0.97544 0.0
H606 H 0.76159 0.6454 0.91353 0.0
H607 H 0.74231 0.65386 0.91746 0.0
C608 C 0.04234 0.97116 0.82537 0.0
C609 C 0.05327 0.95954 0.81401 0.0
C610 C 0.04343 0.98584 0.80131 0.0
C611 C 0.05589 0.98883 0.76621 0.0
C612 C 0.06742 0.97732 0.75718 0.0
C613 C 0.06584 0.9627 0.78073 0.0
C614 C 0.03087 -0.00213 0.81143 0.0
C615 C 0.08113 0.98027 0.72137 0.0
C616 C 0.04896 0.01874 0.66013 0.0
C617 C 0.05531 0.03213 0.68295 0.0
C618 C 0.04917 0.00446 0.68682 0.0
C619 C 0.05635 0.00362 0.73652 0.0
C620 C 0.06362 0.01695 0.75816 0.0
C621 C 0.06275 0.03116 0.73143 0.0
C622 C 0.04114 0.99047 0.66293 0.0
C623 C 0.0719 0.01632 0.81009 0.0
H624 H 0.03261 0.96851 0.85098 0.0
H625 H 0.07429 0.95357 0.77244 0.0
H626 H 0.03618 0.00902 0.82453 0.0
H627 H 0.02446 0.00032 0.77474 0.0
H628 H 0.02236 0.99394 0.84137 0.0
H629 H 0.0898 0.9706 0.72249 0.0
H630 H 0.07693 0.98158 0.68072 0.0
H631 H 0.08709 0.99131 0.7322 0.0
H632 H 0.04307 0.01965 0.62284 0.0
H633 H 0.0677 0.04162 0.74874 0.0
H634 H 0.03149 0.98655 0.68871 0.0
H635 H 0.04947 0.9806 0.65932 0.0
H636 H 0.03625 0.99307 0.62379 0.0
H637 H 0.06323 0.01452 0.84167 0.0
H638 H 0.07848 0.02723 0.81837 0.0
H639 H 0.08015 0.00632 0.81121 0.0
C640 C 0.72104 0.30248 0.4017 0.0
C641 C 0.70796 0.30742 0.42987 0.0
C642 C 0.73589 0.30251 0.42483 0.0
C643 C 0.73757 0.30801 0.47661 0.0
C644 C 0.72455 0.31428 0.50338 0.0
C645 C 0.70981 0.31366 0.47993 0.0
C646 C 0.74951 0.29563 0.3953 0.0
C647 C 0.72603 0.32085 0.55778 0.0
C648 C 0.76902 0.28929 0.55938 0.0
C649 C 0.78111 0.30011 0.55435 0.0
C650 C 0.75471 0.29178 0.53419 0.0
C651 C 0.75247 0.30562 0.50471 0.0
C652 C 0.76453 0.31688 0.50146 0.0
C653 C 0.77887 0.31383 0.52565 0.0
C654 C 0.74215 0.27942 0.53791 0.0
C655 C 0.76237 0.332 0.47195 0.0
H656 H 0.71951 0.29764 0.36298 0.0
H657 H 0.69964 0.3177 0.50129 0.0
H658 H 0.75965 0.30369 0.39613 0.0
H659 H 0.75323 0.28459 0.41433 0.0
H660 H 0.74653 0.29308 0.35404 0.0
H661 H 0.71536 0.32729 0.56994 0.0
H662 H 0.72805 0.31119 0.5858 0.0
H663 H 0.7362 0.32886 0.56034 0.0
H664 H 0.77097 0.27865 0.5814 0.0
H665 H 0.78839 0.32215 0.52213 0.0
H666 H 0.73902 0.27525 0.49832 0.0
H667 H 0.73143 0.28445 0.55553 0.0
H668 H 0.74588 0.26923 0.56167 0.0
H669 H 0.76153 0.32954 0.42962 0.0
H670 H 0.7722 0.34025 0.47843 0.0
H671 H 0.75131 0.33778 0.48381 0.0
C672 C 0.43057 0.97119 0.15208 0.0
C673 C 0.43393 0.95817 0.18321 0.0
C674 C 0.42823 0.98592 0.17457 0.0
C675 C 0.42935 0.98759 0.22929 0.0
C676 C 0.43184 0.97435 0.26109 0.0
C677 C 0.43412 0.95978 0.23765 0.0
C678 C 0.42537 -0.00019 0.13959 0.0
C679 C 0.43298 0.97568 0.31968 0.0
C680 C 0.44561 0.0259 0.27746 0.0
C681 C 0.43224 0.03309 0.29737 0.0
C682 C 0.44479 0.01094 0.25586 0.0
C683 C 0.43013 0.00334 0.25264 0.0
C684 C 0.41651 0.01069 0.27219 0.0
C685 C 0.41779 0.02549 0.29525 0.0
C686 C 0.45963 0.00326 0.23668 0.0
C687 C 0.40065 0.00305 0.26799 0.0
H688 H 0.43016 0.96998 0.11007 0.0
H689 H 0.43638 0.94972 0.26215 0.0
H690 H 0.41567 0.00709 0.15493 0.0
H691 H 0.436 0.00724 0.13855 0.0
H692 H 0.42252 -0.00376 0.09907 0.0
H693 H 0.4333 0.96407 0.33901 0.0
H694 H 0.44378 0.98214 0.33018 0.0
H695 H 0.42294 0.98239 0.33542 0.0
H696 H 0.45675 0.03194 0.2794 0.0
H697 H 0.40746 0.03132 0.31024 0.0
H698 H 0.45866 0.0007 0.19443 0.0
H699 H 0.4614 0.99196 0.25705 0.0
H700 H 0.4701 0.01068 0.24311 0.0
H701 H 0.39783 0.00084 0.22644 0.0
H702 H 0.39124 0.01036 0.28518 0.0
H703 H 0.40074 0.99156 0.28795 0.0
C704 C 0.71042 0.7982 0.49957 0.0
C705 C 0.70896 0.79953 0.55389 0.0
C706 C 0.72493 0.7999 0.47515 0.0
C707 C 0.7383 0.80294 0.50579 0.0
C708 C 0.73688 0.8049 0.56032 0.0
C709 C 0.7222 0.8031 0.58384 0.0
C710 C 0.72602 0.79791 0.41676 0.0
C711 C 0.75091 0.80855 0.59385 0.0
C712 C 0.7766 0.78729 0.45499 0.0
C713 C 0.78299 0.80054 0.43153 0.0
C714 C 0.76198 0.78796 0.47914 0.0
C715 C 0.75393 0.8024 0.48135 0.0
C716 C 0.76058 0.81596 0.45879 0.0
C717 C 0.77499 0.81478 0.43304 0.0
C718 C 0.7551 0.7732 0.50184 0.0
C719 C 0.75253 0.83165 0.46155 0.0
H720 H 0.70024 0.79568 0.4759 0.0
H721 H 0.72113 0.8044 0.62569 0.0
H722 H 0.73184 0.80819 0.39903 0.0
H723 H 0.73327 0.78751 0.40752 0.0
H724 H 0.71437 0.79643 0.39831 0.0
H725 H 0.74761 0.81108 0.63486 0.0
H726 H 0.75909 0.79849 0.59357 0.0
H727 H 0.75731 0.81876 0.57787 0.0
H728 H 0.78299 0.77634 0.45382 0.0
H729 H 0.78022 0.82505 0.41546 0.0
H730 H 0.74367 0.77069 0.48319 0.0
H731 H 0.75294 0.77475 0.54414 0.0
H732 H 0.76286 0.76292 0.49635 0.0
H733 H 0.74295 0.83203 0.43246 0.0
H734 H 0.76072 0.8414 0.45307 0.0
H735 H 0.74727 0.83358 0.50054 0.0
C736 C 0.44963 0.47268 0.80187 0.0
C737 C 0.43863 0.46077 0.7963 0.0
C738 C 0.44804 0.48663 0.77399 0.0
C739 C 0.43487 0.48875 0.74128 0.0
C740 C 0.42355 0.4768 0.73646 0.0
C741 C 0.42573 0.46274 0.76347 0.0
C742 C 0.46054 0.49901 0.77908 0.0
C743 C 0.40915 0.4789 0.70318 0.0
C744 C 0.42744 0.53147 0.71809 0.0
C745 C 0.43452 0.53359 0.66947 0.0
C746 C 0.42631 0.51659 0.74014 0.0
C747 C 0.43292 0.50373 0.71349 0.0
C748 C 0.43934 0.50571 0.66304 0.0
C749 C 0.43987 0.52071 0.64119 0.0
C750 C 0.41887 0.51481 0.79319 0.0
C751 C 0.44673 0.49228 0.63389 0.0
H752 H 0.45971 0.47087 0.82679 0.0
H753 H 0.41735 0.45332 0.75928 0.0
H754 H 0.4651 0.50219 0.74 0.0
H755 H 0.45549 0.50975 0.79655 0.0
H756 H 0.47048 0.49511 0.8037 0.0
H757 H 0.40135 0.46852 0.70439 0.0
H758 H 0.40247 0.48926 0.71663 0.0
H759 H 0.41255 0.48109 0.66214 0.0
H760 H 0.42307 0.54152 0.73937 0.0
H761 H 0.44533 0.52249 0.60352 0.0
H762 H 0.42808 0.51265 0.82275 0.0
H763 H 0.41084 0.50463 0.79371 0.0
H764 H 0.41224 0.52541 0.80485 0.0
H765 H 0.45783 0.48896 0.65337 0.0
H766 H 0.44934 0.49534 0.59274 0.0
H767 H 0.43901 0.48188 0.63444 0.0
C768 C 0.7118 0.17377 0.98106 0.0
C769 C 0.71039 0.17974 0.93044 0.0
C770 C 0.72643 0.17255 0.00501 0.0
C771 C 0.73982 0.17785 0.97805 0.0
C772 C 0.73859 0.18283 0.92557 0.0
C773 C 0.72382 0.18355 0.90206 0.0
C774 C 0.7274 0.16665 0.06038 0.0
C775 C 0.75266 0.18864 0.89578 0.0
C776 C 0.77093 0.19769 0.05884 0.0
C777 C 0.78294 0.18673 0.05668 0.0
C778 C 0.75674 0.19482 0.03356 0.0
C779 C 0.75453 0.18046 0.00695 0.0
C780 C 0.76648 0.16904 0.00682 0.0
C781 C 0.78074 0.17244 0.03118 0.0
C782 C 0.74434 0.20739 0.03387 0.0
C783 C 0.76427 0.1534 0.98061 0.0
H784 H 0.70138 0.17059 0.00265 0.0
H785 H 0.72268 0.18817 0.86291 0.0
H786 H 0.73718 0.15823 0.06461 0.0
H787 H 0.72977 0.17657 0.08706 0.0
H788 H 0.71639 0.16089 0.07295 0.0
H789 H 0.74995 0.19091 0.85414 0.0
H790 H 0.75694 0.19965 0.91364 0.0
H791 H 0.76233 0.18003 0.89794 0.0
H792 H 0.77287 0.20872 0.07864 0.0
H793 H 0.79019 0.164 0.03021 0.0
H794 H 0.73337 0.20279 0.05108 0.0
H795 H 0.74169 0.21101 0.9933 0.0
H796 H 0.74798 0.21787 0.05631 0.0
H797 H 0.75381 0.14746 -0.00328 0.0
H798 H 0.77456 0.14562 0.98574 0.0
H799 H 0.7622 0.15505 0.93832 0.0
C800 C 0.05566 0.45969 0.2332 0.0
C801 C 0.05801 0.45759 0.17947 0.0
C802 C 0.05811 0.47419 0.25679 0.0
C803 C 0.06308 0.48693 0.226 0.0
C804 C 0.0667 0.48464 0.17269 0.0
C805 C 0.06404 0.46997 0.14984 0.0
C806 C 0.0542 0.47611 0.31387 0.0
C807 C 0.07254 0.49792 0.13925 0.0
C808 C 0.0453 0.52542 0.26567 0.0
C809 C 0.05718 0.53201 0.29592 0.0
C810 C 0.04727 0.51087 0.24197 0.0
C811 C 0.06169 0.50293 0.24743 0.0
C812 C 0.07398 0.50977 0.27655 0.0
C813 C 0.07146 0.52418 0.30145 0.0
C814 C 0.03371 0.5038 0.21243 0.0
C815 C 0.08964 0.50181 0.28221 0.0
H816 H 0.05138 0.45012 0.25687 0.0
H817 H 0.06622 0.46834 0.1086 0.0
H818 H 0.06381 0.48219 0.33455 0.0
H819 H 0.04354 0.48342 0.3179 0.0
H820 H 0.05204 0.46473 0.33341 0.0
H821 H 0.07719 0.49373 0.10132 0.0
H822 H 0.06281 0.50617 0.13145 0.0
H823 H 0.08184 0.50452 0.15983 0.0
H824 H 0.03424 0.5315 0.26162 0.0
H825 H 0.08071 0.52943 0.3244 0.0
H826 H 0.03023 0.49259 0.23084 0.0
H827 H 0.03723 0.50119 0.17176 0.0
H828 H 0.02336 0.51163 0.21149 0.0
H829 H 0.08877 0.49247 0.31199 0.0
H830 H 0.09887 0.51014 0.29473 0.0
H831 H 0.09329 0.49628 0.24504 0.0
C832 C 0.27413 0.17705 0.41996 0.0
C833 C 0.28548 0.18759 0.43764 0.0
C834 C 0.25977 0.17569 0.44581 0.0
C835 C 0.25664 0.1854 0.48923 0.0
C836 C 0.26825 0.19568 0.5082 0.0
C837 C 0.28258 0.19657 0.48234 0.0
C838 C 0.24778 0.16424 0.42561 0.0
C839 C 0.26529 0.20628 0.55426 0.0
C840 C 0.21483 0.19789 0.50932 0.0
C841 C 0.21056 0.18906 0.55293 0.0
C842 C 0.22984 0.19674 0.48828 0.0
C843 C 0.24069 0.18629 0.51094 0.0
C844 C 0.23645 0.17726 0.55488 0.0
C845 C 0.2214 0.17889 0.57581 0.0
C846 C 0.23408 0.20675 0.44187 0.0
C847 C 0.24765 0.16569 0.57897 0.0
H848 H 0.27651 0.16984 0.38613 0.0
H849 H 0.29139 0.20464 0.49639 0.0
H850 H 0.24213 0.15788 0.45823 0.0
H851 H 0.23849 0.17069 0.40447 0.0
H852 H 0.25303 0.15558 0.39848 0.0
H853 H 0.276 0.21262 0.5667 0.0
H854 H 0.25621 0.215 0.54389 0.0
H855 H 0.26081 0.19948 0.58785 0.0
H856 H 0.20642 0.20576 0.49169 0.0
H857 H 0.21797 0.17185 0.60902 0.0
H858 H 0.23731 0.19921 0.40839 0.0
H859 H 0.2444 0.21409 0.45124 0.0
H860 H 0.22434 0.21452 0.4297 0.0
H861 H 0.25078 0.15663 0.54987 0.0
H862 H 0.24262 0.15984 0.61379 0.0
H863 H 0.25864 0.17163 0.59049 0.0
C864 C 0.53424 0.46724 0.32484 0.0
C865 C 0.54714 0.45728 0.32541 0.0
C866 C 0.53518 0.48177 0.29994 0.0
C867 C 0.54936 0.48622 0.27559 0.0
C868 C 0.56258 0.47633 0.27788 0.0
C869 C 0.56126 0.46185 0.3026 0.0
C870 C 0.52085 0.49206 0.29785 0.0
C871 C 0.57794 0.48085 0.25299 0.0
C872 C 0.54632 0.51558 0.16601 0.0
C873 C 0.54962 0.52951 0.19236 0.0
C874 C 0.54644 0.50129 0.19258 0.0
C875 C 0.55018 0.50103 0.24632 0.0
C876 C 0.55418 0.51498 0.27251 0.0
C877 C 0.55373 0.5291 0.24526 0.0
C878 C 0.5421 0.48655 0.1636 0.0
C879 C 0.55858 0.51503 0.32952 0.0
H880 H 0.52331 0.46338 0.34194 0.0
H881 H 0.57111 0.45386 0.3029 0.0
H882 H 0.52356 0.50378 0.31398 0.0
H883 H 0.51721 0.49372 0.25673 0.0
H884 H 0.51088 0.48703 0.31995 0.0
H885 H 0.58711 0.47182 0.25878 0.0
H886 H 0.57632 0.48268 0.21055 0.0
H887 H 0.58215 0.49205 0.26961 0.0
H888 H 0.54313 0.51591 0.12515 0.0
H889 H 0.5565 0.53986 0.26555 0.0
H890 H 0.53141 0.48138 0.18099 0.0
H891 H 0.55156 0.47775 0.16729 0.0
H892 H 0.53992 0.48872 0.12155 0.0
H893 H 0.54843 0.51129 0.35334 0.0
H894 H 0.56238 0.52676 0.3431 0.0
H895 H 0.56816 0.50657 0.33682 0.0
C896 C 0.26748 0.79982 0.08312 0.0
C897 C 0.2808 0.80571 0.05851 0.0
C898 C 0.25278 0.80122 0.05939 0.0
C899 C 0.2515 0.80904 0.01088 0.0
C900 C 0.26479 0.81608 0.98816 0.0
C901 C 0.27936 0.8141 0.01189 0.0
C902 C 0.23884 0.79344 0.08448 0.0
C903 C 0.26376 0.82506 0.93763 0.0
C904 C 0.21972 0.79448 0.92078 0.0
C905 C 0.2077 0.805 0.93163 0.0
C906 C 0.23421 0.79589 0.94566 0.0
C907 C 0.23668 0.80833 0.98123 0.0
C908 C 0.22478 0.81951 0.98992 0.0
C909 C 0.21025 0.81753 0.96559 0.0
C910 C 0.2466 0.78365 0.93587 0.0
C911 C 0.22719 0.83319 0.02623 0.0
H912 H 0.26869 0.79338 0.11926 0.0
H913 H 0.28973 0.81889 0.9935 0.0
H914 H 0.22893 0.80174 0.08743 0.0
H915 H 0.23493 0.78352 0.05984 0.0
H916 H 0.24156 0.78893 0.12404 0.0
H917 H 0.27467 0.83164 0.92923 0.0
H918 H 0.2616 0.81683 0.905 0.0
H919 H 0.25383 0.8334 0.93873 0.0
H920 H 0.21749 0.78468 0.89503 0.0
H921 H 0.20076 0.82555 0.97402 0.0
H922 H 0.24939 0.77751 0.9728 0.0
H923 H 0.25753 0.78925 0.92197 0.0
H924 H 0.24286 0.77485 0.90659 0.0
H925 H 0.22772 0.82897 0.06704 0.0
H926 H 0.2176 0.84189 0.02318 0.0
H927 H 0.23845 0.83909 0.01773 0.0
C928 C 0.94544 0.4698 0.66402 0.0
C929 C 0.93478 0.45814 0.67748 0.0
C930 C 0.94518 0.48424 0.6896 0.0
C931 C 0.93367 0.48706 0.72819 0.0
C932 C 0.92243 0.47548 0.7401 0.0
C933 C 0.92332 0.46096 0.71513 0.0
C934 C 0.95753 0.49625 0.67667 0.0
C935 C 0.90963 0.47835 0.77948 0.0
C936 C 0.94338 0.51784 0.82885 0.0
C937 C 0.93671 0.53109 0.80611 0.0
C938 C 0.94222 0.50326 0.80429 0.0
C939 C 0.93376 0.50199 0.75702 0.0
C940 C 0.92624 0.51523 0.73565 0.0
C941 C 0.92806 0.52972 0.76004 0.0
C942 C 0.95063 0.4894 0.82756 0.0
C943 C 0.91666 0.51418 0.68633 0.0
H944 H 0.95435 0.46736 0.63505 0.0
H945 H 0.91509 0.45178 0.72504 0.0
H946 H 0.95195 0.50723 0.66321 0.0
H947 H 0.96438 0.49908 0.71215 0.0
H948 H 0.9657 0.49212 0.64595 0.0
H949 H 0.90132 0.4684 0.78202 0.0
H950 H 0.91479 0.48033 0.81856 0.0
H951 H 0.90302 0.48906 0.76901 0.0
H952 H 0.95011 0.51903 0.86444 0.0
H953 H 0.92275 0.54003 0.74299 0.0
H954 H 0.95968 0.48518 0.79996 0.0
H955 H 0.94233 0.47963 0.83402 0.0
H956 H 0.95635 0.49228 0.86519 0.0
H957 H 0.92448 0.51204 0.65261 0.0
H958 H 0.90994 0.52506 0.67884 0.0
H959 H 0.90837 0.50423 0.68854 0.0
C960 C 0.14357 0.27413 0.82859 0.0
C961 C 0.15295 0.27493 0.87296 0.0
C962 C 0.14761 0.26427 0.78715 0.0
C963 C 0.16097 0.25456 0.79152 0.0
C964 C 0.17067 0.25557 0.83597 0.0
C965 C 0.16664 0.26596 0.87603 0.0
C966 C 0.13725 0.26381 0.73954 0.0
C967 C 0.18481 0.24517 0.84235 0.0
C968 C 0.15648 0.21811 0.71025 0.0
C969 C 0.16401 0.22265 0.66429 0.0
C970 C 0.15627 0.22803 0.75363 0.0
C971 C 0.16398 0.24265 0.75088 0.0
C972 C 0.17283 0.24659 0.70623 0.0
C973 C 0.1726 0.23658 0.6631 0.0
C974 C 0.14682 0.22336 0.80083 0.0
C975 C 0.18156 0.26188 0.70238 0.0
H976 H 0.13296 0.28104 0.82673 0.0
H977 H 0.17371 0.26643 0.91108 0.0
H978 H 0.14434 0.26554 0.7038 0.0
H979 H 0.13158 0.25218 0.73646 0.0
H980 H 0.12798 0.2729 0.74072 0.0
H981 H 0.19183 0.24831 0.87723 0.0
H982 H 0.18099 0.23283 0.84625 0.0
H983 H 0.1924 0.24584 0.80739 0.0
H984 H 0.14991 0.20728 0.71125 0.0
H985 H 0.17867 0.23995 0.62775 0.0
H986 H 0.13629 0.23089 0.80364 0.0
H987 H 0.15372 0.22511 0.83694 0.0
H988 H 0.14296 0.21098 0.799 0.0
H989 H 0.1731 0.27147 0.6953 0.0
H990 H 0.19018 0.26179 0.66999 0.0
H991 H 0.18778 0.26452 0.73925 0.0
C992 C 0.00337 0.90253 0.9085 0.0
C993 C 0.01894 0.90746 0.91165 0.0
C994 C 0.99415 0.90131 0.95336 0.0
C995 C 0.00059 0.90555 0.00212 0.0
C996 C 0.0161 0.91124 0.00511 0.0
C997 C 0.0252 0.9119 0.95979 0.0
C998 C 0.97776 0.89488 0.94887 0.0
C999 C 0.02322 0.91626 0.05628 0.0
C1000 C 0.97258 0.91222 0.11438 0.0
C1001 C 0.97416 0.8982 0.1422 0.0
C1002 C 0.98123 0.91486 0.06881 0.0
C1003 C 0.99141 0.90307 0.05032 0.0
C1004 C 0.99282 0.88879 0.07768 0.0
C1005 C 0.98425 0.88658 0.12358 0.0
C1006 C 0.97974 0.93036 0.04105 0.0
C1007 C 0.00343 0.87588 0.05864 0.0
H1008 H -0.00142 0.899 0.8712 0.0
H1009 H 0.03719 0.91587 0.96211 0.0
H1010 H 0.97687 0.8838 0.97112 0.0
H1011 H 0.96925 0.90318 0.9661 0.0
H1012 H 0.97437 0.89257 0.90781 0.0
H1013 H 0.03475 0.92202 0.05096 0.0
H1014 H 0.01529 0.92445 0.0769 0.0
H1015 H 0.02483 0.90591 0.08174 0.0
H1016 H 0.96495 0.92133 0.12905 0.0
H1017 H 0.9855 0.87574 0.14502 0.0
H1018 H 0.97556 0.92849 0.00062 0.0
H1019 H 0.99136 0.93607 0.03842 0.0
H1020 H 0.97153 0.93842 0.06112 0.0
H1021 H 0.00018 0.8725 0.01834 0.0
H1022 H 0.00289 0.86534 0.08381 0.0
H1023 H 0.0157 0.88006 0.05751 0.0
C1024 C 0.33063 0.71331 0.3496 0.0
C1025 C 0.32747 0.72222 0.39411 0.0
C1026 C 0.32832 0.71968 0.29982 0.0
C1027 C 0.32259 0.73514 0.29513 0.0
C1028 C 0.31795 0.74352 0.33998 0.0
C1029 C 0.32058 0.73699 0.38901 0.0
C1030 C 0.33326 0.71042 0.2526 0.0
C1031 C 0.31145 0.75991 0.3365 0.0
C1032 C 0.33956 0.7618 0.19328 0.0
C1033 C 0.32755 0.76234 0.15659 0.0
C1034 C 0.3383 0.75234 0.23731 0.0
C1035 C 0.3244 0.74371 0.24555 0.0
C1036 C 0.31214 0.74428 0.20851 0.0
C1037 C 0.31403 0.7534 0.16349 0.0
C1038 C 0.35171 0.75195 0.27566 0.0
C1039 C 0.29699 0.73562 0.21696 0.0
H1040 H 0.33575 0.70178 0.35363 0.0
H1041 H 0.31771 0.74373 0.4235 0.0
H1042 H 0.32427 0.71118 0.22158 0.0
H1043 H 0.34424 0.71541 0.23668 0.0
H1044 H 0.33532 0.69792 0.26206 0.0
H1045 H 0.30595 0.76368 0.37366 0.0
H1046 H 0.32104 0.76818 0.32719 0.0
H1047 H 0.30265 0.76077 0.30488 0.0
H1048 H 0.35002 0.76875 0.1873 0.0
H1049 H 0.30475 0.75403 0.13479 0.0
H1050 H 0.35512 0.7397 0.28401 0.0
H1051 H 0.34803 0.75735 0.313 0.0
H1052 H 0.36215 0.75833 0.2611 0.0
H1053 H 0.29906 0.72287 0.21338 0.0
H1054 H 0.28791 0.73905 0.18822 0.0
H1055 H 0.29242 0.73781 0.25677 0.0
C1056 C 0.51258 0.07284 0.62991 0.0
C1057 C 0.52139 0.08666 0.63018 0.0
C1058 C 0.50155 0.07001 0.59086 0.0
C1059 C 0.49973 0.08106 0.55046 0.0
C1060 C 0.5088 0.09492 0.55007 0.0
C1061 C 0.51939 0.09768 0.59061 0.0
C1062 C 0.49174 0.05535 0.59314 0.0
C1063 C 0.50729 0.10682 0.5069 0.0
C1064 C 0.48406 0.07034 0.41827 0.0
C1065 C 0.46937 0.07755 0.41953 0.0
C1066 C 0.49373 0.07047 0.46213 0.0
C1067 C 0.48855 0.07811 0.50781 0.0
C1068 C 0.47326 0.08434 0.51054 0.0
C1069 C 0.46377 0.08392 0.46617 0.0
C1070 C 0.50988 0.06344 0.45828 0.0
C1071 C 0.46731 0.09241 0.55898 0.0
H1072 H 0.51392 0.06446 0.6613 0.0
H1073 H 0.52617 0.10838 0.59125 0.0
H1074 H 0.47913 0.05836 0.59126 0.0
H1075 H 0.49434 0.04783 0.55901 0.0
H1076 H 0.49388 0.04849 0.62919 0.0
H1077 H 0.51537 0.11686 0.51209 0.0
H1078 H 0.50979 0.10123 0.46877 0.0
H1079 H 0.49513 0.11132 0.50531 0.0
H1080 H 0.48829 0.0652 0.38232 0.0
H1081 H 0.45237 0.08945 0.46718 0.0
H1082 H 0.5123 0.05587 0.49238 0.0
H1083 H 0.51872 0.07294 0.45838 0.0
H1084 H 0.51141 0.05643 0.42221 0.0
H1085 H 0.46973 0.08523 0.59404 0.0
H1086 H 0.45455 0.09478 0.55698 0.0
H1087 H 0.4735 0.10371 0.56398 0.0
C1088 C 0.17665 0.75253 0.81943 0.0
C1089 C 0.16243 0.75863 0.83689 0.0
C1090 C 0.17718 0.74331 0.77419 0.0
C1091 C 0.16308 0.73993 0.74745 0.0
C1092 C 0.14865 0.7456 0.76672 0.0
C1093 C 0.14856 0.75511 0.81085 0.0
C1094 C 0.19279 0.73787 0.75368 0.0
C1095 C 0.13335 0.74207 0.73976 0.0
C1096 C 0.16016 0.73335 0.60305 0.0
C1097 C 0.15761 0.7172 0.60062 0.0
C1098 C 0.16321 0.74072 0.65049 0.0
C1099 C 0.16328 0.73175 0.69673 0.0
C1100 C 0.16134 0.71532 0.69434 0.0
C1101 C 0.15872 0.70817 0.64591 0.0
C1102 C 0.16557 0.75822 0.65132 0.0
C1103 C 0.16113 0.70548 0.74312 0.0
H1104 H 0.18734 0.75546 0.83993 0.0
H1105 H 0.13761 0.75988 0.82507 0.0
H1106 H 0.19243 0.72523 0.74415 0.0
H1107 H 0.19553 0.74421 0.7171 0.0
H1108 H 0.20239 0.73999 0.78196 0.0
H1109 H 0.1231 0.74604 0.76283 0.0
H1110 H 0.13303 0.748 0.70135 0.0
H1111 H 0.13222 0.72933 0.73262 0.0
H1112 H 0.15966 0.74028 0.56773 0.0
H1113 H 0.15686 0.69565 0.64375 0.0
H1114 H 0.17581 0.76133 0.67571 0.0
H1115 H 0.15516 0.76393 0.66877 0.0
H1116 H 0.16733 0.76309 0.61163 0.0
H1117 H 0.17148 0.70809 0.76765 0.0
H1118 H 0.16096 0.69278 0.73428 0.0
H1119 H 0.15059 0.70839 0.76644 0.0
C1120 C 0.4924 0.91608 0.07791 0.0
C1121 C 0.47673 0.91181 0.07121 0.0
C1122 C 0.50284 0.91559 0.03582 0.0
C1123 C 0.49742 0.91053 0.98655 0.0
C1124 C 0.4814 0.9072 0.97897 0.0
C1125 C 0.47125 0.9079 0.02144 0.0
C1126 C 0.5198 0.91964 0.04467 0.0
C1127 C 0.47511 0.9019 0.92685 0.0
C1128 C 0.52068 0.91444 0.86232 0.0
C1129 C 0.52558 0.89894 0.85458 0.0
C1130 C 0.51201 0.91863 0.90639 0.0
C1131 C 0.50857 0.90711 0.9441 0.0
C1132 C 0.51438 0.8917 0.93818 0.0
C1133 C 0.52265 0.88773 0.89297 0.0
C1134 C 0.50556 0.93502 0.91053 0.0
C1135 C 0.51106 0.87919 0.97819 0.0
H1136 H 0.49661 0.91929 0.11628 0.0
H1137 H 0.45914 0.90457 0.01594 0.0
H1138 H 0.52696 0.90885 0.04238 0.0
H1139 H 0.52405 0.9277 0.0139 0.0
H1140 H 0.52173 0.92518 0.08329 0.0
H1141 H 0.46212 0.90166 0.92606 0.0
H1142 H 0.47927 0.90969 0.89523 0.0
H1143 H 0.47945 0.88995 0.91826 0.0
H1144 H 0.52276 0.92312 0.83236 0.0
H1145 H 0.52648 0.87578 0.88699 0.0
H1146 H 0.50737 0.93979 0.95026 0.0
H1147 H 0.49277 0.9348 0.90332 0.0
H1148 H 0.51101 0.94307 0.88183 0.0
H1149 H 0.51397 0.88347 0.01783 0.0
H1150 H 0.51778 0.86832 0.97059 0.0
H1151 H 0.49842 0.87631 0.97783 0.0
C1152 C 0.33561 0.27823 0.12687 0.0
C1153 C 0.33387 0.26983 0.0805 0.0
C1154 C 0.33248 0.27104 0.17501 0.0
C1155 C 0.32722 0.25534 0.17597 0.0
C1156 C 0.32382 0.24753 0.12882 0.0
C1157 C 0.32746 0.25478 0.08161 0.0
C1158 C 0.33594 0.27978 0.22471 0.0
C1159 C 0.31744 0.23107 0.12821 0.0
C1160 C 0.3433 0.22762 0.27668 0.0
C1161 C 0.33087 0.22644 0.31162 0.0
C1162 C 0.34238 0.23756 0.23368 0.0
C1163 C 0.32841 0.246 0.22439 0.0
C1164 C 0.31564 0.24459 0.25927 0.0
C1165 C 0.3172 0.23506 0.30356 0.0
C1166 C 0.35636 0.23889 0.19792 0.0
C1167 C 0.30038 0.253 0.25 0.0
H1168 H 0.34025 0.29002 0.12564 0.0
H1169 H 0.32557 0.24851 0.04542 0.0
H1170 H 0.32602 0.27869 0.25227 0.0
H1171 H 0.34636 0.27458 0.24377 0.0
H1172 H 0.33824 0.29238 0.21756 0.0
H1173 H 0.31287 0.22777 0.08923 0.0
H1174 H 0.32687 0.22275 0.13882 0.0
H1175 H 0.30793 0.22977 0.15731 0.0
H1176 H 0.3539 0.221 0.28373 0.0
H1177 H 0.30764 0.23406 0.33114 0.0
H1178 H 0.35956 0.25135 0.1924 0.0
H1179 H 0.35343 0.23401 0.15908 0.0
H1180 H 0.36673 0.23254 0.2132 0.0
H1181 H 0.30156 0.26535 0.2625 0.0
H1182 H 0.29066 0.24766 0.27253 0.0
H1183 H 0.29721 0.25297 0.20807 0.0
C1184 C 0.99447 0.07695 0.5758 0.0
C1185 C 0.01064 0.07518 0.56941 0.0
C1186 C 0.98461 0.07824 0.5325 0.0
C1187 C 0.99111 0.07736 0.48194 0.0
C1188 C 0.00723 0.07425 0.47535 0.0
C1189 C 0.01686 0.07337 0.51931 0.0
C1190 C 0.96748 0.08168 0.54087 0.0
C1191 C 0.01449 0.0728 0.42192 0.0
C1192 C 0.96462 0.07324 0.36485 0.0
C1193 C 0.96483 0.08851 0.34489 0.0
C1194 C 0.97299 0.06942 0.40993 0.0
C1195 C 0.98141 0.08126 0.43611 0.0
C1196 C 0.98107 0.09683 0.4175 0.0
C1197 C 0.97287 0.10025 0.3717 0.0
C1198 C 0.97343 0.05263 0.42803 0.0
C1199 C 0.98976 0.10979 0.44505 0.0
H1200 H 0.98962 0.07837 0.61455 0.0
H1201 H 0.02932 0.0718 0.51424 0.0
H1202 H 0.96493 0.09382 0.52821 0.0
H1203 H 0.96013 0.07377 0.51695 0.0
H1204 H 0.964 0.08044 0.58237 0.0
H1205 H 0.02657 0.06806 0.42367 0.0
H1206 H 0.00732 0.06511 0.39662 0.0
H1207 H 0.01494 0.08448 0.40322 0.0
H1208 H 0.95855 0.06407 0.34388 0.0
H1209 H 0.97302 0.11205 0.35631 0.0
H1210 H 0.96998 0.05183 0.46959 0.0
H1211 H 0.98555 0.04809 0.42494 0.0
H1212 H 0.96561 0.04498 0.40472 0.0
H1213 H 0.98638 0.11016 0.48678 0.0
H1214 H 0.98743 0.12142 0.42747 0.0
H1215 H 0.00252 0.10753 0.44335 0.0
C1216 C 0.82845 0.71282 0.1217 0.0
C1217 C 0.84185 0.7169 0.09318 0.0
C1218 C 0.82505 0.72011 0.16931 0.0
C1219 C 0.83537 0.73161 0.18877 0.0
C1220 C 0.84931 0.73517 0.16151 0.0
C1221 C 0.85237 0.72777 0.11398 0.0
C1222 C 0.81002 0.71614 0.1972 0.0
C1223 C 0.8607 0.74728 0.18143 0.0
C1224 C 0.82386 0.76538 0.27492 0.0
C1225 C 0.83026 0.7607 0.32256 0.0
C1226 C 0.82418 0.75536 0.23178 0.0
C1227 C 0.83149 0.74058 0.23636 0.0
C1228 C 0.83704 0.73543 0.28531 0.0
C1229 C 0.83619 0.74553 0.32812 0.0
C1230 C 0.81762 0.76102 0.18055 0.0
C1231 C 0.845 0.7198 0.2916 0.0
H1232 H 0.82022 0.70446 0.1057 0.0
H1233 H 0.86277 0.73092 0.09223 0.0
H1234 H 0.81221 0.71401 0.2392 0.0
H1235 H 0.80184 0.72616 0.19438 0.0
H1236 H 0.80423 0.70567 0.18034 0.0
H1237 H 0.87146 0.74793 0.15731 0.0
H1238 H 0.85505 0.75896 0.18142 0.0
H1239 H 0.86408 0.74461 0.2222 0.0
H1240 H 0.81897 0.77698 0.27096 0.0
H1241 H 0.84111 0.7419 0.36512 0.0
H1242 H 0.81067 0.75169 0.16145 0.0
H1243 H 0.82737 0.7641 0.15396 0.0
H1244 H 0.81009 0.7715 0.18555 0.0
H1245 H 0.83805 0.71041 0.27287 0.0
H1246 H 0.84684 0.71673 0.33321 0.0
H1247 H 0.85655 0.72012 0.27195 0.0
C1248 C 0.9926 0.07203 0.0785 0.0
C1249 C 0.97644 0.07305 0.07013 0.0
C1250 C 0.00303 0.07224 0.03651 0.0
C1251 C -0.00294 0.07333 0.98533 0.0
C1252 C 0.98075 0.07267 0.97653 0.0
C1253 C 0.9706 0.07267 0.01921 0.0
C1254 C 0.02037 0.0728 0.04732 0.0
C1255 C 0.97396 0.07332 0.92224 0.0
C1256 C 0.01751 0.0981 0.88483 0.0
C1257 C 0.0239 0.0867 0.85215 0.0
C1258 C 0.00942 0.09383 0.93 0.0
C1259 C 0.00749 0.07779 0.942 0.0
C1260 C 0.01449 0.06623 0.91041 0.0
C1261 C 0.0228 0.07085 0.86603 0.0
C1262 C 0.00227 0.10649 0.96345 0.0
C1263 C 0.0125 0.04903 0.92189 0.0
H1264 H -0.00282 0.07212 0.11787 0.0
H1265 H 0.95813 0.07323 0.01244 0.0
H1266 H 0.02693 0.06544 0.01926 0.0
H1267 H 0.02457 0.08499 0.04274 0.0
H1268 H 0.02315 0.06886 0.08751 0.0
H1269 H 0.96137 0.07015 0.92175 0.0
H1270 H 0.97519 0.08535 0.90661 0.0
H1271 H 0.98036 0.06534 0.89569 0.0
H1272 H 0.01844 0.11033 0.8743 0.0
H1273 H 0.02769 0.06196 0.84072 0.0
H1274 H 0.0056 0.10479 0.00485 0.0
H1275 H 0.98933 0.10581 0.96114 0.0
H1276 H 0.00596 0.11837 0.95112 0.0
H1277 H 0.01651 0.04637 0.96201 0.0
H1278 H 0.01907 0.04154 0.89413 0.0
H1279 H -6e-05 0.04585 0.91982 0.0
C1280 C 0.67166 0.25482 0.60222 0.0
C1281 C 0.66412 0.26924 0.59694 0.0
C1282 C 0.67492 0.24871 0.65138 0.0
C1283 C 0.67009 0.25707 0.69609 0.0
C1284 C 0.66353 0.27219 0.691 0.0
C1285 C 0.66075 0.27822 0.64105 0.0
C1286 C 0.68218 0.23265 0.65516 0.0
C1287 C 0.6581 0.28131 0.73795 0.0
C1288 C 0.6549 0.22936 0.7973 0.0
C1289 C 0.66721 0.22902 0.83302 0.0
C1290 C 0.65539 0.2392 0.75418 0.0
C1291 C 0.66878 0.24857 0.74587 0.0
C1292 C 0.68118 0.24852 0.78244 0.0
C1293 C 0.68013 0.23883 0.82648 0.0
C1294 C 0.64179 0.23907 0.71651 0.0
C1295 C 0.69578 0.25804 0.77371 0.0
H1296 H 0.6746 0.24808 0.5678 0.0
H1297 H 0.65504 0.28945 0.6366 0.0
H1298 H 0.69088 0.23217 0.68716 0.0
H1299 H 0.67294 0.22393 0.66387 0.0
H1300 H 0.688 0.22918 0.61821 0.0
H1301 H 0.65566 0.29373 0.72823 0.0
H1302 H 0.64721 0.27598 0.75334 0.0
H1303 H 0.66696 0.28088 0.76946 0.0
H1304 H 0.64483 0.22185 0.80318 0.0
H1305 H 0.68961 0.23843 0.85446 0.0
H1306 H 0.64551 0.23378 0.67902 0.0
H1307 H 0.63785 0.25117 0.70827 0.0
H1308 H 0.63168 0.23229 0.73161 0.0
H1309 H 0.70239 0.25313 0.74027 0.0
H1310 H 0.70353 0.25805 0.80843 0.0
H1311 H 0.69276 0.27028 0.76366 0.0
C1312 C 0.48086 0.89563 0.3598 0.0
C1313 C 0.46829 0.9045 0.3412 0.0
C1314 C 0.48848 0.89966 0.40606 0.0
C1315 C 0.48347 0.91296 0.4343 0.0
C1316 C 0.47108 0.92226 0.41511 0.0
C1317 C 0.46348 0.91781 0.36891 0.0
C1318 C 0.50183 0.88954 0.42494 0.0
C1319 C 0.46595 0.9369 0.44314 0.0
C1320 C 0.49361 0.90792 0.57562 0.0
C1321 C 0.50874 0.91407 0.57629 0.0
C1322 C 0.48453 0.90872 0.53038 0.0
C1323 C 0.49066 0.91621 0.48564 0.0
C1324 C 0.50518 0.92411 0.48851 0.0
C1325 C 0.51421 0.9227 0.53377 0.0
C1326 C 0.46916 0.90006 0.5288 0.0
C1327 C 0.51186 0.93287 0.44262 0.0
H1328 H 0.48476 0.88547 0.33815 0.0
H1329 H 0.45403 0.92494 0.35391 0.0
H1330 H 0.51261 0.89665 0.42875 0.0
H1331 H 0.49906 0.88476 0.46406 0.0
H1332 H 0.5043 0.87964 0.39819 0.0
H1333 H 0.45719 0.94365 0.42047 0.0
H1334 H 0.46078 0.9338 0.48138 0.0
H1335 H 0.47619 0.94452 0.45097 0.0
H1336 H 0.4894 0.90134 0.6089 0.0
H1337 H 0.52575 0.9279 0.53515 0.0
H1338 H 0.47051 0.88935 0.50479 0.0
H1339 H 0.45996 0.90732 0.51042 0.0
H1340 H 0.46516 0.89655 0.56829 0.0
H1341 H 0.51851 0.92462 0.41767 0.0
H1342 H 0.52004 0.94217 0.45562 0.0
H1343 H 0.50253 0.93823 0.41855 0.0
C1344 C 0.82911 0.22356 0.21529 0.0
C1345 C 0.82714 0.22955 0.16484 0.0
C1346 C 0.82973 0.23352 0.25844 0.0
C1347 C 0.82857 0.24984 0.25068 0.0
C1348 C 0.82552 0.25586 0.20038 0.0
C1349 C 0.82474 0.2456 0.15795 0.0
C1350 C 0.83261 0.22661 0.31177 0.0
C1351 C 0.8242 0.27321 0.19082 0.0
C1352 C 0.82387 0.27561 0.36946 0.0
C1353 C 0.83951 0.27911 0.3812 0.0
C1354 C 0.82006 0.2662 0.32664 0.0
C1355 C 0.83216 0.26061 0.29413 0.0
C1356 C 0.8479 0.26475 0.30432 0.0
C1357 C 0.8514 0.27382 0.34822 0.0
C1358 C 0.80323 0.26152 0.31801 0.0
C1359 C 0.86109 0.25908 0.27004 0.0
H1360 H 0.8309 0.21116 0.22106 0.0
H1361 H 0.82312 0.25026 0.11906 0.0
H1362 H 0.84476 0.22921 0.32413 0.0
H1363 H 0.82465 0.23189 0.34099 0.0
H1364 H 0.83098 0.21373 0.31217 0.0
H1365 H 0.82026 0.27589 0.15056 0.0
H1366 H 0.81589 0.27858 0.21874 0.0
H1367 H 0.83576 0.27877 0.19716 0.0
H1368 H 0.81465 0.27941 0.39552 0.0
H1369 H 0.86348 0.27645 0.35753 0.0
H1370 H 0.80194 0.24876 0.32441 0.0
H1371 H 0.79967 0.26393 0.27724 0.0
H1372 H 0.7951 0.26773 0.34472 0.0
H1373 H 0.86219 0.2462 0.27341 0.0
H1374 H 0.87248 0.26443 0.28074 0.0
H1375 H 0.85858 0.26179 0.2286 0.0
C1376 C 0.46871 0.08737 0.09907 0.0
C1377 C 0.476 0.08445 0.14683 0.0
C1378 C 0.47712 0.08599 0.05237 0.0
C1379 C 0.49293 0.08108 0.05391 0.0
C1380 C 0.50004 0.07733 0.10201 0.0
C1381 C 0.49154 0.07933 0.14804 0.0
C1382 C 0.46933 0.09045 0.00172 0.0
C1383 C 0.51672 0.07159 0.10499 0.0
C1384 C 0.51104 0.06794 0.92657 0.0
C1385 C 0.51995 0.08107 0.91371 0.0
C1386 C 0.50249 0.06756 0.97313 0.0
C1387 C 0.50238 0.08091 0.00572 0.0
C1388 C 0.51137 0.09422 0.99241 0.0
C1389 C 0.52033 0.09399 0.94687 0.0
C1390 C 0.49364 0.05292 0.98747 0.0
C1391 C 0.51124 0.10881 0.02558 0.0
H1392 H 0.45668 0.09135 0.09844 0.0
H1393 H 0.49707 0.07685 0.18515 0.0
H1394 H 0.47565 0.10042 0.98382 0.0
H1395 H 0.4699 0.08058 0.97377 0.0
H1396 H 0.45689 0.0938 0.00717 0.0
H1397 H 0.51984 0.06745 0.14466 0.0
H1398 H 0.51862 0.0619 0.07694 0.0
H1399 H 0.52483 0.08117 0.09419 0.0
H1400 H 0.51096 0.05794 0.90059 0.0
H1401 H 0.52723 0.10414 0.93616 0.0
H1402 H 0.4809 0.05529 0.98705 0.0
H1403 H 0.49675 0.04919 0.02757 0.0
H1404 H 0.49611 0.04312 0.96026 0.0
H1405 H 0.49908 0.11315 0.02994 0.0
H1406 H 0.51851 0.1183 0.00868 0.0
H1407 H 0.51568 0.10614 0.06517 0.0
C1408 C 0.65896 0.71503 0.86559 0.0
C1409 C 0.65061 0.72345 0.90339 0.0
C1410 C 0.66084 0.72095 0.81501 0.0
C1411 C 0.65416 0.73556 0.80217 0.0
C1412 C 0.64537 0.7439 0.83972 0.0
C1413 C 0.6437 0.73773 0.88988 0.0
C1414 C 0.67036 0.71184 0.77583 0.0
C1415 C 0.63809 0.75957 0.82737 0.0
C1416 C 0.66997 0.76205 0.69734 0.0
C1417 C 0.6587 0.76016 0.65849 0.0
C1418 C 0.66929 0.75321 0.7431 0.0
C1419 C 0.6568 0.74257 0.75022 0.0
C1420 C 0.64589 0.74001 0.70961 0.0
C1421 C 0.64711 0.74877 0.66366 0.0
C1422 C 0.68129 0.75607 0.78517 0.0
C1423 C 0.63227 0.72898 0.7163 0.0
H1424 H 0.66438 0.704 0.87583 0.0
H1425 H 0.63723 0.7443 0.91886 0.0
H1426 H 0.66346 0.70991 0.73981 0.0
H1427 H 0.68087 0.71866 0.76472 0.0
H1428 H 0.67418 0.70033 0.79124 0.0
H1429 H 0.63108 0.76423 0.86035 0.0
H1430 H 0.64737 0.76816 0.81787 0.0
H1431 H 0.63042 0.75857 0.79269 0.0
H1432 H 0.67899 0.77084 0.69269 0.0
H1433 H 0.63831 0.74755 0.63351 0.0
H1434 H 0.6859 0.74483 0.80021 0.0
H1435 H 0.67573 0.76227 0.8183 0.0
H1436 H 0.69124 0.76325 0.77097 0.0
H1437 H 0.63638 0.71744 0.73041 0.0
H1438 H 0.62567 0.72729 0.67946 0.0
H1439 H 0.62416 0.73372 0.74612 0.0
C1440 C 0.98927 0.9209 0.41581 0.0
C1441 C 0.97445 0.91412 0.41939 0.0
C1442 C -0.00116 0.92203 0.45979 0.0
C1443 C 0.99339 0.91611 0.5079 0.0
C1444 C 0.97779 0.91085 0.51282 0.0
C1445 C 0.96847 0.90989 0.46827 0.0
C1446 C 0.01528 0.92813 0.45354 0.0
C1447 C 0.97142 0.90487 0.56397 0.0
C1448 C 0.02233 0.89432 0.59168 0.0
C1449 C 0.02559 0.90535 0.63025 0.0
C1450 C 0.0121 0.8979 0.55091 0.0
C1451 C 0.00468 0.91271 0.54982 0.0
C1452 C 0.00788 0.9239 0.58882 0.0
C1453 C 0.01858 0.92017 0.62819 0.0
C1454 C 0.00898 0.88571 0.50957 0.0
C1455 C -0.00018 0.93961 0.58965 0.0
H1456 H 0.99374 0.92455 0.37819 0.0
H1457 H 0.9569 0.90482 0.47136 0.0
H1458 H 0.01844 0.93594 0.48635 0.0
H1459 H 0.02357 0.91815 0.45383 0.0
H1460 H 0.01679 0.93463 0.4164 0.0
H1461 H 0.95846 0.90399 0.56347 0.0
H1462 H 0.97626 0.89307 0.57179 0.0
H1463 H 0.97497 0.91258 0.59663 0.0
H1464 H 0.0277 0.88286 0.59364 0.0
H1465 H 0.02091 0.92863 0.65868 0.0
H1466 H 0.01136 0.89062 0.47034 0.0
H1467 H -0.00351 0.88223 0.51059 0.0
H1468 H 0.01625 0.87507 0.51487 0.0
H1469 H 0.00424 0.94691 0.55714 0.0
H1470 H 0.00186 0.94598 0.62676 0.0
H1471 H 0.98703 0.93823 0.584 0.0
C1472 C 0.66817 0.7767 0.37971 0.0
C1473 C 0.65232 0.77669 0.39389 0.0
C1474 C 0.6735 0.76776 0.33745 0.0
C1475 C 0.66262 0.75901 0.30799 0.0
C1476 C 0.64653 0.75939 0.32109 0.0
C1477 C 0.6416 0.7681 0.36431 0.0
C1478 C 0.69078 0.76721 0.32553 0.0
C1479 C 0.63455 0.75032 0.29017 0.0
C1480 C 0.66964 0.74609 0.16945 0.0
C1481 C 0.6706 0.72985 0.17573 0.0
C1482 C 0.66807 0.75595 0.2127 0.0
C1483 C 0.66785 0.74938 0.26325 0.0
C1484 C 0.67052 0.73318 0.26997 0.0
C1485 C 0.67172 0.72355 0.22596 0.0
C1486 C 0.66513 0.77314 0.20393 0.0
C1487 C 0.67091 0.72582 0.32342 0.0
H1488 H 0.67656 0.78306 0.40321 0.0
H1489 H 0.62938 0.76799 0.37553 0.0
H1490 H 0.69503 0.75498 0.32774 0.0
H1491 H 0.69297 0.77136 0.28525 0.0
H1492 H 0.69774 0.77447 0.35289 0.0
H1493 H 0.62243 0.75249 0.30397 0.0
H1494 H 0.63528 0.75352 0.24834 0.0
H1495 H 0.63698 0.73762 0.29319 0.0
H1496 H 0.66883 0.75104 0.13066 0.0
H1497 H 0.67269 0.71103 0.23102 0.0
H1498 H 0.67246 0.78032 0.2303 0.0
H1499 H 0.65272 0.77582 0.21295 0.0
H1500 H 0.66752 0.77669 0.16306 0.0
H1501 H 0.6783 0.7328 0.35023 0.0
H1502 H 0.67543 0.71365 0.32225 0.0
H1503 H 0.65892 0.72558 0.33991 0.0
C1504 C 0.46161 0.3975 0.60038 0.0
C1505 C 0.46669 0.40358 0.64788 0.0
C1506 C 0.47011 0.40048 0.55466 0.0
C1507 C 0.48379 0.4098 0.55719 0.0
C1508 C 0.48819 0.41691 0.60466 0.0
C1509 C 0.47964 0.41356 0.64971 0.0
C1510 C 0.46508 0.39281 0.50444 0.0
C1511 C 0.50243 0.42728 0.60852 0.0
C1512 C 0.51594 0.39808 0.46453 0.0
C1513 C 0.51343 0.40837 0.4231 0.0
C1514 C 0.5065 0.39865 0.50887 0.0
C1515 C 0.49464 0.41015 0.51234 0.0
C1516 C 0.49278 0.42127 0.47197 0.0
C1517 C 0.50201 0.42001 0.42702 0.0
C1518 C 0.50882 0.38654 0.55104 0.0
C1519 C 0.48084 0.4342 0.47543 0.0
H1520 H 0.45152 0.38984 0.59946 0.0
H1521 H 0.48336 0.41835 0.68684 0.0
H1522 H 0.46438 0.4016 0.47278 0.0
H1523 H 0.47392 0.38399 0.49268 0.0
H1524 H 0.45356 0.38693 0.50809 0.0
H1525 H 0.5028 0.43379 0.64596 0.0
H1526 H 0.51316 0.42005 0.60562 0.0
H1527 H 0.50268 0.43579 0.57591 0.0
H1528 H 0.52487 0.38913 0.46126 0.0
H1529 H 0.50035 0.42814 0.39509 0.0
H1530 H 0.498 0.37952 0.55567 0.0
H1531 H 0.51117 0.39232 0.58889 0.0
H1532 H 0.51866 0.37847 0.5423 0.0
H1533 H 0.46918 0.42953 0.46471 0.0
H1534 H 0.48366 0.44395 0.44844 0.0
H1535 H 0.48003 0.43891 0.51564 0.0
C1536 C 0.81466 0.25282 0.66363 0.0
C1537 C 0.82917 0.25582 0.64081 0.0
C1538 C 0.81363 0.24361 0.70871 0.0
C1539 C 0.82753 0.23775 0.73155 0.0
C1540 C 0.84206 0.2399 0.70608 0.0
C1541 C 0.84268 0.24893 0.66075 0.0
C1542 C 0.7979 0.2414 0.73421 0.0
C1543 C 0.85717 0.23407 0.72947 0.0
C1544 C 0.83227 0.23766 0.87745 0.0
C1545 C 0.83236 0.22163 0.88888 0.0
C1546 C 0.82983 0.24303 0.8267 0.0
C1547 C 0.82749 0.23209 0.78612 0.0
C1548 C 0.82685 0.21592 0.79754 0.0
C1549 C 0.82929 0.21085 0.84901 0.0
C1550 C 0.83044 0.26042 0.81626 0.0
C1551 C 0.82412 0.20402 0.75514 0.0
H1552 H 0.80427 0.25838 0.64797 0.0
H1553 H 0.85388 0.25152 0.64291 0.0
H1554 H 0.79683 0.22953 0.75122 0.0
H1555 H 0.79657 0.24998 0.76633 0.0
H1556 H 0.78819 0.24326 0.70612 0.0
H1557 H 0.86709 0.23492 0.70163 0.0
H1558 H 0.86005 0.24115 0.76441 0.0
H1559 H 0.856 0.22174 0.74218 0.0
H1560 H 0.83432 0.24611 0.90817 0.0
H1561 H 0.82912 0.19846 0.85778 0.0
H1562 H 0.81989 0.26421 0.79462 0.0
H1563 H 0.84075 0.26316 0.79162 0.0
H1564 H 0.83127 0.26738 0.85268 0.0
H1565 H 0.81381 0.20733 0.73139 0.0
H1566 H 0.82227 0.19209 0.77108 0.0
H1567 H 0.83436 0.20373 0.72863 0.0
C1568 C 0.00307 0.59493 0.12614 0.0
C1569 C 0.01672 0.58759 0.14348 0.0
C1570 C -0.00247 0.59246 0.07558 0.0
C1571 C 0.00589 0.58242 0.04169 0.0
C1572 C 0.01997 0.57538 0.05828 0.0
C1573 C 0.02524 0.57806 0.10915 0.0
C1574 C 0.98245 0.60022 0.05903 0.0
C1575 C 0.02913 0.56463 0.02299 0.0
C1576 C 0.97821 0.56676 0.94118 0.0
C1577 C 0.98064 0.57739 0.90075 0.0
C1578 C 0.98767 0.56713 0.98558 0.0
C1579 C -0.00072 0.57885 0.98993 0.0
C1580 C 0.00252 0.58881 0.94728 0.0
C1581 C 0.99322 0.58779 0.90256 0.0
C1582 C 0.98426 0.55594 0.0296 0.0
C1583 C 0.01463 0.60159 0.95085 0.0
H1584 H -0.00354 0.60232 0.15246 0.0
H1585 H 0.03586 0.5724 0.12235 0.0
H1586 H 0.98421 0.60677 0.0222 0.0
H1587 H 0.97341 0.59119 0.05158 0.0
H1588 H 0.97791 0.60841 0.08902 0.0
H1589 H 0.04032 0.56079 0.04088 0.0
H1590 H 0.02204 0.55412 0.01388 0.0
H1591 H 0.03172 0.57052 0.98549 0.0
H1592 H 0.96852 0.55862 0.939 0.0
H1593 H -0.00507 0.59604 0.87098 0.0
H1594 H 0.97779 0.56217 0.06079 0.0
H1595 H -0.00473 0.55143 0.04681 0.0
H1596 H 0.97706 0.54587 0.01646 0.0
H1597 H 0.01007 0.61117 0.97577 0.0
H1598 H 0.0175 0.60654 0.91198 0.0
H1599 H 0.02552 0.59723 0.96916 0.0
C1600 C 0.67327 0.25088 0.32126 0.0
C1601 C 0.66314 0.26373 0.32181 0.0
C1602 C 0.67352 0.24066 0.27859 0.0
C1603 C 0.66307 0.24323 0.23676 0.0
C1604 C 0.65293 0.25629 0.23713 0.0
C1605 C 0.65328 0.26654 0.27941 0.0
C1606 C 0.6848 0.22709 0.27839 0.0
C1607 C 0.64143 0.25925 0.19352 0.0
C1608 C 0.66827 0.22728 0.10143 0.0
C1609 C 0.65693 0.21553 0.10087 0.0
C1610 C 0.67119 0.23579 0.14682 0.0
C1611 C 0.66251 0.23234 0.19225 0.0
C1612 C 0.65168 0.21981 0.19247 0.0
C1613 C 0.64892 0.21155 0.14625 0.0
C1614 C 0.68276 0.24912 0.14515 0.0
C1615 C 0.64229 0.2158 0.24045 0.0
H1616 H 0.68092 0.2488 0.3542 0.0
H1617 H 0.64532 0.2764 0.28027 0.0
H1618 H 0.67828 0.21591 0.2757 0.0
H1619 H 0.69249 0.2278 0.24365 0.0
H1620 H 0.69223 0.22683 0.31386 0.0
H1621 H 0.6342 0.26983 0.20039 0.0
H1622 H 0.64775 0.26069 0.15609 0.0
H1623 H 0.63351 0.24906 0.1892 0.0
H1624 H 0.67437 0.23024 0.06569 0.0
H1625 H 0.64016 0.20239 0.14509 0.0
H1626 H 0.69065 0.2487 0.17942 0.0
H1627 H 0.67638 0.2604 0.14672 0.0
H1628 H 0.68996 0.24894 0.10912 0.0
H1629 H 0.65005 0.21481 0.27491 0.0
H1630 H 0.63573 0.20468 0.23583 0.0
H1631 H 0.63381 0.22532 0.24852 0.0
C1632 C 0.96993 0.41112 0.51496 0.0
C1633 C 0.9748 0.4139 0.56618 0.0
C1634 C 0.98064 0.41153 0.47379 0.0
C1635 C -0.00345 0.4148 0.48436 0.0
C1636 C 0.00126 0.41895 0.53528 0.0
C1637 C 0.99031 0.41839 0.57579 0.0
C1638 C 0.97512 0.40739 0.41962 0.0
C1639 C 0.01804 0.42297 0.54755 0.0
C1640 C 0.02332 0.39311 0.39263 0.0
C1641 C 0.02657 0.40465 0.35558 0.0
C1642 C 0.01435 0.39659 0.43678 0.0
C1643 C 0.00838 0.4119 0.44346 0.0
C1644 C 0.0125 0.42385 0.40807 0.0
C1645 C 0.02166 0.42009 0.36463 0.0
C1646 C 0.01046 0.38364 0.4746 0.0
C1647 C 0.00633 0.4403 0.41367 0.0
H1648 H 0.95793 0.40779 0.50727 0.0
H1649 H 0.99406 0.42083 0.6153 0.0
H1650 H 0.9795 0.41603 0.39091 0.0
H1651 H 0.97987 0.39579 0.40845 0.0
H1652 H 0.96217 0.40691 0.41695 0.0
H1653 H 0.01932 0.42811 0.58707 0.0
H1654 H 0.02528 0.41223 0.54543 0.0
H1655 H 0.02275 0.43134 0.51852 0.0
H1656 H 0.02725 0.38123 0.38611 0.0
H1657 H 0.02418 0.42913 0.33626 0.0
H1658 H -0.0022 0.38089 0.4722 0.0
H1659 H 0.01294 0.38741 0.51513 0.0
H1660 H 0.01717 0.3728 0.46648 0.0
H1661 H 0.99411 0.44073 0.39924 0.0
H1662 H 0.01335 0.44879 0.39073 0.0
H1663 H 0.00621 0.44406 0.45503 0.0
C1664 C 0.81487 0.73161 0.78601 0.0
C1665 C 0.82374 0.73539 0.82996 0.0
C1666 C 0.81499 0.74136 0.74226 0.0
C1667 C 0.82471 0.75475 0.74229 0.0
C1668 C 0.83242 0.75937 0.78856 0.0
C1669 C 0.83164 0.74967 0.83237 0.0
C1670 C 0.80602 0.73639 0.69441 0.0
C1671 C 0.843 0.77348 0.79 0.0
C1672 C 0.84661 0.76111 0.61647 0.0
C1673 C 0.83876 0.77397 0.59529 0.0
C1674 C 0.84217 0.7549 0.66458 0.0
C1675 C 0.82953 0.76171 0.69211 0.0
C1676 C 0.8217 0.77487 0.67151 0.0
C1677 C 0.82649 0.78093 0.62331 0.0
C1678 C 0.8508 0.74079 0.68535 0.0
C1679 C 0.808 0.78219 0.69946 0.0
H1680 H 0.80847 0.72068 0.78492 0.0
H1681 H 0.83845 0.75255 0.86671 0.0
H1682 H 0.80151 0.74665 0.67269 0.0
H1683 H 0.81392 0.7298 0.66808 0.0
H1684 H 0.79605 0.72867 0.70472 0.0
H1685 H 0.84598 0.77693 0.83053 0.0
H1686 H 0.85402 0.77073 0.76906 0.0
H1687 H 0.83752 0.78358 0.77004 0.0
H1688 H 0.85606 0.75567 0.59493 0.0
H1689 H 0.82027 0.7908 0.60682 0.0
H1690 H 0.84268 0.73072 0.68834 0.0
H1691 H 0.85532 0.74323 0.72505 0.0
H1692 H 0.86076 0.73734 0.66009 0.0
H1693 H 0.79847 0.77349 0.70359 0.0
H1694 H 0.80336 0.79256 0.67854 0.0
H1695 H 0.81146 0.78578 0.73934 0.0
C1696 C 0.51269 0.56691 0.03883 0.0
C1697 C 0.50841 0.5751 0.08377 0.0
C1698 C 0.50373 0.56788 0.99351 0.0
C1699 C 0.48988 0.57688 0.994 0.0
C1700 C 0.48456 0.58369 0.04107 0.0
C1701 C 0.49398 0.58278 0.08569 0.0
C1702 C 0.5099 0.56048 0.94414 0.0
C1703 C 0.46961 0.59303 0.04313 0.0
C1704 C 0.48066 0.59742 0.86749 0.0
C1705 C 0.46924 0.58761 0.84605 0.0
C1706 C 0.4872 0.5942 0.91624 0.0
C1707 C 0.48219 0.58084 0.94414 0.0
C1708 C 0.47049 0.57102 0.92322 0.0
C1709 C 0.46409 0.57456 0.87435 0.0
C1710 C 0.49984 0.60484 0.93713 0.0
C1711 C 0.46514 0.55652 0.9516 0.0
H1712 H 0.52342 0.5603 0.03818 0.0
H1713 H 0.49062 0.58902 0.12071 0.0
H1714 H 0.50046 0.55438 0.92271 0.0
H1715 H 0.51456 0.56976 0.9182 0.0
H1716 H 0.51946 0.55202 0.9521 0.0
H1717 H 0.46611 0.59582 0.08376 0.0
H1718 H 0.47121 0.60415 0.02156 0.0
H1719 H 0.45998 0.58653 0.02395 0.0
H1720 H 0.48469 0.60751 0.84575 0.0
H1721 H 0.45538 0.56683 0.85768 0.0
H1722 H 0.51094 0.59823 0.94112 0.0
H1723 H 0.49661 0.60916 0.97644 0.0
H1724 H 0.50197 0.61507 0.91142 0.0
H1725 H 0.47483 0.54791 0.9531 0.0
H1726 H 0.45495 0.55091 0.93236 0.0
H1727 H 0.46197 0.55938 0.99242 0.0
C1728 C 0.34633 0.23226 0.61002 0.0
C1729 C 0.33843 0.21959 0.58784 0.0
C1730 C 0.34147 0.23855 0.6576 0.0
C1731 C 0.32828 0.2321 0.68317 0.0
C1732 C 0.32025 0.21929 0.66107 0.0
C1733 C 0.32554 0.21306 0.61374 0.0
C1734 C 0.35035 0.25224 0.68014 0.0
C1735 C 0.30591 0.21245 0.68669 0.0
C1736 C 0.32912 0.2432 0.82447 0.0
C1737 C 0.32165 0.25772 0.82219 0.0
C1738 C 0.33014 0.23378 0.78003 0.0
C1739 C 0.32316 0.23897 0.73315 0.0
C1740 C 0.31383 0.25263 0.73288 0.0
C1741 C 0.31339 0.26202 0.77745 0.0
C1742 C 0.34025 0.21933 0.78176 0.0
C1743 C 0.30569 0.25823 0.68418 0.0
H1744 H 0.35624 0.23735 0.58992 0.0
H1745 H 0.31924 0.20341 0.59618 0.0
H1746 H 0.34253 0.26254 0.68327 0.0
H1747 H 0.35449 0.2494 0.71999 0.0
H1748 H 0.36061 0.25555 0.65599 0.0
H1749 H 0.30071 0.2028 0.66347 0.0
H1750 H 0.30892 0.20792 0.72591 0.0
H1751 H 0.29694 0.22167 0.69216 0.0
H1752 H 0.33545 0.23989 0.85937 0.0
H1753 H 0.30726 0.2731 0.77637 0.0
H1754 H 0.35156 0.22182 0.76226 0.0
H1755 H 0.33464 0.20953 0.76054 0.0
H1756 H 0.34269 0.21556 0.82237 0.0
H1757 H 0.31419 0.26462 0.6594 0.0
H1758 H 0.29592 0.26631 0.69358 0.0
H1759 H 0.30105 0.24829 0.66115 0.0
C1760 C 0.49132 0.57064 0.56932 0.0
C1761 C 0.4765 0.57748 0.56474 0.0
C1762 C 0.50145 0.56991 0.52644 0.0
C1763 C 0.49665 0.57639 0.47833 0.0
C1764 C 0.48121 0.58209 0.47249 0.0
C1765 C 0.4713 0.58255 0.51585 0.0
C1766 C 0.51765 0.56328 0.53377 0.0
C1767 C 0.47551 0.58875 0.42142 0.0
C1768 C 0.5251 0.59789 0.39138 0.0
C1769 C 0.52719 0.58719 0.3509 0.0
C1770 C 0.51598 0.59402 0.43489 0.0
C1771 C 0.50825 0.57937 0.43658 0.0
C1772 C 0.51063 0.56836 0.39625 0.0
C1773 C 0.52036 0.57231 0.35426 0.0
C1774 C 0.514 0.6059 0.47793 0.0
C1775 C 0.50235 0.55277 0.39616 0.0
H1776 H 0.49527 0.5664 0.60689 0.0
H1777 H 0.45978 0.5877 0.51195 0.0
H1778 H 0.52104 0.55591 0.5001 0.0
H1779 H 0.52618 0.57302 0.53633 0.0
H1780 H 0.51853 0.55618 0.56989 0.0
H1781 H 0.46268 0.59074 0.42146 0.0
H1782 H 0.48141 0.60008 0.41399 0.0
H1783 H 0.47849 0.5808 0.38872 0.0
H1784 H 0.53037 0.60939 0.38849 0.0
H1785 H 0.52181 0.56411 0.3224 0.0
H1786 H 0.51646 0.60045 0.5163 0.0
H1787 H 0.50173 0.6101 0.47869 0.0
H1788 H 0.52185 0.61613 0.47292 0.0
H1789 H 0.50624 0.54571 0.42997 0.0
H1790 H 0.50463 0.546 0.35998 0.0
H1791 H 0.48955 0.55447 0.40018 0.0
C1792 C 0.15417 0.71684 0.28134 0.0
C1793 C 0.16066 0.7214 0.32906 0.0
C1794 C 0.1535 0.7273 0.23951 0.0
C1795 C 0.15965 0.74255 0.24567 0.0
C1796 C 0.16695 0.74691 0.29286 0.0
C1797 C 0.16728 0.73628 0.33426 0.0
C1798 C 0.14568 0.72225 0.1895 0.0
C1799 C 0.1739 0.76298 0.30026 0.0
C1800 C 0.1671 0.76566 0.12294 0.0
C1801 C 0.15318 0.77426 0.11855 0.0
C1802 C 0.16948 0.75542 0.1646 0.0
C1803 C 0.15784 0.75411 0.20339 0.0
C1804 C 0.14413 0.76336 0.20064 0.0
C1805 C 0.14187 0.77322 0.15771 0.0
C1806 C 0.18407 0.74546 0.16573 0.0
C1807 C 0.13164 0.76243 0.24208 0.0
H1808 H 0.14902 0.70532 0.27733 0.0
H1809 H 0.17243 0.73975 0.37107 0.0
H1810 H 0.13501 0.72936 0.18296 0.0
H1811 H 0.15357 0.72427 0.15589 0.0
H1812 H 0.14229 0.70971 0.19011 0.0
H1813 H 0.18015 0.76412 0.33801 0.0
H1814 H 0.18219 0.76567 0.26827 0.0
H1815 H 0.16448 0.77188 0.29881 0.0
H1816 H 0.1758 0.76628 0.0923 0.0
H1817 H 0.13113 0.77987 0.15424 0.0
H1818 H 0.18084 0.73298 0.16125 0.0
H1819 H 0.19009 0.74666 0.20377 0.0
H1820 H 0.1924 0.74859 0.1342 0.0
H1821 H 0.12633 0.7506 0.24198 0.0
H1822 H 0.12222 0.77118 0.23602 0.0
H1823 H 0.13685 0.7643 0.28117 0.0
C1824 C 0.95955 0.40474 0.877 0.0
C1825 C 0.96836 0.40236 0.8317 0.0
C1826 C 0.96698 0.40761 0.92488 0.0
C1827 C 0.98351 0.40855 0.92672 0.0
C1828 C 0.99236 0.40681 0.88055 0.0
C1829 C 0.98468 0.40352 0.83379 0.0
C1830 C 0.95724 0.40909 0.97367 0.0
C1831 C 0.00999 0.40804 0.8807 0.0
C1832 C 0.00533 0.42543 0.04261 0.0
C1833 C 0.01091 0.41174 0.0657 0.0
C1834 C -0.00411 0.42464 -0.00213 0.0
C1835 C 0.9918 0.40982 0.9772 0.0
C1836 C -0.00302 0.39601 0.00213 0.0
C1837 C 0.00666 0.39717 0.04578 0.0
C1838 C 0.99089 0.43959 0.9715 0.0
C1839 C 0.99271 0.38 0.98176 0.0
H1840 H 0.94691 0.40393 0.87522 0.0
H1841 H 0.99151 0.40201 0.79855 0.0
H1842 H 0.96002 0.39932 0.00055 0.0
H1843 H 0.9601 0.42011 0.99434 0.0
H1844 H 0.94451 0.40889 0.96525 0.0
H1845 H 0.01496 0.40801 0.8407 0.0
H1846 H 0.01373 0.41891 0.90071 0.0
H1847 H 0.01505 0.39806 0.90249 0.0
H1848 H 0.00872 0.43666 0.05855 0.0
H1849 H 0.01098 0.38664 0.06441 0.0
H1850 H 0.97808 0.43958 0.96492 0.0
H1851 H -0.00342 0.44044 0.93274 0.0
H1852 H 0.99405 0.4501 0.99462 0.0
H1853 H 0.97991 0.37916 0.97552 0.0
H1854 H -0.00364 0.37052 0.00873 0.0
H1855 H -0.00154 0.37802 0.94357 0.0
C1856 C 0.34848 0.76922 0.85188 0.0
C1857 C 0.33647 0.77449 0.88433 0.0
C1858 C 0.34523 0.75934 0.80985 0.0
C1859 C 0.32965 0.75438 0.80115 0.0
C1860 C 0.31744 0.75976 0.83353 0.0
C1861 C 0.32098 0.76997 0.87448 0.0
C1862 C 0.35852 0.75396 0.77542 0.0
C1863 C 0.30081 0.75423 0.82637 0.0
C1864 C 0.32363 0.73958 0.66487 0.0
C1865 C 0.32745 0.72377 0.67097 0.0
C1866 C 0.32317 0.7496 0.70783 0.0
C1867 C 0.32637 0.74352 0.75788 0.0
C1868 C 0.32867 0.72729 0.76488 0.0
C1869 C 0.32938 0.71759 0.72107 0.0
C1870 C 0.32063 0.76686 0.69899 0.0
C1871 C 0.33159 0.72032 0.81803 0.0
H1872 H 0.36045 0.77266 0.85983 0.0
H1873 H 0.31171 0.77377 0.90034 0.0
H1874 H 0.35991 0.7411 0.77866 0.0
H1875 H 0.35588 0.75665 0.73405 0.0
H1876 H 0.3698 0.75956 0.78593 0.0
H1877 H 0.29253 0.76028 0.85294 0.0
H1878 H 0.29694 0.75609 0.78561 0.0
H1879 H 0.30017 0.74148 0.83405 0.0
H1880 H 0.32192 0.74438 0.6262 0.0
H1881 H 0.33223 0.70535 0.7261 0.0
H1882 H 0.33183 0.77316 0.7051 0.0
H1883 H 0.31207 0.77161 0.72732 0.0
H1884 H 0.31641 0.7694 0.65895 0.0
H1885 H 0.34385 0.72265 0.82976 0.0
H1886 H 0.32974 0.70746 0.81814 0.0
H1887 H 0.32384 0.72568 0.84772 0.0
C1888 C 0.97866 0.57505 0.65259 0.0
C1889 C 0.96512 0.58402 0.64628 0.0
C1890 C 0.98729 0.57011 0.60941 0.0
C1891 C 0.9824 0.57466 0.55907 0.0
C1892 C 0.96812 0.58285 0.55243 0.0
C1893 C 0.95951 0.58737 0.59649 0.0
C1894 C 0.00222 0.56104 0.61805 0.0
C1895 C 0.9626 0.58793 0.49922 0.0
C1896 C 0.01476 0.585 0.46554 0.0
C1897 C 0.01358 0.57302 0.42874 0.0
C1898 C 0.00463 0.58559 0.50812 0.0
C1899 C 0.99353 0.5735 0.51513 0.0
C1900 C 0.99293 0.56083 0.47972 0.0
C1901 C 0.00278 0.56093 0.43593 0.0
C1902 C 0.0054 0.59951 0.54433 0.0
C1903 C 0.98188 0.54731 0.48794 0.0
H1904 H 0.98275 0.57229 0.69154 0.0
H1905 H 0.94891 0.59419 0.59217 0.0
H1906 H 0.00347 0.55161 0.58871 0.0
H1907 H 0.01238 0.56899 0.61372 0.0
H1908 H 0.00267 0.5558 0.65762 0.0
H1909 H 0.95049 0.59263 0.50018 0.0
H1910 H 0.9705 0.59716 0.48409 0.0
H1911 H 0.96302 0.57802 0.47141 0.0
H1912 H 0.02301 0.59444 0.45936 0.0
H1913 H 0.00202 0.55164 0.40729 0.0
H1914 H 0.00807 0.59561 0.58455 0.0
H1915 H 0.9939 0.60551 0.54536 0.0
H1916 H 0.01443 0.60811 0.53229 0.0
H1917 H 0.98465 0.54143 0.52534 0.0
H1918 H 0.98261 0.53856 0.45606 0.0
H1919 H 0.96966 0.55157 0.49077 0.0
C1920 C 0.14113 0.25823 0.17275 0.0
C1921 C 0.1543 0.26343 0.14585 0.0
C1922 C 0.14275 0.24961 0.21869 0.0
C1923 C 0.15791 0.2465 0.2383 0.0
C1924 C 0.17127 0.25167 0.21069 0.0
C1925 C 0.16928 0.26003 0.1642 0.0
C1926 C 0.12822 0.24431 0.24715 0.0
C1927 C 0.18758 0.24885 0.23109 0.0
C1928 C 0.15772 0.24086 0.3838 0.0
C1929 C 0.15766 0.22453 0.38795 0.0
C1930 C 0.15877 0.24818 0.33527 0.0
C1931 C 0.15953 0.23891 0.28976 0.0
C1932 C 0.16019 0.22242 0.2937 0.0
C1933 C 0.15934 0.21538 0.34302 0.0
C1934 C 0.15836 0.26582 0.33268 0.0
C1935 C 0.16097 0.21223 0.24575 0.0
H1936 H 0.12959 0.26114 0.15825 0.0
H1937 H 0.17939 0.26434 0.14311 0.0
H1938 H 0.12883 0.23158 0.25499 0.0
H1939 H 0.12743 0.25034 0.28532 0.0
H1940 H 0.11739 0.24679 0.22479 0.0
H1941 H 0.19669 0.254 0.20543 0.0
H1942 H 0.18881 0.25395 0.27063 0.0
H1943 H 0.18975 0.23611 0.23459 0.0
H1944 H 0.15674 0.24799 0.41857 0.0
H1945 H 0.15941 0.20275 0.34624 0.0
H1946 H 0.14713 0.26969 0.31534 0.0
H1947 H 0.16789 0.27024 0.30732 0.0
H1948 H 0.15954 0.27129 0.37175 0.0
H1949 H 0.14978 0.21311 0.22404 0.0
H1950 H 0.16307 0.19976 0.25554 0.0
H1951 H 0.17038 0.2163 0.21929 0.0
C1952 C 0.50413 0.40221 0.12413 0.0
C1953 C 0.51852 0.40789 0.14189 0.0
C1954 C 0.49862 0.40597 0.07445 0.0
C1955 C 0.50774 0.41569 0.04174 0.0
C1956 C 0.52215 0.42171 0.05962 0.0
C1957 C 0.52744 0.41768 0.10959 0.0
C1958 C 0.4831 0.39937 0.05681 0.0
C1959 C 0.53193 0.43238 0.02601 0.0
C1960 C 0.49708 0.40835 0.90195 0.0
C1961 C 0.48473 0.41888 0.89626 0.0
C1962 C 0.5058 0.40805 0.94807 0.0
C1963 C 0.50223 0.41885 0.98817 0.0
C1964 C 0.49106 0.43077 0.97948 0.0
C1965 C 0.48218 0.43045 0.93371 0.0
C1966 C 0.51742 0.395 0.95626 0.0
C1967 C 0.48721 0.44277 0.02061 0.0
H1968 H 0.49712 0.39475 0.14903 0.0
H1969 H 0.53849 0.42227 0.12343 0.0
H1970 H 0.47505 0.40898 0.04585 0.0
H1971 H 0.48482 0.39197 0.02176 0.0
H1972 H 0.47736 0.39221 0.08744 0.0
H1973 H 0.54244 0.43677 0.04677 0.0
H1974 H 0.53576 0.42607 0.99048 0.0
H1975 H 0.52485 0.44253 0.01303 0.0
H1976 H 0.49883 0.39932 0.87285 0.0
H1977 H 0.47261 0.43863 0.92869 0.0
H1978 H 0.51232 0.38621 0.98318 0.0
H1979 H 0.52829 0.39947 0.97446 0.0
H1980 H 0.52046 0.38903 0.91917 0.0
H1981 H 0.479 0.4376 0.04926 0.0
H1982 H 0.48154 0.45325 0.00335 0.0
H1983 H 0.49785 0.44649 0.04197 0.0
C1984 C 0.15154 0.34888 0.1343 0.0
C1985 C 0.14877 0.34308 0.08384 0.0
C1986 C 0.14179 0.36019 0.15631 0.0
C1987 C 0.12927 0.36611 0.12657 0.0
C1988 C 0.12743 0.36157 0.07379 0.0
C1989 C 0.13717 0.34997 0.05308 0.0
C1990 C 0.1441 0.36469 0.21269 0.0
C1991 C 0.11442 0.36807 0.04044 0.0
C1992 C 0.08997 0.37695 0.18028 0.0
C1993 C 0.08975 0.39289 0.16849 0.0
C1994 C 0.10347 0.36812 0.17131 0.0
C1995 C 0.11698 0.37564 0.15149 0.0
C1996 C 0.11738 0.39208 0.14688 0.0
C1997 C 0.10357 0.40054 0.15441 0.0
C1998 C 0.10262 0.35057 0.17696 0.0
C1999 C 0.13185 0.40054 0.12861 0.0
H2000 H 0.16057 0.34372 0.15843 0.0
H2001 H 0.13512 0.34568 0.01392 0.0
H2002 H 0.14218 0.37739 0.21857 0.0
H2003 H 0.13546 0.35838 0.23711 0.0
H2004 H 0.15598 0.36161 0.22678 0.0
H2005 H 0.11535 0.36424 -0.00081 0.0
H2006 H 0.10296 0.36415 0.056 0.0
H2007 H 0.11453 0.38102 0.04156 0.0
H2008 H 0.07919 0.37111 0.19102 0.0
H2009 H 0.10331 0.41295 0.14587 0.0
H2010 H 0.11332 0.34595 0.19582 0.0
H2011 H 0.10177 0.34517 0.13772 0.0
H2012 H 0.09229 0.34686 0.2001 0.0
H2013 H 0.14255 0.39529 0.14564 0.0
H2014 H 0.13145 0.41314 0.13902 0.0
H2015 H 0.13275 0.39957 0.08561 0.0
C2016 C 0.83675 0.85609 0.37707 0.0
C2017 C 0.84281 0.84368 0.40642 0.0
C2018 C 0.8457 0.86952 0.36847 0.0
C2019 C 0.8611 0.87004 0.38801 0.0
C2020 C 0.86629 0.85864 0.42402 0.0
C2021 C 0.85689 0.84559 0.43341 0.0
C2022 C 0.83943 0.88212 0.3331 0.0
C2023 C 0.88261 0.85895 0.44654 0.0
C2024 C 0.89404 0.88119 0.29828 0.0
C2025 C 0.89957 0.89456 0.32318 0.0
C2026 C 0.88066 0.87365 0.31708 0.0
C2027 C 0.87282 0.8798 0.3614 0.0
C2028 C 0.87751 0.89418 0.38311 0.0
C2029 C 0.89083 0.90144 0.36344 0.0
C2030 C 0.87573 0.8584 0.29234 0.0
C2031 C 0.86939 0.90126 0.42971 0.0
H2032 H 0.82561 0.85477 0.35744 0.0
H2033 H 0.86147 0.83609 0.45684 0.0
H2034 H 0.84391 0.8938 0.34455 0.0
H2035 H 0.8433 0.87978 0.29257 0.0
H2036 H 0.82645 0.88236 0.33357 0.0
H2037 H 0.88384 0.85082 0.48003 0.0
H2038 H 0.8911 0.85542 0.416 0.0
H2039 H 0.88579 0.87088 0.45956 0.0
H2040 H 0.90082 0.87592 0.2672 0.0
H2041 H 0.89506 0.91197 0.38233 0.0
H2042 H 0.86322 0.85891 0.2812 0.0
H2043 H 0.87712 0.84873 0.32078 0.0
H2044 H 0.88271 0.85558 0.25707 0.0
H2045 H 0.85656 0.89948 0.42773 0.0
H2046 H 0.87183 0.91398 0.43299 0.0
H2047 H 0.87368 0.89557 0.46579 0.0
C2048 C 0.36041 0.64432 0.56564 0.0
C2049 C 0.34673 0.65036 0.58728 0.0
C2050 C 0.36788 0.63156 0.58869 0.0
C2051 C 0.36119 0.62452 0.6336 0.0
C2052 C 0.34665 0.62976 0.65279 0.0
C2053 C 0.33965 0.6428 0.62967 0.0
C2054 C 0.38345 0.62631 0.56692 0.0
C2055 C 0.3389 0.62232 0.69944 0.0
C2056 C 0.38438 0.58844 0.64799 0.0
C2057 C 0.39722 0.59468 0.67465 0.0
C2058 C 0.37073 0.59723 0.64192 0.0
C2059 C 0.37036 0.61261 0.6618 0.0
C2060 C 0.38208 0.61767 0.69689 0.0
C2061 C 0.39548 0.6085 0.70323 0.0
C2062 C 0.35793 0.59105 0.60722 0.0
C2063 C 0.3818 0.63382 0.72056 0.0
H2064 H 0.36587 0.65025 0.53302 0.0
H2065 H 0.32895 0.64748 0.64612 0.0
H2066 H 0.39274 0.62795 0.59661 0.0
H2067 H 0.38304 0.6137 0.55701 0.0
H2068 H 0.38683 0.6329 0.53138 0.0
H2069 H 0.3261 0.62449 0.69951 0.0
H2070 H 0.34099 0.60952 0.7006 0.0
H2071 H 0.34381 0.62745 0.73559 0.0
H2072 H 0.38556 0.57741 0.62751 0.0
H2073 H 0.4053 0.61315 0.72502 0.0
H2074 H 0.36018 0.5948 0.56651 0.0
H2075 H 0.34634 0.59567 0.61906 0.0
H2076 H 0.35757 0.57807 0.60795 0.0
H2077 H 0.38608 0.64238 0.69137 0.0
H2078 H 0.38945 0.63454 0.75544 0.0
H2079 H 0.36977 0.63725 0.7318 0.0
C2080 C 0.62495 0.15363 0.89369 0.0
C2081 C 0.64075 0.15122 0.90459 0.0
C2082 C 0.61522 0.14103 0.88217 0.0
C2083 C 0.62153 0.12575 0.8827 0.0
C2084 C 0.63723 0.12321 0.8979 0.0
C2085 C 0.64684 0.13612 0.90782 0.0
C2086 C 0.59855 0.14419 0.86562 0.0
C2087 C 0.6441 0.10698 0.90036 0.0
C2088 C 0.59183 0.09342 0.87503 0.0
C2089 C 0.59113 0.09091 0.82112 0.0
C2090 C 0.60205 0.10445 0.89608 0.0
C2091 C 0.61207 0.11276 0.86235 0.0
C2092 C 0.612 0.10968 0.8081 0.0
C2093 C 0.60129 0.0989 0.78795 0.0
C2094 C 0.6015 0.10781 0.95385 0.0
C2095 C 0.62276 0.11824 0.77121 0.0
H2096 H 0.62048 0.16546 0.89064 0.0
H2097 H 0.65917 0.13448 0.91593 0.0
H2098 H 0.59718 0.14136 0.82367 0.0
H2099 H 0.59033 0.13664 0.88758 0.0
H2100 H 0.59516 0.15659 0.87163 0.0
H2101 H 0.65569 0.10688 0.91986 0.0
H2102 H 0.63614 0.09896 0.92156 0.0
H2103 H 0.6455 0.10234 0.86027 0.0
H2104 H 0.58388 0.08735 0.9007 0.0
H2105 H 0.60071 0.09685 0.74629 0.0
H2106 H 0.59662 0.11966 0.96041 0.0
H2107 H 0.61344 0.10767 0.97063 0.0
H2108 H 0.59414 0.09925 0.97528 0.0
H2109 H 0.61967 0.13083 0.77049 0.0
H2110 H 0.62206 0.1136 0.73084 0.0
H2111 H 0.63503 0.11732 0.78483 0.0
C2112 C 0.10174 0.59383 0.30692 0.0
C2113 C 0.08688 0.60053 0.30409 0.0
C2114 C 0.11498 0.60331 0.31154 0.0
C2115 C 0.113 0.61966 0.31581 0.0
C2116 C 0.09817 0.62649 0.3068 0.0
C2117 C 0.0852 0.61674 0.30032 0.0
C2118 C 0.13074 0.5957 0.31876 0.0
C2119 C 0.09558 0.6439 0.31131 0.0
C2120 C 0.13596 0.63931 0.42257 0.0
C2121 C 0.14708 0.64765 0.39409 0.0
C2122 C 0.12505 0.62984 0.39728 0.0
C2123 C 0.12518 0.62896 0.34211 0.0
C2124 C 0.13655 0.63716 0.31311 0.0
C2125 C 0.14757 0.64626 0.33962 0.0
C2126 C 0.11314 0.62111 0.42963 0.0
C2127 C 0.13687 0.63658 0.25431 0.0
H2128 H 0.10288 0.58123 0.30941 0.0
H2129 H 0.07359 0.62181 0.29831 0.0
H2130 H 0.14006 0.60261 0.29952 0.0
H2131 H 0.1335 0.59512 0.36096 0.0
H2132 H 0.1309 0.58362 0.30287 0.0
H2133 H 0.08437 0.64753 0.29317 0.0
H2134 H 0.09524 0.64719 0.35314 0.0
H2135 H 0.10527 0.6505 0.29289 0.0
H2136 H 0.13568 0.64038 0.46467 0.0
H2137 H 0.15617 0.65277 0.31749 0.0
H2138 H 0.11384 0.60841 0.42137 0.0
H2139 H 0.10117 0.62504 0.41927 0.0
H2140 H 0.11487 0.62291 0.47211 0.0
H2141 H 0.13983 0.62459 0.24127 0.0
H2142 H 0.14554 0.64483 0.23756 0.0
H2143 H 0.12517 0.63941 0.2382 0.0
C2144 C 0.65447 0.85297 0.65224 0.0
C2145 C 0.65241 0.84441 0.60601 0.0
C2146 C 0.64478 0.86566 0.66387 0.0
C2147 C 0.63301 0.86989 0.62802 0.0
C2148 C 0.63265 0.86296 0.57792 0.0
C2149 C 0.64243 0.85024 0.5674 0.0
C2150 C 0.64584 0.87309 0.71709 0.0
C2151 C 0.62052 0.86752 0.53796 0.0
C2152 C 0.59195 0.87767 0.67315 0.0
C2153 C 0.59009 0.8932 0.65762 0.0
C2154 C 0.60634 0.87016 0.66689 0.0
C2155 C 0.61915 0.87864 0.64613 0.0
C2156 C 0.61773 0.89481 0.63611 0.0
C2157 C 0.60303 0.90187 0.6409 0.0
C2158 C 0.60736 0.85283 0.67783 0.0
C2159 C 0.63132 0.90437 0.61656 0.0
H2160 H 0.66258 0.84887 0.68169 0.0
H2161 H 0.64108 0.84396 0.53098 0.0
H2162 H 0.64278 0.88568 0.71569 0.0
H2163 H 0.63746 0.86723 0.74371 0.0
H2164 H 0.65774 0.87179 0.73385 0.0
H2165 H 0.62342 0.86293 0.49863 0.0
H2166 H 0.60899 0.86273 0.54974 0.0
H2167 H 0.61937 0.88041 0.53554 0.0
H2168 H 0.58185 0.87103 0.68591 0.0
H2169 H 0.6015 0.91398 0.62956 0.0
H2170 H 0.61778 0.85017 0.70191 0.0
H2171 H 0.6086 0.84638 0.64052 0.0
H2172 H 0.59682 0.84837 0.69829 0.0
H2173 H 0.64242 0.9007 0.63532 0.0
H2174 H 0.6295 0.91704 0.62385 0.0
H2175 H 0.63261 0.90262 0.57396 0.0
C2176 C 0.4026 0.3848 0.90395 0.0
C2177 C 0.40248 0.39718 0.86852 0.0
C2178 C 0.38986 0.37468 0.90779 0.0
C2179 C 0.37647 0.37748 0.87679 0.0
C2180 C 0.37588 0.3907 0.84361 0.0
C2181 C 0.38915 0.40026 0.83881 0.0
C2182 C 0.39129 0.36034 0.94182 0.0
C2183 C 0.36151 0.39436 0.81179 0.0
C2184 C 0.35564 0.34067 0.83666 0.0
C2185 C 0.34461 0.3391 0.87648 0.0
C2186 C 0.36576 0.35345 0.83534 0.0
C2187 C 0.36429 0.36526 0.87365 0.0
C2188 C 0.35247 0.3642 0.91217 0.0
C2189 C 0.34295 0.35084 0.91397 0.0
C2190 C 0.37865 0.35375 0.79503 0.0
C2191 C 0.35022 0.37692 0.9522 0.0
H2192 H 0.41308 0.38247 0.92645 0.0
H2193 H 0.38918 0.40997 0.81168 0.0
H2194 H 0.38115 0.3594 0.96851 0.0
H2195 H 0.39134 0.34972 0.91698 0.0
H2196 H 0.40216 0.36041 0.96552 0.0
H2197 H 0.36207 0.4062 0.79417 0.0
H2198 H 0.36025 0.38568 0.77998 0.0
H2199 H 0.35088 0.39355 0.83644 0.0
H2200 H 0.35692 0.33141 0.80807 0.0
H2201 H 0.33428 0.34953 0.94449 0.0
H2202 H 0.3902 0.35343 0.81474 0.0
H2203 H 0.37814 0.3647 0.77209 0.0
H2204 H 0.37797 0.34371 0.76767 0.0
H2205 H 0.36018 0.37697 0.9798 0.0
H2206 H 0.33925 0.37533 0.97479 0.0
H2207 H 0.34995 0.38853 0.93294 0.0
C2208 C 0.85827 0.14595 0.06635 0.0
C2209 C 0.84394 0.14998 0.08888 0.0
C2210 C 0.86661 0.13297 0.08466 0.0
C2211 C 0.86051 0.12412 0.12683 0.0
C2212 C 0.84575 0.12767 0.14787 0.0
C2213 C 0.83755 0.14039 0.12806 0.0
C2214 C 0.88227 0.12912 0.06057 0.0
C2215 C 0.83901 0.11879 0.19351 0.0
C2216 C 0.88303 0.08704 0.13305 0.0
C2217 C 0.89572 0.09203 0.16324 0.0
C2218 C 0.87002 0.09669 0.12653 0.0
C2219 C 0.87011 0.11164 0.1498 0.0
C2220 C 0.88165 0.11558 0.18696 0.0
C2221 C 0.89438 0.10556 0.19367 0.0
C2222 C 0.85727 0.09175 0.08943 0.0
C2223 C 0.88181 0.13124 0.21404 0.0
H2224 H 0.8633 0.1533 0.03632 0.0
H2225 H 0.82645 0.14335 0.1459 0.0
H2226 H 0.89163 0.1302 0.09031 0.0
H2227 H 0.88231 0.11686 0.04653 0.0
H2228 H 0.88516 0.13692 0.02734 0.0
H2229 H 0.82621 0.1207 0.19735 0.0
H2230 H 0.84125 0.10607 0.19002 0.0
H2231 H 0.84464 0.12288 0.22998 0.0
H2232 H 0.88386 0.07626 0.111 0.0
H2233 H 0.90404 0.10925 0.21809 0.0
H2234 H 0.85957 0.09691 0.05052 0.0
H2235 H 0.84567 0.09597 0.10273 0.0
H2236 H 0.85683 0.07883 0.08519 0.0
H2237 H 0.88658 0.14018 0.18701 0.0
H2238 H 0.88926 0.13104 0.24949 0.0
H2239 H 0.86984 0.13492 0.22521 0.0
C2240 C 0.83691 0.63974 0.85652 0.0
C2241 C 0.84309 0.65174 0.88752 0.0
C2242 C 0.84473 0.62543 0.85171 0.0
C2243 C 0.85927 0.62344 0.87699 0.0
C2244 C 0.86488 0.63506 0.91161 0.0
C2245 C 0.85656 0.64902 0.91702 0.0
C2246 C 0.83802 0.61298 0.8166 0.0
C2247 C 0.88044 0.63345 0.93895 0.0
C2248 C 0.88552 0.58829 0.88506 0.0
C2249 C 0.89657 0.59212 0.84674 0.0
C2250 C 0.87206 0.59743 0.89172 0.0
C2251 C 0.87003 0.61087 0.86047 0.0
C2252 C 0.88033 0.61382 0.81843 0.0
C2253 C 0.89336 0.60421 0.81157 0.0
C2254 C 0.8608 0.59345 0.93498 0.0
C2255 C 0.87866 0.62812 0.78431 0.0
H2256 H 0.82628 0.64176 0.8345 0.0
H2257 H 0.86129 0.65828 0.94117 0.0
H2258 H 0.84367 0.61365 0.77778 0.0
H2259 H 0.84025 0.60114 0.83258 0.0
H2260 H 0.82523 0.61453 0.81113 0.0
H2261 H 0.88254 0.64303 0.96732 0.0
H2262 H 0.88112 0.62216 0.95993 0.0
H2263 H 0.89 0.63361 0.90969 0.0
H2264 H 0.88778 0.5787 0.9116 0.0
H2265 H 0.90177 0.60712 0.78148 0.0
H2266 H 0.84859 0.59616 0.92354 0.0
H2267 H 0.86363 0.60053 0.96994 0.0
H2268 H 0.86158 0.58091 0.94589 0.0
H2269 H 0.86659 0.62907 0.76897 0.0
H2270 H 0.88689 0.62798 0.75082 0.0
H2271 H 0.881 0.63877 0.80779 0.0
C2272 C 0.14874 0.1458 0.62896 0.0
C2273 C 0.14576 0.15107 0.57808 0.0
C2274 C 0.13862 0.13528 0.65352 0.0
C2275 C 0.12551 0.12965 0.62595 0.0
C2276 C 0.12264 0.13466 0.57418 0.0
C2277 C 0.13279 0.1454 0.55094 0.0
C2278 C 0.14188 0.13031 0.70894 0.0
C2279 C 0.10874 0.12882 0.5435 0.0
C2280 C 0.1034 0.09253 0.6473 0.0
C2281 C 0.08928 0.09849 0.66613 0.0
C2282 C 0.11627 0.10238 0.6403 0.0
C2283 C 0.11458 0.11854 0.65045 0.0
C2284 C 0.10087 0.12425 0.67473 0.0
C2285 C 0.08838 0.11402 0.68304 0.0
C2286 C 0.131 0.09581 0.6165 0.0
C2287 C 0.09861 0.14143 0.68589 0.0
H2288 H 0.15876 0.15018 0.65022 0.0
H2289 H 0.13054 0.14943 0.51159 0.0
H2290 H 0.13148 0.13246 0.7338 0.0
H2291 H 0.14428 0.11758 0.71017 0.0
H2292 H 0.15202 0.1366 0.72601 0.0
H2293 H 0.10823 0.13388 0.50368 0.0
H2294 H 0.10922 0.11591 0.54005 0.0
H2295 H 0.09775 0.13182 0.56422 0.0
H2296 H 0.10405 0.08043 0.63491 0.0
H2297 H 0.07738 0.11858 0.69756 0.0
H2298 H 0.14153 0.10111 0.63449 0.0
H2299 H 0.13124 0.0986 0.57428 0.0
H2300 H 0.13165 0.08291 0.621 0.0
H2301 H 0.10937 0.14668 0.70245 0.0
H2302 H 0.08875 0.14349 0.71325 0.0
H2303 H 0.09601 0.14762 0.6489 0.0
C2304 C 0.59627 0.40148 0.38846 0.0
C2305 C 0.58883 0.39674 0.34228 0.0
C2306 C 0.60773 0.39218 0.41173 0.0
C2307 C 0.612 0.378 0.38761 0.0
C2308 C 0.60504 0.37346 0.33982 0.0
C2309 C 0.59352 0.38293 0.31765 0.0
C2310 C 0.61489 0.39725 0.4628 0.0
C2311 C 0.60938 0.35835 0.31294 0.0
C2312 C 0.64885 0.35522 0.40191 0.0
C2313 C 0.64307 0.34187 0.42675 0.0
C2314 C 0.63928 0.36826 0.39473 0.0
C2315 C 0.6236 0.36759 0.41191 0.0
C2316 C 0.61842 0.35498 0.44311 0.0
C2317 C 0.62838 0.34222 0.45067 0.0
C2318 C 0.64531 0.38178 0.36276 0.0
C2319 C 0.60178 0.35391 0.46236 0.0
H2320 H 0.59271 0.41218 0.40773 0.0
H2321 H 0.58783 0.37926 0.28193 0.0
H2322 H 0.61269 0.38828 0.49315 0.0
H2323 H 0.62775 0.39833 0.4586 0.0
H2324 H 0.61014 0.4086 0.47663 0.0
H2325 H 0.60298 0.35668 0.27569 0.0
H2326 H 0.62211 0.35812 0.30466 0.0
H2327 H 0.60675 0.3483 0.33884 0.0
H2328 H 0.66037 0.35496 0.38427 0.0
H2329 H 0.62397 0.33186 0.47013 0.0
H2330 H 0.64091 0.39307 0.37803 0.0
H2331 H 0.6411 0.38056 0.32206 0.0
H2332 H 0.6583 0.3821 0.36213 0.0
H2333 H 0.59743 0.36545 0.47566 0.0
H2334 H 0.60062 0.3454 0.4948 0.0
H2335 H 0.59415 0.34998 0.42992 0.0
C2336 C 0.35455 0.84685 0.04368 0.0
C2337 C 0.34074 0.84389 0.07112 0.0
C2338 C 0.36306 0.86049 0.05337 0.0
C2339 C 0.35737 0.87127 0.09078 0.0
C2340 C 0.34221 0.8695 0.11164 0.0
C2341 C 0.33405 0.85567 0.10179 0.0
C2342 C 0.37902 0.86227 0.02894 0.0
C2343 C 0.33546 0.88117 0.14951 0.0
C2344 C 0.39125 0.88479 0.17211 0.0
C2345 C 0.39507 0.89868 0.14655 0.0
C2346 C 0.37799 0.87632 0.15717 0.0
C2347 C 0.36851 0.88203 0.116 0.0
C2348 C 0.37127 0.89698 0.09485 0.0
C2349 C 0.3845 0.90523 0.11086 0.0
C2350 C 0.37513 0.86049 0.18149 0.0
C2351 C 0.36145 0.90353 0.05116 0.0
H2352 H 0.3596 0.83781 0.01926 0.0
H2353 H 0.32309 0.85351 0.12175 0.0
H2354 H 0.38131 0.8746 0.01819 0.0
H2355 H 0.38807 0.85866 0.0575 0.0
H2356 H 0.38029 0.85487 0.9936 0.0
H2357 H 0.32251 0.8803 0.1513 0.0
H2358 H 0.34017 0.87878 0.18899 0.0
H2359 H 0.33873 0.89329 0.13882 0.0
H2360 H 0.39937 0.87976 0.1999 0.0
H2361 H 0.38733 0.91619 0.09179 0.0
H2362 H 0.37801 0.8512 0.15287 0.0
H2363 H 0.36264 0.85915 0.19218 0.0
H2364 H 0.38237 0.85863 0.21688 0.0
H2365 H 0.36608 0.89919 0.01343 0.0
H2366 H 0.36196 0.91651 0.05046 0.0
H2367 H 0.34907 0.89982 0.05425 0.0
C2368 C 0.89017 0.38526 0.68691 0.0
C2369 C 0.89277 0.39841 0.65565 0.0
C2370 C 0.87644 0.37654 0.68157 0.0
C2371 C 0.86502 0.38137 0.64498 0.0
C2372 C 0.86651 0.39599 0.61995 0.0
C2373 C 0.88056 0.40428 0.62488 0.0
C2374 C 0.87521 0.3611 0.70982 0.0
C2375 C 0.85407 0.40206 0.58356 0.0
C2376 C 0.85154 0.34602 0.5713 0.0
C2377 C 0.8389 0.34125 0.602 0.0
C2378 C 0.85942 0.35994 0.58222 0.0
C2379 C 0.85418 0.36948 0.62388 0.0
C2380 C 0.84018 0.36574 0.65034 0.0
C2381 C 0.83282 0.35145 0.6397 0.0
C2382 C 0.87429 0.36352 0.5527 0.0
C2383 C 0.83366 0.37609 0.69266 0.0
H2384 H 0.89948 0.38085 0.71149 0.0
H2385 H 0.88236 0.41476 0.60192 0.0
H2386 H 0.86342 0.35963 0.72701 0.0
H2387 H 0.87706 0.35141 0.6817 0.0
H2388 H 0.88403 0.36001 0.74139 0.0
H2389 H 0.85453 0.41501 0.58064 0.0
H2390 H 0.85601 0.39719 0.54402 0.0
H2391 H 0.84223 0.39851 0.59662 0.0
H2392 H 0.85617 0.33823 0.54175 0.0
H2393 H 0.82277 0.34795 0.66265 0.0
H2394 H 0.88446 0.36259 0.5794 0.0
H2395 H 0.87402 0.37562 0.53737 0.0
H2396 H 0.87619 0.3554 0.5195 0.0
H2397 H 0.83888 0.37275 0.73061 0.0
H2398 H 0.82078 0.37469 0.69596 0.0
H2399 H 0.83638 0.38859 0.68541 0.0
C2400 C 0.35906 0.14398 0.43971 0.0
C2401 C 0.34461 0.146 0.41509 0.0
C2402 C 0.36774 0.13037 0.43124 0.0
C2403 C 0.36154 0.11864 0.39824 0.0
C2404 C 0.34576 0.11937 0.38244 0.0
C2405 C 0.33748 0.13327 0.39027 0.0
C2406 C 0.3844 0.12974 0.45056 0.0
C2407 C 0.33839 0.10648 0.35082 0.0
C2408 C 0.39185 0.10749 0.29892 0.0
C2409 C 0.39852 0.09443 0.32259 0.0
C2410 C 0.37898 0.1149 0.32164 0.0
C2411 C 0.37254 0.1088 0.36842 0.0
C2412 C 0.37818 0.09459 0.38906 0.0
C2413 C 0.39127 0.08762 0.36607 0.0
C2414 C 0.37321 0.13003 0.298 0.0
C2415 C 0.37131 0.08733 0.43752 0.0
H2416 H 0.36444 0.15371 0.46003 0.0
H2417 H 0.32601 0.13466 0.37288 0.0
H2418 H 0.38743 0.11783 0.46416 0.0
H2419 H 0.39243 0.13276 0.41809 0.0
H2420 H 0.38643 0.13812 0.48292 0.0
H2421 H 0.32545 0.10663 0.35462 0.0
H2422 H 0.34136 0.10814 0.3091 0.0
H2423 H 0.34284 0.09486 0.36304 0.0
H2424 H 0.39745 0.11267 0.26518 0.0
H2425 H 0.39632 0.0773 0.38388 0.0
H2426 H 0.37532 0.13982 0.32549 0.0
H2427 H 0.36045 0.12939 0.29077 0.0
H2428 H 0.37914 0.13279 0.2606 0.0
H2429 H 0.37766 0.09176 0.47218 0.0
H2430 H 0.37266 0.07442 0.43684 0.0
H2431 H 0.35875 0.09022 0.44216 0.0
C2432 C 0.64983 0.63817 0.08832 0.0
C2433 C 0.64206 0.6524 0.08165 0.0
C2434 C 0.6414 0.62423 0.09246 0.0
C2435 C 0.62489 0.62483 0.09184 0.0
C2436 C 0.61707 0.63911 0.08165 0.0
C2437 C 0.62584 0.65278 0.07603 0.0
C2438 C 0.65009 0.60911 0.10112 0.0
C2439 C 0.59944 0.64019 0.08074 0.0
C2440 C 0.59826 0.59021 0.07961 0.0
C2441 C 0.5917 0.58978 0.12984 0.0
C2442 C 0.60992 0.60097 0.06706 0.0
C2443 C 0.61564 0.61096 0.10632 0.0
C2444 C 0.61065 0.6091 0.15859 0.0
C2445 C 0.59853 0.5986 0.16975 0.0
C2446 C 0.61469 0.60283 0.01071 0.0
C2447 C 0.61706 0.61923 0.20176 0.0
H2448 H 0.66246 0.63806 0.09231 0.0
H2449 H 0.61994 0.66392 0.07128 0.0
H2450 H 0.64923 0.60578 0.14279 0.0
H2451 H 0.64488 0.5995 0.07789 0.0
H2452 H 0.66266 0.61018 0.09073 0.0
H2453 H 0.59531 0.65166 0.06578 0.0
H2454 H 0.59438 0.63079 0.05625 0.0
H2455 H 0.59485 0.63865 0.12087 0.0
H2456 H 0.5933 0.58321 0.04853 0.0
H2457 H 0.59374 0.59811 0.20882 0.0
H2458 H 0.62745 0.60485 0.00711 0.0
H2459 H 0.60866 0.61317 0.99407 0.0
H2460 H 0.61147 0.59245 0.987 0.0
H2461 H 0.62999 0.6199 0.19935 0.0
H2462 H 0.61375 0.61478 0.24089 0.0
H2463 H 0.61243 0.63128 0.19754 0.0
C2464 C 0.09777 0.89975 0.88625 0.0
C2465 C 0.09136 0.89608 0.8374 0.0
C2466 C 0.10754 0.88917 0.91218 0.0
C2467 C 0.11107 0.87474 0.88827 0.0
C2468 C 0.10456 0.87093 0.83913 0.0
C2469 C 0.09484 0.88169 0.81418 0.0
C2470 C 0.11424 0.89354 0.9646 0.0
C2471 C 0.10798 0.85552 0.81257 0.0
C2472 C 0.14757 0.85121 0.90359 0.0
C2473 C 0.14167 0.83797 0.92873 0.0
C2474 C 0.13811 0.8643 0.89561 0.0
C2475 C 0.12236 0.86384 0.91221 0.0
C2476 C 0.11691 0.8512 0.94283 0.0
C2477 C 0.12677 0.83838 0.95123 0.0
C2478 C 0.14443 0.87776 0.86396 0.0
C2479 C 0.10017 0.85033 0.96121 0.0
H2480 H 0.09508 0.91086 0.90448 0.0
H2481 H 0.08991 0.87878 0.77651 0.0
H2482 H 0.1127 0.88384 0.99283 0.0
H2483 H 0.12698 0.89564 0.9607 0.0
H2484 H 0.10872 0.90424 0.98083 0.0
H2485 H 0.10136 0.85411 0.77563 0.0
H2486 H 0.12065 0.85466 0.80371 0.0
H2487 H 0.10497 0.84567 0.8388 0.0
H2488 H 0.1592 0.85087 0.88676 0.0
H2489 H 0.12224 0.82807 0.97063 0.0
H2490 H 0.14059 0.8891 0.88054 0.0
H2491 H 0.13981 0.87702 0.82363 0.0
H2492 H 0.1574 0.87761 0.86206 0.0
H2493 H 0.09602 0.86187 0.97519 0.0
H2494 H 0.0987 0.84162 0.99293 0.0
H2495 H 0.09259 0.84681 0.92814 0.0
loop_
_geom_bond_atom_site_label_1
_geom_bond_atom_site_label_2
_geom_bond_distance
_geom_bond_site_symmetry_2
_ccdc_geom_bond_type
Mg0 O1 2.028 . S
Mg0 O7 1.986 . S
Mg0 O9 2.114 . S
Mg0 O10 2.251 . S
Mg0 O13 2.010 1_554 S
O1 Mg0 2.028 . S
O1 C4 1.250 . S
O2 Mg3 2.028 . S
O2 C4 1.248 . S
Mg3 O2 2.028 . S
Mg3 O8 2.032 . S
Mg3 O10 2.079 . S
C4 O1 1.250 . S
C4 O2 1.248 . S
C5 O6 1.264 . S
C5 O13 1.249 . S
O6 C5 1.264 . S
O7 Mg0 1.986 . S
O7 C11 1.246 . S
O8 Mg3 2.032 . S
O8 C11 1.259 . S
O9 Mg0 2.114 . S
O9 C12 1.252 . S
O10 Mg0 2.251 . S
O10 Mg3 2.079 . S
O10 C12 1.273 . S
C11 O7 1.246 . S
C11 O8 1.259 . S
C12 O9 1.252 . S
C12 O10 1.273 . S
O13 Mg0 2.010 1_556 S
O13 C5 1.249 . S
Mg14 O15 2.028 . S
Mg14 O21 1.986 . S
Mg14 O23 2.114 . S
Mg14 O24 2.251 . S
Mg14 O27 2.010 . S
O15 Mg14 2.028 . S
O15 C18 1.250 . S
O16 Mg17 2.028 . S
O16 C18 1.248 . S
Mg17 O16 2.028 . S
Mg17 O22 2.032 . S
Mg17 O24 2.079 . S
C18 O15 1.250 . S
C18 O16 1.248 . S
C19 O20 1.264 . S
C19 O27 1.249 . S
O20 C19 1.264 . S
O21 Mg14 1.986 . S
O21 C25 1.246 . S
O22 Mg17 2.032 . S
O22 C25 1.259 . S
O23 Mg14 2.114 . S
O23 C26 1.252 . S
O24 Mg14 2.251 . S
O24 Mg17 2.079 . S
O24 C26 1.273 . S
C25 O21 1.246 . S
C25 O22 1.259 . S
C26 O23 1.252 . S
C26 O24 1.273 . S
O27 Mg14 2.010 . S
O27 C19 1.249 . S
Mg28 O29 2.028 . S
Mg28 O35 1.986 . S
Mg28 O37 2.114 . S
Mg28 O38 2.251 . S
Mg28 O41 2.010 . S
O29 Mg28 2.028 . S
O29 C32 1.250 . S
O30 Mg31 2.028 . S
O30 C32 1.248 . S
Mg31 O30 2.028 . S
Mg31 O36 2.032 . S
Mg31 O38 2.079 . S
C32 O29 1.250 . S
C32 O30 1.248 . S
C33 O34 1.264 . S
C33 O41 1.249 . S
O34 C33 1.264 . S
O35 Mg28 1.986 . S
O35 C39 1.246 . S
O36 Mg31 2.032 . S
O36 C39 1.259 . S
O37 Mg28 2.114 . S
O37 C40 1.252 . S
O38 Mg28 2.251 . S
O38 Mg31 2.079 . S
O38 C40 1.273 . S
C39 O35 1.246 . S
C39 O36 1.259 . S
C40 O37 1.252 . S
C40 O38 1.273 . S
O41 Mg28 2.010 . S
O41 C33 1.249 . S
Mg42 O43 2.028 . S
Mg42 O49 1.986 . S
Mg42 O51 2.114 . S
Mg42 O52 2.251 . S
Mg42 O55 2.010 . S
O43 Mg42 2.028 . S
O43 C46 1.250 . S
O44 Mg45 2.028 . S
O44 C46 1.248 . S
Mg45 O44 2.028 . S
Mg45 O50 2.032 . S
Mg45 O52 2.079 . S
C46 O43 1.250 . S
C46 O44 1.248 . S
C47 O48 1.264 . S
C47 O55 1.249 . S
O48 C47 1.264 . S
O49 Mg42 1.986 . S
O49 C53 1.246 . S
O50 Mg45 2.032 . S
O50 C53 1.259 . S
O51 Mg42 2.114 . S
O51 C54 1.252 . S
O52 Mg42 2.251 . S
O52 Mg45 2.079 . S
O52 C54 1.273 . S
C53 O49 1.246 . S
C53 O50 1.259 . S
C54 O51 1.252 . S
C54 O52 1.273 . S
O55 Mg42 2.010 . S
O55 C47 1.249 . S
Mg56 O57 2.028 . S
Mg56 O63 1.986 . S
Mg56 O65 2.114 . S
Mg56 O66 2.251 . S
Mg56 O69 2.010 . S
O57 Mg56 2.028 . S
O57 C60 1.250 . S
O58 Mg59 2.028 . S
O58 C60 1.248 . S
Mg59 O58 2.028 . S
Mg59 O64 2.032 . S
Mg59 O66 2.079 . S
C60 O57 1.250 . S
C60 O58 1.248 . S
C61 O62 1.264 . S
C61 O69 1.249 . S
O62 C61 1.264 . S
O63 Mg56 1.986 . S
O63 C67 1.246 . S
O64 Mg59 2.032 . S
O64 C67 1.259 . S
O65 Mg56 2.114 . S
O65 C68 1.252 . S
O66 Mg56 2.251 . S
O66 Mg59 2.079 . S
O66 C68 1.273 . S
C67 O63 1.246 . S
C67 O64 1.259 . S
C68 O65 1.252 . S
C68 O66 1.273 . S
O69 Mg56 2.010 . S
O69 C61 1.249 . S
Mg70 O71 2.028 . S
Mg70 O77 1.986 . S
Mg70 O79 2.114 . S
Mg70 O80 2.251 . S
Mg70 O83 2.010 . S
O71 Mg70 2.028 . S
O71 C74 1.250 . S
O72 Mg73 2.028 . S
O72 C74 1.248 . S
Mg73 O72 2.028 . S
Mg73 O78 2.032 . S
Mg73 O80 2.079 . S
C74 O71 1.250 . S
C74 O72 1.248 . S
C75 O76 1.264 . S
C75 O83 1.249 . S
O76 C75 1.264 . S
O77 Mg70 1.986 . S
O77 C81 1.246 . S
O78 Mg73 2.032 . S
O78 C81 1.259 . S
O79 Mg70 2.114 . S
O79 C82 1.252 . S
O80 Mg70 2.251 . S
O80 Mg73 2.079 . S
O80 C82 1.273 . S
C81 O77 1.246 . S
C81 O78 1.259 . S
C82 O79 1.252 . S
C82 O80 1.273 . S
O83 Mg70 2.010 . S
O83 C75 1.249 . S
Mg84 O85 2.028 . S
Mg84 O91 1.986 . S
Mg84 O93 2.114 . S
Mg84 O94 2.251 . S
Mg84 O97 2.010 1_556 S
O85 Mg84 2.028 . S
O85 C88 1.250 . S
O86 Mg87 2.028 . S
O86 C88 1.248 . S
Mg87 O86 2.028 . S
Mg87 O92 2.032 . S
Mg87 O94 2.079 . S
C88 O85 1.250 . S
C88 O86 1.248 . S
C89 O90 1.264 . S
C89 O97 1.249 . S
O90 C89 1.264 . S
O91 Mg84 1.986 . S
O91 C95 1.246 . S
O92 Mg87 2.032 . S
O92 C95 1.259 . S
O93 Mg84 2.114 . S
O93 C96 1.252 . S
O94 Mg84 2.251 . S
O94 Mg87 2.079 . S
O94 C96 1.273 . S
C95 O91 1.246 . S
C95 O92 1.259 . S
C96 O93 1.252 . S
C96 O94 1.273 . S
O97 Mg84 2.010 1_554 S
O97 C89 1.249 . S
Mg98 O99 2.028 . S
Mg98 O105 1.986 . S
Mg98 O107 2.114 . S
Mg98 O108 2.251 . S
Mg98 O111 2.010 . S
O99 Mg98 2.028 . S
O99 C102 1.250 . S
O100 Mg101 2.028 . S
O100 C102 1.248 . S
Mg101 O100 2.028 . S
Mg101 O106 2.032 . S
Mg101 O108 2.079 . S
C102 O99 1.250 . S
C102 O100 1.248 . S
C103 O104 1.264 . S
C103 O111 1.249 . S
O104 C103 1.264 . S
O105 Mg98 1.986 . S
O105 C109 1.246 . S
O106 Mg101 2.032 . S
O106 C109 1.259 . S
O107 Mg98 2.114 . S
O107 C110 1.252 . S
O108 Mg98 2.251 . S
O108 Mg101 2.079 . S
O108 C110 1.273 . S
C109 O105 1.246 . S
C109 O106 1.259 . S
C110 O107 1.252 . S
C110 O108 1.273 . S
O111 Mg98 2.010 . S
O111 C103 1.249 . S
Mg112 O113 2.028 . S
Mg112 O119 1.986 . S
Mg112 O121 2.114 . S
Mg112 O122 2.251 . S
Mg112 O125 2.010 1_556 S
O113 Mg112 2.028 . S
O113 C116 1.250 . S
O114 Mg115 2.028 . S
O114 C116 1.248 . S
Mg115 O114 2.028 . S
Mg115 O120 2.032 . S
Mg115 O122 2.079 . S
C116 O113 1.250 . S
C116 O114 1.248 . S
C117 O118 1.264 . S
C117 O125 1.249 . S
O118 C117 1.264 . S
O119 Mg112 1.986 . S
O119 C123 1.246 . S
O120 Mg115 2.032 . S
O120 C123 1.259 . S
O121 Mg112 2.114 . S
O121 C124 1.252 . S
O122 Mg112 2.251 . S
O122 Mg115 2.079 . S
O122 C124 1.273 . S
C123 O119 1.246 . S
C123 O120 1.259 . S
C124 O121 1.252 . S
C124 O122 1.273 . S
O125 Mg112 2.010 1_554 S
O125 C117 1.249 . S
Mg126 O127 2.028 . S
Mg126 O133 1.986 . S
Mg126 O135 2.114 . S
Mg126 O136 2.251 . S
Mg126 O139 2.010 . S
O127 Mg126 2.028 . S
O127 C130 1.250 . S
O128 Mg129 2.028 . S
O128 C130 1.248 . S
Mg129 O128 2.028 . S
Mg129 O134 2.032 . S
Mg129 O136 2.079 . S
C130 O127 1.250 . S
C130 O128 1.248 . S
C131 O132 1.264 . S
C131 O139 1.249 . S
O132 C131 1.264 . S
O133 Mg126 1.986 . S
O133 C137 1.246 . S
O134 Mg129 2.032 . S
O134 C137 1.259 . S
O135 Mg126 2.114 . S
O135 C138 1.252 . S
O136 Mg126 2.251 . S
O136 Mg129 2.079 . S
O136 C138 1.273 . S
C137 O133 1.246 . S
C137 O134 1.259 . S
C138 O135 1.252 . S
C138 O136 1.273 . S
O139 Mg126 2.010 . S
O139 C131 1.249 . S
Mg140 O141 2.028 . S
Mg140 O147 1.986 . S
Mg140 O149 2.114 . S
Mg140 O150 2.251 . S
Mg140 O153 2.010 . S
O141 Mg140 2.028 . S
O141 C144 1.250 . S
O142 Mg143 2.028 . S
O142 C144 1.248 . S
Mg143 O142 2.028 . S
Mg143 O148 2.032 . S
Mg143 O150 2.079 . S
C144 O141 1.250 . S
C144 O142 1.248 . S
C145 O146 1.264 . S
C145 O153 1.249 . S
O146 C145 1.264 . S
O147 Mg140 1.986 . S
O147 C151 1.246 . S
O148 Mg143 2.032 . S
O148 C151 1.259 . S
O149 Mg140 2.114 . S
O149 C152 1.252 . S
O150 Mg140 2.251 . S
O150 Mg143 2.079 . S
O150 C152 1.273 . S
C151 O147 1.246 . S
C151 O148 1.259 . S
C152 O149 1.252 . S
C152 O150 1.273 . S
O153 Mg140 2.010 . S
O153 C145 1.249 . S
Mg154 O155 2.028 . S
Mg154 O161 1.986 . S
Mg154 O163 2.114 . S
Mg154 O164 2.251 . S
Mg154 O167 2.010 . S
O155 Mg154 2.028 . S
O155 C158 1.250 . S
O156 Mg157 2.028 . S
O156 C158 1.248 . S
Mg157 O156 2.028 . S
Mg157 O162 2.032 . S
Mg157 O164 2.079 . S
C158 O155 1.250 . S
C158 O156 1.248 . S
C159 O160 1.264 . S
C159 O167 1.249 . S
O160 C159 1.264 . S
O161 Mg154 1.986 . S
O161 C165 1.246 . S
O162 Mg157 2.032 . S
O162 C165 1.259 . S
O163 Mg154 2.114 . S
O163 C166 1.252 . S
O164 Mg154 2.251 . S
O164 Mg157 2.079 . S
O164 C166 1.273 . S
C165 O161 1.246 . S
C165 O162 1.259 . S
C166 O163 1.252 . S
C166 O164 1.273 . S
O167 Mg154 2.010 . S
O167 C159 1.249 . S
Mg168 O169 2.028 . S
Mg168 O175 1.986 . S
Mg168 O177 2.114 . S
Mg168 O178 2.251 . S
Mg168 O181 2.010 . S
O169 Mg168 2.028 . S
O169 C172 1.250 . S
O170 Mg171 2.028 . S
O170 C172 1.248 . S
Mg171 O170 2.028 . S
Mg171 O176 2.032 . S
Mg171 O178 2.079 . S
C172 O169 1.250 . S
C172 O170 1.248 . S
C173 O174 1.264 . S
C173 O181 1.249 . S
O174 C173 1.264 . S
O175 Mg168 1.986 . S
O175 C179 1.246 . S
O176 Mg171 2.032 . S
O176 C179 1.259 . S
O177 Mg168 2.114 . S
O177 C180 1.252 . S
O178 Mg168 2.251 . S
O178 Mg171 2.079 . S
O178 C180 1.273 . S
C179 O175 1.246 . S
C179 O176 1.259 . S
C180 O177 1.252 . S
C180 O178 1.273 . S
O181 Mg168 2.010 . S
O181 C173 1.249 . S
Mg182 O183 2.028 . S
Mg182 O189 1.986 . S
Mg182 O191 2.114 . S
Mg182 O192 2.251 . S
Mg182 O195 2.010 . S
O183 Mg182 2.028 . S
O183 C186 1.250 . S
O184 Mg185 2.028 . S
O184 C186 1.248 . S
Mg185 O184 2.028 . S
Mg185 O190 2.032 . S
Mg185 O192 2.079 . S
C186 O183 1.250 . S
C186 O184 1.248 . S
C187 O188 1.264 . S
C187 O195 1.249 . S
O188 C187 1.264 . S
O189 Mg182 1.986 . S
O189 C193 1.246 . S
O190 Mg185 2.032 . S
O190 C193 1.259 . S
O191 Mg182 2.114 . S
O191 C194 1.252 . S
O192 Mg182 2.251 . S
O192 Mg185 2.079 . S
O192 C194 1.273 . S
C193 O189 1.246 . S
C193 O190 1.259 . S
C194 O191 1.252 . S
C194 O192 1.273 . S
O195 Mg182 2.010 . S
O195 C187 1.249 . S
Mg196 O197 2.028 . S
Mg196 O203 1.986 . S
Mg196 O205 2.114 . S
Mg196 O206 2.251 . S
Mg196 O209 2.010 1_554 S
O197 Mg196 2.028 . S
O197 C200 1.250 . S
O198 Mg199 2.028 . S
O198 C200 1.248 . S
Mg199 O198 2.028 . S
Mg199 O204 2.032 . S
Mg199 O206 2.079 . S
C200 O197 1.250 . S
C200 O198 1.248 . S
C201 O202 1.264 . S
C201 O209 1.249 . S
O202 C201 1.264 . S
O203 Mg196 1.986 . S
O203 C207 1.246 . S
O204 Mg199 2.032 . S
O204 C207 1.259 . S
O205 Mg196 2.114 . S
O205 C208 1.252 . S
O206 Mg196 2.251 . S
O206 Mg199 2.079 . S
O206 C208 1.273 . S
C207 O203 1.246 . S
C207 O204 1.259 . S
C208 O205 1.252 . S
C208 O206 1.273 . S
O209 Mg196 2.010 1_556 S
O209 C201 1.249 . S
Mg210 O211 2.028 . S
Mg210 O217 1.986 . S
Mg210 O219 2.114 . S
Mg210 O220 2.251 . S
Mg210 O223 2.010 . S
O211 Mg210 2.028 . S
O211 C214 1.250 . S
O212 Mg213 2.028 . S
O212 C214 1.248 . S
Mg213 O212 2.028 . S
Mg213 O218 2.032 . S
Mg213 O220 2.079 . S
C214 O211 1.250 . S
C214 O212 1.248 . S
C215 O216 1.264 . S
C215 O223 1.249 . S
O216 C215 1.264 . S
O217 Mg210 1.986 . S
O217 C221 1.246 . S
O218 Mg213 2.032 . S
O218 C221 1.259 . S
O219 Mg210 2.114 . S
O219 C222 1.252 . S
O220 Mg210 2.251 . S
O220 Mg213 2.079 . S
O220 C222 1.273 . S
C221 O217 1.246 . S
C221 O218 1.259 . S
C222 O219 1.252 . S
C222 O220 1.273 . S
O223 Mg210 2.010 . S
O223 C215 1.249 . S
Mg224 O225 2.028 . S
Mg224 O231 1.986 . S
Mg224 O233 2.114 . S
Mg224 O234 2.251 . S
Mg224 O237 2.010 . S
O225 Mg224 2.028 . S
O225 C228 1.250 . S
O226 Mg227 2.028 . S
O226 C228 1.248 . S
Mg227 O226 2.028 . S
Mg227 O232 2.032 . S
Mg227 O234 2.079 . S
C228 O225 1.250 . S
C228 O226 1.248 . S
C229 O230 1.264 . S
C229 O237 1.249 . S
O230 C229 1.264 . S
O231 Mg224 1.986 . S
O231 C235 1.246 . S
O232 Mg227 2.032 . S
O232 C235 1.259 . S
O233 Mg224 2.114 . S
O233 C236 1.252 . S
O234 Mg224 2.251 . S
O234 Mg227 2.079 . S
O234 C236 1.273 . S
C235 O231 1.246 . S
C235 O232 1.259 . S
C236 O233 1.252 . S
C236 O234 1.273 . S
O237 Mg224 2.010 . S
O237 C229 1.249 . S
Mg238 O239 2.028 . S
Mg238 O245 1.986 . S
Mg238 O247 2.114 . S
Mg238 O248 2.251 . S
Mg238 O251 2.010 . S
O239 Mg238 2.028 . S
O239 C242 1.250 . S
O240 Mg241 2.028 . S
O240 C242 1.248 . S
Mg241 O240 2.028 . S
Mg241 O246 2.032 . S
Mg241 O248 2.079 . S
C242 O239 1.250 . S
C242 O240 1.248 . S
C243 O244 1.264 . S
C243 O251 1.249 . S
O244 C243 1.264 . S
O245 Mg238 1.986 . S
O245 C249 1.246 . S
O246 Mg241 2.032 . S
O246 C249 1.259 . S
O247 Mg238 2.114 . S
O247 C250 1.252 . S
O248 Mg238 2.251 . S
O248 Mg241 2.079 . S
O248 C250 1.273 . S
C249 O245 1.246 . S
C249 O246 1.259 . S
C250 O247 1.252 . S
C250 O248 1.273 . S
O251 Mg238 2.010 . S
O251 C243 1.249 . S
Mg252 O253 2.028 . S
Mg252 O259 1.986 . S
Mg252 O261 2.114 . S
Mg252 O262 2.251 . S
Mg252 O265 2.010 1_554 S
O253 Mg252 2.028 . S
O253 C256 1.250 . S
O254 Mg255 2.028 . S
O254 C256 1.248 . S
Mg255 O254 2.028 . S
Mg255 O260 2.032 . S
Mg255 O262 2.079 . S
C256 O253 1.250 . S
C256 O254 1.248 . S
C257 O258 1.264 . S
C257 O265 1.249 . S
O258 C257 1.264 . S
O259 Mg252 1.986 . S
O259 C263 1.246 . S
O260 Mg255 2.032 . S
O260 C263 1.259 . S
O261 Mg252 2.114 . S
O261 C264 1.252 . S
O262 Mg252 2.251 . S
O262 Mg255 2.079 . S
O262 C264 1.273 . S
C263 O259 1.246 . S
C263 O260 1.259 . S
C264 O261 1.252 . S
C264 O262 1.273 . S
O265 Mg252 2.010 1_556 S
O265 C257 1.249 . S
Mg266 O267 2.028 . S
Mg266 O273 1.986 . S
Mg266 O275 2.114 . S
Mg266 O276 2.251 . S
Mg266 O279 2.010 . S
O267 Mg266 2.028 . S
O267 C270 1.250 . S
O268 Mg269 2.028 . S
O268 C270 1.248 . S
Mg269 O268 2.028 . S
Mg269 O274 2.032 . S
Mg269 O276 2.079 . S
C270 O267 1.250 . S
C270 O268 1.248 . S
C271 O272 1.264 . S
C271 O279 1.249 . S
O272 C271 1.264 . S
O273 Mg266 1.986 . S
O273 C277 1.246 . S
O274 Mg269 2.032 . S
O274 C277 1.259 . S
O275 Mg266 2.114 . S
O275 C278 1.252 . S
O276 Mg266 2.251 . S
O276 Mg269 2.079 . S
O276 C278 1.273 . S
C277 O273 1.246 . S
C277 O274 1.259 . S
C278 O275 1.252 . S
C278 O276 1.273 . S
O279 Mg266 2.010 . S
O279 C271 1.249 . S
Mg280 O281 2.028 . S
Mg280 O287 1.986 . S
Mg280 O289 2.114 . S
Mg280 O290 2.251 . S
Mg280 O293 2.010 1_556 S
O281 Mg280 2.028 . S
O281 C284 1.250 . S
O282 Mg283 2.028 . S
O282 C284 1.248 . S
Mg283 O282 2.028 . S
Mg283 O288 2.032 . S
Mg283 O290 2.079 . S
C284 O281 1.250 . S
C284 O282 1.248 . S
C285 O286 1.264 . S
C285 O293 1.249 . S
O286 C285 1.264 . S
O287 Mg280 1.986 . S
O287 C291 1.246 . S
O288 Mg283 2.032 . S
O288 C291 1.259 . S
O289 Mg280 2.114 . S
O289 C292 1.252 . S
O290 Mg280 2.251 . S
O290 Mg283 2.079 . S
O290 C292 1.273 . S
C291 O287 1.246 . S
C291 O288 1.259 . S
C292 O289 1.252 . S
C292 O290 1.273 . S
O293 Mg280 2.010 1_554 S
O293 C285 1.249 . S
Mg294 O295 2.028 . S
Mg294 O301 1.986 . S
Mg294 O303 2.114 . S
Mg294 O304 2.251 . S
Mg294 O307 2.010 . S
O295 Mg294 2.028 . S
O295 C298 1.250 . S
O296 Mg297 2.028 . S
O296 C298 1.248 . S
Mg297 O296 2.028 . S
Mg297 O302 2.032 . S
Mg297 O304 2.079 . S
C298 O295 1.250 . S
C298 O296 1.248 . S
C299 O300 1.264 . S
C299 O307 1.249 . S
O300 C299 1.264 . S
O301 Mg294 1.986 . S
O301 C305 1.246 . S
O302 Mg297 2.032 . S
O302 C305 1.259 . S
O303 Mg294 2.114 . S
O303 C306 1.252 . S
O304 Mg294 2.251 . S
O304 Mg297 2.079 . S
O304 C306 1.273 . S
C305 O301 1.246 . S
C305 O302 1.259 . S
C306 O303 1.252 . S
C306 O304 1.273 . S
O307 Mg294 2.010 . S
O307 C299 1.249 . S
Mg308 O309 2.028 . S
Mg308 O315 1.986 . S
Mg308 O317 2.114 . S
Mg308 O318 2.251 . S
Mg308 O321 2.010 . S
O309 Mg308 2.028 . S
O309 C312 1.250 . S
O310 Mg311 2.028 . S
O310 C312 1.248 . S
Mg311 O310 2.028 . S
Mg311 O316 2.032 . S
Mg311 O318 2.079 . S
C312 O309 1.250 . S
C312 O310 1.248 . S
C313 O314 1.264 . S
C313 O321 1.249 . S
O314 C313 1.264 . S
O315 Mg308 1.986 . S
O315 C319 1.246 . S
O316 Mg311 2.032 . S
O316 C319 1.259 . S
O317 Mg308 2.114 . S
O317 C320 1.252 . S
O318 Mg308 2.251 . S
O318 Mg311 2.079 . S
O318 C320 1.273 . S
C319 O315 1.246 . S
C319 O316 1.259 . S
C320 O317 1.252 . S
C320 O318 1.273 . S
O321 Mg308 2.010 . S
O321 C313 1.249 . S
Mg322 O323 2.028 . S
Mg322 O329 1.986 . S
Mg322 O331 2.114 . S
Mg322 O332 2.251 . S
Mg322 O335 2.010 . S
O323 Mg322 2.028 . S
O323 C326 1.250 . S
O324 Mg325 2.028 . S
O324 C326 1.248 . S
Mg325 O324 2.028 . S
Mg325 O330 2.032 . S
Mg325 O332 2.079 . S
C326 O323 1.250 . S
C326 O324 1.248 . S
C327 O328 1.264 . S
C327 O335 1.249 . S
O328 C327 1.264 . S
O329 Mg322 1.986 . S
O329 C333 1.246 . S
O330 Mg325 2.032 . S
O330 C333 1.259 . S
O331 Mg322 2.114 . S
O331 C334 1.252 . S
O332 Mg322 2.251 . S
O332 Mg325 2.079 . S
O332 C334 1.273 . S
C333 O329 1.246 . S
C333 O330 1.259 . S
C334 O331 1.252 . S
C334 O332 1.273 . S
O335 Mg322 2.010 . S
O335 C327 1.249 . S
Mg336 O337 2.028 . S
Mg336 O343 1.986 . S
Mg336 O345 2.114 . S
Mg336 O346 2.251 . S
Mg336 O349 2.010 . S
O337 Mg336 2.028 . S
O337 C340 1.250 . S
O338 Mg339 2.028 . S
O338 C340 1.248 . S
Mg339 O338 2.028 . S
Mg339 O344 2.032 . S
Mg339 O346 2.079 . S
C340 O337 1.250 . S
C340 O338 1.248 . S
C341 O342 1.264 . S
C341 O349 1.249 . S
O342 C341 1.264 . S
O343 Mg336 1.986 . S
O343 C347 1.246 . S
O344 Mg339 2.032 . S
O344 C347 1.259 . S
O345 Mg336 2.114 . S
O345 C348 1.252 . S
O346 Mg336 2.251 . S
O346 Mg339 2.079 . S
O346 C348 1.273 . S
C347 O343 1.246 . S
C347 O344 1.259 . S
C348 O345 1.252 . S
C348 O346 1.273 . S
O349 Mg336 2.010 . S
O349 C341 1.249 . S
Mg350 O351 2.028 . S
Mg350 O357 1.986 . S
Mg350 O359 2.114 . S
Mg350 O360 2.251 . S
Mg350 O363 2.010 . S
O351 Mg350 2.028 . S
O351 C354 1.250 . S
O352 Mg353 2.028 . S
O352 C354 1.248 . S
Mg353 O352 2.028 . S
Mg353 O358 2.032 . S
Mg353 O360 2.079 . S
C354 O351 1.250 . S
C354 O352 1.248 . S
C355 O356 1.264 . S
C355 O363 1.249 . S
O356 C355 1.264 . S
O357 Mg350 1.986 . S
O357 C361 1.246 . S
O358 Mg353 2.032 . S
O358 C361 1.259 . S
O359 Mg350 2.114 . S
O359 C362 1.252 . S
O360 Mg350 2.251 . S
O360 Mg353 2.079 . S
O360 C362 1.273 . S
C361 O357 1.246 . S
C361 O358 1.259 . S
C362 O359 1.252 . S
C362 O360 1.273 . S
O363 Mg350 2.010 . S
O363 C355 1.249 . S
Mg364 O365 2.028 . S
Mg364 O371 1.986 . S
Mg364 O373 2.114 . S
Mg364 O374 2.251 . S
Mg364 O377 2.010 1_556 S
O365 Mg364 2.028 . S
O365 C368 1.250 . S
O366 Mg367 2.028 . S
O366 C368 1.248 . S
Mg367 O366 2.028 . S
Mg367 O372 2.032 . S
Mg367 O374 2.079 . S
C368 O365 1.250 . S
C368 O366 1.248 . S
C369 O370 1.264 . S
C369 O377 1.249 . S
O370 C369 1.264 . S
O371 Mg364 1.986 . S
O371 C375 1.246 . S
O372 Mg367 2.032 . S
O372 C375 1.259 . S
O373 Mg364 2.114 . S
O373 C376 1.252 . S
O374 Mg364 2.251 . S
O374 Mg367 2.079 . S
O374 C376 1.273 . S
C375 O371 1.246 . S
C375 O372 1.259 . S
C376 O373 1.252 . S
C376 O374 1.273 . S
O377 Mg364 2.010 1_554 S
O377 C369 1.249 . S
Mg378 O379 2.028 . S
Mg378 O385 1.986 . S
Mg378 O387 2.114 . S
Mg378 O388 2.251 . S
Mg378 O391 2.010 . S
O379 Mg378 2.028 . S
O379 C382 1.250 . S
O380 Mg381 2.028 . S
O380 C382 1.248 . S
Mg381 O380 2.028 . S
Mg381 O386 2.032 . S
Mg381 O388 2.079 . S
C382 O379 1.250 . S
C382 O380 1.248 . S
C383 O384 1.264 . S
C383 O391 1.249 . S
O384 C383 1.264 . S
O385 Mg378 1.986 . S
O385 C389 1.246 . S
O386 Mg381 2.032 . S
O386 C389 1.259 . S
O387 Mg378 2.114 . S
O387 C390 1.252 . S
O388 Mg378 2.251 . S
O388 Mg381 2.079 . S
O388 C390 1.273 . S
C389 O385 1.246 . S
C389 O386 1.259 . S
C390 O387 1.252 . S
C390 O388 1.273 . S
O391 Mg378 2.010 . S
O391 C383 1.249 . S
Mg392 O393 2.028 . S
Mg392 O399 1.986 . S
Mg392 O401 2.114 . S
Mg392 O402 2.251 . S
Mg392 O405 2.010 1_554 S
O393 Mg392 2.028 . S
O393 C396 1.250 . S
O394 Mg395 2.028 . S
O394 C396 1.248 . S
Mg395 O394 2.028 . S
Mg395 O400 2.032 . S
Mg395 O402 2.079 . S
C396 O393 1.250 . S
C396 O394 1.248 . S
C397 O398 1.264 . S
C397 O405 1.249 . S
O398 C397 1.264 . S
O399 Mg392 1.986 . S
O399 C403 1.246 . S
O400 Mg395 2.032 . S
O400 C403 1.259 . S
O401 Mg392 2.114 . S
O401 C404 1.252 . S
O402 Mg392 2.251 . S
O402 Mg395 2.079 . S
O402 C404 1.273 . S
C403 O399 1.246 . S
C403 O400 1.259 . S
C404 O401 1.252 . S
C404 O402 1.273 . S
O405 Mg392 2.010 1_556 S
O405 C397 1.249 . S
Mg406 O407 2.028 . S
Mg406 O413 1.986 . S
Mg406 O415 2.114 . S
Mg406 O416 2.251 . S
Mg406 O419 2.010 . S
O407 Mg406 2.028 . S
O407 C410 1.250 . S
O408 Mg409 2.028 . S
O408 C410 1.248 . S
Mg409 O408 2.028 . S
Mg409 O414 2.032 . S
Mg409 O416 2.079 . S
C410 O407 1.250 . S
C410 O408 1.248 . S
C411 O412 1.264 . S
C411 O419 1.249 . S
O412 C411 1.264 . S
O413 Mg406 1.986 . S
O413 C417 1.246 . S
O414 Mg409 2.032 . S
O414 C417 1.259 . S
O415 Mg406 2.114 . S
O415 C418 1.252 . S
O416 Mg406 2.251 . S
O416 Mg409 2.079 . S
O416 C418 1.273 . S
C417 O413 1.246 . S
C417 O414 1.259 . S
C418 O415 1.252 . S
C418 O416 1.273 . S
O419 Mg406 2.010 . S
O419 C411 1.249 . S
Mg420 O421 2.028 . S
Mg420 O427 1.986 . S
Mg420 O429 2.114 . S
Mg420 O430 2.251 . S
Mg420 O433 2.010 . S
O421 Mg420 2.028 . S
O421 C424 1.250 . S
O422 Mg423 2.028 . S
O422 C424 1.248 . S
Mg423 O422 2.028 . S
Mg423 O428 2.032 . S
Mg423 O430 2.079 . S
C424 O421 1.250 . S
C424 O422 1.248 . S
C425 O426 1.264 . S
C425 O433 1.249 . S
O426 C425 1.264 . S
O427 Mg420 1.986 . S
O427 C431 1.246 . S
O428 Mg423 2.032 . S
O428 C431 1.259 . S
O429 Mg420 2.114 . S
O429 C432 1.252 . S
O430 Mg420 2.251 . S
O430 Mg423 2.079 . S
O430 C432 1.273 . S
C431 O427 1.246 . S
C431 O428 1.259 . S
C432 O429 1.252 . S
C432 O430 1.273 . S
O433 Mg420 2.010 . S
O433 C425 1.249 . S
Mg434 O435 2.028 . S
Mg434 O441 1.986 . S
Mg434 O443 2.114 . S
Mg434 O444 2.251 . S
Mg434 O447 2.010 . S
O435 Mg434 2.028 . S
O435 C438 1.250 . S
O436 Mg437 2.028 . S
O436 C438 1.248 . S
Mg437 O436 2.028 . S
Mg437 O442 2.032 . S
Mg437 O444 2.079 . S
C438 O435 1.250 . S
C438 O436 1.248 . S
C439 O440 1.264 . S
C439 O447 1.249 . S
O440 C439 1.264 . S
O441 Mg434 1.986 . S
O441 C445 1.246 . S
O442 Mg437 2.032 . S
O442 C445 1.259 . S
O443 Mg434 2.114 . S
O443 C446 1.252 . S
O444 Mg434 2.251 . S
O444 Mg437 2.079 . S
O444 C446 1.273 . S
C445 O441 1.246 . S
C445 O442 1.259 . S
C446 O443 1.252 . S
C446 O444 1.273 . S
O447 Mg434 2.010 . S
O447 C439 1.249 . S
C448 C449 1.391 . S
C448 C450 1.394 . S
C448 H464 0.931 . S
C449 C448 1.391 . S
C449 C453 1.376 1_556 S
C450 C448 1.394 . S
C450 C451 1.369 . S
C450 C454 1.531 . S
C451 C450 1.369 . S
C451 C452 1.410 1_556 S
C451 C459 1.500 1_556 S
C452 C451 1.410 1_554 S
C452 C453 1.392 . S
C452 C455 1.511 . S
C453 C449 1.376 1_554 S
C453 C452 1.392 . S
C453 H465 0.929 . S
C454 C450 1.531 . S
C454 H466 0.960 . S
C454 H467 0.962 . S
C454 H468 0.960 . S
C455 C452 1.511 . S
C455 H469 0.961 . S
C455 H470 0.961 . S
C455 H471 0.961 . S
C456 C457 1.370 . S
C456 C458 1.363 . S
C456 H472 0.931 . S
C457 C456 1.370 . S
C457 C461 1.408 1_554 S
C458 C456 1.363 . S
C458 C459 1.379 . S
C458 C462 1.524 . S
C459 C451 1.500 1_554 S
C459 C458 1.379 . S
C459 C460 1.397 1_554 S
C460 C459 1.397 1_556 S
C460 C461 1.404 . S
C460 C463 1.539 . S
C461 C457 1.408 1_556 S
C461 C460 1.404 . S
C461 H473 0.930 . S
C462 C458 1.524 . S
C462 H474 0.956 . S
C462 H475 0.961 . S
C462 H476 0.961 . S
C463 C460 1.539 . S
C463 H477 0.958 . S
C463 H478 0.961 . S
C463 H479 0.960 . S
H464 C448 0.931 . S
H465 C453 0.929 . S
H466 C454 0.960 . S
H467 C454 0.962 . S
H468 C454 0.960 . S
H469 C455 0.961 . S
H470 C455 0.961 . S
H471 C455 0.961 . S
H472 C456 0.931 . S
H473 C461 0.930 . S
H474 C462 0.956 . S
H475 C462 0.961 . S
H476 C462 0.961 . S
H477 C463 0.958 . S
H478 C463 0.961 . S
H479 C463 0.960 . S
C480 C481 1.391 . S
C480 C482 1.394 . S
C480 H496 0.931 . S
C481 C480 1.391 . S
C481 C485 1.376 . S
C482 C480 1.394 . S
C482 C483 1.369 . S
C482 C486 1.531 . S
C483 C482 1.369 . S
C483 C484 1.410 . S
C483 C491 1.503 1_565 S
C484 C483 1.410 . S
C484 C485 1.392 . S
C484 C487 1.511 . S
C485 C481 1.376 . S
C485 C484 1.392 . S
C485 H497 0.929 . S
C486 C482 1.531 . S
C486 H498 0.997 . S
C486 H499 0.962 . S
C486 H500 0.960 . S
C487 C484 1.511 . S
C487 H501 0.961 . S
C487 H502 0.961 1_565 S
C487 H503 0.961 . S
C488 C489 1.370 . S
C488 C490 1.363 . S
C488 H504 0.931 . S
C489 C488 1.370 . S
C489 C493 1.408 . S
C490 C488 1.363 . S
C490 C491 1.370 . S
C490 C494 1.524 . S
C491 C483 1.503 1_545 S
C491 C490 1.370 . S
C491 C492 1.403 . S
C492 C491 1.403 . S
C492 C493 1.404 . S
C492 C495 1.539 . S
C493 C489 1.408 . S
C493 C492 1.404 . S
C493 H505 0.930 . S
C494 C490 1.524 . S
C494 H506 0.956 . S
C494 H507 0.961 . S
C494 H508 0.961 . S
C495 C492 1.539 . S
C495 H509 0.960 1_545 S
C495 H510 0.961 . S
C495 H511 0.960 1_545 S
H496 C480 0.931 . S
H497 C485 0.929 . S
H498 C486 0.997 . S
H499 C486 0.962 . S
H500 C486 0.960 . S
H501 C487 0.961 . S
H502 C487 0.961 1_545 S
H503 C487 0.961 . S
H504 C488 0.931 . S
H505 C493 0.930 . S
H506 C494 0.956 . S
H507 C494 0.961 . S
H508 C494 0.961 . S
H509 C495 0.960 1_565 S
H510 C495 0.961 . S
H511 C495 0.960 1_565 S
C512 C513 1.391 . S
C512 C514 1.394 . S
C512 H528 0.931 . S
C513 C512 1.391 . S
C513 C517 1.376 . S
C514 C512 1.394 . S
C514 C515 1.369 . S
C514 C518 1.531 . S
C515 C514 1.369 . S
C515 C516 1.410 . S
C515 C523 1.503 . S
C516 C515 1.410 . S
C516 C517 1.392 . S
C516 C519 1.511 . S
C517 C513 1.376 . S
C517 C516 1.392 . S
C517 H529 0.929 . S
C518 C514 1.531 . S
C518 H530 0.960 . S
C518 H531 0.962 . S
C518 H532 0.960 . S
C519 C516 1.511 . S
C519 H533 0.961 . S
C519 H534 0.961 . S
C519 H535 0.961 . S
C520 C521 1.370 . S
C520 C522 1.363 . S
C520 H536 0.931 . S
C521 C520 1.370 . S
C521 C525 1.408 . S
C522 C520 1.363 . S
C522 C523 1.370 . S
C522 C526 1.524 . S
C523 C515 1.503 . S
C523 C522 1.370 . S
C523 C524 1.403 . S
C524 C523 1.403 . S
C524 C525 1.404 . S
C524 C527 1.539 . S
C525 C521 1.408 . S
C525 C524 1.404 . S
C525 H537 0.930 . S
C526 C522 1.524 . S
C526 H538 0.956 . S
C526 H539 0.961 . S
C526 H540 0.961 . S
C527 C524 1.539 . S
C527 H541 0.958 . S
C527 H542 0.961 . S
C527 H543 0.960 . S
H528 C512 0.931 . S
H529 C517 0.929 . S
H530 C518 0.960 . S
H531 C518 0.962 . S
H532 C518 0.960 . S
H533 C519 0.961 . S
H534 C519 0.961 . S
H535 C519 0.961 . S
H536 C520 0.931 . S
H537 C525 0.930 . S
H538 C526 0.956 . S
H539 C526 0.961 . S
H540 C526 0.961 . S
H541 C527 0.958 . S
H542 C527 0.961 . S
H543 C527 0.960 . S
C544 C545 1.391 . S
C544 C546 1.394 . S
C544 H560 0.931 . S
C545 C544 1.391 . S
C545 C549 1.376 . S
C546 C544 1.394 . S
C546 C547 1.369 . S
C546 C550 1.531 . S
C547 C546 1.369 . S
C547 C548 1.410 . S
C547 C555 1.503 1_545 S
C548 C547 1.410 . S
C548 C549 1.392 . S
C548 C551 1.511 . S
C549 C545 1.376 . S
C549 C548 1.392 . S
C549 H561 0.929 . S
C550 C546 1.531 . S
C550 H562 0.960 . S
C550 H563 0.962 . S
C550 H564 0.960 . S
C551 C548 1.511 . S
C551 H565 0.961 . S
C551 H566 0.961 1_545 S
C551 H567 0.961 . S
C552 C553 1.370 . S
C552 C554 1.363 . S
C552 H568 0.931 . S
C553 C552 1.370 . S
C553 C557 1.408 . S
C554 C552 1.363 . S
C554 C555 1.370 . S
C554 C558 1.524 . S
C555 C547 1.503 1_565 S
C555 C554 1.370 . S
C555 C556 1.403 . S
C556 C555 1.403 . S
C556 C557 1.404 . S
C556 C559 1.539 . S
C557 C553 1.408 . S
C557 C556 1.404 . S
C557 H569 0.930 . S
C558 C554 1.524 . S
C558 H570 0.956 . S
C558 H571 0.961 . S
C558 H572 0.961 . S
C559 C556 1.539 . S
C559 H573 0.952 1_565 S
C559 H574 0.961 . S
C559 H575 0.960 1_565 S
H560 C544 0.931 . S
H561 C549 0.929 . S
H562 C550 0.960 . S
H563 C550 0.962 . S
H564 C550 0.960 . S
H565 C551 0.961 . S
H566 C551 0.961 1_565 S
H567 C551 0.961 . S
H568 C552 0.931 . S
H569 C557 0.930 . S
H570 C558 0.956 . S
H571 C558 0.961 . S
H572 C558 0.961 . S
H573 C559 0.952 1_545 S
H574 C559 0.961 . S
H575 C559 0.960 1_545 S
C576 C577 1.391 . S
C576 C578 1.394 . S
C576 H592 0.931 . S
C577 C576 1.391 . S
C577 C581 1.376 1_554 S
C578 C576 1.394 . S
C578 C579 1.369 . S
C578 C582 1.531 . S
C579 C578 1.369 . S
C579 C580 1.410 1_554 S
C579 C587 1.503 1_554 S
C580 C579 1.410 1_556 S
C580 C581 1.392 . S
C580 C583 1.511 . S
C581 C577 1.376 1_556 S
C581 C580 1.392 . S
C581 H593 0.929 . S
C582 C578 1.531 . S
C582 H594 0.960 . S
C582 H595 0.962 . S
C582 H596 0.960 . S
C583 C580 1.511 . S
C583 H597 0.961 . S
C583 H598 0.961 . S
C583 H599 0.961 . S
C584 C585 1.370 . S
C584 C586 1.363 . S
C584 H600 0.931 . S
C585 C584 1.370 . S
C585 C589 1.408 . S
C586 C584 1.363 . S
C586 C587 1.370 . S
C586 C590 1.524 1_556 S
C587 C579 1.503 1_556 S
C587 C586 1.370 . S
C587 C588 1.403 . S
C588 C587 1.403 . S
C588 C589 1.404 . S
C588 C591 1.539 . S
C589 C585 1.408 . S
C589 C588 1.404 . S
C589 H601 0.930 . S
C590 C586 1.524 1_554 S
C590 H602 0.956 . S
C590 H603 0.961 1_554 S
C590 H604 0.961 . S
C591 C588 1.539 . S
C591 H605 0.958 . S
C591 H606 0.961 . S
C591 H607 0.960 . S
H592 C576 0.931 . S
H593 C581 0.929 . S
H594 C582 0.960 . S
H595 C582 0.962 . S
H596 C582 0.960 . S
H597 C583 0.961 . S
H598 C583 0.961 . S
H599 C583 0.961 . S
H600 C584 0.931 . S
H601 C589 0.930 . S
H602 C590 0.956 . S
H603 C590 0.961 1_556 S
H604 C590 0.961 . S
H605 C591 0.958 . S
H606 C591 0.961 . S
H607 C591 0.960 . S
C608 C609 1.391 . S
C608 C610 1.394 . S
C608 H624 0.931 . S
C609 C608 1.391 . S
C609 C613 1.376 . S
C610 C608 1.394 . S
C610 C611 1.369 . S
C610 C614 1.531 . S
C611 C610 1.369 . S
C611 C612 1.410 . S
C611 C619 1.503 1_565 S
C612 C611 1.410 . S
C612 C613 1.392 . S
C612 C615 1.511 . S
C613 C609 1.376 . S
C613 C612 1.392 . S
C613 H625 0.929 . S
C614 C610 1.531 . S
C614 H626 0.960 1_565 S
C614 H627 0.962 . S
C614 H628 0.960 . S
C615 C612 1.511 . S
C615 H629 0.961 . S
C615 H630 0.961 . S
C615 H631 0.961 . S
C616 C617 1.370 . S
C616 C618 1.363 . S
C616 H632 0.931 . S
C617 C616 1.370 . S
C617 C621 1.408 . S
C618 C616 1.363 . S
C618 C619 1.370 . S
C618 C622 1.524 . S
C619 C611 1.503 1_545 S
C619 C618 1.370 . S
C619 C620 1.403 . S
C620 C619 1.403 . S
C620 C621 1.404 . S
C620 C623 1.539 . S
C621 C617 1.408 . S
C621 C620 1.404 . S
C621 H633 0.930 . S
C622 C618 1.524 . S
C622 H634 0.956 1_545 S
C622 H635 0.961 1_545 S
C622 H636 0.961 . S
C623 C620 1.539 . S
C623 H637 0.958 . S
C623 H638 0.961 . S
C623 H639 0.960 . S
H624 C608 0.931 . S
H625 C613 0.929 . S
H626 C614 0.960 1_545 S
H627 C614 0.962 . S
H628 C614 0.960 . S
H629 C615 0.961 . S
H630 C615 0.961 . S
H631 C615 0.961 . S
H632 C616 0.931 . S
H633 C621 0.930 . S
H634 C622 0.956 1_565 S
H635 C622 0.961 1_565 S
H636 C622 0.961 . S
H637 C623 0.958 . S
H638 C623 0.961 . S
H639 C623 0.960 . S
C640 C641 1.391 . S
C640 C642 1.394 . S
C640 H656 0.931 . S
C641 C640 1.391 . S
C641 C645 1.376 . S
C642 C640 1.394 . S
C642 C643 1.369 . S
C642 C646 1.531 . S
C643 C642 1.369 . S
C643 C644 1.410 . S
C643 C651 1.503 . S
C644 C643 1.410 . S
C644 C645 1.392 . S
C644 C647 1.511 . S
C645 C641 1.376 . S
C645 C644 1.392 . S
C645 H657 0.929 . S
C646 C642 1.531 . S
C646 H658 0.960 . S
C646 H659 0.962 . S
C646 H660 0.960 . S
C647 C644 1.511 . S
C647 H661 0.961 . S
C647 H662 0.961 . S
C647 H663 0.961 . S
C648 C649 1.370 . S
C648 C650 1.363 . S
C648 H664 0.931 . S
C649 C648 1.370 . S
C649 C653 1.408 . S
C650 C648 1.363 . S
C650 C651 1.370 . S
C650 C654 1.524 . S
C651 C643 1.503 . S
C651 C650 1.370 . S
C651 C652 1.403 . S
C652 C651 1.403 . S
C652 C653 1.404 . S
C652 C655 1.539 . S
C653 C649 1.408 . S
C653 C652 1.404 . S
C653 H665 0.930 . S
C654 C650 1.524 . S
C654 H666 0.956 . S
C654 H667 0.961 . S
C654 H668 0.961 . S
C655 C652 1.539 . S
C655 H669 0.958 . S
C655 H670 0.961 . S
C655 H671 0.960 . S
H656 C640 0.931 . S
H657 C645 0.929 . S
H658 C646 0.960 . S
H659 C646 0.962 . S
H660 C646 0.960 . S
H661 C647 0.961 . S
H662 C647 0.961 . S
H663 C647 0.961 . S
H664 C648 0.931 . S
H665 C653 0.930 . S
H666 C654 0.956 . S
H667 C654 0.961 . S
H668 C654 0.961 . S
H669 C655 0.958 . S
H670 C655 0.961 . S
H671 C655 0.960 . S
C672 C673 1.391 . S
C672 C674 1.394 . S
C672 H688 0.931 . S
C673 C672 1.391 . S
C673 C677 1.376 . S
C674 C672 1.394 . S
C674 C675 1.369 . S
C674 C678 1.582 . S
C675 C674 1.369 . S
C675 C676 1.410 . S
C675 C683 1.503 1_565 S
C676 C675 1.410 . S
C676 C677 1.392 . S
C676 C679 1.511 . S
C677 C673 1.376 . S
C677 C676 1.392 . S
C677 H689 0.929 . S
C678 C674 1.582 . S
C678 H690 0.902 1_565 S
C678 H691 0.944 1_565 S
C678 H692 0.992 . S
C679 C676 1.511 . S
C679 H693 0.961 . S
C679 H694 0.961 . S
C679 H695 0.961 . S
C680 C681 1.370 . S
C680 C682 1.363 . S
C680 H696 0.931 . S
C681 C680 1.370 . S
C681 C685 1.408 . S
C682 C680 1.363 . S
C682 C683 1.370 . S
C682 C686 1.524 . S
C683 C675 1.503 1_545 S
C683 C682 1.370 . S
C683 C684 1.403 . S
C684 C683 1.403 . S
C684 C685 1.404 . S
C684 C687 1.539 . S
C685 C681 1.408 . S
C685 C684 1.404 . S
C685 H697 0.930 . S
C686 C682 1.524 . S
C686 H698 0.956 . S
C686 H699 0.961 1_545 S
C686 H700 0.961 . S
C687 C684 1.539 . S
C687 H701 0.958 . S
C687 H702 0.961 . S
C687 H703 0.890 1_545 S
H688 C672 0.931 . S
H689 C677 0.929 . S
H690 C678 0.902 1_545 S
H691 C678 0.944 1_545 S
H692 C678 0.992 . S
H693 C679 0.961 . S
H694 C679 0.961 . S
H695 C679 0.961 . S
H696 C680 0.931 . S
H697 C685 0.930 . S
H698 C686 0.956 . S
H699 C686 0.961 1_565 S
H700 C686 0.961 . S
H701 C687 0.958 . S
H702 C687 0.961 . S
H703 C687 0.890 1_565 S
C704 C705 1.391 . S
C704 C706 1.394 . S
C704 H720 0.931 . S
C705 C704 1.391 . S
C705 C709 1.376 . S
C706 C704 1.394 . S
C706 C707 1.369 . S
C706 C710 1.531 . S
C707 C706 1.369 . S
C707 C708 1.410 . S
C707 C715 1.503 . S
C708 C707 1.410 . S
C708 C709 1.392 . S
C708 C711 1.511 . S
C709 C705 1.376 . S
C709 C708 1.392 . S
C709 H721 0.929 . S
C710 C706 1.531 . S
C710 H722 0.960 . S
C710 H723 0.962 . S
C710 H724 0.960 . S
C711 C708 1.511 . S
C711 H725 0.961 . S
C711 H726 0.961 . S
C711 H727 0.961 . S
C712 C713 1.370 . S
C712 C714 1.363 . S
C712 H728 0.931 . S
C713 C712 1.370 . S
C713 C717 1.408 . S
C714 C712 1.363 . S
C714 C715 1.370 . S
C714 C718 1.524 . S
C715 C707 1.503 . S
C715 C714 1.370 . S
C715 C716 1.403 . S
C716 C715 1.403 . S
C716 C717 1.404 . S
C716 C719 1.539 . S
C717 C713 1.408 . S
C717 C716 1.404 . S
C717 H729 0.930 . S
C718 C714 1.524 . S
C718 H730 0.956 . S
C718 H731 0.961 . S
C718 H732 0.961 . S
C719 C716 1.539 . S
C719 H733 0.958 . S
C719 H734 0.961 . S
C719 H735 0.960 . S
H720 C704 0.931 . S
H721 C709 0.929 . S
H722 C710 0.960 . S
H723 C710 0.962 . S
H724 C710 0.960 . S
H725 C711 0.961 . S
H726 C711 0.961 . S
H727 C711 0.961 . S
H728 C712 0.931 . S
H729 C717 0.930 . S
H730 C718 0.956 . S
H731 C718 0.961 . S
H732 C718 0.961 . S
H733 C719 0.958 . S
H734 C719 0.961 . S
H735 C719 0.960 . S
C736 C737 1.391 . S
C736 C738 1.394 . S
C736 H752 0.931 . S
C737 C736 1.391 . S
C737 C741 1.376 . S
C738 C736 1.394 . S
C738 C739 1.369 . S
C738 C742 1.531 . S
C739 C738 1.369 . S
C739 C740 1.410 . S
C739 C747 1.503 . S
C740 C739 1.410 . S
C740 C741 1.392 . S
C740 C743 1.511 . S
C741 C737 1.376 . S
C741 C740 1.392 . S
C741 H753 0.929 . S
C742 C738 1.531 . S
C742 H754 0.960 . S
C742 H755 0.962 . S
C742 H756 0.960 . S
C743 C740 1.511 . S
C743 H757 0.961 . S
C743 H758 0.961 . S
C743 H759 0.961 . S
C744 C745 1.370 . S
C744 C746 1.363 . S
C744 H760 0.931 . S
C745 C744 1.370 . S
C745 C749 1.408 . S
C746 C744 1.363 . S
C746 C747 1.370 . S
C746 C750 1.524 . S
C747 C739 1.503 . S
C747 C746 1.370 . S
C747 C748 1.403 . S
C748 C747 1.403 . S
C748 C749 1.404 . S
C748 C751 1.539 . S
C749 C745 1.408 . S
C749 C748 1.404 . S
C749 H761 0.930 . S
C750 C746 1.524 . S
C750 H762 0.956 . S
C750 H763 0.961 . S
C750 H764 0.961 . S
C751 C748 1.539 . S
C751 H765 0.958 . S
C751 H766 0.961 . S
C751 H767 0.960 . S
H752 C736 0.931 . S
H753 C741 0.929 . S
H754 C742 0.960 . S
H755 C742 0.962 . S
H756 C742 0.960 . S
H757 C743 0.961 . S
H758 C743 0.961 . S
H759 C743 0.961 . S
H760 C744 0.931 . S
H761 C749 0.930 . S
H762 C750 0.956 . S
H763 C750 0.961 . S
H764 C750 0.961 . S
H765 C751 0.958 . S
H766 C751 0.961 . S
H767 C751 0.960 . S
C768 C769 1.391 1_554 S
C768 C770 1.394 . S
C768 H784 0.931 . S
C769 C768 1.391 1_556 S
C769 C773 1.376 . S
C770 C768 1.394 . S
C770 C771 1.369 1_554 S
C770 C774 1.531 . S
C771 C770 1.369 1_556 S
C771 C772 1.410 . S
C771 C779 1.503 1_556 S
C772 C771 1.410 . S
C772 C773 1.392 . S
C772 C775 1.511 . S
C773 C769 1.376 . S
C773 C772 1.392 . S
C773 H785 0.929 . S
C774 C770 1.531 . S
C774 H786 0.960 . S
C774 H787 0.962 . S
C774 H788 0.960 . S
C775 C772 1.511 . S
C775 H789 0.961 . S
C775 H790 0.961 . S
C775 H791 0.961 . S
C776 C777 1.370 . S
C776 C778 1.363 . S
C776 H792 0.931 . S
C777 C776 1.370 . S
C777 C781 1.408 . S
C778 C776 1.363 . S
C778 C779 1.370 . S
C778 C782 1.524 . S
C779 C771 1.503 1_554 S
C779 C778 1.370 . S
C779 C780 1.403 1_554 S
C780 C779 1.403 1_556 S
C780 C781 1.404 1_556 S
C780 C783 1.539 . S
C781 C777 1.408 . S
C781 C780 1.404 1_554 S
C781 H793 0.929 . S
C782 C778 1.524 . S
C782 H794 0.956 . S
C782 H795 0.961 . S
C782 H796 0.961 . S
C783 C780 1.539 . S
C783 H797 0.958 . S
C783 H798 0.961 . S
C783 H799 0.960 . S
H784 C768 0.931 . S
H785 C773 0.929 . S
H786 C774 0.960 . S
H787 C774 0.962 . S
H788 C774 0.960 . S
H789 C775 0.961 . S
H790 C775 0.961 . S
H791 C775 0.961 . S
H792 C776 0.931 . S
H793 C781 0.929 . S
H794 C782 0.956 . S
H795 C782 0.961 . S
H796 C782 0.961 . S
H797 C783 0.958 . S
H798 C783 0.961 . S
H799 C783 0.960 . S
C800 C801 1.391 . S
C800 C802 1.394 . S
C800 H816 0.931 . S
C801 C800 1.391 . S
C801 C805 1.376 . S
C802 C800 1.394 . S
C802 C803 1.369 . S
C802 C806 1.531 . S
C803 C802 1.369 . S
C803 C804 1.410 . S
C803 C811 1.503 . S
C804 C803 1.410 . S
C804 C805 1.392 . S
C804 C807 1.511 . S
C805 C801 1.376 . S
C805 C804 1.392 . S
C805 H817 0.929 . S
C806 C802 1.531 . S
C806 H818 0.960 . S
C806 H819 0.962 . S
C806 H820 0.960 . S
C807 C804 1.511 . S
C807 H821 0.961 . S
C807 H822 0.961 . S
C807 H823 0.961 . S
C808 C809 1.370 . S
C808 C810 1.363 . S
C808 H824 0.931 . S
C809 C808 1.370 . S
C809 C813 1.408 . S
C810 C808 1.363 . S
C810 C811 1.370 . S
C810 C814 1.524 . S
C811 C803 1.503 . S
C811 C810 1.370 . S
C811 C812 1.403 . S
C812 C811 1.403 . S
C812 C813 1.404 . S
C812 C815 1.539 . S
C813 C809 1.408 . S
C813 C812 1.404 . S
C813 H825 0.930 . S
C814 C810 1.524 . S
C814 H826 0.956 . S
C814 H827 0.961 . S
C814 H828 0.961 . S
C815 C812 1.539 . S
C815 H829 0.958 . S
C815 H830 0.961 . S
C815 H831 0.960 . S
H816 C800 0.931 . S
H817 C805 0.929 . S
H818 C806 0.960 . S
H819 C806 0.962 . S
H820 C806 0.960 . S
H821 C807 0.961 . S
H822 C807 0.961 . S
H823 C807 0.961 . S
H824 C808 0.931 . S
H825 C813 0.930 . S
H826 C814 0.956 . S
H827 C814 0.961 . S
H828 C814 0.961 . S
H829 C815 0.958 . S
H830 C815 0.961 . S
H831 C815 0.960 . S
C832 C833 1.391 . S
C832 C834 1.394 . S
C832 H848 0.931 . S
C833 C832 1.391 . S
C833 C837 1.376 . S
C834 C832 1.394 . S
C834 C835 1.369 . S
C834 C838 1.531 . S
C835 C834 1.369 . S
C835 C836 1.410 . S
C835 C843 1.503 . S
C836 C835 1.410 . S
C836 C837 1.392 . S
C836 C839 1.511 . S
C837 C833 1.376 . S
C837 C836 1.392 . S
C837 H849 0.929 . S
C838 C834 1.531 . S
C838 H850 0.960 . S
C838 H851 0.962 . S
C838 H852 0.960 . S
C839 C836 1.511 . S
C839 H853 0.961 . S
C839 H854 0.961 . S
C839 H855 0.961 . S
C840 C841 1.370 . S
C840 C842 1.363 . S
C840 H856 0.931 . S
C841 C840 1.370 . S
C841 C845 1.408 . S
C842 C840 1.363 . S
C842 C843 1.370 . S
C842 C846 1.524 . S
C843 C835 1.503 . S
C843 C842 1.370 . S
C843 C844 1.403 . S
C844 C843 1.403 . S
C844 C845 1.404 . S
C844 C847 1.539 . S
C845 C841 1.408 . S
C845 C844 1.404 . S
C845 H857 0.930 . S
C846 C842 1.524 . S
C846 H858 0.956 . S
C846 H859 0.961 . S
C846 H860 0.961 . S
C847 C844 1.539 . S
C847 H861 0.958 . S
C847 H862 0.961 . S
C847 H863 0.960 . S
H848 C832 0.931 . S
H849 C837 0.929 . S
H850 C838 0.960 . S
H851 C838 0.962 . S
H852 C838 0.960 . S
H853 C839 0.961 . S
H854 C839 0.961 . S
H855 C839 0.961 . S
H856 C840 0.931 . S
H857 C845 0.930 . S
H858 C846 0.956 . S
H859 C846 0.961 . S
H860 C846 0.961 . S
H861 C847 0.958 . S
H862 C847 0.961 . S
H863 C847 0.960 . S
C864 C865 1.391 . S
C864 C866 1.394 . S
C864 H880 0.931 . S
C865 C864 1.391 . S
C865 C869 1.376 . S
C866 C864 1.394 . S
C866 C867 1.369 . S
C866 C870 1.531 . S
C867 C866 1.369 . S
C867 C868 1.410 . S
C867 C875 1.503 . S
C868 C867 1.410 . S
C868 C869 1.392 . S
C868 C871 1.511 . S
C869 C865 1.376 . S
C869 C868 1.392 . S
C869 H881 0.929 . S
C870 C866 1.531 . S
C870 H882 0.960 . S
C870 H883 0.962 . S
C870 H884 0.960 . S
C871 C868 1.511 . S
C871 H885 0.961 . S
C871 H886 0.961 . S
C871 H887 0.961 . S
C872 C873 1.370 . S
C872 C874 1.363 . S
C872 H888 0.931 . S
C873 C872 1.370 . S
C873 C877 1.408 . S
C874 C872 1.363 . S
C874 C875 1.370 . S
C874 C878 1.524 . S
C875 C867 1.503 . S
C875 C874 1.370 . S
C875 C876 1.403 . S
C876 C875 1.403 . S
C876 C877 1.404 . S
C876 C879 1.539 . S
C877 C873 1.408 . S
C877 C876 1.404 . S
C877 H889 0.930 . S
C878 C874 1.524 . S
C878 H890 0.956 . S
C878 H891 0.961 . S
C878 H892 0.961 . S
C879 C876 1.539 . S
C879 H893 0.958 . S
C879 H894 0.961 . S
C879 H895 0.960 . S
H880 C864 0.931 . S
H881 C869 0.929 . S
H882 C870 0.960 . S
H883 C870 0.962 . S
H884 C870 0.960 . S
H885 C871 0.961 . S
H886 C871 0.961 . S
H887 C871 0.961 . S
H888 C872 0.931 . S
H889 C877 0.930 . S
H890 C878 0.956 . S
H891 C878 0.961 . S
H892 C878 0.961 . S
H893 C879 0.958 . S
H894 C879 0.961 . S
H895 C879 0.960 . S
C896 C897 1.391 . S
C896 C898 1.394 . S
C896 H912 0.931 . S
C897 C896 1.391 . S
C897 C901 1.376 1_554 S
C898 C896 1.394 . S
C898 C899 1.369 . S
C898 C902 1.531 . S
C899 C898 1.369 . S
C899 C900 1.410 1_554 S
C899 C907 1.503 1_554 S
C900 C899 1.410 1_556 S
C900 C901 1.392 . S
C900 C903 1.511 . S
C901 C897 1.376 1_556 S
C901 C900 1.392 . S
C901 H913 0.929 . S
C902 C898 1.531 . S
C902 H914 0.960 . S
C902 H915 0.962 . S
C902 H916 0.960 . S
C903 C900 1.511 . S
C903 H917 0.961 . S
C903 H918 0.961 . S
C903 H919 0.961 . S
C904 C905 1.370 . S
C904 C906 1.363 . S
C904 H920 0.931 . S
C905 C904 1.370 . S
C905 C909 1.408 1_556 S
C906 C904 1.363 . S
C906 C907 1.370 . S
C906 C910 1.524 . S
C907 C899 1.503 1_556 S
C907 C906 1.370 . S
C907 C908 1.403 1_556 S
C908 C907 1.403 1_554 S
C908 C909 1.404 . S
C908 C911 1.539 . S
C909 C905 1.408 1_554 S
C909 C908 1.404 . S
C909 H921 0.930 . S
C910 C906 1.524 . S
C910 H922 0.956 . S
C910 H923 0.961 . S
C910 H924 0.961 . S
C911 C908 1.539 . S
C911 H925 0.958 . S
C911 H926 0.961 . S
C911 H927 0.960 . S
H912 C896 0.931 . S
H913 C901 0.929 . S
H914 C902 0.960 . S
H915 C902 0.962 . S
H916 C902 0.960 . S
H917 C903 0.961 . S
H918 C903 0.961 . S
H919 C903 0.961 . S
H920 C904 0.931 . S
H921 C909 0.930 . S
H922 C910 0.956 . S
H923 C910 0.961 . S
H924 C910 0.961 . S
H925 C911 0.958 . S
H926 C911 0.961 . S
H927 C911 0.960 . S
C928 C929 1.391 . S
C928 C930 1.394 . S
C928 H944 0.931 . S
C929 C928 1.391 . S
C929 C933 1.376 . S
C930 C928 1.394 . S
C930 C931 1.369 . S
C930 C934 1.531 . S
C931 C930 1.369 . S
C931 C932 1.410 . S
C931 C939 1.503 . S
C932 C931 1.410 . S
C932 C933 1.392 . S
C932 C935 1.511 . S
C933 C929 1.376 . S
C933 C932 1.392 . S
C933 H945 0.929 . S
C934 C930 1.531 . S
C934 H946 0.960 . S
C934 H947 0.962 . S
C934 H948 0.960 . S
C935 C932 1.511 . S
C935 H949 0.961 . S
C935 H950 0.961 . S
C935 H951 0.961 . S
C936 C937 1.370 . S
C936 C938 1.363 . S
C936 H952 0.931 . S
C937 C936 1.370 . S
C937 C941 1.408 . S
C938 C936 1.363 . S
C938 C939 1.370 . S
C938 C942 1.524 . S
C939 C931 1.503 . S
C939 C938 1.370 . S
C939 C940 1.403 . S
C940 C939 1.403 . S
C940 C941 1.404 . S
C940 C943 1.539 . S
C941 C937 1.408 . S
C941 C940 1.404 . S
C941 H953 0.930 . S
C942 C938 1.524 . S
C942 H954 0.956 . S
C942 H955 0.961 . S
C942 H956 0.961 . S
C943 C940 1.539 . S
C943 H957 0.958 . S
C943 H958 0.961 . S
C943 H959 0.960 . S
H944 C928 0.931 . S
H945 C933 0.929 . S
H946 C934 0.960 . S
H947 C934 0.962 . S
H948 C934 0.960 . S
H949 C935 0.961 . S
H950 C935 0.961 . S
H951 C935 0.961 . S
H952 C936 0.931 . S
H953 C941 0.930 . S
H954 C942 0.956 . S
H955 C942 0.961 . S
H956 C942 0.961 . S
H957 C943 0.958 . S
H958 C943 0.961 . S
H959 C943 0.960 . S
C960 C961 1.391 . S
C960 C962 1.394 . S
C960 H976 0.931 . S
C961 C960 1.391 . S
C961 C965 1.376 . S
C962 C960 1.394 . S
C962 C963 1.369 . S
C962 C966 1.531 . S
C963 C962 1.369 . S
C963 C964 1.410 . S
C963 C971 1.503 . S
C964 C963 1.410 . S
C964 C965 1.392 . S
C964 C967 1.511 . S
C965 C961 1.376 . S
C965 C964 1.392 . S
C965 H977 0.929 . S
C966 C962 1.531 . S
C966 H978 0.960 . S
C966 H979 0.962 . S
C966 H980 0.960 . S
C967 C964 1.511 . S
C967 H981 0.961 . S
C967 H982 0.961 . S
C967 H983 0.961 . S
C968 C969 1.370 . S
C968 C970 1.363 . S
C968 H984 0.931 . S
C969 C968 1.370 . S
C969 C973 1.408 . S
C970 C968 1.363 . S
C970 C971 1.370 . S
C970 C974 1.524 . S
C971 C963 1.503 . S
C971 C970 1.370 . S
C971 C972 1.403 . S
C972 C971 1.403 . S
C972 C973 1.404 . S
C972 C975 1.539 . S
C973 C969 1.408 . S
C973 C972 1.404 . S
C973 H985 0.930 . S
C974 C970 1.524 . S
C974 H986 0.956 . S
C974 H987 0.961 . S
C974 H988 0.961 . S
C975 C972 1.539 . S
C975 H989 0.958 . S
C975 H990 0.961 . S
C975 H991 0.960 . S
H976 C960 0.931 . S
H977 C965 0.929 . S
H978 C966 0.960 . S
H979 C966 0.962 . S
H980 C966 0.960 . S
H981 C967 0.961 . S
H982 C967 0.961 . S
H983 C967 0.961 . S
H984 C968 0.931 . S
H985 C973 0.930 . S
H986 C974 0.956 . S
H987 C974 0.961 . S
H988 C974 0.961 . S
H989 C975 0.958 . S
H990 C975 0.961 . S
H991 C975 0.960 . S
C992 C993 1.391 . S
C992 C994 1.394 . S
C992 H1008 0.931 . S
C993 C992 1.391 . S
C993 C997 1.376 . S
C994 C992 1.394 . S
C994 C995 1.369 1_556 S
C994 C998 1.531 1_455 S
C995 C994 1.369 1_554 S
C995 C996 1.410 . S
C995 C1003 1.503 1_455 S
C996 C995 1.410 . S
C996 C997 1.392 1_554 S
C996 C999 1.511 . S
C997 C993 1.376 . S
C997 C996 1.392 1_556 S
C997 H1009 0.929 . S
C998 C994 1.531 1_655 S
C998 H1010 0.960 . S
C998 H1011 0.962 . S
C998 H1012 0.960 . S
C999 C996 1.511 . S
C999 H1013 0.961 . S
C999 H1014 0.961 . S
C999 H1015 0.961 . S
C1000 C1001 1.370 . S
C1000 C1002 1.363 . S
C1000 H1016 0.931 . S
C1001 C1000 1.370 . S
C1001 C1005 1.408 . S
C1002 C1000 1.363 . S
C1002 C1003 1.370 . S
C1002 C1006 1.524 . S
C1003 C995 1.503 1_655 S
C1003 C1002 1.370 . S
C1003 C1004 1.403 . S
C1004 C1003 1.403 . S
C1004 C1005 1.404 . S
C1004 C1007 1.539 1_655 S
C1005 C1001 1.408 . S
C1005 C1004 1.404 . S
C1005 H1017 0.930 . S
C1006 C1002 1.524 . S
C1006 H1018 0.956 . S
C1006 H1019 0.961 . S
C1006 H1020 0.961 . S
C1007 C1004 1.539 1_455 S
C1007 H1021 0.958 . S
C1007 H1022 0.961 . S
C1007 H1023 0.960 . S
H1008 C992 0.931 . S
H1009 C997 0.929 . S
H1010 C998 0.960 . S
H1011 C998 0.962 . S
H1012 C998 0.960 . S
H1013 C999 0.961 . S
H1014 C999 0.961 . S
H1015 C999 0.961 . S
H1016 C1000 0.931 . S
H1017 C1005 0.930 . S
H1018 C1006 0.956 . S
H1019 C1006 0.961 . S
H1020 C1006 0.961 . S
H1021 C1007 0.958 . S
H1022 C1007 0.961 . S
H1023 C1007 0.960 . S
C1024 C1025 1.391 . S
C1024 C1026 1.394 . S
C1024 H1040 0.931 . S
C1025 C1024 1.391 . S
C1025 C1029 1.376 . S
C1026 C1024 1.394 . S
C1026 C1027 1.369 . S
C1026 C1030 1.531 . S
C1027 C1026 1.369 . S
C1027 C1028 1.410 . S
C1027 C1035 1.503 . S
C1028 C1027 1.410 . S
C1028 C1029 1.392 . S
C1028 C1031 1.511 . S
C1029 C1025 1.376 . S
C1029 C1028 1.392 . S
C1029 H1041 0.929 . S
C1030 C1026 1.531 . S
C1030 H1042 0.960 . S
C1030 H1043 0.962 . S
C1030 H1044 0.960 . S
C1031 C1028 1.511 . S
C1031 H1045 0.961 . S
C1031 H1046 0.961 . S
C1031 H1047 0.961 . S
C1032 C1033 1.370 . S
C1032 C1034 1.363 . S
C1032 H1048 0.931 . S
C1033 C1032 1.370 . S
C1033 C1037 1.408 . S
C1034 C1032 1.363 . S
C1034 C1035 1.370 . S
C1034 C1038 1.524 . S
C1035 C1027 1.503 . S
C1035 C1034 1.370 . S
C1035 C1036 1.403 . S
C1036 C1035 1.403 . S
C1036 C1037 1.404 . S
C1036 C1039 1.539 . S
C1037 C1033 1.408 . S
C1037 C1036 1.404 . S
C1037 H1049 0.930 . S
C1038 C1034 1.524 . S
C1038 H1050 0.956 . S
C1038 H1051 0.961 . S
C1038 H1052 0.961 . S
C1039 C1036 1.539 . S
C1039 H1053 0.958 . S
C1039 H1054 0.961 . S
C1039 H1055 0.960 . S
H1040 C1024 0.931 . S
H1041 C1029 0.929 . S
H1042 C1030 0.960 . S
H1043 C1030 0.962 . S
H1044 C1030 0.960 . S
H1045 C1031 0.961 . S
H1046 C1031 0.961 . S
H1047 C1031 0.961 . S
H1048 C1032 0.931 . S
H1049 C1037 0.930 . S
H1050 C1038 0.956 . S
H1051 C1038 0.961 . S
H1052 C1038 0.961 . S
H1053 C1039 0.958 . S
H1054 C1039 0.961 . S
H1055 C1039 0.960 . S
C1056 C1057 1.391 . S
C1056 C1058 1.394 . S
C1056 H1072 0.931 . S
C1057 C1056 1.391 . S
C1057 C1061 1.376 . S
C1058 C1056 1.394 . S
C1058 C1059 1.369 . S
C1058 C1062 1.531 . S
C1059 C1058 1.369 . S
C1059 C1060 1.410 . S
C1059 C1067 1.503 . S
C1060 C1059 1.410 . S
C1060 C1061 1.392 . S
C1060 C1063 1.511 . S
C1061 C1057 1.376 . S
C1061 C1060 1.392 . S
C1061 H1073 0.929 . S
C1062 C1058 1.531 . S
C1062 H1074 0.960 . S
C1062 H1075 0.962 . S
C1062 H1076 0.960 . S
C1063 C1060 1.511 . S
C1063 H1077 0.961 . S
C1063 H1078 0.961 . S
C1063 H1079 0.961 . S
C1064 C1065 1.370 . S
C1064 C1066 1.363 . S
C1064 H1080 0.931 . S
C1065 C1064 1.370 . S
C1065 C1069 1.408 . S
C1066 C1064 1.363 . S
C1066 C1067 1.370 . S
C1066 C1070 1.524 . S
C1067 C1059 1.503 . S
C1067 C1066 1.370 . S
C1067 C1068 1.403 . S
C1068 C1067 1.403 . S
C1068 C1069 1.404 . S
C1068 C1071 1.539 . S
C1069 C1065 1.408 . S
C1069 C1068 1.404 . S
C1069 H1081 0.930 . S
C1070 C1066 1.524 . S
C1070 H1082 0.956 . S
C1070 H1083 0.961 . S
C1070 H1084 0.961 . S
C1071 C1068 1.539 . S
C1071 H1085 0.958 . S
C1071 H1086 0.961 . S
C1071 H1087 0.960 . S
H1072 C1056 0.931 . S
H1073 C1061 0.929 . S
H1074 C1062 0.960 . S
H1075 C1062 0.962 . S
H1076 C1062 0.960 . S
H1077 C1063 0.961 . S
H1078 C1063 0.961 . S
H1079 C1063 0.961 . S
H1080 C1064 0.931 . S
H1081 C1069 0.930 . S
H1082 C1070 0.956 . S
H1083 C1070 0.961 . S
H1084 C1070 0.961 . S
H1085 C1071 0.958 . S
H1086 C1071 0.961 . S
H1087 C1071 0.960 . S
C1088 C1089 1.391 . S
C1088 C1090 1.394 . S
C1088 H1104 0.931 . S
C1089 C1088 1.391 . S
C1089 C1093 1.376 . S
C1090 C1088 1.394 . S
C1090 C1091 1.369 . S
C1090 C1094 1.531 . S
C1091 C1090 1.369 . S
C1091 C1092 1.410 . S
C1091 C1099 1.503 . S
C1092 C1091 1.410 . S
C1092 C1093 1.392 . S
C1092 C1095 1.511 . S
C1093 C1089 1.376 . S
C1093 C1092 1.392 . S
C1093 H1105 0.929 . S
C1094 C1090 1.531 . S
C1094 H1106 0.960 . S
C1094 H1107 0.962 . S
C1094 H1108 0.960 . S
C1095 C1092 1.511 . S
C1095 H1109 0.961 . S
C1095 H1110 0.961 . S
C1095 H1111 0.961 . S
C1096 C1097 1.370 . S
C1096 C1098 1.363 . S
C1096 H1112 0.931 . S
C1097 C1096 1.370 . S
C1097 C1101 1.408 . S
C1098 C1096 1.363 . S
C1098 C1099 1.370 . S
C1098 C1102 1.524 . S
C1099 C1091 1.503 . S
C1099 C1098 1.370 . S
C1099 C1100 1.403 . S
C1100 C1099 1.403 . S
C1100 C1101 1.404 . S
C1100 C1103 1.539 . S
C1101 C1097 1.408 . S
C1101 C1100 1.404 . S
C1101 H1113 0.930 . S
C1102 C1098 1.524 . S
C1102 H1114 0.956 . S
C1102 H1115 0.961 . S
C1102 H1116 0.961 . S
C1103 C1100 1.539 . S
C1103 H1117 0.958 . S
C1103 H1118 0.961 . S
C1103 H1119 0.960 . S
H1104 C1088 0.931 . S
H1105 C1093 0.929 . S
H1106 C1094 0.960 . S
H1107 C1094 0.962 . S
H1108 C1094 0.960 . S
H1109 C1095 0.961 . S
H1110 C1095 0.961 . S
H1111 C1095 0.961 . S
H1112 C1096 0.931 . S
H1113 C1101 0.930 . S
H1114 C1102 0.956 . S
H1115 C1102 0.961 . S
H1116 C1102 0.961 . S
H1117 C1103 0.958 . S
H1118 C1103 0.961 . S
H1119 C1103 0.960 . S
C1120 C1121 1.391 . S
C1120 C1122 1.394 . S
C1120 H1136 0.931 . S
C1121 C1120 1.391 . S
C1121 C1125 1.376 . S
C1122 C1120 1.394 . S
C1122 C1123 1.369 1_554 S
C1122 C1126 1.531 . S
C1123 C1122 1.369 1_556 S
C1123 C1124 1.410 . S
C1123 C1131 1.503 . S
C1124 C1123 1.410 . S
C1124 C1125 1.392 1_556 S
C1124 C1127 1.511 . S
C1125 C1121 1.376 . S
C1125 C1124 1.392 1_554 S
C1125 H1137 0.929 . S
C1126 C1122 1.531 . S
C1126 H1138 0.960 . S
C1126 H1139 0.962 . S
C1126 H1140 0.960 . S
C1127 C1124 1.511 . S
C1127 H1141 0.961 . S
C1127 H1142 0.961 . S
C1127 H1143 0.961 . S
C1128 C1129 1.370 . S
C1128 C1130 1.363 . S
C1128 H1144 0.931 . S
C1129 C1128 1.370 . S
C1129 C1133 1.408 . S
C1130 C1128 1.363 . S
C1130 C1131 1.370 . S
C1130 C1134 1.524 . S
C1131 C1123 1.503 . S
C1131 C1130 1.370 . S
C1131 C1132 1.403 . S
C1132 C1131 1.403 . S
C1132 C1133 1.404 . S
C1132 C1135 1.539 . S
C1133 C1129 1.408 . S
C1133 C1132 1.404 . S
C1133 H1145 0.930 . S
C1134 C1130 1.524 . S
C1134 H1146 0.956 . S
C1134 H1147 0.961 . S
C1134 H1148 0.961 . S
C1135 C1132 1.539 . S
C1135 H1149 0.958 . S
C1135 H1150 0.961 . S
C1135 H1151 0.960 . S
H1136 C1120 0.931 . S
H1137 C1125 0.929 . S
H1138 C1126 0.960 . S
H1139 C1126 0.962 . S
H1140 C1126 0.960 . S
H1141 C1127 0.961 . S
H1142 C1127 0.961 . S
H1143 C1127 0.961 . S
H1144 C1128 0.931 . S
H1145 C1133 0.930 . S
H1146 C1134 0.956 . S
H1147 C1134 0.961 . S
H1148 C1134 0.961 . S
H1149 C1135 0.958 . S
H1150 C1135 0.961 . S
H1151 C1135 0.960 . S
C1152 C1153 1.391 . S
C1152 C1154 1.394 . S
C1152 H1168 0.931 . S
C1153 C1152 1.391 . S
C1153 C1157 1.376 . S
C1154 C1152 1.394 . S
C1154 C1155 1.369 . S
C1154 C1158 1.531 . S
C1155 C1154 1.369 . S
C1155 C1156 1.410 . S
C1155 C1163 1.503 . S
C1156 C1155 1.410 . S
C1156 C1157 1.392 . S
C1156 C1159 1.511 . S
C1157 C1153 1.376 . S
C1157 C1156 1.392 . S
C1157 H1169 0.929 . S
C1158 C1154 1.531 . S
C1158 H1170 0.960 . S
C1158 H1171 0.962 . S
C1158 H1172 0.960 . S
C1159 C1156 1.511 . S
C1159 H1173 0.961 . S
C1159 H1174 0.961 . S
C1159 H1175 0.961 . S
C1160 C1161 1.370 . S
C1160 C1162 1.363 . S
C1160 H1176 0.931 . S
C1161 C1160 1.370 . S
C1161 C1165 1.408 . S
C1162 C1160 1.363 . S
C1162 C1163 1.370 . S
C1162 C1166 1.524 . S
C1163 C1155 1.503 . S
C1163 C1162 1.370 . S
C1163 C1164 1.403 . S
C1164 C1163 1.403 . S
C1164 C1165 1.404 . S
C1164 C1167 1.539 . S
C1165 C1161 1.408 . S
C1165 C1164 1.404 . S
C1165 H1177 0.930 . S
C1166 C1162 1.524 . S
C1166 H1178 0.956 . S
C1166 H1179 0.961 . S
C1166 H1180 0.961 . S
C1167 C1164 1.539 . S
C1167 H1181 0.958 . S
C1167 H1182 0.961 . S
C1167 H1183 0.960 . S
H1168 C1152 0.931 . S
H1169 C1157 0.929 . S
H1170 C1158 0.960 . S
H1171 C1158 0.962 . S
H1172 C1158 0.960 . S
H1173 C1159 0.961 . S
H1174 C1159 0.961 . S
H1175 C1159 0.961 . S
H1176 C1160 0.931 . S
H1177 C1165 0.930 . S
H1178 C1166 0.956 . S
H1179 C1166 0.961 . S
H1180 C1166 0.961 . S
H1181 C1167 0.958 . S
H1182 C1167 0.961 . S
H1183 C1167 0.960 . S
C1184 C1185 1.391 . S
C1184 C1186 1.373 1_455 S
C1184 H1200 0.931 . S
C1185 C1184 1.391 . S
C1185 C1189 1.376 . S
C1186 C1184 1.373 1_655 S
C1186 C1187 1.355 1_655 S
C1186 C1190 1.566 . S
C1187 C1186 1.355 1_455 S
C1187 C1188 1.410 . S
C1187 C1195 1.503 1_455 S
C1188 C1187 1.410 . S
C1188 C1189 1.392 . S
C1188 C1191 1.511 . S
C1189 C1185 1.376 . S
C1189 C1188 1.392 . S
C1189 H1201 0.929 . S
C1190 C1186 1.566 . S
C1190 H1202 0.960 . S
C1190 H1203 0.962 . S
C1190 H1204 0.960 . S
C1191 C1188 1.511 . S
C1191 H1205 0.961 . S
C1191 H1206 0.961 . S
C1191 H1207 0.961 . S
C1192 C1193 1.370 . S
C1192 C1194 1.363 . S
C1192 H1208 0.931 . S
C1193 C1192 1.370 . S
C1193 C1197 1.408 . S
C1194 C1192 1.363 . S
C1194 C1195 1.370 . S
C1194 C1198 1.524 . S
C1195 C1187 1.503 1_655 S
C1195 C1194 1.370 . S
C1195 C1196 1.403 . S
C1196 C1195 1.403 . S
C1196 C1197 1.404 . S
C1196 C1199 1.571 . S
C1197 C1193 1.408 . S
C1197 C1196 1.404 . S
C1197 H1209 0.930 . S
C1198 C1194 1.524 . S
C1198 H1210 0.956 . S
C1198 H1211 0.961 1_655 S
C1198 H1212 0.961 . S
C1199 C1196 1.571 . S
C1199 H1213 1.003 . S
C1199 H1214 0.952 1_655 S
C1199 H1215 0.897 1_655 S
H1200 C1184 0.931 . S
H1201 C1189 0.929 . S
H1202 C1190 0.960 . S
H1203 C1190 0.962 . S
H1204 C1190 0.960 . S
H1205 C1191 0.961 . S
H1206 C1191 0.961 . S
H1207 C1191 0.961 . S
H1208 C1192 0.931 . S
H1209 C1197 0.930 . S
H1210 C1198 0.956 . S
H1211 C1198 0.961 1_455 S
H1212 C1198 0.961 . S
H1213 C1199 1.003 . S
H1214 C1199 0.952 1_455 S
H1215 C1199 0.897 1_455 S
C1216 C1217 1.391 . S
C1216 C1218 1.394 . S
C1216 H1232 0.931 . S
C1217 C1216 1.391 . S
C1217 C1221 1.376 . S
C1218 C1216 1.394 . S
C1218 C1219 1.369 . S
C1218 C1222 1.531 . S
C1219 C1218 1.369 . S
C1219 C1220 1.410 . S
C1219 C1227 1.503 . S
C1220 C1219 1.410 . S
C1220 C1221 1.392 . S
C1220 C1223 1.511 . S
C1221 C1217 1.376 . S
C1221 C1220 1.392 . S
C1221 H1233 0.929 . S
C1222 C1218 1.531 . S
C1222 H1234 0.960 . S
C1222 H1235 0.962 . S
C1222 H1236 0.960 . S
C1223 C1220 1.511 . S
C1223 H1237 0.961 . S
C1223 H1238 0.961 . S
C1223 H1239 0.961 . S
C1224 C1225 1.370 . S
C1224 C1226 1.363 . S
C1224 H1240 0.931 . S
C1225 C1224 1.370 . S
C1225 C1229 1.408 . S
C1226 C1224 1.363 . S
C1226 C1227 1.370 . S
C1226 C1230 1.524 . S
C1227 C1219 1.503 . S
C1227 C1226 1.370 . S
C1227 C1228 1.403 . S
C1228 C1227 1.403 . S
C1228 C1229 1.404 . S
C1228 C1231 1.539 . S
C1229 C1225 1.408 . S
C1229 C1228 1.404 . S
C1229 H1241 0.930 . S
C1230 C1226 1.524 . S
C1230 H1242 0.956 . S
C1230 H1243 0.961 . S
C1230 H1244 0.961 . S
C1231 C1228 1.539 . S
C1231 H1245 0.958 . S
C1231 H1246 0.961 . S
C1231 H1247 0.960 . S
H1232 C1216 0.931 . S
H1233 C1221 0.929 . S
H1234 C1222 0.960 . S
H1235 C1222 0.962 . S
H1236 C1222 0.960 . S
H1237 C1223 0.961 . S
H1238 C1223 0.961 . S
H1239 C1223 0.961 . S
H1240 C1224 0.931 . S
H1241 C1229 0.930 . S
H1242 C1230 0.956 . S
H1243 C1230 0.961 . S
H1244 C1230 0.961 . S
H1245 C1231 0.958 . S
H1246 C1231 0.961 . S
H1247 C1231 0.960 . S
C1248 C1249 1.391 . S
C1248 C1250 1.394 1_655 S
C1248 H1264 0.931 . S
C1249 C1248 1.391 . S
C1249 C1253 1.376 . S
C1250 C1248 1.394 1_455 S
C1250 C1251 1.369 1_454 S
C1250 C1254 1.531 . S
C1251 C1250 1.369 1_656 S
C1251 C1252 1.410 . S
C1251 C1259 1.503 1_655 S
C1252 C1251 1.410 . S
C1252 C1253 1.392 1_556 S
C1252 C1255 1.511 . S
C1253 C1249 1.376 . S
C1253 C1252 1.392 1_554 S
C1253 H1265 0.929 . S
C1254 C1250 1.531 . S
C1254 H1266 0.960 . S
C1254 H1267 0.962 . S
C1254 H1268 0.960 . S
C1255 C1252 1.511 . S
C1255 H1269 0.961 . S
C1255 H1270 0.961 . S
C1255 H1271 0.961 . S
C1256 C1257 1.370 . S
C1256 C1258 1.363 . S
C1256 H1272 0.931 . S
C1257 C1256 1.370 . S
C1257 C1261 1.408 . S
C1258 C1256 1.363 . S
C1258 C1259 1.370 . S
C1258 C1262 1.524 . S
C1259 C1251 1.503 1_455 S
C1259 C1258 1.370 . S
C1259 C1260 1.403 . S
C1260 C1259 1.403 . S
C1260 C1261 1.404 . S
C1260 C1263 1.539 . S
C1261 C1257 1.408 . S
C1261 C1260 1.404 . S
C1261 H1273 0.930 . S
C1262 C1258 1.524 . S
C1262 H1274 0.956 . S
C1262 H1275 0.961 1_455 S
C1262 H1276 0.961 . S
C1263 C1260 1.539 . S
C1263 H1277 0.958 . S
C1263 H1278 0.961 . S
C1263 H1279 0.960 1_455 S
H1264 C1248 0.931 . S
H1265 C1253 0.929 . S
H1266 C1254 0.960 . S
H1267 C1254 0.962 . S
H1268 C1254 0.960 . S
H1269 C1255 0.961 . S
H1270 C1255 0.961 . S
H1271 C1255 0.961 . S
H1272 C1256 0.931 . S
H1273 C1261 0.930 . S
H1274 C1262 0.956 . S
H1275 C1262 0.961 1_655 S
H1276 C1262 0.961 . S
H1277 C1263 0.958 . S
H1278 C1263 0.961 . S
H1279 C1263 0.960 1_655 S
C1280 C1281 1.391 . S
C1280 C1282 1.394 . S
C1280 H1296 0.931 . S
C1281 C1280 1.391 . S
C1281 C1285 1.376 . S
C1282 C1280 1.394 . S
C1282 C1283 1.369 . S
C1282 C1286 1.531 . S
C1283 C1282 1.369 . S
C1283 C1284 1.410 . S
C1283 C1291 1.503 . S
C1284 C1283 1.410 . S
C1284 C1285 1.392 . S
C1284 C1287 1.511 . S
C1285 C1281 1.376 . S
C1285 C1284 1.392 . S
C1285 H1297 0.929 . S
C1286 C1282 1.531 . S
C1286 H1298 0.960 . S
C1286 H1299 0.962 . S
C1286 H1300 0.960 . S
C1287 C1284 1.511 . S
C1287 H1301 0.961 . S
C1287 H1302 0.961 . S
C1287 H1303 0.961 . S
C1288 C1289 1.370 . S
C1288 C1290 1.363 . S
C1288 H1304 0.931 . S
C1289 C1288 1.370 . S
C1289 C1293 1.408 . S
C1290 C1288 1.363 . S
C1290 C1291 1.370 . S
C1290 C1294 1.524 . S
C1291 C1283 1.503 . S
C1291 C1290 1.370 . S
C1291 C1292 1.403 . S
C1292 C1291 1.403 . S
C1292 C1293 1.404 . S
C1292 C1295 1.539 . S
C1293 C1289 1.408 . S
C1293 C1292 1.404 . S
C1293 H1305 0.930 . S
C1294 C1290 1.524 . S
C1294 H1306 0.956 . S
C1294 H1307 0.961 . S
C1294 H1308 0.961 . S
C1295 C1292 1.539 . S
C1295 H1309 0.958 . S
C1295 H1310 0.961 . S
C1295 H1311 0.960 . S
H1296 C1280 0.931 . S
H1297 C1285 0.929 . S
H1298 C1286 0.960 . S
H1299 C1286 0.962 . S
H1300 C1286 0.960 . S
H1301 C1287 0.961 . S
H1302 C1287 0.961 . S
H1303 C1287 0.961 . S
H1304 C1288 0.931 . S
H1305 C1293 0.930 . S
H1306 C1294 0.956 . S
H1307 C1294 0.961 . S
H1308 C1294 0.961 . S
H1309 C1295 0.958 . S
H1310 C1295 0.961 . S
H1311 C1295 0.960 . S
C1312 C1313 1.391 . S
C1312 C1314 1.394 . S
C1312 H1328 0.931 . S
C1313 C1312 1.391 . S
C1313 C1317 1.376 . S
C1314 C1312 1.394 . S
C1314 C1315 1.369 . S
C1314 C1318 1.531 . S
C1315 C1314 1.369 . S
C1315 C1316 1.410 . S
C1315 C1323 1.503 . S
C1316 C1315 1.410 . S
C1316 C1317 1.392 . S
C1316 C1319 1.511 . S
C1317 C1313 1.376 . S
C1317 C1316 1.392 . S
C1317 H1329 0.929 . S
C1318 C1314 1.531 . S
C1318 H1330 0.960 . S
C1318 H1331 0.962 . S
C1318 H1332 0.960 . S
C1319 C1316 1.511 . S
C1319 H1333 0.961 . S
C1319 H1334 0.961 . S
C1319 H1335 0.961 . S
C1320 C1321 1.370 . S
C1320 C1322 1.363 . S
C1320 H1336 0.931 . S
C1321 C1320 1.370 . S
C1321 C1325 1.408 . S
C1322 C1320 1.363 . S
C1322 C1323 1.370 . S
C1322 C1326 1.524 . S
C1323 C1315 1.503 . S
C1323 C1322 1.370 . S
C1323 C1324 1.403 . S
C1324 C1323 1.403 . S
C1324 C1325 1.404 . S
C1324 C1327 1.539 . S
C1325 C1321 1.408 . S
C1325 C1324 1.404 . S
C1325 H1337 0.930 . S
C1326 C1322 1.524 . S
C1326 H1338 0.956 . S
C1326 H1339 0.961 . S
C1326 H1340 0.961 . S
C1327 C1324 1.539 . S
C1327 H1341 0.958 . S
C1327 H1342 0.961 . S
C1327 H1343 0.960 . S
H1328 C1312 0.931 . S
H1329 C1317 0.929 . S
H1330 C1318 0.960 . S
H1331 C1318 0.962 . S
H1332 C1318 0.960 . S
H1333 C1319 0.961 . S
H1334 C1319 0.961 . S
H1335 C1319 0.961 . S
H1336 C1320 0.931 . S
H1337 C1325 0.930 . S
H1338 C1326 0.956 . S
H1339 C1326 0.961 . S
H1340 C1326 0.961 . S
H1341 C1327 0.958 . S
H1342 C1327 0.961 . S
H1343 C1327 0.960 . S
C1344 C1345 1.391 . S
C1344 C1346 1.394 . S
C1344 H1360 0.931 . S
C1345 C1344 1.391 . S
C1345 C1349 1.376 . S
C1346 C1344 1.394 . S
C1346 C1347 1.369 . S
C1346 C1350 1.531 . S
C1347 C1346 1.369 . S
C1347 C1348 1.410 . S
C1347 C1355 1.503 . S
C1348 C1347 1.410 . S
C1348 C1349 1.392 . S
C1348 C1351 1.511 . S
C1349 C1345 1.376 . S
C1349 C1348 1.392 . S
C1349 H1361 0.929 . S
C1350 C1346 1.531 . S
C1350 H1362 0.960 . S
C1350 H1363 0.962 . S
C1350 H1364 0.960 . S
C1351 C1348 1.511 . S
C1351 H1365 0.961 . S
C1351 H1366 0.961 . S
C1351 H1367 0.961 . S
C1352 C1353 1.370 . S
C1352 C1354 1.363 . S
C1352 H1368 0.931 . S
C1353 C1352 1.370 . S
C1353 C1357 1.408 . S
C1354 C1352 1.363 . S
C1354 C1355 1.370 . S
C1354 C1358 1.524 . S
C1355 C1347 1.503 . S
C1355 C1354 1.370 . S
C1355 C1356 1.403 . S
C1356 C1355 1.403 . S
C1356 C1357 1.404 . S
C1356 C1359 1.539 . S
C1357 C1353 1.408 . S
C1357 C1356 1.404 . S
C1357 H1369 0.930 . S
C1358 C1354 1.524 . S
C1358 H1370 0.956 . S
C1358 H1371 0.961 . S
C1358 H1372 0.961 . S
C1359 C1356 1.539 . S
C1359 H1373 0.958 . S
C1359 H1374 0.961 . S
C1359 H1375 0.960 . S
H1360 C1344 0.931 . S
H1361 C1349 0.929 . S
H1362 C1350 0.960 . S
H1363 C1350 0.962 . S
H1364 C1350 0.960 . S
H1365 C1351 0.961 . S
H1366 C1351 0.961 . S
H1367 C1351 0.961 . S
H1368 C1352 0.931 . S
H1369 C1357 0.930 . S
H1370 C1358 0.956 . S
H1371 C1358 0.961 . S
H1372 C1358 0.961 . S
H1373 C1359 0.958 . S
H1374 C1359 0.961 . S
H1375 C1359 0.960 . S
C1376 C1377 1.391 . S
C1376 C1378 1.394 . S
C1376 H1392 0.931 . S
C1377 C1376 1.391 . S
C1377 C1381 1.376 . S
C1378 C1376 1.394 . S
C1378 C1379 1.369 . S
C1378 C1382 1.531 . S
C1379 C1378 1.369 . S
C1379 C1380 1.410 . S
C1379 C1387 1.503 . S
C1380 C1379 1.410 . S
C1380 C1381 1.392 . S
C1380 C1383 1.511 . S
C1381 C1377 1.376 . S
C1381 C1380 1.392 . S
C1381 H1393 0.929 . S
C1382 C1378 1.531 . S
C1382 H1394 0.960 1_554 S
C1382 H1395 0.962 1_554 S
C1382 H1396 0.960 . S
C1383 C1380 1.511 . S
C1383 H1397 0.961 . S
C1383 H1398 0.961 . S
C1383 H1399 0.961 . S
C1384 C1385 1.370 . S
C1384 C1386 1.363 . S
C1384 H1400 0.931 . S
C1385 C1384 1.370 . S
C1385 C1389 1.408 . S
C1386 C1384 1.363 . S
C1386 C1387 1.370 1_556 S
C1386 C1390 1.524 1_556 S
C1387 C1379 1.503 . S
C1387 C1386 1.370 1_554 S
C1387 C1388 1.403 1_554 S
C1388 C1387 1.403 1_556 S
C1388 C1389 1.404 . S
C1388 C1391 1.539 1_556 S
C1389 C1385 1.408 . S
C1389 C1388 1.404 . S
C1389 H1401 0.930 . S
C1390 C1386 1.524 1_554 S
C1390 H1402 0.956 . S
C1390 H1403 0.961 . S
C1390 H1404 0.961 1_554 S
C1391 C1388 1.539 1_554 S
C1391 H1405 0.958 . S
C1391 H1406 0.961 . S
C1391 H1407 0.960 . S
H1392 C1376 0.931 . S
H1393 C1381 0.929 . S
H1394 C1382 0.960 1_556 S
H1395 C1382 0.962 1_556 S
H1396 C1382 0.960 . S
H1397 C1383 0.961 . S
H1398 C1383 0.961 . S
H1399 C1383 0.961 . S
H1400 C1384 0.931 . S
H1401 C1389 0.930 . S
H1402 C1390 0.956 . S
H1403 C1390 0.961 . S
H1404 C1390 0.961 1_556 S
H1405 C1391 0.958 . S
H1406 C1391 0.961 . S
H1407 C1391 0.960 . S
C1408 C1409 1.391 . S
C1408 C1410 1.394 . S
C1408 H1424 0.931 . S
C1409 C1408 1.391 . S
C1409 C1413 1.376 . S
C1410 C1408 1.394 . S
C1410 C1411 1.369 . S
C1410 C1414 1.531 . S
C1411 C1410 1.369 . S
C1411 C1412 1.410 . S
C1411 C1419 1.503 . S
C1412 C1411 1.410 . S
C1412 C1413 1.392 . S
C1412 C1415 1.511 . S
C1413 C1409 1.376 . S
C1413 C1412 1.392 . S
C1413 H1425 0.929 . S
C1414 C1410 1.531 . S
C1414 H1426 0.960 . S
C1414 H1427 0.962 . S
C1414 H1428 0.960 . S
C1415 C1412 1.511 . S
C1415 H1429 0.961 . S
C1415 H1430 0.961 . S
C1415 H1431 0.961 . S
C1416 C1417 1.370 . S
C1416 C1418 1.363 . S
C1416 H1432 0.931 . S
C1417 C1416 1.370 . S
C1417 C1421 1.408 . S
C1418 C1416 1.363 . S
C1418 C1419 1.370 . S
C1418 C1422 1.524 . S
C1419 C1411 1.503 . S
C1419 C1418 1.370 . S
C1419 C1420 1.403 . S
C1420 C1419 1.403 . S
C1420 C1421 1.404 . S
C1420 C1423 1.539 . S
C1421 C1417 1.408 . S
C1421 C1420 1.404 . S
C1421 H1433 0.930 . S
C1422 C1418 1.524 . S
C1422 H1434 0.956 . S
C1422 H1435 0.961 . S
C1422 H1436 0.961 . S
C1423 C1420 1.539 . S
C1423 H1437 0.958 . S
C1423 H1438 0.961 . S
C1423 H1439 0.960 . S
H1424 C1408 0.931 . S
H1425 C1413 0.929 . S
H1426 C1414 0.960 . S
H1427 C1414 0.962 . S
H1428 C1414 0.960 . S
H1429 C1415 0.961 . S
H1430 C1415 0.961 . S
H1431 C1415 0.961 . S
H1432 C1416 0.931 . S
H1433 C1421 0.930 . S
H1434 C1422 0.956 . S
H1435 C1422 0.961 . S
H1436 C1422 0.961 . S
H1437 C1423 0.958 . S
H1438 C1423 0.961 . S
H1439 C1423 0.960 . S
C1440 C1441 1.391 . S
C1440 C1442 1.394 . S
C1440 H1456 0.931 . S
C1441 C1440 1.391 . S
C1441 C1445 1.376 . S
C1442 C1440 1.394 . S
C1442 C1443 1.369 . S
C1442 C1446 1.531 1_655 S
C1443 C1442 1.369 . S
C1443 C1444 1.410 . S
C1443 C1451 1.503 1_655 S
C1444 C1443 1.410 . S
C1444 C1445 1.392 . S
C1444 C1447 1.511 . S
C1445 C1441 1.376 . S
C1445 C1444 1.392 . S
C1445 H1457 0.929 . S
C1446 C1442 1.531 1_455 S
C1446 H1458 0.960 . S
C1446 H1459 0.962 . S
C1446 H1460 0.960 . S
C1447 C1444 1.511 . S
C1447 H1461 0.961 . S
C1447 H1462 0.961 . S
C1447 H1463 0.961 . S
C1448 C1449 1.370 . S
C1448 C1450 1.363 . S
C1448 H1464 0.931 . S
C1449 C1448 1.370 . S
C1449 C1453 1.408 . S
C1450 C1448 1.363 . S
C1450 C1451 1.370 . S
C1450 C1454 1.524 . S
C1451 C1443 1.503 1_455 S
C1451 C1450 1.370 . S
C1451 C1452 1.403 . S
C1452 C1451 1.403 . S
C1452 C1453 1.404 . S
C1452 C1455 1.539 1_455 S
C1453 C1449 1.408 . S
C1453 C1452 1.404 . S
C1453 H1465 0.930 . S
C1454 C1450 1.524 . S
C1454 H1466 0.956 . S
C1454 H1467 0.961 . S
C1454 H1468 0.961 . S
C1455 C1452 1.539 1_655 S
C1455 H1469 0.958 . S
C1455 H1470 0.961 . S
C1455 H1471 0.960 . S
H1456 C1440 0.931 . S
H1457 C1445 0.929 . S
H1458 C1446 0.960 . S
H1459 C1446 0.962 . S
H1460 C1446 0.960 . S
H1461 C1447 0.961 . S
H1462 C1447 0.961 . S
H1463 C1447 0.961 . S
H1464 C1448 0.931 . S
H1465 C1453 0.930 . S
H1466 C1454 0.956 . S
H1467 C1454 0.961 . S
H1468 C1454 0.961 . S
H1469 C1455 0.958 . S
H1470 C1455 0.961 . S
H1471 C1455 0.960 . S
C1472 C1473 1.391 . S
C1472 C1474 1.394 . S
C1472 H1488 0.931 . S
C1473 C1472 1.391 . S
C1473 C1477 1.376 . S
C1474 C1472 1.394 . S
C1474 C1475 1.369 . S
C1474 C1478 1.531 . S
C1475 C1474 1.369 . S
C1475 C1476 1.410 . S
C1475 C1483 1.503 . S
C1476 C1475 1.410 . S
C1476 C1477 1.392 . S
C1476 C1479 1.511 . S
C1477 C1473 1.376 . S
C1477 C1476 1.392 . S
C1477 H1489 0.929 . S
C1478 C1474 1.531 . S
C1478 H1490 0.960 . S
C1478 H1491 0.962 . S
C1478 H1492 0.960 . S
C1479 C1476 1.511 . S
C1479 H1493 0.961 . S
C1479 H1494 0.961 . S
C1479 H1495 0.961 . S
C1480 C1481 1.370 . S
C1480 C1482 1.363 . S
C1480 H1496 0.931 . S
C1481 C1480 1.370 . S
C1481 C1485 1.408 . S
C1482 C1480 1.363 . S
C1482 C1483 1.370 . S
C1482 C1486 1.524 . S
C1483 C1475 1.503 . S
C1483 C1482 1.370 . S
C1483 C1484 1.403 . S
C1484 C1483 1.403 . S
C1484 C1485 1.404 . S
C1484 C1487 1.539 . S
C1485 C1481 1.408 . S
C1485 C1484 1.404 . S
C1485 H1497 0.930 . S
C1486 C1482 1.524 . S
C1486 H1498 0.956 . S
C1486 H1499 0.961 . S
C1486 H1500 0.961 . S
C1487 C1484 1.539 . S
C1487 H1501 0.958 . S
C1487 H1502 0.961 . S
C1487 H1503 0.960 . S
H1488 C1472 0.931 . S
H1489 C1477 0.929 . S
H1490 C1478 0.960 . S
H1491 C1478 0.962 . S
H1492 C1478 0.960 . S
H1493 C1479 0.961 . S
H1494 C1479 0.961 . S
H1495 C1479 0.961 . S
H1496 C1480 0.931 . S
H1497 C1485 0.930 . S
H1498 C1486 0.956 . S
H1499 C1486 0.961 . S
H1500 C1486 0.961 . S
H1501 C1487 0.958 . S
H1502 C1487 0.961 . S
H1503 C1487 0.960 . S
C1504 C1505 1.391 . S
C1504 C1506 1.394 . S
C1504 H1520 0.931 . S
C1505 C1504 1.391 . S
C1505 C1509 1.376 . S
C1506 C1504 1.394 . S
C1506 C1507 1.369 . S
C1506 C1510 1.531 . S
C1507 C1506 1.369 . S
C1507 C1508 1.410 . S
C1507 C1515 1.503 . S
C1508 C1507 1.410 . S
C1508 C1509 1.392 . S
C1508 C1511 1.511 . S
C1509 C1505 1.376 . S
C1509 C1508 1.392 . S
C1509 H1521 0.929 . S
C1510 C1506 1.531 . S
C1510 H1522 0.960 . S
C1510 H1523 0.962 . S
C1510 H1524 0.960 . S
C1511 C1508 1.511 . S
C1511 H1525 0.961 . S
C1511 H1526 0.961 . S
C1511 H1527 0.961 . S
C1512 C1513 1.370 . S
C1512 C1514 1.363 . S
C1512 H1528 0.931 . S
C1513 C1512 1.370 . S
C1513 C1517 1.408 . S
C1514 C1512 1.363 . S
C1514 C1515 1.370 . S
C1514 C1518 1.524 . S
C1515 C1507 1.503 . S
C1515 C1514 1.370 . S
C1515 C1516 1.403 . S
C1516 C1515 1.403 . S
C1516 C1517 1.404 . S
C1516 C1519 1.539 . S
C1517 C1513 1.408 . S
C1517 C1516 1.404 . S
C1517 H1529 0.930 . S
C1518 C1514 1.524 . S
C1518 H1530 0.956 . S
C1518 H1531 0.961 . S
C1518 H1532 0.961 . S
C1519 C1516 1.539 . S
C1519 H1533 0.958 . S
C1519 H1534 0.961 . S
C1519 H1535 0.960 . S
H1520 C1504 0.931 . S
H1521 C1509 0.929 . S
H1522 C1510 0.960 . S
H1523 C1510 0.962 . S
H1524 C1510 0.960 . S
H1525 C1511 0.961 . S
H1526 C1511 0.961 . S
H1527 C1511 0.961 . S
H1528 C1512 0.931 . S
H1529 C1517 0.930 . S
H1530 C1518 0.956 . S
H1531 C1518 0.961 . S
H1532 C1518 0.961 . S
H1533 C1519 0.958 . S
H1534 C1519 0.961 . S
H1535 C1519 0.960 . S
C1536 C1537 1.391 . S
C1536 C1538 1.394 . S
C1536 H1552 0.931 . S
C1537 C1536 1.391 . S
C1537 C1541 1.376 . S
C1538 C1536 1.394 . S
C1538 C1539 1.369 . S
C1538 C1542 1.531 . S
C1539 C1538 1.369 . S
C1539 C1540 1.410 . S
C1539 C1547 1.503 . S
C1540 C1539 1.410 . S
C1540 C1541 1.392 . S
C1540 C1543 1.511 . S
C1541 C1537 1.376 . S
C1541 C1540 1.392 . S
C1541 H1553 0.929 . S
C1542 C1538 1.531 . S
C1542 H1554 0.960 . S
C1542 H1555 0.962 . S
C1542 H1556 0.960 . S
C1543 C1540 1.511 . S
C1543 H1557 0.961 . S
C1543 H1558 0.961 . S
C1543 H1559 0.961 . S
C1544 C1545 1.370 . S
C1544 C1546 1.363 . S
C1544 H1560 0.931 . S
C1545 C1544 1.370 . S
C1545 C1549 1.408 . S
C1546 C1544 1.363 . S
C1546 C1547 1.370 . S
C1546 C1550 1.524 . S
C1547 C1539 1.503 . S
C1547 C1546 1.370 . S
C1547 C1548 1.403 . S
C1548 C1547 1.403 . S
C1548 C1549 1.404 . S
C1548 C1551 1.539 . S
C1549 C1545 1.408 . S
C1549 C1548 1.404 . S
C1549 H1561 0.930 . S
C1550 C1546 1.524 . S
C1550 H1562 0.956 . S
C1550 H1563 0.961 . S
C1550 H1564 0.961 . S
C1551 C1548 1.539 . S
C1551 H1565 0.958 . S
C1551 H1566 0.961 . S
C1551 H1567 0.960 . S
H1552 C1536 0.931 . S
H1553 C1541 0.929 . S
H1554 C1542 0.960 . S
H1555 C1542 0.962 . S
H1556 C1542 0.960 . S
H1557 C1543 0.961 . S
H1558 C1543 0.961 . S
H1559 C1543 0.961 . S
H1560 C1544 0.931 . S
H1561 C1549 0.930 . S
H1562 C1550 0.956 . S
H1563 C1550 0.961 . S
H1564 C1550 0.961 . S
H1565 C1551 0.958 . S
H1566 C1551 0.961 . S
H1567 C1551 0.960 . S
C1568 C1569 1.391 . S
C1568 C1570 1.394 . S
C1568 H1584 0.931 . S
C1569 C1568 1.391 . S
C1569 C1573 1.376 . S
C1570 C1568 1.394 . S
C1570 C1571 1.369 . S
C1570 C1574 1.531 1_455 S
C1571 C1570 1.369 . S
C1571 C1572 1.410 . S
C1571 C1579 1.503 1_455 S
C1572 C1571 1.410 . S
C1572 C1573 1.392 . S
C1572 C1575 1.511 . S
C1573 C1569 1.376 . S
C1573 C1572 1.392 . S
C1573 H1585 0.929 . S
C1574 C1570 1.531 1_655 S
C1574 H1586 0.960 . S
C1574 H1587 0.962 . S
C1574 H1588 0.960 . S
C1575 C1572 1.511 . S
C1575 H1589 0.961 . S
C1575 H1590 0.961 1_554 S
C1575 H1591 0.961 1_554 S
C1576 C1577 1.370 . S
C1576 C1578 1.363 1_556 S
C1576 H1592 0.931 . S
C1577 C1576 1.370 . S
C1577 C1581 1.408 . S
C1578 C1576 1.363 1_554 S
C1578 C1579 1.370 . S
C1578 C1582 1.524 . S
C1579 C1571 1.503 1_655 S
C1579 C1578 1.370 . S
C1579 C1580 1.403 1_554 S
C1580 C1579 1.403 1_556 S
C1580 C1581 1.404 . S
C1580 C1583 1.539 1_655 S
C1581 C1577 1.408 . S
C1581 C1580 1.404 . S
C1581 H1593 0.930 . S
C1582 C1578 1.524 . S
C1582 H1594 0.956 . S
C1582 H1595 0.961 . S
C1582 H1596 0.961 . S
C1583 C1580 1.539 1_455 S
C1583 H1597 0.973 . S
C1583 H1598 0.961 . S
C1583 H1599 0.960 . S
H1584 C1568 0.931 . S
H1585 C1573 0.929 . S
H1586 C1574 0.960 . S
H1587 C1574 0.962 . S
H1588 C1574 0.960 . S
H1589 C1575 0.961 . S
H1590 C1575 0.961 1_556 S
H1591 C1575 0.961 1_556 S
H1592 C1576 0.931 . S
H1593 C1581 0.930 . S
H1594 C1582 0.956 . S
H1595 C1582 0.961 . S
H1596 C1582 0.961 . S
H1597 C1583 0.973 . S
H1598 C1583 0.961 . S
H1599 C1583 0.960 . S
C1600 C1601 1.391 . S
C1600 C1602 1.394 . S
C1600 H1616 0.931 . S
C1601 C1600 1.391 . S
C1601 C1605 1.376 . S
C1602 C1600 1.394 . S
C1602 C1603 1.369 . S
C1602 C1606 1.531 . S
C1603 C1602 1.369 . S
C1603 C1604 1.410 . S
C1603 C1611 1.503 . S
C1604 C1603 1.410 . S
C1604 C1605 1.392 . S
C1604 C1607 1.511 . S
C1605 C1601 1.376 . S
C1605 C1604 1.392 . S
C1605 H1617 0.929 . S
C1606 C1602 1.531 . S
C1606 H1618 0.960 . S
C1606 H1619 0.962 . S
C1606 H1620 0.960 . S
C1607 C1604 1.511 . S
C1607 H1621 0.961 . S
C1607 H1622 0.961 . S
C1607 H1623 0.961 . S
C1608 C1609 1.370 . S
C1608 C1610 1.363 . S
C1608 H1624 0.931 . S
C1609 C1608 1.370 . S
C1609 C1613 1.408 . S
C1610 C1608 1.363 . S
C1610 C1611 1.370 . S
C1610 C1614 1.524 . S
C1611 C1603 1.503 . S
C1611 C1610 1.370 . S
C1611 C1612 1.403 . S
C1612 C1611 1.403 . S
C1612 C1613 1.404 . S
C1612 C1615 1.539 . S
C1613 C1609 1.408 . S
C1613 C1612 1.404 . S
C1613 H1625 0.930 . S
C1614 C1610 1.524 . S
C1614 H1626 0.956 . S
C1614 H1627 0.961 . S
C1614 H1628 0.961 . S
C1615 C1612 1.539 . S
C1615 H1629 0.958 . S
C1615 H1630 0.961 . S
C1615 H1631 0.960 . S
H1616 C1600 0.931 . S
H1617 C1605 0.929 . S
H1618 C1606 0.960 . S
H1619 C1606 0.962 . S
H1620 C1606 0.960 . S
H1621 C1607 0.961 . S
H1622 C1607 0.961 . S
H1623 C1607 0.961 . S
H1624 C1608 0.931 . S
H1625 C1613 0.930 . S
H1626 C1614 0.956 . S
H1627 C1614 0.961 . S
H1628 C1614 0.961 . S
H1629 C1615 0.958 . S
H1630 C1615 0.961 . S
H1631 C1615 0.960 . S
C1632 C1633 1.391 . S
C1632 C1634 1.394 . S
C1632 H1648 0.931 . S
C1633 C1632 1.391 . S
C1633 C1637 1.376 . S
C1634 C1632 1.394 . S
C1634 C1635 1.369 . S
C1634 C1638 1.531 . S
C1635 C1634 1.369 . S
C1635 C1636 1.415 . S
C1635 C1643 1.503 1_655 S
C1636 C1635 1.415 . S
C1636 C1637 1.402 . S
C1636 C1639 1.497 1_655 S
C1637 C1633 1.376 . S
C1637 C1636 1.402 . S
C1637 H1649 0.929 . S
C1638 C1634 1.531 . S
C1638 H1650 0.960 . S
C1638 H1651 0.962 . S
C1638 H1652 0.960 . S
C1639 C1636 1.497 1_455 S
C1639 H1653 0.961 . S
C1639 H1654 0.961 . S
C1639 H1655 0.961 . S
C1640 C1641 1.370 . S
C1640 C1642 1.363 . S
C1640 H1656 0.931 . S
C1641 C1640 1.370 . S
C1641 C1645 1.408 . S
C1642 C1640 1.363 . S
C1642 C1643 1.370 . S
C1642 C1646 1.524 . S
C1643 C1635 1.503 1_455 S
C1643 C1642 1.370 . S
C1643 C1644 1.403 . S
C1644 C1643 1.403 . S
C1644 C1645 1.404 . S
C1644 C1647 1.539 1_455 S
C1645 C1641 1.408 . S
C1645 C1644 1.404 . S
C1645 H1657 0.930 . S
C1646 C1642 1.524 . S
C1646 H1658 1.023 . S
C1646 H1659 0.961 . S
C1646 H1660 0.961 . S
C1647 C1644 1.539 1_655 S
C1647 H1661 0.958 . S
C1647 H1662 0.961 1_655 S
C1647 H1663 0.960 . S
H1648 C1632 0.931 . S
H1649 C1637 0.929 . S
H1650 C1638 0.960 . S
H1651 C1638 0.962 . S
H1652 C1638 0.960 . S
H1653 C1639 0.961 . S
H1654 C1639 0.961 . S
H1655 C1639 0.961 . S
H1656 C1640 0.931 . S
H1657 C1645 0.930 . S
H1658 C1646 1.023 . S
H1659 C1646 0.961 . S
H1660 C1646 0.961 . S
H1661 C1647 0.958 . S
H1662 C1647 0.961 1_455 S
H1663 C1647 0.960 . S
C1664 C1665 1.391 . S
C1664 C1666 1.394 . S
C1664 H1680 0.931 . S
C1665 C1664 1.391 . S
C1665 C1669 1.376 . S
C1666 C1664 1.394 . S
C1666 C1667 1.369 . S
C1666 C1670 1.531 . S
C1667 C1666 1.369 . S
C1667 C1668 1.410 . S
C1667 C1675 1.503 . S
C1668 C1667 1.410 . S
C1668 C1669 1.392 . S
C1668 C1671 1.511 . S
C1669 C1665 1.376 . S
C1669 C1668 1.392 . S
C1669 H1681 0.929 . S
C1670 C1666 1.531 . S
C1670 H1682 0.960 . S
C1670 H1683 0.962 . S
C1670 H1684 0.960 . S
C1671 C1668 1.511 . S
C1671 H1685 0.961 . S
C1671 H1686 0.961 . S
C1671 H1687 0.961 . S
C1672 C1673 1.370 . S
C1672 C1674 1.363 . S
C1672 H1688 0.931 . S
C1673 C1672 1.370 . S
C1673 C1677 1.408 . S
C1674 C1672 1.363 . S
C1674 C1675 1.370 . S
C1674 C1678 1.524 . S
C1675 C1667 1.503 . S
C1675 C1674 1.370 . S
C1675 C1676 1.403 . S
C1676 C1675 1.403 . S
C1676 C1677 1.404 . S
C1676 C1679 1.539 . S
C1677 C1673 1.408 . S
C1677 C1676 1.404 . S
C1677 H1689 0.930 . S
C1678 C1674 1.524 . S
C1678 H1690 0.956 . S
C1678 H1691 0.961 . S
C1678 H1692 0.961 . S
C1679 C1676 1.539 . S
C1679 H1693 0.958 . S
C1679 H1694 0.961 . S
C1679 H1695 0.960 . S
H1680 C1664 0.931 . S
H1681 C1669 0.929 . S
H1682 C1670 0.960 . S
H1683 C1670 0.962 . S
H1684 C1670 0.960 . S
H1685 C1671 0.961 . S
H1686 C1671 0.961 . S
H1687 C1671 0.961 . S
H1688 C1672 0.931 . S
H1689 C1677 0.930 . S
H1690 C1678 0.956 . S
H1691 C1678 0.961 . S
H1692 C1678 0.961 . S
H1693 C1679 0.958 . S
H1694 C1679 0.961 . S
H1695 C1679 0.960 . S
C1696 C1697 1.391 . S
C1696 C1698 1.394 1_554 S
C1696 H1712 0.931 . S
C1697 C1696 1.391 . S
C1697 C1701 1.376 . S
C1698 C1696 1.394 1_556 S
C1698 C1699 1.369 . S
C1698 C1702 1.531 . S
C1699 C1698 1.369 . S
C1699 C1700 1.410 1_556 S
C1699 C1707 1.503 . S
C1700 C1699 1.410 1_554 S
C1700 C1701 1.392 . S
C1700 C1703 1.511 . S
C1701 C1697 1.376 . S
C1701 C1700 1.392 . S
C1701 H1713 0.929 . S
C1702 C1698 1.531 . S
C1702 H1714 0.960 . S
C1702 H1715 0.962 . S
C1702 H1716 0.960 . S
C1703 C1700 1.511 . S
C1703 H1717 0.961 . S
C1703 H1718 0.961 . S
C1703 H1719 0.961 . S
C1704 C1705 1.370 . S
C1704 C1706 1.363 . S
C1704 H1720 0.931 . S
C1705 C1704 1.370 . S
C1705 C1709 1.408 . S
C1706 C1704 1.363 . S
C1706 C1707 1.370 . S
C1706 C1710 1.524 . S
C1707 C1699 1.503 . S
C1707 C1706 1.370 . S
C1707 C1708 1.403 . S
C1708 C1707 1.403 . S
C1708 C1709 1.404 . S
C1708 C1711 1.539 . S
C1709 C1705 1.408 . S
C1709 C1708 1.404 . S
C1709 H1721 0.930 . S
C1710 C1706 1.524 . S
C1710 H1722 0.956 . S
C1710 H1723 0.961 . S
C1710 H1724 0.961 . S
C1711 C1708 1.539 . S
C1711 H1725 0.958 . S
C1711 H1726 0.961 . S
C1711 H1727 0.960 1_556 S
H1712 C1696 0.931 . S
H1713 C1701 0.929 . S
H1714 C1702 0.960 . S
H1715 C1702 0.962 . S
H1716 C1702 0.960 . S
H1717 C1703 0.961 . S
H1718 C1703 0.961 . S
H1719 C1703 0.961 . S
H1720 C1704 0.931 . S
H1721 C1709 0.930 . S
H1722 C1710 0.956 . S
H1723 C1710 0.961 . S
H1724 C1710 0.961 . S
H1725 C1711 0.958 . S
H1726 C1711 0.961 . S
H1727 C1711 0.960 1_554 S
C1728 C1729 1.391 . S
C1728 C1730 1.394 . S
C1728 H1744 0.931 . S
C1729 C1728 1.391 . S
C1729 C1733 1.376 . S
C1730 C1728 1.394 . S
C1730 C1731 1.369 . S
C1730 C1734 1.531 . S
C1731 C1730 1.369 . S
C1731 C1732 1.410 . S
C1731 C1739 1.503 . S
C1732 C1731 1.410 . S
C1732 C1733 1.392 . S
C1732 C1735 1.511 . S
C1733 C1729 1.376 . S
C1733 C1732 1.392 . S
C1733 H1745 0.929 . S
C1734 C1730 1.531 . S
C1734 H1746 0.960 . S
C1734 H1747 0.962 . S
C1734 H1748 0.960 . S
C1735 C1732 1.511 . S
C1735 H1749 0.961 . S
C1735 H1750 0.961 . S
C1735 H1751 0.961 . S
C1736 C1737 1.370 . S
C1736 C1738 1.363 . S
C1736 H1752 0.931 . S
C1737 C1736 1.370 . S
C1737 C1741 1.408 . S
C1738 C1736 1.363 . S
C1738 C1739 1.370 . S
C1738 C1742 1.524 . S
C1739 C1731 1.503 . S
C1739 C1738 1.370 . S
C1739 C1740 1.403 . S
C1740 C1739 1.403 . S
C1740 C1741 1.404 . S
C1740 C1743 1.539 . S
C1741 C1737 1.408 . S
C1741 C1740 1.404 . S
C1741 H1753 0.930 . S
C1742 C1738 1.524 . S
C1742 H1754 0.956 . S
C1742 H1755 0.961 . S
C1742 H1756 0.961 . S
C1743 C1740 1.539 . S
C1743 H1757 0.958 . S
C1743 H1758 0.961 . S
C1743 H1759 0.960 . S
H1744 C1728 0.931 . S
H1745 C1733 0.929 . S
H1746 C1734 0.960 . S
H1747 C1734 0.962 . S
H1748 C1734 0.960 . S
H1749 C1735 0.961 . S
H1750 C1735 0.961 . S
H1751 C1735 0.961 . S
H1752 C1736 0.931 . S
H1753 C1741 0.930 . S
H1754 C1742 0.956 . S
H1755 C1742 0.961 . S
H1756 C1742 0.961 . S
H1757 C1743 0.958 . S
H1758 C1743 0.961 . S
H1759 C1743 0.960 . S
C1760 C1761 1.391 . S
C1760 C1762 1.394 . S
C1760 H1776 0.931 . S
C1761 C1760 1.391 . S
C1761 C1765 1.376 . S
C1762 C1760 1.394 . S
C1762 C1763 1.369 . S
C1762 C1766 1.531 . S
C1763 C1762 1.369 . S
C1763 C1764 1.410 . S
C1763 C1771 1.503 . S
C1764 C1763 1.410 . S
C1764 C1765 1.392 . S
C1764 C1767 1.511 . S
C1765 C1761 1.376 . S
C1765 C1764 1.392 . S
C1765 H1777 0.929 . S
C1766 C1762 1.531 . S
C1766 H1778 0.960 . S
C1766 H1779 0.962 . S
C1766 H1780 0.960 . S
C1767 C1764 1.511 . S
C1767 H1781 0.961 . S
C1767 H1782 0.961 . S
C1767 H1783 0.961 . S
C1768 C1769 1.370 . S
C1768 C1770 1.363 . S
C1768 H1784 0.931 . S
C1769 C1768 1.370 . S
C1769 C1773 1.408 . S
C1770 C1768 1.363 . S
C1770 C1771 1.370 . S
C1770 C1774 1.524 . S
C1771 C1763 1.503 . S
C1771 C1770 1.370 . S
C1771 C1772 1.403 . S
C1772 C1771 1.403 . S
C1772 C1773 1.404 . S
C1772 C1775 1.539 . S
C1773 C1769 1.408 . S
C1773 C1772 1.404 . S
C1773 H1785 0.930 . S
C1774 C1770 1.524 . S
C1774 H1786 0.956 . S
C1774 H1787 0.961 . S
C1774 H1788 0.961 . S
C1775 C1772 1.539 . S
C1775 H1789 0.958 . S
C1775 H1790 0.961 . S
C1775 H1791 0.960 . S
H1776 C1760 0.931 . S
H1777 C1765 0.929 . S
H1778 C1766 0.960 . S
H1779 C1766 0.962 . S
H1780 C1766 0.960 . S
H1781 C1767 0.961 . S
H1782 C1767 0.961 . S
H1783 C1767 0.961 . S
H1784 C1768 0.931 . S
H1785 C1773 0.930 . S
H1786 C1774 0.956 . S
H1787 C1774 0.961 . S
H1788 C1774 0.961 . S
H1789 C1775 0.958 . S
H1790 C1775 0.961 . S
H1791 C1775 0.960 . S
C1792 C1793 1.391 . S
C1792 C1794 1.394 . S
C1792 H1808 0.931 . S
C1793 C1792 1.391 . S
C1793 C1797 1.376 . S
C1794 C1792 1.394 . S
C1794 C1795 1.369 . S
C1794 C1798 1.531 . S
C1795 C1794 1.369 . S
C1795 C1796 1.410 . S
C1795 C1803 1.503 . S
C1796 C1795 1.410 . S
C1796 C1797 1.392 . S
C1796 C1799 1.511 . S
C1797 C1793 1.376 . S
C1797 C1796 1.392 . S
C1797 H1809 0.929 . S
C1798 C1794 1.531 . S
C1798 H1810 0.960 . S
C1798 H1811 0.962 . S
C1798 H1812 0.960 . S
C1799 C1796 1.511 . S
C1799 H1813 0.961 . S
C1799 H1814 0.961 . S
C1799 H1815 0.961 . S
C1800 C1801 1.370 . S
C1800 C1802 1.363 . S
C1800 H1816 0.931 . S
C1801 C1800 1.370 . S
C1801 C1805 1.408 . S
C1802 C1800 1.363 . S
C1802 C1803 1.370 . S
C1802 C1806 1.524 . S
C1803 C1795 1.503 . S
C1803 C1802 1.370 . S
C1803 C1804 1.403 . S
C1804 C1803 1.403 . S
C1804 C1805 1.404 . S
C1804 C1807 1.539 . S
C1805 C1801 1.408 . S
C1805 C1804 1.404 . S
C1805 H1817 0.930 . S
C1806 C1802 1.524 . S
C1806 H1818 0.956 . S
C1806 H1819 0.961 . S
C1806 H1820 0.961 . S
C1807 C1804 1.539 . S
C1807 H1821 0.958 . S
C1807 H1822 0.961 . S
C1807 H1823 0.960 . S
H1808 C1792 0.931 . S
H1809 C1797 0.929 . S
H1810 C1798 0.960 . S
H1811 C1798 0.962 . S
H1812 C1798 0.960 . S
H1813 C1799 0.961 . S
H1814 C1799 0.961 . S
H1815 C1799 0.961 . S
H1816 C1800 0.931 . S
H1817 C1805 0.930 . S
H1818 C1806 0.956 . S
H1819 C1806 0.961 . S
H1820 C1806 0.961 . S
H1821 C1807 0.958 . S
H1822 C1807 0.961 . S
H1823 C1807 0.960 . S
C1824 C1825 1.391 . S
C1824 C1826 1.394 . S
C1824 H1840 0.931 . S
C1825 C1824 1.391 . S
C1825 C1829 1.376 . S
C1826 C1824 1.394 . S
C1826 C1827 1.369 . S
C1826 C1830 1.537 . S
C1827 C1826 1.369 . S
C1827 C1828 1.410 1_655 S
C1827 C1835 1.503 1_655 S
C1828 C1827 1.410 1_455 S
C1828 C1829 1.392 1_455 S
C1828 C1831 1.511 . S
C1829 C1825 1.376 . S
C1829 C1828 1.392 1_655 S
C1829 H1841 0.929 . S
C1830 C1826 1.537 . S
C1830 H1842 0.956 1_556 S
C1830 H1843 0.960 1_556 S
C1830 H1844 0.960 . S
C1831 C1828 1.511 . S
C1831 H1845 0.961 . S
C1831 H1846 0.961 . S
C1831 H1847 0.961 . S
C1832 C1833 1.370 . S
C1832 C1834 1.363 . S
C1832 H1848 0.931 . S
C1833 C1832 1.370 . S
C1833 C1837 1.408 . S
C1834 C1832 1.363 . S
C1834 C1835 1.370 1_554 S
C1834 C1838 1.524 1_554 S
C1835 C1827 1.503 1_455 S
C1835 C1834 1.370 1_556 S
C1835 C1836 1.403 1_556 S
C1836 C1835 1.403 1_554 S
C1836 C1837 1.404 . S
C1836 C1839 1.539 1_554 S
C1837 C1833 1.408 . S
C1837 C1836 1.404 . S
C1837 H1849 0.930 . S
C1838 C1834 1.524 1_556 S
C1838 H1850 0.956 1_455 S
C1838 H1851 0.961 . S
C1838 H1852 0.961 . S
C1839 C1836 1.539 1_556 S
C1839 H1853 0.958 1_456 S
C1839 H1854 0.961 1_556 S
C1839 H1855 0.960 . S
H1840 C1824 0.931 . S
H1841 C1829 0.929 . S
H1842 C1830 0.956 1_554 S
H1843 C1830 0.960 1_554 S
H1844 C1830 0.960 . S
H1845 C1831 0.961 . S
H1846 C1831 0.961 . S
H1847 C1831 0.961 . S
H1848 C1832 0.931 . S
H1849 C1837 0.930 . S
H1850 C1838 0.956 1_655 S
H1851 C1838 0.961 . S
H1852 C1838 0.961 . S
H1853 C1839 0.958 1_654 S
H1854 C1839 0.961 1_554 S
H1855 C1839 0.960 . S
C1856 C1857 1.391 . S
C1856 C1858 1.394 . S
C1856 H1872 0.931 . S
C1857 C1856 1.391 . S
C1857 C1861 1.376 . S
C1858 C1856 1.394 . S
C1858 C1859 1.369 . S
C1858 C1862 1.531 . S
C1859 C1858 1.369 . S
C1859 C1860 1.410 . S
C1859 C1867 1.503 . S
C1860 C1859 1.410 . S
C1860 C1861 1.392 . S
C1860 C1863 1.511 . S
C1861 C1857 1.376 . S
C1861 C1860 1.392 . S
C1861 H1873 0.929 . S
C1862 C1858 1.531 . S
C1862 H1874 0.960 . S
C1862 H1875 0.962 . S
C1862 H1876 0.960 . S
C1863 C1860 1.511 . S
C1863 H1877 0.961 . S
C1863 H1878 0.961 . S
C1863 H1879 0.961 . S
C1864 C1865 1.370 . S
C1864 C1866 1.363 . S
C1864 H1880 0.931 . S
C1865 C1864 1.370 . S
C1865 C1869 1.408 . S
C1866 C1864 1.363 . S
C1866 C1867 1.370 . S
C1866 C1870 1.524 . S
C1867 C1859 1.503 . S
C1867 C1866 1.370 . S
C1867 C1868 1.403 . S
C1868 C1867 1.403 . S
C1868 C1869 1.404 . S
C1868 C1871 1.539 . S
C1869 C1865 1.408 . S
C1869 C1868 1.404 . S
C1869 H1881 0.930 . S
C1870 C1866 1.524 . S
C1870 H1882 0.956 . S
C1870 H1883 0.961 . S
C1870 H1884 0.961 . S
C1871 C1868 1.539 . S
C1871 H1885 0.958 . S
C1871 H1886 0.961 . S
C1871 H1887 0.960 . S
H1872 C1856 0.931 . S
H1873 C1861 0.929 . S
H1874 C1862 0.960 . S
H1875 C1862 0.962 . S
H1876 C1862 0.960 . S
H1877 C1863 0.961 . S
H1878 C1863 0.961 . S
H1879 C1863 0.961 . S
H1880 C1864 0.931 . S
H1881 C1869 0.930 . S
H1882 C1870 0.956 . S
H1883 C1870 0.961 . S
H1884 C1870 0.961 . S
H1885 C1871 0.958 . S
H1886 C1871 0.961 . S
H1887 C1871 0.960 . S
C1888 C1889 1.391 . S
C1888 C1890 1.431 . S
C1888 H1904 0.931 . S
C1889 C1888 1.391 . S
C1889 C1893 1.376 . S
C1890 C1888 1.431 . S
C1890 C1891 1.392 . S
C1890 C1894 1.471 1_655 S
C1891 C1890 1.392 . S
C1891 C1892 1.410 . S
C1891 C1899 1.503 1_655 S
C1892 C1891 1.410 . S
C1892 C1893 1.392 . S
C1892 C1895 1.511 . S
C1893 C1889 1.376 . S
C1893 C1892 1.392 . S
C1893 H1905 0.929 . S
C1894 C1890 1.471 1_455 S
C1894 H1906 0.960 . S
C1894 H1907 0.962 . S
C1894 H1908 0.960 . S
C1895 C1892 1.511 . S
C1895 H1909 0.961 . S
C1895 H1910 0.961 . S
C1895 H1911 0.961 . S
C1896 C1897 1.370 . S
C1896 C1898 1.363 . S
C1896 H1912 0.931 . S
C1897 C1896 1.370 . S
C1897 C1901 1.408 . S
C1898 C1896 1.363 . S
C1898 C1899 1.370 . S
C1898 C1902 1.524 . S
C1899 C1891 1.503 1_455 S
C1899 C1898 1.370 . S
C1899 C1900 1.403 . S
C1900 C1899 1.403 . S
C1900 C1901 1.404 . S
C1900 C1903 1.539 1_455 S
C1901 C1897 1.408 . S
C1901 C1900 1.404 . S
C1901 H1913 0.930 . S
C1902 C1898 1.524 . S
C1902 H1914 0.956 . S
C1902 H1915 0.961 . S
C1902 H1916 0.961 . S
C1903 C1900 1.539 1_655 S
C1903 H1917 0.927 1_655 S
C1903 H1918 0.961 . S
C1903 H1919 0.960 . S
H1904 C1888 0.931 . S
H1905 C1893 0.929 . S
H1906 C1894 0.960 . S
H1907 C1894 0.962 . S
H1908 C1894 0.960 . S
H1909 C1895 0.961 . S
H1910 C1895 0.961 . S
H1911 C1895 0.961 . S
H1912 C1896 0.931 . S
H1913 C1901 0.930 . S
H1914 C1902 0.956 . S
H1915 C1902 0.961 . S
H1916 C1902 0.961 . S
H1917 C1903 0.927 1_455 S
H1918 C1903 0.961 . S
H1919 C1903 0.960 . S
C1920 C1921 1.391 . S
C1920 C1922 1.394 . S
C1920 H1936 0.931 . S
C1921 C1920 1.391 . S
C1921 C1925 1.376 . S
C1922 C1920 1.394 . S
C1922 C1923 1.369 . S
C1922 C1926 1.531 . S
C1923 C1922 1.369 . S
C1923 C1924 1.410 . S
C1923 C1931 1.503 . S
C1924 C1923 1.410 . S
C1924 C1925 1.392 . S
C1924 C1927 1.511 . S
C1925 C1921 1.376 . S
C1925 C1924 1.392 . S
C1925 H1937 0.929 . S
C1926 C1922 1.531 . S
C1926 H1938 0.960 . S
C1926 H1939 0.962 . S
C1926 H1940 0.960 . S
C1927 C1924 1.511 . S
C1927 H1941 0.961 . S
C1927 H1942 0.961 . S
C1927 H1943 0.961 . S
C1928 C1929 1.370 . S
C1928 C1930 1.363 . S
C1928 H1944 0.931 . S
C1929 C1928 1.370 . S
C1929 C1933 1.408 . S
C1930 C1928 1.363 . S
C1930 C1931 1.370 . S
C1930 C1934 1.524 . S
C1931 C1923 1.503 . S
C1931 C1930 1.370 . S
C1931 C1932 1.403 . S
C1932 C1931 1.403 . S
C1932 C1933 1.404 . S
C1932 C1935 1.539 . S
C1933 C1929 1.408 . S
C1933 C1932 1.404 . S
C1933 H1945 0.930 . S
C1934 C1930 1.524 . S
C1934 H1946 0.956 . S
C1934 H1947 0.961 . S
C1934 H1948 0.961 . S
C1935 C1932 1.539 . S
C1935 H1949 0.958 . S
C1935 H1950 0.961 . S
C1935 H1951 0.960 . S
H1936 C1920 0.931 . S
H1937 C1925 0.929 . S
H1938 C1926 0.960 . S
H1939 C1926 0.962 . S
H1940 C1926 0.960 . S
H1941 C1927 0.961 . S
H1942 C1927 0.961 . S
H1943 C1927 0.961 . S
H1944 C1928 0.931 . S
H1945 C1933 0.930 . S
H1946 C1934 0.956 . S
H1947 C1934 0.961 . S
H1948 C1934 0.961 . S
H1949 C1935 0.958 . S
H1950 C1935 0.961 . S
H1951 C1935 0.960 . S
C1952 C1953 1.391 . S
C1952 C1954 1.394 . S
C1952 H1968 0.931 . S
C1953 C1952 1.391 . S
C1953 C1957 1.376 . S
C1954 C1952 1.394 . S
C1954 C1955 1.369 . S
C1954 C1958 1.531 . S
C1955 C1954 1.369 . S
C1955 C1956 1.410 . S
C1955 C1963 1.503 . S
C1956 C1955 1.410 . S
C1956 C1957 1.392 . S
C1956 C1959 1.511 . S
C1957 C1953 1.376 . S
C1957 C1956 1.392 . S
C1957 H1969 0.929 . S
C1958 C1954 1.531 . S
C1958 H1970 0.960 . S
C1958 H1971 0.962 . S
C1958 H1972 0.960 . S
C1959 C1956 1.511 . S
C1959 H1973 0.961 . S
C1959 H1974 0.961 1_554 S
C1959 H1975 0.961 . S
C1960 C1961 1.370 . S
C1960 C1962 1.363 . S
C1960 H1976 0.931 . S
C1961 C1960 1.370 . S
C1961 C1965 1.408 . S
C1962 C1960 1.363 . S
C1962 C1963 1.370 1_556 S
C1962 C1966 1.524 . S
C1963 C1955 1.503 . S
C1963 C1962 1.370 1_554 S
C1963 C1964 1.403 . S
C1964 C1963 1.403 . S
C1964 C1965 1.404 1_554 S
C1964 C1967 1.539 . S
C1965 C1961 1.408 . S
C1965 C1964 1.404 1_556 S
C1965 H1977 0.930 . S
C1966 C1962 1.524 . S
C1966 H1978 0.956 1_556 S
C1966 H1979 0.961 . S
C1966 H1980 0.961 . S
C1967 C1964 1.539 . S
C1967 H1981 0.958 . S
C1967 H1982 0.961 . S
C1967 H1983 0.960 . S
H1968 C1952 0.931 . S
H1969 C1957 0.929 . S
H1970 C1958 0.960 . S
H1971 C1958 0.962 . S
H1972 C1958 0.960 . S
H1973 C1959 0.961 . S
H1974 C1959 0.961 1_556 S
H1975 C1959 0.961 . S
H1976 C1960 0.931 . S
H1977 C1965 0.930 . S
H1978 C1966 0.956 1_554 S
H1979 C1966 0.961 . S
H1980 C1966 0.961 . S
H1981 C1967 0.958 . S
H1982 C1967 0.961 . S
H1983 C1967 0.960 . S
C1984 C1985 1.391 . S
C1984 C1986 1.394 . S
C1984 H2000 0.931 . S
C1985 C1984 1.391 . S
C1985 C1989 1.376 . S
C1986 C1984 1.394 . S
C1986 C1987 1.369 . S
C1986 C1990 1.531 . S
C1987 C1986 1.369 . S
C1987 C1988 1.410 . S
C1987 C1995 1.503 . S
C1988 C1987 1.410 . S
C1988 C1989 1.392 . S
C1988 C1991 1.511 . S
C1989 C1985 1.376 . S
C1989 C1988 1.392 . S
C1989 H2001 0.929 . S
C1990 C1986 1.531 . S
C1990 H2002 0.960 . S
C1990 H2003 0.962 . S
C1990 H2004 0.960 . S
C1991 C1988 1.511 . S
C1991 H2005 0.961 1_554 S
C1991 H2006 0.961 . S
C1991 H2007 0.961 . S
C1992 C1993 1.370 . S
C1992 C1994 1.363 . S
C1992 H2008 0.931 . S
C1993 C1992 1.370 . S
C1993 C1997 1.408 . S
C1994 C1992 1.363 . S
C1994 C1995 1.370 . S
C1994 C1998 1.524 . S
C1995 C1987 1.503 . S
C1995 C1994 1.370 . S
C1995 C1996 1.403 . S
C1996 C1995 1.403 . S
C1996 C1997 1.404 . S
C1996 C1999 1.539 . S
C1997 C1993 1.408 . S
C1997 C1996 1.404 . S
C1997 H2009 0.930 . S
C1998 C1994 1.524 . S
C1998 H2010 0.956 . S
C1998 H2011 0.961 . S
C1998 H2012 0.961 . S
C1999 C1996 1.539 . S
C1999 H2013 0.958 . S
C1999 H2014 0.961 . S
C1999 H2015 0.960 . S
H2000 C1984 0.931 . S
H2001 C1989 0.929 . S
H2002 C1990 0.960 . S
H2003 C1990 0.962 . S
H2004 C1990 0.960 . S
H2005 C1991 0.961 1_556 S
H2006 C1991 0.961 . S
H2007 C1991 0.961 . S
H2008 C1992 0.931 . S
H2009 C1997 0.930 . S
H2010 C1998 0.956 . S
H2011 C1998 0.961 . S
H2012 C1998 0.961 . S
H2013 C1999 0.958 . S
H2014 C1999 0.961 . S
H2015 C1999 0.960 . S
C2016 C2017 1.391 . S
C2016 C2018 1.394 . S
C2016 H2032 0.931 . S
C2017 C2016 1.391 . S
C2017 C2021 1.376 . S
C2018 C2016 1.394 . S
C2018 C2019 1.369 . S
C2018 C2022 1.531 . S
C2019 C2018 1.369 . S
C2019 C2020 1.410 . S
C2019 C2027 1.503 . S
C2020 C2019 1.410 . S
C2020 C2021 1.392 . S
C2020 C2023 1.511 . S
C2021 C2017 1.376 . S
C2021 C2020 1.392 . S
C2021 H2033 0.929 . S
C2022 C2018 1.531 . S
C2022 H2034 0.960 . S
C2022 H2035 0.962 . S
C2022 H2036 0.960 . S
C2023 C2020 1.511 . S
C2023 H2037 0.961 . S
C2023 H2038 0.961 . S
C2023 H2039 0.961 . S
C2024 C2025 1.370 . S
C2024 C2026 1.363 . S
C2024 H2040 0.931 . S
C2025 C2024 1.370 . S
C2025 C2029 1.408 . S
C2026 C2024 1.363 . S
C2026 C2027 1.370 . S
C2026 C2030 1.524 . S
C2027 C2019 1.503 . S
C2027 C2026 1.370 . S
C2027 C2028 1.403 . S
C2028 C2027 1.403 . S
C2028 C2029 1.404 . S
C2028 C2031 1.539 . S
C2029 C2025 1.408 . S
C2029 C2028 1.404 . S
C2029 H2041 0.930 . S
C2030 C2026 1.524 . S
C2030 H2042 0.956 . S
C2030 H2043 0.961 . S
C2030 H2044 0.961 . S
C2031 C2028 1.539 . S
C2031 H2045 0.958 . S
C2031 H2046 0.961 . S
C2031 H2047 0.960 . S
H2032 C2016 0.931 . S
H2033 C2021 0.929 . S
H2034 C2022 0.960 . S
H2035 C2022 0.962 . S
H2036 C2022 0.960 . S
H2037 C2023 0.961 . S
H2038 C2023 0.961 . S
H2039 C2023 0.961 . S
H2040 C2024 0.931 . S
H2041 C2029 0.930 . S
H2042 C2030 0.956 . S
H2043 C2030 0.961 . S
H2044 C2030 0.961 . S
H2045 C2031 0.958 . S
H2046 C2031 0.961 . S
H2047 C2031 0.960 . S
C2048 C2049 1.391 . S
C2048 C2050 1.394 . S
C2048 H2064 0.931 . S
C2049 C2048 1.391 . S
C2049 C2053 1.376 . S
C2050 C2048 1.394 . S
C2050 C2051 1.369 . S
C2050 C2054 1.531 . S
C2051 C2050 1.369 . S
C2051 C2052 1.410 . S
C2051 C2059 1.503 . S
C2052 C2051 1.410 . S
C2052 C2053 1.392 . S
C2052 C2055 1.511 . S
C2053 C2049 1.376 . S
C2053 C2052 1.392 . S
C2053 H2065 0.929 . S
C2054 C2050 1.531 . S
C2054 H2066 0.960 . S
C2054 H2067 0.962 . S
C2054 H2068 0.960 . S
C2055 C2052 1.511 . S
C2055 H2069 0.961 . S
C2055 H2070 0.961 . S
C2055 H2071 0.961 . S
C2056 C2057 1.370 . S
C2056 C2058 1.363 . S
C2056 H2072 0.931 . S
C2057 C2056 1.370 . S
C2057 C2061 1.408 . S
C2058 C2056 1.363 . S
C2058 C2059 1.370 . S
C2058 C2062 1.524 . S
C2059 C2051 1.503 . S
C2059 C2058 1.370 . S
C2059 C2060 1.403 . S
C2060 C2059 1.403 . S
C2060 C2061 1.404 . S
C2060 C2063 1.539 . S
C2061 C2057 1.408 . S
C2061 C2060 1.404 . S
C2061 H2073 0.930 . S
C2062 C2058 1.524 . S
C2062 H2074 0.956 . S
C2062 H2075 0.961 . S
C2062 H2076 0.961 . S
C2063 C2060 1.539 . S
C2063 H2077 0.958 . S
C2063 H2078 0.961 . S
C2063 H2079 0.960 . S
H2064 C2048 0.931 . S
H2065 C2053 0.929 . S
H2066 C2054 0.960 . S
H2067 C2054 0.962 . S
H2068 C2054 0.960 . S
H2069 C2055 0.961 . S
H2070 C2055 0.961 . S
H2071 C2055 0.961 . S
H2072 C2056 0.931 . S
H2073 C2061 0.930 . S
H2074 C2062 0.956 . S
H2075 C2062 0.961 . S
H2076 C2062 0.961 . S
H2077 C2063 0.958 . S
H2078 C2063 0.961 . S
H2079 C2063 0.960 . S
C2080 C2081 1.391 . S
C2080 C2082 1.394 . S
C2080 H2096 0.931 . S
C2081 C2080 1.391 . S
C2081 C2085 1.376 . S
C2082 C2080 1.394 . S
C2082 C2083 1.369 . S
C2082 C2086 1.531 . S
C2083 C2082 1.369 . S
C2083 C2084 1.410 . S
C2083 C2091 1.503 . S
C2084 C2083 1.410 . S
C2084 C2085 1.392 . S
C2084 C2087 1.511 . S
C2085 C2081 1.376 . S
C2085 C2084 1.392 . S
C2085 H2097 0.929 . S
C2086 C2082 1.531 . S
C2086 H2098 0.960 . S
C2086 H2099 0.962 . S
C2086 H2100 0.960 . S
C2087 C2084 1.511 . S
C2087 H2101 0.961 . S
C2087 H2102 0.961 . S
C2087 H2103 0.961 . S
C2088 C2089 1.370 . S
C2088 C2090 1.363 . S
C2088 H2104 0.931 . S
C2089 C2088 1.370 . S
C2089 C2093 1.408 . S
C2090 C2088 1.363 . S
C2090 C2091 1.370 . S
C2090 C2094 1.524 . S
C2091 C2083 1.503 . S
C2091 C2090 1.370 . S
C2091 C2092 1.403 . S
C2092 C2091 1.403 . S
C2092 C2093 1.404 . S
C2092 C2095 1.539 . S
C2093 C2089 1.408 . S
C2093 C2092 1.404 . S
C2093 H2105 0.930 . S
C2094 C2090 1.524 . S
C2094 H2106 0.956 . S
C2094 H2107 0.961 . S
C2094 H2108 0.961 . S
C2095 C2092 1.539 . S
C2095 H2109 0.958 . S
C2095 H2110 0.961 . S
C2095 H2111 0.960 . S
H2096 C2080 0.931 . S
H2097 C2085 0.929 . S
H2098 C2086 0.960 . S
H2099 C2086 0.962 . S
H2100 C2086 0.960 . S
H2101 C2087 0.961 . S
H2102 C2087 0.961 . S
H2103 C2087 0.961 . S
H2104 C2088 0.931 . S
H2105 C2093 0.930 . S
H2106 C2094 0.956 . S
H2107 C2094 0.961 . S
H2108 C2094 0.961 . S
H2109 C2095 0.958 . S
H2110 C2095 0.961 . S
H2111 C2095 0.960 . S
C2112 C2113 1.391 . S
C2112 C2114 1.394 . S
C2112 H2128 0.931 . S
C2113 C2112 1.391 . S
C2113 C2117 1.376 . S
C2114 C2112 1.394 . S
C2114 C2115 1.369 . S
C2114 C2118 1.531 . S
C2115 C2114 1.369 . S
C2115 C2116 1.410 . S
C2115 C2123 1.503 . S
C2116 C2115 1.410 . S
C2116 C2117 1.392 . S
C2116 C2119 1.511 . S
C2117 C2113 1.376 . S
C2117 C2116 1.392 . S
C2117 H2129 0.929 . S
C2118 C2114 1.531 . S
C2118 H2130 0.960 . S
C2118 H2131 0.962 . S
C2118 H2132 0.960 . S
C2119 C2116 1.511 . S
C2119 H2133 0.961 . S
C2119 H2134 0.961 . S
C2119 H2135 0.961 . S
C2120 C2121 1.370 . S
C2120 C2122 1.363 . S
C2120 H2136 0.931 . S
C2121 C2120 1.370 . S
C2121 C2125 1.408 . S
C2122 C2120 1.363 . S
C2122 C2123 1.370 . S
C2122 C2126 1.524 . S
C2123 C2115 1.503 . S
C2123 C2122 1.370 . S
C2123 C2124 1.403 . S
C2124 C2123 1.403 . S
C2124 C2125 1.404 . S
C2124 C2127 1.539 . S
C2125 C2121 1.408 . S
C2125 C2124 1.404 . S
C2125 H2137 0.930 . S
C2126 C2122 1.524 . S
C2126 H2138 0.956 . S
C2126 H2139 0.961 . S
C2126 H2140 0.961 . S
C2127 C2124 1.539 . S
C2127 H2141 0.958 . S
C2127 H2142 0.961 . S
C2127 H2143 0.960 . S
H2128 C2112 0.931 . S
H2129 C2117 0.929 . S
H2130 C2118 0.960 . S
H2131 C2118 0.962 . S
H2132 C2118 0.960 . S
H2133 C2119 0.961 . S
H2134 C2119 0.961 . S
H2135 C2119 0.961 . S
H2136 C2120 0.931 . S
H2137 C2125 0.930 . S
H2138 C2126 0.956 . S
H2139 C2126 0.961 . S
H2140 C2126 0.961 . S
H2141 C2127 0.958 . S
H2142 C2127 0.961 . S
H2143 C2127 0.960 . S
C2144 C2145 1.391 . S
C2144 C2146 1.394 . S
C2144 H2160 0.931 . S
C2145 C2144 1.391 . S
C2145 C2149 1.376 . S
C2146 C2144 1.394 . S
C2146 C2147 1.369 . S
C2146 C2150 1.531 . S
C2147 C2146 1.369 . S
C2147 C2148 1.410 . S
C2147 C2155 1.503 . S
C2148 C2147 1.410 . S
C2148 C2149 1.392 . S
C2148 C2151 1.511 . S
C2149 C2145 1.376 . S
C2149 C2148 1.392 . S
C2149 H2161 0.929 . S
C2150 C2146 1.531 . S
C2150 H2162 0.960 . S
C2150 H2163 0.962 . S
C2150 H2164 0.960 . S
C2151 C2148 1.511 . S
C2151 H2165 0.961 . S
C2151 H2166 0.961 . S
C2151 H2167 0.961 . S
C2152 C2153 1.370 . S
C2152 C2154 1.363 . S
C2152 H2168 0.931 . S
C2153 C2152 1.370 . S
C2153 C2157 1.408 . S
C2154 C2152 1.363 . S
C2154 C2155 1.370 . S
C2154 C2158 1.524 . S
C2155 C2147 1.503 . S
C2155 C2154 1.370 . S
C2155 C2156 1.403 . S
C2156 C2155 1.403 . S
C2156 C2157 1.404 . S
C2156 C2159 1.539 . S
C2157 C2153 1.408 . S
C2157 C2156 1.404 . S
C2157 H2169 0.930 . S
C2158 C2154 1.524 . S
C2158 H2170 0.956 . S
C2158 H2171 0.961 . S
C2158 H2172 0.961 . S
C2159 C2156 1.539 . S
C2159 H2173 0.958 . S
C2159 H2174 0.961 . S
C2159 H2175 0.960 . S
H2160 C2144 0.931 . S
H2161 C2149 0.929 . S
H2162 C2150 0.960 . S
H2163 C2150 0.962 . S
H2164 C2150 0.960 . S
H2165 C2151 0.961 . S
H2166 C2151 0.961 . S
H2167 C2151 0.961 . S
H2168 C2152 0.931 . S
H2169 C2157 0.930 . S
H2170 C2158 0.956 . S
H2171 C2158 0.961 . S
H2172 C2158 0.961 . S
H2173 C2159 0.958 . S
H2174 C2159 0.961 . S
H2175 C2159 0.960 . S
C2176 C2177 1.391 . S
C2176 C2178 1.394 . S
C2176 H2192 0.931 . S
C2177 C2176 1.391 . S
C2177 C2181 1.376 . S
C2178 C2176 1.394 . S
C2178 C2179 1.369 . S
C2178 C2182 1.531 . S
C2179 C2178 1.369 . S
C2179 C2180 1.410 . S
C2179 C2187 1.503 . S
C2180 C2179 1.410 . S
C2180 C2181 1.392 . S
C2180 C2183 1.511 . S
C2181 C2177 1.376 . S
C2181 C2180 1.392 . S
C2181 H2193 0.929 . S
C2182 C2178 1.531 . S
C2182 H2194 0.960 . S
C2182 H2195 0.962 . S
C2182 H2196 0.960 . S
C2183 C2180 1.511 . S
C2183 H2197 0.961 . S
C2183 H2198 0.961 . S
C2183 H2199 0.961 . S
C2184 C2185 1.370 . S
C2184 C2186 1.363 . S
C2184 H2200 0.931 . S
C2185 C2184 1.370 . S
C2185 C2189 1.408 . S
C2186 C2184 1.363 . S
C2186 C2187 1.370 . S
C2186 C2190 1.524 . S
C2187 C2179 1.503 . S
C2187 C2186 1.370 . S
C2187 C2188 1.403 . S
C2188 C2187 1.403 . S
C2188 C2189 1.404 . S
C2188 C2191 1.539 . S
C2189 C2185 1.408 . S
C2189 C2188 1.404 . S
C2189 H2201 0.930 . S
C2190 C2186 1.524 . S
C2190 H2202 0.956 . S
C2190 H2203 0.961 . S
C2190 H2204 0.961 . S
C2191 C2188 1.539 . S
C2191 H2205 0.958 . S
C2191 H2206 0.961 . S
C2191 H2207 0.960 . S
H2192 C2176 0.931 . S
H2193 C2181 0.929 . S
H2194 C2182 0.960 . S
H2195 C2182 0.962 . S
H2196 C2182 0.960 . S
H2197 C2183 0.961 . S
H2198 C2183 0.961 . S
H2199 C2183 0.961 . S
H2200 C2184 0.931 . S
H2201 C2189 0.930 . S
H2202 C2190 0.956 . S
H2203 C2190 0.961 . S
H2204 C2190 0.961 . S
H2205 C2191 0.958 . S
H2206 C2191 0.961 . S
H2207 C2191 0.960 . S
C2208 C2209 1.391 . S
C2208 C2210 1.394 . S
C2208 H2224 0.931 . S
C2209 C2208 1.391 . S
C2209 C2213 1.376 . S
C2210 C2208 1.394 . S
C2210 C2211 1.369 . S
C2210 C2214 1.531 . S
C2211 C2210 1.369 . S
C2211 C2212 1.410 . S
C2211 C2219 1.503 . S
C2212 C2211 1.410 . S
C2212 C2213 1.392 . S
C2212 C2215 1.511 . S
C2213 C2209 1.376 . S
C2213 C2212 1.392 . S
C2213 H2225 0.929 . S
C2214 C2210 1.531 . S
C2214 H2226 0.960 . S
C2214 H2227 0.962 . S
C2214 H2228 0.960 . S
C2215 C2212 1.511 . S
C2215 H2229 0.961 . S
C2215 H2230 0.961 . S
C2215 H2231 0.961 . S
C2216 C2217 1.370 . S
C2216 C2218 1.363 . S
C2216 H2232 0.931 . S
C2217 C2216 1.370 . S
C2217 C2221 1.408 . S
C2218 C2216 1.363 . S
C2218 C2219 1.370 . S
C2218 C2222 1.524 . S
C2219 C2211 1.503 . S
C2219 C2218 1.370 . S
C2219 C2220 1.403 . S
C2220 C2219 1.403 . S
C2220 C2221 1.404 . S
C2220 C2223 1.539 . S
C2221 C2217 1.408 . S
C2221 C2220 1.404 . S
C2221 H2233 0.930 . S
C2222 C2218 1.524 . S
C2222 H2234 0.956 . S
C2222 H2235 0.961 . S
C2222 H2236 0.961 . S
C2223 C2220 1.539 . S
C2223 H2237 0.958 . S
C2223 H2238 0.961 . S
C2223 H2239 0.960 . S
H2224 C2208 0.931 . S
H2225 C2213 0.929 . S
H2226 C2214 0.960 . S
H2227 C2214 0.962 . S
H2228 C2214 0.960 . S
H2229 C2215 0.961 . S
H2230 C2215 0.961 . S
H2231 C2215 0.961 . S
H2232 C2216 0.931 . S
H2233 C2221 0.930 . S
H2234 C2222 0.956 . S
H2235 C2222 0.961 . S
H2236 C2222 0.961 . S
H2237 C2223 0.958 . S
H2238 C2223 0.961 . S
H2239 C2223 0.960 . S
C2240 C2241 1.391 . S
C2240 C2242 1.394 . S
C2240 H2256 0.931 . S
C2241 C2240 1.391 . S
C2241 C2245 1.376 . S
C2242 C2240 1.394 . S
C2242 C2243 1.369 . S
C2242 C2246 1.531 . S
C2243 C2242 1.369 . S
C2243 C2244 1.410 . S
C2243 C2251 1.503 . S
C2244 C2243 1.410 . S
C2244 C2245 1.392 . S
C2244 C2247 1.511 . S
C2245 C2241 1.376 . S
C2245 C2244 1.392 . S
C2245 H2257 0.929 . S
C2246 C2242 1.531 . S
C2246 H2258 0.960 . S
C2246 H2259 0.962 . S
C2246 H2260 0.960 . S
C2247 C2244 1.511 . S
C2247 H2261 0.961 . S
C2247 H2262 0.961 . S
C2247 H2263 0.961 . S
C2248 C2249 1.370 . S
C2248 C2250 1.363 . S
C2248 H2264 0.931 . S
C2249 C2248 1.370 . S
C2249 C2253 1.408 . S
C2250 C2248 1.363 . S
C2250 C2251 1.370 . S
C2250 C2254 1.524 . S
C2251 C2243 1.503 . S
C2251 C2250 1.370 . S
C2251 C2252 1.403 . S
C2252 C2251 1.403 . S
C2252 C2253 1.404 . S
C2252 C2255 1.539 . S
C2253 C2249 1.408 . S
C2253 C2252 1.404 . S
C2253 H2265 0.930 . S
C2254 C2250 1.524 . S
C2254 H2266 0.956 . S
C2254 H2267 0.961 . S
C2254 H2268 0.961 . S
C2255 C2252 1.539 . S
C2255 H2269 0.958 . S
C2255 H2270 0.961 . S
C2255 H2271 0.960 . S
H2256 C2240 0.931 . S
H2257 C2245 0.929 . S
H2258 C2246 0.960 . S
H2259 C2246 0.962 . S
H2260 C2246 0.960 . S
H2261 C2247 0.961 . S
H2262 C2247 0.961 . S
H2263 C2247 0.961 . S
H2264 C2248 0.931 . S
H2265 C2253 0.930 . S
H2266 C2254 0.956 . S
H2267 C2254 0.961 . S
H2268 C2254 0.961 . S
H2269 C2255 0.958 . S
H2270 C2255 0.961 . S
H2271 C2255 0.960 . S
C2272 C2273 1.391 . S
C2272 C2274 1.394 . S
C2272 H2288 0.931 . S
C2273 C2272 1.391 . S
C2273 C2277 1.376 . S
C2274 C2272 1.394 . S
C2274 C2275 1.369 . S
C2274 C2278 1.531 . S
C2275 C2274 1.369 . S
C2275 C2276 1.410 . S
C2275 C2283 1.503 . S
C2276 C2275 1.410 . S
C2276 C2277 1.392 . S
C2276 C2279 1.511 . S
C2277 C2273 1.376 . S
C2277 C2276 1.392 . S
C2277 H2289 0.929 . S
C2278 C2274 1.531 . S
C2278 H2290 0.960 . S
C2278 H2291 0.962 . S
C2278 H2292 0.960 . S
C2279 C2276 1.511 . S
C2279 H2293 0.961 . S
C2279 H2294 0.961 . S
C2279 H2295 0.961 . S
C2280 C2281 1.370 . S
C2280 C2282 1.363 . S
C2280 H2296 0.931 . S
C2281 C2280 1.370 . S
C2281 C2285 1.408 . S
C2282 C2280 1.363 . S
C2282 C2283 1.370 . S
C2282 C2286 1.524 . S
C2283 C2275 1.503 . S
C2283 C2282 1.370 . S
C2283 C2284 1.403 . S
C2284 C2283 1.403 . S
C2284 C2285 1.404 . S
C2284 C2287 1.539 . S
C2285 C2281 1.408 . S
C2285 C2284 1.404 . S
C2285 H2297 0.930 . S
C2286 C2282 1.524 . S
C2286 H2298 0.956 . S
C2286 H2299 0.961 . S
C2286 H2300 0.961 . S
C2287 C2284 1.539 . S
C2287 H2301 0.958 . S
C2287 H2302 0.961 . S
C2287 H2303 0.960 . S
H2288 C2272 0.931 . S
H2289 C2277 0.929 . S
H2290 C2278 0.960 . S
H2291 C2278 0.962 . S
H2292 C2278 0.960 . S
H2293 C2279 0.961 . S
H2294 C2279 0.961 . S
H2295 C2279 0.961 . S
H2296 C2280 0.931 . S
H2297 C2285 0.930 . S
H2298 C2286 0.956 . S
H2299 C2286 0.961 . S
H2300 C2286 0.961 . S
H2301 C2287 0.958 . S
H2302 C2287 0.961 . S
H2303 C2287 0.960 . S
C2304 C2305 1.391 . S
C2304 C2306 1.394 . S
C2304 H2320 0.931 . S
C2305 C2304 1.391 . S
C2305 C2309 1.376 . S
C2306 C2304 1.394 . S
C2306 C2307 1.369 . S
C2306 C2310 1.531 . S
C2307 C2306 1.369 . S
C2307 C2308 1.410 . S
C2307 C2315 1.503 . S
C2308 C2307 1.410 . S
C2308 C2309 1.392 . S
C2308 C2311 1.511 . S
C2309 C2305 1.376 . S
C2309 C2308 1.392 . S
C2309 H2321 0.929 . S
C2310 C2306 1.531 . S
C2310 H2322 0.960 . S
C2310 H2323 0.962 . S
C2310 H2324 0.960 . S
C2311 C2308 1.511 . S
C2311 H2325 0.961 . S
C2311 H2326 0.961 . S
C2311 H2327 0.961 . S
C2312 C2313 1.370 . S
C2312 C2314 1.363 . S
C2312 H2328 0.931 . S
C2313 C2312 1.370 . S
C2313 C2317 1.408 . S
C2314 C2312 1.363 . S
C2314 C2315 1.370 . S
C2314 C2318 1.524 . S
C2315 C2307 1.503 . S
C2315 C2314 1.370 . S
C2315 C2316 1.403 . S
C2316 C2315 1.403 . S
C2316 C2317 1.404 . S
C2316 C2319 1.539 . S
C2317 C2313 1.408 . S
C2317 C2316 1.404 . S
C2317 H2329 0.930 . S
C2318 C2314 1.524 . S
C2318 H2330 0.956 . S
C2318 H2331 0.961 . S
C2318 H2332 0.961 . S
C2319 C2316 1.539 . S
C2319 H2333 0.958 . S
C2319 H2334 0.961 . S
C2319 H2335 0.960 . S
H2320 C2304 0.931 . S
H2321 C2309 0.929 . S
H2322 C2310 0.960 . S
H2323 C2310 0.962 . S
H2324 C2310 0.960 . S
H2325 C2311 0.961 . S
H2326 C2311 0.961 . S
H2327 C2311 0.961 . S
H2328 C2312 0.931 . S
H2329 C2317 0.930 . S
H2330 C2318 0.956 . S
H2331 C2318 0.961 . S
H2332 C2318 0.961 . S
H2333 C2319 0.958 . S
H2334 C2319 0.961 . S
H2335 C2319 0.960 . S
C2336 C2337 1.391 . S
C2336 C2338 1.394 . S
C2336 H2352 0.931 . S
C2337 C2336 1.391 . S
C2337 C2341 1.376 . S
C2338 C2336 1.394 . S
C2338 C2339 1.369 . S
C2338 C2342 1.531 . S
C2339 C2338 1.369 . S
C2339 C2340 1.410 . S
C2339 C2347 1.503 . S
C2340 C2339 1.410 . S
C2340 C2341 1.392 . S
C2340 C2343 1.511 . S
C2341 C2337 1.376 . S
C2341 C2340 1.392 . S
C2341 H2353 0.929 . S
C2342 C2338 1.531 . S
C2342 H2354 0.960 . S
C2342 H2355 0.962 . S
C2342 H2356 0.960 . S
C2343 C2340 1.511 . S
C2343 H2357 0.961 . S
C2343 H2358 0.961 . S
C2343 H2359 0.961 . S
C2344 C2345 1.370 . S
C2344 C2346 1.363 . S
C2344 H2360 0.931 . S
C2345 C2344 1.370 . S
C2345 C2349 1.408 . S
C2346 C2344 1.363 . S
C2346 C2347 1.370 . S
C2346 C2350 1.524 . S
C2347 C2339 1.503 . S
C2347 C2346 1.370 . S
C2347 C2348 1.403 . S
C2348 C2347 1.403 . S
C2348 C2349 1.404 . S
C2348 C2351 1.539 . S
C2349 C2345 1.408 . S
C2349 C2348 1.404 . S
C2349 H2361 0.930 . S
C2350 C2346 1.524 . S
C2350 H2362 0.956 . S
C2350 H2363 0.961 . S
C2350 H2364 0.961 . S
C2351 C2348 1.539 . S
C2351 H2365 0.958 . S
C2351 H2366 0.961 . S
C2351 H2367 0.960 . S
H2352 C2336 0.931 . S
H2353 C2341 0.929 . S
H2354 C2342 0.960 . S
H2355 C2342 0.962 . S
H2356 C2342 0.960 . S
H2357 C2343 0.961 . S
H2358 C2343 0.961 . S
H2359 C2343 0.961 . S
H2360 C2344 0.931 . S
H2361 C2349 0.930 . S
H2362 C2350 0.956 . S
H2363 C2350 0.961 . S
H2364 C2350 0.961 . S
H2365 C2351 0.958 . S
H2366 C2351 0.961 . S
H2367 C2351 0.960 . S
C2368 C2369 1.391 . S
C2368 C2370 1.394 . S
C2368 H2384 0.931 . S
C2369 C2368 1.391 . S
C2369 C2373 1.376 . S
C2370 C2368 1.394 . S
C2370 C2371 1.369 . S
C2370 C2374 1.531 . S
C2371 C2370 1.369 . S
C2371 C2372 1.410 . S
C2371 C2379 1.503 . S
C2372 C2371 1.410 . S
C2372 C2373 1.392 . S
C2372 C2375 1.511 . S
C2373 C2369 1.376 . S
C2373 C2372 1.392 . S
C2373 H2385 0.929 . S
C2374 C2370 1.531 . S
C2374 H2386 0.960 . S
C2374 H2387 0.962 . S
C2374 H2388 0.960 . S
C2375 C2372 1.511 . S
C2375 H2389 0.961 . S
C2375 H2390 0.961 . S
C2375 H2391 0.961 . S
C2376 C2377 1.370 . S
C2376 C2378 1.363 . S
C2376 H2392 0.931 . S
C2377 C2376 1.370 . S
C2377 C2381 1.408 . S
C2378 C2376 1.363 . S
C2378 C2379 1.370 . S
C2378 C2382 1.524 . S
C2379 C2371 1.503 . S
C2379 C2378 1.370 . S
C2379 C2380 1.403 . S
C2380 C2379 1.403 . S
C2380 C2381 1.404 . S
C2380 C2383 1.539 . S
C2381 C2377 1.408 . S
C2381 C2380 1.404 . S
C2381 H2393 0.930 . S
C2382 C2378 1.524 . S
C2382 H2394 0.956 . S
C2382 H2395 0.961 . S
C2382 H2396 0.961 . S
C2383 C2380 1.539 . S
C2383 H2397 0.958 . S
C2383 H2398 0.961 . S
C2383 H2399 0.960 . S
H2384 C2368 0.931 . S
H2385 C2373 0.929 . S
H2386 C2374 0.960 . S
H2387 C2374 0.962 . S
H2388 C2374 0.960 . S
H2389 C2375 0.961 . S
H2390 C2375 0.961 . S
H2391 C2375 0.961 . S
H2392 C2376 0.931 . S
H2393 C2381 0.930 . S
H2394 C2382 0.956 . S
H2395 C2382 0.961 . S
H2396 C2382 0.961 . S
H2397 C2383 0.958 . S
H2398 C2383 0.961 . S
H2399 C2383 0.960 . S
C2400 C2401 1.391 . S
C2400 C2402 1.394 . S
C2400 H2416 0.931 . S
C2401 C2400 1.391 . S
C2401 C2405 1.376 . S
C2402 C2400 1.394 . S
C2402 C2403 1.369 . S
C2402 C2406 1.531 . S
C2403 C2402 1.369 . S
C2403 C2404 1.410 . S
C2403 C2411 1.503 . S
C2404 C2403 1.410 . S
C2404 C2405 1.392 . S
C2404 C2407 1.511 . S
C2405 C2401 1.376 . S
C2405 C2404 1.392 . S
C2405 H2417 0.929 . S
C2406 C2402 1.531 . S
C2406 H2418 0.960 . S
C2406 H2419 0.962 . S
C2406 H2420 0.960 . S
C2407 C2404 1.511 . S
C2407 H2421 0.961 . S
C2407 H2422 0.961 . S
C2407 H2423 0.961 . S
C2408 C2409 1.370 . S
C2408 C2410 1.363 . S
C2408 H2424 0.931 . S
C2409 C2408 1.370 . S
C2409 C2413 1.408 . S
C2410 C2408 1.363 . S
C2410 C2411 1.370 . S
C2410 C2414 1.524 . S
C2411 C2403 1.503 . S
C2411 C2410 1.370 . S
C2411 C2412 1.403 . S
C2412 C2411 1.403 . S
C2412 C2413 1.404 . S
C2412 C2415 1.539 . S
C2413 C2409 1.408 . S
C2413 C2412 1.404 . S
C2413 H2425 0.930 . S
C2414 C2410 1.524 . S
C2414 H2426 0.956 . S
C2414 H2427 0.961 . S
C2414 H2428 0.961 . S
C2415 C2412 1.539 . S
C2415 H2429 0.958 . S
C2415 H2430 0.961 . S
C2415 H2431 0.960 . S
H2416 C2400 0.931 . S
H2417 C2405 0.929 . S
H2418 C2406 0.960 . S
H2419 C2406 0.962 . S
H2420 C2406 0.960 . S
H2421 C2407 0.961 . S
H2422 C2407 0.961 . S
H2423 C2407 0.961 . S
H2424 C2408 0.931 . S
H2425 C2413 0.930 . S
H2426 C2414 0.956 . S
H2427 C2414 0.961 . S
H2428 C2414 0.961 . S
H2429 C2415 0.958 . S
H2430 C2415 0.961 . S
H2431 C2415 0.960 . S
C2432 C2433 1.391 . S
C2432 C2434 1.394 . S
C2432 H2448 0.931 . S
C2433 C2432 1.391 . S
C2433 C2437 1.376 . S
C2434 C2432 1.394 . S
C2434 C2435 1.369 . S
C2434 C2438 1.531 . S
C2435 C2434 1.369 . S
C2435 C2436 1.410 . S
C2435 C2443 1.503 . S
C2436 C2435 1.410 . S
C2436 C2437 1.392 . S
C2436 C2439 1.511 . S
C2437 C2433 1.376 . S
C2437 C2436 1.392 . S
C2437 H2449 0.929 . S
C2438 C2434 1.531 . S
C2438 H2450 0.960 . S
C2438 H2451 0.962 . S
C2438 H2452 0.960 . S
C2439 C2436 1.511 . S
C2439 H2453 0.961 . S
C2439 H2454 0.961 . S
C2439 H2455 0.961 . S
C2440 C2441 1.370 . S
C2440 C2442 1.363 . S
C2440 H2456 0.931 . S
C2441 C2440 1.370 . S
C2441 C2445 1.408 . S
C2442 C2440 1.363 . S
C2442 C2443 1.370 . S
C2442 C2446 1.524 . S
C2443 C2435 1.503 . S
C2443 C2442 1.370 . S
C2443 C2444 1.403 . S
C2444 C2443 1.403 . S
C2444 C2445 1.404 . S
C2444 C2447 1.539 . S
C2445 C2441 1.408 . S
C2445 C2444 1.404 . S
C2445 H2457 0.930 . S
C2446 C2442 1.524 . S
C2446 H2458 0.956 . S
C2446 H2459 0.961 . S
C2446 H2460 0.961 . S
C2447 C2444 1.539 . S
C2447 H2461 0.958 . S
C2447 H2462 0.961 . S
C2447 H2463 0.960 . S
H2448 C2432 0.931 . S
H2449 C2437 0.929 . S
H2450 C2438 0.960 . S
H2451 C2438 0.962 . S
H2452 C2438 0.960 . S
H2453 C2439 0.961 . S
H2454 C2439 0.961 . S
H2455 C2439 0.961 . S
H2456 C2440 0.931 . S
H2457 C2445 0.930 . S
H2458 C2446 0.956 . S
H2459 C2446 0.961 . S
H2460 C2446 0.961 . S
H2461 C2447 0.958 . S
H2462 C2447 0.961 . S
H2463 C2447 0.960 . S
C2464 C2465 1.391 . S
C2464 C2466 1.394 . S
C2464 H2480 0.931 . S
C2465 C2464 1.391 . S
C2465 C2469 1.376 . S
C2466 C2464 1.394 . S
C2466 C2467 1.369 . S
C2466 C2470 1.531 . S
C2467 C2466 1.369 . S
C2467 C2468 1.410 . S
C2467 C2475 1.503 . S
C2468 C2467 1.410 . S
C2468 C2469 1.392 . S
C2468 C2471 1.511 . S
C2469 C2465 1.376 . S
C2469 C2468 1.392 . S
C2469 H2481 0.929 . S
C2470 C2466 1.531 . S
C2470 H2482 0.960 . S
C2470 H2483 0.962 . S
C2470 H2484 0.960 . S
C2471 C2468 1.511 . S
C2471 H2485 0.961 . S
C2471 H2486 0.961 . S
C2471 H2487 0.961 . S
C2472 C2473 1.370 . S
C2472 C2474 1.363 . S
C2472 H2488 0.931 . S
C2473 C2472 1.370 . S
C2473 C2477 1.408 . S
C2474 C2472 1.363 . S
C2474 C2475 1.370 . S
C2474 C2478 1.524 . S
C2475 C2467 1.503 . S
C2475 C2474 1.370 . S
C2475 C2476 1.403 . S
C2476 C2475 1.403 . S
C2476 C2477 1.404 . S
C2476 C2479 1.539 . S
C2477 C2473 1.408 . S
C2477 C2476 1.404 . S
C2477 H2489 0.930 . S
C2478 C2474 1.524 . S
C2478 H2490 0.956 . S
C2478 H2491 0.961 . S
C2478 H2492 0.961 . S
C2479 C2476 1.539 . S
C2479 H2493 0.958 . S
C2479 H2494 0.961 . S
C2479 H2495 0.960 . S
H2480 C2464 0.931 . S
H2481 C2469 0.929 . S
H2482 C2470 0.960 . S
H2483 C2470 0.962 . S
H2484 C2470 0.960 . S
H2485 C2471 0.961 . S
H2486 C2471 0.961 . S
H2487 C2471 0.961 . S
H2488 C2472 0.931 . S
H2489 C2477 0.930 . S
H2490 C2478 0.956 . S
H2491 C2478 0.961 . S
H2492 C2478 0.961 . S
H2493 C2479 0.958 . S
H2494 C2479 0.961 . S
H2495 C2479 0.960 . S
C449 C88 1.112 . S
C457 C4 1.136 . S
C481 C18 1.151 . S
C489 C102 1.125 . S
C513 C60 1.130 . S
C521 C32 1.141 . S
C545 C46 1.152 . S
C553 C74 1.127 . S
C577 C200 1.143 . S
C585 C116 1.133 . S
C609 C214 1.119 . S
C617 C130 1.142 . S
C641 C144 1.129 . S
C649 C172 1.139 . S
C673 C158 1.138 . S
C681 C186 1.135 . S
C705 C228 1.140 . S
C713 C312 1.138 . S
C737 C242 1.145 . S
C745 C326 1.124 . S
C769 C284 1.130 . S
C777 C256 1.141 . S
C801 C298 1.143 . S
C809 C270 1.136 . S
C833 C340 1.151 . S
C841 C424 1.128 . S
C865 C438 1.114 . S
C873 C354 1.142 . S
C897 C396 1.126 . S
C905 C368 1.140 . S
C929 C382 1.119 . S
C937 C410 1.142 . S
C961 C5 1.313 . S
C969 C432 1.413 . S
C993 C222 1.407 . S
C1001 C19 1.238 . S
C1025 C33 1.314 . S
C1033 C404 1.415 . S
C1057 C47 1.205 . S
C1065 C194 1.413 . S
C1089 C376 1.404 . S
C1097 C61 1.268 . S
C1121 C166 1.403 . S
C1129 C75 1.245 . S
C1153 C89 1.313 . S
C1161 C348 1.415 . S
C1185 C138 1.405 . S
C1193 C103 1.239 . S
C1217 C117 1.253 . S
C1225 C320 1.410 . S
C1249 C110 1.414 . S
C1257 C131 1.280 . S
C1281 C145 1.315 . S
C1289 C292 1.414 . S
C1313 C159 1.269 . S
C1321 C82 1.416 . S
C1345 C264 1.404 . S
C1353 C173 1.245 . S
C1377 C187 1.203 . S
C1385 C54 1.412 . S
C1409 C201 1.227 . S
C1417 C236 1.410 . S
C1441 C26 1.416 . S
C1449 C215 1.270 . S
C1473 C229 1.236 . S
C1481 C208 1.415 . S
C1505 C243 1.316 . S
C1513 C446 1.414 . S
C1537 C180 1.405 . S
C1545 C257 1.270 . S
C1569 C271 1.229 . S
C1577 C418 1.410 . S
C1601 C152 1.402 . S
C1609 C285 1.255 . S
C1633 C390 1.416 . S
C1641 C299 1.279 . S
C1665 C124 1.409 . S
C1673 C313 1.283 . S
C1697 C362 1.411 . S
C1705 C327 1.284 . S
C1729 C341 1.268 . S
C1737 C96 1.416 . S
C1761 C334 1.416 . S
C1769 C355 1.269 . S
C1793 C68 1.402 . S
C1801 C369 1.256 . S
C1825 C383 1.209 . S
C1833 C306 1.411 . S
C1857 C397 1.223 . S
C1865 C40 1.415 . S
C1889 C411 1.315 . S
C1897 C278 1.414 . S
C1921 C12 1.405 . S
C1929 C425 1.278 . S
C1953 C439 1.289 . S
C1961 C250 1.415 . S
C1985 C11 1.181 . S
C1993 C305 1.182 . S
C2017 C319 1.214 . S
C2025 C25 1.170 . S
C2049 C39 1.157 . S
C2057 C333 1.199 . S
C2081 C291 1.145 . S
C2089 C53 1.200 . S
C2113 C277 1.222 . S
C2121 C67 1.170 . S
C2145 C235 1.184 . S
C2153 C81 1.181 . S
C2177 C249 1.151 . S
C2185 C95 1.196 . S
C2209 C263 1.157 . S
C2217 C109 1.199 . S
C2241 C123 1.154 . S
C2249 C417 1.197 . S
C2273 C431 1.182 . S
C2281 C137 1.185 . S
C2305 C445 1.168 . S
C2313 C151 1.191 . S
C2337 C403 1.210 . S
C2345 C165 1.175 . S
C2369 C389 1.210 . S
C2377 C179 1.175 . S
C2401 C347 1.214 . S
C2409 C193 1.173 . S
C2433 C207 1.143 . S
C2441 C361 1.202 . S
C2465 C221 1.167 . S
C2473 C375 1.192 . S
