# Generated by pormake.
# Topology uog, (4)-cn, num edge types: 1
# Building blocks:
#     Node 0, Type 0, BuildingBlock: KOZSID_clean_sbu_0, # of connection points: 4
#     Node 1, Type 0, BuildingBlock: KOZSID_clean_sbu_0, # of connection points: 4
#     Node 2, Type 0, BuildingBlock: KOZSID_clean_sbu_0, # of connection points: 4
#     Node 3, Type 0, BuildingBlock: KOZSID_clean_sbu_0, # of connection points: 4
#     Node 4, Type 0, BuildingBlock: KOZSID_clean_sbu_0, # of connection points: 4
#     Node 5, Type 0, BuildingBlock: KOZSID_clean_sbu_0, # of connection points: 4
#     Edge 6, Type (0, 0), BuildingBlock: MIFKUJ_clean_linker_0, # of connection points: 2
#     Edge 7, Type (0, 0), BuildingBlock: MIFKUJ_clean_linker_0, # of connection points: 2
#     Edge 8, Type (0, 0), BuildingBlock: MIFKUJ_clean_linker_0, # of connection points: 2
#     Edge 9, Type (0, 0), BuildingBlock: MIFKUJ_clean_linker_0, # of connection points: 2
#     Edge 10, Type (0, 0), BuildingBlock: MIFKUJ_clean_linker_0, # of connection points: 2
#     Edge 11, Type (0, 0), BuildingBlock: MIFKUJ_clean_linker_0, # of connection points: 2
#     Edge 12, Type (0, 0), BuildingBlock: MIFKUJ_clean_linker_0, # of connection points: 2
#     Edge 13, Type (0, 0), BuildingBlock: MIFKUJ_clean_linker_0, # of connection points: 2
#     Edge 14, Type (0, 0), BuildingBlock: MIFKUJ_clean_linker_0, # of connection points: 2
#     Edge 15, Type (0, 0), BuildingBlock: MIFKUJ_clean_linker_0, # of connection points: 2
#     Edge 16, Type (0, 0), BuildingBlock: MIFKUJ_clean_linker_0, # of connection points: 2
#     Edge 17, Type (0, 0), BuildingBlock: MIFKUJ_clean_linker_0, # of connection points: 2
# Relax obj value: 0.023
# Max RMSD: 0.251
# Mean RMSD: 0.251
data_MOF--net-uog--node1-KOZSID_clean_sbu_0--edge1-MIFKUJ_clean_linker_0
_symmetry_space_group_name_H-M    P1
_symmetry_Int_Tables_number       1
_symmetry_cell_setting            triclinic
loop_
_symmetry_equiv_pos_as_xyz
'x, y, z'
_cell_length_a     47.424629
_cell_length_b     47.518092
_cell_length_c     59.405326
_cell_angle_alpha  90.023115
_cell_angle_beta   89.91408
_cell_angle_gamma 120.00337
loop_
_atom_site_label
_atom_site_type_symbol
_atom_site_fract_x
_atom_site_fract_y
_atom_site_fract_z
_atom_type_partial_charge
C0 C 0.56097 0.29489 0.2207 0.0
C1 C 0.53056 0.28274 0.23048 0.0
C2 C 0.50823 0.26834 0.21354 0.0
C3 C 0.52622 0.27256 0.19439 0.0
N4 N 0.55851 0.28849 0.19808 0.0
Co5 Co 0.59307 0.30206 0.17425 0.0
N6 N 0.5607 0.28193 0.14916 0.0
C7 C 0.52812 0.26593 0.15151 0.0
C8 C 0.51184 0.25273 0.13173 0.0
C9 C 0.53562 0.26069 0.11581 0.0
C10 C 0.56514 0.27843 0.12678 0.0
N11 N 0.6281 0.3176 0.15063 0.0
C12 C 0.62623 0.31431 0.12785 0.0
C13 C 0.65669 0.33161 0.11781 0.0
C14 C 0.67862 0.34563 0.1348 0.0
C15 C 0.66036 0.3364 0.15411 0.0
N16 N 0.626 0.32097 0.19915 0.0
C17 C 0.65862 0.33613 0.19681 0.0
C18 C 0.67534 0.34468 0.21674 0.0
C19 C 0.65195 0.33467 0.23294 0.0
C20 C 0.62221 0.32077 0.22186 0.0
N21 N 0.59221 0.25924 0.17756 0.0
C22 C 0.57756 0.19265 0.17949 0.0
C23 C 0.59119 0.21214 0.16022 0.0
C24 C 0.59814 0.24471 0.15961 0.0
C25 C 0.57375 0.20859 0.1983 0.0
C26 C 0.58163 0.24148 0.19711 0.0
N27 N 0.59181 0.3437 0.17091 0.0
C28 C 0.58486 0.38635 0.1883 0.0
C29 C 0.57651 0.39505 0.16775 0.0
C30 C 0.57806 0.3783 0.14858 0.0
C31 C 0.58572 0.35314 0.15049 0.0
C32 C 0.59275 0.36144 0.1894 0.0
H33 H 0.58591 0.34098 0.13528 0.0
H34 H 0.59859 0.3562 0.20561 0.0
H35 H 0.60779 0.25753 0.14421 0.0
H36 H 0.57819 0.25193 0.21215 0.0
C37 C 0.5139 0.26275 0.17267 0.0
C38 C 0.59163 0.31169 0.23354 0.0
C39 C 0.59688 0.29224 0.11525 0.0
C40 C 0.67292 0.34335 0.1757 0.0
H41 H 0.52518 0.2841 0.24803 0.0
H42 H 0.48199 0.25648 0.21499 0.0
H43 H 0.48577 0.23861 0.12923 0.0
H44 H 0.53174 0.25428 0.09815 0.0
H45 H 0.66254 0.33302 0.10008 0.0
H46 H 0.70484 0.36015 0.13329 0.0
H47 H 0.70145 0.35739 0.21918 0.0
H48 H 0.65633 0.33836 0.25085 0.0
H49 H 0.59648 0.20251 0.14533 0.0
H50 H 0.56379 0.19572 0.21392 0.0
H51 H 0.58436 0.39785 0.20388 0.0
H52 H 0.5732 0.38428 0.132 0.0
C53 C 0.28233 0.55243 0.55223 0.0
C54 C 0.25974 0.52342 0.56223 0.0
C55 C 0.24489 0.5014 0.54515 0.0
C56 C 0.2591 0.51809 0.52566 0.0
N57 N 0.28255 0.54907 0.52941 0.0
Co58 Co 0.30522 0.58216 0.50528 0.0
N59 N 0.29056 0.54908 0.4808 0.0
C60 C 0.2671 0.5178 0.48269 0.0
C61 C 0.26362 0.50029 0.46343 0.0
C62 C 0.28628 0.522 0.44849 0.0
C63 C 0.30228 0.55173 0.45941 0.0
N64 N 0.32661 0.61568 0.4814 0.0
C65 C 0.33269 0.61271 0.45953 0.0
C66 C 0.34499 0.64219 0.44824 0.0
C67 C 0.34755 0.66454 0.46375 0.0
C68 C 0.3363 0.64746 0.48343 0.0
N69 N 0.32136 0.61599 0.5294 0.0
C70 C 0.33526 0.64831 0.52613 0.0
C71 C 0.34495 0.66611 0.54556 0.0
C72 C 0.33599 0.6437 0.56237 0.0
C73 C 0.32088 0.61326 0.55218 0.0
N74 N 0.34476 0.57752 0.50853 0.0
C75 C 0.39852 0.56596 0.51014 0.0
C76 C 0.40317 0.59756 0.50709 0.0
C77 C 0.37612 0.60282 0.50648 0.0
C78 C 0.36619 0.54074 0.51228 0.0
C79 C 0.34022 0.54689 0.51141 0.0
N80 N 0.26429 0.58435 0.50191 0.0
C81 C 0.21576 0.57974 0.5195 0.0
C82 C 0.19836 0.57047 0.49914 0.0
C83 C 0.21585 0.57069 0.47988 0.0
C84 C 0.24862 0.57811 0.48155 0.0
C85 C 0.24829 0.58656 0.5205 0.0
H86 H 0.26074 0.57736 0.46637 0.0
H87 H 0.25977 0.59205 0.53671 0.0
H88 H 0.38059 0.62726 0.5041 0.0
H89 H 0.3162 0.52618 0.51256 0.0
C90 C 0.25275 0.50517 0.50373 0.0
C91 C 0.30087 0.58316 0.56485 0.0
C92 C 0.32695 0.58256 0.44882 0.0
C93 C 0.33995 0.66129 0.50458 0.0
H94 H 0.25406 0.51895 0.57998 0.0
H95 H 0.2259 0.47626 0.54677 0.0
H96 H 0.24747 0.47454 0.46081 0.0
H97 H 0.29048 0.5165 0.43157 0.0
H98 H 0.35174 0.64717 0.43067 0.0
H99 H 0.35771 0.69038 0.46118 0.0
H100 H 0.35675 0.69224 0.54731 0.0
H101 H 0.33863 0.64915 0.58018 0.0
H102 H 0.42752 0.61816 0.50538 0.0
H103 H 0.36059 0.51579 0.51406 0.0
H104 H 0.20392 0.58026 0.53497 0.0
H105 H 0.20421 0.56475 0.46355 0.0
C106 C 0.74258 0.26855 0.8853 0.0
C107 C 0.74911 0.24584 0.89491 0.0
C108 C 0.7553 0.23067 0.87752 0.0
C109 C 0.75223 0.24486 0.85824 0.0
N110 N 0.74518 0.26857 0.86239 0.0
Co111 Co 0.7344 0.29159 0.83876 0.0
N112 N 0.75143 0.27624 0.81373 0.0
C113 C 0.75812 0.25195 0.81512 0.0
C114 C 0.76988 0.24697 0.79524 0.0
C115 C 0.77051 0.26951 0.7804 0.0
C116 C 0.75907 0.28705 0.79207 0.0
N117 N 0.72252 0.3139 0.81534 0.0
C118 C 0.73193 0.32089 0.79354 0.0
C119 C 0.71705 0.33629 0.78314 0.0
C120 C 0.69783 0.33922 0.79899 0.0
C121 C 0.70197 0.32548 0.81805 0.0
N122 N 0.71775 0.30803 0.86345 0.0
C123 C 0.69971 0.3225 0.86074 0.0
C124 C 0.69201 0.33195 0.88048 0.0
C125 C 0.70539 0.3223 0.89688 0.0
C126 C 0.72034 0.30715 0.88617 0.0
N127 N 0.77894 0.33054 0.84167 0.0
C128 C 0.84437 0.38387 0.84237 0.0
C129 C 0.81735 0.38882 0.84238 0.0
C130 C 0.78498 0.36196 0.84189 0.0
C131 C 0.83737 0.3515 0.84264 0.0
C132 C 0.8051 0.32568 0.84241 0.0
N133 N 0.69077 0.25116 0.83575 0.0
C134 C 0.64766 0.20247 0.85367 0.0
C135 C 0.63859 0.18531 0.8332 0.0
C136 C 0.65495 0.20306 0.81378 0.0
C137 C 0.68036 0.23578 0.81536 0.0
C138 C 0.67338 0.23495 0.85456 0.0
H139 H 0.69254 0.24809 0.80005 0.0
H140 H 0.6801 0.24618 0.87084 0.0
H141 H 0.76493 0.36663 0.84136 0.0
H142 H 0.80161 0.30156 0.84242 0.0
C143 C 0.75725 0.23784 0.83608 0.0
C144 C 0.731 0.28728 0.89838 0.0
C145 C 0.75381 0.31239 0.78185 0.0
C146 C 0.69203 0.32862 0.83942 0.0
H147 H 0.74848 0.24021 0.91262 0.0
H148 H 0.76111 0.21141 0.87879 0.0
H149 H 0.77801 0.22972 0.79207 0.0
H150 H 0.77829 0.27261 0.763 0.0
H151 H 0.71993 0.34479 0.76593 0.0
H152 H 0.6838 0.35135 0.79712 0.0
H153 H 0.67814 0.3442 0.88271 0.0
H154 H 0.70288 0.32462 0.91476 0.0
H155 H 0.82113 0.41325 0.84219 0.0
H156 H 0.85685 0.34588 0.84314 0.0
H157 H 0.63604 0.19048 0.86927 0.0
H158 H 0.6485 0.19166 0.79738 0.0
C159 C 0.48657 0.73627 0.21892 0.0
C160 C 0.51726 0.74748 0.22794 0.0
C161 C 0.53902 0.76226 0.21069 0.0
C162 C 0.52045 0.75914 0.19211 0.0
N163 N 0.48832 0.74352 0.19646 0.0
Co164 Co 0.45296 0.73123 0.1735 0.0
N165 N 0.4843 0.7495 0.14762 0.0
C166 C 0.51696 0.76536 0.14934 0.0
C167 C 0.53256 0.77699 0.1291 0.0
C168 C 0.50825 0.76811 0.11354 0.0
C169 C 0.47908 0.75156 0.12517 0.0
N170 N 0.41692 0.71726 0.15084 0.0
C171 C 0.41752 0.7192 0.12795 0.0
C172 C 0.38627 0.70648 0.11922 0.0
C173 C 0.36544 0.69646 0.13702 0.0
C174 C 0.3849 0.70361 0.15556 0.0
N175 N 0.42128 0.7147 0.19931 0.0
C176 C 0.38916 0.70418 0.19815 0.0
C177 C 0.37381 0.69756 0.21863 0.0
C178 C 0.39763 0.70415 0.23396 0.0
C179 C 0.42613 0.71418 0.22182 0.0
N180 N 0.45652 0.77517 0.17676 0.0
C181 C 0.47265 0.84209 0.17912 0.0
C182 C 0.46013 0.8234 0.15943 0.0
C183 C 0.45247 0.79065 0.15859 0.0
C184 C 0.47507 0.82539 0.198 0.0
C185 C 0.46664 0.79233 0.19655 0.0
N186 N 0.45155 0.68814 0.17006 0.0
C187 C 0.456 0.6441 0.18763 0.0
C188 C 0.46624 0.63641 0.1675 0.0
C189 C 0.46618 0.65365 0.14825 0.0
C190 C 0.45858 0.67889 0.14984 0.0
C191 C 0.44846 0.66929 0.18843 0.0
H192 H 0.45944 0.69129 0.13455 0.0
H193 H 0.44086 0.67358 0.20428 0.0
H194 H 0.44397 0.77846 0.14281 0.0
H195 H 0.46928 0.78115 0.21153 0.0
C196 C 0.53195 0.76878 0.17019 0.0
C197 C 0.45633 0.71962 0.23231 0.0
C198 C 0.44696 0.7368 0.11407 0.0
C199 C 0.37385 0.69914 0.17756 0.0
H200 H 0.52324 0.74524 0.24518 0.0
H201 H 0.56525 0.77343 0.21153 0.0
H202 H 0.55853 0.79033 0.12601 0.0
H203 H 0.51153 0.77299 0.09564 0.0
H204 H 0.37908 0.70586 0.10189 0.0
H205 H 0.33928 0.68616 0.13655 0.0
H206 H 0.34823 0.68841 0.22199 0.0
H207 H 0.39432 0.70105 0.25199 0.0
H208 H 0.45626 0.83385 0.1444 0.0
H209 H 0.48435 0.83784 0.21384 0.0
H210 H 0.45394 0.63084 0.20294 0.0
H211 H 0.47315 0.64865 0.13203 0.0
C212 C 0.76599 0.4801 0.55421 0.0
C213 C 0.78931 0.50906 0.5638 0.0
C214 C 0.8039 0.53068 0.54647 0.0
C215 C 0.78881 0.51381 0.52725 0.0
N216 N 0.76498 0.48308 0.53136 0.0
Co217 Co 0.74109 0.44963 0.50758 0.0
N218 N 0.75691 0.48224 0.48267 0.0
C219 C 0.78132 0.51316 0.48422 0.0
C220 C 0.7865 0.53015 0.46447 0.0
C221 C 0.76396 0.5085 0.44953 0.0
C222 C 0.74626 0.47939 0.461 0.0
N223 N 0.71804 0.4157 0.48407 0.0
C224 C 0.71183 0.41846 0.46216 0.0
C225 C 0.69613 0.3883 0.45163 0.0
C226 C 0.69188 0.36584 0.46754 0.0
C227 C 0.70533 0.38343 0.48675 0.0
N228 N 0.72402 0.4164 0.53222 0.0
C229 C 0.70751 0.38388 0.52946 0.0
C230 C 0.6972 0.3668 0.5492 0.0
C231 C 0.7085 0.38984 0.56567 0.0
C232 C 0.72558 0.41981 0.55496 0.0
N233 N 0.70264 0.45611 0.51077 0.0
C234 C 0.65004 0.46939 0.5108 0.0
C235 C 0.64445 0.43725 0.51037 0.0
C236 C 0.67094 0.43116 0.51023 0.0
C237 C 0.68264 0.49429 0.51195 0.0
C238 C 0.7081 0.48727 0.51201 0.0
N239 N 0.78094 0.44547 0.50406 0.0
C240 C 0.82951 0.44997 0.52137 0.0
C241 C 0.84649 0.45828 0.5008 0.0
C242 C 0.82864 0.45737 0.48161 0.0
C243 C 0.79605 0.45045 0.48353 0.0
C244 C 0.79714 0.44361 0.52259 0.0
H245 H 0.78368 0.45068 0.46837 0.0
H246 H 0.78601 0.43884 0.53888 0.0
H247 H 0.66573 0.40633 0.50928 0.0
H248 H 0.73243 0.50758 0.51256 0.0
C249 C 0.79561 0.52607 0.50517 0.0
C250 C 0.74798 0.44957 0.56711 0.0
C251 C 0.7209 0.44899 0.45057 0.0
C252 C 0.70101 0.37014 0.50813 0.0
H253 H 0.79581 0.51367 0.58142 0.0
H254 H 0.82356 0.55558 0.54773 0.0
H255 H 0.80391 0.55552 0.46145 0.0
H256 H 0.76099 0.51346 0.43218 0.0
H257 H 0.68822 0.38295 0.43429 0.0
H258 H 0.67911 0.33969 0.4656 0.0
H259 H 0.68345 0.34069 0.55138 0.0
H260 H 0.70609 0.38506 0.58359 0.0
H261 H 0.61983 0.41691 0.50951 0.0
H262 H 0.68873 0.51948 0.51283 0.0
H263 H 0.84158 0.4499 0.53681 0.0
H264 H 0.83989 0.46245 0.46512 0.0
C265 C 0.29405 0.74942 0.88512 0.0
C266 C 0.27575 0.76008 0.89669 0.0
C267 C 0.25366 0.7598 0.8816 0.0
C268 C 0.25962 0.74897 0.86167 0.0
N269 N 0.28416 0.74258 0.86323 0.0
Co270 Co 0.30015 0.72605 0.83823 0.0
N271 N 0.2769 0.73646 0.81451 0.0
C272 C 0.25302 0.74334 0.81857 0.0
C273 C 0.23894 0.74648 0.79926 0.0
C274 C 0.25439 0.74054 0.78192 0.0
C275 C 0.27712 0.73405 0.7916 0.0
N276 N 0.31706 0.70979 0.81352 0.0
C277 C 0.31597 0.71207 0.79077 0.0
C278 C 0.33128 0.69721 0.78012 0.0
C279 C 0.34147 0.68446 0.79658 0.0
C280 C 0.33207 0.69228 0.81628 0.0
N281 N 0.32288 0.71469 0.86175 0.0
C282 C 0.33604 0.69552 0.85888 0.0
C283 C 0.35115 0.69273 0.87766 0.0
C284 C 0.34738 0.71125 0.89356 0.0
C285 C 0.32976 0.7241 0.88357 0.0
N286 N 0.25996 0.68222 0.84121 0.0
C287 C 0.19406 0.62996 0.84372 0.0
C288 C 0.2113 0.63921 0.82324 0.0
C289 C 0.24381 0.66496 0.82238 0.0
C290 C 0.2118 0.64612 0.86316 0.0
C291 C 0.24455 0.67157 0.8616 0.0
N292 N 0.33885 0.77074 0.83531 0.0
C293 C 0.39715 0.80946 0.83434 0.0
C294 C 0.39193 0.83626 0.83445 0.0
C295 C 0.3594 0.82898 0.83436 0.0
C296 C 0.3337 0.79668 0.83468 0.0
C297 C 0.37043 0.77706 0.8349 0.0
H298 H 0.30944 0.79296 0.83478 0.0
H299 H 0.37537 0.75722 0.83532 0.0
H300 H 0.25507 0.67182 0.80609 0.0
H301 H 0.25683 0.6836 0.87693 0.0
C302 C 0.2457 0.74813 0.84067 0.0
C303 C 0.31881 0.74368 0.89583 0.0
C304 C 0.29614 0.7228 0.77854 0.0
C305 C 0.33911 0.68556 0.83755 0.0
H306 H 0.27794 0.76698 0.91424 0.0
H307 H 0.23591 0.76733 0.88468 0.0
H308 H 0.21959 0.75219 0.79793 0.0
H309 H 0.24893 0.74006 0.76419 0.0
H310 H 0.33367 0.69448 0.76226 0.0
H311 H 0.3542 0.67104 0.79445 0.0
H312 H 0.36475 0.68011 0.87926 0.0
H313 H 0.35686 0.715 0.91052 0.0
H314 H 0.19933 0.62773 0.80763 0.0
H315 H 0.20036 0.63951 0.87957 0.0
H316 H 0.4217 0.81342 0.83439 0.0
H317 H 0.35355 0.84828 0.83393 0.0
H318 H 0.56139 0.14919 0.14353 0.0
H319 H 0.54557 0.09217 0.14388 0.0
H320 H 0.55083 0.09391 0.21629 0.0
H321 H 0.56971 0.15189 0.21607 0.0
H322 H 0.5701 0.05603 0.20462 0.0
H323 H 0.47461 0.0579 0.18133 0.0
H324 H 0.44153 0.07384 0.1584 0.0
H325 H 0.46181 0.03482 0.09934 0.0
H326 H 0.49533 0.01899 0.12188 0.0
H327 H 0.4762 0.88118 0.21561 0.0
H328 H 0.49419 0.93917 0.21618 0.0
H329 H 0.51063 0.94454 0.14467 0.0
H330 H 0.49418 0.8871 0.14393 0.0
H331 H 0.47917 0.97781 0.15654 0.0
H332 H 0.57425 0.97526 0.18177 0.0
H333 H 0.60499 0.95815 0.20617 0.0
H334 H 0.58164 0.99711 0.26387 0.0
H335 H 0.55037 1.01407 0.23984 0.0
C336 C 0.55994 0.13806 0.15968 0.0
C337 C 0.5672 0.15643 0.17978 0.0
C338 C 0.55001 0.10464 0.15985 0.0
C339 C 0.54583 0.08755 0.18015 0.0
C340 C 0.55338 0.10577 0.20024 0.0
C341 C 0.56393 0.13939 0.20007 0.0
C342 C 0.53408 0.05113 0.18044 0.0
C343 C 0.54983 0.03908 0.19431 0.0
C344 C 0.5079 0.02813 0.16685 0.0
C345 C 0.48773 0.03755 0.15326 0.0
C346 C 0.47218 0.05291 0.16343 0.0
C347 C 0.45333 0.06189 0.1505 0.0
C348 C 0.44965 0.05542 0.12742 0.0
C349 C 0.46473 0.03986 0.11722 0.0
C350 C 0.48362 0.03085 0.13006 0.0
C351 C 0.48402 0.89445 0.19993 0.0
C352 C 0.48333 0.87833 0.1797 0.0
C353 C 0.49426 0.92801 0.2003 0.0
C354 C 0.50405 0.94689 0.18048 0.0
C355 C 0.50312 0.93094 0.16027 0.0
C356 C 0.4933 0.89755 0.1599 0.0
C357 C 0.51517 0.983 0.18068 0.0
C358 C 0.49933 0.99491 0.16689 0.0
C359 C 0.54086 1.00573 0.19459 0.0
C360 C 0.55969 0.99562 0.20904 0.0
C361 C 0.57544 0.97994 0.19969 0.0
C362 C 0.59301 0.97031 0.21344 0.0
C363 C 0.59519 0.97646 0.23657 0.0
C364 C 0.57989 0.99232 0.24597 0.0
C365 C 0.56226 1.00196 0.23228 0.0
H366 H 0.60881 0.969 0.24719 0.0
H367 H 0.43505 0.0624 0.11744 0.0
H368 H 0.45692 0.59387 0.48596 0.0
H369 H 0.49916 0.57835 0.48582 0.0
H370 H 0.44503 0.50439 0.53536 0.0
H371 H 0.40369 0.5205 0.53619 0.0
H372 H 0.50458 0.52842 0.54582 0.0
H373 H 0.44893 0.48898 0.47617 0.0
H374 H 0.42671 0.49017 0.43891 0.0
H375 H 0.52284 0.55778 0.41515 0.0
H376 H 0.54561 0.55738 0.4524 0.0
H377 H 0.58914 0.43874 0.53163 0.0
H378 H 0.54725 0.45481 0.53147 0.0
H379 H 0.6072 0.53521 0.48774 0.0
H380 H 0.64876 0.51914 0.48765 0.0
H381 H 0.54501 0.50783 0.47425 0.0
H382 H 0.59957 0.54509 0.54552 0.0
H383 H 0.61972 0.53908 0.58243 0.0
H384 H 0.52207 0.47034 0.60283 0.0
H385 H 0.50139 0.47563 0.56591 0.0
C386 C 0.45411 0.57455 0.49705 0.0
C387 C 0.42623 0.5584 0.5109 0.0
C388 C 0.47828 0.5653 0.49676 0.0
C389 C 0.47552 0.53951 0.51027 0.0
C390 C 0.44821 0.52415 0.52458 0.0
C391 C 0.42415 0.53332 0.52488 0.0
C392 C 0.50069 0.52844 0.5097 0.0
C393 C 0.51297 0.5236 0.53007 0.0
C394 C 0.51258 0.52229 0.48935 0.0
C395 C 0.49892 0.52342 0.46716 0.0
C396 C 0.46529 0.5044 0.46308 0.0
C397 C 0.45261 0.50486 0.44195 0.0
C398 C 0.47335 0.52403 0.42469 0.0
C399 C 0.50681 0.54293 0.42855 0.0
C400 C 0.51962 0.54261 0.44967 0.0
C401 C 0.59337 0.45969 0.52181 0.0
C402 C 0.62287 0.47766 0.50984 0.0
C403 C 0.56936 0.46912 0.52188 0.0
C404 C 0.57382 0.49673 0.50984 0.0
C405 C 0.60279 0.514 0.49733 0.0
C406 C 0.62685 0.50481 0.49743 0.0
C407 C 0.54876 0.50787 0.51033 0.0
C408 C 0.53658 0.51274 0.48995 0.0
C409 C 0.53662 0.51361 0.53066 0.0
C410 C 0.54898 0.51052 0.55288 0.0
C411 C 0.58243 0.52851 0.55782 0.0
C412 C 0.59394 0.52527 0.57875 0.0
C413 C 0.5722 0.50428 0.59495 0.0
C414 C 0.53889 0.48656 0.59026 0.0
C415 C 0.52726 0.48969 0.56934 0.0
H416 H 0.58116 0.5018 0.61114 0.0
H417 H 0.46351 0.52413 0.40829 0.0
H418 H 0.89573 0.3876 0.8181 0.0
H419 H 0.95311 0.4293 0.81879 0.0
H420 H 0.9319 0.48484 0.86625 0.0
H421 H 0.87384 0.44314 0.86518 0.0
H422 H 0.97691 0.52617 0.83975 0.0
H423 H 0.96944 0.43643 0.88085 0.0
H424 H 0.95474 0.37957 0.88795 0.0
H425 H 1.01331 0.38274 0.83176 0.0
H426 H 0.02802 0.43951 0.82413 0.0
H427 H 0.14533 0.62816 0.87071 0.0
H428 H 0.08695 0.58835 0.87099 0.0
H429 H 0.10141 0.53414 0.8186 0.0
H430 H 0.15984 0.57355 0.81845 0.0
H431 H 0.05991 0.49276 0.84919 0.0
H432 H 0.06698 0.58352 0.80859 0.0
H433 H 0.08201 0.64074 0.8028 0.0
H434 H 0.02461 0.63597 0.86018 0.0
H435 H 1.00959 0.57882 0.8665 0.0
C436 C 0.90308 0.40857 0.82882 0.0
C437 C 0.87964 0.41138 0.84183 0.0
C438 C 0.9363 0.4326 0.82928 0.0
C439 C 0.94781 0.46034 0.84309 0.0
C440 C 0.9243 0.46384 0.85552 0.0
C441 C 0.89082 0.43985 0.85487 0.0
C442 C 0.98409 0.48527 0.84448 0.0
C443 C 0.99487 0.51869 0.84218 0.0
C444 C 1.00836 0.47625 0.84727 0.0
C445 C 0.99958 0.44212 0.85179 0.0
C446 C 0.979 0.42493 0.86991 0.0
C447 C 0.97069 0.39272 0.87404 0.0
C448 C 0.98302 0.37752 0.86028 0.0
C449 C 1.00374 0.39453 0.84238 0.0
C450 C 1.0121 0.42673 0.83816 0.0
C451 C 0.13631 0.60765 0.85935 0.0
C452 C 0.15795 0.60454 0.84453 0.0
C453 C 0.10255 0.58489 0.85936 0.0
C454 C 0.08903 0.558 0.84461 0.0
C455 C 0.11067 0.55448 0.83014 0.0
C456 C 0.14436 0.57737 0.82998 0.0
C457 C 0.05266 0.53353 0.8443 0.0
C458 C 0.04189 0.50019 0.84682 0.0
C459 C 0.02846 0.54267 0.84193 0.0
C460 C 0.03745 0.577 0.83816 0.0
C461 C 0.05778 0.59475 0.82009 0.0
C462 C 0.06626 0.62716 0.81669 0.0
C463 C 0.05435 0.64201 0.83115 0.0
C464 C 0.03386 0.62445 0.84902 0.0
C465 C 0.02534 0.59205 0.85251 0.0
H466 H 0.06093 0.6671 0.82849 0.0
H467 H 0.97657 0.35259 0.86351 0.0
H468 H 0.16448 0.59482 0.5226 0.0
H469 H 0.10619 0.57613 0.52222 0.0
H470 H 0.09101 0.50228 0.47381 0.0
H471 H 0.14946 0.52142 0.47376 0.0
H472 H 0.05249 0.52196 0.46262 0.0
H473 H 0.07099 0.48779 0.53384 0.0
H474 H 0.09671 0.49361 0.57091 0.0
H475 H 0.0656 0.56039 0.59166 0.0
H476 H 0.04003 0.55527 0.55459 0.0
H477 H 0.88075 0.43504 0.52496 0.0
H478 H 0.93895 0.4532 0.52387 0.0
H479 H 0.95322 0.52457 0.47363 0.0
H480 H 0.89496 0.50602 0.47432 0.0
H481 H 0.99165 0.50341 0.53413 0.0
H482 H 1.01966 0.54601 0.44118 0.0
H483 H 0.99228 0.53208 0.40424 0.0
H484 H 0.92749 0.43481 0.42709 0.0
H485 H 0.95474 0.44803 0.46406 0.0
C486 C 0.14885 0.5745 0.51189 0.0
C487 C 0.16227 0.55975 0.49827 0.0
C488 C 0.11514 0.56362 0.51174 0.0
C489 C 0.09329 0.5371 0.49832 0.0
C490 C 0.10676 0.52272 0.4844 0.0
C491 C 0.14053 0.53383 0.48435 0.0
C492 C 0.0567 0.52439 0.49874 0.0
C493 C 0.03939 0.51807 0.47834 0.0
C494 C 0.0386 0.51827 0.51907 0.0
C495 C 0.05389 0.52139 0.54137 0.0
C496 C 0.06983 0.50388 0.54626 0.0
C497 C 0.08435 0.50703 0.56727 0.0
C498 C 0.08287 0.52742 0.58361 0.0
C499 C 0.06677 0.54464 0.57897 0.0
C500 C 0.05224 0.54161 0.55797 0.0
C501 C 0.89615 0.4546 0.5136 0.0
C502 C 0.8825 0.46872 0.49961 0.0
C503 C 0.92977 0.46509 0.513 0.0
C504 C 0.95124 0.49022 0.49845 0.0
C505 C 0.93768 0.5046 0.48464 0.0
C506 C 0.904 0.49388 0.48506 0.0
C507 C 0.98753 0.5015 0.498 0.0
C508 C 1.00478 0.50749 0.5184 0.0
C509 C 1.00538 0.50641 0.47769 0.0
C510 C 0.98903 0.49814 0.45546 0.0
C511 C 0.99964 0.52162 0.43829 0.0
C512 C 0.98413 0.51385 0.41735 0.0
C513 C 0.95809 0.48261 0.41335 0.0
C514 C 0.94758 0.45903 0.43024 0.0
C515 C 0.96303 0.46666 0.4512 0.0
H516 H 0.9461 0.47666 0.39713 0.0
H517 H 0.09412 0.52982 0.59987 0.0
H518 H 0.39525 0.88762 0.85835 0.0
H519 H 0.43699 0.9449 0.85762 0.0
H520 H 0.4933 0.92371 0.81073 0.0
H521 H 0.45153 0.86577 0.81181 0.0
H522 H 0.53434 0.96856 0.83739 0.0
H523 H 0.44519 0.96125 0.7955 0.0
H524 H 0.38837 0.94665 0.7879 0.0
H525 H 0.39063 1.00511 0.84377 0.0
H526 H 0.44736 0.01972 0.85189 0.0
H527 H 0.63711 0.13669 0.80639 0.0
H528 H 0.59719 0.07843 0.80607 0.0
H529 H 0.54223 0.09283 0.85802 0.0
H530 H 0.58177 0.15114 0.85822 0.0
H531 H 0.50117 0.05151 0.82719 0.0
H532 H 0.59141 0.05841 0.86857 0.0
H533 H 0.64863 0.07333 0.87477 0.0
H534 H 0.64465 0.01606 0.81765 0.0
H535 H 0.58751 1.00114 0.81092 0.0
C536 C 0.41637 0.89495 0.84772 0.0
C537 C 0.41937 0.87154 0.83488 0.0
C538 C 0.44044 0.92811 0.84725 0.0
C539 C 0.46844 0.93959 0.83361 0.0
C540 C 0.47211 0.91612 0.82133 0.0
C541 C 0.44806 0.88271 0.82199 0.0
C542 C 0.49347 0.97579 0.83225 0.0
C543 C 0.52691 0.98651 0.8348 0.0
C544 C 0.48453 1.00005 0.82924 0.0
C545 C 0.45042 0.99132 0.82443 0.0
C546 C 0.43349 0.9708 0.80626 0.0
C547 C 0.40132 0.96255 0.80185 0.0
C548 C 0.38587 0.97488 0.81538 0.0
C549 C 0.40261 0.99554 0.83332 0.0
C550 C 0.43478 1.00384 0.83783 0.0
C551 C 0.61642 0.12768 0.81765 0.0
C552 C 0.61313 0.14926 0.83236 0.0
C553 C 0.59359 0.09399 0.81762 0.0
C554 C 0.56645 0.08049 0.83223 0.0
C555 C 0.56276 0.10208 0.84659 0.0
C556 C 0.58572 0.1357 0.84678 0.0
C557 C 0.54188 0.04421 0.8325 0.0
C558 C 0.50853 0.0335 0.82973 0.0
C559 C 0.55096 0.02002 0.83508 0.0
C560 C 0.58529 0.02895 0.8391 0.0
C561 C 0.60282 0.04922 0.85722 0.0
C562 C 0.63522 0.05763 0.86085 0.0
C563 C 0.6503 0.04573 0.84658 0.0
C564 C 0.63296 0.02531 0.82867 0.0
C565 C 0.60056 0.01685 0.82495 0.0
H566 H 0.67538 0.05226 0.84942 0.0
H567 H 0.36096 0.96848 0.81193 0.0
H568 H 0.49941 0.62255 0.20001 0.0
H569 H 0.51739 0.58253 0.19922 0.0
H570 H 0.47732 0.55289 0.13272 0.0
H571 H 0.45856 0.59253 0.13356 0.0
H572 H 0.46395 0.49985 0.15734 0.0
H573 H 0.5614 0.60146 0.14258 0.0
H574 H 0.60312 0.65843 0.15002 0.0
H575 H 0.62588 0.63045 0.21313 0.0
H576 H 0.58399 0.57336 0.2062 0.0
H577 H 0.53705 0.40244 0.13609 0.0
H578 H 0.51977 0.44279 0.13467 0.0
H579 H 0.57201 0.48573 0.19604 0.0
H580 H 0.59166 0.44731 0.1966 0.0
H581 H 0.57891 0.53244 0.17311 0.0
H582 H 0.48152 0.43236 0.18988 0.0
H583 H 0.4388 0.37521 0.18439 0.0
H584 H 0.41454 0.39944 0.12041 0.0
H585 H 0.45739 0.45668 0.1254 0.0
C586 C 0.49402 0.60742 0.18521 0.0
C587 C 0.47726 0.61124 0.16686 0.0
C588 C 0.50476 0.58455 0.18469 0.0
C589 C 0.49928 0.56449 0.16579 0.0
C590 C 0.48217 0.56787 0.14755 0.0
C591 C 0.47159 0.59094 0.148 0.0
C592 C 0.51129 0.54014 0.16512 0.0
C593 C 0.48923 0.50717 0.16049 0.0
C594 C 0.54407 0.54891 0.16981 0.0
C595 C 0.56935 0.58318 0.17396 0.0
C596 C 0.57514 0.60749 0.15812 0.0
C597 C 0.59885 0.6398 0.16223 0.0
C598 C 0.61708 0.64806 0.18206 0.0
C599 C 0.61171 0.62402 0.19779 0.0
C600 C 0.58801 0.59168 0.19377 0.0
C601 C 0.54549 0.42064 0.1492 0.0
C602 C 0.56591 0.42067 0.16657 0.0
C603 C 0.5349 0.44368 0.14859 0.0
C604 C 0.54358 0.46742 0.16557 0.0
C605 C 0.5644 0.46789 0.18269 0.0
C606 C 0.57541 0.44522 0.18314 0.0
C607 C 0.53153 0.49185 0.16549 0.0
C608 C 0.5536 0.52494 0.16996 0.0
C609 C 0.49863 0.48309 0.16096 0.0
C610 C 0.47288 0.44872 0.15791 0.0
C611 C 0.46722 0.42544 0.17457 0.0
C612 C 0.44296 0.39305 0.17156 0.0
C613 C 0.42403 0.38368 0.15204 0.0
C614 C 0.42926 0.40672 0.13551 0.0
C615 C 0.45351 0.43914 0.13842 0.0
H616 H 0.40526 0.35859 0.14974 0.0
H617 H 0.63542 0.67309 0.18521 0.0
H618 H 0.6726 0.23793 0.91319 0.0
H619 H 0.64694 0.23389 0.9498 0.0
H620 H 0.73659 0.31482 0.97408 0.0
H621 H 0.76176 0.31946 0.93708 0.0
H622 H 0.651 0.22328 0.9916 0.0
H623 H 0.72344 0.36129 0.0094 0.0
H624 H 0.75122 0.41321 0.98862 0.0
H625 H 0.68937 0.36796 0.93155 0.0
H626 H 0.66123 0.3158 0.952 0.0
H627 H 0.6232 0.25448 0.10457 0.0
H628 H 0.64303 0.24847 0.06793 0.0
H629 H 0.60227 0.30224 0.03692 0.0
H630 H 0.5834 0.30919 0.07402 0.0
H631 H 0.65966 0.32485 0.02133 0.0
H632 H 0.57164 0.21654 0.02843 0.0
H633 H 0.53703 0.16357 0.04676 0.0
H634 H 0.61804 0.147 0.04963 0.0
H635 H 0.65328 0.20009 0.03158 0.0
C636 C 0.68713 0.25415 0.9266 0.0
C637 C 0.71939 0.2787 0.92233 0.0
C638 C 0.67233 0.25204 0.94756 0.0
C639 C 0.68935 0.27451 0.96483 0.0
C640 C 0.72242 0.29761 0.96104 0.0
C641 C 0.73712 0.2999 0.93999 0.0
C642 C 0.67209 0.27474 0.98618 0.0
C643 C 0.65307 0.24557 0.99809 0.0
C644 C 0.67361 0.30345 0.99462 0.0
C645 C 0.69048 0.33462 0.98215 0.0
C646 C 0.71578 0.36245 0.99242 0.0
C647 C 0.73161 0.39189 0.98069 0.0
C648 C 0.72215 0.39384 0.95874 0.0
C649 C 0.69678 0.36637 0.9485 0.0
C650 C 0.68095 0.33684 0.96013 0.0
C651 C 0.61756 0.26413 0.08983 0.0
C652 C 0.60113 0.28177 0.09218 0.0
C653 C 0.62903 0.26076 0.06877 0.0
C654 C 0.62411 0.27461 0.04927 0.0
C655 C 0.60655 0.29124 0.05151 0.0
C656 C 0.59527 0.29483 0.0727 0.0
C657 C 0.63904 0.2735 0.02703 0.0
C658 C 0.65763 0.30253 0.01492 0.0
C659 C 0.63631 0.24448 0.0181 0.0
C660 C 0.61517 0.21243 0.02882 0.0
C661 C 0.58214 0.2017 0.0331 0.0
C662 C 0.5624 0.17164 0.04343 0.0
C663 C 0.57535 0.15197 0.04941 0.0
C664 C 0.60805 0.16228 0.04501 0.0
C665 C 0.62791 0.19234 0.03471 0.0
H666 H 0.56003 0.12871 0.05741 0.0
H667 H 0.73442 0.41665 0.94969 0.0
H668 H 0.4243 0.65483 0.24181 0.0
H669 H 0.40689 0.62884 0.27868 0.0
H670 H 0.46251 0.72194 0.31094 0.0
H671 H 0.47942 0.74837 0.27375 0.0
H672 H 0.45839 0.65087 0.32886 0.0
H673 H 0.40085 0.71259 0.31555 0.0
H674 H 0.36997 0.72853 0.29026 0.0
H675 H 0.29999 0.62805 0.27865 0.0
H676 H 0.33064 0.61159 0.30381 0.0
H677 H 0.39151 0.61436 0.43937 0.0
H678 H 0.41738 0.6353 0.40314 0.0
H679 H 0.32444 0.57918 0.37015 0.0
H680 H 0.29806 0.56137 0.40699 0.0
H681 H 0.34899 0.63084 0.35103 0.0
H682 H 0.39927 0.56731 0.36762 0.0
H683 H 0.42945 0.54757 0.39025 0.0
H684 H 0.51221 0.64403 0.39242 0.0
H685 H 0.48238 0.66444 0.37009 0.0
C686 C 0.43378 0.66973 0.25673 0.0
C687 C 0.45374 0.70371 0.25476 0.0
C688 C 0.42356 0.6548 0.27785 0.0
C689 C 0.43325 0.67333 0.29767 0.0
C690 C 0.45481 0.70705 0.29592 0.0
C691 C 0.46474 0.72214 0.27466 0.0
C692 C 0.41839 0.65763 0.31979 0.0
C693 C 0.43468 0.64684 0.33397 0.0
C694 C 0.38689 0.65105 0.32602 0.0
C695 C 0.3681 0.6609 0.31139 0.0
C696 C 0.37894 0.69393 0.30752 0.0
C697 C 0.36145 0.70305 0.29327 0.0
C698 C 0.33306 0.67931 0.28283 0.0
C699 C 0.32199 0.64641 0.28674 0.0
C700 C 0.33936 0.63717 0.30103 0.0
C701 C 0.37671 0.60563 0.42431 0.0
C702 C 0.34272 0.58552 0.4262 0.0
C703 C 0.39165 0.61762 0.40336 0.0
C704 C 0.37338 0.60865 0.38328 0.0
C705 C 0.33952 0.58682 0.38509 0.0
C706 C 0.32436 0.57581 0.40623 0.0
C707 C 0.38901 0.62397 0.3609 0.0
C708 C 0.37273 0.63461 0.34634 0.0
C709 C 0.42038 0.6298 0.35417 0.0
C710 C 0.43848 0.61743 0.36732 0.0
C711 C 0.42386 0.58433 0.37301 0.0
C712 C 0.44091 0.57303 0.38579 0.0
C713 C 0.47271 0.59456 0.3928 0.0
C714 C 0.48757 0.62739 0.38699 0.0
C715 C 0.47062 0.63883 0.37425 0.0
H716 H 0.4859 0.58586 0.40272 0.0
H717 H 0.31964 0.68642 0.27171 0.0
H718 H 0.72425 0.28121 0.74268 0.0
H719 H 0.72878 0.30644 0.70573 0.0
H720 H 0.80616 0.39745 0.73117 0.0
H721 H 0.80152 0.37211 0.76799 0.0
H722 H 0.71644 0.35335 0.69553 0.0
H723 H 0.85547 0.44385 0.68775 0.0
H724 H 0.90732 0.44651 0.69747 0.0
H725 H 0.85997 0.34232 0.69673 0.0
H726 H 0.80799 0.33904 0.68671 0.0
H727 H 0.73203 0.46278 0.60893 0.0
H728 H 0.73943 0.44316 0.64554 0.0
H729 H 0.79299 0.40319 0.61295 0.0
H730 H 0.7869 0.42408 0.57688 0.0
H731 H 0.8175 0.42038 0.65172 0.0
H732 H 0.70681 0.35762 0.62629 0.0
H733 H 0.65371 0.34933 0.61354 0.0
H734 H 0.64176 0.38741 0.67616 0.0
H735 H 0.69503 0.39632 0.68915 0.0
C736 C 0.74314 0.30621 0.74005 0.0
C737 C 0.7632 0.32439 0.75808 0.0
C738 C 0.74537 0.32085 0.71901 0.0
C739 C 0.76783 0.35404 0.71539 0.0
C740 C 0.78889 0.37179 0.73318 0.0
C741 C 0.7865 0.3572 0.75424 0.0
C742 C 0.76787 0.37053 0.69366 0.0
C743 C 0.73862 0.36801 0.68602 0.0
C744 C 0.79653 0.38946 0.68082 0.0
C745 C 0.82775 0.39123 0.68674 0.0
C746 C 0.85615 0.42152 0.68961 0.0
C747 C 0.88556 0.42313 0.69517 0.0
C748 C 0.88691 0.3946 0.6978 0.0
C749 C 0.85887 0.3644 0.69479 0.0
C750 C 0.82942 0.36265 0.68921 0.0
C751 C 0.74636 0.45083 0.60979 0.0
C752 C 0.75915 0.44534 0.58999 0.0
C753 C 0.75015 0.43904 0.6307 0.0
C754 C 0.76606 0.42068 0.63222 0.0
C755 C 0.78052 0.41704 0.61256 0.0
C756 C 0.77717 0.42922 0.59181 0.0
C757 C 0.76612 0.40361 0.65371 0.0
C758 C 0.79536 0.40594 0.66132 0.0
C759 C 0.73726 0.38377 0.66622 0.0
C760 C 0.70501 0.37789 0.6586 0.0
C761 C 0.6929 0.36433 0.6373 0.0
C762 C 0.66279 0.35953 0.63003 0.0
C763 C 0.6444 0.3679 0.64402 0.0
C764 C 0.65605 0.38097 0.66534 0.0
C765 C 0.68619 0.38589 0.67267 0.0
H766 H 0.62111 0.3642 0.63835 0.0
H767 H 0.9097 0.3959 0.70211 0.0
H768 H 0.292 0.70037 0.93026 0.0
H769 H 0.31573 0.70344 0.96719 0.0
H770 H 0.3891 0.80307 0.95414 0.0
H771 H 0.36652 0.79878 0.91628 0.0
H772 H 0.41901 0.77912 0.97148 0.0
H773 H 0.32148 0.77377 0.99682 0.0
H774 H 0.26257 0.75371 0.99981 0.0
H775 H 0.24661 0.66157 0.02367 0.0
H776 H 0.30538 0.68093 0.02055 0.0
H777 H 0.45852 0.79361 0.09389 0.0
H778 H 0.43918 0.79973 0.0567 0.0
H779 H 0.40341 0.6984 0.04302 0.0
H780 H 0.42377 0.69258 0.07974 0.0
H781 H 0.35602 0.72778 0.04092 0.0
H782 H 0.45765 0.73784 0.01325 0.0
H783 H 0.51749 0.76357 0.01252 0.0
H784 H 0.52575 0.85537 0.996 0.0
H785 H 0.46592 0.83026 0.99699 0.0
C786 C 0.31249 0.72329 0.93562 0.0
C787 C 0.32699 0.74953 0.92048 0.0
C788 C 0.32624 0.72511 0.95689 0.0
C789 C 0.35429 0.75369 0.96409 0.0
C790 C 0.36764 0.78059 0.94932 0.0
C791 C 0.35436 0.77842 0.92774 0.0
C792 C 0.37083 0.75461 0.98613 0.0
C793 C 0.40499 0.76833 0.98666 0.0
C794 C 0.35321 0.74049 0.00634 0.0
C795 C 0.31783 0.72874 0.00827 0.0
C796 C 0.30538 0.74916 1.00257 0.0
C797 C 0.27202 0.73792 1.0043 0.0
C798 C 0.25085 0.70637 0.01187 0.0
C799 C 0.26303 0.686 0.01779 0.0
C800 C 0.29637 0.69711 0.01607 0.0
C801 C 0.44766 0.773 0.08257 0.0
C802 C 0.44294 0.74268 0.08967 0.0
C803 C 0.43626 0.7764 0.06141 0.0
C804 C 0.41949 0.74945 0.04706 0.0
C805 C 0.41614 0.71954 0.05374 0.0
C806 C 0.42812 0.71631 0.07463 0.0
C807 C 0.40358 0.75176 0.02586 0.0
C808 C 0.36968 0.73871 0.02562 0.0
C809 C 0.42145 0.76727 0.00618 0.0
C810 C 0.45735 0.78226 1.00548 0.0
C811 C 0.47224 0.76359 0.00971 0.0
C812 C 0.50615 0.77804 0.00919 0.0
C813 C 0.52542 0.81111 1.00429 0.0
C814 C 0.5108 0.82977 0.99984 0.0
C815 C 0.4769 0.81544 1.00036 0.0
H816 H 0.55167 0.82225 1.00389 0.0
H817 H 0.22502 0.69771 0.0132 0.0
H818 H 0.75383 0.45687 0.41089 0.0
H819 H 0.7298 0.43767 0.37347 0.0
H820 H 0.63522 0.41177 0.40014 0.0
H821 H 0.65949 0.43173 0.43723 0.0
H822 H 0.6896 0.37963 0.36036 0.0
H823 H 0.58316 0.4071 0.3595 0.0
H824 H 0.57167 0.44959 0.37271 0.0
H825 H 0.67383 0.51974 0.37154 0.0
H826 H 0.6859 0.4778 0.35805 0.0
H827 H 0.58291 0.28118 0.27434 0.0
H828 H 0.60164 0.30736 0.31127 0.0
H829 H 0.62871 0.40024 0.28142 0.0
H830 H 0.60902 0.37388 0.2449 0.0
H831 H 0.60985 0.40145 0.32174 0.0
H832 H 0.68499 0.37226 0.2906 0.0
H833 H 0.70236 0.33538 0.27465 0.0
H834 H 0.67274 0.27853 0.33527 0.0
H835 H 0.65493 0.31493 0.35151 0.0
C836 C 0.7282 0.44847 0.40846 0.0
C837 C 0.70874 0.44673 0.4269 0.0
C838 C 0.71427 0.43688 0.38712 0.0
C839 C 0.68049 0.42316 0.38364 0.0
C840 C 0.66133 0.4227 0.40195 0.0
C841 C 0.67528 0.43438 0.42322 0.0
C842 C 0.66502 0.40739 0.3615 0.0
C843 C 0.67218 0.38453 0.352 0.0
C844 C 0.64247 0.41373 0.35008 0.0
C845 C 0.63543 0.4392 0.35798 0.0
C846 C 0.60315 0.43162 0.36199 0.0
C847 C 0.59654 0.45561 0.36954 0.0
C848 C 0.62201 0.48732 0.37304 0.0
C849 C 0.65414 0.49514 0.36891 0.0
C850 C 0.66087 0.47125 0.36134 0.0
C851 C 0.59166 0.30696 0.27592 0.0
C852 C 0.59392 0.32532 0.25676 0.0
C853 C 0.60299 0.32212 0.29697 0.0
C854 C 0.6175 0.35614 0.29929 0.0
C855 C 0.61781 0.37409 0.28035 0.0
C856 C 0.60627 0.35892 0.2594 0.0
C857 C 0.63405 0.37333 0.32085 0.0
C858 C 0.62713 0.39646 0.3302 0.0
C859 C 0.65751 0.36792 0.33183 0.0
C860 C 0.66835 0.34612 0.32217 0.0
C861 C 0.68203 0.35179 0.30047 0.0
C862 C 0.69197 0.33099 0.29139 0.0
C863 C 0.68855 0.30457 0.30391 0.0
C864 C 0.67531 0.29897 0.32558 0.0
C865 C 0.66533 0.3197 0.33474 0.0
H866 H 0.69624 0.28848 0.29684 0.0
H867 H 0.61684 0.50584 0.3789 0.0
H868 H 0.24318 0.66779 0.76271 0.0
H869 H 0.23795 0.64161 0.72613 0.0
H870 H 0.32773 0.72477 0.70422 0.0
H871 H 0.33248 0.75111 0.74069 0.0
H872 H 0.28859 0.70097 0.66925 0.0
H873 H 0.32474 0.65467 0.7267 0.0
H874 H 0.32103 0.62793 0.76305 0.0
H875 H 0.22973 0.54608 0.74324 0.0
H876 H 0.23282 0.57242 0.70679 0.0
H877 H 0.33242 0.58672 0.60437 0.0
H878 H 0.32619 0.60807 0.64064 0.0
H879 H 0.24433 0.61317 0.61408 0.0
H880 H 0.25047 0.59166 0.578 0.0
H881 H 0.27926 0.5923 0.67326 0.0
H882 H 0.24961 0.68319 0.63084 0.0
H883 H 0.25972 0.71302 0.59497 0.0
H884 H 0.34829 0.71059 0.5858 0.0
H885 H 0.33855 0.68053 0.62146 0.0
C886 C 0.26109 0.68098 0.74975 0.0
C887 C 0.28801 0.71173 0.75449 0.0
C888 C 0.25842 0.66576 0.72892 0.0
C889 C 0.28286 0.68071 0.71237 0.0
C890 C 0.30854 0.71248 0.71655 0.0
C891 C 0.31113 0.72775 0.73737 0.0
C892 C 0.28286 0.66266 0.69147 0.0
C893 C 0.28624 0.6771 0.67022 0.0
C894 C 0.28055 0.63168 0.69239 0.0
C895 C 0.27887 0.61563 0.71413 0.0
C896 C 0.3038 0.63104 0.73016 0.0
C897 C 0.30182 0.61596 0.75077 0.0
C898 C 0.27509 0.58541 0.7555 0.0
C899 C 0.25038 0.56978 0.73957 0.0
C900 C 0.25227 0.58473 0.71891 0.0
C901 C 0.31234 0.59121 0.60661 0.0
C902 C 0.29158 0.58692 0.58844 0.0
C903 C 0.30895 0.60374 0.6273 0.0
C904 C 0.28507 0.61282 0.63017 0.0
C905 C 0.2632 0.60681 0.61237 0.0
C906 C 0.26643 0.59405 0.59179 0.0
C907 C 0.28433 0.63037 0.6511 0.0
C908 C 0.28105 0.61594 0.67232 0.0
C909 C 0.28729 0.66159 0.65021 0.0
C910 C 0.29317 0.67939 0.62867 0.0
C911 C 0.2712 0.68899 0.62112 0.0
C912 C 0.27682 0.70584 0.6008 0.0
C913 C 0.30451 0.71348 0.58802 0.0
C914 C 0.32668 0.70436 0.59557 0.0
C915 C 0.32106 0.68732 0.61579 0.0
H916 H 0.30888 0.7266 0.57233 0.0
H917 H 0.27358 0.57381 0.77148 0.0
loop_
_geom_bond_atom_site_label_1
_geom_bond_atom_site_label_2
_geom_bond_distance
_geom_bond_site_symmetry_2
_ccdc_geom_bond_type
C0 C1 1.443 . S
C0 N4 1.376 . S
C0 C38 1.389 . S
C1 C0 1.443 . S
C1 C2 1.340 . S
C1 H41 0.951 . S
C2 C1 1.340 . S
C2 C3 1.439 . S
C2 H42 0.950 . S
C3 C2 1.439 . S
C3 N4 1.374 . S
C3 C37 1.395 . S
N4 C0 1.376 . S
N4 C3 1.374 . S
N4 Co5 2.008 . S
Co5 N4 2.008 . S
Co5 N6 1.995 . S
Co5 N11 2.008 . S
Co5 N16 1.995 . S
Co5 N21 2.282 . S
Co5 N27 2.282 . S
N6 Co5 1.995 . S
N6 C7 1.376 . S
N6 C10 1.383 . S
C7 N6 1.376 . S
C7 C8 1.446 . S
C7 C37 1.391 . S
C8 C7 1.446 . S
C8 C9 1.339 . S
C8 H43 0.949 . S
C9 C8 1.339 . S
C9 C10 1.439 . S
C9 H44 0.950 . S
C10 N6 1.383 . S
C10 C9 1.439 . S
C10 C39 1.392 . S
N11 Co5 2.008 . S
N11 C12 1.376 . S
N11 C15 1.374 . S
C12 N11 1.376 . S
C12 C13 1.443 . S
C12 C39 1.389 . S
C13 C12 1.443 . S
C13 C14 1.340 . S
C13 H45 0.951 . S
C14 C13 1.340 . S
C14 C15 1.439 . S
C14 H46 0.950 . S
C15 N11 1.374 . S
C15 C14 1.439 . S
C15 C40 1.395 . S
N16 Co5 1.995 . S
N16 C17 1.376 . S
N16 C20 1.383 . S
C17 N16 1.376 . S
C17 C18 1.446 . S
C17 C40 1.391 . S
C18 C17 1.446 . S
C18 C19 1.339 . S
C18 H47 0.949 . S
C19 C18 1.339 . S
C19 C20 1.439 . S
C19 H48 0.950 . S
C20 N16 1.383 . S
C20 C19 1.439 . S
C20 C38 1.392 . S
N21 Co5 2.282 . S
N21 C24 1.332 . S
N21 C26 1.332 . S
C22 C23 1.386 . S
C22 C25 1.388 . S
C23 C22 1.386 . S
C23 C24 1.382 . S
C23 H49 0.950 . S
C24 N21 1.332 . S
C24 C23 1.382 . S
C24 H35 0.952 . S
C25 C22 1.388 . S
C25 C26 1.382 . S
C25 H50 0.950 . S
C26 N21 1.332 . S
C26 C25 1.382 . S
C26 H36 0.948 . S
N27 Co5 2.282 . S
N27 C31 1.332 . S
N27 C32 1.332 . S
C28 C29 1.388 . S
C28 C32 1.382 . S
C28 H51 0.950 . S
C29 C28 1.388 . S
C29 C30 1.386 . S
C30 C29 1.386 . S
C30 C31 1.382 . S
C30 H52 0.950 . S
C31 N27 1.332 . S
C31 C30 1.382 . S
C31 H33 0.952 . S
C32 N27 1.332 . S
C32 C28 1.382 . S
C32 H34 0.948 . S
H33 C31 0.952 . S
H34 C32 0.948 . S
H35 C24 0.952 . S
H36 C26 0.948 . S
C37 C3 1.395 . S
C37 C7 1.391 . S
C38 C0 1.389 . S
C38 C20 1.392 . S
C39 C10 1.392 . S
C39 C12 1.389 . S
C40 C15 1.395 . S
C40 C17 1.391 . S
H41 C1 0.951 . S
H42 C2 0.950 . S
H43 C8 0.949 . S
H44 C9 0.950 . S
H45 C13 0.951 . S
H46 C14 0.950 . S
H47 C18 0.949 . S
H48 C19 0.950 . S
H49 C23 0.950 . S
H50 C25 0.950 . S
H51 C28 0.950 . S
H52 C30 0.950 . S
C53 C54 1.443 . S
C53 N57 1.376 . S
C53 C91 1.389 . S
C54 C53 1.443 . S
C54 C55 1.340 . S
C54 H94 0.951 . S
C55 C54 1.340 . S
C55 C56 1.439 . S
C55 H95 0.950 . S
C56 C55 1.439 . S
C56 N57 1.374 . S
C56 C90 1.395 . S
N57 C53 1.376 . S
N57 C56 1.374 . S
N57 Co58 2.008 . S
Co58 N57 2.008 . S
Co58 N59 1.995 . S
Co58 N64 2.008 . S
Co58 N69 1.995 . S
Co58 N74 2.282 . S
Co58 N80 2.282 . S
N59 Co58 1.995 . S
N59 C60 1.376 . S
N59 C63 1.383 . S
C60 N59 1.376 . S
C60 C61 1.446 . S
C60 C90 1.391 . S
C61 C60 1.446 . S
C61 C62 1.339 . S
C61 H96 0.949 . S
C62 C61 1.339 . S
C62 C63 1.439 . S
C62 H97 0.950 . S
C63 N59 1.383 . S
C63 C62 1.439 . S
C63 C92 1.392 . S
N64 Co58 2.008 . S
N64 C65 1.376 . S
N64 C68 1.374 . S
C65 N64 1.376 . S
C65 C66 1.443 . S
C65 C92 1.389 . S
C66 C65 1.443 . S
C66 C67 1.340 . S
C66 H98 0.951 . S
C67 C66 1.340 . S
C67 C68 1.439 . S
C67 H99 0.950 . S
C68 N64 1.374 . S
C68 C67 1.439 . S
C68 C93 1.395 . S
N69 Co58 1.995 . S
N69 C70 1.376 . S
N69 C73 1.383 . S
C70 N69 1.376 . S
C70 C71 1.446 . S
C70 C93 1.391 . S
C71 C70 1.446 . S
C71 C72 1.339 . S
C71 H100 0.949 . S
C72 C71 1.339 . S
C72 C73 1.439 . S
C72 H101 0.950 . S
C73 N69 1.383 . S
C73 C72 1.439 . S
C73 C91 1.392 . S
N74 Co58 2.282 . S
N74 C77 1.332 . S
N74 C79 1.332 . S
C75 C76 1.386 . S
C75 C78 1.388 . S
C76 C75 1.386 . S
C76 C77 1.382 . S
C76 H102 0.950 . S
C77 N74 1.332 . S
C77 C76 1.382 . S
C77 H88 0.952 . S
C78 C75 1.388 . S
C78 C79 1.382 . S
C78 H103 0.950 . S
C79 N74 1.332 . S
C79 C78 1.382 . S
C79 H89 0.948 . S
N80 Co58 2.282 . S
N80 C84 1.332 . S
N80 C85 1.332 . S
C81 C82 1.388 . S
C81 C85 1.382 . S
C81 H104 0.950 . S
C82 C81 1.388 . S
C82 C83 1.386 . S
C83 C82 1.386 . S
C83 C84 1.382 . S
C83 H105 0.950 . S
C84 N80 1.332 . S
C84 C83 1.382 . S
C84 H86 0.952 . S
C85 N80 1.332 . S
C85 C81 1.382 . S
C85 H87 0.948 . S
H86 C84 0.952 . S
H87 C85 0.948 . S
H88 C77 0.952 . S
H89 C79 0.948 . S
C90 C56 1.395 . S
C90 C60 1.391 . S
C91 C53 1.389 . S
C91 C73 1.392 . S
C92 C63 1.392 . S
C92 C65 1.389 . S
C93 C68 1.395 . S
C93 C70 1.391 . S
H94 C54 0.951 . S
H95 C55 0.950 . S
H96 C61 0.949 . S
H97 C62 0.950 . S
H98 C66 0.951 . S
H99 C67 0.950 . S
H100 C71 0.949 . S
H101 C72 0.950 . S
H102 C76 0.950 . S
H103 C78 0.950 . S
H104 C81 0.950 . S
H105 C83 0.950 . S
C106 C107 1.443 . S
C106 N110 1.376 . S
C106 C144 1.389 . S
C107 C106 1.443 . S
C107 C108 1.340 . S
C107 H147 0.951 . S
C108 C107 1.340 . S
C108 C109 1.439 . S
C108 H148 0.950 . S
C109 C108 1.439 . S
C109 N110 1.374 . S
C109 C143 1.395 . S
N110 C106 1.376 . S
N110 C109 1.374 . S
N110 Co111 2.008 . S
Co111 N110 2.008 . S
Co111 N112 1.995 . S
Co111 N117 2.008 . S
Co111 N122 1.995 . S
Co111 N127 2.282 . S
Co111 N133 2.282 . S
N112 Co111 1.995 . S
N112 C113 1.376 . S
N112 C116 1.383 . S
C113 N112 1.376 . S
C113 C114 1.446 . S
C113 C143 1.391 . S
C114 C113 1.446 . S
C114 C115 1.339 . S
C114 H149 0.949 . S
C115 C114 1.339 . S
C115 C116 1.439 . S
C115 H150 0.950 . S
C116 N112 1.383 . S
C116 C115 1.439 . S
C116 C145 1.392 . S
N117 Co111 2.008 . S
N117 C118 1.376 . S
N117 C121 1.374 . S
C118 N117 1.376 . S
C118 C119 1.443 . S
C118 C145 1.389 . S
C119 C118 1.443 . S
C119 C120 1.340 . S
C119 H151 0.951 . S
C120 C119 1.340 . S
C120 C121 1.439 . S
C120 H152 0.950 . S
C121 N117 1.374 . S
C121 C120 1.439 . S
C121 C146 1.395 . S
N122 Co111 1.995 . S
N122 C123 1.376 . S
N122 C126 1.383 . S
C123 N122 1.376 . S
C123 C124 1.446 . S
C123 C146 1.391 . S
C124 C123 1.446 . S
C124 C125 1.339 . S
C124 H153 0.949 . S
C125 C124 1.339 . S
C125 C126 1.439 . S
C125 H154 0.950 . S
C126 N122 1.383 . S
C126 C125 1.439 . S
C126 C144 1.392 . S
N127 Co111 2.282 . S
N127 C130 1.332 . S
N127 C132 1.332 . S
C128 C129 1.386 . S
C128 C131 1.388 . S
C129 C128 1.386 . S
C129 C130 1.382 . S
C129 H155 0.950 . S
C130 N127 1.332 . S
C130 C129 1.382 . S
C130 H141 0.952 . S
C131 C128 1.388 . S
C131 C132 1.382 . S
C131 H156 0.950 . S
C132 N127 1.332 . S
C132 C131 1.382 . S
C132 H142 0.948 . S
N133 Co111 2.282 . S
N133 C137 1.332 . S
N133 C138 1.332 . S
C134 C135 1.388 . S
C134 C138 1.382 . S
C134 H157 0.950 . S
C135 C134 1.388 . S
C135 C136 1.386 . S
C136 C135 1.386 . S
C136 C137 1.382 . S
C136 H158 0.950 . S
C137 N133 1.332 . S
C137 C136 1.382 . S
C137 H139 0.952 . S
C138 N133 1.332 . S
C138 C134 1.382 . S
C138 H140 0.948 . S
H139 C137 0.952 . S
H140 C138 0.948 . S
H141 C130 0.952 . S
H142 C132 0.948 . S
C143 C109 1.395 . S
C143 C113 1.391 . S
C144 C106 1.389 . S
C144 C126 1.392 . S
C145 C116 1.392 . S
C145 C118 1.389 . S
C146 C121 1.395 . S
C146 C123 1.391 . S
H147 C107 0.951 . S
H148 C108 0.950 . S
H149 C114 0.949 . S
H150 C115 0.950 . S
H151 C119 0.951 . S
H152 C120 0.950 . S
H153 C124 0.949 . S
H154 C125 0.950 . S
H155 C129 0.950 . S
H156 C131 0.950 . S
H157 C134 0.950 . S
H158 C136 0.950 . S
C159 C160 1.443 . S
C159 N163 1.376 . S
C159 C197 1.389 . S
C160 C159 1.443 . S
C160 C161 1.340 . S
C160 H200 0.951 . S
C161 C160 1.340 . S
C161 C162 1.439 . S
C161 H201 0.950 . S
C162 C161 1.439 . S
C162 N163 1.374 . S
C162 C196 1.395 . S
N163 C159 1.376 . S
N163 C162 1.374 . S
N163 Co164 2.008 . S
Co164 N163 2.008 . S
Co164 N165 1.995 . S
Co164 N170 2.008 . S
Co164 N175 1.995 . S
Co164 N180 2.282 . S
Co164 N186 2.282 . S
N165 Co164 1.995 . S
N165 C166 1.376 . S
N165 C169 1.383 . S
C166 N165 1.376 . S
C166 C167 1.446 . S
C166 C196 1.391 . S
C167 C166 1.446 . S
C167 C168 1.339 . S
C167 H202 0.949 . S
C168 C167 1.339 . S
C168 C169 1.439 . S
C168 H203 0.950 . S
C169 N165 1.383 . S
C169 C168 1.439 . S
C169 C198 1.392 . S
N170 Co164 2.008 . S
N170 C171 1.376 . S
N170 C174 1.374 . S
C171 N170 1.376 . S
C171 C172 1.443 . S
C171 C198 1.389 . S
C172 C171 1.443 . S
C172 C173 1.340 . S
C172 H204 0.951 . S
C173 C172 1.340 . S
C173 C174 1.439 . S
C173 H205 0.950 . S
C174 N170 1.374 . S
C174 C173 1.439 . S
C174 C199 1.395 . S
N175 Co164 1.995 . S
N175 C176 1.376 . S
N175 C179 1.383 . S
C176 N175 1.376 . S
C176 C177 1.446 . S
C176 C199 1.391 . S
C177 C176 1.446 . S
C177 C178 1.339 . S
C177 H206 0.949 . S
C178 C177 1.339 . S
C178 C179 1.439 . S
C178 H207 0.950 . S
C179 N175 1.383 . S
C179 C178 1.439 . S
C179 C197 1.392 . S
N180 Co164 2.282 . S
N180 C183 1.332 . S
N180 C185 1.332 . S
C181 C182 1.386 . S
C181 C184 1.388 . S
C182 C181 1.386 . S
C182 C183 1.382 . S
C182 H208 0.950 . S
C183 N180 1.332 . S
C183 C182 1.382 . S
C183 H194 0.952 . S
C184 C181 1.388 . S
C184 C185 1.382 . S
C184 H209 0.950 . S
C185 N180 1.332 . S
C185 C184 1.382 . S
C185 H195 0.948 . S
N186 Co164 2.282 . S
N186 C190 1.332 . S
N186 C191 1.332 . S
C187 C188 1.388 . S
C187 C191 1.382 . S
C187 H210 0.950 . S
C188 C187 1.388 . S
C188 C189 1.386 . S
C189 C188 1.386 . S
C189 C190 1.382 . S
C189 H211 0.950 . S
C190 N186 1.332 . S
C190 C189 1.382 . S
C190 H192 0.952 . S
C191 N186 1.332 . S
C191 C187 1.382 . S
C191 H193 0.948 . S
H192 C190 0.952 . S
H193 C191 0.948 . S
H194 C183 0.952 . S
H195 C185 0.948 . S
C196 C162 1.395 . S
C196 C166 1.391 . S
C197 C159 1.389 . S
C197 C179 1.392 . S
C198 C169 1.392 . S
C198 C171 1.389 . S
C199 C174 1.395 . S
C199 C176 1.391 . S
H200 C160 0.951 . S
H201 C161 0.950 . S
H202 C167 0.949 . S
H203 C168 0.950 . S
H204 C172 0.951 . S
H205 C173 0.950 . S
H206 C177 0.949 . S
H207 C178 0.950 . S
H208 C182 0.950 . S
H209 C184 0.950 . S
H210 C187 0.950 . S
H211 C189 0.950 . S
C212 C213 1.443 . S
C212 N216 1.376 . S
C212 C250 1.389 . S
C213 C212 1.443 . S
C213 C214 1.340 . S
C213 H253 0.951 . S
C214 C213 1.340 . S
C214 C215 1.439 . S
C214 H254 0.950 . S
C215 C214 1.439 . S
C215 N216 1.374 . S
C215 C249 1.395 . S
N216 C212 1.376 . S
N216 C215 1.374 . S
N216 Co217 2.008 . S
Co217 N216 2.008 . S
Co217 N218 1.995 . S
Co217 N223 2.008 . S
Co217 N228 1.995 . S
Co217 N233 2.282 . S
Co217 N239 2.282 . S
N218 Co217 1.995 . S
N218 C219 1.376 . S
N218 C222 1.383 . S
C219 N218 1.376 . S
C219 C220 1.446 . S
C219 C249 1.391 . S
C220 C219 1.446 . S
C220 C221 1.339 . S
C220 H255 0.949 . S
C221 C220 1.339 . S
C221 C222 1.439 . S
C221 H256 0.950 . S
C222 N218 1.383 . S
C222 C221 1.439 . S
C222 C251 1.392 . S
N223 Co217 2.008 . S
N223 C224 1.376 . S
N223 C227 1.374 . S
C224 N223 1.376 . S
C224 C225 1.443 . S
C224 C251 1.389 . S
C225 C224 1.443 . S
C225 C226 1.340 . S
C225 H257 0.951 . S
C226 C225 1.340 . S
C226 C227 1.439 . S
C226 H258 0.950 . S
C227 N223 1.374 . S
C227 C226 1.439 . S
C227 C252 1.395 . S
N228 Co217 1.995 . S
N228 C229 1.376 . S
N228 C232 1.383 . S
C229 N228 1.376 . S
C229 C230 1.446 . S
C229 C252 1.391 . S
C230 C229 1.446 . S
C230 C231 1.339 . S
C230 H259 0.949 . S
C231 C230 1.339 . S
C231 C232 1.439 . S
C231 H260 0.950 . S
C232 N228 1.383 . S
C232 C231 1.439 . S
C232 C250 1.392 . S
N233 Co217 2.282 . S
N233 C236 1.332 . S
N233 C238 1.332 . S
C234 C235 1.386 . S
C234 C237 1.388 . S
C235 C234 1.386 . S
C235 C236 1.382 . S
C235 H261 0.950 . S
C236 N233 1.332 . S
C236 C235 1.382 . S
C236 H247 0.952 . S
C237 C234 1.388 . S
C237 C238 1.382 . S
C237 H262 0.950 . S
C238 N233 1.332 . S
C238 C237 1.382 . S
C238 H248 0.948 . S
N239 Co217 2.282 . S
N239 C243 1.332 . S
N239 C244 1.332 . S
C240 C241 1.388 . S
C240 C244 1.382 . S
C240 H263 0.950 . S
C241 C240 1.388 . S
C241 C242 1.386 . S
C242 C241 1.386 . S
C242 C243 1.382 . S
C242 H264 0.950 . S
C243 N239 1.332 . S
C243 C242 1.382 . S
C243 H245 0.952 . S
C244 N239 1.332 . S
C244 C240 1.382 . S
C244 H246 0.948 . S
H245 C243 0.952 . S
H246 C244 0.948 . S
H247 C236 0.952 . S
H248 C238 0.948 . S
C249 C215 1.395 . S
C249 C219 1.391 . S
C250 C212 1.389 . S
C250 C232 1.392 . S
C251 C222 1.392 . S
C251 C224 1.389 . S
C252 C227 1.395 . S
C252 C229 1.391 . S
H253 C213 0.951 . S
H254 C214 0.950 . S
H255 C220 0.949 . S
H256 C221 0.950 . S
H257 C225 0.951 . S
H258 C226 0.950 . S
H259 C230 0.949 . S
H260 C231 0.950 . S
H261 C235 0.950 . S
H262 C237 0.950 . S
H263 C240 0.950 . S
H264 C242 0.950 . S
C265 C266 1.443 . S
C265 N269 1.376 . S
C265 C303 1.389 . S
C266 C265 1.443 . S
C266 C267 1.340 . S
C266 H306 0.951 . S
C267 C266 1.340 . S
C267 C268 1.439 . S
C267 H307 0.950 . S
C268 C267 1.439 . S
C268 N269 1.374 . S
C268 C302 1.395 . S
N269 C265 1.376 . S
N269 C268 1.374 . S
N269 Co270 2.008 . S
Co270 N269 2.008 . S
Co270 N271 1.995 . S
Co270 N276 2.008 . S
Co270 N281 1.995 . S
Co270 N286 2.282 . S
Co270 N292 2.282 . S
N271 Co270 1.995 . S
N271 C272 1.376 . S
N271 C275 1.383 . S
C272 N271 1.376 . S
C272 C273 1.446 . S
C272 C302 1.391 . S
C273 C272 1.446 . S
C273 C274 1.339 . S
C273 H308 0.949 . S
C274 C273 1.339 . S
C274 C275 1.439 . S
C274 H309 0.950 . S
C275 N271 1.383 . S
C275 C274 1.439 . S
C275 C304 1.392 . S
N276 Co270 2.008 . S
N276 C277 1.376 . S
N276 C280 1.374 . S
C277 N276 1.376 . S
C277 C278 1.443 . S
C277 C304 1.389 . S
C278 C277 1.443 . S
C278 C279 1.340 . S
C278 H310 0.951 . S
C279 C278 1.340 . S
C279 C280 1.439 . S
C279 H311 0.950 . S
C280 N276 1.374 . S
C280 C279 1.439 . S
C280 C305 1.395 . S
N281 Co270 1.995 . S
N281 C282 1.376 . S
N281 C285 1.383 . S
C282 N281 1.376 . S
C282 C283 1.446 . S
C282 C305 1.391 . S
C283 C282 1.446 . S
C283 C284 1.339 . S
C283 H312 0.949 . S
C284 C283 1.339 . S
C284 C285 1.439 . S
C284 H313 0.950 . S
C285 N281 1.383 . S
C285 C284 1.439 . S
C285 C303 1.392 . S
N286 Co270 2.282 . S
N286 C289 1.332 . S
N286 C291 1.332 . S
C287 C288 1.386 . S
C287 C290 1.388 . S
C288 C287 1.386 . S
C288 C289 1.382 . S
C288 H314 0.950 . S
C289 N286 1.332 . S
C289 C288 1.382 . S
C289 H300 0.952 . S
C290 C287 1.388 . S
C290 C291 1.382 . S
C290 H315 0.950 . S
C291 N286 1.332 . S
C291 C290 1.382 . S
C291 H301 0.948 . S
N292 Co270 2.282 . S
N292 C296 1.332 . S
N292 C297 1.332 . S
C293 C294 1.388 . S
C293 C297 1.382 . S
C293 H316 0.950 . S
C294 C293 1.388 . S
C294 C295 1.386 . S
C295 C294 1.386 . S
C295 C296 1.382 . S
C295 H317 0.950 . S
C296 N292 1.332 . S
C296 C295 1.382 . S
C296 H298 0.952 . S
C297 N292 1.332 . S
C297 C293 1.382 . S
C297 H299 0.948 . S
H298 C296 0.952 . S
H299 C297 0.948 . S
H300 C289 0.952 . S
H301 C291 0.948 . S
C302 C268 1.395 . S
C302 C272 1.391 . S
C303 C265 1.389 . S
C303 C285 1.392 . S
C304 C275 1.392 . S
C304 C277 1.389 . S
C305 C280 1.395 . S
C305 C282 1.391 . S
H306 C266 0.951 . S
H307 C267 0.950 . S
H308 C273 0.949 . S
H309 C274 0.950 . S
H310 C278 0.951 . S
H311 C279 0.950 . S
H312 C283 0.949 . S
H313 C284 0.950 . S
H314 C288 0.950 . S
H315 C290 0.950 . S
H316 C293 0.950 . S
H317 C295 0.950 . S
H318 C336 0.951 . S
H319 C338 0.951 . S
H320 C340 0.950 . S
H321 C341 0.950 . S
H322 C343 0.950 . S
H323 C346 0.950 . S
H324 C347 0.950 . S
H325 C349 0.950 . S
H326 C350 0.950 1_565 S
H327 C351 0.951 . S
H328 C353 0.951 . S
H329 C355 0.950 . S
H330 C356 0.950 . S
H331 C358 0.950 . S
H332 C361 0.950 . S
H333 C362 0.950 . S
H334 C364 0.950 . S
H335 C365 0.950 1_545 S
C336 H318 0.951 . S
C336 C337 1.366 . S
C336 C338 1.388 . S
C337 C336 1.366 . S
C337 C341 1.385 . S
C338 H319 0.951 . S
C338 C336 1.388 . S
C338 C339 1.366 . S
C339 C338 1.366 . S
C339 C340 1.414 . S
C339 C342 1.499 . S
C340 H320 0.950 . S
C340 C339 1.414 . S
C340 C341 1.374 . S
C341 H321 0.950 . S
C341 C337 1.385 . S
C341 C340 1.374 . S
C342 C339 1.499 . S
C342 C343 1.373 . S
C342 C344 1.389 . S
C343 H322 0.950 . S
C343 C342 1.373 . S
C343 C359 1.377 1_545 S
C344 C342 1.389 . S
C344 C345 1.524 . S
C344 C358 1.377 1_545 S
C345 C344 1.524 . S
C345 C346 1.397 . S
C345 C350 1.363 . S
C346 H323 0.950 . S
C346 C345 1.397 . S
C346 C347 1.334 . S
C347 H324 0.950 . S
C347 C346 1.334 . S
C347 C348 1.287 . S
C348 C347 1.287 . S
C348 C349 1.524 . S
C348 H367 0.913 . S
C349 H325 0.950 . S
C349 C348 1.524 . S
C349 C350 1.415 . S
C350 H326 0.950 1_545 S
C350 C345 1.363 . S
C350 C349 1.415 . S
C351 H327 0.951 . S
C351 C352 1.366 . S
C351 C353 1.388 . S
C352 C351 1.366 . S
C352 C356 1.385 . S
C353 H328 0.951 . S
C353 C351 1.388 . S
C353 C354 1.366 . S
C354 C353 1.366 . S
C354 C355 1.414 . S
C354 C357 1.499 . S
C355 H329 0.950 . S
C355 C354 1.414 . S
C355 C356 1.374 . S
C356 H330 0.950 . S
C356 C352 1.385 . S
C356 C355 1.374 . S
C357 C354 1.499 . S
C357 C358 1.373 . S
C357 C359 1.389 . S
C358 H331 0.950 . S
C358 C344 1.377 1_565 S
C358 C357 1.373 . S
C359 C343 1.377 1_565 S
C359 C357 1.389 . S
C359 C360 1.524 . S
C360 C359 1.524 . S
C360 C361 1.397 . S
C360 C365 1.363 . S
C361 H332 0.950 . S
C361 C360 1.397 . S
C361 C362 1.334 . S
C362 H333 0.950 . S
C362 C361 1.334 . S
C362 C363 1.287 . S
C363 C362 1.287 . S
C363 C364 1.524 . S
C363 H366 0.999 . S
C364 H334 0.950 . S
C364 C363 1.524 . S
C364 C365 1.415 . S
C365 H335 0.950 1_565 S
C365 C360 1.363 . S
C365 C364 1.415 . S
H366 C363 0.999 . S
H367 C348 0.913 . S
H368 C386 0.951 . S
H369 C388 0.951 . S
H370 C390 0.950 . S
H371 C391 0.950 . S
H372 C393 0.950 . S
H373 C396 0.950 . S
H374 C397 0.950 . S
H375 C399 0.950 . S
H376 C400 0.950 . S
H377 C401 0.951 . S
H378 C403 0.951 . S
H379 C405 0.950 . S
H380 C406 0.950 . S
H381 C408 0.950 . S
H382 C411 0.950 . S
H383 C412 0.950 . S
H384 C414 0.950 . S
H385 C415 0.950 . S
C386 H368 0.951 . S
C386 C387 1.366 . S
C386 C388 1.388 . S
C387 C386 1.366 . S
C387 C391 1.385 . S
C388 H369 0.951 . S
C388 C386 1.388 . S
C388 C389 1.366 . S
C389 C388 1.366 . S
C389 C390 1.414 . S
C389 C392 1.499 . S
C390 H370 0.950 . S
C390 C389 1.414 . S
C390 C391 1.374 . S
C391 H371 0.950 . S
C391 C387 1.385 . S
C391 C390 1.374 . S
C392 C389 1.499 . S
C392 C393 1.373 . S
C392 C394 1.389 . S
C393 H372 0.950 . S
C393 C392 1.373 . S
C393 C409 1.377 . S
C394 C392 1.389 . S
C394 C395 1.524 . S
C394 C408 1.377 . S
C395 C394 1.524 . S
C395 C396 1.397 . S
C395 C400 1.363 . S
C396 H373 0.950 . S
C396 C395 1.397 . S
C396 C397 1.334 . S
C397 H374 0.950 . S
C397 C396 1.334 . S
C397 C398 1.287 . S
C398 C397 1.287 . S
C398 C399 1.524 . S
C398 H417 0.913 . S
C399 H375 0.950 . S
C399 C398 1.524 . S
C399 C400 1.415 . S
C400 H376 0.950 . S
C400 C395 1.363 . S
C400 C399 1.415 . S
C401 H377 0.951 . S
C401 C402 1.366 . S
C401 C403 1.388 . S
C402 C401 1.366 . S
C402 C406 1.385 . S
C403 H378 0.951 . S
C403 C401 1.388 . S
C403 C404 1.366 . S
C404 C403 1.366 . S
C404 C405 1.414 . S
C404 C407 1.499 . S
C405 H379 0.950 . S
C405 C404 1.414 . S
C405 C406 1.374 . S
C406 H380 0.950 . S
C406 C402 1.385 . S
C406 C405 1.374 . S
C407 C404 1.499 . S
C407 C408 1.373 . S
C407 C409 1.389 . S
C408 H381 0.950 . S
C408 C394 1.377 . S
C408 C407 1.373 . S
C409 C393 1.377 . S
C409 C407 1.389 . S
C409 C410 1.524 . S
C410 C409 1.524 . S
C410 C411 1.397 . S
C410 C415 1.363 . S
C411 H382 0.950 . S
C411 C410 1.397 . S
C411 C412 1.334 . S
C412 H383 0.950 . S
C412 C411 1.334 . S
C412 C413 1.287 . S
C413 C412 1.287 . S
C413 C414 1.524 . S
C413 H416 0.999 . S
C414 H384 0.950 . S
C414 C413 1.524 . S
C414 C415 1.415 . S
C415 H385 0.950 . S
C415 C410 1.363 . S
C415 C414 1.415 . S
H416 C413 0.999 . S
H417 C398 0.913 . S
H418 C436 0.951 . S
H419 C438 0.951 . S
H420 C440 0.950 . S
H421 C441 0.950 . S
H422 C443 0.950 . S
H423 C446 0.950 . S
H424 C447 0.950 . S
H425 C449 0.947 1_455 S
H426 C450 0.950 . S
H427 C451 0.951 . S
H428 C453 0.951 . S
H429 C455 0.950 . S
H430 C456 0.950 . S
H431 C458 0.950 . S
H432 C461 0.950 . S
H433 C462 0.950 . S
H434 C464 0.947 1_655 S
H435 C465 0.950 . S
C436 H418 0.951 . S
C436 C437 1.366 . S
C436 C438 1.388 . S
C437 C436 1.366 . S
C437 C441 1.385 . S
C438 H419 0.951 . S
C438 C436 1.388 . S
C438 C439 1.366 . S
C439 C438 1.366 . S
C439 C440 1.414 . S
C439 C442 1.499 . S
C440 H420 0.950 . S
C440 C439 1.414 . S
C440 C441 1.374 . S
C441 H421 0.950 . S
C441 C437 1.385 . S
C441 C440 1.374 . S
C442 C439 1.499 . S
C442 C443 1.373 . S
C442 C444 1.389 . S
C443 H422 0.950 . S
C443 C442 1.373 . S
C443 C459 1.377 1_655 S
C444 C442 1.389 . S
C444 C445 1.524 . S
C444 C458 1.377 1_655 S
C445 C444 1.524 . S
C445 C446 1.397 . S
C445 C450 1.363 1_655 S
C446 H423 0.950 . S
C446 C445 1.397 . S
C446 C447 1.334 . S
C447 H424 0.950 . S
C447 C446 1.334 . S
C447 C448 1.287 . S
C448 C447 1.287 . S
C448 C449 1.525 . S
C448 H467 0.913 . S
C449 H425 0.947 1_655 S
C449 C448 1.525 . S
C449 C450 1.416 1_655 S
C450 H426 0.950 . S
C450 C445 1.363 1_455 S
C450 C449 1.416 1_455 S
C451 H427 0.951 . S
C451 C452 1.366 . S
C451 C453 1.388 . S
C452 C451 1.366 . S
C452 C456 1.385 . S
C453 H428 0.951 . S
C453 C451 1.388 . S
C453 C454 1.366 . S
C454 C453 1.366 . S
C454 C455 1.414 . S
C454 C457 1.499 . S
C455 H429 0.950 . S
C455 C454 1.414 . S
C455 C456 1.374 . S
C456 H430 0.950 . S
C456 C452 1.385 . S
C456 C455 1.374 . S
C457 C454 1.499 . S
C457 C458 1.373 . S
C457 C459 1.389 . S
C458 H431 0.950 . S
C458 C444 1.377 1_455 S
C458 C457 1.373 . S
C459 C443 1.377 1_455 S
C459 C457 1.389 . S
C459 C460 1.524 . S
C460 C459 1.524 . S
C460 C461 1.397 . S
C460 C465 1.363 1_455 S
C461 H432 0.950 . S
C461 C460 1.397 . S
C461 C462 1.334 . S
C462 H433 0.950 . S
C462 C461 1.334 . S
C462 C463 1.287 . S
C463 C462 1.287 . S
C463 C464 1.525 . S
C463 H466 0.999 . S
C464 H434 0.947 1_455 S
C464 C463 1.525 . S
C464 C465 1.416 1_455 S
C465 H435 0.950 . S
C465 C460 1.363 1_655 S
C465 C464 1.416 1_655 S
H466 C463 0.999 . S
H467 C448 0.913 . S
H468 C486 0.951 . S
H469 C488 0.951 . S
H470 C490 0.950 . S
H471 C491 0.950 . S
H472 C493 0.950 . S
H473 C496 0.950 . S
H474 C497 0.950 . S
H475 C499 0.950 . S
H476 C500 0.950 . S
H477 C501 0.951 . S
H478 C503 0.951 . S
H479 C505 0.950 . S
H480 C506 0.950 . S
H481 C508 0.950 . S
H482 C511 0.950 . S
H483 C512 0.950 . S
H484 C514 0.950 . S
H485 C515 0.950 . S
C486 H468 0.951 . S
C486 C487 1.366 . S
C486 C488 1.388 . S
C487 C486 1.366 . S
C487 C491 1.385 . S
C488 H469 0.951 . S
C488 C486 1.388 . S
C488 C489 1.366 . S
C489 C488 1.366 . S
C489 C490 1.414 . S
C489 C492 1.499 . S
C490 H470 0.950 . S
C490 C489 1.414 . S
C490 C491 1.374 . S
C491 H471 0.950 . S
C491 C487 1.385 . S
C491 C490 1.374 . S
C492 C489 1.499 . S
C492 C493 1.373 . S
C492 C494 1.389 . S
C493 H472 0.950 . S
C493 C492 1.373 . S
C493 C509 1.377 1_455 S
C494 C492 1.389 . S
C494 C495 1.524 . S
C494 C508 1.377 1_455 S
C495 C494 1.524 . S
C495 C496 1.397 . S
C495 C500 1.363 . S
C496 H473 0.950 . S
C496 C495 1.397 . S
C496 C497 1.334 . S
C497 H474 0.950 . S
C497 C496 1.334 . S
C497 C498 1.287 . S
C498 C497 1.287 . S
C498 C499 1.524 . S
C498 H517 0.913 . S
C499 H475 0.950 . S
C499 C498 1.524 . S
C499 C500 1.415 . S
C500 H476 0.950 . S
C500 C495 1.363 . S
C500 C499 1.415 . S
C501 H477 0.951 . S
C501 C502 1.366 . S
C501 C503 1.388 . S
C502 C501 1.366 . S
C502 C506 1.385 . S
C503 H478 0.951 . S
C503 C501 1.388 . S
C503 C504 1.366 . S
C504 C503 1.366 . S
C504 C505 1.414 . S
C504 C507 1.499 . S
C505 H479 0.950 . S
C505 C504 1.414 . S
C505 C506 1.374 . S
C506 H480 0.950 . S
C506 C502 1.385 . S
C506 C505 1.374 . S
C507 C504 1.499 . S
C507 C508 1.373 . S
C507 C509 1.389 . S
C508 H481 0.950 . S
C508 C494 1.377 1_655 S
C508 C507 1.373 . S
C509 C493 1.377 1_655 S
C509 C507 1.389 . S
C509 C510 1.524 . S
C510 C509 1.524 . S
C510 C511 1.397 . S
C510 C515 1.363 . S
C511 H482 0.950 . S
C511 C510 1.397 . S
C511 C512 1.334 . S
C512 H483 0.950 . S
C512 C511 1.334 . S
C512 C513 1.287 . S
C513 C512 1.287 . S
C513 C514 1.524 . S
C513 H516 0.999 . S
C514 H484 0.950 . S
C514 C513 1.524 . S
C514 C515 1.415 . S
C515 H485 0.950 . S
C515 C510 1.363 . S
C515 C514 1.415 . S
H516 C513 0.999 . S
H517 C498 0.913 . S
H518 C536 0.951 . S
H519 C538 0.951 . S
H520 C540 0.950 . S
H521 C541 0.950 . S
H522 C543 0.950 . S
H523 C546 0.950 . S
H524 C547 0.950 . S
H525 C549 0.950 1_545 S
H526 C550 0.950 . S
H527 C551 0.951 . S
H528 C553 0.951 . S
H529 C555 0.950 . S
H530 C556 0.950 . S
H531 C558 0.950 . S
H532 C561 0.950 . S
H533 C562 0.950 . S
H534 C564 0.950 1_565 S
H535 C565 0.950 . S
C536 H518 0.951 . S
C536 C537 1.366 . S
C536 C538 1.388 . S
C537 C536 1.366 . S
C537 C541 1.385 . S
C538 H519 0.951 . S
C538 C536 1.388 . S
C538 C539 1.366 . S
C539 C538 1.366 . S
C539 C540 1.414 . S
C539 C542 1.499 . S
C540 H520 0.950 . S
C540 C539 1.414 . S
C540 C541 1.374 . S
C541 H521 0.950 . S
C541 C537 1.385 . S
C541 C540 1.374 . S
C542 C539 1.499 . S
C542 C543 1.373 . S
C542 C544 1.389 . S
C543 H522 0.950 . S
C543 C542 1.373 . S
C543 C559 1.377 1_565 S
C544 C542 1.389 . S
C544 C545 1.524 . S
C544 C558 1.377 1_565 S
C545 C544 1.524 . S
C545 C546 1.397 . S
C545 C550 1.363 1_565 S
C546 H523 0.950 . S
C546 C545 1.397 . S
C546 C547 1.334 . S
C547 H524 0.950 . S
C547 C546 1.334 . S
C547 C548 1.287 . S
C548 C547 1.287 . S
C548 C549 1.524 . S
C548 H567 0.913 . S
C549 H525 0.950 1_565 S
C549 C548 1.524 . S
C549 C550 1.415 1_565 S
C550 H526 0.950 . S
C550 C545 1.363 1_545 S
C550 C549 1.415 1_545 S
C551 H527 0.951 . S
C551 C552 1.366 . S
C551 C553 1.388 . S
C552 C551 1.366 . S
C552 C556 1.385 . S
C553 H528 0.951 . S
C553 C551 1.388 . S
C553 C554 1.366 . S
C554 C553 1.366 . S
C554 C555 1.414 . S
C554 C557 1.499 . S
C555 H529 0.950 . S
C555 C554 1.414 . S
C555 C556 1.374 . S
C556 H530 0.950 . S
C556 C552 1.385 . S
C556 C555 1.374 . S
C557 C554 1.499 . S
C557 C558 1.373 . S
C557 C559 1.389 . S
C558 H531 0.950 . S
C558 C544 1.377 1_545 S
C558 C557 1.373 . S
C559 C543 1.377 1_545 S
C559 C557 1.389 . S
C559 C560 1.524 . S
C560 C559 1.524 . S
C560 C561 1.397 . S
C560 C565 1.363 1_545 S
C561 H532 0.950 . S
C561 C560 1.397 . S
C561 C562 1.334 . S
C562 H533 0.950 . S
C562 C561 1.334 . S
C562 C563 1.287 . S
C563 C562 1.287 . S
C563 C564 1.524 . S
C563 H566 0.999 . S
C564 H534 0.950 1_545 S
C564 C563 1.524 . S
C564 C565 1.415 1_545 S
C565 H535 0.950 . S
C565 C560 1.363 1_565 S
C565 C564 1.415 1_565 S
H566 C563 0.999 . S
H567 C548 0.913 . S
H568 C586 0.951 . S
H569 C588 0.951 . S
H570 C590 0.950 . S
H571 C591 0.950 . S
H572 C593 0.950 . S
H573 C596 0.950 . S
H574 C597 0.950 . S
H575 C599 0.950 . S
H576 C600 0.950 . S
H577 C601 0.951 . S
H578 C603 0.951 . S
H579 C605 0.950 . S
H580 C606 0.950 . S
H581 C608 0.950 . S
H582 C611 0.950 . S
H583 C612 0.950 . S
H584 C614 0.950 . S
H585 C615 0.950 . S
C586 H568 0.951 . S
C586 C587 1.366 . S
C586 C588 1.388 . S
C587 C586 1.366 . S
C587 C591 1.385 . S
C588 H569 0.951 . S
C588 C586 1.388 . S
C588 C589 1.366 . S
C589 C588 1.366 . S
C589 C590 1.414 . S
C589 C592 1.499 . S
C590 H570 0.950 . S
C590 C589 1.414 . S
C590 C591 1.374 . S
C591 H571 0.950 . S
C591 C587 1.385 . S
C591 C590 1.374 . S
C592 C589 1.499 . S
C592 C593 1.373 . S
C592 C594 1.389 . S
C593 H572 0.950 . S
C593 C592 1.373 . S
C593 C609 1.377 . S
C594 C592 1.389 . S
C594 C595 1.524 . S
C594 C608 1.377 . S
C595 C594 1.524 . S
C595 C596 1.397 . S
C595 C600 1.363 . S
C596 H573 0.950 . S
C596 C595 1.397 . S
C596 C597 1.334 . S
C597 H574 0.950 . S
C597 C596 1.334 . S
C597 C598 1.287 . S
C598 C597 1.287 . S
C598 C599 1.524 . S
C598 H617 0.913 . S
C599 H575 0.950 . S
C599 C598 1.524 . S
C599 C600 1.415 . S
C600 H576 0.950 . S
C600 C595 1.363 . S
C600 C599 1.415 . S
C601 H577 0.951 . S
C601 C602 1.366 . S
C601 C603 1.388 . S
C602 C601 1.366 . S
C602 C606 1.385 . S
C603 H578 0.951 . S
C603 C601 1.388 . S
C603 C604 1.366 . S
C604 C603 1.366 . S
C604 C605 1.414 . S
C604 C607 1.499 . S
C605 H579 0.950 . S
C605 C604 1.414 . S
C605 C606 1.374 . S
C606 H580 0.950 . S
C606 C602 1.385 . S
C606 C605 1.374 . S
C607 C604 1.499 . S
C607 C608 1.373 . S
C607 C609 1.389 . S
C608 H581 0.950 . S
C608 C594 1.377 . S
C608 C607 1.373 . S
C609 C593 1.377 . S
C609 C607 1.389 . S
C609 C610 1.524 . S
C610 C609 1.524 . S
C610 C611 1.397 . S
C610 C615 1.363 . S
C611 H582 0.950 . S
C611 C610 1.397 . S
C611 C612 1.334 . S
C612 H583 0.950 . S
C612 C611 1.334 . S
C612 C613 1.287 . S
C613 C612 1.287 . S
C613 C614 1.524 . S
C613 H616 0.999 . S
C614 H584 0.950 . S
C614 C613 1.524 . S
C614 C615 1.415 . S
C615 H585 0.950 . S
C615 C610 1.363 . S
C615 C614 1.415 . S
H616 C613 0.999 . S
H617 C598 0.913 . S
H618 C636 0.951 . S
H619 C638 0.951 . S
H620 C640 0.950 . S
H621 C641 0.950 . S
H622 C643 0.950 . S
H623 C646 0.950 . S
H624 C647 0.950 . S
H625 C649 0.950 . S
H626 C650 0.950 . S
H627 C651 0.951 . S
H628 C653 0.951 . S
H629 C655 0.950 . S
H630 C656 0.950 . S
H631 C658 0.950 . S
H632 C661 0.950 . S
H633 C662 0.950 . S
H634 C664 0.950 . S
H635 C665 0.950 . S
C636 H618 0.951 . S
C636 C637 1.366 . S
C636 C638 1.388 . S
C637 C636 1.366 . S
C637 C641 1.385 . S
C638 H619 0.951 . S
C638 C636 1.388 . S
C638 C639 1.366 . S
C639 C638 1.366 . S
C639 C640 1.414 . S
C639 C642 1.499 . S
C640 H620 0.950 . S
C640 C639 1.414 . S
C640 C641 1.374 . S
C641 H621 0.950 . S
C641 C637 1.385 . S
C641 C640 1.374 . S
C642 C639 1.499 . S
C642 C643 1.373 . S
C642 C644 1.389 . S
C643 H622 0.950 . S
C643 C642 1.373 . S
C643 C659 1.377 1_556 S
C644 C642 1.389 . S
C644 C645 1.524 . S
C644 C658 1.377 1_556 S
C645 C644 1.524 . S
C645 C646 1.397 . S
C645 C650 1.363 . S
C646 H623 0.950 . S
C646 C645 1.397 . S
C646 C647 1.334 . S
C647 H624 0.950 . S
C647 C646 1.334 . S
C647 C648 1.287 . S
C648 C647 1.287 . S
C648 C649 1.524 . S
C648 H667 0.913 . S
C649 H625 0.950 . S
C649 C648 1.524 . S
C649 C650 1.415 . S
C650 H626 0.950 . S
C650 C645 1.363 . S
C650 C649 1.415 . S
C651 H627 0.951 . S
C651 C652 1.366 . S
C651 C653 1.388 . S
C652 C651 1.366 . S
C652 C656 1.385 . S
C653 H628 0.951 . S
C653 C651 1.388 . S
C653 C654 1.366 . S
C654 C653 1.366 . S
C654 C655 1.414 . S
C654 C657 1.499 . S
C655 H629 0.950 . S
C655 C654 1.414 . S
C655 C656 1.374 . S
C656 H630 0.950 . S
C656 C652 1.385 . S
C656 C655 1.374 . S
C657 C654 1.499 . S
C657 C658 1.373 . S
C657 C659 1.389 . S
C658 H631 0.950 . S
C658 C644 1.377 1_554 S
C658 C657 1.373 . S
C659 C643 1.377 1_554 S
C659 C657 1.389 . S
C659 C660 1.524 . S
C660 C659 1.524 . S
C660 C661 1.397 . S
C660 C665 1.363 . S
C661 H632 0.950 . S
C661 C660 1.397 . S
C661 C662 1.334 . S
C662 H633 0.950 . S
C662 C661 1.334 . S
C662 C663 1.287 . S
C663 C662 1.287 . S
C663 C664 1.524 . S
C663 H666 0.999 . S
C664 H634 0.950 . S
C664 C663 1.524 . S
C664 C665 1.415 . S
C665 H635 0.950 . S
C665 C660 1.363 . S
C665 C664 1.415 . S
H666 C663 0.999 . S
H667 C648 0.913 . S
H668 C686 0.951 . S
H669 C688 0.951 . S
H670 C690 0.950 . S
H671 C691 0.950 . S
H672 C693 0.950 . S
H673 C696 0.950 . S
H674 C697 0.950 . S
H675 C699 0.950 . S
H676 C700 0.950 . S
H677 C701 0.951 . S
H678 C703 0.951 . S
H679 C705 0.950 . S
H680 C706 0.950 . S
H681 C708 0.950 . S
H682 C711 0.950 . S
H683 C712 0.950 . S
H684 C714 0.950 . S
H685 C715 0.950 . S
C686 H668 0.951 . S
C686 C687 1.366 . S
C686 C688 1.388 . S
C687 C686 1.366 . S
C687 C691 1.385 . S
C688 H669 0.951 . S
C688 C686 1.388 . S
C688 C689 1.366 . S
C689 C688 1.366 . S
C689 C690 1.414 . S
C689 C692 1.499 . S
C690 H670 0.950 . S
C690 C689 1.414 . S
C690 C691 1.374 . S
C691 H671 0.950 . S
C691 C687 1.385 . S
C691 C690 1.374 . S
C692 C689 1.499 . S
C692 C693 1.373 . S
C692 C694 1.389 . S
C693 H672 0.950 . S
C693 C692 1.373 . S
C693 C709 1.377 . S
C694 C692 1.389 . S
C694 C695 1.524 . S
C694 C708 1.377 . S
C695 C694 1.524 . S
C695 C696 1.397 . S
C695 C700 1.363 . S
C696 H673 0.950 . S
C696 C695 1.397 . S
C696 C697 1.334 . S
C697 H674 0.950 . S
C697 C696 1.334 . S
C697 C698 1.287 . S
C698 C697 1.287 . S
C698 C699 1.524 . S
C698 H717 0.913 . S
C699 H675 0.950 . S
C699 C698 1.524 . S
C699 C700 1.415 . S
C700 H676 0.950 . S
C700 C695 1.363 . S
C700 C699 1.415 . S
C701 H677 0.951 . S
C701 C702 1.366 . S
C701 C703 1.388 . S
C702 C701 1.366 . S
C702 C706 1.385 . S
C703 H678 0.951 . S
C703 C701 1.388 . S
C703 C704 1.366 . S
C704 C703 1.366 . S
C704 C705 1.414 . S
C704 C707 1.499 . S
C705 H679 0.950 . S
C705 C704 1.414 . S
C705 C706 1.374 . S
C706 H680 0.950 . S
C706 C702 1.385 . S
C706 C705 1.374 . S
C707 C704 1.499 . S
C707 C708 1.373 . S
C707 C709 1.389 . S
C708 H681 0.950 . S
C708 C694 1.377 . S
C708 C707 1.373 . S
C709 C693 1.377 . S
C709 C707 1.389 . S
C709 C710 1.524 . S
C710 C709 1.524 . S
C710 C711 1.397 . S
C710 C715 1.363 . S
C711 H682 0.950 . S
C711 C710 1.397 . S
C711 C712 1.334 . S
C712 H683 0.950 . S
C712 C711 1.334 . S
C712 C713 1.287 . S
C713 C712 1.287 . S
C713 C714 1.524 . S
C713 H716 0.999 . S
C714 H684 0.950 . S
C714 C713 1.524 . S
C714 C715 1.415 . S
C715 H685 0.950 . S
C715 C710 1.363 . S
C715 C714 1.415 . S
H716 C713 0.999 . S
H717 C698 0.913 . S
H718 C736 0.951 . S
H719 C738 0.951 . S
H720 C740 0.950 . S
H721 C741 0.950 . S
H722 C743 0.950 . S
H723 C746 0.950 . S
H724 C747 0.950 . S
H725 C749 0.950 . S
H726 C750 0.950 . S
H727 C751 0.951 . S
H728 C753 0.951 . S
H729 C755 0.950 . S
H730 C756 0.950 . S
H731 C758 0.950 . S
H732 C761 0.950 . S
H733 C762 0.950 . S
H734 C764 0.950 . S
H735 C765 0.950 . S
C736 H718 0.951 . S
C736 C737 1.366 . S
C736 C738 1.388 . S
C737 C736 1.366 . S
C737 C741 1.385 . S
C738 H719 0.951 . S
C738 C736 1.388 . S
C738 C739 1.366 . S
C739 C738 1.366 . S
C739 C740 1.414 . S
C739 C742 1.499 . S
C740 H720 0.950 . S
C740 C739 1.414 . S
C740 C741 1.374 . S
C741 H721 0.950 . S
C741 C737 1.385 . S
C741 C740 1.374 . S
C742 C739 1.499 . S
C742 C743 1.373 . S
C742 C744 1.389 . S
C743 H722 0.950 . S
C743 C742 1.373 . S
C743 C759 1.377 . S
C744 C742 1.389 . S
C744 C745 1.524 . S
C744 C758 1.377 . S
C745 C744 1.524 . S
C745 C746 1.397 . S
C745 C750 1.363 . S
C746 H723 0.950 . S
C746 C745 1.397 . S
C746 C747 1.334 . S
C747 H724 0.950 . S
C747 C746 1.334 . S
C747 C748 1.287 . S
C748 C747 1.287 . S
C748 C749 1.524 . S
C748 H767 0.913 . S
C749 H725 0.950 . S
C749 C748 1.524 . S
C749 C750 1.415 . S
C750 H726 0.950 . S
C750 C745 1.363 . S
C750 C749 1.415 . S
C751 H727 0.951 . S
C751 C752 1.366 . S
C751 C753 1.388 . S
C752 C751 1.366 . S
C752 C756 1.385 . S
C753 H728 0.951 . S
C753 C751 1.388 . S
C753 C754 1.366 . S
C754 C753 1.366 . S
C754 C755 1.414 . S
C754 C757 1.499 . S
C755 H729 0.950 . S
C755 C754 1.414 . S
C755 C756 1.374 . S
C756 H730 0.950 . S
C756 C752 1.385 . S
C756 C755 1.374 . S
C757 C754 1.499 . S
C757 C758 1.373 . S
C757 C759 1.389 . S
C758 H731 0.950 . S
C758 C744 1.377 . S
C758 C757 1.373 . S
C759 C743 1.377 . S
C759 C757 1.389 . S
C759 C760 1.524 . S
C760 C759 1.524 . S
C760 C761 1.397 . S
C760 C765 1.363 . S
C761 H732 0.950 . S
C761 C760 1.397 . S
C761 C762 1.334 . S
C762 H733 0.950 . S
C762 C761 1.334 . S
C762 C763 1.287 . S
C763 C762 1.287 . S
C763 C764 1.524 . S
C763 H766 0.999 . S
C764 H734 0.950 . S
C764 C763 1.524 . S
C764 C765 1.415 . S
C765 H735 0.950 . S
C765 C760 1.363 . S
C765 C764 1.415 . S
H766 C763 0.999 . S
H767 C748 0.913 . S
H768 C786 0.951 . S
H769 C788 0.951 . S
H770 C790 0.950 . S
H771 C791 0.950 . S
H772 C793 0.950 . S
H773 C796 0.950 . S
H774 C797 0.950 . S
H775 C799 0.950 . S
H776 C800 0.950 . S
H777 C801 0.951 . S
H778 C803 0.951 . S
H779 C805 0.950 . S
H780 C806 0.950 . S
H781 C808 0.950 . S
H782 C811 0.950 . S
H783 C812 0.950 . S
H784 C814 0.950 . S
H785 C815 0.950 . S
C786 H768 0.951 . S
C786 C787 1.366 . S
C786 C788 1.388 . S
C787 C786 1.366 . S
C787 C791 1.385 . S
C788 H769 0.951 . S
C788 C786 1.388 . S
C788 C789 1.366 . S
C789 C788 1.366 . S
C789 C790 1.414 . S
C789 C792 1.499 . S
C790 H770 0.950 . S
C790 C789 1.414 . S
C790 C791 1.374 . S
C791 H771 0.950 . S
C791 C787 1.385 . S
C791 C790 1.374 . S
C792 C789 1.499 . S
C792 C793 1.373 . S
C792 C794 1.389 . S
C793 H772 0.950 . S
C793 C792 1.373 . S
C793 C809 1.377 1_556 S
C794 C792 1.389 . S
C794 C795 1.524 . S
C794 C808 1.377 1_556 S
C795 C794 1.524 . S
C795 C796 1.397 . S
C795 C800 1.363 . S
C796 H773 0.950 . S
C796 C795 1.397 . S
C796 C797 1.334 . S
C797 H774 0.950 . S
C797 C796 1.334 . S
C797 C798 1.287 . S
C798 C797 1.287 . S
C798 C799 1.524 . S
C798 H817 0.913 . S
C799 H775 0.950 . S
C799 C798 1.524 . S
C799 C800 1.415 . S
C800 H776 0.950 . S
C800 C795 1.363 . S
C800 C799 1.415 . S
C801 H777 0.951 . S
C801 C802 1.366 . S
C801 C803 1.388 . S
C802 C801 1.366 . S
C802 C806 1.385 . S
C803 H778 0.951 . S
C803 C801 1.388 . S
C803 C804 1.366 . S
C804 C803 1.366 . S
C804 C805 1.414 . S
C804 C807 1.499 . S
C805 H779 0.950 . S
C805 C804 1.414 . S
C805 C806 1.374 . S
C806 H780 0.950 . S
C806 C802 1.385 . S
C806 C805 1.374 . S
C807 C804 1.499 . S
C807 C808 1.373 . S
C807 C809 1.389 . S
C808 H781 0.950 . S
C808 C794 1.377 1_554 S
C808 C807 1.373 . S
C809 C793 1.377 1_554 S
C809 C807 1.389 . S
C809 C810 1.524 . S
C810 C809 1.524 . S
C810 C811 1.397 . S
C810 C815 1.363 . S
C811 H782 0.950 . S
C811 C810 1.397 . S
C811 C812 1.334 . S
C812 H783 0.950 . S
C812 C811 1.334 . S
C812 C813 1.287 . S
C813 C812 1.287 . S
C813 C814 1.524 . S
C813 H816 0.999 . S
C814 H784 0.950 . S
C814 C813 1.524 . S
C814 C815 1.415 . S
C815 H785 0.950 . S
C815 C810 1.363 . S
C815 C814 1.415 . S
H816 C813 0.999 . S
H817 C798 0.913 . S
H818 C836 0.951 . S
H819 C838 0.951 . S
H820 C840 0.950 . S
H821 C841 0.950 . S
H822 C843 0.950 . S
H823 C846 0.950 . S
H824 C847 0.950 . S
H825 C849 0.950 . S
H826 C850 0.950 . S
H827 C851 0.951 . S
H828 C853 0.951 . S
H829 C855 0.950 . S
H830 C856 0.950 . S
H831 C858 0.950 . S
H832 C861 0.950 . S
H833 C862 0.950 . S
H834 C864 0.950 . S
H835 C865 0.950 . S
C836 H818 0.951 . S
C836 C837 1.366 . S
C836 C838 1.388 . S
C837 C836 1.366 . S
C837 C841 1.385 . S
C838 H819 0.951 . S
C838 C836 1.388 . S
C838 C839 1.366 . S
C839 C838 1.366 . S
C839 C840 1.414 . S
C839 C842 1.499 . S
C840 H820 0.950 . S
C840 C839 1.414 . S
C840 C841 1.374 . S
C841 H821 0.950 . S
C841 C837 1.385 . S
C841 C840 1.374 . S
C842 C839 1.499 . S
C842 C843 1.373 . S
C842 C844 1.389 . S
C843 H822 0.950 . S
C843 C842 1.373 . S
C843 C859 1.377 . S
C844 C842 1.389 . S
C844 C845 1.524 . S
C844 C858 1.377 . S
C845 C844 1.524 . S
C845 C846 1.397 . S
C845 C850 1.363 . S
C846 H823 0.950 . S
C846 C845 1.397 . S
C846 C847 1.334 . S
C847 H824 0.950 . S
C847 C846 1.334 . S
C847 C848 1.287 . S
C848 C847 1.287 . S
C848 C849 1.524 . S
C848 H867 0.913 . S
C849 H825 0.950 . S
C849 C848 1.524 . S
C849 C850 1.415 . S
C850 H826 0.950 . S
C850 C845 1.363 . S
C850 C849 1.415 . S
C851 H827 0.951 . S
C851 C852 1.366 . S
C851 C853 1.388 . S
C852 C851 1.366 . S
C852 C856 1.385 . S
C853 H828 0.951 . S
C853 C851 1.388 . S
C853 C854 1.366 . S
C854 C853 1.366 . S
C854 C855 1.414 . S
C854 C857 1.499 . S
C855 H829 0.950 . S
C855 C854 1.414 . S
C855 C856 1.374 . S
C856 H830 0.950 . S
C856 C852 1.385 . S
C856 C855 1.374 . S
C857 C854 1.499 . S
C857 C858 1.373 . S
C857 C859 1.389 . S
C858 H831 0.950 . S
C858 C844 1.377 . S
C858 C857 1.373 . S
C859 C843 1.377 . S
C859 C857 1.389 . S
C859 C860 1.524 . S
C860 C859 1.524 . S
C860 C861 1.397 . S
C860 C865 1.363 . S
C861 H832 0.950 . S
C861 C860 1.397 . S
C861 C862 1.334 . S
C862 H833 0.950 . S
C862 C861 1.334 . S
C862 C863 1.287 . S
C863 C862 1.287 . S
C863 C864 1.524 . S
C863 H866 0.999 . S
C864 H834 0.950 . S
C864 C863 1.524 . S
C864 C865 1.415 . S
C865 H835 0.950 . S
C865 C860 1.363 . S
C865 C864 1.415 . S
H866 C863 0.999 . S
H867 C848 0.913 . S
H868 C886 0.951 . S
H869 C888 0.951 . S
H870 C890 0.950 . S
H871 C891 0.950 . S
H872 C893 0.950 . S
H873 C896 0.950 . S
H874 C897 0.950 . S
H875 C899 0.950 . S
H876 C900 0.950 . S
H877 C901 0.951 . S
H878 C903 0.951 . S
H879 C905 0.950 . S
H880 C906 0.950 . S
H881 C908 0.950 . S
H882 C911 0.950 . S
H883 C912 0.950 . S
H884 C914 0.950 . S
H885 C915 0.950 . S
C886 H868 0.951 . S
C886 C887 1.366 . S
C886 C888 1.388 . S
C887 C886 1.366 . S
C887 C891 1.385 . S
C888 H869 0.951 . S
C888 C886 1.388 . S
C888 C889 1.366 . S
C889 C888 1.366 . S
C889 C890 1.414 . S
C889 C892 1.499 . S
C890 H870 0.950 . S
C890 C889 1.414 . S
C890 C891 1.374 . S
C891 H871 0.950 . S
C891 C887 1.385 . S
C891 C890 1.374 . S
C892 C889 1.499 . S
C892 C893 1.373 . S
C892 C894 1.389 . S
C893 H872 0.950 . S
C893 C892 1.373 . S
C893 C909 1.377 . S
C894 C892 1.389 . S
C894 C895 1.524 . S
C894 C908 1.377 . S
C895 C894 1.524 . S
C895 C896 1.397 . S
C895 C900 1.363 . S
C896 H873 0.950 . S
C896 C895 1.397 . S
C896 C897 1.334 . S
C897 H874 0.950 . S
C897 C896 1.334 . S
C897 C898 1.287 . S
C898 C897 1.287 . S
C898 C899 1.524 . S
C898 H917 0.913 . S
C899 H875 0.950 . S
C899 C898 1.524 . S
C899 C900 1.415 . S
C900 H876 0.950 . S
C900 C895 1.363 . S
C900 C899 1.415 . S
C901 H877 0.951 . S
C901 C902 1.366 . S
C901 C903 1.388 . S
C902 C901 1.366 . S
C902 C906 1.385 . S
C903 H878 0.951 . S
C903 C901 1.388 . S
C903 C904 1.366 . S
C904 C903 1.366 . S
C904 C905 1.414 . S
C904 C907 1.499 . S
C905 H879 0.950 . S
C905 C904 1.414 . S
C905 C906 1.374 . S
C906 H880 0.950 . S
C906 C902 1.385 . S
C906 C905 1.374 . S
C907 C904 1.499 . S
C907 C908 1.373 . S
C907 C909 1.389 . S
C908 H881 0.950 . S
C908 C894 1.377 . S
C908 C907 1.373 . S
C909 C893 1.377 . S
C909 C907 1.389 . S
C909 C910 1.524 . S
C910 C909 1.524 . S
C910 C911 1.397 . S
C910 C915 1.363 . S
C911 H882 0.950 . S
C911 C910 1.397 . S
C911 C912 1.334 . S
C912 H883 0.950 . S
C912 C911 1.334 . S
C912 C913 1.287 . S
C913 C912 1.287 . S
C913 C914 1.524 . S
C913 H916 0.999 . S
C914 H884 0.950 . S
C914 C913 1.524 . S
C914 C915 1.415 . S
C915 H885 0.950 . S
C915 C910 1.363 . S
C915 C914 1.415 . S
H916 C913 0.999 . S
H917 C898 0.913 . S
C337 C22 1.644 . S
C352 C181 1.644 . S
C387 C75 1.644 . S
C402 C234 1.644 . S
C437 C128 1.643 . S
C452 C287 1.643 . S
C487 C82 1.647 . S
C502 C241 1.647 . S
C537 C294 1.647 . S
C552 C135 1.647 . S
C587 C188 1.647 . S
C602 C29 1.647 . S
C637 C144 2.371 . S
C652 C39 2.359 . S
C687 C197 2.372 . S
C702 C92 2.359 . S
C737 C145 2.359 . S
C752 C250 2.371 . S
C787 C303 2.371 . S
C802 C198 2.359 . S
C837 C251 2.359 . S
C852 C38 2.371 . S
C887 C304 2.359 . S
C902 C91 2.371 . S
