# Generated by pormake.
# Topology wns, (7)-cn, num edge types: 1
# Building blocks:
#     Node 0, Type 0, BuildingBlock: HICVOG_clean_sbu_0, # of connection points: 7
#     Node 1, Type 0, BuildingBlock: HICVOG_clean_sbu_0, # of connection points: 7
#     Node 2, Type 0, BuildingBlock: HICVOG_clean_sbu_0, # of connection points: 7
#     Node 3, Type 0, BuildingBlock: HICVOG_clean_sbu_0, # of connection points: 7
#     Node 4, Type 0, BuildingBlock: HICVOG_clean_sbu_0, # of connection points: 7
#     Node 5, Type 0, BuildingBlock: HICVOG_clean_sbu_0, # of connection points: 7
#     Node 6, Type 0, BuildingBlock: HICVOG_clean_sbu_0, # of connection points: 7
#     Node 7, Type 0, BuildingBlock: HICVOG_clean_sbu_0, # of connection points: 7
#     Node 8, Type 0, BuildingBlock: HICVOG_clean_sbu_0, # of connection points: 7
#     Node 9, Type 0, BuildingBlock: HICVOG_clean_sbu_0, # of connection points: 7
#     Node 10, Type 0, BuildingBlock: HICVOG_clean_sbu_0, # of connection points: 7
#     Node 11, Type 0, BuildingBlock: HICVOG_clean_sbu_0, # of connection points: 7
#     Edge 12, Type (0, 0), BuildingBlock: XIVTED_clean_linker_0, # of connection points: 2
#     Edge 13, Type (0, 0), BuildingBlock: XIVTED_clean_linker_0, # of connection points: 2
#     Edge 14, Type (0, 0), BuildingBlock: XIVTED_clean_linker_0, # of connection points: 2
#     Edge 15, Type (0, 0), BuildingBlock: XIVTED_clean_linker_0, # of connection points: 2
#     Edge 16, Type (0, 0), BuildingBlock: XIVTED_clean_linker_0, # of connection points: 2
#     Edge 17, Type (0, 0), BuildingBlock: XIVTED_clean_linker_0, # of connection points: 2
#     Edge 18, Type (0, 0), BuildingBlock: XIVTED_clean_linker_0, # of connection points: 2
#     Edge 19, Type (0, 0), BuildingBlock: XIVTED_clean_linker_0, # of connection points: 2
#     Edge 20, Type (0, 0), BuildingBlock: XIVTED_clean_linker_0, # of connection points: 2
#     Edge 21, Type (0, 0), BuildingBlock: XIVTED_clean_linker_0, # of connection points: 2
#     Edge 22, Type (0, 0), BuildingBlock: XIVTED_clean_linker_0, # of connection points: 2
#     Edge 23, Type (0, 0), BuildingBlock: XIVTED_clean_linker_0, # of connection points: 2
#     Edge 24, Type (0, 0), BuildingBlock: XIVTED_clean_linker_0, # of connection points: 2
#     Edge 25, Type (0, 0), BuildingBlock: XIVTED_clean_linker_0, # of connection points: 2
#     Edge 26, Type (0, 0), BuildingBlock: XIVTED_clean_linker_0, # of connection points: 2
#     Edge 27, Type (0, 0), BuildingBlock: XIVTED_clean_linker_0, # of connection points: 2
#     Edge 28, Type (0, 0), BuildingBlock: XIVTED_clean_linker_0, # of connection points: 2
#     Edge 29, Type (0, 0), BuildingBlock: XIVTED_clean_linker_0, # of connection points: 2
#     Edge 30, Type (0, 0), BuildingBlock: XIVTED_clean_linker_0, # of connection points: 2
#     Edge 31, Type (0, 0), BuildingBlock: XIVTED_clean_linker_0, # of connection points: 2
#     Edge 32, Type (0, 0), BuildingBlock: XIVTED_clean_linker_0, # of connection points: 2
#     Edge 33, Type (0, 0), BuildingBlock: XIVTED_clean_linker_0, # of connection points: 2
#     Edge 34, Type (0, 0), BuildingBlock: XIVTED_clean_linker_0, # of connection points: 2
#     Edge 35, Type (0, 0), BuildingBlock: XIVTED_clean_linker_0, # of connection points: 2
#     Edge 36, Type (0, 0), BuildingBlock: XIVTED_clean_linker_0, # of connection points: 2
#     Edge 37, Type (0, 0), BuildingBlock: XIVTED_clean_linker_0, # of connection points: 2
#     Edge 38, Type (0, 0), BuildingBlock: XIVTED_clean_linker_0, # of connection points: 2
#     Edge 39, Type (0, 0), BuildingBlock: XIVTED_clean_linker_0, # of connection points: 2
#     Edge 40, Type (0, 0), BuildingBlock: XIVTED_clean_linker_0, # of connection points: 2
#     Edge 41, Type (0, 0), BuildingBlock: XIVTED_clean_linker_0, # of connection points: 2
#     Edge 42, Type (0, 0), BuildingBlock: XIVTED_clean_linker_0, # of connection points: 2
#     Edge 43, Type (0, 0), BuildingBlock: XIVTED_clean_linker_0, # of connection points: 2
#     Edge 44, Type (0, 0), BuildingBlock: XIVTED_clean_linker_0, # of connection points: 2
#     Edge 45, Type (0, 0), BuildingBlock: XIVTED_clean_linker_0, # of connection points: 2
#     Edge 46, Type (0, 0), BuildingBlock: XIVTED_clean_linker_0, # of connection points: 2
#     Edge 47, Type (0, 0), BuildingBlock: XIVTED_clean_linker_0, # of connection points: 2
#     Edge 48, Type (0, 0), BuildingBlock: XIVTED_clean_linker_0, # of connection points: 2
#     Edge 49, Type (0, 0), BuildingBlock: XIVTED_clean_linker_0, # of connection points: 2
#     Edge 50, Type (0, 0), BuildingBlock: XIVTED_clean_linker_0, # of connection points: 2
#     Edge 51, Type (0, 0), BuildingBlock: XIVTED_clean_linker_0, # of connection points: 2
#     Edge 52, Type (0, 0), BuildingBlock: XIVTED_clean_linker_0, # of connection points: 2
#     Edge 53, Type (0, 0), BuildingBlock: XIVTED_clean_linker_0, # of connection points: 2
# Relax obj value: 0.155
# Max RMSD: 0.215
# Mean RMSD: 0.215
data_MOF--net-wns--node1-HICVOG_clean_sbu_0--edge1-XIVTED_clean_linker_0
_symmetry_space_group_name_H-M    P1
_symmetry_Int_Tables_number       1
_symmetry_cell_setting            triclinic
loop_
_symmetry_equiv_pos_as_xyz
'x, y, z'
_cell_length_a     42.464553
_cell_length_b     42.494703
_cell_length_c     35.294477
_cell_angle_alpha  90.056497
_cell_angle_beta   89.987862
_cell_angle_gamma 119.94746
loop_
_atom_site_label
_atom_site_type_symbol
_atom_site_fract_x
_atom_site_fract_y
_atom_site_fract_z
_atom_type_partial_charge
Zn0 Zn 0.43496 0.28172 0.15535 0.0
C1 C 0.34693 0.24864 0.08924 0.0
N2 N 0.33935 0.268 0.11395 0.0
C3 C 0.36444 0.27602 0.14098 0.0
N4 N 0.38693 0.26302 0.13288 0.0
N5 N 0.37548 0.24526 0.10038 0.0
C6 C 0.40559 0.22738 0.0056 0.0
O7 O 0.4295 0.25825 0.02129 0.0
O8 O 0.43009 0.27873 0.21244 0.0
Zn9 Zn 0.38321 0.20627 0.08361 0.0
N10 N 0.46501 0.33204 0.13846 0.0
C11 C 0.46838 0.38141 0.10324 0.0
C12 C 0.4486 0.34606 0.11657 0.0
C13 C 0.50125 0.35203 0.14655 0.0
N14 N 0.50421 0.40128 0.11139 0.0
C15 C 0.52167 0.38781 0.13245 0.0
O16 O 0.42981 0.2097 0.10165 0.0
C17 C 0.45756 0.22781 0.12257 0.0
O18 O 0.46152 0.25466 0.14223 0.0
H19 H 0.42044 0.33004 0.10885 0.0
H20 H 0.51374 0.34014 0.16366 0.0
C21 C 0.33451 0.12899 0.08692 0.0
C22 C 0.3045 0.09681 0.10046 0.0
C23 C 0.2944 0.13113 0.147 0.0
C24 C 0.32417 0.1629 0.13354 0.0
N25 N 0.3434 0.16132 0.1035 0.0
N26 N 0.28509 0.09895 0.13005 0.0
H27 H 0.35009 0.12857 0.06285 0.0
C28 C 0.41696 0.2472 0.2269 0.0
O29 O 0.40707 0.21925 0.20424 0.0
O30 O 0.38249 0.202 0.0265 0.0
H31 H 0.33165 0.18865 0.14676 0.0
H32 H 0.4555 0.39286 0.08607 0.0
H33 H 0.27865 0.13205 0.17063 0.0
Zn34 Zn 0.73914 0.15467 0.16049 0.0
C35 C 0.7725 0.09774 0.09644 0.0
N36 N 0.75434 0.0722 0.12275 0.0
C37 C 0.74578 0.09003 0.14832 0.0
N38 N 0.75749 0.12478 0.138 0.0
N39 N 0.77489 0.12981 0.10533 0.0
C40 C 0.82639 0.20892 0.01155 0.0
O41 O 0.842 0.23785 0.03331 0.0
O42 O 0.74546 0.15603 0.21796 0.0
Zn43 Zn 0.81209 0.176 0.08483 0.0
N44 N 0.68774 0.13311 0.14624 0.0
C45 C 0.6367 0.08408 0.11588 0.0
C46 C 0.6727 0.10085 0.12741 0.0
C47 C 0.668 0.14997 0.15285 0.0
N48 N 0.61714 0.10066 0.12253 0.0
C49 C 0.63148 0.13335 0.14043 0.0
O50 O 0.80966 0.21948 0.10441 0.0
C51 C 0.79193 0.22988 0.12496 0.0
O52 O 0.76494 0.20763 0.14483 0.0
H53 H 0.68842 0.08815 0.12066 0.0
H54 H 0.68067 0.17581 0.16744 0.0
C55 C 0.88974 0.20226 0.07981 0.0
C56 C 0.9223 0.20356 0.09056 0.0
C57 C 0.89136 0.1638 0.14165 0.0
C58 C 0.85922 0.16272 0.13102 0.0
N59 N 0.85879 0.18149 0.10002 0.0
N60 N 0.92202 0.18392 0.1211 0.0
H61 H 0.88887 0.2168 0.0551 0.0
C62 C 0.77666 0.17937 0.2306 0.0
O63 O 0.80223 0.19979 0.20634 0.0
O64 O 0.81062 0.17767 0.02707 0.0
H65 H 0.83468 0.14666 0.1472 0.0
H66 H 0.62449 0.0583 0.10117 0.0
H67 H 0.8919 0.14862 0.16598 0.0
Zn68 Zn 0.86549 0.58419 0.16108 0.0
C69 C 0.9203 0.67623 0.09898 0.0
N70 N 0.94676 0.68359 0.12412 0.0
C71 C 0.93013 0.65684 0.14961 0.0
N72 N 0.89516 0.6333 0.14001 0.0
N73 N 0.88898 0.64605 0.10824 0.0
C74 C 0.81011 0.6211 0.01505 0.0
O75 O 0.78117 0.60672 0.03684 0.0
O76 O 0.86216 0.58752 0.21835 0.0
Zn77 Zn 0.84263 0.63688 0.0884 0.0
N78 N 0.88784 0.55517 0.14653 0.0
C79 C 0.93678 0.55373 0.11521 0.0
C80 C 0.91986 0.57267 0.12734 0.0
C81 C 0.87131 0.5186 0.15288 0.0
N82 N 0.92048 0.51757 0.12154 0.0
C83 C 0.88797 0.49894 0.13974 0.0
O84 O 0.80023 0.58987 0.10597 0.0
C85 C 0.79022 0.56111 0.12513 0.0
O86 O 0.81267 0.55625 0.14453 0.0
H87 H 0.93214 0.60106 0.12069 0.0
H88 H 0.84562 0.50529 0.16772 0.0
C89 C 0.8136 0.68616 0.08806 0.0
C90 C 0.81018 0.71548 0.10171 0.0
C91 C 0.85019 0.72297 0.15222 0.0
C92 C 0.85326 0.69377 0.13876 0.0
N93 N 0.83532 0.67615 0.10671 0.0
N94 N 0.82896 0.73326 0.13335 0.0
H95 H 0.79981 0.67206 0.06246 0.0
C96 C 0.8389 0.59598 0.22985 0.0
O97 O 0.82009 0.60248 0.20467 0.0
O98 O 0.8414 0.63632 0.03055 0.0
H99 H 0.87007 0.68539 0.15368 0.0
H100 H 0.96239 0.5675 0.10021 0.0
H101 H 0.86464 0.73742 0.17746 0.0
Zn102 Zn 0.28405 0.42633 0.34374 0.0
C103 C 0.24679 0.33739 0.41051 0.0
N104 N 0.2619 0.32626 0.38445 0.0
C105 C 0.27273 0.35192 0.35762 0.0
N106 N 0.26507 0.37836 0.36723 0.0
N107 N 0.24791 0.3685 0.40034 0.0
C108 C 0.23006 0.40259 0.49467 0.0
O109 O 0.26059 0.42735 0.47915 0.0
O110 O 0.2808 0.42077 0.28659 0.0
Zn111 Zn 0.20955 0.37735 0.41679 0.0
N112 N 0.33435 0.45697 0.36103 0.0
C113 C 0.38372 0.45936 0.39541 0.0
C114 C 0.34859 0.43983 0.38136 0.0
C115 C 0.354 0.49363 0.35497 0.0
N116 N 0.40327 0.49556 0.38921 0.0
C117 C 0.38974 0.51375 0.36952 0.0
O118 O 0.21279 0.42323 0.39738 0.0
C119 C 0.23054 0.45015 0.37546 0.0
O120 O 0.257 0.4533 0.35566 0.0
H121 H 0.3329 0.41107 0.38675 0.0
H122 H 0.34198 0.50666 0.33896 0.0
C123 C 0.13271 0.32673 0.41744 0.0
C124 C 0.10046 0.29585 0.4055 0.0
C125 C 0.13294 0.28756 0.3555 0.0
C126 C 0.16482 0.31823 0.36738 0.0
N127 N 0.16423 0.33694 0.3984 0.0
N128 N 0.10162 0.27691 0.37494 0.0
H129 H 0.13304 0.34192 0.44222 0.0
C130 C 0.24926 0.40333 0.27189 0.0
O131 O 0.22075 0.38924 0.2943 0.0
O132 O 0.20564 0.3782 0.47385 0.0
H133 H 0.18993 0.32674 0.35227 0.0
H134 H 0.39537 0.44593 0.41137 0.0
H135 H 0.13313 0.27218 0.33115 0.0
Zn136 Zn 0.59217 0.86013 0.34831 0.0
C137 C 0.67865 0.90786 0.41892 0.0
N138 N 0.69189 0.9352 0.39415 0.0
C139 C 0.6678 0.92231 0.36556 0.0
N140 N 0.63995 0.8882 0.37314 0.0
N141 N 0.64761 0.87924 0.40652 0.0
C142 C 0.61676 0.83134 0.49965 0.0
O143 O 0.59326 0.83906 0.48424 0.0
O144 O 0.59963 0.8576 0.29178 0.0
Zn145 Zn 0.6376 0.83164 0.42161 0.0
N146 N 0.56383 0.88388 0.36067 0.0
C147 C 0.56405 0.93511 0.3884 0.0
C148 C 0.58225 0.91706 0.37758 0.0
C149 C 0.52709 0.86742 0.35535 0.0
N150 N 0.52774 0.91891 0.38302 0.0
C151 C 0.50824 0.88537 0.36706 0.0
O152 O 0.59009 0.79061 0.40412 0.0
C153 C 0.56271 0.78256 0.38327 0.0
O154 O 0.56087 0.80644 0.3631 0.0
H155 H 0.61095 0.92962 0.38297 0.0
H156 H 0.51301 0.84083 0.34236 0.0
C157 C 0.68774 0.80462 0.41953 0.0
C158 C 0.71759 0.80241 0.4055 0.0
C159 C 0.72189 0.84005 0.3539 0.0
C160 C 0.69231 0.84219 0.36791 0.0
N161 N 0.6761 0.82486 0.40068 0.0
N162 N 0.73405 0.82053 0.37312 0.0
H163 H 0.67459 0.79137 0.44574 0.0
C164 C 0.60932 0.83496 0.2816 0.0
O165 O 0.61459 0.81603 0.30769 0.0
O166 O 0.63901 0.82785 0.47847 0.0
H167 H 0.68272 0.85802 0.35305 0.0
H168 H 0.57857 0.96164 0.40152 0.0
H169 H 0.7353 0.85406 0.3281 0.0
Zn170 Zn 0.16346 0.735 0.34933 0.0
C171 C 0.10745 0.77313 0.4077 0.0
N172 N 0.08103 0.75218 0.38326 0.0
C173 C 0.09809 0.74136 0.35909 0.0
N174 N 0.13337 0.75449 0.36858 0.0
N175 N 0.13935 0.77494 0.39918 0.0
C176 C 0.18929 0.79448 0.49667 0.0
O177 O 0.18591 0.76448 0.48209 0.0
O178 O 0.16479 0.73719 0.29194 0.0
Zn179 Zn 0.18608 0.81326 0.4176 0.0
N180 N 0.1423 0.685 0.36741 0.0
C181 C 0.09679 0.63786 0.40523 0.0
C182 C 0.11319 0.67296 0.39101 0.0
C183 C 0.15643 0.66328 0.35836 0.0
N184 N 0.11062 0.61624 0.39612 0.0
C185 C 0.14021 0.62772 0.37328 0.0
O186 O 0.22965 0.80936 0.40159 0.0
C187 C 0.23925 0.78987 0.38296 0.0
O188 O 0.21642 0.76203 0.36452 0.0
H189 H 0.10278 0.69044 0.39925 0.0
H190 H 0.17976 0.67362 0.33981 0.0
C191 C 0.21306 0.89027 0.41676 0.0
C192 C 0.21488 0.92242 0.40376 0.0
C193 C 0.17586 0.88959 0.35272 0.0
C194 C 0.17408 0.85776 0.36574 0.0
N195 N 0.19229 0.85859 0.39774 0.0
N196 N 0.19588 0.92105 0.37216 0.0
H197 H 0.22701 0.89013 0.44238 0.0
C198 C 0.18413 0.76849 0.27725 0.0
O199 O 0.20114 0.79673 0.29978 0.0
O200 O 0.1884 0.81782 0.47486 0.0
H201 H 0.15783 0.83247 0.35076 0.0
H202 H 0.07347 0.62794 0.42377 0.0
H203 H 0.16115 0.88924 0.32756 0.0
Zn204 Zn 0.63224 0.80235 0.92538 0.0
C205 C 0.66922 0.74927 0.86427 0.0
N206 N 0.69263 0.75978 0.89346 0.0
C207 C 0.67795 0.77169 0.91909 0.0
N208 N 0.64663 0.76868 0.90661 0.0
N209 N 0.64026 0.75377 0.87229 0.0
C210 C 0.59932 0.77401 0.77734 0.0
O211 O 0.59309 0.79406 0.80113 0.0
O212 O 0.63817 0.80906 0.98202 0.0
Zn213 Zn 0.59296 0.73447 0.84618 0.0
N214 N 0.66425 0.84909 0.90233 0.0
C215 C 0.68789 0.88437 0.84634 0.0
C216 C 0.66663 0.85086 0.86394 0.0
C217 C 0.68287 0.87944 0.92398 0.0
N218 N 0.70607 0.91478 0.86787 0.0
C219 C 0.70446 0.91335 0.90641 0.0
O220 O 0.55966 0.75336 0.86413 0.0
C221 C 0.55658 0.77318 0.88922 0.0
O222 O 0.58158 0.79073 0.91328 0.0
H223 H 0.6518 0.82645 0.84721 0.0
H224 H 0.68004 0.87727 0.95448 0.0
C225 C 0.52776 0.66351 0.85415 0.0
C226 C 0.50831 0.62649 0.86467 0.0
C227 C 0.56438 0.62828 0.8759 0.0
C228 C 0.58328 0.66493 0.86673 0.0
N229 N 0.56491 0.68189 0.85533 0.0
N230 N 0.52761 0.61013 0.87491 0.0
H231 H 0.51376 0.67803 0.84673 0.0
C232 C 0.6183 0.78443 0.00549 0.0
O233 O 0.59414 0.75218 0.99282 0.0
O234 O 0.60069 0.74664 0.78986 0.0
H235 H 0.61241 0.67975 0.86947 0.0
H236 H 0.68977 0.88623 0.81577 0.0
H237 H 0.57877 0.61449 0.88468 0.0
Zn238 Zn 0.21742 0.83641 0.9216 0.0
C239 C 0.2803 0.9281 0.86511 0.0
N240 N 0.27116 0.94131 0.89512 0.0
C241 C 0.25565 0.91311 0.9187 0.0
N242 N 0.25506 0.88355 0.90431 0.0
N243 N 0.27138 0.89278 0.87068 0.0
C244 C 0.24454 0.83812 0.77472 0.0
O245 O 0.22017 0.81748 0.79991 0.0
O246 O 0.21759 0.83275 0.97917 0.0
Zn247 Zn 0.28736 0.86288 0.84259 0.0
N248 N 0.17123 0.83178 0.90596 0.0
C249 C 0.13951 0.85062 0.86448 0.0
C250 C 0.1714 0.85129 0.87535 0.0
C251 C 0.13995 0.81075 0.92556 0.0
N252 N 0.1085 0.83017 0.8844 0.0
C253 C 0.10764 0.80984 0.91456 0.0
O254 O 0.26251 0.80929 0.85638 0.0
C255 C 0.23735 0.78563 0.87709 0.0
O256 O 0.21999 0.79413 0.90033 0.0
H257 H 0.19622 0.8676 0.8597 0.0
H258 H 0.14041 0.79566 0.94999 0.0
C259 C 0.35395 0.85988 0.85476 0.0
C260 C 0.38983 0.87375 0.86806 0.0
C261 C 0.39482 0.93147 0.87648 0.0
C262 C 0.35906 0.91741 0.86468 0.0
N263 N 0.33922 0.88208 0.85358 0.0
N264 N 0.40915 0.90934 0.8783 0.0
H265 H 0.33737 0.83148 0.84739 0.0
C266 C 0.20167 0.80127 0.99412 0.0
O267 O 0.18641 0.77265 0.97189 0.0
O268 O 0.27632 0.86135 0.78595 0.0
H269 H 0.34714 0.93453 0.86556 0.0
H270 H 0.13943 0.86637 0.84045 0.0
H271 H 0.41076 0.95954 0.88526 0.0
Zn272 Zn 0.18445 0.37968 0.91499 0.0
C273 C 0.09738 0.36032 0.8534 0.0
N274 N 0.08049 0.33393 0.87922 0.0
C275 C 0.10689 0.34117 0.90436 0.0
N276 N 0.13845 0.37092 0.8948 0.0
N277 N 0.13255 0.38347 0.86274 0.0
C278 C 0.18952 0.42112 0.77218 0.0
O279 O 0.20948 0.41567 0.79682 0.0
O280 O 0.18429 0.37868 0.97284 0.0
Zn281 Zn 0.16298 0.43228 0.84147 0.0
N282 N 0.19101 0.34014 0.89627 0.0
C283 C 0.17489 0.29275 0.85113 0.0
C284 C 0.17311 0.32285 0.86406 0.0
C285 C 0.21152 0.32902 0.91549 0.0
N286 N 0.19479 0.28125 0.87068 0.0
C287 C 0.21353 0.29879 0.90242 0.0
O288 O 0.21596 0.4599 0.85836 0.0
C289 C 0.23811 0.45558 0.87895 0.0
O290 O 0.22773 0.42709 0.89876 0.0
H291 H 0.15716 0.33202 0.84874 0.0
H292 H 0.22529 0.34285 0.9412 0.0
C293 C 0.15707 0.49784 0.84753 0.0
C294 C 0.14045 0.51774 0.85985 0.0
C295 C 0.09276 0.46402 0.88738 0.0
C296 C 0.10962 0.44481 0.87597 0.0
N297 N 0.14102 0.46164 0.85564 0.0
N298 N 0.10852 0.4998 0.87918 0.0
H299 H 0.18232 0.51073 0.83184 0.0
C300 C 0.21518 0.39325 0.98914 0.0
O301 O 0.2446 0.40796 0.96811 0.0
O302 O 0.16579 0.42866 0.78429 0.0
H303 H 0.09776 0.41677 0.88399 0.0
H304 H 0.16039 0.2785 0.82582 0.0
H305 H 0.06761 0.45077 0.90323 0.0
Zn306 Zn 0.74156 0.58837 0.66012 0.0
C307 C 0.77675 0.67693 0.5936 0.0
N308 N 0.75902 0.68594 0.61895 0.0
C309 C 0.75027 0.66074 0.64598 0.0
N310 N 0.76116 0.63663 0.63721 0.0
N311 N 0.77838 0.64733 0.60431 0.0
C312 C 0.79386 0.61462 0.50623 0.0
O313 O 0.76311 0.58952 0.52106 0.0
O314 O 0.74542 0.59338 0.71739 0.0
Zn315 Zn 0.81472 0.63671 0.58507 0.0
N316 N 0.69077 0.55887 0.64412 0.0
C317 C 0.64032 0.55694 0.61255 0.0
C318 C 0.67577 0.57632 0.6257 0.0
C319 C 0.67155 0.52206 0.64903 0.0
N320 N 0.62129 0.52054 0.6174 0.0
C321 C 0.63559 0.50201 0.63504 0.0
O322 O 0.80918 0.58911 0.60216 0.0
C323 C 0.79183 0.56234 0.62439 0.0
O324 O 0.76695 0.56025 0.64613 0.0
H325 H 0.69117 0.60502 0.62051 0.0
H326 H 0.68431 0.50891 0.66346 0.0
C327 C 0.89061 0.69139 0.58155 0.0
C328 C 0.92455 0.71662 0.59705 0.0
C329 C 0.89748 0.70581 0.658 0.0
C330 C 0.86392 0.68085 0.64247 0.0
N331 N 0.8612 0.67389 0.60468 0.0
N332 N 0.927 0.72287 0.63507 0.0
H333 H 0.88776 0.68489 0.55165 0.0
C334 C 0.77651 0.60379 0.73203 0.0
O335 O 0.80394 0.61091 0.70955 0.0
O336 O 0.81831 0.63803 0.52781 0.0
H337 H 0.84026 0.66677 0.6604 0.0
H338 H 0.62811 0.57062 0.59804 0.0
H339 H 0.90011 0.71137 0.6881 0.0
Zn340 Zn 0.43485 0.15848 0.6585 0.0
C341 C 0.34464 0.10513 0.59336 0.0
N342 N 0.33566 0.07888 0.61924 0.0
C343 C 0.3617 0.09545 0.64553 0.0
N344 N 0.38625 0.12999 0.63581 0.0
N345 N 0.37496 0.13615 0.60308 0.0
C346 C 0.39715 0.21412 0.50966 0.0
O347 O 0.40956 0.24286 0.53162 0.0
O348 O 0.4299 0.16105 0.71561 0.0
Zn349 Zn 0.38658 0.18282 0.58253 0.0
N350 N 0.4628 0.13462 0.6458 0.0
C351 C 0.46354 0.08408 0.61759 0.0
C352 C 0.44492 0.10179 0.62817 0.0
C353 C 0.49939 0.15113 0.65208 0.0
N354 N 0.49975 0.10039 0.62382 0.0
C355 C 0.51871 0.13366 0.64047 0.0
O356 O 0.43556 0.22366 0.59786 0.0
C357 C 0.46317 0.23326 0.6189 0.0
O358 O 0.46522 0.21104 0.64147 0.0
H359 H 0.4165 0.08945 0.62158 0.0
H360 H 0.51298 0.17744 0.66568 0.0
C361 C 0.33294 0.20664 0.58205 0.0
C362 C 0.31096 0.21849 0.59977 0.0
C363 C 0.32663 0.20491 0.65967 0.0
C364 C 0.34866 0.1936 0.64201 0.0
N365 N 0.35172 0.19501 0.60365 0.0
N366 N 0.30865 0.21743 0.63826 0.0
H367 H 0.33613 0.20791 0.5516 0.0
C368 C 0.42601 0.187 0.72825 0.0
O369 O 0.42529 0.21015 0.70414 0.0
O370 O 0.38455 0.18301 0.52499 0.0
H371 H 0.36378 0.18433 0.65873 0.0
H372 H 0.44948 0.05783 0.60384 0.0
H373 H 0.32425 0.20425 0.69021 0.0
Zn374 Zn 0.83902 0.20322 0.58684 0.0
C375 C 0.9285 0.27325 0.64391 0.0
N376 N 0.94454 0.2632 0.61754 0.0
C377 C 0.91718 0.24308 0.5937 0.0
N378 N 0.88588 0.24128 0.60453 0.0
N379 N 0.89292 0.26069 0.63607 0.0
C380 C 0.84436 0.2469 0.72907 0.0
O381 O 0.82683 0.21868 0.70663 0.0
O382 O 0.83583 0.1986 0.52946 0.0
Zn383 Zn 0.86351 0.28054 0.65687 0.0
N384 N 0.83258 0.15793 0.60715 0.0
C385 C 0.84899 0.12704 0.65234 0.0
C386 C 0.85171 0.15903 0.6385 0.0
C387 C 0.81007 0.12588 0.58957 0.0
N388 N 0.82706 0.09514 0.63442 0.0
C389 C 0.80716 0.09349 0.60349 0.0
O390 O 0.80997 0.25383 0.64296 0.0
C391 C 0.78697 0.22662 0.62383 0.0
O392 O 0.7964 0.20774 0.60393 0.0
H393 H 0.86925 0.18459 0.65245 0.0
H394 H 0.79541 0.12585 0.56447 0.0
C395 C 0.86942 0.35178 0.64672 0.0
C396 C 0.88532 0.38723 0.6315 0.0
C397 C 0.9303 0.37814 0.60158 0.0
C398 C 0.91419 0.34315 0.61601 0.0
N399 N 0.88447 0.33063 0.63879 0.0
N400 N 0.91554 0.39916 0.60956 0.0
H401 H 0.84555 0.34105 0.66454 0.0
C402 C 0.83779 0.22351 0.50797 0.0
O403 O 0.84457 0.25458 0.52298 0.0
O404 O 0.86344 0.27821 0.71427 0.0
H405 H 0.9253 0.32613 0.60844 0.0
H406 H 0.86435 0.12758 0.67701 0.0
H407 H 0.9541 0.38842 0.58369 0.0
H408 H 0.20294 0.9266 0.94271 0.0
H409 H 0.34705 0.06921 0.07542 0.0
H410 H 0.2933 0.91604 0.98141 0.0
H411 H 0.23533 0.04306 0.08524 0.0
H412 H 0.32685 0.01156 0.04236 0.0
H413 H 0.21019 0.96469 0.99782 0.0
C414 C 0.22305 0.93074 0.96399 0.0
C415 C 0.24743 0.91811 0.95783 0.0
C416 C 0.3067 0.01818 0.05224 0.0
C417 C 0.25745 0.9634 0.01933 0.0
C418 C 0.31826 0.05128 0.07065 0.0
C419 C 0.29284 0.06116 0.08244 0.0
C420 C 0.26953 0.99517 0.04479 0.0
C421 C 0.2558 0.03653 0.07632 0.0
C422 C 0.22755 0.9529 0.99515 0.0
C423 C 0.27374 0.92502 0.98553 0.0
N424 N 0.24526 1.00499 0.0572 0.0
N425 N 0.27888 0.94824 0.01451 0.0
H426 H 0.97005 0.18217 0.06778 0.0
H427 H 0.10731 0.37206 0.97142 0.0
H428 H 0.95247 0.2737 0.06524 0.0
H429 H 0.0816 0.27004 0.92006 0.0
H430 H 0.06702 0.33893 0.02461 0.0
H431 H 0.02576 0.21723 0.03023 0.0
C432 C 0.97814 0.20975 0.0596 0.0
C433 C 0.95643 0.22493 0.069 0.0
C434 C 0.07129 0.32389 1.00234 0.0
C435 C 0.02041 0.26532 0.02751 0.0
C436 C 0.09475 0.34274 0.97242 0.0
C437 C 0.09789 0.32362 0.94166 0.0
C438 C 0.05141 0.28579 1.00153 0.0
C439 C 0.0801 0.28562 0.94357 0.0
C440 C 1.00984 0.22965 0.03835 0.0
C441 C 0.96813 0.26081 0.05793 0.0
N442 N 0.05723 0.26783 0.97284 0.0
N443 N 0.9994 0.27983 0.03779 0.0
H444 H 0.82578 0.78521 0.08981 0.0
H445 H 0.64172 0.72586 0.97636 0.0
H446 H 0.74249 0.67412 0.07004 0.0
H447 H 0.7424 0.82241 0.94922 0.0
H448 H 0.67155 0.71495 0.03007 0.0
H449 H 0.78903 0.80571 0.05532 0.0
C450 C 0.79963 0.76516 0.07849 0.0
C451 C 0.78745 0.72792 0.08213 0.0
C452 C 0.68675 0.73926 0.01321 0.0
C453 C 0.74501 0.75117 0.04379 0.0
C454 C 0.66955 0.74593 0.9831 0.0
C455 C 0.68958 0.77536 0.95878 0.0
C456 C 0.72417 0.7623 0.01893 0.0
C457 C 0.726 0.79972 0.96774 0.0
C458 C 0.77873 0.77689 0.05895 0.0
C459 C 0.75328 0.70308 0.06714 0.0
N460 N 0.74236 0.7924 0.99684 0.0
N461 N 0.73326 0.71515 0.04859 0.0
H462 H 0.07091 0.33618 0.43138 0.0
H463 H 0.93885 0.19498 0.57423 0.0
H464 H 0.05114 0.22641 0.42575 0.0
H465 H 0.91862 0.27729 0.52909 0.0
H466 H 0.97745 0.2026 0.51929 0.0
H467 H 0.01478 0.31452 0.46788 0.0
C468 C 0.05467 0.30751 0.43782 0.0
C469 C 0.06582 0.28307 0.42605 0.0
C470 C 0.96339 0.21795 0.52062 0.0
C471 C 1.00174 0.25813 0.46774 0.0
C472 C 0.94103 0.21326 0.55168 0.0
C473 C 0.92508 0.23505 0.55563 0.0
C474 C 0.97078 0.2456 0.49434 0.0
C475 C 0.92976 0.25935 0.52647 0.0
C476 C 0.02247 0.29509 0.45824 0.0
C477 C 0.04349 0.24609 0.43454 0.0
N478 N 0.95302 0.26474 0.49752 0.0
N479 N 0.01282 0.23478 0.45555 0.0
H480 H 0.7409 0.64152 0.53046 0.0
H481 H 0.78831 0.82486 0.42238 0.0
H482 H 0.82232 0.74646 0.57147 0.0
H483 H 0.67994 0.73348 0.43414 0.0
H484 H 0.81175 0.79196 0.45953 0.0
H485 H 0.73112 0.67083 0.47549 0.0
C486 C 0.75821 0.67054 0.5267 0.0
C487 C 0.78283 0.69167 0.55505 0.0
C488 C 0.78295 0.77904 0.45345 0.0
C489 C 0.77096 0.72531 0.49332 0.0
C490 C 0.76957 0.79771 0.43241 0.0
C491 C 0.73212 0.78199 0.42583 0.0
C492 C 0.75876 0.74407 0.46695 0.0
C493 C 0.70892 0.74675 0.43924 0.0
C494 C 0.7521 0.68728 0.49579 0.0
C495 C 0.80346 0.72933 0.54981 0.0
N496 N 0.72263 0.72894 0.45919 0.0
N497 N 0.79678 0.74511 0.51971 0.0
H498 H 0.19225 0.96983 0.42385 0.0
H499 H 0.37811 0.10763 0.5273 0.0
H500 H 0.28474 0.95391 0.43024 0.0
H501 H 0.27369 0.07825 0.5751 0.0
H502 H 0.34738 0.06866 0.47241 0.0
H503 H 0.22566 0.02552 0.46191 0.0
C504 C 0.21975 0.97836 0.43287 0.0
C505 C 0.23565 0.95709 0.42452 0.0
C506 C 0.3313 0.07187 0.49429 0.0
C507 C 0.27413 0.02095 0.46663 0.0
C508 C 0.34877 0.09452 0.52522 0.0
C509 C 0.32826 0.09621 0.55544 0.0
C510 C 0.2932 0.05138 0.49357 0.0
C511 C 0.29032 0.07781 0.55207 0.0
C512 C 0.2387 0.01003 0.45441 0.0
C513 C 0.27135 0.96928 0.43669 0.0
N514 N 0.27389 0.05578 0.52183 0.0
N515 N 0.28944 1.00046 0.45717 0.0
H516 H 0.71426 0.98044 0.88944 0.0
H517 H 0.81116 0.06369 0.08746 0.0
H518 H 0.74078 0.92395 0.97379 0.0
H519 H 0.75324 0.10579 0.02486 0.0
H520 H 0.80378 0.02369 0.03432 0.0
H521 H 0.74396 0.03555 0.92871 0.0
C522 C 0.72662 0.97973 0.91603 0.0
C523 C 0.72435 0.94735 0.92877 0.0
C524 C 0.79365 0.04246 0.03163 0.0
C525 C 0.75895 0.01033 0.97325 0.0
C526 C 0.79838 0.06571 0.0617 0.0
C527 C 0.78286 0.08804 0.06039 0.0
C528 C 0.77285 0.04128 1.0002 0.0
C529 C 0.76603 0.08927 0.02669 0.0
C530 C 0.74355 0.01115 0.93834 0.0
C531 C 0.74103 0.948 0.9633 0.0
N532 N 0.76071 0.06552 0.99811 0.0
N533 N 0.75747 0.97891 0.98435 0.0
H534 H 0.07797 0.73987 0.94027 0.0
H535 H 0.9449 0.74712 0.0829 0.0
H536 H 0.05862 0.83022 0.93557 0.0
H537 H 0.92097 0.64533 0.03234 0.0
H538 H 0.98514 0.77931 0.0295 0.0
H539 H 0.02132 0.70523 0.97606 0.0
C540 C 0.06178 0.75238 0.94683 0.0
C541 C 0.07314 0.78808 0.93543 0.0
C542 C 0.97005 0.7499 0.02935 0.0
C543 C 1.00849 0.74872 0.97621 0.0
C544 C 0.94676 0.73157 0.05953 0.0
C545 C 0.92937 0.69362 0.06161 0.0
C546 C 0.97695 0.73005 1.00205 0.0
C547 C 0.93351 0.67463 0.03133 0.0
C548 C 0.02929 0.73249 0.96679 0.0
C549 C 0.05083 0.8028 0.94404 0.0
N550 N 0.95779 0.69307 0.0033 0.0
N551 N 0.01988 0.78332 0.96458 0.0
H552 H 0.37994 0.28285 0.02471 0.0
H553 H 0.19232 0.2289 0.92179 0.0
H554 H 0.277 0.20124 0.06969 0.0
H555 H 0.28321 0.33803 0.92881 0.0
H556 H 0.22699 0.2074 0.95889 0.0
H557 H 0.34837 0.29002 0.97018 0.0
C558 C 0.35088 0.26492 0.02192 0.0
C559 C 0.33097 0.24098 0.05121 0.0
C560 C 0.23938 0.23593 0.95179 0.0
C561 C 0.29473 0.24999 0.99004 0.0
C562 C 0.21971 0.2482 0.93079 0.0
C563 C 0.23481 0.28533 0.92289 0.0
C564 C 0.2747 0.26087 0.96388 0.0
C565 C 0.2704 0.30928 0.93496 0.0
C566 C 0.33285 0.26955 0.99126 0.0
C567 C 0.2932 0.21957 0.04726 0.0
N568 N 0.28918 0.29663 0.95487 0.0
N569 N 0.27613 0.22486 0.01739 0.0
H570 H 0.93127 0.74553 0.52608 0.0
H571 H 0.1148 0.75537 0.47969 0.0
H572 H 0.99317 0.73086 0.61415 0.0
H573 H 0.07427 0.81295 0.4142 0.0
H574 H 0.07557 0.7516 0.53231 0.0
H575 H 0.98542 0.77301 0.48603 0.0
C576 C 0.9563 0.74813 0.53698 0.0
C577 C 0.95761 0.73534 0.57322 0.0
C578 C 0.0763 0.7664 0.50704 0.0
C579 C 0.01982 0.7669 0.52757 0.0
C580 C 0.09944 0.76933 0.47732 0.0
C581 C 0.09837 0.78524 0.44295 0.0
C582 C 0.05127 0.7785 0.50166 0.0
C583 C 0.07612 0.80083 0.44048 0.0
C584 C 0.98735 0.76421 0.51429 0.0
C585 C 0.991 0.74018 0.58624 0.0
N586 N 0.05278 0.7963 0.46904 0.0
N587 N 0.02066 0.75496 0.56318 0.0
H588 H 0.30375 0.27708 0.61759 0.0
H589 H 0.20206 0.26604 0.42363 0.0
H590 H 0.27429 0.1942 0.53234 0.0
H591 H 0.27238 0.36728 0.47988 0.0
H592 H 0.20906 0.23337 0.477 0.0
H593 H 0.27544 0.30443 0.57909 0.0
C594 C 0.29097 0.26443 0.59098 0.0
C595 C 0.29193 0.23372 0.57777 0.0
C596 C 0.22188 0.26269 0.47833 0.0
C597 C 0.25883 0.26426 0.53429 0.0
C598 C 0.21738 0.2813 0.44822 0.0
C599 C 0.23641 0.31936 0.4476 0.0
C600 C 0.24569 0.28236 0.50794 0.0
C601 C 0.25659 0.33792 0.47972 0.0
C602 C 0.27485 0.28002 0.56914 0.0
C603 C 0.27487 0.21831 0.5432 0.0
N604 N 0.26135 0.31926 0.50838 0.0
N605 N 0.25909 0.23379 0.52264 0.0
H606 H 0.74439 0.92267 0.44616 0.0
H607 H 0.7384 0.06644 0.57479 0.0
H608 H 0.6427 0.91404 0.47874 0.0
H609 H 0.82329 0.03994 0.58981 0.0
H610 H 0.70244 0.00923 0.54055 0.0
H611 H 0.77345 0.96159 0.50133 0.0
C612 C 0.72782 0.92742 0.46615 0.0
C613 C 0.69108 0.91481 0.45838 0.0
C614 C 0.72873 0.01568 0.55179 0.0
C615 C 0.72436 0.96097 0.51985 0.0
C616 C 0.74942 0.04852 0.57089 0.0
C617 C 0.78409 0.05815 0.58455 0.0
C618 C 0.74314 0.99267 0.54554 0.0
C619 C 0.79675 0.03357 0.57947 0.0
C620 C 0.74446 0.95001 0.49732 0.0
C621 C 0.67095 0.92267 0.4843 0.0
N622 N 0.77659 1.00225 0.55969 0.0
N623 N 0.68807 0.94614 0.51333 0.0
H624 H 0.35447 0.25156 0.21283 0.0
H625 H 0.32768 0.40472 0.31129 0.0
H626 H 0.37149 0.34327 0.1457 0.0
H627 H 0.2569 0.28922 0.32472 0.0
H628 H 0.35888 0.39227 0.25926 0.0
H629 H 0.33822 0.27664 0.26685 0.0
C630 C 0.3566 0.27793 0.21013 0.0
C631 C 0.36532 0.29595 0.17535 0.0
C632 C 0.33636 0.36991 0.27376 0.0
C633 C 0.34472 0.32376 0.23602 0.0
C634 C 0.31822 0.37698 0.30302 0.0
C635 C 0.28948 0.34803 0.32239 0.0
C636 C 0.32618 0.33376 0.26504 0.0
C637 C 0.27911 0.31249 0.31095 0.0
C638 C 0.34657 0.29187 0.24061 0.0
C639 C 0.36543 0.329 0.17248 0.0
N640 N 0.29763 0.30642 0.28351 0.0
N641 N 0.3549 0.34183 0.20242 0.0
H642 H 0.76897 0.10778 0.22071 0.0
H643 H 0.61821 0.91943 0.31048 0.0
H644 H 0.67975 0.02886 0.1535 0.0
H645 H 0.73043 0.98127 0.3454 0.0
H646 H 0.63146 0.9635 0.25922 0.0
H647 H 0.74413 0.06791 0.27578 0.0
C648 C 0.74317 0.08284 0.21809 0.0
C649 C 0.72577 0.07198 0.18301 0.0
C650 C 0.65297 0.96713 0.27834 0.0
C651 C 0.69832 0.02518 0.245 0.0
C652 C 0.64555 0.94158 0.30722 0.0
C653 C 0.67318 0.94596 0.33223 0.0
C654 C 0.68802 0.99759 0.27524 0.0
C655 C 0.70795 0.97646 0.32719 0.0
C656 C 0.72938 0.05968 0.24923 0.0
C657 C 0.6935 0.03832 0.18045 0.0
N658 N 0.71423 1.00099 0.29962 0.0
N659 N 0.68088 0.01584 0.21099 0.0
H660 H 0.91471 0.65123 0.22537 0.0
H661 H 0.11325 0.7519 0.28372 0.0
H662 H 0.99492 0.65967 0.14516 0.0
H663 H 0.03468 0.6779 0.36356 0.0
H664 H 0.07152 0.71851 0.23191 0.0
H665 H 0.9568 0.65985 0.27715 0.0
C666 C 0.9403 0.65274 0.21883 0.0
C667 C 0.95077 0.65314 0.18117 0.0
C668 C 0.06393 0.70869 0.26066 0.0
C669 C 1.00015 0.66618 0.23967 0.0
C670 C 0.08821 0.72726 0.2901 0.0
C671 C 0.07816 0.71651 0.32768 0.0
C672 C 0.02873 0.68041 0.26918 0.0
C673 C 0.04366 0.68647 0.33476 0.0
C674 C 0.96465 0.65844 0.24827 0.0
C675 C 0.98568 0.65859 0.17398 0.0
N676 N 0.01983 0.66988 0.30586 0.0
N677 N 1.0094 0.66559 0.20288 0.0
H678 H 0.68487 0.65774 0.64822 0.0
H679 H 0.73361 0.75622 0.84519 0.0
H680 H 0.77173 0.66761 0.71927 0.0
H681 H 0.62292 0.70568 0.80504 0.0
H682 H 0.74782 0.72667 0.79535 0.0
H683 H 0.66017 0.67512 0.70217 0.0
C684 C 0.69785 0.66212 0.67566 0.0
C685 C 0.72976 0.6602 0.6798 0.0
C686 C 0.72031 0.72186 0.79734 0.0
C687 C 0.70282 0.68173 0.74074 0.0
C688 C 0.712 0.73897 0.82584 0.0
C689 C 0.67665 0.73353 0.8299 0.0
C690 C 0.6934 0.69929 0.77165 0.0
C691 C 0.65051 0.71132 0.80303 0.0
C692 C 0.68391 0.67228 0.70626 0.0
C693 C 0.74635 0.66738 0.71537 0.0
N694 N 0.65941 0.695 0.77488 0.0
N695 N 0.73298 0.67833 0.74433 0.0
H696 H 0.36025 0.11347 0.71902 0.0
H697 H 0.31926 0.92184 0.8034 0.0
H698 H 0.36096 0.03124 0.64826 0.0
H699 H 0.28198 0.99112 0.85086 0.0
H700 H 0.34645 0.96479 0.75063 0.0
H701 H 0.34697 0.07366 0.7739 0.0
C702 C 0.35926 0.08768 0.71543 0.0
C703 C 0.36278 0.07599 0.6795 0.0
C704 C 0.33218 0.97028 0.77278 0.0
C705 C 0.34553 0.02938 0.74146 0.0
C706 C 0.31596 0.94529 0.80253 0.0
C707 C 0.29732 0.95192 0.83147 0.0
C708 C 0.33033 1.00242 0.77256 0.0
C709 C 0.29598 0.98436 0.82955 0.0
C710 C 0.35092 0.0646 0.74653 0.0
C711 C 0.35901 0.04134 0.67583 0.0
N712 N 0.31223 0.0082 0.80089 0.0
N713 N 0.35036 0.01906 0.70642 0.0
H714 H 0.9928 0.33546 0.63681 0.0
H715 H 0.03338 0.35893 0.85845 0.0
H716 H 0.91591 0.26518 0.72017 0.0
H717 H 0.11196 0.36507 0.7773 0.0
H718 H 0.99029 0.34681 0.8067 0.0
H719 H 0.03661 0.36816 0.68767 0.0
C720 C 0.98456 0.32796 0.666 0.0
C721 C 0.95011 0.29844 0.67454 0.0
C722 C 0.01746 0.35218 0.80017 0.0
C723 C 0.99998 0.33549 0.73246 0.0
C724 C 0.04212 0.35932 0.82951 0.0
C725 C 0.07671 0.36413 0.82192 0.0
C726 C 0.02754 0.35001 0.76293 0.0
C727 C 0.08638 0.36344 0.78413 0.0
C728 C 1.0096 0.34646 0.69482 0.0
C729 C 0.94114 0.2891 0.7126 0.0
N730 N 0.06179 0.35624 0.75592 0.0
N731 N 0.96599 0.30751 0.74026 0.0
H732 H 0.45007 0.16296 0.10023 0.0
H733 H 0.65076 0.20639 0.14768 0.0
H734 H 0.52679 0.2647 0.15264 0.0
H735 H 0.5578 0.09804 0.1414 0.0
H736 H 0.60925 0.23094 0.14531 0.0
H737 H 0.49324 0.14166 0.10823 0.0
C738 C 0.47611 0.18098 0.11324 0.0
C739 C 0.48472 0.21569 0.12584 0.0
C740 C 0.59815 0.2018 0.14488 0.0
C741 C 0.5345 0.19126 0.13518 0.0
C742 C 0.62179 0.18769 0.14653 0.0
C743 C 0.60792 0.14993 0.14454 0.0
C744 C 0.5606 0.17804 0.14069 0.0
C745 C 0.57 0.1273 0.14244 0.0
C746 C 0.50069 0.16866 0.11805 0.0
C747 C 0.51895 0.23767 0.14266 0.0
N748 N 0.54787 0.14166 0.14017 0.0
N749 N 0.54274 0.22515 0.14671 0.0
H750 H 0.85652 0.28636 0.10053 0.0
H751 H 0.81524 0.44509 0.15014 0.0
H752 H 0.75636 0.26348 0.15534 0.0
H753 H 0.92319 0.46039 0.13644 0.0
H754 H 0.79066 0.37919 0.14813 0.0
H755 H 0.87846 0.35105 0.10713 0.0
C756 C 0.83898 0.29489 0.11377 0.0
C757 C 0.80451 0.2693 0.12742 0.0
C758 C 0.81974 0.39716 0.14594 0.0
C759 C 0.8297 0.34381 0.1352 0.0
C760 C 0.83393 0.4349 0.14738 0.0
C761 C 0.87155 0.45876 0.14336 0.0
C762 C 0.84325 0.38329 0.13994 0.0
C763 C 0.89402 0.44341 0.13917 0.0
C764 C 0.85167 0.33193 0.11777 0.0
C765 C 0.78318 0.28223 0.14451 0.0
N766 N 0.87955 0.4069 0.13724 0.0
N767 N 0.79605 0.31863 0.1478 0.0
H768 H 0.73381 0.5693 0.10092 0.0
H769 H 0.57487 0.36862 0.14478 0.0
H770 H 0.75674 0.49132 0.15388 0.0
H771 H 0.55976 0.46138 0.13227 0.0
H772 H 0.64093 0.40999 0.14515 0.0
H773 H 0.66923 0.52645 0.10654 0.0
C774 C 0.72532 0.54303 0.11353 0.0
C775 C 0.75089 0.53398 0.12692 0.0
C776 C 0.62296 0.42111 0.14277 0.0
C777 C 0.6764 0.48453 0.1337 0.0
C778 C 0.58521 0.39756 0.14286 0.0
C779 C 0.56148 0.41143 0.1383 0.0
C780 C 0.6369 0.45856 0.13766 0.0
C781 C 0.57678 0.44924 0.1353 0.0
C782 C 0.68831 0.51861 0.11701 0.0
C783 C 0.73798 0.49948 0.14324 0.0
N784 N 0.61332 0.4713 0.13467 0.0
N785 N 0.70155 0.47587 0.14606 0.0
H786 H 0.10137 0.55413 0.3746 0.0
H787 H 0.2678 0.51889 0.34437 0.0
H788 H 0.21068 0.64269 0.3569 0.0
H789 H 0.16645 0.44402 0.39859 0.0
H790 H 0.24658 0.56307 0.33913 0.0
H791 H 0.12385 0.5117 0.37214 0.0
C792 C 0.13014 0.56475 0.36987 0.0
C793 C 0.15409 0.60225 0.36622 0.0
C794 C 0.22913 0.53693 0.35213 0.0
C795 C 0.18019 0.55331 0.36352 0.0
C796 C 0.24113 0.5117 0.3551 0.0
C797 C 0.21892 0.47768 0.37207 0.0
C798 C 0.19447 0.52777 0.36566 0.0
C799 C 0.18466 0.46989 0.38551 0.0
C800 C 0.14297 0.54039 0.36856 0.0
C801 C 0.19105 0.61409 0.35959 0.0
N802 N 0.17352 0.49461 0.38187 0.0
N803 N 0.20304 0.58967 0.3587 0.0
H804 H 0.49483 0.75186 0.349 0.0
H805 H 0.46333 0.55164 0.37094 0.0
H806 H 0.56563 0.72409 0.41023 0.0
H807 H 0.37117 0.56785 0.3587 0.0
H808 H 0.50326 0.61685 0.37258 0.0
H809 H 0.45066 0.68645 0.34197 0.0
C810 C 0.50106 0.73218 0.36108 0.0
C811 C 0.53412 0.74365 0.38024 0.0
C812 C 0.47431 0.60624 0.36938 0.0
C813 C 0.48422 0.66922 0.37162 0.0
C814 C 0.45134 0.56884 0.36835 0.0
C815 C 0.41355 0.55383 0.36509 0.0
C816 C 0.4598 0.62942 0.36697 0.0
C817 C 0.40005 0.57796 0.3611 0.0
C818 C 0.47585 0.69495 0.35705 0.0
C819 C 0.54065 0.71685 0.3953 0.0
N820 N 0.42318 0.61467 0.36237 0.0
N821 N 0.51619 0.68114 0.39039 0.0
H822 H 0.47103 0.92197 0.36599 0.0
H823 H 0.27088 0.75096 0.35681 0.0
H824 H 0.45318 0.81256 0.36227 0.0
H825 H 0.29719 0.85533 0.40324 0.0
H826 H 0.33618 0.77258 0.35016 0.0
H827 H 0.4059 0.89758 0.36933 0.0
C828 C 0.45351 0.89274 0.36562 0.0
C829 C 0.46807 0.86944 0.36407 0.0
C830 C 0.3275 0.79056 0.36193 0.0
C831 C 0.39267 0.8412 0.3679 0.0
C832 C 0.2903 0.77832 0.36572 0.0
C833 C 0.27845 0.80137 0.38063 0.0
C834 C 0.35294 0.82627 0.37249 0.0
C835 C 0.30489 0.83651 0.39174 0.0
C836 C 0.41617 0.87885 0.36764 0.0
C837 C 0.44353 0.83177 0.3631 0.0
N838 N 0.34075 0.8479 0.38718 0.0
N839 N 0.40698 0.8188 0.36516 0.0
H840 H 0.43095 0.87652 0.92762 0.0
H841 H 0.50479 0.75501 0.83326 0.0
H842 H 0.3883 0.81994 0.822 0.0
H843 H 0.53641 0.80555 0.94341 0.0
H844 H 0.45821 0.77314 0.82992 0.0
H845 H 0.4657 0.84569 0.93528 0.0
C846 C 0.4287 0.85728 0.9061 0.0
C847 C 0.40686 0.85098 0.87402 0.0
C848 C 0.47508 0.77982 0.85497 0.0
C849 C 0.44729 0.81565 0.88232 0.0
C850 C 0.50162 0.76939 0.85698 0.0
C851 C 0.52492 0.77911 0.88851 0.0
C852 C 0.47186 0.80007 0.88471 0.0
C853 C 0.5195 0.79779 0.91832 0.0
C854 C 0.44856 0.83959 0.91051 0.0
C855 C 0.40472 0.82548 0.84725 0.0
N856 N 0.49386 0.80784 0.91551 0.0
N857 N 0.42513 0.80906 0.85172 0.0
H858 H 0.27472 0.75504 0.84389 0.0
H859 H 0.10409 0.55496 0.85612 0.0
H860 H 0.17322 0.72732 0.89875 0.0
H861 H 0.21312 0.57175 0.85179 0.0
H862 H 0.12906 0.62027 0.85753 0.0
H863 H 0.25271 0.68977 0.83473 0.0
C864 C 0.24792 0.73532 0.85401 0.0
C865 C 0.22582 0.74668 0.87223 0.0
C866 C 0.14756 0.60971 0.85599 0.0
C867 C 0.20046 0.67253 0.86115 0.0
C868 C 0.13335 0.57233 0.85507 0.0
C869 C 0.15643 0.55754 0.85422 0.0
C870 C 0.1853 0.63293 0.8559 0.0
C871 C 0.19416 0.58173 0.85225 0.0
C872 C 0.23547 0.69821 0.84881 0.0
C873 C 0.19135 0.71997 0.8848 0.0
N874 N 0.20748 0.61835 0.85343 0.0
N875 N 0.17972 0.68431 0.87878 0.0
H876 H 0.29282 0.45553 0.91969 0.0
H877 H 0.45551 0.63481 0.82571 0.0
H878 H 0.27362 0.51907 0.83723 0.0
H879 H 0.46834 0.56812 0.90966 0.0
H880 H 0.38926 0.59558 0.8305 0.0
H881 H 0.35729 0.49905 0.91732 0.0
C882 C 0.30204 0.47878 0.90121 0.0
C883 C 0.27745 0.48346 0.87869 0.0
C884 C 0.40672 0.58978 0.84794 0.0
C885 C 0.35222 0.53385 0.87547 0.0
C886 C 0.44461 0.61231 0.84541 0.0
C887 C 0.46786 0.6049 0.8673 0.0
C888 C 0.39204 0.55972 0.87253 0.0
C889 C 0.45183 0.57489 0.89184 0.0
C890 C 0.33911 0.50374 0.89978 0.0
C891 C 0.29149 0.51429 0.85515 0.0
N892 N 0.4152 0.55357 0.89369 0.0
N893 N 0.32797 0.53824 0.85402 0.0
H894 H 0.75572 0.49461 0.65796 0.0
H895 H 0.92266 0.46078 0.62815 0.0
H896 H 0.85378 0.56654 0.59678 0.0
H897 H 0.81415 0.37101 0.64675 0.0
H898 H 0.89877 0.50205 0.62818 0.0
H899 H 0.77726 0.45068 0.66362 0.0
C900 C 0.78166 0.50115 0.64566 0.0
C901 C 0.80295 0.53437 0.62681 0.0
C902 C 0.88014 0.47335 0.63245 0.0
C903 C 0.82782 0.48466 0.63381 0.0
C904 C 0.89377 0.44964 0.63255 0.0
C905 C 0.87047 0.41211 0.63716 0.0
C906 C 0.84278 0.45978 0.63714 0.0
C907 C 0.83331 0.39965 0.64335 0.0
C908 C 0.79385 0.47608 0.6489 0.0
C909 C 0.8363 0.54133 0.6114 0.0
N910 N 0.82055 0.42345 0.64296 0.0
N911 N 0.84773 0.51688 0.61548 0.0
H912 H 0.46091 0.28978 0.58519 0.0
H913 H 0.65557 0.44894 0.64729 0.0
H914 H 0.53005 0.26606 0.65495 0.0
H915 H 0.56229 0.46209 0.62729 0.0
H916 H 0.61541 0.38282 0.64389 0.0
H917 H 0.50434 0.35413 0.5911 0.0
C918 C 0.48541 0.29799 0.60148 0.0
C919 C 0.49162 0.27226 0.61974 0.0
C920 C 0.60398 0.40044 0.64058 0.0
C921 C 0.5417 0.34657 0.62682 0.0
C922 C 0.62682 0.43828 0.64276 0.0
C923 C 0.61256 0.46163 0.63741 0.0
C924 C 0.56691 0.38602 0.63238 0.0
C925 C 0.57496 0.44563 0.63106 0.0
C926 C 0.51013 0.3349 0.60508 0.0
C927 C 0.52404 0.28494 0.64054 0.0
N928 N 0.55371 0.4091 0.62838 0.0
N929 N 0.54797 0.3213 0.64354 0.0
H930 H 0.72959 0.16196 0.60128 0.0
H931 H 0.57289 0.20667 0.64715 0.0
H932 H 0.75472 0.26402 0.65307 0.0
H933 H 0.55685 0.098 0.64086 0.0
H934 H 0.63877 0.23081 0.64493 0.0
H935 H 0.6652 0.14105 0.6086 0.0
C936 C 0.72162 0.18014 0.61402 0.0
C937 C 0.74775 0.21483 0.62664 0.0
C938 C 0.62063 0.20169 0.64445 0.0
C939 C 0.67355 0.19081 0.63521 0.0
C940 C 0.58293 0.18777 0.64601 0.0
C941 C 0.55888 0.15003 0.64407 0.0
C942 C 0.63424 0.17777 0.64038 0.0
C943 C 0.57399 0.12724 0.6419 0.0
C944 C 0.68474 0.16803 0.61843 0.0
C945 C 0.73552 0.23701 0.64307 0.0
N946 N 0.61047 0.14143 0.63975 0.0
N947 N 0.69923 0.22468 0.64676 0.0
H948 H 0.41023 0.13765 0.78591 0.0
H949 H 0.4387 0.27863 0.95032 0.0
H950 H 0.43373 0.24721 0.7642 0.0
H951 H 0.37611 0.1627 0.9672 0.0
H952 H 0.44321 0.26828 0.8828 0.0
H953 H 0.40376 0.14684 0.85362 0.0
C954 C 0.4141 0.16361 0.79536 0.0
C955 C 0.42247 0.19168 0.76935 0.0
C956 C 0.42837 0.2451 0.90126 0.0
C957 C 0.41549 0.20245 0.84656 0.0
C958 C 0.42585 0.251 0.93981 0.0
C959 C 0.40699 0.2215 0.96441 0.0
C960 C 0.41244 0.20943 0.88726 0.0
C961 C 0.39077 0.18624 0.94918 0.0
C962 C 0.41027 0.16878 0.83392 0.0
C963 C 0.42713 0.22475 0.78317 0.0
N964 N 0.39411 0.18117 0.91163 0.0
N965 N 0.4238 0.22928 0.82077 0.0
H966 H 0.87782 0.29856 0.78461 0.0
H967 H 0.79659 0.15594 0.95638 0.0
H968 H 0.80644 0.18342 0.76866 0.0
H969 H 0.86095 0.2721 0.97133 0.0
H970 H 0.80117 0.16496 0.88751 0.0
H971 H 0.87345 0.28899 0.85321 0.0
C972 C 0.8612 0.27128 0.7955 0.0
C973 C 0.84237 0.2418 0.77077 0.0
C974 C 0.81425 0.18845 0.90592 0.0
C975 C 0.83729 0.23057 0.8494 0.0
C976 C 0.81163 0.1833 0.94524 0.0
C977 C 0.82835 0.21329 0.96975 0.0
C978 C 0.83382 0.22382 0.89099 0.0
C979 C 0.84755 0.24813 0.95364 0.0
C980 C 0.85871 0.26581 0.83471 0.0
C981 C 0.82138 0.20701 0.78659 0.0
N982 N 0.84977 0.2524 0.91541 0.0
N983 N 0.81941 0.20237 0.82482 0.0
H984 H 0.74687 0.59489 0.97521 0.0
H985 H 0.84018 0.62806 0.77109 0.0
H986 H 0.8628 0.64411 0.95953 0.0
H987 H 0.7259 0.58923 0.7879 0.0
H988 H 0.8491 0.63356 0.83966 0.0
H989 H 0.73891 0.59192 0.90674 0.0
C990 C 0.77074 0.60511 0.95738 0.0
C991 C 0.8056 0.61972 0.97328 0.0
C992 C 0.82208 0.62391 0.82839 0.0
C993 C 0.79655 0.61632 0.89436 0.0
C994 C 0.81692 0.6207 0.78918 0.0
C995 C 0.78216 0.60797 0.77362 0.0
C996 C 0.79227 0.6142 0.85241 0.0
C997 C 0.75314 0.59902 0.79856 0.0
C998 C 0.76613 0.60344 0.91817 0.0
C999 C 0.83543 0.6326 0.94857 0.0
N1000 N 0.75884 0.60219 0.83667 0.0
N1001 N 0.8302 0.6305 0.91034 0.0
H1002 H 0.16471 0.37128 0.53177 0.0
H1003 H 0.25007 0.42797 0.73804 0.0
H1004 H 0.28014 0.43751 0.55077 0.0
H1005 H 0.14242 0.40882 0.71303 0.0
H1006 H 0.25977 0.42317 0.67054 0.0
H1007 H 0.15421 0.37618 0.59933 0.0
C1008 C 0.18785 0.38665 0.55018 0.0
C1009 C 0.22339 0.40406 0.53563 0.0
C1010 C 0.23406 0.42011 0.6798 0.0
C1011 C 0.21151 0.4095 0.61281 0.0
C1012 C 0.22842 0.4227 0.71833 0.0
C1013 C 0.19538 0.41884 0.73117 0.0
C1014 C 0.20624 0.41289 0.65386 0.0
C1015 C 0.16836 0.41217 0.70429 0.0
C1016 C 0.1818 0.38961 0.58862 0.0
C1017 C 0.25232 0.42379 0.56075 0.0
N1018 N 0.17427 0.4091 0.66686 0.0
N1019 N 0.24576 0.42578 0.59815 0.0
H1020 H 0.58272 0.84877 0.55472 0.0
H1021 H 0.62289 0.74608 0.72086 0.0
H1022 H 0.64926 0.79939 0.53859 0.0
H1023 H 0.58569 0.82247 0.74068 0.0
H1024 H 0.62896 0.76139 0.65324 0.0
H1025 H 0.57981 0.8357 0.62249 0.0
C1026 C 0.59678 0.83524 0.56544 0.0
C1027 C 0.61619 0.82509 0.54095 0.0
C1028 C 0.6196 0.77485 0.67248 0.0
C1029 C 0.61272 0.80975 0.61846 0.0
C1030 C 0.616 0.76603 0.71102 0.0
C1031 C 0.6037 0.78297 0.73646 0.0
C1032 C 0.6104 0.80043 0.65927 0.0
C1033 C 0.59531 0.80874 0.72215 0.0
C1034 C 0.59518 0.82785 0.60415 0.0
C1035 C 0.63404 0.80776 0.55647 0.0
N1036 N 0.59861 0.81651 0.68455 0.0
N1037 N 0.63165 0.80038 0.5942 0.0
H1038 H 0.18973 0.77794 0.74107 0.0
H1039 H 0.22028 0.86024 0.533 0.0
H1040 H 0.27837 0.88511 0.71534 0.0
H1041 H 0.17339 0.74545 0.55395 0.0
H1042 H 0.23362 0.87186 0.60091 0.0
H1043 H 0.17525 0.7677 0.67357 0.0
C1044 C 0.20604 0.79943 0.72123 0.0
C1045 C 0.23538 0.83243 0.73386 0.0
C1046 C 0.22036 0.84417 0.59056 0.0
C1047 C 0.21863 0.8209 0.65652 0.0
C1048 C 0.21253 0.83747 0.55191 0.0
C1049 C 0.19576 0.80179 0.53781 0.0
C1050 C 0.21066 0.81494 0.61536 0.0
C1051 C 0.1865 0.77336 0.56357 0.0
C1052 C 0.19784 0.79346 0.6827 0.0
C1053 C 0.25565 0.8592 0.70679 0.0
N1054 N 0.19388 0.78052 0.60112 0.0
N1055 N 0.24676 0.85295 0.66935 0.0
H1056 H 0.64754 0.85136 0.03887 0.0
H1057 H 0.60956 0.77633 0.25057 0.0
H1058 H 0.59357 0.73696 0.06511 0.0
H1059 H 0.61724 0.87835 0.22045 0.0
H1060 H 0.61394 0.76454 0.18354 0.0
H1061 H 0.64705 0.86467 0.10637 0.0
C1062 C 0.63588 0.82905 0.05886 0.0
C1063 C 0.62041 0.79294 0.04637 0.0
C1064 C 0.6147 0.78951 0.19162 0.0
C1065 C 0.62001 0.80808 0.12348 0.0
C1066 C 0.61236 0.79636 0.22987 0.0
C1067 C 0.6129 0.82833 0.24109 0.0
C1068 C 0.61824 0.81507 0.16436 0.0
C1069 C 0.61647 0.85326 0.21298 0.0
C1070 C 0.63542 0.8367 0.09729 0.0
C1071 C 0.60556 0.76515 0.07349 0.0
N1072 N 0.61917 0.84617 0.17586 0.0
N1073 N 0.60583 0.7733 0.11081 0.0
H1074 H 0.16678 0.73764 0.03371 0.0
H1075 H 0.22261 0.832 0.23794 0.0
H1076 H 0.23076 0.85368 0.04979 0.0
H1077 H 0.15159 0.71687 0.22142 0.0
H1078 H 0.22701 0.84036 0.16934 0.0
H1079 H 0.16224 0.72955 0.10226 0.0
C1080 C 0.17996 0.76148 0.05164 0.0
C1081 C 0.19924 0.79643 0.03585 0.0
C1082 C 0.21046 0.81326 0.18067 0.0
C1083 C 0.19408 0.78725 0.11475 0.0
C1084 C 0.20793 0.80841 0.21991 0.0
C1085 C 0.18677 0.77362 0.23556 0.0
C1086 C 0.19177 0.7831 0.1567 0.0
C1087 C 0.16833 0.74416 0.21067 0.0
C1088 C 0.17728 0.7568 0.09087 0.0
C1089 C 0.21565 0.82623 0.06065 0.0
N1090 N 0.17131 0.74957 0.17252 0.0
N1091 N 0.21272 0.82095 0.09884 0.0
H1092 H 0.16098 0.36491 0.0432 0.0
H1093 H 0.30192 0.42791 0.21688 0.0
H1094 H 0.27768 0.42194 0.03052 0.0
H1095 H 0.1855 0.37176 0.23172 0.0
H1096 H 0.2931 0.4245 0.14827 0.0
H1097 H 0.16882 0.36595 0.1122 0.0
C1098 C 0.1882 0.37763 0.05487 0.0
C1099 C 0.21869 0.39339 0.03097 0.0
C1100 C 0.26945 0.41286 0.1665 0.0
C1101 C 0.22788 0.39463 0.1098 0.0
C1102 C 0.2745 0.4148 0.20574 0.0
C1103 C 0.24443 0.40025 0.23017 0.0
C1104 C 0.23406 0.39627 0.15144 0.0
C1105 C 0.2095 0.38343 0.21401 0.0
C1106 C 0.19267 0.3782 0.09424 0.0
C1107 C 0.25332 0.40946 0.04771 0.0
N1108 N 0.20528 0.38199 0.17571 0.0
N1109 N 0.25693 0.40967 0.08595 0.0
H1110 H 0.85986 0.64555 0.47042 0.0
H1111 H 0.7784 0.59075 0.26236 0.0
H1112 H 0.74466 0.58149 0.44893 0.0
H1113 H 0.88443 0.60696 0.29026 0.0
H1114 H 0.76764 0.59599 0.32946 0.0
H1115 H 0.87146 0.64075 0.40315 0.0
C1116 C 0.837 0.63073 0.45151 0.0
C1117 C 0.80119 0.61383 0.4653 0.0
C1118 C 0.79322 0.59832 0.32093 0.0
C1119 C 0.81436 0.60847 0.38844 0.0
C1120 C 0.79948 0.59546 0.28263 0.0
C1121 C 0.83237 0.59838 0.2707 0.0
C1122 C 0.82031 0.60488 0.34759 0.0
C1123 C 0.85862 0.60436 0.29828 0.0
C1124 C 0.84368 0.6278 0.41324 0.0
C1125 C 0.77266 0.5948 0.43956 0.0
N1126 N 0.85215 0.60773 0.33548 0.0
N1127 N 0.77984 0.59281 0.40234 0.0
H1128 H 0.42062 0.27693 0.46983 0.0
H1129 H 0.3909 0.18343 0.266 0.0
H1130 H 0.37652 0.16166 0.45427 0.0
H1131 H 0.43225 0.29813 0.28255 0.0
H1132 H 0.38446 0.17464 0.33452 0.0
H1133 H 0.42406 0.28477 0.40132 0.0
C1134 C 0.41157 0.25318 0.45201 0.0
C1135 C 0.39834 0.21855 0.46793 0.0
C1136 C 0.3949 0.20172 0.3232 0.0
C1137 C 0.40231 0.22746 0.38905 0.0
C1138 C 0.39861 0.20681 0.28402 0.0
C1139 C 0.41235 0.24165 0.26843 0.0
C1140 C 0.405 0.23168 0.34713 0.0
C1141 C 0.42175 0.27083 0.29326 0.0
C1142 C 0.41356 0.25773 0.41279 0.0
C1143 C 0.38696 0.18886 0.44328 0.0
N1144 N 0.41798 0.2652 0.33134 0.0
N1145 N 0.3893 0.19401 0.40507 0.0
H1146 H 0.85671 0.27374 0.45146 0.0
H1147 H 0.74034 0.13205 0.28925 0.0
H1148 H 0.80103 0.1581 0.47087 0.0
H1149 H 0.83129 0.23845 0.26574 0.0
H1150 H 0.75582 0.14196 0.35709 0.0
H1151 H 0.8415 0.26232 0.38408 0.0
C1152 C 0.84134 0.24594 0.44153 0.0
C1153 C 0.83021 0.21685 0.46683 0.0
C1154 C 0.77233 0.16304 0.33696 0.0
C1155 C 0.81219 0.20358 0.38978 0.0
C1156 C 0.76343 0.15748 0.29834 0.0
C1157 C 0.78459 0.18443 0.27179 0.0
C1158 C 0.80212 0.19606 0.34908 0.0
C1159 C 0.8143 0.21683 0.28514 0.0
C1160 C 0.83272 0.23944 0.40307 0.0
C1161 C 0.81036 0.18135 0.45232 0.0
N1162 N 0.822 0.22182 0.32276 0.0
N1163 N 0.8017 0.17569 0.41481 0.0
loop_
_geom_bond_atom_site_label_1
_geom_bond_atom_site_label_2
_geom_bond_distance
_geom_bond_site_symmetry_2
_ccdc_geom_bond_type
Zn0 N4 2.020 . S
Zn0 O8 2.019 . S
Zn0 N10 2.119 . S
Zn0 O18 1.975 . S
C1 N2 1.334 . S
C1 N5 1.336 . S
N2 C1 1.334 . S
N2 C3 1.334 . S
C3 N2 1.334 . S
C3 N4 1.336 . S
N4 Zn0 2.020 . S
N4 C3 1.336 . S
N4 N5 1.354 . S
N5 C1 1.336 . S
N5 N4 1.354 . S
N5 Zn9 2.020 . S
C6 O7 1.244 . S
C6 O30 1.257 . S
O7 C6 1.244 . S
O8 Zn0 2.019 . S
O8 C28 1.257 . S
Zn9 N5 2.020 . S
Zn9 O16 1.975 . S
Zn9 N25 2.119 . S
Zn9 O30 2.019 . S
N10 Zn0 2.119 . S
N10 C12 1.334 . S
N10 C13 1.328 . S
C11 C12 1.391 . S
C11 N14 1.329 . S
C11 H32 0.930 . S
C12 N10 1.334 . S
C12 C11 1.391 . S
C12 H19 0.930 . S
C13 N10 1.328 . S
C13 C15 1.392 . S
C13 H20 0.930 . S
N14 C11 1.329 . S
N14 C15 1.331 . S
C15 C13 1.392 . S
C15 N14 1.331 . S
O16 Zn9 1.975 . S
O16 C17 1.252 . S
C17 O16 1.252 . S
C17 O18 1.252 . S
O18 Zn0 1.975 . S
O18 C17 1.252 . S
H19 C12 0.930 . S
H20 C13 0.930 . S
C21 C22 1.392 . S
C21 N25 1.328 . S
C21 H27 0.930 . S
C22 C21 1.392 . S
C22 N26 1.331 . S
C23 C24 1.391 . S
C23 N26 1.329 . S
C23 H33 0.930 . S
C24 C23 1.391 . S
C24 N25 1.334 . S
C24 H31 0.930 . S
N25 Zn9 2.119 . S
N25 C21 1.328 . S
N25 C24 1.334 . S
N26 C22 1.331 . S
N26 C23 1.329 . S
H27 C21 0.930 . S
C28 O8 1.257 . S
C28 O29 1.244 . S
O29 C28 1.244 . S
O30 C6 1.257 . S
O30 Zn9 2.019 . S
H31 C24 0.930 . S
H32 C11 0.930 . S
H33 C23 0.930 . S
Zn34 N38 2.020 . S
Zn34 O42 2.019 . S
Zn34 N44 2.119 . S
Zn34 O52 1.975 . S
C35 N36 1.334 . S
C35 N39 1.336 . S
N36 C35 1.334 . S
N36 C37 1.334 . S
C37 N36 1.334 . S
C37 N38 1.336 . S
N38 Zn34 2.020 . S
N38 C37 1.336 . S
N38 N39 1.354 . S
N39 C35 1.336 . S
N39 N38 1.354 . S
N39 Zn43 2.020 . S
C40 O41 1.244 . S
C40 O64 1.257 . S
O41 C40 1.244 . S
O42 Zn34 2.019 . S
O42 C62 1.257 . S
Zn43 N39 2.020 . S
Zn43 O50 1.975 . S
Zn43 N59 2.119 . S
Zn43 O64 2.019 . S
N44 Zn34 2.119 . S
N44 C46 1.334 . S
N44 C47 1.328 . S
C45 C46 1.391 . S
C45 N48 1.329 . S
C45 H66 0.930 . S
C46 N44 1.334 . S
C46 C45 1.391 . S
C46 H53 0.930 . S
C47 N44 1.328 . S
C47 C49 1.392 . S
C47 H54 0.930 . S
N48 C45 1.329 . S
N48 C49 1.331 . S
C49 C47 1.392 . S
C49 N48 1.331 . S
O50 Zn43 1.975 . S
O50 C51 1.252 . S
C51 O50 1.252 . S
C51 O52 1.252 . S
O52 Zn34 1.975 . S
O52 C51 1.252 . S
H53 C46 0.930 . S
H54 C47 0.930 . S
C55 C56 1.392 . S
C55 N59 1.328 . S
C55 H61 0.930 . S
C56 C55 1.392 . S
C56 N60 1.331 . S
C57 C58 1.391 . S
C57 N60 1.329 . S
C57 H67 0.930 . S
C58 C57 1.391 . S
C58 N59 1.334 . S
C58 H65 0.930 . S
N59 Zn43 2.119 . S
N59 C55 1.328 . S
N59 C58 1.334 . S
N60 C56 1.331 . S
N60 C57 1.329 . S
H61 C55 0.930 . S
C62 O42 1.257 . S
C62 O63 1.244 . S
O63 C62 1.244 . S
O64 C40 1.257 . S
O64 Zn43 2.019 . S
H65 C58 0.930 . S
H66 C45 0.930 . S
H67 C57 0.930 . S
Zn68 N72 2.020 . S
Zn68 O76 2.019 . S
Zn68 N78 2.119 . S
Zn68 O86 1.975 . S
C69 N70 1.334 . S
C69 N73 1.336 . S
N70 C69 1.334 . S
N70 C71 1.334 . S
C71 N70 1.334 . S
C71 N72 1.336 . S
N72 Zn68 2.020 . S
N72 C71 1.336 . S
N72 N73 1.354 . S
N73 C69 1.336 . S
N73 N72 1.354 . S
N73 Zn77 2.020 . S
C74 O75 1.244 . S
C74 O98 1.257 . S
O75 C74 1.244 . S
O76 Zn68 2.019 . S
O76 C96 1.257 . S
Zn77 N73 2.020 . S
Zn77 O84 1.975 . S
Zn77 N93 2.119 . S
Zn77 O98 2.019 . S
N78 Zn68 2.119 . S
N78 C80 1.334 . S
N78 C81 1.328 . S
C79 C80 1.391 . S
C79 N82 1.329 . S
C79 H100 0.930 . S
C80 N78 1.334 . S
C80 C79 1.391 . S
C80 H87 0.930 . S
C81 N78 1.328 . S
C81 C83 1.392 . S
C81 H88 0.930 . S
N82 C79 1.329 . S
N82 C83 1.331 . S
C83 C81 1.392 . S
C83 N82 1.331 . S
O84 Zn77 1.975 . S
O84 C85 1.252 . S
C85 O84 1.252 . S
C85 O86 1.252 . S
O86 Zn68 1.975 . S
O86 C85 1.252 . S
H87 C80 0.930 . S
H88 C81 0.930 . S
C89 C90 1.392 . S
C89 N93 1.328 . S
C89 H95 0.930 . S
C90 C89 1.392 . S
C90 N94 1.331 . S
C91 C92 1.391 . S
C91 N94 1.329 . S
C91 H101 0.930 . S
C92 C91 1.391 . S
C92 N93 1.334 . S
C92 H99 0.930 . S
N93 Zn77 2.119 . S
N93 C89 1.328 . S
N93 C92 1.334 . S
N94 C90 1.331 . S
N94 C91 1.329 . S
H95 C89 0.930 . S
C96 O76 1.257 . S
C96 O97 1.244 . S
O97 C96 1.244 . S
O98 C74 1.257 . S
O98 Zn77 2.019 . S
H99 C92 0.930 . S
H100 C79 0.930 . S
H101 C91 0.930 . S
Zn102 N106 2.020 . S
Zn102 O110 2.019 . S
Zn102 N112 2.119 . S
Zn102 O120 1.975 . S
C103 N104 1.334 . S
C103 N107 1.336 . S
N104 C103 1.334 . S
N104 C105 1.334 . S
C105 N104 1.334 . S
C105 N106 1.336 . S
N106 Zn102 2.020 . S
N106 C105 1.336 . S
N106 N107 1.354 . S
N107 C103 1.336 . S
N107 N106 1.354 . S
N107 Zn111 2.020 . S
C108 O109 1.244 . S
C108 O132 1.257 . S
O109 C108 1.244 . S
O110 Zn102 2.019 . S
O110 C130 1.257 . S
Zn111 N107 2.020 . S
Zn111 O118 1.975 . S
Zn111 N127 2.119 . S
Zn111 O132 2.019 . S
N112 Zn102 2.119 . S
N112 C114 1.334 . S
N112 C115 1.328 . S
C113 C114 1.391 . S
C113 N116 1.329 . S
C113 H134 0.930 . S
C114 N112 1.334 . S
C114 C113 1.391 . S
C114 H121 0.930 . S
C115 N112 1.328 . S
C115 C117 1.392 . S
C115 H122 0.930 . S
N116 C113 1.329 . S
N116 C117 1.331 . S
C117 C115 1.392 . S
C117 N116 1.331 . S
O118 Zn111 1.975 . S
O118 C119 1.252 . S
C119 O118 1.252 . S
C119 O120 1.252 . S
O120 Zn102 1.975 . S
O120 C119 1.252 . S
H121 C114 0.930 . S
H122 C115 0.930 . S
C123 C124 1.392 . S
C123 N127 1.328 . S
C123 H129 0.930 . S
C124 C123 1.392 . S
C124 N128 1.331 . S
C125 C126 1.391 . S
C125 N128 1.329 . S
C125 H135 0.930 . S
C126 C125 1.391 . S
C126 N127 1.334 . S
C126 H133 0.930 . S
N127 Zn111 2.119 . S
N127 C123 1.328 . S
N127 C126 1.334 . S
N128 C124 1.331 . S
N128 C125 1.329 . S
H129 C123 0.930 . S
C130 O110 1.257 . S
C130 O131 1.244 . S
O131 C130 1.244 . S
O132 C108 1.257 . S
O132 Zn111 2.019 . S
H133 C126 0.930 . S
H134 C113 0.930 . S
H135 C125 0.930 . S
Zn136 N140 2.020 . S
Zn136 O144 2.019 . S
Zn136 N146 2.119 . S
Zn136 O154 1.975 . S
C137 N138 1.334 . S
C137 N141 1.336 . S
N138 C137 1.334 . S
N138 C139 1.334 . S
C139 N138 1.334 . S
C139 N140 1.336 . S
N140 Zn136 2.020 . S
N140 C139 1.336 . S
N140 N141 1.354 . S
N141 C137 1.336 . S
N141 N140 1.354 . S
N141 Zn145 2.020 . S
C142 O143 1.244 . S
C142 O166 1.257 . S
O143 C142 1.244 . S
O144 Zn136 2.019 . S
O144 C164 1.257 . S
Zn145 N141 2.020 . S
Zn145 O152 1.975 . S
Zn145 N161 2.119 . S
Zn145 O166 2.019 . S
N146 Zn136 2.119 . S
N146 C148 1.334 . S
N146 C149 1.328 . S
C147 C148 1.391 . S
C147 N150 1.329 . S
C147 H168 0.930 . S
C148 N146 1.334 . S
C148 C147 1.391 . S
C148 H155 0.930 . S
C149 N146 1.328 . S
C149 C151 1.392 . S
C149 H156 0.930 . S
N150 C147 1.329 . S
N150 C151 1.331 . S
C151 C149 1.392 . S
C151 N150 1.331 . S
O152 Zn145 1.975 . S
O152 C153 1.252 . S
C153 O152 1.252 . S
C153 O154 1.252 . S
O154 Zn136 1.975 . S
O154 C153 1.252 . S
H155 C148 0.930 . S
H156 C149 0.930 . S
C157 C158 1.392 . S
C157 N161 1.328 . S
C157 H163 0.930 . S
C158 C157 1.392 . S
C158 N162 1.331 . S
C159 C160 1.391 . S
C159 N162 1.329 . S
C159 H169 0.930 . S
C160 C159 1.391 . S
C160 N161 1.334 . S
C160 H167 0.930 . S
N161 Zn145 2.119 . S
N161 C157 1.328 . S
N161 C160 1.334 . S
N162 C158 1.331 . S
N162 C159 1.329 . S
H163 C157 0.930 . S
C164 O144 1.257 . S
C164 O165 1.244 . S
O165 C164 1.244 . S
O166 C142 1.257 . S
O166 Zn145 2.019 . S
H167 C160 0.930 . S
H168 C147 0.930 . S
H169 C159 0.930 . S
Zn170 N174 2.020 . S
Zn170 O178 2.019 . S
Zn170 N180 2.119 . S
Zn170 O188 1.975 . S
C171 N172 1.334 . S
C171 N175 1.336 . S
N172 C171 1.334 . S
N172 C173 1.334 . S
C173 N172 1.334 . S
C173 N174 1.336 . S
N174 Zn170 2.020 . S
N174 C173 1.336 . S
N174 N175 1.354 . S
N175 C171 1.336 . S
N175 N174 1.354 . S
N175 Zn179 2.020 . S
C176 O177 1.244 . S
C176 O200 1.257 . S
O177 C176 1.244 . S
O178 Zn170 2.019 . S
O178 C198 1.257 . S
Zn179 N175 2.020 . S
Zn179 O186 1.975 . S
Zn179 N195 2.119 . S
Zn179 O200 2.019 . S
N180 Zn170 2.119 . S
N180 C182 1.334 . S
N180 C183 1.328 . S
C181 C182 1.391 . S
C181 N184 1.329 . S
C181 H202 0.930 . S
C182 N180 1.334 . S
C182 C181 1.391 . S
C182 H189 0.930 . S
C183 N180 1.328 . S
C183 C185 1.392 . S
C183 H190 0.930 . S
N184 C181 1.329 . S
N184 C185 1.331 . S
C185 C183 1.392 . S
C185 N184 1.331 . S
O186 Zn179 1.975 . S
O186 C187 1.252 . S
C187 O186 1.252 . S
C187 O188 1.252 . S
O188 Zn170 1.975 . S
O188 C187 1.252 . S
H189 C182 0.930 . S
H190 C183 0.930 . S
C191 C192 1.392 . S
C191 N195 1.328 . S
C191 H197 0.930 . S
C192 C191 1.392 . S
C192 N196 1.331 . S
C193 C194 1.391 . S
C193 N196 1.329 . S
C193 H203 0.930 . S
C194 C193 1.391 . S
C194 N195 1.334 . S
C194 H201 0.930 . S
N195 Zn179 2.119 . S
N195 C191 1.328 . S
N195 C194 1.334 . S
N196 C192 1.331 . S
N196 C193 1.329 . S
H197 C191 0.930 . S
C198 O178 1.257 . S
C198 O199 1.244 . S
O199 C198 1.244 . S
O200 C176 1.257 . S
O200 Zn179 2.019 . S
H201 C194 0.930 . S
H202 C181 0.930 . S
H203 C193 0.930 . S
Zn204 N208 2.020 . S
Zn204 O212 2.019 . S
Zn204 N214 2.119 . S
Zn204 O222 1.975 . S
C205 N206 1.334 . S
C205 N209 1.336 . S
N206 C205 1.334 . S
N206 C207 1.334 . S
C207 N206 1.334 . S
C207 N208 1.336 . S
N208 Zn204 2.020 . S
N208 C207 1.336 . S
N208 N209 1.354 . S
N209 C205 1.336 . S
N209 N208 1.354 . S
N209 Zn213 2.020 . S
C210 O211 1.244 . S
C210 O234 1.257 . S
O211 C210 1.244 . S
O212 Zn204 2.019 . S
O212 C232 1.257 . S
Zn213 N209 2.020 . S
Zn213 O220 1.975 . S
Zn213 N229 2.119 . S
Zn213 O234 2.019 . S
N214 Zn204 2.119 . S
N214 C216 1.334 . S
N214 C217 1.328 . S
C215 C216 1.391 . S
C215 N218 1.329 . S
C215 H236 0.930 . S
C216 N214 1.334 . S
C216 C215 1.391 . S
C216 H223 0.930 . S
C217 N214 1.328 . S
C217 C219 1.392 . S
C217 H224 0.930 . S
N218 C215 1.329 . S
N218 C219 1.331 . S
C219 C217 1.392 . S
C219 N218 1.331 . S
O220 Zn213 1.975 . S
O220 C221 1.252 . S
C221 O220 1.252 . S
C221 O222 1.252 . S
O222 Zn204 1.975 . S
O222 C221 1.252 . S
H223 C216 0.930 . S
H224 C217 0.930 . S
C225 C226 1.392 . S
C225 N229 1.328 . S
C225 H231 0.930 . S
C226 C225 1.392 . S
C226 N230 1.331 . S
C227 C228 1.391 . S
C227 N230 1.329 . S
C227 H237 0.930 . S
C228 C227 1.391 . S
C228 N229 1.334 . S
C228 H235 0.930 . S
N229 Zn213 2.119 . S
N229 C225 1.328 . S
N229 C228 1.334 . S
N230 C226 1.331 . S
N230 C227 1.329 . S
H231 C225 0.930 . S
C232 O212 1.257 . S
C232 O233 1.244 . S
O233 C232 1.244 . S
O234 C210 1.257 . S
O234 Zn213 2.019 . S
H235 C228 0.930 . S
H236 C215 0.930 . S
H237 C227 0.930 . S
Zn238 N242 2.020 . S
Zn238 O246 2.019 . S
Zn238 N248 2.119 . S
Zn238 O256 1.975 . S
C239 N240 1.334 . S
C239 N243 1.336 . S
N240 C239 1.334 . S
N240 C241 1.334 . S
C241 N240 1.334 . S
C241 N242 1.336 . S
N242 Zn238 2.020 . S
N242 C241 1.336 . S
N242 N243 1.354 . S
N243 C239 1.336 . S
N243 N242 1.354 . S
N243 Zn247 2.020 . S
C244 O245 1.244 . S
C244 O268 1.257 . S
O245 C244 1.244 . S
O246 Zn238 2.019 . S
O246 C266 1.257 . S
Zn247 N243 2.020 . S
Zn247 O254 1.975 . S
Zn247 N263 2.119 . S
Zn247 O268 2.019 . S
N248 Zn238 2.119 . S
N248 C250 1.334 . S
N248 C251 1.328 . S
C249 C250 1.391 . S
C249 N252 1.329 . S
C249 H270 0.930 . S
C250 N248 1.334 . S
C250 C249 1.391 . S
C250 H257 0.930 . S
C251 N248 1.328 . S
C251 C253 1.392 . S
C251 H258 0.930 . S
N252 C249 1.329 . S
N252 C253 1.331 . S
C253 C251 1.392 . S
C253 N252 1.331 . S
O254 Zn247 1.975 . S
O254 C255 1.252 . S
C255 O254 1.252 . S
C255 O256 1.252 . S
O256 Zn238 1.975 . S
O256 C255 1.252 . S
H257 C250 0.930 . S
H258 C251 0.930 . S
C259 C260 1.392 . S
C259 N263 1.328 . S
C259 H265 0.930 . S
C260 C259 1.392 . S
C260 N264 1.331 . S
C261 C262 1.391 . S
C261 N264 1.329 . S
C261 H271 0.930 . S
C262 C261 1.391 . S
C262 N263 1.334 . S
C262 H269 0.930 . S
N263 Zn247 2.119 . S
N263 C259 1.328 . S
N263 C262 1.334 . S
N264 C260 1.331 . S
N264 C261 1.329 . S
H265 C259 0.930 . S
C266 O246 1.257 . S
C266 O267 1.244 . S
O267 C266 1.244 . S
O268 C244 1.257 . S
O268 Zn247 2.019 . S
H269 C262 0.930 . S
H270 C249 0.930 . S
H271 C261 0.930 . S
Zn272 N276 2.020 . S
Zn272 O280 2.019 . S
Zn272 N282 2.119 . S
Zn272 O290 1.975 . S
C273 N274 1.334 . S
C273 N277 1.336 . S
N274 C273 1.334 . S
N274 C275 1.334 . S
C275 N274 1.334 . S
C275 N276 1.336 . S
N276 Zn272 2.020 . S
N276 C275 1.336 . S
N276 N277 1.354 . S
N277 C273 1.336 . S
N277 N276 1.354 . S
N277 Zn281 2.020 . S
C278 O279 1.244 . S
C278 O302 1.257 . S
O279 C278 1.244 . S
O280 Zn272 2.019 . S
O280 C300 1.257 . S
Zn281 N277 2.020 . S
Zn281 O288 1.975 . S
Zn281 N297 2.119 . S
Zn281 O302 2.019 . S
N282 Zn272 2.119 . S
N282 C284 1.334 . S
N282 C285 1.328 . S
C283 C284 1.391 . S
C283 N286 1.329 . S
C283 H304 0.930 . S
C284 N282 1.334 . S
C284 C283 1.391 . S
C284 H291 0.930 . S
C285 N282 1.328 . S
C285 C287 1.392 . S
C285 H292 0.930 . S
N286 C283 1.329 . S
N286 C287 1.331 . S
C287 C285 1.392 . S
C287 N286 1.331 . S
O288 Zn281 1.975 . S
O288 C289 1.252 . S
C289 O288 1.252 . S
C289 O290 1.252 . S
O290 Zn272 1.975 . S
O290 C289 1.252 . S
H291 C284 0.930 . S
H292 C285 0.930 . S
C293 C294 1.392 . S
C293 N297 1.328 . S
C293 H299 0.930 . S
C294 C293 1.392 . S
C294 N298 1.331 . S
C295 C296 1.391 . S
C295 N298 1.329 . S
C295 H305 0.930 . S
C296 C295 1.391 . S
C296 N297 1.334 . S
C296 H303 0.930 . S
N297 Zn281 2.119 . S
N297 C293 1.328 . S
N297 C296 1.334 . S
N298 C294 1.331 . S
N298 C295 1.329 . S
H299 C293 0.930 . S
C300 O280 1.257 . S
C300 O301 1.244 . S
O301 C300 1.244 . S
O302 C278 1.257 . S
O302 Zn281 2.019 . S
H303 C296 0.930 . S
H304 C283 0.930 . S
H305 C295 0.930 . S
Zn306 N310 2.020 . S
Zn306 O314 2.019 . S
Zn306 N316 2.119 . S
Zn306 O324 1.975 . S
C307 N308 1.334 . S
C307 N311 1.336 . S
N308 C307 1.334 . S
N308 C309 1.334 . S
C309 N308 1.334 . S
C309 N310 1.336 . S
N310 Zn306 2.020 . S
N310 C309 1.336 . S
N310 N311 1.354 . S
N311 C307 1.336 . S
N311 N310 1.354 . S
N311 Zn315 2.020 . S
C312 O313 1.244 . S
C312 O336 1.257 . S
O313 C312 1.244 . S
O314 Zn306 2.019 . S
O314 C334 1.257 . S
Zn315 N311 2.020 . S
Zn315 O322 1.975 . S
Zn315 N331 2.119 . S
Zn315 O336 2.019 . S
N316 Zn306 2.119 . S
N316 C318 1.334 . S
N316 C319 1.328 . S
C317 C318 1.391 . S
C317 N320 1.329 . S
C317 H338 0.930 . S
C318 N316 1.334 . S
C318 C317 1.391 . S
C318 H325 0.930 . S
C319 N316 1.328 . S
C319 C321 1.392 . S
C319 H326 0.930 . S
N320 C317 1.329 . S
N320 C321 1.331 . S
C321 C319 1.392 . S
C321 N320 1.331 . S
O322 Zn315 1.975 . S
O322 C323 1.252 . S
C323 O322 1.252 . S
C323 O324 1.252 . S
O324 Zn306 1.975 . S
O324 C323 1.252 . S
H325 C318 0.930 . S
H326 C319 0.930 . S
C327 C328 1.392 . S
C327 N331 1.328 . S
C327 H333 0.930 . S
C328 C327 1.392 . S
C328 N332 1.331 . S
C329 C330 1.391 . S
C329 N332 1.329 . S
C329 H339 0.930 . S
C330 C329 1.391 . S
C330 N331 1.334 . S
C330 H337 0.930 . S
N331 Zn315 2.119 . S
N331 C327 1.328 . S
N331 C330 1.334 . S
N332 C328 1.331 . S
N332 C329 1.329 . S
H333 C327 0.930 . S
C334 O314 1.257 . S
C334 O335 1.244 . S
O335 C334 1.244 . S
O336 C312 1.257 . S
O336 Zn315 2.019 . S
H337 C330 0.930 . S
H338 C317 0.930 . S
H339 C329 0.930 . S
Zn340 N344 2.020 . S
Zn340 O348 2.019 . S
Zn340 N350 2.119 . S
Zn340 O358 1.975 . S
C341 N342 1.334 . S
C341 N345 1.336 . S
N342 C341 1.334 . S
N342 C343 1.334 . S
C343 N342 1.334 . S
C343 N344 1.336 . S
N344 Zn340 2.020 . S
N344 C343 1.336 . S
N344 N345 1.354 . S
N345 C341 1.336 . S
N345 N344 1.354 . S
N345 Zn349 2.020 . S
C346 O347 1.244 . S
C346 O370 1.257 . S
O347 C346 1.244 . S
O348 Zn340 2.019 . S
O348 C368 1.257 . S
Zn349 N345 2.020 . S
Zn349 O356 1.975 . S
Zn349 N365 2.119 . S
Zn349 O370 2.019 . S
N350 Zn340 2.119 . S
N350 C352 1.334 . S
N350 C353 1.328 . S
C351 C352 1.391 . S
C351 N354 1.329 . S
C351 H372 0.930 . S
C352 N350 1.334 . S
C352 C351 1.391 . S
C352 H359 0.930 . S
C353 N350 1.328 . S
C353 C355 1.392 . S
C353 H360 0.930 . S
N354 C351 1.329 . S
N354 C355 1.331 . S
C355 C353 1.392 . S
C355 N354 1.331 . S
O356 Zn349 1.975 . S
O356 C357 1.252 . S
C357 O356 1.252 . S
C357 O358 1.252 . S
O358 Zn340 1.975 . S
O358 C357 1.252 . S
H359 C352 0.930 . S
H360 C353 0.930 . S
C361 C362 1.392 . S
C361 N365 1.328 . S
C361 H367 0.930 . S
C362 C361 1.392 . S
C362 N366 1.331 . S
C363 C364 1.391 . S
C363 N366 1.329 . S
C363 H373 0.930 . S
C364 C363 1.391 . S
C364 N365 1.334 . S
C364 H371 0.930 . S
N365 Zn349 2.119 . S
N365 C361 1.328 . S
N365 C364 1.334 . S
N366 C362 1.331 . S
N366 C363 1.329 . S
H367 C361 0.930 . S
C368 O348 1.257 . S
C368 O369 1.244 . S
O369 C368 1.244 . S
O370 C346 1.257 . S
O370 Zn349 2.019 . S
H371 C364 0.930 . S
H372 C351 0.930 . S
H373 C363 0.930 . S
Zn374 N378 2.020 . S
Zn374 O382 2.019 . S
Zn374 N384 2.119 . S
Zn374 O392 1.975 . S
C375 N376 1.334 . S
C375 N379 1.336 . S
N376 C375 1.334 . S
N376 C377 1.334 . S
C377 N376 1.334 . S
C377 N378 1.336 . S
N378 Zn374 2.020 . S
N378 C377 1.336 . S
N378 N379 1.354 . S
N379 C375 1.336 . S
N379 N378 1.354 . S
N379 Zn383 2.020 . S
C380 O381 1.244 . S
C380 O404 1.257 . S
O381 C380 1.244 . S
O382 Zn374 2.019 . S
O382 C402 1.257 . S
Zn383 N379 2.020 . S
Zn383 O390 1.975 . S
Zn383 N399 2.119 . S
Zn383 O404 2.019 . S
N384 Zn374 2.119 . S
N384 C386 1.334 . S
N384 C387 1.328 . S
C385 C386 1.391 . S
C385 N388 1.329 . S
C385 H406 0.930 . S
C386 N384 1.334 . S
C386 C385 1.391 . S
C386 H393 0.930 . S
C387 N384 1.328 . S
C387 C389 1.392 . S
C387 H394 0.930 . S
N388 C385 1.329 . S
N388 C389 1.331 . S
C389 C387 1.392 . S
C389 N388 1.331 . S
O390 Zn383 1.975 . S
O390 C391 1.252 . S
C391 O390 1.252 . S
C391 O392 1.252 . S
O392 Zn374 1.975 . S
O392 C391 1.252 . S
H393 C386 0.930 . S
H394 C387 0.930 . S
C395 C396 1.392 . S
C395 N399 1.328 . S
C395 H401 0.930 . S
C396 C395 1.392 . S
C396 N400 1.331 . S
C397 C398 1.391 . S
C397 N400 1.329 . S
C397 H407 0.930 . S
C398 C397 1.391 . S
C398 N399 1.334 . S
C398 H405 0.930 . S
N399 Zn383 2.119 . S
N399 C395 1.328 . S
N399 C398 1.334 . S
N400 C396 1.331 . S
N400 C397 1.329 . S
H401 C395 0.930 . S
C402 O382 1.257 . S
C402 O403 1.244 . S
O403 C402 1.244 . S
O404 C380 1.257 . S
O404 Zn383 2.019 . S
H405 C398 0.930 . S
H406 C385 0.930 . S
H407 C397 0.930 . S
H408 C414 0.930 . S
H409 C418 0.930 . S
H410 C423 0.929 . S
H411 C421 0.929 . S
H412 C416 0.929 1_556 S
H413 C422 0.929 . S
C414 H408 0.930 . S
C414 C415 1.367 . S
C414 C422 1.378 . S
C415 C414 1.367 . S
C415 C423 1.433 . S
C416 H412 0.929 1_554 S
C416 C418 1.378 . S
C416 C420 1.350 1_545 S
C417 C420 1.463 1_556 S
C417 C422 1.350 . S
C417 N425 1.427 . S
C418 H409 0.930 . S
C418 C416 1.378 . S
C418 C419 1.367 . S
C419 C418 1.367 . S
C419 C421 1.433 . S
C420 C416 1.350 1_565 S
C420 C417 1.463 1_554 S
C420 N424 1.419 1_565 S
C421 H411 0.929 . S
C421 C419 1.433 . S
C421 N424 1.395 . S
C422 H413 0.929 . S
C422 C414 1.378 . S
C422 C417 1.350 . S
C423 H410 0.929 . S
C423 C415 1.433 . S
C423 N425 1.384 . S
N424 C420 1.419 1_545 S
N424 C421 1.395 . S
N425 C417 1.427 . S
N425 C423 1.384 . S
H426 C432 0.930 . S
H427 C436 0.930 . S
H428 C441 0.929 . S
H429 C439 0.929 . S
H430 C434 0.929 . S
H431 C440 0.929 . S
C432 H426 0.930 . S
C432 C433 1.367 . S
C432 C440 1.378 1_655 S
C433 C432 1.367 . S
C433 C441 1.433 . S
C434 H430 0.929 . S
C434 C436 1.378 . S
C434 C438 1.350 . S
C435 C438 1.463 1_554 S
C435 C440 1.350 . S
C435 N443 1.427 1_454 S
C436 H427 0.930 . S
C436 C434 1.378 . S
C436 C437 1.367 . S
C437 C436 1.367 . S
C437 C439 1.433 . S
C438 C434 1.350 . S
C438 C435 1.463 1_556 S
C438 N442 1.427 . S
C439 H429 0.929 . S
C439 C437 1.433 . S
C439 N442 1.384 . S
C440 H431 0.929 . S
C440 C432 1.378 1_455 S
C440 C435 1.350 . S
C441 H428 0.929 . S
C441 C433 1.433 . S
C441 N443 1.384 1_554 S
N442 C438 1.427 . S
N442 C439 1.384 . S
N443 C435 1.427 1_656 S
N443 C441 1.384 1_556 S
H444 C450 0.930 . S
H445 C454 0.930 . S
H446 C459 0.929 . S
H447 C457 0.929 . S
H448 C452 0.929 . S
H449 C458 0.929 . S
C450 H444 0.930 . S
C450 C451 1.367 . S
C450 C458 1.378 . S
C451 C450 1.367 . S
C451 C459 1.433 . S
C452 H448 0.929 . S
C452 C454 1.378 . S
C452 C456 1.350 . S
C453 C456 1.463 1_554 S
C453 C458 1.350 . S
C453 N461 1.427 . S
C454 H445 0.930 . S
C454 C452 1.378 . S
C454 C455 1.367 . S
C455 C454 1.367 . S
C455 C457 1.433 . S
C456 C452 1.350 . S
C456 C453 1.463 1_556 S
C456 N460 1.427 . S
C457 H447 0.929 . S
C457 C455 1.433 . S
C457 N460 1.384 . S
C458 H449 0.929 . S
C458 C450 1.378 . S
C458 C453 1.350 . S
C459 H446 0.929 . S
C459 C451 1.433 . S
C459 N461 1.384 . S
N460 C456 1.427 . S
N460 C457 1.384 . S
N461 C453 1.427 . S
N461 C459 1.384 . S
H462 C468 0.930 . S
H463 C472 0.930 . S
H464 C477 0.929 . S
H465 C475 0.929 . S
H466 C470 0.929 . S
H467 C476 0.929 . S
C468 H462 0.930 . S
C468 C469 1.367 . S
C468 C476 1.378 . S
C469 C468 1.367 . S
C469 C477 1.433 . S
C470 H466 0.929 . S
C470 C472 1.378 . S
C470 C474 1.350 . S
C471 C474 1.463 . S
C471 C476 1.350 1_655 S
C471 N479 1.427 . S
C472 H463 0.930 . S
C472 C470 1.378 . S
C472 C473 1.367 . S
C473 C472 1.367 . S
C473 C475 1.433 . S
C474 C470 1.350 . S
C474 C471 1.463 . S
C474 N478 1.427 . S
C475 H465 0.929 . S
C475 C473 1.433 . S
C475 N478 1.384 . S
C476 H467 0.929 . S
C476 C468 1.378 . S
C476 C471 1.350 1_455 S
C477 H464 0.929 . S
C477 C469 1.433 . S
C477 N479 1.384 1_455 S
N478 C474 1.427 . S
N478 C475 1.384 . S
N479 C471 1.427 . S
N479 C477 1.384 1_655 S
H480 C486 0.930 . S
H481 C490 0.930 . S
H482 C495 0.929 . S
H483 C493 0.929 . S
H484 C488 0.929 . S
H485 C494 0.929 . S
C486 H480 0.930 . S
C486 C487 1.367 . S
C486 C494 1.378 . S
C487 C486 1.367 . S
C487 C495 1.433 . S
C488 H484 0.929 . S
C488 C490 1.378 . S
C488 C492 1.350 . S
C489 C492 1.463 . S
C489 C494 1.350 . S
C489 N497 1.427 . S
C490 H481 0.930 . S
C490 C488 1.378 . S
C490 C491 1.367 . S
C491 C490 1.367 . S
C491 C493 1.433 . S
C492 C488 1.350 . S
C492 C489 1.463 . S
C492 N496 1.427 . S
C493 H483 0.929 . S
C493 C491 1.433 . S
C493 N496 1.384 . S
C494 H485 0.929 . S
C494 C486 1.378 . S
C494 C489 1.350 . S
C495 H482 0.929 . S
C495 C487 1.433 . S
C495 N497 1.384 . S
N496 C492 1.427 . S
N496 C493 1.384 . S
N497 C489 1.427 . S
N497 C495 1.384 . S
H498 C504 0.930 . S
H499 C508 0.930 . S
H500 C513 0.929 . S
H501 C511 0.929 . S
H502 C506 0.929 . S
H503 C512 0.929 . S
C504 H498 0.930 . S
C504 C505 1.367 . S
C504 C512 1.378 1_565 S
C505 C504 1.367 . S
C505 C513 1.433 . S
C506 H502 0.929 . S
C506 C508 1.378 . S
C506 C510 1.350 . S
C507 C510 1.463 . S
C507 C512 1.350 . S
C507 N515 1.427 1_545 S
C508 H499 0.930 . S
C508 C506 1.378 . S
C508 C509 1.367 . S
C509 C508 1.367 . S
C509 C511 1.433 . S
C510 C506 1.350 . S
C510 C507 1.463 . S
C510 N514 1.427 . S
C511 H501 0.929 . S
C511 C509 1.433 . S
C511 N514 1.384 . S
C512 H503 0.929 . S
C512 C504 1.378 1_545 S
C512 C507 1.350 . S
C513 H500 0.929 . S
C513 C505 1.433 . S
C513 N515 1.384 . S
N514 C510 1.427 . S
N514 C511 1.384 . S
N515 C507 1.427 1_565 S
N515 C513 1.384 . S
H516 C522 0.930 . S
H517 C526 0.930 . S
H518 C531 0.929 . S
H519 C529 0.929 . S
H520 C524 0.929 . S
H521 C530 0.929 . S
C522 H516 0.930 . S
C522 C523 1.367 . S
C522 C530 1.378 1_565 S
C523 C522 1.367 . S
C523 C531 1.433 . S
C524 H520 0.929 . S
C524 C526 1.378 . S
C524 C528 1.350 . S
C525 C528 1.463 1_556 S
C525 C530 1.350 . S
C525 N533 1.427 1_546 S
C526 H517 0.930 . S
C526 C524 1.378 . S
C526 C527 1.367 . S
C527 C526 1.367 . S
C527 C529 1.433 . S
C528 C524 1.350 . S
C528 C525 1.463 1_554 S
C528 N532 1.427 . S
C529 H519 0.929 . S
C529 C527 1.433 . S
C529 N532 1.384 . S
C530 H521 0.929 . S
C530 C522 1.378 1_545 S
C530 C525 1.350 . S
C531 H518 0.929 . S
C531 C523 1.433 . S
C531 N533 1.384 1_556 S
N532 C528 1.427 . S
N532 C529 1.384 . S
N533 C525 1.427 1_564 S
N533 C531 1.384 1_554 S
H534 C540 0.930 . S
H535 C544 0.930 . S
H536 C549 0.929 . S
H537 C547 0.929 . S
H538 C542 0.929 . S
H539 C548 0.929 . S
C540 H534 0.930 . S
C540 C541 1.367 . S
C540 C548 1.378 . S
C541 C540 1.367 . S
C541 C549 1.433 . S
C542 H538 0.929 . S
C542 C544 1.378 . S
C542 C546 1.350 . S
C543 C546 1.463 1_556 S
C543 C548 1.350 1_655 S
C543 N551 1.427 1_655 S
C544 H535 0.930 . S
C544 C542 1.378 . S
C544 C545 1.367 . S
C545 C544 1.367 . S
C545 C547 1.433 . S
C546 C542 1.350 . S
C546 C543 1.463 1_554 S
C546 N550 1.427 . S
C547 H537 0.929 . S
C547 C545 1.433 . S
C547 N550 1.384 . S
C548 H539 0.929 . S
C548 C540 1.378 . S
C548 C543 1.350 1_455 S
C549 H536 0.929 . S
C549 C541 1.433 . S
C549 N551 1.384 . S
N550 C546 1.427 . S
N550 C547 1.384 . S
N551 C543 1.427 1_455 S
N551 C549 1.384 . S
H552 C558 0.930 . S
H553 C562 0.930 . S
H554 C567 0.929 . S
H555 C565 0.929 . S
H556 C560 0.929 . S
H557 C566 0.929 . S
C558 H552 0.930 . S
C558 C559 1.367 . S
C558 C566 1.378 . S
C559 C558 1.367 . S
C559 C567 1.433 . S
C560 H556 0.929 . S
C560 C562 1.378 . S
C560 C564 1.350 . S
C561 C564 1.463 1_554 S
C561 C566 1.350 . S
C561 N569 1.427 . S
C562 H553 0.930 . S
C562 C560 1.378 . S
C562 C563 1.367 . S
C563 C562 1.367 . S
C563 C565 1.433 . S
C564 C560 1.350 . S
C564 C561 1.463 1_556 S
C564 N568 1.427 . S
C565 H555 0.929 . S
C565 C563 1.433 . S
C565 N568 1.384 . S
C566 H557 0.929 . S
C566 C558 1.378 . S
C566 C561 1.350 . S
C567 H554 0.929 . S
C567 C559 1.433 . S
C567 N569 1.384 . S
N568 C564 1.427 . S
N568 C565 1.384 . S
N569 C561 1.427 . S
N569 C567 1.384 . S
H570 C576 0.930 . S
H571 C580 0.930 . S
H572 C585 0.929 . S
H573 C583 0.929 . S
H574 C578 0.929 . S
H575 C584 0.929 . S
C576 H570 0.930 . S
C576 C577 1.367 . S
C576 C584 1.378 . S
C577 C576 1.367 . S
C577 C585 1.433 . S
C578 H574 0.929 . S
C578 C580 1.378 . S
C578 C582 1.350 . S
C579 C582 1.463 . S
C579 C584 1.350 1_455 S
C579 N587 1.427 . S
C580 H571 0.930 . S
C580 C578 1.378 . S
C580 C581 1.367 . S
C581 C580 1.367 . S
C581 C583 1.433 . S
C582 C578 1.350 . S
C582 C579 1.463 . S
C582 N586 1.427 . S
C583 H573 0.929 . S
C583 C581 1.433 . S
C583 N586 1.384 . S
C584 H575 0.929 . S
C584 C576 1.378 . S
C584 C579 1.350 1_655 S
C585 H572 0.929 . S
C585 C577 1.433 . S
C585 N587 1.384 1_655 S
N586 C582 1.427 . S
N586 C583 1.384 . S
N587 C579 1.427 . S
N587 C585 1.384 1_455 S
H588 C594 0.930 . S
H589 C598 0.930 . S
H590 C603 0.929 . S
H591 C601 0.929 . S
H592 C596 0.929 . S
H593 C602 0.929 . S
C594 H588 0.930 . S
C594 C595 1.367 . S
C594 C602 1.378 . S
C595 C594 1.367 . S
C595 C603 1.433 . S
C596 H592 0.929 . S
C596 C598 1.378 . S
C596 C600 1.350 . S
C597 C600 1.463 . S
C597 C602 1.350 . S
C597 N605 1.427 . S
C598 H589 0.930 . S
C598 C596 1.378 . S
C598 C599 1.367 . S
C599 C598 1.367 . S
C599 C601 1.433 . S
C600 C596 1.350 . S
C600 C597 1.463 . S
C600 N604 1.427 . S
C601 H591 0.929 . S
C601 C599 1.433 . S
C601 N604 1.384 . S
C602 H593 0.929 . S
C602 C594 1.378 . S
C602 C597 1.350 . S
C603 H590 0.929 . S
C603 C595 1.433 . S
C603 N605 1.384 . S
N604 C600 1.427 . S
N604 C601 1.384 . S
N605 C597 1.427 . S
N605 C603 1.384 . S
H606 C612 0.930 . S
H607 C616 0.930 . S
H608 C621 0.929 . S
H609 C619 0.929 . S
H610 C614 0.929 . S
H611 C620 0.929 . S
C612 H606 0.930 . S
C612 C613 1.367 . S
C612 C620 1.378 . S
C613 C612 1.367 . S
C613 C621 1.433 . S
C614 H610 0.929 . S
C614 C616 1.378 . S
C614 C618 1.350 1_545 S
C615 C618 1.463 . S
C615 C620 1.350 . S
C615 N623 1.427 . S
C616 H607 0.930 . S
C616 C614 1.378 . S
C616 C617 1.367 . S
C617 C616 1.367 . S
C617 C619 1.433 . S
C618 C614 1.350 1_565 S
C618 C615 1.463 . S
C618 N622 1.427 . S
C619 H609 0.929 . S
C619 C617 1.433 . S
C619 N622 1.384 1_545 S
C620 H611 0.929 . S
C620 C612 1.378 . S
C620 C615 1.350 . S
C621 H608 0.929 . S
C621 C613 1.433 . S
C621 N623 1.384 . S
N622 C618 1.427 . S
N622 C619 1.384 1_565 S
N623 C615 1.427 . S
N623 C621 1.384 . S
H624 C630 0.930 . S
H625 C634 0.930 . S
H626 C639 0.929 . S
H627 C637 0.929 . S
H628 C632 0.929 . S
H629 C638 0.929 . S
C630 H624 0.930 . S
C630 C631 1.367 . S
C630 C638 1.378 . S
C631 C630 1.367 . S
C631 C639 1.433 . S
C632 H628 0.929 . S
C632 C634 1.378 . S
C632 C636 1.350 . S
C633 C636 1.463 . S
C633 C638 1.350 . S
C633 N641 1.427 . S
C634 H625 0.930 . S
C634 C632 1.378 . S
C634 C635 1.367 . S
C635 C634 1.367 . S
C635 C637 1.433 . S
C636 C632 1.350 . S
C636 C633 1.463 . S
C636 N640 1.427 . S
C637 H627 0.929 . S
C637 C635 1.433 . S
C637 N640 1.384 . S
C638 H629 0.929 . S
C638 C630 1.378 . S
C638 C633 1.350 . S
C639 H626 0.929 . S
C639 C631 1.433 . S
C639 N641 1.384 . S
N640 C636 1.427 . S
N640 C637 1.384 . S
N641 C633 1.427 . S
N641 C639 1.384 . S
H642 C648 0.930 . S
H643 C652 0.930 . S
H644 C657 0.929 . S
H645 C655 0.929 . S
H646 C650 0.929 . S
H647 C656 0.929 . S
C648 H642 0.930 . S
C648 C649 1.367 . S
C648 C656 1.378 . S
C649 C648 1.367 . S
C649 C657 1.433 . S
C650 H646 0.929 . S
C650 C652 1.378 . S
C650 C654 1.350 . S
C651 C654 1.463 1_545 S
C651 C656 1.350 . S
C651 N659 1.427 . S
C652 H643 0.930 . S
C652 C650 1.378 . S
C652 C653 1.367 . S
C653 C652 1.367 . S
C653 C655 1.433 . S
C654 C650 1.350 . S
C654 C651 1.463 1_565 S
C654 N658 1.427 . S
C655 H645 0.929 . S
C655 C653 1.433 . S
C655 N658 1.384 . S
C656 H647 0.929 . S
C656 C648 1.378 . S
C656 C651 1.350 . S
C657 H644 0.929 . S
C657 C649 1.433 . S
C657 N659 1.384 . S
N658 C654 1.427 . S
N658 C655 1.384 . S
N659 C651 1.427 . S
N659 C657 1.384 . S
H660 C666 0.930 . S
H661 C670 0.930 . S
H662 C675 0.929 . S
H663 C673 0.929 . S
H664 C668 0.929 . S
H665 C674 0.929 . S
C666 H660 0.930 . S
C666 C667 1.367 . S
C666 C674 1.378 . S
C667 C666 1.367 . S
C667 C675 1.433 . S
C668 H664 0.929 . S
C668 C670 1.378 . S
C668 C672 1.350 . S
C669 C672 1.463 1_655 S
C669 C674 1.350 . S
C669 N677 1.427 . S
C670 H661 0.930 . S
C670 C668 1.378 . S
C670 C671 1.367 . S
C671 C670 1.367 . S
C671 C673 1.433 . S
C672 C668 1.350 . S
C672 C669 1.463 1_455 S
C672 N676 1.427 . S
C673 H663 0.929 . S
C673 C671 1.433 . S
C673 N676 1.384 . S
C674 H665 0.929 . S
C674 C666 1.378 . S
C674 C669 1.350 . S
C675 H662 0.929 . S
C675 C667 1.433 . S
C675 N677 1.384 . S
N676 C672 1.427 . S
N676 C673 1.384 . S
N677 C669 1.427 . S
N677 C675 1.384 . S
H678 C684 0.930 . S
H679 C688 0.930 . S
H680 C693 0.929 . S
H681 C691 0.929 . S
H682 C686 0.929 . S
H683 C692 0.929 . S
C684 H678 0.930 . S
C684 C685 1.367 . S
C684 C692 1.378 . S
C685 C684 1.367 . S
C685 C693 1.433 . S
C686 H682 0.929 . S
C686 C688 1.378 . S
C686 C690 1.350 . S
C687 C690 1.463 . S
C687 C692 1.350 . S
C687 N695 1.427 . S
C688 H679 0.930 . S
C688 C686 1.378 . S
C688 C689 1.367 . S
C689 C688 1.367 . S
C689 C691 1.433 . S
C690 C686 1.350 . S
C690 C687 1.463 . S
C690 N694 1.427 . S
C691 H681 0.929 . S
C691 C689 1.433 . S
C691 N694 1.384 . S
C692 H683 0.929 . S
C692 C684 1.378 . S
C692 C687 1.350 . S
C693 H680 0.929 . S
C693 C685 1.433 . S
C693 N695 1.384 . S
N694 C690 1.427 . S
N694 C691 1.384 . S
N695 C687 1.427 . S
N695 C693 1.384 . S
H696 C702 0.930 . S
H697 C706 0.930 . S
H698 C711 0.929 . S
H699 C709 0.929 . S
H700 C704 0.929 . S
H701 C710 0.929 . S
C702 H696 0.930 . S
C702 C703 1.367 . S
C702 C710 1.378 . S
C703 C702 1.367 . S
C703 C711 1.433 . S
C704 H700 0.929 . S
C704 C706 1.378 . S
C704 C708 1.350 . S
C705 C708 1.463 1_545 S
C705 C710 1.350 . S
C705 N713 1.427 . S
C706 H697 0.930 . S
C706 C704 1.378 . S
C706 C707 1.367 . S
C707 C706 1.367 . S
C707 C709 1.433 . S
C708 C704 1.350 . S
C708 C705 1.463 1_565 S
C708 N712 1.427 . S
C709 H699 0.929 . S
C709 C707 1.433 . S
C709 N712 1.384 . S
C710 H701 0.929 . S
C710 C702 1.378 . S
C710 C705 1.350 . S
C711 H698 0.929 . S
C711 C703 1.433 . S
C711 N713 1.384 . S
N712 C708 1.427 . S
N712 C709 1.384 . S
N713 C705 1.427 . S
N713 C711 1.384 . S
H714 C720 0.930 . S
H715 C724 0.930 . S
H716 C729 0.929 . S
H717 C727 0.929 . S
H718 C722 0.929 1_655 S
H719 C728 0.929 1_455 S
C720 H714 0.930 . S
C720 C721 1.367 . S
C720 C728 1.378 . S
C721 C720 1.367 . S
C721 C729 1.433 . S
C722 H718 0.929 1_455 S
C722 C724 1.378 . S
C722 C726 1.350 . S
C723 C726 1.463 1_655 S
C723 C728 1.350 . S
C723 N731 1.427 . S
C724 H715 0.930 . S
C724 C722 1.378 . S
C724 C725 1.367 . S
C725 C724 1.367 . S
C725 C727 1.433 . S
C726 C722 1.350 . S
C726 C723 1.463 1_455 S
C726 N730 1.427 . S
C727 H717 0.929 . S
C727 C725 1.433 . S
C727 N730 1.384 . S
C728 H719 0.929 1_655 S
C728 C720 1.378 . S
C728 C723 1.350 . S
C729 H716 0.929 . S
C729 C721 1.433 . S
C729 N731 1.384 . S
N730 C726 1.427 . S
N730 C727 1.384 . S
N731 C723 1.427 . S
N731 C729 1.384 . S
H732 C738 0.930 . S
H733 C742 0.930 . S
H734 C747 0.929 . S
H735 C745 0.929 . S
H736 C740 0.929 . S
H737 C746 0.929 . S
C738 H732 0.930 . S
C738 C739 1.367 . S
C738 C746 1.378 . S
C739 C738 1.367 . S
C739 C747 1.433 . S
C740 H736 0.929 . S
C740 C742 1.378 . S
C740 C744 1.350 . S
C741 C744 1.463 . S
C741 C746 1.350 . S
C741 N749 1.427 . S
C742 H733 0.930 . S
C742 C740 1.378 . S
C742 C743 1.367 . S
C743 C742 1.367 . S
C743 C745 1.433 . S
C744 C740 1.350 . S
C744 C741 1.463 . S
C744 N748 1.427 . S
C745 H735 0.929 . S
C745 C743 1.433 . S
C745 N748 1.384 . S
C746 H737 0.929 . S
C746 C738 1.378 . S
C746 C741 1.350 . S
C747 H734 0.929 . S
C747 C739 1.433 . S
C747 N749 1.384 . S
N748 C744 1.427 . S
N748 C745 1.384 . S
N749 C741 1.427 . S
N749 C747 1.384 . S
H750 C756 0.930 . S
H751 C760 0.930 . S
H752 C765 0.929 . S
H753 C763 0.929 . S
H754 C758 0.929 . S
H755 C764 0.929 . S
C756 H750 0.930 . S
C756 C757 1.367 . S
C756 C764 1.378 . S
C757 C756 1.367 . S
C757 C765 1.433 . S
C758 H754 0.929 . S
C758 C760 1.378 . S
C758 C762 1.350 . S
C759 C762 1.463 . S
C759 C764 1.350 . S
C759 N767 1.427 . S
C760 H751 0.930 . S
C760 C758 1.378 . S
C760 C761 1.367 . S
C761 C760 1.367 . S
C761 C763 1.433 . S
C762 C758 1.350 . S
C762 C759 1.463 . S
C762 N766 1.427 . S
C763 H753 0.929 . S
C763 C761 1.433 . S
C763 N766 1.384 . S
C764 H755 0.929 . S
C764 C756 1.378 . S
C764 C759 1.350 . S
C765 H752 0.929 . S
C765 C757 1.433 . S
C765 N767 1.384 . S
N766 C762 1.427 . S
N766 C763 1.384 . S
N767 C759 1.427 . S
N767 C765 1.384 . S
H768 C774 0.930 . S
H769 C778 0.930 . S
H770 C783 0.929 . S
H771 C781 0.929 . S
H772 C776 0.929 . S
H773 C782 0.929 . S
C774 H768 0.930 . S
C774 C775 1.367 . S
C774 C782 1.378 . S
C775 C774 1.367 . S
C775 C783 1.433 . S
C776 H772 0.929 . S
C776 C778 1.378 . S
C776 C780 1.350 . S
C777 C780 1.463 . S
C777 C782 1.350 . S
C777 N785 1.427 . S
C778 H769 0.930 . S
C778 C776 1.378 . S
C778 C779 1.367 . S
C779 C778 1.367 . S
C779 C781 1.433 . S
C780 C776 1.350 . S
C780 C777 1.463 . S
C780 N784 1.427 . S
C781 H771 0.929 . S
C781 C779 1.433 . S
C781 N784 1.384 . S
C782 H773 0.929 . S
C782 C774 1.378 . S
C782 C777 1.350 . S
C783 H770 0.929 . S
C783 C775 1.433 . S
C783 N785 1.384 . S
N784 C780 1.427 . S
N784 C781 1.384 . S
N785 C777 1.427 . S
N785 C783 1.384 . S
H786 C792 0.930 . S
H787 C796 0.930 . S
H788 C801 0.929 . S
H789 C799 0.929 . S
H790 C794 0.929 . S
H791 C800 0.929 . S
C792 H786 0.930 . S
C792 C793 1.367 . S
C792 C800 1.378 . S
C793 C792 1.367 . S
C793 C801 1.433 . S
C794 H790 0.929 . S
C794 C796 1.378 . S
C794 C798 1.350 . S
C795 C798 1.463 . S
C795 C800 1.350 . S
C795 N803 1.427 . S
C796 H787 0.930 . S
C796 C794 1.378 . S
C796 C797 1.367 . S
C797 C796 1.367 . S
C797 C799 1.433 . S
C798 C794 1.350 . S
C798 C795 1.463 . S
C798 N802 1.427 . S
C799 H789 0.929 . S
C799 C797 1.433 . S
C799 N802 1.384 . S
C800 H791 0.929 . S
C800 C792 1.378 . S
C800 C795 1.350 . S
C801 H788 0.929 . S
C801 C793 1.433 . S
C801 N803 1.384 . S
N802 C798 1.427 . S
N802 C799 1.384 . S
N803 C795 1.427 . S
N803 C801 1.384 . S
H804 C810 0.930 . S
H805 C814 0.930 . S
H806 C819 0.929 . S
H807 C817 0.929 . S
H808 C812 0.929 . S
H809 C818 0.929 . S
C810 H804 0.930 . S
C810 C811 1.367 . S
C810 C818 1.378 . S
C811 C810 1.367 . S
C811 C819 1.433 . S
C812 H808 0.929 . S
C812 C814 1.378 . S
C812 C816 1.350 . S
C813 C816 1.463 . S
C813 C818 1.350 . S
C813 N821 1.427 . S
C814 H805 0.930 . S
C814 C812 1.378 . S
C814 C815 1.367 . S
C815 C814 1.367 . S
C815 C817 1.433 . S
C816 C812 1.350 . S
C816 C813 1.463 . S
C816 N820 1.427 . S
C817 H807 0.929 . S
C817 C815 1.433 . S
C817 N820 1.384 . S
C818 H809 0.929 . S
C818 C810 1.378 . S
C818 C813 1.350 . S
C819 H806 0.929 . S
C819 C811 1.433 . S
C819 N821 1.384 . S
N820 C816 1.427 . S
N820 C817 1.384 . S
N821 C813 1.427 . S
N821 C819 1.384 . S
H822 C828 0.930 . S
H823 C832 0.930 . S
H824 C837 0.929 . S
H825 C835 0.929 . S
H826 C830 0.929 . S
H827 C836 0.929 . S
C828 H822 0.930 . S
C828 C829 1.367 . S
C828 C836 1.378 . S
C829 C828 1.367 . S
C829 C837 1.433 . S
C830 H826 0.929 . S
C830 C832 1.378 . S
C830 C834 1.350 . S
C831 C834 1.463 . S
C831 C836 1.350 . S
C831 N839 1.427 . S
C832 H823 0.930 . S
C832 C830 1.378 . S
C832 C833 1.367 . S
C833 C832 1.367 . S
C833 C835 1.433 . S
C834 C830 1.350 . S
C834 C831 1.463 . S
C834 N838 1.427 . S
C835 H825 0.929 . S
C835 C833 1.433 . S
C835 N838 1.384 . S
C836 H827 0.929 . S
C836 C828 1.378 . S
C836 C831 1.350 . S
C837 H824 0.929 . S
C837 C829 1.433 . S
C837 N839 1.384 . S
N838 C834 1.427 . S
N838 C835 1.384 . S
N839 C831 1.427 . S
N839 C837 1.384 . S
H840 C846 0.930 . S
H841 C850 0.930 . S
H842 C855 0.929 . S
H843 C853 0.929 . S
H844 C848 0.929 . S
H845 C854 0.929 . S
C846 H840 0.930 . S
C846 C847 1.367 . S
C846 C854 1.378 . S
C847 C846 1.367 . S
C847 C855 1.433 . S
C848 H844 0.929 . S
C848 C850 1.378 . S
C848 C852 1.350 . S
C849 C852 1.463 . S
C849 C854 1.350 . S
C849 N857 1.427 . S
C850 H841 0.930 . S
C850 C848 1.378 . S
C850 C851 1.367 . S
C851 C850 1.367 . S
C851 C853 1.433 . S
C852 C848 1.350 . S
C852 C849 1.463 . S
C852 N856 1.427 . S
C853 H843 0.929 . S
C853 C851 1.433 . S
C853 N856 1.384 . S
C854 H845 0.929 . S
C854 C846 1.378 . S
C854 C849 1.350 . S
C855 H842 0.929 . S
C855 C847 1.433 . S
C855 N857 1.384 . S
N856 C852 1.427 . S
N856 C853 1.384 . S
N857 C849 1.427 . S
N857 C855 1.384 . S
H858 C864 0.930 . S
H859 C868 0.930 . S
H860 C873 0.929 . S
H861 C871 0.929 . S
H862 C866 0.929 . S
H863 C872 0.929 . S
C864 H858 0.930 . S
C864 C865 1.367 . S
C864 C872 1.378 . S
C865 C864 1.367 . S
C865 C873 1.433 . S
C866 H862 0.929 . S
C866 C868 1.378 . S
C866 C870 1.350 . S
C867 C870 1.463 . S
C867 C872 1.350 . S
C867 N875 1.427 . S
C868 H859 0.930 . S
C868 C866 1.378 . S
C868 C869 1.367 . S
C869 C868 1.367 . S
C869 C871 1.433 . S
C870 C866 1.350 . S
C870 C867 1.463 . S
C870 N874 1.427 . S
C871 H861 0.929 . S
C871 C869 1.433 . S
C871 N874 1.384 . S
C872 H863 0.929 . S
C872 C864 1.378 . S
C872 C867 1.350 . S
C873 H860 0.929 . S
C873 C865 1.433 . S
C873 N875 1.384 . S
N874 C870 1.427 . S
N874 C871 1.384 . S
N875 C867 1.427 . S
N875 C873 1.384 . S
H876 C882 0.930 . S
H877 C886 0.930 . S
H878 C891 0.929 . S
H879 C889 0.929 . S
H880 C884 0.929 . S
H881 C890 0.929 . S
C882 H876 0.930 . S
C882 C883 1.367 . S
C882 C890 1.378 . S
C883 C882 1.367 . S
C883 C891 1.433 . S
C884 H880 0.929 . S
C884 C886 1.378 . S
C884 C888 1.350 . S
C885 C888 1.463 . S
C885 C890 1.350 . S
C885 N893 1.427 . S
C886 H877 0.930 . S
C886 C884 1.378 . S
C886 C887 1.367 . S
C887 C886 1.367 . S
C887 C889 1.433 . S
C888 C884 1.350 . S
C888 C885 1.463 . S
C888 N892 1.427 . S
C889 H879 0.929 . S
C889 C887 1.433 . S
C889 N892 1.384 . S
C890 H881 0.929 . S
C890 C882 1.378 . S
C890 C885 1.350 . S
C891 H878 0.929 . S
C891 C883 1.433 . S
C891 N893 1.384 . S
N892 C888 1.427 . S
N892 C889 1.384 . S
N893 C885 1.427 . S
N893 C891 1.384 . S
H894 C900 0.930 . S
H895 C904 0.930 . S
H896 C909 0.929 . S
H897 C907 0.929 . S
H898 C902 0.929 . S
H899 C908 0.929 . S
C900 H894 0.930 . S
C900 C901 1.367 . S
C900 C908 1.378 . S
C901 C900 1.367 . S
C901 C909 1.433 . S
C902 H898 0.929 . S
C902 C904 1.378 . S
C902 C906 1.350 . S
C903 C906 1.463 . S
C903 C908 1.350 . S
C903 N911 1.427 . S
C904 H895 0.930 . S
C904 C902 1.378 . S
C904 C905 1.367 . S
C905 C904 1.367 . S
C905 C907 1.433 . S
C906 C902 1.350 . S
C906 C903 1.463 . S
C906 N910 1.427 . S
C907 H897 0.929 . S
C907 C905 1.433 . S
C907 N910 1.384 . S
C908 H899 0.929 . S
C908 C900 1.378 . S
C908 C903 1.350 . S
C909 H896 0.929 . S
C909 C901 1.433 . S
C909 N911 1.384 . S
N910 C906 1.427 . S
N910 C907 1.384 . S
N911 C903 1.427 . S
N911 C909 1.384 . S
H912 C918 0.930 . S
H913 C922 0.930 . S
H914 C927 0.929 . S
H915 C925 0.929 . S
H916 C920 0.929 . S
H917 C926 0.929 . S
C918 H912 0.930 . S
C918 C919 1.367 . S
C918 C926 1.378 . S
C919 C918 1.367 . S
C919 C927 1.433 . S
C920 H916 0.929 . S
C920 C922 1.378 . S
C920 C924 1.350 . S
C921 C924 1.463 . S
C921 C926 1.350 . S
C921 N929 1.427 . S
C922 H913 0.930 . S
C922 C920 1.378 . S
C922 C923 1.367 . S
C923 C922 1.367 . S
C923 C925 1.433 . S
C924 C920 1.350 . S
C924 C921 1.463 . S
C924 N928 1.427 . S
C925 H915 0.929 . S
C925 C923 1.433 . S
C925 N928 1.384 . S
C926 H917 0.929 . S
C926 C918 1.378 . S
C926 C921 1.350 . S
C927 H914 0.929 . S
C927 C919 1.433 . S
C927 N929 1.384 . S
N928 C924 1.427 . S
N928 C925 1.384 . S
N929 C921 1.427 . S
N929 C927 1.384 . S
H930 C936 0.930 . S
H931 C940 0.930 . S
H932 C945 0.929 . S
H933 C943 0.929 . S
H934 C938 0.929 . S
H935 C944 0.929 . S
C936 H930 0.930 . S
C936 C937 1.367 . S
C936 C944 1.378 . S
C937 C936 1.367 . S
C937 C945 1.433 . S
C938 H934 0.929 . S
C938 C940 1.378 . S
C938 C942 1.350 . S
C939 C942 1.463 . S
C939 C944 1.350 . S
C939 N947 1.427 . S
C940 H931 0.930 . S
C940 C938 1.378 . S
C940 C941 1.367 . S
C941 C940 1.367 . S
C941 C943 1.433 . S
C942 C938 1.350 . S
C942 C939 1.463 . S
C942 N946 1.427 . S
C943 H933 0.929 . S
C943 C941 1.433 . S
C943 N946 1.384 . S
C944 H935 0.929 . S
C944 C936 1.378 . S
C944 C939 1.350 . S
C945 H932 0.929 . S
C945 C937 1.433 . S
C945 N947 1.384 . S
N946 C942 1.427 . S
N946 C943 1.384 . S
N947 C939 1.427 . S
N947 C945 1.384 . S
H948 C954 0.930 . S
H949 C958 0.930 . S
H950 C963 0.929 . S
H951 C961 0.929 . S
H952 C956 0.929 . S
H953 C962 0.929 . S
C954 H948 0.930 . S
C954 C955 1.367 . S
C954 C962 1.378 . S
C955 C954 1.367 . S
C955 C963 1.433 . S
C956 H952 0.929 . S
C956 C958 1.378 . S
C956 C960 1.350 . S
C957 C960 1.463 . S
C957 C962 1.350 . S
C957 N965 1.427 . S
C958 H949 0.930 . S
C958 C956 1.378 . S
C958 C959 1.367 . S
C959 C958 1.367 . S
C959 C961 1.433 . S
C960 C956 1.350 . S
C960 C957 1.463 . S
C960 N964 1.427 . S
C961 H951 0.929 . S
C961 C959 1.433 . S
C961 N964 1.384 . S
C962 H953 0.929 . S
C962 C954 1.378 . S
C962 C957 1.350 . S
C963 H950 0.929 . S
C963 C955 1.433 . S
C963 N965 1.384 . S
N964 C960 1.427 . S
N964 C961 1.384 . S
N965 C957 1.427 . S
N965 C963 1.384 . S
H966 C972 0.930 . S
H967 C976 0.930 . S
H968 C981 0.929 . S
H969 C979 0.929 . S
H970 C974 0.929 . S
H971 C980 0.929 . S
C972 H966 0.930 . S
C972 C973 1.367 . S
C972 C980 1.378 . S
C973 C972 1.367 . S
C973 C981 1.433 . S
C974 H970 0.929 . S
C974 C976 1.378 . S
C974 C978 1.350 . S
C975 C978 1.463 . S
C975 C980 1.350 . S
C975 N983 1.427 . S
C976 H967 0.930 . S
C976 C974 1.378 . S
C976 C977 1.367 . S
C977 C976 1.367 . S
C977 C979 1.433 . S
C978 C974 1.350 . S
C978 C975 1.463 . S
C978 N982 1.427 . S
C979 H969 0.929 . S
C979 C977 1.433 . S
C979 N982 1.384 . S
C980 H971 0.929 . S
C980 C972 1.378 . S
C980 C975 1.350 . S
C981 H968 0.929 . S
C981 C973 1.433 . S
C981 N983 1.384 . S
N982 C978 1.427 . S
N982 C979 1.384 . S
N983 C975 1.427 . S
N983 C981 1.384 . S
H984 C990 0.930 . S
H985 C994 0.930 . S
H986 C999 0.929 . S
H987 C997 0.929 . S
H988 C992 0.929 . S
H989 C998 0.929 . S
C990 H984 0.930 . S
C990 C991 1.367 . S
C990 C998 1.378 . S
C991 C990 1.367 . S
C991 C999 1.433 . S
C992 H988 0.929 . S
C992 C994 1.378 . S
C992 C996 1.350 . S
C993 C996 1.463 . S
C993 C998 1.350 . S
C993 N1001 1.427 . S
C994 H985 0.930 . S
C994 C992 1.378 . S
C994 C995 1.367 . S
C995 C994 1.367 . S
C995 C997 1.433 . S
C996 C992 1.350 . S
C996 C993 1.463 . S
C996 N1000 1.427 . S
C997 H987 0.929 . S
C997 C995 1.433 . S
C997 N1000 1.384 . S
C998 H989 0.929 . S
C998 C990 1.378 . S
C998 C993 1.350 . S
C999 H986 0.929 . S
C999 C991 1.433 . S
C999 N1001 1.384 . S
N1000 C996 1.427 . S
N1000 C997 1.384 . S
N1001 C993 1.427 . S
N1001 C999 1.384 . S
H1002 C1008 0.930 . S
H1003 C1012 0.930 . S
H1004 C1017 0.929 . S
H1005 C1015 0.929 . S
H1006 C1010 0.929 . S
H1007 C1016 0.929 . S
C1008 H1002 0.930 . S
C1008 C1009 1.367 . S
C1008 C1016 1.378 . S
C1009 C1008 1.367 . S
C1009 C1017 1.433 . S
C1010 H1006 0.929 . S
C1010 C1012 1.378 . S
C1010 C1014 1.350 . S
C1011 C1014 1.463 . S
C1011 C1016 1.350 . S
C1011 N1019 1.427 . S
C1012 H1003 0.930 . S
C1012 C1010 1.378 . S
C1012 C1013 1.367 . S
C1013 C1012 1.367 . S
C1013 C1015 1.433 . S
C1014 C1010 1.350 . S
C1014 C1011 1.463 . S
C1014 N1018 1.427 . S
C1015 H1005 0.929 . S
C1015 C1013 1.433 . S
C1015 N1018 1.384 . S
C1016 H1007 0.929 . S
C1016 C1008 1.378 . S
C1016 C1011 1.350 . S
C1017 H1004 0.929 . S
C1017 C1009 1.433 . S
C1017 N1019 1.384 . S
N1018 C1014 1.427 . S
N1018 C1015 1.384 . S
N1019 C1011 1.427 . S
N1019 C1017 1.384 . S
H1020 C1026 0.930 . S
H1021 C1030 0.930 . S
H1022 C1035 0.929 . S
H1023 C1033 0.929 . S
H1024 C1028 0.929 . S
H1025 C1034 0.929 . S
C1026 H1020 0.930 . S
C1026 C1027 1.367 . S
C1026 C1034 1.378 . S
C1027 C1026 1.367 . S
C1027 C1035 1.433 . S
C1028 H1024 0.929 . S
C1028 C1030 1.378 . S
C1028 C1032 1.350 . S
C1029 C1032 1.463 . S
C1029 C1034 1.350 . S
C1029 N1037 1.427 . S
C1030 H1021 0.930 . S
C1030 C1028 1.378 . S
C1030 C1031 1.367 . S
C1031 C1030 1.367 . S
C1031 C1033 1.433 . S
C1032 C1028 1.350 . S
C1032 C1029 1.463 . S
C1032 N1036 1.427 . S
C1033 H1023 0.929 . S
C1033 C1031 1.433 . S
C1033 N1036 1.384 . S
C1034 H1025 0.929 . S
C1034 C1026 1.378 . S
C1034 C1029 1.350 . S
C1035 H1022 0.929 . S
C1035 C1027 1.433 . S
C1035 N1037 1.384 . S
N1036 C1032 1.427 . S
N1036 C1033 1.384 . S
N1037 C1029 1.427 . S
N1037 C1035 1.384 . S
H1038 C1044 0.930 . S
H1039 C1048 0.930 . S
H1040 C1053 0.929 . S
H1041 C1051 0.929 . S
H1042 C1046 0.929 . S
H1043 C1052 0.929 . S
C1044 H1038 0.930 . S
C1044 C1045 1.367 . S
C1044 C1052 1.378 . S
C1045 C1044 1.367 . S
C1045 C1053 1.433 . S
C1046 H1042 0.929 . S
C1046 C1048 1.378 . S
C1046 C1050 1.350 . S
C1047 C1050 1.463 . S
C1047 C1052 1.350 . S
C1047 N1055 1.427 . S
C1048 H1039 0.930 . S
C1048 C1046 1.378 . S
C1048 C1049 1.367 . S
C1049 C1048 1.367 . S
C1049 C1051 1.433 . S
C1050 C1046 1.350 . S
C1050 C1047 1.463 . S
C1050 N1054 1.427 . S
C1051 H1041 0.929 . S
C1051 C1049 1.433 . S
C1051 N1054 1.384 . S
C1052 H1043 0.929 . S
C1052 C1044 1.378 . S
C1052 C1047 1.350 . S
C1053 H1040 0.929 . S
C1053 C1045 1.433 . S
C1053 N1055 1.384 . S
N1054 C1050 1.427 . S
N1054 C1051 1.384 . S
N1055 C1047 1.427 . S
N1055 C1053 1.384 . S
H1056 C1062 0.930 . S
H1057 C1066 0.930 . S
H1058 C1071 0.929 . S
H1059 C1069 0.929 . S
H1060 C1064 0.929 . S
H1061 C1070 0.929 . S
C1062 H1056 0.930 . S
C1062 C1063 1.367 . S
C1062 C1070 1.378 . S
C1063 C1062 1.367 . S
C1063 C1071 1.433 . S
C1064 H1060 0.929 . S
C1064 C1066 1.378 . S
C1064 C1068 1.350 . S
C1065 C1068 1.463 . S
C1065 C1070 1.350 . S
C1065 N1073 1.427 . S
C1066 H1057 0.930 . S
C1066 C1064 1.378 . S
C1066 C1067 1.367 . S
C1067 C1066 1.367 . S
C1067 C1069 1.433 . S
C1068 C1064 1.350 . S
C1068 C1065 1.463 . S
C1068 N1072 1.427 . S
C1069 H1059 0.929 . S
C1069 C1067 1.433 . S
C1069 N1072 1.384 . S
C1070 H1061 0.929 . S
C1070 C1062 1.378 . S
C1070 C1065 1.350 . S
C1071 H1058 0.929 . S
C1071 C1063 1.433 . S
C1071 N1073 1.384 . S
N1072 C1068 1.427 . S
N1072 C1069 1.384 . S
N1073 C1065 1.427 . S
N1073 C1071 1.384 . S
H1074 C1080 0.930 . S
H1075 C1084 0.930 . S
H1076 C1089 0.929 . S
H1077 C1087 0.929 . S
H1078 C1082 0.929 . S
H1079 C1088 0.929 . S
C1080 H1074 0.930 . S
C1080 C1081 1.367 . S
C1080 C1088 1.378 . S
C1081 C1080 1.367 . S
C1081 C1089 1.433 . S
C1082 H1078 0.929 . S
C1082 C1084 1.378 . S
C1082 C1086 1.350 . S
C1083 C1086 1.463 . S
C1083 C1088 1.350 . S
C1083 N1091 1.427 . S
C1084 H1075 0.930 . S
C1084 C1082 1.378 . S
C1084 C1085 1.367 . S
C1085 C1084 1.367 . S
C1085 C1087 1.433 . S
C1086 C1082 1.350 . S
C1086 C1083 1.463 . S
C1086 N1090 1.427 . S
C1087 H1077 0.929 . S
C1087 C1085 1.433 . S
C1087 N1090 1.384 . S
C1088 H1079 0.929 . S
C1088 C1080 1.378 . S
C1088 C1083 1.350 . S
C1089 H1076 0.929 . S
C1089 C1081 1.433 . S
C1089 N1091 1.384 . S
N1090 C1086 1.427 . S
N1090 C1087 1.384 . S
N1091 C1083 1.427 . S
N1091 C1089 1.384 . S
H1092 C1098 0.930 . S
H1093 C1102 0.930 . S
H1094 C1107 0.929 . S
H1095 C1105 0.929 . S
H1096 C1100 0.929 . S
H1097 C1106 0.929 . S
C1098 H1092 0.930 . S
C1098 C1099 1.367 . S
C1098 C1106 1.378 . S
C1099 C1098 1.367 . S
C1099 C1107 1.433 . S
C1100 H1096 0.929 . S
C1100 C1102 1.378 . S
C1100 C1104 1.350 . S
C1101 C1104 1.463 . S
C1101 C1106 1.350 . S
C1101 N1109 1.427 . S
C1102 H1093 0.930 . S
C1102 C1100 1.378 . S
C1102 C1103 1.367 . S
C1103 C1102 1.367 . S
C1103 C1105 1.433 . S
C1104 C1100 1.350 . S
C1104 C1101 1.463 . S
C1104 N1108 1.427 . S
C1105 H1095 0.929 . S
C1105 C1103 1.433 . S
C1105 N1108 1.384 . S
C1106 H1097 0.929 . S
C1106 C1098 1.378 . S
C1106 C1101 1.350 . S
C1107 H1094 0.929 . S
C1107 C1099 1.433 . S
C1107 N1109 1.384 . S
N1108 C1104 1.427 . S
N1108 C1105 1.384 . S
N1109 C1101 1.427 . S
N1109 C1107 1.384 . S
H1110 C1116 0.930 . S
H1111 C1120 0.930 . S
H1112 C1125 0.929 . S
H1113 C1123 0.929 . S
H1114 C1118 0.929 . S
H1115 C1124 0.929 . S
C1116 H1110 0.930 . S
C1116 C1117 1.367 . S
C1116 C1124 1.378 . S
C1117 C1116 1.367 . S
C1117 C1125 1.433 . S
C1118 H1114 0.929 . S
C1118 C1120 1.378 . S
C1118 C1122 1.350 . S
C1119 C1122 1.463 . S
C1119 C1124 1.350 . S
C1119 N1127 1.427 . S
C1120 H1111 0.930 . S
C1120 C1118 1.378 . S
C1120 C1121 1.367 . S
C1121 C1120 1.367 . S
C1121 C1123 1.433 . S
C1122 C1118 1.350 . S
C1122 C1119 1.463 . S
C1122 N1126 1.427 . S
C1123 H1113 0.929 . S
C1123 C1121 1.433 . S
C1123 N1126 1.384 . S
C1124 H1115 0.929 . S
C1124 C1116 1.378 . S
C1124 C1119 1.350 . S
C1125 H1112 0.929 . S
C1125 C1117 1.433 . S
C1125 N1127 1.384 . S
N1126 C1122 1.427 . S
N1126 C1123 1.384 . S
N1127 C1119 1.427 . S
N1127 C1125 1.384 . S
H1128 C1134 0.930 . S
H1129 C1138 0.930 . S
H1130 C1143 0.929 . S
H1131 C1141 0.929 . S
H1132 C1136 0.929 . S
H1133 C1142 0.929 . S
C1134 H1128 0.930 . S
C1134 C1135 1.367 . S
C1134 C1142 1.378 . S
C1135 C1134 1.367 . S
C1135 C1143 1.433 . S
C1136 H1132 0.929 . S
C1136 C1138 1.378 . S
C1136 C1140 1.350 . S
C1137 C1140 1.463 . S
C1137 C1142 1.350 . S
C1137 N1145 1.427 . S
C1138 H1129 0.930 . S
C1138 C1136 1.378 . S
C1138 C1139 1.367 . S
C1139 C1138 1.367 . S
C1139 C1141 1.433 . S
C1140 C1136 1.350 . S
C1140 C1137 1.463 . S
C1140 N1144 1.427 . S
C1141 H1131 0.929 . S
C1141 C1139 1.433 . S
C1141 N1144 1.384 . S
C1142 H1133 0.929 . S
C1142 C1134 1.378 . S
C1142 C1137 1.350 . S
C1143 H1130 0.929 . S
C1143 C1135 1.433 . S
C1143 N1145 1.384 . S
N1144 C1140 1.427 . S
N1144 C1141 1.384 . S
N1145 C1137 1.427 . S
N1145 C1143 1.384 . S
H1146 C1152 0.930 . S
H1147 C1156 0.930 . S
H1148 C1161 0.929 . S
H1149 C1159 0.929 . S
H1150 C1154 0.929 . S
H1151 C1160 0.929 . S
C1152 H1146 0.930 . S
C1152 C1153 1.367 . S
C1152 C1160 1.378 . S
C1153 C1152 1.367 . S
C1153 C1161 1.433 . S
C1154 H1150 0.929 . S
C1154 C1156 1.378 . S
C1154 C1158 1.350 . S
C1155 C1158 1.463 . S
C1155 C1160 1.350 . S
C1155 N1163 1.427 . S
C1156 H1147 0.930 . S
C1156 C1154 1.378 . S
C1156 C1157 1.367 . S
C1157 C1156 1.367 . S
C1157 C1159 1.433 . S
C1158 C1154 1.350 . S
C1158 C1155 1.463 . S
C1158 N1162 1.427 . S
C1159 H1149 0.929 . S
C1159 C1157 1.433 . S
C1159 N1162 1.384 . S
C1160 H1151 0.929 . S
C1160 C1152 1.378 . S
C1160 C1155 1.350 . S
C1161 H1148 0.929 . S
C1161 C1153 1.433 . S
C1161 N1163 1.384 . S
N1162 C1158 1.427 . S
N1162 C1159 1.384 . S
N1163 C1155 1.427 . S
N1163 C1161 1.384 . S
C415 C241 1.679 . S
C419 C22 1.750 . S
C433 C56 1.754 . S
C437 C275 1.664 . S
C451 C90 1.755 . S
C455 C207 1.666 . S
C469 C124 1.751 . S
C473 C377 1.680 . S
C487 C307 1.669 . S
C491 C158 1.756 . S
C505 C192 1.754 . S
C509 C341 1.665 . S
C523 C219 1.749 . S
C527 C35 1.672 . S
C541 C253 1.750 . S
C545 C69 1.678 . S
C559 C1 1.665 . S
C563 C287 1.755 . S
C577 C328 1.754 . S
C581 C171 1.679 . S
C595 C362 1.750 . S
C599 C103 1.668 . S
C613 C137 1.680 . S
C617 C389 1.753 . S
C631 C3 1.470 . S
C635 C105 1.474 . S
C649 C37 1.460 . S
C653 C139 1.470 . S
C667 C71 1.473 . S
C671 C173 1.472 . S
C685 C309 1.463 . S
C689 C205 1.456 . S
C703 C343 1.467 . S
C707 C239 1.473 . S
C721 C375 1.460 . S
C725 C273 1.455 . S
C739 C17 1.948 . S
C743 C49 1.679 . S
C757 C51 1.951 . S
C761 C83 1.692 . S
C775 C85 1.951 . S
C779 C15 1.696 . S
C793 C185 1.678 . S
C797 C119 1.944 . S
C811 C153 1.946 . S
C815 C117 1.691 . S
C829 C151 1.680 . S
C833 C187 1.944 . S
C847 C260 1.676 . S
C851 C221 1.945 . S
C865 C255 1.945 . S
C869 C294 1.687 . S
C883 C289 1.951 . S
C887 C226 1.698 . S
C901 C323 1.944 . S
C905 C396 1.683 . S
C919 C357 1.951 . S
C923 C321 1.698 . S
C937 C391 1.951 . S
C941 C355 1.698 . S
C955 C368 1.235 . S
C959 C6 1.234 1_556 S
C973 C380 1.235 . S
C977 C40 1.230 1_556 S
C991 C74 1.232 1_556 S
C995 C334 1.234 . S
C1009 C108 1.230 . S
C1013 C278 1.235 . S
C1027 C142 1.233 . S
C1031 C210 1.235 . S
C1045 C244 1.235 . S
C1049 C176 1.229 . S
C1063 C232 1.229 1_554 S
C1067 C164 1.235 . S
C1081 C266 1.232 1_554 S
C1085 C198 1.234 . S
C1099 C300 1.229 1_554 S
C1103 C130 1.235 . S
C1117 C312 1.228 . S
C1121 C96 1.235 . S
C1135 C346 1.232 . S
C1139 C28 1.234 . S
C1153 C402 1.233 . S
C1157 C62 1.235 . S
