# Generated by pormake.
# Topology tfs, (6)-cn, num edge types: 1
# Building blocks:
#     Node 0, Type 0, BuildingBlock: BETFAJ_clean_sbu_0, # of connection points: 6
#     Node 1, Type 0, BuildingBlock: BETFAJ_clean_sbu_0, # of connection points: 6
#     Node 2, Type 0, BuildingBlock: BETFAJ_clean_sbu_0, # of connection points: 6
#     Node 3, Type 0, BuildingBlock: BETFAJ_clean_sbu_0, # of connection points: 6
#     Node 4, Type 0, BuildingBlock: BETFAJ_clean_sbu_0, # of connection points: 6
#     Node 5, Type 0, BuildingBlock: BETFAJ_clean_sbu_0, # of connection points: 6
#     Edge 6, Type (0, 0), BuildingBlock: KIFKEQ_clean_linker_1, # of connection points: 2
#     Edge 7, Type (0, 0), BuildingBlock: KIFKEQ_clean_linker_1, # of connection points: 2
#     Edge 8, Type (0, 0), BuildingBlock: KIFKEQ_clean_linker_1, # of connection points: 2
#     Edge 9, Type (0, 0), BuildingBlock: KIFKEQ_clean_linker_1, # of connection points: 2
#     Edge 10, Type (0, 0), BuildingBlock: KIFKEQ_clean_linker_1, # of connection points: 2
#     Edge 11, Type (0, 0), BuildingBlock: KIFKEQ_clean_linker_1, # of connection points: 2
#     Edge 12, Type (0, 0), BuildingBlock: KIFKEQ_clean_linker_1, # of connection points: 2
#     Edge 13, Type (0, 0), BuildingBlock: KIFKEQ_clean_linker_1, # of connection points: 2
#     Edge 14, Type (0, 0), BuildingBlock: KIFKEQ_clean_linker_1, # of connection points: 2
#     Edge 15, Type (0, 0), BuildingBlock: KIFKEQ_clean_linker_1, # of connection points: 2
#     Edge 16, Type (0, 0), BuildingBlock: KIFKEQ_clean_linker_1, # of connection points: 2
#     Edge 17, Type (0, 0), BuildingBlock: KIFKEQ_clean_linker_1, # of connection points: 2
#     Edge 18, Type (0, 0), BuildingBlock: KIFKEQ_clean_linker_1, # of connection points: 2
#     Edge 19, Type (0, 0), BuildingBlock: KIFKEQ_clean_linker_1, # of connection points: 2
#     Edge 20, Type (0, 0), BuildingBlock: KIFKEQ_clean_linker_1, # of connection points: 2
#     Edge 21, Type (0, 0), BuildingBlock: KIFKEQ_clean_linker_1, # of connection points: 2
#     Edge 22, Type (0, 0), BuildingBlock: KIFKEQ_clean_linker_1, # of connection points: 2
#     Edge 23, Type (0, 0), BuildingBlock: KIFKEQ_clean_linker_1, # of connection points: 2
# Relax obj value: 0.558
# Max RMSD: 0.460
# Mean RMSD: 0.361
data_MOF--net-tfs--node1-BETFAJ_clean_sbu_0--edge1-KIFKEQ_clean_linker_1
_symmetry_space_group_name_H-M    P1
_symmetry_Int_Tables_number       1
_symmetry_cell_setting            triclinic
loop_
_symmetry_equiv_pos_as_xyz
'x, y, z'
_cell_length_a     55.611027
_cell_length_b     52.098885
_cell_length_c     13.147307
_cell_angle_alpha  98.67575
_cell_angle_beta   91.632767
_cell_angle_gamma 127.85641
loop_
_atom_site_label
_atom_site_type_symbol
_atom_site_fract_x
_atom_site_fract_y
_atom_site_fract_z
_atom_type_partial_charge
Sm0 Sm 0.30853 0.44284 0.6022 0.0
Sm1 Sm 0.29714 0.49295 0.57128 0.0
C2 C 0.32307 0.40685 0.66304 0.0
C3 C 0.33999 0.3941 0.63412 0.0
C4 C 0.34104 0.375 0.69583 0.0
C5 C 0.35423 0.35981 0.66515 0.0
C6 C 0.36672 0.36339 0.57181 0.0
C7 C 0.36624 0.38327 0.51117 0.0
C8 C 0.35291 0.39839 0.54188 0.0
C9 C 0.29835 0.44498 0.40019 0.0
C10 C 0.23818 0.41547 0.55505 0.0
C11 C 0.28134 0.52946 0.52902 0.0
C12 C 0.27682 0.55159 0.59214 0.0
C13 C 0.26137 0.56118 0.54524 0.0
C14 C 0.25885 0.58402 0.60332 0.0
C15 C 0.27187 0.59773 0.70929 0.0
C16 C 0.2866 0.58727 0.75664 0.0
C17 C 0.28897 0.56431 0.6986 0.0
C18 C 0.30162 0.4872 0.77361 0.0
C19 C 0.36717 0.52127 0.60003 0.0
O20 O 0.2983 0.39436 0.59863 0.0
O21 O 0.33909 0.43881 0.70054 0.0
O22 O 0.31373 0.46906 0.47594 0.0
O23 O 0.29116 0.41832 0.42624 0.0
O24 O 0.25661 0.41346 0.6135 0.0
O25 O 0.24976 0.4413 0.51116 0.0
O26 O 0.30964 0.53991 0.53773 0.0
O27 O 0.26117 0.49775 0.52835 0.0
O28 O 0.2889 0.46415 0.69477 0.0
O29 O 0.31362 0.51519 0.74677 0.0
O30 O 0.34731 0.52239 0.54823 0.0
O31 O 0.35774 0.49536 0.64176 0.0
H32 H 0.33107 0.37126 0.76706 0.0
H33 H 0.35459 0.34516 0.71461 0.0
H34 H 0.37536 0.38635 0.43839 0.0
H35 H 0.35206 0.41278 0.49255 0.0
H36 H 0.25188 0.5516 0.46315 0.0
H37 H 0.24769 0.59188 0.56424 0.0
H38 H 0.29659 0.59712 0.83825 0.0
H39 H 0.30085 0.55705 0.73636 0.0
Sm40 Sm 0.85831 0.18116 0.43591 0.0
Sm41 Sm 0.79458 0.15583 0.311 0.0
C42 C 0.90833 0.20188 0.55946 0.0
C43 C 0.94181 0.22169 0.55563 0.0
C44 C 0.96307 0.24307 0.64649 0.0
C45 C 0.99486 0.26257 0.64423 0.0
C46 C 1.00622 0.2611 0.55083 0.0
C47 C 0.9847 0.23949 0.45981 0.0
C48 C 0.95291 0.22014 0.4621 0.0
C49 C 0.84915 0.15894 0.22463 0.0
C50 C 0.7941 0.10593 0.42965 0.0
C51 C 0.74777 0.13983 0.18072 0.0
C52 C 0.72527 0.14644 0.18157 0.0
C53 C 0.72564 0.16493 0.11313 0.0
C54 C 0.70465 0.17146 0.11298 0.0
C55 C 0.68256 0.15941 0.18076 0.0
C56 C 0.68216 0.14081 0.249 0.0
C57 C 0.70326 0.13445 0.24957 0.0
C58 C 0.80514 0.18266 0.51956 0.0
C59 C 0.85912 0.23024 0.30757 0.0
O60 O 0.88994 0.1725 0.49688 0.0
O61 O 0.89735 0.21808 0.56488 0.0
O62 O 0.8286 0.14657 0.28228 0.0
O63 O 0.87605 0.18087 0.28124 0.0
O64 O 0.82039 0.13236 0.48766 0.0
O65 O 0.78268 0.10753 0.34322 0.0
O66 O 0.77651 0.16504 0.17954 0.0
O67 O 0.74511 0.12056 0.24066 0.0
O68 O 0.82502 0.1919 0.46 0.0
O69 O 0.77782 0.16094 0.46589 0.0
O70 O 0.83121 0.20426 0.25984 0.0
O71 O 0.87327 0.22933 0.38811 0.0
H72 H 0.95506 0.2449 0.71937 0.0
H73 H 1.01051 0.27926 0.71558 0.0
H74 H 0.99236 0.23721 0.38664 0.0
H75 H 0.93702 0.20399 0.39063 0.0
H76 H 0.7422 0.17432 0.05943 0.0
H77 H 0.70543 0.18555 0.0586 0.0
H78 H 0.66578 0.1315 0.30323 0.0
H79 H 0.70231 0.1202 0.30366 0.0
Sm80 Sm 0.63676 0.80298 0.59229 0.0
Sm81 Sm 0.60585 0.82662 0.72504 0.0
C82 C 0.66176 0.78869 0.44951 0.0
C83 C 0.68317 0.78107 0.44417 0.0
C84 C 0.71293 0.80273 0.50253 0.0
C85 C 0.73217 0.79397 0.49966 0.0
C86 C 0.72179 0.76333 0.43937 0.0
C87 C 0.69226 0.74204 0.37962 0.0
C88 C 0.67318 0.75092 0.3817 0.0
C89 C 0.65348 0.8172 0.80431 0.0
C90 C 0.6649 0.88233 0.63274 0.0
C91 C 0.58275 0.84224 0.87163 0.0
C92 C 0.58527 0.87133 0.91757 0.0
C93 C 0.58028 0.87544 0.02049 0.0
C94 C 0.57907 0.90092 0.06119 0.0
C95 C 0.58259 0.92243 -0.00108 0.0
C96 C 0.5901 0.91974 0.89853 0.0
C97 C 0.59154 0.89446 0.85837 0.0
C98 C 0.59259 0.81588 0.51211 0.0
C99 C 0.57252 0.74662 0.66297 0.0
O100 O 0.6731 0.8191 0.49223 0.0
O101 O 0.63513 0.76624 0.47575 0.0
O102 O 0.64933 0.8329 0.75298 0.0
O103 O 0.65078 0.79337 0.74229 0.0
O104 O 0.66149 0.85723 0.57144 0.0
O105 O 0.64863 0.87773 0.70925 0.0
O106 O 0.56874 0.8277 0.77518 0.0
O107 O 0.60746 0.84494 0.89051 0.0
O108 O 0.59435 0.79824 0.56195 0.0
O109 O 0.59606 0.83991 0.57651 0.0
O110 O 0.57796 0.77103 0.73496 0.0
O111 O 0.58931 0.75302 0.58736 0.0
H112 H 0.72119 0.82615 0.55156 0.0
H113 H 0.75482 0.81073 0.54665 0.0
H114 H 0.68391 0.71848 0.3313 0.0
H115 H 0.65038 0.73398 0.33564 0.0
H116 H 0.57608 0.85813 0.06788 0.0
H117 H 0.57378 0.90269 0.13935 0.0
H118 H 0.59265 0.93557 0.84783 0.0
H119 H 0.59606 0.892 0.7793 0.0
Sm120 Sm 0.86749 0.57177 0.0908 0.0
Sm121 Sm 0.88157 0.52324 0.00269 0.0
C122 C 0.85557 0.60891 0.19389 0.0
C123 C 0.84904 0.62996 0.25173 0.0
C124 C 0.82159 0.61546 0.29395 0.0
C125 C 0.81361 0.63493 0.33766 0.0
C126 C 0.83292 0.66924 0.33974 0.0
C127 C 0.86108 0.68395 0.30187 0.0
C128 C 0.86908 0.66449 0.25835 0.0
C129 C 0.88934 0.58005 0.9033 0.0
C130 C 0.92419 0.57954 0.21936 0.0
C131 C 0.9039 0.49333 0.92443 0.0
C132 C 0.90949 0.47201 0.96304 0.0
C133 C 0.89793 0.44142 0.89936 0.0
C134 C 0.89958 0.41895 0.93836 0.0
C135 C 0.91307 0.42672 0.04194 0.0
C136 C 0.9255 0.45791 0.1046 0.0
C137 C 0.92355 0.48024 0.06582 0.0
C138 C 0.84293 0.5027 0.15184 0.0
C139 C 0.81825 0.50701 0.91053 0.0
O140 O 0.83574 0.57624 0.17485 0.0
O141 O 0.88185 0.62167 0.15907 0.0
O142 O 0.89755 0.57268 -0.02345 0.0
O143 O 0.87136 0.58667 0.93286 0.0
O144 O 0.90792 0.59003 0.21232 0.0
O145 O 0.91924 0.55503 0.14905 0.0
O146 O 0.87491 0.48024 0.9037 0.0
O147 O 0.92147 0.52475 0.97161 0.0
O148 O 0.86505 0.5318 0.14626 0.0
O149 O 0.84259 0.48238 0.08007 0.0
O150 O 0.84115 0.50729 0.88435 0.0
O151 O 0.82127 0.52568 -0.002 0.0
H152 H 0.80574 0.5889 0.29002 0.0
H153 H 0.7916 0.6228 0.36521 0.0
H154 H 0.87657 0.7104 0.3036 0.0
H155 H 0.89047 0.67633 0.22668 0.0
H156 H 0.88663 0.43441 0.82032 0.0
H157 H 0.88921 0.39498 0.88826 0.0
H158 H 0.93641 0.46495 0.1842 0.0
H159 H 0.93239 0.50356 0.11712 0.0
Sm160 Sm 0.23182 0.81308 0.88233 0.0
Sm161 Sm 0.294 0.85296 0.79636 0.0
C162 C 0.18372 0.77963 -0.02004 0.0
C163 C 0.15051 0.75831 0.94208 0.0
C164 C 0.13085 0.72629 0.96283 0.0
C165 C 0.10076 0.70317 0.90889 0.0
C166 C 0.08996 0.7119 0.83395 0.0
C167 C 0.10911 0.74467 0.81848 0.0
C168 C 0.13914 0.7676 0.87163 0.0
C169 C 0.22703 0.7954 0.67015 0.0
C170 C 0.24935 0.87309 0.78037 0.0
C171 C 0.34221 0.88857 0.70151 0.0
C172 C 0.37551 0.91228 0.73967 0.0
C173 C 0.39544 0.90887 0.68869 0.0
C174 C 0.42623 0.9276 0.73351 0.0
C175 C 0.43761 0.9502 0.83001 0.0
C176 C 0.418 0.95508 0.87735 0.0
C177 C 0.38718 0.93614 0.83301 0.0
C178 C 0.29772 0.8703 0.00849 0.0
C179 C 0.27575 0.79081 0.88691 0.0
O180 O 0.19955 0.81141 -0.01757 0.0
O181 O 0.19741 0.76791 0.94169 0.0
O182 O 0.24778 0.80282 0.73815 0.0
O183 O 0.20616 0.79486 0.71414 0.0
O184 O 0.23701 0.85904 0.85941 0.0
O185 O 0.26652 0.86783 0.72936 0.0
O186 O 0.32885 0.85751 0.70392 0.0
O187 O 0.3261 0.89791 0.73328 0.0
O188 O 0.27772 0.86312 0.93826 0.0
O189 O 0.31893 0.87088 0.96733 0.0
O190 O 0.28948 0.80757 0.81404 0.0
O191 O 0.25736 0.79417 0.93844 0.0
H192 H 0.13932 0.71862 0.01639 0.0
H193 H 0.08637 0.67815 0.92275 0.0
H194 H 0.10162 0.75202 0.76018 0.0
H195 H 0.15396 0.79198 0.8529 0.0
H196 H 0.38683 0.89049 0.61695 0.0
H197 H 0.44051 0.92277 0.69556 0.0
H198 H 0.42613 0.97255 0.95091 0.0
H199 H 0.37224 0.93922 0.87426 0.0
Sm200 Sm 0.47178 0.19538 0.31263 0.0
Sm201 Sm 0.51609 0.26019 0.23123 0.0
C202 C 0.43902 0.1488 0.42094 0.0
C203 C 0.40832 0.1217 0.4425 0.0
C204 C 0.3912 0.12794 0.50241 0.0
C205 C 0.36401 0.10171 0.53217 0.0
C206 C 0.3536 0.06887 0.50307 0.0
C207 C 0.37059 0.06285 0.4414 0.0
C208 C 0.39753 0.08889 0.41159 0.0
C209 C 0.45786 0.19109 0.10482 0.0
C210 C 0.45919 0.25093 0.32932 0.0
C211 C 0.5488 0.30421 0.11535 0.0
C212 C 0.56993 0.31104 0.03908 0.0
C213 C 0.56141 0.31 0.93591 0.0
C214 C 0.58236 0.31982 0.86531 0.0
C215 C 0.61225 0.33096 0.89691 0.0
C216 C 0.62001 0.33009 -0.00148 0.0
C217 C 0.59908 0.3202 0.06881 0.0
C218 C 0.52676 0.26485 0.44124 0.0
C219 C 0.53223 0.20905 0.23109 0.0
O220 O 0.45022 0.17975 0.45421 0.0
O221 O 0.4465 0.14355 0.33108 0.0
O222 O 0.46702 0.21456 0.17934 0.0
O223 O 0.45411 0.16686 0.1386 0.0
O224 O 0.45378 0.22527 0.36343 0.0
O225 O 0.4797 0.26614 0.26684 0.0
O226 O 0.52008 0.27778 0.085 0.0
O227 O 0.55866 0.30883 0.21332 0.0
O228 O 0.5201 0.24185 0.36876 0.0
O229 O 0.52939 0.28808 0.40362 0.0
O230 O 0.53341 0.22989 0.1805 0.0
O231 O 0.51386 0.19711 0.30188 0.0
H232 H 0.39917 0.15309 0.52847 0.0
H233 H 0.35145 0.10723 0.57935 0.0
H234 H 0.36393 0.03815 0.41979 0.0
H235 H 0.41059 0.08342 0.36735 0.0
H236 H 0.53889 0.30265 0.91082 0.0
H237 H 0.57558 0.31987 0.7873 0.0
H238 H 0.64296 0.33897 0.02616 0.0
H239 H 0.60621 0.32096 0.14745 0.0
H240 H 0.42827 0.24204 0.49762 0.0
H241 H 0.45282 0.28997 0.23554 0.0
H242 H 0.40567 0.26871 0.55806 0.0
H243 H 0.42975 0.31566 0.29366 0.0
H244 H 0.41894 0.38728 0.4831 0.0
H245 H 0.43978 0.35881 0.42604 0.0
H246 H 0.36437 0.27118 0.5239 0.0
H247 H 0.34373 0.29989 0.58207 0.0
C248 C 0.42844 0.25783 0.45211 0.0
C249 C 0.44258 0.26402 0.36219 0.0
C250 C 0.41547 0.27313 0.48663 0.0
C251 C 0.4162 0.29481 0.43162 0.0
C252 C 0.42943 0.29993 0.3398 0.0
C253 C 0.4425 0.28491 0.30594 0.0
C254 C 0.40667 0.36187 0.49189 0.0
C255 C 0.37961 0.34596 0.53721 0.0
C256 C 0.41861 0.34544 0.45896 0.0
C257 C 0.40373 0.31249 0.46966 0.0
C258 C 0.37674 0.29664 0.51558 0.0
C259 C 0.36487 0.31314 0.54891 0.0
H260 H 0.20459 0.35868 0.63396 0.0
H261 H 0.19436 0.41652 0.46123 0.0
H262 H 0.14881 0.32005 0.629 0.0
H263 H 0.13907 0.37892 0.45974 0.0
H264 H 0.03765 0.29166 0.39459 0.0
H265 H 0.09271 0.32588 0.3901 0.0
H266 H 0.10771 0.31484 0.69945 0.0
H267 H 0.05239 0.27876 0.70111 0.0
C268 C 0.19048 0.36314 0.59473 0.0
C269 C 0.20408 0.39071 0.54772 0.0
C270 C 0.15843 0.34112 0.59268 0.0
C271 C 0.13914 0.34619 0.5441 0.0
C272 C 0.15287 0.37366 0.49631 0.0
C273 C 0.18479 0.39546 0.49771 0.0
C274 C 0.05254 0.29598 0.46111 0.0
C275 C 0.04024 0.28223 0.54822 0.0
C276 C 0.08435 0.31613 0.45917 0.0
C277 C 0.10499 0.32348 0.54465 0.0
C278 C 0.0927 0.30956 0.6315 0.0
C279 C 0.06084 0.28918 0.63312 0.0
H280 H 0.7319 0.05704 0.39321 0.0
H281 H 0.81601 0.08213 0.54259 0.0
H282 H 0.70203 1.00387 0.44844 0.0
H283 H 0.78597 0.02819 0.59496 0.0
H284 H 0.71336 0.9071 0.52293 0.0
H285 H 0.74613 0.96219 0.47919 0.0
H286 H 0.69546 0.98834 0.64262 0.0
H287 H 0.66327 0.93385 0.68903 0.0
C288 C 0.74403 0.05109 0.43721 0.0
C289 C 0.77632 0.07372 0.46329 0.0
C290 C 0.7269 0.02074 0.46915 0.0
C291 C 0.74172 1.01196 0.52568 0.0
C292 C 0.77403 0.03437 0.55108 0.0
C293 C 0.79116 0.06521 0.52147 0.0
C294 C 0.70943 0.92473 0.55047 0.0
C295 C 0.68579 0.91612 0.6099 0.0
C296 C 0.72824 0.95624 0.52569 0.0
C297 C 0.72328 0.97943 0.55764 0.0
C298 C 0.69972 0.97088 0.61705 0.0
C299 C 0.68141 0.93973 0.64389 0.0
H300 H 0.80427 0.66766 0.50733 0.0
H301 H 0.837 0.71442 0.2442 0.0
H302 H 0.78069 0.69432 0.5462 0.0
H303 H 0.81356 0.74101 0.28312 0.0
H304 H 0.7826 0.79996 0.4175 0.0
H305 H 0.81399 0.78164 0.41024 0.0
H306 H 0.73591 0.68512 0.45376 0.0
H307 H 0.70491 0.70363 0.46302 0.0
C308 C 0.80668 0.68388 0.45854 0.0
C309 C 0.82232 0.68881 0.37244 0.0
C310 C 0.79321 0.69912 0.48075 0.0
C311 C 0.79514 0.71955 0.41725 0.0
C312 C 0.81204 0.72574 0.33422 0.0
C313 C 0.82548 0.71051 0.31199 0.0
C314 C 0.77239 0.77501 0.42693 0.0
C315 C 0.74134 0.75309 0.44003 0.0
C316 C 0.79024 0.76449 0.42221 0.0
C317 C 0.77738 0.73198 0.43153 0.0
C318 C 0.74657 0.71044 0.44763 0.0
C319 C 0.72872 0.72087 0.45162 0.0
H320 H 0.06778 0.64973 0.73459 0.0
H321 H 0.04623 0.71706 0.77052 0.0
H322 H 0.02402 0.61184 0.59447 0.0
H323 H 1.00337 0.68 0.62843 0.0
H324 H 0.91788 0.60118 0.40892 0.0
H325 H 0.95349 0.62679 0.57072 0.0
H326 H 1.01371 0.61356 0.41472 0.0
H327 H 0.97715 0.58664 0.25229 0.0
C328 C 0.05327 0.65606 0.71413 0.0
C329 C 0.06046 0.68642 0.76304 0.0
C330 C 0.0285 0.63459 0.63297 0.0
C331 C 1.01044 0.64306 0.59956 0.0
C332 C 1.01664 0.67255 0.65269 0.0
C333 C 0.04134 0.69395 0.73363 0.0
C334 C 0.93874 0.60372 0.40902 0.0
C335 C 0.94532 0.59288 0.31742 0.0
C336 C 0.95909 0.61833 0.5019 0.0
C337 C 0.9867 0.62281 0.50516 0.0
C338 C 0.99254 0.61034 0.41478 0.0
C339 C 0.97183 0.59522 0.32164 0.0
H340 H 0.28383 0.93531 0.89435 0.0
H341 H 0.21816 0.87212 0.61449 0.0
H342 H 0.3005 0.98422 0.82951 0.0
H343 H 0.23307 0.92091 0.55086 0.0
H344 H 0.30987 1.0041 0.40047 0.0
H345 H 0.27514 0.95686 0.47692 0.0
H346 H 0.29956 0.02319 0.77197 0.0
H347 H 0.33664 0.07053 0.69695 0.0
C348 C 0.27179 0.93203 0.82122 0.0
C349 C 0.24983 0.90017 0.75918 0.0
C350 C 0.28131 0.96011 0.78353 0.0
C351 C 0.26873 0.95679 0.68323 0.0
C352 C 0.24408 0.92459 0.6268 0.0
C353 C 0.23513 0.89653 0.66367 0.0
C354 C 0.30776 1.00868 0.48162 0.0
C355 C 0.32685 0.04111 0.54321 0.0
C356 C 0.28728 0.98144 0.52547 0.0
C357 C 0.28476 0.98589 0.63188 0.0
C358 C 0.30146 0.01862 0.69065 0.0
C359 C 0.32247 0.04591 0.64709 0.0
H360 H 0.322 0.78867 0.84347 0.0
H361 H 0.23495 0.73419 0.95902 0.0
H362 H 0.32128 0.74113 0.82917 0.0
H363 H 0.23424 0.6863 0.94482 0.0
H364 H 0.22431 0.60056 0.7089 0.0
H365 H 0.22677 0.64806 0.78391 0.0
H366 H 0.32191 0.70281 0.91758 0.0
H367 H 0.31966 0.65559 0.8406 0.0
C368 C 0.30306 0.76678 0.86827 0.0
C369 C 0.27836 0.76499 0.90119 0.0
C370 C 0.30273 0.73957 0.86069 0.0
C371 C 0.27754 0.70984 0.88491 0.0
C372 C 0.2538 0.7088 0.92462 0.0
C373 C 0.25432 0.73628 0.93346 0.0
C374 C 0.24563 0.6226 0.75531 0.0
C375 C 0.27188 0.62447 0.76768 0.0
C376 C 0.24694 0.64966 0.79939 0.0
C377 C 0.2746 0.67924 0.85623 0.0
C378 C 0.30035 0.68043 0.87351 0.0
C379 C 0.29899 0.6533 0.82994 0.0
H380 H 0.57595 0.2304 0.09994 0.0
H381 H 0.5369 0.16925 0.3285 0.0
H382 H 0.61155 0.21778 0.08105 0.0
H383 H 0.57271 0.15745 0.31176 0.0
H384 H 0.62094 0.11651 0.19385 0.0
H385 H 0.58434 0.12764 0.19824 0.0
H386 H 0.65635 0.22886 0.17229 0.0
H387 H 0.69293 0.21752 0.16671 0.0
C388 C 0.57489 0.21426 0.14602 0.0
C389 C 0.55343 0.20083 0.21556 0.0
C390 C 0.59547 0.20719 0.13576 0.0
C391 C 0.59509 0.18649 0.19471 0.0
C392 C 0.57345 0.17298 0.26361 0.0
C393 C 0.55294 0.17997 0.27371 0.0
C394 C 0.62904 0.1412 0.18957 0.0
C395 C 0.65999 0.16614 0.18054 0.0
C396 C 0.60801 0.14763 0.19213 0.0
C397 C 0.6173 0.17926 0.18627 0.0
C398 C 0.64817 0.20408 0.17559 0.0
C399 C 0.66921 0.19759 0.17261 0.0
H400 H 0.53506 0.72172 0.81278 0.0
H401 H 0.54864 0.69174 0.50927 0.0
H402 H 0.48803 0.6646 0.80115 0.0
H403 H 0.5019 0.63505 0.49812 0.0
H404 H 0.39494 0.55871 0.45717 0.0
H405 H 0.44666 0.61127 0.47831 0.0
H406 H 0.46605 0.60354 0.7876 0.0
H407 H 0.41367 0.55011 0.76569 0.0
C408 C 0.52826 0.70295 0.74419 0.0
C409 C 0.54556 0.71149 0.66158 0.0
C410 C 0.50143 0.67016 0.73792 0.0
C411 C 0.49114 0.6453 0.64847 0.0
C412 C 0.50904 0.65366 0.56769 0.0
C413 C 0.53593 0.68623 0.57433 0.0
C414 C 0.41038 0.56784 0.5291 0.0
C415 C 0.40027 0.55019 0.60963 0.0
C416 C 0.4401 0.59798 0.5411 0.0
C417 C 0.46052 0.61167 0.63466 0.0
C418 C 0.45078 0.59367 0.71473 0.0
C419 C 0.42098 0.56297 0.70188 0.0
H420 H 0.92059 0.38205 0.94466 0.0
H421 H 0.90382 0.41398 0.23823 0.0
H422 H 0.91351 0.33675 0.01 0.0
H423 H 0.89786 0.36939 0.30403 0.0
H424 H 0.90611 0.29471 0.40953 0.0
H425 H 0.92547 0.34556 0.34761 0.0
H426 H 0.86477 0.28579 0.05495 0.0
H427 H 0.8451 0.23558 0.11662 0.0
C428 C 0.91568 0.37967 0.0233 0.0
C429 C 0.9125 0.40159 0.08565 0.0
C430 C 0.91187 0.35386 0.06087 0.0
C431 C 0.90519 0.34963 0.16207 0.0
C432 C 0.90347 0.3724 0.22626 0.0
C433 C 0.90692 0.39799 0.18835 0.0
C434 C 0.89733 0.29255 0.3315 0.0
C435 C 0.87403 0.26116 0.2682 0.0
C436 C 0.90829 0.32157 0.2963 0.0
C437 C 0.89661 0.31956 0.19651 0.0
C438 C 0.87446 0.28815 0.13171 0.0
C439 C 0.86311 0.25934 0.16743 0.0
H440 H 0.45305 0.95811 0.03804 0.0
H441 H 0.49131 0.97474 0.75119 0.0
H442 H 0.49844 0.96833 0.12222 0.0
H443 H 0.53584 0.983 0.83363 0.0
H444 H 0.60819 0.98496 0.96624 0.0
H445 H 0.58116 1.0081 0.95959 0.0
H446 H 0.50716 0.92847 0.09007 0.0
H447 H 0.53371 0.9056 0.09614 0.0
C448 C 0.47156 0.96503 -0.00634 0.0
C449 C 0.46822 0.9648 0.88696 0.0
C450 C 0.49752 0.97064 0.04194 0.0
C451 C 0.52042 0.97567 -0.01582 0.0
C452 C 0.5187 0.97921 0.8808 0.0
C453 C 0.49288 0.97392 0.83279 0.0
C454 C 0.58659 0.97307 -0.00354 0.0
C455 C 0.57269 0.9429 0.0288 0.0
C456 C 0.57115 0.98634 -0.00723 0.0
C457 C 0.54165 0.96967 0.02168 0.0
C458 C 0.52986 0.94212 0.06734 0.0
C459 C 0.54521 0.92888 0.07083 0.0
H460 H 0.7693 0.5068 0.91373 0.0
H461 H 0.79716 0.45069 0.76775 0.0
H462 H 0.71577 0.45941 0.85167 0.0
H463 H 0.74315 0.40295 0.704 0.0
H464 H 0.65826 0.32654 0.86762 0.0
H465 H 0.70714 0.36837 0.81555 0.0
H466 H 0.6708 0.41613 0.72382 0.0
H467 H 0.62231 0.37511 0.78057 0.0
C468 C 0.764 0.48463 0.86549 0.0
C469 C 0.7873 0.48208 0.84833 0.0
C470 C 0.73322 0.45746 0.82866 0.0
C471 C 0.72511 0.42711 0.77439 0.0
C472 C 0.74868 0.42584 0.74703 0.0
C473 C 0.7796 0.45321 0.78341 0.0
C474 C 0.66041 0.34543 0.83359 0.0
C475 C 0.63683 0.3482 0.83173 0.0
C476 C 0.68836 0.36923 0.80235 0.0
C477 C 0.69313 0.39614 0.76815 0.0
C478 C 0.668 0.39609 0.75206 0.0
C479 C 0.64009 0.37237 0.78394 0.0
H480 H 0.26485 0.3976 0.22144 0.0
H481 H 0.29158 0.4913 0.38966 0.0
H482 H 0.24535 0.40446 0.06822 0.0
H483 H 0.26829 0.49588 0.24392 0.0
H484 H 0.32537 0.52811 0.96358 0.0
H485 H 0.30435 0.51404 0.12318 0.0
H486 H 0.22292 0.41871 0.9495 0.0
H487 H 0.24448 0.43271 0.79042 0.0
C488 C 0.26523 0.41881 0.22701 0.0
C489 C 0.28072 0.44462 0.31531 0.0
C490 C 0.2533 0.42237 0.14055 0.0
C491 C 0.25662 0.45161 0.14368 0.0
C492 C 0.26637 0.47372 0.23891 0.0
C493 C 0.27991 0.47119 0.32236 0.0
C494 C 0.30284 0.50446 0.95997 0.0
C495 C 0.28742 0.48074 0.86711 0.0
C496 C 0.29029 0.49653 0.05066 0.0
C497 C 0.26214 0.46475 0.04863 0.0
C498 C 0.24486 0.44297 0.95311 0.0
C499 C 0.25759 0.45077 0.86278 0.0
H500 H 0.79711 0.11542 0.08087 0.0
H501 H 0.88843 0.21016 0.13408 0.0
H502 H 0.78664 0.12419 0.91401 0.0
H503 H 0.87716 0.22118 -0.02347 0.0
H504 H 0.86069 0.22194 0.64156 0.0
H505 H 0.87224 0.21467 0.80806 0.0
H506 H 0.77442 0.14918 0.827 0.0
H507 H 0.76352 0.15232 0.65124 0.0
C508 C 0.81487 0.13808 0.0564 0.0
C509 C 0.84357 0.16188 0.11919 0.0
C510 C 0.80875 0.14362 0.96189 0.0
C511 C 0.83084 0.17373 0.93071 0.0
C512 C 0.85968 0.19726 -0.00552 0.0
C513 C 0.86618 0.19105 0.08611 0.0
C514 C 0.84189 0.20529 0.68071 0.0
C515 C 0.81148 0.18603 0.63154 0.0
C516 C 0.84832 0.20168 0.77805 0.0
C517 C 0.8242 0.18026 0.83143 0.0
C518 C 0.79365 0.16435 0.78675 0.0
C519 C 0.78732 0.16671 0.68676 0.0
H520 H 0.57256 0.76432 0.35471 0.0
H521 H 0.63085 0.87139 0.43375 0.0
H522 H 0.59132 0.76649 0.18959 0.0
H523 H 0.65311 0.87437 0.27633 0.0
H524 H 0.66704 0.87024 0.93893 0.0
H525 H 0.6521 0.87098 0.10853 0.0
H526 H 0.62778 0.774 0.10102 0.0
H527 H 0.6392 0.77203 0.92386 0.0
C528 C 0.58945 0.78838 0.336 0.0
C529 C 0.60011 0.81764 0.40602 0.0
C530 C 0.60096 0.7898 0.24237 0.0
C531 C 0.62453 0.82064 0.21851 0.0
C532 C 0.63469 0.84998 0.289 0.0
C533 C 0.622 0.84842 0.38023 0.0
C534 C 0.65855 0.84913 0.97409 0.0
C535 C 0.65304 0.82056 0.91714 0.0
C536 C 0.6502 0.84961 0.07275 0.0
C537 C 0.63748 0.82202 0.11927 0.0
C538 C 0.63575 0.79505 0.06652 0.0
C539 C 0.64301 0.79411 0.96563 0.0
H540 H 0.89592 0.53436 0.81037 0.0
H541 H 0.88026 0.60222 0.7465 0.0
H542 H 0.87702 0.505 0.62843 0.0
H543 H 0.86431 0.57534 0.56348 0.0
H544 H 0.80854 0.51061 0.27228 0.0
H545 H 0.82029 0.52662 0.46167 0.0
H546 H 0.88311 0.5037 0.45453 0.0
H547 H 0.86898 0.48497 0.2668 0.0
C548 C 0.88937 0.5436 0.75652 0.0
C549 C 0.88844 0.56968 0.79236 0.0
C550 C 0.87843 0.52676 0.65229 0.0
C551 C 0.86768 0.53679 0.58202 0.0
C552 C 0.87059 0.56561 0.61642 0.0
C553 C 0.88045 0.58159 0.72079 0.0
C554 C 0.82325 0.50702 0.31235 0.0
C555 C 0.83766 0.49638 0.25612 0.0
C556 C 0.83079 0.5171 0.4204 0.0
C557 C 0.85381 0.51795 0.47289 0.0
C558 C 0.86545 0.50359 0.41712 0.0
C559 C 0.85707 0.49245 0.3094 0.0
H560 H 0.25076 0.8628 0.09078 0.0
H561 H 0.32956 0.86735 0.16354 0.0
H562 H 0.23073 0.84071 0.24193 0.0
H563 H 0.31213 0.84991 0.32589 0.0
H564 H 0.26096 0.78572 0.55225 0.0
H565 H 0.27901 0.80569 0.39408 0.0
H566 H 0.22913 0.84508 0.40905 0.0
H567 H 0.20795 0.82065 0.5569 0.0
C568 C 0.26414 0.85967 0.14114 0.0
C569 C 0.29103 0.86555 0.114 0.0
C570 C 0.25294 0.84753 0.22967 0.0
C571 C 0.26937 0.84277 0.29702 0.0
C572 C 0.298 0.85176 0.2743 0.0
C573 C 0.30847 0.86252 0.18247 0.0
C574 C 0.25317 0.79769 0.51863 0.0
C575 C 0.23315 0.80176 0.56579 0.0
C576 C 0.2641 0.80995 0.42946 0.0
C577 C 0.25626 0.82785 0.38851 0.0
C578 C 0.23544 0.83099 0.4354 0.0
C579 C 0.22332 0.81718 0.52114 0.0
H580 H 0.45474 0.23399 0.02738 0.0
H581 H 0.46492 0.15834 0.93957 0.0
H582 H 0.47173 0.25335 0.86901 0.0
H583 H 0.47917 0.17541 0.77417 0.0
H584 H 0.54201 0.23739 0.55896 0.0
H585 H 0.52118 0.21654 0.71355 0.0
H586 H 0.46801 0.2515 0.69796 0.0
H587 H 0.49181 0.27543 0.55079 0.0
C588 C 0.45969 0.22077 0.97186 0.0
C589 C 0.45947 0.1954 -0.00335 0.0
C590 C 0.46927 0.23173 0.88007 0.0
C591 C 0.47786 0.21673 0.80888 0.0
C592 C 0.4742 0.18871 0.82895 0.0
C593 C 0.46538 0.17834 0.92268 0.0
C594 C 0.5266 0.24144 0.59133 0.0
C595 C 0.51875 0.25829 0.54449 0.0
C596 C 0.51397 0.22875 0.67838 0.0
C597 C 0.49217 0.23146 0.71803 0.0
C598 C 0.48496 0.24915 0.67165 0.0
C599 C 0.4986 0.26299 0.58702 0.0
loop_
_geom_bond_atom_site_label_1
_geom_bond_atom_site_label_2
_geom_bond_distance
_geom_bond_site_symmetry_2
_ccdc_geom_bond_type
Sm0 C2 2.846 . S
Sm0 O20 2.543 . S
Sm0 O21 2.450 . S
Sm0 O22 2.681 . S
Sm0 O23 2.464 . S
Sm0 O24 2.396 . S
Sm0 O28 2.386 1_556 S
Sm0 O31 2.408 . S
Sm1 C11 2.846 1_556 S
Sm1 O22 2.386 . S
Sm1 O25 2.408 . S
Sm1 O26 2.543 . S
Sm1 O27 2.450 1_556 S
Sm1 O28 2.681 1_556 S
Sm1 O29 2.464 1_556 S
Sm1 O30 2.396 1_556 S
C2 Sm0 2.846 . S
C2 C3 1.506 . S
C2 O20 1.261 . S
C2 O21 1.242 . S
C3 C2 1.506 . S
C3 C4 1.358 . S
C3 C8 1.382 . S
C4 C3 1.358 . S
C4 C5 1.385 . S
C4 H32 0.930 . S
C5 C4 1.385 . S
C5 C6 1.395 . S
C5 H33 0.929 . S
C6 C5 1.395 . S
C6 C7 1.335 . S
C7 C6 1.335 . S
C7 C8 1.398 . S
C7 H34 0.930 . S
C8 C3 1.382 . S
C8 C7 1.398 . S
C8 H35 0.929 . S
C9 O22 1.271 . S
C9 O23 1.251 . S
C10 O24 1.252 . S
C10 O25 1.272 . S
C11 Sm1 2.846 1_554 S
C11 C12 1.506 . S
C11 O26 1.258 1_554 S
C11 O27 1.244 . S
C12 C11 1.506 . S
C12 C13 1.358 1_554 S
C12 C17 1.382 . S
C13 C12 1.358 1_556 S
C13 C14 1.385 . S
C13 H36 0.930 . S
C14 C13 1.385 . S
C14 C15 1.395 1_556 S
C14 H37 0.929 . S
C15 C14 1.395 1_554 S
C15 C16 1.335 . S
C16 C15 1.335 . S
C16 C17 1.398 . S
C16 H38 0.930 . S
C17 C12 1.382 . S
C17 C16 1.398 . S
C17 H39 0.929 . S
C18 O28 1.271 . S
C18 O29 1.251 . S
C19 O30 1.252 . S
C19 O31 1.272 1_554 S
O20 Sm0 2.543 . S
O20 C2 1.261 . S
O21 Sm0 2.450 . S
O21 C2 1.242 . S
O22 Sm0 2.681 . S
O22 Sm1 2.386 . S
O22 C9 1.271 . S
O23 Sm0 2.464 . S
O23 C9 1.251 . S
O24 Sm0 2.396 . S
O24 C10 1.252 . S
O25 Sm1 2.408 . S
O25 C10 1.272 . S
O26 Sm1 2.543 . S
O26 C11 1.258 1_556 S
O27 Sm1 2.450 1_554 S
O27 C11 1.244 . S
O28 Sm0 2.386 1_554 S
O28 Sm1 2.681 1_554 S
O28 C18 1.271 . S
O29 Sm1 2.464 1_554 S
O29 C18 1.251 . S
O30 Sm1 2.396 1_554 S
O30 C19 1.252 . S
O31 Sm0 2.408 . S
O31 C19 1.272 1_556 S
H32 C4 0.930 . S
H33 C5 0.929 . S
H34 C7 0.930 . S
H35 C8 0.929 . S
H36 C13 0.930 . S
H37 C14 0.929 . S
H38 C16 0.930 . S
H39 C17 0.929 . S
Sm40 C42 2.846 . S
Sm40 O60 2.543 . S
Sm40 O61 2.450 . S
Sm40 O62 2.681 1_554 S
Sm40 O63 2.464 1_554 S
Sm40 O64 2.396 . S
Sm40 O68 2.386 . S
Sm40 O71 2.408 . S
Sm41 C51 2.846 1_554 S
Sm41 O62 2.386 1_554 S
Sm41 O65 2.408 . S
Sm41 O66 2.543 1_554 S
Sm41 O67 2.450 . S
Sm41 O68 2.681 . S
Sm41 O69 2.464 . S
Sm41 O70 2.396 . S
C42 Sm40 2.846 . S
C42 C43 1.506 . S
C42 O60 1.261 . S
C42 O61 1.242 . S
C43 C42 1.506 . S
C43 C44 1.358 . S
C43 C48 1.382 . S
C44 C43 1.358 . S
C44 C45 1.385 . S
C44 H72 0.930 . S
C45 C44 1.385 . S
C45 C46 1.395 . S
C45 H73 0.929 . S
C46 C45 1.395 . S
C46 C47 1.335 . S
C47 C46 1.335 . S
C47 C48 1.398 . S
C47 H74 0.930 . S
C48 C43 1.382 . S
C48 C47 1.398 . S
C48 H75 0.929 . S
C49 O62 1.271 . S
C49 O63 1.251 . S
C50 O64 1.252 . S
C50 O65 1.272 . S
C51 Sm41 2.846 1_556 S
C51 C52 1.506 . S
C51 O66 1.261 . S
C51 O67 1.242 1_556 S
C52 C51 1.506 . S
C52 C53 1.358 . S
C52 C57 1.382 1_556 S
C53 C52 1.358 . S
C53 C54 1.385 . S
C53 H76 0.930 . S
C54 C53 1.385 . S
C54 C55 1.395 . S
C54 H77 0.929 . S
C55 C54 1.395 . S
C55 C56 1.335 . S
C56 C55 1.335 . S
C56 C57 1.398 1_556 S
C56 H78 0.930 1_556 S
C57 C52 1.382 1_554 S
C57 C56 1.398 1_554 S
C57 H79 0.929 . S
C58 O68 1.271 . S
C58 O69 1.251 . S
C59 O70 1.252 . S
C59 O71 1.272 . S
O60 Sm40 2.543 . S
O60 C42 1.261 . S
O61 Sm40 2.450 . S
O61 C42 1.242 . S
O62 Sm40 2.681 1_556 S
O62 Sm41 2.386 1_556 S
O62 C49 1.271 . S
O63 Sm40 2.464 1_556 S
O63 C49 1.251 . S
O64 Sm40 2.396 . S
O64 C50 1.252 . S
O65 Sm41 2.408 . S
O65 C50 1.272 . S
O66 Sm41 2.543 1_556 S
O66 C51 1.261 . S
O67 Sm41 2.450 . S
O67 C51 1.242 1_554 S
O68 Sm40 2.386 . S
O68 Sm41 2.681 . S
O68 C58 1.271 . S
O69 Sm41 2.464 . S
O69 C58 1.251 . S
O70 Sm41 2.396 . S
O70 C59 1.252 . S
O71 Sm40 2.408 . S
O71 C59 1.272 . S
H72 C44 0.930 . S
H73 C45 0.929 . S
H74 C47 0.930 . S
H75 C48 0.929 . S
H76 C53 0.930 . S
H77 C54 0.929 . S
H78 C56 0.930 1_554 S
H79 C57 0.929 . S
Sm80 C82 2.846 . S
Sm80 O100 2.543 . S
Sm80 O101 2.450 1_556 S
Sm80 O102 2.681 1_556 S
Sm80 O103 2.464 1_556 S
Sm80 O104 2.396 1_556 S
Sm80 O108 2.386 . S
Sm80 O111 2.408 1_556 S
Sm81 C91 2.846 . S
Sm81 O102 2.386 . S
Sm81 O105 2.408 1_554 S
Sm81 O106 2.543 . S
Sm81 O107 2.450 1_554 S
Sm81 O108 2.681 1_554 S
Sm81 O109 2.464 1_554 S
Sm81 O110 2.396 1_554 S
C82 Sm80 2.846 . S
C82 C83 1.506 . S
C82 O100 1.261 . S
C82 O101 1.242 1_556 S
C83 C82 1.506 . S
C83 C84 1.358 . S
C83 C88 1.382 . S
C84 C83 1.358 . S
C84 C85 1.385 . S
C84 H112 0.930 . S
C85 C84 1.385 . S
C85 C86 1.395 . S
C85 H113 0.929 . S
C86 C85 1.395 . S
C86 C87 1.335 . S
C87 C86 1.335 . S
C87 C88 1.398 . S
C87 H114 0.930 . S
C88 C83 1.382 . S
C88 C87 1.398 . S
C88 H115 0.929 1_556 S
C89 O102 1.271 . S
C89 O103 1.251 . S
C90 O104 1.252 1_556 S
C90 O105 1.272 . S
C91 Sm81 2.846 . S
C91 C92 1.506 . S
C91 O106 1.261 . S
C91 O107 1.242 1_554 S
C92 C91 1.506 . S
C92 C93 1.358 . S
C92 C97 1.382 . S
C93 C92 1.358 . S
C93 C94 1.385 . S
C93 H116 0.930 . S
C94 C93 1.385 . S
C94 C95 1.395 . S
C94 H117 0.929 . S
C95 C94 1.395 . S
C95 C96 1.335 . S
C96 C95 1.335 . S
C96 C97 1.398 . S
C96 H118 0.930 . S
C97 C92 1.382 . S
C97 C96 1.398 . S
C97 H119 0.929 1_554 S
C98 O108 1.271 . S
C98 O109 1.251 . S
C99 O110 1.252 1_554 S
C99 O111 1.272 . S
O100 Sm80 2.543 . S
O100 C82 1.261 . S
O101 Sm80 2.450 1_554 S
O101 C82 1.242 1_554 S
O102 Sm80 2.681 1_554 S
O102 Sm81 2.386 . S
O102 C89 1.271 . S
O103 Sm80 2.464 1_554 S
O103 C89 1.251 . S
O104 Sm80 2.396 1_554 S
O104 C90 1.252 1_554 S
O105 Sm81 2.408 1_556 S
O105 C90 1.272 . S
O106 Sm81 2.543 . S
O106 C91 1.261 . S
O107 Sm81 2.450 1_556 S
O107 C91 1.242 1_556 S
O108 Sm80 2.386 . S
O108 Sm81 2.681 1_556 S
O108 C98 1.271 . S
O109 Sm81 2.464 1_556 S
O109 C98 1.251 . S
O110 Sm81 2.396 1_556 S
O110 C99 1.252 1_556 S
O111 Sm80 2.408 1_554 S
O111 C99 1.272 . S
H112 C84 0.930 . S
H113 C85 0.929 . S
H114 C87 0.930 . S
H115 C88 0.929 1_554 S
H116 C93 0.930 . S
H117 C94 0.929 . S
H118 C96 0.930 . S
H119 C97 0.929 1_556 S
Sm120 C122 2.846 . S
Sm120 O140 2.543 . S
Sm120 O141 2.450 1_554 S
Sm120 O142 2.681 1_554 S
Sm120 O143 2.464 1_554 S
Sm120 O144 2.396 . S
Sm120 O148 2.386 . S
Sm120 O151 2.408 1_554 S
Sm121 C131 2.846 . S
Sm121 O142 2.386 . S
Sm121 O145 2.408 1_556 S
Sm121 O146 2.543 . S
Sm121 O147 2.450 1_556 S
Sm121 O148 2.681 1_556 S
Sm121 O149 2.464 1_556 S
Sm121 O150 2.396 . S
C122 Sm120 2.846 . S
C122 C123 1.506 . S
C122 O140 1.261 . S
C122 O141 1.242 1_554 S
C123 C122 1.506 . S
C123 C124 1.358 . S
C123 C128 1.382 . S
C124 C123 1.358 . S
C124 C125 1.385 . S
C124 H152 0.930 . S
C125 C124 1.385 . S
C125 C126 1.395 . S
C125 H153 0.929 . S
C126 C125 1.395 . S
C126 C127 1.335 . S
C127 C126 1.335 . S
C127 C128 1.398 . S
C127 H154 0.930 . S
C128 C123 1.382 . S
C128 C127 1.398 . S
C128 H155 0.929 1_554 S
C129 O142 1.271 . S
C129 O143 1.251 . S
C130 O144 1.252 . S
C130 O145 1.272 . S
C131 Sm121 2.846 . S
C131 C132 1.506 . S
C131 O146 1.261 . S
C131 O147 1.242 1_556 S
C132 C131 1.506 . S
C132 C133 1.358 . S
C132 C137 1.382 . S
C133 C132 1.358 . S
C133 C134 1.385 . S
C133 H156 0.930 . S
C134 C133 1.385 . S
C134 C135 1.395 . S
C134 H157 0.929 . S
C135 C134 1.395 . S
C135 C136 1.335 . S
C136 C135 1.335 . S
C136 C137 1.398 . S
C136 H158 0.930 . S
C137 C132 1.382 . S
C137 C136 1.398 . S
C137 H159 0.929 1_556 S
C138 O148 1.271 . S
C138 O149 1.251 . S
C139 O150 1.252 . S
C139 O151 1.272 . S
O140 Sm120 2.543 . S
O140 C122 1.261 . S
O141 Sm120 2.450 1_556 S
O141 C122 1.242 1_556 S
O142 Sm120 2.681 1_556 S
O142 Sm121 2.386 . S
O142 C129 1.271 . S
O143 Sm120 2.464 1_556 S
O143 C129 1.251 . S
O144 Sm120 2.396 . S
O144 C130 1.252 . S
O145 Sm121 2.408 1_554 S
O145 C130 1.272 . S
O146 Sm121 2.543 . S
O146 C131 1.261 . S
O147 Sm121 2.450 1_554 S
O147 C131 1.242 1_554 S
O148 Sm120 2.386 . S
O148 Sm121 2.681 1_554 S
O148 C138 1.271 . S
O149 Sm121 2.464 1_554 S
O149 C138 1.251 . S
O150 Sm121 2.396 . S
O150 C139 1.252 . S
O151 Sm120 2.408 1_556 S
O151 C139 1.272 . S
H152 C124 0.930 . S
H153 C125 0.929 . S
H154 C127 0.930 . S
H155 C128 0.929 1_556 S
H156 C133 0.930 . S
H157 C134 0.929 . S
H158 C136 0.930 . S
H159 C137 0.929 1_554 S
Sm160 C162 2.846 . S
Sm160 O180 2.543 1_556 S
Sm160 O181 2.450 . S
Sm160 O182 2.681 . S
Sm160 O183 2.464 . S
Sm160 O184 2.396 . S
Sm160 O188 2.386 1_556 S
Sm160 O191 2.408 . S
Sm161 C171 2.846 . S
Sm161 O182 2.386 1_554 S
Sm161 O185 2.408 . S
Sm161 O186 2.543 1_554 S
Sm161 O187 2.450 . S
Sm161 O188 2.681 . S
Sm161 O189 2.464 . S
Sm161 O190 2.396 . S
C162 Sm160 2.846 . S
C162 C163 1.506 . S
C162 O180 1.261 1_556 S
C162 O181 1.242 . S
C163 C162 1.506 . S
C163 C164 1.358 . S
C163 C168 1.382 . S
C164 C163 1.358 . S
C164 C165 1.385 . S
C164 H192 0.930 1_556 S
C165 C164 1.385 . S
C165 C166 1.395 . S
C165 H193 0.929 1_556 S
C166 C165 1.395 . S
C166 C167 1.335 . S
C167 C166 1.335 . S
C167 C168 1.398 . S
C167 H194 0.930 . S
C168 C163 1.382 . S
C168 C167 1.398 . S
C168 H195 0.929 . S
C169 O182 1.271 . S
C169 O183 1.251 . S
C170 O184 1.252 . S
C170 O185 1.272 1_556 S
C171 Sm161 2.846 . S
C171 C172 1.506 . S
C171 O186 1.261 1_554 S
C171 O187 1.242 . S
C172 C171 1.506 . S
C172 C173 1.358 . S
C172 C177 1.382 . S
C173 C172 1.358 . S
C173 C174 1.385 . S
C173 H196 0.930 1_554 S
C174 C173 1.385 . S
C174 C175 1.395 . S
C174 H197 0.929 1_554 S
C175 C174 1.395 . S
C175 C176 1.335 . S
C176 C175 1.335 . S
C176 C177 1.398 . S
C176 H198 0.930 . S
C177 C172 1.382 . S
C177 C176 1.398 . S
C177 H199 0.929 . S
C178 O188 1.271 . S
C178 O189 1.251 . S
C179 O190 1.252 . S
C179 O191 1.272 1_554 S
O180 Sm160 2.543 1_554 S
O180 C162 1.261 1_554 S
O181 Sm160 2.450 . S
O181 C162 1.242 . S
O182 Sm160 2.681 . S
O182 Sm161 2.386 1_556 S
O182 C169 1.271 . S
O183 Sm160 2.464 . S
O183 C169 1.251 . S
O184 Sm160 2.396 . S
O184 C170 1.252 . S
O185 Sm161 2.408 . S
O185 C170 1.272 1_554 S
O186 Sm161 2.543 1_556 S
O186 C171 1.261 1_556 S
O187 Sm161 2.450 . S
O187 C171 1.242 . S
O188 Sm160 2.386 1_554 S
O188 Sm161 2.681 . S
O188 C178 1.271 . S
O189 Sm161 2.464 . S
O189 C178 1.251 . S
O190 Sm161 2.396 . S
O190 C179 1.252 . S
O191 Sm160 2.408 . S
O191 C179 1.272 1_556 S
H192 C164 0.930 1_554 S
H193 C165 0.929 1_554 S
H194 C167 0.930 . S
H195 C168 0.929 . S
H196 C173 0.930 1_556 S
H197 C174 0.929 1_556 S
H198 C176 0.930 . S
H199 C177 0.929 . S
Sm200 C202 2.846 1_556 S
Sm200 O220 2.543 1_556 S
Sm200 O221 2.450 . S
Sm200 O222 2.681 . S
Sm200 O223 2.464 . S
Sm200 O224 2.396 . S
Sm200 O228 2.386 1_556 S
Sm200 O231 2.408 . S
Sm201 C211 2.846 1_554 S
Sm201 O222 2.386 1_554 S
Sm201 O225 2.408 . S
Sm201 O226 2.543 1_554 S
Sm201 O227 2.450 . S
Sm201 O228 2.681 . S
Sm201 O229 2.464 . S
Sm201 O230 2.396 . S
C202 Sm200 2.846 1_554 S
C202 C203 1.506 . S
C202 O220 1.261 . S
C202 O221 1.242 1_554 S
C203 C202 1.506 . S
C203 C204 1.358 . S
C203 C208 1.382 1_544 S
C204 C203 1.358 . S
C204 C205 1.385 1_545 S
C204 H232 0.930 . S
C205 C204 1.385 1_565 S
C205 C206 1.395 . S
C205 H233 0.924 1_565 S
C206 C205 1.395 . S
C206 C207 1.335 1_554 S
C207 C206 1.335 1_556 S
C207 C208 1.398 . S
C207 H234 0.930 . S
C208 C203 1.382 1_566 S
C208 C207 1.398 . S
C208 H235 0.929 . S
C209 O222 1.271 . S
C209 O223 1.251 . S
C210 O224 1.252 1_554 S
C210 O225 1.272 . S
C211 Sm201 2.846 1_556 S
C211 C212 1.506 . S
C211 O226 1.261 . S
C211 O227 1.242 1_556 S
C212 C211 1.506 . S
C212 C213 1.358 . S
C212 C217 1.382 1_556 S
C213 C212 1.358 . S
C213 C214 1.385 . S
C213 H236 0.930 . S
C214 C213 1.385 . S
C214 C215 1.395 . S
C214 H237 0.929 . S
C215 C214 1.395 . S
C215 C216 1.335 1_556 S
C216 C215 1.335 1_554 S
C216 C217 1.398 . S
C216 H238 0.930 . S
C217 C212 1.382 1_554 S
C217 C216 1.398 . S
C217 H239 0.929 . S
C218 O228 1.271 . S
C218 O229 1.251 . S
C219 O230 1.252 1_556 S
C219 O231 1.272 . S
O220 Sm200 2.543 1_554 S
O220 C202 1.261 . S
O221 Sm200 2.450 . S
O221 C202 1.242 1_556 S
O222 Sm200 2.681 . S
O222 Sm201 2.386 1_556 S
O222 C209 1.271 . S
O223 Sm200 2.464 . S
O223 C209 1.251 . S
O224 Sm200 2.396 . S
O224 C210 1.252 1_556 S
O225 Sm201 2.408 . S
O225 C210 1.272 . S
O226 Sm201 2.543 1_556 S
O226 C211 1.261 . S
O227 Sm201 2.450 . S
O227 C211 1.242 1_554 S
O228 Sm200 2.386 1_554 S
O228 Sm201 2.681 . S
O228 C218 1.271 . S
O229 Sm201 2.464 . S
O229 C218 1.251 . S
O230 Sm201 2.396 . S
O230 C219 1.252 1_554 S
O231 Sm200 2.408 . S
O231 C219 1.272 . S
H232 C204 0.930 . S
H233 C205 0.924 1_545 S
H234 C207 0.930 . S
H235 C208 0.929 . S
H236 C213 0.930 . S
H237 C214 0.929 . S
H238 C216 0.930 . S
H239 C217 0.929 . S
H240 C248 0.950 . S
H241 C253 0.950 . S
H242 C250 0.950 . S
H243 C252 0.950 . S
H244 C254 0.950 . S
H245 C256 0.950 . S
H246 C258 0.950 . S
H247 C259 0.950 . S
C248 H240 0.950 . S
C248 C249 1.386 . S
C248 C250 1.391 . S
C249 C248 1.386 . S
C249 C253 1.393 . S
C250 H242 0.950 . S
C250 C248 1.391 . S
C250 C251 1.400 . S
C251 C250 1.400 . S
C251 C252 1.398 . S
C251 C257 1.491 . S
C252 H243 0.950 . S
C252 C251 1.398 . S
C252 C253 1.391 . S
C253 H241 0.950 . S
C253 C249 1.393 . S
C253 C252 1.391 . S
C254 H244 0.950 . S
C254 C255 1.386 . S
C254 C256 1.391 . S
C255 C254 1.386 . S
C255 C259 1.393 . S
C256 H245 0.950 . S
C256 C254 1.391 . S
C256 C257 1.400 . S
C257 C251 1.491 . S
C257 C256 1.400 . S
C257 C258 1.398 . S
C258 H246 0.950 . S
C258 C257 1.398 . S
C258 C259 1.391 . S
C259 H247 0.950 . S
C259 C255 1.393 . S
C259 C258 1.391 . S
H260 C268 0.950 . S
H261 C273 0.950 . S
H262 C270 0.950 . S
H263 C272 0.950 . S
H264 C274 0.950 . S
H265 C276 0.950 . S
H266 C278 0.950 . S
H267 C279 0.950 . S
C268 H260 0.950 . S
C268 C269 1.386 . S
C268 C270 1.391 . S
C269 C268 1.386 . S
C269 C273 1.393 . S
C270 H262 0.950 . S
C270 C268 1.391 . S
C270 C271 1.400 . S
C271 C270 1.400 . S
C271 C272 1.398 . S
C271 C277 1.491 . S
C272 H263 0.950 . S
C272 C271 1.398 . S
C272 C273 1.391 . S
C273 H261 0.950 . S
C273 C269 1.393 . S
C273 C272 1.391 . S
C274 H264 0.950 . S
C274 C275 1.386 . S
C274 C276 1.391 . S
C275 C274 1.386 . S
C275 C279 1.393 . S
C276 H265 0.950 . S
C276 C274 1.391 . S
C276 C277 1.400 . S
C277 C271 1.491 . S
C277 C276 1.400 . S
C277 C278 1.398 . S
C278 H266 0.950 . S
C278 C277 1.398 . S
C278 C279 1.391 . S
C279 H267 0.950 . S
C279 C275 1.393 . S
C279 C278 1.391 . S
H280 C288 0.950 . S
H281 C293 0.950 . S
H282 C290 0.950 . S
H283 C292 0.950 . S
H284 C294 0.950 . S
H285 C296 0.950 . S
H286 C298 0.950 . S
H287 C299 0.950 . S
C288 H280 0.950 . S
C288 C289 1.386 . S
C288 C290 1.391 . S
C289 C288 1.386 . S
C289 C293 1.393 1_545 S
C290 H282 0.950 . S
C290 C288 1.391 . S
C290 C291 1.400 . S
C291 C290 1.400 . S
C291 C292 1.398 1_545 S
C291 C297 1.491 1_545 S
C292 H283 0.950 . S
C292 C291 1.398 1_565 S
C292 C293 1.391 . S
C293 H281 0.950 . S
C293 C289 1.393 1_565 S
C293 C292 1.391 . S
C294 H284 0.950 . S
C294 C295 1.386 . S
C294 C296 1.391 . S
C295 C294 1.386 . S
C295 C299 1.393 1_565 S
C296 H285 0.950 . S
C296 C294 1.391 . S
C296 C297 1.400 . S
C297 C291 1.491 1_565 S
C297 C296 1.400 . S
C297 C298 1.398 1_565 S
C298 H286 0.950 . S
C298 C297 1.398 1_545 S
C298 C299 1.391 . S
C299 H287 0.950 . S
C299 C295 1.393 1_545 S
C299 C298 1.391 . S
H300 C308 0.950 . S
H301 C313 0.950 . S
H302 C310 0.950 . S
H303 C312 0.950 . S
H304 C314 0.950 . S
H305 C316 0.950 . S
H306 C318 0.950 . S
H307 C319 0.950 . S
C308 H300 0.950 . S
C308 C309 1.386 . S
C308 C310 1.391 . S
C309 C308 1.386 . S
C309 C313 1.393 . S
C310 H302 0.950 . S
C310 C308 1.391 . S
C310 C311 1.400 . S
C311 C310 1.400 . S
C311 C312 1.398 . S
C311 C317 1.491 . S
C312 H303 0.950 . S
C312 C311 1.398 . S
C312 C313 1.391 . S
C313 H301 0.950 . S
C313 C309 1.393 . S
C313 C312 1.391 . S
C314 H304 0.950 . S
C314 C315 1.386 . S
C314 C316 1.391 . S
C315 C314 1.386 . S
C315 C319 1.393 . S
C316 H305 0.950 . S
C316 C314 1.391 . S
C316 C317 1.400 . S
C317 C311 1.491 . S
C317 C316 1.400 . S
C317 C318 1.398 . S
C318 H306 0.950 . S
C318 C317 1.398 . S
C318 C319 1.391 . S
C319 H307 0.950 . S
C319 C315 1.393 . S
C319 C318 1.391 . S
H320 C328 0.950 . S
H321 C333 0.950 . S
H322 C330 0.950 . S
H323 C332 0.949 1_655 S
H324 C334 0.950 . S
H325 C336 0.950 . S
H326 C338 0.950 . S
H327 C339 0.950 . S
C328 H320 0.950 . S
C328 C329 1.386 . S
C328 C330 1.391 1_455 S
C329 C328 1.386 . S
C329 C333 1.393 . S
C330 H322 0.950 . S
C330 C328 1.391 1_655 S
C330 C331 1.400 . S
C331 C330 1.400 . S
C331 C332 1.398 1_655 S
C331 C337 1.491 . S
C332 H323 0.949 1_455 S
C332 C331 1.398 1_455 S
C332 C333 1.391 . S
C333 H321 0.950 . S
C333 C329 1.393 . S
C333 C332 1.391 . S
C334 H324 0.950 . S
C334 C335 1.386 . S
C334 C336 1.391 . S
C335 C334 1.386 . S
C335 C339 1.393 . S
C336 H325 0.950 . S
C336 C334 1.391 . S
C336 C337 1.400 . S
C337 C331 1.491 . S
C337 C336 1.400 . S
C337 C338 1.398 . S
C338 H326 0.950 . S
C338 C337 1.398 . S
C338 C339 1.391 . S
C339 H327 0.950 . S
C339 C335 1.393 . S
C339 C338 1.391 . S
H340 C348 0.950 . S
H341 C353 0.950 . S
H342 C350 0.950 . S
H343 C352 0.950 . S
H344 C354 0.950 . S
H345 C356 0.950 . S
H346 C358 0.950 . S
H347 C359 0.950 1_545 S
C348 H340 0.950 . S
C348 C349 1.386 . S
C348 C350 1.391 . S
C349 C348 1.386 . S
C349 C353 1.393 . S
C350 H342 0.950 . S
C350 C348 1.391 . S
C350 C351 1.400 . S
C351 C350 1.400 . S
C351 C352 1.398 . S
C351 C357 1.491 . S
C352 H343 0.950 . S
C352 C351 1.398 . S
C352 C353 1.391 . S
C353 H341 0.950 . S
C353 C349 1.393 . S
C353 C352 1.391 . S
C354 H344 0.950 . S
C354 C355 1.386 . S
C354 C356 1.391 . S
C355 C354 1.386 . S
C355 C359 1.393 . S
C356 H345 0.950 . S
C356 C354 1.391 . S
C356 C357 1.400 . S
C357 C351 1.491 . S
C357 C356 1.400 . S
C357 C358 1.398 . S
C358 H346 0.950 . S
C358 C357 1.398 . S
C358 C359 1.391 . S
C359 H347 0.950 1_565 S
C359 C355 1.393 . S
C359 C358 1.391 . S
H360 C368 0.950 . S
H361 C373 0.950 . S
H362 C370 0.950 . S
H363 C372 0.950 . S
H364 C374 0.950 . S
H365 C376 0.950 . S
H366 C378 0.950 . S
H367 C379 0.950 . S
C368 H360 0.950 . S
C368 C369 1.386 . S
C368 C370 1.391 . S
C369 C368 1.386 . S
C369 C373 1.393 1_554 S
C370 H362 0.950 . S
C370 C368 1.391 . S
C370 C371 1.400 . S
C371 C370 1.400 . S
C371 C372 1.398 1_554 S
C371 C377 1.491 . S
C372 H363 0.950 . S
C372 C371 1.398 1_556 S
C372 C373 1.391 . S
C373 H361 0.950 . S
C373 C369 1.393 1_556 S
C373 C372 1.391 . S
C374 H364 0.950 . S
C374 C375 1.386 1_556 S
C374 C376 1.391 . S
C375 C374 1.386 1_554 S
C375 C379 1.393 . S
C376 H365 0.950 . S
C376 C374 1.391 . S
C376 C377 1.400 1_556 S
C377 C371 1.491 . S
C377 C376 1.400 1_554 S
C377 C378 1.398 . S
C378 H366 0.950 . S
C378 C377 1.398 . S
C378 C379 1.391 . S
C379 H367 0.950 . S
C379 C375 1.393 . S
C379 C378 1.391 . S
H380 C388 0.950 . S
H381 C393 0.950 . S
H382 C390 0.950 . S
H383 C392 0.950 . S
H384 C394 0.950 . S
H385 C396 0.950 . S
H386 C398 0.950 . S
H387 C399 0.950 . S
C388 H380 0.950 . S
C388 C389 1.386 . S
C388 C390 1.391 . S
C389 C388 1.386 . S
C389 C393 1.393 . S
C390 H382 0.950 . S
C390 C388 1.391 . S
C390 C391 1.400 . S
C391 C390 1.400 . S
C391 C392 1.398 . S
C391 C397 1.491 . S
C392 H383 0.950 . S
C392 C391 1.398 . S
C392 C393 1.391 . S
C393 H381 0.950 . S
C393 C389 1.393 . S
C393 C392 1.391 . S
C394 H384 0.950 . S
C394 C395 1.386 . S
C394 C396 1.391 . S
C395 C394 1.386 . S
C395 C399 1.393 . S
C396 H385 0.950 . S
C396 C394 1.391 . S
C396 C397 1.400 . S
C397 C391 1.491 . S
C397 C396 1.400 . S
C397 C398 1.398 . S
C398 H386 0.950 . S
C398 C397 1.398 . S
C398 C399 1.391 . S
C399 H387 0.950 . S
C399 C395 1.393 . S
C399 C398 1.391 . S
H400 C408 0.950 . S
H401 C413 0.950 . S
H402 C410 0.950 . S
H403 C412 0.950 . S
H404 C414 0.950 . S
H405 C416 0.950 . S
H406 C418 0.950 . S
H407 C419 0.950 . S
C408 H400 0.950 . S
C408 C409 1.386 . S
C408 C410 1.391 . S
C409 C408 1.386 . S
C409 C413 1.393 1_554 S
C410 H402 0.950 . S
C410 C408 1.391 . S
C410 C411 1.400 . S
C411 C410 1.400 . S
C411 C412 1.398 1_554 S
C411 C417 1.491 . S
C412 H403 0.950 . S
C412 C411 1.398 1_556 S
C412 C413 1.391 . S
C413 H401 0.950 . S
C413 C409 1.393 1_556 S
C413 C412 1.391 . S
C414 H404 0.950 . S
C414 C415 1.386 1_556 S
C414 C416 1.391 . S
C415 C414 1.386 1_554 S
C415 C419 1.393 . S
C416 H405 0.950 . S
C416 C414 1.391 . S
C416 C417 1.400 1_556 S
C417 C411 1.491 . S
C417 C416 1.400 1_554 S
C417 C418 1.398 . S
C418 H406 0.950 . S
C418 C417 1.398 . S
C418 C419 1.391 . S
C419 H407 0.950 . S
C419 C415 1.393 . S
C419 C418 1.391 . S
H420 C428 0.950 . S
H421 C433 0.950 . S
H422 C430 0.950 . S
H423 C432 0.950 1_554 S
H424 C434 0.950 . S
H425 C436 0.950 . S
H426 C438 0.950 . S
H427 C439 0.950 . S
C428 H420 0.950 . S
C428 C429 1.386 . S
C428 C430 1.391 . S
C429 C428 1.386 . S
C429 C433 1.393 . S
C430 H422 0.950 . S
C430 C428 1.391 . S
C430 C431 1.400 . S
C431 C430 1.400 . S
C431 C432 1.398 . S
C431 C437 1.491 . S
C432 H423 0.950 1_556 S
C432 C431 1.398 . S
C432 C433 1.391 . S
C433 H421 0.950 . S
C433 C429 1.393 . S
C433 C432 1.391 . S
C434 H424 0.950 . S
C434 C435 1.386 1_554 S
C434 C436 1.391 . S
C435 C434 1.386 1_556 S
C435 C439 1.393 . S
C436 H425 0.950 . S
C436 C434 1.391 . S
C436 C437 1.400 1_554 S
C437 C431 1.491 . S
C437 C436 1.400 1_556 S
C437 C438 1.398 . S
C438 H426 0.950 . S
C438 C437 1.398 . S
C438 C439 1.391 . S
C439 H427 0.950 . S
C439 C435 1.393 . S
C439 C438 1.391 . S
H440 C448 0.950 . S
H441 C453 0.950 . S
H442 C450 0.950 . S
H443 C452 0.950 . S
H444 C454 0.950 . S
H445 C456 0.950 . S
H446 C458 0.950 . S
H447 C459 0.950 . S
C448 H440 0.950 . S
C448 C449 1.386 . S
C448 C450 1.391 . S
C449 C448 1.386 . S
C449 C453 1.393 . S
C450 H442 0.950 . S
C450 C448 1.391 . S
C450 C451 1.400 . S
C451 C450 1.400 . S
C451 C452 1.398 . S
C451 C457 1.491 . S
C452 H443 0.950 . S
C452 C451 1.398 . S
C452 C453 1.391 . S
C453 H441 0.950 . S
C453 C449 1.393 . S
C453 C452 1.391 . S
C454 H444 0.950 . S
C454 C455 1.386 . S
C454 C456 1.391 . S
C455 C454 1.386 . S
C455 C459 1.393 . S
C456 H445 0.950 . S
C456 C454 1.391 . S
C456 C457 1.400 . S
C457 C451 1.491 . S
C457 C456 1.400 . S
C457 C458 1.398 . S
C458 H446 0.950 . S
C458 C457 1.398 . S
C458 C459 1.391 . S
C459 H447 0.950 . S
C459 C455 1.393 . S
C459 C458 1.391 . S
H460 C468 0.950 . S
H461 C473 0.950 1_554 S
H462 C470 0.950 . S
H463 C472 0.950 1_554 S
H464 C474 0.950 1_554 S
H465 C476 0.950 1_554 S
H466 C478 0.950 . S
H467 C479 0.950 . S
C468 H460 0.950 . S
C468 C469 1.386 . S
C468 C470 1.391 . S
C469 C468 1.386 . S
C469 C473 1.393 . S
C470 H462 0.950 . S
C470 C468 1.391 . S
C470 C471 1.400 . S
C471 C470 1.400 . S
C471 C472 1.398 . S
C471 C477 1.491 . S
C472 H463 0.950 1_556 S
C472 C471 1.398 . S
C472 C473 1.391 . S
C473 H461 0.950 1_556 S
C473 C469 1.393 . S
C473 C472 1.391 . S
C474 H464 0.950 1_556 S
C474 C475 1.386 . S
C474 C476 1.391 . S
C475 C474 1.386 . S
C475 C479 1.393 . S
C476 H465 0.950 1_556 S
C476 C474 1.391 . S
C476 C477 1.400 . S
C477 C471 1.491 . S
C477 C476 1.400 . S
C477 C478 1.398 . S
C478 H466 0.950 . S
C478 C477 1.398 . S
C478 C479 1.391 . S
C479 H467 0.950 . S
C479 C475 1.393 . S
C479 C478 1.391 . S
H480 C488 0.950 . S
H481 C493 0.950 . S
H482 C490 0.950 . S
H483 C492 0.950 . S
H484 C494 0.950 . S
H485 C496 0.950 . S
H486 C498 0.950 . S
H487 C499 0.950 . S
C488 H480 0.950 . S
C488 C489 1.386 . S
C488 C490 1.391 . S
C489 C488 1.386 . S
C489 C493 1.393 . S
C490 H482 0.950 . S
C490 C488 1.391 . S
C490 C491 1.400 . S
C491 C490 1.400 . S
C491 C492 1.398 . S
C491 C497 1.491 . S
C492 H483 0.950 . S
C492 C491 1.398 . S
C492 C493 1.391 . S
C493 H481 0.950 . S
C493 C489 1.393 . S
C493 C492 1.391 . S
C494 H484 0.950 . S
C494 C495 1.386 . S
C494 C496 1.391 . S
C495 C494 1.386 . S
C495 C499 1.393 . S
C496 H485 0.950 . S
C496 C494 1.391 . S
C496 C497 1.400 . S
C497 C491 1.491 . S
C497 C496 1.400 . S
C497 C498 1.398 . S
C498 H486 0.950 . S
C498 C497 1.398 . S
C498 C499 1.391 . S
C499 H487 0.950 . S
C499 C495 1.393 . S
C499 C498 1.391 . S
H500 C508 0.950 . S
H501 C513 0.950 . S
H502 C510 0.950 . S
H503 C512 0.950 . S
H504 C514 0.950 . S
H505 C516 0.950 . S
H506 C518 0.950 . S
H507 C519 0.950 . S
C508 H500 0.950 . S
C508 C509 1.386 . S
C508 C510 1.391 . S
C509 C508 1.386 . S
C509 C513 1.393 . S
C510 H502 0.950 . S
C510 C508 1.391 . S
C510 C511 1.400 . S
C511 C510 1.400 . S
C511 C512 1.398 . S
C511 C517 1.491 . S
C512 H503 0.950 . S
C512 C511 1.398 . S
C512 C513 1.391 . S
C513 H501 0.950 . S
C513 C509 1.393 . S
C513 C512 1.391 . S
C514 H504 0.950 . S
C514 C515 1.386 . S
C514 C516 1.391 . S
C515 C514 1.386 . S
C515 C519 1.393 . S
C516 H505 0.950 . S
C516 C514 1.391 . S
C516 C517 1.400 . S
C517 C511 1.491 . S
C517 C516 1.400 . S
C517 C518 1.398 . S
C518 H506 0.950 . S
C518 C517 1.398 . S
C518 C519 1.391 . S
C519 H507 0.950 . S
C519 C515 1.393 . S
C519 C518 1.391 . S
H520 C528 0.950 . S
H521 C533 0.950 . S
H522 C530 0.950 . S
H523 C532 0.950 . S
H524 C534 0.950 . S
H525 C536 0.950 . S
H526 C538 0.950 . S
H527 C539 0.950 . S
C528 H520 0.950 . S
C528 C529 1.386 . S
C528 C530 1.391 . S
C529 C528 1.386 . S
C529 C533 1.393 . S
C530 H522 0.950 . S
C530 C528 1.391 . S
C530 C531 1.400 . S
C531 C530 1.400 . S
C531 C532 1.398 . S
C531 C537 1.491 . S
C532 H523 0.950 . S
C532 C531 1.398 . S
C532 C533 1.391 . S
C533 H521 0.950 . S
C533 C529 1.393 . S
C533 C532 1.391 . S
C534 H524 0.950 . S
C534 C535 1.386 . S
C534 C536 1.391 . S
C535 C534 1.386 . S
C535 C539 1.393 . S
C536 H525 0.950 . S
C536 C534 1.391 . S
C536 C537 1.400 . S
C537 C531 1.491 . S
C537 C536 1.400 . S
C537 C538 1.398 . S
C538 H526 0.950 . S
C538 C537 1.398 . S
C538 C539 1.391 . S
C539 H527 0.950 . S
C539 C535 1.393 . S
C539 C538 1.391 . S
H540 C548 0.950 . S
H541 C553 0.950 . S
H542 C550 0.950 . S
H543 C552 0.950 . S
H544 C554 0.950 . S
H545 C556 0.950 . S
H546 C558 0.950 . S
H547 C559 0.950 . S
C548 H540 0.950 . S
C548 C549 1.386 . S
C548 C550 1.391 . S
C549 C548 1.386 . S
C549 C553 1.393 . S
C550 H542 0.950 . S
C550 C548 1.391 . S
C550 C551 1.400 . S
C551 C550 1.400 . S
C551 C552 1.398 . S
C551 C557 1.491 . S
C552 H543 0.950 . S
C552 C551 1.398 . S
C552 C553 1.391 . S
C553 H541 0.950 . S
C553 C549 1.393 . S
C553 C552 1.391 . S
C554 H544 0.950 . S
C554 C555 1.386 . S
C554 C556 1.391 . S
C555 C554 1.386 . S
C555 C559 1.393 . S
C556 H545 0.950 . S
C556 C554 1.391 . S
C556 C557 1.400 . S
C557 C551 1.491 . S
C557 C556 1.400 . S
C557 C558 1.398 . S
C558 H546 0.950 . S
C558 C557 1.398 . S
C558 C559 1.391 . S
C559 H547 0.950 . S
C559 C555 1.393 . S
C559 C558 1.391 . S
H560 C568 0.950 . S
H561 C573 0.950 . S
H562 C570 0.950 . S
H563 C572 0.950 . S
H564 C574 0.950 . S
H565 C576 0.950 . S
H566 C578 0.950 . S
H567 C579 0.950 . S
C568 H560 0.950 . S
C568 C569 1.386 . S
C568 C570 1.391 . S
C569 C568 1.386 . S
C569 C573 1.393 . S
C570 H562 0.950 . S
C570 C568 1.391 . S
C570 C571 1.400 . S
C571 C570 1.400 . S
C571 C572 1.398 . S
C571 C577 1.491 . S
C572 H563 0.950 . S
C572 C571 1.398 . S
C572 C573 1.391 . S
C573 H561 0.950 . S
C573 C569 1.393 . S
C573 C572 1.391 . S
C574 H564 0.950 . S
C574 C575 1.386 . S
C574 C576 1.391 . S
C575 C574 1.386 . S
C575 C579 1.393 . S
C576 H565 0.950 . S
C576 C574 1.391 . S
C576 C577 1.400 . S
C577 C571 1.491 . S
C577 C576 1.400 . S
C577 C578 1.398 . S
C578 H566 0.950 . S
C578 C577 1.398 . S
C578 C579 1.391 . S
C579 H567 0.950 . S
C579 C575 1.393 . S
C579 C578 1.391 . S
H580 C588 0.950 . S
H581 C593 0.950 . S
H582 C590 0.950 . S
H583 C592 0.950 . S
H584 C594 0.950 . S
H585 C596 0.950 . S
H586 C598 0.950 . S
H587 C599 0.950 . S
C588 H580 0.950 . S
C588 C589 1.386 . S
C588 C590 1.391 . S
C589 C588 1.386 . S
C589 C593 1.393 . S
C590 H582 0.950 . S
C590 C588 1.391 . S
C590 C591 1.400 . S
C591 C590 1.400 . S
C591 C592 1.398 . S
C591 C597 1.491 . S
C592 H583 0.950 . S
C592 C591 1.398 . S
C592 C593 1.391 . S
C593 H581 0.950 . S
C593 C589 1.393 . S
C593 C592 1.391 . S
C594 H584 0.950 . S
C594 C595 1.386 . S
C594 C596 1.391 . S
C595 C594 1.386 . S
C595 C599 1.393 . S
C596 H585 0.950 . S
C596 C594 1.391 . S
C596 C597 1.400 . S
C597 C591 1.491 . S
C597 C596 1.400 . S
C597 C598 1.398 . S
C598 H586 0.950 . S
C598 C597 1.398 . S
C598 C599 1.391 . S
C599 H587 0.950 . S
C599 C595 1.393 . S
C599 C598 1.391 . S
C249 C210 3.704 . S
C255 C6 3.605 . S
C269 C10 3.572 . S
C275 C46 3.375 1_455 S
C289 C50 3.105 . S
C295 C90 3.096 . S
C309 C126 2.401 . S
C315 C86 2.255 . S
C329 C166 2.854 . S
C335 C130 3.260 . S
C349 C170 2.578 . S
C355 C206 2.561 . S
C369 C179 2.468 . S
C375 C15 2.413 . S
C389 C219 3.196 . S
C395 C55 3.191 . S
C409 C99 3.702 . S
C415 C19 3.729 . S
C429 C135 1.993 . S
C435 C59 2.102 1_556 S
C449 C175 0.845 . S
C455 C95 0.857 . S
C469 C139 1.231 . S
C475 C215 1.247 . S
C489 C9 0.535 . S
C495 C18 0.535 . S
C509 C49 0.460 . S
C515 C58 0.460 . S
C529 C98 0.539 . S
C535 C89 0.539 . S
C549 C129 0.311 . S
C555 C138 0.311 . S
C569 C178 0.549 . S
C575 C169 0.549 . S
C589 C209 0.432 . S
C595 C218 0.432 . S
