# Generated by pormake.
# Topology vbb, (4)-cn, num edge types: 1
# Building blocks:
#     Node 0, Type 0, BuildingBlock: NAWXER_clean_sbu_0, # of connection points: 4
#     Node 1, Type 0, BuildingBlock: NAWXER_clean_sbu_0, # of connection points: 4
#     Node 2, Type 0, BuildingBlock: NAWXER_clean_sbu_0, # of connection points: 4
#     Node 3, Type 0, BuildingBlock: NAWXER_clean_sbu_0, # of connection points: 4
#     Node 4, Type 0, BuildingBlock: NAWXER_clean_sbu_0, # of connection points: 4
#     Node 5, Type 0, BuildingBlock: NAWXER_clean_sbu_0, # of connection points: 4
#     Node 6, Type 0, BuildingBlock: NAWXER_clean_sbu_0, # of connection points: 4
#     Node 7, Type 0, BuildingBlock: NAWXER_clean_sbu_0, # of connection points: 4
#     Node 8, Type 0, BuildingBlock: NAWXER_clean_sbu_0, # of connection points: 4
#     Node 9, Type 0, BuildingBlock: NAWXER_clean_sbu_0, # of connection points: 4
#     Node 10, Type 0, BuildingBlock: NAWXER_clean_sbu_0, # of connection points: 4
#     Node 11, Type 0, BuildingBlock: NAWXER_clean_sbu_0, # of connection points: 4
#     Node 12, Type 0, BuildingBlock: NAWXER_clean_sbu_0, # of connection points: 4
#     Node 13, Type 0, BuildingBlock: NAWXER_clean_sbu_0, # of connection points: 4
#     Node 14, Type 0, BuildingBlock: NAWXER_clean_sbu_0, # of connection points: 4
#     Node 15, Type 0, BuildingBlock: NAWXER_clean_sbu_0, # of connection points: 4
#     Node 16, Type 0, BuildingBlock: NAWXER_clean_sbu_0, # of connection points: 4
#     Node 17, Type 0, BuildingBlock: NAWXER_clean_sbu_0, # of connection points: 4
#     Node 18, Type 0, BuildingBlock: NAWXER_clean_sbu_0, # of connection points: 4
#     Node 19, Type 0, BuildingBlock: NAWXER_clean_sbu_0, # of connection points: 4
#     Node 20, Type 0, BuildingBlock: NAWXER_clean_sbu_0, # of connection points: 4
#     Node 21, Type 0, BuildingBlock: NAWXER_clean_sbu_0, # of connection points: 4
#     Node 22, Type 0, BuildingBlock: NAWXER_clean_sbu_0, # of connection points: 4
#     Node 23, Type 0, BuildingBlock: NAWXER_clean_sbu_0, # of connection points: 4
#     Node 24, Type 0, BuildingBlock: NAWXER_clean_sbu_0, # of connection points: 4
#     Node 25, Type 0, BuildingBlock: NAWXER_clean_sbu_0, # of connection points: 4
#     Node 26, Type 0, BuildingBlock: NAWXER_clean_sbu_0, # of connection points: 4
#     Node 27, Type 0, BuildingBlock: NAWXER_clean_sbu_0, # of connection points: 4
#     Node 28, Type 0, BuildingBlock: NAWXER_clean_sbu_0, # of connection points: 4
#     Node 29, Type 0, BuildingBlock: NAWXER_clean_sbu_0, # of connection points: 4
#     Node 30, Type 0, BuildingBlock: NAWXER_clean_sbu_0, # of connection points: 4
#     Node 31, Type 0, BuildingBlock: NAWXER_clean_sbu_0, # of connection points: 4
#     Edge 32, Type (0, 0), BuildingBlock: ZUJKAS_clean_linker_0, # of connection points: 2
#     Edge 33, Type (0, 0), BuildingBlock: ZUJKAS_clean_linker_0, # of connection points: 2
#     Edge 34, Type (0, 0), BuildingBlock: ZUJKAS_clean_linker_0, # of connection points: 2
#     Edge 35, Type (0, 0), BuildingBlock: ZUJKAS_clean_linker_0, # of connection points: 2
#     Edge 36, Type (0, 0), BuildingBlock: ZUJKAS_clean_linker_0, # of connection points: 2
#     Edge 37, Type (0, 0), BuildingBlock: ZUJKAS_clean_linker_0, # of connection points: 2
#     Edge 38, Type (0, 0), BuildingBlock: ZUJKAS_clean_linker_0, # of connection points: 2
#     Edge 39, Type (0, 0), BuildingBlock: ZUJKAS_clean_linker_0, # of connection points: 2
#     Edge 40, Type (0, 0), BuildingBlock: ZUJKAS_clean_linker_0, # of connection points: 2
#     Edge 41, Type (0, 0), BuildingBlock: ZUJKAS_clean_linker_0, # of connection points: 2
#     Edge 42, Type (0, 0), BuildingBlock: ZUJKAS_clean_linker_0, # of connection points: 2
#     Edge 43, Type (0, 0), BuildingBlock: ZUJKAS_clean_linker_0, # of connection points: 2
#     Edge 44, Type (0, 0), BuildingBlock: ZUJKAS_clean_linker_0, # of connection points: 2
#     Edge 45, Type (0, 0), BuildingBlock: ZUJKAS_clean_linker_0, # of connection points: 2
#     Edge 46, Type (0, 0), BuildingBlock: ZUJKAS_clean_linker_0, # of connection points: 2
#     Edge 47, Type (0, 0), BuildingBlock: ZUJKAS_clean_linker_0, # of connection points: 2
#     Edge 48, Type (0, 0), BuildingBlock: ZUJKAS_clean_linker_0, # of connection points: 2
#     Edge 49, Type (0, 0), BuildingBlock: ZUJKAS_clean_linker_0, # of connection points: 2
#     Edge 50, Type (0, 0), BuildingBlock: ZUJKAS_clean_linker_0, # of connection points: 2
#     Edge 51, Type (0, 0), BuildingBlock: ZUJKAS_clean_linker_0, # of connection points: 2
#     Edge 52, Type (0, 0), BuildingBlock: ZUJKAS_clean_linker_0, # of connection points: 2
#     Edge 53, Type (0, 0), BuildingBlock: ZUJKAS_clean_linker_0, # of connection points: 2
#     Edge 54, Type (0, 0), BuildingBlock: ZUJKAS_clean_linker_0, # of connection points: 2
#     Edge 55, Type (0, 0), BuildingBlock: ZUJKAS_clean_linker_0, # of connection points: 2
#     Edge 56, Type (0, 0), BuildingBlock: ZUJKAS_clean_linker_0, # of connection points: 2
#     Edge 57, Type (0, 0), BuildingBlock: ZUJKAS_clean_linker_0, # of connection points: 2
#     Edge 58, Type (0, 0), BuildingBlock: ZUJKAS_clean_linker_0, # of connection points: 2
#     Edge 59, Type (0, 0), BuildingBlock: ZUJKAS_clean_linker_0, # of connection points: 2
#     Edge 60, Type (0, 0), BuildingBlock: ZUJKAS_clean_linker_0, # of connection points: 2
#     Edge 61, Type (0, 0), BuildingBlock: ZUJKAS_clean_linker_0, # of connection points: 2
#     Edge 62, Type (0, 0), BuildingBlock: ZUJKAS_clean_linker_0, # of connection points: 2
#     Edge 63, Type (0, 0), BuildingBlock: ZUJKAS_clean_linker_0, # of connection points: 2
#     Edge 64, Type (0, 0), BuildingBlock: ZUJKAS_clean_linker_0, # of connection points: 2
#     Edge 65, Type (0, 0), BuildingBlock: ZUJKAS_clean_linker_0, # of connection points: 2
#     Edge 66, Type (0, 0), BuildingBlock: ZUJKAS_clean_linker_0, # of connection points: 2
#     Edge 67, Type (0, 0), BuildingBlock: ZUJKAS_clean_linker_0, # of connection points: 2
#     Edge 68, Type (0, 0), BuildingBlock: ZUJKAS_clean_linker_0, # of connection points: 2
#     Edge 69, Type (0, 0), BuildingBlock: ZUJKAS_clean_linker_0, # of connection points: 2
#     Edge 70, Type (0, 0), BuildingBlock: ZUJKAS_clean_linker_0, # of connection points: 2
#     Edge 71, Type (0, 0), BuildingBlock: ZUJKAS_clean_linker_0, # of connection points: 2
#     Edge 72, Type (0, 0), BuildingBlock: ZUJKAS_clean_linker_0, # of connection points: 2
#     Edge 73, Type (0, 0), BuildingBlock: ZUJKAS_clean_linker_0, # of connection points: 2
#     Edge 74, Type (0, 0), BuildingBlock: ZUJKAS_clean_linker_0, # of connection points: 2
#     Edge 75, Type (0, 0), BuildingBlock: ZUJKAS_clean_linker_0, # of connection points: 2
#     Edge 76, Type (0, 0), BuildingBlock: ZUJKAS_clean_linker_0, # of connection points: 2
#     Edge 77, Type (0, 0), BuildingBlock: ZUJKAS_clean_linker_0, # of connection points: 2
#     Edge 78, Type (0, 0), BuildingBlock: ZUJKAS_clean_linker_0, # of connection points: 2
#     Edge 79, Type (0, 0), BuildingBlock: ZUJKAS_clean_linker_0, # of connection points: 2
#     Edge 80, Type (0, 0), BuildingBlock: ZUJKAS_clean_linker_0, # of connection points: 2
#     Edge 81, Type (0, 0), BuildingBlock: ZUJKAS_clean_linker_0, # of connection points: 2
#     Edge 82, Type (0, 0), BuildingBlock: ZUJKAS_clean_linker_0, # of connection points: 2
#     Edge 83, Type (0, 0), BuildingBlock: ZUJKAS_clean_linker_0, # of connection points: 2
#     Edge 84, Type (0, 0), BuildingBlock: ZUJKAS_clean_linker_0, # of connection points: 2
#     Edge 85, Type (0, 0), BuildingBlock: ZUJKAS_clean_linker_0, # of connection points: 2
#     Edge 86, Type (0, 0), BuildingBlock: ZUJKAS_clean_linker_0, # of connection points: 2
#     Edge 87, Type (0, 0), BuildingBlock: ZUJKAS_clean_linker_0, # of connection points: 2
#     Edge 88, Type (0, 0), BuildingBlock: ZUJKAS_clean_linker_0, # of connection points: 2
#     Edge 89, Type (0, 0), BuildingBlock: ZUJKAS_clean_linker_0, # of connection points: 2
#     Edge 90, Type (0, 0), BuildingBlock: ZUJKAS_clean_linker_0, # of connection points: 2
#     Edge 91, Type (0, 0), BuildingBlock: ZUJKAS_clean_linker_0, # of connection points: 2
#     Edge 92, Type (0, 0), BuildingBlock: ZUJKAS_clean_linker_0, # of connection points: 2
#     Edge 93, Type (0, 0), BuildingBlock: ZUJKAS_clean_linker_0, # of connection points: 2
#     Edge 94, Type (0, 0), BuildingBlock: ZUJKAS_clean_linker_0, # of connection points: 2
#     Edge 95, Type (0, 0), BuildingBlock: ZUJKAS_clean_linker_0, # of connection points: 2
# Relax obj value: 0.012
# Max RMSD: 0.099
# Mean RMSD: 0.097
data_MOF--net-vbb--node1-NAWXER_clean_sbu_0--edge1-ZUJKAS_clean_linker_0
_symmetry_space_group_name_H-M    P1
_symmetry_Int_Tables_number       1
_symmetry_cell_setting            triclinic
loop_
_symmetry_equiv_pos_as_xyz
'x, y, z'
_cell_length_a     71.076825
_cell_length_b     29.925863
_cell_length_c     150.65379
_cell_angle_alpha  89.900656
_cell_angle_beta   89.980099
_cell_angle_gamma 90.02049
loop_
_atom_site_label
_atom_site_type_symbol
_atom_site_fract_x
_atom_site_fract_y
_atom_site_fract_z
_atom_type_partial_charge
C0 C 0.53768 0.03499 0.07147 0.0
C1 C 0.47435 0.96979 0.07023 0.0
O2 O 0.52465 0.06286 0.06953 0.0
Zn3 Zn 0.4951 0.06448 0.06747 0.0
O4 O 0.53354 0.99403 0.07267 0.0
Zn5 Zn 0.5065 -0.00067 0.07067 0.0
O6 O 0.50488 0.01387 0.0569 0.0
O7 O 0.49297 0.08118 0.05494 0.0
O8 O 0.48953 0.94836 0.07171 0.0
O9 O 0.47505 0.01178 0.06859 0.0
O10 O 0.48703 0.10386 0.0771 0.0
O11 O 0.49766 0.03842 0.0817 0.0
C12 C 0.49959 0.04524 0.05168 0.0
C13 C 0.49054 0.07674 0.08342 0.0
C14 C 0.72523 0.21503 0.0726 0.0
C15 C 0.78861 0.27992 0.07086 0.0
O16 O 0.73821 0.18722 0.07057 0.0
Zn17 Zn 0.76764 0.18556 0.06825 0.0
O18 O 0.72937 0.25603 0.07373 0.0
Zn19 Zn 0.7564 0.25065 0.07156 0.0
O20 O 0.75749 0.23633 0.05778 0.0
O21 O 0.76929 0.16897 0.05574 0.0
O22 O 0.77354 0.30147 0.07248 0.0
O23 O 0.78776 0.238 0.06921 0.0
O24 O 0.77606 0.14589 0.07773 0.0
O25 O 0.76555 0.21105 0.08251 0.0
C26 C 0.76256 0.20495 0.05253 0.0
C27 C 0.77273 0.17262 0.08411 0.0
C28 C 0.50018 0.20384 0.20804 0.0
C29 C 0.49077 0.17218 0.17635 0.0
O30 O 0.50534 0.23533 0.20281 0.0
Zn31 Zn 0.50673 0.24996 0.18903 0.0
O32 O 0.49358 0.16785 0.20479 0.0
Zn33 Zn 0.49551 0.18471 0.19227 0.0
O34 O 0.52502 0.18665 0.1901 0.0
O35 O 0.53378 0.25564 0.18699 0.0
O36 O 0.48733 0.14528 0.18271 0.0
O37 O 0.49787 0.21062 0.17801 0.0
O38 O 0.48959 0.30073 0.18808 0.0
O39 O 0.47537 0.23707 0.19126 0.0
C40 C 0.53799 0.21468 0.18815 0.0
C41 C 0.47451 0.27904 0.18963 0.0
C42 C 0.72579 0.03641 0.18909 0.0
C43 C 0.78909 0.97065 0.19019 0.0
O44 O 0.73895 0.06405 0.19097 0.0
Zn45 Zn 0.7685 0.06541 0.19295 0.0
O46 O 0.72978 0.99535 0.18793 0.0
Zn47 Zn 0.75692 0.00027 0.18983 0.0
O48 O 0.75872 0.01491 0.20356 0.0
O49 O 0.77079 0.08212 0.20545 0.0
O50 O 0.77388 0.94921 0.18878 0.0
O51 O 0.78842 0.01263 0.1918 0.0
O52 O 0.77654 0.10469 0.18328 0.0
O53 O 0.7657 0.03934 0.17877 0.0
C54 C 0.76413 0.04625 0.20874 0.0
C55 C 0.7729 0.07757 0.177 0.0
C56 C 0.51348 0.9551 0.95801 0.0
C57 C 0.52017 0.91878 0.92636 0.0
O58 O 0.52 0.91884 0.95484 0.0
Zn59 Zn 0.51723 0.934 0.94227 0.0
O60 O 0.5079 0.98583 0.9527 0.0
Zn61 Zn 0.50556 -0.00134 0.93889 0.0
O62 O 0.47841 0.00426 0.93735 0.0
O63 O 0.48747 0.93548 0.94051 0.0
O64 O 0.51288 0.9571 0.92794 0.0
O65 O 0.52516 0.89372 0.93278 0.0
O66 O 0.53715 0.98607 0.94062 0.0
O67 O 0.52275 0.0492 0.93729 0.0
C68 C 0.47434 0.96333 0.93867 0.0
C69 C 0.53792 0.02773 0.93872 0.0
C70 C 0.22417 0.71285 0.93912 0.0
C71 C 0.28674 0.78204 0.9386 0.0
O72 O 0.23942 0.69359 0.9369 0.0
Zn73 Zn 0.25591 0.74501 0.93876 0.0
O74 O 0.22433 0.75416 0.94131 0.0
Zn75 Zn 0.24356 0.80816 0.9425 0.0
O76 O 0.23467 0.84851 0.93315 0.0
O77 O 0.24801 0.78709 0.92804 0.0
O78 O 0.27338 0.80893 0.94062 0.0
O79 O 0.28301 0.74115 0.93707 0.0
O80 O 0.25377 0.75637 0.95271 0.0
O81 O 0.24119 0.82275 0.95505 0.0
C82 C 0.2401 0.82484 0.92662 0.0
C83 C 0.24807 0.78655 0.9581 0.0
C84 C 0.51463 0.79347 0.80187 0.0
C85 C 0.52068 0.83138 0.83347 0.0
O86 O 0.52108 0.82989 0.805 0.0
Zn87 Zn 0.51808 0.81528 0.81758 0.0
O88 O 0.50893 0.76298 0.80721 0.0
Zn89 Zn 0.50629 0.75092 0.82105 0.0
O90 O 0.47915 0.74531 0.82249 0.0
O91 O 0.48825 0.81388 0.81916 0.0
O92 O 0.51339 0.79302 0.83194 0.0
O93 O 0.52584 0.85605 0.82701 0.0
O94 O 0.53792 0.76315 0.81938 0.0
O95 O 0.52333 0.70044 0.82285 0.0
C96 C 0.47508 0.7861 0.82101 0.0
C97 C 0.53857 0.7216 0.82138 0.0
C98 C 0.24043 0.91487 0.83361 0.0
C99 C 0.24732 0.9516 0.80198 0.0
O100 O 0.23534 0.89012 0.82717 0.0
Zn101 Zn 0.24338 0.93059 0.81772 0.0
O102 O 0.24784 0.95313 0.83205 0.0
Zn103 Zn 0.25524 0.99482 0.82109 0.0
O104 O 0.23834 0.04564 0.82269 0.0
O105 O 0.22358 0.983 0.81938 0.0
O106 O 0.25298 0.98222 0.80727 0.0
O107 O 0.24061 0.91552 0.80516 0.0
O108 O 0.27321 0.9316 0.81948 0.0
O109 O 0.28231 0.00032 0.82265 0.0
C110 C 0.22305 0.02465 0.82128 0.0
C111 C 0.28636 0.95942 0.82133 0.0
C112 C 0.49969 0.53098 0.55268 0.0
C113 C 0.4892 0.56887 0.584 0.0
O114 O 0.50478 0.5005 0.55817 0.0
Zn115 Zn 0.50576 0.48905 0.5722 0.0
O116 O 0.49295 0.56755 0.55561 0.0
Zn117 Zn 0.49461 0.55317 0.56817 0.0
O118 O 0.52422 0.55167 0.57012 0.0
O119 O 0.5327 0.48455 0.57472 0.0
O120 O 0.48618 0.59473 0.57743 0.0
O121 O 0.49632 0.53023 0.58267 0.0
O122 O 0.48867 0.4385 0.57368 0.0
O123 O 0.47452 0.50033 0.5692 0.0
C124 C 0.53706 0.52447 0.57263 0.0
C125 C 0.47374 0.45895 0.57136 0.0
C126 C 0.75981 0.70748 0.55236 0.0
C127 C 0.76842 0.67134 0.58388 0.0
O128 O 0.75479 0.73864 0.55769 0.0
Zn129 Zn 0.75355 0.75169 0.57159 0.0
O130 O 0.76621 0.67095 0.55549 0.0
Zn131 Zn 0.76407 0.68637 0.56799 0.0
O132 O 0.73442 0.69017 0.56972 0.0
O133 O 0.72659 0.75846 0.57385 0.0
O134 O 0.77154 0.64502 0.57741 0.0
O135 O 0.76185 0.71043 0.58236 0.0
O136 O 0.77133 0.80124 0.5728 0.0
O137 O 0.78483 0.73727 0.56928 0.0
C138 C 0.72183 0.71856 0.57197 0.0
C139 C 0.78617 0.77891 0.57112 0.0
C140 C 0.49909 0.70309 0.70828 0.0
C141 C 0.48981 0.67088 0.67658 0.0
O142 O 0.5042 0.73452 0.70303 0.0
Zn143 Zn 0.50565 0.74889 0.68924 0.0
O144 O 0.49258 0.66695 0.70505 0.0
Zn145 Zn 0.49447 0.68359 0.69252 0.0
O146 O 0.52397 0.68566 0.69034 0.0
O147 O 0.5327 0.75465 0.68721 0.0
O148 O 0.48633 0.64404 0.68295 0.0
O149 O 0.49689 0.70934 0.67824 0.0
O150 O 0.48845 0.79951 0.68822 0.0
O151 O 0.47428 0.73582 0.69144 0.0
C152 C 0.53692 0.71371 0.68837 0.0
C153 C 0.47339 0.77775 0.68977 0.0
C154 C 0.72482 0.53617 0.68881 0.0
C155 C 0.78823 0.47117 0.69022 0.0
O156 O 0.73792 0.56402 0.69065 0.0
Zn157 Zn 0.76741 0.56583 0.69271 0.0
O158 O 0.72887 0.49507 0.68774 0.0
Zn159 Zn 0.756 0.50033 0.6897 0.0
O160 O 0.75759 0.51579 0.7034 0.0
O161 O 0.76951 0.58324 0.70518 0.0
O162 O 0.7731 0.44941 0.68883 0.0
O163 O 0.78743 0.51323 0.69174 0.0
O164 O 0.7755 0.6046 0.68298 0.0
O165 O 0.7649 0.53881 0.67858 0.0
C166 C 0.76286 0.54747 0.70853 0.0
C167 C 0.77205 0.57702 0.67675 0.0
C168 C 0.51511 0.44565 0.45891 0.0
C169 C 0.52167 0.41917 0.42685 0.0
O170 O 0.52164 0.41039 0.45533 0.0
Zn171 Zn 0.51863 0.42919 0.44296 0.0
O172 O 0.50939 0.47776 0.45397 0.0
Zn173 Zn 0.5068 0.49458 0.44034 0.0
O174 O 0.47962 0.50003 0.43888 0.0
O175 O 0.48889 0.43082 0.44143 0.0
O176 O 0.51453 0.457 0.42894 0.0
O177 O 0.52615 0.39163 0.43295 0.0
O178 O 0.53842 0.48227 0.4419 0.0
O179 O 0.52362 0.54584 0.43933 0.0
C180 C 0.47565 0.45884 0.43991 0.0
C181 C 0.53893 0.52448 0.4405 0.0
C182 C 0.24911 0.29821 0.45855 0.0
C183 C 0.24015 0.32589 0.42666 0.0
O184 O 0.24253 0.33377 0.45509 0.0
Zn185 Zn 0.24465 0.3154 0.44267 0.0
O186 O 0.25433 0.26612 0.45351 0.0
Zn187 Zn 0.25588 0.24978 0.43983 0.0
O188 O 0.2829 0.24362 0.43792 0.0
O189 O 0.27422 0.31305 0.44063 0.0
O190 O 0.24721 0.28769 0.42858 0.0
O191 O 0.23665 0.35366 0.43285 0.0
O192 O 0.22449 0.2629 0.44187 0.0
O193 O 0.23879 0.19895 0.43909 0.0
C194 C 0.28717 0.28465 0.43887 0.0
C195 C 0.22368 0.22073 0.44048 0.0
C196 C 0.51159 0.29303 0.30181 0.0
C197 C 0.51894 0.32381 0.33367 0.0
O198 O 0.51811 0.32885 0.30518 0.0
Zn199 Zn 0.51551 0.31164 0.31765 0.0
O200 O 0.50612 0.26144 0.30694 0.0
Zn201 Zn 0.50398 0.24625 0.32067 0.0
O202 O 0.47676 0.24068 0.32232 0.0
O203 O 0.48585 0.30971 0.31945 0.0
O204 O 0.51184 0.28558 0.33183 0.0
O205 O 0.52324 0.35054 0.3274 0.0
O206 O 0.53553 0.25933 0.31885 0.0
O207 O 0.52124 0.19554 0.32181 0.0
C208 C 0.4727 0.28176 0.32119 0.0
C209 C 0.53637 0.21734 0.32044 0.0
C210 C 0.28536 0.46403 0.32257 0.0
C211 C 0.22297 0.53409 0.32101 0.0
O212 O 0.28162 0.505 0.32399 0.0
Zn213 Zn 0.25456 0.50177 0.3218 0.0
O214 O 0.27208 0.43734 0.32036 0.0
Zn215 Zn 0.24256 0.43828 0.31806 0.0
O216 O 0.24088 0.42306 0.30552 0.0
O217 O 0.25324 0.48967 0.30785 0.0
O218 O 0.22315 0.49254 0.31898 0.0
O219 O 0.2382 0.55358 0.32321 0.0
O220 O 0.24485 0.4615 0.33249 0.0
O221 O 0.23342 0.39802 0.32734 0.0
C222 C 0.24787 0.45913 0.30246 0.0
C223 C 0.2371 0.4235 0.33388 0.0
C224 C 0.99012 0.07063 0.5845 0.0
C225 C 0.99885 0.03971 0.55268 0.0
O226 O 0.99699 0.03212 0.58272 0.0
Zn227 Zn 1.00545 0.99294 0.57162 0.0
O228 O 0.98664 0.09797 0.57822 0.0
Zn229 Zn 0.9944 0.05861 0.56852 0.0
O230 O 0.974 0.00673 0.56962 0.0
O231 O 0.98802 0.94261 0.57261 0.0
O232 O 0.9924 0.07572 0.55599 0.0
O233 O 1.00395 0.00801 0.55787 0.0
O234 O 0.03257 0.9868 0.57356 0.0
O235 O 0.02395 0.05602 0.57059 0.0
C236 C 0.97298 0.96472 0.5712 0.0
C237 C 0.03688 0.02776 0.57247 0.0
C238 C 0.27227 0.17795 0.58397 0.0
C239 C 0.26135 0.20991 0.55239 0.0
O240 O 0.26413 0.21526 0.58238 0.0
Zn241 Zn 0.25397 0.25372 0.57157 0.0
O242 O 0.27617 0.15177 0.57757 0.0
Zn243 Zn 0.26667 0.19046 0.56806 0.0
O244 O 0.28547 0.24595 0.5688 0.0
O245 O 0.26986 0.3066 0.5728 0.0
O246 O 0.26868 0.17448 0.55556 0.0
O247 O 0.25559 0.24047 0.55768 0.0
O248 O 0.22684 0.25525 0.57373 0.0
O249 O 0.23715 0.188 0.57029 0.0
C250 C 0.28527 0.28768 0.57068 0.0
C251 C 0.22356 0.21398 0.57239 0.0
C252 C 0.03712 0.21444 0.68925 0.0
C253 C 0.97374 0.27968 0.68998 0.0
O254 O 0.02403 0.18701 0.69137 0.0
Zn255 Zn 0.99445 0.1855 0.69324 0.0
O256 O 0.03299 0.25504 0.68762 0.0
Zn257 Zn 0.0059 0.25011 0.68966 0.0
O258 O 1.0043 0.23738 0.70354 0.0
O259 O 0.99219 0.17048 0.70583 0.0
O260 O 0.9889 0.30092 0.68836 0.0
O261 O 0.97446 0.23794 0.69185 0.0
O262 O 0.9865 0.14479 0.68381 0.0
O263 O 0.99715 0.20948 0.67884 0.0
C264 C 0.99893 0.2067 0.70892 0.0
C265 C 0.99006 0.17089 0.67733 0.0
C266 C 0.225 0.03661 0.68893 0.0
C267 C 0.28842 0.97166 0.68947 0.0
O268 O 0.23808 0.0642 0.69096 0.0
Zn269 Zn 0.26773 0.06582 0.69271 0.0
O270 O 0.22916 0.99603 0.68733 0.0
Zn271 Zn 0.25625 0.00119 0.68926 0.0
O272 O 0.25801 0.01424 0.70311 0.0
O273 O 0.27019 0.08116 0.70525 0.0
O274 O 0.27323 0.95038 0.68796 0.0
O275 O 0.28774 0.01343 0.69128 0.0
O276 O 0.27555 0.10639 0.68321 0.0
O277 O 0.26476 0.04173 0.67835 0.0
C278 C 0.26345 0.04504 0.70842 0.0
C279 C 0.27185 0.08028 0.67678 0.0
C280 C 0.02165 0.92328 0.42699 0.0
C281 C 0.01239 0.9536 0.45881 0.0
O282 O 0.02511 0.89591 0.43328 0.0
Zn283 Zn 0.01707 0.93493 0.44298 0.0
O284 O 0.01461 0.96163 0.42878 0.0
Zn285 Zn 0.00585 0.00046 0.43988 0.0
O286 O 0.02304 0.05115 0.43897 0.0
O287 O 0.03723 0.98726 0.44198 0.0
O288 O 0.00725 0.98526 0.45362 0.0
O289 O 0.01897 0.91772 0.4555 0.0
O290 O 0.98759 0.93713 0.44083 0.0
O291 O 0.97878 0.00626 0.43787 0.0
C292 C 0.03811 0.0293 0.44042 0.0
C293 C 0.9746 0.96521 0.43893 0.0
C294 C 0.74822 0.798 0.45866 0.0
C295 C 0.73976 0.82853 0.4269 0.0
O296 O 0.74162 0.83373 0.45528 0.0
Zn297 Zn 0.74406 0.81643 0.44285 0.0
O298 O 0.75366 0.76639 0.45355 0.0
Zn299 Zn 0.75552 0.75134 0.4398 0.0
O300 O 0.7826 0.74592 0.43794 0.0
O301 O 0.77366 0.81484 0.44094 0.0
O302 O 0.74691 0.79025 0.42866 0.0
O303 O 0.73608 0.85553 0.4332 0.0
O304 O 0.72407 0.76373 0.44176 0.0
O305 O 0.73859 0.70025 0.4388 0.0
C306 C 0.78673 0.78689 0.4391 0.0
C307 C 0.7234 0.72171 0.44019 0.0
C308 C 0.9739 0.78555 0.32293 0.0
C309 C 0.03585 0.71331 0.32129 0.0
O310 O 0.97737 0.74444 0.32438 0.0
Zn311 Zn 1.00445 0.74669 0.32215 0.0
O312 O 0.98736 0.81175 0.32071 0.0
Zn313 Zn 0.01686 0.80985 0.31839 0.0
O314 O 0.0186 0.82515 0.30583 0.0
O315 O 0.00576 0.75903 0.30819 0.0
O316 O 0.03589 0.7549 0.31926 0.0
O317 O 0.02052 0.69428 0.32352 0.0
O318 O 0.01444 0.78638 0.33284 0.0
O319 O 0.02628 0.84952 0.3277 0.0
C320 C 0.01133 0.78941 0.30279 0.0
C321 C 0.02243 0.82405 0.33424 0.0
C322 C 0.72261 0.02904 0.32068 0.0
C323 C 0.78661 0.96724 0.32245 0.0
O324 O 0.73753 0.05137 0.32222 0.0
Zn325 Zn 0.75512 0.00142 0.32134 0.0
O326 O 0.72381 0.98712 0.31906 0.0
Zn327 Zn 0.74443 0.93565 0.3181 0.0
O328 O 0.7364 0.8957 0.32765 0.0
O329 O 0.74625 0.9617 0.3323 0.0
O330 O 0.77387 0.93876 0.32044 0.0
O331 O 0.78211 0.00805 0.32354 0.0
O332 O 0.75417 0.98679 0.30759 0.0
O333 O 0.74294 0.91887 0.30558 0.0
C334 C 0.73942 0.92298 0.33398 0.0
C335 C 0.74938 0.95513 0.30235 0.0
C336 C 0.97297 0.47715 0.07138 0.0
C337 C 0.03601 0.54407 0.07142 0.0
O338 O 0.97333 0.51903 0.06964 0.0
Zn339 Zn 0.99285 0.57213 0.0681 0.0
O340 O 0.98836 0.45632 0.07265 0.0
Zn341 Zn 1.00505 0.50773 0.07118 0.0
O342 O 0.99762 0.54783 0.08233 0.0
O343 O 0.98483 0.61117 0.07778 0.0
O344 O 0.03219 0.50291 0.07261 0.0
O345 O 0.02268 0.57166 0.06973 0.0
O346 O 0.98978 0.58849 0.0556 0.0
O347 O 1.00241 0.52183 0.05742 0.0
C348 C 0.9901 0.58569 0.08409 0.0
C349 C 0.99652 0.55287 0.05226 0.0
C350 C 0.28902 0.7773 0.07022 0.0
C351 C 0.22486 0.71683 0.07135 0.0
O352 O 0.28785 0.73521 0.06878 0.0
Zn353 Zn 0.26718 0.68385 0.0678 0.0
O354 O 0.27408 0.79986 0.07153 0.0
Zn355 Zn 0.25652 0.75001 0.07065 0.0
O356 O 0.26445 0.71129 0.08191 0.0
O357 O 0.27446 0.64484 0.07764 0.0
O358 O 0.22949 0.75757 0.07241 0.0
O359 O 0.23759 0.68783 0.06963 0.0
O360 O 0.26942 0.66559 0.05539 0.0
O361 O 0.2583 0.7339 0.05696 0.0
C362 C 0.27104 0.67262 0.08383 0.0
C363 C 0.26331 0.70162 0.05192 0.0
C364 C 0.03644 0.70599 0.18997 0.0
C365 C 0.97339 0.77276 0.19004 0.0
O366 O 0.02315 0.67834 0.19172 0.0
Zn367 Zn 0.99328 0.67784 0.19334 0.0
O368 O 0.03255 0.74703 0.18869 0.0
Zn369 Zn 1.00545 0.7421 0.19017 0.0
O370 O 1.0029 0.72832 0.20396 0.0
O371 O 0.99021 0.66175 0.20585 0.0
O372 O 0.98878 0.79347 0.18867 0.0
O373 O 0.97374 0.73093 0.19183 0.0
O374 O 0.98521 0.63853 0.18371 0.0
O375 O 0.99799 0.70173 0.17907 0.0
C376 C 0.997 0.69741 0.20915 0.0
C377 C 0.99046 0.66383 0.17736 0.0
C378 C 0.28906 0.47069 0.19018 0.0
C379 C 0.22514 0.53241 0.18902 0.0
O380 O 0.28804 0.51267 0.19176 0.0
Zn381 Zn 0.26751 0.56424 0.19286 0.0
O382 O 0.27405 0.44852 0.18879 0.0
Zn383 Zn 0.25665 0.49862 0.18979 0.0
O384 O 0.26492 0.53816 0.17865 0.0
O385 O 0.27512 0.60395 0.18323 0.0
O386 O 0.22962 0.4916 0.18792 0.0
O387 O 0.23795 0.56104 0.19085 0.0
O388 O 0.26956 0.58163 0.20532 0.0
O389 O 0.25819 0.51368 0.20355 0.0
C390 C 0.2717 0.57689 0.17692 0.0
C391 C 0.26322 0.54558 0.20868 0.0
C392 C 0.02289 0.42615 0.92718 0.0
C393 C 0.01235 0.46246 0.9586 0.0
O394 O 0.02675 0.40093 0.93375 0.0
Zn395 Zn 0.01754 0.44113 0.94304 0.0
O396 O 0.01494 0.46388 0.92854 0.0
Zn397 Zn 1.00505 0.504 0.93915 0.0
O398 O 0.02104 0.55643 0.9376 0.0
O399 O 0.03649 0.49616 0.94198 0.0
O400 O 0.00664 0.4925 0.95315 0.0
O401 O 0.01959 0.42659 0.95561 0.0
O402 O 0.98798 0.4392 0.94101 0.0
O403 O 0.97795 0.50591 0.93697 0.0
C404 C 0.03639 0.53761 0.93985 0.0
C405 C 0.97448 0.46511 0.93873 0.0
C406 C 0.74165 0.32356 0.92691 0.0
C407 C 0.74827 0.29242 0.95878 0.0
O408 O 0.73752 0.35059 0.93314 0.0
Zn409 Zn 0.7448 0.31129 0.94295 0.0
O410 O 0.74855 0.28522 0.92881 0.0
Zn411 Zn 0.75622 0.24588 0.93996 0.0
O412 O 0.739 0.19538 0.93872 0.0
O413 O 0.72466 0.25913 0.94163 0.0
O414 O 0.75383 0.26088 0.95368 0.0
O415 O 0.74182 0.3283 0.95539 0.0
O416 O 0.77455 0.3088 0.94153 0.0
O417 O 0.78338 0.24 0.93834 0.0
C418 C 0.72384 0.21718 0.94001 0.0
C419 C 0.78762 0.28069 0.93978 0.0
C420 C 0.03878 0.22209 0.82085 0.0
C421 C 0.97552 0.28775 0.82229 0.0
O422 O 0.0236 0.20058 0.8223 0.0
Zn423 Zn 0.00662 0.25171 0.82141 0.0
O424 O 0.03808 0.26418 0.81934 0.0
Zn425 Zn 0.01818 0.31706 0.81839 0.0
O426 O 0.02631 0.35557 0.82816 0.0
O427 O 0.01546 0.29 0.83256 0.0
O428 O 0.98866 0.31554 0.82046 0.0
O429 O 0.9795 0.24658 0.82334 0.0
O430 O 0.00826 0.26727 0.80769 0.0
O431 O 0.02031 0.33457 0.80589 0.0
C432 C 0.02266 0.32811 0.8344 0.0
C433 C 0.01359 0.29892 0.80254 0.0
C434 C 0.72436 0.53233 0.82135 0.0
C435 C 0.78809 0.46882 0.8215 0.0
O436 O 0.7395 0.55423 0.82262 0.0
Zn437 Zn 0.75677 0.50389 0.82121 0.0
O438 O 0.72522 0.49053 0.8196 0.0
Zn439 Zn 0.74532 0.43865 0.81805 0.0
O440 O 0.73792 0.39863 0.8277 0.0
O441 O 0.7492 0.4634 0.83226 0.0
O442 O 0.77501 0.44083 0.8197 0.0
O443 O 0.78393 0.50969 0.82279 0.0
O444 O 0.75441 0.48999 0.80746 0.0
O445 O 0.7425 0.42264 0.80555 0.0
C446 C 0.74224 0.4249 0.83403 0.0
C447 C 0.7489 0.45881 0.80226 0.0
H448 H 0.48632 0.15976 0.09113 0.0
H449 H 0.48328 0.17576 0.1071 0.0
H450 H 0.48251 0.03442 0.11271 0.0
H451 H 0.48586 0.0183 0.09697 0.0
H452 H 0.45646 0.14965 0.12021 0.0
H453 H 0.527 0.07901 0.12737 0.0
H454 H 0.51927 0.09197 0.11625 0.0
H455 H 0.5118 0.04112 0.12158 0.0
C456 C 0.48534 0.13223 0.09578 0.0
C457 C 0.48665 0.08784 0.09281 0.0
C458 C 0.48362 0.14135 0.10488 0.0
C459 C 0.48314 0.10621 0.11109 0.0
C460 C 0.48338 0.06201 0.10806 0.0
H461 H 0.4845 0.08904 0.16908 0.0
H462 H 0.48046 0.07135 0.15324 0.0
C463 C 0.48525 0.05292 0.09904 0.0
C464 C 0.483 0.11514 0.12077 0.0
H465 H 0.50778 0.09558 0.13981 0.0
C466 C 0.4677 0.13803 0.1245 0.0
C467 C 0.49768 0.09981 0.12635 0.0
C468 C 0.51496 0.07699 0.12269 0.0
C469 C 0.46658 0.14544 0.13369 0.0
C470 C 0.48121 0.12986 0.13926 0.0
C471 C 0.49646 0.1069 0.13553 0.0
C472 C 0.48182 0.14021 0.14886 0.0
C473 C 0.44968 0.16952 0.1374 0.0
C474 C 0.48395 0.1846 0.1516 0.0
C475 C 0.4864 0.19465 0.16055 0.0
C476 C 0.48679 0.16051 0.16699 0.0
C477 C 0.48419 0.11602 0.16428 0.0
C478 C 0.4819 0.10592 0.15525 0.0
H479 H 0.4376 0.1687 0.13273 0.0
H480 H 0.44525 0.15463 0.14383 0.0
H481 H 0.45341 0.20502 0.13859 0.0
H482 H 0.48428 0.21146 0.14677 0.0
H483 H 0.48827 0.22933 0.16241 0.0
H484 H 0.7776 0.16043 0.16923 0.0
H485 H 0.78077 0.17626 0.15325 0.0
H486 H 0.78063 0.03489 0.14775 0.0
H487 H 0.77716 0.01894 0.1635 0.0
H488 H 0.80759 0.14857 0.14017 0.0
H489 H 0.73636 0.08159 0.13309 0.0
H490 H 0.74419 0.09446 0.14418 0.0
H491 H 0.75121 0.0431 0.13896 0.0
C492 C 0.7784 0.13285 0.1646 0.0
C493 C 0.7768 0.08852 0.1676 0.0
C494 C 0.7802 0.14188 0.15549 0.0
C495 C 0.78048 0.10669 0.14932 0.0
C496 C 0.77994 0.06252 0.15238 0.0
H497 H 0.77858 0.08923 0.09139 0.0
H498 H 0.78278 0.07134 0.10722 0.0
C499 C 0.77799 0.05352 0.1614 0.0
C500 C 0.7807 0.11555 0.13965 0.0
H501 H 0.75574 0.09709 0.12063 0.0
C502 C 0.79624 0.13752 0.1359 0.0
C503 C 0.76587 0.10093 0.13409 0.0
C504 C 0.74838 0.07909 0.13778 0.0
C505 C 0.79744 0.14474 0.12669 0.0
C506 C 0.78265 0.12989 0.12115 0.0
C507 C 0.76717 0.10783 0.1249 0.0
C508 C 0.7821 0.14026 0.11155 0.0
C509 C 0.81456 0.16785 0.12295 0.0
C510 C 0.78034 0.18475 0.10879 0.0
C511 C 0.7778 0.19491 0.09985 0.0
C512 C 0.77695 0.16079 0.09344 0.0
C513 C 0.77924 0.11619 0.09616 0.0
C514 C 0.78163 0.10597 0.10518 0.0
H515 H 0.82665 0.16637 0.12762 0.0
H516 H 0.81883 0.15267 0.11654 0.0
H517 H 0.81119 0.20354 0.12173 0.0
H518 H 0.78033 0.21161 0.1136 0.0
H519 H 0.77618 0.22967 0.09797 0.0
H520 H 0.54768 0.88664 0.84064 0.0
H521 H 0.55333 0.90043 0.85653 0.0
H522 H 0.50442 0.82153 0.86308 0.0
H523 H 0.49919 0.8065 0.84741 0.0
H524 H 0.5338 0.9391 0.86936 0.0
H525 H 0.54263 0.7621 0.8785 0.0
H526 H 0.54222 0.78049 0.86708 0.0
H527 H 0.52057 0.76956 0.87296 0.0
C528 C 0.53813 0.87254 0.8455 0.0
C529 C 0.52315 0.84508 0.84281 0.0
C530 C 0.54141 0.88018 0.85456 0.0
C531 C 0.52968 0.86065 0.86103 0.0
C532 C 0.51414 0.83538 0.85827 0.0
H533 H 0.49933 0.94552 0.91233 0.0
H534 H 0.50476 0.93071 0.89667 0.0
C535 C 0.51104 0.82723 0.84929 0.0
C536 C 0.53306 0.86743 0.87067 0.0
H537 H 0.53307 0.81157 0.89046 0.0
C538 C 0.53399 0.91118 0.87396 0.0
C539 C 0.53394 0.83108 0.8767 0.0
C540 C 0.53502 0.78322 0.8736 0.0
C541 C 0.53432 0.91956 0.88313 0.0
C542 C 0.53303 0.88326 0.88916 0.0
C543 C 0.53358 0.83947 0.88586 0.0
C544 C 0.52959 0.89018 0.89879 0.0
C545 C 0.53582 0.96735 0.88623 0.0
C546 C 0.541 0.86989 0.90528 0.0
C547 C 0.5376 0.87742 0.91434 0.0
C548 C 0.52281 0.90554 0.91699 0.0
C549 C 0.51103 0.92427 0.91049 0.0
C550 C 0.51425 0.91624 0.90151 0.0
H551 H 0.54371 0.98805 0.88136 0.0
H552 H 0.5215 0.98178 0.88683 0.0
H553 H 0.54294 0.9697 0.89277 0.0
H554 H 0.55274 0.84903 0.90334 0.0
H555 H 0.54689 0.86263 0.91922 0.0
H556 H 0.26169 0.94027 0.84756 0.0
H557 H 0.25674 0.92405 0.86322 0.0
H558 H 0.20797 0.84479 0.85665 0.0
H559 H 0.21338 0.8597 0.84079 0.0
H560 H 0.22792 0.9461 0.87349 0.0
H561 H 0.23534 0.76115 0.873 0.0
H562 H 0.24153 0.79553 0.86361 0.0
H563 H 0.21726 0.78309 0.86592 0.0
C564 C 0.25002 0.91893 0.84943 0.0
C565 C 0.23795 0.9011 0.84296 0.0
C566 C 0.24715 0.90985 0.8584 0.0
C567 C 0.23202 0.8831 0.86114 0.0
C568 C 0.21995 0.86484 0.85469 0.0
H569 H 0.2121 0.87738 0.91945 0.0
H570 H 0.20684 0.89277 0.90358 0.0
C571 C 0.22303 0.87337 0.84564 0.0
C572 C 0.22909 0.87548 0.8708 0.0
H573 H 0.22937 0.79464 0.8868 0.0
C574 C 0.22809 0.91295 0.87641 0.0
C575 C 0.2293 0.83223 0.8746 0.0
C576 C 0.23107 0.79066 0.869 0.0
C577 C 0.22832 0.90852 0.88569 0.0
C578 C 0.22895 0.8653 0.88949 0.0
C579 C 0.2289 0.82777 0.88388 0.0
C580 C 0.23186 0.85795 0.89915 0.0
C581 C 0.22901 0.9502 0.89131 0.0
C582 C 0.24753 0.83317 0.90193 0.0
C583 C 0.25033 0.82381 0.91089 0.0
C584 C 0.23764 0.83941 0.91732 0.0
C585 C 0.2222 0.86543 0.91462 0.0
C586 C 0.21922 0.87423 0.90557 0.0
H587 H 0.23262 0.9803 0.88733 0.0
H588 H 0.215 0.95581 0.89436 0.0
H589 H 0.23949 0.94669 0.89673 0.0
H590 H 0.25758 0.82056 0.89713 0.0
H591 H 0.26242 0.80389 0.91277 0.0
H592 H 0.48673 0.65329 0.59128 0.0
H593 H 0.48356 0.67137 0.60717 0.0
H594 H 0.47826 0.53111 0.61329 0.0
H595 H 0.4817 0.51292 0.59763 0.0
H596 H 0.45557 0.65009 0.62041 0.0
H597 H 0.52429 0.57021 0.62774 0.0
H598 H 0.51694 0.58393 0.6166 0.0
H599 H 0.50815 0.53442 0.62198 0.0
C600 C 0.48465 0.6265 0.59602 0.0
C601 C 0.48479 0.5817 0.59324 0.0
C602 C 0.48288 0.6368 0.60508 0.0
C603 C 0.48114 0.60243 0.61141 0.0
C604 C 0.48007 0.55803 0.60854 0.0
H605 H 0.48242 0.58801 0.66939 0.0
H606 H 0.47818 0.57017 0.65358 0.0
C607 C 0.48201 0.54775 0.59958 0.0
C608 C 0.48126 0.61216 0.62105 0.0
H609 H 0.50557 0.59037 0.64013 0.0
C610 C 0.46653 0.63726 0.62472 0.0
C611 C 0.49556 0.5952 0.62667 0.0
C612 C 0.51223 0.56979 0.62305 0.0
C613 C 0.46558 0.64528 0.63391 0.0
C614 C 0.47984 0.62809 0.63951 0.0
C615 C 0.49453 0.60297 0.63583 0.0
C616 C 0.48067 0.6387 0.6491 0.0
C617 C 0.44925 0.67166 0.63756 0.0
C618 C 0.48352 0.68294 0.65178 0.0
C619 C 0.48607 0.69308 0.66073 0.0
C620 C 0.48586 0.65916 0.66722 0.0
C621 C 0.4826 0.61484 0.66456 0.0
C622 C 0.48019 0.60464 0.65554 0.0
H623 H 0.43712 0.67182 0.63291 0.0
H624 H 0.44456 0.65791 0.64405 0.0
H625 H 0.45373 0.70679 0.6386 0.0
H626 H 0.48432 0.70959 0.64692 0.0
H627 H 0.48848 0.72764 0.66253 0.0
H628 H 0.77734 0.51747 0.6635 0.0
H629 H 0.78102 0.53218 0.64772 0.0
H630 H 0.77914 0.67401 0.65272 0.0
H631 H 0.77585 0.65939 0.66871 0.0
H632 H 0.75512 0.57359 0.63757 0.0
H633 H 0.82316 0.66402 0.63554 0.0
H634 H 0.81602 0.63325 0.6453 0.0
H635 H 0.80668 0.6881 0.6432 0.0
C636 C 0.77793 0.5519 0.66128 0.0
C637 C 0.77616 0.58735 0.66735 0.0
C638 C 0.78007 0.5602 0.65225 0.0
C639 C 0.78045 0.60412 0.64903 0.0
C640 C 0.77924 0.63981 0.65507 0.0
H641 H 0.76883 0.72607 0.59821 0.0
H642 H 0.77338 0.70626 0.61371 0.0
C643 C 0.77727 0.63148 0.6642 0.0
C644 C 0.78054 0.61186 0.6393 0.0
H645 H 0.80432 0.66329 0.62245 0.0
C646 C 0.76599 0.59283 0.63425 0.0
C647 C 0.79474 0.63689 0.63499 0.0
C648 C 0.81114 0.65642 0.64001 0.0
C649 C 0.76497 0.59912 0.62504 0.0
C650 C 0.779 0.62471 0.62075 0.0
C651 C 0.79367 0.64337 0.62577 0.0
C652 C 0.77765 0.63592 0.61119 0.0
C653 C 0.74853 0.57974 0.62001 0.0
C654 C 0.77885 0.60287 0.6046 0.0
C655 C 0.77623 0.61407 0.59564 0.0
C656 C 0.7723 0.65846 0.59319 0.0
C657 C 0.77164 0.69144 0.59984 0.0
C658 C 0.77434 0.6803 0.60872 0.0
H659 H 0.7373 0.56737 0.62452 0.0
H660 H 0.74238 0.6051 0.61547 0.0
H661 H 0.75346 0.55127 0.61591 0.0
H662 H 0.7816 0.56842 0.60639 0.0
H663 H 0.77691 0.588 0.59067 0.0
H664 H 0.53425 0.34098 0.4191 0.0
H665 H 0.53691 0.3253 0.40311 0.0
H666 H 0.51788 0.45881 0.39717 0.0
H667 H 0.51509 0.47465 0.41291 0.0
H668 H 0.49778 0.39028 0.38845 0.0
H669 H 0.57526 0.37364 0.38429 0.0
H670 H 0.56471 0.34132 0.39307 0.0
H671 H 0.56478 0.40117 0.39374 0.0
C672 C 0.5308 0.36703 0.41437 0.0
C673 C 0.52437 0.40894 0.4173 0.0
C674 C 0.53242 0.35814 0.40526 0.0
C675 C 0.52772 0.39109 0.39898 0.0
C676 C 0.52162 0.433 0.40191 0.0
H677 H 0.53359 0.40136 0.34083 0.0
H678 H 0.53695 0.41939 0.35671 0.0
C679 C 0.52001 0.44188 0.41094 0.0
C680 C 0.5278 0.38162 0.38933 0.0
H681 H 0.55636 0.3589 0.37165 0.0
C682 C 0.5106 0.38348 0.38478 0.0
C683 C 0.54457 0.37329 0.38456 0.0
C684 C 0.56345 0.3725 0.38912 0.0
C685 C 0.50966 0.37662 0.37559 0.0
C686 C 0.52635 0.36747 0.37084 0.0
C687 C 0.54362 0.36611 0.37534 0.0
C688 C 0.52572 0.35625 0.3613 0.0
C689 C 0.49082 0.379 0.371 0.0
C690 C 0.51852 0.3148 0.35871 0.0
C691 C 0.51657 0.3045 0.34975 0.0
C692 C 0.52178 0.33551 0.34314 0.0
C693 C 0.52939 0.37687 0.34575 0.0
C694 C 0.53138 0.38713 0.35479 0.0
H695 H 0.47986 0.3943 0.37528 0.0
H696 H 0.49193 0.39864 0.36476 0.0
H697 H 0.4862 0.34472 0.36923 0.0
H698 H 0.51413 0.29056 0.36365 0.0
H699 H 0.51075 0.27221 0.34802 0.0
H700 H 0.23164 0.33923 0.34082 0.0
H701 H 0.22788 0.31965 0.35661 0.0
H702 H 0.22942 0.45937 0.36351 0.0
H703 H 0.23316 0.47907 0.34793 0.0
H704 H 0.2552 0.34545 0.36991 0.0
H705 H 0.18404 0.41059 0.37776 0.0
H706 H 0.19153 0.39822 0.36657 0.0
H707 H 0.19889 0.44908 0.37186 0.0
C708 C 0.23083 0.36569 0.3457 0.0
C709 C 0.23279 0.41062 0.34314 0.0
C710 C 0.22871 0.35451 0.3547 0.0
C711 C 0.22815 0.38815 0.3612 0.0
C712 C 0.22948 0.43296 0.3586 0.0
H713 H 0.23429 0.40796 0.41875 0.0
H714 H 0.23053 0.42294 0.40278 0.0
C715 C 0.23178 0.44409 0.34968 0.0
C716 C 0.22805 0.37689 0.37077 0.0
H717 H 0.20388 0.39357 0.3901 0.0
C718 C 0.24388 0.35539 0.37432 0.0
C719 C 0.2134 0.3907 0.3765 0.0
C720 C 0.19591 0.41312 0.37299 0.0
C721 C 0.24568 0.34823 0.38348 0.0
C722 C 0.23102 0.36196 0.38923 0.0
C723 C 0.21511 0.3832 0.38568 0.0
C724 C 0.23187 0.35335 0.39892 0.0
C725 C 0.26357 0.32728 0.38694 0.0
C726 C 0.23326 0.30936 0.40204 0.0
C727 C 0.23555 0.30085 0.41106 0.0
C728 C 0.23624 0.33612 0.41722 0.0
C729 C 0.2339 0.38016 0.41416 0.0
C730 C 0.23176 0.38872 0.40506 0.0
H731 H 0.27531 0.33064 0.38212 0.0
H732 H 0.26793 0.34267 0.39332 0.0
H733 H 0.26115 0.2911 0.38809 0.0
H734 H 0.23287 0.28152 0.39745 0.0
H735 H 0.23696 0.26643 0.4132 0.0
H736 H 0.98552 0.15362 0.59219 0.0
H737 H 0.9826 0.16982 0.60815 0.0
H738 H 0.98312 0.02862 0.61389 0.0
H739 H 0.98636 0.0123 0.59816 0.0
H740 H 0.95612 0.14321 0.62124 0.0
H741 H 0.02703 0.07522 0.62861 0.0
H742 H 0.01928 0.08736 0.61746 0.0
H743 H 0.01208 0.03652 0.62288 0.0
C744 C 0.98488 0.12614 0.59687 0.0
C745 C 0.98649 0.08175 0.59392 0.0
C746 C 0.98323 0.13539 0.60597 0.0
C747 C 0.98311 0.10039 0.61221 0.0
C748 C 0.98371 0.05615 0.60922 0.0
H749 H 0.98424 0.08689 0.67033 0.0
H750 H 0.9804 0.06775 0.65454 0.0
C751 C 0.98551 0.04693 0.6002 0.0
C752 C 0.98286 0.10959 0.62189 0.0
H753 H 0.00765 0.09173 0.641 0.0
C754 C 0.96741 0.13213 0.62556 0.0
C755 C 0.99759 0.09496 0.62752 0.0
C756 C 0.01502 0.07255 0.62392 0.0
C757 C 0.9662 0.13996 0.63474 0.0
C758 C 0.9809 0.12516 0.64036 0.0
C759 C 0.99628 0.10246 0.63669 0.0
C760 C 0.98145 0.13626 0.64994 0.0
C761 C 0.94916 0.1637 0.63839 0.0
C762 C 0.98332 0.18093 0.65253 0.0
C763 C 0.98566 0.1918 0.66145 0.0
C764 C 0.98618 0.15824 0.66801 0.0
C765 C 0.98383 0.11345 0.66544 0.0
C766 C 0.98166 0.10252 0.65644 0.0
H767 H 0.93708 0.16213 0.63372 0.0
H768 H 0.94481 0.1491 0.64485 0.0
H769 H 0.95267 0.19941 0.63948 0.0
H770 H 0.98354 0.2074 0.64762 0.0
H771 H 0.98734 0.22669 0.66319 0.0
H772 H 0.27738 0.23655 0.59738 0.0
H773 H 0.28165 0.22065 0.61309 0.0
H774 H 0.28127 0.07923 0.60758 0.0
H775 H 0.27741 0.09513 0.59166 0.0
H776 H 0.25652 0.17713 0.62321 0.0
H777 H 0.32531 0.08979 0.62465 0.0
H778 H 0.3177 0.12081 0.615 0.0
H779 H 0.30885 0.06542 0.61702 0.0
C780 C 0.27845 0.20198 0.59947 0.0
C781 C 0.27693 0.16701 0.59329 0.0
C782 C 0.28092 0.19299 0.60847 0.0
C783 C 0.28187 0.14882 0.61153 0.0
C784 C 0.28094 0.11364 0.60535 0.0
H785 H 0.27208 0.02514 0.66249 0.0
H786 H 0.27614 0.04469 0.64693 0.0
C787 C 0.27865 0.12269 0.59627 0.0
C788 C 0.28221 0.14023 0.62124 0.0
H789 H 0.30681 0.08897 0.63785 0.0
C790 C 0.26763 0.15821 0.62642 0.0
C791 C 0.29669 0.11556 0.62541 0.0
C792 C 0.31313 0.0971 0.62026 0.0
C793 C 0.26691 0.15142 0.63563 0.0
C794 C 0.28126 0.12634 0.63979 0.0
C795 C 0.29591 0.10852 0.63464 0.0
C796 C 0.28035 0.11513 0.64936 0.0
C797 C 0.25047 0.16985 0.6408 0.0
C798 C 0.28172 0.1483 0.65593 0.0
C799 C 0.2794 0.13724 0.66492 0.0
C800 C 0.27559 0.09288 0.66743 0.0
C801 C 0.27479 0.05975 0.66081 0.0
C802 C 0.27721 0.07075 0.65189 0.0
H803 H 0.239 0.18185 0.63639 0.0
H804 H 0.24466 0.14403 0.64535 0.0
H805 H 0.2553 0.19838 0.64491 0.0
H806 H 0.28432 0.18276 0.65409 0.0
H807 H 0.28017 0.16343 0.66985 0.0
H808 H 0.02885 0.90787 0.34118 0.0
H809 H 0.03292 0.927 0.35696 0.0
H810 H 0.02969 0.78737 0.36389 0.0
H811 H 0.02564 0.76812 0.34832 0.0
H812 H 1.00548 0.90302 0.3704 0.0
H813 H 0.07591 0.8327 0.37797 0.0
H814 H 0.0684 0.84575 0.3668 0.0
H815 H 0.06044 0.79543 0.37214 0.0
C816 C 0.02934 0.88131 0.34607 0.0
C817 C 0.02683 0.83656 0.34351 0.0
C818 C 0.03163 0.89223 0.35506 0.0
C819 C 0.03183 0.8585 0.36157 0.0
C820 C 0.02991 0.81383 0.35898 0.0
H821 H 0.02663 0.84051 0.41927 0.0
H822 H 0.02997 0.82464 0.40331 0.0
C823 C 0.02744 0.80297 0.35006 0.0
C824 C 0.03223 0.86966 0.37115 0.0
H825 H 0.05662 0.85155 0.39037 0.0
C826 C 0.01676 0.89232 0.37475 0.0
C827 C 0.04682 0.85486 0.37682 0.0
C828 C 0.06393 0.83113 0.37325 0.0
C829 C 0.01526 0.89975 0.38392 0.0
C830 C 0.02988 0.88512 0.38961 0.0
C831 C 0.04542 0.86264 0.386 0.0
C832 C 0.0294 0.89414 0.39929 0.0
C833 C 0.99773 0.92204 0.38744 0.0
C834 C 0.02862 0.93832 0.40232 0.0
C835 C 0.02657 0.94735 0.41134 0.0
C836 C 0.02552 0.91239 0.41758 0.0
C837 C 0.02731 0.86809 0.41461 0.0
C838 C 0.02921 0.85903 0.40551 0.0
H839 H 0.98583 0.91933 0.3827 0.0
H840 H 0.99335 0.90718 0.39388 0.0
H841 H 1.00061 0.95808 0.38851 0.0
H842 H 0.02926 0.96595 0.39767 0.0
H843 H 0.02558 0.98193 0.4134 0.0
H844 H 0.73238 0.91105 0.41953 0.0
H845 H 0.72819 0.92828 0.40368 0.0
H846 H 0.73443 0.78863 0.39733 0.0
H847 H 0.73856 0.77119 0.41299 0.0
H848 H 0.75586 0.90693 0.39031 0.0
H849 H 0.68712 0.82644 0.38325 0.0
H850 H 0.69452 0.84114 0.39434 0.0
H851 H 0.70357 0.79168 0.38912 0.0
C852 C 0.7326 0.88405 0.41476 0.0
C853 C 0.73589 0.83984 0.41751 0.0
C854 C 0.73021 0.89389 0.40572 0.0
C855 C 0.73074 0.85958 0.39937 0.0
C856 C 0.73361 0.81545 0.40214 0.0
H857 H 0.73659 0.83971 0.34174 0.0
H858 H 0.73343 0.82365 0.35772 0.0
C859 C 0.73615 0.80567 0.4111 0.0
C860 C 0.72997 0.8698 0.38976 0.0
H861 H 0.70572 0.84711 0.37071 0.0
C862 C 0.74479 0.89435 0.38603 0.0
C863 C 0.71566 0.8526 0.3842 0.0
C864 C 0.69921 0.82679 0.38792 0.0
C865 C 0.74592 0.90146 0.37685 0.0
C866 C 0.73158 0.88445 0.37127 0.0
C867 C 0.7167 0.86 0.375 0.0
C868 C 0.73164 0.89317 0.36159 0.0
C869 C 0.76276 0.92611 0.37317 0.0
C870 C 0.73096 0.93728 0.3585 0.0
C871 C 0.73291 0.94642 0.34948 0.0
C872 C 0.7353 0.91159 0.34333 0.0
C873 C 0.73484 0.86715 0.34635 0.0
C874 C 0.73305 0.858 0.35545 0.0
H875 H 0.77478 0.92568 0.37788 0.0
H876 H 0.76744 0.91137 0.36678 0.0
H877 H 0.75889 0.96152 0.37196 0.0
H878 H 0.72938 0.96481 0.3631 0.0
H879 H 0.73285 0.98102 0.34735 0.0
H880 H 0.01164 0.69085 0.16346 0.0
H881 H 0.0063 0.67742 0.14775 0.0
H882 H 0.95772 0.59693 0.15406 0.0
H883 H 0.96347 0.60912 0.17 0.0
H884 H 0.97729 0.55985 0.14108 0.0
H885 H 0.96783 0.73748 0.13258 0.0
H886 H 0.98996 0.72989 0.13806 0.0
H887 H 0.96839 0.71809 0.14393 0.0
C888 C 0.99982 0.67015 0.16153 0.0
C889 C 0.98785 0.65136 0.16795 0.0
C890 C 0.99666 0.66291 0.15252 0.0
C891 C 0.98119 0.6376 0.14969 0.0
C892 C 0.96958 0.61722 0.15609 0.0
H893 H 0.96329 0.6406 0.09153 0.0
H894 H 0.95763 0.65261 0.10748 0.0
C895 C 0.97292 0.62396 0.16518 0.0
C896 C 0.97777 0.63163 0.14002 0.0
H897 H 0.9774 0.68924 0.12042 0.0
C898 C 0.97696 0.58817 0.13658 0.0
C899 C 0.97674 0.6685 0.13412 0.0
C900 C 0.97554 0.71606 0.13739 0.0
C901 C 0.97657 0.5806 0.12738 0.0
C902 C 0.97767 0.61745 0.12147 0.0
C903 C 0.97703 0.66092 0.12492 0.0
C904 C 0.98098 0.61145 0.1118 0.0
C905 C 0.97519 0.53307 0.12412 0.0
C906 C 0.99635 0.58589 0.10893 0.0
C907 C 0.99945 0.57876 0.09992 0.0
C908 C 0.98753 0.5979 0.09352 0.0
C909 C 0.97269 0.6255 0.09633 0.0
C910 C 0.96941 0.63213 0.10542 0.0
H911 H 0.96743 0.51178 0.12894 0.0
H912 H 0.96798 0.53116 0.11759 0.0
H913 H 0.98955 0.51898 0.12342 0.0
H914 H 0.00596 0.57114 0.11369 0.0
H915 H 0.01119 0.5579 0.09796 0.0
H916 H 0.27431 0.51989 0.16299 0.0
H917 H 0.27782 0.53801 0.14732 0.0
H918 H 0.2806 0.67824 0.1537 0.0
H919 H 0.27707 0.66031 0.16957 0.0
H920 H 0.2531 0.65215 0.14036 0.0
H921 H 0.32406 0.58373 0.13314 0.0
H922 H 0.30872 0.54666 0.13913 0.0
H923 H 0.31643 0.59769 0.14424 0.0
C924 C 0.27585 0.55465 0.16111 0.0
C925 C 0.27533 0.58875 0.16753 0.0
C926 C 0.27801 0.56486 0.15214 0.0
C927 C 0.2797 0.60935 0.14937 0.0
C928 C 0.27948 0.64361 0.15574 0.0
H929 H 0.27409 0.73133 0.09742 0.0
H930 H 0.27721 0.71536 0.11319 0.0
C931 C 0.27749 0.63336 0.16478 0.0
C932 C 0.28008 0.61977 0.13976 0.0
H933 H 0.30492 0.60195 0.12067 0.0
C934 C 0.26451 0.64167 0.13606 0.0
C935 C 0.29485 0.60527 0.13417 0.0
C936 C 0.31206 0.58232 0.13786 0.0
C937 C 0.26313 0.64877 0.12688 0.0
C938 C 0.27796 0.63455 0.12128 0.0
C939 C 0.29357 0.61271 0.12498 0.0
C940 C 0.27766 0.64357 0.1116 0.0
C941 C 0.24554 0.67038 0.12325 0.0
C942 C 0.2778 0.60846 0.10541 0.0
C943 C 0.27621 0.61751 0.09629 0.0
C944 C 0.27442 0.6618 0.09329 0.0
C945 C 0.27509 0.69676 0.09951 0.0
C946 C 0.27683 0.68774 0.10855 0.0
H947 H 0.23355 0.66732 0.12795 0.0
H948 H 0.24822 0.7065 0.12215 0.0
H949 H 0.2414 0.65525 0.11682 0.0
H950 H 0.27861 0.57409 0.10764 0.0
H951 H 0.27581 0.58993 0.09165 0.0
H952 H 0.02628 0.26892 0.84791 0.0
H953 H 0.02989 0.28429 0.86367 0.0
H954 H 0.03113 0.42577 0.85823 0.0
H955 H 0.02787 0.41051 0.84224 0.0
H956 H 0.05758 0.39801 0.87115 0.0
H957 H 0.98652 0.33108 0.87866 0.0
H958 H 1.00125 0.29228 0.87283 0.0
H959 H 0.99417 0.34343 0.8675 0.0
C960 C 0.02737 0.30341 0.85003 0.0
C961 C 0.0265 0.3386 0.84383 0.0
C962 C 0.02938 0.31208 0.85906 0.0
C963 C 0.03029 0.35614 0.86215 0.0
C964 C 0.03027 0.39147 0.85597 0.0
H965 H 0.02632 0.48179 0.91307 0.0
H966 H 0.03048 0.46229 0.89752 0.0
C967 C 0.02842 0.38277 0.84686 0.0
C968 C 0.03073 0.36484 0.87184 0.0
H969 H 0.00609 0.34695 0.891 0.0
C970 C 0.04631 0.38699 0.87549 0.0
C971 C 0.01602 0.35029 0.8775 0.0
C972 C 0.99846 0.32833 0.87393 0.0
C973 C 0.04764 0.39459 0.88468 0.0
C974 C 0.03295 0.37994 0.89032 0.0
C975 C 0.01746 0.35755 0.88667 0.0
C976 C 0.03244 0.39117 0.89989 0.0
C977 C 0.06478 0.41802 0.8883 0.0
C978 C 0.0321 0.35752 0.90642 0.0
C979 C 0.02974 0.36859 0.9154 0.0
C980 C 0.02731 0.4134 0.91792 0.0
C981 C 0.02805 0.44689 0.91136 0.0
C982 C 0.03059 0.43589 0.90245 0.0
H983 H 0.07682 0.41625 0.88361 0.0
H984 H 0.0614 0.45378 0.8894 0.0
H985 H 0.06912 0.40332 0.89476 0.0
H986 H 0.03333 0.32272 0.90454 0.0
H987 H 0.02915 0.34211 0.9203 0.0
H988 H 0.7303 0.40366 0.91945 0.0
H989 H 0.72717 0.42061 0.90352 0.0
H990 H 0.74301 0.28535 0.89716 0.0
H991 H 0.74628 0.26826 0.91283 0.0
H992 H 0.76413 0.35152 0.88833 0.0
H993 H 0.68697 0.37846 0.88507 0.0
H994 H 0.69867 0.40905 0.89374 0.0
H995 H 0.69726 0.34928 0.89439 0.0
C996 C 0.73295 0.37753 0.91465 0.0
C997 C 0.73866 0.33475 0.91743 0.0
C998 C 0.73105 0.38716 0.90557 0.0
C999 C 0.73474 0.35406 0.89919 0.0
C1000 C 0.74008 0.3113 0.90197 0.0
H1001 H 0.72811 0.34637 0.84105 0.0
H1002 H 0.72493 0.32725 0.8569 0.0
C1003 C 0.74198 0.30171 0.91097 0.0
C1004 C 0.73441 0.36406 0.88956 0.0
H1005 H 0.70558 0.39138 0.87223 0.0
C1006 C 0.75132 0.36014 0.88482 0.0
C1007 C 0.71763 0.37482 0.88499 0.0
C1008 C 0.69903 0.37789 0.88976 0.0
C1009 C 0.75196 0.36728 0.87563 0.0
C1010 C 0.73528 0.37875 0.87109 0.0
C1011 C 0.7183 0.38229 0.87578 0.0
C1012 C 0.73575 0.39054 0.86157 0.0
C1013 C 0.77048 0.36294 0.87081 0.0
C1014 C 0.74271 0.43236 0.85906 0.0
C1015 C 0.74457 0.44325 0.85012 0.0
C1016 C 0.73952 0.41247 0.84346 0.0
C1017 C 0.73218 0.3707 0.846 0.0
C1018 C 0.73028 0.35982 0.85503 0.0
H1019 H 0.78151 0.34741 0.87503 0.0
H1020 H 0.76872 0.34256 0.86471 0.0
H1021 H 0.77541 0.3966 0.86875 0.0
H1022 H 0.747 0.45639 0.86404 0.0
H1023 H 0.75021 0.47583 0.84844 0.0
H1024 H 0.29823 0.86675 0.07114 0.0
H1025 H 0.33001 0.89927 0.07125 0.0
H1026 H 0.35404 0.76708 0.07028 0.0
H1027 H 0.32272 0.7346 0.07 0.0
H1028 H 0.35953 0.88656 0.08322 0.0
H1029 H 0.38016 0.82868 0.04966 0.0
H1030 H 0.35608 0.82813 0.05346 0.0
H1031 H 0.37201 0.78432 0.05671 0.0
C1032 C 0.3103 0.84472 0.07091 0.0
C1033 C 0.30792 0.79815 0.07046 0.0
C1034 C 0.32843 0.86329 0.07098 0.0
C1035 C 0.34437 0.83556 0.07057 0.0
C1036 C 0.34196 0.78914 0.07034 0.0
H1037 H 0.46609 0.88001 0.07183 0.0
H1038 H 0.43462 0.84573 0.07237 0.0
C1039 C 0.32398 0.77066 0.07023 0.0
C1040 C 0.36361 0.85466 0.07057 0.0
H1041 H 0.40476 0.85668 0.05883 0.0
C1042 C 0.36938 0.88028 0.07787 0.0
C1043 C 0.37648 0.84619 0.06359 0.0
C1044 C 0.37084 0.82069 0.05537 0.0
C1045 C 0.38777 0.89716 0.07843 0.0
C1046 C 0.40063 0.88845 0.07148 0.0
C1047 C 0.3949 0.86279 0.0642 0.0
C1048 C 0.41965 0.90849 0.07135 0.0
C1049 C 0.3934 0.92384 0.0865 0.0
C1050 C 0.42154 0.95482 0.07047 0.0
C1051 C 0.43933 0.97429 0.0701 0.0
C1052 C 0.45568 0.94784 0.07059 0.0
C1053 C 0.45378 0.90126 0.07145 0.0
C1054 C 0.43586 0.88169 0.07177 0.0
H1055 H 0.38361 0.91829 0.09214 0.0
H1056 H 0.40789 0.91511 0.08864 0.0
H1057 H 0.39318 0.95995 0.08481 0.0
H1058 H 0.40921 0.97597 0.06998 0.0
H1059 H 0.44019 0.01028 0.06943 0.0
H1060 H 0.79728 0.36938 0.07274 0.0
H1061 H 0.82887 0.40301 0.073 0.0
H1062 H 0.85367 0.27239 0.07006 0.0
H1063 H 0.82258 0.2389 0.06963 0.0
H1064 H 0.85883 0.38709 0.08461 0.0
H1065 H 0.87886 0.34188 0.05022 0.0
H1066 H 0.85488 0.33921 0.05413 0.0
H1067 H 0.87112 0.29483 0.05664 0.0
C1068 C 0.80948 0.34796 0.0721 0.0
C1069 C 0.80737 0.30154 0.07107 0.0
C1070 C 0.82749 0.36716 0.07225 0.0
C1071 C 0.84359 0.34023 0.07136 0.0
C1072 C 0.84146 0.29393 0.07052 0.0
H1073 H 0.96519 0.38686 0.07218 0.0
H1074 H 0.93388 0.3517 0.07274 0.0
C1075 C 0.8236 0.27484 0.07032 0.0
C1076 C 0.86273 0.35989 0.07152 0.0
H1077 H 0.90362 0.36676 0.05965 0.0
C1078 C 0.86858 0.38293 0.07913 0.0
C1079 C 0.87547 0.35415 0.06438 0.0
C1080 C 0.86973 0.33155 0.05585 0.0
C1081 C 0.88695 0.39984 0.07985 0.0
C1082 C 0.89969 0.39381 0.07274 0.0
C1083 C 0.89386 0.37075 0.06514 0.0
C1084 C 0.91864 0.41428 0.07278 0.0
C1085 C 0.89268 0.42366 0.08825 0.0
C1086 C 0.92031 0.46085 0.07253 0.0
C1087 C 0.93799 0.48082 0.07215 0.0
C1088 C 0.95446 0.45466 0.072 0.0
C1089 C 0.95279 0.40787 0.07231 0.0
C1090 C 0.93496 0.3878 0.07263 0.0
H1091 H 0.88306 0.41578 0.09385 0.0
H1092 H 0.90726 0.41458 0.09018 0.0
H1093 H 0.89224 0.46027 0.08709 0.0
H1094 H 0.90789 0.48182 0.0725 0.0
H1095 H 0.9387 0.51696 0.07194 0.0
H1096 H 0.46588 0.36881 0.18836 0.0
H1097 H 0.4343 0.4025 0.18842 0.0
H1098 H 0.40946 0.27134 0.19026 0.0
H1099 H 0.44054 0.23776 0.19037 0.0
H1100 H 0.40401 0.38943 0.17681 0.0
H1101 H 0.38483 0.33608 0.21087 0.0
H1102 H 0.40871 0.33451 0.20681 0.0
H1103 H 0.39247 0.29058 0.20403 0.0
C1104 C 0.45367 0.34728 0.18881 0.0
C1105 C 0.45576 0.30067 0.18947 0.0
C1106 C 0.43567 0.36651 0.18884 0.0
C1107 C 0.41957 0.33941 0.18954 0.0
C1108 C 0.42167 0.29295 0.18997 0.0
H1109 H 0.29798 0.38122 0.18891 0.0
H1110 H 0.32968 0.3483 0.18834 0.0
C1111 C 0.43953 0.27382 0.18999 0.0
C1112 C 0.40044 0.35908 0.18967 0.0
H1113 H 0.35975 0.36234 0.20174 0.0
C1114 C 0.39438 0.38384 0.18228 0.0
C1115 C 0.38786 0.35153 0.19681 0.0
C1116 C 0.39384 0.3271 0.20512 0.0
C1117 C 0.37594 0.40053 0.18178 0.0
C1118 C 0.36335 0.39248 0.18888 0.0
C1119 C 0.3694 0.3679 0.19627 0.0
C1120 C 0.3442 0.41178 0.189 0.0
C1121 C 0.36996 0.42614 0.17362 0.0
C1122 C 0.34198 0.4581 0.18967 0.0
C1123 C 0.32406 0.47682 0.19006 0.0
C1124 C 0.3079 0.44961 0.18978 0.0
C1125 C 0.31013 0.40305 0.18912 0.0
C1126 C 0.32819 0.38425 0.18879 0.0
H1127 H 0.37969 0.4205 0.16796 0.0
H1128 H 0.35551 0.4165 0.17158 0.0
H1129 H 0.36991 0.46241 0.17514 0.0
H1130 H 0.35416 0.47982 0.18999 0.0
H1131 H 0.32292 0.51282 0.19057 0.0
H1132 H 0.82318 0.01153 0.19052 0.0
H1133 H 0.85418 0.97768 0.18982 0.0
H1134 H 0.82893 0.84682 0.18837 0.0
H1135 H 0.79746 0.8808 0.18887 0.0
H1136 H 0.87031 0.92 0.20132 0.0
H1137 H 0.86595 0.84403 0.16778 0.0
H1138 H 0.84905 0.88441 0.17171 0.0
H1139 H 0.84754 0.82708 0.17523 0.0
C1140 C 0.82409 0.97549 0.19003 0.0
C1141 C 0.80778 0.94883 0.18975 0.0
C1142 C 0.8419 0.95622 0.18963 0.0
C1143 C 0.8439 0.90981 0.18894 0.0
C1144 C 0.8277 0.88283 0.18871 0.0
H1145 H 0.93894 0.73354 0.19046 0.0
H1146 H 0.90822 0.76912 0.18994 0.0
C1147 C 0.80974 0.90222 0.18905 0.0
C1148 C 0.86307 0.89023 0.18877 0.0
H1149 H 0.89306 0.82682 0.17634 0.0
C1150 C 0.87531 0.89979 0.19584 0.0
C1151 C 0.8696 0.86413 0.18158 0.0
C1152 C 0.85744 0.85458 0.1736 0.0
C1153 C 0.89379 0.8833 0.19599 0.0
C1154 C 0.90024 0.85689 0.18885 0.0
C1155 C 0.88805 0.84735 0.18177 0.0
C1156 C 0.91917 0.8363 0.18891 0.0
C1157 C 0.90614 0.89326 0.20389 0.0
C1158 C 0.93558 0.8624 0.18841 0.0
C1159 C 0.95336 0.84209 0.18869 0.0
C1160 C 0.9549 0.79542 0.18951 0.0
C1161 C 0.93834 0.7696 0.18989 0.0
C1162 C 0.92071 0.78981 0.18956 0.0
H1163 H 0.89802 0.90756 0.20952 0.0
H1164 H 0.91335 0.86245 0.2062 0.0
H1165 H 0.91711 0.91774 0.20193 0.0
H1166 H 0.93463 0.8984 0.1878 0.0
H1167 H 0.96582 0.86284 0.18836 0.0
H1168 H 0.68984 0.25849 0.94067 0.0
H1169 H 0.65872 0.22504 0.93991 0.0
H1170 H 0.6836 0.09438 0.93729 0.0
H1171 H 0.7152 0.12776 0.93808 0.0
H1172 H 0.64322 0.17067 0.92596 0.0
H1173 H 0.64623 0.08423 0.95866 0.0
H1174 H 0.66222 0.12874 0.9557 0.0
H1175 H 0.66545 0.07384 0.95117 0.0
C1176 C 0.68883 0.22256 0.93996 0.0
C1177 C 0.70508 0.19573 0.93949 0.0
C1178 C 0.67096 0.20358 0.93949 0.0
C1179 C 0.66887 0.15732 0.93861 0.0
C1180 C 0.68497 0.1302 0.93807 0.0
H1181 H 0.57176 0.98595 0.93843 0.0
H1182 H 0.60293 0.01908 0.93797 0.0
C1183 C 0.70298 0.14929 0.93849 0.0
C1184 C 0.6497 0.138 0.93832 0.0
H1185 H 0.6188 0.07408 0.95014 0.0
C1186 C 0.63784 0.14944 0.93122 0.0
C1187 C 0.64276 0.11069 0.94524 0.0
C1188 C 0.65471 0.09878 0.95318 0.0
C1189 C 0.61926 0.13357 0.93077 0.0
C1190 C 0.61227 0.10639 0.93772 0.0
C1191 C 0.62416 0.09507 0.94483 0.0
C1192 C 0.593 0.08734 0.93759 0.0
C1193 C 0.60744 0.14518 0.92278 0.0
C1194 C 0.57692 0.11478 0.9375 0.0
C1195 C 0.55887 0.0958 0.93771 0.0
C1196 C 0.55668 0.04916 0.93813 0.0
C1197 C 0.57286 0.02203 0.93817 0.0
C1198 C 0.59076 0.04089 0.9379 0.0
H1199 H 0.61621 0.15685 0.91712 0.0
H1200 H 0.59902 0.11596 0.92058 0.0
H1201 H 0.59757 0.17246 0.92455 0.0
H1202 H 0.57834 0.1508 0.93742 0.0
H1203 H 0.54669 0.11755 0.93772 0.0
H1204 H 0.19547 0.72591 0.95054 0.0
H1205 H 0.16385 0.69467 0.94987 0.0
H1206 H 0.17943 0.61823 0.92673 0.0
H1207 H 0.21159 0.64811 0.92766 0.0
H1208 H 0.13874 0.7058 0.93743 0.0
H1209 H 0.15297 0.52424 0.94081 0.0
H1210 H 0.17077 0.5659 0.94282 0.0
H1211 H 0.16497 0.54988 0.93164 0.0
C1212 C 0.19225 0.70177 0.9454 0.0
C1213 C 0.20596 0.6892 0.93918 0.0
C1214 C 0.17414 0.6841 0.945 0.0
C1215 C 0.16919 0.65393 0.93827 0.0
C1216 C 0.18297 0.64068 0.9321 0.0
H1217 H 0.04856 0.60226 0.92826 0.0
H1218 H 0.08064 0.63234 0.92709 0.0
C1219 C 0.20133 0.65776 0.93262 0.0
C1220 C 0.14936 0.63836 0.93763 0.0
H1221 H 0.1216 0.54532 0.93776 0.0
C1222 C 0.13499 0.67066 0.9375 0.0
C1223 C 0.14444 0.59256 0.93775 0.0
C1224 C 0.15907 0.55612 0.93835 0.0
C1225 C 0.1159 0.65857 0.93777 0.0
C1226 C 0.11099 0.61277 0.93784 0.0
C1227 C 0.12535 0.58046 0.93769 0.0
C1228 C 0.09118 0.59725 0.93867 0.0
C1229 C 0.1013 0.69505 0.93838 0.0
C1230 C 0.08641 0.5674 0.9455 0.0
C1231 C 0.06832 0.54962 0.94604 0.0
C1232 C 0.05447 0.56179 0.93985 0.0
C1233 C 0.05892 0.59298 0.9332 0.0
C1234 C 0.07724 0.61016 0.93254 0.0
H1235 H 0.10749 0.72704 0.94072 0.0
H1236 H 0.0952 0.701 0.93171 0.0
H1237 H 0.08974 0.6855 0.94297 0.0
H1238 H 0.09683 0.55709 0.95033 0.0
H1239 H 0.06524 0.52562 0.95124 0.0
H1240 H 0.5727 0.7622 0.82061 0.0
H1241 H 0.6037 0.72813 0.82131 0.0
H1242 H 0.57833 0.59817 0.82445 0.0
H1243 H 0.54686 0.6322 0.82371 0.0
H1244 H 0.61963 0.67419 0.83518 0.0
H1245 H 0.61459 0.58616 0.80275 0.0
H1246 H 0.59886 0.63097 0.80579 0.0
H1247 H 0.5958 0.57637 0.81052 0.0
C1248 C 0.57358 0.7263 0.82144 0.0
C1249 C 0.55724 0.69984 0.82204 0.0
C1250 C 0.59138 0.70696 0.82187 0.0
C1251 C 0.5933 0.6607 0.82285 0.0
C1252 C 0.57709 0.63398 0.82358 0.0
H1253 H 0.69068 0.48985 0.82199 0.0
H1254 H 0.65944 0.52237 0.82282 0.0
C1255 C 0.55916 0.65343 0.82319 0.0
C1256 C 0.61239 0.64099 0.82298 0.0
H1257 H 0.64255 0.57664 0.8109 0.0
C1258 C 0.62467 0.6527 0.8299 0.0
C1259 C 0.61889 0.61335 0.81604 0.0
C1260 C 0.60646 0.60109 0.8083 0.0
C1261 C 0.64327 0.6369 0.83012 0.0
C1262 C 0.64984 0.60951 0.82314 0.0
C1263 C 0.63751 0.5978 0.81623 0.0
C1264 C 0.66917 0.59083 0.823 0.0
C1265 C 0.65558 0.64888 0.83792 0.0
C1266 C 0.68515 0.61859 0.82284 0.0
C1267 C 0.70325 0.59998 0.82242 0.0
C1268 C 0.70556 0.55337 0.82204 0.0
C1269 C 0.68947 0.52592 0.82222 0.0
C1270 C 0.67154 0.54442 0.8227 0.0
H1271 H 0.64714 0.6604 0.84369 0.0
H1272 H 0.66427 0.61991 0.84003 0.0
H1273 H 0.6652 0.67642 0.83598 0.0
H1274 H 0.68362 0.65458 0.8229 0.0
H1275 H 0.71534 0.62197 0.82225 0.0
H1276 H 0.07289 0.26266 0.81984 0.0
H1277 H 0.10386 0.22864 0.82025 0.0
H1278 H 0.07863 0.09818 0.82277 0.0
H1279 H 0.04714 0.13234 0.82253 0.0
H1280 H 0.10864 0.11278 0.83448 0.0
H1281 H 0.12887 0.16027 0.80021 0.0
H1282 H 0.12118 0.20693 0.80673 0.0
H1283 H 0.10489 0.16285 0.80411 0.0
C1284 C 0.07378 0.22665 0.82044 0.0
C1285 C 0.05746 0.20015 0.82107 0.0
C1286 C 0.09158 0.20726 0.82062 0.0
C1287 C 0.09356 0.16086 0.82133 0.0
C1288 C 0.07737 0.13411 0.82212 0.0
H1289 H 0.18887 0.98422 0.82164 0.0
H1290 H 0.15795 0.01885 0.82221 0.0
C1291 C 0.05942 0.15361 0.82198 0.0
C1292 C 0.11264 0.1409 0.82145 0.0
H1293 H 0.15358 0.1347 0.80963 0.0
C1294 C 0.11842 0.11726 0.82903 0.0
C1295 C 0.12541 0.14705 0.81434 0.0
C1296 C 0.11974 0.17028 0.80585 0.0
C1297 C 0.13677 0.10023 0.82973 0.0
C1298 C 0.14956 0.10675 0.82265 0.0
C1299 C 0.14379 0.13032 0.81508 0.0
C1300 C 0.16854 0.08651 0.8227 0.0
C1301 C 0.14244 0.07581 0.83808 0.0
C1302 C 0.1848 0.11325 0.82267 0.0
C1303 C 0.20268 0.09348 0.82235 0.0
C1304 C 0.20446 0.04675 0.82191 0.0
C1305 C 0.18806 0.02032 0.82195 0.0
C1306 C 0.17033 0.04 0.82233 0.0
H1307 H 0.13273 0.08304 0.84368 0.0
H1308 H 0.14213 0.03929 0.83683 0.0
H1309 H 0.15697 0.08499 0.84008 0.0
H1310 H 0.18364 0.14932 0.82288 0.0
H1311 H 0.21503 0.11469 0.82231 0.0
H1312 H 0.44463 0.47596 0.56032 0.0
H1313 H 0.41262 0.44705 0.56121 0.0
H1314 H 0.42832 0.36532 0.58364 0.0
H1315 H 0.46084 0.39289 0.58249 0.0
H1316 H 0.40548 0.32081 0.57337 0.0
H1317 H 0.37401 0.48714 0.57853 0.0
H1318 H 0.38704 0.48632 0.56836 0.0
H1319 H 0.39909 0.47822 0.57878 0.0
C1320 C 0.4413 0.45151 0.5654 0.0
C1321 C 0.45516 0.43685 0.57138 0.0
C1322 C 0.42293 0.43542 0.56597 0.0
C1323 C 0.41783 0.4053 0.57271 0.0
C1324 C 0.43185 0.38906 0.57847 0.0
H1325 H 0.29739 0.35243 0.58222 0.0
H1326 H 0.32966 0.38143 0.58355 0.0
C1327 C 0.45043 0.40458 0.57778 0.0
C1328 C 0.39792 0.39048 0.57357 0.0
H1329 H 0.35268 0.42924 0.57376 0.0
C1330 C 0.39396 0.34455 0.57356 0.0
C1331 C 0.3828 0.42131 0.57409 0.0
C1332 C 0.38597 0.47094 0.57505 0.0
C1333 C 0.37536 0.32869 0.57361 0.0
C1334 C 0.36026 0.35962 0.5733 0.0
C1335 C 0.3642 0.40549 0.57378 0.0
C1336 C 0.34038 0.34495 0.57221 0.0
C1337 C 0.37217 0.27886 0.57407 0.0
C1338 C 0.33547 0.31658 0.56518 0.0
C1339 C 0.31724 0.29967 0.5645 0.0
C1340 C 0.30336 0.31185 0.57067 0.0
C1341 C 0.30784 0.34276 0.57735 0.0
C1342 C 0.32627 0.35906 0.57814 0.0
H1343 H 0.38409 0.26171 0.57741 0.0
H1344 H 0.359 0.27061 0.57768 0.0
H1345 H 0.37118 0.26532 0.56723 0.0
H1346 H 0.34585 0.30665 0.56031 0.0
H1347 H 0.31409 0.27622 0.55923 0.0
H1348 H 0.79582 0.86795 0.57278 0.0
H1349 H 0.82775 0.89973 0.5729 0.0
H1350 H 0.85117 0.76738 0.57055 0.0
H1351 H 0.81972 0.73571 0.57025 0.0
H1352 H 0.85772 0.88426 0.58442 0.0
H1353 H 0.87687 0.8324 0.5503 0.0
H1354 H 0.85294 0.83148 0.5543 0.0
H1355 H 0.86884 0.78674 0.55704 0.0
C1356 C 0.80779 0.84574 0.57225 0.0
C1357 C 0.80517 0.79937 0.5714 0.0
C1358 C 0.82601 0.86389 0.57233 0.0
C1359 C 0.84183 0.83595 0.57153 0.0
C1360 C 0.8392 0.78969 0.57091 0.0
H1361 H 0.96393 0.87512 0.57234 0.0
H1362 H 0.93217 0.84232 0.57285 0.0
C1363 C 0.82113 0.77164 0.57079 0.0
C1364 C 0.86119 0.85458 0.57152 0.0
H1365 H 0.90201 0.85727 0.55952 0.0
C1366 C 0.86736 0.87864 0.57895 0.0
C1367 C 0.87379 0.84701 0.56439 0.0
C1368 C 0.86774 0.82338 0.55602 0.0
C1369 C 0.8859 0.89471 0.57951 0.0
C1370 C 0.89851 0.88677 0.57242 0.0
C1371 C 0.89236 0.86276 0.56499 0.0
C1372 C 0.91773 0.90591 0.57232 0.0
C1373 C 0.89195 0.91966 0.58772 0.0
C1374 C 0.92002 0.95226 0.57174 0.0
C1375 C 0.93798 0.9709 0.57138 0.0
C1376 C 0.95411 0.94361 0.5716 0.0
C1377 C 0.95181 0.89702 0.57218 0.0
C1378 C 0.93371 0.87829 0.57247 0.0
H1379 H 0.88223 0.9137 0.59338 0.0
H1380 H 0.9064 0.90976 0.58973 0.0
H1381 H 0.89207 0.95604 0.58628 0.0
H1382 H 0.90788 0.97409 0.57147 0.0
H1383 H 0.93915 0.00693 0.57094 0.0
H1384 H 0.46464 0.86736 0.68828 0.0
H1385 H 0.43301 0.90074 0.6881 0.0
H1386 H 0.40834 0.76948 0.69016 0.0
H1387 H 0.43947 0.73621 0.69052 0.0
H1388 H 0.40312 0.88672 0.67635 0.0
H1389 H 0.38297 0.83523 0.71041 0.0
H1390 H 0.40697 0.83348 0.70651 0.0
H1391 H 0.39082 0.78939 0.70371 0.0
C1392 C 0.45245 0.84574 0.68874 0.0
C1393 C 0.45461 0.7992 0.68952 0.0
C1394 C 0.43442 0.8648 0.68863 0.0
C1395 C 0.41835 0.83759 0.68931 0.0
C1396 C 0.42052 0.79119 0.68988 0.0
H1397 H 0.29671 0.88182 0.68818 0.0
H1398 H 0.32821 0.84769 0.68764 0.0
C1399 C 0.4384 0.77224 0.69004 0.0
C1400 C 0.39919 0.85711 0.68926 0.0
H1401 H 0.3582 0.8613 0.70109 0.0
C1402 C 0.39334 0.88146 0.68178 0.0
C1403 C 0.38641 0.84997 0.69634 0.0
C1404 C 0.39215 0.82597 0.70473 0.0
C1405 C 0.37494 0.89825 0.68114 0.0
C1406 C 0.36217 0.89072 0.68819 0.0
C1407 C 0.36799 0.86644 0.69566 0.0
C1408 C 0.34313 0.91066 0.68822 0.0
C1409 C 0.36922 0.92351 0.6729 0.0
C1410 C 0.34122 0.95708 0.68882 0.0
C1411 C 0.32342 0.97646 0.68919 0.0
C1412 C 0.30709 0.94984 0.68897 0.0
C1413 C 0.30901 0.90319 0.68834 0.0
C1414 C 0.32694 0.88371 0.68803 0.0
H1415 H 0.379 0.91721 0.66729 0.0
H1416 H 0.35474 0.91421 0.67084 0.0
H1417 H 0.36935 0.95988 0.67433 0.0
H1418 H 0.35354 0.97837 0.68911 0.0
H1419 H 0.32253 0.01251 0.68966 0.0
H1420 H 0.82214 0.51282 0.69037 0.0
H1421 H 0.85326 0.47965 0.68976 0.0
H1422 H 0.82856 0.34807 0.68881 0.0
H1423 H 0.79695 0.38137 0.68923 0.0
H1424 H 0.86975 0.42355 0.70142 0.0
H1425 H 0.8654 0.34423 0.66818 0.0
H1426 H 0.84834 0.38449 0.672 0.0
H1427 H 0.84718 0.32748 0.67575 0.0
C1428 C 0.8232 0.47676 0.69001 0.0
C1429 C 0.80699 0.4497 0.68985 0.0
C1430 C 0.84108 0.45788 0.68966 0.0
C1431 C 0.84327 0.41147 0.68914 0.0
C1432 C 0.82718 0.38409 0.68903 0.0
H1433 H 0.93962 0.23911 0.69099 0.0
H1434 H 0.90861 0.27328 0.69056 0.0
C1435 C 0.80914 0.40309 0.68932 0.0
C1436 C 0.86253 0.39237 0.689 0.0
H1437 H 0.89275 0.32897 0.67669 0.0
C1438 C 0.8748 0.40302 0.69599 0.0
C1439 C 0.86912 0.36584 0.68188 0.0
C1440 C 0.85691 0.35511 0.67398 0.0
C1441 C 0.89339 0.38728 0.69614 0.0
C1442 C 0.89991 0.36049 0.68907 0.0
C1443 C 0.88769 0.34979 0.68208 0.0
C1444 C 0.919 0.34077 0.68912 0.0
C1445 C 0.90581 0.39848 0.70395 0.0
C1446 C 0.93518 0.36752 0.68837 0.0
C1447 C 0.95312 0.34802 0.68859 0.0
C1448 C 0.95505 0.30153 0.6896 0.0
C1449 C 0.93872 0.27506 0.69026 0.0
C1450 C 0.92093 0.29446 0.68999 0.0
H1451 H 0.8977 0.41315 0.70954 0.0
H1452 H 0.91322 0.36814 0.70636 0.0
H1453 H 0.91663 0.42305 0.70184 0.0
H1454 H 0.93392 0.40339 0.6876 0.0
H1455 H 0.9654 0.36926 0.68803 0.0
H1456 H 0.57326 0.4847 0.44109 0.0
H1457 H 0.6041 0.51978 0.44063 0.0
H1458 H 0.57811 0.64951 0.43851 0.0
H1459 H 0.54681 0.61448 0.439 0.0
H1460 H 0.61932 0.57677 0.42699 0.0
H1461 H 0.61495 0.65866 0.46008 0.0
H1462 H 0.5994 0.61381 0.45684 0.0
H1463 H 0.59581 0.66912 0.45254 0.0
C1464 C 0.57397 0.52076 0.44055 0.0
C1465 C 0.55751 0.54685 0.44014 0.0
C1466 C 0.59167 0.54068 0.44025 0.0
C1467 C 0.59336 0.58714 0.43961 0.0
C1468 C 0.57704 0.61353 0.43912 0.0
H1469 H 0.68929 0.76243 0.44045 0.0
H1470 H 0.65831 0.72831 0.43994 0.0
C1471 C 0.5592 0.59351 0.43937 0.0
C1472 C 0.61235 0.60743 0.43949 0.0
H1473 H 0.64249 0.67107 0.45173 0.0
C1474 C 0.62442 0.59751 0.43238 0.0
C1475 C 0.61892 0.63411 0.44656 0.0
C1476 C 0.60671 0.64443 0.45449 0.0
C1477 C 0.64287 0.61425 0.43209 0.0
C1478 C 0.64951 0.64073 0.4392 0.0
C1479 C 0.6374 0.6506 0.4463 0.0
C1480 C 0.66865 0.66046 0.43924 0.0
C1481 C 0.65492 0.60429 0.42408 0.0
C1482 C 0.68487 0.63357 0.43903 0.0
C1483 C 0.70281 0.65311 0.43927 0.0
C1484 C 0.70473 0.69977 0.43983 0.0
C1485 C 0.6884 0.72635 0.44006 0.0
C1486 C 0.67061 0.70693 0.43977 0.0
H1487 H 0.64634 0.59325 0.41833 0.0
H1488 H 0.66322 0.6341 0.42209 0.0
H1489 H 0.6649 0.57704 0.42575 0.0
H1490 H 0.68367 0.59752 0.4388 0.0
H1491 H 0.7151 0.63176 0.43912 0.0
H1492 H 0.04687 0.11904 0.43936 0.0
H1493 H 0.07847 0.15239 0.43911 0.0
H1494 H 0.10316 0.02088 0.44036 0.0
H1495 H 0.07201 0.98764 0.44081 0.0
H1496 H 0.11927 0.07741 0.45209 0.0
H1497 H 0.11589 0.15575 0.41867 0.0
H1498 H 0.09741 0.17255 0.42608 0.0
H1499 H 0.09875 0.11545 0.42245 0.0
C1500 C 0.05905 0.09734 0.43955 0.0
C1501 C 0.05689 0.05073 0.44012 0.0
C1502 C 0.07709 0.11637 0.43935 0.0
C1503 C 0.09317 0.08902 0.43961 0.0
C1504 C 0.09097 0.04261 0.44016 0.0
H1505 H 0.21523 0.13106 0.43895 0.0
H1506 H 0.18371 0.09709 0.43861 0.0
C1507 C 0.07308 0.0237 0.44042 0.0
C1508 C 0.11242 0.10818 0.43956 0.0
H1509 H 0.14297 0.17135 0.42734 0.0
C1510 C 0.12448 0.09781 0.44666 0.0
C1511 C 0.11921 0.13454 0.43244 0.0
C1512 C 0.10723 0.14496 0.42443 0.0
C1513 C 0.14305 0.11366 0.4469 0.0
C1514 C 0.14976 0.14026 0.43983 0.0
C1515 C 0.13775 0.15069 0.43273 0.0
C1516 C 0.16887 0.15988 0.43993 0.0
C1517 C 0.15524 0.10275 0.45481 0.0
C1518 C 0.17085 0.20622 0.44068 0.0
C1519 C 0.18867 0.22554 0.44089 0.0
C1520 C 0.20497 0.19895 0.44029 0.0
C1521 C 0.20297 0.1524 0.43946 0.0
C1522 C 0.18501 0.13299 0.43929 0.0
H1523 H 0.14697 0.08831 0.46038 0.0
H1524 H 0.1661 0.07807 0.45282 0.0
H1525 H 0.16261 0.13316 0.4572 0.0
H1526 H 0.15856 0.2275 0.44117 0.0
H1527 H 0.18961 0.26154 0.4415 0.0
H1528 H 0.71329 0.11833 0.32203 0.0
H1529 H 0.68143 0.15053 0.32246 0.0
H1530 H 0.65753 0.01856 0.32042 0.0
H1531 H 0.68891 0.98629 0.31997 0.0
H1532 H 0.65168 0.13661 0.30889 0.0
H1533 H 0.6312 0.07601 0.34243 0.0
H1534 H 0.65545 0.08076 0.33894 0.0
H1535 H 0.64132 0.03474 0.3352 0.0
C1536 C 0.70123 0.09625 0.3217 0.0
C1537 C 0.70368 0.04978 0.32097 0.0
C1538 C 0.68308 0.11464 0.32195 0.0
C1539 C 0.66718 0.08677 0.32159 0.0
C1540 C 0.66961 0.04054 0.32085 0.0
H1541 H 0.54519 0.12754 0.32163 0.0
H1542 H 0.57686 0.09427 0.32172 0.0
C1543 C 0.68763 0.02224 0.32053 0.0
C1544 C 0.64793 0.10563 0.32166 0.0
H1545 H 0.60696 0.10703 0.33353 0.0
C1546 C 0.64193 0.1305 0.3143 0.0
C1547 C 0.63519 0.09686 0.32867 0.0
C1548 C 0.64108 0.07092 0.3368 0.0
C1549 C 0.62341 0.14648 0.3137 0.0
C1550 C 0.61069 0.13824 0.32076 0.0
C1551 C 0.61669 0.11316 0.32811 0.0
C1552 C 0.59149 0.15762 0.32084 0.0
C1553 C 0.61753 0.17127 0.30542 0.0
C1554 C 0.58926 0.20407 0.32052 0.0
C1555 C 0.57136 0.22295 0.32043 0.0
C1556 C 0.55517 0.19588 0.32076 0.0
C1557 C 0.55736 0.14926 0.32132 0.0
C1558 C 0.57542 0.13027 0.32137 0.0
H1559 H 0.62669 0.16281 0.29969 0.0
H1560 H 0.60272 0.16366 0.30364 0.0
H1561 H 0.61874 0.20775 0.3066 0.0
H1562 H 0.60143 0.22586 0.32036 0.0
H1563 H 0.57028 0.25902 0.32011 0.0
H1564 H 0.21098 0.60019 0.33228 0.0
H1565 H 0.17879 0.62957 0.33359 0.0
H1566 H 0.16196 0.55069 0.31099 0.0
H1567 H 0.19364 0.51989 0.30996 0.0
H1568 H 0.15617 0.67613 0.32358 0.0
H1569 H 0.12334 0.51085 0.32834 0.0
H1570 H 0.1485 0.51853 0.3285 0.0
H1571 H 0.13618 0.51206 0.31811 0.0
C1572 C 0.2004 0.58956 0.32756 0.0
C1573 C 0.2047 0.5575 0.32108 0.0
C1574 C 0.182 0.6061 0.32834 0.0
C1575 C 0.16775 0.59114 0.32258 0.0
C1576 C 0.17245 0.56133 0.31575 0.0
H1577 H 0.06483 0.726 0.30996 0.0
H1578 H 0.09645 0.69475 0.3109 0.0
C1579 C 0.19063 0.54417 0.31509 0.0
C1580 C 0.148 0.60683 0.32357 0.0
H1581 H 0.10244 0.57021 0.32385 0.0
C1582 C 0.14445 0.65293 0.32375 0.0
C1583 C 0.13263 0.57668 0.32407 0.0
C1584 C 0.13538 0.52682 0.32485 0.0
C1585 C 0.126 0.66967 0.32395 0.0
C1586 C 0.11062 0.6395 0.32361 0.0
C1587 C 0.11417 0.59341 0.3239 0.0
C1588 C 0.09086 0.65518 0.32265 0.0
C1589 C 0.12326 0.71958 0.3246 0.0
C1590 C 0.07671 0.64078 0.32854 0.0
C1591 C 0.05835 0.65759 0.32783 0.0
C1592 C 0.05398 0.68932 0.32127 0.0
C1593 C 0.06791 0.70197 0.31515 0.0
C1594 C 0.08605 0.68456 0.31575 0.0
H1595 H 0.13537 0.73575 0.32798 0.0
H1596 H 0.12231 0.73395 0.31782 0.0
H1597 H 0.11022 0.72806 0.32829 0.0
H1598 H 0.08001 0.61764 0.33386 0.0
H1599 H 0.04787 0.64749 0.33266 0.0
H1600 H 0.48869 0.10129 0.03803 0.0
H1601 H 0.49071 0.08632 0.02201 0.0
H1602 H 0.5161 0.95836 0.02744 0.0
H1603 H 0.51405 0.97257 0.04329 0.0
H1604 H 0.52328 0.06599 0.01152 0.0
H1605 H 0.47177 0.92666 0.01114 0.0
H1606 H 0.47359 0.96539 0.02028 0.0
H1607 H 0.49012 0.92024 0.01923 0.0
C1608 C 0.49468 0.06999 0.0358 0.0
C1609 C 0.50108 0.03806 0.04196 0.0
C1610 C 0.49582 0.06148 0.02666 0.0
C1611 C 0.50323 0.02084 0.02355 0.0
C1612 C 0.50994 0.98947 0.02968 0.0
H1613 H 0.52438 0.89979 0.97176 0.0
H1614 H 0.52253 0.91568 0.98775 0.0
C1615 C 0.50883 0.99787 0.03877 0.0
C1616 C 0.50438 0.0111 0.01392 0.0
H1617 H 0.4902 0.93659 0.9981 0.0
C1618 C 0.51594 0.03794 0.00857 0.0
C1619 C 0.49491 0.9742 0.0101 0.0
C1620 C 0.48176 0.94516 0.01546 0.0
C1621 C 0.51857 0.02839 0.99952 0.0
C1622 C 0.50911 0.99145 0.99571 0.0
C1623 C 0.49753 0.96466 1.00106 0.0
C1624 C 0.51036 0.98145 0.98608 0.0
C1625 C 0.53174 0.0574 0.99417 0.0
C1626 C 0.50382 0.01274 0.97989 0.0
C1627 C 0.50484 0.00382 0.97082 0.0
C1628 C 0.51232 0.96317 0.96771 0.0
C1629 C 0.51861 0.93143 0.97393 0.0
C1630 C 0.51756 0.94046 0.98306 0.0
H1631 H 0.54174 0.07584 0.99849 0.0
H1632 H 0.53991 0.03716 0.98935 0.0
H1633 H 0.5234 0.08237 0.9904 0.0
H1634 H 0.49781 0.04411 0.98208 0.0
H1635 H 0.49972 0.029 0.96625 0.0
H1636 H 0.74758 0.27736 0.0442 0.0
H1637 H 0.74476 0.29119 0.02834 0.0
H1638 H 0.77052 0.16374 0.02287 0.0
H1639 H 0.77325 0.14915 0.03887 0.0
H1640 H 0.77357 0.29618 0.01587 0.0
H1641 H 0.72252 0.16186 0.00761 0.0
H1642 H 0.72691 0.17962 0.01887 0.0
H1643 H 0.74332 0.14352 0.01333 0.0
C1644 C 0.75259 0.25198 0.03966 0.0
C1645 C 0.76062 0.212 0.04283 0.0
C1646 C 0.75098 0.26008 0.03058 0.0
C1647 C 0.75726 0.22839 0.02443 0.0
C1648 C 0.76529 0.18835 0.02752 0.0
H1649 H 0.76242 0.22016 0.96746 0.0
H1650 H 0.76434 0.2072 0.98336 0.0
C1651 C 0.76692 0.18013 0.03665 0.0
C1652 C 0.75574 0.23824 0.0148 0.0
H1653 H 0.7351 0.20318 0.99558 0.0
C1654 C 0.76512 0.27594 0.01143 0.0
C1655 C 0.74463 0.21191 0.00905 0.0
C1656 C 0.73361 0.17216 0.01238 0.0
C1657 C 0.764 0.28752 1.00241 0.0
C1658 C 0.75295 0.26109 0.99665 0.0
C1659 C 0.74351 0.22349 1.00003 0.0
C1660 C 0.75177 0.27035 0.98699 0.0
C1661 C 0.77505 0.32721 0.99907 0.0
C1662 C 0.74397 0.31028 0.98372 0.0
C1663 C 0.74286 0.31801 0.97455 0.0
C1664 C 0.74945 0.28576 0.96852 0.0
C1665 C 0.75719 0.24583 0.97187 0.0
C1666 C 0.75829 0.23823 0.98099 0.0
H1667 H 0.78599 0.33789 1.00389 0.0
H1668 H 0.78197 0.31947 0.99264 0.0
H1669 H 0.76533 0.3557 0.99799 0.0
H1670 H 0.73857 0.33523 0.98825 0.0
H1671 H 0.73674 0.34897 0.97218 0.0
H1672 H 0.51498 0.27612 0.21645 0.0
H1673 H 0.51709 0.29012 0.23231 0.0
H1674 H 0.4909 0.16292 0.23767 0.0
H1675 H 0.48887 0.14817 0.22166 0.0
H1676 H 0.48781 0.29568 0.24448 0.0
H1677 H 0.53805 0.16077 0.25346 0.0
H1678 H 0.53423 0.17831 0.24213 0.0
H1679 H 0.51746 0.14259 0.24757 0.0
C1680 C 0.50973 0.25082 0.22096 0.0
C1681 C 0.50177 0.21087 0.21776 0.0
C1682 C 0.51094 0.25902 0.23005 0.0
C1683 C 0.50432 0.22747 0.23618 0.0
C1684 C 0.49638 0.18743 0.23305 0.0
H1685 H 0.49711 0.22105 0.29319 0.0
H1686 H 0.49546 0.20766 0.2773 0.0
C1687 C 0.49516 0.17911 0.2239 0.0
C1688 C 0.5054 0.23748 0.24581 0.0
H1689 H 0.52508 0.2026 0.26529 0.0
C1690 C 0.49599 0.27541 0.24903 0.0
C1691 C 0.51616 0.21111 0.25172 0.0
C1692 C 0.5272 0.17112 0.24857 0.0
C1693 C 0.49675 0.28721 0.25805 0.0
C1694 C 0.50747 0.26078 0.26396 0.0
C1695 C 0.51692 0.22291 0.26073 0.0
C1696 C 0.50835 0.27043 0.27361 0.0
C1697 C 0.4857 0.32718 0.26121 0.0
C1698 C 0.51622 0.31034 0.27685 0.0
C1699 C 0.51718 0.31831 0.28602 0.0
C1700 C 0.51037 0.28634 0.29207 0.0
C1701 C 0.50251 0.24651 0.28875 0.0
C1702 C 0.50156 0.23866 0.27965 0.0
H1703 H 0.47497 0.33782 0.25627 0.0
H1704 H 0.47852 0.31979 0.26759 0.0
H1705 H 0.49546 0.35558 0.2623 0.0
H1706 H 0.52182 0.33502 0.2723 0.0
H1707 H 0.52339 0.34917 0.28835 0.0
H1708 H 0.74973 0.97359 0.21721 0.0
H1709 H 0.74752 0.95974 0.23308 0.0
H1710 H 0.77308 0.08767 0.23835 0.0
H1711 H 0.77521 0.10228 0.22231 0.0
H1712 H 0.7768 0.95548 0.24537 0.0
H1713 H 0.72531 0.08855 0.25386 0.0
H1714 H 0.72946 0.07069 0.24259 0.0
H1715 H 0.74594 0.10708 0.24801 0.0
C1716 C 0.75484 -0.00093 0.2217 0.0
C1717 C 0.76263 0.0392 0.21847 0.0
C1718 C 0.75357 0.99095 0.23079 0.0
C1719 C 0.75997 0.02275 0.23689 0.0
C1720 C 0.76778 0.06294 0.23374 0.0
H1721 H 0.764 0.028 0.29404 0.0
H1722 H 0.76668 0.04214 0.27819 0.0
C1723 C 0.76906 0.07118 0.22459 0.0
C1724 C 0.7587 0.01289 0.24652 0.0
H1725 H 0.73782 0.04657 0.26579 0.0
C1726 C 0.76827 0.97535 0.24985 0.0
C1727 C 0.74749 0.03875 0.25232 0.0
C1728 C 0.73631 0.07832 0.24904 0.0
C1729 C 0.76715 0.96334 0.25885 0.0
C1730 C 0.75591 0.98915 0.26464 0.0
C1731 C 0.74637 0.02673 0.26132 0.0
C1732 C 0.75448 0.97904 0.27425 0.0
C1733 C 0.77833 0.92377 0.26212 0.0
C1734 C 0.74667 0.93869 0.27733 0.0
C1735 C 0.74513 0.93028 0.28647 0.0
C1736 C 0.75128 0.96227 0.29265 0.0
C1737 C 0.75909 0.00253 0.28949 0.0
C1738 C 0.76063 0.0108 0.28042 0.0
H1739 H 0.78945 0.91385 0.25733 0.0
H1740 H 0.78503 0.93121 0.26861 0.0
H1741 H 0.76874 0.89487 0.26305 0.0
H1742 H 0.74155 0.91399 0.27267 0.0
H1743 H 0.73896 0.89909 0.28868 0.0
H1744 H 0.26126 0.71147 0.96621 0.0
H1745 H 0.26377 0.69616 0.98204 0.0
H1746 H 0.24076 0.82607 0.98789 0.0
H1747 H 0.23828 0.84211 0.97193 0.0
H1748 H 0.27374 0.80301 0.99775 0.0
H1749 H 0.22026 0.6679 0.99912 0.0
H1750 H 0.23801 0.66031 0.99077 0.0
H1751 H 0.22195 0.7065 0.98993 0.0
C1752 C 0.25665 0.73692 0.97083 0.0
C1753 C 0.24948 0.77805 0.96778 0.0
C1754 C 0.258 0.72789 0.97989 0.0
C1755 C 0.25215 0.75961 0.98613 0.0
C1756 C 0.24521 0.80099 0.98316 0.0
H1757 H 0.2503 0.77471 0.04312 0.0
H1758 H 0.2484 0.78698 0.0272 0.0
C1759 C 0.2438 0.81009 0.97405 0.0
C1760 C 0.25384 0.74976 0.99575 0.0
H1761 H 0.23908 0.67792 0.01198 0.0
C1762 C 0.26609 0.77584 1.00088 0.0
C1763 C 0.24399 0.71396 0.99978 0.0
C1764 C 0.23018 0.68574 0.99465 0.0
C1765 C 0.26891 0.76681 0.00993 0.0
C1766 C 0.25894 0.73126 0.01399 0.0
C1767 C 0.24679 0.70496 0.00884 0.0
C1768 C 0.26008 0.72271 0.02367 0.0
C1769 C 0.28273 0.79506 0.01506 0.0
C1770 C 0.26677 0.68179 0.027 0.0
C1771 C 0.26782 0.6744 0.03619 0.0
C1772 C 0.26204 0.70777 0.04217 0.0
C1773 C 0.25503 0.7483 0.03874 0.0
C1774 C 0.25401 0.75558 0.02962 0.0
H1775 H 0.29297 0.81184 0.01058 0.0
H1776 H 0.27495 0.8214 0.01871 0.0
H1777 H 0.29061 0.77461 0.01996 0.0
H1778 H 0.27136 0.65582 0.0225 0.0
H1779 H 0.27322 0.64281 0.0386 0.0
H1780 H 0.48946 0.64596 0.72196 0.0
H1781 H 0.49181 0.66078 0.73798 0.0
H1782 H 0.51485 0.79117 0.73246 0.0
H1783 H 0.51248 0.77709 0.71662 0.0
H1784 H 0.52456 0.68399 0.74815 0.0
H1785 H 0.47069 0.81802 0.74925 0.0
H1786 H 0.47273 0.77966 0.74005 0.0
H1787 H 0.48851 0.8264 0.74096 0.0
C1788 C 0.49499 0.67777 0.72417 0.0
C1789 C 0.50066 0.71038 0.71799 0.0
C1790 C 0.49632 0.68619 0.73332 0.0
C1791 C 0.50319 0.72741 0.73639 0.0
C1792 C 0.50913 0.75955 0.73024 0.0
H1793 H 0.52445 0.84953 0.78806 0.0
H1794 H 0.52239 0.8335 0.77208 0.0
C1795 C 0.50784 0.75123 0.72116 0.0
C1796 C 0.5046 0.73698 0.74603 0.0
H1797 H 0.48989 0.80964 0.76207 0.0
C1798 C 0.51687 0.7112 0.75122 0.0
C1799 C 0.49468 0.7728 0.74999 0.0
C1800 C 0.48078 0.80061 0.7448 0.0
C1801 C 0.51976 0.7208 0.76025 0.0
C1802 C 0.50986 0.75668 0.7642 0.0
C1803 C 0.49756 0.7824 0.75901 0.0
C1804 C 0.51138 0.76661 0.77382 0.0
C1805 C 0.53367 0.69301 0.76543 0.0
C1806 C 0.50561 0.73465 0.78005 0.0
C1807 C 0.50674 0.74366 0.78911 0.0
C1808 C 0.51358 0.78503 0.79218 0.0
C1809 C 0.51919 0.81732 0.78592 0.0
C1810 C 0.51802 0.80822 0.7768 0.0
H1811 H 0.54375 0.6756 0.76098 0.0
H1812 H 0.54172 0.71396 0.77017 0.0
H1813 H 0.52594 0.66721 0.76927 0.0
H1814 H 0.50006 0.70273 0.7779 0.0
H1815 H 0.50218 0.718 0.79371 0.0
H1816 H 0.24879 0.97196 0.71667 0.0
H1817 H 0.246 0.95753 0.7325 0.0
H1818 H 0.2717 0.08489 0.73815 0.0
H1819 H 0.27438 0.10009 0.72216 0.0
H1820 H 0.27443 0.95198 0.74505 0.0
H1821 H 0.22368 0.08688 0.75331 0.0
H1822 H 0.22824 0.06952 0.74205 0.0
H1823 H 0.24466 0.1051 0.74771 0.0
C1824 C 0.25381 0.99717 0.72124 0.0
C1825 C 0.26178 0.03734 0.71812 0.0
C1826 C 0.25222 0.98873 0.73031 0.0
C1827 C 0.25845 0.02026 0.73651 0.0
C1828 C 0.26649 0.06041 0.73347 0.0
H1829 H 0.26173 0.02486 0.79369 0.0
H1830 H 0.2643 0.03931 0.77784 0.0
C1831 C 0.2681 0.06897 0.72434 0.0
C1832 C 0.25678 0.01019 0.74613 0.0
H1833 H 0.23582 0.04476 0.76532 0.0
C1834 C 0.26597 0.9722 0.74949 0.0
C1835 C 0.24566 0.0365 0.75189 0.0
C1836 C 0.23484 0.07658 0.74857 0.0
C1837 C 0.26459 0.96023 0.75849 0.0
C1838 C 0.25347 0.98655 0.76425 0.0
C1839 C 0.24428 0.02453 0.76088 0.0
C1840 C 0.25185 0.97654 0.77387 0.0
C1841 C 0.27542 0.92017 0.7618 0.0
C1842 C 0.24386 0.93637 0.77693 0.0
C1843 C 0.24238 0.92779 0.78607 0.0
C1844 C 0.24877 0.95941 0.79227 0.0
C1845 C 0.25665 -0.00037 0.78913 0.0
C1846 C 0.25813 0.00809 0.78005 0.0
H1847 H 0.28656 0.90985 0.75706 0.0
H1848 H 0.28204 0.92727 0.76832 0.0
H1849 H 0.2656 0.89166 0.76267 0.0
H1850 H 0.23862 0.91186 0.77227 0.0
H1851 H 0.23616 0.89662 0.78826 0.0
H1852 H 0.50181 0.5176 0.46793 0.0
H1853 H 0.49985 0.5284 0.48388 0.0
H1854 H 0.52341 0.3974 0.48819 0.0
H1855 H 0.52568 0.38627 0.47206 0.0
H1856 H 0.48 0.47816 0.49629 0.0
H1857 H 0.55671 0.47916 0.50356 0.0
H1858 H 0.54755 0.48496 0.49245 0.0
H1859 H 0.54812 0.43105 0.49769 0.0
C1860 C 0.50666 0.49092 0.47223 0.0
C1861 C 0.51398 0.45102 0.46869 0.0
C1862 C 0.50549 0.49724 0.48137 0.0
C1863 C 0.51165 0.46397 0.48723 0.0
C1864 C 0.51886 0.42384 0.48377 0.0
H1865 H 0.51397 0.45658 0.54475 0.0
H1866 H 0.51649 0.44057 0.52894 0.0
C1867 C 0.52006 0.41742 0.47456 0.0
C1868 C 0.51014 0.47171 0.49693 0.0
H1869 H 0.53612 0.48605 0.51578 0.0
C1870 C 0.49226 0.47981 0.50056 0.0
C1871 C 0.52616 0.47399 0.50247 0.0
C1872 C 0.54576 0.46721 0.49887 0.0
C1873 C 0.48995 0.48989 0.50959 0.0
C1874 C 0.50599 0.49274 0.51512 0.0
C1875 C 0.52385 0.48411 0.51151 0.0
C1876 C 0.5045 0.50346 0.5247 0.0
C1877 C 0.47033 0.4967 0.51317 0.0
C1878 C 0.49712 0.54452 0.52759 0.0
C1879 C 0.4956 0.5539 0.53668 0.0
C1880 C 0.50154 0.5224 0.54302 0.0
C1881 C 0.50919 0.48164 0.54007 0.0
C1882 C 0.51069 0.47236 0.53102 0.0
H1883 H 0.45948 0.48267 0.50866 0.0
H1884 H 0.46875 0.48094 0.51981 0.0
H1885 H 0.4676 0.53303 0.51388 0.0
H1886 H 0.49258 0.56937 0.52281 0.0
H1887 H 0.48974 0.58566 0.53872 0.0
H1888 H 0.74521 0.78062 0.5441 0.0
H1889 H 0.74293 0.79539 0.52825 0.0
H1890 H 0.76875 0.66811 0.52268 0.0
H1891 H 0.7709 0.65257 0.53866 0.0
H1892 H 0.77191 0.80119 0.51599 0.0
H1893 H 0.72147 0.66669 0.50708 0.0
H1894 H 0.72555 0.68368 0.51841 0.0
H1895 H 0.74213 0.64798 0.51286 0.0
C1896 C 0.75034 0.7555 0.53954 0.0
C1897 C 0.75821 0.71527 0.54267 0.0
C1898 C 0.74904 0.76412 0.53046 0.0
C1899 C 0.75549 0.73272 0.52429 0.0
C1900 C 0.76338 0.69248 0.52735 0.0
H1901 H 0.76301 0.72645 0.46735 0.0
H1902 H 0.76465 0.71327 0.48326 0.0
C1903 C 0.76468 0.68373 0.53647 0.0
C1904 C 0.75429 0.74301 0.51467 0.0
H1905 H 0.73469 0.70812 0.4952 0.0
C1906 C 0.76372 0.78095 0.51144 0.0
C1907 C 0.74353 0.71666 0.50877 0.0
C1908 C 0.73244 0.67669 0.51194 0.0
C1909 C 0.763 0.79275 0.50242 0.0
C1910 C 0.75233 0.76626 0.49651 0.0
C1911 C 0.74283 0.72843 0.49975 0.0
C1912 C 0.75153 0.77582 0.48686 0.0
C1913 C 0.77406 0.83274 0.49924 0.0
C1914 C 0.74356 0.81554 0.48358 0.0
C1915 C 0.74261 0.82338 0.47441 0.0
C1916 C 0.74953 0.79146 0.4684 0.0
C1917 C 0.75752 0.75185 0.47176 0.0
C1918 C 0.75846 0.74412 0.48087 0.0
H1919 H 0.7847 0.84357 0.50419 0.0
H1920 H 0.78134 0.82526 0.49288 0.0
H1921 H 0.76429 0.86103 0.49806 0.0
H1922 H 0.73785 0.84015 0.4881 0.0
H1923 H 0.73629 0.85408 0.47204 0.0
H1924 H 0.76273 0.53214 0.79381 0.0
H1925 H 0.76455 0.54645 0.77794 0.0
H1926 H 0.74004 0.41739 0.77266 0.0
H1927 H 0.73792 0.40273 0.78869 0.0
H1928 H 0.78375 0.49834 0.76498 0.0
H1929 H 0.70688 0.50409 0.75827 0.0
H1930 H 0.71645 0.507 0.76935 0.0
H1931 H 0.7151 0.45429 0.7637 0.0
C1932 C 0.75765 0.50664 0.78931 0.0
C1933 C 0.75008 0.46626 0.79254 0.0
C1934 C 0.75875 0.51496 0.78022 0.0
C1935 C 0.75225 0.48327 0.77413 0.0
C1936 C 0.74485 0.44264 0.77727 0.0
H1937 H 0.74828 0.47532 0.7171 0.0
H1938 H 0.74613 0.46196 0.73298 0.0
C1939 C 0.74374 0.4342 0.78642 0.0
C1940 C 0.75355 0.4931 0.76449 0.0
H1941 H 0.72715 0.51028 0.74587 0.0
C1942 C 0.77138 0.50102 0.76079 0.0
C1943 C 0.73738 0.49684 0.75908 0.0
C1944 C 0.71783 0.49051 0.76278 0.0
C1945 C 0.77352 0.51179 0.75177 0.0
C1946 C 0.75735 0.51551 0.74635 0.0
C1947 C 0.73952 0.50764 0.75006 0.0
C1948 C 0.75867 0.52501 0.73671 0.0
C1949 C 0.79308 0.51797 0.74807 0.0
C1950 C 0.76628 0.56531 0.7335 0.0
C1951 C 0.76759 0.57319 0.72434 0.0
C1952 C 0.76125 0.54091 0.71826 0.0
C1953 C 0.75339 0.50096 0.72155 0.0
C1954 C 0.75209 0.49319 0.73066 0.0
H1955 H 0.80401 0.50433 0.75259 0.0
H1956 H 0.79445 0.50143 0.74151 0.0
H1957 H 0.79586 0.55417 0.74715 0.0
H1958 H 0.77114 0.59068 0.73808 0.0
H1959 H 0.77363 0.60433 0.72202 0.0
H1960 H 0.23663 0.3541 0.47188 0.0
H1961 H 0.23833 0.34071 0.48796 0.0
H1962 H 0.26671 0.21564 0.48326 0.0
H1963 H 0.26492 0.22826 0.46734 0.0
H1964 H 0.237 0.20805 0.4951 0.0
H1965 H 0.28457 0.34804 0.50426 0.0
H1966 H 0.26393 0.36378 0.49813 0.0
H1967 H 0.28157 0.3297 0.49294 0.0
C1968 C 0.24335 0.32395 0.47429 0.0
C1969 C 0.25063 0.29231 0.46831 0.0
C1970 C 0.24437 0.31641 0.48347 0.0
C1971 C 0.2528 0.27731 0.4868 0.0
C1972 C 0.26015 0.24599 0.48084 0.0
H1973 H 0.27363 0.15615 0.53871 0.0
H1974 H 0.27141 0.17143 0.52273 0.0
C1975 C 0.25912 0.2534 0.47172 0.0
C1976 C 0.2536 0.26786 0.49647 0.0
H1977 H 0.27222 0.30461 0.51603 0.0
C1978 C 0.24471 0.22913 0.49968 0.0
C1979 C 0.26371 0.29534 0.50242 0.0
C1980 C 0.27414 0.33636 0.49929 0.0
C1981 C 0.24548 0.21739 0.50871 0.0
C1982 C 0.25567 0.24474 0.51465 0.0
C1983 C 0.26448 0.2836 0.51145 0.0
C1984 C 0.25688 0.23452 0.52428 0.0
C1985 C 0.23506 0.17633 0.51183 0.0
C1986 C 0.24971 0.26512 0.53043 0.0
C1987 C 0.25102 0.25662 0.53952 0.0
C1988 C 0.25964 0.21733 0.54268 0.0
C1989 C 0.26682 0.18656 0.5365 0.0
C1990 C 0.26549 0.19517 0.52737 0.0
H1991 H 0.22441 0.16516 0.50692 0.0
H1992 H 0.24525 0.14867 0.51282 0.0
H1993 H 0.22791 0.18265 0.51826 0.0
H1994 H 0.24304 0.29569 0.5282 0.0
H1995 H 0.24533 0.28116 0.54406 0.0
H1996 H 0.23783 0.4037 0.28866 0.0
H1997 H 0.24092 0.41894 0.27269 0.0
H1998 H 0.26476 0.54811 0.27849 0.0
H1999 H 0.262 0.5332 0.29432 0.0
H2000 H 0.225 0.48987 0.26288 0.0
H2001 H 0.30295 0.49504 0.26121 0.0
H2002 H 0.29043 0.47152 0.27054 0.0
H2003 H 0.29307 0.53106 0.26951 0.0
C2004 C 0.24385 0.4352 0.28652 0.0
C2005 C 0.24976 0.46707 0.29278 0.0
C2006 C 0.24558 0.44387 0.27741 0.0
C2007 C 0.25337 0.48436 0.27441 0.0
C2008 C 0.25912 0.51626 0.28064 0.0
H2009 H 0.27312 0.60361 0.22211 0.0
H2010 H 0.27021 0.59083 0.23818 0.0
C2011 C 0.25741 0.50768 0.28971 0.0
C2012 C 0.25495 0.49422 0.26479 0.0
H2013 H 0.28646 0.52074 0.24846 0.0
C2014 C 0.23844 0.49635 0.25971 0.0
C2015 C 0.2725 0.50309 0.26069 0.0
C2016 C 0.29078 0.4997 0.26574 0.0
C2017 C 0.23896 0.50764 0.25066 0.0
C2018 C 0.25651 0.5163 0.24656 0.0
C2019 C 0.27302 0.5144 0.25164 0.0
C2020 C 0.2581 0.5248 0.23688 0.0
C2021 C 0.22069 0.51084 0.2456 0.0
C2022 C 0.25252 0.49173 0.23087 0.0
C2023 C 0.25416 0.49887 0.22175 0.0
C2024 C 0.26155 0.53922 0.21842 0.0
C2025 C 0.26731 0.57229 0.22446 0.0
C2026 C 0.26567 0.56502 0.23363 0.0
H2027 H 0.20853 0.51596 0.25012 0.0
H2028 H 0.22109 0.53865 0.24071 0.0
H2029 H 0.21833 0.47921 0.24193 0.0
H2030 H 0.24703 0.46008 0.23323 0.0
H2031 H 0.24967 0.47247 0.21733 0.0
H2032 H 0.02317 0.89711 0.47241 0.0
H2033 H 0.02047 0.9109 0.48845 0.0
H2034 H 0.99543 0.03938 0.48314 0.0
H2035 H 0.99783 0.02596 0.46728 0.0
H2036 H 0.03615 0.98246 0.49834 0.0
H2037 H 0.95828 0.98319 0.5006 0.0
H2038 H 0.9707 0.96067 0.49116 0.0
H2039 H 0.96742 0.02001 0.49223 0.0
C2040 C 0.01697 0.9281 0.47467 0.0
C2041 C 0.01065 0.96026 0.46854 0.0
C2042 C 0.01545 0.93597 0.48383 0.0
C2043 C 0.00745 0.97587 0.48699 0.0
C2044 C 1.00126 0.00796 0.48087 0.0
H2045 H 0.9881 0.09627 0.53909 0.0
H2046 H 0.99075 0.08245 0.52304 0.0
C2047 C 1.00277 0.00023 0.47178 0.0
C2048 C 0.00611 0.98515 0.49664 0.0
H2049 H 0.97495 0.01079 0.51316 0.0
C2050 C 0.02277 0.98829 0.5016 0.0
C2051 C 0.98864 0.99322 0.50087 0.0
C2052 C 0.97022 0.98873 0.49597 0.0
C2053 C 0.02246 1e-05 0.51062 0.0
C2054 C 1.00499 0.00809 0.51484 0.0
C2055 C 0.98833 0.00495 0.50989 0.0
C2056 C 1.00366 0.01735 0.5245 0.0
C2057 C 0.04088 0.00448 0.51552 0.0
C2058 C 0.0098 0.98519 0.53061 0.0
C2059 C 0.00832 0.99293 0.53971 0.0
C2060 C 1.00052 0.03298 0.54295 0.0
C2061 C 0.99424 0.0652 0.53682 0.0
C2062 C 0.99573 0.05732 0.52766 0.0
H2063 H 0.05283 0.00993 0.51089 0.0
H2064 H 0.04041 0.03259 0.52032 0.0
H2065 H 0.04365 0.97324 0.51928 0.0
H2066 H 0.01557 0.95372 0.52834 0.0
H2067 H 0.01322 0.96716 0.5442 0.0
H2068 H 0.01377 0.27988 0.71702 0.0
H2069 H 0.01641 0.29501 0.73283 0.0
H2070 H 0.99031 0.16829 0.73873 0.0
H2071 H 0.98779 0.15239 0.72278 0.0
H2072 H 0.98801 0.30185 0.74531 0.0
H2073 H 0.03796 0.16602 0.75405 0.0
H2074 H 0.03358 0.18284 0.74273 0.0
H2075 H 0.017 0.14781 0.74846 0.0
C2076 C 0.00863 0.25495 0.72165 0.0
C2077 C 1.0006 0.21475 0.71861 0.0
C2078 C 0.01014 0.26379 0.73071 0.0
C2079 C 1.00375 0.23266 0.73697 0.0
C2080 C 0.99565 0.19248 0.73401 0.0
H2081 H 0.99839 0.22754 0.794 0.0
H2082 H 0.99617 0.21425 0.77813 0.0
C2083 C 0.99414 0.18351 0.72489 0.0
C2084 C 1.00531 0.24311 0.74658 0.0
H2085 H 0.02545 0.2082 0.76596 0.0
C2086 C 0.99624 0.28147 0.74983 0.0
C2087 C 0.01614 0.21663 0.75244 0.0
C2088 C 0.02688 0.17623 0.74926 0.0
C2089 C 0.99738 0.29352 0.75883 0.0
C2090 C 0.00812 0.26688 0.7647 0.0
C2091 C 0.01726 0.22866 0.76144 0.0
C2092 C 0.0093 0.2766 0.77435 0.0
C2093 C 0.98667 0.33394 0.76202 0.0
C2094 C 0.01746 0.31628 0.77754 0.0
C2095 C 0.01875 0.3242 0.7867 0.0
C2096 C 0.01198 0.29241 0.7928 0.0
C2097 C 1.00379 0.25285 0.78953 0.0
C2098 C 1.00251 0.24506 0.78043 0.0
H2099 H 0.9759 0.34492 0.75714 0.0
H2100 H 0.97961 0.32691 0.76845 0.0
H2101 H 0.99665 0.36198 0.76305 0.0
H2102 H 0.02307 0.3408 0.77295 0.0
H2103 H 0.02521 0.35485 0.78899 0.0
H2104 H 0.01197 0.76914 0.21769 0.0
H2105 H 0.01388 0.78277 0.23357 0.0
H2106 H 0.98647 0.6568 0.23872 0.0
H2107 H 0.98468 0.64239 0.22269 0.0
H2108 H 0.98476 0.78972 0.24571 0.0
H2109 H 0.03335 0.6512 0.25459 0.0
H2110 H 0.02973 0.66917 0.24327 0.0
H2111 H 0.01251 0.63465 0.24869 0.0
C2112 C 0.00638 0.74405 0.22216 0.0
C2113 C 0.9982 0.70451 0.21889 0.0
C2114 C 0.00748 0.75204 0.23126 0.0
C2115 C 1.0005 0.72068 0.23734 0.0
C2116 C 0.99225 0.68114 0.23414 0.0
H2117 H 0.99552 0.71728 0.29469 0.0
H2118 H 0.99265 0.70242 0.27887 0.0
C2119 C 0.99115 0.67303 0.22498 0.0
C2120 C 1.00165 0.73032 0.24699 0.0
H2121 H 0.02122 0.69426 0.26642 0.0
C2122 C 0.99274 0.76887 0.25024 0.0
C2123 C 0.01212 0.70318 0.25288 0.0
C2124 C 0.02263 0.66243 0.2497 0.0
C2125 C 0.99382 0.78072 0.25925 0.0
C2126 C 1.00436 0.75368 0.26513 0.0
C2127 C 0.0132 0.71502 0.26189 0.0
C2128 C 0.00594 0.76404 0.27474 0.0
C2129 C 0.98336 0.82156 0.26242 0.0
C2130 C 0.01445 0.80371 0.27771 0.0
C2131 C 0.01611 0.8125 0.28682 0.0
C2132 C 0.00936 0.78159 0.2931 0.0
C2133 C 1.00087 0.74193 0.29007 0.0
C2134 C 0.99923 0.73325 0.281 0.0
H2135 H 0.97243 0.83233 0.2576 0.0
H2136 H 0.97653 0.81518 0.26893 0.0
H2137 H 0.99346 0.84952 0.26326 0.0
H2138 H 0.02003 0.8276 0.27298 0.0
H2139 H 0.02281 0.84321 0.28893 0.0
H2140 H 0.99769 0.53614 0.96664 0.0
H2141 H 0.9952 0.55173 0.98245 0.0
H2142 H 0.02005 0.42378 0.98843 0.0
H2143 H 0.02289 0.40795 0.97251 0.0
H2144 H 0.97593 0.50574 0.99554 0.0
H2145 H 0.05253 0.51072 1.00275 0.0
H2146 H 0.04332 0.5122 0.99159 0.0
H2147 H 0.04458 0.46019 0.99754 0.0
C2148 C 1.00269 0.51118 0.97128 0.0
C2149 C 0.0106 0.47079 0.96828 0.0
C2150 C 1.00121 0.52022 0.98034 0.0
C2151 C 0.00765 0.48925 0.98663 0.0
C2152 C 0.01532 0.44856 0.98369 0.0
H2153 H 0.01022 0.47993 0.04367 0.0
H2154 H 0.01231 0.46688 0.02777 0.0
C2155 C 0.01683 0.43944 0.97459 0.0
C2156 C 0.00608 0.49973 0.99623 0.0
H2157 H 0.03192 0.51555 0.01507 0.0
C2158 C 0.98817 0.50805 0.99981 0.0
C2159 C 0.02208 0.50299 1.00178 0.0
C2160 C 0.04174 0.49647 0.99823 0.0
C2161 C 0.98578 0.5185 0.00883 0.0
C2162 C 1.00176 0.52145 0.01439 0.0
C2163 C 0.01968 0.51341 0.01079 0.0
C2164 C 1.00019 0.53043 0.02405 0.0
C2165 C 0.96613 0.52507 0.01239 0.0
C2166 C 0.99276 0.57083 0.02727 0.0
C2167 C 0.99149 0.57854 0.03644 0.0
C2168 C 0.99771 0.546 0.04252 0.0
C2169 C 1.00525 0.50581 0.03921 0.0
C2170 C 0.00651 0.49821 0.0301 0.0
H2171 H 0.95527 0.51209 0.00776 0.0
H2172 H 0.96443 0.50816 0.01891 0.0
H2173 H 0.96354 0.5613 0.01337 0.0
H2174 H 0.9881 0.59651 0.02271 0.0
H2175 H 0.98569 0.60988 0.03876 0.0
H2176 H 0.54932 0.12154 0.07095 0.0
H2177 H 0.58126 0.15037 0.07194 0.0
H2178 H 0.60252 0.01633 0.07499 0.0
H2179 H 0.57033 0.98673 0.07396 0.0
H2180 H 0.60816 0.13988 0.08587 0.0
H2181 H 0.63247 0.06928 0.05371 0.0
H2182 H 0.60788 0.07362 0.05658 0.0
H2183 H 0.62209 0.03026 0.06137 0.0
C2184 C 0.56073 0.09795 0.07182 0.0
C2185 C 0.55725 0.05167 0.07231 0.0
C2186 C 0.579 0.11464 0.07242 0.0
C2187 C 0.59425 0.08552 0.07345 0.0
C2188 C 0.59092 0.03931 0.07408 0.0
H2189 H 0.71416 0.12839 0.07373 0.0
H2190 H 0.68235 0.09879 0.0745 0.0
C2191 C 0.57254 0.02248 0.07352 0.0
C2192 C 0.61358 0.10402 0.07376 0.0
H2193 H 0.65483 0.10855 0.06221 0.0
C2194 C 0.61842 0.133 0.08071 0.0
C2195 C 0.62682 0.09521 0.06699 0.0
C2196 C 0.6221 0.0657 0.05918 0.0
C2197 C 0.63631 0.15288 0.08116 0.0
C2198 C 0.64954 0.14423 0.07436 0.0
C2199 C 0.64466 0.11522 0.06741 0.0
C2200 C 0.6688 0.16347 0.07444 0.0
C2201 C 0.64101 0.18214 0.089 0.0
C2202 C 0.67183 0.20992 0.0742 0.0
C2203 C 0.69017 0.22719 0.07381 0.0
C2204 C 0.70571 0.19819 0.07354 0.0
C2205 C 0.70254 0.15179 0.07387 0.0
C2206 C 0.68433 0.13469 0.07432 0.0
H2207 H 0.63127 0.17628 0.09465 0.0
H2208 H 0.65565 0.17623 0.09129 0.0
H2209 H 0.63977 0.21773 0.087 0.0
H2210 H 0.66002 0.23277 0.07411 0.0
H2211 H 0.69214 0.26305 0.07352 0.0
H2212 H 0.57084 0.26342 0.18692 0.0
H2213 H 0.60311 0.23389 0.18616 0.0
H2214 H 0.58142 0.09938 0.18678 0.0
H2215 H 0.54945 0.12814 0.18751 0.0
H2216 H 0.61997 0.17405 0.19915 0.0
H2217 H 0.61817 0.09934 0.16545 0.0
H2218 H 0.60161 0.14143 0.16902 0.0
H2219 H 0.59871 0.08432 0.17246 0.0
C2220 C 0.57298 0.22759 0.1868 0.0
C2221 C 0.55757 0.1982 0.18728 0.0
C2222 C 0.59138 0.21079 0.18638 0.0
C2223 C 0.5946 0.16445 0.18629 0.0
C2224 C 0.57924 0.1352 0.18668 0.0
H2225 H 0.6927 0.9888 0.1874 0.0
H2226 H 0.6606 0.01934 0.18676 0.0
C2227 C 0.56095 0.15183 0.18716 0.0
C2228 C 0.61396 0.14615 0.1863 0.0
H2229 H 0.64406 0.07936 0.17463 0.0
C2230 C 0.62533 0.1537 0.19375 0.0
C2231 C 0.62076 0.11906 0.17932 0.0
C2232 C 0.60927 0.11076 0.17106 0.0
C2233 C 0.64323 0.13426 0.19448 0.0
C2234 C 0.65011 0.10737 0.18747 0.0
C2235 C 0.63873 0.09982 0.18001 0.0
C2236 C 0.6694 0.08846 0.18762 0.0
C2237 C 0.65443 0.14185 0.20286 0.0
C2238 C 0.68493 0.11717 0.1881 0.0
C2239 C 0.70312 0.09996 0.1885 0.0
C2240 C 0.70628 0.05352 0.18834 0.0
C2241 C 0.69074 0.02467 0.18758 0.0
C2242 C 0.67242 0.04206 0.18721 0.0
H2243 H 0.64522 0.15156 0.2085 0.0
H2244 H 0.66243 0.11145 0.20476 0.0
H2245 H 0.66461 0.1694 0.20173 0.0
H2246 H 0.68297 0.15307 0.18818 0.0
H2247 H 0.71473 0.12329 0.18896 0.0
H2248 H 0.46296 0.87667 0.93833 0.0
H2249 H 0.43106 0.84757 0.93762 0.0
H2250 H 0.40917 0.98196 0.93713 0.0
H2251 H 0.44138 0.01169 0.93763 0.0
H2252 H 0.40297 0.85831 0.94945 0.0
H2253 H 0.38121 0.92484 0.91659 0.0
H2254 H 0.4054 0.92492 0.92024 0.0
H2255 H 0.3893 0.96668 0.92422 0.0
C2256 C 0.45142 0.90025 0.93802 0.0
C2257 C 0.45474 0.94662 0.93804 0.0
C2258 C 0.43315 0.88344 0.93762 0.0
C2259 C 0.41771 0.91248 0.93723 0.0
C2260 C 0.4209 0.95888 0.93724 0.0
H2261 H 0.29779 0.86901 0.93954 0.0
H2262 H 0.32965 0.89899 0.93903 0.0
C2263 C 0.43929 0.97584 0.93757 0.0
C2264 C 0.39838 0.89362 0.93716 0.0
H2265 H 0.35758 0.88918 0.92521 0.0
C2266 C 0.39308 0.86492 0.94413 0.0
C2267 C 0.3855 0.90217 0.9302 0.0
C2268 C 0.39064 0.93099 0.92234 0.0
C2269 C 0.37521 0.845 0.94438 0.0
C2270 C 0.36234 0.85367 0.93744 0.0
C2271 C 0.36755 0.88247 0.93049 0.0
C2272 C 0.34308 0.83468 0.93749 0.0
C2273 C 0.37006 0.81557 0.95215 0.0
C2274 C 0.34005 0.78846 0.93668 0.0
C2275 C 0.32175 0.77101 0.93695 0.0
C2276 C 0.30622 0.79959 0.93806 0.0
C2277 C 0.3094 0.84592 0.93874 0.0
C2278 C 0.32761 0.86323 0.93842 0.0
H2279 H 0.38015 0.81912 0.95774 0.0
H2280 H 0.35571 0.82361 0.95459 0.0
H2281 H 0.3701 0.78013 0.95 0.0
H2282 H 0.35184 0.76592 0.93585 0.0
H2283 H 0.31978 0.73524 0.93638 0.0
H2284 H 0.44232 0.7376 0.82292 0.0
H2285 H 0.41001 0.76684 0.82321 0.0
H2286 H 0.4314 0.90107 0.82061 0.0
H2287 H 0.4634 0.8725 0.82016 0.0
H2288 H 0.39303 0.82747 0.83478 0.0
H2289 H 0.39353 0.89488 0.80048 0.0
H2290 H 0.41118 0.85645 0.80448 0.0
H2291 H 0.41273 0.91498 0.8071 0.0
C2292 C 0.4401 0.77331 0.82239 0.0
C2293 C 0.45544 0.80261 0.82142 0.0
C2294 C 0.42166 0.78995 0.82256 0.0
C2295 C 0.4183 0.83607 0.82174 0.0
C2296 C 0.43362 0.86532 0.82101 0.0
H2297 H 0.31915 0.00817 0.82241 0.0
H2298 H 0.35145 0.9789 0.823 0.0
C2299 C 0.45194 0.84882 0.8208 0.0
C2300 C 0.39886 0.85412 0.82178 0.0
H2301 H 0.36819 0.91796 0.80976 0.0
C2302 C 0.38754 0.84698 0.82929 0.0
C2303 C 0.39175 0.87971 0.81461 0.0
C2304 C 0.40285 0.88664 0.80618 0.0
C2305 C 0.36942 0.86547 0.82988 0.0
C2306 C 0.36243 0.89142 0.82275 0.0
C2307 C 0.37371 0.89848 0.81525 0.0
C2308 C 0.34304 0.90942 0.82274 0.0
C2309 C 0.35795 0.85766 0.83816 0.0
C2310 C 0.32773 0.88003 0.82233 0.0
C2311 C 0.30941 0.89653 0.82193 0.0
C2312 C 0.30596 0.94287 0.82195 0.0
C2313 C 0.32133 0.97236 0.82242 0.0
C2314 C 0.33976 0.95571 0.82275 0.0
H2315 H 0.36681 0.84605 0.84379 0.0
H2316 H 0.3505 0.88866 0.84017 0.0
H2317 H 0.3472 0.83164 0.83682 0.0
H2318 H 0.32998 0.84424 0.82218 0.0
H2319 H 0.29792 0.87279 0.82158 0.0
H2320 H 0.69411 0.74501 0.58356 0.0
H2321 H 0.66276 0.71123 0.58531 0.0
H2322 H 0.67367 0.62546 0.5629 0.0
H2323 H 0.70509 0.65729 0.56145 0.0
H2324 H 0.63256 0.70528 0.57572 0.0
H2325 H 0.65857 0.53345 0.58042 0.0
H2326 H 0.67416 0.58098 0.58034 0.0
H2327 H 0.66696 0.55518 0.57007 0.0
C2328 C 0.6897 0.71911 0.579 0.0
C2329 C 0.70206 0.70337 0.57244 0.0
C2330 C 0.67185 0.69966 0.58002 0.0
C2331 C 0.66605 0.66459 0.57443 0.0
C2332 C 0.67805 0.65098 0.56755 0.0
H2333 H 0.55315 0.58682 0.56207 0.0
H2334 H 0.58441 0.61959 0.56332 0.0
C2335 C 0.69594 0.66961 0.56665 0.0
C2336 C 0.64741 0.64255 0.57561 0.0
H2337 H 0.62605 0.5402 0.57595 0.0
C2338 C 0.63117 0.66919 0.5759 0.0
C2339 C 0.64549 0.59543 0.57612 0.0
C2340 C 0.66226 0.56472 0.57683 0.0
C2341 C 0.61313 0.65006 0.57619 0.0
C2342 C 0.61119 0.60291 0.57582 0.0
C2343 C 0.62743 0.5763 0.57603 0.0
C2344 C 0.59252 0.58077 0.57484 0.0
C2345 C 0.59638 0.6808 0.57697 0.0
C2346 C 0.58701 0.54565 0.58051 0.0
C2347 C 0.56924 0.52566 0.57961 0.0
C2348 C 0.55666 0.5409 0.57309 0.0
C2349 C 0.56246 0.57488 0.56725 0.0
C2350 C 0.58027 0.59405 0.56803 0.0
H2351 H 0.60019 0.71217 0.58047 0.0
H2352 H 0.59147 0.69015 0.57023 0.0
H2353 H 0.58459 0.66466 0.5806 0.0
H2354 H 0.5963 0.53432 0.58576 0.0
H2355 H 0.5651 0.49958 0.58421 0.0
H2356 H 0.56973 0.76247 0.6869 0.0
H2357 H 0.60199 0.73298 0.68603 0.0
H2358 H 0.58039 0.59845 0.68707 0.0
H2359 H 0.54843 0.62717 0.68791 0.0
H2360 H 0.61929 0.67402 0.699 0.0
H2361 H 0.61646 0.5972 0.66551 0.0
H2362 H 0.59996 0.63939 0.6691 0.0
H2363 H 0.59725 0.58247 0.67269 0.0
C2364 C 0.57188 0.72664 0.68686 0.0
C2365 C 0.5565 0.69723 0.68748 0.0
C2366 C 0.59028 0.70986 0.68637 0.0
C2367 C 0.59351 0.66353 0.68636 0.0
C2368 C 0.57819 0.63427 0.6869 0.0
H2369 H 0.69175 0.48822 0.68742 0.0
H2370 H 0.6596 0.51856 0.68683 0.0
C2371 C 0.55991 0.65088 0.68745 0.0
C2372 C 0.61289 0.64526 0.68628 0.0
H2373 H 0.64263 0.57775 0.67456 0.0
C2374 C 0.62448 0.65333 0.69363 0.0
C2375 C 0.61947 0.61774 0.67931 0.0
C2376 C 0.60772 0.60889 0.67116 0.0
C2377 C 0.64242 0.63398 0.69427 0.0
C2378 C 0.64908 0.60662 0.68728 0.0
C2379 C 0.63747 0.59856 0.67993 0.0
C2380 C 0.66838 0.58779 0.68734 0.0
C2381 C 0.65389 0.64217 0.70254 0.0
C2382 C 0.68389 0.61661 0.6876 0.0
C2383 C 0.7021 0.59952 0.68798 0.0
C2384 C 0.70529 0.55308 0.688 0.0
C2385 C 0.68976 0.5241 0.68745 0.0
C2386 C 0.67142 0.54138 0.68711 0.0
H2387 H 0.64488 0.65235 0.70822 0.0
H2388 H 0.66194 0.61187 0.70448 0.0
H2389 H 0.66406 0.66958 0.70126 0.0
H2390 H 0.68191 0.6525 0.68755 0.0
H2391 H 0.7137 0.62294 0.68828 0.0
H2392 H 0.44279 0.50699 0.43802 0.0
H2393 H 0.41056 0.47719 0.43746 0.0
H2394 H 0.43227 0.34314 0.43971 0.0
H2395 H 0.46417 0.37221 0.44041 0.0
H2396 H 0.39429 0.41592 0.42546 0.0
H2397 H 0.39377 0.34822 0.45975 0.0
H2398 H 0.41126 0.38758 0.45594 0.0
H2399 H 0.41336 0.32925 0.45325 0.0
C2400 C 0.44066 0.47121 0.43842 0.0
C2401 C 0.45606 0.44208 0.43935 0.0
C2402 C 0.42227 0.45424 0.43809 0.0
C2403 C 0.41903 0.408 0.43872 0.0
C2404 C 0.43441 0.37896 0.43944 0.0
H2405 H 0.31986 0.23524 0.43818 0.0
H2406 H 0.35225 0.26408 0.43752 0.0
C2407 C 0.45267 0.39576 0.43979 0.0
C2408 C 0.39967 0.38956 0.43852 0.0
H2409 H 0.36874 0.32529 0.45032 0.0
C2410 C 0.38864 0.39636 0.43091 0.0
C2411 C 0.39239 0.36382 0.44563 0.0
C2412 C 0.40323 0.35708 0.45414 0.0
C2413 C 0.37062 0.37747 0.43017 0.0
C2414 C 0.3634 0.35155 0.43726 0.0
C2415 C 0.37442 0.34475 0.44486 0.0
C2416 C 0.34398 0.33365 0.43717 0.0
C2417 C 0.35951 0.38487 0.42176 0.0
C2418 C 0.32872 0.36322 0.43724 0.0
C2419 C 0.31036 0.34698 0.43766 0.0
C2420 C 0.30681 0.30072 0.43804 0.0
C2421 C 0.32212 0.271 0.43786 0.0
C2422 C 0.3406 0.2874 0.4375 0.0
H2423 H 0.36869 0.39537 0.41616 0.0
H2424 H 0.35183 0.35407 0.41983 0.0
H2425 H 0.34899 0.41166 0.4229 0.0
H2426 H 0.33103 0.399 0.43714 0.0
H2427 H 0.29893 0.3709 0.43777 0.0
H2428 H 0.43963 0.23368 0.32258 0.0
H2429 H 0.40745 0.26384 0.32318 0.0
H2430 H 0.42963 0.39789 0.32228 0.0
H2431 H 0.46144 0.36849 0.32152 0.0
H2432 H 0.39044 0.32189 0.33537 0.0
H2433 H 0.39225 0.3989 0.3019 0.0
H2434 H 0.40952 0.35865 0.30554 0.0
H2435 H 0.41145 0.41628 0.30881 0.0
C2436 C 0.4376 0.26954 0.32249 0.0
C2437 C 0.45312 0.29859 0.32189 0.0
C2438 C 0.41924 0.28673 0.32284 0.0
C2439 C 0.41613 0.33313 0.32257 0.0
C2440 C 0.43163 0.36201 0.32224 0.0
H2441 H 0.31867 0.51051 0.32422 0.0
H2442 H 0.35063 0.47911 0.32478 0.0
C2443 C 0.44986 0.34501 0.32185 0.0
C2444 C 0.3968 0.3519 0.32273 0.0
H2445 H 0.36698 0.42086 0.31134 0.0
C2446 C 0.38525 0.34324 0.33009 0.0
C2447 C 0.39006 0.37992 0.31583 0.0
C2448 C 0.40139 0.38868 0.30753 0.0
C2449 C 0.36729 0.36259 0.33083 0.0
C2450 C 0.36069 0.391 0.32399 0.0
C2451 C 0.37219 0.39951 0.31662 0.0
C2452 C 0.34147 0.41023 0.32411 0.0
C2453 C 0.35563 0.3531 0.33899 0.0
C2454 C 0.32583 0.38193 0.32349 0.0
C2455 C 0.3077 0.39965 0.32312 0.0
C2456 C 0.30476 0.44618 0.32334 0.0
C2457 C 0.32045 0.47458 0.32406 0.0
C2458 C 0.33868 0.45671 0.32437 0.0
H2459 H 0.36434 0.33999 0.34453 0.0
H2460 H 0.34825 0.38373 0.34126 0.0
H2461 H 0.34483 0.32762 0.33736 0.0
H2462 H 0.32767 0.34604 0.32313 0.0
H2463 H 0.29597 0.37671 0.32257 0.0
H2464 H 0.06974 0.97884 0.57354 0.0
H2465 H 0.10203 0.00824 0.57447 0.0
H2466 H 0.08042 0.14281 0.57429 0.0
H2467 H 0.04845 0.11418 0.57337 0.0
H2468 H 0.11929 0.06981 0.5618 0.0
H2469 H 0.11667 0.14031 0.59583 0.0
H2470 H 0.10027 0.09847 0.59199 0.0
H2471 H 0.0973 0.15597 0.58883 0.0
C2472 C 0.07189 0.01464 0.57378 0.0
C2473 C 0.0565 0.04409 0.57338 0.0
C2474 C 0.09032 0.03138 0.5743 0.0
C2475 C 0.09356 0.0777 0.57457 0.0
C2476 C 0.07822 0.10698 0.57424 0.0
H2477 H 0.18978 0.2582 0.5745 0.0
H2478 H 0.15818 0.22484 0.57505 0.0
C2479 C 0.05993 0.09042 0.57366 0.0
C2480 C 0.11295 0.09608 0.57474 0.0
H2481 H 0.14253 0.16249 0.58679 0.0
C2482 C 0.12448 0.08965 0.5673 0.0
C2483 C 0.11954 0.12248 0.58187 0.0
C2484 C 0.10789 0.12951 0.59013 0.0
C2485 C 0.1423 0.10978 0.56671 0.0
C2486 C 0.14892 0.13622 0.57385 0.0
C2487 C 0.13741 0.1424 0.58132 0.0
C2488 C 0.16798 0.15667 0.57376 0.0
C2489 C 0.15361 0.10361 0.55832 0.0
C2490 C 0.18393 0.12942 0.57307 0.0
C2491 C 0.20186 0.14827 0.57271 0.0
C2492 C 0.20433 0.19491 0.57314 0.0
C2493 C 0.18837 0.22222 0.57412 0.0
C2494 C 0.17033 0.2032 0.57443 0.0
H2495 H 0.14455 0.09389 0.55263 0.0
H2496 H 0.16132 0.13464 0.55654 0.0
H2497 H 0.16406 0.07656 0.55936 0.0
H2498 H 0.18252 0.09341 0.57278 0.0
H2499 H 0.21382 0.12608 0.57207 0.0
H2500 H 0.21233 0.11854 0.69389 0.0
H2501 H 0.18031 0.14717 0.69339 0.0
H2502 H 0.16087 0.02204 0.68265 0.0
H2503 H 0.19319 0.99255 0.68313 0.0
H2504 H 0.14803 0.10978 0.67378 0.0
H2505 H 0.13672 0.09984 0.71027 0.0
H2506 H 0.15854 0.12451 0.7067 0.0
H2507 H 0.15412 0.06644 0.70459 0.0
C2508 C 0.20132 0.09686 0.69141 0.0
C2509 C 0.20534 0.05307 0.68857 0.0
C2510 C 0.18301 0.1134 0.69115 0.0
C2511 C 0.16828 0.08665 0.68804 0.0
C2512 C 0.17213 0.04311 0.68509 0.0
H2513 H 0.04959 0.13201 0.694 0.0
H2514 H 0.08142 0.10255 0.69323 0.0
C2515 C 0.19054 0.0263 0.68539 0.0
C2516 C 0.14888 0.10456 0.68803 0.0
H2517 H 0.11375 0.13854 0.7019 0.0
C2518 C 0.14045 0.11591 0.67991 0.0
C2519 C 0.13913 0.1125 0.69604 0.0
C2520 C 0.14746 0.09996 0.70492 0.0
C2521 C 0.12249 0.13556 0.67962 0.0
C2522 C 0.11288 0.14423 0.68766 0.0
C2523 C 0.12126 0.13232 0.69576 0.0
C2524 C 0.0936 0.16296 0.68784 0.0
C2525 C 0.11377 0.14632 0.67075 0.0
C2526 C 0.0899 0.20704 0.68511 0.0
C2527 C 0.07157 0.22432 0.68558 0.0
C2528 C 0.05672 0.19764 0.68876 0.0
C2529 C 0.06062 0.15357 0.69149 0.0
C2530 C 0.07884 0.13655 0.69106 0.0
H2531 H 0.12157 0.13061 0.66518 0.0
H2532 H 0.09891 0.13489 0.67055 0.0
H2533 H 0.11385 0.18305 0.66974 0.0
H2534 H 0.1012 0.22815 0.68272 0.0
H2535 H 0.06903 0.25836 0.68344 0.0
H2536 H 0.96338 0.87871 0.4378 0.0
H2537 H 0.93152 0.84949 0.43694 0.0
H2538 H 0.90944 0.9837 0.43735 0.0
H2539 H 0.94161 0.01361 0.43805 0.0
H2540 H 0.90373 0.85907 0.44912 0.0
H2541 H 0.88111 0.92835 0.41661 0.0
H2542 H 0.90541 0.92787 0.4201 0.0
H2543 H 0.88951 0.96938 0.42434 0.0
C2544 C 0.9518 0.90224 0.43765 0.0
C2545 C 0.95506 0.9486 0.43801 0.0
C2546 C 0.93357 0.88536 0.43716 0.0
C2547 C 0.91809 0.91432 0.437 0.0
C2548 C 0.9212 0.96072 0.43729 0.0
H2549 H 0.79847 0.87334 0.43971 0.0
H2550 H 0.83048 0.90194 0.43895 0.0
C2551 C 0.93957 0.97778 0.43773 0.0
C2552 C 0.89881 0.89529 0.43697 0.0
H2553 H 0.85774 0.89175 0.42523 0.0
C2554 C 0.8937 0.86604 0.44387 0.0
C2555 C 0.88577 0.90433 0.4301 0.0
C2556 C 0.89073 0.93387 0.42232 0.0
C2557 C 0.87583 0.84617 0.44417 0.0
C2558 C 0.86278 0.85537 0.43733 0.0
C2559 C 0.86784 0.88459 0.43043 0.0
C2560 C 0.84342 0.83701 0.43751 0.0
C2561 C 0.87086 0.81637 0.45192 0.0
C2562 C 0.84004 0.79085 0.43684 0.0
C2563 C 0.82162 0.77415 0.43727 0.0
C2564 C 0.80634 0.80345 0.43838 0.0
C2565 C 0.80987 0.84969 0.4389 0.0
C2566 C 0.82818 0.86623 0.43844 0.0
H2567 H 0.88107 0.81973 0.45746 0.0
H2568 H 0.85656 0.82422 0.45444 0.0
H2569 H 0.87091 0.78102 0.44971 0.0
H2570 H 0.85164 0.76779 0.436 0.0
H2571 H 0.81938 0.73844 0.43681 0.0
H2572 H 0.9403 0.74051 0.32498 0.0
H2573 H 0.90858 0.77314 0.32551 0.0
H2574 H 0.93246 0.9052 0.32341 0.0
H2575 H 0.96389 0.87324 0.32272 0.0
H2576 H 0.89251 0.83458 0.33723 0.0
H2577 H 0.89482 0.90466 0.30315 0.0
H2578 H 0.91171 0.8642 0.30708 0.0
H2579 H 0.91415 0.92223 0.30996 0.0
C2580 C 0.93876 0.77647 0.32464 0.0
C2581 C 0.95463 0.80417 0.3237 0.0
C2582 C 0.92065 0.79507 0.32494 0.0
C2583 C 0.91814 0.84158 0.3243 0.0
C2584 C 0.934 0.86921 0.32367 0.0
H2585 H 0.81922 0.01694 0.32378 0.0
H2586 H 0.8516 0.98831 0.32489 0.0
C2587 C 0.952 0.85077 0.32331 0.0
C2588 C 0.89902 0.86158 0.32434 0.0
H2589 H 0.86933 0.92776 0.31225 0.0
C2590 C 0.88741 0.85479 0.33176 0.0
C2591 C 0.89241 0.88815 0.3172 0.0
C2592 C 0.90383 0.89496 0.30886 0.0
C2593 C 0.86944 0.87422 0.33227 0.0
C2594 C 0.86287 0.90076 0.32513 0.0
C2595 C 0.8745 0.90781 0.31774 0.0
C2596 C 0.84342 0.91864 0.3249 0.0
C2597 C 0.85767 0.86652 0.34046 0.0
C2598 C 0.82821 0.88899 0.32447 0.0
C2599 C 0.80987 0.90511 0.32379 0.0
C2600 C 0.80626 0.95136 0.3235 0.0
C2601 C 0.82152 0.98118 0.32402 0.0
C2602 C 0.83999 0.96489 0.32464 0.0
H2603 H 0.8664 0.85572 0.34619 0.0
H2604 H 0.84988 0.89728 0.34232 0.0
H2605 H 0.84723 0.83983 0.3391 0.0
H2606 H 0.83055 0.85322 0.32451 0.0
H2607 H 0.79849 0.88108 0.32342 0.0
H2608 H 0.21212 0.63117 0.07117 0.0
H2609 H 0.17977 0.60483 0.07184 0.0
H2610 H 0.1601 0.7407 0.07386 0.0
H2611 H 0.19274 0.76779 0.07313 0.0
H2612 H 0.15218 0.61939 0.08536 0.0
H2613 H 0.13081 0.68699 0.05244 0.0
H2614 H 0.15516 0.68117 0.05565 0.0
H2615 H 0.14126 0.7261 0.06003 0.0
C2616 C 0.20098 0.65568 0.07175 0.0
C2617 C 0.20504 0.70172 0.07204 0.0
C2618 C 0.18247 0.64043 0.07216 0.0
C2619 C 0.16756 0.67078 0.07281 0.0
C2620 C 0.17146 0.71678 0.07324 0.0
H2621 H 0.04712 0.63103 0.07149 0.0
H2622 H 0.07893 0.66071 0.0723 0.0
C2623 C 0.19008 0.73218 0.07286 0.0
C2624 C 0.148 0.65367 0.07294 0.0
H2625 H 0.10762 0.64928 0.06073 0.0
C2626 C 0.14238 0.626 0.08 0.0
C2627 C 0.13534 0.6622 0.06591 0.0
C2628 C 0.14089 0.69044 0.05803 0.0
C2629 C 0.12432 0.60696 0.08026 0.0
C2630 C 0.11171 0.61506 0.07317 0.0
C2631 C 0.11732 0.64298 0.06615 0.0
C2632 C 0.09242 0.59603 0.07299 0.0
C2633 C 0.1188 0.5791 0.0882 0.0
C2634 C 0.08937 0.54959 0.07308 0.0
C2635 C 0.07105 0.53231 0.07267 0.0
C2636 C 0.05553 0.56125 0.07205 0.0
C2637 C 0.05872 0.60768 0.07193 0.0
C2638 C 0.07693 0.62481 0.0724 0.0
H2639 H 0.12799 0.58592 0.09401 0.0
H2640 H 0.10396 0.58545 0.09013 0.0
H2641 H 0.12021 0.54319 0.08651 0.0
H2642 H 0.10115 0.52671 0.07334 0.0
H2643 H 0.06908 0.49643 0.07272 0.0
H2644 H 0.04801 0.61941 0.19099 0.0
H2645 H 0.08001 0.59049 0.19029 0.0
H2646 H 0.10136 0.72428 0.18688 0.0
H2647 H 0.06917 0.7539 0.18762 0.0
H2648 H 0.10712 0.60029 0.17635 0.0
H2649 H 0.13109 0.67289 0.20837 0.0
H2650 H 0.10652 0.66813 0.20548 0.0
H2651 H 0.12069 0.71152 0.20065 0.0
C2652 C 0.05946 0.6429 0.19011 0.0
C2653 C 0.05601 0.68911 0.18942 0.0
C2654 C 0.07776 0.62618 0.18968 0.0
C2655 C 0.09304 0.65523 0.18862 0.0
C2656 C 0.08973 0.70136 0.18782 0.0
H2657 H 0.2131 0.61834 0.18797 0.0
H2658 H 0.18094 0.64586 0.18741 0.0
C2659 C 0.07135 0.71821 0.18821 0.0
C2660 C 0.11239 0.63685 0.18839 0.0
H2661 H 0.15377 0.63466 0.19984 0.0
C2662 C 0.11736 0.60775 0.18148 0.0
C2663 C 0.12561 0.64647 0.19512 0.0
C2664 C 0.12076 0.67616 0.20288 0.0
C2665 C 0.13541 0.5887 0.18101 0.0
C2666 C 0.14865 0.59832 0.18775 0.0
C2667 C 0.1436 0.62727 0.19468 0.0
C2668 C 0.16811 0.58033 0.1876 0.0
C2669 C 0.14027 0.55942 0.1732 0.0
C2670 C 0.17166 0.5341 0.18785 0.0
C2671 C 0.1902 0.51803 0.18812 0.0
C2672 C 0.20542 0.54803 0.18826 0.0
C2673 C 0.20173 0.59421 0.18793 0.0
C2674 C 0.18332 0.61011 0.1876 0.0
H2675 H 0.13036 0.56446 0.16758 0.0
H2676 H 0.15479 0.56613 0.17083 0.0
H2677 H 0.13944 0.52385 0.17525 0.0
H2678 H 0.16012 0.5105 0.18803 0.0
H2679 H 0.19258 0.48232 0.18842 0.0
H2680 H 0.81923 0.23675 0.93371 0.0
H2681 H 0.85156 0.26615 0.93307 0.0
H2682 H 0.83267 0.39027 0.94446 0.0
H2683 H 0.80063 0.3617 0.94512 0.0
H2684 H 0.86372 0.35449 0.92428 0.0
H2685 H 0.87744 0.34251 0.96055 0.0
H2686 H 0.85973 0.30922 0.95505 0.0
H2687 H 0.85534 0.36709 0.95737 0.0
C2688 C 0.82201 0.27021 0.9361 0.0
C2689 C 0.80734 0.29679 0.93948 0.0
C2690 C 0.84043 0.28698 0.9357 0.0
C2691 C 0.84444 0.33026 0.93876 0.0
C2692 C 0.82986 0.3567 0.94213 0.0
H2693 H 0.9418 0.50646 0.93318 0.0
H2694 H 0.91004 0.47389 0.93272 0.0
C2695 C 0.81153 0.34022 0.94247 0.0
C2696 C 0.86381 0.34839 0.93851 0.0
H2697 H 0.89967 0.38257 0.95195 0.0
C2698 C 0.87168 0.36042 0.93031 0.0
C2699 C 0.87406 0.35607 0.9464 0.0
C2700 C 0.86634 0.34282 0.95536 0.0
C2701 C 0.88952 0.38062 0.9298 0.0
C2702 C 0.89959 0.38915 0.93772 0.0
C2703 C 0.89181 0.37642 0.9459 0.0
C2704 C 0.91868 0.4091 0.93766 0.0
C2705 C 0.89758 0.3922 0.92083 0.0
C2706 C 0.93393 0.38368 0.94068 0.0
C2707 C 0.95194 0.40205 0.94096 0.0
C2708 C 0.95514 0.44653 0.93828 0.0
C2709 C 0.93982 0.47213 0.93527 0.0
C2710 C 0.92171 0.45351 0.93496 0.0
H2711 H 0.88965 0.3761 0.91535 0.0
H2712 H 0.89698 0.42894 0.91986 0.0
H2713 H 0.91256 0.38184 0.92041 0.0
H2714 H 0.93188 0.34944 0.94283 0.0
H2715 H 0.96335 0.38126 0.94334 0.0
H2716 H 0.96465 0.37449 0.82345 0.0
H2717 H 0.9329 0.40446 0.82415 0.0
H2718 H 0.91023 0.2708 0.82347 0.0
H2719 H 0.94229 0.24014 0.82294 0.0
H2720 H 0.90541 0.39608 0.81183 0.0
H2721 H 0.88154 0.32609 0.84408 0.0
H2722 H 0.90593 0.32603 0.84073 0.0
H2723 H 0.88994 0.28507 0.83635 0.0
C2724 C 0.95296 0.35124 0.82351 0.0
C2725 C 0.95602 0.30481 0.82313 0.0
C2726 C 0.93479 0.36855 0.82391 0.0
C2727 C 0.91918 0.33997 0.82394 0.0
C2728 C 0.9221 0.29349 0.82363 0.0
H2729 H 0.79984 0.38252 0.82051 0.0
H2730 H 0.8318 0.35379 0.82131 0.0
C2731 C 0.9404 0.276 0.82329 0.0
C2732 C 0.89997 0.35944 0.82388 0.0
H2733 H 0.85853 0.36323 0.83534 0.0
C2734 C 0.89519 0.38908 0.817 0.0
C2735 C 0.88668 0.35039 0.83064 0.0
C2736 C 0.89128 0.32049 0.83842 0.0
C2737 C 0.87739 0.40928 0.8166 0.0
C2738 C 0.86408 0.4 0.82332 0.0
C2739 C 0.86883 0.37044 0.83022 0.0
C2740 C 0.84476 0.41853 0.82303 0.0
C2741 C 0.87277 0.43949 0.80887 0.0
C2742 C 0.84141 0.46466 0.82381 0.0
C2743 C 0.82301 0.48145 0.82335 0.0
C2744 C 0.80772 0.45228 0.82211 0.0
C2745 C 0.81124 0.40609 0.82143 0.0
C2746 C 0.82952 0.38946 0.82192 0.0
H2747 H 0.88321 0.43643 0.80342 0.0
H2748 H 0.85858 0.43175 0.8062 0.0
H2749 H 0.87271 0.47471 0.81116 0.0
H2750 H 0.85301 0.4876 0.82478 0.0
H2751 H 0.82077 0.51712 0.82394 0.0
loop_
_geom_bond_atom_site_label_1
_geom_bond_atom_site_label_2
_geom_bond_distance
_geom_bond_site_symmetry_2
_ccdc_geom_bond_type
C0 O2 1.247 . S
C0 O4 1.258 . S
C1 O8 1.247 . S
C1 O9 1.258 1_565 S
O2 C0 1.247 . S
O2 Zn3 2.028 . S
Zn3 O2 2.028 . S
Zn3 O7 2.035 . S
Zn3 O9 2.035 . S
Zn3 O10 2.028 . S
O4 C0 1.258 . S
O4 Zn5 2.035 1_545 S
Zn5 O4 2.035 1_565 S
Zn5 O6 2.028 . S
Zn5 O8 2.028 . S
Zn5 O11 2.035 . S
O6 Zn5 2.028 . S
O6 C12 1.231 1_565 S
O7 Zn3 2.035 . S
O7 C12 1.279 . S
O8 C1 1.247 . S
O8 Zn5 2.028 . S
O9 C1 1.258 1_545 S
O9 Zn3 2.035 . S
O10 Zn3 2.028 . S
O10 C13 1.247 . S
O11 Zn5 2.035 . S
O11 C13 1.258 1_565 S
C12 O6 1.231 1_545 S
C12 O7 1.279 . S
C13 O10 1.247 . S
C13 O11 1.258 1_545 S
C14 O16 1.247 . S
C14 O18 1.258 . S
C15 O22 1.247 . S
C15 O23 1.258 . S
O16 C14 1.247 . S
O16 Zn17 2.028 . S
Zn17 O16 2.028 . S
Zn17 O21 2.035 . S
Zn17 O23 2.035 . S
Zn17 O24 2.028 . S
O18 C14 1.258 . S
O18 Zn19 2.035 . S
Zn19 O18 2.035 . S
Zn19 O20 2.028 . S
Zn19 O22 2.028 . S
Zn19 O25 2.035 . S
O20 Zn19 2.028 . S
O20 C26 1.247 . S
O21 Zn17 2.035 . S
O21 C26 1.258 . S
O22 C15 1.247 . S
O22 Zn19 2.028 . S
O23 C15 1.258 . S
O23 Zn17 2.035 . S
O24 Zn17 2.028 . S
O24 C27 1.247 . S
O25 Zn19 2.035 . S
O25 C27 1.258 . S
C26 O20 1.247 . S
C26 O21 1.258 . S
C27 O24 1.247 . S
C27 O25 1.258 . S
C28 O30 1.247 . S
C28 O32 1.258 . S
C29 O36 1.247 . S
C29 O37 1.258 . S
O30 C28 1.247 . S
O30 Zn31 2.028 . S
Zn31 O30 2.028 . S
Zn31 O35 2.035 . S
Zn31 O37 2.035 . S
Zn31 O38 2.028 . S
O32 C28 1.258 . S
O32 Zn33 2.035 . S
Zn33 O32 2.035 . S
Zn33 O34 2.028 . S
Zn33 O36 2.028 . S
Zn33 O39 2.035 . S
O34 Zn33 2.028 . S
O34 C40 1.247 . S
O35 Zn31 2.035 . S
O35 C40 1.258 . S
O36 C29 1.247 . S
O36 Zn33 2.028 . S
O37 C29 1.258 . S
O37 Zn31 2.035 . S
O38 Zn31 2.028 . S
O38 C41 1.247 . S
O39 Zn33 2.035 . S
O39 C41 1.258 . S
C40 O34 1.247 . S
C40 O35 1.258 . S
C41 O38 1.247 . S
C41 O39 1.258 . S
C42 O44 1.247 . S
C42 O46 1.258 . S
C43 O50 1.247 . S
C43 O51 1.258 1_565 S
O44 C42 1.247 . S
O44 Zn45 2.028 . S
Zn45 O44 2.028 . S
Zn45 O49 2.035 . S
Zn45 O51 2.035 . S
Zn45 O52 2.028 . S
O46 C42 1.258 . S
O46 Zn47 2.035 1_545 S
Zn47 O46 2.035 1_565 S
Zn47 O48 2.028 . S
Zn47 O50 2.028 . S
Zn47 O53 2.035 . S
O48 Zn47 2.028 . S
O48 C54 1.247 1_565 S
O49 Zn45 2.035 . S
O49 C54 1.258 . S
O50 C43 1.247 . S
O50 Zn47 2.028 . S
O51 C43 1.258 1_545 S
O51 Zn45 2.035 . S
O52 Zn45 2.028 . S
O52 C55 1.247 . S
O53 Zn47 2.035 . S
O53 C55 1.258 1_565 S
C54 O48 1.247 1_545 S
C54 O49 1.258 . S
C55 O52 1.247 . S
C55 O53 1.258 1_545 S
C56 O58 1.247 . S
C56 O60 1.258 1_565 S
C57 O64 1.247 1_565 S
C57 O65 1.258 . S
O58 C56 1.247 . S
O58 Zn59 2.028 . S
Zn59 O58 2.028 . S
Zn59 O63 2.035 . S
Zn59 O65 2.035 . S
Zn59 O66 2.028 . S
O60 C56 1.258 1_545 S
O60 Zn61 2.035 . S
Zn61 O60 2.035 . S
Zn61 O62 2.028 1_545 S
Zn61 O64 2.028 . S
Zn61 O67 2.035 . S
O62 Zn61 2.028 1_565 S
O62 C68 1.247 . S
O63 Zn59 2.035 . S
O63 C68 1.258 . S
O64 C57 1.247 1_545 S
O64 Zn61 2.028 . S
O65 C57 1.258 . S
O65 Zn59 2.035 . S
O66 Zn59 2.028 . S
O66 C69 1.247 1_565 S
O67 Zn61 2.035 . S
O67 C69 1.258 . S
C68 O62 1.247 . S
C68 O63 1.258 . S
C69 O66 1.247 1_545 S
C69 O67 1.258 . S
C70 O72 1.247 . S
C70 O74 1.258 . S
C71 O78 1.247 . S
C71 O79 1.258 . S
O72 C70 1.247 . S
O72 Zn73 2.028 . S
Zn73 O72 2.028 . S
Zn73 O77 2.035 . S
Zn73 O79 2.035 . S
Zn73 O80 2.028 . S
O74 C70 1.258 . S
O74 Zn75 2.035 . S
Zn75 O74 2.035 . S
Zn75 O76 2.028 . S
Zn75 O78 2.028 . S
Zn75 O81 2.035 . S
O76 Zn75 2.028 . S
O76 C82 1.247 . S
O77 Zn73 2.035 . S
O77 C82 1.258 . S
O78 C71 1.247 . S
O78 Zn75 2.028 . S
O79 C71 1.258 . S
O79 Zn73 2.035 . S
O80 Zn73 2.028 . S
O80 C83 1.247 . S
O81 Zn75 2.035 . S
O81 C83 1.258 . S
C82 O76 1.247 . S
C82 O77 1.258 . S
C83 O80 1.247 . S
C83 O81 1.258 . S
C84 O86 1.247 . S
C84 O88 1.258 . S
C85 O92 1.247 . S
C85 O93 1.258 . S
O86 C84 1.247 . S
O86 Zn87 2.028 . S
Zn87 O86 2.028 . S
Zn87 O91 2.035 . S
Zn87 O93 2.035 . S
Zn87 O94 2.028 . S
O88 C84 1.258 . S
O88 Zn89 2.035 . S
Zn89 O88 2.035 . S
Zn89 O90 2.028 . S
Zn89 O92 2.028 . S
Zn89 O95 2.035 . S
O90 Zn89 2.028 . S
O90 C96 1.247 . S
O91 Zn87 2.035 . S
O91 C96 1.258 . S
O92 C85 1.247 . S
O92 Zn89 2.028 . S
O93 C85 1.258 . S
O93 Zn87 2.035 . S
O94 Zn87 2.028 . S
O94 C97 1.247 . S
O95 Zn89 2.035 . S
O95 C97 1.258 . S
C96 O90 1.247 . S
C96 O91 1.258 . S
C97 O94 1.247 . S
C97 O95 1.258 . S
C98 O100 1.247 . S
C98 O102 1.258 1_565 S
C99 O106 1.247 1_565 S
C99 O107 1.258 . S
O100 C98 1.247 . S
O100 Zn101 2.028 . S
Zn101 O100 2.028 . S
Zn101 O105 2.035 . S
Zn101 O107 2.035 . S
Zn101 O108 2.028 . S
O102 C98 1.258 1_545 S
O102 Zn103 2.035 . S
Zn103 O102 2.035 . S
Zn103 O104 2.028 . S
Zn103 O106 2.028 . S
Zn103 O109 2.035 1_545 S
O104 Zn103 2.028 . S
O104 C110 1.247 . S
O105 Zn101 2.035 . S
O105 C110 1.258 1_565 S
O106 C99 1.247 1_545 S
O106 Zn103 2.028 . S
O107 C99 1.258 . S
O107 Zn101 2.035 . S
O108 Zn101 2.028 . S
O108 C111 1.247 . S
O109 Zn103 2.035 1_565 S
O109 C111 1.258 . S
C110 O104 1.247 . S
C110 O105 1.258 1_545 S
C111 O108 1.247 . S
C111 O109 1.258 . S
C112 O114 1.247 . S
C112 O116 1.258 . S
C113 O120 1.247 . S
C113 O121 1.258 . S
O114 C112 1.247 . S
O114 Zn115 2.028 . S
Zn115 O114 2.028 . S
Zn115 O119 2.035 . S
Zn115 O121 2.035 . S
Zn115 O122 2.028 . S
O116 C112 1.258 . S
O116 Zn117 2.035 . S
Zn117 O116 2.035 . S
Zn117 O118 2.028 . S
Zn117 O120 2.028 . S
Zn117 O123 2.035 . S
O118 Zn117 2.028 . S
O118 C124 1.247 . S
O119 Zn115 2.035 . S
O119 C124 1.258 . S
O120 C113 1.247 . S
O120 Zn117 2.028 . S
O121 C113 1.258 . S
O121 Zn115 2.035 . S
O122 Zn115 2.028 . S
O122 C125 1.247 . S
O123 Zn117 2.035 . S
O123 C125 1.258 . S
C124 O118 1.247 . S
C124 O119 1.258 . S
C125 O122 1.247 . S
C125 O123 1.258 . S
C126 O128 1.247 . S
C126 O130 1.258 . S
C127 O134 1.247 . S
C127 O135 1.258 . S
O128 C126 1.247 . S
O128 Zn129 2.028 . S
Zn129 O128 2.028 . S
Zn129 O133 2.035 . S
Zn129 O135 2.035 . S
Zn129 O136 2.028 . S
O130 C126 1.258 . S
O130 Zn131 2.035 . S
Zn131 O130 2.035 . S
Zn131 O132 2.028 . S
Zn131 O134 2.028 . S
Zn131 O137 2.035 . S
O132 Zn131 2.028 . S
O132 C138 1.247 . S
O133 Zn129 2.035 . S
O133 C138 1.258 . S
O134 C127 1.247 . S
O134 Zn131 2.028 . S
O135 C127 1.258 . S
O135 Zn129 2.035 . S
O136 Zn129 2.028 . S
O136 C139 1.247 . S
O137 Zn131 2.035 . S
O137 C139 1.258 . S
C138 O132 1.247 . S
C138 O133 1.258 . S
C139 O136 1.247 . S
C139 O137 1.258 . S
C140 O142 1.247 . S
C140 O144 1.258 . S
C141 O148 1.247 . S
C141 O149 1.258 . S
O142 C140 1.247 . S
O142 Zn143 2.028 . S
Zn143 O142 2.028 . S
Zn143 O147 2.035 . S
Zn143 O149 2.035 . S
Zn143 O150 2.028 . S
O144 C140 1.258 . S
O144 Zn145 2.035 . S
Zn145 O144 2.035 . S
Zn145 O146 2.028 . S
Zn145 O148 2.028 . S
Zn145 O151 2.035 . S
O146 Zn145 2.028 . S
O146 C152 1.247 . S
O147 Zn143 2.035 . S
O147 C152 1.258 . S
O148 C141 1.247 . S
O148 Zn145 2.028 . S
O149 C141 1.258 . S
O149 Zn143 2.035 . S
O150 Zn143 2.028 . S
O150 C153 1.247 . S
O151 Zn145 2.035 . S
O151 C153 1.258 . S
C152 O146 1.247 . S
C152 O147 1.258 . S
C153 O150 1.247 . S
C153 O151 1.258 . S
C154 O156 1.247 . S
C154 O158 1.258 . S
C155 O162 1.247 . S
C155 O163 1.258 . S
O156 C154 1.247 . S
O156 Zn157 2.028 . S
Zn157 O156 2.028 . S
Zn157 O161 2.035 . S
Zn157 O163 2.035 . S
Zn157 O164 2.028 . S
O158 C154 1.258 . S
O158 Zn159 2.035 . S
Zn159 O158 2.035 . S
Zn159 O160 2.028 . S
Zn159 O162 2.028 . S
Zn159 O165 2.035 . S
O160 Zn159 2.028 . S
O160 C166 1.247 . S
O161 Zn157 2.035 . S
O161 C166 1.258 . S
O162 C155 1.247 . S
O162 Zn159 2.028 . S
O163 C155 1.258 . S
O163 Zn157 2.035 . S
O164 Zn157 2.028 . S
O164 C167 1.247 . S
O165 Zn159 2.035 . S
O165 C167 1.258 . S
C166 O160 1.247 . S
C166 O161 1.258 . S
C167 O164 1.247 . S
C167 O165 1.258 . S
C168 O170 1.247 . S
C168 O172 1.258 . S
C169 O176 1.247 . S
C169 O177 1.258 . S
O170 C168 1.247 . S
O170 Zn171 2.028 . S
Zn171 O170 2.028 . S
Zn171 O175 2.035 . S
Zn171 O177 2.035 . S
Zn171 O178 2.028 . S
O172 C168 1.258 . S
O172 Zn173 2.035 . S
Zn173 O172 2.035 . S
Zn173 O174 2.028 . S
Zn173 O176 2.028 . S
Zn173 O179 2.035 . S
O174 Zn173 2.028 . S
O174 C180 1.247 . S
O175 Zn171 2.035 . S
O175 C180 1.258 . S
O176 C169 1.247 . S
O176 Zn173 2.028 . S
O177 C169 1.258 . S
O177 Zn171 2.035 . S
O178 Zn171 2.028 . S
O178 C181 1.247 . S
O179 Zn173 2.035 . S
O179 C181 1.258 . S
C180 O174 1.247 . S
C180 O175 1.258 . S
C181 O178 1.247 . S
C181 O179 1.258 . S
C182 O184 1.247 . S
C182 O186 1.258 . S
C183 O190 1.247 . S
C183 O191 1.258 . S
O184 C182 1.247 . S
O184 Zn185 2.028 . S
Zn185 O184 2.028 . S
Zn185 O189 2.035 . S
Zn185 O191 2.035 . S
Zn185 O192 2.028 . S
O186 C182 1.258 . S
O186 Zn187 2.035 . S
Zn187 O186 2.035 . S
Zn187 O188 2.028 . S
Zn187 O190 2.028 . S
Zn187 O193 2.035 . S
O188 Zn187 2.028 . S
O188 C194 1.247 . S
O189 Zn185 2.035 . S
O189 C194 1.258 . S
O190 C183 1.247 . S
O190 Zn187 2.028 . S
O191 C183 1.258 . S
O191 Zn185 2.035 . S
O192 Zn185 2.028 . S
O192 C195 1.247 . S
O193 Zn187 2.035 . S
O193 C195 1.258 . S
C194 O188 1.247 . S
C194 O189 1.258 . S
C195 O192 1.247 . S
C195 O193 1.258 . S
C196 O198 1.247 . S
C196 O200 1.258 . S
C197 O204 1.247 . S
C197 O205 1.258 . S
O198 C196 1.247 . S
O198 Zn199 2.028 . S
Zn199 O198 2.028 . S
Zn199 O203 2.035 . S
Zn199 O205 2.035 . S
Zn199 O206 2.028 . S
O200 C196 1.258 . S
O200 Zn201 2.035 . S
Zn201 O200 2.035 . S
Zn201 O202 2.028 . S
Zn201 O204 2.028 . S
Zn201 O207 2.035 . S
O202 Zn201 2.028 . S
O202 C208 1.247 . S
O203 Zn199 2.035 . S
O203 C208 1.258 . S
O204 C197 1.247 . S
O204 Zn201 2.028 . S
O205 C197 1.258 . S
O205 Zn199 2.035 . S
O206 Zn199 2.028 . S
O206 C209 1.247 . S
O207 Zn201 2.035 . S
O207 C209 1.258 . S
C208 O202 1.247 . S
C208 O203 1.258 . S
C209 O206 1.247 . S
C209 O207 1.258 . S
C210 O212 1.247 . S
C210 O214 1.258 . S
C211 O218 1.247 . S
C211 O219 1.258 . S
O212 C210 1.247 . S
O212 Zn213 2.028 . S
Zn213 O212 2.028 . S
Zn213 O217 2.035 . S
Zn213 O219 2.035 . S
Zn213 O220 2.028 . S
O214 C210 1.258 . S
O214 Zn215 2.035 . S
Zn215 O214 2.035 . S
Zn215 O216 2.028 . S
Zn215 O218 2.028 . S
Zn215 O221 2.035 . S
O216 Zn215 2.028 . S
O216 C222 1.247 . S
O217 Zn213 2.035 . S
O217 C222 1.258 . S
O218 C211 1.247 . S
O218 Zn215 2.028 . S
O219 C211 1.258 . S
O219 Zn213 2.035 . S
O220 Zn213 2.028 . S
O220 C223 1.247 . S
O221 Zn215 2.035 . S
O221 C223 1.258 . S
C222 O216 1.247 . S
C222 O217 1.258 . S
C223 O220 1.247 . S
C223 O221 1.258 . S
C224 O226 1.245 1_545 S
C224 O228 1.261 1_455 S
C225 O232 1.249 . S
C225 O233 1.255 1_645 S
O226 C224 1.245 1_565 S
O226 Zn227 2.028 . S
Zn227 O226 2.028 . S
Zn227 O231 2.035 1_455 S
Zn227 O233 2.035 . S
Zn227 O234 2.028 1_565 S
O228 C224 1.261 1_655 S
O228 Zn229 2.035 . S
Zn229 O228 2.035 . S
Zn229 O230 2.028 . S
Zn229 O232 2.028 . S
Zn229 O235 2.035 1_655 S
O230 Zn229 2.028 . S
O230 C236 1.247 1_545 S
O231 Zn227 2.035 1_655 S
O231 C236 1.258 . S
O232 C225 1.249 . S
O232 Zn229 2.028 . S
O233 C225 1.255 1_465 S
O233 Zn227 2.035 . S
O234 Zn227 2.028 1_545 S
O234 C237 1.247 . S
O235 Zn229 2.035 1_455 S
O235 C237 1.258 . S
C236 O230 1.247 1_565 S
C236 O231 1.258 . S
C237 O234 1.247 . S
C237 O235 1.258 . S
C238 O240 1.247 . S
C238 O242 1.258 . S
C239 O246 1.247 . S
C239 O247 1.258 . S
O240 C238 1.247 . S
O240 Zn241 2.028 . S
Zn241 O240 2.028 . S
Zn241 O245 2.035 . S
Zn241 O247 2.035 . S
Zn241 O248 2.028 . S
O242 C238 1.258 . S
O242 Zn243 2.035 . S
Zn243 O242 2.035 . S
Zn243 O244 2.028 . S
Zn243 O246 2.028 . S
Zn243 O249 2.035 . S
O244 Zn243 2.028 . S
O244 C250 1.247 . S
O245 Zn241 2.035 . S
O245 C250 1.258 . S
O246 C239 1.247 . S
O246 Zn243 2.028 . S
O247 C239 1.258 . S
O247 Zn241 2.035 . S
O248 Zn241 2.028 . S
O248 C251 1.247 . S
O249 Zn243 2.035 . S
O249 C251 1.258 . S
C250 O244 1.247 . S
C250 O245 1.258 . S
C251 O248 1.247 . S
C251 O249 1.258 . S
C252 O254 1.247 . S
C252 O256 1.258 . S
C253 O260 1.247 . S
C253 O261 1.258 . S
O254 C252 1.247 . S
O254 Zn255 2.028 1_455 S
Zn255 O254 2.028 1_655 S
Zn255 O259 2.035 . S
Zn255 O261 2.035 . S
Zn255 O262 2.028 . S
O256 C252 1.258 . S
O256 Zn257 2.035 . S
Zn257 O256 2.035 . S
Zn257 O258 2.028 . S
Zn257 O260 2.028 1_455 S
Zn257 O263 2.035 . S
O258 Zn257 2.028 . S
O258 C264 1.245 1_455 S
O259 Zn255 2.035 . S
O259 C264 1.260 . S
O260 C253 1.247 . S
O260 Zn257 2.028 1_655 S
O261 C253 1.258 . S
O261 Zn255 2.035 . S
O262 Zn255 2.028 . S
O262 C265 1.245 . S
O263 Zn257 2.035 . S
O263 C265 1.260 1_455 S
C264 O258 1.245 1_655 S
C264 O259 1.260 . S
C265 O262 1.245 . S
C265 O263 1.260 1_655 S
C266 O268 1.247 . S
C266 O270 1.258 . S
C267 O274 1.247 . S
C267 O275 1.258 1_565 S
O268 C266 1.247 . S
O268 Zn269 2.028 . S
Zn269 O268 2.028 . S
Zn269 O273 2.035 . S
Zn269 O275 2.035 . S
Zn269 O276 2.028 . S
O270 C266 1.258 . S
O270 Zn271 2.035 1_545 S
Zn271 O270 2.035 1_565 S
Zn271 O272 2.028 . S
Zn271 O274 2.028 . S
Zn271 O277 2.035 . S
O272 Zn271 2.028 . S
O272 C278 1.247 . S
O273 Zn269 2.035 . S
O273 C278 1.258 1_545 S
O274 C267 1.247 . S
O274 Zn271 2.028 . S
O275 C267 1.258 1_545 S
O275 Zn269 2.035 . S
O276 Zn269 2.028 . S
O276 C279 1.247 . S
O277 Zn271 2.035 . S
O277 C279 1.258 1_565 S
C278 O272 1.247 . S
C278 O273 1.258 1_565 S
C279 O276 1.247 . S
C279 O277 1.258 1_545 S
C280 O282 1.245 . S
C280 O284 1.260 1_465 S
C281 O288 1.245 1_465 S
C281 O289 1.260 . S
O282 C280 1.245 . S
O282 Zn283 2.028 . S
Zn283 O282 2.028 . S
Zn283 O287 2.035 . S
Zn283 O289 2.035 . S
Zn283 O290 2.028 1_455 S
O284 C280 1.260 1_645 S
O284 Zn285 2.035 . S
Zn285 O284 2.035 . S
Zn285 O286 2.028 1_655 S
Zn285 O288 2.028 . S
Zn285 O291 2.035 1_545 S
O286 Zn285 2.028 1_455 S
O286 C292 1.247 . S
O287 Zn283 2.035 . S
O287 C292 1.258 1_565 S
O288 C281 1.245 1_645 S
O288 Zn285 2.028 . S
O289 C281 1.260 . S
O289 Zn283 2.035 . S
O290 Zn283 2.028 1_655 S
O290 C293 1.247 . S
O291 Zn285 2.035 1_565 S
O291 C293 1.258 . S
C292 O286 1.247 . S
C292 O287 1.258 1_545 S
C293 O290 1.247 . S
C293 O291 1.258 . S
C294 O296 1.247 . S
C294 O298 1.258 . S
C295 O302 1.247 . S
C295 O303 1.258 . S
O296 C294 1.247 . S
O296 Zn297 2.028 . S
Zn297 O296 2.028 . S
Zn297 O301 2.035 . S
Zn297 O303 2.035 . S
Zn297 O304 2.028 . S
O298 C294 1.258 . S
O298 Zn299 2.035 . S
Zn299 O298 2.035 . S
Zn299 O300 2.028 . S
Zn299 O302 2.028 . S
Zn299 O305 2.035 . S
O300 Zn299 2.028 . S
O300 C306 1.247 . S
O301 Zn297 2.035 . S
O301 C306 1.258 . S
O302 C295 1.247 . S
O302 Zn299 2.028 . S
O303 C295 1.258 . S
O303 Zn297 2.035 . S
O304 Zn297 2.028 . S
O304 C307 1.247 . S
O305 Zn299 2.035 . S
O305 C307 1.258 . S
C306 O300 1.247 . S
C306 O301 1.258 . S
C307 O304 1.247 . S
C307 O305 1.258 . S
C308 O310 1.247 . S
C308 O312 1.258 . S
C309 O316 1.247 . S
C309 O317 1.258 . S
O310 C308 1.247 . S
O310 Zn311 2.028 . S
Zn311 O310 2.028 . S
Zn311 O315 2.035 . S
Zn311 O317 2.035 1_655 S
Zn311 O318 2.028 . S
O312 C308 1.258 . S
O312 Zn313 2.035 1_655 S
Zn313 O312 2.035 1_455 S
Zn313 O314 2.028 . S
Zn313 O316 2.028 . S
Zn313 O319 2.035 . S
O314 Zn313 2.028 . S
O314 C320 1.249 . S
O315 Zn311 2.035 . S
O315 C320 1.255 1_655 S
O316 C309 1.247 . S
O316 Zn313 2.028 . S
O317 C309 1.258 . S
O317 Zn311 2.035 1_455 S
O318 Zn311 2.028 . S
O318 C321 1.245 . S
O319 Zn313 2.035 . S
O319 C321 1.261 1_455 S
C320 O314 1.249 . S
C320 O315 1.255 1_455 S
C321 O318 1.245 . S
C321 O319 1.261 1_655 S
C322 O324 1.247 . S
C322 O326 1.258 1_545 S
C323 O330 1.247 . S
C323 O331 1.258 . S
O324 C322 1.247 . S
O324 Zn325 2.028 . S
Zn325 O324 2.028 . S
Zn325 O329 2.035 . S
Zn325 O331 2.035 1_545 S
Zn325 O332 2.028 . S
O326 C322 1.258 1_565 S
O326 Zn327 2.035 . S
Zn327 O326 2.035 . S
Zn327 O328 2.028 . S
Zn327 O330 2.028 . S
Zn327 O333 2.035 . S
O328 Zn327 2.028 . S
O328 C334 1.247 . S
O329 Zn325 2.035 . S
O329 C334 1.258 1_545 S
O330 C323 1.247 . S
O330 Zn327 2.028 . S
O331 C323 1.258 . S
O331 Zn325 2.035 1_565 S
O332 Zn325 2.028 . S
O332 C335 1.247 . S
O333 Zn327 2.035 . S
O333 C335 1.258 1_565 S
C334 O328 1.247 . S
C334 O329 1.258 1_565 S
C335 O332 1.247 . S
C335 O333 1.258 1_545 S
C336 O338 1.247 . S
C336 O340 1.258 . S
C337 O344 1.247 . S
C337 O345 1.258 . S
O338 C336 1.247 . S
O338 Zn339 2.028 . S
Zn339 O338 2.028 . S
Zn339 O343 2.035 . S
Zn339 O345 2.035 1_655 S
Zn339 O346 2.028 . S
O340 C336 1.258 . S
O340 Zn341 2.035 1_655 S
Zn341 O340 2.035 1_455 S
Zn341 O342 2.028 . S
Zn341 O344 2.028 . S
Zn341 O347 2.035 . S
O342 Zn341 2.028 . S
O342 C348 1.245 . S
O343 Zn339 2.035 . S
O343 C348 1.261 1_655 S
O344 C337 1.247 . S
O344 Zn341 2.028 . S
O345 C337 1.258 . S
O345 Zn339 2.035 1_455 S
O346 Zn339 2.028 . S
O346 C349 1.249 . S
O347 Zn341 2.035 . S
O347 C349 1.255 1_455 S
C348 O342 1.245 . S
C348 O343 1.261 1_455 S
C349 O346 1.249 . S
C349 O347 1.255 1_655 S
C350 O352 1.247 . S
C350 O354 1.258 . S
C351 O358 1.247 . S
C351 O359 1.258 . S
O352 C350 1.247 . S
O352 Zn353 2.028 . S
Zn353 O352 2.028 . S
Zn353 O357 2.035 . S
Zn353 O359 2.035 . S
Zn353 O360 2.028 . S
O354 C350 1.258 . S
O354 Zn355 2.035 . S
Zn355 O354 2.035 . S
Zn355 O356 2.028 . S
Zn355 O358 2.028 . S
Zn355 O361 2.035 . S
O356 Zn355 2.028 . S
O356 C362 1.247 . S
O357 Zn353 2.035 . S
O357 C362 1.258 . S
O358 C351 1.247 . S
O358 Zn355 2.028 . S
O359 C351 1.258 . S
O359 Zn353 2.035 . S
O360 Zn353 2.028 . S
O360 C363 1.247 . S
O361 Zn355 2.035 . S
O361 C363 1.258 . S
C362 O356 1.247 . S
C362 O357 1.258 . S
C363 O360 1.247 . S
C363 O361 1.258 . S
C364 O366 1.247 . S
C364 O368 1.258 . S
C365 O372 1.247 . S
C365 O373 1.258 . S
O366 C364 1.247 . S
O366 Zn367 2.028 1_455 S
Zn367 O366 2.028 1_655 S
Zn367 O371 2.035 . S
Zn367 O373 2.035 . S
Zn367 O374 2.028 . S
O368 C364 1.258 . S
O368 Zn369 2.035 . S
Zn369 O368 2.035 . S
Zn369 O370 2.028 . S
Zn369 O372 2.028 1_455 S
Zn369 O375 2.035 . S
O370 Zn369 2.028 . S
O370 C376 1.245 1_455 S
O371 Zn367 2.035 . S
O371 C376 1.259 . S
O372 C365 1.247 . S
O372 Zn369 2.028 1_655 S
O373 C365 1.258 . S
O373 Zn367 2.035 . S
O374 Zn367 2.028 . S
O374 C377 1.245 . S
O375 Zn369 2.035 . S
O375 C377 1.259 1_455 S
C376 O370 1.245 1_655 S
C376 O371 1.259 . S
C377 O374 1.245 . S
C377 O375 1.259 1_655 S
C378 O380 1.247 . S
C378 O382 1.258 . S
C379 O386 1.247 . S
C379 O387 1.258 . S
O380 C378 1.247 . S
O380 Zn381 2.028 . S
Zn381 O380 2.028 . S
Zn381 O385 2.035 . S
Zn381 O387 2.035 . S
Zn381 O388 2.028 . S
O382 C378 1.258 . S
O382 Zn383 2.035 . S
Zn383 O382 2.035 . S
Zn383 O384 2.028 . S
Zn383 O386 2.028 . S
Zn383 O389 2.035 . S
O384 Zn383 2.028 . S
O384 C390 1.247 . S
O385 Zn381 2.035 . S
O385 C390 1.258 . S
O386 C379 1.247 . S
O386 Zn383 2.028 . S
O387 C379 1.258 . S
O387 Zn381 2.035 . S
O388 Zn381 2.028 . S
O388 C391 1.247 . S
O389 Zn383 2.035 . S
O389 C391 1.258 . S
C390 O384 1.247 . S
C390 O385 1.258 . S
C391 O388 1.247 . S
C391 O389 1.258 . S
C392 O394 1.245 . S
C392 O396 1.259 1_455 S
C393 O400 1.245 1_455 S
C393 O401 1.259 . S
O394 C392 1.245 . S
O394 Zn395 2.028 . S
Zn395 O394 2.028 . S
Zn395 O399 2.035 . S
Zn395 O401 2.035 . S
Zn395 O402 2.028 1_455 S
O396 C392 1.259 1_655 S
O396 Zn397 2.035 . S
Zn397 O396 2.035 . S
Zn397 O398 2.028 1_655 S
Zn397 O400 2.028 . S
Zn397 O403 2.035 . S
O398 Zn397 2.028 1_455 S
O398 C404 1.247 . S
O399 Zn395 2.035 . S
O399 C404 1.258 . S
O400 C393 1.245 1_655 S
O400 Zn397 2.028 . S
O401 C393 1.259 . S
O401 Zn395 2.035 . S
O402 Zn395 2.028 1_655 S
O402 C405 1.247 . S
O403 Zn397 2.035 . S
O403 C405 1.258 . S
C404 O398 1.247 . S
C404 O399 1.258 . S
C405 O402 1.247 . S
C405 O403 1.258 . S
C406 O408 1.247 . S
C406 O410 1.258 . S
C407 O414 1.247 . S
C407 O415 1.258 . S
O408 C406 1.247 . S
O408 Zn409 2.028 . S
Zn409 O408 2.028 . S
Zn409 O413 2.035 . S
Zn409 O415 2.035 . S
Zn409 O416 2.028 . S
O410 C406 1.258 . S
O410 Zn411 2.035 . S
Zn411 O410 2.035 . S
Zn411 O412 2.028 . S
Zn411 O414 2.028 . S
Zn411 O417 2.035 . S
O412 Zn411 2.028 . S
O412 C418 1.247 . S
O413 Zn409 2.035 . S
O413 C418 1.258 . S
O414 C407 1.247 . S
O414 Zn411 2.028 . S
O415 C407 1.258 . S
O415 Zn409 2.035 . S
O416 Zn409 2.028 . S
O416 C419 1.247 . S
O417 Zn411 2.035 . S
O417 C419 1.258 . S
C418 O412 1.247 . S
C418 O413 1.258 . S
C419 O416 1.247 . S
C419 O417 1.258 . S
C420 O422 1.247 . S
C420 O424 1.258 . S
C421 O428 1.247 . S
C421 O429 1.258 . S
O422 C420 1.247 . S
O422 Zn423 2.028 1_455 S
Zn423 O422 2.028 1_655 S
Zn423 O427 2.035 . S
Zn423 O429 2.035 . S
Zn423 O430 2.028 . S
O424 C420 1.258 . S
O424 Zn425 2.035 . S
Zn425 O424 2.035 . S
Zn425 O426 2.028 . S
Zn425 O428 2.028 1_455 S
Zn425 O431 2.035 . S
O426 Zn425 2.028 . S
O426 C432 1.245 . S
O427 Zn423 2.035 . S
O427 C432 1.259 1_655 S
O428 C421 1.247 . S
O428 Zn425 2.028 1_655 S
O429 C421 1.258 . S
O429 Zn423 2.035 . S
O430 Zn423 2.028 . S
O430 C433 1.245 1_655 S
O431 Zn425 2.035 . S
O431 C433 1.259 . S
C432 O426 1.245 . S
C432 O427 1.259 1_455 S
C433 O430 1.245 1_455 S
C433 O431 1.259 . S
C434 O436 1.247 . S
C434 O438 1.258 . S
C435 O442 1.247 . S
C435 O443 1.258 . S
O436 C434 1.247 . S
O436 Zn437 2.028 . S
Zn437 O436 2.028 . S
Zn437 O441 2.035 . S
Zn437 O443 2.035 . S
Zn437 O444 2.028 . S
O438 C434 1.258 . S
O438 Zn439 2.035 . S
Zn439 O438 2.035 . S
Zn439 O440 2.028 . S
Zn439 O442 2.028 . S
Zn439 O445 2.035 . S
O440 Zn439 2.028 . S
O440 C446 1.247 . S
O441 Zn437 2.035 . S
O441 C446 1.258 . S
O442 C435 1.247 . S
O442 Zn439 2.028 . S
O443 C435 1.258 . S
O443 Zn437 2.035 . S
O444 Zn437 2.028 . S
O444 C447 1.247 . S
O445 Zn439 2.035 . S
O445 C447 1.258 . S
C446 O440 1.247 . S
C446 O441 1.258 . S
C447 O444 1.247 . S
C447 O445 1.258 . S
H448 C456 0.929 . S
H449 C458 0.930 . S
H450 C460 0.930 . S
H451 C463 0.929 1_565 S
H452 C466 0.930 . S
H453 C468 0.960 . S
H454 C468 0.960 . S
H455 C468 0.960 . S
C456 H448 0.929 . S
C456 C457 1.377 . S
C456 C458 1.384 . S
C457 C456 1.377 . S
C457 C463 1.390 . S
C458 H449 0.930 . S
C458 C456 1.384 . S
C458 C459 1.372 . S
C459 C458 1.372 . S
C459 C460 1.400 . S
C459 C464 1.490 . S
C460 H450 0.930 . S
C460 C459 1.400 . S
C460 C463 1.386 . S
H461 C477 0.930 . S
H462 C478 0.931 . S
C463 H451 0.929 1_545 S
C463 C457 1.390 . S
C463 C460 1.386 . S
C464 C459 1.490 . S
C464 C466 1.395 . S
C464 C467 1.403 . S
H465 C471 0.930 . S
C466 H452 0.930 . S
C466 C464 1.395 . S
C466 C469 1.403 . S
C467 C464 1.403 . S
C467 C468 1.524 . S
C467 C471 1.400 . S
C468 H453 0.960 . S
C468 H454 0.960 . S
C468 H455 0.960 . S
C468 C467 1.524 . S
C469 C466 1.403 . S
C469 C470 1.392 . S
C469 C473 1.495 . S
C470 C469 1.392 . S
C470 C471 1.385 . S
C470 C472 1.478 . S
C471 H465 0.930 . S
C471 C467 1.400 . S
C471 C470 1.385 . S
C472 C470 1.478 . S
C472 C474 1.381 . S
C472 C478 1.383 . S
C473 C469 1.495 . S
C473 H479 0.959 . S
C473 H480 0.961 . S
C473 H481 0.960 . S
C474 C472 1.381 . S
C474 C475 1.394 . S
C474 H482 0.930 . S
C475 C474 1.394 . S
C475 C476 1.383 . S
C475 H483 0.929 . S
C476 C475 1.383 . S
C476 C477 1.377 . S
C477 H461 0.930 . S
C477 C476 1.377 . S
C477 C478 1.379 . S
C478 H462 0.931 . S
C478 C472 1.383 . S
C478 C477 1.379 . S
H479 C473 0.959 . S
H480 C473 0.961 . S
H481 C473 0.960 . S
H482 C474 0.930 . S
H483 C475 0.929 . S
H484 C492 0.929 . S
H485 C494 0.930 . S
H486 C496 0.930 . S
H487 C499 0.929 1_565 S
H488 C502 0.930 . S
H489 C504 0.960 . S
H490 C504 0.960 . S
H491 C504 0.960 . S
C492 H484 0.929 . S
C492 C493 1.377 . S
C492 C494 1.384 . S
C493 C492 1.377 . S
C493 C499 1.390 . S
C494 H485 0.930 . S
C494 C492 1.384 . S
C494 C495 1.372 . S
C495 C494 1.372 . S
C495 C496 1.400 . S
C495 C500 1.490 . S
C496 H486 0.930 . S
C496 C495 1.400 . S
C496 C499 1.386 . S
H497 C513 0.930 . S
H498 C514 0.931 . S
C499 H487 0.929 1_545 S
C499 C493 1.390 . S
C499 C496 1.386 . S
C500 C495 1.490 . S
C500 C502 1.395 . S
C500 C503 1.403 . S
H501 C507 0.930 . S
C502 H488 0.930 . S
C502 C500 1.395 . S
C502 C505 1.403 . S
C503 C500 1.403 . S
C503 C504 1.524 . S
C503 C507 1.400 . S
C504 H489 0.960 . S
C504 H490 0.960 . S
C504 H491 0.960 . S
C504 C503 1.524 . S
C505 C502 1.403 . S
C505 C506 1.392 . S
C505 C509 1.495 . S
C506 C505 1.392 . S
C506 C507 1.385 . S
C506 C508 1.478 . S
C507 H501 0.930 . S
C507 C503 1.400 . S
C507 C506 1.385 . S
C508 C506 1.478 . S
C508 C510 1.381 . S
C508 C514 1.383 . S
C509 C505 1.495 . S
C509 H515 0.959 . S
C509 H516 0.961 . S
C509 H517 0.960 . S
C510 C508 1.381 . S
C510 C511 1.394 . S
C510 H518 0.930 . S
C511 C510 1.394 . S
C511 C512 1.383 . S
C511 H519 0.929 . S
C512 C511 1.383 . S
C512 C513 1.377 . S
C513 H497 0.930 . S
C513 C512 1.377 . S
C513 C514 1.379 . S
C514 H498 0.931 . S
C514 C508 1.383 . S
C514 C513 1.379 . S
H515 C509 0.959 . S
H516 C509 0.961 . S
H517 C509 0.960 . S
H518 C510 0.930 . S
H519 C511 0.929 . S
H520 C528 0.929 . S
H521 C530 0.930 . S
H522 C532 0.930 . S
H523 C535 0.929 . S
H524 C538 0.930 . S
H525 C540 0.960 . S
H526 C540 0.960 . S
H527 C540 0.960 . S
C528 H520 0.929 . S
C528 C529 1.377 . S
C528 C530 1.384 . S
C529 C528 1.377 . S
C529 C535 1.390 . S
C530 H521 0.930 . S
C530 C528 1.384 . S
C530 C531 1.372 . S
C531 C530 1.372 . S
C531 C532 1.400 . S
C531 C536 1.490 . S
C532 H522 0.930 . S
C532 C531 1.400 . S
C532 C535 1.386 . S
H533 C549 0.930 . S
H534 C550 0.931 . S
C535 H523 0.929 . S
C535 C529 1.390 . S
C535 C532 1.386 . S
C536 C531 1.490 . S
C536 C538 1.395 . S
C536 C539 1.403 . S
H537 C543 0.930 . S
C538 H524 0.930 . S
C538 C536 1.395 . S
C538 C541 1.403 . S
C539 C536 1.403 . S
C539 C540 1.524 . S
C539 C543 1.400 . S
C540 H525 0.960 . S
C540 H526 0.960 . S
C540 H527 0.960 . S
C540 C539 1.524 . S
C541 C538 1.403 . S
C541 C542 1.392 . S
C541 C545 1.495 . S
C542 C541 1.392 . S
C542 C543 1.385 . S
C542 C544 1.478 . S
C543 H537 0.930 . S
C543 C539 1.400 . S
C543 C542 1.385 . S
C544 C542 1.478 . S
C544 C546 1.381 . S
C544 C550 1.383 . S
C545 C541 1.495 . S
C545 H551 0.959 . S
C545 H552 0.961 . S
C545 H553 0.960 . S
C546 C544 1.381 . S
C546 C547 1.394 . S
C546 H554 0.930 . S
C547 C546 1.394 . S
C547 C548 1.383 . S
C547 H555 0.929 . S
C548 C547 1.383 . S
C548 C549 1.377 . S
C549 H533 0.930 . S
C549 C548 1.377 . S
C549 C550 1.379 . S
C550 H534 0.931 . S
C550 C544 1.383 . S
C550 C549 1.379 . S
H551 C545 0.959 . S
H552 C545 0.961 . S
H553 C545 0.960 . S
H554 C546 0.930 . S
H555 C547 0.929 . S
H556 C564 0.929 . S
H557 C566 0.930 . S
H558 C568 0.930 . S
H559 C571 0.929 . S
H560 C574 0.930 . S
H561 C576 0.960 . S
H562 C576 0.960 . S
H563 C576 0.960 . S
C564 H556 0.929 . S
C564 C565 1.377 . S
C564 C566 1.384 . S
C565 C564 1.377 . S
C565 C571 1.390 . S
C566 H557 0.930 . S
C566 C564 1.384 . S
C566 C567 1.372 . S
C567 C566 1.372 . S
C567 C568 1.400 . S
C567 C572 1.490 . S
C568 H558 0.930 . S
C568 C567 1.400 . S
C568 C571 1.386 . S
H569 C585 0.930 . S
H570 C586 0.931 . S
C571 H559 0.929 . S
C571 C565 1.390 . S
C571 C568 1.386 . S
C572 C567 1.490 . S
C572 C574 1.395 . S
C572 C575 1.403 . S
H573 C579 0.930 . S
C574 H560 0.930 . S
C574 C572 1.395 . S
C574 C577 1.403 . S
C575 C572 1.403 . S
C575 C576 1.524 . S
C575 C579 1.400 . S
C576 H561 0.960 . S
C576 H562 0.960 . S
C576 H563 0.960 . S
C576 C575 1.524 . S
C577 C574 1.403 . S
C577 C578 1.392 . S
C577 C581 1.495 . S
C578 C577 1.392 . S
C578 C579 1.385 . S
C578 C580 1.478 . S
C579 H573 0.930 . S
C579 C575 1.400 . S
C579 C578 1.385 . S
C580 C578 1.478 . S
C580 C582 1.381 . S
C580 C586 1.383 . S
C581 C577 1.495 . S
C581 H587 0.959 . S
C581 H588 0.961 . S
C581 H589 0.960 . S
C582 C580 1.381 . S
C582 C583 1.394 . S
C582 H590 0.930 . S
C583 C582 1.394 . S
C583 C584 1.383 . S
C583 H591 0.929 . S
C584 C583 1.383 . S
C584 C585 1.377 . S
C585 H569 0.930 . S
C585 C584 1.377 . S
C585 C586 1.379 . S
C586 H570 0.931 . S
C586 C580 1.383 . S
C586 C585 1.379 . S
H587 C581 0.959 . S
H588 C581 0.961 . S
H589 C581 0.960 . S
H590 C582 0.930 . S
H591 C583 0.929 . S
H592 C600 0.929 . S
H593 C602 0.930 . S
H594 C604 0.930 . S
H595 C607 0.929 . S
H596 C610 0.930 . S
H597 C612 0.960 . S
H598 C612 0.960 . S
H599 C612 0.960 . S
C600 H592 0.929 . S
C600 C601 1.377 . S
C600 C602 1.384 . S
C601 C600 1.377 . S
C601 C607 1.390 . S
C602 H593 0.930 . S
C602 C600 1.384 . S
C602 C603 1.372 . S
C603 C602 1.372 . S
C603 C604 1.400 . S
C603 C608 1.490 . S
C604 H594 0.930 . S
C604 C603 1.400 . S
C604 C607 1.386 . S
H605 C621 0.930 . S
H606 C622 0.931 . S
C607 H595 0.929 . S
C607 C601 1.390 . S
C607 C604 1.386 . S
C608 C603 1.490 . S
C608 C610 1.395 . S
C608 C611 1.403 . S
H609 C615 0.930 . S
C610 H596 0.930 . S
C610 C608 1.395 . S
C610 C613 1.403 . S
C611 C608 1.403 . S
C611 C612 1.524 . S
C611 C615 1.400 . S
C612 H597 0.960 . S
C612 H598 0.960 . S
C612 H599 0.960 . S
C612 C611 1.524 . S
C613 C610 1.403 . S
C613 C614 1.392 . S
C613 C617 1.495 . S
C614 C613 1.392 . S
C614 C615 1.385 . S
C614 C616 1.478 . S
C615 H609 0.930 . S
C615 C611 1.400 . S
C615 C614 1.385 . S
C616 C614 1.478 . S
C616 C618 1.381 . S
C616 C622 1.383 . S
C617 C613 1.495 . S
C617 H623 0.959 . S
C617 H624 0.961 . S
C617 H625 0.960 . S
C618 C616 1.381 . S
C618 C619 1.394 . S
C618 H626 0.930 . S
C619 C618 1.394 . S
C619 C620 1.383 . S
C619 H627 0.929 . S
C620 C619 1.383 . S
C620 C621 1.377 . S
C621 H605 0.930 . S
C621 C620 1.377 . S
C621 C622 1.379 . S
C622 H606 0.931 . S
C622 C616 1.383 . S
C622 C621 1.379 . S
H623 C617 0.959 . S
H624 C617 0.961 . S
H625 C617 0.960 . S
H626 C618 0.930 . S
H627 C619 0.929 . S
H628 C636 0.929 . S
H629 C638 0.930 . S
H630 C640 0.930 . S
H631 C643 0.929 . S
H632 C646 0.930 . S
H633 C648 0.960 . S
H634 C648 0.960 . S
H635 C648 0.960 . S
C636 H628 0.929 . S
C636 C637 1.377 . S
C636 C638 1.384 . S
C637 C636 1.377 . S
C637 C643 1.390 . S
C638 H629 0.930 . S
C638 C636 1.384 . S
C638 C639 1.372 . S
C639 C638 1.372 . S
C639 C640 1.400 . S
C639 C644 1.490 . S
C640 H630 0.930 . S
C640 C639 1.400 . S
C640 C643 1.386 . S
H641 C657 0.930 . S
H642 C658 0.931 . S
C643 H631 0.929 . S
C643 C637 1.390 . S
C643 C640 1.386 . S
C644 C639 1.490 . S
C644 C646 1.395 . S
C644 C647 1.403 . S
H645 C651 0.930 . S
C646 H632 0.930 . S
C646 C644 1.395 . S
C646 C649 1.403 . S
C647 C644 1.403 . S
C647 C648 1.524 . S
C647 C651 1.400 . S
C648 H633 0.960 . S
C648 H634 0.960 . S
C648 H635 0.960 . S
C648 C647 1.524 . S
C649 C646 1.403 . S
C649 C650 1.392 . S
C649 C653 1.495 . S
C650 C649 1.392 . S
C650 C651 1.385 . S
C650 C652 1.478 . S
C651 H645 0.930 . S
C651 C647 1.400 . S
C651 C650 1.385 . S
C652 C650 1.478 . S
C652 C654 1.381 . S
C652 C658 1.383 . S
C653 C649 1.495 . S
C653 H659 0.959 . S
C653 H660 0.961 . S
C653 H661 0.960 . S
C654 C652 1.381 . S
C654 C655 1.394 . S
C654 H662 0.930 . S
C655 C654 1.394 . S
C655 C656 1.383 . S
C655 H663 0.929 . S
C656 C655 1.383 . S
C656 C657 1.377 . S
C657 H641 0.930 . S
C657 C656 1.377 . S
C657 C658 1.379 . S
C658 H642 0.931 . S
C658 C652 1.383 . S
C658 C657 1.379 . S
H659 C653 0.959 . S
H660 C653 0.961 . S
H661 C653 0.960 . S
H662 C654 0.930 . S
H663 C655 0.929 . S
H664 C672 0.929 . S
H665 C674 0.930 . S
H666 C676 0.930 . S
H667 C679 0.929 . S
H668 C682 0.930 . S
H669 C684 0.960 . S
H670 C684 0.960 . S
H671 C684 0.960 . S
C672 H664 0.929 . S
C672 C673 1.377 . S
C672 C674 1.384 . S
C673 C672 1.377 . S
C673 C679 1.390 . S
C674 H665 0.930 . S
C674 C672 1.384 . S
C674 C675 1.372 . S
C675 C674 1.372 . S
C675 C676 1.400 . S
C675 C680 1.490 . S
C676 H666 0.930 . S
C676 C675 1.400 . S
C676 C679 1.386 . S
H677 C693 0.930 . S
H678 C694 0.931 . S
C679 H667 0.929 . S
C679 C673 1.390 . S
C679 C676 1.386 . S
C680 C675 1.490 . S
C680 C682 1.395 . S
C680 C683 1.403 . S
H681 C687 0.930 . S
C682 H668 0.930 . S
C682 C680 1.395 . S
C682 C685 1.403 . S
C683 C680 1.403 . S
C683 C684 1.524 . S
C683 C687 1.400 . S
C684 H669 0.960 . S
C684 H670 0.960 . S
C684 H671 0.960 . S
C684 C683 1.524 . S
C685 C682 1.403 . S
C685 C686 1.392 . S
C685 C689 1.495 . S
C686 C685 1.392 . S
C686 C687 1.385 . S
C686 C688 1.478 . S
C687 H681 0.930 . S
C687 C683 1.400 . S
C687 C686 1.385 . S
C688 C686 1.478 . S
C688 C690 1.381 . S
C688 C694 1.383 . S
C689 C685 1.495 . S
C689 H695 0.959 . S
C689 H696 0.961 . S
C689 H697 0.960 . S
C690 C688 1.381 . S
C690 C691 1.394 . S
C690 H698 0.930 . S
C691 C690 1.394 . S
C691 C692 1.383 . S
C691 H699 0.929 . S
C692 C691 1.383 . S
C692 C693 1.377 . S
C693 H677 0.930 . S
C693 C692 1.377 . S
C693 C694 1.379 . S
C694 H678 0.931 . S
C694 C688 1.383 . S
C694 C693 1.379 . S
H695 C689 0.959 . S
H696 C689 0.961 . S
H697 C689 0.960 . S
H698 C690 0.930 . S
H699 C691 0.929 . S
H700 C708 0.929 . S
H701 C710 0.930 . S
H702 C712 0.930 . S
H703 C715 0.929 . S
H704 C718 0.930 . S
H705 C720 0.960 . S
H706 C720 0.960 . S
H707 C720 0.960 . S
C708 H700 0.929 . S
C708 C709 1.377 . S
C708 C710 1.384 . S
C709 C708 1.377 . S
C709 C715 1.390 . S
C710 H701 0.930 . S
C710 C708 1.384 . S
C710 C711 1.372 . S
C711 C710 1.372 . S
C711 C712 1.400 . S
C711 C716 1.490 . S
C712 H702 0.930 . S
C712 C711 1.400 . S
C712 C715 1.386 . S
H713 C729 0.930 . S
H714 C730 0.931 . S
C715 H703 0.929 . S
C715 C709 1.390 . S
C715 C712 1.386 . S
C716 C711 1.490 . S
C716 C718 1.395 . S
C716 C719 1.403 . S
H717 C723 0.930 . S
C718 H704 0.930 . S
C718 C716 1.395 . S
C718 C721 1.403 . S
C719 C716 1.403 . S
C719 C720 1.524 . S
C719 C723 1.400 . S
C720 H705 0.960 . S
C720 H706 0.960 . S
C720 H707 0.960 . S
C720 C719 1.524 . S
C721 C718 1.403 . S
C721 C722 1.392 . S
C721 C725 1.495 . S
C722 C721 1.392 . S
C722 C723 1.385 . S
C722 C724 1.478 . S
C723 H717 0.930 . S
C723 C719 1.400 . S
C723 C722 1.385 . S
C724 C722 1.478 . S
C724 C726 1.381 . S
C724 C730 1.383 . S
C725 C721 1.495 . S
C725 H731 0.959 . S
C725 H732 0.961 . S
C725 H733 0.960 . S
C726 C724 1.381 . S
C726 C727 1.394 . S
C726 H734 0.930 . S
C727 C726 1.394 . S
C727 C728 1.383 . S
C727 H735 0.929 . S
C728 C727 1.383 . S
C728 C729 1.377 . S
C729 H713 0.930 . S
C729 C728 1.377 . S
C729 C730 1.379 . S
C730 H714 0.931 . S
C730 C724 1.383 . S
C730 C729 1.379 . S
H731 C725 0.959 . S
H732 C725 0.961 . S
H733 C725 0.960 . S
H734 C726 0.930 . S
H735 C727 0.929 . S
H736 C744 0.929 . S
H737 C746 0.930 . S
H738 C748 0.938 . S
H739 C751 0.929 1_565 S
H740 C754 0.930 . S
H741 C756 0.960 . S
H742 C756 0.960 . S
H743 C756 0.960 . S
C744 H736 0.929 . S
C744 C745 1.377 . S
C744 C746 1.384 . S
C745 C744 1.377 . S
C745 C751 1.390 1_455 S
C746 H737 0.930 . S
C746 C744 1.384 . S
C746 C747 1.372 . S
C747 C746 1.372 . S
C747 C748 1.394 1_455 S
C747 C752 1.493 . S
C748 H738 0.938 . S
C748 C747 1.394 1_655 S
C748 C751 1.387 . S
H749 C765 0.930 . S
H750 C766 0.931 . S
C751 H739 0.929 1_545 S
C751 C745 1.390 1_655 S
C751 C748 1.387 . S
C752 C747 1.493 . S
C752 C754 1.352 1_455 S
C752 C755 1.444 . S
H753 C759 0.930 . S
C754 H740 0.930 . S
C754 C752 1.352 1_655 S
C754 C757 1.403 . S
C755 C752 1.444 . S
C755 C756 1.524 . S
C755 C759 1.400 . S
C756 H741 0.960 . S
C756 H742 0.960 . S
C756 H743 0.960 . S
C756 C755 1.524 . S
C757 C754 1.403 . S
C757 C758 1.392 . S
C757 C761 1.495 . S
C758 C757 1.392 . S
C758 C759 1.385 1_655 S
C758 C760 1.478 . S
C759 H753 0.930 . S
C759 C755 1.400 . S
C759 C758 1.385 1_455 S
C760 C758 1.478 . S
C760 C762 1.381 1_655 S
C760 C766 1.383 . S
C761 C757 1.495 . S
C761 H767 0.959 . S
C761 H768 0.961 . S
C761 H769 0.960 . S
C762 C760 1.381 1_455 S
C762 C763 1.394 . S
C762 H770 0.930 . S
C763 C762 1.394 . S
C763 C764 1.384 1_455 S
C763 H771 0.929 . S
C764 C763 1.384 1_655 S
C764 C765 1.376 . S
C765 H749 0.930 . S
C765 C764 1.376 . S
C765 C766 1.379 . S
C766 H750 0.931 . S
C766 C760 1.383 . S
C766 C765 1.379 . S
H767 C761 0.959 . S
H768 C761 0.961 . S
H769 C761 0.960 . S
H770 C762 0.930 . S
H771 C763 0.929 . S
H772 C780 0.929 . S
H773 C782 0.930 . S
H774 C784 0.930 . S
H775 C787 0.929 . S
H776 C790 0.930 . S
H777 C792 0.960 . S
H778 C792 0.960 . S
H779 C792 0.960 . S
C780 H772 0.929 . S
C780 C781 1.377 . S
C780 C782 1.384 . S
C781 C780 1.377 . S
C781 C787 1.390 . S
C782 H773 0.930 . S
C782 C780 1.384 . S
C782 C783 1.372 . S
C783 C782 1.372 . S
C783 C784 1.400 . S
C783 C788 1.490 . S
C784 H774 0.930 . S
C784 C783 1.400 . S
C784 C787 1.386 . S
H785 C801 0.911 1_565 S
H786 C802 0.931 . S
C787 H775 0.929 . S
C787 C781 1.390 . S
C787 C784 1.386 . S
C788 C783 1.490 . S
C788 C790 1.395 . S
C788 C791 1.403 . S
H789 C795 0.930 . S
C790 H776 0.930 . S
C790 C788 1.395 . S
C790 C793 1.403 . S
C791 C788 1.403 . S
C791 C792 1.524 . S
C791 C795 1.400 . S
C792 H777 0.960 . S
C792 H778 0.960 . S
C792 H779 0.960 . S
C792 C791 1.524 . S
C793 C790 1.403 . S
C793 C794 1.392 . S
C793 C797 1.495 . S
C794 C793 1.392 . S
C794 C795 1.385 . S
C794 C796 1.478 . S
C795 H789 0.930 . S
C795 C791 1.400 . S
C795 C794 1.385 . S
C796 C794 1.478 . S
C796 C798 1.381 . S
C796 C802 1.383 . S
C797 C793 1.495 . S
C797 H803 0.959 . S
C797 H804 0.961 . S
C797 H805 0.960 . S
C798 C796 1.381 . S
C798 C799 1.394 . S
C798 H806 0.930 . S
C799 C798 1.394 . S
C799 C800 1.383 . S
C799 H807 0.929 . S
C800 C799 1.383 . S
C800 C801 1.377 . S
C801 H785 0.911 1_545 S
C801 C800 1.377 . S
C801 C802 1.379 . S
C802 H786 0.931 . S
C802 C796 1.383 . S
C802 C801 1.379 . S
H803 C797 0.959 . S
H804 C797 0.961 . S
H805 C797 0.960 . S
H806 C798 0.930 . S
H807 C799 0.929 . S
H808 C816 0.929 . S
H809 C818 0.930 . S
H810 C820 0.928 . S
H811 C823 0.929 . S
H812 C826 0.930 . S
H813 C828 0.960 . S
H814 C828 0.960 . S
H815 C828 0.960 . S
C816 H808 0.929 . S
C816 C817 1.381 . S
C816 C818 1.384 . S
C817 C816 1.381 . S
C817 C823 1.388 1_655 S
C818 H809 0.930 . S
C818 C816 1.384 . S
C818 C819 1.372 . S
C819 C818 1.372 . S
C819 C820 1.400 1_655 S
C819 C824 1.490 . S
C820 H810 0.928 . S
C820 C819 1.400 1_455 S
C820 C823 1.386 . S
H821 C837 0.930 . S
H822 C838 0.931 . S
C823 H811 0.929 . S
C823 C817 1.388 1_455 S
C823 C820 1.386 . S
C824 C819 1.490 . S
C824 C826 1.395 . S
C824 C827 1.403 1_655 S
H825 C831 0.930 . S
C826 H812 0.930 . S
C826 C824 1.395 . S
C826 C829 1.403 . S
C827 C824 1.403 1_455 S
C827 C828 1.524 . S
C827 C831 1.400 . S
C828 H813 0.960 . S
C828 H814 0.960 . S
C828 H815 0.960 . S
C828 C827 1.524 . S
C829 C826 1.403 . S
C829 C830 1.392 . S
C829 C833 1.495 . S
C830 C829 1.392 . S
C830 C831 1.385 1_655 S
C830 C832 1.478 . S
C831 H825 0.930 . S
C831 C827 1.400 . S
C831 C830 1.385 1_455 S
C832 C830 1.478 . S
C832 C834 1.381 . S
C832 C838 1.383 . S
C833 C829 1.495 . S
C833 H839 0.959 . S
C833 H840 0.961 . S
C833 H841 0.960 . S
C834 C832 1.381 . S
C834 C835 1.394 . S
C834 H842 0.930 . S
C835 C834 1.394 . S
C835 C836 1.383 . S
C835 H843 0.935 1_565 S
C836 C835 1.383 . S
C836 C837 1.377 . S
C837 H821 0.930 . S
C837 C836 1.377 . S
C837 C838 1.379 . S
C838 H822 0.931 . S
C838 C832 1.383 . S
C838 C837 1.379 . S
H839 C833 0.959 . S
H840 C833 0.961 . S
H841 C833 0.960 . S
H842 C834 0.930 . S
H843 C835 0.935 1_545 S
H844 C852 0.929 . S
H845 C854 0.930 . S
H846 C856 0.930 . S
H847 C859 0.929 . S
H848 C862 0.930 . S
H849 C864 0.960 . S
H850 C864 0.960 . S
H851 C864 0.960 . S
C852 H844 0.929 . S
C852 C853 1.377 . S
C852 C854 1.384 . S
C853 C852 1.377 . S
C853 C859 1.390 . S
C854 H845 0.930 . S
C854 C852 1.384 . S
C854 C855 1.372 . S
C855 C854 1.372 . S
C855 C856 1.400 . S
C855 C860 1.490 . S
C856 H846 0.930 . S
C856 C855 1.400 . S
C856 C859 1.386 . S
H857 C873 0.930 . S
H858 C874 0.931 . S
C859 H847 0.929 . S
C859 C853 1.390 . S
C859 C856 1.386 . S
C860 C855 1.490 . S
C860 C862 1.395 . S
C860 C863 1.403 . S
H861 C867 0.930 . S
C862 H848 0.930 . S
C862 C860 1.395 . S
C862 C865 1.403 . S
C863 C860 1.403 . S
C863 C864 1.524 . S
C863 C867 1.400 . S
C864 H849 0.960 . S
C864 H850 0.960 . S
C864 H851 0.960 . S
C864 C863 1.524 . S
C865 C862 1.403 . S
C865 C866 1.392 . S
C865 C869 1.495 . S
C866 C865 1.392 . S
C866 C867 1.385 . S
C866 C868 1.478 . S
C867 H861 0.930 . S
C867 C863 1.400 . S
C867 C866 1.385 . S
C868 C866 1.478 . S
C868 C870 1.381 . S
C868 C874 1.383 . S
C869 C865 1.495 . S
C869 H875 0.959 . S
C869 H876 0.961 . S
C869 H877 0.960 . S
C870 C868 1.381 . S
C870 C871 1.394 . S
C870 H878 0.930 . S
C871 C870 1.394 . S
C871 C872 1.383 . S
C871 H879 0.929 . S
C872 C871 1.383 . S
C872 C873 1.377 . S
C873 H857 0.930 . S
C873 C872 1.377 . S
C873 C874 1.379 . S
C874 H858 0.931 . S
C874 C868 1.383 . S
C874 C873 1.379 . S
H875 C869 0.959 . S
H876 C869 0.961 . S
H877 C869 0.960 . S
H878 C870 0.930 . S
H879 C871 0.929 . S
H880 C888 0.929 . S
H881 C890 0.930 . S
H882 C892 0.930 . S
H883 C895 0.929 . S
H884 C898 0.930 . S
H885 C900 0.960 . S
H886 C900 0.960 . S
H887 C900 0.960 . S
C888 H880 0.929 . S
C888 C889 1.377 . S
C888 C890 1.384 . S
C889 C888 1.377 . S
C889 C895 1.390 1_455 S
C890 H881 0.930 . S
C890 C888 1.384 . S
C890 C891 1.372 . S
C891 C890 1.372 . S
C891 C892 1.400 1_455 S
C891 C896 1.490 . S
C892 H882 0.930 . S
C892 C891 1.400 1_655 S
C892 C895 1.386 . S
H893 C909 0.930 . S
H894 C910 0.931 . S
C895 H883 0.929 . S
C895 C889 1.390 1_655 S
C895 C892 1.386 . S
C896 C891 1.490 . S
C896 C898 1.395 . S
C896 C899 1.403 1_455 S
H897 C903 0.930 . S
C898 H884 0.930 . S
C898 C896 1.395 . S
C898 C901 1.403 . S
C899 C896 1.403 1_655 S
C899 C900 1.524 . S
C899 C903 1.400 . S
C900 H885 0.960 . S
C900 H886 0.960 . S
C900 H887 0.960 . S
C900 C899 1.524 . S
C901 C898 1.403 . S
C901 C902 1.392 . S
C901 C905 1.495 . S
C902 C901 1.392 . S
C902 C903 1.385 1_455 S
C902 C904 1.478 . S
C903 H897 0.930 . S
C903 C899 1.400 . S
C903 C902 1.385 1_655 S
C904 C902 1.478 . S
C904 C906 1.381 . S
C904 C910 1.383 1_455 S
C905 C901 1.495 . S
C905 H911 0.959 . S
C905 H912 0.961 . S
C905 H913 0.960 . S
C906 C904 1.381 . S
C906 C907 1.394 . S
C906 H914 0.930 . S
C907 C906 1.394 . S
C907 C908 1.383 . S
C907 H915 0.929 . S
C908 C907 1.383 . S
C908 C909 1.377 1_455 S
C909 H893 0.930 . S
C909 C908 1.377 1_655 S
C909 C910 1.379 . S
C910 H894 0.931 . S
C910 C904 1.383 1_655 S
C910 C909 1.379 . S
H911 C905 0.959 . S
H912 C905 0.961 . S
H913 C905 0.960 . S
H914 C906 0.930 . S
H915 C907 0.929 . S
H916 C924 0.929 . S
H917 C926 0.930 . S
H918 C928 0.930 . S
H919 C931 0.929 . S
H920 C934 0.930 . S
H921 C936 0.960 . S
H922 C936 0.960 . S
H923 C936 0.960 . S
C924 H916 0.929 . S
C924 C925 1.377 . S
C924 C926 1.384 . S
C925 C924 1.377 . S
C925 C931 1.390 . S
C926 H917 0.930 . S
C926 C924 1.384 . S
C926 C927 1.372 . S
C927 C926 1.372 . S
C927 C928 1.400 . S
C927 C932 1.490 . S
C928 H918 0.930 . S
C928 C927 1.400 . S
C928 C931 1.386 . S
H929 C945 0.930 . S
H930 C946 0.931 . S
C931 H919 0.929 . S
C931 C925 1.390 . S
C931 C928 1.386 . S
C932 C927 1.490 . S
C932 C934 1.395 . S
C932 C935 1.403 . S
H933 C939 0.930 . S
C934 H920 0.930 . S
C934 C932 1.395 . S
C934 C937 1.403 . S
C935 C932 1.403 . S
C935 C936 1.524 . S
C935 C939 1.400 . S
C936 H921 0.960 . S
C936 H922 0.960 . S
C936 H923 0.960 . S
C936 C935 1.524 . S
C937 C934 1.403 . S
C937 C938 1.392 . S
C937 C941 1.495 . S
C938 C937 1.392 . S
C938 C939 1.385 . S
C938 C940 1.478 . S
C939 H933 0.930 . S
C939 C935 1.400 . S
C939 C938 1.385 . S
C940 C938 1.478 . S
C940 C942 1.381 . S
C940 C946 1.383 . S
C941 C937 1.495 . S
C941 H947 0.959 . S
C941 H948 0.961 . S
C941 H949 0.960 . S
C942 C940 1.381 . S
C942 C943 1.394 . S
C942 H950 0.930 . S
C943 C942 1.394 . S
C943 C944 1.383 . S
C943 H951 0.929 . S
C944 C943 1.383 . S
C944 C945 1.377 . S
C945 H929 0.930 . S
C945 C944 1.377 . S
C945 C946 1.379 . S
C946 H930 0.931 . S
C946 C940 1.383 . S
C946 C945 1.379 . S
H947 C941 0.959 . S
H948 C941 0.961 . S
H949 C941 0.960 . S
H950 C942 0.930 . S
H951 C943 0.929 . S
H952 C960 0.929 . S
H953 C962 0.930 . S
H954 C964 0.930 . S
H955 C967 0.929 . S
H956 C970 0.930 . S
H957 C972 0.960 . S
H958 C972 0.960 . S
H959 C972 0.960 . S
C960 H952 0.929 . S
C960 C961 1.377 1_455 S
C960 C962 1.384 . S
C961 C960 1.377 1_655 S
C961 C967 1.390 . S
C962 H953 0.930 . S
C962 C960 1.384 . S
C962 C963 1.362 1_455 S
C963 C962 1.362 1_655 S
C963 C964 1.410 . S
C963 C968 1.489 1_655 S
C964 H954 0.930 . S
C964 C963 1.410 . S
C964 C967 1.386 . S
H965 C981 0.930 . S
H966 C982 0.931 . S
C967 H955 0.929 . S
C967 C961 1.390 . S
C967 C964 1.386 . S
C968 C963 1.489 1_455 S
C968 C970 1.403 . S
C968 C971 1.395 1_455 S
H969 C975 0.930 . S
C970 H956 0.930 . S
C970 C968 1.403 . S
C970 C973 1.403 . S
C971 C968 1.395 1_655 S
C971 C972 1.524 . S
C971 C975 1.400 . S
C972 H957 0.960 . S
C972 H958 0.960 . S
C972 H959 0.960 . S
C972 C971 1.524 . S
C973 C970 1.403 . S
C973 C974 1.392 . S
C973 C977 1.495 . S
C974 C973 1.392 . S
C974 C975 1.385 1_455 S
C974 C976 1.478 . S
C975 H969 0.930 . S
C975 C971 1.400 . S
C975 C974 1.385 1_655 S
C976 C974 1.478 . S
C976 C978 1.381 . S
C976 C982 1.383 1_455 S
C977 C973 1.495 . S
C977 H983 0.959 . S
C977 H984 0.961 . S
C977 H985 0.960 . S
C978 C976 1.381 . S
C978 C979 1.394 . S
C978 H986 0.930 . S
C979 C978 1.394 . S
C979 C980 1.383 1_455 S
C979 H987 0.929 . S
C980 C979 1.383 1_655 S
C980 C981 1.377 . S
C981 H965 0.930 . S
C981 C980 1.377 . S
C981 C982 1.379 . S
C982 H966 0.931 . S
C982 C976 1.383 1_655 S
C982 C981 1.379 . S
H983 C977 0.959 . S
H984 C977 0.961 . S
H985 C977 0.960 . S
H986 C978 0.930 . S
H987 C979 0.929 . S
H988 C996 0.929 . S
H989 C998 0.930 . S
H990 C1000 0.930 . S
H991 C1003 0.929 . S
H992 C1006 0.930 . S
H993 C1008 0.960 . S
H994 C1008 0.960 . S
H995 C1008 0.960 . S
C996 H988 0.929 . S
C996 C997 1.377 . S
C996 C998 1.384 . S
C997 C996 1.377 . S
C997 C1003 1.390 . S
C998 H989 0.930 . S
C998 C996 1.384 . S
C998 C999 1.372 . S
C999 C998 1.372 . S
C999 C1000 1.400 . S
C999 C1004 1.490 . S
C1000 H990 0.930 . S
C1000 C999 1.400 . S
C1000 C1003 1.386 . S
H1001 C1017 0.930 . S
H1002 C1018 0.931 . S
C1003 H991 0.929 . S
C1003 C997 1.390 . S
C1003 C1000 1.386 . S
C1004 C999 1.490 . S
C1004 C1006 1.395 . S
C1004 C1007 1.403 . S
H1005 C1011 0.930 . S
C1006 H992 0.930 . S
C1006 C1004 1.395 . S
C1006 C1009 1.403 . S
C1007 C1004 1.403 . S
C1007 C1008 1.524 . S
C1007 C1011 1.400 . S
C1008 H993 0.960 . S
C1008 H994 0.960 . S
C1008 H995 0.960 . S
C1008 C1007 1.524 . S
C1009 C1006 1.403 . S
C1009 C1010 1.392 . S
C1009 C1013 1.495 . S
C1010 C1009 1.392 . S
C1010 C1011 1.385 . S
C1010 C1012 1.478 . S
C1011 H1005 0.930 . S
C1011 C1007 1.400 . S
C1011 C1010 1.385 . S
C1012 C1010 1.478 . S
C1012 C1014 1.381 . S
C1012 C1018 1.383 . S
C1013 C1009 1.495 . S
C1013 H1019 0.959 . S
C1013 H1020 0.961 . S
C1013 H1021 0.960 . S
C1014 C1012 1.381 . S
C1014 C1015 1.394 . S
C1014 H1022 0.930 . S
C1015 C1014 1.394 . S
C1015 C1016 1.383 . S
C1015 H1023 0.929 . S
C1016 C1015 1.383 . S
C1016 C1017 1.377 . S
C1017 H1001 0.930 . S
C1017 C1016 1.377 . S
C1017 C1018 1.379 . S
C1018 H1002 0.931 . S
C1018 C1012 1.383 . S
C1018 C1017 1.379 . S
H1019 C1013 0.959 . S
H1020 C1013 0.961 . S
H1021 C1013 0.960 . S
H1022 C1014 0.930 . S
H1023 C1015 0.929 . S
H1024 C1032 0.929 . S
H1025 C1034 0.930 . S
H1026 C1036 0.930 . S
H1027 C1039 0.929 . S
H1028 C1042 0.930 . S
H1029 C1044 0.960 . S
H1030 C1044 0.960 . S
H1031 C1044 0.960 . S
C1032 H1024 0.929 . S
C1032 C1033 1.377 . S
C1032 C1034 1.384 . S
C1033 C1032 1.377 . S
C1033 C1039 1.390 . S
C1034 H1025 0.930 . S
C1034 C1032 1.384 . S
C1034 C1035 1.372 . S
C1035 C1034 1.372 . S
C1035 C1036 1.400 . S
C1035 C1040 1.490 . S
C1036 H1026 0.930 . S
C1036 C1035 1.400 . S
C1036 C1039 1.386 . S
H1037 C1053 0.930 . S
H1038 C1054 0.931 . S
C1039 H1027 0.929 . S
C1039 C1033 1.390 . S
C1039 C1036 1.386 . S
C1040 C1035 1.490 . S
C1040 C1042 1.395 . S
C1040 C1043 1.403 . S
H1041 C1047 0.930 . S
C1042 H1028 0.930 . S
C1042 C1040 1.395 . S
C1042 C1045 1.403 . S
C1043 C1040 1.403 . S
C1043 C1044 1.524 . S
C1043 C1047 1.400 . S
C1044 H1029 0.960 . S
C1044 H1030 0.960 . S
C1044 H1031 0.960 . S
C1044 C1043 1.524 . S
C1045 C1042 1.403 . S
C1045 C1046 1.392 . S
C1045 C1049 1.495 . S
C1046 C1045 1.392 . S
C1046 C1047 1.385 . S
C1046 C1048 1.478 . S
C1047 H1041 0.930 . S
C1047 C1043 1.400 . S
C1047 C1046 1.385 . S
C1048 C1046 1.478 . S
C1048 C1050 1.381 . S
C1048 C1054 1.383 . S
C1049 C1045 1.495 . S
C1049 H1055 0.959 . S
C1049 H1056 0.961 . S
C1049 H1057 0.960 . S
C1050 C1048 1.381 . S
C1050 C1051 1.394 . S
C1050 H1058 0.930 . S
C1051 C1050 1.394 . S
C1051 C1052 1.383 . S
C1051 H1059 0.929 . S
C1052 C1051 1.383 . S
C1052 C1053 1.377 . S
C1053 H1037 0.930 . S
C1053 C1052 1.377 . S
C1053 C1054 1.379 . S
C1054 H1038 0.931 . S
C1054 C1048 1.383 . S
C1054 C1053 1.379 . S
H1055 C1049 0.959 . S
H1056 C1049 0.961 . S
H1057 C1049 0.960 . S
H1058 C1050 0.930 . S
H1059 C1051 0.929 . S
H1060 C1068 0.929 . S
H1061 C1070 0.930 . S
H1062 C1072 0.930 . S
H1063 C1075 0.929 . S
H1064 C1078 0.930 . S
H1065 C1080 0.960 . S
H1066 C1080 0.960 . S
H1067 C1080 0.960 . S
C1068 H1060 0.929 . S
C1068 C1069 1.377 . S
C1068 C1070 1.384 . S
C1069 C1068 1.377 . S
C1069 C1075 1.390 . S
C1070 H1061 0.930 . S
C1070 C1068 1.384 . S
C1070 C1071 1.372 . S
C1071 C1070 1.372 . S
C1071 C1072 1.400 . S
C1071 C1076 1.490 . S
C1072 H1062 0.930 . S
C1072 C1071 1.400 . S
C1072 C1075 1.386 . S
H1073 C1089 0.930 . S
H1074 C1090 0.931 . S
C1075 H1063 0.929 . S
C1075 C1069 1.390 . S
C1075 C1072 1.386 . S
C1076 C1071 1.490 . S
C1076 C1078 1.395 . S
C1076 C1079 1.403 . S
H1077 C1083 0.930 . S
C1078 H1064 0.930 . S
C1078 C1076 1.395 . S
C1078 C1081 1.403 . S
C1079 C1076 1.403 . S
C1079 C1080 1.524 . S
C1079 C1083 1.400 . S
C1080 H1065 0.960 . S
C1080 H1066 0.960 . S
C1080 H1067 0.960 . S
C1080 C1079 1.524 . S
C1081 C1078 1.403 . S
C1081 C1082 1.392 . S
C1081 C1085 1.495 . S
C1082 C1081 1.392 . S
C1082 C1083 1.385 . S
C1082 C1084 1.478 . S
C1083 H1077 0.930 . S
C1083 C1079 1.400 . S
C1083 C1082 1.385 . S
C1084 C1082 1.478 . S
C1084 C1086 1.381 . S
C1084 C1090 1.383 . S
C1085 C1081 1.495 . S
C1085 H1091 0.959 . S
C1085 H1092 0.961 . S
C1085 H1093 0.960 . S
C1086 C1084 1.381 . S
C1086 C1087 1.394 . S
C1086 H1094 0.930 . S
C1087 C1086 1.394 . S
C1087 C1088 1.383 . S
C1087 H1095 0.929 . S
C1088 C1087 1.383 . S
C1088 C1089 1.377 . S
C1089 H1073 0.930 . S
C1089 C1088 1.377 . S
C1089 C1090 1.379 . S
C1090 H1074 0.931 . S
C1090 C1084 1.383 . S
C1090 C1089 1.379 . S
H1091 C1085 0.959 . S
H1092 C1085 0.961 . S
H1093 C1085 0.960 . S
H1094 C1086 0.930 . S
H1095 C1087 0.929 . S
H1096 C1104 0.929 . S
H1097 C1106 0.930 . S
H1098 C1108 0.930 . S
H1099 C1111 0.929 . S
H1100 C1114 0.930 . S
H1101 C1116 0.960 . S
H1102 C1116 0.960 . S
H1103 C1116 0.960 . S
C1104 H1096 0.929 . S
C1104 C1105 1.377 . S
C1104 C1106 1.384 . S
C1105 C1104 1.377 . S
C1105 C1111 1.390 . S
C1106 H1097 0.930 . S
C1106 C1104 1.384 . S
C1106 C1107 1.372 . S
C1107 C1106 1.372 . S
C1107 C1108 1.400 . S
C1107 C1112 1.490 . S
C1108 H1098 0.930 . S
C1108 C1107 1.400 . S
C1108 C1111 1.386 . S
H1109 C1125 0.930 . S
H1110 C1126 0.931 . S
C1111 H1099 0.929 . S
C1111 C1105 1.390 . S
C1111 C1108 1.386 . S
C1112 C1107 1.490 . S
C1112 C1114 1.395 . S
C1112 C1115 1.403 . S
H1113 C1119 0.930 . S
C1114 H1100 0.930 . S
C1114 C1112 1.395 . S
C1114 C1117 1.403 . S
C1115 C1112 1.403 . S
C1115 C1116 1.524 . S
C1115 C1119 1.400 . S
C1116 H1101 0.960 . S
C1116 H1102 0.960 . S
C1116 H1103 0.960 . S
C1116 C1115 1.524 . S
C1117 C1114 1.403 . S
C1117 C1118 1.392 . S
C1117 C1121 1.495 . S
C1118 C1117 1.392 . S
C1118 C1119 1.385 . S
C1118 C1120 1.478 . S
C1119 H1113 0.930 . S
C1119 C1115 1.400 . S
C1119 C1118 1.385 . S
C1120 C1118 1.478 . S
C1120 C1122 1.381 . S
C1120 C1126 1.383 . S
C1121 C1117 1.495 . S
C1121 H1127 0.959 . S
C1121 H1128 0.961 . S
C1121 H1129 0.960 . S
C1122 C1120 1.381 . S
C1122 C1123 1.394 . S
C1122 H1130 0.930 . S
C1123 C1122 1.394 . S
C1123 C1124 1.383 . S
C1123 H1131 0.929 . S
C1124 C1123 1.383 . S
C1124 C1125 1.377 . S
C1125 H1109 0.930 . S
C1125 C1124 1.377 . S
C1125 C1126 1.379 . S
C1126 H1110 0.931 . S
C1126 C1120 1.383 . S
C1126 C1125 1.379 . S
H1127 C1121 0.959 . S
H1128 C1121 0.961 . S
H1129 C1121 0.960 . S
H1130 C1122 0.930 . S
H1131 C1123 0.929 . S
H1132 C1140 0.929 1_545 S
H1133 C1142 0.930 . S
H1134 C1144 0.930 . S
H1135 C1147 0.929 . S
H1136 C1150 0.930 . S
H1137 C1152 0.960 . S
H1138 C1152 0.960 . S
H1139 C1152 0.960 . S
C1140 H1132 0.929 1_565 S
C1140 C1141 1.377 . S
C1140 C1142 1.384 . S
C1141 C1140 1.377 . S
C1141 C1147 1.390 . S
C1142 H1133 0.930 . S
C1142 C1140 1.384 . S
C1142 C1143 1.372 . S
C1143 C1142 1.372 . S
C1143 C1144 1.400 . S
C1143 C1148 1.490 . S
C1144 H1134 0.930 . S
C1144 C1143 1.400 . S
C1144 C1147 1.386 . S
H1145 C1161 0.930 . S
H1146 C1162 0.931 . S
C1147 H1135 0.929 . S
C1147 C1141 1.390 . S
C1147 C1144 1.386 . S
C1148 C1143 1.490 . S
C1148 C1150 1.395 . S
C1148 C1151 1.403 . S
H1149 C1155 0.930 . S
C1150 H1136 0.930 . S
C1150 C1148 1.395 . S
C1150 C1153 1.403 . S
C1151 C1148 1.403 . S
C1151 C1152 1.524 . S
C1151 C1155 1.400 . S
C1152 H1137 0.960 . S
C1152 H1138 0.960 . S
C1152 H1139 0.960 . S
C1152 C1151 1.524 . S
C1153 C1150 1.403 . S
C1153 C1154 1.392 . S
C1153 C1157 1.495 . S
C1154 C1153 1.392 . S
C1154 C1155 1.385 . S
C1154 C1156 1.478 . S
C1155 H1149 0.930 . S
C1155 C1151 1.400 . S
C1155 C1154 1.385 . S
C1156 C1154 1.478 . S
C1156 C1158 1.381 . S
C1156 C1162 1.383 . S
C1157 C1153 1.495 . S
C1157 H1163 0.959 . S
C1157 H1164 0.961 . S
C1157 H1165 0.960 . S
C1158 C1156 1.381 . S
C1158 C1159 1.394 . S
C1158 H1166 0.930 . S
C1159 C1158 1.394 . S
C1159 C1160 1.383 . S
C1159 H1167 0.929 . S
C1160 C1159 1.383 . S
C1160 C1161 1.377 . S
C1161 H1145 0.930 . S
C1161 C1160 1.377 . S
C1161 C1162 1.379 . S
C1162 H1146 0.931 . S
C1162 C1156 1.383 . S
C1162 C1161 1.379 . S
H1163 C1157 0.959 . S
H1164 C1157 0.961 . S
H1165 C1157 0.960 . S
H1166 C1158 0.930 . S
H1167 C1159 0.929 . S
H1168 C1176 0.929 . S
H1169 C1178 0.930 . S
H1170 C1180 0.930 . S
H1171 C1183 0.929 . S
H1172 C1186 0.930 . S
H1173 C1188 0.960 . S
H1174 C1188 0.960 . S
H1175 C1188 0.960 . S
C1176 H1168 0.929 . S
C1176 C1177 1.377 . S
C1176 C1178 1.384 . S
C1177 C1176 1.377 . S
C1177 C1183 1.390 . S
C1178 H1169 0.930 . S
C1178 C1176 1.384 . S
C1178 C1179 1.372 . S
C1179 C1178 1.372 . S
C1179 C1180 1.400 . S
C1179 C1184 1.490 . S
C1180 H1170 0.930 . S
C1180 C1179 1.400 . S
C1180 C1183 1.386 . S
H1181 C1197 0.930 1_565 S
H1182 C1198 0.931 . S
C1183 H1171 0.929 . S
C1183 C1177 1.390 . S
C1183 C1180 1.386 . S
C1184 C1179 1.490 . S
C1184 C1186 1.395 . S
C1184 C1187 1.403 . S
H1185 C1191 0.930 . S
C1186 H1172 0.930 . S
C1186 C1184 1.395 . S
C1186 C1189 1.403 . S
C1187 C1184 1.403 . S
C1187 C1188 1.524 . S
C1187 C1191 1.400 . S
C1188 H1173 0.960 . S
C1188 H1174 0.960 . S
C1188 H1175 0.960 . S
C1188 C1187 1.524 . S
C1189 C1186 1.403 . S
C1189 C1190 1.392 . S
C1189 C1193 1.495 . S
C1190 C1189 1.392 . S
C1190 C1191 1.385 . S
C1190 C1192 1.478 . S
C1191 H1185 0.930 . S
C1191 C1187 1.400 . S
C1191 C1190 1.385 . S
C1192 C1190 1.478 . S
C1192 C1194 1.381 . S
C1192 C1198 1.383 . S
C1193 C1189 1.495 . S
C1193 H1199 0.959 . S
C1193 H1200 0.961 . S
C1193 H1201 0.960 . S
C1194 C1192 1.381 . S
C1194 C1195 1.394 . S
C1194 H1202 0.930 . S
C1195 C1194 1.394 . S
C1195 C1196 1.383 . S
C1195 H1203 0.929 . S
C1196 C1195 1.383 . S
C1196 C1197 1.377 . S
C1197 H1181 0.930 1_545 S
C1197 C1196 1.377 . S
C1197 C1198 1.379 . S
C1198 H1182 0.931 . S
C1198 C1192 1.383 . S
C1198 C1197 1.379 . S
H1199 C1193 0.959 . S
H1200 C1193 0.961 . S
H1201 C1193 0.960 . S
H1202 C1194 0.930 . S
H1203 C1195 0.929 . S
H1204 C1212 0.929 . S
H1205 C1214 0.930 . S
H1206 C1216 0.930 . S
H1207 C1219 0.929 . S
H1208 C1222 0.930 . S
H1209 C1224 0.960 . S
H1210 C1224 0.960 . S
H1211 C1224 0.960 . S
C1212 H1204 0.929 . S
C1212 C1213 1.377 . S
C1212 C1214 1.384 . S
C1213 C1212 1.377 . S
C1213 C1219 1.390 . S
C1214 H1205 0.930 . S
C1214 C1212 1.384 . S
C1214 C1215 1.372 . S
C1215 C1214 1.372 . S
C1215 C1216 1.400 . S
C1215 C1220 1.490 . S
C1216 H1206 0.930 . S
C1216 C1215 1.400 . S
C1216 C1219 1.386 . S
H1217 C1233 0.930 . S
H1218 C1234 0.931 . S
C1219 H1207 0.929 . S
C1219 C1213 1.390 . S
C1219 C1216 1.386 . S
C1220 C1215 1.490 . S
C1220 C1222 1.395 . S
C1220 C1223 1.403 . S
H1221 C1227 0.930 . S
C1222 H1208 0.930 . S
C1222 C1220 1.395 . S
C1222 C1225 1.403 . S
C1223 C1220 1.403 . S
C1223 C1224 1.524 . S
C1223 C1227 1.400 . S
C1224 H1209 0.960 . S
C1224 H1210 0.960 . S
C1224 H1211 0.960 . S
C1224 C1223 1.524 . S
C1225 C1222 1.403 . S
C1225 C1226 1.392 . S
C1225 C1229 1.495 . S
C1226 C1225 1.392 . S
C1226 C1227 1.385 . S
C1226 C1228 1.478 . S
C1227 H1221 0.930 . S
C1227 C1223 1.400 . S
C1227 C1226 1.385 . S
C1228 C1226 1.478 . S
C1228 C1230 1.381 . S
C1228 C1234 1.383 . S
C1229 C1225 1.495 . S
C1229 H1235 0.959 . S
C1229 H1236 0.961 . S
C1229 H1237 0.960 . S
C1230 C1228 1.381 . S
C1230 C1231 1.394 . S
C1230 H1238 0.930 . S
C1231 C1230 1.394 . S
C1231 C1232 1.383 . S
C1231 H1239 0.929 . S
C1232 C1231 1.383 . S
C1232 C1233 1.377 . S
C1233 H1217 0.930 . S
C1233 C1232 1.377 . S
C1233 C1234 1.379 . S
C1234 H1218 0.931 . S
C1234 C1228 1.383 . S
C1234 C1233 1.379 . S
H1235 C1229 0.959 . S
H1236 C1229 0.961 . S
H1237 C1229 0.960 . S
H1238 C1230 0.930 . S
H1239 C1231 0.929 . S
H1240 C1248 0.929 . S
H1241 C1250 0.930 . S
H1242 C1252 0.930 . S
H1243 C1255 0.929 . S
H1244 C1258 0.930 . S
H1245 C1260 0.960 . S
H1246 C1260 0.960 . S
H1247 C1260 0.960 . S
C1248 H1240 0.929 . S
C1248 C1249 1.377 . S
C1248 C1250 1.384 . S
C1249 C1248 1.377 . S
C1249 C1255 1.390 . S
C1250 H1241 0.930 . S
C1250 C1248 1.384 . S
C1250 C1251 1.372 . S
C1251 C1250 1.372 . S
C1251 C1252 1.400 . S
C1251 C1256 1.490 . S
C1252 H1242 0.930 . S
C1252 C1251 1.400 . S
C1252 C1255 1.386 . S
H1253 C1269 0.930 . S
H1254 C1270 0.931 . S
C1255 H1243 0.929 . S
C1255 C1249 1.390 . S
C1255 C1252 1.386 . S
C1256 C1251 1.490 . S
C1256 C1258 1.395 . S
C1256 C1259 1.403 . S
H1257 C1263 0.930 . S
C1258 H1244 0.930 . S
C1258 C1256 1.395 . S
C1258 C1261 1.403 . S
C1259 C1256 1.403 . S
C1259 C1260 1.524 . S
C1259 C1263 1.400 . S
C1260 H1245 0.960 . S
C1260 H1246 0.960 . S
C1260 H1247 0.960 . S
C1260 C1259 1.524 . S
C1261 C1258 1.403 . S
C1261 C1262 1.392 . S
C1261 C1265 1.495 . S
C1262 C1261 1.392 . S
C1262 C1263 1.385 . S
C1262 C1264 1.478 . S
C1263 H1257 0.930 . S
C1263 C1259 1.400 . S
C1263 C1262 1.385 . S
C1264 C1262 1.478 . S
C1264 C1266 1.381 . S
C1264 C1270 1.383 . S
C1265 C1261 1.495 . S
C1265 H1271 0.959 . S
C1265 H1272 0.961 . S
C1265 H1273 0.960 . S
C1266 C1264 1.381 . S
C1266 C1267 1.394 . S
C1266 H1274 0.930 . S
C1267 C1266 1.394 . S
C1267 C1268 1.383 . S
C1267 H1275 0.929 . S
C1268 C1267 1.383 . S
C1268 C1269 1.377 . S
C1269 H1253 0.930 . S
C1269 C1268 1.377 . S
C1269 C1270 1.379 . S
C1270 H1254 0.931 . S
C1270 C1264 1.383 . S
C1270 C1269 1.379 . S
H1271 C1265 0.959 . S
H1272 C1265 0.961 . S
H1273 C1265 0.960 . S
H1274 C1266 0.930 . S
H1275 C1267 0.929 . S
H1276 C1284 0.929 . S
H1277 C1286 0.930 . S
H1278 C1288 0.930 . S
H1279 C1291 0.929 . S
H1280 C1294 0.930 . S
H1281 C1296 0.960 . S
H1282 C1296 0.960 . S
H1283 C1296 0.960 . S
C1284 H1276 0.929 . S
C1284 C1285 1.377 . S
C1284 C1286 1.384 . S
C1285 C1284 1.377 . S
C1285 C1291 1.390 . S
C1286 H1277 0.930 . S
C1286 C1284 1.384 . S
C1286 C1287 1.372 . S
C1287 C1286 1.372 . S
C1287 C1288 1.400 . S
C1287 C1292 1.490 . S
C1288 H1278 0.930 . S
C1288 C1287 1.400 . S
C1288 C1291 1.386 . S
H1289 C1305 0.930 . S
H1290 C1306 0.931 . S
C1291 H1279 0.929 . S
C1291 C1285 1.390 . S
C1291 C1288 1.386 . S
C1292 C1287 1.490 . S
C1292 C1294 1.395 . S
C1292 C1295 1.403 . S
H1293 C1299 0.930 . S
C1294 H1280 0.930 . S
C1294 C1292 1.395 . S
C1294 C1297 1.403 . S
C1295 C1292 1.403 . S
C1295 C1296 1.524 . S
C1295 C1299 1.400 . S
C1296 H1281 0.960 . S
C1296 H1282 0.960 . S
C1296 H1283 0.960 . S
C1296 C1295 1.524 . S
C1297 C1294 1.403 . S
C1297 C1298 1.392 . S
C1297 C1301 1.495 . S
C1298 C1297 1.392 . S
C1298 C1299 1.385 . S
C1298 C1300 1.478 . S
C1299 H1293 0.930 . S
C1299 C1295 1.400 . S
C1299 C1298 1.385 . S
C1300 C1298 1.478 . S
C1300 C1302 1.381 . S
C1300 C1306 1.383 . S
C1301 C1297 1.495 . S
C1301 H1307 0.959 . S
C1301 H1308 0.961 . S
C1301 H1309 0.960 . S
C1302 C1300 1.381 . S
C1302 C1303 1.394 . S
C1302 H1310 0.930 . S
C1303 C1302 1.394 . S
C1303 C1304 1.383 . S
C1303 H1311 0.929 . S
C1304 C1303 1.383 . S
C1304 C1305 1.377 . S
C1305 H1289 0.930 . S
C1305 C1304 1.377 . S
C1305 C1306 1.379 . S
C1306 H1290 0.931 . S
C1306 C1300 1.383 . S
C1306 C1305 1.379 . S
H1307 C1301 0.959 . S
H1308 C1301 0.961 . S
H1309 C1301 0.960 . S
H1310 C1302 0.930 . S
H1311 C1303 0.929 . S
H1312 C1320 0.929 . S
H1313 C1322 0.930 . S
H1314 C1324 0.930 . S
H1315 C1327 0.929 . S
H1316 C1330 0.930 . S
H1317 C1332 0.960 . S
H1318 C1332 0.960 . S
H1319 C1332 0.960 . S
C1320 H1312 0.929 . S
C1320 C1321 1.377 . S
C1320 C1322 1.384 . S
C1321 C1320 1.377 . S
C1321 C1327 1.390 . S
C1322 H1313 0.930 . S
C1322 C1320 1.384 . S
C1322 C1323 1.372 . S
C1323 C1322 1.372 . S
C1323 C1324 1.400 . S
C1323 C1328 1.490 . S
C1324 H1314 0.930 . S
C1324 C1323 1.400 . S
C1324 C1327 1.386 . S
H1325 C1341 0.930 . S
H1326 C1342 0.931 . S
C1327 H1315 0.929 . S
C1327 C1321 1.390 . S
C1327 C1324 1.386 . S
C1328 C1323 1.490 . S
C1328 C1330 1.395 . S
C1328 C1331 1.403 . S
H1329 C1335 0.930 . S
C1330 H1316 0.930 . S
C1330 C1328 1.395 . S
C1330 C1333 1.403 . S
C1331 C1328 1.403 . S
C1331 C1332 1.524 . S
C1331 C1335 1.400 . S
C1332 H1317 0.960 . S
C1332 H1318 0.960 . S
C1332 H1319 0.960 . S
C1332 C1331 1.524 . S
C1333 C1330 1.403 . S
C1333 C1334 1.392 . S
C1333 C1337 1.495 . S
C1334 C1333 1.392 . S
C1334 C1335 1.385 . S
C1334 C1336 1.478 . S
C1335 H1329 0.930 . S
C1335 C1331 1.400 . S
C1335 C1334 1.385 . S
C1336 C1334 1.478 . S
C1336 C1338 1.381 . S
C1336 C1342 1.383 . S
C1337 C1333 1.495 . S
C1337 H1343 0.959 . S
C1337 H1344 0.961 . S
C1337 H1345 0.960 . S
C1338 C1336 1.381 . S
C1338 C1339 1.394 . S
C1338 H1346 0.930 . S
C1339 C1338 1.394 . S
C1339 C1340 1.383 . S
C1339 H1347 0.929 . S
C1340 C1339 1.383 . S
C1340 C1341 1.377 . S
C1341 H1325 0.930 . S
C1341 C1340 1.377 . S
C1341 C1342 1.379 . S
C1342 H1326 0.931 . S
C1342 C1336 1.383 . S
C1342 C1341 1.379 . S
H1343 C1337 0.959 . S
H1344 C1337 0.961 . S
H1345 C1337 0.960 . S
H1346 C1338 0.930 . S
H1347 C1339 0.929 . S
H1348 C1356 0.929 . S
H1349 C1358 0.930 . S
H1350 C1360 0.930 . S
H1351 C1363 0.929 . S
H1352 C1366 0.930 . S
H1353 C1368 0.960 . S
H1354 C1368 0.960 . S
H1355 C1368 0.960 . S
C1356 H1348 0.929 . S
C1356 C1357 1.377 . S
C1356 C1358 1.384 . S
C1357 C1356 1.377 . S
C1357 C1363 1.390 . S
C1358 H1349 0.930 . S
C1358 C1356 1.384 . S
C1358 C1359 1.372 . S
C1359 C1358 1.372 . S
C1359 C1360 1.400 . S
C1359 C1364 1.490 . S
C1360 H1350 0.930 . S
C1360 C1359 1.400 . S
C1360 C1363 1.386 . S
H1361 C1377 0.930 . S
H1362 C1378 0.931 . S
C1363 H1351 0.929 . S
C1363 C1357 1.390 . S
C1363 C1360 1.386 . S
C1364 C1359 1.490 . S
C1364 C1366 1.395 . S
C1364 C1367 1.403 . S
H1365 C1371 0.930 . S
C1366 H1352 0.930 . S
C1366 C1364 1.395 . S
C1366 C1369 1.403 . S
C1367 C1364 1.403 . S
C1367 C1368 1.524 . S
C1367 C1371 1.400 . S
C1368 H1353 0.960 . S
C1368 H1354 0.960 . S
C1368 H1355 0.960 . S
C1368 C1367 1.524 . S
C1369 C1366 1.403 . S
C1369 C1370 1.392 . S
C1369 C1373 1.495 . S
C1370 C1369 1.392 . S
C1370 C1371 1.385 . S
C1370 C1372 1.478 . S
C1371 H1365 0.930 . S
C1371 C1367 1.400 . S
C1371 C1370 1.385 . S
C1372 C1370 1.478 . S
C1372 C1374 1.381 . S
C1372 C1378 1.383 . S
C1373 C1369 1.495 . S
C1373 H1379 0.959 . S
C1373 H1380 0.961 . S
C1373 H1381 0.960 . S
C1374 C1372 1.381 . S
C1374 C1375 1.394 . S
C1374 H1382 0.930 . S
C1375 C1374 1.394 . S
C1375 C1376 1.383 . S
C1375 H1383 0.929 . S
C1376 C1375 1.383 . S
C1376 C1377 1.377 . S
C1377 H1361 0.930 . S
C1377 C1376 1.377 . S
C1377 C1378 1.379 . S
C1378 H1362 0.931 . S
C1378 C1372 1.383 . S
C1378 C1377 1.379 . S
H1379 C1373 0.959 . S
H1380 C1373 0.961 . S
H1381 C1373 0.960 . S
H1382 C1374 0.930 . S
H1383 C1375 0.929 . S
H1384 C1392 0.929 . S
H1385 C1394 0.930 . S
H1386 C1396 0.930 . S
H1387 C1399 0.929 . S
H1388 C1402 0.930 . S
H1389 C1404 0.960 . S
H1390 C1404 0.960 . S
H1391 C1404 0.960 . S
C1392 H1384 0.929 . S
C1392 C1393 1.377 . S
C1392 C1394 1.384 . S
C1393 C1392 1.377 . S
C1393 C1399 1.390 . S
C1394 H1385 0.930 . S
C1394 C1392 1.384 . S
C1394 C1395 1.372 . S
C1395 C1394 1.372 . S
C1395 C1396 1.400 . S
C1395 C1400 1.490 . S
C1396 H1386 0.930 . S
C1396 C1395 1.400 . S
C1396 C1399 1.386 . S
H1397 C1413 0.930 . S
H1398 C1414 0.931 . S
C1399 H1387 0.929 . S
C1399 C1393 1.390 . S
C1399 C1396 1.386 . S
C1400 C1395 1.490 . S
C1400 C1402 1.395 . S
C1400 C1403 1.403 . S
H1401 C1407 0.930 . S
C1402 H1388 0.930 . S
C1402 C1400 1.395 . S
C1402 C1405 1.403 . S
C1403 C1400 1.403 . S
C1403 C1404 1.524 . S
C1403 C1407 1.400 . S
C1404 H1389 0.960 . S
C1404 H1390 0.960 . S
C1404 H1391 0.960 . S
C1404 C1403 1.524 . S
C1405 C1402 1.403 . S
C1405 C1406 1.392 . S
C1405 C1409 1.495 . S
C1406 C1405 1.392 . S
C1406 C1407 1.385 . S
C1406 C1408 1.478 . S
C1407 H1401 0.930 . S
C1407 C1403 1.400 . S
C1407 C1406 1.385 . S
C1408 C1406 1.478 . S
C1408 C1410 1.381 . S
C1408 C1414 1.383 . S
C1409 C1405 1.495 . S
C1409 H1415 0.959 . S
C1409 H1416 0.961 . S
C1409 H1417 0.960 . S
C1410 C1408 1.381 . S
C1410 C1411 1.394 . S
C1410 H1418 0.930 . S
C1411 C1410 1.394 . S
C1411 C1412 1.383 . S
C1411 H1419 0.929 . S
C1412 C1411 1.383 . S
C1412 C1413 1.377 . S
C1413 H1397 0.930 . S
C1413 C1412 1.377 . S
C1413 C1414 1.379 . S
C1414 H1398 0.931 . S
C1414 C1408 1.383 . S
C1414 C1413 1.379 . S
H1415 C1409 0.959 . S
H1416 C1409 0.961 . S
H1417 C1409 0.960 . S
H1418 C1410 0.930 . S
H1419 C1411 0.929 . S
H1420 C1428 0.929 . S
H1421 C1430 0.930 . S
H1422 C1432 0.930 . S
H1423 C1435 0.929 . S
H1424 C1438 0.930 . S
H1425 C1440 0.960 . S
H1426 C1440 0.960 . S
H1427 C1440 0.960 . S
C1428 H1420 0.929 . S
C1428 C1429 1.377 . S
C1428 C1430 1.384 . S
C1429 C1428 1.377 . S
C1429 C1435 1.390 . S
C1430 H1421 0.930 . S
C1430 C1428 1.384 . S
C1430 C1431 1.372 . S
C1431 C1430 1.372 . S
C1431 C1432 1.400 . S
C1431 C1436 1.490 . S
C1432 H1422 0.930 . S
C1432 C1431 1.400 . S
C1432 C1435 1.386 . S
H1433 C1449 0.930 . S
H1434 C1450 0.931 . S
C1435 H1423 0.929 . S
C1435 C1429 1.390 . S
C1435 C1432 1.386 . S
C1436 C1431 1.490 . S
C1436 C1438 1.395 . S
C1436 C1439 1.403 . S
H1437 C1443 0.930 . S
C1438 H1424 0.930 . S
C1438 C1436 1.395 . S
C1438 C1441 1.403 . S
C1439 C1436 1.403 . S
C1439 C1440 1.524 . S
C1439 C1443 1.400 . S
C1440 H1425 0.960 . S
C1440 H1426 0.960 . S
C1440 H1427 0.960 . S
C1440 C1439 1.524 . S
C1441 C1438 1.403 . S
C1441 C1442 1.392 . S
C1441 C1445 1.495 . S
C1442 C1441 1.392 . S
C1442 C1443 1.385 . S
C1442 C1444 1.478 . S
C1443 H1437 0.930 . S
C1443 C1439 1.400 . S
C1443 C1442 1.385 . S
C1444 C1442 1.478 . S
C1444 C1446 1.381 . S
C1444 C1450 1.383 . S
C1445 C1441 1.495 . S
C1445 H1451 0.959 . S
C1445 H1452 0.961 . S
C1445 H1453 0.960 . S
C1446 C1444 1.381 . S
C1446 C1447 1.394 . S
C1446 H1454 0.930 . S
C1447 C1446 1.394 . S
C1447 C1448 1.383 . S
C1447 H1455 0.929 . S
C1448 C1447 1.383 . S
C1448 C1449 1.377 . S
C1449 H1433 0.930 . S
C1449 C1448 1.377 . S
C1449 C1450 1.379 . S
C1450 H1434 0.931 . S
C1450 C1444 1.383 . S
C1450 C1449 1.379 . S
H1451 C1445 0.959 . S
H1452 C1445 0.961 . S
H1453 C1445 0.960 . S
H1454 C1446 0.930 . S
H1455 C1447 0.929 . S
H1456 C1464 0.929 . S
H1457 C1466 0.930 . S
H1458 C1468 0.930 . S
H1459 C1471 0.929 . S
H1460 C1474 0.930 . S
H1461 C1476 0.960 . S
H1462 C1476 0.960 . S
H1463 C1476 0.960 . S
C1464 H1456 0.929 . S
C1464 C1465 1.377 . S
C1464 C1466 1.384 . S
C1465 C1464 1.377 . S
C1465 C1471 1.390 . S
C1466 H1457 0.930 . S
C1466 C1464 1.384 . S
C1466 C1467 1.372 . S
C1467 C1466 1.372 . S
C1467 C1468 1.400 . S
C1467 C1472 1.490 . S
C1468 H1458 0.930 . S
C1468 C1467 1.400 . S
C1468 C1471 1.386 . S
H1469 C1485 0.930 . S
H1470 C1486 0.931 . S
C1471 H1459 0.929 . S
C1471 C1465 1.390 . S
C1471 C1468 1.386 . S
C1472 C1467 1.490 . S
C1472 C1474 1.395 . S
C1472 C1475 1.403 . S
H1473 C1479 0.930 . S
C1474 H1460 0.930 . S
C1474 C1472 1.395 . S
C1474 C1477 1.403 . S
C1475 C1472 1.403 . S
C1475 C1476 1.524 . S
C1475 C1479 1.400 . S
C1476 H1461 0.960 . S
C1476 H1462 0.960 . S
C1476 H1463 0.960 . S
C1476 C1475 1.524 . S
C1477 C1474 1.403 . S
C1477 C1478 1.392 . S
C1477 C1481 1.495 . S
C1478 C1477 1.392 . S
C1478 C1479 1.385 . S
C1478 C1480 1.478 . S
C1479 H1473 0.930 . S
C1479 C1475 1.400 . S
C1479 C1478 1.385 . S
C1480 C1478 1.478 . S
C1480 C1482 1.381 . S
C1480 C1486 1.383 . S
C1481 C1477 1.495 . S
C1481 H1487 0.959 . S
C1481 H1488 0.961 . S
C1481 H1489 0.960 . S
C1482 C1480 1.381 . S
C1482 C1483 1.394 . S
C1482 H1490 0.930 . S
C1483 C1482 1.394 . S
C1483 C1484 1.383 . S
C1483 H1491 0.929 . S
C1484 C1483 1.383 . S
C1484 C1485 1.377 . S
C1485 H1469 0.930 . S
C1485 C1484 1.377 . S
C1485 C1486 1.379 . S
C1486 H1470 0.931 . S
C1486 C1480 1.383 . S
C1486 C1485 1.379 . S
H1487 C1481 0.959 . S
H1488 C1481 0.961 . S
H1489 C1481 0.960 . S
H1490 C1482 0.930 . S
H1491 C1483 0.929 . S
H1492 C1500 0.929 . S
H1493 C1502 0.930 . S
H1494 C1504 0.930 . S
H1495 C1507 0.929 . S
H1496 C1510 0.930 . S
H1497 C1512 0.960 . S
H1498 C1512 0.960 . S
H1499 C1512 0.960 . S
C1500 H1492 0.929 . S
C1500 C1501 1.377 . S
C1500 C1502 1.384 . S
C1501 C1500 1.377 . S
C1501 C1507 1.390 . S
C1502 H1493 0.930 . S
C1502 C1500 1.384 . S
C1502 C1503 1.372 . S
C1503 C1502 1.372 . S
C1503 C1504 1.400 . S
C1503 C1508 1.490 . S
C1504 H1494 0.930 . S
C1504 C1503 1.400 . S
C1504 C1507 1.386 . S
H1505 C1521 0.930 . S
H1506 C1522 0.931 . S
C1507 H1495 0.929 . S
C1507 C1501 1.390 . S
C1507 C1504 1.386 . S
C1508 C1503 1.490 . S
C1508 C1510 1.395 . S
C1508 C1511 1.403 . S
H1509 C1515 0.930 . S
C1510 H1496 0.930 . S
C1510 C1508 1.395 . S
C1510 C1513 1.403 . S
C1511 C1508 1.403 . S
C1511 C1512 1.524 . S
C1511 C1515 1.400 . S
C1512 H1497 0.960 . S
C1512 H1498 0.960 . S
C1512 H1499 0.960 . S
C1512 C1511 1.524 . S
C1513 C1510 1.403 . S
C1513 C1514 1.392 . S
C1513 C1517 1.495 . S
C1514 C1513 1.392 . S
C1514 C1515 1.385 . S
C1514 C1516 1.478 . S
C1515 H1509 0.930 . S
C1515 C1511 1.400 . S
C1515 C1514 1.385 . S
C1516 C1514 1.478 . S
C1516 C1518 1.381 . S
C1516 C1522 1.383 . S
C1517 C1513 1.495 . S
C1517 H1523 0.959 . S
C1517 H1524 0.961 . S
C1517 H1525 0.960 . S
C1518 C1516 1.381 . S
C1518 C1519 1.394 . S
C1518 H1526 0.930 . S
C1519 C1518 1.394 . S
C1519 C1520 1.383 . S
C1519 H1527 0.929 . S
C1520 C1519 1.383 . S
C1520 C1521 1.377 . S
C1521 H1505 0.930 . S
C1521 C1520 1.377 . S
C1521 C1522 1.379 . S
C1522 H1506 0.931 . S
C1522 C1516 1.383 . S
C1522 C1521 1.379 . S
H1523 C1517 0.959 . S
H1524 C1517 0.961 . S
H1525 C1517 0.960 . S
H1526 C1518 0.930 . S
H1527 C1519 0.929 . S
H1528 C1536 0.929 . S
H1529 C1538 0.930 . S
H1530 C1540 0.930 . S
H1531 C1543 0.929 1_565 S
H1532 C1546 0.930 . S
H1533 C1548 0.960 . S
H1534 C1548 0.960 . S
H1535 C1548 0.960 . S
C1536 H1528 0.929 . S
C1536 C1537 1.377 . S
C1536 C1538 1.384 . S
C1537 C1536 1.377 . S
C1537 C1543 1.390 . S
C1538 H1529 0.930 . S
C1538 C1536 1.384 . S
C1538 C1539 1.372 . S
C1539 C1538 1.372 . S
C1539 C1540 1.400 . S
C1539 C1544 1.490 . S
C1540 H1530 0.930 . S
C1540 C1539 1.400 . S
C1540 C1543 1.386 . S
H1541 C1557 0.930 . S
H1542 C1558 0.931 . S
C1543 H1531 0.929 1_545 S
C1543 C1537 1.390 . S
C1543 C1540 1.386 . S
C1544 C1539 1.490 . S
C1544 C1546 1.395 . S
C1544 C1547 1.403 . S
H1545 C1551 0.930 . S
C1546 H1532 0.930 . S
C1546 C1544 1.395 . S
C1546 C1549 1.403 . S
C1547 C1544 1.403 . S
C1547 C1548 1.524 . S
C1547 C1551 1.400 . S
C1548 H1533 0.960 . S
C1548 H1534 0.960 . S
C1548 H1535 0.960 . S
C1548 C1547 1.524 . S
C1549 C1546 1.403 . S
C1549 C1550 1.392 . S
C1549 C1553 1.495 . S
C1550 C1549 1.392 . S
C1550 C1551 1.385 . S
C1550 C1552 1.478 . S
C1551 H1545 0.930 . S
C1551 C1547 1.400 . S
C1551 C1550 1.385 . S
C1552 C1550 1.478 . S
C1552 C1554 1.381 . S
C1552 C1558 1.383 . S
C1553 C1549 1.495 . S
C1553 H1559 0.959 . S
C1553 H1560 0.961 . S
C1553 H1561 0.960 . S
C1554 C1552 1.381 . S
C1554 C1555 1.394 . S
C1554 H1562 0.930 . S
C1555 C1554 1.394 . S
C1555 C1556 1.383 . S
C1555 H1563 0.929 . S
C1556 C1555 1.383 . S
C1556 C1557 1.377 . S
C1557 H1541 0.930 . S
C1557 C1556 1.377 . S
C1557 C1558 1.379 . S
C1558 H1542 0.931 . S
C1558 C1552 1.383 . S
C1558 C1557 1.379 . S
H1559 C1553 0.959 . S
H1560 C1553 0.961 . S
H1561 C1553 0.960 . S
H1562 C1554 0.930 . S
H1563 C1555 0.929 . S
H1564 C1572 0.929 . S
H1565 C1574 0.930 . S
H1566 C1576 0.930 . S
H1567 C1579 0.929 . S
H1568 C1582 0.930 . S
H1569 C1584 0.960 . S
H1570 C1584 0.960 . S
H1571 C1584 0.960 . S
C1572 H1564 0.929 . S
C1572 C1573 1.377 . S
C1572 C1574 1.384 . S
C1573 C1572 1.377 . S
C1573 C1579 1.390 . S
C1574 H1565 0.930 . S
C1574 C1572 1.384 . S
C1574 C1575 1.372 . S
C1575 C1574 1.372 . S
C1575 C1576 1.400 . S
C1575 C1580 1.490 . S
C1576 H1566 0.930 . S
C1576 C1575 1.400 . S
C1576 C1579 1.386 . S
H1577 C1593 0.930 . S
H1578 C1594 0.931 . S
C1579 H1567 0.929 . S
C1579 C1573 1.390 . S
C1579 C1576 1.386 . S
C1580 C1575 1.490 . S
C1580 C1582 1.395 . S
C1580 C1583 1.403 . S
H1581 C1587 0.930 . S
C1582 H1568 0.930 . S
C1582 C1580 1.395 . S
C1582 C1585 1.403 . S
C1583 C1580 1.403 . S
C1583 C1584 1.524 . S
C1583 C1587 1.400 . S
C1584 H1569 0.960 . S
C1584 H1570 0.960 . S
C1584 H1571 0.960 . S
C1584 C1583 1.524 . S
C1585 C1582 1.403 . S
C1585 C1586 1.392 . S
C1585 C1589 1.495 . S
C1586 C1585 1.392 . S
C1586 C1587 1.385 . S
C1586 C1588 1.478 . S
C1587 H1581 0.930 . S
C1587 C1583 1.400 . S
C1587 C1586 1.385 . S
C1588 C1586 1.478 . S
C1588 C1590 1.381 . S
C1588 C1594 1.383 . S
C1589 C1585 1.495 . S
C1589 H1595 0.959 . S
C1589 H1596 0.961 . S
C1589 H1597 0.960 . S
C1590 C1588 1.381 . S
C1590 C1591 1.394 . S
C1590 H1598 0.930 . S
C1591 C1590 1.394 . S
C1591 C1592 1.383 . S
C1591 H1599 0.929 . S
C1592 C1591 1.383 . S
C1592 C1593 1.377 . S
C1593 H1577 0.930 . S
C1593 C1592 1.377 . S
C1593 C1594 1.379 . S
C1594 H1578 0.931 . S
C1594 C1588 1.383 . S
C1594 C1593 1.379 . S
H1595 C1589 0.959 . S
H1596 C1589 0.961 . S
H1597 C1589 0.960 . S
H1598 C1590 0.930 . S
H1599 C1591 0.929 . S
H1600 C1608 0.929 . S
H1601 C1610 0.930 . S
H1602 C1612 0.930 . S
H1603 C1615 0.929 . S
H1604 C1618 0.930 . S
H1605 C1620 0.960 . S
H1606 C1620 0.960 . S
H1607 C1620 0.960 . S
C1608 H1600 0.929 . S
C1608 C1609 1.377 . S
C1608 C1610 1.384 . S
C1609 C1608 1.377 . S
C1609 C1615 1.390 1_565 S
C1610 H1601 0.930 . S
C1610 C1608 1.384 . S
C1610 C1611 1.372 . S
C1611 C1610 1.372 . S
C1611 C1612 1.400 1_565 S
C1611 C1616 1.491 . S
C1612 H1602 0.930 . S
C1612 C1611 1.400 1_545 S
C1612 C1615 1.386 . S
H1613 C1629 0.930 . S
H1614 C1630 0.931 . S
C1615 H1603 0.929 . S
C1615 C1609 1.390 1_545 S
C1615 C1612 1.386 . S
C1616 C1611 1.491 . S
C1616 C1618 1.380 1_565 S
C1616 C1619 1.417 . S
H1617 C1623 0.930 . S
C1618 H1604 0.930 . S
C1618 C1616 1.380 1_545 S
C1618 C1621 1.403 1_554 S
C1619 C1616 1.417 . S
C1619 C1620 1.524 . S
C1619 C1623 1.400 1_554 S
C1620 H1605 0.960 . S
C1620 H1606 0.960 . S
C1620 H1607 0.960 . S
C1620 C1619 1.524 . S
C1621 C1618 1.403 1_556 S
C1621 C1622 1.392 . S
C1621 C1625 1.495 . S
C1622 C1621 1.392 . S
C1622 C1623 1.385 1_545 S
C1622 C1624 1.478 . S
C1623 H1617 0.930 . S
C1623 C1619 1.400 1_556 S
C1623 C1622 1.385 1_565 S
C1624 C1622 1.478 . S
C1624 C1626 1.381 1_545 S
C1624 C1630 1.383 . S
C1625 C1621 1.495 . S
C1625 H1631 0.959 . S
C1625 H1632 0.961 . S
C1625 H1633 0.960 . S
C1626 C1624 1.381 1_565 S
C1626 C1627 1.394 . S
C1626 H1634 0.930 . S
C1627 C1626 1.394 . S
C1627 C1628 1.383 1_565 S
C1627 H1635 0.929 . S
C1628 C1627 1.383 1_545 S
C1628 C1629 1.377 . S
C1629 H1613 0.930 . S
C1629 C1628 1.377 . S
C1629 C1630 1.379 . S
C1630 H1614 0.931 . S
C1630 C1624 1.383 . S
C1630 C1629 1.379 . S
H1631 C1625 0.959 . S
H1632 C1625 0.961 . S
H1633 C1625 0.960 . S
H1634 C1626 0.930 . S
H1635 C1627 0.929 . S
H1636 C1644 0.929 . S
H1637 C1646 0.930 . S
H1638 C1648 0.930 . S
H1639 C1651 0.929 . S
H1640 C1654 0.930 . S
H1641 C1656 0.960 . S
H1642 C1656 0.960 . S
H1643 C1656 0.960 . S
C1644 H1636 0.929 . S
C1644 C1645 1.377 . S
C1644 C1646 1.384 . S
C1645 C1644 1.377 . S
C1645 C1651 1.390 . S
C1646 H1637 0.930 . S
C1646 C1644 1.384 . S
C1646 C1647 1.372 . S
C1647 C1646 1.372 . S
C1647 C1648 1.400 . S
C1647 C1652 1.490 . S
C1648 H1638 0.930 . S
C1648 C1647 1.400 . S
C1648 C1651 1.386 . S
H1649 C1665 0.930 . S
H1650 C1666 0.931 . S
C1651 H1639 0.929 . S
C1651 C1645 1.390 . S
C1651 C1648 1.386 . S
C1652 C1647 1.490 . S
C1652 C1654 1.395 . S
C1652 C1655 1.403 . S
H1653 C1659 0.930 . S
C1654 H1640 0.930 . S
C1654 C1652 1.395 . S
C1654 C1657 1.403 1_554 S
C1655 C1652 1.403 . S
C1655 C1656 1.524 . S
C1655 C1659 1.400 1_554 S
C1656 H1641 0.960 . S
C1656 H1642 0.960 . S
C1656 H1643 0.960 . S
C1656 C1655 1.524 . S
C1657 C1654 1.403 1_556 S
C1657 C1658 1.392 . S
C1657 C1661 1.495 . S
C1658 C1657 1.392 . S
C1658 C1659 1.385 . S
C1658 C1660 1.478 . S
C1659 H1653 0.930 . S
C1659 C1655 1.400 1_556 S
C1659 C1658 1.385 . S
C1660 C1658 1.478 . S
C1660 C1662 1.381 . S
C1660 C1666 1.383 . S
C1661 C1657 1.495 . S
C1661 H1667 0.959 . S
C1661 H1668 0.961 . S
C1661 H1669 0.960 . S
C1662 C1660 1.381 . S
C1662 C1663 1.394 . S
C1662 H1670 0.930 . S
C1663 C1662 1.394 . S
C1663 C1664 1.383 . S
C1663 H1671 0.929 . S
C1664 C1663 1.383 . S
C1664 C1665 1.377 . S
C1665 H1649 0.930 . S
C1665 C1664 1.377 . S
C1665 C1666 1.379 . S
C1666 H1650 0.931 . S
C1666 C1660 1.383 . S
C1666 C1665 1.379 . S
H1667 C1661 0.959 . S
H1668 C1661 0.961 . S
H1669 C1661 0.960 . S
H1670 C1662 0.930 . S
H1671 C1663 0.929 . S
H1672 C1680 0.929 . S
H1673 C1682 0.930 . S
H1674 C1684 0.930 . S
H1675 C1687 0.929 . S
H1676 C1690 0.930 . S
H1677 C1692 0.960 . S
H1678 C1692 0.960 . S
H1679 C1692 0.960 . S
C1680 H1672 0.929 . S
C1680 C1681 1.377 . S
C1680 C1682 1.384 . S
C1681 C1680 1.377 . S
C1681 C1687 1.390 . S
C1682 H1673 0.930 . S
C1682 C1680 1.384 . S
C1682 C1683 1.372 . S
C1683 C1682 1.372 . S
C1683 C1684 1.400 . S
C1683 C1688 1.490 . S
C1684 H1674 0.930 . S
C1684 C1683 1.400 . S
C1684 C1687 1.386 . S
H1685 C1701 0.930 . S
H1686 C1702 0.931 . S
C1687 H1675 0.929 . S
C1687 C1681 1.390 . S
C1687 C1684 1.386 . S
C1688 C1683 1.490 . S
C1688 C1690 1.395 . S
C1688 C1691 1.403 . S
H1689 C1695 0.930 . S
C1690 H1676 0.930 . S
C1690 C1688 1.395 . S
C1690 C1693 1.403 . S
C1691 C1688 1.403 . S
C1691 C1692 1.524 . S
C1691 C1695 1.400 . S
C1692 H1677 0.960 . S
C1692 H1678 0.960 . S
C1692 H1679 0.960 . S
C1692 C1691 1.524 . S
C1693 C1690 1.403 . S
C1693 C1694 1.392 . S
C1693 C1697 1.495 . S
C1694 C1693 1.392 . S
C1694 C1695 1.385 . S
C1694 C1696 1.478 . S
C1695 H1689 0.930 . S
C1695 C1691 1.400 . S
C1695 C1694 1.385 . S
C1696 C1694 1.478 . S
C1696 C1698 1.381 . S
C1696 C1702 1.383 . S
C1697 C1693 1.495 . S
C1697 H1703 0.959 . S
C1697 H1704 0.961 . S
C1697 H1705 0.960 . S
C1698 C1696 1.381 . S
C1698 C1699 1.394 . S
C1698 H1706 0.930 . S
C1699 C1698 1.394 . S
C1699 C1700 1.383 . S
C1699 H1707 0.929 . S
C1700 C1699 1.383 . S
C1700 C1701 1.377 . S
C1701 H1685 0.930 . S
C1701 C1700 1.377 . S
C1701 C1702 1.379 . S
C1702 H1686 0.931 . S
C1702 C1696 1.383 . S
C1702 C1701 1.379 . S
H1703 C1697 0.959 . S
H1704 C1697 0.961 . S
H1705 C1697 0.960 . S
H1706 C1698 0.930 . S
H1707 C1699 0.929 . S
H1708 C1716 0.929 . S
H1709 C1718 0.930 . S
H1710 C1720 0.930 . S
H1711 C1723 0.929 . S
H1712 C1726 0.930 . S
H1713 C1728 0.960 . S
H1714 C1728 0.960 . S
H1715 C1728 0.960 . S
C1716 H1708 0.929 . S
C1716 C1717 1.377 . S
C1716 C1718 1.384 . S
C1717 C1716 1.377 . S
C1717 C1723 1.390 1_565 S
C1718 H1709 0.930 . S
C1718 C1716 1.384 . S
C1718 C1719 1.372 . S
C1719 C1718 1.372 . S
C1719 C1720 1.400 1_565 S
C1719 C1724 1.490 . S
C1720 H1710 0.930 . S
C1720 C1719 1.400 1_545 S
C1720 C1723 1.386 . S
H1721 C1737 0.930 . S
H1722 C1738 0.931 . S
C1723 H1711 0.929 . S
C1723 C1717 1.390 1_545 S
C1723 C1720 1.386 . S
C1724 C1719 1.490 . S
C1724 C1726 1.395 . S
C1724 C1727 1.403 1_565 S
H1725 C1731 0.930 . S
C1726 H1712 0.930 . S
C1726 C1724 1.395 . S
C1726 C1729 1.403 . S
C1727 C1724 1.403 1_545 S
C1727 C1728 1.524 . S
C1727 C1731 1.400 . S
C1728 H1713 0.960 . S
C1728 H1714 0.960 . S
C1728 H1715 0.960 . S
C1728 C1727 1.524 . S
C1729 C1726 1.403 . S
C1729 C1730 1.392 . S
C1729 C1733 1.495 . S
C1730 C1729 1.392 . S
C1730 C1731 1.385 1_565 S
C1730 C1732 1.478 . S
C1731 H1725 0.930 . S
C1731 C1727 1.400 . S
C1731 C1730 1.385 1_545 S
C1732 C1730 1.478 . S
C1732 C1734 1.381 . S
C1732 C1738 1.383 1_565 S
C1733 C1729 1.495 . S
C1733 H1739 0.959 . S
C1733 H1740 0.961 . S
C1733 H1741 0.960 . S
C1734 C1732 1.381 . S
C1734 C1735 1.394 . S
C1734 H1742 0.930 . S
C1735 C1734 1.394 . S
C1735 C1736 1.383 1_565 S
C1735 H1743 0.929 . S
C1736 C1735 1.383 1_545 S
C1736 C1737 1.377 . S
C1737 H1721 0.930 . S
C1737 C1736 1.377 . S
C1737 C1738 1.379 . S
C1738 H1722 0.931 . S
C1738 C1732 1.383 1_545 S
C1738 C1737 1.379 . S
H1739 C1733 0.959 . S
H1740 C1733 0.961 . S
H1741 C1733 0.960 . S
H1742 C1734 0.930 . S
H1743 C1735 0.929 . S
H1744 C1752 0.929 . S
H1745 C1754 0.930 . S
H1746 C1756 0.930 . S
H1747 C1759 0.929 . S
H1748 C1762 0.930 . S
H1749 C1764 0.960 . S
H1750 C1764 0.960 . S
H1751 C1764 0.960 . S
C1752 H1744 0.929 . S
C1752 C1753 1.377 . S
C1752 C1754 1.384 . S
C1753 C1752 1.377 . S
C1753 C1759 1.390 . S
C1754 H1745 0.930 . S
C1754 C1752 1.384 . S
C1754 C1755 1.372 . S
C1755 C1754 1.372 . S
C1755 C1756 1.400 . S
C1755 C1760 1.490 . S
C1756 H1746 0.930 . S
C1756 C1755 1.400 . S
C1756 C1759 1.386 . S
H1757 C1773 0.930 . S
H1758 C1774 0.931 . S
C1759 H1747 0.929 . S
C1759 C1753 1.390 . S
C1759 C1756 1.386 . S
C1760 C1755 1.490 . S
C1760 C1762 1.395 . S
C1760 C1763 1.403 . S
H1761 C1767 0.930 . S
C1762 H1748 0.930 . S
C1762 C1760 1.395 . S
C1762 C1765 1.403 1_556 S
C1763 C1760 1.403 . S
C1763 C1764 1.524 . S
C1763 C1767 1.400 1_556 S
C1764 H1749 0.960 . S
C1764 H1750 0.960 . S
C1764 H1751 0.960 . S
C1764 C1763 1.524 . S
C1765 C1762 1.403 1_554 S
C1765 C1766 1.392 . S
C1765 C1769 1.495 . S
C1766 C1765 1.392 . S
C1766 C1767 1.385 . S
C1766 C1768 1.478 . S
C1767 H1761 0.930 . S
C1767 C1763 1.400 1_554 S
C1767 C1766 1.385 . S
C1768 C1766 1.478 . S
C1768 C1770 1.381 . S
C1768 C1774 1.383 . S
C1769 C1765 1.495 . S
C1769 H1775 0.959 . S
C1769 H1776 0.961 . S
C1769 H1777 0.960 . S
C1770 C1768 1.381 . S
C1770 C1771 1.394 . S
C1770 H1778 0.930 . S
C1771 C1770 1.394 . S
C1771 C1772 1.383 . S
C1771 H1779 0.929 . S
C1772 C1771 1.383 . S
C1772 C1773 1.377 . S
C1773 H1757 0.930 . S
C1773 C1772 1.377 . S
C1773 C1774 1.379 . S
C1774 H1758 0.931 . S
C1774 C1768 1.383 . S
C1774 C1773 1.379 . S
H1775 C1769 0.959 . S
H1776 C1769 0.961 . S
H1777 C1769 0.960 . S
H1778 C1770 0.930 . S
H1779 C1771 0.929 . S
H1780 C1788 0.929 . S
H1781 C1790 0.930 . S
H1782 C1792 0.930 . S
H1783 C1795 0.929 . S
H1784 C1798 0.930 . S
H1785 C1800 0.960 . S
H1786 C1800 0.960 . S
H1787 C1800 0.960 . S
C1788 H1780 0.929 . S
C1788 C1789 1.377 . S
C1788 C1790 1.384 . S
C1789 C1788 1.377 . S
C1789 C1795 1.390 . S
C1790 H1781 0.930 . S
C1790 C1788 1.384 . S
C1790 C1791 1.372 . S
C1791 C1790 1.372 . S
C1791 C1792 1.400 . S
C1791 C1796 1.490 . S
C1792 H1782 0.930 . S
C1792 C1791 1.400 . S
C1792 C1795 1.386 . S
H1793 C1809 0.930 . S
H1794 C1810 0.931 . S
C1795 H1783 0.929 . S
C1795 C1789 1.390 . S
C1795 C1792 1.386 . S
C1796 C1791 1.490 . S
C1796 C1798 1.395 . S
C1796 C1799 1.403 . S
H1797 C1803 0.930 . S
C1798 H1784 0.930 . S
C1798 C1796 1.395 . S
C1798 C1801 1.403 . S
C1799 C1796 1.403 . S
C1799 C1800 1.524 . S
C1799 C1803 1.400 . S
C1800 H1785 0.960 . S
C1800 H1786 0.960 . S
C1800 H1787 0.960 . S
C1800 C1799 1.524 . S
C1801 C1798 1.403 . S
C1801 C1802 1.392 . S
C1801 C1805 1.495 . S
C1802 C1801 1.392 . S
C1802 C1803 1.385 . S
C1802 C1804 1.478 . S
C1803 H1797 0.930 . S
C1803 C1799 1.400 . S
C1803 C1802 1.385 . S
C1804 C1802 1.478 . S
C1804 C1806 1.381 . S
C1804 C1810 1.383 . S
C1805 C1801 1.495 . S
C1805 H1811 0.959 . S
C1805 H1812 0.961 . S
C1805 H1813 0.960 . S
C1806 C1804 1.381 . S
C1806 C1807 1.394 . S
C1806 H1814 0.930 . S
C1807 C1806 1.394 . S
C1807 C1808 1.383 . S
C1807 H1815 0.929 . S
C1808 C1807 1.383 . S
C1808 C1809 1.377 . S
C1809 H1793 0.930 . S
C1809 C1808 1.377 . S
C1809 C1810 1.379 . S
C1810 H1794 0.931 . S
C1810 C1804 1.383 . S
C1810 C1809 1.379 . S
H1811 C1805 0.959 . S
H1812 C1805 0.961 . S
H1813 C1805 0.960 . S
H1814 C1806 0.930 . S
H1815 C1807 0.929 . S
H1816 C1824 0.929 . S
H1817 C1826 0.931 . S
H1818 C1828 0.930 . S
H1819 C1831 0.929 . S
H1820 C1834 0.930 . S
H1821 C1836 0.960 . S
H1822 C1836 0.960 . S
H1823 C1836 0.960 . S
C1824 H1816 0.929 . S
C1824 C1825 1.377 . S
C1824 C1826 1.384 . S
C1825 C1824 1.377 . S
C1825 C1831 1.390 . S
C1826 H1817 0.931 . S
C1826 C1824 1.384 . S
C1826 C1827 1.372 . S
C1827 C1826 1.372 . S
C1827 C1828 1.400 . S
C1827 C1832 1.490 . S
C1828 H1818 0.930 . S
C1828 C1827 1.400 . S
C1828 C1831 1.386 . S
H1829 C1845 0.930 . S
H1830 C1846 0.931 . S
C1831 H1819 0.929 . S
C1831 C1825 1.390 . S
C1831 C1828 1.386 . S
C1832 C1827 1.490 . S
C1832 C1834 1.395 . S
C1832 C1835 1.403 1_565 S
H1833 C1839 0.930 . S
C1834 H1820 0.930 . S
C1834 C1832 1.395 . S
C1834 C1837 1.403 . S
C1835 C1832 1.403 1_545 S
C1835 C1836 1.524 . S
C1835 C1839 1.400 . S
C1836 H1821 0.960 . S
C1836 H1822 0.960 . S
C1836 H1823 0.960 . S
C1836 C1835 1.524 . S
C1837 C1834 1.403 . S
C1837 C1838 1.392 . S
C1837 C1841 1.495 . S
C1838 C1837 1.392 . S
C1838 C1839 1.385 1_565 S
C1838 C1840 1.478 . S
C1839 H1833 0.930 . S
C1839 C1835 1.400 . S
C1839 C1838 1.385 1_545 S
C1840 C1838 1.478 . S
C1840 C1842 1.381 1_565 S
C1840 C1846 1.383 . S
C1841 C1837 1.495 . S
C1841 H1847 0.959 . S
C1841 H1848 0.961 . S
C1841 H1849 0.960 . S
C1842 C1840 1.381 1_545 S
C1842 C1843 1.394 . S
C1842 H1850 0.930 . S
C1843 C1842 1.394 . S
C1843 C1844 1.385 . S
C1843 H1851 0.929 . S
C1844 C1843 1.385 . S
C1844 C1845 1.373 1_545 S
C1845 H1829 0.930 . S
C1845 C1844 1.373 1_565 S
C1845 C1846 1.379 . S
C1846 H1830 0.931 . S
C1846 C1840 1.383 . S
C1846 C1845 1.379 . S
H1847 C1841 0.959 . S
H1848 C1841 0.961 . S
H1849 C1841 0.960 . S
H1850 C1842 0.930 . S
H1851 C1843 0.929 . S
H1852 C1860 0.929 . S
H1853 C1862 0.930 . S
H1854 C1864 0.930 . S
H1855 C1867 0.929 . S
H1856 C1870 0.930 . S
H1857 C1872 0.960 . S
H1858 C1872 0.960 . S
H1859 C1872 0.960 . S
C1860 H1852 0.929 . S
C1860 C1861 1.377 . S
C1860 C1862 1.384 . S
C1861 C1860 1.377 . S
C1861 C1867 1.390 . S
C1862 H1853 0.930 . S
C1862 C1860 1.384 . S
C1862 C1863 1.372 . S
C1863 C1862 1.372 . S
C1863 C1864 1.400 . S
C1863 C1868 1.490 . S
C1864 H1854 0.930 . S
C1864 C1863 1.400 . S
C1864 C1867 1.386 . S
H1865 C1881 0.930 . S
H1866 C1882 0.931 . S
C1867 H1855 0.929 . S
C1867 C1861 1.390 . S
C1867 C1864 1.386 . S
C1868 C1863 1.490 . S
C1868 C1870 1.395 . S
C1868 C1871 1.403 . S
H1869 C1875 0.930 . S
C1870 H1856 0.930 . S
C1870 C1868 1.395 . S
C1870 C1873 1.403 . S
C1871 C1868 1.403 . S
C1871 C1872 1.524 . S
C1871 C1875 1.400 . S
C1872 H1857 0.960 . S
C1872 H1858 0.960 . S
C1872 H1859 0.960 . S
C1872 C1871 1.524 . S
C1873 C1870 1.403 . S
C1873 C1874 1.392 . S
C1873 C1877 1.495 . S
C1874 C1873 1.392 . S
C1874 C1875 1.385 . S
C1874 C1876 1.478 . S
C1875 H1869 0.930 . S
C1875 C1871 1.400 . S
C1875 C1874 1.385 . S
C1876 C1874 1.478 . S
C1876 C1878 1.381 . S
C1876 C1882 1.383 . S
C1877 C1873 1.495 . S
C1877 H1883 0.959 . S
C1877 H1884 0.961 . S
C1877 H1885 0.960 . S
C1878 C1876 1.381 . S
C1878 C1879 1.394 . S
C1878 H1886 0.930 . S
C1879 C1878 1.394 . S
C1879 C1880 1.383 . S
C1879 H1887 0.929 . S
C1880 C1879 1.383 . S
C1880 C1881 1.377 . S
C1881 H1865 0.930 . S
C1881 C1880 1.377 . S
C1881 C1882 1.379 . S
C1882 H1866 0.931 . S
C1882 C1876 1.383 . S
C1882 C1881 1.379 . S
H1883 C1877 0.959 . S
H1884 C1877 0.961 . S
H1885 C1877 0.960 . S
H1886 C1878 0.930 . S
H1887 C1879 0.929 . S
H1888 C1896 0.929 . S
H1889 C1898 0.930 . S
H1890 C1900 0.930 . S
H1891 C1903 0.929 . S
H1892 C1906 0.930 . S
H1893 C1908 0.960 . S
H1894 C1908 0.960 . S
H1895 C1908 0.960 . S
C1896 H1888 0.929 . S
C1896 C1897 1.377 . S
C1896 C1898 1.384 . S
C1897 C1896 1.377 . S
C1897 C1903 1.390 . S
C1898 H1889 0.930 . S
C1898 C1896 1.384 . S
C1898 C1899 1.372 . S
C1899 C1898 1.372 . S
C1899 C1900 1.400 . S
C1899 C1904 1.490 . S
C1900 H1890 0.930 . S
C1900 C1899 1.400 . S
C1900 C1903 1.386 . S
H1901 C1917 0.930 . S
H1902 C1918 0.931 . S
C1903 H1891 0.929 . S
C1903 C1897 1.390 . S
C1903 C1900 1.386 . S
C1904 C1899 1.490 . S
C1904 C1906 1.395 . S
C1904 C1907 1.403 . S
H1905 C1911 0.930 . S
C1906 H1892 0.930 . S
C1906 C1904 1.395 . S
C1906 C1909 1.403 . S
C1907 C1904 1.403 . S
C1907 C1908 1.524 . S
C1907 C1911 1.400 . S
C1908 H1893 0.960 . S
C1908 H1894 0.960 . S
C1908 H1895 0.960 . S
C1908 C1907 1.524 . S
C1909 C1906 1.403 . S
C1909 C1910 1.392 . S
C1909 C1913 1.495 . S
C1910 C1909 1.392 . S
C1910 C1911 1.385 . S
C1910 C1912 1.478 . S
C1911 H1905 0.930 . S
C1911 C1907 1.400 . S
C1911 C1910 1.385 . S
C1912 C1910 1.478 . S
C1912 C1914 1.381 . S
C1912 C1918 1.383 . S
C1913 C1909 1.495 . S
C1913 H1919 0.959 . S
C1913 H1920 0.961 . S
C1913 H1921 0.960 . S
C1914 C1912 1.381 . S
C1914 C1915 1.394 . S
C1914 H1922 0.930 . S
C1915 C1914 1.394 . S
C1915 C1916 1.383 . S
C1915 H1923 0.929 . S
C1916 C1915 1.383 . S
C1916 C1917 1.377 . S
C1917 H1901 0.930 . S
C1917 C1916 1.377 . S
C1917 C1918 1.379 . S
C1918 H1902 0.931 . S
C1918 C1912 1.383 . S
C1918 C1917 1.379 . S
H1919 C1913 0.959 . S
H1920 C1913 0.961 . S
H1921 C1913 0.960 . S
H1922 C1914 0.930 . S
H1923 C1915 0.929 . S
H1924 C1932 0.929 . S
H1925 C1934 0.930 . S
H1926 C1936 0.930 . S
H1927 C1939 0.929 . S
H1928 C1942 0.930 . S
H1929 C1944 0.960 . S
H1930 C1944 0.960 . S
H1931 C1944 0.960 . S
C1932 H1924 0.929 . S
C1932 C1933 1.377 . S
C1932 C1934 1.384 . S
C1933 C1932 1.377 . S
C1933 C1939 1.390 . S
C1934 H1925 0.930 . S
C1934 C1932 1.384 . S
C1934 C1935 1.372 . S
C1935 C1934 1.372 . S
C1935 C1936 1.400 . S
C1935 C1940 1.490 . S
C1936 H1926 0.930 . S
C1936 C1935 1.400 . S
C1936 C1939 1.386 . S
H1937 C1953 0.930 . S
H1938 C1954 0.931 . S
C1939 H1927 0.929 . S
C1939 C1933 1.390 . S
C1939 C1936 1.386 . S
C1940 C1935 1.490 . S
C1940 C1942 1.395 . S
C1940 C1943 1.403 . S
H1941 C1947 0.930 . S
C1942 H1928 0.930 . S
C1942 C1940 1.395 . S
C1942 C1945 1.403 . S
C1943 C1940 1.403 . S
C1943 C1944 1.524 . S
C1943 C1947 1.400 . S
C1944 H1929 0.960 . S
C1944 H1930 0.960 . S
C1944 H1931 0.960 . S
C1944 C1943 1.524 . S
C1945 C1942 1.403 . S
C1945 C1946 1.392 . S
C1945 C1949 1.495 . S
C1946 C1945 1.392 . S
C1946 C1947 1.385 . S
C1946 C1948 1.478 . S
C1947 H1941 0.930 . S
C1947 C1943 1.400 . S
C1947 C1946 1.385 . S
C1948 C1946 1.478 . S
C1948 C1950 1.381 . S
C1948 C1954 1.383 . S
C1949 C1945 1.495 . S
C1949 H1955 0.959 . S
C1949 H1956 0.961 . S
C1949 H1957 0.960 . S
C1950 C1948 1.381 . S
C1950 C1951 1.394 . S
C1950 H1958 0.930 . S
C1951 C1950 1.394 . S
C1951 C1952 1.383 . S
C1951 H1959 0.929 . S
C1952 C1951 1.383 . S
C1952 C1953 1.377 . S
C1953 H1937 0.930 . S
C1953 C1952 1.377 . S
C1953 C1954 1.379 . S
C1954 H1938 0.931 . S
C1954 C1948 1.383 . S
C1954 C1953 1.379 . S
H1955 C1949 0.959 . S
H1956 C1949 0.961 . S
H1957 C1949 0.960 . S
H1958 C1950 0.930 . S
H1959 C1951 0.929 . S
H1960 C1968 0.929 . S
H1961 C1970 0.930 . S
H1962 C1972 0.930 . S
H1963 C1975 0.929 . S
H1964 C1978 0.930 . S
H1965 C1980 0.960 . S
H1966 C1980 0.960 . S
H1967 C1980 0.960 . S
C1968 H1960 0.929 . S
C1968 C1969 1.377 . S
C1968 C1970 1.384 . S
C1969 C1968 1.377 . S
C1969 C1975 1.390 . S
C1970 H1961 0.930 . S
C1970 C1968 1.384 . S
C1970 C1971 1.372 . S
C1971 C1970 1.372 . S
C1971 C1972 1.400 . S
C1971 C1976 1.490 . S
C1972 H1962 0.930 . S
C1972 C1971 1.400 . S
C1972 C1975 1.386 . S
H1973 C1989 0.930 . S
H1974 C1990 0.931 . S
C1975 H1963 0.929 . S
C1975 C1969 1.390 . S
C1975 C1972 1.386 . S
C1976 C1971 1.490 . S
C1976 C1978 1.395 . S
C1976 C1979 1.403 . S
H1977 C1983 0.930 . S
C1978 H1964 0.930 . S
C1978 C1976 1.395 . S
C1978 C1981 1.403 . S
C1979 C1976 1.403 . S
C1979 C1980 1.524 . S
C1979 C1983 1.400 . S
C1980 H1965 0.960 . S
C1980 H1966 0.960 . S
C1980 H1967 0.960 . S
C1980 C1979 1.524 . S
C1981 C1978 1.403 . S
C1981 C1982 1.392 . S
C1981 C1985 1.495 . S
C1982 C1981 1.392 . S
C1982 C1983 1.385 . S
C1982 C1984 1.478 . S
C1983 H1977 0.930 . S
C1983 C1979 1.400 . S
C1983 C1982 1.385 . S
C1984 C1982 1.478 . S
C1984 C1986 1.381 . S
C1984 C1990 1.383 . S
C1985 C1981 1.495 . S
C1985 H1991 0.959 . S
C1985 H1992 0.961 . S
C1985 H1993 0.960 . S
C1986 C1984 1.381 . S
C1986 C1987 1.394 . S
C1986 H1994 0.930 . S
C1987 C1986 1.394 . S
C1987 C1988 1.383 . S
C1987 H1995 0.929 . S
C1988 C1987 1.383 . S
C1988 C1989 1.377 . S
C1989 H1973 0.930 . S
C1989 C1988 1.377 . S
C1989 C1990 1.379 . S
C1990 H1974 0.931 . S
C1990 C1984 1.383 . S
C1990 C1989 1.379 . S
H1991 C1985 0.959 . S
H1992 C1985 0.961 . S
H1993 C1985 0.960 . S
H1994 C1986 0.930 . S
H1995 C1987 0.929 . S
H1996 C2004 0.929 . S
H1997 C2006 0.930 . S
H1998 C2008 0.930 . S
H1999 C2011 0.929 . S
H2000 C2014 0.930 . S
H2001 C2016 0.960 . S
H2002 C2016 0.960 . S
H2003 C2016 0.960 . S
C2004 H1996 0.929 . S
C2004 C2005 1.377 . S
C2004 C2006 1.384 . S
C2005 C2004 1.377 . S
C2005 C2011 1.390 . S
C2006 H1997 0.930 . S
C2006 C2004 1.384 . S
C2006 C2007 1.372 . S
C2007 C2006 1.372 . S
C2007 C2008 1.400 . S
C2007 C2012 1.490 . S
C2008 H1998 0.930 . S
C2008 C2007 1.400 . S
C2008 C2011 1.386 . S
H2009 C2025 0.930 . S
H2010 C2026 0.931 . S
C2011 H1999 0.929 . S
C2011 C2005 1.390 . S
C2011 C2008 1.386 . S
C2012 C2007 1.490 . S
C2012 C2014 1.395 . S
C2012 C2015 1.403 . S
H2013 C2019 0.930 . S
C2014 H2000 0.930 . S
C2014 C2012 1.395 . S
C2014 C2017 1.403 . S
C2015 C2012 1.403 . S
C2015 C2016 1.524 . S
C2015 C2019 1.400 . S
C2016 H2001 0.960 . S
C2016 H2002 0.960 . S
C2016 H2003 0.960 . S
C2016 C2015 1.524 . S
C2017 C2014 1.403 . S
C2017 C2018 1.392 . S
C2017 C2021 1.495 . S
C2018 C2017 1.392 . S
C2018 C2019 1.385 . S
C2018 C2020 1.478 . S
C2019 H2013 0.930 . S
C2019 C2015 1.400 . S
C2019 C2018 1.385 . S
C2020 C2018 1.478 . S
C2020 C2022 1.381 . S
C2020 C2026 1.383 . S
C2021 C2017 1.495 . S
C2021 H2027 0.959 . S
C2021 H2028 0.961 . S
C2021 H2029 0.960 . S
C2022 C2020 1.381 . S
C2022 C2023 1.394 . S
C2022 H2030 0.930 . S
C2023 C2022 1.394 . S
C2023 C2024 1.383 . S
C2023 H2031 0.929 . S
C2024 C2023 1.383 . S
C2024 C2025 1.377 . S
C2025 H2009 0.930 . S
C2025 C2024 1.377 . S
C2025 C2026 1.379 . S
C2026 H2010 0.931 . S
C2026 C2020 1.383 . S
C2026 C2025 1.379 . S
H2027 C2021 0.959 . S
H2028 C2021 0.961 . S
H2029 C2021 0.960 . S
H2030 C2022 0.930 . S
H2031 C2023 0.929 . S
H2032 C2040 0.929 . S
H2033 C2042 0.930 . S
H2034 C2044 0.930 . S
H2035 C2047 0.929 . S
H2036 C2050 0.930 . S
H2037 C2052 0.960 . S
H2038 C2052 0.960 . S
H2039 C2052 0.960 . S
C2040 H2032 0.929 . S
C2040 C2041 1.346 1_665 S
C2040 C2042 1.384 . S
C2041 C2040 1.346 1_445 S
C2041 C2047 1.421 . S
C2042 H2033 0.930 . S
C2042 C2040 1.384 . S
C2042 C2043 1.380 . S
C2043 C2042 1.380 . S
C2043 C2044 1.392 1_665 S
C2043 C2048 1.490 . S
C2044 H2034 0.930 . S
C2044 C2043 1.392 1_445 S
C2044 C2047 1.386 . S
H2045 C2061 0.930 . S
H2046 C2062 0.931 . S
C2047 H2035 0.929 . S
C2047 C2041 1.421 . S
C2047 C2044 1.386 . S
C2048 C2043 1.490 . S
C2048 C2050 1.392 1_655 S
C2048 C2051 1.405 1_565 S
H2049 C2055 0.930 . S
C2050 H2036 0.930 . S
C2050 C2048 1.392 1_455 S
C2050 C2053 1.403 . S
C2051 C2048 1.405 1_545 S
C2051 C2052 1.524 . S
C2051 C2055 1.400 . S
C2052 H2037 0.960 . S
C2052 H2038 0.960 . S
C2052 H2039 0.960 . S
C2052 C2051 1.524 . S
C2053 C2050 1.403 . S
C2053 C2054 1.403 . S
C2053 C2057 1.495 . S
C2054 C2053 1.403 . S
C2054 C2055 1.374 1_465 S
C2054 C2056 1.477 . S
C2055 H2049 0.930 . S
C2055 C2051 1.400 . S
C2055 C2054 1.374 1_645 S
C2056 C2054 1.477 . S
C2056 C2058 1.348 1_455 S
C2056 C2062 1.415 1_565 S
C2057 C2053 1.495 . S
C2057 H2063 0.959 . S
C2057 H2064 0.961 . S
C2057 H2065 0.960 . S
C2058 C2056 1.348 1_655 S
C2058 C2059 1.394 . S
C2058 H2066 0.930 . S
C2059 C2058 1.394 . S
C2059 C2060 1.395 . S
C2059 H2067 0.929 . S
C2060 C2059 1.395 . S
C2060 C2061 1.364 1_665 S
C2061 H2045 0.930 . S
C2061 C2060 1.364 1_445 S
C2061 C2062 1.379 . S
C2062 H2046 0.931 . S
C2062 C2056 1.415 1_545 S
C2062 C2061 1.379 . S
H2063 C2057 0.959 . S
H2064 C2057 0.961 . S
H2065 C2057 0.960 . S
H2066 C2058 0.930 . S
H2067 C2059 0.929 . S
H2068 C2076 0.929 . S
H2069 C2078 0.930 . S
H2070 C2080 0.930 . S
H2071 C2083 0.929 . S
H2072 C2086 0.930 . S
H2073 C2088 0.960 . S
H2074 C2088 0.960 1_455 S
H2075 C2088 0.960 . S
C2076 H2068 0.929 . S
C2076 C2077 1.327 1_455 S
C2076 C2078 1.384 . S
C2077 C2076 1.327 1_655 S
C2077 C2083 1.439 . S
C2078 H2069 0.930 . S
C2078 C2076 1.384 . S
C2078 C2079 1.389 . S
C2079 C2078 1.389 . S
C2079 C2080 1.382 1_455 S
C2079 C2084 1.490 . S
C2080 H2070 0.930 . S
C2080 C2079 1.382 1_655 S
C2080 C2083 1.386 . S
H2081 C2097 0.930 . S
H2082 C2098 0.931 . S
C2083 H2071 0.929 . S
C2083 C2077 1.439 . S
C2083 C2080 1.386 . S
C2084 C2079 1.490 . S
C2084 C2086 1.406 . S
C2084 C2087 1.395 1_455 S
H2085 C2091 0.930 . S
C2086 H2072 0.930 . S
C2086 C2084 1.406 . S
C2086 C2089 1.403 . S
C2087 C2084 1.395 1_655 S
C2087 C2088 1.524 . S
C2087 C2091 1.400 . S
C2088 H2073 0.960 . S
C2088 H2074 0.960 1_655 S
C2088 H2075 0.960 . S
C2088 C2087 1.524 . S
C2089 C2086 1.403 . S
C2089 C2090 1.392 . S
C2089 C2093 1.495 . S
C2090 C2089 1.392 . S
C2090 C2091 1.385 1_455 S
C2090 C2092 1.478 . S
C2091 H2085 0.930 . S
C2091 C2087 1.400 . S
C2091 C2090 1.385 1_655 S
C2092 C2090 1.478 . S
C2092 C2094 1.381 . S
C2092 C2098 1.383 1_455 S
C2093 C2089 1.495 . S
C2093 H2099 0.959 . S
C2093 H2100 0.961 1_455 S
C2093 H2101 0.960 . S
C2094 C2092 1.381 . S
C2094 C2095 1.394 . S
C2094 H2102 0.930 . S
C2095 C2094 1.394 . S
C2095 C2096 1.383 . S
C2095 H2103 0.929 . S
C2096 C2095 1.383 . S
C2096 C2097 1.377 1_455 S
C2097 H2081 0.930 . S
C2097 C2096 1.377 1_655 S
C2097 C2098 1.379 . S
C2098 H2082 0.931 . S
C2098 C2092 1.383 1_655 S
C2098 C2097 1.379 . S
H2099 C2093 0.959 . S
H2100 C2093 0.961 1_655 S
H2101 C2093 0.960 . S
H2102 C2094 0.930 . S
H2103 C2095 0.929 . S
H2104 C2112 0.929 . S
H2105 C2114 0.930 . S
H2106 C2116 0.930 . S
H2107 C2119 0.929 . S
H2108 C2122 0.930 . S
H2109 C2124 0.960 . S
H2110 C2124 0.960 . S
H2111 C2124 0.960 . S
C2112 H2104 0.929 . S
C2112 C2113 1.377 1_455 S
C2112 C2114 1.384 . S
C2113 C2112 1.377 1_655 S
C2113 C2119 1.390 . S
C2114 H2105 0.930 . S
C2114 C2112 1.384 . S
C2114 C2115 1.387 . S
C2115 C2114 1.387 . S
C2115 C2116 1.384 1_455 S
C2115 C2120 1.491 . S
C2116 H2106 0.930 . S
C2116 C2115 1.384 1_655 S
C2116 C2119 1.386 . S
H2117 C2133 0.930 . S
H2118 C2134 0.931 . S
C2119 H2107 0.929 . S
C2119 C2113 1.390 . S
C2119 C2116 1.386 . S
C2120 C2115 1.491 . S
C2120 C2122 1.395 . S
C2120 C2123 1.403 1_455 S
H2121 C2127 0.930 . S
C2122 H2108 0.930 . S
C2122 C2120 1.395 . S
C2122 C2125 1.403 . S
C2123 C2120 1.403 1_655 S
C2123 C2124 1.524 . S
C2123 C2127 1.400 . S
C2124 H2109 0.960 . S
C2124 H2110 0.960 . S
C2124 H2111 0.960 . S
C2124 C2123 1.524 . S
C2125 C2122 1.403 . S
C2125 C2126 1.392 . S
C2125 C2129 1.495 . S
C2126 C2125 1.392 . S
C2126 C2127 1.385 1_455 S
C2126 C2128 1.478 . S
C2127 H2121 0.930 . S
C2127 C2123 1.400 . S
C2127 C2126 1.385 1_655 S
C2128 C2126 1.478 . S
C2128 C2130 1.381 . S
C2128 C2134 1.383 1_455 S
C2129 C2125 1.495 . S
C2129 H2135 0.959 . S
C2129 H2136 0.961 . S
C2129 H2137 0.960 . S
C2130 C2128 1.381 . S
C2130 C2131 1.394 . S
C2130 H2138 0.930 . S
C2131 C2130 1.394 . S
C2131 C2132 1.383 . S
C2131 H2139 0.929 . S
C2132 C2131 1.383 . S
C2132 C2133 1.377 1_455 S
C2133 H2117 0.930 . S
C2133 C2132 1.377 1_655 S
C2133 C2134 1.379 . S
C2134 H2118 0.931 . S
C2134 C2128 1.383 1_655 S
C2134 C2133 1.379 . S
H2135 C2129 0.959 . S
H2136 C2129 0.961 . S
H2137 C2129 0.960 . S
H2138 C2130 0.930 . S
H2139 C2131 0.929 . S
H2140 C2148 0.929 . S
H2141 C2150 0.930 . S
H2142 C2152 0.930 . S
H2143 C2155 0.929 . S
H2144 C2158 0.930 . S
H2145 C2160 0.960 . S
H2146 C2160 0.960 . S
H2147 C2160 0.960 . S
C2148 H2140 0.929 . S
C2148 C2149 1.377 . S
C2148 C2150 1.384 . S
C2149 C2148 1.377 . S
C2149 C2155 1.390 1_455 S
C2150 H2141 0.930 . S
C2150 C2148 1.384 . S
C2150 C2151 1.372 . S
C2151 C2150 1.372 . S
C2151 C2152 1.400 1_455 S
C2151 C2156 1.490 . S
C2152 H2142 0.930 . S
C2152 C2151 1.400 1_655 S
C2152 C2155 1.386 . S
H2153 C2169 0.930 . S
H2154 C2170 0.931 . S
C2155 H2143 0.929 . S
C2155 C2149 1.390 1_655 S
C2155 C2152 1.386 . S
C2156 C2151 1.490 . S
C2156 C2158 1.387 1_455 S
C2156 C2159 1.410 . S
H2157 C2163 0.930 . S
C2158 H2144 0.930 . S
C2158 C2156 1.387 1_655 S
C2158 C2161 1.403 1_556 S
C2159 C2156 1.410 . S
C2159 C2160 1.524 . S
C2159 C2163 1.400 1_556 S
C2160 H2145 0.960 . S
C2160 H2146 0.960 . S
C2160 H2147 0.960 . S
C2160 C2159 1.524 . S
C2161 C2158 1.403 1_554 S
C2161 C2162 1.392 . S
C2161 C2165 1.495 . S
C2162 C2161 1.392 . S
C2162 C2163 1.385 1_655 S
C2162 C2164 1.478 . S
C2163 H2157 0.930 . S
C2163 C2159 1.400 1_554 S
C2163 C2162 1.385 1_455 S
C2164 C2162 1.478 . S
C2164 C2166 1.381 1_655 S
C2164 C2170 1.383 . S
C2165 C2161 1.495 . S
C2165 H2171 0.959 . S
C2165 H2172 0.961 . S
C2165 H2173 0.960 . S
C2166 C2164 1.381 1_455 S
C2166 C2167 1.394 . S
C2166 H2174 0.930 . S
C2167 C2166 1.394 . S
C2167 C2168 1.383 1_455 S
C2167 H2175 0.929 . S
C2168 C2167 1.383 1_655 S
C2168 C2169 1.377 . S
C2169 H2153 0.930 . S
C2169 C2168 1.377 . S
C2169 C2170 1.379 . S
C2170 H2154 0.931 . S
C2170 C2164 1.383 . S
C2170 C2169 1.379 . S
H2171 C2165 0.959 . S
H2172 C2165 0.961 . S
H2173 C2165 0.960 . S
H2174 C2166 0.930 . S
H2175 C2167 0.929 . S
H2176 C2184 0.929 . S
H2177 C2186 0.930 . S
H2178 C2188 0.930 . S
H2179 C2191 0.929 . S
H2180 C2194 0.930 . S
H2181 C2196 0.960 . S
H2182 C2196 0.960 . S
H2183 C2196 0.960 . S
C2184 H2176 0.929 . S
C2184 C2185 1.377 . S
C2184 C2186 1.384 . S
C2185 C2184 1.377 . S
C2185 C2191 1.390 . S
C2186 H2177 0.930 . S
C2186 C2184 1.384 . S
C2186 C2187 1.372 . S
C2187 C2186 1.372 . S
C2187 C2188 1.400 . S
C2187 C2192 1.490 . S
C2188 H2178 0.930 . S
C2188 C2187 1.400 . S
C2188 C2191 1.386 . S
H2189 C2205 0.930 . S
H2190 C2206 0.931 . S
C2191 H2179 0.929 . S
C2191 C2185 1.390 . S
C2191 C2188 1.386 . S
C2192 C2187 1.490 . S
C2192 C2194 1.395 . S
C2192 C2195 1.403 . S
H2193 C2199 0.930 . S
C2194 H2180 0.930 . S
C2194 C2192 1.395 . S
C2194 C2197 1.403 . S
C2195 C2192 1.403 . S
C2195 C2196 1.524 . S
C2195 C2199 1.400 . S
C2196 H2181 0.960 . S
C2196 H2182 0.960 . S
C2196 H2183 0.960 . S
C2196 C2195 1.524 . S
C2197 C2194 1.403 . S
C2197 C2198 1.392 . S
C2197 C2201 1.495 . S
C2198 C2197 1.392 . S
C2198 C2199 1.385 . S
C2198 C2200 1.478 . S
C2199 H2193 0.930 . S
C2199 C2195 1.400 . S
C2199 C2198 1.385 . S
C2200 C2198 1.478 . S
C2200 C2202 1.381 . S
C2200 C2206 1.383 . S
C2201 C2197 1.495 . S
C2201 H2207 0.959 . S
C2201 H2208 0.961 . S
C2201 H2209 0.960 . S
C2202 C2200 1.381 . S
C2202 C2203 1.394 . S
C2202 H2210 0.930 . S
C2203 C2202 1.394 . S
C2203 C2204 1.383 . S
C2203 H2211 0.929 . S
C2204 C2203 1.383 . S
C2204 C2205 1.377 . S
C2205 H2189 0.930 . S
C2205 C2204 1.377 . S
C2205 C2206 1.379 . S
C2206 H2190 0.931 . S
C2206 C2200 1.383 . S
C2206 C2205 1.379 . S
H2207 C2201 0.959 . S
H2208 C2201 0.961 . S
H2209 C2201 0.960 . S
H2210 C2202 0.930 . S
H2211 C2203 0.929 . S
H2212 C2220 0.929 . S
H2213 C2222 0.930 . S
H2214 C2224 0.930 . S
H2215 C2227 0.929 . S
H2216 C2230 0.930 . S
H2217 C2232 0.960 . S
H2218 C2232 0.960 . S
H2219 C2232 0.960 . S
C2220 H2212 0.929 . S
C2220 C2221 1.377 . S
C2220 C2222 1.384 . S
C2221 C2220 1.377 . S
C2221 C2227 1.390 . S
C2222 H2213 0.930 . S
C2222 C2220 1.384 . S
C2222 C2223 1.372 . S
C2223 C2222 1.372 . S
C2223 C2224 1.400 . S
C2223 C2228 1.490 . S
C2224 H2214 0.930 . S
C2224 C2223 1.400 . S
C2224 C2227 1.386 . S
H2225 C2241 0.930 . S
H2226 C2242 0.931 . S
C2227 H2215 0.929 . S
C2227 C2221 1.390 . S
C2227 C2224 1.386 . S
C2228 C2223 1.490 . S
C2228 C2230 1.395 . S
C2228 C2231 1.403 . S
H2229 C2235 0.930 . S
C2230 H2216 0.930 . S
C2230 C2228 1.395 . S
C2230 C2233 1.403 . S
C2231 C2228 1.403 . S
C2231 C2232 1.524 . S
C2231 C2235 1.400 . S
C2232 H2217 0.960 . S
C2232 H2218 0.960 . S
C2232 H2219 0.960 . S
C2232 C2231 1.524 . S
C2233 C2230 1.403 . S
C2233 C2234 1.392 . S
C2233 C2237 1.495 . S
C2234 C2233 1.392 . S
C2234 C2235 1.385 . S
C2234 C2236 1.478 . S
C2235 H2229 0.930 . S
C2235 C2231 1.400 . S
C2235 C2234 1.385 . S
C2236 C2234 1.478 . S
C2236 C2238 1.381 . S
C2236 C2242 1.383 . S
C2237 C2233 1.495 . S
C2237 H2243 0.959 . S
C2237 H2244 0.961 . S
C2237 H2245 0.960 . S
C2238 C2236 1.381 . S
C2238 C2239 1.394 . S
C2238 H2246 0.930 . S
C2239 C2238 1.394 . S
C2239 C2240 1.383 . S
C2239 H2247 0.929 . S
C2240 C2239 1.383 . S
C2240 C2241 1.377 . S
C2241 H2225 0.930 . S
C2241 C2240 1.377 . S
C2241 C2242 1.379 . S
C2242 H2226 0.931 . S
C2242 C2236 1.383 . S
C2242 C2241 1.379 . S
H2243 C2237 0.959 . S
H2244 C2237 0.961 . S
H2245 C2237 0.960 . S
H2246 C2238 0.930 . S
H2247 C2239 0.929 . S
H2248 C2256 0.929 . S
H2249 C2258 0.930 . S
H2250 C2260 0.930 . S
H2251 C2263 0.929 . S
H2252 C2266 0.930 . S
H2253 C2268 0.960 . S
H2254 C2268 0.960 . S
H2255 C2268 0.960 . S
C2256 H2248 0.929 . S
C2256 C2257 1.377 . S
C2256 C2258 1.384 . S
C2257 C2256 1.377 . S
C2257 C2263 1.390 . S
C2258 H2249 0.930 . S
C2258 C2256 1.384 . S
C2258 C2259 1.372 . S
C2259 C2258 1.372 . S
C2259 C2260 1.400 . S
C2259 C2264 1.490 . S
C2260 H2250 0.930 . S
C2260 C2259 1.400 . S
C2260 C2263 1.386 . S
H2261 C2277 0.930 . S
H2262 C2278 0.931 . S
C2263 H2251 0.929 . S
C2263 C2257 1.390 . S
C2263 C2260 1.386 . S
C2264 C2259 1.490 . S
C2264 C2266 1.395 . S
C2264 C2267 1.403 . S
H2265 C2271 0.930 . S
C2266 H2252 0.930 . S
C2266 C2264 1.395 . S
C2266 C2269 1.403 . S
C2267 C2264 1.403 . S
C2267 C2268 1.524 . S
C2267 C2271 1.400 . S
C2268 H2253 0.960 . S
C2268 H2254 0.960 . S
C2268 H2255 0.960 . S
C2268 C2267 1.524 . S
C2269 C2266 1.403 . S
C2269 C2270 1.392 . S
C2269 C2273 1.495 . S
C2270 C2269 1.392 . S
C2270 C2271 1.385 . S
C2270 C2272 1.478 . S
C2271 H2265 0.930 . S
C2271 C2267 1.400 . S
C2271 C2270 1.385 . S
C2272 C2270 1.478 . S
C2272 C2274 1.381 . S
C2272 C2278 1.383 . S
C2273 C2269 1.495 . S
C2273 H2279 0.959 . S
C2273 H2280 0.961 . S
C2273 H2281 0.960 . S
C2274 C2272 1.381 . S
C2274 C2275 1.394 . S
C2274 H2282 0.930 . S
C2275 C2274 1.394 . S
C2275 C2276 1.383 . S
C2275 H2283 0.929 . S
C2276 C2275 1.383 . S
C2276 C2277 1.377 . S
C2277 H2261 0.930 . S
C2277 C2276 1.377 . S
C2277 C2278 1.379 . S
C2278 H2262 0.931 . S
C2278 C2272 1.383 . S
C2278 C2277 1.379 . S
H2279 C2273 0.959 . S
H2280 C2273 0.961 . S
H2281 C2273 0.960 . S
H2282 C2274 0.930 . S
H2283 C2275 0.929 . S
H2284 C2292 0.929 . S
H2285 C2294 0.930 . S
H2286 C2296 0.930 . S
H2287 C2299 0.929 . S
H2288 C2302 0.930 . S
H2289 C2304 0.960 . S
H2290 C2304 0.960 . S
H2291 C2304 0.960 . S
C2292 H2284 0.929 . S
C2292 C2293 1.377 . S
C2292 C2294 1.384 . S
C2293 C2292 1.377 . S
C2293 C2299 1.390 . S
C2294 H2285 0.930 . S
C2294 C2292 1.384 . S
C2294 C2295 1.372 . S
C2295 C2294 1.372 . S
C2295 C2296 1.400 . S
C2295 C2300 1.490 . S
C2296 H2286 0.930 . S
C2296 C2295 1.400 . S
C2296 C2299 1.386 . S
H2297 C2313 0.930 . S
H2298 C2314 0.931 . S
C2299 H2287 0.929 . S
C2299 C2293 1.390 . S
C2299 C2296 1.386 . S
C2300 C2295 1.490 . S
C2300 C2302 1.395 . S
C2300 C2303 1.403 . S
H2301 C2307 0.930 . S
C2302 H2288 0.930 . S
C2302 C2300 1.395 . S
C2302 C2305 1.403 . S
C2303 C2300 1.403 . S
C2303 C2304 1.524 . S
C2303 C2307 1.400 . S
C2304 H2289 0.960 . S
C2304 H2290 0.960 . S
C2304 H2291 0.960 . S
C2304 C2303 1.524 . S
C2305 C2302 1.403 . S
C2305 C2306 1.392 . S
C2305 C2309 1.495 . S
C2306 C2305 1.392 . S
C2306 C2307 1.385 . S
C2306 C2308 1.478 . S
C2307 H2301 0.930 . S
C2307 C2303 1.400 . S
C2307 C2306 1.385 . S
C2308 C2306 1.478 . S
C2308 C2310 1.381 . S
C2308 C2314 1.383 . S
C2309 C2305 1.495 . S
C2309 H2315 0.959 . S
C2309 H2316 0.961 . S
C2309 H2317 0.960 . S
C2310 C2308 1.381 . S
C2310 C2311 1.394 . S
C2310 H2318 0.930 . S
C2311 C2310 1.394 . S
C2311 C2312 1.383 . S
C2311 H2319 0.929 . S
C2312 C2311 1.383 . S
C2312 C2313 1.377 . S
C2313 H2297 0.930 . S
C2313 C2312 1.377 . S
C2313 C2314 1.379 . S
C2314 H2298 0.931 . S
C2314 C2308 1.383 . S
C2314 C2313 1.379 . S
H2315 C2309 0.959 . S
H2316 C2309 0.961 . S
H2317 C2309 0.960 . S
H2318 C2310 0.930 . S
H2319 C2311 0.929 . S
H2320 C2328 0.929 . S
H2321 C2330 0.930 . S
H2322 C2332 0.930 . S
H2323 C2335 0.929 . S
H2324 C2338 0.930 . S
H2325 C2340 0.960 . S
H2326 C2340 0.960 . S
H2327 C2340 0.960 . S
C2328 H2320 0.929 . S
C2328 C2329 1.377 . S
C2328 C2330 1.384 . S
C2329 C2328 1.377 . S
C2329 C2335 1.390 . S
C2330 H2321 0.930 . S
C2330 C2328 1.384 . S
C2330 C2331 1.372 . S
C2331 C2330 1.372 . S
C2331 C2332 1.400 . S
C2331 C2336 1.490 . S
C2332 H2322 0.930 . S
C2332 C2331 1.400 . S
C2332 C2335 1.386 . S
H2333 C2349 0.930 . S
H2334 C2350 0.931 . S
C2335 H2323 0.929 . S
C2335 C2329 1.390 . S
C2335 C2332 1.386 . S
C2336 C2331 1.490 . S
C2336 C2338 1.395 . S
C2336 C2339 1.403 . S
H2337 C2343 0.930 . S
C2338 H2324 0.930 . S
C2338 C2336 1.395 . S
C2338 C2341 1.403 . S
C2339 C2336 1.403 . S
C2339 C2340 1.524 . S
C2339 C2343 1.400 . S
C2340 H2325 0.960 . S
C2340 H2326 0.960 . S
C2340 H2327 0.960 . S
C2340 C2339 1.524 . S
C2341 C2338 1.403 . S
C2341 C2342 1.392 . S
C2341 C2345 1.495 . S
C2342 C2341 1.392 . S
C2342 C2343 1.385 . S
C2342 C2344 1.478 . S
C2343 H2337 0.930 . S
C2343 C2339 1.400 . S
C2343 C2342 1.385 . S
C2344 C2342 1.478 . S
C2344 C2346 1.381 . S
C2344 C2350 1.383 . S
C2345 C2341 1.495 . S
C2345 H2351 0.959 . S
C2345 H2352 0.961 . S
C2345 H2353 0.960 . S
C2346 C2344 1.381 . S
C2346 C2347 1.394 . S
C2346 H2354 0.930 . S
C2347 C2346 1.394 . S
C2347 C2348 1.383 . S
C2347 H2355 0.929 . S
C2348 C2347 1.383 . S
C2348 C2349 1.377 . S
C2349 H2333 0.930 . S
C2349 C2348 1.377 . S
C2349 C2350 1.379 . S
C2350 H2334 0.931 . S
C2350 C2344 1.383 . S
C2350 C2349 1.379 . S
H2351 C2345 0.959 . S
H2352 C2345 0.961 . S
H2353 C2345 0.960 . S
H2354 C2346 0.930 . S
H2355 C2347 0.929 . S
H2356 C2364 0.929 . S
H2357 C2366 0.930 . S
H2358 C2368 0.930 . S
H2359 C2371 0.929 . S
H2360 C2374 0.930 . S
H2361 C2376 0.960 . S
H2362 C2376 0.960 . S
H2363 C2376 0.960 . S
C2364 H2356 0.929 . S
C2364 C2365 1.377 . S
C2364 C2366 1.384 . S
C2365 C2364 1.377 . S
C2365 C2371 1.390 . S
C2366 H2357 0.930 . S
C2366 C2364 1.384 . S
C2366 C2367 1.372 . S
C2367 C2366 1.372 . S
C2367 C2368 1.400 . S
C2367 C2372 1.490 . S
C2368 H2358 0.930 . S
C2368 C2367 1.400 . S
C2368 C2371 1.386 . S
H2369 C2385 0.930 . S
H2370 C2386 0.931 . S
C2371 H2359 0.929 . S
C2371 C2365 1.390 . S
C2371 C2368 1.386 . S
C2372 C2367 1.490 . S
C2372 C2374 1.395 . S
C2372 C2375 1.403 . S
H2373 C2379 0.930 . S
C2374 H2360 0.930 . S
C2374 C2372 1.395 . S
C2374 C2377 1.403 . S
C2375 C2372 1.403 . S
C2375 C2376 1.524 . S
C2375 C2379 1.400 . S
C2376 H2361 0.960 . S
C2376 H2362 0.960 . S
C2376 H2363 0.960 . S
C2376 C2375 1.524 . S
C2377 C2374 1.403 . S
C2377 C2378 1.392 . S
C2377 C2381 1.495 . S
C2378 C2377 1.392 . S
C2378 C2379 1.385 . S
C2378 C2380 1.478 . S
C2379 H2373 0.930 . S
C2379 C2375 1.400 . S
C2379 C2378 1.385 . S
C2380 C2378 1.478 . S
C2380 C2382 1.381 . S
C2380 C2386 1.383 . S
C2381 C2377 1.495 . S
C2381 H2387 0.959 . S
C2381 H2388 0.961 . S
C2381 H2389 0.960 . S
C2382 C2380 1.381 . S
C2382 C2383 1.394 . S
C2382 H2390 0.930 . S
C2383 C2382 1.394 . S
C2383 C2384 1.383 . S
C2383 H2391 0.929 . S
C2384 C2383 1.383 . S
C2384 C2385 1.377 . S
C2385 H2369 0.930 . S
C2385 C2384 1.377 . S
C2385 C2386 1.379 . S
C2386 H2370 0.931 . S
C2386 C2380 1.383 . S
C2386 C2385 1.379 . S
H2387 C2381 0.959 . S
H2388 C2381 0.961 . S
H2389 C2381 0.960 . S
H2390 C2382 0.930 . S
H2391 C2383 0.929 . S
H2392 C2400 0.929 . S
H2393 C2402 0.930 . S
H2394 C2404 0.930 . S
H2395 C2407 0.929 . S
H2396 C2410 0.930 . S
H2397 C2412 0.960 . S
H2398 C2412 0.960 . S
H2399 C2412 0.960 . S
C2400 H2392 0.929 . S
C2400 C2401 1.377 . S
C2400 C2402 1.384 . S
C2401 C2400 1.377 . S
C2401 C2407 1.390 . S
C2402 H2393 0.930 . S
C2402 C2400 1.384 . S
C2402 C2403 1.372 . S
C2403 C2402 1.372 . S
C2403 C2404 1.400 . S
C2403 C2408 1.490 . S
C2404 H2394 0.930 . S
C2404 C2403 1.400 . S
C2404 C2407 1.386 . S
H2405 C2421 0.930 . S
H2406 C2422 0.931 . S
C2407 H2395 0.929 . S
C2407 C2401 1.390 . S
C2407 C2404 1.386 . S
C2408 C2403 1.490 . S
C2408 C2410 1.395 . S
C2408 C2411 1.403 . S
H2409 C2415 0.930 . S
C2410 H2396 0.930 . S
C2410 C2408 1.395 . S
C2410 C2413 1.403 . S
C2411 C2408 1.403 . S
C2411 C2412 1.524 . S
C2411 C2415 1.400 . S
C2412 H2397 0.960 . S
C2412 H2398 0.960 . S
C2412 H2399 0.960 . S
C2412 C2411 1.524 . S
C2413 C2410 1.403 . S
C2413 C2414 1.392 . S
C2413 C2417 1.495 . S
C2414 C2413 1.392 . S
C2414 C2415 1.385 . S
C2414 C2416 1.478 . S
C2415 H2409 0.930 . S
C2415 C2411 1.400 . S
C2415 C2414 1.385 . S
C2416 C2414 1.478 . S
C2416 C2418 1.381 . S
C2416 C2422 1.383 . S
C2417 C2413 1.495 . S
C2417 H2423 0.959 . S
C2417 H2424 0.961 . S
C2417 H2425 0.960 . S
C2418 C2416 1.381 . S
C2418 C2419 1.394 . S
C2418 H2426 0.930 . S
C2419 C2418 1.394 . S
C2419 C2420 1.383 . S
C2419 H2427 0.929 . S
C2420 C2419 1.383 . S
C2420 C2421 1.377 . S
C2421 H2405 0.930 . S
C2421 C2420 1.377 . S
C2421 C2422 1.379 . S
C2422 H2406 0.931 . S
C2422 C2416 1.383 . S
C2422 C2421 1.379 . S
H2423 C2417 0.959 . S
H2424 C2417 0.961 . S
H2425 C2417 0.960 . S
H2426 C2418 0.930 . S
H2427 C2419 0.929 . S
H2428 C2436 0.929 . S
H2429 C2438 0.930 . S
H2430 C2440 0.930 . S
H2431 C2443 0.929 . S
H2432 C2446 0.930 . S
H2433 C2448 0.960 . S
H2434 C2448 0.960 . S
H2435 C2448 0.960 . S
C2436 H2428 0.929 . S
C2436 C2437 1.377 . S
C2436 C2438 1.384 . S
C2437 C2436 1.377 . S
C2437 C2443 1.390 . S
C2438 H2429 0.930 . S
C2438 C2436 1.384 . S
C2438 C2439 1.372 . S
C2439 C2438 1.372 . S
C2439 C2440 1.400 . S
C2439 C2444 1.490 . S
C2440 H2430 0.930 . S
C2440 C2439 1.400 . S
C2440 C2443 1.386 . S
H2441 C2457 0.930 . S
H2442 C2458 0.931 . S
C2443 H2431 0.929 . S
C2443 C2437 1.390 . S
C2443 C2440 1.386 . S
C2444 C2439 1.490 . S
C2444 C2446 1.395 . S
C2444 C2447 1.403 . S
H2445 C2451 0.930 . S
C2446 H2432 0.930 . S
C2446 C2444 1.395 . S
C2446 C2449 1.403 . S
C2447 C2444 1.403 . S
C2447 C2448 1.524 . S
C2447 C2451 1.400 . S
C2448 H2433 0.960 . S
C2448 H2434 0.960 . S
C2448 H2435 0.960 . S
C2448 C2447 1.524 . S
C2449 C2446 1.403 . S
C2449 C2450 1.392 . S
C2449 C2453 1.495 . S
C2450 C2449 1.392 . S
C2450 C2451 1.385 . S
C2450 C2452 1.478 . S
C2451 H2445 0.930 . S
C2451 C2447 1.400 . S
C2451 C2450 1.385 . S
C2452 C2450 1.478 . S
C2452 C2454 1.381 . S
C2452 C2458 1.383 . S
C2453 C2449 1.495 . S
C2453 H2459 0.959 . S
C2453 H2460 0.961 . S
C2453 H2461 0.960 . S
C2454 C2452 1.381 . S
C2454 C2455 1.394 . S
C2454 H2462 0.930 . S
C2455 C2454 1.394 . S
C2455 C2456 1.383 . S
C2455 H2463 0.929 . S
C2456 C2455 1.383 . S
C2456 C2457 1.377 . S
C2457 H2441 0.930 . S
C2457 C2456 1.377 . S
C2457 C2458 1.379 . S
C2458 H2442 0.931 . S
C2458 C2452 1.383 . S
C2458 C2457 1.379 . S
H2459 C2453 0.959 . S
H2460 C2453 0.961 . S
H2461 C2453 0.960 . S
H2462 C2454 0.930 . S
H2463 C2455 0.929 . S
H2464 C2472 0.929 . S
H2465 C2474 0.930 . S
H2466 C2476 0.930 . S
H2467 C2479 0.929 . S
H2468 C2482 0.930 . S
H2469 C2484 0.960 . S
H2470 C2484 0.960 . S
H2471 C2484 0.960 . S
C2472 H2464 0.929 . S
C2472 C2473 1.377 . S
C2472 C2474 1.384 . S
C2473 C2472 1.377 . S
C2473 C2479 1.390 . S
C2474 H2465 0.930 . S
C2474 C2472 1.384 . S
C2474 C2475 1.372 . S
C2475 C2474 1.372 . S
C2475 C2476 1.400 . S
C2475 C2480 1.490 . S
C2476 H2466 0.930 . S
C2476 C2475 1.400 . S
C2476 C2479 1.386 . S
H2477 C2493 0.930 . S
H2478 C2494 0.931 . S
C2479 H2467 0.929 . S
C2479 C2473 1.390 . S
C2479 C2476 1.386 . S
C2480 C2475 1.490 . S
C2480 C2482 1.395 . S
C2480 C2483 1.403 . S
H2481 C2487 0.930 . S
C2482 H2468 0.930 . S
C2482 C2480 1.395 . S
C2482 C2485 1.403 . S
C2483 C2480 1.403 . S
C2483 C2484 1.524 . S
C2483 C2487 1.400 . S
C2484 H2469 0.960 . S
C2484 H2470 0.960 . S
C2484 H2471 0.960 . S
C2484 C2483 1.524 . S
C2485 C2482 1.403 . S
C2485 C2486 1.392 . S
C2485 C2489 1.495 . S
C2486 C2485 1.392 . S
C2486 C2487 1.385 . S
C2486 C2488 1.478 . S
C2487 H2481 0.930 . S
C2487 C2483 1.400 . S
C2487 C2486 1.385 . S
C2488 C2486 1.478 . S
C2488 C2490 1.381 . S
C2488 C2494 1.383 . S
C2489 C2485 1.495 . S
C2489 H2495 0.959 . S
C2489 H2496 0.961 . S
C2489 H2497 0.960 . S
C2490 C2488 1.381 . S
C2490 C2491 1.394 . S
C2490 H2498 0.930 . S
C2491 C2490 1.394 . S
C2491 C2492 1.383 . S
C2491 H2499 0.929 . S
C2492 C2491 1.383 . S
C2492 C2493 1.377 . S
C2493 H2477 0.930 . S
C2493 C2492 1.377 . S
C2493 C2494 1.379 . S
C2494 H2478 0.931 . S
C2494 C2488 1.383 . S
C2494 C2493 1.379 . S
H2495 C2489 0.959 . S
H2496 C2489 0.961 . S
H2497 C2489 0.960 . S
H2498 C2490 0.930 . S
H2499 C2491 0.929 . S
H2500 C2508 0.929 . S
H2501 C2510 0.930 . S
H2502 C2512 0.930 . S
H2503 C2515 0.929 . S
H2504 C2518 0.930 . S
H2505 C2520 0.960 . S
H2506 C2520 0.960 . S
H2507 C2520 0.960 . S
C2508 H2500 0.929 . S
C2508 C2509 1.377 . S
C2508 C2510 1.384 . S
C2509 C2508 1.377 . S
C2509 C2515 1.390 . S
C2510 H2501 0.930 . S
C2510 C2508 1.384 . S
C2510 C2511 1.372 . S
C2511 C2510 1.372 . S
C2511 C2512 1.400 . S
C2511 C2516 1.490 . S
C2512 H2502 0.930 . S
C2512 C2511 1.400 . S
C2512 C2515 1.386 . S
H2513 C2529 0.930 . S
H2514 C2530 0.931 . S
C2515 H2503 0.929 . S
C2515 C2509 1.390 . S
C2515 C2512 1.386 . S
C2516 C2511 1.490 . S
C2516 C2518 1.395 . S
C2516 C2519 1.403 . S
H2517 C2523 0.930 . S
C2518 H2504 0.930 . S
C2518 C2516 1.395 . S
C2518 C2521 1.403 . S
C2519 C2516 1.403 . S
C2519 C2520 1.524 . S
C2519 C2523 1.400 . S
C2520 H2505 0.960 . S
C2520 H2506 0.960 . S
C2520 H2507 0.960 . S
C2520 C2519 1.524 . S
C2521 C2518 1.403 . S
C2521 C2522 1.392 . S
C2521 C2525 1.495 . S
C2522 C2521 1.392 . S
C2522 C2523 1.385 . S
C2522 C2524 1.478 . S
C2523 H2517 0.930 . S
C2523 C2519 1.400 . S
C2523 C2522 1.385 . S
C2524 C2522 1.478 . S
C2524 C2526 1.381 . S
C2524 C2530 1.383 . S
C2525 C2521 1.495 . S
C2525 H2531 0.959 . S
C2525 H2532 0.961 . S
C2525 H2533 0.960 . S
C2526 C2524 1.381 . S
C2526 C2527 1.394 . S
C2526 H2534 0.930 . S
C2527 C2526 1.394 . S
C2527 C2528 1.383 . S
C2527 H2535 0.929 . S
C2528 C2527 1.383 . S
C2528 C2529 1.377 . S
C2529 H2513 0.930 . S
C2529 C2528 1.377 . S
C2529 C2530 1.379 . S
C2530 H2514 0.931 . S
C2530 C2524 1.383 . S
C2530 C2529 1.379 . S
H2531 C2525 0.959 . S
H2532 C2525 0.961 . S
H2533 C2525 0.960 . S
H2534 C2526 0.930 . S
H2535 C2527 0.929 . S
H2536 C2544 0.929 . S
H2537 C2546 0.930 . S
H2538 C2548 0.930 . S
H2539 C2551 0.929 . S
H2540 C2554 0.930 . S
H2541 C2556 0.960 . S
H2542 C2556 0.960 . S
H2543 C2556 0.960 . S
C2544 H2536 0.929 . S
C2544 C2545 1.377 . S
C2544 C2546 1.384 . S
C2545 C2544 1.377 . S
C2545 C2551 1.390 . S
C2546 H2537 0.930 . S
C2546 C2544 1.384 . S
C2546 C2547 1.372 . S
C2547 C2546 1.372 . S
C2547 C2548 1.400 . S
C2547 C2552 1.490 . S
C2548 H2538 0.930 . S
C2548 C2547 1.400 . S
C2548 C2551 1.386 . S
H2549 C2565 0.930 . S
H2550 C2566 0.931 . S
C2551 H2539 0.929 . S
C2551 C2545 1.390 . S
C2551 C2548 1.386 . S
C2552 C2547 1.490 . S
C2552 C2554 1.395 . S
C2552 C2555 1.403 . S
H2553 C2559 0.930 . S
C2554 H2540 0.930 . S
C2554 C2552 1.395 . S
C2554 C2557 1.403 . S
C2555 C2552 1.403 . S
C2555 C2556 1.524 . S
C2555 C2559 1.400 . S
C2556 H2541 0.960 . S
C2556 H2542 0.960 . S
C2556 H2543 0.960 . S
C2556 C2555 1.524 . S
C2557 C2554 1.403 . S
C2557 C2558 1.392 . S
C2557 C2561 1.495 . S
C2558 C2557 1.392 . S
C2558 C2559 1.385 . S
C2558 C2560 1.478 . S
C2559 H2553 0.930 . S
C2559 C2555 1.400 . S
C2559 C2558 1.385 . S
C2560 C2558 1.478 . S
C2560 C2562 1.381 . S
C2560 C2566 1.383 . S
C2561 C2557 1.495 . S
C2561 H2567 0.959 . S
C2561 H2568 0.961 . S
C2561 H2569 0.960 . S
C2562 C2560 1.381 . S
C2562 C2563 1.394 . S
C2562 H2570 0.930 . S
C2563 C2562 1.394 . S
C2563 C2564 1.383 . S
C2563 H2571 0.929 . S
C2564 C2563 1.383 . S
C2564 C2565 1.377 . S
C2565 H2549 0.930 . S
C2565 C2564 1.377 . S
C2565 C2566 1.379 . S
C2566 H2550 0.931 . S
C2566 C2560 1.383 . S
C2566 C2565 1.379 . S
H2567 C2561 0.959 . S
H2568 C2561 0.961 . S
H2569 C2561 0.960 . S
H2570 C2562 0.930 . S
H2571 C2563 0.929 . S
H2572 C2580 0.929 . S
H2573 C2582 0.930 . S
H2574 C2584 0.930 . S
H2575 C2587 0.929 . S
H2576 C2590 0.930 . S
H2577 C2592 0.960 . S
H2578 C2592 0.960 . S
H2579 C2592 0.960 . S
C2580 H2572 0.929 . S
C2580 C2581 1.377 . S
C2580 C2582 1.384 . S
C2581 C2580 1.377 . S
C2581 C2587 1.390 . S
C2582 H2573 0.930 . S
C2582 C2580 1.384 . S
C2582 C2583 1.372 . S
C2583 C2582 1.372 . S
C2583 C2584 1.400 . S
C2583 C2588 1.490 . S
C2584 H2574 0.930 . S
C2584 C2583 1.400 . S
C2584 C2587 1.386 . S
H2585 C2601 0.930 . S
H2586 C2602 0.931 . S
C2587 H2575 0.929 . S
C2587 C2581 1.390 . S
C2587 C2584 1.386 . S
C2588 C2583 1.490 . S
C2588 C2590 1.395 . S
C2588 C2591 1.403 . S
H2589 C2595 0.930 . S
C2590 H2576 0.930 . S
C2590 C2588 1.395 . S
C2590 C2593 1.403 . S
C2591 C2588 1.403 . S
C2591 C2592 1.524 . S
C2591 C2595 1.400 . S
C2592 H2577 0.960 . S
C2592 H2578 0.960 . S
C2592 H2579 0.960 . S
C2592 C2591 1.524 . S
C2593 C2590 1.403 . S
C2593 C2594 1.392 . S
C2593 C2597 1.495 . S
C2594 C2593 1.392 . S
C2594 C2595 1.385 . S
C2594 C2596 1.478 . S
C2595 H2589 0.930 . S
C2595 C2591 1.400 . S
C2595 C2594 1.385 . S
C2596 C2594 1.478 . S
C2596 C2598 1.381 . S
C2596 C2602 1.383 . S
C2597 C2593 1.495 . S
C2597 H2603 0.959 . S
C2597 H2604 0.961 . S
C2597 H2605 0.960 . S
C2598 C2596 1.381 . S
C2598 C2599 1.394 . S
C2598 H2606 0.930 . S
C2599 C2598 1.394 . S
C2599 C2600 1.383 . S
C2599 H2607 0.929 . S
C2600 C2599 1.383 . S
C2600 C2601 1.377 . S
C2601 H2585 0.930 . S
C2601 C2600 1.377 . S
C2601 C2602 1.379 . S
C2602 H2586 0.931 . S
C2602 C2596 1.383 . S
C2602 C2601 1.379 . S
H2603 C2597 0.959 . S
H2604 C2597 0.961 . S
H2605 C2597 0.960 . S
H2606 C2598 0.930 . S
H2607 C2599 0.929 . S
H2608 C2616 0.929 . S
H2609 C2618 0.930 . S
H2610 C2620 0.930 . S
H2611 C2623 0.929 . S
H2612 C2626 0.930 . S
H2613 C2628 0.960 . S
H2614 C2628 0.960 . S
H2615 C2628 0.960 . S
C2616 H2608 0.929 . S
C2616 C2617 1.377 . S
C2616 C2618 1.384 . S
C2617 C2616 1.377 . S
C2617 C2623 1.390 . S
C2618 H2609 0.930 . S
C2618 C2616 1.384 . S
C2618 C2619 1.372 . S
C2619 C2618 1.372 . S
C2619 C2620 1.400 . S
C2619 C2624 1.490 . S
C2620 H2610 0.930 . S
C2620 C2619 1.400 . S
C2620 C2623 1.386 . S
H2621 C2637 0.930 . S
H2622 C2638 0.931 . S
C2623 H2611 0.929 . S
C2623 C2617 1.390 . S
C2623 C2620 1.386 . S
C2624 C2619 1.490 . S
C2624 C2626 1.395 . S
C2624 C2627 1.403 . S
H2625 C2631 0.930 . S
C2626 H2612 0.930 . S
C2626 C2624 1.395 . S
C2626 C2629 1.403 . S
C2627 C2624 1.403 . S
C2627 C2628 1.524 . S
C2627 C2631 1.400 . S
C2628 H2613 0.960 . S
C2628 H2614 0.960 . S
C2628 H2615 0.960 . S
C2628 C2627 1.524 . S
C2629 C2626 1.403 . S
C2629 C2630 1.392 . S
C2629 C2633 1.495 . S
C2630 C2629 1.392 . S
C2630 C2631 1.385 . S
C2630 C2632 1.478 . S
C2631 H2625 0.930 . S
C2631 C2627 1.400 . S
C2631 C2630 1.385 . S
C2632 C2630 1.478 . S
C2632 C2634 1.381 . S
C2632 C2638 1.383 . S
C2633 C2629 1.495 . S
C2633 H2639 0.959 . S
C2633 H2640 0.961 . S
C2633 H2641 0.960 . S
C2634 C2632 1.381 . S
C2634 C2635 1.394 . S
C2634 H2642 0.930 . S
C2635 C2634 1.394 . S
C2635 C2636 1.383 . S
C2635 H2643 0.929 . S
C2636 C2635 1.383 . S
C2636 C2637 1.377 . S
C2637 H2621 0.930 . S
C2637 C2636 1.377 . S
C2637 C2638 1.379 . S
C2638 H2622 0.931 . S
C2638 C2632 1.383 . S
C2638 C2637 1.379 . S
H2639 C2633 0.959 . S
H2640 C2633 0.961 . S
H2641 C2633 0.960 . S
H2642 C2634 0.930 . S
H2643 C2635 0.929 . S
H2644 C2652 0.929 . S
H2645 C2654 0.930 . S
H2646 C2656 0.930 . S
H2647 C2659 0.929 . S
H2648 C2662 0.930 . S
H2649 C2664 0.960 . S
H2650 C2664 0.960 . S
H2651 C2664 0.960 . S
C2652 H2644 0.929 . S
C2652 C2653 1.377 . S
C2652 C2654 1.384 . S
C2653 C2652 1.377 . S
C2653 C2659 1.390 . S
C2654 H2645 0.930 . S
C2654 C2652 1.384 . S
C2654 C2655 1.372 . S
C2655 C2654 1.372 . S
C2655 C2656 1.400 . S
C2655 C2660 1.490 . S
C2656 H2646 0.930 . S
C2656 C2655 1.400 . S
C2656 C2659 1.386 . S
H2657 C2673 0.930 . S
H2658 C2674 0.931 . S
C2659 H2647 0.929 . S
C2659 C2653 1.390 . S
C2659 C2656 1.386 . S
C2660 C2655 1.490 . S
C2660 C2662 1.395 . S
C2660 C2663 1.403 . S
H2661 C2667 0.930 . S
C2662 H2648 0.930 . S
C2662 C2660 1.395 . S
C2662 C2665 1.403 . S
C2663 C2660 1.403 . S
C2663 C2664 1.524 . S
C2663 C2667 1.400 . S
C2664 H2649 0.960 . S
C2664 H2650 0.960 . S
C2664 H2651 0.960 . S
C2664 C2663 1.524 . S
C2665 C2662 1.403 . S
C2665 C2666 1.392 . S
C2665 C2669 1.495 . S
C2666 C2665 1.392 . S
C2666 C2667 1.385 . S
C2666 C2668 1.478 . S
C2667 H2661 0.930 . S
C2667 C2663 1.400 . S
C2667 C2666 1.385 . S
C2668 C2666 1.478 . S
C2668 C2670 1.381 . S
C2668 C2674 1.383 . S
C2669 C2665 1.495 . S
C2669 H2675 0.959 . S
C2669 H2676 0.961 . S
C2669 H2677 0.960 . S
C2670 C2668 1.381 . S
C2670 C2671 1.394 . S
C2670 H2678 0.930 . S
C2671 C2670 1.394 . S
C2671 C2672 1.383 . S
C2671 H2679 0.929 . S
C2672 C2671 1.383 . S
C2672 C2673 1.377 . S
C2673 H2657 0.930 . S
C2673 C2672 1.377 . S
C2673 C2674 1.379 . S
C2674 H2658 0.931 . S
C2674 C2668 1.383 . S
C2674 C2673 1.379 . S
H2675 C2669 0.959 . S
H2676 C2669 0.961 . S
H2677 C2669 0.960 . S
H2678 C2670 0.930 . S
H2679 C2671 0.929 . S
H2680 C2688 0.929 . S
H2681 C2690 0.930 . S
H2682 C2692 0.930 . S
H2683 C2695 0.929 . S
H2684 C2698 0.930 . S
H2685 C2700 0.960 . S
H2686 C2700 0.960 . S
H2687 C2700 0.960 . S
C2688 H2680 0.929 . S
C2688 C2689 1.377 . S
C2688 C2690 1.384 . S
C2689 C2688 1.377 . S
C2689 C2695 1.390 . S
C2690 H2681 0.930 . S
C2690 C2688 1.384 . S
C2690 C2691 1.372 . S
C2691 C2690 1.372 . S
C2691 C2692 1.400 . S
C2691 C2696 1.490 . S
C2692 H2682 0.930 . S
C2692 C2691 1.400 . S
C2692 C2695 1.386 . S
H2693 C2709 0.930 . S
H2694 C2710 0.931 . S
C2695 H2683 0.929 . S
C2695 C2689 1.390 . S
C2695 C2692 1.386 . S
C2696 C2691 1.490 . S
C2696 C2698 1.395 . S
C2696 C2699 1.403 . S
H2697 C2703 0.930 . S
C2698 H2684 0.930 . S
C2698 C2696 1.395 . S
C2698 C2701 1.403 . S
C2699 C2696 1.403 . S
C2699 C2700 1.524 . S
C2699 C2703 1.400 . S
C2700 H2685 0.960 . S
C2700 H2686 0.960 . S
C2700 H2687 0.960 . S
C2700 C2699 1.524 . S
C2701 C2698 1.403 . S
C2701 C2702 1.392 . S
C2701 C2705 1.495 . S
C2702 C2701 1.392 . S
C2702 C2703 1.385 . S
C2702 C2704 1.478 . S
C2703 H2697 0.930 . S
C2703 C2699 1.400 . S
C2703 C2702 1.385 . S
C2704 C2702 1.478 . S
C2704 C2706 1.381 . S
C2704 C2710 1.383 . S
C2705 C2701 1.495 . S
C2705 H2711 0.959 . S
C2705 H2712 0.961 . S
C2705 H2713 0.960 . S
C2706 C2704 1.381 . S
C2706 C2707 1.394 . S
C2706 H2714 0.930 . S
C2707 C2706 1.394 . S
C2707 C2708 1.383 . S
C2707 H2715 0.929 . S
C2708 C2707 1.383 . S
C2708 C2709 1.377 . S
C2709 H2693 0.930 . S
C2709 C2708 1.377 . S
C2709 C2710 1.379 . S
C2710 H2694 0.931 . S
C2710 C2704 1.383 . S
C2710 C2709 1.379 . S
H2711 C2705 0.959 . S
H2712 C2705 0.961 . S
H2713 C2705 0.960 . S
H2714 C2706 0.930 . S
H2715 C2707 0.929 . S
H2716 C2724 0.929 . S
H2717 C2726 0.930 . S
H2718 C2728 0.930 . S
H2719 C2731 0.929 . S
H2720 C2734 0.930 . S
H2721 C2736 0.960 . S
H2722 C2736 0.960 . S
H2723 C2736 0.960 . S
C2724 H2716 0.929 . S
C2724 C2725 1.377 . S
C2724 C2726 1.384 . S
C2725 C2724 1.377 . S
C2725 C2731 1.390 . S
C2726 H2717 0.930 . S
C2726 C2724 1.384 . S
C2726 C2727 1.372 . S
C2727 C2726 1.372 . S
C2727 C2728 1.400 . S
C2727 C2732 1.490 . S
C2728 H2718 0.930 . S
C2728 C2727 1.400 . S
C2728 C2731 1.386 . S
H2729 C2745 0.930 . S
H2730 C2746 0.931 . S
C2731 H2719 0.929 . S
C2731 C2725 1.390 . S
C2731 C2728 1.386 . S
C2732 C2727 1.490 . S
C2732 C2734 1.395 . S
C2732 C2735 1.403 . S
H2733 C2739 0.930 . S
C2734 H2720 0.930 . S
C2734 C2732 1.395 . S
C2734 C2737 1.403 . S
C2735 C2732 1.403 . S
C2735 C2736 1.524 . S
C2735 C2739 1.400 . S
C2736 H2721 0.960 . S
C2736 H2722 0.960 . S
C2736 H2723 0.960 . S
C2736 C2735 1.524 . S
C2737 C2734 1.403 . S
C2737 C2738 1.392 . S
C2737 C2741 1.495 . S
C2738 C2737 1.392 . S
C2738 C2739 1.385 . S
C2738 C2740 1.478 . S
C2739 H2733 0.930 . S
C2739 C2735 1.400 . S
C2739 C2738 1.385 . S
C2740 C2738 1.478 . S
C2740 C2742 1.381 . S
C2740 C2746 1.383 . S
C2741 C2737 1.495 . S
C2741 H2747 0.959 . S
C2741 H2748 0.961 . S
C2741 H2749 0.960 . S
C2742 C2740 1.381 . S
C2742 C2743 1.394 . S
C2742 H2750 0.930 . S
C2743 C2742 1.394 . S
C2743 C2744 1.383 . S
C2743 H2751 0.929 . S
C2744 C2743 1.383 . S
C2744 C2745 1.377 . S
C2745 H2729 0.930 . S
C2745 C2744 1.377 . S
C2745 C2746 1.379 . S
C2746 H2730 0.931 . S
C2746 C2740 1.383 . S
C2746 C2745 1.379 . S
H2747 C2741 0.959 . S
H2748 C2741 0.961 . S
H2749 C2741 0.960 . S
H2750 C2742 0.930 . S
H2751 C2743 0.929 . S
C457 C13 1.611 . S
C476 C29 1.607 . S
C493 C55 1.602 . S
C512 C27 1.596 . S
C529 C85 1.612 . S
C548 C57 1.613 . S
C565 C98 1.601 . S
C584 C82 1.594 . S
C601 C113 1.613 . S
C620 C141 1.616 . S
C637 C167 1.600 . S
C656 C127 1.590 . S
C673 C169 1.611 . S
C692 C197 1.613 . S
C709 C223 1.601 . S
C728 C183 1.608 . S
C745 C224 1.594 . S
C764 C265 1.589 . S
C781 C238 1.608 . S
C800 C279 1.603 . S
C817 C321 1.591 . S
C836 C280 1.598 1_655 S
C853 C295 1.608 . S
C872 C334 1.612 . S
C889 C377 1.597 1_455 S
C908 C348 1.600 . S
C925 C390 1.609 . S
C944 C362 1.613 . S
C961 C432 1.597 1_655 S
C980 C392 1.593 1_655 S
C997 C406 1.605 . S
C1016 C446 1.604 . S
C1033 C350 1.769 . S
C1052 C1 1.767 . S
C1069 C15 1.764 . S
C1088 C336 1.755 . S
C1105 C41 1.768 . S
C1124 C378 1.763 . S
C1141 C43 1.762 . S
C1160 C365 1.753 . S
C1177 C418 1.769 . S
C1196 C69 1.759 . S
C1213 C70 1.763 . S
C1232 C404 1.751 . S
C1249 C97 1.769 . S
C1268 C434 1.761 . S
C1285 C420 1.762 . S
C1304 C110 1.750 . S
C1321 C125 1.769 . S
C1340 C250 1.768 . S
C1357 C139 1.764 . S
C1376 C236 1.754 . S
C1393 C153 1.769 . S
C1412 C267 1.764 . S
C1429 C155 1.761 . S
C1448 C253 1.751 . S
C1465 C181 1.769 . S
C1484 C307 1.760 . S
C1501 C292 1.762 . S
C1520 C195 1.755 . S
C1537 C322 1.767 . S
C1556 C209 1.769 . S
C1573 C211 1.762 . S
C1592 C309 1.752 . S
C1609 C12 1.609 1_565 S
C1628 C56 1.610 1_545 S
C1645 C26 1.602 . S
C1664 C407 1.587 . S
C1681 C28 1.610 . S
C1700 C196 1.594 . S
C1717 C54 1.604 1_565 S
C1736 C335 1.589 . S
C1753 C83 1.606 . S
C1772 C363 1.612 . S
C1789 C140 1.611 . S
C1808 C84 1.618 . S
C1825 C278 1.601 . S
C1844 C99 1.592 1_545 S
C1861 C168 1.612 . S
C1880 C112 1.617 . S
C1897 C126 1.601 . S
C1916 C294 1.589 . S
C1933 C447 1.605 . S
C1952 C166 1.612 . S
C1969 C182 1.602 . S
C1988 C239 1.586 . S
C2005 C222 1.602 . S
C2024 C391 1.611 . S
C2041 C281 1.593 1_545 S
C2060 C225 1.599 1_565 S
C2077 C264 1.592 . S
C2096 C433 1.581 . S
C2113 C376 1.593 . S
C2132 C320 1.583 . S
C2149 C393 1.599 . S
C2168 C349 1.589 . S
C2185 C0 1.248 . S
C2204 C14 1.245 . S
C2221 C40 1.252 . S
C2240 C42 1.249 . S
C2257 C68 1.251 . S
C2276 C71 1.242 . S
C2293 C96 1.248 . S
C2312 C111 1.253 . S
C2329 C138 1.252 . S
C2348 C124 1.255 . S
C2365 C152 1.252 . S
C2384 C154 1.249 . S
C2401 C180 1.248 . S
C2420 C194 1.252 . S
C2437 C208 1.248 . S
C2456 C210 1.255 . S
C2473 C237 1.258 . S
C2492 C251 1.257 . S
C2509 C266 1.259 . S
C2528 C252 1.271 . S
C2545 C293 1.259 . S
C2564 C306 1.258 . S
C2581 C308 1.257 . S
C2600 C323 1.271 . S
C2617 C351 1.256 . S
C2636 C337 1.255 . S
C2653 C364 1.256 . S
C2672 C379 1.256 . S
C2689 C419 1.257 . S
C2708 C405 1.266 . S
C2725 C421 1.259 . S
C2744 C435 1.257 . S
