# Generated by pormake.
# Topology gme, (4)-cn, num edge types: 1
# Building blocks:
#     Node 0, Type 0, BuildingBlock: QUQFOY_clean_sbu_1, # of connection points: 4
#     Node 1, Type 0, BuildingBlock: QUQFOY_clean_sbu_1, # of connection points: 4
#     Node 2, Type 0, BuildingBlock: QUQFOY_clean_sbu_1, # of connection points: 4
#     Node 3, Type 0, BuildingBlock: QUQFOY_clean_sbu_1, # of connection points: 4
#     Node 4, Type 0, BuildingBlock: QUQFOY_clean_sbu_1, # of connection points: 4
#     Node 5, Type 0, BuildingBlock: QUQFOY_clean_sbu_1, # of connection points: 4
#     Node 6, Type 0, BuildingBlock: QUQFOY_clean_sbu_1, # of connection points: 4
#     Node 7, Type 0, BuildingBlock: QUQFOY_clean_sbu_1, # of connection points: 4
#     Node 8, Type 0, BuildingBlock: QUQFOY_clean_sbu_1, # of connection points: 4
#     Node 9, Type 0, BuildingBlock: QUQFOY_clean_sbu_1, # of connection points: 4
#     Node 10, Type 0, BuildingBlock: QUQFOY_clean_sbu_1, # of connection points: 4
#     Node 11, Type 0, BuildingBlock: QUQFOY_clean_sbu_1, # of connection points: 4
#     Node 12, Type 0, BuildingBlock: QUQFOY_clean_sbu_1, # of connection points: 4
#     Node 13, Type 0, BuildingBlock: QUQFOY_clean_sbu_1, # of connection points: 4
#     Node 14, Type 0, BuildingBlock: QUQFOY_clean_sbu_1, # of connection points: 4
#     Node 15, Type 0, BuildingBlock: QUQFOY_clean_sbu_1, # of connection points: 4
#     Node 16, Type 0, BuildingBlock: QUQFOY_clean_sbu_1, # of connection points: 4
#     Node 17, Type 0, BuildingBlock: QUQFOY_clean_sbu_1, # of connection points: 4
#     Node 18, Type 0, BuildingBlock: QUQFOY_clean_sbu_1, # of connection points: 4
#     Node 19, Type 0, BuildingBlock: QUQFOY_clean_sbu_1, # of connection points: 4
#     Node 20, Type 0, BuildingBlock: QUQFOY_clean_sbu_1, # of connection points: 4
#     Node 21, Type 0, BuildingBlock: QUQFOY_clean_sbu_1, # of connection points: 4
#     Node 22, Type 0, BuildingBlock: QUQFOY_clean_sbu_1, # of connection points: 4
#     Node 23, Type 0, BuildingBlock: QUQFOY_clean_sbu_1, # of connection points: 4
#     Edge 24, Type (0, 0), BuildingBlock: XUDNAN_clean_linker_2, # of connection points: 2
#     Edge 25, Type (0, 0), BuildingBlock: XUDNAN_clean_linker_2, # of connection points: 2
#     Edge 26, Type (0, 0), BuildingBlock: XUDNAN_clean_linker_2, # of connection points: 2
#     Edge 27, Type (0, 0), BuildingBlock: XUDNAN_clean_linker_2, # of connection points: 2
#     Edge 28, Type (0, 0), BuildingBlock: XUDNAN_clean_linker_2, # of connection points: 2
#     Edge 29, Type (0, 0), BuildingBlock: XUDNAN_clean_linker_2, # of connection points: 2
#     Edge 30, Type (0, 0), BuildingBlock: XUDNAN_clean_linker_2, # of connection points: 2
#     Edge 31, Type (0, 0), BuildingBlock: XUDNAN_clean_linker_2, # of connection points: 2
#     Edge 32, Type (0, 0), BuildingBlock: XUDNAN_clean_linker_2, # of connection points: 2
#     Edge 33, Type (0, 0), BuildingBlock: XUDNAN_clean_linker_2, # of connection points: 2
#     Edge 34, Type (0, 0), BuildingBlock: XUDNAN_clean_linker_2, # of connection points: 2
#     Edge 35, Type (0, 0), BuildingBlock: XUDNAN_clean_linker_2, # of connection points: 2
#     Edge 36, Type (0, 0), BuildingBlock: XUDNAN_clean_linker_2, # of connection points: 2
#     Edge 37, Type (0, 0), BuildingBlock: XUDNAN_clean_linker_2, # of connection points: 2
#     Edge 38, Type (0, 0), BuildingBlock: XUDNAN_clean_linker_2, # of connection points: 2
#     Edge 39, Type (0, 0), BuildingBlock: XUDNAN_clean_linker_2, # of connection points: 2
#     Edge 40, Type (0, 0), BuildingBlock: XUDNAN_clean_linker_2, # of connection points: 2
#     Edge 41, Type (0, 0), BuildingBlock: XUDNAN_clean_linker_2, # of connection points: 2
#     Edge 42, Type (0, 0), BuildingBlock: XUDNAN_clean_linker_2, # of connection points: 2
#     Edge 43, Type (0, 0), BuildingBlock: XUDNAN_clean_linker_2, # of connection points: 2
#     Edge 44, Type (0, 0), BuildingBlock: XUDNAN_clean_linker_2, # of connection points: 2
#     Edge 45, Type (0, 0), BuildingBlock: XUDNAN_clean_linker_2, # of connection points: 2
#     Edge 46, Type (0, 0), BuildingBlock: XUDNAN_clean_linker_2, # of connection points: 2
#     Edge 47, Type (0, 0), BuildingBlock: XUDNAN_clean_linker_2, # of connection points: 2
#     Edge 48, Type (0, 0), BuildingBlock: XUDNAN_clean_linker_2, # of connection points: 2
#     Edge 49, Type (0, 0), BuildingBlock: XUDNAN_clean_linker_2, # of connection points: 2
#     Edge 50, Type (0, 0), BuildingBlock: XUDNAN_clean_linker_2, # of connection points: 2
#     Edge 51, Type (0, 0), BuildingBlock: XUDNAN_clean_linker_2, # of connection points: 2
#     Edge 52, Type (0, 0), BuildingBlock: XUDNAN_clean_linker_2, # of connection points: 2
#     Edge 53, Type (0, 0), BuildingBlock: XUDNAN_clean_linker_2, # of connection points: 2
#     Edge 54, Type (0, 0), BuildingBlock: XUDNAN_clean_linker_2, # of connection points: 2
#     Edge 55, Type (0, 0), BuildingBlock: XUDNAN_clean_linker_2, # of connection points: 2
#     Edge 56, Type (0, 0), BuildingBlock: XUDNAN_clean_linker_2, # of connection points: 2
#     Edge 57, Type (0, 0), BuildingBlock: XUDNAN_clean_linker_2, # of connection points: 2
#     Edge 58, Type (0, 0), BuildingBlock: XUDNAN_clean_linker_2, # of connection points: 2
#     Edge 59, Type (0, 0), BuildingBlock: XUDNAN_clean_linker_2, # of connection points: 2
#     Edge 60, Type (0, 0), BuildingBlock: XUDNAN_clean_linker_2, # of connection points: 2
#     Edge 61, Type (0, 0), BuildingBlock: XUDNAN_clean_linker_2, # of connection points: 2
#     Edge 62, Type (0, 0), BuildingBlock: XUDNAN_clean_linker_2, # of connection points: 2
#     Edge 63, Type (0, 0), BuildingBlock: XUDNAN_clean_linker_2, # of connection points: 2
#     Edge 64, Type (0, 0), BuildingBlock: XUDNAN_clean_linker_2, # of connection points: 2
#     Edge 65, Type (0, 0), BuildingBlock: XUDNAN_clean_linker_2, # of connection points: 2
#     Edge 66, Type (0, 0), BuildingBlock: XUDNAN_clean_linker_2, # of connection points: 2
#     Edge 67, Type (0, 0), BuildingBlock: XUDNAN_clean_linker_2, # of connection points: 2
#     Edge 68, Type (0, 0), BuildingBlock: XUDNAN_clean_linker_2, # of connection points: 2
#     Edge 69, Type (0, 0), BuildingBlock: XUDNAN_clean_linker_2, # of connection points: 2
#     Edge 70, Type (0, 0), BuildingBlock: XUDNAN_clean_linker_2, # of connection points: 2
#     Edge 71, Type (0, 0), BuildingBlock: XUDNAN_clean_linker_2, # of connection points: 2
# Relax obj value: 0.037
# Max RMSD: 0.060
# Mean RMSD: 0.060
data_MOF--net-gme--node1-QUQFOY_clean_sbu_1--edge1-XUDNAN_clean_linker_2
_symmetry_space_group_name_H-M    P1
_symmetry_Int_Tables_number       1
_symmetry_cell_setting            triclinic
loop_
_symmetry_equiv_pos_as_xyz
'x, y, z'
_cell_length_a     63.1393
_cell_length_b     63.146874
_cell_length_c     55.891327
_cell_angle_alpha  90.00417
_cell_angle_beta   90.000926
_cell_angle_gamma 120.01119
loop_
_atom_site_label
_atom_site_type_symbol
_atom_site_fract_x
_atom_site_fract_y
_atom_site_fract_z
_atom_type_partial_charge
O0 O 0.41114 0.08986 0.1667 0.0
Cd1 Cd 0.42891 0.10418 0.13455 0.0
Cd2 Cd 0.41052 0.05382 0.12789 0.0
O3 O 0.39573 0.05002 0.1621 0.0
O4 O 0.44162 0.13988 0.13973 0.0
O5 O 0.41504 0.11903 0.1114 0.0
C6 C 0.42807 0.13954 0.1224 0.0
C7 C 0.38878 0.0402 0.09186 0.0
C8 C 0.39904 0.06817 0.17483 0.0
C9 C 0.46473 0.08574 0.12542 0.0
O10 O 0.44698 0.06388 0.12619 0.0
O11 O 0.46091 0.10366 0.12732 0.0
O12 O 0.39133 0.02532 0.10585 0.0
O13 O 0.39734 0.06249 0.09911 0.0
O14 O 0.33059 0.41545 0.66845 0.0
Cd15 Cd 0.33046 0.42952 0.63507 0.0
Cd16 Cd 0.36167 0.41075 0.62616 0.0
O17 O 0.35193 0.39726 0.66078 0.0
O18 O 0.30678 0.44128 0.64019 0.0
O19 O 0.30032 0.41269 0.61387 0.0
C20 C 0.29281 0.42603 0.6242 0.0
C21 C 0.35884 0.38563 0.59401 0.0
C22 C 0.33982 0.40262 0.67534 0.0
C23 C 0.38327 0.46504 0.62172 0.0
O24 O 0.38757 0.44742 0.62272 0.0
O25 O 0.36166 0.46122 0.62472 0.0
O26 O 0.37531 0.39173 0.61036 0.0
O27 O 0.3433 0.39317 0.59624 0.0
O28 O 0.91384 0.33064 0.16737 0.0
Cd29 Cd 0.89959 0.33058 0.13405 0.0
Cd30 Cd 0.94922 0.36029 0.12455 0.0
O31 O 0.95324 0.35051 0.15898 0.0
O32 O 0.86414 0.30684 0.13904 0.0
O33 O 0.88653 0.30041 0.11298 0.0
C34 C 0.86564 0.29279 0.12329 0.0
C35 C 0.97036 0.35618 0.09216 0.0
C36 C 0.93592 0.3391 0.17386 0.0
C37 C 0.91787 0.38341 0.12041 0.0
O38 O 0.93957 0.38703 0.1213 0.0
O39 O 0.89967 0.36205 0.1235 0.0
O40 O 0.98146 0.37275 0.10827 0.0
O41 O 0.94717 0.34131 0.09472 0.0
O42 O 0.58253 0.9115 0.67031 0.0
Cd43 Cd 0.56744 0.89967 0.63686 0.0
Cd44 Cd 0.59813 0.94765 0.62667 0.0
O45 O 0.61186 0.94854 0.66069 0.0
O46 O 0.55275 0.86346 0.63838 0.0
O47 O 0.58355 0.88692 0.61442 0.0
C48 C 0.56883 0.86543 0.62296 0.0
C49 C 0.62327 0.96642 0.5935 0.0
C50 C 0.60115 0.93168 0.67618 0.0
C51 C 0.54356 0.92844 0.62395 0.0
O52 O 0.56509 0.94681 0.62464 0.0
O53 O 0.5401 0.90695 0.62681 0.0
O54 O 0.62201 0.97909 0.61096 0.0
O55 O 0.61124 0.94287 0.5954 0.0
O56 O 0.67327 0.58255 0.16872 0.0
Cd57 Cd 0.6713 0.5678 0.1353 0.0
Cd58 Cd 0.65231 0.59758 0.12444 0.0
O59 O 0.66416 0.61088 0.1589 0.0
O60 O 0.69361 0.55401 0.13755 0.0
O61 O 0.70067 0.58464 0.1135 0.0
C62 C 0.70778 0.5703 0.12232 0.0
C63 C 0.65739 0.62304 0.09177 0.0
C64 C 0.67065 0.60057 0.17453 0.0
C65 C 0.61887 0.54256 0.12082 0.0
O66 O 0.62115 0.56374 0.12146 0.0
O67 O 0.63729 0.53986 0.12442 0.0
O68 O 0.6431 0.62058 0.10933 0.0
O69 O 0.67004 0.61215 0.0933 0.0
O70 O 0.09569 0.68527 0.66642 0.0
Cd71 Cd 0.10855 0.68077 0.63385 0.0
Cd72 Cd 0.05689 0.648 0.62945 0.0
O73 O 0.05567 0.66095 0.6635 0.0
O74 O 0.14449 0.70331 0.63813 0.0
O75 O 0.12327 0.70919 0.61033 0.0
C76 C 0.14398 0.7165 0.62087 0.0
C77 C 0.03485 0.64937 0.59625 0.0
C78 C 0.07438 0.67612 0.67538 0.0
C79 C 0.08922 0.62607 0.62585 0.0
O80 O 0.0674 0.62194 0.62767 0.0
O81 O 0.10722 0.64784 0.62676 0.0
O82 O 0.02411 0.63436 0.6137 0.0
O83 O 0.05807 0.66454 0.5981 0.0
O84 O 0.91441 0.58729 0.35652 0.0
Cd85 Cd 0.89875 0.57218 0.38926 0.0
Cd86 Cd 0.94762 0.59106 0.40014 0.0
O87 O 0.9536 0.60643 0.366 0.0
O88 O 0.86341 0.56092 0.3837 0.0
O89 O 0.88539 0.58869 0.41078 0.0
C90 C 0.86463 0.57575 0.40016 0.0
C91 C 0.96157 0.61227 0.43641 0.0
C92 C 0.93671 0.60084 0.3506 0.0
C93 C 0.91595 0.53667 0.40213 0.0
O94 O 0.93775 0.55457 0.40175 0.0
O95 O 0.898 0.54024 0.39914 0.0
O96 O 0.97619 0.6095 0.42226 0.0
O97 O 0.93939 0.60436 0.42916 0.0
O98 O 0.32885 0.91275 0.85498 0.0
Cd99 Cd 0.33513 0.89992 0.88675 0.0
Cd100 Cd 0.35509 0.952 0.8966 0.0
O101 O 0.34158 0.95178 0.8624 0.0
O102 O 0.32142 0.86448 0.87934 0.0
O103 O 0.30534 0.87716 0.90686 0.0
C104 C 0.30468 0.85925 0.89509 0.0
C105 C 0.34987 0.97103 0.93048 0.0
C106 C 0.33216 0.93345 0.84832 0.0
C107 C 0.38926 0.93154 0.89888 0.0
O108 O 0.38665 0.95023 0.89831 0.0
O109 O 0.37097 0.91017 0.89601 0.0
O110 O 0.36323 0.9836 0.91266 0.0
O111 O 0.33801 0.94747 0.92847 0.0
O112 O 0.42511 0.33371 0.35503 0.0
Cd113 Cd 0.44198 0.3367 0.38755 0.0
Cd114 Cd 0.41051 0.35355 0.3994 0.0
O115 O 0.39602 0.34159 0.3654 0.0
O116 O 0.46239 0.32149 0.38062 0.0
O117 O 0.432 0.30559 0.40654 0.0
C118 C 0.44925 0.30429 0.39546 0.0
C119 C 0.38877 0.34311 0.43537 0.0
C120 C 0.40652 0.33551 0.34957 0.0
C121 C 0.46444 0.38945 0.40206 0.0
O122 O 0.44292 0.38625 0.40145 0.0
O123 O 0.46799 0.37154 0.39868 0.0
O124 O 0.3873 0.3579 0.4204 0.0
O125 O 0.40107 0.33269 0.42895 0.0
O126 O 0.08812 0.41924 0.85331 0.0
Cd127 Cd 0.10205 0.4355 0.88601 0.0
Cd128 Cd 0.05429 0.40706 0.89784 0.0
O129 O 0.05026 0.39245 0.86372 0.0
O130 O 0.13807 0.44918 0.8828 0.0
O131 O 0.11533 0.41982 0.90838 0.0
C132 C 0.13649 0.43377 0.89883 0.0
C133 C 0.04179 0.38481 0.93346 0.0
C134 C 0.06698 0.40176 0.84789 0.0
C135 C 0.07574 0.46182 0.89993 0.0
O136 O 0.05673 0.44073 0.90027 0.0
O137 O 0.09663 0.46414 0.89586 0.0
O138 O 0.02608 0.38498 0.91879 0.0
O139 O 0.0645 0.39583 0.92697 0.0
O140 O 0.67316 0.08456 0.35667 0.0
Cd141 Cd 0.6732 0.09974 0.38951 0.0
Cd142 Cd 0.64373 0.05114 0.39947 0.0
O143 O 0.6527 0.04524 0.36541 0.0
O144 O 0.69706 0.13508 0.38395 0.0
O145 O 0.70319 0.11323 0.4109 0.0
C146 C 0.71089 0.13392 0.40019 0.0
C147 C 0.65296 0.03744 0.43456 0.0
C148 C 0.66439 0.06236 0.3504 0.0
C149 C 0.62033 0.08204 0.40235 0.0
O150 O 0.61666 0.06033 0.40188 0.0
O151 O 0.64177 0.10013 0.39934 0.0
O152 O 0.63489 0.02272 0.42111 0.0
O153 O 0.66651 0.05978 0.4274 0.0
O154 O 0.58663 0.67659 0.85626 0.0
Cd155 Cd 0.57147 0.6767 0.8891 0.0
Cd156 Cd 0.59046 0.64683 0.89949 0.0
O157 O 0.60503 0.6557 0.86518 0.0
O158 O 0.5599 0.70056 0.88384 0.0
O159 O 0.58774 0.7064 0.91086 0.0
C160 C 0.57462 0.71409 0.9004 0.0
C161 C 0.61363 0.65515 0.93447 0.0
C162 C 0.5998 0.66749 0.85007 0.0
C163 C 0.53611 0.62396 0.90238 0.0
O164 O 0.55405 0.62011 0.90223 0.0
O165 O 0.53961 0.64537 0.89888 0.0
O166 O 0.60984 0.63718 0.92065 0.0
O167 O 0.60524 0.66916 0.92772 0.0
O168 O 0.58309 0.91265 0.8569 0.0
Cd169 Cd 0.5682 0.90106 0.89044 0.0
Cd170 Cd 0.59858 0.94924 0.90008 0.0
O171 O 0.61232 0.94988 0.86611 0.0
O172 O 0.55342 0.86485 0.88884 0.0
O173 O 0.58429 0.88818 0.91278 0.0
C174 C 0.56952 0.86673 0.90419 0.0
C175 C 0.62359 0.96822 0.93325 0.0
C176 C 0.60161 0.93282 0.85081 0.0
C177 C 0.54401 0.92967 0.90291 0.0
O178 O 0.56544 0.94819 0.90195 0.0
O179 O 0.54079 0.90823 0.90042 0.0
O180 O 0.62235 0.98078 0.91568 0.0
O181 O 0.61163 0.94465 0.93146 0.0
O182 O 0.67385 0.58526 0.35602 0.0
Cd183 Cd 0.67159 0.57098 0.38971 0.0
Cd184 Cd 0.65273 0.60084 0.39937 0.0
O185 O 0.66493 0.61392 0.36493 0.0
O186 O 0.69322 0.55642 0.38766 0.0
O187 O 0.70105 0.58743 0.41147 0.0
C188 C 0.70765 0.57264 0.4028 0.0
C189 C 0.65834 0.62608 0.43234 0.0
C190 C 0.67139 0.60325 0.34968 0.0
C191 C 0.61891 0.54611 0.40329 0.0
O192 O 0.62122 0.56727 0.40206 0.0
O193 O 0.63741 0.54338 0.4005 0.0
O194 O 0.64428 0.62425 0.41479 0.0
O195 O 0.67054 0.61472 0.43059 0.0
O196 O 0.09656 0.67903 0.85419 0.0
Cd197 Cd 0.11008 0.67287 0.88559 0.0
Cd198 Cd 0.05959 0.65407 0.89688 0.0
O199 O 0.05796 0.66707 0.86299 0.0
O200 O 0.14559 0.6873 0.87811 0.0
O201 O 0.13238 0.70255 0.906 0.0
C202 C 0.15048 0.70375 0.89412 0.0
C203 C 0.04763 0.66295 0.93347 0.0
C204 C 0.07577 0.67601 0.84829 0.0
C205 C 0.0788 0.619 0.89792 0.0
O206 O 0.06036 0.62201 0.89803 0.0
O207 O 0.10021 0.63706 0.89456 0.0
O208 O 0.03161 0.64856 0.91809 0.0
O209 O 0.0704 0.67396 0.92713 0.0
O210 O 0.41313 0.08961 0.35628 0.0
Cd211 Cd 0.43209 0.10464 0.38781 0.0
Cd212 Cd 0.41048 0.05097 0.39492 0.0
O213 O 0.39685 0.04957 0.36057 0.0
O214 O 0.45162 0.13962 0.37791 0.0
O215 O 0.42438 0.12773 0.40679 0.0
C216 C 0.44072 0.14525 0.39393 0.0
C217 C 0.38623 0.03036 0.42827 0.0
C218 C 0.40056 0.06799 0.34809 0.0
C219 C 0.4646 0.08182 0.39915 0.0
O220 O 0.44665 0.06014 0.39747 0.0
O221 O 0.46143 0.10012 0.39709 0.0
O222 O 0.3902 0.01878 0.41143 0.0
O223 O 0.39509 0.05365 0.42569 0.0
O224 O 0.32836 0.41794 0.85598 0.0
Cd225 Cd 0.32777 0.43336 0.8885 0.0
Cd226 Cd 0.35741 0.41422 0.89992 0.0
O227 O 0.34889 0.39938 0.86574 0.0
O228 O 0.30395 0.44481 0.88237 0.0
O229 O 0.29772 0.41719 0.90978 0.0
C230 C 0.29013 0.43015 0.89882 0.0
C231 C 0.34921 0.39121 0.93499 0.0
C232 C 0.3374 0.40459 0.85026 0.0
C233 C 0.38035 0.46863 0.90234 0.0
O234 O 0.38409 0.45063 0.90254 0.0
O235 O 0.35901 0.46523 0.89849 0.0
O236 O 0.36724 0.39511 0.92122 0.0
O237 O 0.33507 0.39942 0.92816 0.0
O238 O 0.91323 0.32877 0.35513 0.0
Cd239 Cd 0.89879 0.3285 0.38841 0.0
Cd240 Cd 0.94834 0.35913 0.39785 0.0
O241 O 0.95261 0.34908 0.36362 0.0
O242 O 0.86346 0.3042 0.38357 0.0
O243 O 0.88629 0.2986 0.40978 0.0
C244 C 0.8653 0.29054 0.39955 0.0
C245 C 0.97022 0.35688 0.43055 0.0
C246 C 0.93537 0.33749 0.3487 0.0
C247 C 0.91605 0.38121 0.40143 0.0
O248 O 0.93789 0.38527 0.40046 0.0
O249 O 0.89811 0.35964 0.39865 0.0
O250 O 0.98085 0.37295 0.41392 0.0
O251 O 0.94715 0.34135 0.42828 0.0
O252 O 0.09033 0.41835 0.66752 0.0
Cd253 Cd 0.10566 0.43403 0.63492 0.0
Cd254 Cd 0.05731 0.41581 0.62509 0.0
O255 O 0.05108 0.39947 0.65851 0.0
O256 O 0.14083 0.44463 0.64025 0.0
O257 O 0.11846 0.41735 0.61294 0.0
C258 C 0.13922 0.42972 0.62371 0.0
C259 C 0.04388 0.39462 0.58902 0.0
C260 C 0.06811 0.4046 0.67355 0.0
C261 C 0.08886 0.47013 0.62368 0.0
O262 O 0.06702 0.45229 0.62416 0.0
O263 O 0.10677 0.46639 0.626 0.0
O264 O 0.02904 0.3973 0.60294 0.0
O265 O 0.06613 0.40296 0.59627 0.0
O266 O 0.67333 0.08689 0.17011 0.0
Cd267 Cd 0.67327 0.10265 0.13765 0.0
Cd268 Cd 0.64335 0.05433 0.1268 0.0
O269 O 0.65206 0.04776 0.16071 0.0
O270 O 0.69771 0.13783 0.14321 0.0
O271 O 0.70276 0.11575 0.11565 0.0
C272 C 0.71099 0.13646 0.12649 0.0
C273 C 0.65229 0.04041 0.09166 0.0
C274 C 0.66413 0.06452 0.17595 0.0
C275 C 0.62056 0.0859 0.12499 0.0
O276 O 0.61668 0.06411 0.12458 0.0
O277 O 0.64203 0.10373 0.12858 0.0
O278 O 0.63404 0.02589 0.10502 0.0
O279 O 0.66611 0.06268 0.09888 0.0
O280 O 0.58614 0.67547 0.66885 0.0
Cd281 Cd 0.57102 0.67542 0.63592 0.0
Cd282 Cd 0.5912 0.64663 0.62556 0.0
O283 O 0.60559 0.65561 0.65993 0.0
O284 O 0.55891 0.69885 0.64111 0.0
O285 O 0.58719 0.70527 0.61439 0.0
C286 C 0.57377 0.71266 0.62478 0.0
C287 C 0.61454 0.65569 0.59062 0.0
C288 C 0.59979 0.66694 0.67506 0.0
C289 C 0.53676 0.62254 0.62228 0.0
O290 O 0.55507 0.61929 0.62264 0.0
O291 O 0.53964 0.64373 0.62576 0.0
O292 O 0.61115 0.63778 0.60432 0.0
O293 O 0.60566 0.66924 0.59748 0.0
O294 O 0.91614 0.58879 0.16859 0.0
Cd295 Cd 0.9013 0.57445 0.1354 0.0
Cd296 Cd 0.95185 0.59424 0.1253 0.0
O297 O 0.95558 0.60764 0.16014 0.0
O298 O 0.8657 0.5622 0.14073 0.0
O299 O 0.88746 0.59086 0.11434 0.0
C300 C 0.86667 0.57725 0.12468 0.0
C301 C 0.9744 0.61901 0.09279 0.0
C302 C 0.93831 0.60193 0.17511 0.0
C303 C 0.91941 0.53971 0.1213 0.0
O304 O 0.94124 0.55758 0.12196 0.0
O305 O 0.90142 0.54313 0.12473 0.0
O306 O 0.98465 0.61313 0.10945 0.0
O307 O 0.95135 0.61163 0.09496 0.0
O308 O 0.3298 0.91573 0.66827 0.0
Cd309 Cd 0.33592 0.90442 0.63557 0.0
Cd310 Cd 0.35651 0.95386 0.62776 0.0
O311 O 0.34315 0.95496 0.66172 0.0
O312 O 0.3148 0.86805 0.63726 0.0
O313 O 0.30821 0.89068 0.61158 0.0
C314 C 0.30134 0.86942 0.62068 0.0
C315 C 0.34706 0.96475 0.59088 0.0
C316 C 0.33338 0.93637 0.67547 0.0
C317 C 0.38997 0.93276 0.62573 0.0
O318 O 0.38794 0.95178 0.62667 0.0
O319 O 0.37115 0.91159 0.62768 0.0
O320 O 0.36182 0.98126 0.60572 0.0
O321 O 0.33612 0.94222 0.59795 0.0
O322 O 0.42297 0.33231 0.16848 0.0
Cd323 Cd 0.43763 0.33463 0.13494 0.0
Cd324 Cd 0.40801 0.3539 0.12476 0.0
O325 O 0.39498 0.34211 0.15929 0.0
O326 O 0.45155 0.31243 0.13683 0.0
O327 O 0.42097 0.30553 0.11278 0.0
C328 C 0.43538 0.29843 0.12142 0.0
C329 C 0.38229 0.34852 0.09226 0.0
C330 C 0.4052 0.33522 0.17464 0.0
C331 C 0.46299 0.38721 0.12086 0.0
O332 O 0.44185 0.38503 0.12158 0.0
O333 O 0.4656 0.36873 0.12434 0.0
O334 O 0.38484 0.36292 0.10974 0.0
O335 O 0.39328 0.33594 0.09378 0.0
H336 H 0.40118 0.03778 0.31278 0.0
H337 H 0.38121 0.09303 0.32685 0.0
H338 H 0.37234 0.09388 0.284 0.0
H339 H 0.43358 0.06449 0.26122 0.0
H340 H 0.42487 0.03664 0.245 0.0
H341 H 0.42501 0.03652 0.27717 0.0
H342 H 0.37964 0.00208 0.27749 0.0
H343 H 0.37938 1.00203 0.24522 0.0
H344 H 0.3572 0.00633 0.26157 0.0
H345 H 0.37168 0.0937 0.23984 0.0
H346 H 0.37967 0.09281 0.19678 0.0
H347 H 0.40024 0.0378 0.2097 0.0
C348 C 0.394 0.0493 0.30689 0.0
C349 C 0.39139 0.06501 0.32319 0.0
C350 C 0.38301 0.08065 0.31471 0.0
C351 C 0.37788 0.08121 0.2904 0.0
C352 C 0.38133 0.0661 0.27463 0.0
C353 C 0.38912 0.05035 0.28245 0.0
C354 C 0.39415 0.0383 0.26131 0.0
C355 C 0.42099 0.04436 0.26118 0.0
C356 C 0.37654 0.01053 0.26141 0.0
C357 C 0.3888 0.0504 0.24047 0.0
C358 C 0.38107 0.06609 0.24867 0.0
C359 C 0.37717 0.08108 0.23316 0.0
C360 C 0.38178 0.08048 0.20872 0.0
C361 C 0.39011 0.06492 0.19985 0.0
C362 C 0.39311 0.04927 0.21589 0.0
H363 H 0.31704 0.4132 0.71126 0.0
H364 H 0.35913 0.37719 0.69784 0.0
H365 H 0.35971 0.36997 0.74129 0.0
H366 H 0.34873 0.44489 0.76193 0.0
H367 H 0.32241 0.44204 0.77748 0.0
H368 H 0.32274 0.44155 0.74533 0.0
H369 H 0.28251 0.39972 0.74528 0.0
H370 H 0.28201 0.40011 0.77752 0.0
H371 H 0.28089 0.37454 0.76201 0.0
H372 H 0.359 0.3704 0.78691 0.0
H373 H 0.3572 0.37856 0.82995 0.0
H374 H 0.31559 0.41428 0.81277 0.0
C375 C 0.32597 0.40333 0.71731 0.0
C376 C 0.33795 0.39567 0.70101 0.0
C377 C 0.34969 0.38312 0.70989 0.0
C378 C 0.3501 0.37892 0.73457 0.0
C379 C 0.33856 0.38723 0.75016 0.0
C380 C 0.32658 0.39904 0.7418 0.0
C381 C 0.31703 0.4077 0.76219 0.0
C382 C 0.32842 0.4357 0.7617 0.0
C383 C 0.28894 0.39474 0.76172 0.0
C384 C 0.32605 0.39954 0.78341 0.0
C385 C 0.33821 0.38753 0.77619 0.0
C386 C 0.34924 0.37951 0.79273 0.0
C387 C 0.34812 0.38423 0.81717 0.0
C388 C 0.33617 0.39698 0.82487 0.0
C389 C 0.32468 0.40429 0.80763 0.0
H390 H 0.90304 0.31741 0.21036 0.0
H391 H 0.98095 0.35697 0.1954 0.0
H392 H 0.9895 0.3573 0.23862 0.0
H393 H 0.90543 0.34979 0.26133 0.0
H394 H 0.88172 0.32397 0.27723 0.0
H395 H 0.88183 0.32419 0.24507 0.0
H396 H 0.88171 0.28308 0.2446 0.0
H397 H 0.88152 0.28269 0.27684 0.0
H398 H 0.90506 0.2805 0.26069 0.0
H399 H 0.98936 0.35681 0.28413 0.0
H400 H 0.98053 0.35563 0.32738 0.0
H401 H 0.90271 0.31634 0.31191 0.0
C402 C 0.92193 0.32573 0.21603 0.0
C403 C 0.94132 0.33709 0.19938 0.0
C404 C 0.96576 0.34802 0.20774 0.0
C405 C 0.9708 0.34828 0.23228 0.0
C406 C 0.95122 0.33738 0.24824 0.0
C407 C 0.92726 0.32616 0.24038 0.0
C408 C 0.90948 0.31723 0.26114 0.0
C409 C 0.8937 0.32954 0.26119 0.0
C410 C 0.8935 0.28921 0.26079 0.0
C411 C 0.92714 0.32578 0.28199 0.0
C412 C 0.95114 0.33712 0.27426 0.0
C413 C 0.97062 0.34767 0.29036 0.0
C414 C 0.96542 0.34692 0.31492 0.0
C415 C 0.94092 0.33581 0.32316 0.0
C416 C 0.92165 0.32476 0.30635 0.0
H417 H 0.58247 0.89893 0.71304 0.0
H418 H 0.63695 0.97415 0.69715 0.0
H419 H 0.64627 0.98186 0.74036 0.0
H420 H 0.55858 0.91113 0.76337 0.0
H421 H 0.55324 0.88429 0.77971 0.0
H422 H 0.55328 0.88402 0.74755 0.0
H423 H 0.58683 0.87179 0.7477 0.0
H424 H 0.58683 0.87192 0.77995 0.0
H425 H 0.61492 0.89034 0.76381 0.0
H426 H 0.64638 0.98218 0.78604 0.0
H427 H 0.63727 0.97505 0.82934 0.0
H428 H 0.58274 0.89961 0.81434 0.0
C429 C 0.59673 0.91694 0.7185 0.0
C430 C 0.60902 0.93591 0.70162 0.0
C431 C 0.62737 0.95925 0.70969 0.0
C432 C 0.6328 0.9638 0.73422 0.0
C433 C 0.61987 0.94478 0.75041 0.0
C434 C 0.60234 0.92175 0.74279 0.0
C435 C 0.58976 0.90482 0.76368 0.0
C436 C 0.56209 0.89554 0.76356 0.0
C437 C 0.59491 0.88346 0.76379 0.0
C438 C 0.60239 0.92207 0.78434 0.0
C439 C 0.61991 0.94497 0.77644 0.0
C440 C 0.63293 0.96421 0.7924 0.0
C441 C 0.62763 0.95999 0.81698 0.0
C442 C 0.60933 0.93675 0.82533 0.0
C443 C 0.59696 0.91755 0.80868 0.0
H444 H 0.68542 0.58405 0.31321 0.0
H445 H 0.66334 0.63776 0.32771 0.0
H446 H 0.66417 0.64582 0.28426 0.0
H447 H 0.72566 0.61572 0.26203 0.0
H448 H 0.71645 0.58742 0.24646 0.0
H449 H 0.71666 0.58806 0.2787 0.0
H450 H 0.6711 0.55391 0.27922 0.0
H451 H 0.67072 0.55323 0.24705 0.0
H452 H 0.64891 0.55836 0.26307 0.0
H453 H 0.6639 0.64507 0.23845 0.0
H454 H 0.66262 0.63561 0.1953 0.0
H455 H 0.68482 0.58235 0.21179 0.0
C456 C 0.68118 0.59786 0.30739 0.0
C457 C 0.67439 0.61033 0.32399 0.0
C458 C 0.66875 0.62807 0.31542 0.0
C459 C 0.66917 0.63277 0.29074 0.0
C460 C 0.67543 0.61971 0.27487 0.0
C461 C 0.6815 0.60273 0.28295 0.0
C462 C 0.68613 0.58999 0.26238 0.0
C463 C 0.71281 0.59565 0.2624 0.0
C464 C 0.66814 0.56224 0.26297 0.0
C465 C 0.68113 0.60196 0.24137 0.0
C466 C 0.67522 0.61923 0.24882 0.0
C467 C 0.66879 0.63177 0.23246 0.0
C468 C 0.66811 0.62628 0.20796 0.0
C469 C 0.67368 0.60828 0.20004 0.0
C470 C 0.68061 0.59633 0.2171 0.0
H471 H 0.04311 0.64629 0.71069 0.0
H472 H 0.102 0.72006 0.69692 0.0
H473 H 0.10386 0.72972 0.73987 0.0
H474 H 0.01431 0.66159 0.76237 0.0
H475 H 0.00803 0.63429 0.77842 0.0
H476 H 0.00792 0.63434 0.74615 0.0
H477 H 0.03988 0.62006 0.74593 0.0
H478 H 0.04015 0.62005 0.7781 0.0
H479 H 0.0683 0.63773 0.76182 0.0
H480 H 0.10434 0.72969 0.78407 0.0
H481 H 0.1031 0.71993 0.82702 0.0
H482 H 0.04368 0.64643 0.81367 0.0
C483 C 0.0557 0.66472 0.71667 0.0
C484 C 0.07216 0.68258 0.70042 0.0
C485 C 0.08908 0.70621 0.70902 0.0
C486 C 0.09023 0.71188 0.73339 0.0
C487 C 0.07435 0.69372 0.7491 0.0
C488 C 0.05728 0.67062 0.74115 0.0
C489 C 0.04442 0.65372 0.76219 0.0
C490 C 0.01704 0.6455 0.76228 0.0
C491 C 0.04844 0.6316 0.76199 0.0
C492 C 0.05755 0.67067 0.78312 0.0
C493 C 0.07452 0.69376 0.77506 0.0
C494 C 0.09068 0.71191 0.79065 0.0
C495 C 0.08986 0.70624 0.81501 0.0
C496 C 0.07286 0.68271 0.82367 0.0
C497 C 0.05617 0.66485 0.80759 0.0
H498 H 0.90552 0.59093 0.21177 0.0
H499 H 0.98342 0.62763 0.19705 0.0
H500 H 0.99191 0.63483 0.24042 0.0
H501 H 0.90849 0.62946 0.26265 0.0
H502 H 0.88443 0.60386 0.2785 0.0
H503 H 0.8848 0.60405 0.24625 0.0
H504 H 0.88366 0.56245 0.2462 0.0
H505 H 0.88336 0.56216 0.27837 0.0
H506 H 0.90672 0.55948 0.26242 0.0
H507 H 0.99153 0.63462 0.28627 0.0
H508 H 0.98226 0.62692 0.3295 0.0
H509 H 0.90465 0.59044 0.31342 0.0
C510 C 0.92442 0.60092 0.21752 0.0
C511 C 0.9438 0.60881 0.20083 0.0
C512 C 0.96822 0.62152 0.20936 0.0
C513 C 0.97323 0.6257 0.23401 0.0
C514 C 0.95364 0.61719 0.24998 0.0
C515 C 0.92972 0.6052 0.24198 0.0
C516 C 0.91184 0.59652 0.26268 0.0
C517 C 0.89649 0.60924 0.2625 0.0
C518 C 0.89544 0.5685 0.26239 0.0
C519 C 0.92937 0.60495 0.28366 0.0
C520 C 0.95343 0.61705 0.27607 0.0
C521 C 0.97274 0.62541 0.29236 0.0
C522 C 0.9673 0.62098 0.31693 0.0
C523 C 0.94272 0.60817 0.32503 0.0
C524 C 0.92365 0.60048 0.30801 0.0
H525 H 0.36033 0.96712 0.81397 0.0
H526 H 0.28926 0.90332 0.82639 0.0
H527 H 0.27956 0.90174 0.78343 0.0
H528 H 0.34187 0.99404 0.76294 0.0
H529 H 0.36995 0.00311 0.747 0.0
H530 H 0.36961 0.00245 0.77926 0.0
H531 H 0.38778 0.97368 0.7787 0.0
H532 H 0.38809 0.97417 0.74653 0.0
H533 H 0.37229 0.9454 0.76218 0.0
H534 H 0.27978 0.90272 0.7393 0.0
H535 H 0.29008 0.90589 0.69639 0.0
H536 H 0.36112 0.96897 0.71087 0.0
C537 C 0.34238 0.9535 0.80768 0.0
C538 C 0.32525 0.93567 0.82352 0.0
C539 C 0.3024 0.91736 0.81458 0.0
C540 C 0.29674 0.91636 0.79021 0.0
C541 C 0.3142 0.9337 0.77487 0.0
C542 C 0.33658 0.95201 0.78317 0.0
C543 C 0.35315 0.96637 0.76239 0.0
C544 C 0.35899 0.99308 0.76293 0.0
C545 C 0.37671 0.96479 0.76247 0.0
C546 C 0.33691 0.95273 0.74119 0.0
C547 C 0.3144 0.93419 0.74891 0.0
C548 C 0.29709 0.91752 0.733 0.0
C549 C 0.30309 0.91945 0.70866 0.0
C550 C 0.32611 0.938 0.70029 0.0
C551 C 0.34305 0.95519 0.71671 0.0
H552 H 0.42375 0.32005 0.31261 0.0
H553 H 0.37194 0.34423 0.32868 0.0
H554 H 0.36276 0.34312 0.28545 0.0
H555 H 0.44885 0.35578 0.26215 0.0
H556 H 0.45283 0.33338 0.24586 0.0
H557 H 0.45288 0.33318 0.27802 0.0
H558 H 0.4178 0.28801 0.27805 0.0
H559 H 0.41772 0.28803 0.24581 0.0
H560 H 0.38994 0.27968 0.26201 0.0
H561 H 0.36254 0.34319 0.23958 0.0
H562 H 0.37117 0.34426 0.19623 0.0
H563 H 0.42315 0.32004 0.21128 0.0
C564 C 0.4101 0.32469 0.30719 0.0
C565 C 0.39852 0.33217 0.32414 0.0
C566 C 0.38094 0.33827 0.3161 0.0
C567 C 0.37562 0.33771 0.29156 0.0
C568 C 0.38787 0.3308 0.2753 0.0
C569 C 0.4046 0.32421 0.2829 0.0
C570 C 0.41652 0.31899 0.26199 0.0
C571 C 0.44441 0.33637 0.26202 0.0
C572 C 0.4101 0.29208 0.26197 0.0
C573 C 0.40445 0.32434 0.24132 0.0
C574 C 0.38777 0.33087 0.24924 0.0
C575 C 0.37535 0.3378 0.23323 0.0
C576 C 0.38037 0.33834 0.20862 0.0
C577 C 0.39779 0.33217 0.20024 0.0
C578 C 0.40959 0.32471 0.21695 0.0
H579 H 0.10052 0.41546 0.71028 0.0
H580 H 0.02282 0.37594 0.69437 0.0
H581 H 0.01388 0.36655 0.73745 0.0
H582 H 0.09923 0.37635 0.76013 0.0
H583 H 0.12214 0.40226 0.77659 0.0
H584 H 0.12224 0.40279 0.74435 0.0
H585 H 0.12076 0.44308 0.74511 0.0
H586 H 0.12059 0.44265 0.77726 0.0
H587 H 0.09656 0.44408 0.76126 0.0
H588 H 0.01365 0.36513 0.78319 0.0
H589 H 0.0221 0.37286 0.82655 0.0
H590 H 0.09992 0.41385 0.81149 0.0
C591 C 0.08159 0.40435 0.71567 0.0
C592 C 0.06238 0.39633 0.69883 0.0
C593 C 0.03788 0.38217 0.70687 0.0
C594 C 0.03263 0.37671 0.73132 0.0
C595 C 0.05207 0.38544 0.74749 0.0
C596 C 0.07607 0.39887 0.73989 0.0
C597 C 0.09366 0.40796 0.76078 0.0
C598 C 0.1103 0.39666 0.76044 0.0
C599 C 0.10876 0.4361 0.76111 0.0
C600 C 0.07583 0.39819 0.78144 0.0
C601 C 0.05193 0.38491 0.77353 0.0
C602 C 0.03232 0.37524 0.78954 0.0
C603 C 0.0373 0.37969 0.81416 0.0
C604 C 0.06168 0.39393 0.82249 0.0
C605 C 0.08108 0.40279 0.80581 0.0
H606 H 0.6879 0.09495 0.31418 0.0
H607 H 0.64414 0.01717 0.32863 0.0
H608 H 0.643 0.00868 0.28528 0.0
H609 H 0.65627 0.09539 0.26409 0.0
H610 H 0.68262 0.11815 0.24803 0.0
H611 H 0.68287 0.11775 0.28018 0.0
H612 H 0.72233 0.11473 0.27965 0.0
H613 H 0.72227 0.11523 0.2474 0.0
H614 H 0.72283 0.09053 0.263 0.0
H615 H 0.64286 0.00925 0.23968 0.0
H616 H 0.64382 0.01882 0.19662 0.0
H617 H 0.68769 0.09623 0.21283 0.0
C618 C 0.67851 0.07606 0.30837 0.0
C619 C 0.66618 0.05673 0.32491 0.0
C620 C 0.65387 0.03231 0.31638 0.0
C621 C 0.65313 0.0273 0.29176 0.0
C622 C 0.66496 0.0469 0.27592 0.0
C623 C 0.67759 0.07078 0.28398 0.0
C624 C 0.68722 0.08873 0.26338 0.0
C625 C 0.6766 0.106 0.26396 0.0
C626 C 0.71533 0.10315 0.26336 0.0
C627 C 0.67739 0.0713 0.2424 0.0
C628 C 0.66485 0.04722 0.24989 0.0
C629 C 0.65295 0.02803 0.23363 0.0
C630 C 0.65359 0.03365 0.20919 0.0
C631 C 0.6659 0.05827 0.20124 0.0
C632 C 0.67829 0.07719 0.21817 0.0
H633 H 0.58965 0.68932 0.71169 0.0
H634 H 0.62571 0.6476 0.69658 0.0
H635 H 0.63343 0.64656 0.73986 0.0
H636 H 0.62888 0.72497 0.76239 0.0
H637 H 0.60346 0.72364 0.7784 0.0
H638 H 0.60351 0.72349 0.74615 0.0
H639 H 0.5617 0.68323 0.74621 0.0
H640 H 0.56156 0.6832 0.77838 0.0
H641 H 0.55857 0.65708 0.76233 0.0
H642 H 0.63339 0.64665 0.78556 0.0
H643 H 0.62565 0.64795 0.8288 0.0
H644 H 0.5897 0.68968 0.81321 0.0
C645 C 0.59963 0.68037 0.71734 0.0
C646 C 0.60715 0.66862 0.70061 0.0
C647 C 0.61989 0.65688 0.70895 0.0
C648 C 0.62436 0.65619 0.73354 0.0
C649 C 0.61615 0.66749 0.74957 0.0
C650 C 0.60421 0.67951 0.74171 0.0
C651 C 0.59575 0.68881 0.76249 0.0
C652 C 0.60868 0.71689 0.76234 0.0
C653 C 0.56774 0.67739 0.76233 0.0
C654 C 0.60416 0.67957 0.78334 0.0
C655 C 0.61613 0.66754 0.77562 0.0
C656 C 0.62432 0.65633 0.79177 0.0
C657 C 0.61985 0.65716 0.81633 0.0
C658 C 0.60715 0.66901 0.82454 0.0
C659 C 0.59966 0.68067 0.80769 0.0
H660 H 0.4553 0.18506 0.14183 0.0
H661 H 0.39854 0.14464 0.0893 0.0
H662 H 0.39573 0.18176 0.08121 0.0
H663 H 0.42944 0.21829 0.16624 0.0
H664 H 0.45832 0.24588 0.17087 0.0
H665 H 0.45683 0.21668 0.17111 0.0
H666 H 0.4898 0.23153 0.13782 0.0
H667 H 0.49141 0.26083 0.13749 0.0
H668 H 0.48501 0.24338 0.11026 0.0
H669 H 0.39755 0.2232 0.08107 0.0
H670 H 0.40405 0.26471 0.08862 0.0
H671 H 0.46001 0.27725 0.14083 0.0
C672 C 0.44243 0.18399 0.1284 0.0
C673 C 0.42715 0.16191 0.11616 0.0
C674 C 0.4105 0.16137 0.09884 0.0
C675 C 0.40879 0.18237 0.09413 0.0
C676 C 0.42397 0.20378 0.10678 0.0
C677 C 0.44055 0.2047 0.12348 0.0
C678 C 0.45421 0.22952 0.13536 0.0
C679 C 0.4494 0.22746 0.16249 0.0
C680 C 0.48174 0.24205 0.1299 0.0
C681 C 0.4425 0.24243 0.12304 0.0
C682 C 0.42515 0.2274 0.10654 0.0
C683 C 0.41127 0.23517 0.09377 0.0
C684 C 0.41509 0.25878 0.09817 0.0
C685 C 0.43265 0.27433 0.11519 0.0
C686 C 0.44664 0.26598 0.1275 0.0
H687 H 0.18458 0.45397 0.64391 0.0
H688 H 0.14185 0.39814 0.59132 0.0
H689 H 0.1771 0.39188 0.58417 0.0
H690 H 0.24294 0.47969 0.61336 0.0
H691 H 0.25981 0.48502 0.64084 0.0
H692 H 0.23163 0.48568 0.64065 0.0
H693 H 0.21436 0.45275 0.67402 0.0
H694 H 0.24245 0.45194 0.67427 0.0
H695 H 0.21376 0.42419 0.66946 0.0
H696 H 0.21722 0.39075 0.58444 0.0
H697 H 0.25793 0.39508 0.59193 0.0
H698 H 0.2732 0.45171 0.64429 0.0
C699 C 0.18261 0.44056 0.63069 0.0
C700 C 0.16045 0.42658 0.61813 0.0
C701 C 0.15869 0.40913 0.60111 0.0
C702 C 0.17861 0.40545 0.59694 0.0
C703 C 0.20014 0.41942 0.60989 0.0
C704 C 0.2022 0.43669 0.62635 0.0
C705 C 0.22689 0.4489 0.63853 0.0
C706 C 0.24116 0.47645 0.633 0.0
C707 C 0.22419 0.44415 0.66567 0.0
C708 C 0.23843 0.43569 0.62657 0.0
C709 C 0.22286 0.41879 0.61003 0.0
C710 C 0.22957 0.40405 0.59726 0.0
C711 C 0.25272 0.40662 0.60162 0.0
C712 C 0.2688 0.42376 0.61864 0.0
C713 C 0.26145 0.4385 0.63107 0.0
H714 H 0.82064 0.27238 0.14415 0.0
H715 H 0.86212 0.25791 0.09126 0.0
H716 H 0.82644 0.2165 0.08479 0.0
H717 H 0.79138 0.2137 0.17046 0.0
H718 H 0.76295 0.21318 0.17568 0.0
H719 H 0.7912 0.2419 0.17489 0.0
H720 H 0.77367 0.25746 0.14169 0.0
H721 H 0.7453 0.22878 0.14242 0.0
H722 H 0.76174 0.23985 0.11465 0.0
H723 H 0.78595 0.17562 0.08559 0.0
H724 H 0.74513 0.13966 0.0937 0.0
H725 H 0.73144 0.18199 0.14625 0.0
C726 C 0.82224 0.26066 0.131 0.0
C727 C 0.84417 0.26844 0.11814 0.0
C728 C 0.84546 0.25238 0.10126 0.0
C729 C 0.82529 0.22883 0.09747 0.0
C730 C 0.804 0.22169 0.11069 0.0
C731 C 0.80242 0.23724 0.12708 0.0
C732 C 0.77794 0.22514 0.13966 0.0
C733 C 0.78107 0.22337 0.16677 0.0
C734 C 0.76383 0.23861 0.13427 0.0
C735 C 0.76595 0.20022 0.12799 0.0
C736 C 0.78112 0.19849 0.11124 0.0
C737 C 0.77392 0.17687 0.09859 0.0
C738 C 0.75072 0.15654 0.10331 0.0
C739 C 0.73506 0.15799 0.12058 0.0
C740 C 0.74288 0.18023 0.13288 0.0
H741 H 0.54662 0.73136 0.64347 0.0
H742 H 0.60492 0.7477 0.59282 0.0
H743 H 0.60849 0.78793 0.58461 0.0
H744 H 0.51847 0.76071 0.61075 0.0
H745 H 0.51136 0.77168 0.63763 0.0
H746 H 0.51267 0.74384 0.63831 0.0
H747 H 0.54463 0.76145 0.67253 0.0
H748 H 0.54339 0.7893 0.67199 0.0
H749 H 0.57228 0.79039 0.66835 0.0
H750 H 0.60698 0.82769 0.58393 0.0
H751 H 0.60069 0.8629 0.59098 0.0
H752 H 0.54303 0.81941 0.64169 0.0
C753 C 0.56001 0.74325 0.63046 0.0
C754 C 0.57547 0.73634 0.61876 0.0
C755 C 0.59282 0.75256 0.60196 0.0
C756 C 0.59496 0.77544 0.59717 0.0
C757 C 0.57951 0.78173 0.60922 0.0
C758 C 0.56233 0.766 0.62546 0.0
C759 C 0.54848 0.77725 0.63675 0.0
C760 C 0.52113 0.76249 0.63048 0.0
C761 C 0.55245 0.77975 0.66401 0.0
C762 C 0.56075 0.80196 0.6246 0.0
C763 C 0.57854 0.80425 0.6087 0.0
C764 C 0.59293 0.82596 0.59618 0.0
C765 C 0.58922 0.84586 0.60028 0.0
C766 C 0.57126 0.8439 0.61676 0.0
C767 C 0.55672 0.82149 0.62876 0.0
H768 H 0.72859 0.5452 0.14151 0.0
H769 H 0.74229 0.60265 0.09073 0.0
H770 H 0.7841 0.60964 0.08405 0.0
H771 H 0.78662 0.57506 0.16851 0.0
H772 H 0.78831 0.54765 0.17279 0.0
H773 H 0.75901 0.54595 0.17193 0.0
H774 H 0.74514 0.51416 0.1376 0.0
H775 H 0.77439 0.51567 0.13842 0.0
H776 H 0.76339 0.52144 0.11081 0.0
H777 H 0.82562 0.61168 0.08486 0.0
H778 H 0.86248 0.60841 0.09297 0.0
H779 H 0.82085 0.54992 0.14355 0.0
C780 C 0.74019 0.55901 0.12867 0.0
C781 C 0.73208 0.57329 0.11653 0.0
C782 C 0.74804 0.59139 0.10014 0.0
C783 C 0.77183 0.5955 0.09625 0.0
C784 C 0.77936 0.58134 0.10886 0.0
C785 C 0.76392 0.56339 0.12468 0.0
C786 C 0.7766 0.55138 0.13687 0.0
C787 C 0.7777 0.55525 0.16413 0.0
C788 C 0.76414 0.52404 0.13054 0.0
C789 C 0.80173 0.56551 0.12569 0.0
C790 C 0.80303 0.58263 0.10947 0.0
C791 C 0.82472 0.59821 0.09742 0.0
C792 C 0.84557 0.59624 0.10215 0.0
C793 C 0.84459 0.5789 0.11886 0.0
C794 C 0.82227 0.56332 0.1306 0.0
H795 H 0.28091 0.82361 0.64002 0.0
H796 H 0.26827 0.86587 0.58654 0.0
H797 H 0.22733 0.83022 0.57842 0.0
H798 H 0.24838 0.76423 0.60957 0.0
H799 H 0.23646 0.74787 0.63724 0.0
H800 H 0.26549 0.77589 0.63692 0.0
H801 H 0.24979 0.79391 0.6695 0.0
H802 H 0.22072 0.76604 0.66984 0.0
H803 H 0.22207 0.7948 0.66429 0.0
H804 H 0.18615 0.79038 0.57857 0.0
H805 H 0.14911 0.75047 0.58695 0.0
H806 H 0.18946 0.73527 0.64055 0.0
C807 C 0.26978 0.82529 0.62625 0.0
C808 C 0.2779 0.84752 0.6138 0.0
C809 C 0.26253 0.84898 0.5962 0.0
C810 C 0.23923 0.82882 0.59147 0.0
C811 C 0.23161 0.80732 0.60445 0.0
C812 C 0.24654 0.80546 0.6214 0.0
C813 C 0.2337 0.78096 0.63397 0.0
C814 C 0.24679 0.76638 0.62912 0.0
C815 C 0.23144 0.78413 0.66099 0.0
C816 C 0.20903 0.76939 0.62175 0.0
C817 C 0.20813 0.78472 0.60465 0.0
C818 C 0.18677 0.77816 0.59176 0.0
C819 C 0.16582 0.75546 0.59664 0.0
C820 C 0.16636 0.73967 0.61434 0.0
C821 C 0.1884 0.74679 0.62679 0.0
H822 H 0.81873 0.54926 0.38131 0.0
H823 H 0.86125 0.60715 0.43215 0.0
H824 H 0.82494 0.61134 0.44039 0.0
H825 H 0.78587 0.57566 0.3566 0.0
H826 H 0.75786 0.54695 0.35296 0.0
H827 H 0.78678 0.54783 0.35228 0.0
H828 H 0.77221 0.51578 0.38642 0.0
H829 H 0.74322 0.51483 0.38723 0.0
H830 H 0.76134 0.52169 0.41405 0.0
H831 H 0.78392 0.61039 0.44121 0.0
H832 H 0.7425 0.60444 0.43451 0.0
H833 H 0.72756 0.54676 0.38354 0.0
C834 C 0.82044 0.56271 0.39435 0.0
C835 C 0.84286 0.57788 0.40611 0.0
C836 C 0.84425 0.59529 0.42296 0.0
C837 C 0.82371 0.59778 0.42776 0.0
C838 C 0.80191 0.58261 0.41567 0.0
C839 C 0.8002 0.56537 0.39937 0.0
C840 C 0.77505 0.55178 0.38814 0.0
C841 C 0.77649 0.55581 0.36089 0.0
C842 C 0.7622 0.5244 0.39434 0.0
C843 C 0.76287 0.56425 0.40039 0.0
C844 C 0.77854 0.58193 0.41629 0.0
C845 C 0.77146 0.59643 0.42896 0.0
C846 C 0.74789 0.59291 0.42505 0.0
C847 C 0.73169 0.57504 0.40862 0.0
C848 C 0.73934 0.56041 0.39642 0.0
H849 H 0.16703 0.7501 0.91243 0.0
H850 H 0.1917 0.70257 0.88292 0.0
H851 H 0.23431 0.73644 0.88431 0.0
H852 H 0.20665 0.80167 0.87895 0.0
H853 H 0.21264 0.82384 0.90212 0.0
H854 H 0.1843 0.79518 0.90208 0.0
H855 H 0.19297 0.78639 0.94515 0.0
H856 H 0.22136 0.81512 0.94536 0.0
H857 H 0.22129 0.78707 0.95156 0.0
H858 H 0.27327 0.7757 0.88463 0.0
H859 H 0.3067 0.81852 0.88374 0.0
H860 H 0.25801 0.84187 0.91301 0.0
C861 C 0.1815 0.74671 0.90689 0.0
C862 C 0.17606 0.72361 0.89776 0.0
C863 C 0.19542 0.72006 0.89005 0.0
C864 C 0.21972 0.73917 0.89084 0.0
C865 C 0.22447 0.76184 0.89939 0.0
C866 C 0.20599 0.76578 0.90736 0.0
C867 C 0.21607 0.79254 0.91375 0.0
C868 C 0.20421 0.80397 0.8983 0.0
C869 C 0.21272 0.79545 0.94055 0.0
C870 C 0.24292 0.80305 0.90752 0.0
C871 C 0.2473 0.78487 0.89951 0.0
C872 C 0.27018 0.79005 0.8912 0.0
C873 C 0.28905 0.81446 0.89071 0.0
C874 C 0.28505 0.83352 0.8985 0.0
C875 C 0.26174 0.82764 0.9074 0.0
H876 H 0.41223 0.16381 0.41152 0.0
H877 H 0.48396 0.18508 0.38263 0.0
H878 H 0.49499 0.22832 0.38415 0.0
H879 H 0.40355 0.2059 0.37791 0.0
H880 H 0.38804 0.21285 0.40101 0.0
H881 H 0.3865 0.18362 0.40073 0.0
H882 H 0.40336 0.19091 0.44402 0.0
H883 H 0.40493 0.22021 0.44443 0.0
H884 H 0.43184 0.2182 0.45085 0.0
H885 H 0.49739 0.26838 0.38505 0.0
H886 H 0.49074 0.30357 0.38454 0.0
H887 H 0.4174 0.2578 0.41249 0.0
C888 C 0.43042 0.17767 0.40606 0.0
C889 C 0.44732 0.17111 0.39711 0.0
C890 C 0.47074 0.18968 0.38956 0.0
C891 C 0.47724 0.21433 0.39046 0.0
C892 C 0.46011 0.22023 0.39889 0.0
C893 C 0.43717 0.20255 0.40658 0.0
C894 C 0.42165 0.21397 0.41292 0.0
C895 C 0.39858 0.20346 0.3972 0.0
C896 C 0.41506 0.21062 0.43965 0.0
C897 C 0.4393 0.24065 0.40702 0.0
C898 C 0.46145 0.24376 0.39924 0.0
C899 C 0.48026 0.26629 0.3914 0.0
C900 C 0.47626 0.28617 0.39112 0.0
C901 C 0.45363 0.2835 0.39861 0.0
C902 C 0.43504 0.26049 0.40707 0.0
H903 H 0.27069 0.45593 0.87842 0.0
H904 H 0.25536 0.39981 0.9314 0.0
H905 H 0.2149 0.39593 0.93902 0.0
H906 H 0.24103 0.48464 0.9093 0.0
H907 H 0.22969 0.49054 0.88198 0.0
H908 H 0.2577 0.48953 0.88174 0.0
H909 H 0.24005 0.45626 0.84871 0.0
H910 H 0.21202 0.45718 0.84883 0.0
H911 H 0.2113 0.42861 0.85371 0.0
H912 H 0.17497 0.3971 0.93921 0.0
H913 H 0.13959 0.40302 0.93179 0.0
H914 H 0.18209 0.45861 0.87892 0.0
C915 C 0.25896 0.44293 0.89179 0.0
C916 C 0.26623 0.42819 0.90435 0.0
C917 C 0.25022 0.41135 0.9216 0.0
C918 C 0.22721 0.40904 0.92606 0.0
C919 C 0.22058 0.42378 0.91319 0.0
C920 C 0.23608 0.44044 0.89645 0.0
C921 C 0.22451 0.45363 0.88442 0.0
C922 C 0.2391 0.48122 0.88969 0.0
C923 C 0.22181 0.44861 0.85732 0.0
C924 C 0.1999 0.44163 0.89675 0.0
C925 C 0.19792 0.42453 0.91338 0.0
C926 C 0.17643 0.4106 0.92636 0.0
C927 C 0.15643 0.41409 0.92204 0.0
C928 C 0.15807 0.43136 0.90487 0.0
C929 C 0.18025 0.44541 0.89233 0.0
H930 H 0.73067 0.17917 0.37993 0.0
H931 H 0.74584 0.13774 0.43227 0.0
H932 H 0.78681 0.17388 0.43935 0.0
H933 H 0.78967 0.21021 0.35424 0.0
H934 H 0.78943 0.23833 0.34956 0.0
H935 H 0.76112 0.20965 0.34977 0.0
H936 H 0.74446 0.22581 0.38326 0.0
H937 H 0.77274 0.25459 0.38313 0.0
H938 H 0.76166 0.2375 0.41056 0.0
H939 H 0.82723 0.21483 0.43915 0.0
H940 H 0.86267 0.25617 0.43174 0.0
H941 H 0.81983 0.26963 0.3796 0.0
C942 C 0.74246 0.17766 0.39306 0.0
C943 C 0.73501 0.15561 0.40559 0.0
C944 C 0.75113 0.15447 0.42251 0.0
C945 C 0.77442 0.1749 0.42664 0.0
C946 C 0.78125 0.19632 0.41376 0.0
C947 C 0.76562 0.19776 0.39736 0.0
C948 C 0.77733 0.22248 0.38527 0.0
C949 C 0.77952 0.22001 0.35811 0.0
C950 C 0.76321 0.23588 0.3909 0.0
C951 C 0.80213 0.23476 0.39721 0.0
C952 C 0.80414 0.21952 0.41366 0.0
C953 C 0.82575 0.22693 0.4264 0.0
C954 C 0.84579 0.25043 0.42209 0.0
C955 C 0.84404 0.26619 0.40515 0.0
C956 C 0.8218 0.25814 0.39276 0.0
H957 H 0.5475 0.73299 0.88209 0.0
H958 H 0.60581 0.74884 0.93256 0.0
H959 H 0.60934 0.78898 0.9413 0.0
H960 H 0.57304 0.79227 0.85785 0.0
H961 H 0.5441 0.79113 0.85443 0.0
H962 H 0.54543 0.76334 0.85347 0.0
H963 H 0.5135 0.74529 0.88769 0.0
H964 H 0.51212 0.77308 0.88879 0.0
H965 H 0.51929 0.76185 0.91544 0.0
H966 H 0.60778 0.82872 0.94251 0.0
H967 H 0.60141 0.86395 0.93596 0.0
H968 H 0.54371 0.82087 0.88514 0.0
C969 C 0.56091 0.74476 0.89516 0.0
C970 C 0.57638 0.73775 0.90666 0.0
C971 C 0.59372 0.75379 0.92357 0.0
C972 C 0.59583 0.77661 0.92865 0.0
C973 C 0.58036 0.783 0.9168 0.0
C974 C 0.56318 0.76743 0.90046 0.0
C975 C 0.54928 0.77874 0.88945 0.0
C976 C 0.55321 0.78154 0.86219 0.0
C977 C 0.52193 0.76385 0.89573 0.0
C978 C 0.5615 0.80331 0.90186 0.0
C979 C 0.57932 0.80549 0.91766 0.0
C980 C 0.5937 0.82708 0.93035 0.0
C981 C 0.58994 0.84699 0.92654 0.0
C982 C 0.57196 0.84515 0.91016 0.0
C983 C 0.55742 0.82285 0.89799 0.0
H984 H 0.34594 0.95383 0.97635 0.0
H985 H 0.35642 0.01688 0.93581 0.0
H986 H 0.36286 0.03991 0.97345 0.0
H987 H 0.31657 0.96318 0.03012 0.0
H988 H 0.3327 0.95393 0.05032 0.0
H989 H 0.32504 0.94113 0.02062 0.0
H990 H 0.37062 0.95521 0.01273 0.0
H991 H 0.37843 0.96812 0.0423 0.0
H992 H 0.39333 0.98699 0.01659 0.0
H993 H 0.37176 0.05732 0.01512 0.0
H994 H 0.38439 0.06843 0.05717 0.0
H995 H 0.37021 0.9948 0.07079 0.0
C996 C 0.34878 0.97221 0.97549 0.0
C997 C 0.35018 0.98342 0.95317 0.0
C998 C 0.35495 0.00784 0.95271 0.0
C999 C 0.3586 0.02105 0.97402 0.0
C1000 C 0.35769 0.0097 0.99571 0.0
C1001 C 0.35295 0.98583 0.99662 0.0
C1002 C 0.35556 0.97882 0.022 0.0
C1003 C 0.331 0.95803 0.03131 0.0
C1004 C 0.37568 0.97189 0.02348 0.0
C1005 C 0.36298 0.00259 0.03511 0.0
C1006 C 0.3637 0.02003 0.01968 0.0
C1007 C 0.37102 0.04372 0.0274 0.0
C1008 C 0.37816 0.04987 0.05138 0.0
C1009 C 0.37823 0.03252 0.06742 0.0
C1010 C 0.37016 0.00845 0.05912 0.0
H1011 H 0.36386 0.36441 0.45462 0.0
H1012 H 0.39333 0.31733 0.47252 0.0
H1013 H 0.3842 0.31927 0.51513 0.0
H1014 H 0.38854 0.40372 0.50215 0.0
H1015 H 0.36287 0.40818 0.50738 0.0
H1016 H 0.36806 0.4001 0.478 0.0
H1017 H 0.32435 0.36243 0.47759 0.0
H1018 H 0.31892 0.37051 0.50698 0.0
H1019 H 0.31475 0.34051 0.50163 0.0
H1020 H 0.37841 0.33187 0.55605 0.0
H1021 H 0.37351 0.35178 0.59204 0.0
H1022 H 0.3459 0.38913 0.54795 0.0
C1023 C 0.36771 0.35388 0.46739 0.0
C1024 C 0.37922 0.3406 0.46014 0.0
C1025 C 0.38434 0.32746 0.47753 0.0
C1026 C 0.37924 0.32848 0.50183 0.0
C1027 C 0.36869 0.34244 0.50847 0.0
C1028 C 0.36259 0.35458 0.49171 0.0
C1029 C 0.35307 0.36976 0.5037 0.0
C1030 C 0.3691 0.39705 0.49743 0.0
C1031 C 0.32617 0.36023 0.49708 0.0
C1032 C 0.35566 0.36501 0.52984 0.0
C1033 C 0.3646 0.34909 0.53218 0.0
C1034 C 0.37082 0.34384 0.55445 0.0
C1035 C 0.36806 0.35529 0.57479 0.0
C1036 C 0.35892 0.37162 0.5728 0.0
C1037 C 0.35224 0.37616 0.55006 0.0
H1038 H 0.99556 0.36185 0.95272 0.0
H1039 H 0.07138 0.38651 0.97015 0.0
H1040 H 0.06014 0.37687 0.01266 0.0
H1041 H 0.98329 0.38728 1.00107 0.0
H1042 H 0.95246 0.36277 1.00612 0.0
H1043 H 0.96554 0.36777 0.97666 0.0
H1044 H 0.95664 0.32306 0.97522 0.0
H1045 H 0.9433 0.31782 1.00468 0.0
H1046 H 0.96788 0.3118 0.9988 0.0
H1047 H 0.04215 0.37152 0.05366 0.0
H1048 H 0.01805 0.36779 0.08988 0.0
H1049 H 0.9534 0.34449 0.04618 0.0
C1050 C 0.00969 0.36451 0.96535 0.0
C1051 C 0.03437 0.37485 0.95802 0.0
C1052 C 0.05234 0.37844 0.97523 0.0
C1053 C 0.04612 0.37303 0.99946 0.0
C1054 C 0.02178 0.36369 1.0062 0.0
C1055 C 0.00375 0.35905 0.98959 0.0
C1056 C 0.97932 0.35071 1.00172 0.0
C1057 C 0.9696 0.36818 0.99606 0.0
C1058 C 0.96069 0.32427 0.99468 0.0
C1059 C 0.98663 0.35235 0.02779 0.0
C1060 C 0.0112 0.35977 0.02997 0.0
C1061 C 0.02277 0.36508 0.05219 0.0
C1062 C 0.00898 0.363 0.07265 0.0
C1063 C 0.98381 0.35541 0.07083 0.0
C1064 C 0.97244 0.34959 0.04813 0.0
H1065 H 0.62744 0.9916 0.45444 0.0
H1066 H 0.68629 0.06533 0.46893 0.0
H1067 H 0.68873 0.05337 0.51045 0.0
H1068 H 0.59713 0.98264 0.50797 0.0
H1069 H 0.58817 0.95086 0.51138 0.0
H1070 H 0.59342 0.96414 0.48201 0.0
H1071 H 0.62522 0.95055 0.47357 0.0
H1072 H 0.62002 0.93714 0.50299 0.0
H1073 H 0.65053 0.95954 0.49383 0.0
H1074 H 0.68041 0.03532 0.55169 0.0
H1075 H 0.66312 0.012 0.58904 0.0
H1076 H 0.61108 0.94936 0.54769 0.0
C1077 C 0.64128 0.00508 0.46615 0.0
C1078 C 0.65675 0.02941 0.45836 0.0
C1079 C 0.67435 0.04656 0.47439 0.0
C1080 C 0.67589 0.03992 0.49803 0.0
C1081 C 0.65993 0.01596 0.50532 0.0
C1082 C 0.64317 0.9987 0.48976 0.0
C1083 C 0.6269 0.97472 0.50251 0.0
C1084 C 0.59981 0.96769 0.50087 0.0
C1085 C 0.63092 0.95428 0.49263 0.0
C1086 C 0.63648 0.98145 0.52787 0.0
C1087 C 0.65566 0.00529 0.52907 0.0
C1088 C 0.66584 0.01646 0.55089 0.0
C1089 C 0.6559 0.0031 0.57202 0.0
C1090 C 0.63613 0.97875 0.5712 0.0
C1091 C 0.62672 0.96766 0.54879 0.0
H1092 H 0.66143 0.6115 0.04544 0.0
H1093 H 0.65078 0.66242 0.08861 0.0
H1094 H 0.64377 0.67999 0.05196 0.0
H1095 H 0.68943 0.65173 0.99187 0.0
H1096 H 0.673 0.6266 0.97146 0.0
H1097 H 0.68173 0.6212 1.00054 0.0
H1098 H 0.63657 0.58897 1.00934 0.0
H1099 H 0.62769 0.59436 0.98042 0.0
H1100 H 0.61339 0.59758 1.00701 0.0
H1101 H 0.63364 0.68908 1.01115 0.0
H1102 H 0.61906 0.68755 0.96985 0.0
H1103 H 0.634 0.62913 0.95325 0.0
C1104 C 0.65854 0.62697 0.04705 0.0
C1105 C 0.65718 0.63601 0.06979 0.0
C1106 C 0.65225 0.65551 0.07132 0.0
C1107 C 0.64829 0.66561 0.05059 0.0
C1108 C 0.64905 0.65585 0.02844 0.0
C1109 C 0.65401 0.63691 0.02653 0.0
C1110 C 0.65078 0.62772 1.00096 0.0
C1111 C 0.67519 0.63208 0.9906 0.0
C1112 C 0.63092 0.60056 0.99935 0.0
C1113 C 0.64262 0.64398 0.98893 0.0
C1114 C 0.64221 0.66041 1.005 0.0
C1115 C 0.63416 0.67649 0.99835 0.0
C1116 C 0.62591 0.67549 0.97481 0.0
C1117 C 0.62543 0.65829 0.95822 0.0
C1118 C 0.63432 0.64265 0.96539 0.0
H1119 H 0.05091 0.65602 0.54976 0.0
H1120 H 0.98717 0.6379 0.59315 0.0
H1121 H 0.96263 0.63109 0.55647 0.0
H1122 H 0.03697 0.68504 0.499 0.0
H1123 H 0.04751 0.67151 0.47703 0.0
H1124 H 0.06095 0.67859 0.50648 0.0
H1125 H 0.05056 0.63363 0.51168 0.0
H1126 H 0.03708 0.62643 0.48232 0.0
H1127 H 0.0194 0.60932 0.50788 0.0
H1128 H 0.94433 0.62362 0.51517 0.0
H1129 H 0.93282 0.61275 0.47285 0.0
H1130 H 0.00774 0.63301 0.45613 0.0
C1131 C 0.03197 0.65132 0.55147 0.0
C1132 C 0.02102 0.64797 0.57428 0.0
C1133 C 0.99595 0.64085 0.57585 0.0
C1134 C 0.9819 0.63701 0.55511 0.0
C1135 C 0.99308 0.64002 0.53286 0.0
C1136 C 0.01752 0.64684 0.5309 0.0
C1137 C 0.02439 0.6462 0.50498 0.0
C1138 C 0.04359 0.67187 0.49637 0.0
C1139 C 0.03338 0.6278 0.50152 0.0
C1140 C 0.99995 0.63757 0.49273 0.0
C1141 C 0.98225 0.63457 0.5091 0.0
C1142 C 0.95809 0.62605 0.50219 0.0
C1143 C 0.95172 0.61997 0.47805 0.0
C1144 C 0.96934 0.62206 0.46106 0.0
C1145 C 0.99385 0.63135 0.46858 0.0
H1146 H 0.61097 0.9515 0.97909 0.0
H1147 H 0.66353 0.01374 0.93765 0.0
H1148 H 0.68051 0.03733 0.97492 0.0
H1149 H 0.5967 0.98495 0.01759 0.0
H1150 H 0.59261 0.96681 0.04392 0.0
H1151 H 0.58786 0.95313 0.01477 0.0
H1152 H 0.61956 0.93961 0.02404 0.0
H1153 H 0.62431 0.95314 0.05337 0.0
H1154 H 0.64993 0.96206 0.03356 0.0
H1155 H 0.68854 0.0557 0.01602 0.0
H1156 H 0.68583 0.068 0.05733 0.0
H1157 H 0.62663 0.99448 0.07196 0.0
C1158 C 0.62668 0.96976 0.97799 0.0
C1159 C 0.63631 0.98067 0.95557 0.0
C1160 C 0.65614 0.00497 0.9547 0.0
C1161 C 0.66592 0.01848 0.97578 0.0
C1162 C 0.65553 0.0075 0.9976 0.0
C1163 C 0.63633 0.98366 0.99887 0.0
C1164 C 0.62644 0.97721 0.02417 0.0
C1165 C 0.59931 0.97012 0.02515 0.0
C1166 C 0.6303 0.95679 0.03439 0.0
C1167 C 0.64256 1.00132 0.03675 0.0
C1168 C 0.65955 0.0184 0.02123 0.0
C1169 C 0.67553 0.04239 0.02842 0.0
C1170 C 0.67385 0.04921 0.05194 0.0
C1171 C 0.65608 0.03222 0.06795 0.0
C1172 C 0.64057 0.00786 0.06026 0.0
H1173 H 0.66224 0.61368 0.47837 0.0
H1174 H 0.65221 0.66571 0.43641 0.0
H1175 H 0.6453 0.68274 0.4735 0.0
H1176 H 0.61422 0.59941 0.51686 0.0
H1177 H 0.62835 0.59556 0.54326 0.0
H1178 H 0.63724 0.59062 0.51417 0.0
H1179 H 0.68246 0.62245 0.52331 0.0
H1180 H 0.67371 0.62739 0.55257 0.0
H1181 H 0.69034 0.65287 0.53259 0.0
H1182 H 0.63501 0.69108 0.51456 0.0
H1183 H 0.62027 0.68882 0.55591 0.0
H1184 H 0.63483 0.62989 0.57113 0.0
C1185 C 0.65952 0.62927 0.47712 0.0
C1186 C 0.65829 0.63877 0.45459 0.0
C1187 C 0.65358 0.65844 0.45353 0.0
C1188 C 0.64967 0.66824 0.47451 0.0
C1189 C 0.65028 0.65801 0.49644 0.0
C1190 C 0.65506 0.63893 0.49789 0.0
C1191 C 0.65169 0.62925 0.52329 0.0
C1192 C 0.63168 0.60211 0.52445 0.0
C1193 C 0.676 0.63323 0.53354 0.0
C1194 C 0.64365 0.64541 0.53573 0.0
C1195 C 0.64341 0.66219 0.52003 0.0
C1196 C 0.63542 0.67822 0.52708 0.0
C1197 C 0.62706 0.67679 0.55064 0.0
C1198 C 0.62645 0.65925 0.56686 0.0
C1199 C 0.63528 0.64368 0.5593 0.0
H1200 H 0.9582 0.61474 0.04641 0.0
H1201 H 0.02295 0.65284 0.09069 0.0
H1202 H 0.04789 0.67241 0.05468 0.0
H1203 H 0.98682 0.60016 1.00102 0.0
H1204 H 0.96996 0.6034 0.97665 0.0
H1205 H 0.95654 0.59545 1.006 0.0
H1206 H 0.94981 0.63269 1.00538 0.0
H1207 H 0.96324 0.64076 0.97596 0.0
H1208 H 0.97541 0.66282 0.99989 0.0
H1209 H 0.06641 0.68531 0.01372 0.0
H1210 H 0.0776 0.68815 0.97106 0.0
H1211 H 1.00126 0.64009 0.95288 0.0
C1212 C 0.9775 0.62777 0.04854 0.0
C1213 C 0.9886 0.63264 0.07139 0.0
C1214 C 0.01406 0.64906 0.07338 0.0
C1215 C 0.02835 0.66031 0.05303 0.0
C1216 C 0.01699 0.6548 0.03068 0.0
C1217 C 0.99215 0.6388 0.02828 0.0
C1218 C 0.98498 0.63394 1.00207 0.0
C1219 C 0.97393 0.60662 0.99609 0.0
C1220 C 0.96731 0.6431 0.99544 0.0
C1221 C 0.0097 0.64929 0.99014 0.0
C1222 C 0.02784 0.66153 1.00697 0.0
C1223 C 0.05231 0.67599 1.00038 0.0
C1224 C 0.05849 0.67753 0.97604 0.0
C1225 C 0.04035 0.66447 0.95849 0.0
C1226 C 0.01557 0.65056 0.96574 0.0
H1227 H 0.3705 0.01019 0.56944 0.0
H1228 H 0.31982 0.93354 0.55486 0.0
H1229 H 0.32127 0.94285 0.51182 0.0
H1230 H 0.34725 0.03522 0.52209 0.0
H1231 H 0.37754 0.05988 0.51525 0.0
H1232 H 0.37022 0.04772 0.5452 0.0
H1233 H 0.40646 0.03945 0.54407 0.0
H1234 H 0.41378 0.0514 0.51413 0.0
H1235 H 0.40809 0.02098 0.52033 0.0
H1236 H 0.33273 0.95934 0.47 0.0
H1237 H 0.35125 0.98232 0.43275 0.0
H1238 H 0.39302 0.04873 0.474 0.0
C1239 C 0.35917 0.99546 0.5573 0.0
C1240 C 0.34492 0.97111 0.56566 0.0
C1241 C 0.33073 0.95234 0.54902 0.0
C1242 C 0.33146 0.95746 0.52448 0.0
C1243 C 0.34624 0.9815 0.51675 0.0
C1244 C 0.35957 1.00028 0.5327 0.0
C1245 C 0.37511 0.02428 0.51958 0.0
C1246 C 0.36704 0.04287 0.52591 0.0
C1247 C 0.40247 0.03462 0.52484 0.0
C1248 C 0.36902 0.01592 0.49376 0.0
C1249 C 0.35227 0.99117 0.49255 0.0
C1250 C 0.34542 0.97882 0.47073 0.0
C1251 C 0.35608 0.99201 0.44965 0.0
C1252 C 0.37323 0.01737 0.45042 0.0
C1253 C 0.37945 0.0295 0.4728 0.0
H1254 H 0.39348 0.34409 0.04592 0.0
H1255 H 0.34282 0.355 0.08924 0.0
H1256 H 0.32495 0.36168 0.05262 0.0
H1257 H 0.4071 0.39179 1.00725 0.0
H1258 H 0.41017 0.37733 0.98071 0.0
H1259 H 0.41574 0.36864 1.00964 0.0
H1260 H 0.38346 0.32342 1.00115 0.0
H1261 H 0.37787 0.33196 0.97205 0.0
H1262 H 0.35287 0.31566 0.99263 0.0
H1263 H 0.31559 0.37152 0.0118 0.0
H1264 H 0.31693 0.3859 0.97045 0.0
H1265 H 0.37528 0.3709 0.95373 0.0
C1266 C 0.37801 0.34696 0.04758 0.0
C1267 C 0.36913 0.3485 0.07034 0.0
C1268 C 0.34961 0.3534 0.07193 0.0
C1269 C 0.33934 0.35717 0.05122 0.0
C1270 C 0.34895 0.35624 0.02904 0.0
C1271 C 0.3679 0.35129 0.02708 0.0
C1272 C 0.37693 0.35436 1.00146 0.0
C1273 C 0.40409 0.37421 0.99968 0.0
C1274 C 0.37251 0.32989 0.99122 0.0
C1275 C 0.36059 0.36244 0.98947 0.0
C1276 C 0.34424 0.36292 1.00559 0.0
C1277 C 0.32812 0.37094 0.99896 0.0
C1278 C 0.32901 0.37908 0.9754 0.0
C1279 C 0.34615 0.37949 0.95877 0.0
C1280 C 0.36181 0.37062 0.96591 0.0
H1281 H 0.99757 0.37233 0.5699 0.0
H1282 H 0.07284 0.39437 0.55269 0.0
H1283 H 0.06107 0.3826 0.51058 0.0
H1284 H 0.9689 0.31964 0.5273 0.0
H1285 H 0.94442 0.32546 0.5202 0.0
H1286 H 0.9582 0.3328 0.54951 0.0
H1287 H 0.96758 0.37746 0.5445 0.0
H1288 H 0.95398 0.37032 0.51521 0.0
H1289 H 0.98498 0.39495 0.51897 0.0
H1290 H 0.04254 0.37476 0.46955 0.0
H1291 H 0.01786 0.36837 0.43307 0.0
H1292 H 0.95402 0.34873 0.47686 0.0
C1293 C 0.01147 0.37412 0.55741 0.0
C1294 C 0.03614 0.38424 0.56465 0.0
C1295 C 0.05381 0.38652 0.54765 0.0
C1296 C 0.04729 0.37989 0.52366 0.0
C1297 C 0.02295 0.37061 0.51698 0.0
C1298 C 0.00522 0.36732 0.53343 0.0
C1299 C 0.98064 0.3583 0.52136 0.0
C1300 C 0.96194 0.33251 0.53012 0.0
C1301 C 0.97126 0.37634 0.52524 0.0
C1302 C 0.98752 0.35791 0.49544 0.0
C1303 C 0.01202 0.36503 0.49331 0.0
C1304 C 0.02321 0.36854 0.47102 0.0
C1305 C 0.0091 0.36493 0.45041 0.0
C1306 C 0.98399 0.35756 0.4522 0.0
C1307 C 0.973 0.35359 0.47501 0.0
H1308 H 0.48051 0.05221 0.12427 0.0
H1309 H 0.50664 0.13019 0.12122 0.0
H1310 H 0.5491 0.13846 0.11872 0.0
H1311 H 0.528 0.05623 0.16125 0.0
H1312 H 0.53001 0.03192 0.14648 0.0
H1313 H 0.50152 0.03195 0.14661 0.0
H1314 H 0.50014 0.02977 0.1003 0.0
H1315 H 0.52865 0.02971 0.10002 0.0
H1316 H 0.52569 0.05249 0.08327 0.0
H1317 H 0.58879 0.1385 0.11851 0.0
H1318 H 0.62304 0.13029 0.12066 0.0
H1319 H 0.57127 0.05228 0.12366 0.0
C1320 C 0.49512 0.07102 0.12283 0.0
C1321 C 0.49016 0.09054 0.1229 0.0
C1322 C 0.5099 0.1149 0.12118 0.0
C1323 C 0.53411 0.1198 0.11971 0.0
C1324 C 0.53835 0.10018 0.11991 0.0
C1325 C 0.51943 0.07627 0.12137 0.0
C1326 C 0.52905 0.05857 0.12206 0.0
C1327 C 0.52171 0.04381 0.14549 0.0
C1328 C 0.52037 0.04164 0.1001 0.0
C1329 C 0.55635 0.0763 0.12108 0.0
C1330 C 0.5613 0.1002 0.11973 0.0
C1331 C 0.58515 0.11985 0.11939 0.0
C1332 C 0.6045 0.11498 0.12066 0.0
C1333 C 0.59991 0.09063 0.12225 0.0
C1334 C 0.57545 0.07109 0.12224 0.0
H1335 H 0.52233 0.57354 0.62147 0.0
H1336 H 0.49448 0.62381 0.61547 0.0
H1337 H 0.45252 0.58888 0.61195 0.0
H1338 H 0.47859 0.527 0.58005 0.0
H1339 H 0.47594 0.50195 0.59779 0.0
H1340 H 0.50406 0.53091 0.59795 0.0
H1341 H 0.50173 0.53275 0.64413 0.0
H1342 H 0.47363 0.50386 0.64412 0.0
H1343 H 0.4747 0.53023 0.6578 0.0
H1344 H 0.41347 0.54877 0.6116 0.0
H1345 H 0.37984 0.50612 0.61475 0.0
H1346 H 0.43279 0.48163 0.62109 0.0
C1347 C 0.50746 0.57723 0.61905 0.0
C1348 C 0.51177 0.60148 0.61866 0.0
C1349 C 0.49171 0.60545 0.6158 0.0
C1350 C 0.46778 0.58571 0.61372 0.0
C1351 C 0.46416 0.56208 0.61449 0.0
C1352 C 0.48342 0.55772 0.61703 0.0
C1353 C 0.47436 0.53053 0.61855 0.0
C1354 C 0.4838 0.52211 0.59732 0.0
C1355 C 0.48153 0.52397 0.64258 0.0
C1356 C 0.44698 0.52033 0.61689 0.0
C1357 C 0.44153 0.53885 0.61437 0.0
C1358 C 0.4175 0.53409 0.61337 0.0
C1359 C 0.39851 0.50976 0.61522 0.0
C1360 C 0.4036 0.49044 0.61811 0.0
C1361 C 0.42824 0.4959 0.61867 0.0
H1362 H 0.95197 0.4326 0.12006 0.0
H1363 H 0.87408 0.38153 0.11318 0.0
H1364 H 0.86647 0.4161 0.10998 0.0
H1365 H 0.9466 0.47498 0.15678 0.0
H1366 H 0.97179 0.50174 0.14347 0.0
H1367 H 0.97148 0.47309 0.14315 0.0
H1368 H 0.97604 0.47559 0.097 0.0
H1369 H 0.97642 0.50432 0.09718 0.0
H1370 H 0.9544 0.47934 0.07909 0.0
H1371 H 0.86686 0.45589 0.11025 0.0
H1372 H 0.87524 0.49829 0.11392 0.0
H1373 H 0.95288 0.52379 0.1206 0.0
C1374 C 0.93334 0.42866 0.1175 0.0
C1375 C 0.91363 0.40428 0.11679 0.0
C1376 C 0.88951 0.39999 0.11375 0.0
C1377 C 0.88498 0.41952 0.11186 0.0
C1378 C 0.90476 0.44328 0.11298 0.0
C1379 C 0.92847 0.44795 0.11565 0.0
C1380 C 0.9463 0.4752 0.11753 0.0
C1381 C 0.95983 0.48162 0.14167 0.0
C1382 C 0.96435 0.48413 0.09644 0.0
C1383 C 0.92883 0.48506 0.11594 0.0
C1384 C 0.90498 0.46633 0.11315 0.0
C1385 C 0.88549 0.47074 0.11221 0.0
C1386 C 0.89045 0.49492 0.11437 0.0
C1387 C 0.91473 0.51446 0.11748 0.0
C1388 C 0.93415 0.50935 0.11801 0.0
H1389 H 0.40435 0.89826 0.63173 0.0
H1390 H 0.43146 0.9741 0.61203 0.0
H1391 H 0.47286 0.98017 0.60735 0.0
H1392 H 0.45614 0.90928 0.66651 0.0
H1393 H 0.45591 0.88179 0.65738 0.0
H1394 H 0.42784 0.88267 0.65777 0.0
H1395 H 0.42054 0.86981 0.61317 0.0
H1396 H 0.44862 0.8689 0.61264 0.0
H1397 H 0.44383 0.88759 0.59141 0.0
H1398 H 0.51143 0.97898 0.60645 0.0
H1399 H 0.54546 0.97072 0.60998 0.0
H1400 H 0.49429 0.89568 0.6304 0.0
C1401 C 0.41895 0.91605 0.62618 0.0
C1402 C 0.41458 0.93569 0.62222 0.0
C1403 C 0.43428 0.95877 0.61524 0.0
C1404 C 0.45789 0.96241 0.61244 0.0
C1405 C 0.46163 0.94282 0.61668 0.0
C1406 C 0.44279 0.92008 0.62341 0.0
C1407 C 0.45218 0.90249 0.62783 0.0
C1408 C 0.44776 0.89354 0.65392 0.0
C1409 C 0.4406 0.88092 0.61021 0.0
C1410 C 0.47925 0.91902 0.62277 0.0
C1411 C 0.48417 0.94215 0.61624 0.0
C1412 C 0.50782 0.9609 0.61141 0.0
C1413 C 0.52705 0.95601 0.61352 0.0
C1414 C 0.52261 0.93254 0.62043 0.0
C1415 C 0.49828 0.91375 0.62486 0.0
H1416 H 0.60318 0.49368 0.12877 0.0
H1417 H 0.57884 0.54294 0.10314 0.0
H1418 H 0.53721 0.50807 0.09793 0.0
H1419 H 0.5638 0.44177 0.08948 0.0
H1420 H 0.55778 0.4193 0.11232 0.0
H1421 H 0.58634 0.44784 0.11228 0.0
H1422 H 0.57827 0.45612 0.15578 0.0
H1423 H 0.54969 0.42766 0.15594 0.0
H1424 H 0.55024 0.45584 0.1627 0.0
H1425 H 0.49789 0.46892 0.09798 0.0
H1426 H 0.46284 0.42738 0.10325 0.0
H1427 H 0.51181 0.40265 0.1288 0.0
C1428 C 0.58917 0.49706 0.12169 0.0
C1429 C 0.59434 0.52109 0.11631 0.0
C1430 C 0.57538 0.52475 0.10744 0.0
C1431 C 0.55165 0.50504 0.10432 0.0
C1432 C 0.54707 0.48169 0.11013 0.0
C1433 C 0.56524 0.47752 0.11858 0.0
C1434 C 0.55495 0.4507 0.12465 0.0
C1435 C 0.5664 0.43923 0.10873 0.0
C1436 C 0.5585 0.4474 0.15135 0.0
C1437 C 0.52815 0.4406 0.11866 0.0
C1438 C 0.52412 0.45884 0.11018 0.0
C1439 C 0.50081 0.45441 0.10439 0.0
C1440 C 0.481 0.43074 0.10753 0.0
C1441 C 0.48453 0.41169 0.11638 0.0
C1442 C 0.50853 0.41672 0.12174 0.0
H1443 H 0.05534 0.48593 0.62405 0.0
H1444 H 0.13317 0.51197 0.61835 0.0
H1445 H 0.14144 0.55445 0.61654 0.0
H1446 H 0.0544 0.53141 0.58431 0.0
H1447 H 0.0322 0.53429 0.60216 0.0
H1448 H 0.03221 0.50577 0.60161 0.0
H1449 H 0.03587 0.50686 0.64783 0.0
H1450 H 0.03594 0.53539 0.64852 0.0
H1451 H 0.06066 0.53321 0.66212 0.0
H1452 H 0.14155 0.59418 0.61718 0.0
H1453 H 0.13347 0.62845 0.6202 0.0
H1454 H 0.05558 0.57674 0.62568 0.0
C1455 C 0.07411 0.50053 0.62214 0.0
C1456 C 0.0936 0.49554 0.62128 0.0
C1457 C 0.11791 0.51525 0.61902 0.0
C1458 C 0.12281 0.53948 0.61794 0.0
C1459 C 0.10323 0.54375 0.61912 0.0
C1460 C 0.07936 0.52485 0.62111 0.0
C1461 C 0.06174 0.53451 0.62289 0.0
C1462 C 0.0441 0.52599 0.60146 0.0
C1463 C 0.04773 0.52705 0.64676 0.0
C1464 C 0.07948 0.5618 0.62189 0.0
C1465 C 0.1033 0.56672 0.61958 0.0
C1466 C 0.12295 0.59056 0.61885 0.0
C1467 C 0.11815 0.60992 0.62061 0.0
C1468 C 0.09388 0.60537 0.62315 0.0
C1469 C 0.07433 0.58091 0.62364 0.0
H1470 H 0.9496 0.52108 0.4029 0.0
H1471 H 0.8717 0.49487 0.40788 0.0
H1472 H 0.86358 0.45249 0.41071 0.0
H1473 H 0.94466 0.47353 0.36591 0.0
H1474 H 0.96938 0.47159 0.37986 0.0
H1475 H 0.96933 0.50006 0.38009 0.0
H1476 H 0.97276 0.50163 0.42633 0.0
H1477 H 0.97286 0.47314 0.42624 0.0
H1478 H 0.95053 0.47613 0.44376 0.0
H1479 H 0.8636 0.41285 0.41064 0.0
H1480 H 0.87177 0.37864 0.40751 0.0
H1481 H 0.94965 0.43047 0.40253 0.0
C1482 C 0.93085 0.50648 0.40492 0.0
C1483 C 0.9113 0.51137 0.40524 0.0
C1484 C 0.88701 0.49165 0.40761 0.0
C1485 C 0.88219 0.46748 0.40929 0.0
C1486 C 0.90184 0.46329 0.40862 0.0
C1487 C 0.92569 0.48222 0.40655 0.0
C1488 C 0.94338 0.47262 0.40515 0.0
C1489 C 0.95751 0.47988 0.38133 0.0
C1490 C 0.96092 0.4814 0.42666 0.0
C1491 C 0.9257 0.44533 0.40636 0.0
C1492 C 0.90185 0.44037 0.40852 0.0
C1493 C 0.88222 0.4165 0.40914 0.0
C1494 C 0.88706 0.39718 0.40731 0.0
C1495 C 0.91136 0.4018 0.40483 0.0
C1496 C 0.93089 0.42627 0.4046 0.0
H1497 H 0.49495 0.89648 0.89631 0.0
H1498 H 0.54529 0.97178 0.91655 0.0
H1499 H 0.51087 0.97953 0.9196 0.0
H1500 H 0.45706 0.90929 0.85956 0.0
H1501 H 0.42882 0.88248 0.86803 0.0
H1502 H 0.4571 0.88204 0.86913 0.0
H1503 H 0.44945 0.86941 0.91378 0.0
H1504 H 0.42107 0.86971 0.91279 0.0
H1505 H 0.44399 0.88789 0.9347 0.0
H1506 H 0.47187 0.98012 0.91821 0.0
H1507 H 0.43026 0.97339 0.91289 0.0
H1508 H 0.4045 0.8977 0.89355 0.0
C1509 C 0.49868 0.91449 0.90174 0.0
C1510 C 0.52287 0.93351 0.90624 0.0
C1511 C 0.52697 0.95691 0.91297 0.0
C1512 C 0.50752 0.9615 0.91482 0.0
C1513 C 0.484 0.94252 0.90991 0.0
C1514 C 0.47942 0.91945 0.90358 0.0
C1515 C 0.45247 0.90265 0.89824 0.0
C1516 C 0.44865 0.89359 0.87219 0.0
C1517 C 0.44107 0.88114 0.91594 0.0
C1518 C 0.44275 0.92001 0.90227 0.0
C1519 C 0.46129 0.94287 0.90908 0.0
C1520 C 0.45714 0.96225 0.91305 0.0
C1521 C 0.43341 0.95824 0.9099 0.0
C1522 C 0.41403 0.935 0.90283 0.0
C1523 C 0.41883 0.91561 0.89915 0.0
H1524 H 0.51361 0.40566 0.39629 0.0
H1525 H 0.46269 0.42977 0.41686 0.0
H1526 H 0.49706 0.47178 0.42184 0.0
H1527 H 0.56343 0.44623 0.43666 0.0
H1528 H 0.58695 0.45188 0.41514 0.0
H1529 H 0.55854 0.4232 0.41482 0.0
H1530 H 0.55211 0.43009 0.37034 0.0
H1531 H 0.58045 0.45876 0.37053 0.0
H1532 H 0.55251 0.45781 0.36177 0.0
H1533 H 0.53619 0.5114 0.42229 0.0
H1534 H 0.57789 0.54647 0.41802 0.0
H1535 H 0.60401 0.49724 0.39718 0.0
C1536 C 0.50972 0.4197 0.40216 0.0
C1537 C 0.48541 0.41436 0.40624 0.0
C1538 C 0.48111 0.43336 0.4136 0.0
C1539 C 0.50053 0.4573 0.41656 0.0
C1540 C 0.52419 0.46201 0.41212 0.0
C1541 C 0.52892 0.44379 0.40512 0.0
C1542 C 0.556 0.4541 0.40039 0.0
C1543 C 0.56686 0.4432 0.4178 0.0
C1544 C 0.56052 0.44994 0.3742 0.0
C1545 C 0.56564 0.48098 0.40549 0.0
C1546 C 0.54695 0.48506 0.41236 0.0
C1547 C 0.55103 0.50844 0.41712 0.0
C1548 C 0.5748 0.52826 0.41457 0.0
C1549 C 0.59428 0.52465 0.40732 0.0
C1550 C 0.58959 0.5006 0.403 0.0
H1551 H 0.10956 0.51039 0.89133 0.0
H1552 H 0.03554 0.46244 0.91677 0.0
H1553 H 0.02941 0.49778 0.92083 0.0
H1554 H 0.1226 0.56291 0.92963 0.0
H1555 H 0.13957 0.58503 0.90667 0.0
H1556 H 0.13898 0.55621 0.90726 0.0
H1557 H 0.12304 0.54776 0.86361 0.0
H1558 H 0.12349 0.57649 0.86292 0.0
H1559 H 0.09564 0.5485 0.85617 0.0
H1560 H 0.03 0.53725 0.91987 0.0
H1561 H 0.03752 0.57913 0.91453 0.0
H1562 H 0.11123 0.60239 0.88987 0.0
C1563 C 0.0922 0.50739 0.89809 0.0
C1564 C 0.07305 0.48359 0.90376 0.0
C1565 C 0.05049 0.48043 0.91225 0.0
C1566 C 0.04682 0.50042 0.91469 0.0
C1567 C 0.06587 0.52352 0.90861 0.0
C1568 C 0.08816 0.52721 0.90057 0.0
C1569 C 0.10515 0.5539 0.8943 0.0
C1570 C 0.12792 0.56517 0.91043 0.0
C1571 C 0.11224 0.55682 0.86767 0.0
C1572 C 0.08876 0.56447 0.89979 0.0
C1573 C 0.06623 0.54657 0.9081 0.0
C1574 C 0.04762 0.5515 0.91356 0.0
C1575 C 0.05208 0.57536 0.91037 0.0
C1576 C 0.07499 0.59411 0.90181 0.0
C1577 C 0.09361 0.58854 0.89664 0.0
H1578 H 0.5711 0.04819 0.40132 0.0
H1579 H 0.62236 0.12585 0.40972 0.0
H1580 H 0.5879 0.1337 0.41215 0.0
H1581 H 0.5298 0.05459 0.36364 0.0
H1582 H 0.50262 0.02929 0.37623 0.0
H1583 H 0.53115 0.02935 0.3771 0.0
H1584 H 0.52751 0.02395 0.42315 0.0
H1585 H 0.4989 0.02379 0.42241 0.0
H1586 H 0.52349 0.04537 0.44116 0.0
H1587 H 0.54834 0.1336 0.41132 0.0
H1588 H 0.50615 0.12563 0.40721 0.0
H1589 H 0.48018 0.04801 0.39911 0.0
C1590 C 0.57509 0.06681 0.40404 0.0
C1591 C 0.59949 0.0864 0.40541 0.0
C1592 C 0.60387 0.11053 0.40863 0.0
C1593 C 0.58441 0.11519 0.41009 0.0
C1594 C 0.56063 0.09553 0.40832 0.0
C1595 C 0.55585 0.07182 0.40543 0.0
C1596 C 0.52862 0.05417 0.40288 0.0
C1597 C 0.52271 0.04109 0.37851 0.0
C1598 C 0.51907 0.03573 0.42364 0.0
C1599 C 0.5189 0.07175 0.40441 0.0
C1600 C 0.53769 0.09549 0.40772 0.0
C1601 C 0.53344 0.11507 0.40891 0.0
C1602 C 0.50937 0.11033 0.4065 0.0
C1603 C 0.48975 0.08617 0.40287 0.0
C1604 C 0.49468 0.06665 0.40204 0.0
H1605 H 0.52046 0.57467 0.90387 0.0
H1606 H 0.49439 0.62651 0.90793 0.0
H1607 H 0.45198 0.59235 0.91091 0.0
H1608 H 0.47294 0.53177 0.86711 0.0
H1609 H 0.47085 0.50519 0.88139 0.0
H1610 H 0.49938 0.53367 0.88153 0.0
H1611 H 0.50077 0.53221 0.92781 0.0
H1612 H 0.47223 0.50366 0.92781 0.0
H1613 H 0.47525 0.52917 0.94503 0.0
H1614 H 0.41233 0.55282 0.91085 0.0
H1615 H 0.37801 0.51049 0.90782 0.0
H1616 H 0.42958 0.48407 0.90388 0.0
C1617 C 0.50588 0.57887 0.90574 0.0
C1618 C 0.51082 0.60334 0.90573 0.0
C1619 C 0.49113 0.60797 0.90791 0.0
C1620 C 0.46695 0.58867 0.90967 0.0
C1621 C 0.4627 0.56481 0.90929 0.0
C1622 C 0.48159 0.55981 0.90746 0.0
C1623 C 0.4719 0.53248 0.90633 0.0
C1624 C 0.4792 0.52537 0.88268 0.0
C1625 C 0.48055 0.52388 0.92804 0.0
C1626 C 0.44461 0.52295 0.9074 0.0
C1627 C 0.43973 0.54192 0.90926 0.0
C1628 C 0.41591 0.53779 0.90961 0.0
C1629 C 0.39652 0.51366 0.90783 0.0
C1630 C 0.40103 0.49388 0.90568 0.0
C1631 C 0.42547 0.49871 0.90572 0.0
loop_
_geom_bond_atom_site_label_1
_geom_bond_atom_site_label_2
_geom_bond_distance
_geom_bond_site_symmetry_2
_ccdc_geom_bond_type
O0 Cd1 2.223 . S
O0 C8 1.315 . S
Cd1 O0 2.223 . S
Cd1 O4 2.297 . S
Cd1 O5 2.439 . S
Cd1 O11 2.240 . S
Cd2 O3 2.240 . S
Cd2 O10 2.223 . S
Cd2 O12 2.297 . S
Cd2 O13 2.439 . S
O3 Cd2 2.240 . S
O3 C8 1.279 . S
O4 Cd1 2.297 . S
O4 C6 1.247 . S
O5 Cd1 2.439 . S
O5 C6 1.208 . S
C6 O4 1.247 . S
C6 O5 1.208 . S
C7 O12 1.247 . S
C7 O13 1.208 . S
C8 O0 1.315 . S
C8 O3 1.279 . S
C9 O10 1.315 . S
C9 O11 1.279 . S
O10 Cd2 2.223 . S
O10 C9 1.315 . S
O11 Cd1 2.240 . S
O11 C9 1.279 . S
O12 Cd2 2.297 . S
O12 C7 1.247 . S
O13 Cd2 2.439 . S
O13 C7 1.208 . S
O14 Cd15 2.223 . S
O14 C22 1.315 . S
Cd15 O14 2.223 . S
Cd15 O18 2.297 . S
Cd15 O19 2.439 . S
Cd15 O25 2.240 . S
Cd16 O17 2.240 . S
Cd16 O24 2.223 . S
Cd16 O26 2.297 . S
Cd16 O27 2.439 . S
O17 Cd16 2.240 . S
O17 C22 1.279 . S
O18 Cd15 2.297 . S
O18 C20 1.247 . S
O19 Cd15 2.439 . S
O19 C20 1.208 . S
C20 O18 1.247 . S
C20 O19 1.208 . S
C21 O26 1.247 . S
C21 O27 1.208 . S
C22 O14 1.315 . S
C22 O17 1.279 . S
C23 O24 1.315 . S
C23 O25 1.279 . S
O24 Cd16 2.223 . S
O24 C23 1.315 . S
O25 Cd15 2.240 . S
O25 C23 1.279 . S
O26 Cd16 2.297 . S
O26 C21 1.247 . S
O27 Cd16 2.439 . S
O27 C21 1.208 . S
O28 Cd29 2.223 . S
O28 C36 1.315 . S
Cd29 O28 2.223 . S
Cd29 O32 2.297 . S
Cd29 O33 2.439 . S
Cd29 O39 2.240 . S
Cd30 O31 2.240 . S
Cd30 O38 2.223 . S
Cd30 O40 2.297 . S
Cd30 O41 2.439 . S
O31 Cd30 2.240 . S
O31 C36 1.279 . S
O32 Cd29 2.297 . S
O32 C34 1.247 . S
O33 Cd29 2.439 . S
O33 C34 1.208 . S
C34 O32 1.247 . S
C34 O33 1.208 . S
C35 O40 1.247 . S
C35 O41 1.208 . S
C36 O28 1.315 . S
C36 O31 1.279 . S
C37 O38 1.315 . S
C37 O39 1.279 . S
O38 Cd30 2.223 . S
O38 C37 1.315 . S
O39 Cd29 2.240 . S
O39 C37 1.279 . S
O40 Cd30 2.297 . S
O40 C35 1.247 . S
O41 Cd30 2.439 . S
O41 C35 1.208 . S
O42 Cd43 2.223 . S
O42 C50 1.315 . S
Cd43 O42 2.223 . S
Cd43 O46 2.297 . S
Cd43 O47 2.439 . S
Cd43 O53 2.240 . S
Cd44 O45 2.240 . S
Cd44 O52 2.223 . S
Cd44 O54 2.297 . S
Cd44 O55 2.439 . S
O45 Cd44 2.240 . S
O45 C50 1.279 . S
O46 Cd43 2.297 . S
O46 C48 1.247 . S
O47 Cd43 2.439 . S
O47 C48 1.208 . S
C48 O46 1.247 . S
C48 O47 1.208 . S
C49 O54 1.247 . S
C49 O55 1.208 . S
C50 O42 1.315 . S
C50 O45 1.279 . S
C51 O52 1.315 . S
C51 O53 1.279 . S
O52 Cd44 2.223 . S
O52 C51 1.315 . S
O53 Cd43 2.240 . S
O53 C51 1.279 . S
O54 Cd44 2.297 . S
O54 C49 1.247 . S
O55 Cd44 2.439 . S
O55 C49 1.208 . S
O56 Cd57 2.223 . S
O56 C64 1.315 . S
Cd57 O56 2.223 . S
Cd57 O60 2.297 . S
Cd57 O61 2.439 . S
Cd57 O67 2.240 . S
Cd58 O59 2.240 . S
Cd58 O66 2.223 . S
Cd58 O68 2.297 . S
Cd58 O69 2.439 . S
O59 Cd58 2.240 . S
O59 C64 1.279 . S
O60 Cd57 2.297 . S
O60 C62 1.247 . S
O61 Cd57 2.439 . S
O61 C62 1.208 . S
C62 O60 1.247 . S
C62 O61 1.208 . S
C63 O68 1.247 . S
C63 O69 1.208 . S
C64 O56 1.315 . S
C64 O59 1.279 . S
C65 O66 1.315 . S
C65 O67 1.279 . S
O66 Cd58 2.223 . S
O66 C65 1.315 . S
O67 Cd57 2.240 . S
O67 C65 1.279 . S
O68 Cd58 2.297 . S
O68 C63 1.247 . S
O69 Cd58 2.439 . S
O69 C63 1.208 . S
O70 Cd71 2.223 . S
O70 C78 1.315 . S
Cd71 O70 2.223 . S
Cd71 O74 2.297 . S
Cd71 O75 2.439 . S
Cd71 O81 2.240 . S
Cd72 O73 2.240 . S
Cd72 O80 2.223 . S
Cd72 O82 2.297 . S
Cd72 O83 2.439 . S
O73 Cd72 2.240 . S
O73 C78 1.279 . S
O74 Cd71 2.297 . S
O74 C76 1.247 . S
O75 Cd71 2.439 . S
O75 C76 1.208 . S
C76 O74 1.247 . S
C76 O75 1.208 . S
C77 O82 1.247 . S
C77 O83 1.208 . S
C78 O70 1.315 . S
C78 O73 1.279 . S
C79 O80 1.315 . S
C79 O81 1.279 . S
O80 Cd72 2.223 . S
O80 C79 1.315 . S
O81 Cd71 2.240 . S
O81 C79 1.279 . S
O82 Cd72 2.297 . S
O82 C77 1.247 . S
O83 Cd72 2.439 . S
O83 C77 1.208 . S
O84 Cd85 2.223 . S
O84 C92 1.315 . S
Cd85 O84 2.223 . S
Cd85 O88 2.297 . S
Cd85 O89 2.439 . S
Cd85 O95 2.240 . S
Cd86 O87 2.240 . S
Cd86 O94 2.223 . S
Cd86 O96 2.297 . S
Cd86 O97 2.439 . S
O87 Cd86 2.240 . S
O87 C92 1.279 . S
O88 Cd85 2.297 . S
O88 C90 1.247 . S
O89 Cd85 2.439 . S
O89 C90 1.208 . S
C90 O88 1.247 . S
C90 O89 1.208 . S
C91 O96 1.247 . S
C91 O97 1.208 . S
C92 O84 1.315 . S
C92 O87 1.279 . S
C93 O94 1.315 . S
C93 O95 1.279 . S
O94 Cd86 2.223 . S
O94 C93 1.315 . S
O95 Cd85 2.240 . S
O95 C93 1.279 . S
O96 Cd86 2.297 . S
O96 C91 1.247 . S
O97 Cd86 2.439 . S
O97 C91 1.208 . S
O98 Cd99 2.223 . S
O98 C106 1.315 . S
Cd99 O98 2.223 . S
Cd99 O102 2.297 . S
Cd99 O103 2.439 . S
Cd99 O109 2.240 . S
Cd100 O101 2.240 . S
Cd100 O108 2.223 . S
Cd100 O110 2.297 . S
Cd100 O111 2.439 . S
O101 Cd100 2.240 . S
O101 C106 1.279 . S
O102 Cd99 2.297 . S
O102 C104 1.247 . S
O103 Cd99 2.439 . S
O103 C104 1.208 . S
C104 O102 1.247 . S
C104 O103 1.208 . S
C105 O110 1.247 . S
C105 O111 1.208 . S
C106 O98 1.315 . S
C106 O101 1.279 . S
C107 O108 1.315 . S
C107 O109 1.279 . S
O108 Cd100 2.223 . S
O108 C107 1.315 . S
O109 Cd99 2.240 . S
O109 C107 1.279 . S
O110 Cd100 2.297 . S
O110 C105 1.247 . S
O111 Cd100 2.439 . S
O111 C105 1.208 . S
O112 Cd113 2.223 . S
O112 C120 1.315 . S
Cd113 O112 2.223 . S
Cd113 O116 2.297 . S
Cd113 O117 2.439 . S
Cd113 O123 2.240 . S
Cd114 O115 2.240 . S
Cd114 O122 2.223 . S
Cd114 O124 2.297 . S
Cd114 O125 2.439 . S
O115 Cd114 2.240 . S
O115 C120 1.279 . S
O116 Cd113 2.297 . S
O116 C118 1.247 . S
O117 Cd113 2.439 . S
O117 C118 1.208 . S
C118 O116 1.247 . S
C118 O117 1.208 . S
C119 O124 1.247 . S
C119 O125 1.208 . S
C120 O112 1.315 . S
C120 O115 1.279 . S
C121 O122 1.315 . S
C121 O123 1.279 . S
O122 Cd114 2.223 . S
O122 C121 1.315 . S
O123 Cd113 2.240 . S
O123 C121 1.279 . S
O124 Cd114 2.297 . S
O124 C119 1.247 . S
O125 Cd114 2.439 . S
O125 C119 1.208 . S
O126 Cd127 2.223 . S
O126 C134 1.315 . S
Cd127 O126 2.223 . S
Cd127 O130 2.297 . S
Cd127 O131 2.439 . S
Cd127 O137 2.240 . S
Cd128 O129 2.240 . S
Cd128 O136 2.223 . S
Cd128 O138 2.297 . S
Cd128 O139 2.439 . S
O129 Cd128 2.240 . S
O129 C134 1.279 . S
O130 Cd127 2.297 . S
O130 C132 1.247 . S
O131 Cd127 2.439 . S
O131 C132 1.208 . S
C132 O130 1.247 . S
C132 O131 1.208 . S
C133 O138 1.247 . S
C133 O139 1.208 . S
C134 O126 1.315 . S
C134 O129 1.279 . S
C135 O136 1.315 . S
C135 O137 1.279 . S
O136 Cd128 2.223 . S
O136 C135 1.315 . S
O137 Cd127 2.240 . S
O137 C135 1.279 . S
O138 Cd128 2.297 . S
O138 C133 1.247 . S
O139 Cd128 2.439 . S
O139 C133 1.208 . S
O140 Cd141 2.223 . S
O140 C148 1.315 . S
Cd141 O140 2.223 . S
Cd141 O144 2.297 . S
Cd141 O145 2.439 . S
Cd141 O151 2.240 . S
Cd142 O143 2.240 . S
Cd142 O150 2.223 . S
Cd142 O152 2.297 . S
Cd142 O153 2.439 . S
O143 Cd142 2.240 . S
O143 C148 1.279 . S
O144 Cd141 2.297 . S
O144 C146 1.247 . S
O145 Cd141 2.439 . S
O145 C146 1.208 . S
C146 O144 1.247 . S
C146 O145 1.208 . S
C147 O152 1.247 . S
C147 O153 1.208 . S
C148 O140 1.315 . S
C148 O143 1.279 . S
C149 O150 1.315 . S
C149 O151 1.279 . S
O150 Cd142 2.223 . S
O150 C149 1.315 . S
O151 Cd141 2.240 . S
O151 C149 1.279 . S
O152 Cd142 2.297 . S
O152 C147 1.247 . S
O153 Cd142 2.439 . S
O153 C147 1.208 . S
O154 Cd155 2.223 . S
O154 C162 1.315 . S
Cd155 O154 2.223 . S
Cd155 O158 2.297 . S
Cd155 O159 2.439 . S
Cd155 O165 2.240 . S
Cd156 O157 2.240 . S
Cd156 O164 2.223 . S
Cd156 O166 2.297 . S
Cd156 O167 2.439 . S
O157 Cd156 2.240 . S
O157 C162 1.279 . S
O158 Cd155 2.297 . S
O158 C160 1.247 . S
O159 Cd155 2.439 . S
O159 C160 1.208 . S
C160 O158 1.247 . S
C160 O159 1.208 . S
C161 O166 1.247 . S
C161 O167 1.208 . S
C162 O154 1.315 . S
C162 O157 1.279 . S
C163 O164 1.315 . S
C163 O165 1.279 . S
O164 Cd156 2.223 . S
O164 C163 1.315 . S
O165 Cd155 2.240 . S
O165 C163 1.279 . S
O166 Cd156 2.297 . S
O166 C161 1.247 . S
O167 Cd156 2.439 . S
O167 C161 1.208 . S
O168 Cd169 2.223 . S
O168 C176 1.315 . S
Cd169 O168 2.223 . S
Cd169 O172 2.297 . S
Cd169 O173 2.439 . S
Cd169 O179 2.240 . S
Cd170 O171 2.240 . S
Cd170 O178 2.223 . S
Cd170 O180 2.297 . S
Cd170 O181 2.439 . S
O171 Cd170 2.240 . S
O171 C176 1.279 . S
O172 Cd169 2.297 . S
O172 C174 1.247 . S
O173 Cd169 2.439 . S
O173 C174 1.208 . S
C174 O172 1.247 . S
C174 O173 1.208 . S
C175 O180 1.247 . S
C175 O181 1.208 . S
C176 O168 1.315 . S
C176 O171 1.279 . S
C177 O178 1.315 . S
C177 O179 1.279 . S
O178 Cd170 2.223 . S
O178 C177 1.315 . S
O179 Cd169 2.240 . S
O179 C177 1.279 . S
O180 Cd170 2.297 . S
O180 C175 1.247 . S
O181 Cd170 2.439 . S
O181 C175 1.208 . S
O182 Cd183 2.223 . S
O182 C190 1.315 . S
Cd183 O182 2.223 . S
Cd183 O186 2.297 . S
Cd183 O187 2.439 . S
Cd183 O193 2.240 . S
Cd184 O185 2.240 . S
Cd184 O192 2.223 . S
Cd184 O194 2.297 . S
Cd184 O195 2.439 . S
O185 Cd184 2.240 . S
O185 C190 1.279 . S
O186 Cd183 2.297 . S
O186 C188 1.247 . S
O187 Cd183 2.439 . S
O187 C188 1.208 . S
C188 O186 1.247 . S
C188 O187 1.208 . S
C189 O194 1.247 . S
C189 O195 1.208 . S
C190 O182 1.315 . S
C190 O185 1.279 . S
C191 O192 1.315 . S
C191 O193 1.279 . S
O192 Cd184 2.223 . S
O192 C191 1.315 . S
O193 Cd183 2.240 . S
O193 C191 1.279 . S
O194 Cd184 2.297 . S
O194 C189 1.247 . S
O195 Cd184 2.439 . S
O195 C189 1.208 . S
O196 Cd197 2.223 . S
O196 C204 1.315 . S
Cd197 O196 2.223 . S
Cd197 O200 2.297 . S
Cd197 O201 2.439 . S
Cd197 O207 2.240 . S
Cd198 O199 2.240 . S
Cd198 O206 2.223 . S
Cd198 O208 2.297 . S
Cd198 O209 2.439 . S
O199 Cd198 2.240 . S
O199 C204 1.279 . S
O200 Cd197 2.297 . S
O200 C202 1.247 . S
O201 Cd197 2.439 . S
O201 C202 1.208 . S
C202 O200 1.247 . S
C202 O201 1.208 . S
C203 O208 1.247 . S
C203 O209 1.208 . S
C204 O196 1.315 . S
C204 O199 1.279 . S
C205 O206 1.315 . S
C205 O207 1.279 . S
O206 Cd198 2.223 . S
O206 C205 1.315 . S
O207 Cd197 2.240 . S
O207 C205 1.279 . S
O208 Cd198 2.297 . S
O208 C203 1.247 . S
O209 Cd198 2.439 . S
O209 C203 1.208 . S
O210 Cd211 2.223 . S
O210 C218 1.315 . S
Cd211 O210 2.223 . S
Cd211 O214 2.297 . S
Cd211 O215 2.439 . S
Cd211 O221 2.240 . S
Cd212 O213 2.240 . S
Cd212 O220 2.223 . S
Cd212 O222 2.297 . S
Cd212 O223 2.439 . S
O213 Cd212 2.240 . S
O213 C218 1.279 . S
O214 Cd211 2.297 . S
O214 C216 1.247 . S
O215 Cd211 2.439 . S
O215 C216 1.208 . S
C216 O214 1.247 . S
C216 O215 1.208 . S
C217 O222 1.247 . S
C217 O223 1.208 . S
C218 O210 1.315 . S
C218 O213 1.279 . S
C219 O220 1.315 . S
C219 O221 1.279 . S
O220 Cd212 2.223 . S
O220 C219 1.315 . S
O221 Cd211 2.240 . S
O221 C219 1.279 . S
O222 Cd212 2.297 . S
O222 C217 1.247 . S
O223 Cd212 2.439 . S
O223 C217 1.208 . S
O224 Cd225 2.223 . S
O224 C232 1.315 . S
Cd225 O224 2.223 . S
Cd225 O228 2.297 . S
Cd225 O229 2.439 . S
Cd225 O235 2.240 . S
Cd226 O227 2.240 . S
Cd226 O234 2.223 . S
Cd226 O236 2.297 . S
Cd226 O237 2.439 . S
O227 Cd226 2.240 . S
O227 C232 1.279 . S
O228 Cd225 2.297 . S
O228 C230 1.247 . S
O229 Cd225 2.439 . S
O229 C230 1.208 . S
C230 O228 1.247 . S
C230 O229 1.208 . S
C231 O236 1.247 . S
C231 O237 1.208 . S
C232 O224 1.315 . S
C232 O227 1.279 . S
C233 O234 1.315 . S
C233 O235 1.279 . S
O234 Cd226 2.223 . S
O234 C233 1.315 . S
O235 Cd225 2.240 . S
O235 C233 1.279 . S
O236 Cd226 2.297 . S
O236 C231 1.247 . S
O237 Cd226 2.439 . S
O237 C231 1.208 . S
O238 Cd239 2.223 . S
O238 C246 1.315 . S
Cd239 O238 2.223 . S
Cd239 O242 2.297 . S
Cd239 O243 2.439 . S
Cd239 O249 2.240 . S
Cd240 O241 2.240 . S
Cd240 O248 2.223 . S
Cd240 O250 2.297 . S
Cd240 O251 2.439 . S
O241 Cd240 2.240 . S
O241 C246 1.279 . S
O242 Cd239 2.297 . S
O242 C244 1.247 . S
O243 Cd239 2.439 . S
O243 C244 1.208 . S
C244 O242 1.247 . S
C244 O243 1.208 . S
C245 O250 1.247 . S
C245 O251 1.208 . S
C246 O238 1.315 . S
C246 O241 1.279 . S
C247 O248 1.315 . S
C247 O249 1.279 . S
O248 Cd240 2.223 . S
O248 C247 1.315 . S
O249 Cd239 2.240 . S
O249 C247 1.279 . S
O250 Cd240 2.297 . S
O250 C245 1.247 . S
O251 Cd240 2.439 . S
O251 C245 1.208 . S
O252 Cd253 2.223 . S
O252 C260 1.315 . S
Cd253 O252 2.223 . S
Cd253 O256 2.297 . S
Cd253 O257 2.439 . S
Cd253 O263 2.240 . S
Cd254 O255 2.240 . S
Cd254 O262 2.223 . S
Cd254 O264 2.297 . S
Cd254 O265 2.439 . S
O255 Cd254 2.240 . S
O255 C260 1.279 . S
O256 Cd253 2.297 . S
O256 C258 1.247 . S
O257 Cd253 2.439 . S
O257 C258 1.208 . S
C258 O256 1.247 . S
C258 O257 1.208 . S
C259 O264 1.247 . S
C259 O265 1.208 . S
C260 O252 1.315 . S
C260 O255 1.279 . S
C261 O262 1.315 . S
C261 O263 1.279 . S
O262 Cd254 2.223 . S
O262 C261 1.315 . S
O263 Cd253 2.240 . S
O263 C261 1.279 . S
O264 Cd254 2.297 . S
O264 C259 1.247 . S
O265 Cd254 2.439 . S
O265 C259 1.208 . S
O266 Cd267 2.223 . S
O266 C274 1.315 . S
Cd267 O266 2.223 . S
Cd267 O270 2.297 . S
Cd267 O271 2.439 . S
Cd267 O277 2.240 . S
Cd268 O269 2.240 . S
Cd268 O276 2.223 . S
Cd268 O278 2.297 . S
Cd268 O279 2.439 . S
O269 Cd268 2.240 . S
O269 C274 1.279 . S
O270 Cd267 2.297 . S
O270 C272 1.247 . S
O271 Cd267 2.439 . S
O271 C272 1.208 . S
C272 O270 1.247 . S
C272 O271 1.208 . S
C273 O278 1.247 . S
C273 O279 1.208 . S
C274 O266 1.315 . S
C274 O269 1.279 . S
C275 O276 1.315 . S
C275 O277 1.279 . S
O276 Cd268 2.223 . S
O276 C275 1.315 . S
O277 Cd267 2.240 . S
O277 C275 1.279 . S
O278 Cd268 2.297 . S
O278 C273 1.247 . S
O279 Cd268 2.439 . S
O279 C273 1.208 . S
O280 Cd281 2.223 . S
O280 C288 1.315 . S
Cd281 O280 2.223 . S
Cd281 O284 2.297 . S
Cd281 O285 2.439 . S
Cd281 O291 2.240 . S
Cd282 O283 2.240 . S
Cd282 O290 2.223 . S
Cd282 O292 2.297 . S
Cd282 O293 2.439 . S
O283 Cd282 2.240 . S
O283 C288 1.279 . S
O284 Cd281 2.297 . S
O284 C286 1.247 . S
O285 Cd281 2.439 . S
O285 C286 1.208 . S
C286 O284 1.247 . S
C286 O285 1.208 . S
C287 O292 1.247 . S
C287 O293 1.208 . S
C288 O280 1.315 . S
C288 O283 1.279 . S
C289 O290 1.315 . S
C289 O291 1.279 . S
O290 Cd282 2.223 . S
O290 C289 1.315 . S
O291 Cd281 2.240 . S
O291 C289 1.279 . S
O292 Cd282 2.297 . S
O292 C287 1.247 . S
O293 Cd282 2.439 . S
O293 C287 1.208 . S
O294 Cd295 2.223 . S
O294 C302 1.315 . S
Cd295 O294 2.223 . S
Cd295 O298 2.297 . S
Cd295 O299 2.439 . S
Cd295 O305 2.240 . S
Cd296 O297 2.240 . S
Cd296 O304 2.223 . S
Cd296 O306 2.297 . S
Cd296 O307 2.439 . S
O297 Cd296 2.240 . S
O297 C302 1.279 . S
O298 Cd295 2.297 . S
O298 C300 1.247 . S
O299 Cd295 2.439 . S
O299 C300 1.208 . S
C300 O298 1.247 . S
C300 O299 1.208 . S
C301 O306 1.247 . S
C301 O307 1.208 . S
C302 O294 1.315 . S
C302 O297 1.279 . S
C303 O304 1.315 . S
C303 O305 1.279 . S
O304 Cd296 2.223 . S
O304 C303 1.315 . S
O305 Cd295 2.240 . S
O305 C303 1.279 . S
O306 Cd296 2.297 . S
O306 C301 1.247 . S
O307 Cd296 2.439 . S
O307 C301 1.208 . S
O308 Cd309 2.223 . S
O308 C316 1.315 . S
Cd309 O308 2.223 . S
Cd309 O312 2.297 . S
Cd309 O313 2.439 . S
Cd309 O319 2.240 . S
Cd310 O311 2.240 . S
Cd310 O318 2.223 . S
Cd310 O320 2.297 . S
Cd310 O321 2.439 . S
O311 Cd310 2.240 . S
O311 C316 1.279 . S
O312 Cd309 2.297 . S
O312 C314 1.247 . S
O313 Cd309 2.439 . S
O313 C314 1.208 . S
C314 O312 1.247 . S
C314 O313 1.208 . S
C315 O320 1.247 . S
C315 O321 1.208 . S
C316 O308 1.315 . S
C316 O311 1.279 . S
C317 O318 1.315 . S
C317 O319 1.279 . S
O318 Cd310 2.223 . S
O318 C317 1.315 . S
O319 Cd309 2.240 . S
O319 C317 1.279 . S
O320 Cd310 2.297 . S
O320 C315 1.247 . S
O321 Cd310 2.439 . S
O321 C315 1.208 . S
O322 Cd323 2.223 . S
O322 C330 1.315 . S
Cd323 O322 2.223 . S
Cd323 O326 2.297 . S
Cd323 O327 2.439 . S
Cd323 O333 2.240 . S
Cd324 O325 2.240 . S
Cd324 O332 2.223 . S
Cd324 O334 2.297 . S
Cd324 O335 2.439 . S
O325 Cd324 2.240 . S
O325 C330 1.279 . S
O326 Cd323 2.297 . S
O326 C328 1.247 . S
O327 Cd323 2.439 . S
O327 C328 1.208 . S
C328 O326 1.247 . S
C328 O327 1.208 . S
C329 O334 1.247 . S
C329 O335 1.208 . S
C330 O322 1.315 . S
C330 O325 1.279 . S
C331 O332 1.315 . S
C331 O333 1.279 . S
O332 Cd324 2.223 . S
O332 C331 1.315 . S
O333 Cd323 2.240 . S
O333 C331 1.279 . S
O334 Cd324 2.297 . S
O334 C329 1.247 . S
O335 Cd324 2.439 . S
O335 C329 1.208 . S
H336 C348 0.930 . S
H337 C350 0.930 . S
H338 C351 0.930 . S
H339 C355 0.959 . S
H340 C355 0.959 . S
H341 C355 0.961 . S
H342 C356 0.960 . S
H343 C356 0.961 . S
H344 C356 0.959 . S
H345 C359 0.929 . S
H346 C360 0.931 . S
H347 C362 0.930 . S
C348 H336 0.930 . S
C348 C349 1.399 . S
C348 C353 1.399 . S
C349 C348 1.399 . S
C349 C350 1.376 . S
C350 H337 0.930 . S
C350 C349 1.376 . S
C350 C351 1.388 . S
C351 H338 0.930 . S
C351 C350 1.388 . S
C351 C352 1.390 . S
C352 C351 1.390 . S
C352 C353 1.394 . S
C352 C358 1.465 . S
C353 C348 1.399 . S
C353 C352 1.394 . S
C353 C354 1.516 . S
C354 C353 1.516 . S
C354 C355 1.502 . S
C354 C356 1.561 . S
C354 C357 1.526 . S
C355 H339 0.959 . S
C355 H340 0.959 . S
C355 H341 0.961 . S
C355 C354 1.502 . S
C356 H342 0.960 . S
C356 H343 0.961 . S
C356 H344 0.959 . S
C356 C354 1.561 . S
C357 C354 1.526 . S
C357 C358 1.396 . S
C357 C362 1.390 . S
C358 C352 1.465 . S
C358 C357 1.396 . S
C358 C359 1.399 . S
C359 H345 0.929 . S
C359 C358 1.399 . S
C359 C360 1.385 . S
C360 H346 0.931 . S
C360 C359 1.385 . S
C360 C361 1.389 . S
C361 C360 1.389 . S
C361 C362 1.387 . S
C362 H347 0.930 . S
C362 C357 1.390 . S
C362 C361 1.387 . S
H363 C375 0.930 . S
H364 C377 0.930 . S
H365 C378 0.930 . S
H366 C382 0.959 . S
H367 C382 0.959 . S
H368 C382 0.961 . S
H369 C383 0.960 . S
H370 C383 0.961 . S
H371 C383 0.959 . S
H372 C386 0.929 . S
H373 C387 0.931 . S
H374 C389 0.930 . S
C375 H363 0.930 . S
C375 C376 1.399 . S
C375 C380 1.399 . S
C376 C375 1.399 . S
C376 C377 1.376 . S
C377 H364 0.930 . S
C377 C376 1.376 . S
C377 C378 1.388 . S
C378 H365 0.930 . S
C378 C377 1.388 . S
C378 C379 1.390 . S
C379 C378 1.390 . S
C379 C380 1.394 . S
C379 C385 1.465 . S
C380 C375 1.399 . S
C380 C379 1.394 . S
C380 C381 1.516 . S
C381 C380 1.516 . S
C381 C382 1.502 . S
C381 C383 1.561 . S
C381 C384 1.526 . S
C382 H366 0.959 . S
C382 H367 0.959 . S
C382 H368 0.961 . S
C382 C381 1.502 . S
C383 H369 0.960 . S
C383 H370 0.961 . S
C383 H371 0.959 . S
C383 C381 1.561 . S
C384 C381 1.526 . S
C384 C385 1.396 . S
C384 C389 1.390 . S
C385 C379 1.465 . S
C385 C384 1.396 . S
C385 C386 1.399 . S
C386 H372 0.929 . S
C386 C385 1.399 . S
C386 C387 1.385 . S
C387 H373 0.931 . S
C387 C386 1.385 . S
C387 C388 1.389 . S
C388 C387 1.389 . S
C388 C389 1.387 . S
C389 H374 0.930 . S
C389 C384 1.390 . S
C389 C388 1.387 . S
H390 C402 0.930 . S
H391 C404 0.930 . S
H392 C405 0.930 . S
H393 C409 0.959 . S
H394 C409 0.959 . S
H395 C409 0.961 . S
H396 C410 0.960 . S
H397 C410 0.961 . S
H398 C410 0.959 . S
H399 C413 0.929 . S
H400 C414 0.931 . S
H401 C416 0.930 . S
C402 H390 0.930 . S
C402 C403 1.399 . S
C402 C407 1.399 . S
C403 C402 1.399 . S
C403 C404 1.376 . S
C404 H391 0.930 . S
C404 C403 1.376 . S
C404 C405 1.388 . S
C405 H392 0.930 . S
C405 C404 1.388 . S
C405 C406 1.390 . S
C406 C405 1.390 . S
C406 C407 1.394 . S
C406 C412 1.465 . S
C407 C402 1.399 . S
C407 C406 1.394 . S
C407 C408 1.516 . S
C408 C407 1.516 . S
C408 C409 1.502 . S
C408 C410 1.561 . S
C408 C411 1.526 . S
C409 H393 0.959 . S
C409 H394 0.959 . S
C409 H395 0.961 . S
C409 C408 1.502 . S
C410 H396 0.960 . S
C410 H397 0.961 . S
C410 H398 0.959 . S
C410 C408 1.561 . S
C411 C408 1.526 . S
C411 C412 1.396 . S
C411 C416 1.390 . S
C412 C406 1.465 . S
C412 C411 1.396 . S
C412 C413 1.399 . S
C413 H399 0.929 . S
C413 C412 1.399 . S
C413 C414 1.385 . S
C414 H400 0.931 . S
C414 C413 1.385 . S
C414 C415 1.389 . S
C415 C414 1.389 . S
C415 C416 1.387 . S
C416 H401 0.930 . S
C416 C411 1.390 . S
C416 C415 1.387 . S
H417 C429 0.930 . S
H418 C431 0.930 . S
H419 C432 0.930 . S
H420 C436 0.959 . S
H421 C436 0.959 . S
H422 C436 0.961 . S
H423 C437 0.960 . S
H424 C437 0.961 . S
H425 C437 0.959 . S
H426 C440 0.929 . S
H427 C441 0.931 . S
H428 C443 0.930 . S
C429 H417 0.930 . S
C429 C430 1.399 . S
C429 C434 1.399 . S
C430 C429 1.399 . S
C430 C431 1.376 . S
C431 H418 0.930 . S
C431 C430 1.376 . S
C431 C432 1.388 . S
C432 H419 0.930 . S
C432 C431 1.388 . S
C432 C433 1.390 . S
C433 C432 1.390 . S
C433 C434 1.394 . S
C433 C439 1.465 . S
C434 C429 1.399 . S
C434 C433 1.394 . S
C434 C435 1.516 . S
C435 C434 1.516 . S
C435 C436 1.502 . S
C435 C437 1.561 . S
C435 C438 1.526 . S
C436 H420 0.959 . S
C436 H421 0.959 . S
C436 H422 0.961 . S
C436 C435 1.502 . S
C437 H423 0.960 . S
C437 H424 0.961 . S
C437 H425 0.959 . S
C437 C435 1.561 . S
C438 C435 1.526 . S
C438 C439 1.396 . S
C438 C443 1.390 . S
C439 C433 1.465 . S
C439 C438 1.396 . S
C439 C440 1.399 . S
C440 H426 0.929 . S
C440 C439 1.399 . S
C440 C441 1.385 . S
C441 H427 0.931 . S
C441 C440 1.385 . S
C441 C442 1.389 . S
C442 C441 1.389 . S
C442 C443 1.387 . S
C443 H428 0.930 . S
C443 C438 1.390 . S
C443 C442 1.387 . S
H444 C456 0.930 . S
H445 C458 0.930 . S
H446 C459 0.930 . S
H447 C463 0.959 . S
H448 C463 0.959 . S
H449 C463 0.961 . S
H450 C464 0.960 . S
H451 C464 0.961 . S
H452 C464 0.959 . S
H453 C467 0.929 . S
H454 C468 0.931 . S
H455 C470 0.930 . S
C456 H444 0.930 . S
C456 C457 1.399 . S
C456 C461 1.399 . S
C457 C456 1.399 . S
C457 C458 1.376 . S
C458 H445 0.930 . S
C458 C457 1.376 . S
C458 C459 1.388 . S
C459 H446 0.930 . S
C459 C458 1.388 . S
C459 C460 1.390 . S
C460 C459 1.390 . S
C460 C461 1.394 . S
C460 C466 1.465 . S
C461 C456 1.399 . S
C461 C460 1.394 . S
C461 C462 1.516 . S
C462 C461 1.516 . S
C462 C463 1.502 . S
C462 C464 1.561 . S
C462 C465 1.526 . S
C463 H447 0.959 . S
C463 H448 0.959 . S
C463 H449 0.961 . S
C463 C462 1.502 . S
C464 H450 0.960 . S
C464 H451 0.961 . S
C464 H452 0.959 . S
C464 C462 1.561 . S
C465 C462 1.526 . S
C465 C466 1.396 . S
C465 C470 1.390 . S
C466 C460 1.465 . S
C466 C465 1.396 . S
C466 C467 1.399 . S
C467 H453 0.929 . S
C467 C466 1.399 . S
C467 C468 1.385 . S
C468 H454 0.931 . S
C468 C467 1.385 . S
C468 C469 1.389 . S
C469 C468 1.389 . S
C469 C470 1.387 . S
C470 H455 0.930 . S
C470 C465 1.390 . S
C470 C469 1.387 . S
H471 C483 0.930 . S
H472 C485 0.930 . S
H473 C486 0.930 . S
H474 C490 0.959 . S
H475 C490 0.959 . S
H476 C490 0.961 . S
H477 C491 0.960 . S
H478 C491 0.961 . S
H479 C491 0.959 . S
H480 C494 0.929 . S
H481 C495 0.931 . S
H482 C497 0.930 . S
C483 H471 0.930 . S
C483 C484 1.399 . S
C483 C488 1.399 . S
C484 C483 1.399 . S
C484 C485 1.376 . S
C485 H472 0.930 . S
C485 C484 1.376 . S
C485 C486 1.388 . S
C486 H473 0.930 . S
C486 C485 1.388 . S
C486 C487 1.390 . S
C487 C486 1.390 . S
C487 C488 1.394 . S
C487 C493 1.465 . S
C488 C483 1.399 . S
C488 C487 1.394 . S
C488 C489 1.516 . S
C489 C488 1.516 . S
C489 C490 1.502 . S
C489 C491 1.561 . S
C489 C492 1.526 . S
C490 H474 0.959 . S
C490 H475 0.959 . S
C490 H476 0.961 . S
C490 C489 1.502 . S
C491 H477 0.960 . S
C491 H478 0.961 . S
C491 H479 0.959 . S
C491 C489 1.561 . S
C492 C489 1.526 . S
C492 C493 1.396 . S
C492 C497 1.390 . S
C493 C487 1.465 . S
C493 C492 1.396 . S
C493 C494 1.399 . S
C494 H480 0.929 . S
C494 C493 1.399 . S
C494 C495 1.385 . S
C495 H481 0.931 . S
C495 C494 1.385 . S
C495 C496 1.389 . S
C496 C495 1.389 . S
C496 C497 1.387 . S
C497 H482 0.930 . S
C497 C492 1.390 . S
C497 C496 1.387 . S
H498 C510 0.930 . S
H499 C512 0.930 . S
H500 C513 0.930 . S
H501 C517 0.959 . S
H502 C517 0.959 . S
H503 C517 0.961 . S
H504 C518 0.960 . S
H505 C518 0.961 . S
H506 C518 0.959 . S
H507 C521 0.929 . S
H508 C522 0.931 . S
H509 C524 0.930 . S
C510 H498 0.930 . S
C510 C511 1.399 . S
C510 C515 1.399 . S
C511 C510 1.399 . S
C511 C512 1.376 . S
C512 H499 0.930 . S
C512 C511 1.376 . S
C512 C513 1.388 . S
C513 H500 0.930 . S
C513 C512 1.388 . S
C513 C514 1.390 . S
C514 C513 1.390 . S
C514 C515 1.394 . S
C514 C520 1.465 . S
C515 C510 1.399 . S
C515 C514 1.394 . S
C515 C516 1.516 . S
C516 C515 1.516 . S
C516 C517 1.502 . S
C516 C518 1.561 . S
C516 C519 1.526 . S
C517 H501 0.959 . S
C517 H502 0.959 . S
C517 H503 0.961 . S
C517 C516 1.502 . S
C518 H504 0.960 . S
C518 H505 0.961 . S
C518 H506 0.959 . S
C518 C516 1.561 . S
C519 C516 1.526 . S
C519 C520 1.396 . S
C519 C524 1.390 . S
C520 C514 1.465 . S
C520 C519 1.396 . S
C520 C521 1.399 . S
C521 H507 0.929 . S
C521 C520 1.399 . S
C521 C522 1.385 . S
C522 H508 0.931 . S
C522 C521 1.385 . S
C522 C523 1.389 . S
C523 C522 1.389 . S
C523 C524 1.387 . S
C524 H509 0.930 . S
C524 C519 1.390 . S
C524 C523 1.387 . S
H525 C537 0.930 . S
H526 C539 0.930 . S
H527 C540 0.930 . S
H528 C544 0.959 . S
H529 C544 0.959 . S
H530 C544 0.961 . S
H531 C545 0.960 . S
H532 C545 0.961 . S
H533 C545 0.959 . S
H534 C548 0.929 . S
H535 C549 0.931 . S
H536 C551 0.930 . S
C537 H525 0.930 . S
C537 C538 1.399 . S
C537 C542 1.399 . S
C538 C537 1.399 . S
C538 C539 1.376 . S
C539 H526 0.930 . S
C539 C538 1.376 . S
C539 C540 1.388 . S
C540 H527 0.930 . S
C540 C539 1.388 . S
C540 C541 1.390 . S
C541 C540 1.390 . S
C541 C542 1.394 . S
C541 C547 1.465 . S
C542 C537 1.399 . S
C542 C541 1.394 . S
C542 C543 1.516 . S
C543 C542 1.516 . S
C543 C544 1.502 . S
C543 C545 1.561 . S
C543 C546 1.526 . S
C544 H528 0.959 . S
C544 H529 0.959 . S
C544 H530 0.961 . S
C544 C543 1.502 . S
C545 H531 0.960 . S
C545 H532 0.961 . S
C545 H533 0.959 . S
C545 C543 1.561 . S
C546 C543 1.526 . S
C546 C547 1.396 . S
C546 C551 1.390 . S
C547 C541 1.465 . S
C547 C546 1.396 . S
C547 C548 1.399 . S
C548 H534 0.929 . S
C548 C547 1.399 . S
C548 C549 1.385 . S
C549 H535 0.931 . S
C549 C548 1.385 . S
C549 C550 1.389 . S
C550 C549 1.389 . S
C550 C551 1.387 . S
C551 H536 0.930 . S
C551 C546 1.390 . S
C551 C550 1.387 . S
H552 C564 0.930 . S
H553 C566 0.930 . S
H554 C567 0.930 . S
H555 C571 0.959 . S
H556 C571 0.959 . S
H557 C571 0.961 . S
H558 C572 0.960 . S
H559 C572 0.961 . S
H560 C572 0.959 . S
H561 C575 0.929 . S
H562 C576 0.931 . S
H563 C578 0.930 . S
C564 H552 0.930 . S
C564 C565 1.399 . S
C564 C569 1.399 . S
C565 C564 1.399 . S
C565 C566 1.376 . S
C566 H553 0.930 . S
C566 C565 1.376 . S
C566 C567 1.388 . S
C567 H554 0.930 . S
C567 C566 1.388 . S
C567 C568 1.390 . S
C568 C567 1.390 . S
C568 C569 1.394 . S
C568 C574 1.465 . S
C569 C564 1.399 . S
C569 C568 1.394 . S
C569 C570 1.516 . S
C570 C569 1.516 . S
C570 C571 1.502 . S
C570 C572 1.561 . S
C570 C573 1.526 . S
C571 H555 0.959 . S
C571 H556 0.959 . S
C571 H557 0.961 . S
C571 C570 1.502 . S
C572 H558 0.960 . S
C572 H559 0.961 . S
C572 H560 0.959 . S
C572 C570 1.561 . S
C573 C570 1.526 . S
C573 C574 1.396 . S
C573 C578 1.390 . S
C574 C568 1.465 . S
C574 C573 1.396 . S
C574 C575 1.399 . S
C575 H561 0.929 . S
C575 C574 1.399 . S
C575 C576 1.385 . S
C576 H562 0.931 . S
C576 C575 1.385 . S
C576 C577 1.389 . S
C577 C576 1.389 . S
C577 C578 1.387 . S
C578 H563 0.930 . S
C578 C573 1.390 . S
C578 C577 1.387 . S
H579 C591 0.930 . S
H580 C593 0.930 . S
H581 C594 0.930 . S
H582 C598 0.959 . S
H583 C598 0.959 . S
H584 C598 0.961 . S
H585 C599 0.960 . S
H586 C599 0.961 . S
H587 C599 0.959 . S
H588 C602 0.929 . S
H589 C603 0.931 . S
H590 C605 0.930 . S
C591 H579 0.930 . S
C591 C592 1.399 . S
C591 C596 1.399 . S
C592 C591 1.399 . S
C592 C593 1.376 . S
C593 H580 0.930 . S
C593 C592 1.376 . S
C593 C594 1.388 . S
C594 H581 0.930 . S
C594 C593 1.388 . S
C594 C595 1.390 . S
C595 C594 1.390 . S
C595 C596 1.394 . S
C595 C601 1.465 . S
C596 C591 1.399 . S
C596 C595 1.394 . S
C596 C597 1.516 . S
C597 C596 1.516 . S
C597 C598 1.502 . S
C597 C599 1.561 . S
C597 C600 1.526 . S
C598 H582 0.959 . S
C598 H583 0.959 . S
C598 H584 0.961 . S
C598 C597 1.502 . S
C599 H585 0.960 . S
C599 H586 0.961 . S
C599 H587 0.959 . S
C599 C597 1.561 . S
C600 C597 1.526 . S
C600 C601 1.396 . S
C600 C605 1.390 . S
C601 C595 1.465 . S
C601 C600 1.396 . S
C601 C602 1.399 . S
C602 H588 0.929 . S
C602 C601 1.399 . S
C602 C603 1.385 . S
C603 H589 0.931 . S
C603 C602 1.385 . S
C603 C604 1.389 . S
C604 C603 1.389 . S
C604 C605 1.387 . S
C605 H590 0.930 . S
C605 C600 1.390 . S
C605 C604 1.387 . S
H606 C618 0.930 . S
H607 C620 0.930 . S
H608 C621 0.930 . S
H609 C625 0.959 . S
H610 C625 0.959 . S
H611 C625 0.961 . S
H612 C626 0.960 . S
H613 C626 0.961 . S
H614 C626 0.959 . S
H615 C629 0.929 . S
H616 C630 0.931 . S
H617 C632 0.930 . S
C618 H606 0.930 . S
C618 C619 1.399 . S
C618 C623 1.399 . S
C619 C618 1.399 . S
C619 C620 1.376 . S
C620 H607 0.930 . S
C620 C619 1.376 . S
C620 C621 1.388 . S
C621 H608 0.930 . S
C621 C620 1.388 . S
C621 C622 1.390 . S
C622 C621 1.390 . S
C622 C623 1.394 . S
C622 C628 1.465 . S
C623 C618 1.399 . S
C623 C622 1.394 . S
C623 C624 1.516 . S
C624 C623 1.516 . S
C624 C625 1.502 . S
C624 C626 1.561 . S
C624 C627 1.526 . S
C625 H609 0.959 . S
C625 H610 0.959 . S
C625 H611 0.961 . S
C625 C624 1.502 . S
C626 H612 0.960 . S
C626 H613 0.961 . S
C626 H614 0.959 . S
C626 C624 1.561 . S
C627 C624 1.526 . S
C627 C628 1.396 . S
C627 C632 1.390 . S
C628 C622 1.465 . S
C628 C627 1.396 . S
C628 C629 1.399 . S
C629 H615 0.929 . S
C629 C628 1.399 . S
C629 C630 1.385 . S
C630 H616 0.931 . S
C630 C629 1.385 . S
C630 C631 1.389 . S
C631 C630 1.389 . S
C631 C632 1.387 . S
C632 H617 0.930 . S
C632 C627 1.390 . S
C632 C631 1.387 . S
H633 C645 0.930 . S
H634 C647 0.930 . S
H635 C648 0.930 . S
H636 C652 0.959 . S
H637 C652 0.959 . S
H638 C652 0.961 . S
H639 C653 0.960 . S
H640 C653 0.961 . S
H641 C653 0.959 . S
H642 C656 0.929 . S
H643 C657 0.931 . S
H644 C659 0.930 . S
C645 H633 0.930 . S
C645 C646 1.399 . S
C645 C650 1.399 . S
C646 C645 1.399 . S
C646 C647 1.376 . S
C647 H634 0.930 . S
C647 C646 1.376 . S
C647 C648 1.388 . S
C648 H635 0.930 . S
C648 C647 1.388 . S
C648 C649 1.390 . S
C649 C648 1.390 . S
C649 C650 1.394 . S
C649 C655 1.465 . S
C650 C645 1.399 . S
C650 C649 1.394 . S
C650 C651 1.516 . S
C651 C650 1.516 . S
C651 C652 1.502 . S
C651 C653 1.561 . S
C651 C654 1.526 . S
C652 H636 0.959 . S
C652 H637 0.959 . S
C652 H638 0.961 . S
C652 C651 1.502 . S
C653 H639 0.960 . S
C653 H640 0.961 . S
C653 H641 0.959 . S
C653 C651 1.561 . S
C654 C651 1.526 . S
C654 C655 1.396 . S
C654 C659 1.390 . S
C655 C649 1.465 . S
C655 C654 1.396 . S
C655 C656 1.399 . S
C656 H642 0.929 . S
C656 C655 1.399 . S
C656 C657 1.385 . S
C657 H643 0.931 . S
C657 C656 1.385 . S
C657 C658 1.389 . S
C658 C657 1.389 . S
C658 C659 1.387 . S
C659 H644 0.930 . S
C659 C654 1.390 . S
C659 C658 1.387 . S
H660 C672 0.930 . S
H661 C674 0.930 . S
H662 C675 0.930 . S
H663 C679 0.959 . S
H664 C679 0.959 . S
H665 C679 0.961 . S
H666 C680 0.960 . S
H667 C680 0.961 . S
H668 C680 0.959 . S
H669 C683 0.929 . S
H670 C684 0.931 . S
H671 C686 0.930 . S
C672 H660 0.930 . S
C672 C673 1.399 . S
C672 C677 1.399 . S
C673 C672 1.399 . S
C673 C674 1.376 . S
C674 H661 0.930 . S
C674 C673 1.376 . S
C674 C675 1.388 . S
C675 H662 0.930 . S
C675 C674 1.388 . S
C675 C676 1.390 . S
C676 C675 1.390 . S
C676 C677 1.394 . S
C676 C682 1.465 . S
C677 C672 1.399 . S
C677 C676 1.394 . S
C677 C678 1.516 . S
C678 C677 1.516 . S
C678 C679 1.502 . S
C678 C680 1.561 . S
C678 C681 1.526 . S
C679 H663 0.959 . S
C679 H664 0.959 . S
C679 H665 0.961 . S
C679 C678 1.502 . S
C680 H666 0.960 . S
C680 H667 0.961 . S
C680 H668 0.959 . S
C680 C678 1.561 . S
C681 C678 1.526 . S
C681 C682 1.396 . S
C681 C686 1.390 . S
C682 C676 1.465 . S
C682 C681 1.396 . S
C682 C683 1.399 . S
C683 H669 0.929 . S
C683 C682 1.399 . S
C683 C684 1.385 . S
C684 H670 0.931 . S
C684 C683 1.385 . S
C684 C685 1.389 . S
C685 C684 1.389 . S
C685 C686 1.387 . S
C686 H671 0.930 . S
C686 C681 1.390 . S
C686 C685 1.387 . S
H687 C699 0.930 . S
H688 C701 0.930 . S
H689 C702 0.930 . S
H690 C706 0.959 . S
H691 C706 0.959 . S
H692 C706 0.961 . S
H693 C707 0.960 . S
H694 C707 0.961 . S
H695 C707 0.959 . S
H696 C710 0.929 . S
H697 C711 0.931 . S
H698 C713 0.930 . S
C699 H687 0.930 . S
C699 C700 1.399 . S
C699 C704 1.399 . S
C700 C699 1.399 . S
C700 C701 1.376 . S
C701 H688 0.930 . S
C701 C700 1.376 . S
C701 C702 1.388 . S
C702 H689 0.930 . S
C702 C701 1.388 . S
C702 C703 1.390 . S
C703 C702 1.390 . S
C703 C704 1.394 . S
C703 C709 1.465 . S
C704 C699 1.399 . S
C704 C703 1.394 . S
C704 C705 1.516 . S
C705 C704 1.516 . S
C705 C706 1.502 . S
C705 C707 1.561 . S
C705 C708 1.526 . S
C706 H690 0.959 . S
C706 H691 0.959 . S
C706 H692 0.961 . S
C706 C705 1.502 . S
C707 H693 0.960 . S
C707 H694 0.961 . S
C707 H695 0.959 . S
C707 C705 1.561 . S
C708 C705 1.526 . S
C708 C709 1.396 . S
C708 C713 1.390 . S
C709 C703 1.465 . S
C709 C708 1.396 . S
C709 C710 1.399 . S
C710 H696 0.929 . S
C710 C709 1.399 . S
C710 C711 1.385 . S
C711 H697 0.931 . S
C711 C710 1.385 . S
C711 C712 1.389 . S
C712 C711 1.389 . S
C712 C713 1.387 . S
C713 H698 0.930 . S
C713 C708 1.390 . S
C713 C712 1.387 . S
H714 C726 0.930 . S
H715 C728 0.930 . S
H716 C729 0.930 . S
H717 C733 0.959 . S
H718 C733 0.959 . S
H719 C733 0.961 . S
H720 C734 0.960 . S
H721 C734 0.961 . S
H722 C734 0.959 . S
H723 C737 0.929 . S
H724 C738 0.931 . S
H725 C740 0.930 . S
C726 H714 0.930 . S
C726 C727 1.399 . S
C726 C731 1.399 . S
C727 C726 1.399 . S
C727 C728 1.376 . S
C728 H715 0.930 . S
C728 C727 1.376 . S
C728 C729 1.388 . S
C729 H716 0.930 . S
C729 C728 1.388 . S
C729 C730 1.390 . S
C730 C729 1.390 . S
C730 C731 1.394 . S
C730 C736 1.465 . S
C731 C726 1.399 . S
C731 C730 1.394 . S
C731 C732 1.516 . S
C732 C731 1.516 . S
C732 C733 1.502 . S
C732 C734 1.561 . S
C732 C735 1.526 . S
C733 H717 0.959 . S
C733 H718 0.959 . S
C733 H719 0.961 . S
C733 C732 1.502 . S
C734 H720 0.960 . S
C734 H721 0.961 . S
C734 H722 0.959 . S
C734 C732 1.561 . S
C735 C732 1.526 . S
C735 C736 1.396 . S
C735 C740 1.390 . S
C736 C730 1.465 . S
C736 C735 1.396 . S
C736 C737 1.399 . S
C737 H723 0.929 . S
C737 C736 1.399 . S
C737 C738 1.385 . S
C738 H724 0.931 . S
C738 C737 1.385 . S
C738 C739 1.389 . S
C739 C738 1.389 . S
C739 C740 1.387 . S
C740 H725 0.930 . S
C740 C735 1.390 . S
C740 C739 1.387 . S
H741 C753 0.930 . S
H742 C755 0.930 . S
H743 C756 0.930 . S
H744 C760 0.959 . S
H745 C760 0.959 . S
H746 C760 0.961 . S
H747 C761 0.960 . S
H748 C761 0.961 . S
H749 C761 0.959 . S
H750 C764 0.929 . S
H751 C765 0.931 . S
H752 C767 0.930 . S
C753 H741 0.930 . S
C753 C754 1.399 . S
C753 C758 1.399 . S
C754 C753 1.399 . S
C754 C755 1.376 . S
C755 H742 0.930 . S
C755 C754 1.376 . S
C755 C756 1.388 . S
C756 H743 0.930 . S
C756 C755 1.388 . S
C756 C757 1.390 . S
C757 C756 1.390 . S
C757 C758 1.394 . S
C757 C763 1.465 . S
C758 C753 1.399 . S
C758 C757 1.394 . S
C758 C759 1.516 . S
C759 C758 1.516 . S
C759 C760 1.502 . S
C759 C761 1.561 . S
C759 C762 1.526 . S
C760 H744 0.959 . S
C760 H745 0.959 . S
C760 H746 0.961 . S
C760 C759 1.502 . S
C761 H747 0.960 . S
C761 H748 0.961 . S
C761 H749 0.959 . S
C761 C759 1.561 . S
C762 C759 1.526 . S
C762 C763 1.396 . S
C762 C767 1.390 . S
C763 C757 1.465 . S
C763 C762 1.396 . S
C763 C764 1.399 . S
C764 H750 0.929 . S
C764 C763 1.399 . S
C764 C765 1.385 . S
C765 H751 0.931 . S
C765 C764 1.385 . S
C765 C766 1.389 . S
C766 C765 1.389 . S
C766 C767 1.387 . S
C767 H752 0.930 . S
C767 C762 1.390 . S
C767 C766 1.387 . S
H768 C780 0.930 . S
H769 C782 0.930 . S
H770 C783 0.930 . S
H771 C787 0.959 . S
H772 C787 0.959 . S
H773 C787 0.961 . S
H774 C788 0.960 . S
H775 C788 0.961 . S
H776 C788 0.959 . S
H777 C791 0.929 . S
H778 C792 0.931 . S
H779 C794 0.930 . S
C780 H768 0.930 . S
C780 C781 1.399 . S
C780 C785 1.399 . S
C781 C780 1.399 . S
C781 C782 1.376 . S
C782 H769 0.930 . S
C782 C781 1.376 . S
C782 C783 1.388 . S
C783 H770 0.930 . S
C783 C782 1.388 . S
C783 C784 1.390 . S
C784 C783 1.390 . S
C784 C785 1.394 . S
C784 C790 1.465 . S
C785 C780 1.399 . S
C785 C784 1.394 . S
C785 C786 1.516 . S
C786 C785 1.516 . S
C786 C787 1.502 . S
C786 C788 1.561 . S
C786 C789 1.526 . S
C787 H771 0.959 . S
C787 H772 0.959 . S
C787 H773 0.961 . S
C787 C786 1.502 . S
C788 H774 0.960 . S
C788 H775 0.961 . S
C788 H776 0.959 . S
C788 C786 1.561 . S
C789 C786 1.526 . S
C789 C790 1.396 . S
C789 C794 1.390 . S
C790 C784 1.465 . S
C790 C789 1.396 . S
C790 C791 1.399 . S
C791 H777 0.929 . S
C791 C790 1.399 . S
C791 C792 1.385 . S
C792 H778 0.931 . S
C792 C791 1.385 . S
C792 C793 1.389 . S
C793 C792 1.389 . S
C793 C794 1.387 . S
C794 H779 0.930 . S
C794 C789 1.390 . S
C794 C793 1.387 . S
H795 C807 0.930 . S
H796 C809 0.930 . S
H797 C810 0.930 . S
H798 C814 0.959 . S
H799 C814 0.959 . S
H800 C814 0.961 . S
H801 C815 0.960 . S
H802 C815 0.961 . S
H803 C815 0.959 . S
H804 C818 0.929 . S
H805 C819 0.931 . S
H806 C821 0.930 . S
C807 H795 0.930 . S
C807 C808 1.399 . S
C807 C812 1.399 . S
C808 C807 1.399 . S
C808 C809 1.376 . S
C809 H796 0.930 . S
C809 C808 1.376 . S
C809 C810 1.388 . S
C810 H797 0.930 . S
C810 C809 1.388 . S
C810 C811 1.390 . S
C811 C810 1.390 . S
C811 C812 1.394 . S
C811 C817 1.465 . S
C812 C807 1.399 . S
C812 C811 1.394 . S
C812 C813 1.516 . S
C813 C812 1.516 . S
C813 C814 1.502 . S
C813 C815 1.561 . S
C813 C816 1.526 . S
C814 H798 0.959 . S
C814 H799 0.959 . S
C814 H800 0.961 . S
C814 C813 1.502 . S
C815 H801 0.960 . S
C815 H802 0.961 . S
C815 H803 0.959 . S
C815 C813 1.561 . S
C816 C813 1.526 . S
C816 C817 1.396 . S
C816 C821 1.390 . S
C817 C811 1.465 . S
C817 C816 1.396 . S
C817 C818 1.399 . S
C818 H804 0.929 . S
C818 C817 1.399 . S
C818 C819 1.385 . S
C819 H805 0.931 . S
C819 C818 1.385 . S
C819 C820 1.389 . S
C820 C819 1.389 . S
C820 C821 1.387 . S
C821 H806 0.930 . S
C821 C816 1.390 . S
C821 C820 1.387 . S
H822 C834 0.930 . S
H823 C836 0.930 . S
H824 C837 0.930 . S
H825 C841 0.959 . S
H826 C841 0.959 . S
H827 C841 0.961 . S
H828 C842 0.960 . S
H829 C842 0.961 . S
H830 C842 0.959 . S
H831 C845 0.929 . S
H832 C846 0.931 . S
H833 C848 0.930 . S
C834 H822 0.930 . S
C834 C835 1.399 . S
C834 C839 1.399 . S
C835 C834 1.399 . S
C835 C836 1.376 . S
C836 H823 0.930 . S
C836 C835 1.376 . S
C836 C837 1.388 . S
C837 H824 0.930 . S
C837 C836 1.388 . S
C837 C838 1.390 . S
C838 C837 1.390 . S
C838 C839 1.394 . S
C838 C844 1.465 . S
C839 C834 1.399 . S
C839 C838 1.394 . S
C839 C840 1.516 . S
C840 C839 1.516 . S
C840 C841 1.502 . S
C840 C842 1.561 . S
C840 C843 1.526 . S
C841 H825 0.959 . S
C841 H826 0.959 . S
C841 H827 0.961 . S
C841 C840 1.502 . S
C842 H828 0.960 . S
C842 H829 0.961 . S
C842 H830 0.959 . S
C842 C840 1.561 . S
C843 C840 1.526 . S
C843 C844 1.396 . S
C843 C848 1.390 . S
C844 C838 1.465 . S
C844 C843 1.396 . S
C844 C845 1.399 . S
C845 H831 0.929 . S
C845 C844 1.399 . S
C845 C846 1.385 . S
C846 H832 0.931 . S
C846 C845 1.385 . S
C846 C847 1.389 . S
C847 C846 1.389 . S
C847 C848 1.387 . S
C848 H833 0.930 . S
C848 C843 1.390 . S
C848 C847 1.387 . S
H849 C861 0.930 . S
H850 C863 0.930 . S
H851 C864 0.930 . S
H852 C868 0.959 . S
H853 C868 0.959 . S
H854 C868 0.961 . S
H855 C869 0.960 . S
H856 C869 0.961 . S
H857 C869 0.959 . S
H858 C872 0.929 . S
H859 C873 0.931 . S
H860 C875 0.930 . S
C861 H849 0.930 . S
C861 C862 1.399 . S
C861 C866 1.399 . S
C862 C861 1.399 . S
C862 C863 1.376 . S
C863 H850 0.930 . S
C863 C862 1.376 . S
C863 C864 1.388 . S
C864 H851 0.930 . S
C864 C863 1.388 . S
C864 C865 1.390 . S
C865 C864 1.390 . S
C865 C866 1.394 . S
C865 C871 1.465 . S
C866 C861 1.399 . S
C866 C865 1.394 . S
C866 C867 1.516 . S
C867 C866 1.516 . S
C867 C868 1.502 . S
C867 C869 1.561 . S
C867 C870 1.526 . S
C868 H852 0.959 . S
C868 H853 0.959 . S
C868 H854 0.961 . S
C868 C867 1.502 . S
C869 H855 0.960 . S
C869 H856 0.961 . S
C869 H857 0.959 . S
C869 C867 1.561 . S
C870 C867 1.526 . S
C870 C871 1.396 . S
C870 C875 1.390 . S
C871 C865 1.465 . S
C871 C870 1.396 . S
C871 C872 1.399 . S
C872 H858 0.929 . S
C872 C871 1.399 . S
C872 C873 1.385 . S
C873 H859 0.931 . S
C873 C872 1.385 . S
C873 C874 1.389 . S
C874 C873 1.389 . S
C874 C875 1.387 . S
C875 H860 0.930 . S
C875 C870 1.390 . S
C875 C874 1.387 . S
H876 C888 0.930 . S
H877 C890 0.930 . S
H878 C891 0.930 . S
H879 C895 0.959 . S
H880 C895 0.959 . S
H881 C895 0.961 . S
H882 C896 0.960 . S
H883 C896 0.961 . S
H884 C896 0.959 . S
H885 C899 0.929 . S
H886 C900 0.931 . S
H887 C902 0.930 . S
C888 H876 0.930 . S
C888 C889 1.399 . S
C888 C893 1.399 . S
C889 C888 1.399 . S
C889 C890 1.376 . S
C890 H877 0.930 . S
C890 C889 1.376 . S
C890 C891 1.388 . S
C891 H878 0.930 . S
C891 C890 1.388 . S
C891 C892 1.390 . S
C892 C891 1.390 . S
C892 C893 1.394 . S
C892 C898 1.465 . S
C893 C888 1.399 . S
C893 C892 1.394 . S
C893 C894 1.516 . S
C894 C893 1.516 . S
C894 C895 1.502 . S
C894 C896 1.561 . S
C894 C897 1.526 . S
C895 H879 0.959 . S
C895 H880 0.959 . S
C895 H881 0.961 . S
C895 C894 1.502 . S
C896 H882 0.960 . S
C896 H883 0.961 . S
C896 H884 0.959 . S
C896 C894 1.561 . S
C897 C894 1.526 . S
C897 C898 1.396 . S
C897 C902 1.390 . S
C898 C892 1.465 . S
C898 C897 1.396 . S
C898 C899 1.399 . S
C899 H885 0.929 . S
C899 C898 1.399 . S
C899 C900 1.385 . S
C900 H886 0.931 . S
C900 C899 1.385 . S
C900 C901 1.389 . S
C901 C900 1.389 . S
C901 C902 1.387 . S
C902 H887 0.930 . S
C902 C897 1.390 . S
C902 C901 1.387 . S
H903 C915 0.930 . S
H904 C917 0.930 . S
H905 C918 0.930 . S
H906 C922 0.959 . S
H907 C922 0.959 . S
H908 C922 0.961 . S
H909 C923 0.960 . S
H910 C923 0.961 . S
H911 C923 0.959 . S
H912 C926 0.929 . S
H913 C927 0.931 . S
H914 C929 0.930 . S
C915 H903 0.930 . S
C915 C916 1.399 . S
C915 C920 1.399 . S
C916 C915 1.399 . S
C916 C917 1.376 . S
C917 H904 0.930 . S
C917 C916 1.376 . S
C917 C918 1.388 . S
C918 H905 0.930 . S
C918 C917 1.388 . S
C918 C919 1.390 . S
C919 C918 1.390 . S
C919 C920 1.394 . S
C919 C925 1.465 . S
C920 C915 1.399 . S
C920 C919 1.394 . S
C920 C921 1.516 . S
C921 C920 1.516 . S
C921 C922 1.502 . S
C921 C923 1.561 . S
C921 C924 1.526 . S
C922 H906 0.959 . S
C922 H907 0.959 . S
C922 H908 0.961 . S
C922 C921 1.502 . S
C923 H909 0.960 . S
C923 H910 0.961 . S
C923 H911 0.959 . S
C923 C921 1.561 . S
C924 C921 1.526 . S
C924 C925 1.396 . S
C924 C929 1.390 . S
C925 C919 1.465 . S
C925 C924 1.396 . S
C925 C926 1.399 . S
C926 H912 0.929 . S
C926 C925 1.399 . S
C926 C927 1.385 . S
C927 H913 0.931 . S
C927 C926 1.385 . S
C927 C928 1.389 . S
C928 C927 1.389 . S
C928 C929 1.387 . S
C929 H914 0.930 . S
C929 C924 1.390 . S
C929 C928 1.387 . S
H930 C942 0.930 . S
H931 C944 0.930 . S
H932 C945 0.930 . S
H933 C949 0.959 . S
H934 C949 0.959 . S
H935 C949 0.961 . S
H936 C950 0.960 . S
H937 C950 0.961 . S
H938 C950 0.959 . S
H939 C953 0.929 . S
H940 C954 0.931 . S
H941 C956 0.930 . S
C942 H930 0.930 . S
C942 C943 1.399 . S
C942 C947 1.399 . S
C943 C942 1.399 . S
C943 C944 1.376 . S
C944 H931 0.930 . S
C944 C943 1.376 . S
C944 C945 1.388 . S
C945 H932 0.930 . S
C945 C944 1.388 . S
C945 C946 1.390 . S
C946 C945 1.390 . S
C946 C947 1.394 . S
C946 C952 1.465 . S
C947 C942 1.399 . S
C947 C946 1.394 . S
C947 C948 1.516 . S
C948 C947 1.516 . S
C948 C949 1.502 . S
C948 C950 1.561 . S
C948 C951 1.526 . S
C949 H933 0.959 . S
C949 H934 0.959 . S
C949 H935 0.961 . S
C949 C948 1.502 . S
C950 H936 0.960 . S
C950 H937 0.961 . S
C950 H938 0.959 . S
C950 C948 1.561 . S
C951 C948 1.526 . S
C951 C952 1.396 . S
C951 C956 1.390 . S
C952 C946 1.465 . S
C952 C951 1.396 . S
C952 C953 1.399 . S
C953 H939 0.929 . S
C953 C952 1.399 . S
C953 C954 1.385 . S
C954 H940 0.931 . S
C954 C953 1.385 . S
C954 C955 1.389 . S
C955 C954 1.389 . S
C955 C956 1.387 . S
C956 H941 0.930 . S
C956 C951 1.390 . S
C956 C955 1.387 . S
H957 C969 0.930 . S
H958 C971 0.930 . S
H959 C972 0.930 . S
H960 C976 0.959 . S
H961 C976 0.959 . S
H962 C976 0.961 . S
H963 C977 0.960 . S
H964 C977 0.961 . S
H965 C977 0.959 . S
H966 C980 0.929 . S
H967 C981 0.931 . S
H968 C983 0.930 . S
C969 H957 0.930 . S
C969 C970 1.399 . S
C969 C974 1.399 . S
C970 C969 1.399 . S
C970 C971 1.376 . S
C971 H958 0.930 . S
C971 C970 1.376 . S
C971 C972 1.388 . S
C972 H959 0.930 . S
C972 C971 1.388 . S
C972 C973 1.390 . S
C973 C972 1.390 . S
C973 C974 1.394 . S
C973 C979 1.465 . S
C974 C969 1.399 . S
C974 C973 1.394 . S
C974 C975 1.516 . S
C975 C974 1.516 . S
C975 C976 1.502 . S
C975 C977 1.561 . S
C975 C978 1.526 . S
C976 H960 0.959 . S
C976 H961 0.959 . S
C976 H962 0.961 . S
C976 C975 1.502 . S
C977 H963 0.960 . S
C977 H964 0.961 . S
C977 H965 0.959 . S
C977 C975 1.561 . S
C978 C975 1.526 . S
C978 C979 1.396 . S
C978 C983 1.390 . S
C979 C973 1.465 . S
C979 C978 1.396 . S
C979 C980 1.399 . S
C980 H966 0.929 . S
C980 C979 1.399 . S
C980 C981 1.385 . S
C981 H967 0.931 . S
C981 C980 1.385 . S
C981 C982 1.389 . S
C982 C981 1.389 . S
C982 C983 1.387 . S
C983 H968 0.930 . S
C983 C978 1.390 . S
C983 C982 1.387 . S
H984 C996 0.930 . S
H985 C998 0.930 . S
H986 C999 0.930 . S
H987 C1003 0.959 . S
H988 C1003 0.959 . S
H989 C1003 0.945 1_556 S
H990 C1004 0.960 . S
H991 C1004 0.961 . S
H992 C1004 0.959 . S
H993 C1007 0.929 . S
H994 C1008 0.931 . S
H995 C1010 0.930 1_565 S
C996 H984 0.930 . S
C996 C997 1.399 . S
C996 C1001 1.399 . S
C997 C996 1.399 . S
C997 C998 1.376 . S
C998 H985 0.930 . S
C998 C997 1.376 . S
C998 C999 1.388 1_565 S
C999 H986 0.930 . S
C999 C998 1.388 1_545 S
C999 C1000 1.387 . S
C1000 C999 1.387 . S
C1000 C1001 1.383 1_545 S
C1000 C1006 1.480 1_556 S
C1001 C996 1.399 . S
C1001 C1000 1.383 1_565 S
C1001 C1002 1.516 1_556 S
C1002 C1001 1.516 1_554 S
C1002 C1003 1.502 . S
C1002 C1004 1.561 . S
C1002 C1005 1.522 1_565 S
C1003 H987 0.959 . S
C1003 H988 0.959 . S
C1003 H989 0.945 1_554 S
C1003 C1002 1.502 . S
C1004 H990 0.960 . S
C1004 H991 0.961 . S
C1004 H992 0.959 . S
C1004 C1002 1.561 . S
C1005 C1002 1.522 1_545 S
C1005 C1006 1.397 . S
C1005 C1010 1.392 . S
C1006 C1000 1.480 1_554 S
C1006 C1005 1.397 . S
C1006 C1007 1.399 . S
C1007 H993 0.929 . S
C1007 C1006 1.399 . S
C1007 C1008 1.385 . S
C1008 H994 0.931 . S
C1008 C1007 1.385 . S
C1008 C1009 1.389 . S
C1009 C1008 1.389 . S
C1009 C1010 1.387 . S
C1010 H995 0.930 1_545 S
C1010 C1005 1.392 . S
C1010 C1009 1.387 . S
H1011 C1023 0.930 . S
H1012 C1025 0.930 . S
H1013 C1026 0.930 . S
H1014 C1030 0.959 . S
H1015 C1030 0.959 . S
H1016 C1030 0.961 . S
H1017 C1031 0.960 . S
H1018 C1031 0.961 . S
H1019 C1031 0.959 . S
H1020 C1034 0.929 . S
H1021 C1035 0.931 . S
H1022 C1037 0.930 . S
C1023 H1011 0.930 . S
C1023 C1024 1.399 . S
C1023 C1028 1.399 . S
C1024 C1023 1.399 . S
C1024 C1025 1.376 . S
C1025 H1012 0.930 . S
C1025 C1024 1.376 . S
C1025 C1026 1.388 . S
C1026 H1013 0.930 . S
C1026 C1025 1.388 . S
C1026 C1027 1.390 . S
C1027 C1026 1.390 . S
C1027 C1028 1.394 . S
C1027 C1033 1.465 . S
C1028 C1023 1.399 . S
C1028 C1027 1.394 . S
C1028 C1029 1.516 . S
C1029 C1028 1.516 . S
C1029 C1030 1.502 . S
C1029 C1031 1.561 . S
C1029 C1032 1.526 . S
C1030 H1014 0.959 . S
C1030 H1015 0.959 . S
C1030 H1016 0.961 . S
C1030 C1029 1.502 . S
C1031 H1017 0.960 . S
C1031 H1018 0.961 . S
C1031 H1019 0.959 . S
C1031 C1029 1.561 . S
C1032 C1029 1.526 . S
C1032 C1033 1.396 . S
C1032 C1037 1.390 . S
C1033 C1027 1.465 . S
C1033 C1032 1.396 . S
C1033 C1034 1.399 . S
C1034 H1020 0.929 . S
C1034 C1033 1.399 . S
C1034 C1035 1.385 . S
C1035 H1021 0.931 . S
C1035 C1034 1.385 . S
C1035 C1036 1.389 . S
C1036 C1035 1.389 . S
C1036 C1037 1.387 . S
C1037 H1022 0.930 . S
C1037 C1032 1.390 . S
C1037 C1036 1.387 . S
H1038 C1050 0.930 . S
H1039 C1052 0.930 . S
H1040 C1053 0.930 . S
H1041 C1057 0.959 . S
H1042 C1057 0.959 . S
H1043 C1057 0.961 1_556 S
H1044 C1058 0.960 . S
H1045 C1058 0.961 . S
H1046 C1058 0.959 . S
H1047 C1061 0.929 . S
H1048 C1062 0.931 . S
H1049 C1064 0.930 . S
C1050 H1038 0.930 . S
C1050 C1051 1.399 . S
C1050 C1055 1.399 . S
C1051 C1050 1.399 . S
C1051 C1052 1.376 . S
C1052 H1039 0.930 . S
C1052 C1051 1.376 . S
C1052 C1053 1.388 . S
C1053 H1040 0.930 . S
C1053 C1052 1.388 . S
C1053 C1054 1.390 . S
C1054 C1053 1.390 . S
C1054 C1055 1.394 . S
C1054 C1060 1.465 1_456 S
C1055 C1050 1.399 . S
C1055 C1054 1.394 . S
C1055 C1056 1.516 1_455 S
C1056 C1055 1.516 1_655 S
C1056 C1057 1.502 1_656 S
C1056 C1058 1.561 . S
C1056 C1059 1.526 1_556 S
C1057 H1041 0.959 . S
C1057 H1042 0.959 . S
C1057 H1043 0.961 1_554 S
C1057 C1056 1.502 1_454 S
C1058 H1044 0.960 . S
C1058 H1045 0.961 . S
C1058 H1046 0.959 . S
C1058 C1056 1.561 . S
C1059 C1056 1.526 1_554 S
C1059 C1060 1.396 . S
C1059 C1064 1.390 . S
C1060 C1054 1.465 1_654 S
C1060 C1059 1.396 . S
C1060 C1061 1.399 . S
C1061 H1047 0.929 . S
C1061 C1060 1.399 . S
C1061 C1062 1.385 . S
C1062 H1048 0.931 . S
C1062 C1061 1.385 . S
C1062 C1063 1.389 . S
C1063 C1062 1.389 . S
C1063 C1064 1.387 . S
C1064 H1049 0.930 . S
C1064 C1059 1.390 . S
C1064 C1063 1.387 . S
H1065 C1077 0.930 . S
H1066 C1079 0.930 . S
H1067 C1080 0.930 . S
H1068 C1084 0.959 1_545 S
H1069 C1084 0.959 . S
H1070 C1084 0.961 . S
H1071 C1085 0.960 . S
H1072 C1085 0.961 . S
H1073 C1085 0.959 . S
H1074 C1088 0.929 1_545 S
H1075 C1089 0.931 . S
H1076 C1091 0.930 . S
C1077 H1065 0.930 . S
C1077 C1078 1.399 . S
C1077 C1082 1.399 . S
C1078 C1077 1.399 . S
C1078 C1079 1.376 . S
C1079 H1066 0.930 . S
C1079 C1078 1.376 . S
C1079 C1080 1.388 . S
C1080 H1067 0.930 . S
C1080 C1079 1.388 . S
C1080 C1081 1.390 . S
C1081 C1080 1.390 . S
C1081 C1082 1.394 . S
C1081 C1087 1.465 1_545 S
C1082 C1077 1.399 . S
C1082 C1081 1.394 . S
C1082 C1083 1.516 1_545 S
C1083 C1082 1.516 1_565 S
C1083 C1084 1.502 . S
C1083 C1085 1.561 . S
C1083 C1086 1.526 . S
C1084 H1068 0.959 1_565 S
C1084 H1069 0.959 . S
C1084 H1070 0.961 . S
C1084 C1083 1.502 . S
C1085 H1071 0.960 . S
C1085 H1072 0.961 . S
C1085 H1073 0.959 . S
C1085 C1083 1.561 . S
C1086 C1083 1.526 . S
C1086 C1087 1.396 . S
C1086 C1091 1.390 . S
C1087 C1081 1.465 1_565 S
C1087 C1086 1.396 . S
C1087 C1088 1.399 . S
C1088 H1074 0.929 1_565 S
C1088 C1087 1.399 . S
C1088 C1089 1.385 . S
C1089 H1075 0.931 . S
C1089 C1088 1.385 . S
C1089 C1090 1.389 . S
C1090 C1089 1.389 . S
C1090 C1091 1.387 . S
C1091 H1076 0.930 . S
C1091 C1086 1.390 . S
C1091 C1090 1.387 . S
H1092 C1104 0.930 . S
H1093 C1106 0.930 . S
H1094 C1107 0.930 . S
H1095 C1111 0.959 . S
H1096 C1111 0.959 . S
H1097 C1111 0.961 . S
H1098 C1112 0.960 1_554 S
H1099 C1112 0.961 . S
H1100 C1112 0.974 . S
H1101 C1115 0.929 . S
H1102 C1116 0.931 . S
H1103 C1118 0.930 . S
C1104 H1092 0.930 . S
C1104 C1105 1.399 . S
C1104 C1109 1.399 . S
C1105 C1104 1.399 . S
C1105 C1106 1.376 . S
C1106 H1093 0.930 . S
C1106 C1105 1.376 . S
C1106 C1107 1.388 . S
C1107 H1094 0.930 . S
C1107 C1106 1.388 . S
C1107 C1108 1.390 . S
C1108 C1107 1.390 . S
C1108 C1109 1.394 . S
C1108 C1114 1.465 1_554 S
C1109 C1104 1.399 . S
C1109 C1108 1.394 . S
C1109 C1110 1.516 1_554 S
C1110 C1109 1.516 1_556 S
C1110 C1111 1.502 . S
C1110 C1112 1.561 . S
C1110 C1113 1.526 . S
C1111 H1095 0.959 . S
C1111 H1096 0.959 . S
C1111 H1097 0.961 . S
C1111 C1110 1.502 . S
C1112 H1098 0.960 1_556 S
C1112 H1099 0.961 . S
C1112 H1100 0.974 . S
C1112 C1110 1.561 . S
C1113 C1110 1.526 . S
C1113 C1114 1.396 . S
C1113 C1118 1.390 . S
C1114 C1108 1.465 1_556 S
C1114 C1113 1.396 . S
C1114 C1115 1.399 . S
C1115 H1101 0.929 . S
C1115 C1114 1.399 . S
C1115 C1116 1.385 . S
C1116 H1102 0.931 . S
C1116 C1115 1.385 . S
C1116 C1117 1.389 . S
C1117 C1116 1.389 . S
C1117 C1118 1.387 . S
C1118 H1103 0.930 . S
C1118 C1113 1.390 . S
C1118 C1117 1.387 . S
H1119 C1131 0.930 . S
H1120 C1133 0.930 . S
H1121 C1134 0.926 . S
H1122 C1138 0.959 . S
H1123 C1138 0.959 . S
H1124 C1138 0.961 1_455 S
H1125 C1139 0.960 . S
H1126 C1139 0.961 . S
H1127 C1139 0.959 . S
H1128 C1142 0.929 . S
H1129 C1143 0.931 . S
H1130 C1145 0.930 . S
C1131 H1119 0.930 . S
C1131 C1132 1.399 . S
C1131 C1136 1.399 . S
C1132 C1131 1.399 . S
C1132 C1133 1.376 . S
C1133 H1120 0.930 . S
C1133 C1132 1.376 . S
C1133 C1134 1.388 . S
C1134 H1121 0.926 . S
C1134 C1133 1.388 . S
C1134 C1135 1.390 . S
C1135 C1134 1.390 . S
C1135 C1136 1.394 . S
C1135 C1141 1.465 1_455 S
C1136 C1131 1.399 . S
C1136 C1135 1.394 . S
C1136 C1137 1.516 . S
C1137 C1136 1.516 . S
C1137 C1138 1.502 1_455 S
C1137 C1139 1.561 . S
C1137 C1140 1.526 1_455 S
C1138 H1122 0.959 . S
C1138 H1123 0.959 . S
C1138 H1124 0.961 1_655 S
C1138 C1137 1.502 1_655 S
C1139 H1125 0.960 . S
C1139 H1126 0.961 . S
C1139 H1127 0.959 . S
C1139 C1137 1.561 . S
C1140 C1137 1.526 1_655 S
C1140 C1141 1.396 . S
C1140 C1145 1.390 . S
C1141 C1135 1.465 1_655 S
C1141 C1140 1.396 . S
C1141 C1142 1.399 . S
C1142 H1128 0.929 . S
C1142 C1141 1.399 . S
C1142 C1143 1.385 . S
C1143 H1129 0.931 . S
C1143 C1142 1.385 . S
C1143 C1144 1.389 . S
C1144 C1143 1.389 . S
C1144 C1145 1.387 . S
C1145 H1130 0.930 . S
C1145 C1140 1.390 . S
C1145 C1144 1.387 . S
H1146 C1158 0.930 . S
H1147 C1160 0.930 1_545 S
H1148 C1161 0.930 . S
H1149 C1165 0.959 . S
H1150 C1165 0.959 . S
H1151 C1165 0.961 . S
H1152 C1166 0.960 . S
H1153 C1166 0.961 . S
H1154 C1166 0.959 . S
H1155 C1169 0.929 . S
H1156 C1170 0.931 . S
H1157 C1172 0.930 1_565 S
C1158 H1146 0.930 . S
C1158 C1159 1.399 . S
C1158 C1163 1.399 . S
C1159 C1158 1.399 . S
C1159 C1160 1.376 . S
C1160 H1147 0.930 1_565 S
C1160 C1159 1.376 . S
C1160 C1161 1.388 1_565 S
C1161 H1148 0.930 . S
C1161 C1160 1.388 1_545 S
C1161 C1162 1.390 . S
C1162 C1161 1.390 . S
C1162 C1163 1.394 1_545 S
C1162 C1168 1.465 1_556 S
C1163 C1158 1.399 . S
C1163 C1162 1.394 1_565 S
C1163 C1164 1.516 1_556 S
C1164 C1163 1.516 1_554 S
C1164 C1165 1.502 . S
C1164 C1166 1.561 . S
C1164 C1167 1.526 . S
C1165 H1149 0.959 . S
C1165 H1150 0.959 . S
C1165 H1151 0.961 . S
C1165 C1164 1.502 . S
C1166 H1152 0.960 . S
C1166 H1153 0.961 . S
C1166 H1154 0.959 . S
C1166 C1164 1.561 . S
C1167 C1164 1.526 . S
C1167 C1168 1.396 1_565 S
C1167 C1172 1.390 1_565 S
C1168 C1162 1.465 1_554 S
C1168 C1167 1.396 1_545 S
C1168 C1169 1.399 . S
C1169 H1155 0.929 . S
C1169 C1168 1.399 . S
C1169 C1170 1.385 . S
C1170 H1156 0.931 . S
C1170 C1169 1.385 . S
C1170 C1171 1.389 . S
C1171 C1170 1.389 . S
C1171 C1172 1.387 . S
C1172 H1157 0.930 1_545 S
C1172 C1167 1.390 1_545 S
C1172 C1171 1.387 . S
H1173 C1185 0.930 . S
H1174 C1187 0.930 . S
H1175 C1188 0.930 . S
H1176 C1192 0.959 . S
H1177 C1192 0.959 . S
H1178 C1192 0.961 . S
H1179 C1193 0.960 . S
H1180 C1193 0.961 . S
H1181 C1193 0.959 . S
H1182 C1196 0.929 . S
H1183 C1197 0.931 . S
H1184 C1199 0.930 . S
C1185 H1173 0.930 . S
C1185 C1186 1.399 . S
C1185 C1190 1.399 . S
C1186 C1185 1.399 . S
C1186 C1187 1.376 . S
C1187 H1174 0.930 . S
C1187 C1186 1.376 . S
C1187 C1188 1.388 . S
C1188 H1175 0.930 . S
C1188 C1187 1.388 . S
C1188 C1189 1.390 . S
C1189 C1188 1.390 . S
C1189 C1190 1.394 . S
C1189 C1195 1.465 . S
C1190 C1185 1.399 . S
C1190 C1189 1.394 . S
C1190 C1191 1.516 . S
C1191 C1190 1.516 . S
C1191 C1192 1.502 . S
C1191 C1193 1.561 . S
C1191 C1194 1.526 . S
C1192 H1176 0.959 . S
C1192 H1177 0.959 . S
C1192 H1178 0.961 . S
C1192 C1191 1.502 . S
C1193 H1179 0.960 . S
C1193 H1180 0.961 . S
C1193 H1181 0.959 . S
C1193 C1191 1.561 . S
C1194 C1191 1.526 . S
C1194 C1195 1.396 . S
C1194 C1199 1.390 . S
C1195 C1189 1.465 . S
C1195 C1194 1.396 . S
C1195 C1196 1.399 . S
C1196 H1182 0.929 . S
C1196 C1195 1.399 . S
C1196 C1197 1.385 . S
C1197 H1183 0.931 . S
C1197 C1196 1.385 . S
C1197 C1198 1.389 . S
C1198 C1197 1.389 . S
C1198 C1199 1.387 . S
C1199 H1184 0.930 . S
C1199 C1194 1.390 . S
C1199 C1198 1.387 . S
H1200 C1212 0.930 . S
H1201 C1214 0.930 . S
H1202 C1215 0.930 . S
H1203 C1219 0.959 . S
H1204 C1219 0.959 . S
H1205 C1219 0.961 1_554 S
H1206 C1220 0.960 . S
H1207 C1220 0.961 1_556 S
H1208 C1220 0.959 . S
H1209 C1223 0.929 . S
H1210 C1224 0.931 . S
H1211 C1226 0.930 . S
C1212 H1200 0.930 . S
C1212 C1213 1.399 . S
C1212 C1217 1.399 . S
C1213 C1212 1.399 . S
C1213 C1214 1.376 . S
C1214 H1201 0.930 . S
C1214 C1213 1.376 . S
C1214 C1215 1.388 . S
C1215 H1202 0.930 . S
C1215 C1214 1.388 . S
C1215 C1216 1.390 . S
C1216 C1215 1.390 . S
C1216 C1217 1.394 . S
C1216 C1222 1.465 1_654 S
C1217 C1212 1.399 . S
C1217 C1216 1.394 . S
C1217 C1218 1.529 1_655 S
C1218 C1217 1.529 1_455 S
C1218 C1219 1.448 1_454 S
C1218 C1220 1.588 . S
C1218 C1221 1.550 1_554 S
C1219 H1203 0.959 . S
C1219 H1204 0.959 . S
C1219 H1205 0.961 1_556 S
C1219 C1218 1.448 1_656 S
C1220 H1206 0.960 . S
C1220 H1207 0.961 1_554 S
C1220 H1208 0.959 . S
C1220 C1218 1.588 . S
C1221 C1218 1.550 1_556 S
C1221 C1222 1.396 . S
C1221 C1226 1.390 . S
C1222 C1216 1.465 1_456 S
C1222 C1221 1.396 . S
C1222 C1223 1.399 . S
C1223 H1209 0.929 . S
C1223 C1222 1.399 . S
C1223 C1224 1.385 . S
C1224 H1210 0.931 . S
C1224 C1223 1.385 . S
C1224 C1225 1.389 . S
C1225 C1224 1.389 . S
C1225 C1226 1.387 . S
C1226 H1211 0.930 . S
C1226 C1221 1.390 . S
C1226 C1225 1.387 . S
H1227 C1239 0.930 1_545 S
H1228 C1241 0.930 . S
H1229 C1242 0.930 . S
H1230 C1246 0.959 . S
H1231 C1246 0.959 . S
H1232 C1246 0.961 . S
H1233 C1247 0.960 . S
H1234 C1247 0.961 . S
H1235 C1247 0.959 . S
H1236 C1250 0.929 . S
H1237 C1251 0.934 . S
H1238 C1253 0.930 . S
C1239 H1227 0.930 1_565 S
C1239 C1240 1.399 . S
C1239 C1244 1.399 1_565 S
C1240 C1239 1.399 . S
C1240 C1241 1.376 . S
C1241 H1228 0.930 . S
C1241 C1240 1.376 . S
C1241 C1242 1.388 . S
C1242 H1229 0.930 . S
C1242 C1241 1.388 . S
C1242 C1243 1.390 . S
C1243 C1242 1.390 . S
C1243 C1244 1.394 1_565 S
C1243 C1249 1.465 . S
C1244 C1239 1.399 1_545 S
C1244 C1243 1.394 1_545 S
C1244 C1245 1.516 . S
C1245 C1244 1.516 . S
C1245 C1246 1.502 . S
C1245 C1247 1.561 . S
C1245 C1248 1.526 . S
C1246 H1230 0.959 . S
C1246 H1231 0.959 . S
C1246 H1232 0.961 . S
C1246 C1245 1.502 . S
C1247 H1233 0.960 . S
C1247 H1234 0.961 . S
C1247 H1235 0.959 . S
C1247 C1245 1.561 . S
C1248 C1245 1.526 . S
C1248 C1249 1.396 1_545 S
C1248 C1253 1.390 . S
C1249 C1243 1.465 . S
C1249 C1248 1.396 1_565 S
C1249 C1250 1.399 . S
C1250 H1236 0.929 . S
C1250 C1249 1.399 . S
C1250 C1251 1.389 . S
C1251 H1237 0.934 . S
C1251 C1250 1.389 . S
C1251 C1252 1.382 1_565 S
C1252 C1251 1.382 1_545 S
C1252 C1253 1.387 . S
C1253 H1238 0.930 . S
C1253 C1248 1.390 . S
C1253 C1252 1.387 . S
H1254 C1266 0.930 . S
H1255 C1268 0.930 . S
H1256 C1269 0.930 . S
H1257 C1273 0.959 . S
H1258 C1273 0.959 . S
H1259 C1273 0.961 . S
H1260 C1274 0.960 . S
H1261 C1274 0.961 . S
H1262 C1274 0.959 . S
H1263 C1277 0.929 . S
H1264 C1278 0.931 . S
H1265 C1280 0.930 . S
C1266 H1254 0.930 . S
C1266 C1267 1.399 . S
C1266 C1271 1.399 . S
C1267 C1266 1.399 . S
C1267 C1268 1.376 . S
C1268 H1255 0.930 . S
C1268 C1267 1.376 . S
C1268 C1269 1.388 . S
C1269 H1256 0.930 . S
C1269 C1268 1.388 . S
C1269 C1270 1.390 . S
C1270 C1269 1.390 . S
C1270 C1271 1.394 . S
C1270 C1276 1.465 1_554 S
C1271 C1266 1.399 . S
C1271 C1270 1.394 . S
C1271 C1272 1.516 1_554 S
C1272 C1271 1.516 1_556 S
C1272 C1273 1.502 . S
C1272 C1274 1.561 . S
C1272 C1275 1.526 . S
C1273 H1257 0.959 . S
C1273 H1258 0.959 . S
C1273 H1259 0.961 . S
C1273 C1272 1.502 . S
C1274 H1260 0.960 . S
C1274 H1261 0.961 . S
C1274 H1262 0.959 . S
C1274 C1272 1.561 . S
C1275 C1272 1.526 . S
C1275 C1276 1.396 . S
C1275 C1280 1.390 . S
C1276 C1270 1.465 1_556 S
C1276 C1275 1.396 . S
C1276 C1277 1.399 . S
C1277 H1263 0.929 . S
C1277 C1276 1.399 . S
C1277 C1278 1.385 . S
C1278 H1264 0.931 . S
C1278 C1277 1.385 . S
C1278 C1279 1.389 . S
C1279 C1278 1.389 . S
C1279 C1280 1.387 . S
C1280 H1265 0.930 . S
C1280 C1275 1.390 . S
C1280 C1279 1.387 . S
H1281 C1293 0.930 . S
H1282 C1295 0.930 . S
H1283 C1296 0.930 . S
H1284 C1300 0.959 . S
H1285 C1300 0.959 1_655 S
H1286 C1300 0.961 . S
H1287 C1301 0.960 . S
H1288 C1301 0.961 . S
H1289 C1301 0.959 . S
H1290 C1304 0.929 . S
H1291 C1305 0.931 . S
H1292 C1307 0.930 . S
C1293 H1281 0.930 . S
C1293 C1294 1.399 . S
C1293 C1298 1.399 . S
C1294 C1293 1.399 . S
C1294 C1295 1.376 . S
C1295 H1282 0.930 . S
C1295 C1294 1.376 . S
C1295 C1296 1.388 . S
C1296 H1283 0.930 . S
C1296 C1295 1.388 . S
C1296 C1297 1.390 . S
C1297 C1296 1.390 . S
C1297 C1298 1.394 . S
C1297 C1303 1.465 1_455 S
C1298 C1293 1.399 . S
C1298 C1297 1.394 . S
C1298 C1299 1.516 1_455 S
C1299 C1298 1.516 1_655 S
C1299 C1300 1.502 1_655 S
C1299 C1301 1.561 . S
C1299 C1302 1.526 . S
C1300 H1284 0.959 . S
C1300 H1285 0.959 1_455 S
C1300 H1286 0.961 . S
C1300 C1299 1.502 1_455 S
C1301 H1287 0.960 . S
C1301 H1288 0.961 . S
C1301 H1289 0.959 . S
C1301 C1299 1.561 . S
C1302 C1299 1.526 . S
C1302 C1303 1.396 . S
C1302 C1307 1.390 . S
C1303 C1297 1.465 1_655 S
C1303 C1302 1.396 . S
C1303 C1304 1.399 . S
C1304 H1290 0.929 . S
C1304 C1303 1.399 . S
C1304 C1305 1.385 . S
C1305 H1291 0.931 . S
C1305 C1304 1.385 . S
C1305 C1306 1.389 . S
C1306 C1305 1.389 . S
C1306 C1307 1.387 . S
C1307 H1292 0.930 . S
C1307 C1302 1.390 . S
C1307 C1306 1.387 . S
H1308 C1320 0.930 . S
H1309 C1322 0.930 . S
H1310 C1323 0.930 . S
H1311 C1327 0.959 . S
H1312 C1327 0.959 . S
H1313 C1327 0.961 . S
H1314 C1328 0.960 . S
H1315 C1328 0.961 . S
H1316 C1328 0.959 . S
H1317 C1331 0.929 . S
H1318 C1332 0.931 . S
H1319 C1334 0.930 . S
C1320 H1308 0.930 . S
C1320 C1321 1.399 . S
C1320 C1325 1.399 . S
C1321 C1320 1.399 . S
C1321 C1322 1.376 . S
C1322 H1309 0.930 . S
C1322 C1321 1.376 . S
C1322 C1323 1.388 . S
C1323 H1310 0.930 . S
C1323 C1322 1.388 . S
C1323 C1324 1.390 . S
C1324 C1323 1.390 . S
C1324 C1325 1.394 . S
C1324 C1330 1.465 . S
C1325 C1320 1.399 . S
C1325 C1324 1.394 . S
C1325 C1326 1.516 . S
C1326 C1325 1.516 . S
C1326 C1327 1.502 . S
C1326 C1328 1.561 . S
C1326 C1329 1.526 . S
C1327 H1311 0.959 . S
C1327 H1312 0.959 . S
C1327 H1313 0.961 . S
C1327 C1326 1.502 . S
C1328 H1314 0.960 . S
C1328 H1315 0.961 . S
C1328 H1316 0.959 . S
C1328 C1326 1.561 . S
C1329 C1326 1.526 . S
C1329 C1330 1.396 . S
C1329 C1334 1.390 . S
C1330 C1324 1.465 . S
C1330 C1329 1.396 . S
C1330 C1331 1.399 . S
C1331 H1317 0.929 . S
C1331 C1330 1.399 . S
C1331 C1332 1.385 . S
C1332 H1318 0.931 . S
C1332 C1331 1.385 . S
C1332 C1333 1.389 . S
C1333 C1332 1.389 . S
C1333 C1334 1.387 . S
C1334 H1319 0.930 . S
C1334 C1329 1.390 . S
C1334 C1333 1.387 . S
H1335 C1347 0.930 . S
H1336 C1349 0.930 . S
H1337 C1350 0.930 . S
H1338 C1354 0.959 . S
H1339 C1354 0.959 . S
H1340 C1354 0.961 . S
H1341 C1355 0.960 . S
H1342 C1355 0.961 . S
H1343 C1355 0.959 . S
H1344 C1358 0.929 . S
H1345 C1359 0.931 . S
H1346 C1361 0.930 . S
C1347 H1335 0.930 . S
C1347 C1348 1.399 . S
C1347 C1352 1.399 . S
C1348 C1347 1.399 . S
C1348 C1349 1.376 . S
C1349 H1336 0.930 . S
C1349 C1348 1.376 . S
C1349 C1350 1.388 . S
C1350 H1337 0.930 . S
C1350 C1349 1.388 . S
C1350 C1351 1.390 . S
C1351 C1350 1.390 . S
C1351 C1352 1.394 . S
C1351 C1357 1.465 . S
C1352 C1347 1.399 . S
C1352 C1351 1.394 . S
C1352 C1353 1.516 . S
C1353 C1352 1.516 . S
C1353 C1354 1.502 . S
C1353 C1355 1.561 . S
C1353 C1356 1.526 . S
C1354 H1338 0.959 . S
C1354 H1339 0.959 . S
C1354 H1340 0.961 . S
C1354 C1353 1.502 . S
C1355 H1341 0.960 . S
C1355 H1342 0.961 . S
C1355 H1343 0.959 . S
C1355 C1353 1.561 . S
C1356 C1353 1.526 . S
C1356 C1357 1.396 . S
C1356 C1361 1.390 . S
C1357 C1351 1.465 . S
C1357 C1356 1.396 . S
C1357 C1358 1.399 . S
C1358 H1344 0.929 . S
C1358 C1357 1.399 . S
C1358 C1359 1.385 . S
C1359 H1345 0.931 . S
C1359 C1358 1.385 . S
C1359 C1360 1.389 . S
C1360 C1359 1.389 . S
C1360 C1361 1.387 . S
C1361 H1346 0.930 . S
C1361 C1356 1.390 . S
C1361 C1360 1.387 . S
H1362 C1374 0.930 . S
H1363 C1376 0.930 . S
H1364 C1377 0.930 . S
H1365 C1381 0.959 . S
H1366 C1381 0.959 . S
H1367 C1381 0.961 . S
H1368 C1382 0.960 . S
H1369 C1382 0.961 . S
H1370 C1382 0.959 . S
H1371 C1385 0.929 . S
H1372 C1386 0.931 . S
H1373 C1388 0.930 . S
C1374 H1362 0.930 . S
C1374 C1375 1.399 . S
C1374 C1379 1.399 . S
C1375 C1374 1.399 . S
C1375 C1376 1.376 . S
C1376 H1363 0.930 . S
C1376 C1375 1.376 . S
C1376 C1377 1.388 . S
C1377 H1364 0.930 . S
C1377 C1376 1.388 . S
C1377 C1378 1.390 . S
C1378 C1377 1.390 . S
C1378 C1379 1.394 . S
C1378 C1384 1.465 . S
C1379 C1374 1.399 . S
C1379 C1378 1.394 . S
C1379 C1380 1.516 . S
C1380 C1379 1.516 . S
C1380 C1381 1.502 . S
C1380 C1382 1.561 . S
C1380 C1383 1.526 . S
C1381 H1365 0.959 . S
C1381 H1366 0.959 . S
C1381 H1367 0.961 . S
C1381 C1380 1.502 . S
C1382 H1368 0.960 . S
C1382 H1369 0.961 . S
C1382 H1370 0.959 . S
C1382 C1380 1.561 . S
C1383 C1380 1.526 . S
C1383 C1384 1.396 . S
C1383 C1388 1.390 . S
C1384 C1378 1.465 . S
C1384 C1383 1.396 . S
C1384 C1385 1.399 . S
C1385 H1371 0.929 . S
C1385 C1384 1.399 . S
C1385 C1386 1.385 . S
C1386 H1372 0.931 . S
C1386 C1385 1.385 . S
C1386 C1387 1.389 . S
C1387 C1386 1.389 . S
C1387 C1388 1.387 . S
C1388 H1373 0.930 . S
C1388 C1383 1.390 . S
C1388 C1387 1.387 . S
H1389 C1401 0.930 . S
H1390 C1403 0.930 . S
H1391 C1404 0.930 . S
H1392 C1408 0.959 . S
H1393 C1408 0.959 . S
H1394 C1408 0.961 . S
H1395 C1409 0.960 . S
H1396 C1409 0.961 . S
H1397 C1409 0.959 . S
H1398 C1412 0.929 . S
H1399 C1413 0.931 . S
H1400 C1415 0.930 . S
C1401 H1389 0.930 . S
C1401 C1402 1.399 . S
C1401 C1406 1.399 . S
C1402 C1401 1.399 . S
C1402 C1403 1.376 . S
C1403 H1390 0.930 . S
C1403 C1402 1.376 . S
C1403 C1404 1.388 . S
C1404 H1391 0.930 . S
C1404 C1403 1.388 . S
C1404 C1405 1.390 . S
C1405 C1404 1.390 . S
C1405 C1406 1.394 . S
C1405 C1411 1.465 . S
C1406 C1401 1.399 . S
C1406 C1405 1.394 . S
C1406 C1407 1.516 . S
C1407 C1406 1.516 . S
C1407 C1408 1.502 . S
C1407 C1409 1.561 . S
C1407 C1410 1.526 . S
C1408 H1392 0.959 . S
C1408 H1393 0.959 . S
C1408 H1394 0.961 . S
C1408 C1407 1.502 . S
C1409 H1395 0.960 . S
C1409 H1396 0.961 . S
C1409 H1397 0.959 . S
C1409 C1407 1.561 . S
C1410 C1407 1.526 . S
C1410 C1411 1.396 . S
C1410 C1415 1.390 . S
C1411 C1405 1.465 . S
C1411 C1410 1.396 . S
C1411 C1412 1.399 . S
C1412 H1398 0.929 . S
C1412 C1411 1.399 . S
C1412 C1413 1.385 . S
C1413 H1399 0.931 . S
C1413 C1412 1.385 . S
C1413 C1414 1.389 . S
C1414 C1413 1.389 . S
C1414 C1415 1.387 . S
C1415 H1400 0.930 . S
C1415 C1410 1.390 . S
C1415 C1414 1.387 . S
H1416 C1428 0.930 . S
H1417 C1430 0.930 . S
H1418 C1431 0.930 . S
H1419 C1435 0.959 . S
H1420 C1435 0.959 . S
H1421 C1435 0.961 . S
H1422 C1436 0.960 . S
H1423 C1436 0.961 . S
H1424 C1436 0.959 . S
H1425 C1439 0.929 . S
H1426 C1440 0.931 . S
H1427 C1442 0.930 . S
C1428 H1416 0.930 . S
C1428 C1429 1.399 . S
C1428 C1433 1.399 . S
C1429 C1428 1.399 . S
C1429 C1430 1.376 . S
C1430 H1417 0.930 . S
C1430 C1429 1.376 . S
C1430 C1431 1.388 . S
C1431 H1418 0.930 . S
C1431 C1430 1.388 . S
C1431 C1432 1.390 . S
C1432 C1431 1.390 . S
C1432 C1433 1.394 . S
C1432 C1438 1.465 . S
C1433 C1428 1.399 . S
C1433 C1432 1.394 . S
C1433 C1434 1.516 . S
C1434 C1433 1.516 . S
C1434 C1435 1.502 . S
C1434 C1436 1.561 . S
C1434 C1437 1.526 . S
C1435 H1419 0.959 . S
C1435 H1420 0.959 . S
C1435 H1421 0.961 . S
C1435 C1434 1.502 . S
C1436 H1422 0.960 . S
C1436 H1423 0.961 . S
C1436 H1424 0.959 . S
C1436 C1434 1.561 . S
C1437 C1434 1.526 . S
C1437 C1438 1.396 . S
C1437 C1442 1.390 . S
C1438 C1432 1.465 . S
C1438 C1437 1.396 . S
C1438 C1439 1.399 . S
C1439 H1425 0.929 . S
C1439 C1438 1.399 . S
C1439 C1440 1.385 . S
C1440 H1426 0.931 . S
C1440 C1439 1.385 . S
C1440 C1441 1.389 . S
C1441 C1440 1.389 . S
C1441 C1442 1.387 . S
C1442 H1427 0.930 . S
C1442 C1437 1.390 . S
C1442 C1441 1.387 . S
H1443 C1455 0.930 . S
H1444 C1457 0.930 . S
H1445 C1458 0.930 . S
H1446 C1462 0.959 . S
H1447 C1462 0.959 . S
H1448 C1462 0.961 . S
H1449 C1463 0.960 . S
H1450 C1463 0.961 . S
H1451 C1463 0.959 . S
H1452 C1466 0.929 . S
H1453 C1467 0.931 . S
H1454 C1469 0.930 . S
C1455 H1443 0.930 . S
C1455 C1456 1.399 . S
C1455 C1460 1.399 . S
C1456 C1455 1.399 . S
C1456 C1457 1.376 . S
C1457 H1444 0.930 . S
C1457 C1456 1.376 . S
C1457 C1458 1.388 . S
C1458 H1445 0.930 . S
C1458 C1457 1.388 . S
C1458 C1459 1.390 . S
C1459 C1458 1.390 . S
C1459 C1460 1.394 . S
C1459 C1465 1.465 . S
C1460 C1455 1.399 . S
C1460 C1459 1.394 . S
C1460 C1461 1.516 . S
C1461 C1460 1.516 . S
C1461 C1462 1.502 . S
C1461 C1463 1.561 . S
C1461 C1464 1.526 . S
C1462 H1446 0.959 . S
C1462 H1447 0.959 . S
C1462 H1448 0.961 . S
C1462 C1461 1.502 . S
C1463 H1449 0.960 . S
C1463 H1450 0.961 . S
C1463 H1451 0.959 . S
C1463 C1461 1.561 . S
C1464 C1461 1.526 . S
C1464 C1465 1.396 . S
C1464 C1469 1.390 . S
C1465 C1459 1.465 . S
C1465 C1464 1.396 . S
C1465 C1466 1.399 . S
C1466 H1452 0.929 . S
C1466 C1465 1.399 . S
C1466 C1467 1.385 . S
C1467 H1453 0.931 . S
C1467 C1466 1.385 . S
C1467 C1468 1.389 . S
C1468 C1467 1.389 . S
C1468 C1469 1.387 . S
C1469 H1454 0.930 . S
C1469 C1464 1.390 . S
C1469 C1468 1.387 . S
H1470 C1482 0.930 . S
H1471 C1484 0.930 . S
H1472 C1485 0.930 . S
H1473 C1489 0.959 . S
H1474 C1489 0.959 . S
H1475 C1489 0.961 . S
H1476 C1490 0.960 . S
H1477 C1490 0.961 . S
H1478 C1490 0.959 . S
H1479 C1493 0.929 . S
H1480 C1494 0.931 . S
H1481 C1496 0.930 . S
C1482 H1470 0.930 . S
C1482 C1483 1.399 . S
C1482 C1487 1.399 . S
C1483 C1482 1.399 . S
C1483 C1484 1.376 . S
C1484 H1471 0.930 . S
C1484 C1483 1.376 . S
C1484 C1485 1.388 . S
C1485 H1472 0.930 . S
C1485 C1484 1.388 . S
C1485 C1486 1.390 . S
C1486 C1485 1.390 . S
C1486 C1487 1.394 . S
C1486 C1492 1.465 . S
C1487 C1482 1.399 . S
C1487 C1486 1.394 . S
C1487 C1488 1.516 . S
C1488 C1487 1.516 . S
C1488 C1489 1.502 . S
C1488 C1490 1.561 . S
C1488 C1491 1.526 . S
C1489 H1473 0.959 . S
C1489 H1474 0.959 . S
C1489 H1475 0.961 . S
C1489 C1488 1.502 . S
C1490 H1476 0.960 . S
C1490 H1477 0.961 . S
C1490 H1478 0.959 . S
C1490 C1488 1.561 . S
C1491 C1488 1.526 . S
C1491 C1492 1.396 . S
C1491 C1496 1.390 . S
C1492 C1486 1.465 . S
C1492 C1491 1.396 . S
C1492 C1493 1.399 . S
C1493 H1479 0.929 . S
C1493 C1492 1.399 . S
C1493 C1494 1.385 . S
C1494 H1480 0.931 . S
C1494 C1493 1.385 . S
C1494 C1495 1.389 . S
C1495 C1494 1.389 . S
C1495 C1496 1.387 . S
C1496 H1481 0.930 . S
C1496 C1491 1.390 . S
C1496 C1495 1.387 . S
H1497 C1509 0.930 . S
H1498 C1511 0.930 . S
H1499 C1512 0.930 . S
H1500 C1516 0.959 . S
H1501 C1516 0.959 . S
H1502 C1516 0.961 . S
H1503 C1517 0.960 . S
H1504 C1517 0.961 . S
H1505 C1517 0.959 . S
H1506 C1520 0.929 . S
H1507 C1521 0.931 . S
H1508 C1523 0.930 . S
C1509 H1497 0.930 . S
C1509 C1510 1.399 . S
C1509 C1514 1.399 . S
C1510 C1509 1.399 . S
C1510 C1511 1.376 . S
C1511 H1498 0.930 . S
C1511 C1510 1.376 . S
C1511 C1512 1.388 . S
C1512 H1499 0.930 . S
C1512 C1511 1.388 . S
C1512 C1513 1.390 . S
C1513 C1512 1.390 . S
C1513 C1514 1.394 . S
C1513 C1519 1.465 . S
C1514 C1509 1.399 . S
C1514 C1513 1.394 . S
C1514 C1515 1.516 . S
C1515 C1514 1.516 . S
C1515 C1516 1.502 . S
C1515 C1517 1.561 . S
C1515 C1518 1.526 . S
C1516 H1500 0.959 . S
C1516 H1501 0.959 . S
C1516 H1502 0.961 . S
C1516 C1515 1.502 . S
C1517 H1503 0.960 . S
C1517 H1504 0.961 . S
C1517 H1505 0.959 . S
C1517 C1515 1.561 . S
C1518 C1515 1.526 . S
C1518 C1519 1.396 . S
C1518 C1523 1.390 . S
C1519 C1513 1.465 . S
C1519 C1518 1.396 . S
C1519 C1520 1.399 . S
C1520 H1506 0.929 . S
C1520 C1519 1.399 . S
C1520 C1521 1.385 . S
C1521 H1507 0.931 . S
C1521 C1520 1.385 . S
C1521 C1522 1.389 . S
C1522 C1521 1.389 . S
C1522 C1523 1.387 . S
C1523 H1508 0.930 . S
C1523 C1518 1.390 . S
C1523 C1522 1.387 . S
H1524 C1536 0.930 . S
H1525 C1538 0.930 . S
H1526 C1539 0.930 . S
H1527 C1543 0.959 . S
H1528 C1543 0.959 . S
H1529 C1543 0.961 . S
H1530 C1544 0.960 . S
H1531 C1544 0.961 . S
H1532 C1544 0.959 . S
H1533 C1547 0.929 . S
H1534 C1548 0.931 . S
H1535 C1550 0.930 . S
C1536 H1524 0.930 . S
C1536 C1537 1.399 . S
C1536 C1541 1.399 . S
C1537 C1536 1.399 . S
C1537 C1538 1.376 . S
C1538 H1525 0.930 . S
C1538 C1537 1.376 . S
C1538 C1539 1.388 . S
C1539 H1526 0.930 . S
C1539 C1538 1.388 . S
C1539 C1540 1.390 . S
C1540 C1539 1.390 . S
C1540 C1541 1.394 . S
C1540 C1546 1.465 . S
C1541 C1536 1.399 . S
C1541 C1540 1.394 . S
C1541 C1542 1.516 . S
C1542 C1541 1.516 . S
C1542 C1543 1.502 . S
C1542 C1544 1.561 . S
C1542 C1545 1.526 . S
C1543 H1527 0.959 . S
C1543 H1528 0.959 . S
C1543 H1529 0.961 . S
C1543 C1542 1.502 . S
C1544 H1530 0.960 . S
C1544 H1531 0.961 . S
C1544 H1532 0.959 . S
C1544 C1542 1.561 . S
C1545 C1542 1.526 . S
C1545 C1546 1.396 . S
C1545 C1550 1.390 . S
C1546 C1540 1.465 . S
C1546 C1545 1.396 . S
C1546 C1547 1.399 . S
C1547 H1533 0.929 . S
C1547 C1546 1.399 . S
C1547 C1548 1.385 . S
C1548 H1534 0.931 . S
C1548 C1547 1.385 . S
C1548 C1549 1.389 . S
C1549 C1548 1.389 . S
C1549 C1550 1.387 . S
C1550 H1535 0.930 . S
C1550 C1545 1.390 . S
C1550 C1549 1.387 . S
H1551 C1563 0.930 . S
H1552 C1565 0.930 . S
H1553 C1566 0.930 . S
H1554 C1570 0.959 . S
H1555 C1570 0.959 . S
H1556 C1570 0.961 . S
H1557 C1571 0.960 . S
H1558 C1571 0.961 . S
H1559 C1571 0.959 . S
H1560 C1574 0.929 . S
H1561 C1575 0.931 . S
H1562 C1577 0.930 . S
C1563 H1551 0.930 . S
C1563 C1564 1.399 . S
C1563 C1568 1.399 . S
C1564 C1563 1.399 . S
C1564 C1565 1.376 . S
C1565 H1552 0.930 . S
C1565 C1564 1.376 . S
C1565 C1566 1.388 . S
C1566 H1553 0.930 . S
C1566 C1565 1.388 . S
C1566 C1567 1.390 . S
C1567 C1566 1.390 . S
C1567 C1568 1.394 . S
C1567 C1573 1.465 . S
C1568 C1563 1.399 . S
C1568 C1567 1.394 . S
C1568 C1569 1.516 . S
C1569 C1568 1.516 . S
C1569 C1570 1.502 . S
C1569 C1571 1.561 . S
C1569 C1572 1.526 . S
C1570 H1554 0.959 . S
C1570 H1555 0.959 . S
C1570 H1556 0.961 . S
C1570 C1569 1.502 . S
C1571 H1557 0.960 . S
C1571 H1558 0.961 . S
C1571 H1559 0.959 . S
C1571 C1569 1.561 . S
C1572 C1569 1.526 . S
C1572 C1573 1.396 . S
C1572 C1577 1.390 . S
C1573 C1567 1.465 . S
C1573 C1572 1.396 . S
C1573 C1574 1.399 . S
C1574 H1560 0.929 . S
C1574 C1573 1.399 . S
C1574 C1575 1.385 . S
C1575 H1561 0.931 . S
C1575 C1574 1.385 . S
C1575 C1576 1.389 . S
C1576 C1575 1.389 . S
C1576 C1577 1.387 . S
C1577 H1562 0.930 . S
C1577 C1572 1.390 . S
C1577 C1576 1.387 . S
H1578 C1590 0.930 . S
H1579 C1592 0.930 . S
H1580 C1593 0.930 . S
H1581 C1597 0.959 . S
H1582 C1597 0.959 . S
H1583 C1597 0.961 . S
H1584 C1598 0.960 . S
H1585 C1598 0.961 . S
H1586 C1598 0.959 . S
H1587 C1601 0.929 . S
H1588 C1602 0.931 . S
H1589 C1604 0.930 . S
C1590 H1578 0.930 . S
C1590 C1591 1.399 . S
C1590 C1595 1.399 . S
C1591 C1590 1.399 . S
C1591 C1592 1.376 . S
C1592 H1579 0.930 . S
C1592 C1591 1.376 . S
C1592 C1593 1.388 . S
C1593 H1580 0.930 . S
C1593 C1592 1.388 . S
C1593 C1594 1.390 . S
C1594 C1593 1.390 . S
C1594 C1595 1.394 . S
C1594 C1600 1.465 . S
C1595 C1590 1.399 . S
C1595 C1594 1.394 . S
C1595 C1596 1.516 . S
C1596 C1595 1.516 . S
C1596 C1597 1.502 . S
C1596 C1598 1.561 . S
C1596 C1599 1.526 . S
C1597 H1581 0.959 . S
C1597 H1582 0.959 . S
C1597 H1583 0.961 . S
C1597 C1596 1.502 . S
C1598 H1584 0.960 . S
C1598 H1585 0.961 . S
C1598 H1586 0.959 . S
C1598 C1596 1.561 . S
C1599 C1596 1.526 . S
C1599 C1600 1.396 . S
C1599 C1604 1.390 . S
C1600 C1594 1.465 . S
C1600 C1599 1.396 . S
C1600 C1601 1.399 . S
C1601 H1587 0.929 . S
C1601 C1600 1.399 . S
C1601 C1602 1.385 . S
C1602 H1588 0.931 . S
C1602 C1601 1.385 . S
C1602 C1603 1.389 . S
C1603 C1602 1.389 . S
C1603 C1604 1.387 . S
C1604 H1589 0.930 . S
C1604 C1599 1.390 . S
C1604 C1603 1.387 . S
H1605 C1617 0.930 . S
H1606 C1619 0.930 . S
H1607 C1620 0.930 . S
H1608 C1624 0.959 . S
H1609 C1624 0.959 . S
H1610 C1624 0.961 . S
H1611 C1625 0.960 . S
H1612 C1625 0.961 . S
H1613 C1625 0.959 . S
H1614 C1628 0.929 . S
H1615 C1629 0.931 . S
H1616 C1631 0.930 . S
C1617 H1605 0.930 . S
C1617 C1618 1.399 . S
C1617 C1622 1.399 . S
C1618 C1617 1.399 . S
C1618 C1619 1.376 . S
C1619 H1606 0.930 . S
C1619 C1618 1.376 . S
C1619 C1620 1.388 . S
C1620 H1607 0.930 . S
C1620 C1619 1.388 . S
C1620 C1621 1.390 . S
C1621 C1620 1.390 . S
C1621 C1622 1.394 . S
C1621 C1627 1.465 . S
C1622 C1617 1.399 . S
C1622 C1621 1.394 . S
C1622 C1623 1.516 . S
C1623 C1622 1.516 . S
C1623 C1624 1.502 . S
C1623 C1625 1.561 . S
C1623 C1626 1.526 . S
C1624 H1608 0.959 . S
C1624 H1609 0.959 . S
C1624 H1610 0.961 . S
C1624 C1623 1.502 . S
C1625 H1611 0.960 . S
C1625 H1612 0.961 . S
C1625 H1613 0.959 . S
C1625 C1623 1.561 . S
C1626 C1623 1.526 . S
C1626 C1627 1.396 . S
C1626 C1631 1.390 . S
C1627 C1621 1.465 . S
C1627 C1626 1.396 . S
C1627 C1628 1.399 . S
C1628 H1614 0.929 . S
C1628 C1627 1.399 . S
C1628 C1629 1.385 . S
C1629 H1615 0.931 . S
C1629 C1628 1.385 . S
C1629 C1630 1.389 . S
C1630 C1629 1.389 . S
C1630 C1631 1.387 . S
C1631 H1616 0.930 . S
C1631 C1626 1.390 . S
C1631 C1630 1.387 . S
C349 C218 1.246 . S
C361 C8 1.243 . S
C376 C22 1.278 . S
C388 C232 1.291 . S
C403 C36 1.307 . S
C415 C246 1.296 . S
C430 C50 1.271 . S
C442 C176 1.260 . S
C457 C190 1.324 . S
C469 C64 1.322 . S
C484 C78 1.243 . S
C496 C204 1.249 . S
C511 C302 1.242 . S
C523 C92 1.246 . S
C538 C106 1.251 . S
C550 C316 1.246 . S
C565 C120 1.322 . S
C577 C330 1.315 . S
C592 C260 1.324 . S
C604 C134 1.321 . S
C619 C148 1.317 . S
C631 C274 1.322 . S
C646 C288 1.262 . S
C658 C162 1.274 . S
C673 C6 1.601 . S
C685 C328 1.611 . S
C700 C258 1.645 . S
C712 C20 1.639 . S
C727 C34 1.598 . S
C739 C272 1.609 . S
C754 C286 1.644 . S
C766 C48 1.637 . S
C781 C62 1.643 . S
C793 C300 1.637 . S
C808 C314 1.633 . S
C820 C76 1.624 . S
C835 C90 1.638 . S
C847 C188 1.630 . S
C862 C202 1.584 . S
C874 C104 1.592 . S
C889 C216 1.585 . S
C901 C118 1.592 . S
C916 C230 1.624 . S
C928 C132 1.633 . S
C943 C146 1.609 . S
C955 C244 1.619 . S
C970 C160 1.648 . S
C982 C174 1.646 . S
C997 C105 1.340 . S
C1009 C7 1.358 . S
C1024 C119 1.373 . S
C1036 C21 1.359 . S
C1051 C133 1.364 . S
C1063 C35 1.370 . S
C1078 C147 1.369 . S
C1090 C49 1.364 . S
C1105 C63 1.344 . S
C1117 C161 1.377 . S
C1132 C77 1.348 . S
C1144 C91 1.349 . S
C1159 C175 1.355 . S
C1171 C273 1.377 . S
C1186 C189 1.376 . S
C1198 C287 1.365 . S
C1213 C301 1.339 . S
C1225 C203 1.349 . S
C1240 C315 1.362 . S
C1252 C217 1.338 . S
C1267 C329 1.342 . S
C1279 C231 1.371 . S
C1294 C259 1.342 . S
C1306 C245 1.344 . S
C1321 C9 1.750 . S
C1333 C275 1.755 . S
C1348 C289 1.763 . S
C1360 C23 1.759 . S
C1375 C37 1.775 . S
C1387 C303 1.775 . S
C1402 C317 1.752 . S
C1414 C51 1.757 . S
C1429 C65 1.744 . S
C1441 C331 1.745 . S
C1456 C261 1.763 . S
C1468 C79 1.767 . S
C1483 C93 1.771 . S
C1495 C247 1.768 . S
C1510 C177 1.753 . S
C1522 C107 1.749 . S
C1537 C121 1.744 . S
C1549 C191 1.746 . S
C1564 C135 1.744 . S
C1576 C205 1.747 . S
C1591 C149 1.773 . S
C1603 C219 1.771 . S
C1618 C163 1.746 . S
C1630 C233 1.749 . S
