# Generated by pormake.
# Topology zfe, (5)-cn, num edge types: 1
# Building blocks:
#     Node 0, Type 0, BuildingBlock: BEQFEK_clean_sbu_0, # of connection points: 5
#     Node 1, Type 0, BuildingBlock: BEQFEK_clean_sbu_0, # of connection points: 5
#     Node 2, Type 0, BuildingBlock: BEQFEK_clean_sbu_0, # of connection points: 5
#     Node 3, Type 0, BuildingBlock: BEQFEK_clean_sbu_0, # of connection points: 5
#     Node 4, Type 0, BuildingBlock: BEQFEK_clean_sbu_0, # of connection points: 5
#     Node 5, Type 0, BuildingBlock: BEQFEK_clean_sbu_0, # of connection points: 5
#     Node 6, Type 0, BuildingBlock: BEQFEK_clean_sbu_0, # of connection points: 5
#     Node 7, Type 0, BuildingBlock: BEQFEK_clean_sbu_0, # of connection points: 5
#     Node 8, Type 0, BuildingBlock: BEQFEK_clean_sbu_0, # of connection points: 5
#     Node 9, Type 0, BuildingBlock: BEQFEK_clean_sbu_0, # of connection points: 5
#     Node 10, Type 0, BuildingBlock: BEQFEK_clean_sbu_0, # of connection points: 5
#     Node 11, Type 0, BuildingBlock: BEQFEK_clean_sbu_0, # of connection points: 5
#     Node 12, Type 0, BuildingBlock: BEQFEK_clean_sbu_0, # of connection points: 5
#     Node 13, Type 0, BuildingBlock: BEQFEK_clean_sbu_0, # of connection points: 5
#     Node 14, Type 0, BuildingBlock: BEQFEK_clean_sbu_0, # of connection points: 5
#     Node 15, Type 0, BuildingBlock: BEQFEK_clean_sbu_0, # of connection points: 5
#     Edge 16, Type (0, 0), BuildingBlock: XUDNAN_clean_linker_2, # of connection points: 2
#     Edge 17, Type (0, 0), BuildingBlock: XUDNAN_clean_linker_2, # of connection points: 2
#     Edge 18, Type (0, 0), BuildingBlock: XUDNAN_clean_linker_2, # of connection points: 2
#     Edge 19, Type (0, 0), BuildingBlock: XUDNAN_clean_linker_2, # of connection points: 2
#     Edge 20, Type (0, 0), BuildingBlock: XUDNAN_clean_linker_2, # of connection points: 2
#     Edge 21, Type (0, 0), BuildingBlock: XUDNAN_clean_linker_2, # of connection points: 2
#     Edge 22, Type (0, 0), BuildingBlock: XUDNAN_clean_linker_2, # of connection points: 2
#     Edge 23, Type (0, 0), BuildingBlock: XUDNAN_clean_linker_2, # of connection points: 2
#     Edge 24, Type (0, 0), BuildingBlock: XUDNAN_clean_linker_2, # of connection points: 2
#     Edge 25, Type (0, 0), BuildingBlock: XUDNAN_clean_linker_2, # of connection points: 2
#     Edge 26, Type (0, 0), BuildingBlock: XUDNAN_clean_linker_2, # of connection points: 2
#     Edge 27, Type (0, 0), BuildingBlock: XUDNAN_clean_linker_2, # of connection points: 2
#     Edge 28, Type (0, 0), BuildingBlock: XUDNAN_clean_linker_2, # of connection points: 2
#     Edge 29, Type (0, 0), BuildingBlock: XUDNAN_clean_linker_2, # of connection points: 2
#     Edge 30, Type (0, 0), BuildingBlock: XUDNAN_clean_linker_2, # of connection points: 2
#     Edge 31, Type (0, 0), BuildingBlock: XUDNAN_clean_linker_2, # of connection points: 2
#     Edge 32, Type (0, 0), BuildingBlock: XUDNAN_clean_linker_2, # of connection points: 2
#     Edge 33, Type (0, 0), BuildingBlock: XUDNAN_clean_linker_2, # of connection points: 2
#     Edge 34, Type (0, 0), BuildingBlock: XUDNAN_clean_linker_2, # of connection points: 2
#     Edge 35, Type (0, 0), BuildingBlock: XUDNAN_clean_linker_2, # of connection points: 2
#     Edge 36, Type (0, 0), BuildingBlock: XUDNAN_clean_linker_2, # of connection points: 2
#     Edge 37, Type (0, 0), BuildingBlock: XUDNAN_clean_linker_2, # of connection points: 2
#     Edge 38, Type (0, 0), BuildingBlock: XUDNAN_clean_linker_2, # of connection points: 2
#     Edge 39, Type (0, 0), BuildingBlock: XUDNAN_clean_linker_2, # of connection points: 2
#     Edge 40, Type (0, 0), BuildingBlock: XUDNAN_clean_linker_2, # of connection points: 2
#     Edge 41, Type (0, 0), BuildingBlock: XUDNAN_clean_linker_2, # of connection points: 2
#     Edge 42, Type (0, 0), BuildingBlock: XUDNAN_clean_linker_2, # of connection points: 2
#     Edge 43, Type (0, 0), BuildingBlock: XUDNAN_clean_linker_2, # of connection points: 2
#     Edge 44, Type (0, 0), BuildingBlock: XUDNAN_clean_linker_2, # of connection points: 2
#     Edge 45, Type (0, 0), BuildingBlock: XUDNAN_clean_linker_2, # of connection points: 2
#     Edge 46, Type (0, 0), BuildingBlock: XUDNAN_clean_linker_2, # of connection points: 2
#     Edge 47, Type (0, 0), BuildingBlock: XUDNAN_clean_linker_2, # of connection points: 2
#     Edge 48, Type (0, 0), BuildingBlock: XUDNAN_clean_linker_2, # of connection points: 2
#     Edge 49, Type (0, 0), BuildingBlock: XUDNAN_clean_linker_2, # of connection points: 2
#     Edge 50, Type (0, 0), BuildingBlock: XUDNAN_clean_linker_2, # of connection points: 2
#     Edge 51, Type (0, 0), BuildingBlock: XUDNAN_clean_linker_2, # of connection points: 2
#     Edge 52, Type (0, 0), BuildingBlock: XUDNAN_clean_linker_2, # of connection points: 2
#     Edge 53, Type (0, 0), BuildingBlock: XUDNAN_clean_linker_2, # of connection points: 2
#     Edge 54, Type (0, 0), BuildingBlock: XUDNAN_clean_linker_2, # of connection points: 2
#     Edge 55, Type (0, 0), BuildingBlock: XUDNAN_clean_linker_2, # of connection points: 2
# Relax obj value: 0.096
# Max RMSD: 0.100
# Mean RMSD: 0.100
data_MOF--net-zfe--node1-BEQFEK_clean_sbu_0--edge1-XUDNAN_clean_linker_2
_symmetry_space_group_name_H-M    P1
_symmetry_Int_Tables_number       1
_symmetry_cell_setting            triclinic
loop_
_symmetry_equiv_pos_as_xyz
'x, y, z'
_cell_length_a     55.840834
_cell_length_b     55.901155
_cell_length_c     30.730933
_cell_angle_alpha  90.032204
_cell_angle_beta   90.057932
_cell_angle_gamma 90.010412
loop_
_atom_site_label
_atom_site_type_symbol
_atom_site_fract_x
_atom_site_fract_y
_atom_site_fract_z
_atom_type_partial_charge
Co0 Co 0.00585 0.19447 0.06766 0.0
Co1 Co 0.05342 0.22382 0.06762 0.0
C2 C 0.01813 0.22581 0.14226 0.0
O3 O 0.00427 0.2109 0.12366 0.0
O4 O 0.03746 0.23286 0.12417 0.0
C5 C 0.95645 0.17538 0.07524 0.0
O6 O 0.951 0.19275 0.10228 0.0
C7 C 0.08334 0.26714 0.05729 0.0
C8 C 0.11944 0.25097 0.05549 0.0
C9 C 0.10755 0.27269 0.05424 0.0
N10 N 0.08117 0.24322 0.06013 0.0
N11 N 0.10281 0.23371 0.05887 0.0
C12 C 0.06271 0.28411 0.06015 0.0
H13 H 0.04697 0.27518 0.07505 0.0
H14 H 0.05769 0.29 0.02691 0.0
H15 H 0.06778 0.30017 0.07932 0.0
C16 C 0.00123 0.21538 0.9816 0.0
N17 N 0.01152 0.21563 0.02106 0.0
N18 N 0.03251 0.22624 0.01854 0.0
C19 C 0.03668 0.23211 0.97658 0.0
C20 C 0.01701 0.2252 0.95158 0.0
C21 C 0.97818 0.20275 0.97189 0.0
H22 H 0.96485 0.20698 0.99752 0.0
H23 H 0.97095 0.20814 0.93969 0.0
H24 H 0.98123 0.18314 0.97202 0.0
O25 O 0.03148 0.17028 0.06861 0.0
O26 O 0.06554 0.19046 0.07054 0.0
H27 H 0.07486 0.22811 0.97534 0.0
H28 H 0.06205 0.23749 0.92396 0.0
C29 C 0.06081 0.23928 0.95983 0.0
H30 H 0.06427 0.25818 0.96876 0.0
H31 H 0.10629 0.2154 0.06083 0.0
O32 O 0.97713 0.1746 0.05816 0.0
C33 C 0.05422 0.17073 0.06966 0.0
Co34 Co 0.80896 0.00459 0.05497 0.0
Co35 Co 0.77615 0.05007 0.06217 0.0
C36 C 0.77583 0.01324 0.13136 0.0
O37 O 0.79081 0.00062 0.11019 0.0
O38 O 0.76852 0.03333 0.1172 0.0
C39 C 0.81756 0.95444 0.05388 0.0
O40 O 0.79472 0.95389 0.06408 0.0
C41 C 0.73255 0.08033 0.06425 0.0
C42 C 0.74692 0.11401 0.03727 0.0
C43 C 0.72596 0.10343 0.05199 0.0
N44 N 0.75611 0.07756 0.0564 0.0
N45 N 0.76459 0.09785 0.0408 0.0
C46 C 0.7167 0.06047 0.07957 0.0
H47 H 0.72556 0.0429 0.07466 0.0
H48 H 0.69935 0.0608 0.06191 0.0
H49 H 0.71316 0.06276 0.11485 0.0
C50 C 0.78847 0.00428 0.96606 0.0
N51 N 0.78849 0.01187 0.00769 0.0
N52 N 0.77345 0.02986 0.01181 0.0
C53 C 0.76256 0.03356 0.9732 0.0
C54 C 0.77202 0.01784 0.9425 0.0
C55 C 0.8067 0.98726 0.94816 0.0
H56 H 0.8234 0.98811 0.96759 0.0
H57 H 0.7995 0.96879 0.95001 0.0
H58 H 0.811 0.99139 0.91375 0.0
O59 O 0.83247 0.03057 0.06028 0.0
O60 O 0.80946 0.06284 0.06552 0.0
H61 H 0.75211 0.07015 0.96528 0.0
H62 H 0.73403 0.04914 0.93466 0.0
C63 C 0.74373 0.05216 0.96569 0.0
H64 H 0.73051 0.05153 0.99241 0.0
H65 H 0.78238 0.1005 0.0316 0.0
O66 O 0.82737 0.97451 0.04636 0.0
C67 C 0.83007 0.05311 0.06395 0.0
Co68 Co 0.98932 0.81404 0.05848 0.0
Co69 Co 0.95087 0.77302 0.063 0.0
C70 C 0.98626 0.7778 0.13323 0.0
O71 O 0.99534 0.79577 0.11378 0.0
O72 O 0.9685 0.76649 0.11746 0.0
C73 C 0.03819 0.82407 0.0542 0.0
O74 O 0.03823 0.80067 0.05831 0.0
C75 C 0.92506 0.72642 0.06176 0.0
C76 C 0.88898 0.73862 0.04213 0.0
C77 C 0.90197 0.71855 0.05361 0.0
N78 N 0.92573 0.75023 0.05525 0.0
N79 N 0.9041 0.75732 0.0434 0.0
C80 C 0.94573 0.71178 0.07739 0.0
H81 H 0.96249 0.72247 0.07719 0.0
H82 H 0.94786 0.69574 0.05647 0.0
H83 H 0.94204 0.70549 0.11097 0.0
C84 C 0.99375 0.79457 0.9685 0.0
N85 N 0.98589 0.79298 0.00992 0.0
N86 N 0.97098 0.77482 0.01304 0.0
C87 C 0.96938 0.76391 0.97402 0.0
C88 C 0.98346 0.77623 0.94411 0.0
C89 C 0.00789 0.81531 0.95152 0.0
H90 H 0.00409 0.8316 0.97095 0.0
H91 H 0.02726 0.81116 0.95438 0.0
H92 H 0.00371 0.81887 0.91682 0.0
O93 O 0.95968 0.83399 0.06376 0.0
O94 O 0.93397 0.80387 0.06892 0.0
H95 H 0.93481 0.7482 0.96477 0.0
H96 H 0.95844 0.734 0.93379 0.0
C97 C 0.95387 0.74261 0.96524 0.0
H98 H 0.95632 0.72932 0.99153 0.0
H99 H 0.89955 0.77502 0.03653 0.0
O100 O 0.01816 0.83481 0.05164 0.0
C101 C 0.93833 0.82621 0.06816 0.0
Co102 Co 0.18603 0.98799 0.05593 0.0
Co103 Co 0.22666 0.9499 0.06399 0.0
C104 C 0.22069 0.98707 0.1323 0.0
O105 O 0.20334 0.99627 0.11114 0.0
O106 O 0.23166 0.96864 0.11835 0.0
C107 C 0.16683 0.0359 0.05232 0.0
O108 O 0.18829 0.04254 0.06507 0.0
C109 C 0.27414 0.92573 0.06715 0.0
C110 C 0.26339 0.889 0.04897 0.0
C111 C 0.28286 0.90278 0.06095 0.0
N112 N 0.25043 0.92552 0.05909 0.0
N113 N 0.24422 0.90351 0.04809 0.0
C114 C 0.28781 0.94711 0.08257 0.0
H115 H 0.2763 0.96329 0.0824 0.0
H116 H 0.3036 0.95006 0.06138 0.0
H117 H 0.2945 0.94377 0.11604 0.0
C118 C 0.20654 0.99195 0.96671 0.0
N119 N 0.20749 0.98427 0.00831 0.0
N120 N 0.22551 0.96929 0.01267 0.0
C121 C 0.23701 0.96747 0.97424 0.0
C122 C 0.22525 0.98152 0.94341 0.0
C123 C 0.18606 0.0061 0.94862 0.0
H124 H 0.16923 0.00124 0.96557 0.0
H125 H 0.1895 0.02541 0.95416 0.0
H126 H 0.18375 0.00296 0.91322 0.0
O127 O 0.16681 0.95821 0.06264 0.0
O128 O 0.19618 0.93183 0.0685 0.0
H129 H 0.25304 0.93296 0.96679 0.0
H130 H 0.26769 0.95642 0.93605 0.0
C131 C 0.25854 0.95203 0.96706 0.0
H132 H 0.27139 0.95472 0.99406 0.0
H133 H 0.22679 0.89829 0.04036 0.0
O134 O 0.16267 0.01389 0.0453 0.0
C135 C 0.17394 0.93673 0.06711 0.0
Co136 Co 0.01033 0.80729 0.5081 0.0
Co137 Co 0.05475 0.77391 0.52286 0.0
C138 C 0.02454 0.77134 0.4411 0.0
O139 O 0.00987 0.78688 0.45556 0.0
O140 O 0.04272 0.76476 0.4634 0.0
C141 C 0.96072 0.82669 0.50155 0.0
O142 O 0.95225 0.805 0.49564 0.0
C143 C 0.08548 0.73068 0.52951 0.0
C144 C 0.1097 0.74164 0.58289 0.0
C145 C 0.10431 0.72284 0.55531 0.0
N146 N 0.07986 0.75312 0.54164 0.0
N147 N 0.09465 0.75962 0.57313 0.0
C148 C 0.07211 0.71673 0.49581 0.0
H149 H 0.0526 0.72007 0.49914 0.0
H150 H 0.07583 0.69728 0.49859 0.0
H151 H 0.07766 0.72297 0.46306 0.0
C152 C 0.99838 0.79029 0.59663 0.0
N153 N 0.01179 0.78947 0.56023 0.0
N154 N 0.02984 0.77466 0.56615 0.0
C155 C 0.028 0.76506 0.6064 0.0
C156 C 0.00812 0.77476 0.62717 0.0
C157 C 0.97859 0.80793 0.60381 0.0
H158 H 0.98353 0.82545 0.58957 0.0
H159 H 0.96214 0.8014 0.58738 0.0
H160 H 0.97474 0.81052 0.63888 0.0
O161 O 0.03819 0.82847 0.50463 0.0
O162 O 0.07004 0.80602 0.51776 0.0
H163 H 0.061 0.75602 0.63742 0.0
H164 H 0.03637 0.73686 0.65197 0.0
C165 C 0.04481 0.74685 0.62481 0.0
H166 H 0.05022 0.734 0.59918 0.0
H167 H 0.09407 0.77622 0.58867 0.0
O168 O 0.98304 0.82981 0.50714 0.0
C169 C 0.06068 0.82626 0.50937 0.0
Co170 Co 0.19429 0.00714 0.50817 0.0
Co171 Co 0.22341 0.05447 0.52334 0.0
C172 C 0.22806 0.02603 0.44033 0.0
O173 O 0.21388 0.01008 0.45486 0.0
O174 O 0.23356 0.04438 0.46309 0.0
C175 C 0.18012 0.95535 0.50151 0.0
O176 O 0.20248 0.94806 0.50212 0.0
C177 C 0.25961 0.09446 0.53137 0.0
C178 C 0.24345 0.11337 0.58727 0.0
C179 C 0.26235 0.11441 0.55823 0.0
N180 N 0.24005 0.08224 0.54449 0.0
N181 N 0.23061 0.09375 0.57788 0.0
C182 C 0.27409 0.08823 0.49204 0.0
H183 H 0.26319 0.07798 0.46841 0.0
H184 H 0.2895 0.077 0.50214 0.0
H185 H 0.28106 0.10461 0.47608 0.0
C186 C 0.21291 0.99634 0.59624 0.0
N187 N 0.21243 0.00981 0.5599 0.0
N188 N 0.22569 0.02904 0.56576 0.0
C189 C 0.23574 0.02786 0.6058 0.0
C190 C 0.22783 0.0072 0.62662 0.0
C191 C 0.19669 0.97542 0.60385 0.0
H192 H 0.17933 0.97827 0.58714 0.0
H193 H 0.20517 0.95905 0.5905 0.0
H194 H 0.19322 0.97266 0.63902 0.0
O195 O 0.16963 0.032 0.50775 0.0
O196 O 0.18947 0.06571 0.51891 0.0
H197 H 0.24236 0.06059 0.63962 0.0
H198 H 0.26454 0.03785 0.6489 0.0
C199 C 0.25271 0.04602 0.62395 0.0
H200 H 0.26386 0.05369 0.59762 0.0
H201 H 0.21505 0.08834 0.59391 0.0
O202 O 0.17528 0.97749 0.50445 0.0
C203 C 0.16991 0.05456 0.51249 0.0
Co204 Co 0.98709 0.18687 0.51521 0.0
Co205 Co 0.95199 0.22952 0.53326 0.0
C206 C 0.97919 0.22722 0.45093 0.0
O207 O 0.9878 0.20714 0.46266 0.0
O208 O 0.96535 0.23933 0.47553 0.0
C209 C 0.03364 0.16573 0.49785 0.0
O210 O 0.04049 0.18757 0.48815 0.0
C211 C 0.92377 0.27449 0.54284 0.0
C212 C 0.90202 0.26506 0.60047 0.0
C213 C 0.9063 0.28311 0.57081 0.0
N214 N 0.92987 0.25234 0.55597 0.0
N215 N 0.91654 0.24677 0.59004 0.0
C216 C 0.93447 0.28693 0.50448 0.0
H217 H 0.95426 0.28517 0.50552 0.0
H218 H 0.92939 0.30612 0.50372 0.0
H219 H 0.92811 0.2781 0.47424 0.0
C220 C 0.00529 0.20119 0.60167 0.0
N221 N 0.99138 0.20516 0.56663 0.0
N222 N 0.97689 0.22318 0.57476 0.0
C223 C 0.98136 0.23134 0.61542 0.0
C224 C 0.99918 0.21731 0.63427 0.0
C225 C 0.02328 0.18138 0.60462 0.0
H226 H 0.03721 0.1842 0.57954 0.0
H227 H 0.03233 0.18085 0.63673 0.0
H228 H 0.01439 0.16399 0.59809 0.0
O229 O 0.95618 0.16977 0.51689 0.0
O230 O 0.93172 0.2006 0.5251 0.0
H231 H 0.97727 0.25926 0.6637 0.0
H232 H 0.96114 0.26402 0.614 0.0
C233 C 0.96691 0.25028 0.63772 0.0
H234 H 0.95098 0.24194 0.65295 0.0
H235 H 0.91729 0.23034 0.60607 0.0
O236 O 0.0122 0.16202 0.50994 0.0
C237 C 0.93513 0.17828 0.51992 0.0
Co238 Co 0.81115 0.99648 0.50953 0.0
Co239 Co 0.77944 0.95052 0.52205 0.0
C240 C 0.77717 0.97966 0.44025 0.0
O241 O 0.79208 0.99487 0.45505 0.0
O242 O 0.7709 0.96155 0.46262 0.0
C243 C 0.81827 0.04698 0.5021 0.0
O244 O 0.79502 0.04702 0.49557 0.0
C245 C 0.73621 0.91972 0.53044 0.0
C246 C 0.75117 0.88958 0.56817 0.0
C247 C 0.73026 0.89785 0.5491 0.0
N248 N 0.75951 0.92418 0.53862 0.0
N249 N 0.76825 0.90609 0.56125 0.0
C250 C 0.72029 0.93571 0.50414 0.0
H251 H 0.73087 0.94801 0.48365 0.0
H252 H 0.70921 0.94668 0.52645 0.0
H253 H 0.70815 0.92493 0.48328 0.0
C254 C 0.7912 0.00722 0.59664 0.0
N255 N 0.79182 0.99403 0.55997 0.0
N256 N 0.77755 0.97546 0.56439 0.0
C257 C 0.76675 0.97669 0.60361 0.0
C258 C 0.77512 0.99682 0.62554 0.0
C259 C 0.80829 0.02722 0.60614 0.0
H260 H 0.8258 0.02369 0.59047 0.0
H261 H 0.8009 0.04414 0.59291 0.0
H262 H 0.81125 0.02941 0.64161 0.0
O263 O 0.83494 0.97045 0.50976 0.0
O264 O 0.81282 0.93788 0.51969 0.0
H265 H 0.75825 0.94196 0.62821 0.0
H266 H 0.73908 0.96553 0.64865 0.0
C267 C 0.74889 0.95883 0.61975 0.0
H268 H 0.73573 0.95496 0.59374 0.0
H269 H 0.786 0.90493 0.57175 0.0
O270 O 0.82888 0.02722 0.50882 0.0
C271 C 0.83312 0.94788 0.51432 0.0
Co272 Co 0.50849 0.68965 0.5604 0.0
Co273 Co 0.5495 0.7281 0.55212 0.0
C274 C 0.51711 0.72655 0.62945 0.0
O275 O 0.50617 0.70851 0.61383 0.0
O276 O 0.53425 0.7366 0.60902 0.0
C277 C 0.46012 0.66906 0.5693 0.0
O278 O 0.45278 0.69007 0.58299 0.0
C279 C 0.57984 0.77248 0.54764 0.0
C280 C 0.60973 0.75807 0.50847 0.0
C281 C 0.60207 0.77841 0.53005 0.0
N282 N 0.57479 0.74965 0.53673 0.0
N283 N 0.59273 0.74132 0.51318 0.0
C284 C 0.56452 0.7876 0.57656 0.0
H285 H 0.55178 0.77651 0.59523 0.0
H286 H 0.55406 0.80023 0.55621 0.0
H287 H 0.5758 0.79815 0.59933 0.0
C288 C 0.49737 0.70745 0.47302 0.0
N289 N 0.5091 0.70971 0.51095 0.0
N290 N 0.5265 0.72542 0.50643 0.0
C291 C 0.52659 0.73334 0.46495 0.0
C292 C 0.50836 0.72186 0.44213 0.0
C293 C 0.47754 0.6899 0.46548 0.0
H294 H 0.46333 0.69282 0.49003 0.0
H295 H 0.46955 0.69191 0.43261 0.0
H296 H 0.48449 0.67143 0.46951 0.0
O297 O 0.53771 0.66981 0.56205 0.0
O298 O 0.56632 0.69711 0.55773 0.0
H299 H 0.56269 0.73689 0.4431 0.0
H300 H 0.54178 0.75495 0.41317 0.0
C301 C 0.54636 0.74807 0.4459 0.0
H302 H 0.55031 0.76342 0.46757 0.0
H303 H 0.5936 0.72391 0.501 0.0
O304 O 0.48186 0.66623 0.55815 0.0
C305 C 0.55975 0.67541 0.56075 0.0
Co306 Co 0.30792 0.50185 0.55418 0.0
Co307 Co 0.27626 0.54774 0.54229 0.0
C308 C 0.27257 0.51514 0.62139 0.0
O309 O 0.28812 0.50047 0.60705 0.0
O310 O 0.2668 0.5338 0.59989 0.0
C311 C 0.32832 0.45291 0.56437 0.0
O312 O 0.30851 0.44576 0.58336 0.0
C313 C 0.23201 0.57631 0.54118 0.0
C314 C 0.24312 0.60801 0.50339 0.0
C315 C 0.22398 0.59834 0.52603 0.0
N316 N 0.25482 0.57328 0.52836 0.0
N317 N 0.26132 0.59227 0.50565 0.0
C318 C 0.21818 0.55795 0.56609 0.0
H319 H 0.22444 0.53973 0.55727 0.0
H320 H 0.1987 0.55954 0.55947 0.0
H321 H 0.22136 0.56059 0.60141 0.0
C322 C 0.28995 0.49201 0.46622 0.0
N323 N 0.28906 0.50459 0.50346 0.0
N324 N 0.27642 0.52416 0.49719 0.0
C325 C 0.26915 0.52475 0.45527 0.0
C326 C 0.27772 0.50446 0.43406 0.0
C327 C 0.30452 0.46977 0.46044 0.0
H328 H 0.30045 0.45709 0.48714 0.0
H329 H 0.30067 0.46098 0.4288 0.0
H330 H 0.32384 0.47434 0.46217 0.0
O331 O 0.33007 0.52933 0.55746 0.0
O332 O 0.30864 0.56225 0.54784 0.0
H333 H 0.27071 0.56133 0.43563 0.0
H334 H 0.25293 0.54275 0.40007 0.0
C335 C 0.25791 0.54618 0.43444 0.0
H336 H 0.24167 0.55136 0.45291 0.0
H337 H 0.27833 0.59467 0.49234 0.0
O338 O 0.33008 0.47429 0.55076 0.0
C339 C 0.32867 0.55197 0.55413 0.0
Co340 Co 0.49769 0.30351 0.563 0.0
Co341 Co 0.45216 0.27147 0.54649 0.0
C342 C 0.47899 0.26916 0.63031 0.0
O343 O 0.49297 0.28564 0.61736 0.0
O344 O 0.46246 0.26072 0.60606 0.0
C345 C 0.52727 0.33928 0.59498 0.0
O346 O 0.50792 0.34202 0.61879 0.0
C347 C 0.41389 0.23427 0.54275 0.0
C348 C 0.39058 0.25032 0.49253 0.0
C349 C 0.39207 0.23148 0.52155 0.0
N350 N 0.42486 0.2538 0.52652 0.0
N351 N 0.41086 0.26307 0.4962 0.0
C352 C 0.42258 0.22073 0.58161 0.0
H353 H 0.41869 0.23129 0.61137 0.0
H354 H 0.44226 0.21825 0.57953 0.0
H355 H 0.41357 0.20309 0.58423 0.0
C356 C 0.51101 0.28488 0.478 0.0
N357 N 0.49718 0.28347 0.51363 0.0
N358 N 0.47793 0.27075 0.50481 0.0
C359 C 0.47898 0.2638 0.46268 0.0
C360 C 0.49972 0.27307 0.44387 0.0
C361 C 0.53299 0.30016 0.47531 0.0
H362 H 0.54485 0.29625 0.50341 0.0
H363 H 0.54298 0.29688 0.44466 0.0
H364 H 0.52779 0.31929 0.47713 0.0
O365 O 0.47198 0.32738 0.55723 0.0
O366 O 0.43957 0.30476 0.55098 0.0
H367 H 0.44549 0.26615 0.42944 0.0
H368 H 0.4649 0.2432 0.40886 0.0
C369 C 0.45866 0.25225 0.43886 0.0
H370 H 0.4498 0.23887 0.45999 0.0
H371 H 0.41451 0.27901 0.47983 0.0
O372 O 0.5279 0.32223 0.56763 0.0
C373 C 0.4494 0.32523 0.55383 0.0
Co374 Co 0.69127 0.49187 0.55492 0.0
Co375 Co 0.72147 0.44469 0.55764 0.0
C376 C 0.72492 0.48127 0.62888 0.0
O377 O 0.71011 0.49476 0.6092 0.0
O378 O 0.7313 0.46133 0.61253 0.0
C379 C 0.65499 0.5278 0.56132 0.0
O380 O 0.64308 0.51078 0.58127 0.0
C381 C 0.7649 0.4157 0.56145 0.0
C382 C 0.7532 0.38135 0.53294 0.0
C383 C 0.77289 0.39296 0.5506 0.0
N384 N 0.74162 0.4174 0.55084 0.0
N385 N 0.73468 0.39679 0.53391 0.0
C386 C 0.77942 0.43629 0.57802 0.0
H387 H 0.77165 0.45345 0.56657 0.0
H388 H 0.79829 0.4349 0.56703 0.0
H389 H 0.77906 0.43623 0.61411 0.0
C390 C 0.70917 0.49205 0.46441 0.0
N391 N 0.70986 0.48375 0.50559 0.0
N392 N 0.72355 0.46464 0.50721 0.0
C393 C 0.73272 0.46065 0.46725 0.0
C394 C 0.72368 0.47766 0.43841 0.0
C395 C 0.69185 0.51079 0.44947 0.0
H396 H 0.67462 0.50875 0.46702 0.0
H397 H 0.69923 0.52872 0.45727 0.0
H398 H 0.68836 0.50969 0.41401 0.0
O399 O 0.66683 0.46704 0.5644 0.0
O400 O 0.68762 0.43306 0.56469 0.0
H401 H 0.73888 0.42339 0.45613 0.0
H402 H 0.75794 0.44294 0.42451 0.0
C403 C 0.74918 0.44035 0.45654 0.0
H404 H 0.76329 0.43899 0.48175 0.0
H405 H 0.71737 0.39335 0.52271 0.0
O406 O 0.67579 0.52342 0.54661 0.0
C407 C 0.66779 0.44434 0.56752 0.0
Co408 Co 0.51288 0.31629 0.0054 0.0
Co409 Co 0.55213 0.27624 0.01105 0.0
C410 C 0.51712 0.27707 0.93796 0.0
O411 O 0.50811 0.2963 0.95306 0.0
O412 O 0.53405 0.26624 0.95774 0.0
C413 C 0.46532 0.33715 0.99622 0.0
O414 O 0.45865 0.31609 0.98161 0.0
C415 C 0.57827 0.23014 0.02461 0.0
C416 C 0.61466 0.24437 0.03626 0.0
C417 C 0.60182 0.22335 0.03231 0.0
N418 N 0.57734 0.25422 0.02392 0.0
N419 N 0.59914 0.2625 0.03135 0.0
C420 C 0.55745 0.21411 0.01551 0.0
H421 H 0.54129 0.22474 0.00722 0.0
H422 H 0.55371 0.20301 0.04464 0.0
H423 H 0.56194 0.2018 0.98836 0.0
C424 C 0.50424 0.30035 0.09549 0.0
N425 N 0.51476 0.29738 0.05654 0.0
N426 N 0.53173 0.28114 0.05996 0.0
C427 C 0.53293 0.27368 0.10169 0.0
C428 C 0.51556 0.28571 0.12578 0.0
C429 C 0.48461 0.31799 0.1038 0.0
H430 H 0.47042 0.31573 0.07891 0.0
H431 H 0.47654 0.31555 0.13647 0.0
H432 H 0.49183 0.33642 0.10087 0.0
O433 O 0.54251 0.33539 0.99889 0.0
O434 O 0.56944 0.30637 0.99852 0.0
H435 H 0.57023 0.26587 0.10879 0.0
H436 H 0.55246 0.25709 0.155 0.0
C437 C 0.55275 0.25835 0.11904 0.0
H438 H 0.55115 0.24015 0.105 0.0
H439 H 0.60359 0.28061 0.03232 0.0
O440 O 0.4868 0.34027 0.00869 0.0
C441 C 0.5641 0.32842 0.99569 0.0
Co442 Co 0.68433 0.5137 0.0042 0.0
Co443 Co 0.72616 0.55032 0.01704 0.0
C444 C 0.7242 0.52154 0.93741 0.0
O445 O 0.7043 0.51302 0.95036 0.0
O446 O 0.73637 0.53585 0.96085 0.0
C447 C 0.67443 0.46546 0.9929 0.0
O448 O 0.69785 0.46586 0.98882 0.0
C449 C 0.77258 0.57521 0.02974 0.0
C450 C 0.76048 0.60703 0.06622 0.0
C451 C 0.78076 0.59646 0.04856 0.0
N452 N 0.74877 0.57368 0.03603 0.0
N453 N 0.74172 0.59272 0.05794 0.0
C454 C 0.78689 0.55587 0.0084 0.0
H455 H 0.77699 0.53866 0.00943 0.0
H456 H 0.80446 0.55372 0.02485 0.0
H457 H 0.78993 0.56062 0.97379 0.0
C458 C 0.70013 0.49936 0.09275 0.0
N459 N 0.70293 0.51227 0.05608 0.0
N460 N 0.72111 0.52697 0.06109 0.0
C461 C 0.7308 0.52353 0.10088 0.0
C462 C 0.71779 0.50591 0.12245 0.0
C463 C 0.67925 0.48316 0.1009 0.0
H464 H 0.66319 0.48981 0.08345 0.0
H465 H 0.68356 0.46499 0.08861 0.0
H466 H 0.67514 0.48192 0.13614 0.0
O467 O 0.6652 0.54338 0.00353 0.0
O468 O 0.69585 0.56866 0.00728 0.0
H469 H 0.74665 0.55522 0.12703 0.0
H470 H 0.7602 0.52779 0.14627 0.0
C471 C 0.75214 0.53685 0.11768 0.0
H472 H 0.76582 0.53822 0.09175 0.0
H473 H 0.72402 0.59602 0.06698 0.0
O474 O 0.66351 0.48498 1.00044 0.0
C475 C 0.67345 0.56463 0.00354 0.0
Co476 Co 0.49354 0.6929 0.00349 0.0
Co477 Co 0.45253 0.73052 0.01894 0.0
C478 C 0.48073 0.73081 0.93777 0.0
O479 O 0.49175 0.71212 0.95016 0.0
O480 O 0.46531 0.74119 0.96169 0.0
C481 C 0.54198 0.68144 0.98455 0.0
O482 O 0.54206 0.70389 0.97193 0.0
C483 C 0.42747 0.77608 0.03685 0.0
C484 C 0.39307 0.76255 0.0623 0.0
C485 C 0.40526 0.7835 0.05262 0.0
N486 N 0.42807 0.75202 0.03731 0.0
N487 N 0.40745 0.74409 0.05255 0.0
C488 C 0.44837 0.79116 0.02377 0.0
H489 H 0.46524 0.78076 0.0267 0.0
H490 H 0.44943 0.80748 0.04428 0.0
H491 H 0.44625 0.79658 0.98925 0.0
C492 C 0.50761 0.70983 0.09034 0.0
N493 N 0.49454 0.71247 0.05392 0.0
N494 N 0.47677 0.72732 0.06172 0.0
C495 C 0.47742 0.73388 0.10394 0.0
C496 C 0.49697 0.72284 0.12367 0.0
C497 C 0.52871 0.6934 0.09394 0.0
H498 H 0.54188 0.69797 0.06836 0.0
H499 H 0.53772 0.69499 0.126 0.0
H500 H 0.52281 0.67466 0.08871 0.0
O501 O 0.46496 0.6718 0.00558 0.0
O502 O 0.43641 0.6992 0.01234 0.0
H503 H 0.44014 0.73683 0.1188 0.0
H504 H 0.45928 0.74703 0.16202 0.0
C505 C 0.45708 0.74632 0.12625 0.0
H506 H 0.4556 0.76482 0.11356 0.0
H507 H 0.40319 0.72604 0.05631 0.0
O508 O 0.52274 0.67258 0.99969 0.0
C509 C 0.44291 0.67748 0.00841 0.0
Co510 Co 0.3052 0.49803 0.99694 0.0
Co511 Co 0.27758 0.4493 0.00238 0.0
C512 C 0.27082 0.48333 0.9277 0.0
O513 O 0.28523 0.49841 0.94426 0.0
O514 O 0.26639 0.46337 0.94603 0.0
C515 C 0.34266 0.53322 0.992 0.0
O516 O 0.35548 0.51522 0.97748 0.0
C517 C 0.23533 0.41859 0.01363 0.0
C518 C 0.25212 0.38403 0.03045 0.0
C519 C 0.23007 0.39495 0.02418 0.0
N520 N 0.25926 0.4213 0.01375 0.0
N521 N 0.26918 0.40056 0.02367 0.0
C522 C 0.21829 0.43885 0.0065 0.0
H523 H 0.22732 0.4562 0.0128 0.0
H524 H 0.20242 0.43702 0.02796 0.0
H525 H 0.21221 0.43869 0.97212 0.0
C526 C 0.28663 0.5029 0.0854 0.0
N527 N 0.28641 0.49188 0.04654 0.0
N528 N 0.27545 0.47115 0.05015 0.0
C529 C 0.26878 0.46813 0.09204 0.0
C530 C 0.27575 0.48816 0.11585 0.0
C531 C 0.30001 0.52559 0.09435 0.0
H532 H 0.29494 0.53928 0.06992 0.0
H533 H 0.29609 0.53256 0.12741 0.0
H534 H 0.31953 0.52222 0.09132 0.0
O535 O 0.33074 0.47332 0.99302 0.0
O536 O 0.31126 0.43878 0.99637 0.0
H537 H 0.2724 0.43027 0.10008 0.0
H538 H 0.25908 0.44526 0.1463 0.0
C539 C 0.26016 0.44485 0.11027 0.0
H540 H 0.24213 0.44088 0.09698 0.0
H541 H 0.2876 0.39774 0.02612 0.0
O542 O 0.32081 0.52984 1.00186 0.0
C543 C 0.33071 0.45054 0.99337 0.0
H544 H 0.14888 0.28571 0.09356 0.0
H545 H 0.09404 0.31197 0.00589 0.0
H546 H 0.11758 0.34895 0.9942 0.0
H547 H 0.16579 0.3446 0.14067 0.0
H548 H 0.19696 0.33636 0.14329 0.0
H549 H 0.17413 0.31379 0.14899 0.0
H550 H 0.19312 0.2898 0.08557 0.0
H551 H 0.21585 0.31231 0.07946 0.0
H552 H 0.1974 0.30415 0.03362 0.0
H553 H 0.15016 0.38033 0.98455 0.0
H554 H 0.18756 0.40367 0.98005 0.0
H555 H 0.22011 0.35711 0.07628 0.0
C556 C 0.14157 0.2995 0.07267 0.0
C557 C 0.1195 0.2962 0.05114 0.0
C558 C 0.1106 0.31444 0.02361 0.0
C559 C 0.12394 0.33542 0.01659 0.0
C560 C 0.14594 0.3379 0.03774 0.0
C561 C 0.1545 0.3205 0.06567 0.0
C562 C 0.17927 0.3265 0.08225 0.0
C563 C 0.17901 0.33056 0.13174 0.0
C564 C 0.19747 0.30704 0.06943 0.0
C565 C 0.18378 0.34957 0.05806 0.0
C566 C 0.16434 0.35605 0.03284 0.0
C567 C 0.16523 0.37579 0.00513 0.0
C568 C 0.18655 0.38912 0.00308 0.0
C569 C 0.20665 0.38268 0.02872 0.0
C570 C 0.20498 0.36274 0.05671 0.0
H571 H 0.712 0.13868 0.99715 0.0
H572 H 0.68634 0.09603 0.10541 0.0
H573 H 0.64817 0.11825 0.10415 0.0
H574 H 0.69102 0.19238 0.03659 0.0
H575 H 0.68369 0.2047 0.98404 0.0
H576 H 0.70688 0.18258 0.98871 0.0
H577 H 0.68495 0.15597 0.9321 0.0
H578 H 0.66156 0.17804 0.92742 0.0
H579 H 0.65419 0.14759 0.94126 0.0
H580 H 0.61408 0.14849 0.09544 0.0
H581 H 0.5898 0.18521 0.08414 0.0
H582 H 0.63946 0.20857 0.98479 0.0
C583 C 0.69823 0.13361 0.02017 0.0
C584 C 0.70207 0.11509 0.0506 0.0
C585 C 0.68365 0.10943 0.08059 0.0
C586 C 0.66188 0.12212 0.0803 0.0
C587 C 0.65885 0.14045 0.04995 0.0
C588 C 0.67666 0.14617 0.02056 0.0
C589 C 0.67043 0.16819 0.99445 0.0
C590 C 0.6891 0.18813 1.0014 0.0
C591 C 0.66761 0.16207 0.94593 0.0
C592 C 0.64663 0.17455 0.01465 0.0
C593 C 0.63986 0.15811 0.04593 0.0
C594 C 0.61906 0.16123 0.07055 0.0
C595 C 0.60529 0.18201 0.06379 0.0
C596 C 0.61272 0.19938 0.03324 0.0
C597 C 0.6333 0.1953 0.0079 0.0
H598 H 0.79633 0.63068 0.10449 0.0
H599 H 0.81947 0.5895 0.99236 0.0
H600 H 0.85728 0.61187 0.99123 0.0
H601 H 0.81426 0.6843 0.06302 0.0
H602 H 0.82305 0.69733 0.11428 0.0
H603 H 0.80058 0.67436 0.11296 0.0
H604 H 0.82548 0.64897 0.1672 0.0
H605 H 0.84813 0.67195 0.16865 0.0
H606 H 0.85615 0.64169 0.15456 0.0
H607 H 0.89063 0.64241 0.99642 0.0
H608 H 0.91369 0.68019 0.00315 0.0
H609 H 0.86671 0.70331 0.10684 0.0
C610 C 0.80956 0.62581 0.08033 0.0
C611 C 0.80499 0.60758 0.04953 0.0
C612 C 0.82267 0.60241 0.01778 0.0
C613 C 0.8443 0.61527 0.01661 0.0
C614 C 0.84793 0.63342 0.04706 0.0
C615 C 0.83091 0.63875 0.07818 0.0
C616 C 0.83725 0.66124 0.10304 0.0
C617 C 0.81763 0.68043 0.09798 0.0
C618 C 0.84204 0.65562 0.15122 0.0
C619 C 0.86003 0.66834 0.07992 0.0
C620 C 0.86637 0.65173 0.0486 0.0
C621 C 0.88605 0.6553 0.02134 0.0
C622 C 0.8991 0.67669 0.02545 0.0
C623 C 0.89205 0.69424 0.05594 0.0
C624 C 0.87262 0.68982 0.08393 0.0
H625 H 0.29702 0.86629 0.11209 0.0
H626 H 0.32291 0.91722 0.01719 0.0
H627 H 0.36142 0.89526 0.01292 0.0
H628 H 0.35733 0.85418 0.16588 0.0
H629 H 0.34963 0.82313 0.17333 0.0
H630 H 0.32661 0.84572 0.1753 0.0
H631 H 0.3031 0.82317 0.11519 0.0
H632 H 0.32605 0.80076 0.11261 0.0
H633 H 0.31759 0.81677 0.06408 0.0
H634 H 0.39277 0.86274 0.00752 0.0
H635 H 0.41505 0.82479 0.00519 0.0
H636 H 0.36986 0.79659 0.10784 0.0
C637 C 0.31125 0.87332 0.09185 0.0
C638 C 0.30739 0.89356 0.06557 0.0
C639 C 0.32594 0.90205 0.0384 0.0
C640 C 0.34777 0.88962 0.03568 0.0
C641 C 0.35077 0.8691 0.06101 0.0
C642 C 0.33315 0.86135 0.08934 0.0
C643 C 0.33957 0.8376 0.10973 0.0
C644 C 0.34353 0.84033 0.15899 0.0
C645 C 0.32045 0.81847 0.09977 0.0
C646 C 0.36283 0.8324 0.08651 0.0
C647 C 0.36924 0.85084 0.05893 0.0
C648 C 0.38847 0.8486 0.03024 0.0
C649 C 0.40122 0.82691 0.02939 0.0
C650 C 0.39475 0.80777 0.05724 0.0
C651 C 0.37561 0.81097 0.08667 0.0
H652 H 0.12774 0.70094 0.48826 0.0
H653 H 0.10932 0.69326 0.62438 0.0
H654 H 0.134 0.6566 0.62881 0.0
H655 H 0.13285 0.63564 0.46128 0.0
H656 H 0.15849 0.64058 0.42685 0.0
H657 H 0.13591 0.66345 0.43215 0.0
H658 H 0.16848 0.69384 0.45577 0.0
H659 H 0.19108 0.6711 0.45078 0.0
H660 H 0.1875 0.68691 0.50151 0.0
H661 H 0.16404 0.624 0.62097 0.0
H662 H 0.1988 0.59886 0.60267 0.0
H663 H 0.19925 0.62819 0.47204 0.0
C664 C 0.12832 0.69097 0.51846 0.0
C665 C 0.11633 0.69941 0.55578 0.0
C666 C 0.11818 0.6867 0.59538 0.0
C667 C 0.13206 0.66588 0.59812 0.0
C668 C 0.14417 0.65821 0.56102 0.0
C669 C 0.14251 0.67037 0.52192 0.0
C670 C 0.15965 0.66011 0.48856 0.0
C671 C 0.1459 0.6493 0.44992 0.0
C672 C 0.17774 0.67912 0.47329 0.0
C673 C 0.1717 0.64081 0.51541 0.0
C674 C 0.16213 0.63968 0.5568 0.0
C675 C 0.17131 0.6243 0.58835 0.0
C676 C 0.19097 0.6099 0.57751 0.0
C677 C 0.20133 0.61105 0.53553 0.0
C678 C 0.19139 0.62662 0.50412 0.0
H679 H 0.38742 0.18245 0.51718 0.0
H680 H 0.35007 0.24752 0.55291 0.0
H681 H 0.31348 0.22421 0.56809 0.0
H682 H 0.3385 0.1557 0.46149 0.0
H683 H 0.3445 0.12555 0.47918 0.0
H684 H 0.36867 0.14675 0.47466 0.0
H685 H 0.38024 0.13937 0.55517 0.0
H686 H 0.35628 0.11792 0.5598 0.0
H687 H 0.35788 0.14281 0.59699 0.0
H688 H 0.28081 0.19493 0.57598 0.0
H689 H 0.25311 0.16076 0.57697 0.0
H690 H 0.31065 0.11371 0.53557 0.0
C691 C 0.37161 0.19157 0.52905 0.0
C692 C 0.37145 0.21667 0.53445 0.0
C693 C 0.35043 0.22826 0.54895 0.0
C694 C 0.32962 0.21519 0.55762 0.0
C695 C 0.33011 0.19054 0.55131 0.0
C696 C 0.35049 0.17873 0.53749 0.0
C697 C 0.34556 0.1522 0.53141 0.0
C698 C 0.34955 0.14461 0.48385 0.0
C699 C 0.3609 0.13719 0.56272 0.0
C700 C 0.31922 0.1511 0.54351 0.0
C701 C 0.31083 0.17346 0.55508 0.0
C702 C 0.28715 0.17729 0.56715 0.0
C703 C 0.27156 0.15773 0.56761 0.0
C704 C 0.27956 0.13458 0.55578 0.0
C705 C 0.3038 0.13124 0.54373 0.0
H706 H 0.79599 0.3615 0.49718 0.0
H707 H 0.80319 0.39914 0.61995 0.0
H708 H 0.84186 0.37916 0.63287 0.0
H709 H 0.81706 0.30683 0.53396 0.0
H710 H 0.8328 0.29891 0.48484 0.0
H711 H 0.80747 0.3187 0.48226 0.0
H712 H 0.83356 0.35064 0.44375 0.0
H713 H 0.85907 0.33092 0.44637 0.0
H714 H 0.86095 0.36061 0.46903 0.0
H715 H 0.87635 0.35114 0.63766 0.0
H716 H 0.90454 0.31707 0.63339 0.0
H717 H 0.8763 0.2983 0.50665 0.0
C718 C 0.80599 0.36588 0.52633 0.0
C719 C 0.7969 0.38235 0.55702 0.0
C720 C 0.8102 0.38728 0.59522 0.0
C721 C 0.83215 0.3759 0.60297 0.0
C722 C 0.84061 0.35972 0.5721 0.0
C723 C 0.82803 0.35479 0.53439 0.0
C724 C 0.84013 0.33527 0.50818 0.0
C725 C 0.82337 0.31366 0.50198 0.0
C726 C 0.84896 0.34495 0.46422 0.0
C727 C 0.86094 0.32931 0.5379 0.0
C728 C 0.861 0.3438 0.57442 0.0
C729 C 0.87691 0.34011 0.60873 0.0
C730 C 0.89284 0.3208 0.60607 0.0
C731 C 0.89288 0.30569 0.56921 0.0
C732 C 0.87711 0.31026 0.53435 0.0
H733 H 0.65047 0.78065 0.53444 0.0
H734 H 0.58718 0.82567 0.53597 0.0
H735 H 0.61292 0.86145 0.54329 0.0
H736 H 0.6855 0.81438 0.61123 0.0
H737 H 0.71315 0.80947 0.58237 0.0
H738 H 0.68952 0.78761 0.57933 0.0
H739 H 0.68995 0.79051 0.49511 0.0
H740 H 0.71354 0.8124 0.49788 0.0
H741 H 0.68613 0.81926 0.46948 0.0
H742 H 0.64636 0.89247 0.54938 0.0
H743 H 0.684 0.9156 0.55296 0.0
H744 H 0.72475 0.84973 0.54386 0.0
C745 C 0.64193 0.79801 0.53649 0.0
C746 C 0.61676 0.80028 0.53557 0.0
C747 C 0.60636 0.82335 0.53808 0.0
C748 C 0.62088 0.84382 0.54179 0.0
C749 C 0.64568 0.84085 0.54269 0.0
C750 C 0.65607 0.81847 0.54007 0.0
C751 C 0.68309 0.81991 0.54067 0.0
C752 C 0.69341 0.80709 0.58079 0.0
C753 C 0.6938 0.80994 0.49826 0.0
C754 C 0.6864 0.84666 0.54382 0.0
C755 C 0.66469 0.8585 0.54505 0.0
C756 C 0.66344 0.88336 0.54799 0.0
C757 C 0.68495 0.89639 0.54946 0.0
C758 C 0.70735 0.88453 0.54755 0.0
C759 C 0.70792 0.85933 0.54517 0.0
H760 H 0.16877 0.08461 0.06562 0.0
H761 H 0.11979 0.02662 0.03467 0.0
H762 H 0.08598 0.05485 0.03645 0.0
H763 H 0.13056 0.11531 0.13962 0.0
H764 H 0.13921 0.14486 0.12226 0.0
H765 H 0.15998 0.12036 0.11733 0.0
H766 H 0.16455 0.12891 0.03489 0.0
H767 H 0.14395 0.15357 0.03965 0.0
H768 H 0.13823 0.13002 1.00092 0.0
H769 H 0.05732 0.08847 0.04508 0.0
H770 H 0.03555 0.12637 0.05435 0.0
H771 H 0.10288 0.16323 0.0779 0.0
C772 C 0.15097 0.07789 0.05884 0.0
C773 C 0.14696 0.05336 0.05012 0.0
C774 C 0.12336 0.0453 0.04144 0.0
C775 C 0.104 0.06118 0.04246 0.0
C776 C 0.10851 0.08511 0.05191 0.0
C777 C 0.13139 0.09355 0.05947 0.0
C778 C 0.13119 0.12019 0.06881 0.0
C779 C 0.1408 0.12548 0.11474 0.0
C780 C 0.14532 0.13399 0.03399 0.0
C781 C 0.10458 0.1253 0.06567 0.0
C782 C 0.09188 0.10475 0.0561 0.0
C783 C 0.06706 0.10473 0.05231 0.0
C784 C 0.05485 0.12638 0.05784 0.0
C785 C 0.06747 0.14784 0.06683 0.0
C786 C 0.0927 0.14718 0.07098 0.0
H787 H 0.90856 0.17183 0.09719 0.0
H788 H 0.96714 0.13279 0.03703 0.0
H789 H 0.94121 0.09762 0.02873 0.0
H790 H 0.88367 0.12283 0.15647 0.0
H791 H 0.8529 0.13112 0.14716 0.0
H792 H 0.87583 0.15379 0.14823 0.0
H793 H 0.86301 0.16807 0.07146 0.0
H794 H 0.83993 0.14556 0.0703 0.0
H795 H 0.86184 0.14684 0.02733 0.0
H796 H 0.91036 0.06601 0.03051 0.0
H797 H 0.87449 0.04058 0.03546 0.0
H798 H 0.83461 0.09998 0.09078 0.0
C799 C 0.91585 0.15593 0.08205 0.0
C800 C 0.93993 0.15509 0.06794 0.0
C801 C 0.94877 0.13396 0.04807 0.0
C802 C 0.93421 0.1138 0.04331 0.0
C803 C 0.91073 0.11507 0.05806 0.0
C804 C 0.9014 0.13562 0.07643 0.0
C805 C 0.87534 0.13211 0.08879 0.0
C806 C 0.87174 0.13514 0.13809 0.0
C807 C 0.85907 0.14916 0.06292 0.0
C808 C 0.87168 0.10633 0.07489 0.0
C809 C 0.89244 0.09686 0.05762 0.0
C810 C 0.89389 0.07323 0.04363 0.0
C811 C 0.87344 0.0589 0.04681 0.0
C812 C 0.85174 0.0683 0.06341 0.0
C813 C 0.85091 0.09234 0.07771 0.0
H814 H 0.9374 0.87519 0.05331 0.0
H815 H 0.89211 0.81477 0.08725 0.0
H816 H 0.85676 0.84083 0.08567 0.0
H817 H 0.90474 0.91945 0.11722 0.0
H818 H 0.90846 0.94288 0.07752 0.0
H819 H 0.93062 0.9196 0.08218 0.0
H820 H 0.92548 0.90989 1.00026 0.0
H821 H 0.90313 0.93298 0.99545 0.0
H822 H 0.89614 0.90275 0.97941 0.0
H823 H 0.82603 0.87256 0.07867 0.0
H824 H 0.80183 0.90913 0.07062 0.0
H825 H 0.86627 0.94961 0.04149 0.0
C826 C 0.92009 0.86752 0.06085 0.0
C827 C 0.91765 0.84286 0.07032 0.0
C828 C 0.89458 0.83354 0.07973 0.0
C829 C 0.87429 0.84819 0.0789 0.0
C830 C 0.87723 0.87223 0.0687 0.0
C831 C 0.89949 0.88196 0.06016 0.0
C832 C 0.89742 0.90845 0.04999 0.0
C833 C 0.91112 0.92348 0.08375 0.0
C834 C 0.90605 0.91382 0.00351 0.0
C835 C 0.87055 0.91194 0.05411 0.0
C836 C 0.8593 0.89075 0.0648 0.0
C837 C 0.8346 0.88931 0.07042 0.0
C838 C 0.82099 0.9102 0.06565 0.0
C839 C 0.83209 0.93227 0.05543 0.0
C840 C 0.85721 0.93302 0.0492 0.0
H841 H 0.12459 0.93889 0.05886 0.0
H842 H 0.18352 0.88916 0.07771 0.0
H843 H 0.15523 0.85548 0.07551 0.0
H844 H 0.08138 0.90647 0.12488 0.0
H845 H 0.0565 0.91314 0.08948 0.0
H846 H 0.08132 0.93363 0.09327 0.0
H847 H 0.08703 0.93128 0.00974 0.0
H848 H 0.06235 0.91064 0.00572 0.0
H849 H 0.09126 0.90253 0.98427 0.0
H850 H 0.12124 0.82704 0.0693 0.0
H851 H 0.08302 0.80542 0.06309 0.0
H852 H 0.04538 0.87299 0.04892 0.0
C853 C 0.13153 0.92094 0.06288 0.0
C854 C 0.15638 0.91677 0.06845 0.0
C855 C 0.16465 0.89293 0.07338 0.0
C856 C 0.14871 0.87361 0.07212 0.0
C857 C 0.12447 0.87831 0.06602 0.0
C858 C 0.11582 0.90134 0.06177 0.0
C859 C 0.08883 0.90126 0.05546 0.0
C860 C 0.07627 0.9144 0.09302 0.0
C861 C 0.08197 0.91207 0.01116 0.0
C862 C 0.08376 0.87459 0.05674 0.0
C863 C 0.10464 0.86175 0.06273 0.0
C864 C 0.10474 0.83688 0.06476 0.0
C865 C 0.08289 0.82476 0.06109 0.0
C866 C 0.06113 0.83745 0.05555 0.0
C867 C 0.06168 0.86275 0.0531 0.0
H868 H 0.18009 0.90641 0.51575 0.0
H869 H 0.13451 0.96598 0.47834 0.0
H870 H 0.09993 0.93901 0.47439 0.0
H871 H 0.15054 0.86127 0.44759 0.0
H872 H 0.15328 0.8379 0.48769 0.0
H873 H 0.17519 0.86154 0.48552 0.0
H874 H 0.1672 0.87127 0.56665 0.0
H875 H 0.14521 0.84774 0.56901 0.0
H876 H 0.1371 0.87782 0.58413 0.0
H877 H 0.07013 0.90701 0.47698 0.0
H878 H 0.0459 0.87075 0.48546 0.0
H879 H 0.10966 0.83074 0.52175 0.0
C880 C 0.16288 0.91365 0.50624 0.0
C881 C 0.16002 0.93831 0.49736 0.0
C882 C 0.13716 0.94719 0.48551 0.0
C883 C 0.11737 0.93201 0.48302 0.0
C884 C 0.12065 0.90795 0.49252 0.0
C885 C 0.14273 0.89868 0.50383 0.0
C886 C 0.14081 0.87214 0.51384 0.0
C887 C 0.15585 0.85734 0.48174 0.0
C888 C 0.14801 0.86695 0.56122 0.0
C889 C 0.1142 0.86816 0.50668 0.0
C890 C 0.10307 0.88913 0.49425 0.0
C891 C 0.07859 0.8904 0.4865 0.0
C892 C 0.06498 0.86965 0.49155 0.0
C893 C 0.07582 0.84781 0.50429 0.0
C894 C 0.10084 0.8471 0.51185 0.0
H895 H 0.08289 0.16822 0.49601 0.0
H896 H 0.02354 0.11807 0.50114 0.0
H897 H 0.05207 0.08451 0.50467 0.0
H898 H 0.12254 0.13157 0.43025 0.0
H899 H 0.14914 0.14042 0.45937 0.0
H900 H 0.1241 0.16063 0.45557 0.0
H901 H 0.12286 0.16387 0.53965 0.0
H902 H 0.14782 0.14359 0.54372 0.0
H903 H 0.12027 0.13703 0.57181 0.0
H904 H 0.08647 0.05652 0.50825 0.0
H905 H 0.125 0.03539 0.51268 0.0
H906 H 0.16263 0.10339 0.50735 0.0
C907 C 0.07591 0.15016 0.49744 0.0
C908 C 0.05098 0.14575 0.49809 0.0
C909 C 0.04256 0.12189 0.50059 0.0
C910 C 0.05861 0.10269 0.50257 0.0
C911 C 0.08304 0.10764 0.50227 0.0
C912 C 0.09172 0.13074 0.49985 0.0
C913 C 0.11889 0.13104 0.5013 0.0
C914 C 0.12927 0.14153 0.45911 0.0
C915 C 0.12799 0.14469 0.54152 0.0
C916 C 0.12404 0.10448 0.50492 0.0
C917 C 0.10306 0.09138 0.50521 0.0
C918 C 0.10304 0.06655 0.50805 0.0
C919 C 0.12507 0.05472 0.51052 0.0
C920 C 0.14691 0.0677 0.51039 0.0
C921 C 0.14629 0.09296 0.5077 0.0
H922 H 0.86696 0.05279 0.50808 0.0
H923 H 0.80033 0.09257 0.49941 0.0
H924 H 0.82297 0.13047 0.5032 0.0
H925 H 0.8965 0.09177 0.58353 0.0
H926 H 0.9255 0.08864 0.55843 0.0
H927 H 0.90406 0.06465 0.55489 0.0
H928 H 0.90727 0.06529 0.47076 0.0
H929 H 0.92876 0.08926 0.47405 0.0
H930 H 0.90198 0.09286 0.44191 0.0
H931 H 0.85282 0.164 0.50939 0.0
H932 H 0.88777 0.19081 0.51507 0.0
H933 H 0.93497 0.12906 0.51821 0.0
C934 C 0.8571 0.06946 0.50693 0.0
C935 C 0.83185 0.06971 0.5035 0.0
C936 C 0.81966 0.09192 0.50196 0.0
C937 C 0.83236 0.11355 0.50416 0.0
C938 C 0.85723 0.11265 0.50767 0.0
C939 C 0.86948 0.09119 0.50883 0.0
C940 C 0.89625 0.09515 0.5124 0.0
C941 C 0.90615 0.08442 0.55484 0.0
C942 C 0.90933 0.08504 0.47239 0.0
C943 C 0.89714 0.12222 0.51322 0.0
C944 C 0.87444 0.13196 0.51061 0.0
C945 C 0.87069 0.15658 0.51131 0.0
C946 C 0.89068 0.17166 0.51462 0.0
C947 C 0.91417 0.16209 0.51699 0.0
C948 C 0.9173 0.13699 0.51627 0.0
H949 H 0.91122 0.82766 0.50386 0.0
H950 H 0.97405 0.87353 0.50212 0.0
H951 H 0.94819 0.90904 0.50533 0.0
H952 H 0.87355 0.86566 0.43752 0.0
H953 H 0.84673 0.85959 0.46817 0.0
H954 H 0.8701 0.83744 0.46519 0.0
H955 H 0.8722 0.83614 0.54939 0.0
H956 H 0.84888 0.85833 0.55261 0.0
H957 H 0.87719 0.86346 0.57928 0.0
H958 H 0.91618 0.93957 0.50853 0.0
H959 H 0.8794 0.96369 0.51211 0.0
H960 H 0.83674 0.89864 0.51304 0.0
C961 C 0.9195 0.84517 0.50397 0.0
C962 C 0.94469 0.84776 0.50268 0.0
C963 C 0.95483 0.87102 0.50316 0.0
C964 C 0.9403 0.89135 0.50494 0.0
C965 C 0.91562 0.88821 0.50639 0.0
C966 C 0.90522 0.86578 0.50599 0.0
C967 C 0.87814 0.86762 0.50833 0.0
C968 C 0.86644 0.85694 0.46736 0.0
C969 C 0.86854 0.85568 0.54988 0.0
C970 C 0.87507 0.89456 0.50999 0.0
C971 C 0.89696 0.90603 0.50875 0.0
C972 C 0.89889 0.93084 0.50957 0.0
C973 C 0.87786 0.94438 0.51158 0.0
C974 C 0.85513 0.93311 0.51289 0.0
C975 C 0.85381 0.90782 0.51223 0.0
H976 H 0.609 0.54181 0.579 0.0
H977 H 0.67798 0.56875 0.53605 0.0
H978 H 0.66135 0.60964 0.53309 0.0
H979 H 0.57328 0.58013 0.51077 0.0
H980 H 0.55007 0.58401 0.55088 0.0
H981 H 0.56755 0.55695 0.55017 0.0
H982 H 0.57926 0.56385 0.63086 0.0
H983 H 0.56191 0.591 0.63174 0.0
H984 H 0.59315 0.59167 0.64654 0.0
H985 H 0.6375 0.64766 0.5365 0.0
H986 H 0.60734 0.67982 0.54097 0.0
H987 H 0.55362 0.62777 0.57951 0.0
C988 C 0.62062 0.55629 0.56895 0.0
C989 C 0.64481 0.55212 0.55793 0.0
C990 C 0.65938 0.57154 0.54463 0.0
C991 C 0.65013 0.59483 0.54298 0.0
C992 C 0.62625 0.59835 0.55441 0.0
C993 C 0.61163 0.5796 0.56675 0.0
C994 C 0.58647 0.58813 0.57646 0.0
C995 C 0.56827 0.57662 0.5452 0.0
C996 C 0.57982 0.58338 0.62424 0.0
C997 C 0.58923 0.61462 0.56771 0.0
C998 C 0.61236 0.62017 0.55538 0.0
C999 C 0.6193 0.64353 0.54599 0.0
C1000 C 0.60205 0.66168 0.54878 0.0
C1001 C 0.5781 0.65632 0.56051 0.0
C1002 C 0.57175 0.63245 0.57031 0.0
H1003 H 0.33372 0.60093 0.56345 0.0
H1004 H 0.37438 0.53508 0.54973 0.0
H1005 H 0.41191 0.55802 0.55222 0.0
H1006 H 0.37225 0.63795 0.49811 0.0
H1007 H 0.36939 0.66393 0.53247 0.0
H1008 H 0.34537 0.64247 0.52952 0.0
H1009 H 0.3468 0.63731 0.61326 0.0
H1010 H 0.37081 0.65876 0.61647 0.0
H1011 H 0.37465 0.62927 0.63912 0.0
H1012 H 0.44491 0.58753 0.55411 0.0
H1013 H 0.47196 0.62217 0.55862 0.0
H1014 H 0.41072 0.66937 0.57373 0.0
C1015 C 0.35052 0.59136 0.56096 0.0
C1016 C 0.35104 0.56617 0.55635 0.0
C1017 C 0.37344 0.55432 0.55344 0.0
C1018 C 0.39491 0.56719 0.55471 0.0
C1019 C 0.39377 0.59192 0.55924 0.0
C1020 C 0.37224 0.60394 0.56262 0.0
C1021 C 0.37628 0.63064 0.56785 0.0
C1022 C 0.36516 0.64457 0.52971 0.0
C1023 C 0.36656 0.63951 0.61179 0.0
C1024 C 0.40343 0.63166 0.5666 0.0
C1025 C 0.41306 0.60909 0.56139 0.0
C1026 C 0.43762 0.60531 0.55841 0.0
C1027 C 0.45284 0.62514 0.56091 0.0
C1028 C 0.44349 0.6485 0.56667 0.0
C1029 C 0.41841 0.65174 0.56963 0.0
H1030 H 0.33039 0.40412 0.57877 0.0
H1031 H 0.37339 0.46505 0.53877 0.0
H1032 H 0.40856 0.43894 0.53163 0.0
H1033 H 0.37613 0.37468 0.64139 0.0
H1034 H 0.36765 0.34494 0.6247 0.0
H1035 H 0.3455 0.36833 0.62679 0.0
H1036 H 0.33472 0.36049 0.546 0.0
H1037 H 0.35683 0.33707 0.54368 0.0
H1038 H 0.35797 0.36145 0.50538 0.0
H1039 H 0.43944 0.40709 0.53135 0.0
H1040 H 0.46395 0.37047 0.53398 0.0
H1041 H 0.40117 0.32937 0.57097 0.0
C1042 C 0.3472 0.41194 0.56848 0.0
C1043 C 0.3491 0.43668 0.55946 0.0
C1044 C 0.37141 0.44618 0.54584 0.0
C1045 C 0.39156 0.4315 0.54174 0.0
C1046 C 0.38914 0.40729 0.551 0.0
C1047 C 0.36755 0.39746 0.56376 0.0
C1048 C 0.36996 0.37074 0.57124 0.0
C1049 C 0.36449 0.3643 0.61886 0.0
C1050 C 0.35392 0.35661 0.53968 0.0
C1051 C 0.39628 0.36722 0.56084 0.0
C1052 C 0.40698 0.3886 0.54957 0.0
C1053 C 0.43127 0.39018 0.53985 0.0
C1054 C 0.44505 0.36929 0.54156 0.0
C1055 C 0.43446 0.34706 0.55248 0.0
C1056 C 0.40971 0.34606 0.5621 0.0
H1057 H 0.57272 0.33674 0.55958 0.0
H1058 H 0.52588 0.38235 0.63609 0.0
H1059 H 0.55703 0.41343 0.63798 0.0
H1060 H 0.62796 0.35374 0.61594 0.0
H1061 H 0.64592 0.35281 0.56726 0.0
H1062 H 0.62008 0.33369 0.57223 0.0
H1063 H 0.60297 0.35098 0.50046 0.0
H1064 H 0.62871 0.3702 0.49534 0.0
H1065 H 0.59902 0.38286 0.49518 0.0
H1066 H 0.59153 0.44055 0.6279 0.0
H1067 H 0.62928 0.46136 0.61133 0.0
H1068 H 0.6556 0.39802 0.545 0.0
C1069 C 0.56912 0.35321 0.57697 0.0
C1070 C 0.54682 0.35711 0.59766 0.0
C1071 C 0.54281 0.37888 0.62013 0.0
C1072 C 0.56038 0.3967 0.62132 0.0
C1073 C 0.58203 0.39242 0.60036 0.0
C1074 C 0.58667 0.37116 0.57905 0.0
C1075 C 0.61162 0.3713 0.55944 0.0
C1076 C 0.62732 0.35172 0.57995 0.0
C1077 C 0.6105 0.36868 0.50965 0.0
C1078 C 0.62007 0.39608 0.57262 0.0
C1079 C 0.60256 0.40794 0.59594 0.0
C1080 C 0.6055 0.43139 0.61009 0.0
C1081 C 0.62697 0.4431 0.60032 0.0
C1082 C 0.64539 0.43127 0.57706 0.0
C1083 C 0.64192 0.40738 0.56328 0.0
H1084 H 0.62601 0.45747 0.00278 0.0
H1085 H 0.69331 0.42146 0.97582 0.0
H1086 H 0.67209 0.38293 0.9711 0.0
H1087 H 0.6012 0.41151 0.06992 0.0
H1088 H 0.57105 0.41519 0.05003 0.0
H1089 H 0.59136 0.44021 0.05002 0.0
H1090 H 0.58423 0.44601 0.96736 0.0
H1091 H 0.56392 0.42097 0.9671 0.0
H1092 H 0.58922 0.4213 0.93075 0.0
H1093 H 0.64414 0.34826 0.9713 0.0
H1094 H 0.61103 0.31933 0.97677 0.0
H1095 H 0.56149 0.3775 0.00294 0.0
C1096 C 0.63626 0.4415 0.99566 0.0
C1097 C 0.66134 0.44251 0.98959 0.0
C1098 C 0.6741 0.42118 0.98056 0.0
C1099 C 0.66221 0.39918 0.97774 0.0
C1100 C 0.63753 0.39879 0.98394 0.0
C1101 C 0.62465 0.41934 0.99268 0.0
C1102 C 0.59829 0.41378 0.99884 0.0
C1103 C 0.59 0.42057 0.04494 0.0
C1104 C 0.58302 0.42626 0.96392 0.0
C1105 C 0.59845 0.38689 0.99247 0.0
C1106 C 0.62128 0.37866 0.98383 0.0
C1107 C 0.62615 0.35447 0.97783 0.0
C1108 C 0.60719 0.33817 0.98106 0.0
C1109 C 0.58361 0.34611 0.99016 0.0
C1110 C 0.57924 0.37086 0.99557 0.0
H1111 H 0.54762 0.63335 1.001 0.0
H1112 H 0.58713 0.69764 0.96727 0.0
H1113 H 0.62481 0.67468 0.96845 0.0
H1114 H 0.59127 0.60873 0.07391 0.0
H1115 H 0.58645 0.57822 0.05702 0.0
H1116 H 0.56243 0.59962 0.05335 0.0
H1117 H 0.55757 0.59016 0.97126 0.0
H1118 H 0.58156 0.5687 0.97469 0.0
H1119 H 0.58311 0.59273 0.93571 0.0
H1120 H 0.65827 0.6453 0.97554 0.0
H1121 H 0.68534 0.61087 0.98456 0.0
H1122 H 0.62424 0.56509 0.01135 0.0
C1123 C 0.56419 0.64258 0.99376 0.0
C1124 C 0.56441 0.66732 0.98409 0.0
C1125 C 0.58647 0.67871 0.97468 0.0
C1126 C 0.60799 0.66583 0.97534 0.0
C1127 C 0.60717 0.64153 0.98517 0.0
C1128 C 0.58585 0.62995 0.99391 0.0
C1129 C 0.58999 0.60362 0.00316 0.0
C1130 C 0.58207 0.59718 0.04962 0.0
C1131 C 0.57731 0.58788 0.96917 0.0
C1132 C 0.61698 0.60228 0.99845 0.0
C1133 C 0.6265 0.6244 0.9883 0.0
C1134 C 0.65103 0.62786 0.98326 0.0
C1135 C 0.66627 0.60817 0.98857 0.0
C1136 C 0.65695 0.58522 0.99851 0.0
C1137 C 0.63192 0.58233 0.00344 0.0
H1138 H 0.38981 0.54555 0.98105 0.0
H1139 H 0.32021 0.57501 0.01428 0.0
H1140 H 0.3384 0.61505 0.02189 0.0
H1141 H 0.42393 0.58155 0.05605 0.0
H1142 H 0.44901 0.58496 0.0197 0.0
H1143 H 0.43051 0.55862 0.01655 0.0
H1144 H 0.42269 0.5669 0.93478 0.0
H1145 H 0.44115 0.59327 0.93769 0.0
H1146 H 0.41073 0.59547 0.9184 0.0
H1147 H 0.36385 0.65182 0.02466 0.0
H1148 H 0.39508 0.6829 0.02467 0.0
H1149 H 0.44842 0.62941 0.99112 0.0
C1150 C 0.37836 0.56041 0.98988 0.0
C1151 C 0.35356 0.55717 0.99689 0.0
C1152 C 0.33925 0.57707 0.00867 0.0
C1153 C 0.3494 0.59988 0.01305 0.0
C1154 C 0.37389 0.60244 0.00578 0.0
C1155 C 0.38822 0.58326 0.99464 0.0
C1156 C 0.41408 0.59085 0.98904 0.0
C1157 C 0.43034 0.57825 0.02233 0.0
C1158 C 0.42266 0.58636 0.94219 0.0
C1159 C 0.41203 0.61734 0.99858 0.0
C1160 C 0.38867 0.62364 0.00803 0.0
C1161 C 0.38222 0.64711 0.01743 0.0
C1162 C 0.40013 0.66465 0.01727 0.0
C1163 C 0.42427 0.65863 0.00795 0.0
C1164 C 0.43019 0.6346 0.99853 0.0
H1165 H 0.41641 0.33597 0.98515 0.0
H1166 H 0.47587 0.38432 0.00924 0.0
H1167 H 0.44803 0.41852 0.00896 0.0
H1168 H 0.38305 0.3747 0.91373 0.0
H1169 H 0.35426 0.36609 0.93511 0.0
H1170 H 0.37886 0.34526 0.93644 0.0
H1171 H 0.37369 0.3405 0.01979 0.0
H1172 H 0.34902 0.36124 0.01868 0.0
H1173 H 0.37422 0.3667 0.05403 0.0
H1174 H 0.41408 0.44756 0.00498 0.0
H1175 H 0.37573 0.46935 0.00232 0.0
H1176 H 0.338 0.40218 0.98304 0.0
C1177 C 0.42357 0.35376 0.99029 0.0
C1178 C 0.44834 0.35746 0.99705 0.0
C1179 C 0.45697 0.381 0.00404 0.0
C1180 C 0.44132 0.40058 0.0038 0.0
C1181 C 0.41705 0.39634 0.99684 0.0
C1182 C 0.40815 0.37352 0.99059 0.0
C1183 C 0.38118 0.37389 0.98501 0.0
C1184 C 0.37392 0.36443 0.93989 0.0
C1185 C 0.3688 0.35975 0.02156 0.0
C1186 C 0.37637 0.40047 0.98904 0.0
C1187 C 0.39733 0.41309 0.99552 0.0
C1188 C 0.39751 0.43788 0.99999 0.0
C1189 C 0.37562 0.45011 0.99828 0.0
C1190 C 0.35381 0.43752 0.99246 0.0
C1191 C 0.35433 0.41236 0.98757 0.0
H1192 H 0.96989 0.20121 0.37965 0.0
H1193 H 0.99859 0.26946 0.42106 0.0
H1194 H 0.01034 0.27839 0.34457 0.0
H1195 H 0.01366 0.1867 0.30443 0.0
H1196 H 0.9935 0.17315 0.26578 0.0
H1197 H 0.986 0.17345 0.32265 0.0
H1198 H 0.94579 0.19463 0.30529 0.0
H1199 H 0.95308 0.19422 0.2482 0.0
H1200 H 0.94594 0.22212 0.27463 0.0
H1201 H 0.02343 0.27661 0.26377 0.0
H1202 H 0.03233 0.26649 0.18666 0.0
H1203 H 0.99179 0.20076 0.20036 0.0
C1204 C 0.97825 0.21823 0.37239 0.0
C1205 C 0.98342 0.23469 0.40575 0.0
C1206 C 0.99439 0.25678 0.39552 0.0
C1207 C 0.00116 0.26189 0.35233 0.0
C1208 C 0.99628 0.2449 0.32008 0.0
C1209 C 0.98458 0.22375 0.32972 0.0
C1210 C 0.98166 0.2081 0.29005 0.0
C1211 C 0.99447 0.18394 0.29611 0.0
C1212 C 0.95503 0.20458 0.27888 0.0
C1213 C 0.99407 0.22338 0.2565 0.0
C1214 C 0.00258 0.24449 0.27413 0.0
C1215 C 0.01636 0.26037 0.24951 0.0
C1216 C 0.02141 0.25447 0.20587 0.0
C1217 C 0.01241 0.23306 0.18737 0.0
C1218 C 0.99845 0.21756 0.21317 0.0
H1219 H 0.77839 0.01941 0.38793 0.0
H1220 H 0.7584 0.94438 0.38881 0.0
H1221 H 0.7511 0.94605 0.30969 0.0
H1222 H 0.73446 0.03786 0.30134 0.0
H1223 H 0.75529 0.05906 0.27858 0.0
H1224 H 0.75579 0.05276 0.3361 0.0
H1225 H 0.80077 0.04178 0.33081 0.0
H1226 H 0.80039 0.04786 0.27339 0.0
H1227 H 0.81015 0.01905 0.29284 0.0
H1228 H 0.7536 0.95383 0.22953 0.0
H1229 H 0.76124 0.96859 0.15483 0.0
H1230 H 0.7759 0.03931 0.20601 0.0
C1231 C 0.77187 0.0035 0.37167 0.0
C1232 C 0.76901 0.98176 0.39455 0.0
C1233 C 0.76058 0.96128 0.37205 0.0
C1234 C 0.75641 0.96204 0.32706 0.0
C1235 C 0.76018 0.98355 0.30522 0.0
C1236 C 0.76719 0.00406 0.32691 0.0
C1237 C 0.77126 0.02454 0.29549 0.0
C1238 C 0.75311 0.04475 0.30335 0.0
C1239 C 0.79718 0.03383 0.29831 0.0
C1240 C 0.76655 0.01203 0.25259 0.0
C1241 C 0.76016 0.98838 0.2589 0.0
C1242 C 0.7578 0.97249 0.22414 0.0
C1243 C 0.76223 0.98096 0.18193 0.0
C1244 C 0.7685 0.00515 0.17491 0.0
C1245 C 0.77026 0.02094 0.21058 0.0
H1246 H 0.96169 0.77467 0.20936 0.0
H1247 H 0.03246 0.76687 0.15374 0.0
H1248 H 0.04894 0.75783 0.2269 0.0
H1249 H 0.98123 0.80702 0.29991 0.0
H1250 H 0.95954 0.79478 0.33717 0.0
H1251 H 0.9528 0.79627 0.28001 0.0
H1252 H 0.9444 0.75066 0.27925 0.0
H1253 H 0.95127 0.74904 0.33651 0.0
H1254 H 0.96706 0.73025 0.29844 0.0
H1255 H 0.05792 0.75189 0.30675 0.0
H1256 H 0.06008 0.75575 0.38675 0.0
H1257 H 0.98399 0.77126 0.39068 0.0
C1258 C 0.98052 0.7704 0.21263 0.0
C1259 C 0.9958 0.77084 0.17611 0.0
C1260 C 0.02052 0.76621 0.18147 0.0
C1261 C 0.02995 0.76096 0.22279 0.0
C1262 C 0.01446 0.76086 0.25842 0.0
C1263 C 0.99032 0.76583 0.2538 0.0
C1264 C 0.97814 0.76789 0.2977 0.0
C1265 C 0.9673 0.79297 0.30406 0.0
C1266 C 0.95909 0.74829 0.3033 0.0
C1267 C 0.99926 0.76378 0.32779 0.0
C1268 C 0.01991 0.75907 0.30454 0.0
C1269 C 0.04184 0.75544 0.32528 0.0
C1270 C 0.04287 0.75753 0.37081 0.0
C1271 C 0.02221 0.76379 0.39501 0.0
C1272 C 1.00006 0.76632 0.37312 0.0
H1273 H 0.23197 0.98584 0.38971 0.0
H1274 H 0.23855 0.0631 0.38529 0.0
H1275 H 0.24116 0.06137 0.30504 0.0
H1276 H 0.27303 0.9737 0.29505 0.0
H1277 H 0.25499 0.94879 0.27729 0.0
H1278 H 0.2569 0.95602 0.33437 0.0
H1279 H 0.21065 0.95885 0.33792 0.0
H1280 H 0.20858 0.95198 0.28088 0.0
H1281 H 0.19516 0.97897 0.30172 0.0
H1282 H 0.23499 0.05166 0.22532 0.0
H1283 H 0.22672 0.03422 0.15264 0.0
H1284 H 0.22798 0.96312 0.20853 0.0
C1285 C 0.23473 0.00234 0.37194 0.0
C1286 C 0.23512 0.02462 0.39382 0.0
C1287 C 0.2385 0.04582 0.36935 0.0
C1288 C 0.23986 0.045 0.32369 0.0
C1289 C 0.23842 0.02281 0.30302 0.0
C1290 C 0.23662 0.00179 0.32646 0.0
C1291 C 0.23433 0.98034 0.29647 0.0
C1292 C 0.25612 0.96374 0.30107 0.0
C1293 C 0.21078 0.96675 0.30475 0.0
C1294 C 0.2341 0.99263 0.25252 0.0
C1295 C 0.23638 0.01715 0.25696 0.0
C1296 C 0.23395 0.03245 0.22135 0.0
C1297 C 0.22915 0.02244 0.18027 0.0
C1298 C 0.22729 0.99736 0.175 0.0
C1299 C 0.2301 0.98231 0.21154 0.0
H1300 H 0.02142 0.77745 0.88681 0.0
H1301 H 0.94408 0.77099 0.89243 0.0
H1302 H 0.9425 0.7669 0.81267 0.0
H1303 H 0.02197 0.81417 0.79105 0.0
H1304 H 0.04891 0.80115 0.7691 0.0
H1305 H 0.04421 0.8017 0.82706 0.0
H1306 H 0.05 0.75574 0.82992 0.0
H1307 H 0.05454 0.75504 0.77188 0.0
H1308 H 0.03158 0.73678 0.79623 0.0
H1309 H 0.94896 0.76418 0.73245 0.0
H1310 H 0.96294 0.76595 0.65618 0.0
H1311 H 0.03574 0.77682 0.70123 0.0
C1312 C 0.0042 0.77504 0.87115 0.0
C1313 C 0.98292 0.77384 0.89594 0.0
C1314 C 0.96068 0.77107 0.87429 0.0
C1315 C 0.95958 0.7689 0.82893 0.0
C1316 C 0.98085 0.76988 0.80546 0.0
C1317 C 0.00275 0.77313 0.82567 0.0
C1318 C 0.02273 0.77494 0.79241 0.0
C1319 C 0.03518 0.79945 0.79507 0.0
C1320 C 0.04078 0.7544 0.79795 0.0
C1321 C 0.00861 0.77231 0.75047 0.0
C1322 C 0.98451 0.76918 0.75884 0.0
C1323 C 0.96778 0.76664 0.72546 0.0
C1324 C 0.97585 0.76771 0.68232 0.0
C1325 C 0.00035 0.7715 0.67292 0.0
C1326 C 0.01695 0.77356 0.70751 0.0
H1327 H 0.22509 0.03461 0.70107 0.0
H1328 H 0.23893 0.9625 0.65552 0.0
H1329 H 0.24119 0.94843 0.73164 0.0
H1330 H 0.2654 0.03157 0.79667 0.0
H1331 H 0.24566 0.0493 0.83001 0.0
H1332 H 0.24647 0.05389 0.77198 0.0
H1333 H 0.20067 0.04682 0.76816 0.0
H1334 H 0.19975 0.04193 0.82604 0.0
H1335 H 0.18832 0.01943 0.78948 0.0
H1336 H 0.23789 0.94152 0.81181 0.0
H1337 H 0.23258 0.94258 0.89134 0.0
H1338 H 0.22425 0.01968 0.88644 0.0
C1339 C 0.22922 0.01599 0.70716 0.0
C1340 C 0.23185 0.9996 0.6724 0.0
C1341 C 0.23669 0.97528 0.6817 0.0
C1342 C 0.23806 0.96716 0.7248 0.0
C1343 C 0.23487 0.98365 0.75833 0.0
C1344 C 0.23089 0.00762 0.75011 0.0
C1345 C 0.22753 0.02145 0.79222 0.0
C1346 C 0.24745 0.04016 0.79806 0.0
C1347 C 0.20258 0.03309 0.79406 0.0
C1348 C 0.22981 0.00143 0.8253 0.0
C1349 C 0.23397 0.97978 0.80493 0.0
C1350 C 0.23525 0.95845 0.82821 0.0
C1351 C 0.23239 0.95927 0.87349 0.0
C1352 C 0.22869 0.98128 0.89535 0.0
C1353 C 0.22735 0.00262 0.87073 0.0
H1354 H 0.02204 0.25632 0.88235 0.0
H1355 H 0.01265 0.18142 0.91492 0.0
H1356 H 0.00845 0.17149 0.83731 0.0
H1357 H 0.98109 0.25885 0.79477 0.0
H1358 H 0.99905 0.27777 0.76032 0.0
H1359 H 0.00233 0.27937 0.81855 0.0
H1360 H 0.04773 0.2707 0.81154 0.0
H1361 H 0.04465 0.26932 0.7532 0.0
H1362 H 0.05757 0.2445 0.78237 0.0
H1363 H 0.00037 0.17013 0.75877 0.0
H1364 H 0.99386 0.17647 0.68047 0.0
H1365 H 0.0138 0.25112 0.69483 0.0
C1366 C 0.01937 0.23786 0.87284 0.0
C1367 C 0.01695 0.21969 0.90448 0.0
C1368 C 0.01376 0.19566 0.89116 0.0
C1369 C 0.01155 0.18982 0.84718 0.0
C1370 C 0.01322 0.20813 0.81678 0.0
C1371 C 0.01756 0.23159 0.82868 0.0
C1372 C 0.01859 0.24763 0.78885 0.0
C1373 C 0.9991 0.26705 0.79076 0.0
C1374 C 0.04363 0.25869 0.78369 0.0
C1375 C 0.01345 0.22957 0.7531 0.0
C1376 C 0.01028 0.20696 0.77024 0.0
C1377 C 0.00348 0.18759 0.74467 0.0
C1378 C 0.99994 0.19135 0.7002 0.0
C1379 C 0.00376 0.21415 0.68143 0.0
C1380 C 0.01074 0.23349 0.70827 0.0
H1381 H 0.77399 0.9684 0.69861 0.0
H1382 H 0.76653 0.04188 0.65545 0.0
H1383 H 0.76342 0.05512 0.73196 0.0
H1384 H 0.73049 0.97373 0.78947 0.0
H1385 H 0.74742 0.95381 0.82386 0.0
H1386 H 0.74811 0.95012 0.7656 0.0
H1387 H 0.79441 0.95298 0.76721 0.0
H1388 H 0.79386 0.95702 0.82532 0.0
H1389 H 0.80845 0.97885 0.79131 0.0
H1390 H 0.76653 0.06066 0.81235 0.0
H1391 H 0.77039 0.05807 0.89189 0.0
H1392 H 0.76963 0.98056 0.88389 0.0
C1393 C 0.77099 0.98718 0.70519 0.0
C1394 C 0.77053 0.00417 0.67114 0.0
C1395 C 0.76719 0.02865 0.68115 0.0
C1396 C 0.76531 0.0363 0.72443 0.0
C1397 C 0.76625 0.01916 0.75726 0.0
C1398 C 0.7685 0.99506 0.74821 0.0
C1399 C 0.7692 0.98039 0.78971 0.0
C1400 C 0.74751 0.96352 0.79231 0.0
C1401 C 0.79289 0.9665 0.79359 0.0
C1402 C 0.76764 9e-05 0.82348 0.0
C1403 C 0.76616 0.02231 0.80397 0.0
C1404 C 0.7668 0.04336 0.8281 0.0
C1405 C 0.76875 0.04167 0.87341 0.0
C1406 C 0.76938 0.01911 0.8944 0.0
C1407 C 0.76879 0.99807 0.8689 0.0
H1408 H 0.47304 0.70281 0.8689 0.0
H1409 H 0.49546 0.77426 0.90493 0.0
H1410 H 0.50517 0.78289 0.82735 0.0
H1411 H 0.51732 0.69132 0.7937 0.0
H1412 H 0.4984 0.67489 0.75671 0.0
H1413 H 0.49132 0.67571 0.81372 0.0
H1414 H 0.44899 0.69222 0.79609 0.0
H1415 H 0.45587 0.69126 0.73886 0.0
H1416 H 0.44604 0.71885 0.76344 0.0
H1417 H 0.51729 0.7808 0.74622 0.0
H1418 H 0.52687 0.76976 0.66984 0.0
H1419 H 0.4936 0.7005 0.68994 0.0
C1420 C 0.47955 0.72045 0.86022 0.0
C1421 C 0.48357 0.73793 0.89224 0.0
C1422 C 0.49215 0.76078 0.88031 0.0
C1423 C 0.49774 0.76574 0.83653 0.0
C1424 C 0.49409 0.74775 0.80559 0.0
C1425 C 0.48472 0.72572 0.81705 0.0
C1426 C 0.48314 0.70896 0.77875 0.0
C1427 C 0.49846 0.68641 0.78618 0.0
C1428 C 0.45695 0.70246 0.76869 0.0
C1429 C 0.49364 0.72467 0.74385 0.0
C1430 C 0.5 0.74696 0.75957 0.0
C1431 C 0.5119 0.76358 0.73342 0.0
C1432 C 0.51735 0.75715 0.69022 0.0
C1433 C 0.51068 0.73442 0.67381 0.0
C1434 C 0.49849 0.71823 0.70108 0.0
H1435 H 0.27452 0.45611 0.85489 0.0
H1436 H 0.24711 0.52349 0.90316 0.0
H1437 H 0.23743 0.53595 0.82794 0.0
H1438 H 0.30556 0.48068 0.77162 0.0
H1439 H 0.30108 0.45693 0.73275 0.0
H1440 H 0.29994 0.45057 0.78998 0.0
H1441 H 0.25747 0.43253 0.78106 0.0
H1442 H 0.25855 0.43869 0.7235 0.0
H1443 H 0.23417 0.45006 0.75589 0.0
H1444 H 0.2364 0.54352 0.74808 0.0
H1445 H 0.24664 0.54695 0.67031 0.0
H1446 H 0.27733 0.47562 0.67356 0.0
C1447 C 0.26544 0.47298 0.84953 0.0
C1448 C 0.26085 0.48862 0.88452 0.0
C1449 C 0.2502 0.51114 0.87657 0.0
C1450 C 0.24462 0.51829 0.83404 0.0
C1451 C 0.25011 0.50282 0.79986 0.0
C1452 C 0.26034 0.48062 0.80712 0.0
C1453 C 0.26816 0.46912 0.76479 0.0
C1454 C 0.29528 0.46405 0.76481 0.0
C1455 C 0.25372 0.44624 0.75578 0.0
C1456 C 0.2617 0.48873 0.73288 0.0
C1457 C 0.25068 0.50771 0.75357 0.0
C1458 C 0.24465 0.52861 0.73137 0.0
C1459 C 0.25056 0.53039 0.68714 0.0
C1460 C 0.2628 0.51156 0.66575 0.0
C1461 C 0.26783 0.49027 0.68884 0.0
H1462 H 0.49346 0.30311 0.87699 0.0
H1463 H 0.52332 0.23261 0.90007 0.0
H1464 H 0.51207 0.22067 0.82496 0.0
H1465 H 0.444 0.28577 0.80516 0.0
H1466 H 0.44808 0.31169 0.77111 0.0
H1467 H 0.45542 0.31317 0.82816 0.0
H1468 H 0.49843 0.32711 0.80894 0.0
H1469 H 0.49123 0.32571 0.75199 0.0
H1470 H 0.51643 0.30914 0.77286 0.0
H1471 H 0.49955 0.21778 0.74432 0.0
H1472 H 0.49064 0.22555 0.66616 0.0
H1473 H 0.47168 0.29858 0.69774 0.0
C1474 C 0.49716 0.28493 0.8668 0.0
C1475 C 0.50897 0.26868 0.89464 0.0
C1476 C 0.5141 0.24531 0.87938 0.0
C1477 C 0.50768 0.23836 0.83685 0.0
C1478 C 0.49633 0.25505 0.81003 0.0
C1479 C 0.4913 0.27792 0.82456 0.0
C1480 C 0.48142 0.29349 0.78863 0.0
C1481 C 0.4557 0.30149 0.79889 0.0
C1482 C 0.49786 0.31512 0.78011 0.0
C1483 C 0.48195 0.276 0.75122 0.0
C1484 C 0.49014 0.25374 0.76405 0.0
C1485 C 0.49293 0.23508 0.73413 0.0
C1486 C 0.48775 0.23955 0.68996 0.0
C1487 C 0.48033 0.26256 0.67651 0.0
C1488 C 0.47707 0.28076 0.70759 0.0
H1489 H 0.70361 0.51345 0.68319 0.0
H1490 H 0.76235 0.4628 0.67695 0.0
H1491 H 0.77149 0.47072 0.75455 0.0
H1492 H 0.73073 0.55575 0.7613 0.0
H1493 H 0.70254 0.56076 0.78831 0.0
H1494 H 0.70312 0.55369 0.73109 0.0
H1495 H 0.67452 0.51794 0.74469 0.0
H1496 H 0.67393 0.52481 0.80184 0.0
H1497 H 0.68274 0.4954 0.7839 0.0
H1498 H 0.77233 0.48264 0.83514 0.0
H1499 H 0.7629 0.49517 0.91091 0.0
H1500 H 0.70196 0.53535 0.86364 0.0
C1501 C 0.71883 0.50446 0.69768 0.0
C1502 C 0.73249 0.48774 0.67372 0.0
C1503 C 0.75178 0.47585 0.6945 0.0
C1504 C 0.75712 0.48028 0.73856 0.0
C1505 C 0.74292 0.49654 0.76145 0.0
C1506 C 0.72411 0.50836 0.74159 0.0
C1507 C 0.71001 0.52313 0.77392 0.0
C1508 C 0.71171 0.54992 0.763 0.0
C1509 C 0.68376 0.51481 0.77621 0.0
C1510 C 0.7234 0.51737 0.81538 0.0
C1511 C 0.74268 0.50244 0.80759 0.0
C1512 C 0.75737 0.49444 0.84145 0.0
C1513 C 0.75197 0.50164 0.88426 0.0
C1514 C 0.73182 0.51622 0.89263 0.0
C1515 C 0.71755 0.52428 0.85778 0.0
H1516 H 0.51102 0.24967 0.18658 0.0
H1517 H 0.51751 0.32664 0.17303 0.0
H1518 H 0.51385 0.33133 0.25242 0.0
H1519 H 0.46894 0.24926 0.27488 0.0
H1520 H 0.48257 0.22447 0.30305 0.0
H1521 H 0.4852 0.22685 0.24478 0.0
H1522 H 0.53143 0.22502 0.25115 0.0
H1523 H 0.52893 0.22252 0.30944 0.0
H1524 H 0.54676 0.24607 0.28586 0.0
H1525 H 0.50749 0.32821 0.33154 0.0
H1526 H 0.50204 0.3173 0.4084 0.0
H1527 H 0.50368 0.24203 0.37394 0.0
C1528 C 0.51174 0.26745 0.20054 0.0
C1529 C 0.51404 0.28786 0.17373 0.0
C1530 C 0.51511 0.31085 0.19294 0.0
C1531 C 0.51321 0.31368 0.23799 0.0
C1532 C 0.51069 0.2933 0.26351 0.0
C1533 C 0.51026 0.27059 0.24577 0.0
C1534 C 0.50798 0.25175 0.28115 0.0
C1535 C 0.48479 0.23723 0.27562 0.0
C1536 C 0.5301 0.23537 0.28194 0.0
C1537 C 0.50695 0.26752 0.32135 0.0
C1538 C 0.50837 0.29141 0.31012 0.0
C1539 C 0.50681 0.30957 0.34092 0.0
C1540 C 0.50389 0.30318 0.38452 0.0
C1541 C 0.503 0.27884 0.39719 0.0
C1542 C 0.50447 0.26077 0.36513 0.0
H1543 H 0.73003 0.5154 0.38192 0.0
H1544 H 0.718 0.43877 0.38552 0.0
H1545 H 0.71836 0.43746 0.30541 0.0
H1546 H 0.69005 0.52585 0.29312 0.0
H1547 H 0.70776 0.5494 0.26929 0.0
H1548 H 0.70913 0.54404 0.32702 0.0
H1549 H 0.75518 0.53904 0.32198 0.0
H1550 H 0.75393 0.54427 0.26415 0.0
H1551 H 0.76757 0.51735 0.28485 0.0
H1552 H 0.71893 0.44438 0.22503 0.0
H1553 H 0.71703 0.45955 0.1496 0.0
H1554 H 0.72485 0.53215 0.19737 0.0
C1555 C 0.72767 0.49835 0.36575 0.0
C1556 C 0.72463 0.47708 0.39004 0.0
C1557 C 0.72123 0.45516 0.36773 0.0
C1558 C 0.72121 0.45425 0.32216 0.0
C1559 C 0.72423 0.47549 0.29918 0.0
C1560 C 0.72716 0.49719 0.32013 0.0
C1561 C 0.72833 0.51758 0.2876 0.0
C1562 C 0.70758 0.53526 0.29468 0.0
C1563 C 0.7527 0.53031 0.28979 0.0
C1564 C 0.72546 0.50394 0.24521 0.0
C1565 C 0.72342 0.47965 0.25268 0.0
C1566 C 0.72046 0.46336 0.21877 0.0
C1567 C 0.71928 0.47214 0.17609 0.0
C1568 C 0.72077 0.49698 0.16765 0.0
C1569 C 0.72405 0.51303 0.20275 0.0
H1570 H 0.5032 0.75547 0.37717 0.0
H1571 H 0.51238 0.67945 0.40034 0.0
H1572 H 0.51034 0.67177 0.32157 0.0
H1573 H 0.46348 0.75149 0.28587 0.0
H1574 H 0.47714 0.77562 0.25595 0.0
H1575 H 0.4784 0.7754 0.31452 0.0
H1576 H 0.52469 0.77836 0.31168 0.0
H1577 H 0.52356 0.77868 0.25307 0.0
H1578 H 0.5414 0.75657 0.2809 0.0
H1579 H 0.50464 0.6718 0.24225 0.0
H1580 H 0.49973 0.67979 0.16409 0.0
H1581 H 0.50006 0.75617 0.18943 0.0
C1582 C 0.5049 0.73728 0.36545 0.0
C1583 C 0.50743 0.71797 0.39466 0.0
C1584 C 0.50973 0.69439 0.37842 0.0
C1585 C 0.50879 0.68986 0.3338 0.0
C1586 C 0.50612 0.7092 0.30582 0.0
C1587 C 0.5046 0.73247 0.32071 0.0
C1588 C 0.50271 0.74994 0.28311 0.0
C1589 C 0.47902 0.76393 0.28499 0.0
C1590 C 0.52438 0.76689 0.28214 0.0
C1591 C 0.50307 0.73272 0.24498 0.0
C1592 C 0.50479 0.70932 0.25909 0.0
C1593 C 0.5039 0.69004 0.23057 0.0
C1594 C 0.50132 0.69478 0.18624 0.0
C1595 C 0.50028 0.71859 0.17073 0.0
C1596 C 0.5012 0.73781 0.20051 0.0
H1597 H 0.24249 0.49009 0.18191 0.0
H1598 H 0.31877 0.48829 0.15591 0.0
H1599 H 0.32718 0.49198 0.23444 0.0
H1600 H 0.24481 0.5333 0.26817 0.0
H1601 H 0.22198 0.51929 0.30082 0.0
H1602 H 0.2216 0.51582 0.24254 0.0
H1603 H 0.22179 0.46972 0.25118 0.0
H1604 H 0.22203 0.47305 0.30951 0.0
H1605 H 0.245 0.4557 0.28305 0.0
H1606 H 0.32767 0.49757 0.31391 0.0
H1607 H 0.32026 0.50298 0.39233 0.0
H1608 H 0.24366 0.50013 0.36946 0.0
C1609 C 0.26089 0.49034 0.19307 0.0
C1610 C 0.28005 0.48918 0.16321 0.0
C1611 C 0.30394 0.48947 0.17851 0.0
C1612 C 0.30887 0.49149 0.22294 0.0
C1613 C 0.28968 0.49303 0.25163 0.0
C1614 C 0.26616 0.49233 0.2376 0.0
C1615 C 0.24902 0.49451 0.27573 0.0
C1616 C 0.23343 0.51707 0.27155 0.0
C1617 C 0.23355 0.47189 0.28012 0.0
C1618 C 0.26664 0.49673 0.31316 0.0
C1619 C 0.28997 0.49584 0.29827 0.0
C1620 C 0.30951 0.49802 0.32611 0.0
C1621 C 0.30513 0.501 0.37053 0.0
C1622 C 0.28144 0.5016 0.38675 0.0
C1623 C 0.26192 0.49958 0.3577 0.0
loop_
_geom_bond_atom_site_label_1
_geom_bond_atom_site_label_2
_geom_bond_distance
_geom_bond_site_symmetry_2
_ccdc_geom_bond_type
Co0 O3 1.975 . S
Co0 N17 1.989 . S
Co0 O25 1.967 . S
Co0 O32 1.920 1_455 S
Co1 O4 1.966 . S
Co1 N10 2.022 . S
Co1 N18 1.993 . S
Co1 O26 1.941 . S
C2 O3 1.287 . S
C2 O4 1.263 . S
O3 Co0 1.975 . S
O3 C2 1.287 . S
O4 Co1 1.966 . S
O4 C2 1.263 . S
C5 O6 1.235 . S
C5 O32 1.289 . S
O6 C5 1.235 . S
C7 C9 1.400 . S
C7 N10 1.351 . S
C7 C12 1.501 . S
C8 C9 1.387 . S
C8 N11 1.341 . S
C9 C7 1.400 . S
C9 C8 1.387 . S
N10 Co1 2.022 . S
N10 C7 1.351 . S
N10 N11 1.365 . S
N11 C8 1.341 . S
N11 N10 1.365 . S
N11 H31 0.862 . S
C12 C7 1.501 . S
C12 H13 0.961 . S
C12 H14 0.961 . S
C12 H15 0.960 . S
H13 C12 0.961 . S
H14 C12 0.961 . S
H15 C12 0.960 . S
C16 N17 1.342 1_656 S
C16 C20 1.401 1_655 S
C16 C21 1.499 . S
N17 Co0 1.989 . S
N17 C16 1.342 1_454 S
N17 N18 1.388 . S
N18 Co1 1.993 . S
N18 N17 1.388 . S
N18 C19 1.346 1_554 S
C19 N18 1.346 1_556 S
C19 C20 1.396 . S
C19 C29 1.510 . S
C20 C16 1.401 1_455 S
C20 C19 1.396 . S
C21 C16 1.499 . S
C21 H22 0.959 . S
C21 H23 0.960 . S
C21 H24 0.961 . S
H22 C21 0.959 . S
H23 C21 0.960 . S
H24 C21 0.961 . S
O25 Co0 1.967 . S
O25 C33 1.258 . S
O26 Co1 1.941 . S
O26 C33 1.266 . S
H27 C29 0.959 . S
H28 C29 0.961 . S
C29 C19 1.510 . S
C29 H27 0.959 . S
C29 H28 0.961 . S
C29 H30 0.960 . S
H30 C29 0.960 . S
H31 N11 0.862 . S
O32 Co0 1.920 1_655 S
O32 C5 1.289 . S
C33 O25 1.258 . S
C33 O26 1.266 . S
Co34 O37 1.975 . S
Co34 N51 1.989 . S
Co34 O59 1.967 . S
Co34 O66 1.920 1_545 S
Co35 O38 1.966 . S
Co35 N44 2.022 . S
Co35 N52 1.993 . S
Co35 O60 1.941 . S
C36 O37 1.287 . S
C36 O38 1.263 . S
O37 Co34 1.975 . S
O37 C36 1.287 . S
O38 Co35 1.966 . S
O38 C36 1.263 . S
C39 O40 1.235 . S
C39 O66 1.289 . S
O40 C39 1.235 . S
C41 C43 1.400 . S
C41 N44 1.351 . S
C41 C46 1.501 . S
C42 C43 1.387 . S
C42 N45 1.341 . S
C43 C41 1.400 . S
C43 C42 1.387 . S
N44 Co35 2.022 . S
N44 C41 1.351 . S
N44 N45 1.365 . S
N45 C42 1.341 . S
N45 N44 1.365 . S
N45 H65 0.862 . S
C46 C41 1.501 . S
C46 H47 0.961 . S
C46 H48 0.961 . S
C46 H49 0.960 . S
H47 C46 0.961 . S
H48 C46 0.961 . S
H49 C46 0.960 . S
C50 N51 1.342 1_566 S
C50 C54 1.401 1_565 S
C50 C55 1.499 . S
N51 Co34 1.989 . S
N51 C50 1.342 1_544 S
N51 N52 1.388 . S
N52 Co35 1.993 . S
N52 N51 1.388 . S
N52 C53 1.346 1_554 S
C53 N52 1.346 1_556 S
C53 C54 1.396 . S
C53 C63 1.510 . S
C54 C50 1.401 1_545 S
C54 C53 1.396 . S
C55 C50 1.499 . S
C55 H56 0.959 . S
C55 H57 0.960 . S
C55 H58 0.961 . S
H56 C55 0.959 . S
H57 C55 0.960 . S
H58 C55 0.961 . S
O59 Co34 1.967 . S
O59 C67 1.258 . S
O60 Co35 1.941 . S
O60 C67 1.266 . S
H61 C63 0.959 . S
H62 C63 0.961 . S
C63 C53 1.510 . S
C63 H61 0.959 . S
C63 H62 0.961 . S
C63 H64 0.960 . S
H64 C63 0.960 . S
H65 N45 0.862 . S
O66 Co34 1.920 1_565 S
O66 C39 1.289 . S
C67 O59 1.258 . S
C67 O60 1.266 . S
Co68 O71 1.975 . S
Co68 N85 1.989 . S
Co68 O93 1.967 . S
Co68 O100 1.920 1_655 S
Co69 O72 1.966 . S
Co69 N78 2.022 . S
Co69 N86 1.993 . S
Co69 O94 1.941 . S
C70 O71 1.287 . S
C70 O72 1.263 . S
O71 Co68 1.975 . S
O71 C70 1.287 . S
O72 Co69 1.966 . S
O72 C70 1.263 . S
C73 O74 1.235 . S
C73 O100 1.289 . S
O74 C73 1.235 . S
C75 C77 1.400 . S
C75 N78 1.351 . S
C75 C80 1.501 . S
C76 C77 1.387 . S
C76 N79 1.341 . S
C77 C75 1.400 . S
C77 C76 1.387 . S
N78 Co69 2.022 . S
N78 C75 1.351 . S
N78 N79 1.365 . S
N79 C76 1.341 . S
N79 N78 1.365 . S
N79 H99 0.862 . S
C80 C75 1.501 . S
C80 H81 0.961 . S
C80 H82 0.961 . S
C80 H83 0.960 . S
H81 C80 0.961 . S
H82 C80 0.961 . S
H83 C80 0.960 . S
C84 N85 1.342 1_456 S
C84 C88 1.401 1_455 S
C84 C89 1.499 . S
N85 Co68 1.989 . S
N85 C84 1.342 1_654 S
N85 N86 1.388 . S
N86 Co69 1.993 . S
N86 N85 1.388 . S
N86 C87 1.346 1_554 S
C87 N86 1.346 1_556 S
C87 C88 1.396 . S
C87 C97 1.510 . S
C88 C84 1.401 1_655 S
C88 C87 1.396 . S
C89 C84 1.499 . S
C89 H90 0.959 . S
C89 H91 0.960 . S
C89 H92 0.961 . S
H90 C89 0.959 . S
H91 C89 0.960 . S
H92 C89 0.961 . S
O93 Co68 1.967 . S
O93 C101 1.258 . S
O94 Co69 1.941 . S
O94 C101 1.266 . S
H95 C97 0.959 . S
H96 C97 0.961 . S
C97 C87 1.510 . S
C97 H95 0.959 . S
C97 H96 0.961 . S
C97 H98 0.960 . S
H98 C97 0.960 . S
H99 N79 0.862 . S
O100 Co68 1.920 1_455 S
O100 C73 1.289 . S
C101 O93 1.258 . S
C101 O94 1.266 . S
Co102 O105 1.975 . S
Co102 N119 1.989 . S
Co102 O127 1.967 . S
Co102 O134 1.920 1_565 S
Co103 O106 1.966 . S
Co103 N112 2.022 . S
Co103 N120 1.993 . S
Co103 O128 1.941 . S
C104 O105 1.287 . S
C104 O106 1.263 . S
O105 Co102 1.975 . S
O105 C104 1.287 . S
O106 Co103 1.966 . S
O106 C104 1.263 . S
C107 O108 1.235 . S
C107 O134 1.289 . S
O108 C107 1.235 . S
C109 C111 1.400 . S
C109 N112 1.351 . S
C109 C114 1.501 . S
C110 C111 1.387 . S
C110 N113 1.341 . S
C111 C109 1.400 . S
C111 C110 1.387 . S
N112 Co103 2.022 . S
N112 C109 1.351 . S
N112 N113 1.365 . S
N113 C110 1.341 . S
N113 N112 1.365 . S
N113 H133 0.862 . S
C114 C109 1.501 . S
C114 H115 0.961 . S
C114 H116 0.961 . S
C114 H117 0.960 . S
H115 C114 0.961 . S
H116 C114 0.961 . S
H117 C114 0.960 . S
C118 N119 1.342 1_546 S
C118 C122 1.401 1_545 S
C118 C123 1.499 . S
N119 Co102 1.989 . S
N119 C118 1.342 1_564 S
N119 N120 1.388 . S
N120 Co103 1.993 . S
N120 N119 1.388 . S
N120 C121 1.346 1_554 S
C121 N120 1.346 1_556 S
C121 C122 1.396 . S
C121 C131 1.510 . S
C122 C118 1.401 1_565 S
C122 C121 1.396 . S
C123 C118 1.499 . S
C123 H124 0.959 . S
C123 H125 0.960 . S
C123 H126 0.961 . S
H124 C123 0.959 . S
H125 C123 0.960 . S
H126 C123 0.961 . S
O127 Co102 1.967 . S
O127 C135 1.258 . S
O128 Co103 1.941 . S
O128 C135 1.266 . S
H129 C131 0.959 . S
H130 C131 0.961 . S
C131 C121 1.510 . S
C131 H129 0.959 . S
C131 H130 0.961 . S
C131 H132 0.960 . S
H132 C131 0.960 . S
H133 N113 0.862 . S
O134 Co102 1.920 1_545 S
O134 C107 1.289 . S
C135 O127 1.258 . S
C135 O128 1.266 . S
Co136 O139 1.975 . S
Co136 N153 1.989 . S
Co136 O161 1.967 . S
Co136 O168 1.920 1_455 S
Co137 O140 1.966 . S
Co137 N146 2.022 . S
Co137 N154 1.993 . S
Co137 O162 1.941 . S
C138 O139 1.287 . S
C138 O140 1.263 . S
O139 Co136 1.975 . S
O139 C138 1.287 . S
O140 Co137 1.966 . S
O140 C138 1.263 . S
C141 O142 1.235 . S
C141 O168 1.289 . S
O142 C141 1.235 . S
C143 C145 1.400 . S
C143 N146 1.351 . S
C143 C148 1.501 . S
C144 C145 1.387 . S
C144 N147 1.341 . S
C145 C143 1.400 . S
C145 C144 1.387 . S
N146 Co137 2.022 . S
N146 C143 1.351 . S
N146 N147 1.365 . S
N147 C144 1.341 . S
N147 N146 1.365 . S
N147 H167 0.862 . S
C148 C143 1.501 . S
C148 H149 0.961 . S
C148 H150 0.961 . S
C148 H151 0.960 . S
H149 C148 0.961 . S
H150 C148 0.961 . S
H151 C148 0.960 . S
C152 N153 1.342 1_655 S
C152 C156 1.401 1_655 S
C152 C157 1.499 . S
N153 Co136 1.989 . S
N153 C152 1.342 1_455 S
N153 N154 1.388 . S
N154 Co137 1.993 . S
N154 N153 1.388 . S
N154 C155 1.346 . S
C155 N154 1.346 . S
C155 C156 1.396 . S
C155 C165 1.510 . S
C156 C152 1.401 1_455 S
C156 C155 1.396 . S
C157 C152 1.499 . S
C157 H158 0.959 . S
C157 H159 0.960 . S
C157 H160 0.961 . S
H158 C157 0.959 . S
H159 C157 0.960 . S
H160 C157 0.961 . S
O161 Co136 1.967 . S
O161 C169 1.258 . S
O162 Co137 1.941 . S
O162 C169 1.266 . S
H163 C165 0.959 . S
H164 C165 0.961 . S
C165 C155 1.510 . S
C165 H163 0.959 . S
C165 H164 0.961 . S
C165 H166 0.960 . S
H166 C165 0.960 . S
H167 N147 0.862 . S
O168 Co136 1.920 1_655 S
O168 C141 1.289 . S
C169 O161 1.258 . S
C169 O162 1.266 . S
Co170 O173 1.975 . S
Co170 N187 1.989 . S
Co170 O195 1.967 . S
Co170 O202 1.920 1_545 S
Co171 O174 1.966 . S
Co171 N180 2.022 . S
Co171 N188 1.993 . S
Co171 O196 1.941 . S
C172 O173 1.287 . S
C172 O174 1.263 . S
O173 Co170 1.975 . S
O173 C172 1.287 . S
O174 Co171 1.966 . S
O174 C172 1.263 . S
C175 O176 1.235 . S
C175 O202 1.289 . S
O176 C175 1.235 . S
C177 C179 1.400 . S
C177 N180 1.351 . S
C177 C182 1.501 . S
C178 C179 1.387 . S
C178 N181 1.341 . S
C179 C177 1.400 . S
C179 C178 1.387 . S
N180 Co171 2.022 . S
N180 C177 1.351 . S
N180 N181 1.365 . S
N181 C178 1.341 . S
N181 N180 1.365 . S
N181 H201 0.862 . S
C182 C177 1.501 . S
C182 H183 0.961 . S
C182 H184 0.961 . S
C182 H185 0.960 . S
H183 C182 0.961 . S
H184 C182 0.961 . S
H185 C182 0.960 . S
C186 N187 1.342 1_565 S
C186 C190 1.401 1_565 S
C186 C191 1.499 . S
N187 Co170 1.989 . S
N187 C186 1.342 1_545 S
N187 N188 1.388 . S
N188 Co171 1.993 . S
N188 N187 1.388 . S
N188 C189 1.346 . S
C189 N188 1.346 . S
C189 C190 1.396 . S
C189 C199 1.510 . S
C190 C186 1.401 1_545 S
C190 C189 1.396 . S
C191 C186 1.499 . S
C191 H192 0.959 . S
C191 H193 0.960 . S
C191 H194 0.961 . S
H192 C191 0.959 . S
H193 C191 0.960 . S
H194 C191 0.961 . S
O195 Co170 1.967 . S
O195 C203 1.258 . S
O196 Co171 1.941 . S
O196 C203 1.266 . S
H197 C199 0.959 . S
H198 C199 0.961 . S
C199 C189 1.510 . S
C199 H197 0.959 . S
C199 H198 0.961 . S
C199 H200 0.960 . S
H200 C199 0.960 . S
H201 N181 0.862 . S
O202 Co170 1.920 1_565 S
O202 C175 1.289 . S
C203 O195 1.258 . S
C203 O196 1.266 . S
Co204 O207 1.975 . S
Co204 N221 1.989 . S
Co204 O229 1.967 . S
Co204 O236 1.920 1_655 S
Co205 O208 1.966 . S
Co205 N214 2.022 . S
Co205 N222 1.993 . S
Co205 O230 1.941 . S
C206 O207 1.287 . S
C206 O208 1.263 . S
O207 Co204 1.975 . S
O207 C206 1.287 . S
O208 Co205 1.966 . S
O208 C206 1.263 . S
C209 O210 1.235 . S
C209 O236 1.289 . S
O210 C209 1.235 . S
C211 C213 1.400 . S
C211 N214 1.351 . S
C211 C216 1.501 . S
C212 C213 1.387 . S
C212 N215 1.341 . S
C213 C211 1.400 . S
C213 C212 1.387 . S
N214 Co205 2.022 . S
N214 C211 1.351 . S
N214 N215 1.365 . S
N215 C212 1.341 . S
N215 N214 1.365 . S
N215 H235 0.862 . S
C216 C211 1.501 . S
C216 H217 0.961 . S
C216 H218 0.961 . S
C216 H219 0.960 . S
H217 C216 0.961 . S
H218 C216 0.961 . S
H219 C216 0.960 . S
C220 N221 1.342 1_455 S
C220 C224 1.401 1_455 S
C220 C225 1.499 . S
N221 Co204 1.989 . S
N221 C220 1.342 1_655 S
N221 N222 1.388 . S
N222 Co205 1.993 . S
N222 N221 1.388 . S
N222 C223 1.346 . S
C223 N222 1.346 . S
C223 C224 1.396 . S
C223 C233 1.510 . S
C224 C220 1.401 1_655 S
C224 C223 1.396 . S
C225 C220 1.499 . S
C225 H226 0.959 . S
C225 H227 0.960 . S
C225 H228 0.961 . S
H226 C225 0.959 . S
H227 C225 0.960 . S
H228 C225 0.961 . S
O229 Co204 1.967 . S
O229 C237 1.258 . S
O230 Co205 1.941 . S
O230 C237 1.266 . S
H231 C233 0.959 . S
H232 C233 0.961 . S
C233 C223 1.510 . S
C233 H231 0.959 . S
C233 H232 0.961 . S
C233 H234 0.960 . S
H234 C233 0.960 . S
H235 N215 0.862 . S
O236 Co204 1.920 1_455 S
O236 C209 1.289 . S
C237 O229 1.258 . S
C237 O230 1.266 . S
Co238 O241 1.975 . S
Co238 N255 1.989 . S
Co238 O263 1.967 . S
Co238 O270 1.920 1_565 S
Co239 O242 1.966 . S
Co239 N248 2.022 . S
Co239 N256 1.993 . S
Co239 O264 1.941 . S
C240 O241 1.287 . S
C240 O242 1.263 . S
O241 Co238 1.975 . S
O241 C240 1.287 . S
O242 Co239 1.966 . S
O242 C240 1.263 . S
C243 O244 1.235 . S
C243 O270 1.289 . S
O244 C243 1.235 . S
C245 C247 1.400 . S
C245 N248 1.351 . S
C245 C250 1.501 . S
C246 C247 1.387 . S
C246 N249 1.341 . S
C247 C245 1.400 . S
C247 C246 1.387 . S
N248 Co239 2.022 . S
N248 C245 1.351 . S
N248 N249 1.365 . S
N249 C246 1.341 . S
N249 N248 1.365 . S
N249 H269 0.862 . S
C250 C245 1.501 . S
C250 H251 0.961 . S
C250 H252 0.961 . S
C250 H253 0.960 . S
H251 C250 0.961 . S
H252 C250 0.961 . S
H253 C250 0.960 . S
C254 N255 1.342 1_545 S
C254 C258 1.401 1_545 S
C254 C259 1.499 . S
N255 Co238 1.989 . S
N255 C254 1.342 1_565 S
N255 N256 1.388 . S
N256 Co239 1.993 . S
N256 N255 1.388 . S
N256 C257 1.346 . S
C257 N256 1.346 . S
C257 C258 1.396 . S
C257 C267 1.510 . S
C258 C254 1.401 1_565 S
C258 C257 1.396 . S
C259 C254 1.499 . S
C259 H260 0.959 . S
C259 H261 0.960 . S
C259 H262 0.961 . S
H260 C259 0.959 . S
H261 C259 0.960 . S
H262 C259 0.961 . S
O263 Co238 1.967 . S
O263 C271 1.258 . S
O264 Co239 1.941 . S
O264 C271 1.266 . S
H265 C267 0.959 . S
H266 C267 0.961 . S
C267 C257 1.510 . S
C267 H265 0.959 . S
C267 H266 0.961 . S
C267 H268 0.960 . S
H268 C267 0.960 . S
H269 N249 0.862 . S
O270 Co238 1.920 1_545 S
O270 C243 1.289 . S
C271 O263 1.258 . S
C271 O264 1.266 . S
Co272 O275 1.970 . S
Co272 N289 1.989 . S
Co272 O297 1.967 . S
Co272 O304 1.920 . S
Co273 O276 1.966 . S
Co273 N282 2.022 . S
Co273 N290 1.993 . S
Co273 O298 1.941 . S
C274 O275 1.258 . S
C274 O276 1.263 . S
O275 Co272 1.970 . S
O275 C274 1.258 . S
O276 Co273 1.966 . S
O276 C274 1.263 . S
C277 O278 1.235 . S
C277 O304 1.289 . S
O278 C277 1.235 . S
C279 C281 1.400 . S
C279 N282 1.351 . S
C279 C284 1.501 . S
C280 C281 1.387 . S
C280 N283 1.341 . S
C281 C279 1.400 . S
C281 C280 1.387 . S
N282 Co273 2.022 . S
N282 C279 1.351 . S
N282 N283 1.365 . S
N283 C280 1.341 . S
N283 N282 1.365 . S
N283 H303 0.862 . S
C284 C279 1.501 . S
C284 H285 0.961 . S
C284 H286 0.961 . S
C284 H287 0.960 . S
H285 C284 0.961 . S
H286 C284 0.961 . S
H287 C284 0.960 . S
C288 N289 1.342 . S
C288 C292 1.401 . S
C288 C293 1.499 . S
N289 Co272 1.989 . S
N289 C288 1.342 . S
N289 N290 1.388 . S
N290 Co273 1.993 . S
N290 N289 1.388 . S
N290 C291 1.346 . S
C291 N290 1.346 . S
C291 C292 1.396 . S
C291 C301 1.510 . S
C292 C288 1.401 . S
C292 C291 1.396 . S
C293 C288 1.499 . S
C293 H294 0.959 . S
C293 H295 0.960 . S
C293 H296 0.961 . S
H294 C293 0.959 . S
H295 C293 0.960 . S
H296 C293 0.961 . S
O297 Co272 1.967 . S
O297 C305 1.258 . S
O298 Co273 1.941 . S
O298 C305 1.266 . S
H299 C301 0.959 . S
H300 C301 0.961 . S
C301 C291 1.510 . S
C301 H299 0.959 . S
C301 H300 0.961 . S
C301 H302 0.960 . S
H302 C301 0.960 . S
H303 N283 0.862 . S
O304 Co272 1.920 . S
O304 C277 1.289 . S
C305 O297 1.258 . S
C305 O298 1.266 . S
Co306 O309 1.970 . S
Co306 N323 1.989 . S
Co306 O331 1.967 . S
Co306 O338 1.920 . S
Co307 O310 1.966 . S
Co307 N316 2.022 . S
Co307 N324 1.993 . S
Co307 O332 1.941 . S
C308 O309 1.258 . S
C308 O310 1.263 . S
O309 Co306 1.970 . S
O309 C308 1.258 . S
O310 Co307 1.966 . S
O310 C308 1.263 . S
C311 O312 1.235 . S
C311 O338 1.289 . S
O312 C311 1.235 . S
C313 C315 1.400 . S
C313 N316 1.351 . S
C313 C318 1.501 . S
C314 C315 1.387 . S
C314 N317 1.341 . S
C315 C313 1.400 . S
C315 C314 1.387 . S
N316 Co307 2.022 . S
N316 C313 1.351 . S
N316 N317 1.365 . S
N317 C314 1.341 . S
N317 N316 1.365 . S
N317 H337 0.862 . S
C318 C313 1.501 . S
C318 H319 0.961 . S
C318 H320 0.961 . S
C318 H321 0.960 . S
H319 C318 0.961 . S
H320 C318 0.961 . S
H321 C318 0.960 . S
C322 N323 1.342 . S
C322 C326 1.401 . S
C322 C327 1.499 . S
N323 Co306 1.989 . S
N323 C322 1.342 . S
N323 N324 1.388 . S
N324 Co307 1.993 . S
N324 N323 1.388 . S
N324 C325 1.346 . S
C325 N324 1.346 . S
C325 C326 1.396 . S
C325 C335 1.510 . S
C326 C322 1.401 . S
C326 C325 1.396 . S
C327 C322 1.499 . S
C327 H328 0.959 . S
C327 H329 0.960 . S
C327 H330 0.961 . S
H328 C327 0.959 . S
H329 C327 0.960 . S
H330 C327 0.961 . S
O331 Co306 1.967 . S
O331 C339 1.258 . S
O332 Co307 1.941 . S
O332 C339 1.266 . S
H333 C335 0.959 . S
H334 C335 0.961 . S
C335 C325 1.510 . S
C335 H333 0.959 . S
C335 H334 0.961 . S
C335 H336 0.960 . S
H336 C335 0.960 . S
H337 N317 0.862 . S
O338 Co306 1.920 . S
O338 C311 1.289 . S
C339 O331 1.258 . S
C339 O332 1.266 . S
Co340 O343 1.970 . S
Co340 N357 1.989 . S
Co340 O365 1.967 . S
Co340 O372 1.920 . S
Co341 O344 1.966 . S
Co341 N350 2.022 . S
Co341 N358 1.993 . S
Co341 O366 1.941 . S
C342 O343 1.258 . S
C342 O344 1.263 . S
O343 Co340 1.970 . S
O343 C342 1.258 . S
O344 Co341 1.966 . S
O344 C342 1.263 . S
C345 O346 1.235 . S
C345 O372 1.289 . S
O346 C345 1.235 . S
C347 C349 1.400 . S
C347 N350 1.351 . S
C347 C352 1.501 . S
C348 C349 1.387 . S
C348 N351 1.341 . S
C349 C347 1.400 . S
C349 C348 1.387 . S
N350 Co341 2.022 . S
N350 C347 1.351 . S
N350 N351 1.365 . S
N351 C348 1.341 . S
N351 N350 1.365 . S
N351 H371 0.862 . S
C352 C347 1.501 . S
C352 H353 0.961 . S
C352 H354 0.961 . S
C352 H355 0.960 . S
H353 C352 0.961 . S
H354 C352 0.961 . S
H355 C352 0.960 . S
C356 N357 1.342 . S
C356 C360 1.401 . S
C356 C361 1.499 . S
N357 Co340 1.989 . S
N357 C356 1.342 . S
N357 N358 1.388 . S
N358 Co341 1.993 . S
N358 N357 1.388 . S
N358 C359 1.346 . S
C359 N358 1.346 . S
C359 C360 1.396 . S
C359 C369 1.510 . S
C360 C356 1.401 . S
C360 C359 1.396 . S
C361 C356 1.499 . S
C361 H362 0.959 . S
C361 H363 0.960 . S
C361 H364 0.961 . S
H362 C361 0.959 . S
H363 C361 0.960 . S
H364 C361 0.961 . S
O365 Co340 1.967 . S
O365 C373 1.258 . S
O366 Co341 1.941 . S
O366 C373 1.266 . S
H367 C369 0.959 . S
H368 C369 0.961 . S
C369 C359 1.510 . S
C369 H367 0.959 . S
C369 H368 0.961 . S
C369 H370 0.960 . S
H370 C369 0.960 . S
H371 N351 0.862 . S
O372 Co340 1.920 . S
O372 C345 1.289 . S
C373 O365 1.258 . S
C373 O366 1.266 . S
Co374 O377 1.970 . S
Co374 N391 1.989 . S
Co374 O399 1.967 . S
Co374 O406 1.920 . S
Co375 O378 1.966 . S
Co375 N384 2.022 . S
Co375 N392 1.993 . S
Co375 O400 1.941 . S
C376 O377 1.258 . S
C376 O378 1.263 . S
O377 Co374 1.970 . S
O377 C376 1.258 . S
O378 Co375 1.966 . S
O378 C376 1.263 . S
C379 O380 1.235 . S
C379 O406 1.289 . S
O380 C379 1.235 . S
C381 C383 1.400 . S
C381 N384 1.351 . S
C381 C386 1.501 . S
C382 C383 1.387 . S
C382 N385 1.341 . S
C383 C381 1.400 . S
C383 C382 1.387 . S
N384 Co375 2.022 . S
N384 C381 1.351 . S
N384 N385 1.365 . S
N385 C382 1.341 . S
N385 N384 1.365 . S
N385 H405 0.862 . S
C386 C381 1.501 . S
C386 H387 0.961 . S
C386 H388 0.961 . S
C386 H389 0.960 . S
H387 C386 0.961 . S
H388 C386 0.961 . S
H389 C386 0.960 . S
C390 N391 1.342 . S
C390 C394 1.401 . S
C390 C395 1.499 . S
N391 Co374 1.989 . S
N391 C390 1.342 . S
N391 N392 1.388 . S
N392 Co375 1.993 . S
N392 N391 1.388 . S
N392 C393 1.346 . S
C393 N392 1.346 . S
C393 C394 1.396 . S
C393 C403 1.510 . S
C394 C390 1.401 . S
C394 C393 1.396 . S
C395 C390 1.499 . S
C395 H396 0.959 . S
C395 H397 0.960 . S
C395 H398 0.961 . S
H396 C395 0.959 . S
H397 C395 0.960 . S
H398 C395 0.961 . S
O399 Co374 1.967 . S
O399 C407 1.258 . S
O400 Co375 1.941 . S
O400 C407 1.266 . S
H401 C403 0.959 . S
H402 C403 0.961 . S
C403 C393 1.510 . S
C403 H401 0.959 . S
C403 H402 0.961 . S
C403 H404 0.960 . S
H404 C403 0.960 . S
H405 N385 0.862 . S
O406 Co374 1.920 . S
O406 C379 1.289 . S
C407 O399 1.258 . S
C407 O400 1.266 . S
Co408 O411 1.970 1_554 S
Co408 N425 1.989 . S
Co408 O433 1.963 1_554 S
Co408 O440 1.920 . S
Co409 O412 1.966 1_554 S
Co409 N418 2.022 . S
Co409 N426 1.993 . S
Co409 O434 1.941 . S
C410 O411 1.258 . S
C410 O412 1.263 . S
O411 Co408 1.970 1_556 S
O411 C410 1.258 . S
O412 Co409 1.966 1_556 S
O412 C410 1.263 . S
C413 O414 1.235 . S
C413 O440 1.289 . S
O414 C413 1.235 . S
C415 C417 1.400 . S
C415 N418 1.351 . S
C415 C420 1.501 1_554 S
C416 C417 1.387 . S
C416 N419 1.341 . S
C417 C415 1.400 . S
C417 C416 1.387 . S
N418 Co409 2.022 . S
N418 C415 1.351 . S
N418 N419 1.365 . S
N419 C416 1.341 . S
N419 N418 1.365 . S
N419 H439 0.862 . S
C420 C415 1.501 1_556 S
C420 H421 0.961 . S
C420 H422 0.961 . S
C420 H423 0.960 . S
H421 C420 0.961 . S
H422 C420 0.961 . S
H423 C420 0.960 . S
C424 N425 1.342 . S
C424 C428 1.401 . S
C424 C429 1.499 . S
N425 Co408 1.989 . S
N425 C424 1.342 . S
N425 N426 1.388 . S
N426 Co409 1.993 . S
N426 N425 1.388 . S
N426 C427 1.346 . S
C427 N426 1.346 . S
C427 C428 1.396 . S
C427 C437 1.510 . S
C428 C424 1.401 . S
C428 C427 1.396 . S
C429 C424 1.499 . S
C429 H430 0.959 . S
C429 H431 0.960 . S
C429 H432 0.961 . S
H430 C429 0.959 . S
H431 C429 0.960 . S
H432 C429 0.961 . S
O433 Co408 1.963 1_556 S
O433 C441 1.257 1_556 S
O434 Co409 1.941 . S
O434 C441 1.270 . S
H435 C437 0.959 . S
H436 C437 0.961 . S
C437 C427 1.510 . S
C437 H435 0.959 . S
C437 H436 0.961 . S
C437 H438 0.960 . S
H438 C437 0.960 . S
H439 N419 0.862 . S
O440 Co408 1.920 . S
O440 C413 1.289 . S
C441 O433 1.257 1_554 S
C441 O434 1.270 . S
Co442 O445 1.970 1_554 S
Co442 N459 1.989 . S
Co442 O467 1.963 1_554 S
Co442 O474 1.920 . S
Co443 O446 1.966 1_554 S
Co443 N452 2.022 . S
Co443 N460 1.993 . S
Co443 O468 1.941 . S
C444 O445 1.258 . S
C444 O446 1.263 . S
O445 Co442 1.970 1_556 S
O445 C444 1.258 . S
O446 Co443 1.966 1_556 S
O446 C444 1.263 . S
C447 O448 1.235 . S
C447 O474 1.289 . S
O448 C447 1.235 . S
C449 C451 1.400 . S
C449 N452 1.351 . S
C449 C454 1.501 1_554 S
C450 C451 1.387 . S
C450 N453 1.341 . S
C451 C449 1.400 . S
C451 C450 1.387 . S
N452 Co443 2.022 . S
N452 C449 1.351 . S
N452 N453 1.365 . S
N453 C450 1.341 . S
N453 N452 1.365 . S
N453 H473 0.862 . S
C454 C449 1.501 1_556 S
C454 H455 0.961 . S
C454 H456 0.961 . S
C454 H457 0.960 . S
H455 C454 0.961 . S
H456 C454 0.961 . S
H457 C454 0.960 . S
C458 N459 1.342 . S
C458 C462 1.401 . S
C458 C463 1.499 . S
N459 Co442 1.989 . S
N459 C458 1.342 . S
N459 N460 1.388 . S
N460 Co443 1.993 . S
N460 N459 1.388 . S
N460 C461 1.346 . S
C461 N460 1.346 . S
C461 C462 1.396 . S
C461 C471 1.510 . S
C462 C458 1.401 . S
C462 C461 1.396 . S
C463 C458 1.499 . S
C463 H464 0.959 . S
C463 H465 0.960 . S
C463 H466 0.961 . S
H464 C463 0.959 . S
H465 C463 0.960 . S
H466 C463 0.961 . S
O467 Co442 1.963 1_556 S
O467 C475 1.257 1_556 S
O468 Co443 1.941 . S
O468 C475 1.270 . S
H469 C471 0.959 . S
H470 C471 0.961 . S
C471 C461 1.510 . S
C471 H469 0.959 . S
C471 H470 0.961 . S
C471 H472 0.960 . S
H472 C471 0.960 . S
H473 N453 0.862 . S
O474 Co442 1.920 . S
O474 C447 1.289 . S
C475 O467 1.257 1_554 S
C475 O468 1.270 . S
Co476 O479 1.970 1_554 S
Co476 N493 1.989 . S
Co476 O501 1.963 1_554 S
Co476 O508 1.920 . S
Co477 O480 1.966 1_554 S
Co477 N486 2.022 . S
Co477 N494 1.993 . S
Co477 O502 1.941 . S
C478 O479 1.258 . S
C478 O480 1.263 . S
O479 Co476 1.970 1_556 S
O479 C478 1.258 . S
O480 Co477 1.966 1_556 S
O480 C478 1.263 . S
C481 O482 1.235 . S
C481 O508 1.289 . S
O482 C481 1.235 . S
C483 C485 1.400 . S
C483 N486 1.351 . S
C483 C488 1.501 1_554 S
C484 C485 1.387 . S
C484 N487 1.341 . S
C485 C483 1.400 . S
C485 C484 1.387 . S
N486 Co477 2.022 . S
N486 C483 1.351 . S
N486 N487 1.365 . S
N487 C484 1.341 . S
N487 N486 1.365 . S
N487 H507 0.862 . S
C488 C483 1.501 1_556 S
C488 H489 0.961 . S
C488 H490 0.961 . S
C488 H491 0.960 . S
H489 C488 0.961 . S
H490 C488 0.961 . S
H491 C488 0.960 . S
C492 N493 1.342 . S
C492 C496 1.401 . S
C492 C497 1.499 . S
N493 Co476 1.989 . S
N493 C492 1.342 . S
N493 N494 1.388 . S
N494 Co477 1.993 . S
N494 N493 1.388 . S
N494 C495 1.346 . S
C495 N494 1.346 . S
C495 C496 1.396 . S
C495 C505 1.510 . S
C496 C492 1.401 . S
C496 C495 1.396 . S
C497 C492 1.499 . S
C497 H498 0.959 . S
C497 H499 0.960 . S
C497 H500 0.961 . S
H498 C497 0.959 . S
H499 C497 0.960 . S
H500 C497 0.961 . S
O501 Co476 1.963 1_556 S
O501 C509 1.257 1_556 S
O502 Co477 1.941 . S
O502 C509 1.270 . S
H503 C505 0.959 . S
H504 C505 0.961 . S
C505 C495 1.510 . S
C505 H503 0.959 . S
C505 H504 0.961 . S
C505 H506 0.960 . S
H506 C505 0.960 . S
H507 N487 0.862 . S
O508 Co476 1.920 . S
O508 C481 1.289 . S
C509 O501 1.257 1_554 S
C509 O502 1.270 . S
Co510 O513 1.970 1_554 S
Co510 N527 1.989 . S
Co510 O535 1.963 1_554 S
Co510 O542 1.920 . S
Co511 O514 1.966 1_554 S
Co511 N520 2.022 . S
Co511 N528 1.993 . S
Co511 O536 1.941 . S
C512 O513 1.258 . S
C512 O514 1.263 . S
O513 Co510 1.970 1_556 S
O513 C512 1.258 . S
O514 Co511 1.966 1_556 S
O514 C512 1.263 . S
C515 O516 1.235 . S
C515 O542 1.289 . S
O516 C515 1.235 . S
C517 C519 1.400 . S
C517 N520 1.351 . S
C517 C522 1.501 1_554 S
C518 C519 1.387 . S
C518 N521 1.341 . S
C519 C517 1.400 . S
C519 C518 1.387 . S
N520 Co511 2.022 . S
N520 C517 1.351 . S
N520 N521 1.365 . S
N521 C518 1.341 . S
N521 N520 1.365 . S
N521 H541 0.862 . S
C522 C517 1.501 1_556 S
C522 H523 0.961 . S
C522 H524 0.961 . S
C522 H525 0.960 . S
H523 C522 0.961 . S
H524 C522 0.961 . S
H525 C522 0.960 . S
C526 N527 1.342 . S
C526 C530 1.401 . S
C526 C531 1.499 . S
N527 Co510 1.989 . S
N527 C526 1.342 . S
N527 N528 1.388 . S
N528 Co511 1.993 . S
N528 N527 1.388 . S
N528 C529 1.346 . S
C529 N528 1.346 . S
C529 C530 1.396 . S
C529 C539 1.510 . S
C530 C526 1.401 . S
C530 C529 1.396 . S
C531 C526 1.499 . S
C531 H532 0.959 . S
C531 H533 0.960 . S
C531 H534 0.961 . S
H532 C531 0.959 . S
H533 C531 0.960 . S
H534 C531 0.961 . S
O535 Co510 1.963 1_556 S
O535 C543 1.257 1_556 S
O536 Co511 1.941 . S
O536 C543 1.270 . S
H537 C539 0.959 . S
H538 C539 0.961 . S
C539 C529 1.510 . S
C539 H537 0.959 . S
C539 H538 0.961 . S
C539 H540 0.960 . S
H540 C539 0.960 . S
H541 N521 0.862 . S
O542 Co510 1.920 . S
O542 C515 1.289 . S
C543 O535 1.257 1_554 S
C543 O536 1.270 . S
H544 C556 0.930 . S
H545 C558 0.930 1_556 S
H546 C559 0.930 . S
H547 C563 0.959 . S
H548 C563 0.959 . S
H549 C563 0.961 . S
H550 C564 0.960 . S
H551 C564 0.961 . S
H552 C564 0.959 . S
H553 C567 0.929 . S
H554 C568 0.931 . S
H555 C570 0.930 . S
C556 H544 0.930 . S
C556 C557 1.399 . S
C556 C561 1.399 . S
C557 C556 1.399 . S
C557 C558 1.376 . S
C558 H545 0.930 1_554 S
C558 C557 1.376 . S
C558 C559 1.388 1_554 S
C559 H546 0.930 . S
C559 C558 1.388 1_556 S
C559 C560 1.390 1_556 S
C560 C559 1.390 1_554 S
C560 C561 1.394 . S
C560 C566 1.465 . S
C561 C556 1.399 . S
C561 C560 1.394 . S
C561 C562 1.516 . S
C562 C561 1.516 . S
C562 C563 1.502 . S
C562 C564 1.561 . S
C562 C565 1.526 . S
C563 H547 0.959 . S
C563 H548 0.959 . S
C563 H549 0.961 . S
C563 C562 1.502 . S
C564 H550 0.960 . S
C564 H551 0.961 . S
C564 H552 0.959 . S
C564 C562 1.561 . S
C565 C562 1.526 . S
C565 C566 1.396 . S
C565 C570 1.390 . S
C566 C560 1.465 . S
C566 C565 1.396 . S
C566 C567 1.399 1_554 S
C567 H553 0.929 . S
C567 C566 1.399 1_556 S
C567 C568 1.385 . S
C568 H554 0.931 . S
C568 C567 1.385 . S
C568 C569 1.389 1_556 S
C569 C568 1.389 1_554 S
C569 C570 1.387 . S
C570 H555 0.930 . S
C570 C565 1.390 . S
C570 C569 1.387 . S
H571 C583 0.930 . S
H572 C585 0.930 . S
H573 C586 0.930 . S
H574 C590 0.948 1_554 S
H575 C590 0.966 . S
H576 C590 0.964 . S
H577 C591 0.960 . S
H578 C591 0.961 . S
H579 C591 0.959 . S
H580 C594 0.929 . S
H581 C595 0.931 . S
H582 C597 0.930 1_556 S
C583 H571 0.930 . S
C583 C584 1.399 . S
C583 C588 1.399 . S
C584 C583 1.399 . S
C584 C585 1.376 . S
C585 H572 0.930 . S
C585 C584 1.376 . S
C585 C586 1.388 . S
C586 H573 0.930 . S
C586 C585 1.388 . S
C586 C587 1.390 . S
C587 C586 1.390 . S
C587 C588 1.394 . S
C587 C593 1.465 . S
C588 C583 1.399 . S
C588 C587 1.394 . S
C588 C589 1.516 1_554 S
C589 C588 1.516 1_556 S
C589 C590 1.503 . S
C589 C591 1.561 . S
C589 C592 1.526 1_556 S
C590 H574 0.948 1_556 S
C590 H575 0.966 . S
C590 H576 0.964 . S
C590 C589 1.503 . S
C591 H577 0.960 . S
C591 H578 0.961 . S
C591 H579 0.959 . S
C591 C589 1.561 . S
C592 C589 1.526 1_554 S
C592 C593 1.396 . S
C592 C597 1.390 . S
C593 C587 1.465 . S
C593 C592 1.396 . S
C593 C594 1.399 . S
C594 H580 0.929 . S
C594 C593 1.399 . S
C594 C595 1.385 . S
C595 H581 0.931 . S
C595 C594 1.385 . S
C595 C596 1.389 . S
C596 C595 1.389 . S
C596 C597 1.387 . S
C597 H582 0.930 1_554 S
C597 C592 1.390 . S
C597 C596 1.387 . S
H598 C610 0.930 . S
H599 C612 0.930 . S
H600 C613 0.930 . S
H601 C617 0.959 . S
H602 C617 0.959 . S
H603 C617 0.961 . S
H604 C618 0.960 . S
H605 C618 0.961 . S
H606 C618 0.959 . S
H607 C621 0.929 . S
H608 C622 0.931 . S
H609 C624 0.930 . S
C610 H598 0.930 . S
C610 C611 1.399 . S
C610 C615 1.399 . S
C611 C610 1.399 . S
C611 C612 1.376 1_554 S
C612 H599 0.930 . S
C612 C611 1.376 1_556 S
C612 C613 1.388 . S
C613 H600 0.930 . S
C613 C612 1.388 . S
C613 C614 1.390 1_556 S
C614 C613 1.390 1_554 S
C614 C615 1.394 . S
C614 C620 1.465 . S
C615 C610 1.399 . S
C615 C614 1.394 . S
C615 C616 1.516 . S
C616 C615 1.516 . S
C616 C617 1.502 . S
C616 C618 1.561 . S
C616 C619 1.526 . S
C617 H601 0.959 . S
C617 H602 0.959 . S
C617 H603 0.961 . S
C617 C616 1.502 . S
C618 H604 0.960 . S
C618 H605 0.961 . S
C618 H606 0.959 . S
C618 C616 1.561 . S
C619 C616 1.526 . S
C619 C620 1.396 . S
C619 C624 1.390 . S
C620 C614 1.465 . S
C620 C619 1.396 . S
C620 C621 1.399 1_554 S
C621 H607 0.929 . S
C621 C620 1.399 1_556 S
C621 C622 1.385 . S
C622 H608 0.931 . S
C622 C621 1.385 . S
C622 C623 1.389 1_556 S
C623 C622 1.389 1_554 S
C623 C624 1.387 . S
C624 H609 0.930 . S
C624 C619 1.390 . S
C624 C623 1.387 . S
H625 C637 0.930 . S
H626 C639 0.930 . S
H627 C640 0.930 . S
H628 C644 0.959 . S
H629 C644 0.959 . S
H630 C644 0.961 . S
H631 C645 0.960 . S
H632 C645 0.961 . S
H633 C645 0.959 . S
H634 C648 0.929 . S
H635 C649 0.931 . S
H636 C651 0.930 . S
C637 H625 0.930 . S
C637 C638 1.399 . S
C637 C642 1.399 . S
C638 C637 1.399 . S
C638 C639 1.376 1_554 S
C639 H626 0.930 . S
C639 C638 1.376 1_556 S
C639 C640 1.388 . S
C640 H627 0.930 . S
C640 C639 1.388 . S
C640 C641 1.390 1_556 S
C641 C640 1.390 1_554 S
C641 C642 1.394 . S
C641 C647 1.465 . S
C642 C637 1.399 . S
C642 C641 1.394 . S
C642 C643 1.516 . S
C643 C642 1.516 . S
C643 C644 1.502 . S
C643 C645 1.561 . S
C643 C646 1.526 . S
C644 H628 0.959 . S
C644 H629 0.959 . S
C644 H630 0.961 . S
C644 C643 1.502 . S
C645 H631 0.960 . S
C645 H632 0.961 . S
C645 H633 0.959 . S
C645 C643 1.561 . S
C646 C643 1.526 . S
C646 C647 1.396 . S
C646 C651 1.390 . S
C647 C641 1.465 . S
C647 C646 1.396 . S
C647 C648 1.399 1_554 S
C648 H634 0.929 . S
C648 C647 1.399 1_556 S
C648 C649 1.385 . S
C649 H635 0.931 . S
C649 C648 1.385 . S
C649 C650 1.389 1_556 S
C650 C649 1.389 1_554 S
C650 C651 1.387 . S
C651 H636 0.930 . S
C651 C646 1.390 . S
C651 C650 1.387 . S
H652 C664 0.930 . S
H653 C666 0.930 . S
H654 C667 0.930 . S
H655 C671 0.959 . S
H656 C671 0.959 . S
H657 C671 0.961 . S
H658 C672 0.960 . S
H659 C672 0.961 . S
H660 C672 0.959 . S
H661 C675 0.929 . S
H662 C676 0.931 . S
H663 C678 0.930 . S
C664 H652 0.930 . S
C664 C665 1.399 . S
C664 C669 1.399 . S
C665 C664 1.399 . S
C665 C666 1.376 . S
C666 H653 0.930 . S
C666 C665 1.376 . S
C666 C667 1.388 . S
C667 H654 0.930 . S
C667 C666 1.388 . S
C667 C668 1.390 . S
C668 C667 1.390 . S
C668 C669 1.394 . S
C668 C674 1.465 . S
C669 C664 1.399 . S
C669 C668 1.394 . S
C669 C670 1.516 . S
C670 C669 1.516 . S
C670 C671 1.502 . S
C670 C672 1.561 . S
C670 C673 1.526 . S
C671 H655 0.959 . S
C671 H656 0.959 . S
C671 H657 0.961 . S
C671 C670 1.502 . S
C672 H658 0.960 . S
C672 H659 0.961 . S
C672 H660 0.959 . S
C672 C670 1.561 . S
C673 C670 1.526 . S
C673 C674 1.396 . S
C673 C678 1.390 . S
C674 C668 1.465 . S
C674 C673 1.396 . S
C674 C675 1.399 . S
C675 H661 0.929 . S
C675 C674 1.399 . S
C675 C676 1.385 . S
C676 H662 0.931 . S
C676 C675 1.385 . S
C676 C677 1.389 . S
C677 C676 1.389 . S
C677 C678 1.387 . S
C678 H663 0.930 . S
C678 C673 1.390 . S
C678 C677 1.387 . S
H679 C691 0.930 . S
H680 C693 0.930 . S
H681 C694 0.930 . S
H682 C698 0.959 . S
H683 C698 0.959 . S
H684 C698 0.961 . S
H685 C699 0.960 . S
H686 C699 0.961 . S
H687 C699 0.959 . S
H688 C702 0.929 . S
H689 C703 0.931 . S
H690 C705 0.930 . S
C691 H679 0.930 . S
C691 C692 1.399 . S
C691 C696 1.399 . S
C692 C691 1.399 . S
C692 C693 1.376 . S
C693 H680 0.930 . S
C693 C692 1.376 . S
C693 C694 1.388 . S
C694 H681 0.930 . S
C694 C693 1.388 . S
C694 C695 1.390 . S
C695 C694 1.390 . S
C695 C696 1.394 . S
C695 C701 1.465 . S
C696 C691 1.399 . S
C696 C695 1.394 . S
C696 C697 1.516 . S
C697 C696 1.516 . S
C697 C698 1.502 . S
C697 C699 1.561 . S
C697 C700 1.526 . S
C698 H682 0.959 . S
C698 H683 0.959 . S
C698 H684 0.961 . S
C698 C697 1.502 . S
C699 H685 0.960 . S
C699 H686 0.961 . S
C699 H687 0.959 . S
C699 C697 1.561 . S
C700 C697 1.526 . S
C700 C701 1.396 . S
C700 C705 1.390 . S
C701 C695 1.465 . S
C701 C700 1.396 . S
C701 C702 1.399 . S
C702 H688 0.929 . S
C702 C701 1.399 . S
C702 C703 1.385 . S
C703 H689 0.931 . S
C703 C702 1.385 . S
C703 C704 1.389 . S
C704 C703 1.389 . S
C704 C705 1.387 . S
C705 H690 0.930 . S
C705 C700 1.390 . S
C705 C704 1.387 . S
H706 C718 0.930 . S
H707 C720 0.930 . S
H708 C721 0.930 . S
H709 C725 0.959 . S
H710 C725 0.959 . S
H711 C725 0.961 . S
H712 C726 0.960 . S
H713 C726 0.961 . S
H714 C726 0.959 . S
H715 C729 0.929 . S
H716 C730 0.931 . S
H717 C732 0.930 . S
C718 H706 0.930 . S
C718 C719 1.399 . S
C718 C723 1.399 . S
C719 C718 1.399 . S
C719 C720 1.376 . S
C720 H707 0.930 . S
C720 C719 1.376 . S
C720 C721 1.388 . S
C721 H708 0.930 . S
C721 C720 1.388 . S
C721 C722 1.390 . S
C722 C721 1.390 . S
C722 C723 1.394 . S
C722 C728 1.465 . S
C723 C718 1.399 . S
C723 C722 1.394 . S
C723 C724 1.516 . S
C724 C723 1.516 . S
C724 C725 1.502 . S
C724 C726 1.561 . S
C724 C727 1.526 . S
C725 H709 0.959 . S
C725 H710 0.959 . S
C725 H711 0.961 . S
C725 C724 1.502 . S
C726 H712 0.960 . S
C726 H713 0.961 . S
C726 H714 0.959 . S
C726 C724 1.561 . S
C727 C724 1.526 . S
C727 C728 1.396 . S
C727 C732 1.390 . S
C728 C722 1.465 . S
C728 C727 1.396 . S
C728 C729 1.399 . S
C729 H715 0.929 . S
C729 C728 1.399 . S
C729 C730 1.385 . S
C730 H716 0.931 . S
C730 C729 1.385 . S
C730 C731 1.389 . S
C731 C730 1.389 . S
C731 C732 1.387 . S
C732 H717 0.930 . S
C732 C727 1.390 . S
C732 C731 1.387 . S
H733 C745 0.930 . S
H734 C747 0.930 . S
H735 C748 0.930 . S
H736 C752 0.959 . S
H737 C752 0.959 . S
H738 C752 0.961 . S
H739 C753 0.960 . S
H740 C753 0.961 . S
H741 C753 0.959 . S
H742 C756 0.929 . S
H743 C757 0.931 . S
H744 C759 0.930 . S
C745 H733 0.930 . S
C745 C746 1.399 . S
C745 C750 1.399 . S
C746 C745 1.399 . S
C746 C747 1.376 . S
C747 H734 0.930 . S
C747 C746 1.376 . S
C747 C748 1.388 . S
C748 H735 0.930 . S
C748 C747 1.388 . S
C748 C749 1.390 . S
C749 C748 1.390 . S
C749 C750 1.394 . S
C749 C755 1.465 . S
C750 C745 1.399 . S
C750 C749 1.394 . S
C750 C751 1.516 . S
C751 C750 1.516 . S
C751 C752 1.502 . S
C751 C753 1.561 . S
C751 C754 1.526 . S
C752 H736 0.959 . S
C752 H737 0.959 . S
C752 H738 0.961 . S
C752 C751 1.502 . S
C753 H739 0.960 . S
C753 H740 0.961 . S
C753 H741 0.959 . S
C753 C751 1.561 . S
C754 C751 1.526 . S
C754 C755 1.396 . S
C754 C759 1.390 . S
C755 C749 1.465 . S
C755 C754 1.396 . S
C755 C756 1.399 . S
C756 H742 0.929 . S
C756 C755 1.399 . S
C756 C757 1.385 . S
C757 H743 0.931 . S
C757 C756 1.385 . S
C757 C758 1.389 . S
C758 C757 1.389 . S
C758 C759 1.387 . S
C759 H744 0.930 . S
C759 C754 1.390 . S
C759 C758 1.387 . S
H760 C772 0.930 . S
H761 C774 0.930 1_556 S
H762 C775 0.930 1_556 S
H763 C779 0.959 . S
H764 C779 0.959 . S
H765 C779 0.961 . S
H766 C780 0.960 . S
H767 C780 0.961 . S
H768 C780 0.959 . S
H769 C783 0.929 1_556 S
H770 C784 0.931 1_556 S
H771 C786 0.930 . S
C772 H760 0.930 . S
C772 C773 1.399 . S
C772 C777 1.399 . S
C773 C772 1.399 . S
C773 C774 1.376 . S
C774 H761 0.930 1_554 S
C774 C773 1.376 . S
C774 C775 1.388 . S
C775 H762 0.930 1_554 S
C775 C774 1.388 . S
C775 C776 1.390 . S
C776 C775 1.390 . S
C776 C777 1.394 . S
C776 C782 1.465 . S
C777 C772 1.399 . S
C777 C776 1.394 . S
C777 C778 1.516 . S
C778 C777 1.516 . S
C778 C779 1.502 . S
C778 C780 1.561 . S
C778 C781 1.526 . S
C779 H763 0.959 . S
C779 H764 0.959 . S
C779 H765 0.961 . S
C779 C778 1.502 . S
C780 H766 0.960 . S
C780 H767 0.961 . S
C780 H768 0.959 . S
C780 C778 1.561 . S
C781 C778 1.526 . S
C781 C782 1.396 . S
C781 C786 1.390 . S
C782 C776 1.465 . S
C782 C781 1.396 . S
C782 C783 1.399 . S
C783 H769 0.929 1_554 S
C783 C782 1.399 . S
C783 C784 1.385 . S
C784 H770 0.931 1_554 S
C784 C783 1.385 . S
C784 C785 1.389 . S
C785 C784 1.389 . S
C785 C786 1.387 . S
C786 H771 0.930 . S
C786 C781 1.390 . S
C786 C785 1.387 . S
H787 C799 0.930 . S
H788 C801 0.928 . S
H789 C802 0.930 1_556 S
H790 C806 0.959 . S
H791 C806 0.959 . S
H792 C806 0.961 . S
H793 C807 0.960 . S
H794 C807 0.961 . S
H795 C807 0.959 . S
H796 C810 0.929 1_556 S
H797 C811 0.931 . S
H798 C813 0.930 . S
C799 H787 0.930 . S
C799 C800 1.399 . S
C799 C804 1.399 . S
C800 C799 1.399 . S
C800 C801 1.376 . S
C801 H788 0.928 . S
C801 C800 1.376 . S
C801 C802 1.388 . S
C802 H789 0.930 1_554 S
C802 C801 1.388 . S
C802 C803 1.390 . S
C803 C802 1.390 . S
C803 C804 1.394 . S
C803 C809 1.465 . S
C804 C799 1.399 . S
C804 C803 1.394 . S
C804 C805 1.516 . S
C805 C804 1.516 . S
C805 C806 1.502 . S
C805 C807 1.561 . S
C805 C808 1.526 . S
C806 H790 0.959 . S
C806 H791 0.959 . S
C806 H792 0.961 . S
C806 C805 1.502 . S
C807 H793 0.960 . S
C807 H794 0.961 . S
C807 H795 0.959 . S
C807 C805 1.561 . S
C808 C805 1.526 . S
C808 C809 1.396 . S
C808 C813 1.390 . S
C809 C803 1.465 . S
C809 C808 1.396 . S
C809 C810 1.399 . S
C810 H796 0.929 1_554 S
C810 C809 1.399 . S
C810 C811 1.385 . S
C811 H797 0.931 . S
C811 C810 1.385 . S
C811 C812 1.389 . S
C812 C811 1.389 . S
C812 C813 1.387 . S
C813 H798 0.930 . S
C813 C808 1.390 . S
C813 C812 1.387 . S
H814 C826 0.930 . S
H815 C828 0.930 . S
H816 C829 0.930 . S
H817 C833 0.959 . S
H818 C833 0.959 . S
H819 C833 0.961 . S
H820 C834 0.960 . S
H821 C834 0.961 . S
H822 C834 0.959 . S
H823 C837 0.929 . S
H824 C838 0.931 . S
H825 C840 0.930 . S
C826 H814 0.930 . S
C826 C827 1.399 . S
C826 C831 1.399 . S
C827 C826 1.399 . S
C827 C828 1.376 . S
C828 H815 0.930 . S
C828 C827 1.376 . S
C828 C829 1.388 . S
C829 H816 0.930 . S
C829 C828 1.388 . S
C829 C830 1.390 . S
C830 C829 1.390 . S
C830 C831 1.394 . S
C830 C836 1.465 . S
C831 C826 1.399 . S
C831 C830 1.394 . S
C831 C832 1.516 . S
C832 C831 1.516 . S
C832 C833 1.502 . S
C832 C834 1.561 1_554 S
C832 C835 1.526 . S
C833 H817 0.959 . S
C833 H818 0.959 . S
C833 H819 0.961 . S
C833 C832 1.502 . S
C834 H820 0.960 . S
C834 H821 0.961 . S
C834 H822 0.959 . S
C834 C832 1.561 1_556 S
C835 C832 1.526 . S
C835 C836 1.396 . S
C835 C840 1.390 . S
C836 C830 1.465 . S
C836 C835 1.396 . S
C836 C837 1.399 . S
C837 H823 0.929 . S
C837 C836 1.399 . S
C837 C838 1.385 . S
C838 H824 0.931 . S
C838 C837 1.385 . S
C838 C839 1.389 . S
C839 C838 1.389 . S
C839 C840 1.387 . S
C840 H825 0.930 . S
C840 C835 1.390 . S
C840 C839 1.387 . S
H841 C853 0.930 . S
H842 C855 0.930 . S
H843 C856 0.930 . S
H844 C860 0.959 1_554 S
H845 C860 0.959 . S
H846 C860 0.961 . S
H847 C861 0.960 . S
H848 C861 0.961 . S
H849 C861 0.959 . S
H850 C864 0.929 . S
H851 C865 0.931 . S
H852 C867 0.930 . S
C853 H841 0.930 . S
C853 C854 1.399 . S
C853 C858 1.399 . S
C854 C853 1.399 . S
C854 C855 1.376 . S
C855 H842 0.930 . S
C855 C854 1.376 . S
C855 C856 1.388 . S
C856 H843 0.930 . S
C856 C855 1.388 . S
C856 C857 1.390 . S
C857 C856 1.390 . S
C857 C858 1.394 . S
C857 C863 1.465 . S
C858 C853 1.399 . S
C858 C857 1.394 . S
C858 C859 1.516 . S
C859 C858 1.516 . S
C859 C860 1.502 1_554 S
C859 C861 1.561 1_554 S
C859 C862 1.526 . S
C860 H844 0.959 1_556 S
C860 H845 0.959 . S
C860 H846 0.961 . S
C860 C859 1.502 1_556 S
C861 H847 0.960 . S
C861 H848 0.961 . S
C861 H849 0.959 . S
C861 C859 1.561 1_556 S
C862 C859 1.526 . S
C862 C863 1.396 . S
C862 C867 1.390 . S
C863 C857 1.465 . S
C863 C862 1.396 . S
C863 C864 1.399 . S
C864 H850 0.929 . S
C864 C863 1.399 . S
C864 C865 1.385 . S
C865 H851 0.931 . S
C865 C864 1.385 . S
C865 C866 1.389 . S
C866 C865 1.389 . S
C866 C867 1.387 . S
C867 H852 0.930 . S
C867 C862 1.390 . S
C867 C866 1.387 . S
H868 C880 0.930 . S
H869 C882 0.930 . S
H870 C883 0.930 . S
H871 C887 0.959 . S
H872 C887 0.959 . S
H873 C887 0.961 . S
H874 C888 0.960 . S
H875 C888 0.961 . S
H876 C888 0.959 . S
H877 C891 0.929 . S
H878 C892 0.931 . S
H879 C894 0.930 . S
C880 H868 0.930 . S
C880 C881 1.399 . S
C880 C885 1.399 . S
C881 C880 1.399 . S
C881 C882 1.376 . S
C882 H869 0.930 . S
C882 C881 1.376 . S
C882 C883 1.388 . S
C883 H870 0.930 . S
C883 C882 1.388 . S
C883 C884 1.390 . S
C884 C883 1.390 . S
C884 C885 1.394 . S
C884 C890 1.465 . S
C885 C880 1.399 . S
C885 C884 1.394 . S
C885 C886 1.516 . S
C886 C885 1.516 . S
C886 C887 1.502 . S
C886 C888 1.561 . S
C886 C889 1.526 . S
C887 H871 0.959 . S
C887 H872 0.959 . S
C887 H873 0.961 . S
C887 C886 1.502 . S
C888 H874 0.960 . S
C888 H875 0.961 . S
C888 H876 0.959 . S
C888 C886 1.561 . S
C889 C886 1.526 . S
C889 C890 1.396 . S
C889 C894 1.390 . S
C890 C884 1.465 . S
C890 C889 1.396 . S
C890 C891 1.399 . S
C891 H877 0.929 . S
C891 C890 1.399 . S
C891 C892 1.385 . S
C892 H878 0.931 . S
C892 C891 1.385 . S
C892 C893 1.389 . S
C893 C892 1.389 . S
C893 C894 1.387 . S
C894 H879 0.930 . S
C894 C889 1.390 . S
C894 C893 1.387 . S
H895 C907 0.930 . S
H896 C909 0.930 . S
H897 C910 0.930 . S
H898 C914 0.959 . S
H899 C914 0.959 . S
H900 C914 0.961 . S
H901 C915 0.960 . S
H902 C915 0.961 . S
H903 C915 0.959 . S
H904 C918 0.929 . S
H905 C919 0.931 . S
H906 C921 0.930 . S
C907 H895 0.930 . S
C907 C908 1.399 . S
C907 C912 1.399 . S
C908 C907 1.399 . S
C908 C909 1.376 . S
C909 H896 0.930 . S
C909 C908 1.376 . S
C909 C910 1.388 . S
C910 H897 0.930 . S
C910 C909 1.388 . S
C910 C911 1.390 . S
C911 C910 1.390 . S
C911 C912 1.394 . S
C911 C917 1.465 . S
C912 C907 1.399 . S
C912 C911 1.394 . S
C912 C913 1.516 . S
C913 C912 1.516 . S
C913 C914 1.502 . S
C913 C915 1.561 . S
C913 C916 1.526 . S
C914 H898 0.959 . S
C914 H899 0.959 . S
C914 H900 0.961 . S
C914 C913 1.502 . S
C915 H901 0.960 . S
C915 H902 0.961 . S
C915 H903 0.959 . S
C915 C913 1.561 . S
C916 C913 1.526 . S
C916 C917 1.396 . S
C916 C921 1.390 . S
C917 C911 1.465 . S
C917 C916 1.396 . S
C917 C918 1.399 . S
C918 H904 0.929 . S
C918 C917 1.399 . S
C918 C919 1.385 . S
C919 H905 0.931 . S
C919 C918 1.385 . S
C919 C920 1.389 . S
C920 C919 1.389 . S
C920 C921 1.387 . S
C921 H906 0.930 . S
C921 C916 1.390 . S
C921 C920 1.387 . S
H922 C934 0.930 . S
H923 C936 0.930 . S
H924 C937 0.930 . S
H925 C941 0.959 . S
H926 C941 0.959 . S
H927 C941 0.961 . S
H928 C942 0.960 . S
H929 C942 0.961 . S
H930 C942 0.959 . S
H931 C945 0.929 . S
H932 C946 0.931 . S
H933 C948 0.930 . S
C934 H922 0.930 . S
C934 C935 1.399 . S
C934 C939 1.399 . S
C935 C934 1.399 . S
C935 C936 1.376 . S
C936 H923 0.930 . S
C936 C935 1.376 . S
C936 C937 1.388 . S
C937 H924 0.930 . S
C937 C936 1.388 . S
C937 C938 1.390 . S
C938 C937 1.390 . S
C938 C939 1.394 . S
C938 C944 1.465 . S
C939 C934 1.399 . S
C939 C938 1.394 . S
C939 C940 1.516 . S
C940 C939 1.516 . S
C940 C941 1.502 . S
C940 C942 1.561 . S
C940 C943 1.526 . S
C941 H925 0.959 . S
C941 H926 0.959 . S
C941 H927 0.961 . S
C941 C940 1.502 . S
C942 H928 0.960 . S
C942 H929 0.961 . S
C942 H930 0.959 . S
C942 C940 1.561 . S
C943 C940 1.526 . S
C943 C944 1.396 . S
C943 C948 1.390 . S
C944 C938 1.465 . S
C944 C943 1.396 . S
C944 C945 1.399 . S
C945 H931 0.929 . S
C945 C944 1.399 . S
C945 C946 1.385 . S
C946 H932 0.931 . S
C946 C945 1.385 . S
C946 C947 1.389 . S
C947 C946 1.389 . S
C947 C948 1.387 . S
C948 H933 0.930 . S
C948 C943 1.390 . S
C948 C947 1.387 . S
H949 C961 0.930 . S
H950 C963 0.930 . S
H951 C964 0.930 . S
H952 C968 0.959 . S
H953 C968 0.959 . S
H954 C968 0.961 . S
H955 C969 0.960 . S
H956 C969 0.961 . S
H957 C969 0.959 . S
H958 C972 0.929 . S
H959 C973 0.931 . S
H960 C975 0.930 . S
C961 H949 0.930 . S
C961 C962 1.399 . S
C961 C966 1.399 . S
C962 C961 1.399 . S
C962 C963 1.376 . S
C963 H950 0.930 . S
C963 C962 1.376 . S
C963 C964 1.388 . S
C964 H951 0.930 . S
C964 C963 1.388 . S
C964 C965 1.390 . S
C965 C964 1.390 . S
C965 C966 1.394 . S
C965 C971 1.465 . S
C966 C961 1.399 . S
C966 C965 1.394 . S
C966 C967 1.516 . S
C967 C966 1.516 . S
C967 C968 1.502 . S
C967 C969 1.561 . S
C967 C970 1.526 . S
C968 H952 0.959 . S
C968 H953 0.959 . S
C968 H954 0.961 . S
C968 C967 1.502 . S
C969 H955 0.960 . S
C969 H956 0.961 . S
C969 H957 0.959 . S
C969 C967 1.561 . S
C970 C967 1.526 . S
C970 C971 1.396 . S
C970 C975 1.390 . S
C971 C965 1.465 . S
C971 C970 1.396 . S
C971 C972 1.399 . S
C972 H958 0.929 . S
C972 C971 1.399 . S
C972 C973 1.385 . S
C973 H959 0.931 . S
C973 C972 1.385 . S
C973 C974 1.389 . S
C974 C973 1.389 . S
C974 C975 1.387 . S
C975 H960 0.930 . S
C975 C970 1.390 . S
C975 C974 1.387 . S
H976 C988 0.930 . S
H977 C990 0.930 . S
H978 C991 0.930 . S
H979 C995 0.959 . S
H980 C995 0.959 . S
H981 C995 0.961 . S
H982 C996 0.960 . S
H983 C996 0.961 . S
H984 C996 0.959 . S
H985 C999 0.929 . S
H986 C1000 0.931 . S
H987 C1002 0.930 . S
C988 H976 0.930 . S
C988 C989 1.399 . S
C988 C993 1.399 . S
C989 C988 1.399 . S
C989 C990 1.376 . S
C990 H977 0.930 . S
C990 C989 1.376 . S
C990 C991 1.388 . S
C991 H978 0.930 . S
C991 C990 1.388 . S
C991 C992 1.390 . S
C992 C991 1.390 . S
C992 C993 1.394 . S
C992 C998 1.465 . S
C993 C988 1.399 . S
C993 C992 1.394 . S
C993 C994 1.516 . S
C994 C993 1.516 . S
C994 C995 1.502 . S
C994 C996 1.561 . S
C994 C997 1.526 . S
C995 H979 0.959 . S
C995 H980 0.959 . S
C995 H981 0.961 . S
C995 C994 1.502 . S
C996 H982 0.960 . S
C996 H983 0.961 . S
C996 H984 0.959 . S
C996 C994 1.561 . S
C997 C994 1.526 . S
C997 C998 1.396 . S
C997 C1002 1.390 . S
C998 C992 1.465 . S
C998 C997 1.396 . S
C998 C999 1.399 . S
C999 H985 0.929 . S
C999 C998 1.399 . S
C999 C1000 1.385 . S
C1000 H986 0.931 . S
C1000 C999 1.385 . S
C1000 C1001 1.389 . S
C1001 C1000 1.389 . S
C1001 C1002 1.387 . S
C1002 H987 0.930 . S
C1002 C997 1.390 . S
C1002 C1001 1.387 . S
H1003 C1015 0.930 . S
H1004 C1017 0.930 . S
H1005 C1018 0.930 . S
H1006 C1022 0.959 . S
H1007 C1022 0.959 . S
H1008 C1022 0.961 . S
H1009 C1023 0.960 . S
H1010 C1023 0.961 . S
H1011 C1023 0.959 . S
H1012 C1026 0.929 . S
H1013 C1027 0.931 . S
H1014 C1029 0.930 . S
C1015 H1003 0.930 . S
C1015 C1016 1.399 . S
C1015 C1020 1.399 . S
C1016 C1015 1.399 . S
C1016 C1017 1.376 . S
C1017 H1004 0.930 . S
C1017 C1016 1.376 . S
C1017 C1018 1.388 . S
C1018 H1005 0.930 . S
C1018 C1017 1.388 . S
C1018 C1019 1.390 . S
C1019 C1018 1.390 . S
C1019 C1020 1.394 . S
C1019 C1025 1.465 . S
C1020 C1015 1.399 . S
C1020 C1019 1.394 . S
C1020 C1021 1.516 . S
C1021 C1020 1.516 . S
C1021 C1022 1.502 . S
C1021 C1023 1.561 . S
C1021 C1024 1.526 . S
C1022 H1006 0.959 . S
C1022 H1007 0.959 . S
C1022 H1008 0.961 . S
C1022 C1021 1.502 . S
C1023 H1009 0.960 . S
C1023 H1010 0.961 . S
C1023 H1011 0.959 . S
C1023 C1021 1.561 . S
C1024 C1021 1.526 . S
C1024 C1025 1.396 . S
C1024 C1029 1.390 . S
C1025 C1019 1.465 . S
C1025 C1024 1.396 . S
C1025 C1026 1.399 . S
C1026 H1012 0.929 . S
C1026 C1025 1.399 . S
C1026 C1027 1.385 . S
C1027 H1013 0.931 . S
C1027 C1026 1.385 . S
C1027 C1028 1.389 . S
C1028 C1027 1.389 . S
C1028 C1029 1.387 . S
C1029 H1014 0.930 . S
C1029 C1024 1.390 . S
C1029 C1028 1.387 . S
H1030 C1042 0.930 . S
H1031 C1044 0.930 . S
H1032 C1045 0.930 . S
H1033 C1049 0.959 . S
H1034 C1049 0.959 . S
H1035 C1049 0.961 . S
H1036 C1050 0.960 . S
H1037 C1050 0.961 . S
H1038 C1050 0.959 . S
H1039 C1053 0.929 . S
H1040 C1054 0.931 . S
H1041 C1056 0.930 . S
C1042 H1030 0.930 . S
C1042 C1043 1.399 . S
C1042 C1047 1.399 . S
C1043 C1042 1.399 . S
C1043 C1044 1.376 . S
C1044 H1031 0.930 . S
C1044 C1043 1.376 . S
C1044 C1045 1.388 . S
C1045 H1032 0.930 . S
C1045 C1044 1.388 . S
C1045 C1046 1.390 . S
C1046 C1045 1.390 . S
C1046 C1047 1.394 . S
C1046 C1052 1.465 . S
C1047 C1042 1.399 . S
C1047 C1046 1.394 . S
C1047 C1048 1.516 . S
C1048 C1047 1.516 . S
C1048 C1049 1.502 . S
C1048 C1050 1.561 . S
C1048 C1051 1.526 . S
C1049 H1033 0.959 . S
C1049 H1034 0.959 . S
C1049 H1035 0.961 . S
C1049 C1048 1.502 . S
C1050 H1036 0.960 . S
C1050 H1037 0.961 . S
C1050 H1038 0.959 . S
C1050 C1048 1.561 . S
C1051 C1048 1.526 . S
C1051 C1052 1.396 . S
C1051 C1056 1.390 . S
C1052 C1046 1.465 . S
C1052 C1051 1.396 . S
C1052 C1053 1.399 . S
C1053 H1039 0.929 . S
C1053 C1052 1.399 . S
C1053 C1054 1.385 . S
C1054 H1040 0.931 . S
C1054 C1053 1.385 . S
C1054 C1055 1.389 . S
C1055 C1054 1.389 . S
C1055 C1056 1.387 . S
C1056 H1041 0.930 . S
C1056 C1051 1.390 . S
C1056 C1055 1.387 . S
H1057 C1069 0.930 . S
H1058 C1071 0.930 . S
H1059 C1072 0.930 . S
H1060 C1076 0.959 . S
H1061 C1076 0.959 . S
H1062 C1076 0.961 . S
H1063 C1077 0.960 . S
H1064 C1077 0.961 . S
H1065 C1077 0.959 . S
H1066 C1080 0.929 . S
H1067 C1081 0.931 . S
H1068 C1083 0.930 . S
C1069 H1057 0.930 . S
C1069 C1070 1.399 . S
C1069 C1074 1.399 . S
C1070 C1069 1.399 . S
C1070 C1071 1.376 . S
C1071 H1058 0.930 . S
C1071 C1070 1.376 . S
C1071 C1072 1.388 . S
C1072 H1059 0.930 . S
C1072 C1071 1.388 . S
C1072 C1073 1.390 . S
C1073 C1072 1.390 . S
C1073 C1074 1.394 . S
C1073 C1079 1.465 . S
C1074 C1069 1.399 . S
C1074 C1073 1.394 . S
C1074 C1075 1.516 . S
C1075 C1074 1.516 . S
C1075 C1076 1.502 . S
C1075 C1077 1.561 . S
C1075 C1078 1.526 . S
C1076 H1060 0.959 . S
C1076 H1061 0.959 . S
C1076 H1062 0.961 . S
C1076 C1075 1.502 . S
C1077 H1063 0.960 . S
C1077 H1064 0.961 . S
C1077 H1065 0.959 . S
C1077 C1075 1.561 . S
C1078 C1075 1.526 . S
C1078 C1079 1.396 . S
C1078 C1083 1.390 . S
C1079 C1073 1.465 . S
C1079 C1078 1.396 . S
C1079 C1080 1.399 . S
C1080 H1066 0.929 . S
C1080 C1079 1.399 . S
C1080 C1081 1.385 . S
C1081 H1067 0.931 . S
C1081 C1080 1.385 . S
C1081 C1082 1.389 . S
C1082 C1081 1.389 . S
C1082 C1083 1.387 . S
C1083 H1068 0.930 . S
C1083 C1078 1.390 . S
C1083 C1082 1.387 . S
H1084 C1096 0.930 . S
H1085 C1098 0.930 . S
H1086 C1099 0.930 . S
H1087 C1103 0.959 . S
H1088 C1103 0.959 1_556 S
H1089 C1103 0.961 1_556 S
H1090 C1104 0.960 . S
H1091 C1104 0.961 . S
H1092 C1104 0.959 . S
H1093 C1107 0.929 . S
H1094 C1108 0.931 . S
H1095 C1110 0.930 . S
C1096 H1084 0.930 . S
C1096 C1097 1.399 1_556 S
C1096 C1101 1.399 . S
C1097 C1096 1.399 1_554 S
C1097 C1098 1.376 . S
C1098 H1085 0.930 . S
C1098 C1097 1.376 . S
C1098 C1099 1.388 . S
C1099 H1086 0.930 . S
C1099 C1098 1.388 . S
C1099 C1100 1.390 . S
C1100 C1099 1.390 . S
C1100 C1101 1.394 1_554 S
C1100 C1106 1.465 . S
C1101 C1096 1.399 . S
C1101 C1100 1.394 1_556 S
C1101 C1102 1.516 . S
C1102 C1101 1.516 . S
C1102 C1103 1.502 1_556 S
C1102 C1104 1.561 . S
C1102 C1105 1.526 . S
C1103 H1087 0.959 . S
C1103 H1088 0.959 1_554 S
C1103 H1089 0.961 1_554 S
C1103 C1102 1.502 1_554 S
C1104 H1090 0.960 . S
C1104 H1091 0.961 . S
C1104 H1092 0.959 . S
C1104 C1102 1.561 . S
C1105 C1102 1.526 . S
C1105 C1106 1.396 1_556 S
C1105 C1110 1.390 . S
C1106 C1100 1.465 . S
C1106 C1105 1.396 1_554 S
C1106 C1107 1.399 . S
C1107 H1093 0.929 . S
C1107 C1106 1.399 . S
C1107 C1108 1.385 . S
C1108 H1094 0.931 . S
C1108 C1107 1.385 . S
C1108 C1109 1.397 . S
C1109 C1108 1.397 . S
C1109 C1110 1.381 1_554 S
C1110 H1095 0.930 . S
C1110 C1105 1.390 . S
C1110 C1109 1.381 1_556 S
H1111 C1123 0.930 . S
H1112 C1125 0.930 . S
H1113 C1126 0.930 . S
H1114 C1130 0.959 . S
H1115 C1130 0.959 . S
H1116 C1130 0.961 . S
H1117 C1131 0.960 . S
H1118 C1131 0.961 . S
H1119 C1131 0.959 . S
H1120 C1134 0.929 . S
H1121 C1135 0.931 . S
H1122 C1137 0.930 . S
C1123 H1111 0.930 . S
C1123 C1124 1.399 . S
C1123 C1128 1.399 . S
C1124 C1123 1.399 . S
C1124 C1125 1.376 1_554 S
C1125 H1112 0.930 . S
C1125 C1124 1.376 1_556 S
C1125 C1126 1.388 . S
C1126 H1113 0.930 . S
C1126 C1125 1.388 . S
C1126 C1127 1.390 . S
C1127 C1126 1.390 . S
C1127 C1128 1.394 1_556 S
C1127 C1133 1.465 . S
C1128 C1123 1.399 . S
C1128 C1127 1.394 1_554 S
C1128 C1129 1.516 . S
C1129 C1128 1.516 . S
C1129 C1130 1.502 . S
C1129 C1131 1.561 . S
C1129 C1132 1.526 . S
C1130 H1114 0.959 . S
C1130 H1115 0.959 . S
C1130 H1116 0.961 . S
C1130 C1129 1.502 . S
C1131 H1117 0.960 . S
C1131 H1118 0.961 . S
C1131 H1119 0.959 . S
C1131 C1129 1.561 . S
C1132 C1129 1.526 . S
C1132 C1133 1.396 1_554 S
C1132 C1137 1.390 . S
C1133 C1127 1.465 . S
C1133 C1132 1.396 1_556 S
C1133 C1134 1.399 . S
C1134 H1120 0.929 . S
C1134 C1133 1.399 . S
C1134 C1135 1.385 . S
C1135 H1121 0.931 . S
C1135 C1134 1.385 . S
C1135 C1136 1.389 . S
C1136 C1135 1.389 . S
C1136 C1137 1.387 1_556 S
C1137 H1122 0.930 . S
C1137 C1132 1.390 . S
C1137 C1136 1.387 1_554 S
H1138 C1150 0.930 . S
H1139 C1152 0.930 . S
H1140 C1153 0.930 . S
H1141 C1157 0.959 . S
H1142 C1157 0.959 . S
H1143 C1157 0.961 . S
H1144 C1158 0.960 . S
H1145 C1158 0.961 . S
H1146 C1158 0.959 . S
H1147 C1161 0.929 . S
H1148 C1162 0.931 . S
H1149 C1164 0.930 . S
C1150 H1138 0.930 . S
C1150 C1151 1.399 1_556 S
C1150 C1155 1.399 . S
C1151 C1150 1.399 1_554 S
C1151 C1152 1.376 . S
C1152 H1139 0.930 . S
C1152 C1151 1.376 . S
C1152 C1153 1.388 . S
C1153 H1140 0.930 . S
C1153 C1152 1.388 . S
C1153 C1154 1.390 . S
C1154 C1153 1.390 . S
C1154 C1155 1.394 1_554 S
C1154 C1160 1.465 . S
C1155 C1150 1.399 . S
C1155 C1154 1.394 1_556 S
C1155 C1156 1.516 . S
C1156 C1155 1.516 . S
C1156 C1157 1.502 . S
C1156 C1158 1.561 . S
C1156 C1159 1.526 . S
C1157 H1141 0.959 . S
C1157 H1142 0.959 . S
C1157 H1143 0.961 . S
C1157 C1156 1.502 . S
C1158 H1144 0.960 . S
C1158 H1145 0.961 . S
C1158 H1146 0.959 . S
C1158 C1156 1.561 . S
C1159 C1156 1.526 . S
C1159 C1160 1.396 1_556 S
C1159 C1164 1.390 . S
C1160 C1154 1.465 . S
C1160 C1159 1.396 1_554 S
C1160 C1161 1.399 . S
C1161 H1147 0.929 . S
C1161 C1160 1.399 . S
C1161 C1162 1.385 . S
C1162 H1148 0.931 . S
C1162 C1161 1.385 . S
C1162 C1163 1.389 . S
C1163 C1162 1.389 . S
C1163 C1164 1.387 1_554 S
C1164 H1149 0.930 . S
C1164 C1159 1.390 . S
C1164 C1163 1.387 1_556 S
H1165 C1177 0.930 . S
H1166 C1179 0.930 . S
H1167 C1180 0.930 . S
H1168 C1184 0.959 . S
H1169 C1184 0.959 . S
H1170 C1184 0.961 . S
H1171 C1185 0.960 . S
H1172 C1185 0.961 . S
H1173 C1185 0.945 1_554 S
H1174 C1188 0.929 . S
H1175 C1189 0.931 . S
H1176 C1191 0.930 . S
C1177 H1165 0.930 . S
C1177 C1178 1.399 1_556 S
C1177 C1182 1.399 . S
C1178 C1177 1.399 1_554 S
C1178 C1179 1.376 . S
C1179 H1166 0.930 . S
C1179 C1178 1.376 . S
C1179 C1180 1.388 . S
C1180 H1167 0.930 . S
C1180 C1179 1.388 . S
C1180 C1181 1.390 . S
C1181 C1180 1.390 . S
C1181 C1182 1.394 1_554 S
C1181 C1187 1.465 . S
C1182 C1177 1.399 . S
C1182 C1181 1.394 1_556 S
C1182 C1183 1.516 . S
C1183 C1182 1.516 . S
C1183 C1184 1.502 . S
C1183 C1185 1.561 . S
C1183 C1186 1.526 . S
C1184 H1168 0.959 . S
C1184 H1169 0.959 . S
C1184 H1170 0.961 . S
C1184 C1183 1.502 . S
C1185 H1171 0.960 . S
C1185 H1172 0.961 . S
C1185 H1173 0.945 1_556 S
C1185 C1183 1.561 . S
C1186 C1183 1.526 . S
C1186 C1187 1.396 1_556 S
C1186 C1191 1.390 . S
C1187 C1181 1.465 . S
C1187 C1186 1.396 1_554 S
C1187 C1188 1.399 . S
C1188 H1174 0.929 . S
C1188 C1187 1.399 . S
C1188 C1189 1.385 . S
C1189 H1175 0.931 . S
C1189 C1188 1.385 . S
C1189 C1190 1.389 . S
C1190 C1189 1.389 . S
C1190 C1191 1.387 1_554 S
C1191 H1176 0.930 . S
C1191 C1186 1.390 . S
C1191 C1190 1.387 1_556 S
H1192 C1204 0.930 . S
H1193 C1206 0.930 . S
H1194 C1207 0.931 1_455 S
H1195 C1211 0.959 . S
H1196 C1211 0.959 . S
H1197 C1211 0.961 . S
H1198 C1212 0.960 . S
H1199 C1212 0.961 . S
H1200 C1212 0.959 . S
H1201 C1215 0.929 . S
H1202 C1216 0.931 . S
H1203 C1218 0.930 . S
C1204 H1192 0.930 . S
C1204 C1205 1.399 . S
C1204 C1209 1.399 . S
C1205 C1204 1.399 . S
C1205 C1206 1.376 . S
C1206 H1193 0.930 . S
C1206 C1205 1.376 . S
C1206 C1207 1.388 . S
C1207 H1194 0.931 1_655 S
C1207 C1206 1.388 . S
C1207 C1208 1.390 . S
C1208 C1207 1.390 . S
C1208 C1209 1.394 . S
C1208 C1214 1.465 1_655 S
C1209 C1204 1.399 . S
C1209 C1208 1.394 . S
C1209 C1210 1.516 . S
C1210 C1209 1.516 . S
C1210 C1211 1.502 1_655 S
C1210 C1212 1.561 . S
C1210 C1213 1.521 1_655 S
C1211 H1195 0.959 . S
C1211 H1196 0.959 . S
C1211 H1197 0.961 . S
C1211 C1210 1.502 1_455 S
C1212 H1198 0.960 . S
C1212 H1199 0.961 . S
C1212 H1200 0.959 . S
C1212 C1210 1.561 . S
C1213 C1210 1.521 1_455 S
C1213 C1214 1.398 . S
C1213 C1218 1.393 . S
C1214 C1208 1.465 1_455 S
C1214 C1213 1.398 . S
C1214 C1215 1.399 . S
C1215 H1201 0.929 . S
C1215 C1214 1.399 . S
C1215 C1216 1.385 . S
C1216 H1202 0.931 . S
C1216 C1215 1.385 . S
C1216 C1217 1.389 . S
C1217 C1216 1.389 . S
C1217 C1218 1.387 . S
C1218 H1203 0.930 . S
C1218 C1213 1.393 . S
C1218 C1217 1.387 . S
H1219 C1231 0.930 . S
H1220 C1233 0.930 . S
H1221 C1234 0.930 . S
H1222 C1238 0.959 . S
H1223 C1238 0.959 . S
H1224 C1238 0.961 . S
H1225 C1239 0.960 . S
H1226 C1239 0.961 . S
H1227 C1239 0.959 . S
H1228 C1242 0.929 . S
H1229 C1243 0.931 . S
H1230 C1245 0.930 . S
C1231 H1219 0.930 . S
C1231 C1232 1.399 1_545 S
C1231 C1236 1.399 . S
C1232 C1231 1.399 1_565 S
C1232 C1233 1.376 . S
C1233 H1220 0.930 . S
C1233 C1232 1.376 . S
C1233 C1234 1.388 . S
C1234 H1221 0.930 . S
C1234 C1233 1.388 . S
C1234 C1235 1.390 . S
C1235 C1234 1.390 . S
C1235 C1236 1.394 1_565 S
C1235 C1241 1.465 . S
C1236 C1231 1.399 . S
C1236 C1235 1.394 1_545 S
C1236 C1237 1.516 . S
C1237 C1236 1.516 . S
C1237 C1238 1.502 . S
C1237 C1239 1.561 . S
C1237 C1240 1.526 . S
C1238 H1222 0.959 . S
C1238 H1223 0.959 . S
C1238 H1224 0.961 . S
C1238 C1237 1.502 . S
C1239 H1225 0.960 . S
C1239 H1226 0.961 . S
C1239 H1227 0.959 . S
C1239 C1237 1.561 . S
C1240 C1237 1.526 . S
C1240 C1241 1.396 1_545 S
C1240 C1245 1.390 . S
C1241 C1235 1.465 . S
C1241 C1240 1.396 1_565 S
C1241 C1242 1.399 . S
C1242 H1228 0.929 . S
C1242 C1241 1.399 . S
C1242 C1243 1.385 . S
C1243 H1229 0.931 . S
C1243 C1242 1.385 . S
C1243 C1244 1.389 1_565 S
C1244 C1243 1.389 1_545 S
C1244 C1245 1.387 . S
C1245 H1230 0.930 . S
C1245 C1240 1.390 . S
C1245 C1244 1.387 . S
H1246 C1258 0.930 . S
H1247 C1260 0.930 . S
H1248 C1261 0.930 . S
H1249 C1265 0.959 . S
H1250 C1265 0.959 . S
H1251 C1265 0.961 . S
H1252 C1266 0.960 . S
H1253 C1266 0.961 . S
H1254 C1266 0.959 . S
H1255 C1269 0.929 . S
H1256 C1270 0.931 . S
H1257 C1272 0.930 . S
C1258 H1246 0.930 . S
C1258 C1259 1.399 . S
C1258 C1263 1.399 . S
C1259 C1258 1.399 . S
C1259 C1260 1.376 1_655 S
C1260 H1247 0.930 . S
C1260 C1259 1.376 1_455 S
C1260 C1261 1.388 . S
C1261 H1248 0.930 . S
C1261 C1260 1.388 . S
C1261 C1262 1.390 . S
C1262 C1261 1.390 . S
C1262 C1263 1.394 1_455 S
C1262 C1268 1.465 . S
C1263 C1258 1.399 . S
C1263 C1262 1.394 1_655 S
C1263 C1264 1.516 . S
C1264 C1263 1.516 . S
C1264 C1265 1.502 . S
C1264 C1266 1.561 . S
C1264 C1267 1.526 . S
C1265 H1249 0.959 . S
C1265 H1250 0.959 . S
C1265 H1251 0.961 . S
C1265 C1264 1.502 . S
C1266 H1252 0.960 . S
C1266 H1253 0.961 . S
C1266 H1254 0.959 . S
C1266 C1264 1.561 . S
C1267 C1264 1.526 . S
C1267 C1268 1.396 1_655 S
C1267 C1272 1.390 . S
C1268 C1262 1.465 . S
C1268 C1267 1.396 1_455 S
C1268 C1269 1.399 . S
C1269 H1255 0.929 . S
C1269 C1268 1.399 . S
C1269 C1270 1.385 . S
C1270 H1256 0.931 . S
C1270 C1269 1.385 . S
C1270 C1271 1.389 . S
C1271 C1270 1.389 . S
C1271 C1272 1.387 1_455 S
C1272 H1257 0.930 . S
C1272 C1267 1.390 . S
C1272 C1271 1.387 1_655 S
H1273 C1285 0.930 . S
H1274 C1287 0.930 . S
H1275 C1288 0.930 . S
H1276 C1292 0.959 . S
H1277 C1292 0.959 . S
H1278 C1292 0.961 . S
H1279 C1293 0.960 . S
H1280 C1293 0.961 . S
H1281 C1293 0.959 . S
H1282 C1296 0.929 . S
H1283 C1297 0.931 . S
H1284 C1299 0.930 . S
C1285 H1273 0.930 . S
C1285 C1286 1.399 1_565 S
C1285 C1290 1.399 . S
C1286 C1285 1.399 1_545 S
C1286 C1287 1.376 . S
C1287 H1274 0.930 . S
C1287 C1286 1.376 . S
C1287 C1288 1.388 . S
C1288 H1275 0.930 . S
C1288 C1287 1.388 . S
C1288 C1289 1.390 . S
C1289 C1288 1.390 . S
C1289 C1290 1.394 1_545 S
C1289 C1295 1.465 . S
C1290 C1285 1.399 . S
C1290 C1289 1.394 1_565 S
C1290 C1291 1.516 . S
C1291 C1290 1.516 . S
C1291 C1292 1.502 . S
C1291 C1293 1.561 . S
C1291 C1294 1.526 . S
C1292 H1276 0.959 . S
C1292 H1277 0.959 . S
C1292 H1278 0.961 . S
C1292 C1291 1.502 . S
C1293 H1279 0.960 . S
C1293 H1280 0.961 . S
C1293 H1281 0.959 . S
C1293 C1291 1.561 . S
C1294 C1291 1.526 . S
C1294 C1295 1.396 1_565 S
C1294 C1299 1.390 . S
C1295 C1289 1.465 . S
C1295 C1294 1.396 1_545 S
C1295 C1296 1.399 . S
C1296 H1282 0.929 . S
C1296 C1295 1.399 . S
C1296 C1297 1.385 . S
C1297 H1283 0.931 . S
C1297 C1296 1.385 . S
C1297 C1298 1.389 1_545 S
C1298 C1297 1.389 1_565 S
C1298 C1299 1.387 . S
C1299 H1284 0.930 . S
C1299 C1294 1.390 . S
C1299 C1298 1.387 . S
H1300 C1312 0.930 . S
H1301 C1314 0.930 . S
H1302 C1315 0.930 . S
H1303 C1319 0.959 . S
H1304 C1319 0.959 . S
H1305 C1319 0.961 . S
H1306 C1320 0.960 . S
H1307 C1320 0.961 . S
H1308 C1320 0.959 1_655 S
H1309 C1323 0.929 . S
H1310 C1324 0.931 . S
H1311 C1326 0.930 . S
C1312 H1300 0.930 . S
C1312 C1313 1.399 1_455 S
C1312 C1317 1.399 . S
C1313 C1312 1.399 1_655 S
C1313 C1314 1.376 . S
C1314 H1301 0.930 . S
C1314 C1313 1.376 . S
C1314 C1315 1.388 . S
C1315 H1302 0.930 . S
C1315 C1314 1.388 . S
C1315 C1316 1.390 . S
C1316 C1315 1.390 . S
C1316 C1317 1.394 1_655 S
C1316 C1322 1.465 . S
C1317 C1312 1.399 . S
C1317 C1316 1.394 1_455 S
C1317 C1318 1.516 . S
C1318 C1317 1.516 . S
C1318 C1319 1.502 . S
C1318 C1320 1.561 . S
C1318 C1321 1.526 . S
C1319 H1303 0.959 . S
C1319 H1304 0.959 . S
C1319 H1305 0.961 . S
C1319 C1318 1.502 . S
C1320 H1306 0.960 . S
C1320 H1307 0.961 . S
C1320 H1308 0.959 1_455 S
C1320 C1318 1.561 . S
C1321 C1318 1.526 . S
C1321 C1322 1.396 1_455 S
C1321 C1326 1.390 . S
C1322 C1316 1.465 . S
C1322 C1321 1.396 1_655 S
C1322 C1323 1.399 . S
C1323 H1309 0.929 . S
C1323 C1322 1.399 . S
C1323 C1324 1.385 . S
C1324 H1310 0.931 . S
C1324 C1323 1.385 . S
C1324 C1325 1.389 1_655 S
C1325 C1324 1.389 1_455 S
C1325 C1326 1.387 . S
C1326 H1311 0.930 . S
C1326 C1321 1.390 . S
C1326 C1325 1.387 . S
H1327 C1339 0.930 . S
H1328 C1341 0.930 . S
H1329 C1342 0.930 . S
H1330 C1346 0.959 . S
H1331 C1346 0.959 . S
H1332 C1346 0.961 . S
H1333 C1347 0.960 . S
H1334 C1347 0.961 . S
H1335 C1347 0.959 . S
H1336 C1350 0.929 . S
H1337 C1351 0.931 . S
H1338 C1353 0.930 . S
C1339 H1327 0.930 . S
C1339 C1340 1.399 . S
C1339 C1344 1.399 . S
C1340 C1339 1.399 . S
C1340 C1341 1.376 1_545 S
C1341 H1328 0.930 . S
C1341 C1340 1.376 1_565 S
C1341 C1342 1.388 . S
C1342 H1329 0.930 . S
C1342 C1341 1.388 . S
C1342 C1343 1.390 . S
C1343 C1342 1.390 . S
C1343 C1344 1.394 1_565 S
C1343 C1349 1.465 . S
C1344 C1339 1.399 . S
C1344 C1343 1.394 1_545 S
C1344 C1345 1.516 . S
C1345 C1344 1.516 . S
C1345 C1346 1.502 . S
C1345 C1347 1.561 . S
C1345 C1348 1.526 . S
C1346 H1330 0.959 . S
C1346 H1331 0.959 . S
C1346 H1332 0.961 . S
C1346 C1345 1.502 . S
C1347 H1333 0.960 . S
C1347 H1334 0.961 . S
C1347 H1335 0.959 . S
C1347 C1345 1.561 . S
C1348 C1345 1.526 . S
C1348 C1349 1.396 1_545 S
C1348 C1353 1.390 . S
C1349 C1343 1.465 . S
C1349 C1348 1.396 1_565 S
C1349 C1350 1.399 . S
C1350 H1336 0.929 . S
C1350 C1349 1.399 . S
C1350 C1351 1.385 . S
C1351 H1337 0.931 . S
C1351 C1350 1.385 . S
C1351 C1352 1.389 . S
C1352 C1351 1.389 . S
C1352 C1353 1.387 1_565 S
C1353 H1338 0.930 . S
C1353 C1348 1.390 . S
C1353 C1352 1.387 1_545 S
H1354 C1366 0.930 . S
H1355 C1368 0.930 . S
H1356 C1369 0.930 . S
H1357 C1373 0.959 . S
H1358 C1373 0.959 . S
H1359 C1373 0.961 . S
H1360 C1374 0.960 . S
H1361 C1374 0.961 . S
H1362 C1374 0.959 . S
H1363 C1377 0.929 . S
H1364 C1378 0.931 . S
H1365 C1380 0.930 . S
C1366 H1354 0.930 . S
C1366 C1367 1.399 1_655 S
C1366 C1371 1.400 . S
C1367 C1366 1.399 1_455 S
C1367 C1368 1.376 . S
C1368 H1355 0.930 . S
C1368 C1367 1.376 . S
C1368 C1369 1.388 . S
C1369 H1356 0.930 . S
C1369 C1368 1.388 . S
C1369 C1370 1.390 . S
C1370 C1369 1.390 . S
C1370 C1371 1.387 1_455 S
C1370 C1376 1.465 . S
C1371 C1366 1.400 . S
C1371 C1370 1.387 1_655 S
C1371 C1372 1.521 . S
C1372 C1371 1.521 . S
C1372 C1373 1.502 . S
C1372 C1374 1.561 1_655 S
C1372 C1375 1.526 . S
C1373 H1357 0.959 . S
C1373 H1358 0.959 . S
C1373 H1359 0.961 . S
C1373 C1372 1.502 . S
C1374 H1360 0.960 . S
C1374 H1361 0.961 . S
C1374 H1362 0.959 . S
C1374 C1372 1.561 1_455 S
C1375 C1372 1.526 . S
C1375 C1376 1.396 1_655 S
C1375 C1380 1.390 . S
C1376 C1370 1.465 . S
C1376 C1375 1.396 1_455 S
C1376 C1377 1.399 . S
C1377 H1363 0.929 . S
C1377 C1376 1.399 . S
C1377 C1378 1.385 . S
C1378 H1364 0.931 . S
C1378 C1377 1.385 . S
C1378 C1379 1.389 1_455 S
C1379 C1378 1.389 1_655 S
C1379 C1380 1.387 . S
C1380 H1365 0.930 . S
C1380 C1375 1.390 . S
C1380 C1379 1.387 . S
H1381 C1393 0.930 . S
H1382 C1395 0.930 . S
H1383 C1396 0.930 . S
H1384 C1400 0.959 . S
H1385 C1400 0.959 . S
H1386 C1400 0.961 . S
H1387 C1401 0.960 . S
H1388 C1401 0.961 . S
H1389 C1401 0.959 . S
H1390 C1404 0.929 . S
H1391 C1405 0.931 . S
H1392 C1407 0.930 . S
C1393 H1381 0.930 . S
C1393 C1394 1.399 . S
C1393 C1398 1.399 . S
C1394 C1393 1.399 . S
C1394 C1395 1.376 1_565 S
C1395 H1382 0.930 . S
C1395 C1394 1.376 1_545 S
C1395 C1396 1.388 . S
C1396 H1383 0.930 . S
C1396 C1395 1.388 . S
C1396 C1397 1.390 . S
C1397 C1396 1.390 . S
C1397 C1398 1.394 1_545 S
C1397 C1403 1.465 . S
C1398 C1393 1.399 . S
C1398 C1397 1.394 1_565 S
C1398 C1399 1.516 . S
C1399 C1398 1.516 . S
C1399 C1400 1.502 . S
C1399 C1401 1.561 . S
C1399 C1402 1.526 . S
C1400 H1384 0.959 . S
C1400 H1385 0.959 . S
C1400 H1386 0.961 . S
C1400 C1399 1.502 . S
C1401 H1387 0.960 . S
C1401 H1388 0.961 . S
C1401 H1389 0.959 . S
C1401 C1399 1.561 . S
C1402 C1399 1.526 . S
C1402 C1403 1.396 1_565 S
C1402 C1407 1.390 . S
C1403 C1397 1.465 . S
C1403 C1402 1.396 1_545 S
C1403 C1404 1.399 . S
C1404 H1390 0.929 . S
C1404 C1403 1.399 . S
C1404 C1405 1.385 . S
C1405 H1391 0.931 . S
C1405 C1404 1.385 . S
C1405 C1406 1.389 . S
C1406 C1405 1.389 . S
C1406 C1407 1.387 1_545 S
C1407 H1392 0.930 . S
C1407 C1402 1.390 . S
C1407 C1406 1.387 1_565 S
H1408 C1420 0.930 . S
H1409 C1422 0.930 . S
H1410 C1423 0.930 . S
H1411 C1427 0.959 . S
H1412 C1427 0.959 . S
H1413 C1427 0.961 . S
H1414 C1428 0.960 . S
H1415 C1428 0.961 . S
H1416 C1428 0.959 . S
H1417 C1431 0.929 . S
H1418 C1432 0.931 . S
H1419 C1434 0.930 . S
C1420 H1408 0.930 . S
C1420 C1421 1.399 . S
C1420 C1425 1.399 . S
C1421 C1420 1.399 . S
C1421 C1422 1.376 . S
C1422 H1409 0.930 . S
C1422 C1421 1.376 . S
C1422 C1423 1.388 . S
C1423 H1410 0.930 . S
C1423 C1422 1.388 . S
C1423 C1424 1.390 . S
C1424 C1423 1.390 . S
C1424 C1425 1.394 . S
C1424 C1430 1.465 . S
C1425 C1420 1.399 . S
C1425 C1424 1.394 . S
C1425 C1426 1.516 . S
C1426 C1425 1.516 . S
C1426 C1427 1.502 . S
C1426 C1428 1.561 . S
C1426 C1429 1.526 . S
C1427 H1411 0.959 . S
C1427 H1412 0.959 . S
C1427 H1413 0.961 . S
C1427 C1426 1.502 . S
C1428 H1414 0.960 . S
C1428 H1415 0.961 . S
C1428 H1416 0.959 . S
C1428 C1426 1.561 . S
C1429 C1426 1.526 . S
C1429 C1430 1.396 . S
C1429 C1434 1.390 . S
C1430 C1424 1.465 . S
C1430 C1429 1.396 . S
C1430 C1431 1.399 . S
C1431 H1417 0.929 . S
C1431 C1430 1.399 . S
C1431 C1432 1.385 . S
C1432 H1418 0.931 . S
C1432 C1431 1.385 . S
C1432 C1433 1.389 . S
C1433 C1432 1.389 . S
C1433 C1434 1.387 . S
C1434 H1419 0.930 . S
C1434 C1429 1.390 . S
C1434 C1433 1.387 . S
H1435 C1447 0.930 . S
H1436 C1449 0.930 . S
H1437 C1450 0.930 . S
H1438 C1454 0.959 . S
H1439 C1454 0.959 . S
H1440 C1454 0.961 . S
H1441 C1455 0.960 . S
H1442 C1455 0.961 . S
H1443 C1455 0.959 . S
H1444 C1458 0.929 . S
H1445 C1459 0.931 . S
H1446 C1461 0.930 . S
C1447 H1435 0.930 . S
C1447 C1448 1.399 . S
C1447 C1452 1.399 . S
C1448 C1447 1.399 . S
C1448 C1449 1.376 . S
C1449 H1436 0.930 . S
C1449 C1448 1.376 . S
C1449 C1450 1.388 . S
C1450 H1437 0.930 . S
C1450 C1449 1.388 . S
C1450 C1451 1.390 . S
C1451 C1450 1.390 . S
C1451 C1452 1.394 . S
C1451 C1457 1.465 . S
C1452 C1447 1.399 . S
C1452 C1451 1.394 . S
C1452 C1453 1.516 . S
C1453 C1452 1.516 . S
C1453 C1454 1.502 . S
C1453 C1455 1.561 . S
C1453 C1456 1.526 . S
C1454 H1438 0.959 . S
C1454 H1439 0.959 . S
C1454 H1440 0.961 . S
C1454 C1453 1.502 . S
C1455 H1441 0.960 . S
C1455 H1442 0.961 . S
C1455 H1443 0.959 . S
C1455 C1453 1.561 . S
C1456 C1453 1.526 . S
C1456 C1457 1.396 . S
C1456 C1461 1.390 . S
C1457 C1451 1.465 . S
C1457 C1456 1.396 . S
C1457 C1458 1.399 . S
C1458 H1444 0.929 . S
C1458 C1457 1.399 . S
C1458 C1459 1.385 . S
C1459 H1445 0.931 . S
C1459 C1458 1.385 . S
C1459 C1460 1.389 . S
C1460 C1459 1.389 . S
C1460 C1461 1.387 . S
C1461 H1446 0.930 . S
C1461 C1456 1.390 . S
C1461 C1460 1.387 . S
H1462 C1474 0.930 . S
H1463 C1476 0.930 . S
H1464 C1477 0.930 . S
H1465 C1481 0.959 . S
H1466 C1481 0.959 . S
H1467 C1481 0.961 . S
H1468 C1482 0.960 . S
H1469 C1482 0.961 . S
H1470 C1482 0.959 . S
H1471 C1485 0.929 . S
H1472 C1486 0.931 . S
H1473 C1488 0.930 . S
C1474 H1462 0.930 . S
C1474 C1475 1.399 . S
C1474 C1479 1.399 . S
C1475 C1474 1.399 . S
C1475 C1476 1.376 . S
C1476 H1463 0.930 . S
C1476 C1475 1.376 . S
C1476 C1477 1.388 . S
C1477 H1464 0.930 . S
C1477 C1476 1.388 . S
C1477 C1478 1.390 . S
C1478 C1477 1.390 . S
C1478 C1479 1.394 . S
C1478 C1484 1.465 . S
C1479 C1474 1.399 . S
C1479 C1478 1.394 . S
C1479 C1480 1.516 . S
C1480 C1479 1.516 . S
C1480 C1481 1.502 . S
C1480 C1482 1.561 . S
C1480 C1483 1.526 . S
C1481 H1465 0.959 . S
C1481 H1466 0.959 . S
C1481 H1467 0.961 . S
C1481 C1480 1.502 . S
C1482 H1468 0.960 . S
C1482 H1469 0.961 . S
C1482 H1470 0.959 . S
C1482 C1480 1.561 . S
C1483 C1480 1.526 . S
C1483 C1484 1.396 . S
C1483 C1488 1.390 . S
C1484 C1478 1.465 . S
C1484 C1483 1.396 . S
C1484 C1485 1.399 . S
C1485 H1471 0.929 . S
C1485 C1484 1.399 . S
C1485 C1486 1.385 . S
C1486 H1472 0.931 . S
C1486 C1485 1.385 . S
C1486 C1487 1.389 . S
C1487 C1486 1.389 . S
C1487 C1488 1.387 . S
C1488 H1473 0.930 . S
C1488 C1483 1.390 . S
C1488 C1487 1.387 . S
H1489 C1501 0.930 . S
H1490 C1503 0.930 . S
H1491 C1504 0.930 . S
H1492 C1508 0.959 . S
H1493 C1508 0.959 . S
H1494 C1508 0.961 . S
H1495 C1509 0.960 . S
H1496 C1509 0.961 . S
H1497 C1509 0.959 . S
H1498 C1512 0.929 . S
H1499 C1513 0.931 . S
H1500 C1515 0.930 . S
C1501 H1489 0.930 . S
C1501 C1502 1.399 . S
C1501 C1506 1.399 . S
C1502 C1501 1.399 . S
C1502 C1503 1.376 . S
C1503 H1490 0.930 . S
C1503 C1502 1.376 . S
C1503 C1504 1.388 . S
C1504 H1491 0.930 . S
C1504 C1503 1.388 . S
C1504 C1505 1.390 . S
C1505 C1504 1.390 . S
C1505 C1506 1.394 . S
C1505 C1511 1.465 . S
C1506 C1501 1.399 . S
C1506 C1505 1.394 . S
C1506 C1507 1.516 . S
C1507 C1506 1.516 . S
C1507 C1508 1.502 . S
C1507 C1509 1.561 . S
C1507 C1510 1.526 . S
C1508 H1492 0.959 . S
C1508 H1493 0.959 . S
C1508 H1494 0.961 . S
C1508 C1507 1.502 . S
C1509 H1495 0.960 . S
C1509 H1496 0.961 . S
C1509 H1497 0.959 . S
C1509 C1507 1.561 . S
C1510 C1507 1.526 . S
C1510 C1511 1.396 . S
C1510 C1515 1.390 . S
C1511 C1505 1.465 . S
C1511 C1510 1.396 . S
C1511 C1512 1.399 . S
C1512 H1498 0.929 . S
C1512 C1511 1.399 . S
C1512 C1513 1.385 . S
C1513 H1499 0.931 . S
C1513 C1512 1.385 . S
C1513 C1514 1.389 . S
C1514 C1513 1.389 . S
C1514 C1515 1.387 . S
C1515 H1500 0.930 . S
C1515 C1510 1.390 . S
C1515 C1514 1.387 . S
H1516 C1528 0.930 . S
H1517 C1530 0.930 . S
H1518 C1531 0.930 . S
H1519 C1535 0.959 . S
H1520 C1535 0.959 . S
H1521 C1535 0.961 . S
H1522 C1536 0.960 . S
H1523 C1536 0.961 . S
H1524 C1536 0.959 . S
H1525 C1539 0.929 . S
H1526 C1540 0.931 . S
H1527 C1542 0.930 . S
C1528 H1516 0.930 . S
C1528 C1529 1.399 . S
C1528 C1533 1.399 . S
C1529 C1528 1.399 . S
C1529 C1530 1.376 . S
C1530 H1517 0.930 . S
C1530 C1529 1.376 . S
C1530 C1531 1.388 . S
C1531 H1518 0.930 . S
C1531 C1530 1.388 . S
C1531 C1532 1.390 . S
C1532 C1531 1.390 . S
C1532 C1533 1.394 . S
C1532 C1538 1.465 . S
C1533 C1528 1.399 . S
C1533 C1532 1.394 . S
C1533 C1534 1.516 . S
C1534 C1533 1.516 . S
C1534 C1535 1.502 . S
C1534 C1536 1.561 . S
C1534 C1537 1.526 . S
C1535 H1519 0.959 . S
C1535 H1520 0.959 . S
C1535 H1521 0.961 . S
C1535 C1534 1.502 . S
C1536 H1522 0.960 . S
C1536 H1523 0.961 . S
C1536 H1524 0.959 . S
C1536 C1534 1.561 . S
C1537 C1534 1.526 . S
C1537 C1538 1.396 . S
C1537 C1542 1.390 . S
C1538 C1532 1.465 . S
C1538 C1537 1.396 . S
C1538 C1539 1.399 . S
C1539 H1525 0.929 . S
C1539 C1538 1.399 . S
C1539 C1540 1.385 . S
C1540 H1526 0.931 . S
C1540 C1539 1.385 . S
C1540 C1541 1.389 . S
C1541 C1540 1.389 . S
C1541 C1542 1.387 . S
C1542 H1527 0.930 . S
C1542 C1537 1.390 . S
C1542 C1541 1.387 . S
H1543 C1555 0.930 . S
H1544 C1557 0.930 . S
H1545 C1558 0.930 . S
H1546 C1562 0.959 . S
H1547 C1562 0.959 . S
H1548 C1562 0.961 . S
H1549 C1563 0.960 . S
H1550 C1563 0.961 . S
H1551 C1563 0.959 . S
H1552 C1566 0.929 . S
H1553 C1567 0.931 . S
H1554 C1569 0.930 . S
C1555 H1543 0.930 . S
C1555 C1556 1.399 . S
C1555 C1560 1.399 . S
C1556 C1555 1.399 . S
C1556 C1557 1.376 . S
C1557 H1544 0.930 . S
C1557 C1556 1.376 . S
C1557 C1558 1.388 . S
C1558 H1545 0.930 . S
C1558 C1557 1.388 . S
C1558 C1559 1.390 . S
C1559 C1558 1.390 . S
C1559 C1560 1.394 . S
C1559 C1565 1.465 . S
C1560 C1555 1.399 . S
C1560 C1559 1.394 . S
C1560 C1561 1.516 . S
C1561 C1560 1.516 . S
C1561 C1562 1.502 . S
C1561 C1563 1.561 . S
C1561 C1564 1.526 . S
C1562 H1546 0.959 . S
C1562 H1547 0.959 . S
C1562 H1548 0.961 . S
C1562 C1561 1.502 . S
C1563 H1549 0.960 . S
C1563 H1550 0.961 . S
C1563 H1551 0.959 . S
C1563 C1561 1.561 . S
C1564 C1561 1.526 . S
C1564 C1565 1.396 . S
C1564 C1569 1.390 . S
C1565 C1559 1.465 . S
C1565 C1564 1.396 . S
C1565 C1566 1.399 . S
C1566 H1552 0.929 . S
C1566 C1565 1.399 . S
C1566 C1567 1.385 . S
C1567 H1553 0.931 . S
C1567 C1566 1.385 . S
C1567 C1568 1.389 . S
C1568 C1567 1.389 . S
C1568 C1569 1.387 . S
C1569 H1554 0.930 . S
C1569 C1564 1.390 . S
C1569 C1568 1.387 . S
H1570 C1582 0.930 . S
H1571 C1584 0.930 . S
H1572 C1585 0.930 . S
H1573 C1589 0.959 . S
H1574 C1589 0.959 . S
H1575 C1589 0.961 . S
H1576 C1590 0.960 . S
H1577 C1590 0.961 . S
H1578 C1590 0.959 . S
H1579 C1593 0.929 . S
H1580 C1594 0.931 . S
H1581 C1596 0.930 . S
C1582 H1570 0.930 . S
C1582 C1583 1.399 . S
C1582 C1587 1.399 . S
C1583 C1582 1.399 . S
C1583 C1584 1.376 . S
C1584 H1571 0.930 . S
C1584 C1583 1.376 . S
C1584 C1585 1.388 . S
C1585 H1572 0.930 . S
C1585 C1584 1.388 . S
C1585 C1586 1.390 . S
C1586 C1585 1.390 . S
C1586 C1587 1.394 . S
C1586 C1592 1.465 . S
C1587 C1582 1.399 . S
C1587 C1586 1.394 . S
C1587 C1588 1.516 . S
C1588 C1587 1.516 . S
C1588 C1589 1.502 . S
C1588 C1590 1.561 . S
C1588 C1591 1.526 . S
C1589 H1573 0.959 . S
C1589 H1574 0.959 . S
C1589 H1575 0.961 . S
C1589 C1588 1.502 . S
C1590 H1576 0.960 . S
C1590 H1577 0.961 . S
C1590 H1578 0.959 . S
C1590 C1588 1.561 . S
C1591 C1588 1.526 . S
C1591 C1592 1.396 . S
C1591 C1596 1.390 . S
C1592 C1586 1.465 . S
C1592 C1591 1.396 . S
C1592 C1593 1.399 . S
C1593 H1579 0.929 . S
C1593 C1592 1.399 . S
C1593 C1594 1.385 . S
C1594 H1580 0.931 . S
C1594 C1593 1.385 . S
C1594 C1595 1.389 . S
C1595 C1594 1.389 . S
C1595 C1596 1.387 . S
C1596 H1581 0.930 . S
C1596 C1591 1.390 . S
C1596 C1595 1.387 . S
H1597 C1609 0.930 . S
H1598 C1611 0.930 . S
H1599 C1612 0.930 . S
H1600 C1616 0.959 . S
H1601 C1616 0.959 . S
H1602 C1616 0.961 . S
H1603 C1617 0.960 . S
H1604 C1617 0.961 . S
H1605 C1617 0.959 . S
H1606 C1620 0.929 . S
H1607 C1621 0.931 . S
H1608 C1623 0.930 . S
C1609 H1597 0.930 . S
C1609 C1610 1.399 . S
C1609 C1614 1.399 . S
C1610 C1609 1.399 . S
C1610 C1611 1.376 . S
C1611 H1598 0.930 . S
C1611 C1610 1.376 . S
C1611 C1612 1.388 . S
C1612 H1599 0.930 . S
C1612 C1611 1.388 . S
C1612 C1613 1.390 . S
C1613 C1612 1.390 . S
C1613 C1614 1.394 . S
C1613 C1619 1.465 . S
C1614 C1609 1.399 . S
C1614 C1613 1.394 . S
C1614 C1615 1.516 . S
C1615 C1614 1.516 . S
C1615 C1616 1.502 . S
C1615 C1617 1.561 . S
C1615 C1618 1.526 . S
C1616 H1600 0.959 . S
C1616 H1601 0.959 . S
C1616 H1602 0.961 . S
C1616 C1615 1.502 . S
C1617 H1603 0.960 . S
C1617 H1604 0.961 . S
C1617 H1605 0.959 . S
C1617 C1615 1.561 . S
C1618 C1615 1.526 . S
C1618 C1619 1.396 . S
C1618 C1623 1.390 . S
C1619 C1613 1.465 . S
C1619 C1618 1.396 . S
C1619 C1620 1.399 . S
C1620 H1606 0.929 . S
C1620 C1619 1.399 . S
C1620 C1621 1.385 . S
C1621 H1607 0.931 . S
C1621 C1620 1.385 . S
C1621 C1622 1.389 . S
C1622 C1621 1.389 . S
C1622 C1623 1.387 . S
C1623 H1608 0.930 . S
C1623 C1618 1.390 . S
C1623 C1622 1.387 . S
C557 C9 1.349 . S
C569 C519 1.380 . S
C584 C43 1.447 . S
C596 C417 1.426 . S
C611 C451 1.441 . S
C623 C77 1.397 . S
C638 C111 1.355 . S
C650 C485 1.402 . S
C665 C145 1.370 . S
C677 C315 1.422 . S
C692 C349 1.377 . S
C704 C179 1.350 . S
C719 C383 1.422 . S
C731 C213 1.371 . S
C746 C281 1.416 . S
C758 C247 1.446 . S
C773 C107 1.520 . S
C785 C33 1.508 . S
C800 C5 1.529 . S
C812 C67 1.515 . S
C827 C101 1.512 . S
C839 C39 1.504 . S
C854 C135 1.523 . S
C866 C73 1.508 . S
C881 C175 1.524 . S
C893 C169 1.534 . S
C908 C209 1.531 . S
C920 C203 1.532 . S
C935 C243 1.511 . S
C947 C237 1.506 . S
C962 C141 1.526 . S
C974 C271 1.534 . S
C989 C379 1.512 . S
C1001 C305 1.506 . S
C1016 C339 1.524 . S
C1028 C277 1.534 . S
C1043 C311 1.521 . S
C1055 C373 1.509 . S
C1070 C345 1.522 . S
C1082 C407 1.533 . S
C1097 C447 1.505 . S
C1109 C441 1.510 . S
C1124 C481 1.519 . S
C1136 C475 1.530 1_556 S
C1151 C515 1.510 . S
C1163 C509 1.508 . S
C1178 C413 1.527 . S
C1190 C543 1.515 . S
C1205 C206 1.401 . S
C1217 C2 1.400 . S
C1232 C240 1.366 . S
C1244 C36 1.364 . S
C1259 C70 1.387 . S
C1271 C138 1.391 . S
C1286 C172 1.372 . S
C1298 C104 1.368 . S
C1313 C88 1.486 . S
C1325 C156 1.492 . S
C1340 C190 1.491 . S
C1352 C122 1.486 . S
C1367 C20 1.483 . S
C1379 C224 1.488 . S
C1394 C258 1.492 . S
C1406 C54 1.488 . S
C1421 C478 1.399 . S
C1433 C274 1.396 . S
C1448 C512 1.392 . S
C1460 C308 1.395 . S
C1475 C410 1.398 . S
C1487 C342 1.395 . S
C1502 C376 1.373 . S
C1514 C444 1.369 . S
C1529 C428 1.485 . S
C1541 C360 1.491 . S
C1556 C394 1.508 . S
C1568 C462 1.513 . S
C1583 C292 1.485 . S
C1595 C496 1.489 . S
C1610 C530 1.483 . S
C1622 C326 1.482 . S
