# Generated by pormake.
# Topology sqp, (5)-cn, num edge types: 1
# Building blocks:
#     Node 0, Type 0, BuildingBlock: XOMCOT_clean_sbu_0, # of connection points: 5
#     Node 1, Type 0, BuildingBlock: XOMCOT_clean_sbu_0, # of connection points: 5
#     Node 2, Type 0, BuildingBlock: XOMCOT_clean_sbu_0, # of connection points: 5
#     Node 3, Type 0, BuildingBlock: XOMCOT_clean_sbu_0, # of connection points: 5
#     Edge 4, Type (0, 0), BuildingBlock: EZIPEK_clean_linker_0, # of connection points: 2
#     Edge 5, Type (0, 0), BuildingBlock: EZIPEK_clean_linker_0, # of connection points: 2
#     Edge 6, Type (0, 0), BuildingBlock: EZIPEK_clean_linker_0, # of connection points: 2
#     Edge 7, Type (0, 0), BuildingBlock: EZIPEK_clean_linker_0, # of connection points: 2
#     Edge 8, Type (0, 0), BuildingBlock: EZIPEK_clean_linker_0, # of connection points: 2
#     Edge 9, Type (0, 0), BuildingBlock: EZIPEK_clean_linker_0, # of connection points: 2
#     Edge 10, Type (0, 0), BuildingBlock: EZIPEK_clean_linker_0, # of connection points: 2
#     Edge 11, Type (0, 0), BuildingBlock: EZIPEK_clean_linker_0, # of connection points: 2
#     Edge 12, Type (0, 0), BuildingBlock: EZIPEK_clean_linker_0, # of connection points: 2
#     Edge 13, Type (0, 0), BuildingBlock: EZIPEK_clean_linker_0, # of connection points: 2
# Relax obj value: 0.121
# Max RMSD: 0.201
# Mean RMSD: 0.201
data_MOF--net-sqp--node1-XOMCOT_clean_sbu_0--edge1-EZIPEK_clean_linker_0
_symmetry_space_group_name_H-M    P1
_symmetry_Int_Tables_number       1
_symmetry_cell_setting            triclinic
loop_
_symmetry_equiv_pos_as_xyz
'x, y, z'
_cell_length_a     18.135422
_cell_length_b     14.661814
_cell_length_c     36.971848
_cell_angle_alpha  90.107456
_cell_angle_beta   86.992869
_cell_angle_gamma 90.646385
loop_
_atom_site_label
_atom_site_type_symbol
_atom_site_fract_x
_atom_site_fract_y
_atom_site_fract_z
_atom_type_partial_charge
Co0 Co 0.99942 0.03174 0.30393 0.0
C1 C 0.88902 0.16997 0.28119 0.0
C2 C 0.95131 0.2199 0.3248 0.0
C3 C 0.90119 0.28527 0.31653 0.0
N4 N 0.9435 0.14623 0.30309 0.0
N5 N 0.86195 0.25345 0.28936 0.0
H6 H 0.86859 0.12747 0.2599 0.0
H7 H 0.98888 0.22582 0.34633 0.0
C8 C 0.13179 0.16139 0.2975 0.0
O9 O 0.11719 0.19578 0.32976 0.0
N10 N 0.05628 0.9201 0.30371 0.0
C11 C 0.04577 0.84742 0.32579 0.0
C12 C 0.0999 0.78414 0.31729 0.0
C13 C 0.11628 0.89998 0.282 0.0
N14 N 0.14399 0.81771 0.28989 0.0
C15 C 0.95602 0.06127 0.37721 0.0
C16 C 0.09132 0.03801 0.40671 0.0
C17 C 0.02842 0.05256 0.42958 0.0
C18 C 0.96036 0.06422 0.41455 0.0
C19 C 0.08434 0.03491 0.36917 0.0
N20 N 1.01759 0.04959 0.35482 0.0
H21 H 0.90238 0.06753 0.36609 0.0
H22 H 0.13186 0.01866 0.35177 0.0
H23 H 1.00235 0.84139 0.34688 0.0
H24 H 0.1394 0.94431 0.26086 0.0
O25 O 0.90999 0.9616 0.31242 0.0
O26 O 0.9603 0.99525 0.25807 0.0
O27 O 0.09105 0.09924 0.28445 0.0
C28 C 0.9074 0.95479 0.27759 0.0
H29 H 0.89313 0.35054 0.3298 0.0
H30 H 0.10664 0.71878 0.3302 0.0
H31 H 0.14446 0.0263 0.41784 0.0
H32 H 0.91064 0.07366 0.43165 0.0
Co33 Co 0.04648 0.98574 0.70991 0.0
C34 C 0.16652 0.13433 0.70536 0.0
C35 C 0.08963 0.14508 0.75093 0.0
C36 C 0.14254 0.21146 0.75406 0.0
N37 N 0.10289 0.09704 0.72011 0.0
N38 N 0.19105 0.20444 0.72559 0.0
H39 H 0.19799 0.10776 0.68229 0.0
H40 H 0.04727 0.12884 0.77138 0.0
C41 C 0.9309 0.12776 0.72113 0.0
O42 O 0.97213 0.18289 0.70043 0.0
N43 N 0.9886 0.87617 0.70289 0.0
C44 C 0.98807 0.81915 0.67426 0.0
C45 C 0.9358 0.75132 0.68172 0.0
C46 C 0.93791 0.84203 0.72739 0.0
N47 N 0.9047 0.76612 0.71516 0.0
C48 C 0.09645 0.02355 0.6374 0.0
C49 C 0.95981 0.03955 0.60856 0.0
C50 C 0.02376 0.04375 0.58564 0.0
C51 C 0.09248 0.03617 0.60037 0.0
C52 C 0.96635 0.02612 0.64576 0.0
N53 N 0.03433 0.02086 0.65991 0.0
H54 H 0.14972 1.00984 0.64741 0.0
H55 H 0.91688 1.01506 0.66279 0.0
H56 H 1.02268 0.82662 0.64969 0.0
H57 H 0.92537 0.87233 0.75369 0.0
O58 O 0.13501 0.91756 0.70138 0.0
O59 O 0.07801 0.93602 0.75528 0.0
O60 O 0.95231 0.04706 0.72752 0.0
C61 C 0.133 0.90132 0.73581 0.0
H62 H 0.14877 0.25617 0.77707 0.0
H63 H 0.92185 0.69531 0.66414 0.0
H64 H 0.90566 0.04221 0.5976 0.0
H65 H 0.14266 0.03609 0.5831 0.0
Co66 Co 0.5168 0.48486 0.79727 0.0
C67 C 0.38922 0.60708 0.78577 0.0
C68 C 0.47673 0.67512 0.8121 0.0
C69 C 0.42077 0.73591 0.80867 0.0
N70 N 0.45773 0.59433 0.79747 0.0
N71 N 0.36608 0.6929 0.79218 0.0
H72 H 0.35698 0.55619 0.77241 0.0
H73 H 0.5277 0.69004 0.8244 0.0
C74 C 0.67755 0.55173 0.79294 0.0
O75 O 0.69428 0.49172 0.81748 0.0
N76 N 0.57473 0.37551 0.79791 0.0
C77 C 0.56703 0.30486 0.8212 0.0
C78 C 0.61884 0.2403 0.81147 0.0
C79 C 0.62944 0.352 0.77382 0.0
N80 N 0.6586 0.27113 0.78211 0.0
C81 C 0.46625 0.45147 0.87043 0.0
C82 C 0.56405 0.56316 0.9048 0.0
C83 C 0.50981 0.51516 0.92542 0.0
C84 C 0.46052 0.45902 0.90796 0.0
C85 C 0.56797 0.55365 0.86709 0.0
N86 N 0.52015 0.49697 0.85009 0.0
H87 H 0.42657 0.40803 0.85806 0.0
H88 H 0.60771 0.59527 0.85212 0.0
H89 H 0.52667 0.29965 0.8436 0.0
H90 H 0.64884 0.39426 0.75123 0.0
O91 O 0.42919 0.40868 0.79566 0.0
O92 O 0.49375 0.45702 0.74709 0.0
O93 O 0.60985 0.56225 0.78519 0.0
C94 C 0.43867 0.4083 0.76068 0.0
H95 H 0.42127 0.80733 0.81618 0.0
H96 H 0.6286 0.17726 0.82555 0.0
H97 H 0.60235 0.60839 0.91772 0.0
H98 H 0.41764 0.42142 0.92328 0.0
Co99 Co 0.52987 0.53116 0.20626 0.0
C100 C 0.64139 0.67138 0.22679 0.0
C101 C 0.57455 0.72073 0.18514 0.0
C102 C 0.6255 0.78728 0.19251 0.0
N103 N 0.58481 0.64692 0.20622 0.0
N104 N 0.6674 0.75556 0.21842 0.0
H105 H 0.66376 0.62923 0.24742 0.0
H106 H 0.53474 0.72588 0.16464 0.0
C107 C 0.39586 0.65677 0.21385 0.0
O108 O 0.40747 0.68731 0.18075 0.0
N109 N 0.47439 0.41789 0.20708 0.0
C110 C 0.48488 0.34503 0.18513 0.0
C111 C 0.43069 0.28069 0.19382 0.0
C112 C 0.41481 0.39701 0.22893 0.0
N113 N 0.38713 0.31407 0.22124 0.0
C114 C 0.56855 0.56231 0.13245 0.0
C115 C 0.43264 0.52523 0.10495 0.0
C116 C 0.4939 0.54253 0.08119 0.0
C117 C 0.56217 0.56185 0.09521 0.0
C118 C 0.44148 0.52679 0.14236 0.0
N119 N 0.50857 0.54742 0.1557 0.0
H120 H 0.62268 0.57265 0.14279 0.0
H121 H 0.39532 0.50835 0.16052 0.0
H122 H 0.52789 0.33994 0.16385 0.0
H123 H 0.39156 0.44155 0.24982 0.0
O124 O 0.61982 0.4637 0.19681 0.0
O125 O 0.57209 0.49558 0.25158 0.0
O126 O 0.43818 0.59705 0.22688 0.0
C127 C 0.62399 0.45594 0.23154 0.0
H128 H 0.63207 0.85333 0.17963 0.0
H129 H 0.42322 0.21517 0.1809 0.0
H130 H 0.37952 0.50751 0.09467 0.0
H131 H 0.6108 0.57322 0.07742 0.0
C132 C 0.03428 0.1338 0.48903 0.0
C133 C 0.03135 0.05054 0.4695 0.0
C134 C 1.01341 0.96465 0.52616 0.0
C135 C 1.02036 0.0474 0.54575 0.0
N136 N 0.04424 0.20933 0.54712 0.0
N137 N 0.02596 0.88621 0.46831 0.0
C138 C 0.03261 0.13172 0.52752 0.0
C139 C 0.02315 0.96572 0.48777 0.0
N140 N 0.03707 0.2148 0.47067 0.0
N141 N 0.99649 0.8853 0.54436 0.0
H142 H 0.03076 0.88433 0.44008 0.0
H143 H 0.02858 0.8218 0.47988 0.0
H144 H 0.99152 0.8811 0.57254 0.0
H145 H 0.98247 0.82447 0.5318 0.0
H146 H 0.03057 0.27818 0.48306 0.0
H147 H 0.04219 0.21874 0.44247 0.0
H148 H 0.06217 0.27103 0.53571 0.0
H149 H 0.03956 0.21111 0.57536 0.0
C150 C 0.51689 0.452 0.02467 0.0
C151 C 0.48981 0.53281 0.0415 0.0
C152 C 0.46957 0.5993 0.98215 0.0
C153 C 0.50412 0.52253 0.96541 0.0
N154 N 0.56943 0.38101 0.97012 0.0
N155 N 0.44687 0.68715 0.03723 0.0
C156 C 0.53001 0.45006 0.98651 0.0
C157 C 0.46757 0.6075 0.02052 0.0
N158 N 0.52893 0.3767 0.04524 0.0
N159 N 0.43708 0.66298 0.9614 0.0
H160 H 0.44255 0.69451 0.06533 0.0
H161 H 0.43843 0.74756 0.02336 0.0
H162 H 0.43839 0.65983 0.93319 0.0
H163 H 0.40415 0.71517 0.97213 0.0
H164 H 0.54138 0.31285 0.03433 0.0
H165 H 0.52004 0.37585 0.07335 0.0
H166 H 0.59677 0.33155 0.98431 0.0
H167 H 0.58016 0.37719 0.94216 0.0
C168 C 0.26758 0.15887 0.28081 0.0
C169 C 0.19691 0.19596 0.27566 0.0
C170 C 0.25176 0.30126 0.2301 0.0
C171 C 0.3228 0.27136 0.23846 0.0
N172 N 0.40056 0.17976 0.27393 0.0
N173 N 0.12084 0.30627 0.24743 0.0
C174 C 0.33131 0.20198 0.26432 0.0
C175 C 0.18863 0.26814 0.25073 0.0
N176 N 0.27355 0.08106 0.30063 0.0
N177 N 0.24509 0.35949 0.20171 0.0
H178 H 0.07308 0.28183 0.26132 0.0
H179 H 0.11247 0.36534 0.2327 0.0
H180 H 0.29077 0.38372 0.18612 0.0
H181 H 0.19472 0.37782 0.19176 0.0
H182 H 0.32265 0.0457 0.3025 0.0
H183 H 0.22785 0.04704 0.31251 0.0
H184 H 0.41079 0.13685 0.29546 0.0
H185 H 0.44814 0.20988 0.26194 0.0
C186 C 0.72869 0.28627 0.28801 0.0
C187 C 0.80178 0.29979 0.27358 0.0
C188 C 0.75992 0.42095 0.23419 0.0
C189 C 0.68536 0.40361 0.24687 0.0
N190 N 0.59797 0.30557 0.2802 0.0
N191 N 0.88688 0.36857 0.2298 0.0
C192 C 0.66943 0.33254 0.27238 0.0
C193 C 0.81718 0.36369 0.24563 0.0
N194 N 0.71634 0.23034 0.31724 0.0
N195 N 0.77677 0.49451 0.21251 0.0
H196 H 0.92991 0.32857 0.23834 0.0
H197 H 0.90075 0.40631 0.20656 0.0
H198 H 0.73735 0.53846 0.20325 0.0
H199 H 0.83052 0.51678 0.20597 0.0
H200 H 0.66566 0.22488 0.33171 0.0
H201 H 0.7586 0.19428 0.32864 0.0
H202 H 0.5835 0.24804 0.29557 0.0
H203 H 0.553 0.33525 0.26857 0.0
C204 C 0.7133 0.86551 0.26217 0.0
C205 C 0.7279 0.80301 0.23377 0.0
C206 C 0.86057 0.83455 0.23542 0.0
C207 C 0.84561 0.90416 0.26155 0.0
N208 N 0.75569 0.99452 0.29632 0.0
N209 N 0.81196 0.73444 0.18975 0.0
C210 C 0.77138 0.92179 0.27414 0.0
C211 C 0.80065 0.78947 0.21931 0.0
N212 N 0.64367 0.86956 0.27806 0.0
N213 N 0.93158 0.80775 0.22751 0.0
H214 H 0.76894 0.69924 0.17801 0.0
H215 H 0.86263 0.72894 0.17536 0.0
H216 H 0.97698 0.83664 0.23954 0.0
H217 H 0.94514 0.75111 0.21159 0.0
H218 H 0.63054 0.90598 0.30169 0.0
H219 H 0.59987 0.83012 0.26919 0.0
H220 H 0.70231 1.01701 0.30264 0.0
H221 H 0.79572 0.03768 0.30624 0.0
C222 C 0.27919 0.79572 0.28295 0.0
C223 C 0.2072 0.77391 0.27229 0.0
C224 C 0.25874 0.66377 0.228 0.0
C225 C 0.3313 0.69212 0.23605 0.0
N226 N 0.41161 0.79034 0.269 0.0
N227 N 0.12703 0.69397 0.23326 0.0
C228 C 0.34187 0.75922 0.26315 0.0
C229 C 0.19665 0.70945 0.24447 0.0
N230 N 0.28705 0.84998 0.31258 0.0
N231 N 0.24927 0.59129 0.20539 0.0
H232 H 0.08067 0.72498 0.24553 0.0
H233 H 0.11552 0.65557 0.21049 0.0
H234 H 0.29345 0.55598 0.19324 0.0
H235 H 0.19825 0.56115 0.20107 0.0
H236 H 0.33724 0.86222 0.32422 0.0
H237 H 0.24187 0.87774 0.32719 0.0
H238 H 0.42277 0.84603 0.28541 0.0
H239 H 0.45871 0.76378 0.25561 0.0
C240 C 0.32049 0.79566 0.74686 0.0
C241 C 0.3055 0.73733 0.77656 0.0
C242 C 0.17479 0.77675 0.77727 0.0
C243 C 0.19205 0.84617 0.75116 0.0
N244 N 0.28678 0.93208 0.71642 0.0
N245 N 0.22155 0.67692 0.82298 0.0
C246 C 0.26638 0.85825 0.73724 0.0
C247 C 0.23344 0.72913 0.79268 0.0
N248 N 0.38672 0.79047 0.72762 0.0
N249 N 0.10306 0.75225 0.78576 0.0
H250 H 0.26364 0.63985 0.83408 0.0
H251 H 0.17169 0.67567 0.83831 0.0
H252 H 0.05844 0.78104 0.77354 0.0
H253 H 0.08814 0.6965 0.80207 0.0
H254 H 0.39803 0.82482 0.70328 0.0
H255 H 0.42744 0.74435 0.73401 0.0
H256 H 0.34157 0.9484 0.70902 0.0
H257 H 0.2507 0.98326 0.71006 0.0
C258 C 0.2729 0.33487 0.70885 0.0
C259 C 0.26317 0.24676 0.72414 0.0
C260 C 0.38686 0.25587 0.74706 0.0
C261 C 0.39006 0.34997 0.73884 0.0
N262 N 0.34339 0.4776 0.70671 0.0
N263 N 0.30841 0.12435 0.75982 0.0
C264 C 0.33582 0.38883 0.71746 0.0
C265 C 0.32017 0.20666 0.74318 0.0
N266 N 0.22063 0.36672 0.68698 0.0
N267 N 0.44826 0.21388 0.75837 0.0
H268 H 0.25918 0.08757 0.75835 0.0
H269 H 0.34498 0.09606 0.77736 0.0
H270 H 0.49857 0.24855 0.75913 0.0
H271 H 0.45156 0.14376 0.76237 0.0
H272 H 0.22479 0.42843 0.67316 0.0
H273 H 0.17434 0.3276 0.68101 0.0
H274 H 0.30287 0.51384 0.69421 0.0
H275 H 0.39122 0.51563 0.71071 0.0
C276 C 0.84668 0.16784 0.77485 0.0
C277 C 0.85852 0.15919 0.7367 0.0
C278 C 0.73254 0.2127 0.72918 0.0
C279 C 0.72581 0.23332 0.76655 0.0
N280 N 0.78558 0.25558 0.8226 0.0
N281 N 0.81464 0.18495 0.6768 0.0
C282 C 0.78545 0.21798 0.78878 0.0
C283 C 0.80217 0.18559 0.71355 0.0
N284 N 0.89252 0.12761 0.79806 0.0
N285 N 0.67173 0.21568 0.70897 0.0
H286 H 0.86346 0.16233 0.66396 0.0
H287 H 0.7783 0.21312 0.6591 0.0
H288 H 0.61962 0.23267 0.72006 0.0
H289 H 0.67146 0.1928 0.68229 0.0
H290 H 0.88171 0.12682 0.82604 0.0
H291 H 0.93561 0.0854 0.78958 0.0
H292 H 0.83122 0.25338 0.83858 0.0
H293 H 0.74398 0.29848 0.83279 0.0
C294 C 0.72913 0.70279 0.76878 0.0
C295 C 0.738 0.60743 0.77387 0.0
C296 C 0.86237 0.62076 0.74392 0.0
C297 C 0.84818 0.71203 0.73437 0.0
N298 N 0.76214 0.83513 0.73198 0.0
N299 N 0.81097 0.47279 0.75977 0.0
C300 C 0.77963 0.75154 0.74505 0.0
C301 C 0.80418 0.56547 0.75973 0.0
N302 N 0.67574 0.74839 0.78856 0.0
N303 N 0.93232 0.58778 0.73919 0.0
H304 H 0.77021 0.42856 0.77023 0.0
H305 H 0.85455 0.43913 0.7462 0.0
H306 H 0.97651 0.62739 0.72869 0.0
H307 H 0.94784 0.52474 0.74911 0.0
H308 H 0.6703 0.81904 0.78795 0.0
H309 H 0.64415 0.71692 0.80931 0.0
H310 H 0.71003 0.8637 0.73623 0.0
H311 H 0.79732 0.87151 0.71388 0.0
loop_
_geom_bond_atom_site_label_1
_geom_bond_atom_site_label_2
_geom_bond_distance
_geom_bond_site_symmetry_2
_ccdc_geom_bond_type
Co0 N4 2.148 1_565 S
Co0 N10 2.128 1_655 S
Co0 N20 2.194 1_565 S
Co0 O25 2.351 . S
Co0 O26 2.155 . S
Co0 O27 2.096 1_665 S
C1 N4 1.301 . S
C1 N5 1.328 . S
C1 H6 0.930 . S
C2 C3 1.333 . S
C2 N4 1.317 . S
C2 H7 0.930 . S
C3 C2 1.333 . S
C3 N5 1.350 . S
C3 H29 0.931 . S
N4 Co0 2.148 1_545 S
N4 C1 1.301 . S
N4 C2 1.317 . S
N5 C1 1.328 . S
N5 C3 1.350 . S
H6 C1 0.930 . S
H7 C2 0.930 . S
C8 O9 1.224 . S
C8 O27 1.247 . S
O9 C8 1.224 . S
N10 Co0 2.128 1_455 S
N10 C11 1.355 . S
N10 C13 1.311 . S
C11 N10 1.355 . S
C11 C12 1.363 . S
C11 H23 0.929 . S
C12 C11 1.363 . S
C12 N14 1.375 . S
C12 H30 0.931 . S
C13 N10 1.311 . S
C13 N14 1.347 . S
C13 H24 0.929 . S
N14 C12 1.375 . S
N14 C13 1.347 . S
C15 C18 1.365 . S
C15 N20 1.328 1_565 S
C15 H21 0.929 . S
C16 C17 1.362 1_455 S
C16 C19 1.378 . S
C16 H31 0.929 . S
C17 C16 1.362 1_655 S
C17 C18 1.366 1_545 S
C18 C15 1.365 . S
C18 C17 1.366 1_565 S
C18 H32 0.930 . S
C19 C16 1.378 . S
C19 N20 1.315 1_455 S
C19 H22 0.930 . S
N20 Co0 2.194 1_545 S
N20 C15 1.328 1_545 S
N20 C19 1.315 1_655 S
H21 C15 0.929 . S
H22 C19 0.930 . S
H23 C11 0.929 . S
H24 C13 0.929 . S
O25 Co0 2.351 . S
O25 C28 1.244 . S
O26 Co0 2.155 . S
O26 C28 1.240 . S
O27 Co0 2.096 1_445 S
O27 C8 1.247 . S
C28 O25 1.244 . S
C28 O26 1.240 . S
H29 C3 0.931 . S
H30 C12 0.931 . S
H31 C16 0.929 . S
H32 C18 0.930 . S
Co33 N37 2.148 1_565 S
Co33 N43 2.128 1_455 S
Co33 N53 2.194 1_565 S
Co33 O58 2.351 . S
Co33 O59 2.155 . S
Co33 O60 2.096 1_465 S
C34 N37 1.301 . S
C34 N38 1.328 . S
C34 H39 0.930 . S
C35 C36 1.333 . S
C35 N37 1.317 . S
C35 H40 0.930 . S
C36 C35 1.333 . S
C36 N38 1.350 . S
C36 H62 0.931 . S
N37 Co33 2.148 1_545 S
N37 C34 1.301 . S
N37 C35 1.317 . S
N38 C34 1.328 . S
N38 C36 1.350 . S
H39 C34 0.930 . S
H40 C35 0.930 . S
C41 O42 1.224 . S
C41 O60 1.247 . S
O42 C41 1.224 . S
N43 Co33 2.128 1_655 S
N43 C44 1.355 . S
N43 C46 1.311 . S
C44 N43 1.355 . S
C44 C45 1.363 . S
C44 H56 0.929 . S
C45 C44 1.363 . S
C45 N47 1.375 . S
C45 H63 0.931 . S
C46 N43 1.311 . S
C46 N47 1.347 . S
C46 H57 0.929 . S
N47 C45 1.375 . S
N47 C46 1.347 . S
C48 C51 1.365 . S
C48 N53 1.328 1_565 S
C48 H54 0.929 . S
C49 C50 1.362 1_655 S
C49 C52 1.378 . S
C49 H64 0.929 . S
C50 C49 1.362 1_455 S
C50 C51 1.366 1_545 S
C51 C48 1.365 . S
C51 C50 1.366 1_565 S
C51 H65 0.930 . S
C52 C49 1.378 . S
C52 N53 1.315 1_655 S
C52 H55 0.930 . S
N53 Co33 2.194 1_545 S
N53 C48 1.328 1_545 S
N53 C52 1.315 1_455 S
H54 C48 0.929 . S
H55 C52 0.930 . S
H56 C44 0.929 . S
H57 C46 0.929 . S
O58 Co33 2.351 . S
O58 C61 1.244 . S
O59 Co33 2.155 . S
O59 C61 1.240 . S
O60 Co33 2.096 1_645 S
O60 C41 1.247 . S
C61 O58 1.244 . S
C61 O59 1.240 . S
H62 C36 0.931 . S
H63 C45 0.931 . S
H64 C49 0.929 . S
H65 C51 0.930 . S
Co66 N70 2.148 . S
Co66 N76 2.128 . S
Co66 N86 2.194 . S
Co66 O91 2.351 . S
Co66 O92 2.155 . S
Co66 O93 2.096 . S
C67 N70 1.301 . S
C67 N71 1.328 . S
C67 H72 0.930 . S
C68 C69 1.333 . S
C68 N70 1.317 . S
C68 H73 0.930 . S
C69 C68 1.333 . S
C69 N71 1.350 . S
C69 H95 0.931 . S
N70 Co66 2.148 . S
N70 C67 1.301 . S
N70 C68 1.317 . S
N71 C67 1.328 . S
N71 C69 1.350 . S
H72 C67 0.930 . S
H73 C68 0.930 . S
C74 O75 1.224 . S
C74 O93 1.247 . S
O75 C74 1.224 . S
N76 Co66 2.128 . S
N76 C77 1.355 . S
N76 C79 1.311 . S
C77 N76 1.355 . S
C77 C78 1.363 . S
C77 H89 0.929 . S
C78 C77 1.363 . S
C78 N80 1.375 . S
C78 H96 0.931 . S
C79 N76 1.311 . S
C79 N80 1.347 . S
C79 H90 0.929 . S
N80 C78 1.375 . S
N80 C79 1.347 . S
C81 C84 1.365 . S
C81 N86 1.328 . S
C81 H87 0.929 . S
C82 C83 1.362 . S
C82 C85 1.378 . S
C82 H97 0.929 . S
C83 C82 1.362 . S
C83 C84 1.366 . S
C84 C81 1.365 . S
C84 C83 1.366 . S
C84 H98 0.930 . S
C85 C82 1.378 . S
C85 N86 1.315 . S
C85 H88 0.930 . S
N86 Co66 2.194 . S
N86 C81 1.328 . S
N86 C85 1.315 . S
H87 C81 0.929 . S
H88 C85 0.930 . S
H89 C77 0.929 . S
H90 C79 0.929 . S
O91 Co66 2.351 . S
O91 C94 1.244 . S
O92 Co66 2.155 . S
O92 C94 1.240 . S
O93 Co66 2.096 . S
O93 C74 1.247 . S
C94 O91 1.244 . S
C94 O92 1.240 . S
H95 C69 0.931 . S
H96 C78 0.931 . S
H97 C82 0.929 . S
H98 C84 0.930 . S
Co99 N103 2.148 . S
Co99 N109 2.128 . S
Co99 N119 2.194 . S
Co99 O124 2.351 . S
Co99 O125 2.155 . S
Co99 O126 2.096 . S
C100 N103 1.301 . S
C100 N104 1.328 . S
C100 H105 0.930 . S
C101 C102 1.333 . S
C101 N103 1.317 . S
C101 H106 0.930 . S
C102 C101 1.333 . S
C102 N104 1.350 . S
C102 H128 0.931 . S
N103 Co99 2.148 . S
N103 C100 1.301 . S
N103 C101 1.317 . S
N104 C100 1.328 . S
N104 C102 1.350 . S
H105 C100 0.930 . S
H106 C101 0.930 . S
C107 O108 1.224 . S
C107 O126 1.247 . S
O108 C107 1.224 . S
N109 Co99 2.128 . S
N109 C110 1.355 . S
N109 C112 1.311 . S
C110 N109 1.355 . S
C110 C111 1.363 . S
C110 H122 0.929 . S
C111 C110 1.363 . S
C111 N113 1.375 . S
C111 H129 0.931 . S
C112 N109 1.311 . S
C112 N113 1.347 . S
C112 H123 0.929 . S
N113 C111 1.375 . S
N113 C112 1.347 . S
C114 C117 1.365 . S
C114 N119 1.328 . S
C114 H120 0.929 . S
C115 C116 1.362 . S
C115 C118 1.378 . S
C115 H130 0.929 . S
C116 C115 1.362 . S
C116 C117 1.366 . S
C117 C114 1.365 . S
C117 C116 1.366 . S
C117 H131 0.930 . S
C118 C115 1.378 . S
C118 N119 1.315 . S
C118 H121 0.930 . S
N119 Co99 2.194 . S
N119 C114 1.328 . S
N119 C118 1.315 . S
H120 C114 0.929 . S
H121 C118 0.930 . S
H122 C110 0.929 . S
H123 C112 0.929 . S
O124 Co99 2.351 . S
O124 C127 1.244 . S
O125 Co99 2.155 . S
O125 C127 1.240 . S
O126 Co99 2.096 . S
O126 C107 1.247 . S
C127 O124 1.244 . S
C127 O125 1.240 . S
H128 C102 0.931 . S
H129 C111 0.931 . S
H130 C115 0.929 . S
H131 C117 0.930 . S
C132 C133 1.363 . S
C132 C138 1.379 . S
C132 N140 1.356 . S
C133 C132 1.363 . S
C133 C139 1.363 1_445 S
C134 C135 1.361 1_665 S
C134 C139 1.379 . S
C134 N141 1.356 . S
C135 C134 1.361 1_445 S
C135 C138 1.365 . S
N136 C138 1.356 . S
N136 H148 0.984 . S
N136 H149 0.985 . S
N137 C139 1.356 . S
N137 H142 0.984 . S
N137 H143 0.985 . S
C138 C132 1.379 . S
C138 C135 1.365 . S
C138 N136 1.356 . S
C139 C133 1.363 1_665 S
C139 C134 1.379 . S
C139 N137 1.356 . S
N140 C132 1.356 . S
N140 H146 0.984 . S
N140 H147 0.984 . S
N141 C134 1.356 . S
N141 H144 0.984 . S
N141 H145 0.985 . S
H142 N137 0.984 . S
H143 N137 0.985 . S
H144 N141 0.984 . S
H145 N141 0.985 . S
H146 N140 0.984 . S
H147 N140 0.984 . S
H148 N136 0.984 . S
H149 N136 0.985 . S
C150 C151 1.363 . S
C150 C156 1.379 1_554 S
C150 N158 1.356 . S
C151 C150 1.363 . S
C151 C157 1.363 . S
C152 C153 1.363 . S
C152 C157 1.379 1_556 S
C152 N159 1.356 . S
C153 C152 1.363 . S
C153 C156 1.363 . S
N154 C156 1.356 . S
N154 H166 0.984 . S
N154 H167 0.985 . S
N155 C157 1.356 . S
N155 H160 0.984 . S
N155 H161 0.985 . S
C156 C150 1.379 1_556 S
C156 C153 1.363 . S
C156 N154 1.356 . S
C157 C151 1.363 . S
C157 C152 1.379 1_554 S
C157 N155 1.356 . S
N158 C150 1.356 . S
N158 H164 0.984 . S
N158 H165 0.984 . S
N159 C152 1.356 . S
N159 H162 0.984 . S
N159 H163 0.985 . S
H160 N155 0.984 . S
H161 N155 0.985 . S
H162 N159 0.984 . S
H163 N159 0.985 . S
H164 N158 0.984 . S
H165 N158 0.984 . S
H166 N154 0.984 . S
H167 N154 0.985 . S
C168 C169 1.363 . S
C168 C174 1.379 . S
C168 N176 1.356 . S
C169 C168 1.363 . S
C169 C175 1.363 . S
C170 C171 1.363 . S
C170 C175 1.379 . S
C170 N177 1.356 . S
C171 C170 1.363 . S
C171 C174 1.363 . S
N172 C174 1.356 . S
N172 H184 0.984 . S
N172 H185 0.985 . S
N173 C175 1.356 . S
N173 H178 0.984 . S
N173 H179 0.985 . S
C174 C168 1.379 . S
C174 C171 1.363 . S
C174 N172 1.356 . S
C175 C169 1.363 . S
C175 C170 1.379 . S
C175 N173 1.356 . S
N176 C168 1.356 . S
N176 H182 0.984 . S
N176 H183 0.984 . S
N177 C170 1.356 . S
N177 H180 0.984 . S
N177 H181 0.985 . S
H178 N173 0.984 . S
H179 N173 0.985 . S
H180 N177 0.984 . S
H181 N177 0.985 . S
H182 N176 0.984 . S
H183 N176 0.984 . S
H184 N172 0.984 . S
H185 N172 0.985 . S
C186 C187 1.363 . S
C186 C192 1.379 . S
C186 N194 1.356 . S
C187 C186 1.363 . S
C187 C193 1.363 . S
C188 C189 1.363 . S
C188 C193 1.379 . S
C188 N195 1.356 . S
C189 C188 1.363 . S
C189 C192 1.363 . S
N190 C192 1.356 . S
N190 H202 0.984 . S
N190 H203 0.985 . S
N191 C193 1.356 . S
N191 H196 0.984 . S
N191 H197 0.985 . S
C192 C186 1.379 . S
C192 C189 1.363 . S
C192 N190 1.356 . S
C193 C187 1.363 . S
C193 C188 1.379 . S
C193 N191 1.356 . S
N194 C186 1.356 . S
N194 H200 0.984 . S
N194 H201 0.984 . S
N195 C188 1.356 . S
N195 H198 0.984 . S
N195 H199 0.985 . S
H196 N191 0.984 . S
H197 N191 0.985 . S
H198 N195 0.984 . S
H199 N195 0.985 . S
H200 N194 0.984 . S
H201 N194 0.984 . S
H202 N190 0.984 . S
H203 N190 0.985 . S
C204 C205 1.363 . S
C204 C210 1.379 . S
C204 N212 1.356 . S
C205 C204 1.363 . S
C205 C211 1.363 . S
C206 C207 1.363 . S
C206 C211 1.379 . S
C206 N213 1.356 . S
C207 C206 1.363 . S
C207 C210 1.363 . S
N208 C210 1.356 . S
N208 H220 0.984 . S
N208 H221 0.985 . S
N209 C211 1.356 . S
N209 H214 0.984 . S
N209 H215 0.985 . S
C210 C204 1.379 . S
C210 C207 1.363 . S
C210 N208 1.356 . S
C211 C205 1.363 . S
C211 C206 1.379 . S
C211 N209 1.356 . S
N212 C204 1.356 . S
N212 H218 0.984 . S
N212 H219 0.984 . S
N213 C206 1.356 . S
N213 H216 0.984 . S
N213 H217 0.985 . S
H214 N209 0.984 . S
H215 N209 0.985 . S
H216 N213 0.984 . S
H217 N213 0.985 . S
H218 N212 0.984 . S
H219 N212 0.984 . S
H220 N208 0.984 . S
H221 N208 0.985 . S
C222 C223 1.363 . S
C222 C228 1.379 . S
C222 N230 1.356 . S
C223 C222 1.363 . S
C223 C229 1.363 . S
C224 C225 1.363 . S
C224 C229 1.379 . S
C224 N231 1.356 . S
C225 C224 1.363 . S
C225 C228 1.363 . S
N226 C228 1.356 . S
N226 H238 0.984 . S
N226 H239 0.985 . S
N227 C229 1.356 . S
N227 H232 0.984 . S
N227 H233 0.985 . S
C228 C222 1.379 . S
C228 C225 1.363 . S
C228 N226 1.356 . S
C229 C223 1.363 . S
C229 C224 1.379 . S
C229 N227 1.356 . S
N230 C222 1.356 . S
N230 H236 0.984 . S
N230 H237 0.984 . S
N231 C224 1.356 . S
N231 H234 0.984 . S
N231 H235 0.985 . S
H232 N227 0.984 . S
H233 N227 0.985 . S
H234 N231 0.984 . S
H235 N231 0.985 . S
H236 N230 0.984 . S
H237 N230 0.984 . S
H238 N226 0.984 . S
H239 N226 0.985 . S
C240 C241 1.363 . S
C240 C246 1.379 . S
C240 N248 1.356 . S
C241 C240 1.363 . S
C241 C247 1.363 . S
C242 C243 1.363 . S
C242 C247 1.379 . S
C242 N249 1.356 . S
C243 C242 1.363 . S
C243 C246 1.363 . S
N244 C246 1.356 . S
N244 H256 0.984 . S
N244 H257 0.985 . S
N245 C247 1.356 . S
N245 H250 0.984 . S
N245 H251 0.985 . S
C246 C240 1.379 . S
C246 C243 1.363 . S
C246 N244 1.356 . S
C247 C241 1.363 . S
C247 C242 1.379 . S
C247 N245 1.356 . S
N248 C240 1.356 . S
N248 H254 0.984 . S
N248 H255 0.984 . S
N249 C242 1.356 . S
N249 H252 0.984 . S
N249 H253 0.985 . S
H250 N245 0.984 . S
H251 N245 0.985 . S
H252 N249 0.984 . S
H253 N249 0.985 . S
H254 N248 0.984 . S
H255 N248 0.984 . S
H256 N244 0.984 . S
H257 N244 0.985 . S
C258 C259 1.363 . S
C258 C264 1.379 . S
C258 N266 1.356 . S
C259 C258 1.363 . S
C259 C265 1.363 . S
C260 C261 1.363 . S
C260 C265 1.379 . S
C260 N267 1.356 . S
C261 C260 1.363 . S
C261 C264 1.363 . S
N262 C264 1.356 . S
N262 H274 0.984 . S
N262 H275 0.985 . S
N263 C265 1.356 . S
N263 H268 0.984 . S
N263 H269 0.985 . S
C264 C258 1.379 . S
C264 C261 1.363 . S
C264 N262 1.356 . S
C265 C259 1.363 . S
C265 C260 1.379 . S
C265 N263 1.356 . S
N266 C258 1.356 . S
N266 H272 0.984 . S
N266 H273 0.984 . S
N267 C260 1.356 . S
N267 H270 0.984 . S
N267 H271 0.985 . S
H268 N263 0.984 . S
H269 N263 0.985 . S
H270 N267 0.984 . S
H271 N267 0.985 . S
H272 N266 0.984 . S
H273 N266 0.984 . S
H274 N262 0.984 . S
H275 N262 0.985 . S
C276 C277 1.363 . S
C276 C282 1.379 . S
C276 N284 1.356 . S
C277 C276 1.363 . S
C277 C283 1.363 . S
C278 C279 1.363 . S
C278 C283 1.379 . S
C278 N285 1.356 . S
C279 C278 1.363 . S
C279 C282 1.363 . S
N280 C282 1.356 . S
N280 H292 0.984 . S
N280 H293 0.985 . S
N281 C283 1.356 . S
N281 H286 0.984 . S
N281 H287 0.985 . S
C282 C276 1.379 . S
C282 C279 1.363 . S
C282 N280 1.356 . S
C283 C277 1.363 . S
C283 C278 1.379 . S
C283 N281 1.356 . S
N284 C276 1.356 . S
N284 H290 0.984 . S
N284 H291 0.984 . S
N285 C278 1.356 . S
N285 H288 0.984 . S
N285 H289 0.985 . S
H286 N281 0.984 . S
H287 N281 0.985 . S
H288 N285 0.984 . S
H289 N285 0.985 . S
H290 N284 0.984 . S
H291 N284 0.984 . S
H292 N280 0.984 . S
H293 N280 0.985 . S
C294 C295 1.363 . S
C294 C300 1.379 . S
C294 N302 1.356 . S
C295 C294 1.363 . S
C295 C301 1.363 . S
C296 C297 1.363 . S
C296 C301 1.379 . S
C296 N303 1.356 . S
C297 C296 1.363 . S
C297 C300 1.363 . S
N298 C300 1.356 . S
N298 H310 0.984 . S
N298 H311 0.985 . S
N299 C301 1.356 . S
N299 H304 0.984 . S
N299 H305 0.985 . S
C300 C294 1.379 . S
C300 C297 1.363 . S
C300 N298 1.356 . S
C301 C295 1.363 . S
C301 C296 1.379 . S
C301 N299 1.356 . S
N302 C294 1.356 . S
N302 H308 0.984 . S
N302 H309 0.984 . S
N303 C296 1.356 . S
N303 H306 0.984 . S
N303 H307 0.985 . S
H304 N299 0.984 . S
H305 N299 0.985 . S
H306 N303 0.984 . S
H307 N303 0.985 . S
H308 N302 0.984 . S
H309 N302 0.984 . S
H310 N298 0.984 . S
H311 N298 0.985 . S
C133 C17 1.491 1_455 S
C135 C50 1.491 . S
C151 C116 1.491 . S
C153 C83 1.491 . S
C169 C8 1.543 . S
C171 N113 1.515 . S
C187 N5 1.417 . S
C189 C127 1.499 . S
C205 N104 1.417 . S
C207 C28 1.500 . S
C223 N14 1.516 . S
C225 C107 1.543 . S
C241 N71 1.417 . S
C243 C61 1.500 . S
C259 N38 1.417 . S
C261 C94 1.499 . S
C277 C41 1.543 . S
C279 N80 1.515 . S
C295 C74 1.543 . S
C297 N47 1.517 . S
