# Generated by pormake.
# Topology ukd, (4)-cn, num edge types: 1
# Building blocks:
#     Node 0, Type 0, BuildingBlock: TATPOV_clean_sbu_0, # of connection points: 4
#     Node 1, Type 0, BuildingBlock: TATPOV_clean_sbu_0, # of connection points: 4
#     Node 2, Type 0, BuildingBlock: TATPOV_clean_sbu_0, # of connection points: 4
#     Node 3, Type 0, BuildingBlock: TATPOV_clean_sbu_0, # of connection points: 4
#     Node 4, Type 0, BuildingBlock: TATPOV_clean_sbu_0, # of connection points: 4
#     Node 5, Type 0, BuildingBlock: TATPOV_clean_sbu_0, # of connection points: 4
#     Node 6, Type 0, BuildingBlock: TATPOV_clean_sbu_0, # of connection points: 4
#     Node 7, Type 0, BuildingBlock: TATPOV_clean_sbu_0, # of connection points: 4
#     Node 8, Type 0, BuildingBlock: TATPOV_clean_sbu_0, # of connection points: 4
#     Node 9, Type 0, BuildingBlock: TATPOV_clean_sbu_0, # of connection points: 4
#     Node 10, Type 0, BuildingBlock: TATPOV_clean_sbu_0, # of connection points: 4
#     Node 11, Type 0, BuildingBlock: TATPOV_clean_sbu_0, # of connection points: 4
#     Node 12, Type 0, BuildingBlock: TATPOV_clean_sbu_0, # of connection points: 4
#     Node 13, Type 0, BuildingBlock: TATPOV_clean_sbu_0, # of connection points: 4
#     Node 14, Type 0, BuildingBlock: TATPOV_clean_sbu_0, # of connection points: 4
#     Node 15, Type 0, BuildingBlock: TATPOV_clean_sbu_0, # of connection points: 4
#     Node 16, Type 0, BuildingBlock: TATPOV_clean_sbu_0, # of connection points: 4
#     Node 17, Type 0, BuildingBlock: TATPOV_clean_sbu_0, # of connection points: 4
#     Node 18, Type 0, BuildingBlock: TATPOV_clean_sbu_0, # of connection points: 4
#     Node 19, Type 0, BuildingBlock: TATPOV_clean_sbu_0, # of connection points: 4
#     Node 20, Type 0, BuildingBlock: TATPOV_clean_sbu_0, # of connection points: 4
#     Node 21, Type 0, BuildingBlock: TATPOV_clean_sbu_0, # of connection points: 4
#     Node 22, Type 0, BuildingBlock: TATPOV_clean_sbu_0, # of connection points: 4
#     Node 23, Type 0, BuildingBlock: TATPOV_clean_sbu_0, # of connection points: 4
#     Node 24, Type 0, BuildingBlock: TATPOV_clean_sbu_0, # of connection points: 4
#     Node 25, Type 0, BuildingBlock: TATPOV_clean_sbu_0, # of connection points: 4
#     Node 26, Type 0, BuildingBlock: TATPOV_clean_sbu_0, # of connection points: 4
#     Node 27, Type 0, BuildingBlock: TATPOV_clean_sbu_0, # of connection points: 4
#     Node 28, Type 0, BuildingBlock: TATPOV_clean_sbu_0, # of connection points: 4
#     Node 29, Type 0, BuildingBlock: TATPOV_clean_sbu_0, # of connection points: 4
#     Node 30, Type 0, BuildingBlock: TATPOV_clean_sbu_0, # of connection points: 4
#     Node 31, Type 0, BuildingBlock: TATPOV_clean_sbu_0, # of connection points: 4
#     Edge 32, Type (0, 0), BuildingBlock: EZIPEK_clean_linker_0, # of connection points: 2
#     Edge 33, Type (0, 0), BuildingBlock: EZIPEK_clean_linker_0, # of connection points: 2
#     Edge 34, Type (0, 0), BuildingBlock: EZIPEK_clean_linker_0, # of connection points: 2
#     Edge 35, Type (0, 0), BuildingBlock: EZIPEK_clean_linker_0, # of connection points: 2
#     Edge 36, Type (0, 0), BuildingBlock: EZIPEK_clean_linker_0, # of connection points: 2
#     Edge 37, Type (0, 0), BuildingBlock: EZIPEK_clean_linker_0, # of connection points: 2
#     Edge 38, Type (0, 0), BuildingBlock: EZIPEK_clean_linker_0, # of connection points: 2
#     Edge 39, Type (0, 0), BuildingBlock: EZIPEK_clean_linker_0, # of connection points: 2
#     Edge 40, Type (0, 0), BuildingBlock: EZIPEK_clean_linker_0, # of connection points: 2
#     Edge 41, Type (0, 0), BuildingBlock: EZIPEK_clean_linker_0, # of connection points: 2
#     Edge 42, Type (0, 0), BuildingBlock: EZIPEK_clean_linker_0, # of connection points: 2
#     Edge 43, Type (0, 0), BuildingBlock: EZIPEK_clean_linker_0, # of connection points: 2
#     Edge 44, Type (0, 0), BuildingBlock: EZIPEK_clean_linker_0, # of connection points: 2
#     Edge 45, Type (0, 0), BuildingBlock: EZIPEK_clean_linker_0, # of connection points: 2
#     Edge 46, Type (0, 0), BuildingBlock: EZIPEK_clean_linker_0, # of connection points: 2
#     Edge 47, Type (0, 0), BuildingBlock: EZIPEK_clean_linker_0, # of connection points: 2
#     Edge 48, Type (0, 0), BuildingBlock: EZIPEK_clean_linker_0, # of connection points: 2
#     Edge 49, Type (0, 0), BuildingBlock: EZIPEK_clean_linker_0, # of connection points: 2
#     Edge 50, Type (0, 0), BuildingBlock: EZIPEK_clean_linker_0, # of connection points: 2
#     Edge 51, Type (0, 0), BuildingBlock: EZIPEK_clean_linker_0, # of connection points: 2
#     Edge 52, Type (0, 0), BuildingBlock: EZIPEK_clean_linker_0, # of connection points: 2
#     Edge 53, Type (0, 0), BuildingBlock: EZIPEK_clean_linker_0, # of connection points: 2
#     Edge 54, Type (0, 0), BuildingBlock: EZIPEK_clean_linker_0, # of connection points: 2
#     Edge 55, Type (0, 0), BuildingBlock: EZIPEK_clean_linker_0, # of connection points: 2
#     Edge 56, Type (0, 0), BuildingBlock: EZIPEK_clean_linker_0, # of connection points: 2
#     Edge 57, Type (0, 0), BuildingBlock: EZIPEK_clean_linker_0, # of connection points: 2
#     Edge 58, Type (0, 0), BuildingBlock: EZIPEK_clean_linker_0, # of connection points: 2
#     Edge 59, Type (0, 0), BuildingBlock: EZIPEK_clean_linker_0, # of connection points: 2
#     Edge 60, Type (0, 0), BuildingBlock: EZIPEK_clean_linker_0, # of connection points: 2
#     Edge 61, Type (0, 0), BuildingBlock: EZIPEK_clean_linker_0, # of connection points: 2
#     Edge 62, Type (0, 0), BuildingBlock: EZIPEK_clean_linker_0, # of connection points: 2
#     Edge 63, Type (0, 0), BuildingBlock: EZIPEK_clean_linker_0, # of connection points: 2
#     Edge 64, Type (0, 0), BuildingBlock: EZIPEK_clean_linker_0, # of connection points: 2
#     Edge 65, Type (0, 0), BuildingBlock: EZIPEK_clean_linker_0, # of connection points: 2
#     Edge 66, Type (0, 0), BuildingBlock: EZIPEK_clean_linker_0, # of connection points: 2
#     Edge 67, Type (0, 0), BuildingBlock: EZIPEK_clean_linker_0, # of connection points: 2
#     Edge 68, Type (0, 0), BuildingBlock: EZIPEK_clean_linker_0, # of connection points: 2
#     Edge 69, Type (0, 0), BuildingBlock: EZIPEK_clean_linker_0, # of connection points: 2
#     Edge 70, Type (0, 0), BuildingBlock: EZIPEK_clean_linker_0, # of connection points: 2
#     Edge 71, Type (0, 0), BuildingBlock: EZIPEK_clean_linker_0, # of connection points: 2
#     Edge 72, Type (0, 0), BuildingBlock: EZIPEK_clean_linker_0, # of connection points: 2
#     Edge 73, Type (0, 0), BuildingBlock: EZIPEK_clean_linker_0, # of connection points: 2
#     Edge 74, Type (0, 0), BuildingBlock: EZIPEK_clean_linker_0, # of connection points: 2
#     Edge 75, Type (0, 0), BuildingBlock: EZIPEK_clean_linker_0, # of connection points: 2
#     Edge 76, Type (0, 0), BuildingBlock: EZIPEK_clean_linker_0, # of connection points: 2
#     Edge 77, Type (0, 0), BuildingBlock: EZIPEK_clean_linker_0, # of connection points: 2
#     Edge 78, Type (0, 0), BuildingBlock: EZIPEK_clean_linker_0, # of connection points: 2
#     Edge 79, Type (0, 0), BuildingBlock: EZIPEK_clean_linker_0, # of connection points: 2
#     Edge 80, Type (0, 0), BuildingBlock: EZIPEK_clean_linker_0, # of connection points: 2
#     Edge 81, Type (0, 0), BuildingBlock: EZIPEK_clean_linker_0, # of connection points: 2
#     Edge 82, Type (0, 0), BuildingBlock: EZIPEK_clean_linker_0, # of connection points: 2
#     Edge 83, Type (0, 0), BuildingBlock: EZIPEK_clean_linker_0, # of connection points: 2
#     Edge 84, Type (0, 0), BuildingBlock: EZIPEK_clean_linker_0, # of connection points: 2
#     Edge 85, Type (0, 0), BuildingBlock: EZIPEK_clean_linker_0, # of connection points: 2
#     Edge 86, Type (0, 0), BuildingBlock: EZIPEK_clean_linker_0, # of connection points: 2
#     Edge 87, Type (0, 0), BuildingBlock: EZIPEK_clean_linker_0, # of connection points: 2
#     Edge 88, Type (0, 0), BuildingBlock: EZIPEK_clean_linker_0, # of connection points: 2
#     Edge 89, Type (0, 0), BuildingBlock: EZIPEK_clean_linker_0, # of connection points: 2
#     Edge 90, Type (0, 0), BuildingBlock: EZIPEK_clean_linker_0, # of connection points: 2
#     Edge 91, Type (0, 0), BuildingBlock: EZIPEK_clean_linker_0, # of connection points: 2
#     Edge 92, Type (0, 0), BuildingBlock: EZIPEK_clean_linker_0, # of connection points: 2
#     Edge 93, Type (0, 0), BuildingBlock: EZIPEK_clean_linker_0, # of connection points: 2
#     Edge 94, Type (0, 0), BuildingBlock: EZIPEK_clean_linker_0, # of connection points: 2
#     Edge 95, Type (0, 0), BuildingBlock: EZIPEK_clean_linker_0, # of connection points: 2
# Relax obj value: 0.128
# Max RMSD: 0.188
# Mean RMSD: 0.180
data_MOF--net-ukd--node1-TATPOV_clean_sbu_0--edge1-EZIPEK_clean_linker_0
_symmetry_space_group_name_H-M    P1
_symmetry_Int_Tables_number       1
_symmetry_cell_setting            triclinic
loop_
_symmetry_equiv_pos_as_xyz
'x, y, z'
_cell_length_a     32.931456
_cell_length_b     32.265002
_cell_length_c     58.605371
_cell_angle_alpha  90.028959
_cell_angle_beta   89.966521
_cell_angle_gamma 90.069956
loop_
_atom_site_label
_atom_site_type_symbol
_atom_site_fract_x
_atom_site_fract_y
_atom_site_fract_z
_atom_type_partial_charge
Zn0 Zn 0.12519 0.19881 0.2987 0.0
Zn1 Zn 0.19081 0.18052 0.32343 0.0
O2 O 0.15567 0.12762 0.32415 0.0
O3 O 0.1022 0.14112 0.30337 0.0
O4 O 0.24138 0.1599 0.33874 0.0
O5 O 0.15847 0.21259 0.27102 0.0
O6 O 0.21252 0.20122 0.29233 0.0
C7 C 0.12219 0.11577 0.31544 0.0
C8 C 0.13648 0.24872 0.34026 0.0
O9 O 0.16753 0.22619 0.34387 0.0
O10 O 0.11517 0.24346 0.32246 0.0
C11 C 0.24822 0.15937 0.36006 0.0
O12 O 0.22222 0.17621 0.3743 0.0
C13 C 0.1966 0.21229 0.27347 0.0
Zn14 Zn 0.03963 0.96967 0.61944 0.0
Zn15 Zn 0.02101 0.97124 0.57491 0.0
O16 O 0.96614 0.9657 0.59152 0.0
O17 O 0.98016 0.96828 0.62798 0.0
O18 O 0.00422 0.97564 0.54201 0.0
O19 O 0.07063 0.02308 0.61634 0.0
O20 O 0.05433 0.02462 0.57986 0.0
C21 C 0.95404 0.96606 0.61218 0.0
C22 C 0.07274 0.90098 0.59321 0.0
O23 O 0.05611 0.91872 0.57622 0.0
O24 O 0.06966 0.91619 0.61307 0.0
C25 C -0.00943 0.94534 0.53046 0.0
O26 O -0.01346 0.9087 0.53995 0.0
C27 C 0.07278 0.04016 0.59695 0.0
Zn28 Zn 0.3428 0.77639 0.79479 0.0
Zn29 Zn 0.27349 0.78587 0.81665 0.0
O30 O 0.30578 0.8381 0.82485 0.0
O31 O 0.36554 0.82869 0.809 0.0
O32 O 0.21979 0.80164 0.83015 0.0
O33 O 0.3166 0.77219 0.76393 0.0
O34 O 0.25929 0.77179 0.78339 0.0
C35 C 0.34255 0.8491 0.82215 0.0
C36 C 0.32786 0.71587 0.8307 0.0
O37 O 0.29614 0.73706 0.83497 0.0
O38 O 0.35001 0.72449 0.81364 0.0
C39 C 0.21202 0.80023 0.85135 0.0
O40 O 0.23762 0.78219 0.86535 0.0
C41 C 0.27844 0.76814 0.76461 0.0
Zn42 Zn 0.41589 0.00015 0.12409 0.0
Zn43 Zn 0.43857 0.00348 0.0799 0.0
O44 O 0.49165 0.00465 0.09857 0.0
O45 O 0.47427 -0.00069 0.13451 0.0
O46 O 0.45813 0.00382 0.04725 0.0
O47 O 0.38476 0.9477 0.11786 0.0
O48 O 0.40331 0.9507 0.0817 0.0
C49 C 0.50182 0.00211 0.11953 0.0
C50 C 0.38769 0.07322 0.09975 0.0
O51 O 0.40523 0.05691 0.08259 0.0
O52 O 0.38807 0.0553 0.11898 0.0
C53 C 0.48732 0.02626 0.04019 0.0
O54 O 0.50608 0.05142 0.05431 0.0
C55 C 0.38372 0.93321 0.09781 0.0
Zn56 Zn 0.12725 0.75649 0.15094 0.0
Zn57 Zn 0.19888 0.77935 0.13317 0.0
O58 O 0.16081 0.82945 0.12877 0.0
O59 O 0.10106 0.8104 0.14178 0.0
O60 O 0.25167 0.8041 0.1226 0.0
O61 O 0.15255 0.74614 0.18183 0.0
O62 O 0.21178 0.75886 0.16564 0.0
C63 C 0.12322 0.83684 0.1318 0.0
C64 C 0.15574 0.70671 0.11222 0.0
O65 O 0.18603 0.73124 0.1114 0.0
O66 O 0.12874 0.7107 0.12748 0.0
C67 C 0.26022 0.80973 0.10168 0.0
O68 O 0.23586 0.79532 0.0858 0.0
C69 C 0.1909 0.74746 0.18284 0.0
Zn70 Zn 0.40601 -0.0178 0.33541 0.0
Zn71 Zn 0.42593 0.96508 0.3775 0.0
O72 O 0.48095 0.96848 0.36092 0.0
O73 O 0.46483 0.97928 0.32521 0.0
O74 O 0.44115 0.96129 0.4108 0.0
O75 O 0.37812 0.03539 0.34272 0.0
O76 O 0.38922 0.01733 0.37834 0.0
C77 C 0.49186 0.97329 0.3402 0.0
C78 C 0.37625 0.90248 0.35115 0.0
O79 O 0.39723 0.91027 0.36894 0.0
O80 O 0.37252 0.92976 0.33574 0.0
C81 C 0.47421 0.94667 0.4185 0.0
O82 O 0.50028 0.92908 0.40458 0.0
C83 C 0.37303 0.0416 0.36382 0.0
Zn84 Zn 0.33614 0.20275 0.65507 0.0
Zn85 Zn 0.26265 0.18201 0.63843 0.0
O86 O 0.29941 0.13196 0.63141 0.0
O87 O 0.36018 0.14885 0.64381 0.0
O88 O 0.20883 0.16004 0.62756 0.0
O89 O 0.31232 0.21117 0.68659 0.0
O90 O 0.25203 0.19744 0.67199 0.0
C91 C 0.33704 0.12376 0.63344 0.0
C92 C 0.30621 0.2564 0.61872 0.0
O93 O 0.27524 0.23272 0.61837 0.0
O94 O 0.33466 0.25044 0.63287 0.0
C95 C 0.19742 0.16132 0.60687 0.0
O96 O 0.21959 0.1809 0.59165 0.0
C97 C 0.27418 0.20822 0.68881 0.0
Zn98 Zn 0.06781 0.00112 0.84207 0.0
Zn99 Zn 0.04737 -0.00166 0.88655 0.0
O100 O -0.00611 0.00742 0.8693 0.0
O101 O 0.00938 0.00991 0.83278 0.0
O102 O 0.02758 -0.00624 0.91883 0.0
O103 O 0.09382 0.94476 0.84495 0.0
O104 O 0.07851 0.94391 0.88159 0.0
C105 C -0.01665 0.01267 0.8486 0.0
C106 C 0.10254 0.0673 0.8698 0.0
O107 O 0.08409 0.04987 0.88633 0.0
O108 O 0.10077 0.05211 0.84988 0.0
C109 C 0.00592 0.02177 0.928 0.0
O110 O -0.00329 0.05539 0.91654 0.0
C111 C 0.09535 0.92736 0.86428 0.0
Zn112 Zn 0.83352 0.77479 0.65637 0.0
Zn113 Zn 0.76059 0.79754 0.6388 0.0
O114 O 0.79706 0.84871 0.63361 0.0
O115 O 0.85614 0.83087 0.64834 0.0
O116 O 0.70558 0.81683 0.62823 0.0
O117 O 0.80807 0.76306 0.68699 0.0
O118 O 0.74911 0.78059 0.67194 0.0
C119 C 0.83405 0.85697 0.6381 0.0
C120 C 0.80492 0.72357 0.61873 0.0
O121 O 0.7742 0.74752 0.61842 0.0
O122 O 0.8336 0.72935 0.63277 0.0
C123 C 0.69854 0.82592 0.60753 0.0
O124 O 0.72928 0.82497 0.59324 0.0
C125 C 0.77006 0.76765 0.68876 0.0
Zn126 Zn 0.97437 0.06586 0.40932 0.0
Zn127 Zn 0.93569 0.00482 0.38858 0.0
O128 O 0.90461 0.05891 0.38115 0.0
O129 O 0.92882 0.10619 0.40453 0.0
O130 O 0.89937 0.95841 0.3766 0.0
O131 O 0.98014 0.03593 0.43875 0.0
O132 O 0.94334 -0.01294 0.42248 0.0
C133 C 0.90439 0.09582 0.38888 0.0
C134 C 0.01598 0.03208 0.36932 0.0
O135 O -0.01212 0.00481 0.3692 0.0
O136 O 0.0164 0.06039 0.38432 0.0
C137 C 0.86846 0.96489 0.36407 0.0
O138 O 0.861 0.00246 0.35659 0.0
C139 C 0.96213 0.00144 0.4398 0.0
Zn140 Zn 0.62478 0.19487 0.16042 0.0
Zn141 Zn 0.69523 0.1711 0.13946 0.0
O142 O 0.65715 0.1203 0.13873 0.0
O143 O 0.6 0.13874 0.15541 0.0
O144 O 0.74888 0.14779 0.12788 0.0
O145 O 0.65504 0.21009 0.18899 0.0
O146 O 0.71161 0.19352 0.17093 0.0
C147 C 0.62101 0.11198 0.14497 0.0
C148 C 0.6466 0.24199 0.11955 0.0
O149 O 0.67746 0.21826 0.11789 0.0
O150 O 0.62113 0.23741 0.13555 0.0
C151 C 0.75027 0.11564 0.11533 0.0
O152 O 0.71639 0.09871 0.10809 0.0
C153 C 0.69335 0.20759 0.18846 0.0
Zn154 Zn 0.49971 0.90966 0.9231 0.0
Zn155 Zn 0.53147 0.9624 0.89747 0.0
O156 O 0.57038 0.91344 0.89192 0.0
O157 O 0.53657 0.86534 0.91053 0.0
O158 O 0.5576 0.01055 0.88069 0.0
O159 O 0.51041 0.93483 0.95297 0.0
O160 O 0.52547 -0.01263 0.93054 0.0
C161 C 0.56507 0.87548 0.89712 0.0
C162 C 0.44683 0.92922 0.88766 0.0
O163 O 0.47913 0.94609 0.88003 0.0
O164 O 0.44487 0.91925 0.90849 0.0
C165 C 0.57968 0.00682 0.86304 0.0
O166 O 0.58567 0.96933 0.85494 0.0
C167 C 0.51876 0.97267 0.95044 0.0
Zn168 Zn 0.84288 0.18044 0.79445 0.0
Zn169 Zn 0.77323 0.15944 0.81468 0.0
O170 O 0.8129 0.11095 0.82091 0.0
O171 O 0.86877 0.12623 0.80201 0.0
O172 O 0.71873 0.1366 0.82485 0.0
O173 O 0.8178 0.19248 0.76408 0.0
O174 O 0.7603 0.1785 0.78178 0.0
C175 C 0.84912 0.10219 0.81497 0.0
C176 C 0.81847 0.23257 0.83327 0.0
O177 O 0.78719 0.20941 0.83495 0.0
O178 O 0.84504 0.22603 0.81805 0.0
C179 C 0.71445 0.11118 0.84125 0.0
O180 O 0.74602 0.10065 0.85363 0.0
C181 C 0.77949 0.19041 0.76405 0.0
Zn182 Zn 0.49125 0.06693 0.54256 0.0
Zn183 Zn 0.5214 -0.00166 0.56167 0.0
O184 O 0.56198 0.04509 0.56963 0.0
O185 O 0.53694 0.10191 0.55436 0.0
O186 O 0.5497 0.94642 0.57276 0.0
O187 O 0.49136 0.04139 0.51131 0.0
O188 O 0.51244 -0.01617 0.52769 0.0
C189 C 0.56336 0.08418 0.56658 0.0
C190 C 0.44159 0.03241 0.57919 0.0
O191 O 0.4689 0.00455 0.58071 0.0
O192 O 0.44391 0.06001 0.56387 0.0
C193 C 0.57776 0.94668 0.58767 0.0
O194 O 0.58723 0.9813 0.59816 0.0
C195 C 0.50102 0.00356 0.51 0.0
Zn196 Zn 0.61131 0.77687 0.29769 0.0
Zn197 Zn 0.68246 0.80024 0.31762 0.0
O198 O 0.64431 0.85097 0.31985 0.0
O199 O 0.58654 0.83289 0.30373 0.0
O200 O 0.73609 0.82385 0.32893 0.0
O201 O 0.64022 0.76272 0.26832 0.0
O202 O 0.69756 0.77929 0.28558 0.0
C203 C 0.6079 0.85941 0.31418 0.0
C204 C 0.63595 0.72729 0.3372 0.0
O205 O 0.6667 0.75131 0.33857 0.0
O206 O 0.60915 0.73273 0.322 0.0
C207 C 0.73703 0.85182 0.34423 0.0
O208 O 0.70335 0.86224 0.35475 0.0
C209 C 0.67855 0.76557 0.2682 0.0
Zn210 Zn 0.96361 0.89678 0.0446 0.0
Zn211 Zn 0.93346 0.95817 0.06642 0.0
O212 O 0.90247 0.90446 0.07561 0.0
O213 O 0.91921 0.85632 0.0508 0.0
O214 O 0.8961 0.00313 0.07809 0.0
O215 O 0.96903 0.92369 0.01447 0.0
O216 O 0.94228 0.97679 0.03266 0.0
C217 C 0.89898 0.86756 0.06805 0.0
C218 C 0.01294 0.92955 0.08288 0.0
O219 O -0.01336 0.95833 0.08468 0.0
O220 O 0.00891 0.90163 0.0678 0.0
C221 C 0.89203 0.01462 0.09869 0.0
O222 O 0.91517 -0.00156 0.11461 0.0
C223 C 0.95689 0.96074 0.01453 0.0
Zn224 Zn 0.62039 0.69876 0.7985 0.0
Zn225 Zn 0.68948 0.6832 0.82059 0.0
O226 O 0.65559 0.62925 0.82345 0.0
O227 O 0.5997 0.6407 0.80433 0.0
O228 O 0.74414 0.66502 0.83225 0.0
O229 O 0.64824 0.71322 0.76918 0.0
O230 O 0.70504 0.70383 0.78838 0.0
C231 C 0.62144 0.61636 0.81606 0.0
C232 C 0.63569 0.74961 0.83949 0.0
O233 O 0.66801 0.72844 0.84201 0.0
O234 O 0.61248 0.74314 0.82257 0.0
C235 C 0.74696 0.64096 0.8493 0.0
O236 O 0.71435 0.6326 0.86134 0.0
C237 C 0.68656 0.71399 0.77012 0.0
Zn238 Zn 0.5599 0.46959 0.11505 0.0
Zn239 Zn 0.54061 0.46769 0.07815 0.0
O240 O 0.48493 0.46154 0.09319 0.0
O241 O 0.50272 0.46956 0.12863 0.0
O242 O 0.52714 0.48119 0.04575 0.0
O243 O 0.57893 0.51875 0.09125 0.0
O244 O 0.57866 0.51775 0.09124 0.0
C245 C 0.47478 0.46466 0.11404 0.0
C246 C 0.58845 0.39558 0.09351 0.0
O247 O 0.57028 0.41222 0.07675 0.0
O248 O 0.58937 0.41405 0.1126 0.0
C249 C 0.50281 0.45721 0.0353 0.0
O250 O 0.48763 0.42474 0.0458 0.0
C251 C 0.61592 0.5139 0.08588 0.0
Zn252 Zn 0.84733 0.27982 0.29558 0.0
Zn253 Zn 0.77818 0.29175 0.31716 0.0
O254 O 0.81218 0.3434 0.32438 0.0
O255 O 0.87169 0.33218 0.30861 0.0
O256 O 0.72459 0.31081 0.32964 0.0
O257 O 0.82124 0.27455 0.26472 0.0
O258 O 0.76402 0.27516 0.28425 0.0
C259 C 0.84912 0.35363 0.32147 0.0
C260 C 0.83028 0.22106 0.33247 0.0
O261 O 0.79894 0.24307 0.33645 0.0
O262 O 0.85295 0.22892 0.3155 0.0
C263 C 0.7108 0.30561 0.34966 0.0
O264 O 0.73022 0.28189 0.36421 0.0
C265 C 0.78309 0.27037 0.26553 0.0
Zn266 Zn 0.89679 0.50638 0.62255 0.0
Zn267 Zn 0.91488 0.50099 0.57772 0.0
O268 O 0.96803 0.51428 0.59436 0.0
O269 O 0.95517 0.51753 0.63118 0.0
O270 O 0.93507 0.49665 0.5454 0.0
O271 O 0.87236 0.44906 0.62104 0.0
O272 O 0.8859 0.44542 0.58421 0.0
C273 C 0.9798 0.521 0.61472 0.0
C274 C 0.85942 0.56978 0.59382 0.0
O275 O 0.87667 0.55109 0.57732 0.0
O276 O 0.86282 0.55632 0.61405 0.0
C277 C 0.95659 0.52586 0.53721 0.0
O278 O 0.96322 0.55944 0.54929 0.0
C279 C 0.87043 0.42985 0.60223 0.0
Zn280 Zn 0.61706 0.26045 0.66201 0.0
Zn281 Zn 0.67874 0.28391 0.63798 0.0
O282 O 0.63239 0.32663 0.63318 0.0
O283 O 0.5896 0.31649 0.66119 0.0
O284 O 0.72621 0.31321 0.62354 0.0
O285 O 0.6494 0.24328 0.68912 0.0
O286 O 0.70128 0.26897 0.67001 0.0
C287 C 0.6003 0.33715 0.64391 0.0
C288 C 0.63533 0.21016 0.62104 0.0
O289 O 0.66755 0.23179 0.61946 0.0
O290 O 0.60925 0.21803 0.63642 0.0
C291 C 0.75947 0.29688 0.61724 0.0
O292 O 0.76434 0.25654 0.61848 0.0
C293 C 0.68677 0.2517 0.68782 0.0
Zn294 Zn 0.91903 0.45327 0.83563 0.0
Zn295 Zn 0.92735 0.45604 0.88027 0.0
O296 O -0.01448 0.45266 0.86657 0.0
O297 O 0.9787 0.45161 0.82946 0.0
O298 O 0.93895 0.46437 0.9137 0.0
O299 O 0.88873 0.50688 0.83488 0.0
O300 O 0.88925 0.50509 0.87243 0.0
C301 C 0.00158 0.45151 0.84677 0.0
C302 C 0.88254 0.3836 0.8603 0.0
O303 O 0.89644 0.40113 0.87814 0.0
O304 O 0.88771 0.39977 0.8408 0.0
C305 C 0.96291 0.44065 0.92456 0.0
O306 O 0.97973 0.40899 0.91413 0.0
C307 C 0.87728 0.52153 0.85384 0.0
Zn308 Zn 0.8487 0.69293 0.17076 0.0
Zn309 Zn 0.78798 0.6708 0.14435 0.0
O310 O 0.83425 0.62791 0.14083 0.0
O311 O 0.87777 0.63772 0.16858 0.0
O312 O 0.74185 0.64055 0.12922 0.0
O313 O 0.81398 0.70704 0.19763 0.0
O314 O 0.76313 0.68837 0.17543 0.0
C315 C 0.86669 0.6175 0.15118 0.0
C316 C 0.83404 0.74309 0.12861 0.0
O317 O 0.80278 0.72075 0.12517 0.0
O318 O 0.85704 0.73641 0.14563 0.0
C319 C 0.73082 0.64256 0.10848 0.0
O320 O 0.74924 0.66804 0.0944 0.0
C321 C 0.77635 0.70232 0.19439 0.0
Zn322 Zn 0.55151 0.49842 0.33617 0.0
Zn323 Zn 0.53623 0.49707 0.38113 0.0
O324 O 0.47997 0.49933 0.36581 0.0
O325 O 0.49136 0.49771 0.32904 0.0
O326 O 0.52165 0.49084 0.41417 0.0
O327 O 0.5837 0.44534 0.33854 0.0
O328 O 0.57219 0.44587 0.3756 0.0
C329 C 0.46638 0.49873 0.34547 0.0
C330 C 0.58195 0.57027 0.36168 0.0
O331 O 0.56717 0.55212 0.3791 0.0
O332 O 0.57949 0.55376 0.34208 0.0
C333 C 0.49607 0.51428 0.42397 0.0
O334 O 0.47902 0.54471 0.41262 0.0
C335 C 0.58856 0.42951 0.35809 0.0
Zn336 Zn 0.35251 0.27837 0.16451 0.0
Zn337 Zn 0.28089 0.29918 0.14485 0.0
O338 O 0.31794 0.35027 0.14024 0.0
O339 O 0.37605 0.33397 0.15658 0.0
O340 O 0.22625 0.31967 0.13374 0.0
O341 O 0.32561 0.2664 0.19467 0.0
O342 O 0.26759 0.28119 0.17774 0.0
C343 C 0.35455 0.35918 0.14533 0.0
C344 C 0.3281 0.22651 0.12596 0.0
O345 O 0.29687 0.24971 0.12453 0.0
O346 O 0.35492 0.23289 0.14104 0.0
C347 C 0.222 0.33952 0.11517 0.0
O348 O 0.25346 0.34515 0.10175 0.0
C349 C 0.28733 0.26924 0.19524 0.0
Zn350 Zn 0.47636 0.57399 0.91171 0.0
Zn351 Zn 0.44038 0.50912 0.89402 0.0
O352 O 0.40693 0.56028 0.8843 0.0
O353 O 0.42922 0.61151 0.90566 0.0
O354 O 0.40447 0.46137 0.88447 0.0
O355 O 0.48418 0.5493 0.94237 0.0
O356 O 0.45029 0.49616 0.9283 0.0
C357 C 0.40522 0.59806 0.89053 0.0
C358 C 0.51836 0.53602 0.87281 0.0
O359 O 0.49144 0.50768 0.87404 0.0
O360 O 0.51794 0.56633 0.88658 0.0
C361 C 0.38651 0.46089 0.8653 0.0
O362 O 0.39345 0.49067 0.85052 0.0
C363 C 0.4684 0.51393 0.94487 0.0
Zn364 Zn 0.12146 0.70307 0.65819 0.0
Zn365 Zn 0.1886 0.67961 0.63577 0.0
O366 O 0.14787 0.63109 0.63246 0.0
O367 O 0.09468 0.64823 0.6532 0.0
O368 O 0.24071 0.65473 0.62366 0.0
O369 O 0.1514 0.7165 0.68689 0.0
O370 O 0.20647 0.69856 0.66785 0.0
C371 C 0.1127 0.62282 0.64029 0.0
C372 C 0.14174 0.75224 0.61761 0.0
O373 O 0.17276 0.72894 0.61538 0.0
O374 O 0.1167 0.7467 0.63374 0.0
C375 C 0.24062 0.62863 0.60743 0.0
O376 O 0.20651 0.62041 0.59673 0.0
C377 C 0.18946 0.71216 0.68588 0.0
Zn378 Zn 0.00359 0.41168 0.42308 0.0
Zn379 Zn 0.03709 0.46361 0.39941 0.0
O380 O 0.07476 0.41328 0.39436 0.0
O381 O 0.03788 0.36522 0.41096 0.0
O382 O 0.07018 0.51023 0.3856 0.0
O383 O 0.01139 0.43342 0.45402 0.0
O384 O 0.02395 0.48733 0.43214 0.0
C385 C 0.06772 0.37518 0.3985 0.0
C386 C 0.95386 0.43455 0.38651 0.0
O387 O -0.01286 0.4501 0.37937 0.0
O388 O 0.9504 0.42525 0.40738 0.0
C389 C 0.08244 0.51077 0.36505 0.0
O390 O 0.06995 0.48197 0.35082 0.0
C391 C 0.0161 0.47196 0.45177 0.0
Zn392 Zn 0.34045 0.67425 0.29169 0.0
Zn393 Zn 0.27219 0.66376 0.3141 0.0
O394 O 0.31037 0.61377 0.32106 0.0
O395 O 0.36459 0.61949 0.29935 0.0
O396 O 0.2187 0.6439 0.32769 0.0
O397 O 0.31223 0.68597 0.26197 0.0
O398 O 0.25523 0.6757 0.28088 0.0
C399 C 0.34466 0.60005 0.31434 0.0
C400 C 0.32376 0.73771 0.32594 0.0
O401 O 0.28974 0.71939 0.3289 0.0
O402 O 0.35019 0.72236 0.31268 0.0
C403 C 0.21802 0.61948 0.34472 0.0
O404 O 0.25196 0.61126 0.35555 0.0
C405 C 0.27386 0.68511 0.26253 0.0
Zn406 Zn -0.00372 0.56105 0.04887 0.0
Zn407 Zn 0.03756 0.49479 0.06374 0.0
O408 O 0.07888 0.54223 0.06539 0.0
O409 O 0.04377 0.59804 0.05687 0.0
O410 O 0.07409 0.44755 0.07383 0.0
O411 O -0.01021 0.53479 0.018 0.0
O412 O 0.01888 0.47812 0.03124 0.0
C413 C 0.07626 0.58147 0.06388 0.0
C414 C 0.96274 0.5272 0.08991 0.0
O415 O -0.00675 0.50287 0.08875 0.0
O416 O 0.95544 0.55238 0.07389 0.0
C417 C 0.07803 0.43553 0.09438 0.0
O418 O 0.05413 0.45078 0.11025 0.0
C419 C 0.00122 0.49773 0.01517 0.0
Zn420 Zn 0.133 0.2671 0.80421 0.0
Zn421 Zn 0.20395 0.29226 0.82287 0.0
O422 O 0.16341 0.34038 0.82743 0.0
O423 O 0.10598 0.32141 0.8112 0.0
O424 O 0.25626 0.31936 0.83312 0.0
O425 O 0.15974 0.25594 0.77393 0.0
O426 O 0.21783 0.27356 0.79003 0.0
C427 C 0.12654 0.34767 0.8223 0.0
C428 C 0.16188 0.21838 0.8434 0.0
O429 O 0.19226 0.24291 0.84411 0.0
O430 O 0.13422 0.22294 0.82859 0.0
C431 C 0.2564 0.34288 0.85052 0.0
O432 O 0.22355 0.34582 0.86314 0.0
C433 C 0.19785 0.26032 0.77288 0.0
Zn434 Zn 0.46051 0.39666 0.54848 0.0
Zn435 Zn 0.4245 0.46511 0.56381 0.0
O436 O 0.3816 0.41966 0.56866 0.0
O437 O 0.41253 0.36214 0.55853 0.0
O438 O 0.39174 0.51553 0.57266 0.0
O439 O 0.46599 0.42011 0.51695 0.0
O440 O 0.44096 0.47841 0.5306 0.0
C441 C 0.38217 0.38031 0.5672 0.0
C442 C 0.50037 0.43207 0.58767 0.0
O443 O 0.47101 0.4579 0.58738 0.0
O444 O 0.50404 0.40535 0.57199 0.0
C445 C 0.37838 0.52035 0.59282 0.0
O446 O 0.38999 0.49476 0.60896 0.0
C447 C 0.45623 0.45766 0.51421 0.0
C448 C 0.06239 0.31364 0.37293 0.0
C449 C 0.08755 0.34242 0.38459 0.0
C450 C 0.14728 0.31026 0.36682 0.0
C451 C 0.12184 0.27867 0.35765 0.0
N452 N 0.05686 0.24377 0.35895 0.0
N453 N 0.15487 0.36422 0.39549 0.0
C454 C 0.07997 0.27819 0.36306 0.0
C455 C 0.1304 0.33959 0.38245 0.0
N456 N 0.0221 0.32163 0.36957 0.0
N457 N 0.18671 0.31369 0.35985 0.0
H458 H 0.14338 0.38566 0.40714 0.0
H459 H 0.18629 0.36077 0.39618 0.0
H460 H 0.19997 0.29345 0.34817 0.0
H461 H 0.20522 0.33867 0.36419 0.0
H462 H 0.00342 0.30264 0.3597 0.0
H463 H 0.00897 0.35001 0.37372 0.0
H464 H 0.02672 0.24136 0.36428 0.0
H465 H 0.06908 0.21613 0.35276 0.0
C466 C 0.89871 0.95354 0.64114 0.0
C467 C 0.91091 0.95544 0.61801 0.0
C468 C 0.85829 0.9057 0.60748 0.0
C469 C 0.85259 0.89676 0.63101 0.0
N470 N 0.86079 0.91655 0.67038 0.0
N471 N 0.88507 0.95433 0.57971 0.0
C472 C 0.8702 0.92272 0.64792 0.0
C473 C 0.8851 0.93825 0.60122 0.0
N474 N 0.91331 -0.0177 0.65614 0.0
N475 N 0.84079 0.88134 0.59113 0.0
H476 H 0.90128 0.9812 0.57577 0.0
H477 H 0.86493 0.94494 0.56701 0.0
H478 H 0.82069 0.85733 0.59485 0.0
H479 H 0.84816 0.88343 0.57388 0.0
H480 H 0.90447 -0.01559 0.67314 0.0
H481 H 0.93133 0.00704 0.65068 0.0
H482 H 0.87568 0.93101 0.68386 0.0
H483 H 0.83812 0.89594 0.67555 0.0
C484 C 0.40564 0.66187 0.86669 0.0
C485 C 0.38328 0.62846 0.87622 0.0
C486 C 0.32269 0.65147 0.85535 0.0
C487 C 0.34448 0.68699 0.84791 0.0
N488 N 0.40273 0.73194 0.85283 0.0
N489 N 0.31897 0.59449 0.88242 0.0
C490 C 0.38465 0.6941 0.85565 0.0
C491 C 0.34122 0.62408 0.87139 0.0
N492 N 0.44721 0.6617 0.86668 0.0
N493 N 0.28522 0.64309 0.8465 0.0
H494 H 0.33169 0.57429 0.89433 0.0
H495 H 0.2875 0.59219 0.88118 0.0
H496 H 0.27092 0.66254 0.8348 0.0
H497 H 0.2697 0.61546 0.84945 0.0
H498 H 0.46443 0.68374 0.85796 0.0
H499 H 0.46453 0.63706 0.87276 0.0
H500 H 0.43058 0.7395 0.86022 0.0
H501 H 0.38808 0.75715 0.84537 0.0
C502 C 0.55431 0.01681 0.14997 0.0
C503 C 0.5445 0.01179 0.12662 0.0
C504 C 0.59777 0.06008 0.11561 0.0
C505 C 0.60188 0.0719 0.13889 0.0
N506 N 0.59166 0.05604 0.17866 0.0
N507 N 0.57475 0.00677 0.08955 0.0
C508 C 0.58296 0.04794 0.15629 0.0
C509 C 0.57224 0.02622 0.11012 0.0
N510 N 0.53739 -0.00932 0.16563 0.0
N511 N 0.61488 0.08308 0.09854 0.0
H512 H 0.55812 0.97987 0.08618 0.0
H513 H 0.59696 0.01384 0.07748 0.0
H514 H 0.63269 0.10924 0.10138 0.0
H515 H 0.60854 0.07802 0.08134 0.0
H516 H 0.54347 -0.00857 0.18303 0.0
H517 H 0.51986 0.96527 0.16062 0.0
H518 H 0.57658 0.04267 0.1924 0.0
H519 H 0.61449 0.07673 0.18349 0.0
C520 C 0.13822 0.67831 0.07356 0.0
C521 C 0.15146 0.67165 0.09623 0.0
C522 C 0.12336 0.60189 0.09605 0.0
C523 C 0.10864 0.60848 0.07345 0.0
N524 N 0.11355 0.64729 0.03843 0.0
N525 N 0.17141 0.6232 0.12508 0.0
C526 C 0.12014 0.64485 0.06139 0.0
C527 C 0.1495 0.63175 0.10588 0.0
N528 N 0.14064 0.71699 0.06422 0.0
N529 N 0.1093 0.56997 0.10921 0.0
H530 H 0.19075 0.64513 0.13242 0.0
H531 H 0.17377 0.59351 0.13196 0.0
H532 H 0.08784 0.54848 0.10387 0.0
H533 H 0.11591 0.56725 0.12653 0.0
H534 H 0.12699 0.72496 0.04881 0.0
H535 H 0.15488 0.74166 0.0725 0.0
H536 H 0.12402 0.6717 0.02838 0.0
H537 H 0.10116 0.62274 0.02913 0.0
C538 C 0.54396 0.95686 0.30975 0.0
C539 C 0.53421 0.96191 0.33311 0.0
C540 C 0.58554 0.91123 0.34386 0.0
C541 C 0.58926 0.89966 0.32051 0.0
N542 N 0.57891 0.91609 0.28082 0.0
N543 N 0.56377 0.96446 0.3704 0.0
C544 C 0.57106 0.92448 0.30325 0.0
C545 C 0.56109 0.94582 0.34959 0.0
N546 N 0.52872 -0.01574 0.29423 0.0
N547 N 0.6021 0.88741 0.36072 0.0
H548 H 0.54814 -0.00809 0.37382 0.0
H549 H 0.58498 0.95605 0.38274 0.0
H550 H 0.61909 0.86083 0.35761 0.0
H551 H 0.59614 0.89226 0.37798 0.0
H552 H 0.53539 -0.01617 0.27689 0.0
H553 H 0.51251 0.01046 0.29936 0.0
H554 H 0.56373 0.92982 0.26723 0.0
H555 H 0.60079 0.89458 0.27576 0.0
C556 C 0.31799 0.28629 0.57962 0.0
C557 C 0.31 0.29221 0.60315 0.0
C558 C 0.34078 0.36088 0.60198 0.0
C559 C 0.35036 0.35478 0.57847 0.0
N560 N 0.33637 0.31818 0.54353 0.0
N561 N 0.299 0.33976 0.634 0.0
C562 C 0.33477 0.31963 0.5668 0.0
C563 C 0.31596 0.33144 0.61323 0.0
N564 N 0.31212 0.24827 0.5699 0.0
N565 N 0.35849 0.39195 0.61434 0.0
H566 H 0.28081 0.31818 0.64251 0.0
H567 H 0.29935 0.36914 0.64141 0.0
H568 H 0.37894 0.4132 0.60765 0.0
H569 H 0.35588 0.3943 0.63202 0.0
H570 H 0.32211 0.24071 0.55356 0.0
H571 H 0.29898 0.22354 0.57867 0.0
H572 H 0.32268 0.29489 0.5339 0.0
H573 H 0.34791 0.34265 0.53383 0.0
C574 C 0.92795 0.06513 0.85459 0.0
C575 C 0.94238 0.02906 0.84319 0.0
C576 C 0.88668 0.03468 0.81558 0.0
C577 C 0.87245 0.07018 0.82728 0.0
N578 N 0.87082 0.11006 0.86207 0.0
N579 N 0.9295 0.97346 0.81665 0.0
C580 C 0.88976 0.0817 0.84842 0.0
C581 C 0.91965 0.01174 0.82491 0.0
N582 N 0.95225 0.08647 0.86946 0.0
N583 N 0.86951 0.02389 0.79523 0.0
H584 H 0.95298 0.95575 0.82354 0.0
H585 H 0.91216 0.9578 0.80454 0.0
H586 H 0.84403 0.03912 0.78876 0.0
H587 H 0.8814 0.00123 0.78448 0.0
H588 H 0.94435 0.11518 0.87628 0.0
H589 H 0.98227 0.07864 0.87288 0.0
H590 H 0.8806 0.11681 0.87858 0.0
H591 H 0.84298 0.12338 0.85792 0.0
C592 C 0.79777 0.61241 0.59987 0.0
C593 C 0.83721 0.60921 0.59041 0.0
C594 C 0.8416 0.68486 0.58872 0.0
C595 C 0.80776 0.68718 0.6035 0.0
N596 N 0.75059 0.65426 0.62174 0.0
N597 N 0.89594 0.64247 0.57365 0.0
C598 C 0.78412 0.65142 0.6081 0.0
C599 C 0.85843 0.64547 0.58347 0.0
N600 N 0.77409 0.57774 0.60136 0.0
N601 N 0.85795 0.72063 0.58027 0.0
H602 H 0.90873 0.61445 0.56866 0.0
H603 H 0.91517 0.66771 0.57116 0.0
H604 H 0.84565 0.74964 0.5841 0.0
H605 H 0.88072 0.72137 0.56795 0.0
H606 H 0.74385 0.57815 0.60655 0.0
H607 H 0.78392 0.54904 0.59523 0.0
H608 H 0.73504 0.62864 0.62811 0.0
H609 H 0.73913 0.68251 0.62746 0.0
C610 C 0.11709 0.05424 0.3422 0.0
C611 C 0.10255 0.07599 0.32289 0.0
C612 C 0.03484 0.04665 0.3286 0.0
C613 C 0.04682 0.03448 0.35092 0.0
N614 N 0.10007 0.01951 0.37775 0.0
N615 N 0.05644 0.07142 0.29134 0.0
C616 C 0.0885 0.03515 0.3571 0.0
C617 C 0.06414 0.06505 0.31394 0.0
N618 N 0.1579 0.05034 0.34556 0.0
N619 N -0.00494 0.04414 0.32214 0.0
H620 H 0.07891 0.08231 0.28027 0.0
H621 H 0.03011 0.06139 0.28318 0.0
H622 H 0.97282 0.02976 0.33199 0.0
H623 H -0.01626 0.05779 0.30736 0.0
H624 H 0.17065 0.03272 0.35857 0.0
H625 H 0.17893 0.06036 0.33343 0.0
H626 H 0.12892 0.02347 0.38467 0.0
H627 H 0.07991 0.00335 0.38826 0.0
C628 C 0.6496 0.35067 0.09632 0.0
C629 C 0.60768 0.3543 0.09142 0.0
C630 C 0.60113 0.27889 0.09294 0.0
C631 C 0.63959 0.27681 0.10365 0.0
N632 N 0.70231 0.31019 0.11449 0.0
N633 N 0.54311 0.32171 0.08357 0.0
C634 C 0.66495 0.31233 0.10447 0.0
C635 C 0.58347 0.31826 0.08863 0.0
N636 N 0.67443 0.38405 0.0931 0.0
N637 N 0.58134 0.24297 0.08756 0.0
H638 H 0.52913 0.34992 0.08001 0.0
H639 H 0.52293 0.29685 0.08406 0.0
H640 H 0.59425 0.21395 0.09067 0.0
H641 H 0.55453 0.24194 0.07816 0.0
H642 H 0.70589 0.38286 0.09479 0.0
H643 H 0.66359 0.41171 0.08618 0.0
H644 H 0.71987 0.33619 0.11823 0.0
H645 H 0.71512 0.28244 0.11999 0.0
C646 C 0.40235 0.87031 0.87488 0.0
C647 C 0.41604 0.91182 0.87164 0.0
C648 C 0.37815 0.91433 0.83547 0.0
C649 C 0.36199 0.87449 0.84014 0.0
N650 N 0.34947 0.8205 0.86809 0.0
N651 N 0.41008 0.9762 0.85094 0.0
C652 C 0.37054 0.85486 0.86122 0.0
C653 C 0.40187 0.93481 0.85252 0.0
N654 N 0.42199 0.84374 0.88936 0.0
N655 N 0.37122 0.93226 0.81476 0.0
H656 H 0.4261 -0.00771 0.86349 0.0
H657 H 0.39773 -0.00477 0.83839 0.0
H658 H 0.35244 0.91868 0.8025 0.0
H659 H 0.38572 0.95925 0.80936 0.0
H660 H 0.41545 0.81214 0.8901 0.0
H661 H 0.4483 0.85106 0.89829 0.0
H662 H 0.35211 0.80824 0.88448 0.0
H663 H 0.32681 0.80629 0.85851 0.0
C664 C 0.81943 0.34356 0.85286 0.0
C665 C 0.8595 0.34429 0.86167 0.0
C666 C 0.86027 0.26852 0.86224 0.0
C667 C 0.82494 0.26845 0.84851 0.0
N668 N 0.76854 0.30489 0.83179 0.0
N669 N 0.9179 0.30781 0.87627 0.0
C670 C 0.80312 0.30559 0.84466 0.0
C671 C 0.8795 0.30683 0.86745 0.0
N672 N 0.79742 0.37941 0.8522 0.0
N673 N 0.87563 0.23166 0.86975 0.0
H674 H 0.93266 0.33526 0.88067 0.0
H675 H 0.93596 0.28161 0.87826 0.0
H676 H 0.86155 0.20344 0.866 0.0
H677 H 0.89957 0.22925 0.88126 0.0
H678 H 0.76691 0.38069 0.84762 0.0
H679 H 0.80889 0.40743 0.85839 0.0
H680 H 0.75405 0.33144 0.82588 0.0
H681 H 0.75514 0.2774 0.82622 0.0
C682 C 0.38675 0.06498 0.6328 0.0
C683 C 0.35539 0.08734 0.62164 0.0
C684 C 0.3698 0.04793 0.58689 0.0
C685 C 0.40783 0.03638 0.59592 0.0
N686 N 0.45172 0.03069 0.62884 0.0
N687 N 0.31963 0.10189 0.58614 0.0
C688 C 0.41573 0.04289 0.61948 0.0
C689 C 0.34657 0.07849 0.59831 0.0
N690 N 0.38878 0.06506 0.65607 0.0
N691 N 0.35744 0.03152 0.56658 0.0
H692 H 0.30417 0.12732 0.59266 0.0
H693 H 0.31576 0.09873 0.56858 0.0
H694 H 0.37485 0.00944 0.55795 0.0
H695 H 0.32855 0.03647 0.55984 0.0
H696 H 0.40901 0.04671 0.66526 0.0
H697 H 0.3672 0.08012 0.66615 0.0
H698 H 0.46128 0.03999 0.645 0.0
H699 H 0.47268 0.01229 0.62026 0.0
C700 C 0.59523 0.68698 0.36496 0.0
C701 C 0.63137 0.69044 0.35203 0.0
C702 C 0.6422 0.61569 0.35574 0.0
C703 C 0.60172 0.61142 0.36361 0.0
N704 N 0.53949 0.6429 0.37687 0.0
N705 N 0.69128 0.6588 0.33603 0.0
C706 C 0.57849 0.64707 0.36921 0.0
C707 C 0.65611 0.65514 0.34825 0.0
N708 N 0.57671 0.72218 0.37264 0.0
N709 N 0.667 0.58178 0.35532 0.0
H710 H 0.70318 0.6873 0.33101 0.0
H711 H 0.70782 0.63355 0.33005 0.0
H712 H 0.65731 0.5527 0.36095 0.0
H713 H 0.69787 0.58322 0.35156 0.0
H714 H 0.55197 0.72214 0.38371 0.0
H715 H 0.5889 0.75157 0.36958 0.0
H716 H 0.51945 0.66764 0.37855 0.0
H717 H 0.52621 0.61431 0.38045 0.0
C718 C 0.11037 0.88475 0.09818 0.0
C719 C 0.10364 0.87399 0.12149 0.0
C720 C 0.04246 0.91735 0.12201 0.0
C721 C 0.04822 0.92562 0.09847 0.0
N722 N 0.09564 0.93346 0.06779 0.0
N723 N 0.07264 0.89273 0.15728 0.0
C724 C 0.08556 0.91552 0.0881 0.0
C725 C 0.07285 0.89483 0.13401 0.0
N726 N 0.13675 0.86289 0.08478 0.0
N727 N 0.00707 0.92829 0.13252 0.0
H728 H 0.09524 0.87722 0.16638 0.0
H729 H 0.05282 0.90981 0.16745 0.0
H730 H -0.0149 0.94654 0.12467 0.0
H731 H -0.00099 0.91807 0.14876 0.0
H732 H 0.13902 0.86732 0.06722 0.0
H733 H 0.15348 0.83755 0.09032 0.0
H734 H 0.12395 0.92964 0.0601 0.0
H735 H 0.07696 0.9556 0.06013 0.0
C736 C 0.64568 0.81268 0.86504 0.0
C737 C 0.6215 0.77892 0.8573 0.0
C738 C 0.56141 0.81082 0.87379 0.0
C739 C 0.58565 0.84239 0.8838 0.0
N740 N 0.65241 0.86908 0.8923 0.0
N741 N 0.55944 0.73964 0.86156 0.0
C742 C 0.62839 0.84205 0.88049 0.0
C743 C 0.58044 0.77589 0.8642 0.0
N744 N 0.68417 0.818 0.85686 0.0
N745 N 0.52037 0.81557 0.87158 0.0
H746 H 0.57297 0.71258 0.85544 0.0
H747 H 0.53016 0.73543 0.86797 0.0
H748 H 0.5056 0.84323 0.87543 0.0
H749 H 0.50215 0.79441 0.86284 0.0
H750 H 0.70143 0.84444 0.86007 0.0
H751 H 0.69771 0.79752 0.84541 0.0
H752 H 0.68401 0.86767 0.89212 0.0
H753 H 0.64068 0.89046 0.90391 0.0
C754 C 0.40484 0.43684 0.1057 0.0
C755 C 0.43232 0.45451 0.12148 0.0
C756 C 0.39311 0.42464 0.15295 0.0
C757 C 0.37381 0.39788 0.137 0.0
N758 N 0.3605 0.37915 0.09761 0.0
N759 N 0.43869 0.48321 0.15907 0.0
C760 C 0.37839 0.4049 0.11317 0.0
C761 C 0.42207 0.45412 0.14495 0.0
N762 N 0.4031 0.45163 0.08392 0.0
N763 N 0.38461 0.42062 0.17568 0.0
H764 H 0.45648 0.50742 0.15274 0.0
H765 H 0.43178 0.48622 0.17631 0.0
H766 H 0.36156 0.40121 0.18167 0.0
H767 H 0.40034 0.43583 0.18859 0.0
H768 H 0.38157 0.44185 0.07205 0.0
H769 H 0.4194 0.47785 0.0789 0.0
H770 H 0.3672 0.38007 0.08024 0.0
H771 H 0.34123 0.35485 0.10203 0.0
C772 C 0.90608 0.16293 0.36776 0.0
C773 C 0.88307 0.12883 0.37603 0.0
C774 C 0.82297 0.15544 0.35598 0.0
C775 C 0.84555 0.19109 0.34956 0.0
N776 N 0.90462 0.23424 0.35569 0.0
N777 N 0.818 0.09578 0.38117 0.0
C778 C 0.88576 0.19661 0.3576 0.0
C779 C 0.8409 0.126 0.37111 0.0
N780 N 0.94763 0.16206 0.36791 0.0
N781 N 0.78532 0.14882 0.34691 0.0
H782 H 0.83026 0.07405 0.3924 0.0
H783 H 0.78649 0.09441 0.37992 0.0
H784 H 0.77134 0.16984 0.33593 0.0
H785 H 0.76922 0.12128 0.34899 0.0
H786 H 0.96535 0.18466 0.35998 0.0
H787 H 0.96452 0.13657 0.37328 0.0
H788 H 0.93252 0.2407 0.36333 0.0
H789 H 0.89054 0.2602 0.34868 0.0
C790 C 0.0656 0.59927 0.61039 0.0
C791 C 0.08814 0.58934 0.63014 0.0
C792 C 0.04651 0.52712 0.63555 0.0
C793 C 0.01931 0.54187 0.61861 0.0
N794 N -0.00098 0.59819 0.59366 0.0
N795 N 0.10118 0.54415 0.66185 0.0
C796 C 0.02805 0.57921 0.60666 0.0
C797 C 0.07921 0.55302 0.64273 0.0
N798 N 0.07912 0.62921 0.59575 0.0
N799 N 0.04117 0.48848 0.64458 0.0
H800 H 0.12644 0.56168 0.66668 0.0
H801 H 0.09346 0.52075 0.67329 0.0
H802 H 0.01775 0.46883 0.63937 0.0
H803 H 0.06181 0.47464 0.65565 0.0
H804 H 0.06542 0.63503 0.58004 0.0
H805 H 0.10639 0.64505 0.59817 0.0
H806 H 0.00291 0.62749 0.5865 0.0
H807 H 0.96925 0.58757 0.59233 0.0
C808 C 0.61201 0.14369 0.56881 0.0
C809 C 0.59179 0.11045 0.57991 0.0
C810 C 0.61706 0.13603 0.61655 0.0
C811 C 0.62823 0.17384 0.60606 0.0
N812 N 0.6352 0.21474 0.57172 0.0
N813 N 0.57018 0.07889 0.61563 0.0
C814 C 0.62623 0.17782 0.58197 0.0
C815 C 0.59362 0.107 0.60412 0.0
N816 N 0.61745 0.14256 0.54571 0.0
N817 N 0.6284 0.12819 0.63854 0.0
H818 H 0.54986 0.05868 0.60783 0.0
H819 H 0.56765 0.0787 0.63336 0.0
H820 H 0.6463 0.14876 0.64794 0.0
H821 H 0.62396 0.09953 0.64638 0.0
H822 H 0.63495 0.16418 0.53689 0.0
H823 H 0.60797 0.11747 0.53579 0.0
H824 H 0.62964 0.22057 0.55452 0.0
H825 H 0.64551 0.2406 0.58065 0.0
C826 C 0.09208 0.4151 0.81439 0.0
C827 C 0.10618 0.38568 0.83051 0.0
C828 C 0.06759 0.42062 0.86061 0.0
C829 C 0.04572 0.44196 0.84351 0.0
N830 N 0.05043 0.47611 0.8073 0.0
N831 N 0.11004 0.36161 0.86951 0.0
C832 C 0.06247 0.44463 0.8213 0.0
C833 C 0.09565 0.38947 0.85394 0.0
N834 N 0.10568 0.41331 0.79237 0.0
N835 N 0.06274 0.4313 0.88297 0.0
H836 H 0.13111 0.33869 0.86544 0.0
H837 H 0.09928 0.3597 0.8862 0.0
H838 H 0.04588 0.45718 0.8878 0.0
H839 H 0.07978 0.4186 0.89619 0.0
H840 H 0.09372 0.43079 0.77908 0.0
H841 H 0.12888 0.39327 0.78731 0.0
H842 H 0.06253 0.48168 0.79119 0.0
H843 H 0.0307 0.49923 0.813 0.0
C844 C 0.90486 0.80175 0.09008 0.0
C845 C 0.88025 0.83523 0.08259 0.0
C846 C 0.82372 0.80866 0.10569 0.0
C847 C 0.8475 0.77338 0.11125 0.0
N848 N 0.90621 0.731 0.10331 0.0
N849 N 0.81458 0.86788 0.08057 0.0
C850 C 0.88663 0.76824 0.10169 0.0
C851 C 0.83907 0.83794 0.08959 0.0
N852 N 0.94616 0.80302 0.08754 0.0
N853 N 0.78745 0.81508 0.11645 0.0
H854 H 0.82505 0.88968 0.0688 0.0
H855 H 0.78336 0.86905 0.0833 0.0
H856 H 0.77535 0.79426 0.12825 0.0
H857 H 0.77082 0.84237 0.11495 0.0
H858 H 0.96547 0.78116 0.09484 0.0
H859 H 0.96167 0.82822 0.08061 0.0
H860 H 0.9332 0.72462 0.09469 0.0
H861 H 0.89335 0.70506 0.11114 0.0
C862 C 0.40748 0.50285 0.31808 0.0
C863 C 0.42252 0.50754 0.3406 0.0
C864 C 0.37321 0.56204 0.34831 0.0
C865 C 0.3632 0.56271 0.32472 0.0
N866 N 0.35994 0.52639 0.28893 0.0
N867 N 0.40169 0.52164 0.3792 0.0
C868 C 0.37661 0.53027 0.31018 0.0
C869 C 0.39941 0.53056 0.3565 0.0
N870 N 0.4231 0.47233 0.30454 0.0
N871 N 0.36052 0.59289 0.3626 0.0
H872 H 0.41731 0.49573 0.38515 0.0
H873 H 0.38348 0.53588 0.39145 0.0
H874 H 0.3415 0.61692 0.35753 0.0
H875 H 0.37129 0.59614 0.37922 0.0
H876 H 0.41641 0.46854 0.28734 0.0
H877 H 0.4425 0.4497 0.31111 0.0
H878 H 0.36739 0.50323 0.27734 0.0
H879 H 0.33639 0.54551 0.28336 0.0
C880 C 0.32575 0.11599 0.10537 0.0
C881 C 0.36665 0.11363 0.09793 0.0
C882 C 0.37055 0.18932 0.09784 0.0
C883 C 0.33414 0.19065 0.11064 0.0
N884 N 0.27497 0.15601 0.12563 0.0
N885 N 0.42822 0.1482 0.08589 0.0
C886 C 0.31044 0.15436 0.11357 0.0
C887 C 0.38882 0.15038 0.09313 0.0
N888 N 0.30197 0.08128 0.10478 0.0
N889 N 0.38788 0.22559 0.09077 0.0
H890 H 0.44274 0.12042 0.08202 0.0
H891 H 0.44736 0.17384 0.08488 0.0
H892 H 0.37456 0.25432 0.09417 0.0
H893 H 0.41275 0.22703 0.07981 0.0
H894 H 0.27095 0.08147 0.10824 0.0
H895 H 0.3127 0.05299 0.09856 0.0
H896 H 0.25904 0.1298 0.1309 0.0
H897 H 0.26226 0.18375 0.13128 0.0
C898 C 0.59046 0.53914 0.86016 0.0
C899 C 0.54877 0.53697 0.85422 0.0
C900 C 0.56477 0.56412 0.81628 0.0
C901 C 0.60312 0.57669 0.82467 0.0
N902 N 0.65925 0.5545 0.84777 0.0
N903 N 0.49634 0.54225 0.82551 0.0
C904 C 0.61837 0.55725 0.84454 0.0
C905 C 0.53615 0.54649 0.83164 0.0
N906 N 0.60265 0.5258 0.88118 0.0
N907 N 0.55645 0.56851 0.79361 0.0
H908 H 0.4747 0.52833 0.83597 0.0
H909 H 0.48439 0.55393 0.81039 0.0
H910 H 0.57841 0.57917 0.78215 0.0
H911 H 0.53017 0.55731 0.78589 0.0
H912 H 0.63153 0.53095 0.88782 0.0
H913 H 0.58296 0.51035 0.89228 0.0
H914 H 0.67274 0.53898 0.86135 0.0
H915 H 0.67957 0.5632 0.83504 0.0
C916 C 0.0971 0.78665 0.58957 0.0
C917 C 0.13384 0.78732 0.60206 0.0
C918 C 0.13756 0.8625 0.59757 0.0
C919 C 0.09646 0.86239 0.59041 0.0
N920 N 0.03727 0.82471 0.57774 0.0
N921 N 0.19169 0.82477 0.61642 0.0
C922 C 0.07659 0.82454 0.58518 0.0
C923 C 0.15553 0.82485 0.60501 0.0
N924 N 0.08163 0.74945 0.58261 0.0
N925 N 0.15888 0.89885 0.5975 0.0
H926 H 0.20617 0.79748 0.62135 0.0
H927 H 0.20658 0.85157 0.62172 0.0
H928 H 0.14606 0.92664 0.59189 0.0
H929 H 0.18985 0.90081 0.60087 0.0
H930 H 0.05643 0.74649 0.57201 0.0
H931 H 0.09671 0.7216 0.5858 0.0
H932 H 0.01955 0.79811 0.57625 0.0
H933 H 0.02154 0.85186 0.574 0.0
C934 C 0.91089 0.43912 0.35048 0.0
C935 C 0.92369 0.41697 0.37019 0.0
C936 C 0.87657 0.36097 0.36056 0.0
C937 C 0.86906 0.37951 0.33906 0.0
N938 N 0.88106 0.43507 0.31255 0.0
N939 N 0.92727 0.34974 0.38908 0.0
C940 C 0.88684 0.41835 0.33368 0.0
C941 C 0.90868 0.37612 0.37406 0.0
N942 N 0.92066 0.48003 0.34811 0.0
N943 N 0.85422 0.32788 0.36804 0.0
H944 H 0.95373 0.35668 0.39797 0.0
H945 H 0.9197 0.31843 0.39033 0.0
H946 H 0.83123 0.31375 0.3587 0.0
H947 H 0.85624 0.31671 0.3847 0.0
H948 H 0.90931 0.49861 0.33506 0.0
H949 H 0.93705 0.49635 0.3604 0.0
H950 H 0.89668 0.46107 0.30671 0.0
H951 H 0.86207 0.42136 0.30044 0.0
C952 C 0.34489 0.80919 0.3167 0.0
C953 C 0.33068 0.78111 0.33344 0.0
C954 C 0.34045 0.83517 0.36249 0.0
C955 C 0.36137 0.85985 0.34609 0.0
N956 N 0.39473 0.86162 0.30917 0.0
N957 N 0.31844 0.7658 0.37312 0.0
C958 C 0.36676 0.84445 0.32361 0.0
C959 C 0.32918 0.79362 0.35666 0.0
N960 N 0.33733 0.80241 0.29407 0.0
N961 N 0.33019 0.85155 0.38318 0.0
H962 H 0.30981 0.73545 0.36935 0.0
H963 H 0.32089 0.77203 0.39051 0.0
H964 H 0.33687 0.88203 0.38775 0.0
H965 H 0.31182 0.83612 0.3949 0.0
H966 H 0.34475 0.82399 0.28148 0.0
H967 H 0.31946 0.77781 0.28829 0.0
H968 H 0.40141 0.84894 0.29323 0.0
H969 H 0.41507 0.88468 0.3142 0.0
C970 C 0.89981 0.52722 0.11406 0.0
C971 C 0.94184 0.53526 0.11187 0.0
C972 C 0.9364 0.59341 0.13825 0.0
C973 C 0.89393 0.58574 0.14071 0.0
N974 N 0.83885 0.53683 0.13672 0.0
N975 N 0.00199 0.56439 0.12875 0.0
C976 C 0.87679 0.54968 0.13053 0.0
C977 C 0.96071 0.56385 0.12672 0.0
N978 N 0.88175 0.49931 0.09981 0.0
N979 N 0.95324 0.63053 0.14445 0.0
H980 H 0.02042 0.54285 0.1205 0.0
H981 H 0.01716 0.58282 0.14063 0.0
H982 H 0.9368 0.65564 0.15061 0.0
H983 H -0.01678 0.6384 0.14072 0.0
H984 H 0.85039 0.49548 0.09871 0.0
H985 H 0.89857 0.48128 0.08841 0.0
H986 H 0.82618 0.50899 0.13118 0.0
H987 H 0.82191 0.55192 0.14927 0.0
C988 C 0.18074 0.14695 0.85618 0.0
C989 C 0.15749 0.18335 0.85945 0.0
C990 C 0.10395 0.14371 0.87847 0.0
C991 C 0.12505 0.10672 0.87284 0.0
N992 N 0.18851 0.07351 0.86435 0.0
N993 N 0.10589 0.21899 0.88058 0.0
C994 C 0.16544 0.10866 0.86456 0.0
C995 C 0.12224 0.18246 0.87323 0.0
N996 N 0.21564 0.14853 0.84361 0.0
N997 N 0.06532 0.14195 0.88695 0.0
H998 H 0.11922 0.24752 0.87668 0.0
H999 H 0.08194 0.22085 0.89214 0.0
H1000 H 0.05109 0.11439 0.89156 0.0
H1001 H 0.04657 0.16775 0.88854 0.0
H1002 H 0.23134 0.12235 0.83815 0.0
H1003 H 0.22817 0.17635 0.8379 0.0
H1004 H 0.2192 0.0731 0.86008 0.0
H1005 H 0.17754 0.04534 0.87062 0.0
C1006 C 0.56691 0.42928 0.60817 0.0
C1007 C 0.52427 0.42454 0.60863 0.0
C1008 C 0.53035 0.36636 0.63479 0.0
C1009 C 0.57356 0.37054 0.63457 0.0
N1010 N 0.63076 0.41578 0.62735 0.0
N1011 N 0.46594 0.4012 0.62965 0.0
C1012 C 0.59121 0.40536 0.62334 0.0
C1013 C 0.50637 0.39801 0.62489 0.0
N1014 N 0.5841 0.45549 0.59266 0.0
N1015 N 0.51184 0.33064 0.64188 0.0
H1016 H 0.44794 0.42442 0.62257 0.0
H1017 H 0.45186 0.38418 0.64255 0.0
H1018 H 0.5272 0.30378 0.64642 0.0
H1019 H 0.48069 0.32566 0.64026 0.0
H1020 H 0.61525 0.45686 0.58964 0.0
H1021 H 0.5665 0.47457 0.58222 0.0
H1022 H 0.64423 0.44245 0.62076 0.0
H1023 H 0.6486 0.4003 0.63932 0.0
C1024 C 0.26636 0.27767 0.23615 0.0
C1025 C 0.26518 0.25438 0.21561 0.0
C1026 C 0.22451 0.20049 0.2344 0.0
C1027 C 0.22249 0.2256 0.25421 0.0
N1028 N 0.23747 0.28967 0.27369 0.0
N1029 N 0.24178 0.19489 0.19428 0.0
C1030 C 0.24264 0.26449 0.25512 0.0
C1031 C 0.24378 0.21616 0.21447 0.0
N1032 N 0.2902 0.31233 0.23749 0.0
N1033 N 0.2093 0.16102 0.23499 0.0
H1034 H 0.25777 0.20361 0.17969 0.0
H1035 H 0.22258 0.16975 0.19151 0.0
H1036 H 0.19525 0.14849 0.24939 0.0
H1037 H 0.21344 0.13938 0.22203 0.0
H1038 H 0.29622 0.32795 0.25266 0.0
H1039 H 0.30618 0.32421 0.22358 0.0
H1040 H 0.24734 0.3203 0.27438 0.0
H1041 H 0.22073 0.28094 0.28802 0.0
C1042 C 0.00114 0.93599 0.48831 0.0
C1043 C 0.97777 0.9523 0.50658 0.0
C1044 C 0.93791 -0.00588 0.4799 0.0
C1045 C 0.96225 0.97906 0.46176 0.0
N1046 N 0.00999 0.92915 0.44729 0.0
N1047 N 0.91778 -0.01229 0.51958 0.0
C1048 C -0.0086 0.94753 0.46552 0.0
C1049 C 0.94411 0.97849 0.50228 0.0
N1050 N 0.03404 0.91154 0.49286 0.0
N1051 N 0.90979 0.02436 0.47577 0.0
H1052 H 0.92147 0.9762 0.53607 0.0
H1053 H 0.89056 0.00353 0.51729 0.0
H1054 H 0.90281 0.03462 0.45935 0.0
H1055 H 0.8946 0.04051 0.48855 0.0
H1056 H 0.05516 0.90254 0.48061 0.0
H1057 H 0.04173 0.90201 0.5093 0.0
H1058 H 0.02883 0.9034 0.44862 0.0
H1059 H 0.00384 0.93759 0.43046 0.0
C1060 C 0.22461 0.69723 0.72263 0.0
C1061 C 0.2144 0.72591 0.70531 0.0
C1062 C 0.24942 0.7817 0.72586 0.0
C1063 C 0.25666 0.75382 0.74408 0.0
N1064 N 0.24991 0.68587 0.76098 0.0
N1065 N 0.21378 0.79556 0.69041 0.0
C1066 C 0.2439 0.71176 0.7428 0.0
C1067 C 0.22605 0.7682 0.70685 0.0
N1068 N 0.21663 0.65598 0.71949 0.0
N1069 N 0.2652 0.82091 0.72669 0.0
H1070 H 0.19804 0.78649 0.67578 0.0
H1071 H 0.2171 0.82754 0.6917 0.0
H1072 H 0.28089 0.83239 0.74081 0.0
H1073 H 0.265 0.84139 0.71298 0.0
H1074 H 0.227 0.63267 0.73027 0.0
H1075 H 0.20187 0.64449 0.70506 0.0
H1076 H 0.23709 0.65649 0.76234 0.0
H1077 H 0.26617 0.69443 0.77551 0.0
C1078 C 0.47551 0.03673 -0.00153 0.0
C1079 C 0.50102 0.02228 0.01624 0.0
C1080 C 0.5472 -0.00788 -0.01201 0.0
C1081 C 0.51776 -0.00075 0.97093 0.0
N1082 N 0.4543 0.02931 0.95902 0.0
N1083 N 0.5611 -0.01426 0.02838 0.0
C1084 C 0.4824 0.02272 0.97578 0.0
C1085 C 0.53741 0.00063 0.01112 0.0
N1086 N 0.44484 0.0638 0.0034 0.0
N1087 N 0.58425 0.97659 -0.01807 0.0
H1088 H 0.55464 -0.00883 0.04549 0.0
H1089 H 0.58548 0.96573 0.02588 0.0
H1090 H 0.59175 0.97033 0.96495 0.0
H1091 H 0.60853 0.97374 -0.00682 0.0
H1092 H 0.42733 0.07844 -0.00898 0.0
H1093 H 0.43926 0.07447 0.01992 0.0
H1094 H 0.42555 0.04154 0.96202 0.0
H1095 H 0.45918 0.02081 0.94207 0.0
C1096 C 0.24967 0.67581 0.2223 0.0
C1097 C 0.25081 0.7 0.24249 0.0
C1098 C 0.21455 0.75651 0.22314 0.0
C1099 C 0.21164 0.73143 0.20337 0.0
N1100 N 0.22057 0.66546 0.18469 0.0
N1101 N 0.23158 0.76162 0.26332 0.0
C1102 C 0.22768 0.69059 0.20308 0.0
C1103 C 0.23222 0.73979 0.24329 0.0
N1104 N 0.27001 0.6389 0.22146 0.0
N1105 N 0.20179 0.79682 0.2223 0.0
H1106 H 0.24633 0.75187 0.2781 0.0
H1107 H 0.21456 0.78838 0.26583 0.0
H1108 H 0.18824 0.80979 0.20789 0.0
H1109 H 0.20699 0.8184 0.23517 0.0
H1110 H 0.27465 0.62212 0.20651 0.0
H1111 H 0.28439 0.62593 0.23561 0.0
H1112 H 0.22739 0.63398 0.18433 0.0
H1113 H 0.20498 0.67536 0.17021 0.0
C1114 C 0.46269 0.93798 0.46046 0.0
C1115 C 0.48559 0.95568 0.44243 0.0
C1116 C 0.52569 -0.00462 0.4701 0.0
C1117 C 0.49881 -0.01735 0.48759 0.0
N1118 N 0.44019 0.94359 0.49978 0.0
N1119 N 0.53596 0.005 0.42961 0.0
C1120 C 0.46716 0.95394 0.48297 0.0
C1121 C 0.51674 -0.01502 0.44711 0.0
N1122 N 0.43706 0.9056 0.45604 0.0
N1123 N 0.55997 0.01717 0.47554 0.0
H1124 H 0.5297 -0.00088 0.41251 0.0
H1125 H 0.55553 0.03 0.43199 0.0
H1126 H 0.56736 0.02514 0.4923 0.0
H1127 H 0.58291 0.02378 0.46385 0.0
H1128 H 0.4224 0.88862 0.46871 0.0
H1129 H 0.43322 0.89331 0.43971 0.0
H1130 H 0.4137 0.92678 0.49685 0.0
H1131 H 0.44289 0.95408 0.51655 0.0
C1132 C 0.21677 0.27364 0.73222 0.0
C1133 C 0.2193 0.24798 0.75177 0.0
C1134 C 0.26021 0.1974 0.73052 0.0
C1135 C 0.25502 0.22151 0.71048 0.0
N1136 N 0.22688 0.28132 0.69142 0.0
N1137 N 0.2392 0.18377 0.76954 0.0
C1138 C 0.23275 0.25925 0.71109 0.0
C1139 C 0.24013 0.2095 0.75099 0.0
N1140 N 0.20036 0.31244 0.73414 0.0
N1141 N 0.28445 0.16302 0.72997 0.0
H1142 H 0.22543 0.19184 0.78495 0.0
H1143 H 0.24963 0.15334 0.76934 0.0
H1144 H 0.29763 0.15177 0.71501 0.0
H1145 H 0.2935 0.14687 0.74446 0.0
H1146 H 0.20129 0.33464 0.72128 0.0
H1147 H 0.18831 0.32384 0.74936 0.0
H1148 H 0.20687 0.30611 0.69004 0.0
H1149 H 0.24053 0.2737 0.67593 0.0
C1150 C 0.00496 0.03109 0.97033 0.0
C1151 C -0.01275 0.01383 0.95046 0.0
C1152 C 0.93975 0.97377 0.97389 0.0
C1153 C 0.9621 -0.01463 -0.00649 0.0
N1154 N 0.01604 0.02467 0.01109 0.0
N1155 N 0.93686 0.97045 0.93254 0.0
C1156 C -0.00581 0.01468 -0.00797 0.0
C1157 C 0.95396 -0.01398 0.95202 0.0
N1158 N 0.03231 0.06279 0.96836 0.0
N1159 N 0.9048 0.9513 0.97638 0.0
H1160 H 0.94505 0.98058 0.91627 0.0
H1161 H 0.9158 0.94639 0.93236 0.0
H1162 H 0.8937 0.94248 -0.00765 0.0
H1163 H 0.88502 0.94451 0.96305 0.0
H1164 H 0.0435 0.07948 -0.0178 0.0
H1165 H 0.04139 0.07475 0.95262 0.0
H1166 H 0.04289 0.04171 0.01075 0.0
H1167 H 0.00851 0.01404 0.02735 0.0
C1168 C 0.75301 0.77755 0.73009 0.0
C1169 C 0.74936 0.75388 0.70979 0.0
C1170 C 0.70926 0.70142 0.73007 0.0
C1171 C 0.70981 0.72691 0.74977 0.0
N1172 N 0.72772 0.79118 0.76826 0.0
N1173 N 0.72207 0.69494 0.68948 0.0
C1174 C 0.73074 0.7654 0.7498 0.0
C1175 C 0.7268 0.71632 0.70948 0.0
N1176 N 0.77783 0.81156 0.73051 0.0
N1177 N 0.69345 0.66225 0.73135 0.0
H1178 H 0.73662 0.70314 0.67433 0.0
H1179 H 0.7019 0.67035 0.68746 0.0
H1180 H 0.68066 0.65018 0.74623 0.0
H1181 H 0.69595 0.64034 0.71839 0.0
H1182 H 0.7856 0.82732 0.74539 0.0
H1183 H 0.7929 0.82266 0.71609 0.0
H1184 H 0.73833 0.82157 0.76842 0.0
H1185 H 0.71187 0.7833 0.78306 0.0
C1186 C 0.74023 0.1961 0.22142 0.0
C1187 C 0.71719 0.22372 0.20784 0.0
C1188 C 0.736 0.28189 0.23265 0.0
C1189 C 0.76111 0.25478 0.24535 0.0
N1190 N 0.79115 0.18725 0.25086 0.0
N1191 N 0.69848 0.29362 0.19767 0.0
C1192 C 0.76458 0.21223 0.23936 0.0
C1193 C 0.71642 0.26685 0.21269 0.0
N1194 N 0.7373 0.15429 0.21782 0.0
N1195 N 0.7306 0.32186 0.23979 0.0
H1196 H 0.68425 0.28387 0.1827 0.0
H1197 H 0.70062 0.32573 0.19894 0.0
H1198 H 0.74595 0.33447 0.25374 0.0
H1199 H 0.709 0.34175 0.23288 0.0
H1200 H 0.7496 0.13214 0.2287 0.0
H1201 H 0.71977 0.14136 0.20481 0.0
H1202 H 0.79878 0.15745 0.24558 0.0
H1203 H 0.80772 0.19705 0.26503 0.0
C1204 C 0.7586 0.18578 0.72301 0.0
C1205 C 0.75687 0.20674 0.74425 0.0
C1206 C 0.71076 0.25867 0.72812 0.0
C1207 C 0.7137 0.23865 0.70664 0.0
N1208 N 0.74426 0.18677 0.6824 0.0
N1209 N 0.73844 0.26727 0.76615 0.0
C1210 C 0.73907 0.20345 0.70367 0.0
C1211 C 0.73486 0.24434 0.74659 0.0
N1212 N 0.7773 0.14802 0.72164 0.0
N1213 N 0.68456 0.29115 0.7309 0.0
H1214 H 0.75604 0.25807 0.78004 0.0
H1215 H 0.72681 0.29707 0.76799 0.0
H1216 H 0.66849 0.30436 0.71741 0.0
H1217 H 0.67702 0.30362 0.74673 0.0
H1218 H 0.77591 0.12883 0.70739 0.0
H1219 H 0.79184 0.13419 0.73549 0.0
H1220 H 0.76579 0.1642 0.67863 0.0
H1221 H 0.72892 0.19737 0.66799 0.0
C1222 C 0.70179 0.76939 0.22748 0.0
C1223 C 0.70164 0.74839 0.24873 0.0
C1224 C 0.74433 0.6932 0.2327 0.0
C1225 C 0.7478 0.71631 0.21225 0.0
N1226 N 0.73339 0.77784 0.19034 0.0
N1227 N 0.7231 0.69112 0.27234 0.0
C1228 C 0.72713 0.75462 0.20956 0.0
C1229 C 0.72303 0.71047 0.25156 0.0
N1230 N 0.6777 0.80345 0.22445 0.0
N1231 N 0.76042 0.65416 0.23374 0.0
H1232 H 0.70556 0.70101 0.28611 0.0
H1233 H 0.74195 0.66636 0.27641 0.0
H1234 H 0.77605 0.64068 0.22014 0.0
H1235 H 0.7557 0.63376 0.24722 0.0
H1236 H 0.67271 0.81736 0.20868 0.0
H1237 H 0.66043 0.81648 0.23754 0.0
H1238 H 0.72325 0.80818 0.18843 0.0
H1239 H 0.75115 0.76783 0.17667 0.0
C1240 C 0.50508 0.44507 -0.00684 0.0
C1241 C 0.48941 0.46759 0.01199 0.0
C1242 C 0.45098 0.51238 -0.01386 0.0
C1243 C 0.47125 0.49385 0.96741 0.0
N1244 N 0.5189 0.44402 0.95249 0.0
N1245 N 0.44778 0.52262 0.0271 0.0
C1246 C 0.49817 0.46007 0.97068 0.0
C1247 C 0.46221 0.50111 0.00868 0.0
N1248 N 0.52681 0.40959 -0.00319 0.0
N1249 N 0.42039 0.54011 -0.01779 0.0
H1250 H 0.45348 0.51382 0.04392 0.0
H1251 H 0.43188 0.55037 0.02583 0.0
H1252 H 0.41122 0.54849 0.9658 0.0
H1253 H 0.4017 0.55202 -0.00506 0.0
H1254 H 0.53538 0.38936 -0.01616 0.0
H1255 H 0.53383 0.39862 0.01307 0.0
H1256 H 0.5426 0.4229 0.95402 0.0
H1257 H 0.51409 0.45368 0.93573 0.0
C1258 C 0.96656 0.51552 0.47295 0.0
C1259 C 0.00616 0.49842 0.47155 0.0
C1260 C 0.01667 0.5112 0.51235 0.0
C1261 C 0.97491 0.52146 0.51434 0.0
N1262 N 0.91002 0.53572 0.49717 0.0
N1263 N 0.07024 0.4818 0.4888 0.0
C1264 C 0.94995 0.5249 0.49474 0.0
C1265 C 0.03188 0.49752 0.4909 0.0
N1266 N 0.94476 0.52209 0.45343 0.0
N1267 N 0.04146 0.51401 0.531 0.0
H1268 H 0.0827 0.47391 0.47299 0.0
H1269 H 0.08925 0.47538 0.50251 0.0
H1270 H 0.03098 0.52254 0.54713 0.0
H1271 H 0.07285 0.51062 0.53035 0.0
H1272 H 0.91711 0.53761 0.45293 0.0
H1273 H 0.95585 0.51497 0.43724 0.0
H1274 H 0.8887 0.53407 0.48412 0.0
H1275 H 0.89754 0.5449 0.51274 0.0
C1276 C 0.01524 0.49699 0.97338 0.0
C1277 C -0.00428 0.47855 -0.00759 0.0
C1278 C 0.96072 0.42977 0.96696 0.0
C1279 C 0.97591 0.45204 0.9479 0.0
N1280 N 0.01588 0.50825 0.93252 0.0
N1281 N 0.94772 0.42941 0.00775 0.0
C1282 C 0.00279 0.486 0.95098 0.0
C1283 C 0.96825 0.44505 -0.01062 0.0
N1284 N 0.04663 0.52411 0.9768 0.0
N1285 N 0.93897 0.39417 0.9636 0.0
H1286 H 0.95267 0.43955 0.02441 0.0
H1287 H 0.92385 0.40837 0.0064 0.0
H1288 H 0.93163 0.38299 0.94741 0.0
H1289 H 0.93071 0.37412 0.97672 0.0
H1290 H 0.06491 0.53549 0.96372 0.0
H1291 H 0.05703 0.53222 -0.00698 0.0
H1292 H 0.03134 0.53631 0.93382 0.0
H1293 H 0.00912 0.50008 0.91573 0.0
C1294 C 0.45493 0.4697 0.45008 0.0
C1295 C 0.48184 0.50364 0.44713 0.0
C1296 C 0.48965 0.51015 0.48854 0.0
C1297 C 0.46199 0.47675 0.49149 0.0
N1298 N 0.4106 0.43189 0.47573 0.0
N1299 N 0.51838 0.56162 0.46296 0.0
C1300 C 0.44227 0.45869 0.47242 0.0
C1301 C 0.49692 0.52581 0.46621 0.0
N1302 N 0.44222 0.44734 0.43158 0.0
N1303 N 0.51082 0.52519 0.50684 0.0
H1304 H 0.52523 0.57322 0.44679 0.0
H1305 H 0.52658 0.58152 0.47617 0.0
H1306 H 0.50659 0.51447 0.52345 0.0
H1307 H 0.53475 0.54613 0.5054 0.0
H1308 H 0.42667 0.41932 0.43285 0.0
H1309 H 0.44953 0.45533 0.41484 0.0
H1310 H 0.3923 0.42082 0.46258 0.0
H1311 H 0.39998 0.42385 0.49192 0.0
C1312 C 0.32261 0.14659 0.3629 0.0
C1313 C 0.28256 0.13415 0.36843 0.0
C1314 C 0.30774 0.06646 0.38103 0.0
C1315 C 0.34586 0.07589 0.37094 0.0
N1316 N 0.3921 0.12576 0.35492 0.0
N1317 N 0.236 0.0827 0.38297 0.0
C1318 C 0.3542 0.11656 0.36301 0.0
C1319 C 0.27496 0.09462 0.37817 0.0
N1320 N 0.33003 0.18711 0.35752 0.0
N1321 N 0.30248 0.0303 0.39282 0.0
H1322 H 0.21111 0.10242 0.38145 0.0
H1323 H 0.22776 0.0525 0.38717 0.0
H1324 H 0.32525 0.00832 0.39488 0.0
H1325 H 0.27674 0.02376 0.40249 0.0
H1326 H 0.35888 0.19932 0.35481 0.0
H1327 H 0.30716 0.2095 0.3576 0.0
H1328 H 0.3994 0.15306 0.34641 0.0
H1329 H 0.41638 0.10516 0.35637 0.0
C1330 C 0.09266 0.11301 0.60661 0.0
C1331 C 0.10038 0.07607 0.59421 0.0
C1332 C 0.17023 0.09857 0.58675 0.0
C1333 C 0.16285 0.13504 0.59968 0.0
N1334 N 0.11566 0.18195 0.61736 0.0
N1335 N 0.14279 0.03791 0.56789 0.0
C1336 C 0.12348 0.14386 0.60814 0.0
C1337 C 0.13779 0.07052 0.58254 0.0
N1338 N 0.05615 0.11794 0.6174 0.0
N1339 N 0.20889 0.08899 0.58002 0.0
H1340 H 0.12083 0.0152 0.56518 0.0
H1341 H 0.16749 0.03507 0.55691 0.0
H1342 H 0.23361 0.10857 0.58255 0.0
H1343 H 0.21726 0.06032 0.57337 0.0
H1344 H 0.05007 0.14154 0.62901 0.0
H1345 H 0.03208 0.09722 0.61527 0.0
H1346 H 0.08686 0.19195 0.62214 0.0
H1347 H 0.13774 0.20511 0.61849 0.0
C1348 C 0.19092 0.86528 0.87141 0.0
C1349 C 0.17987 0.82789 0.86018 0.0
C1350 C 0.10993 0.85265 0.85601 0.0
C1351 C 0.12124 0.89024 0.86683 0.0
N1352 N 0.16892 0.92829 0.89013 0.0
N1353 N 0.128 0.78163 0.84653 0.0
C1354 C 0.16043 0.89493 0.87654 0.0
C1355 C 0.13892 0.82015 0.85408 0.0
N1356 N 0.23093 0.87421 0.87544 0.0
N1357 N 0.07183 0.8487 0.84702 0.0
H1358 H 0.14881 0.75737 0.84514 0.0
H1359 H 0.09812 0.77264 0.84351 0.0
H1360 H 0.04934 0.87107 0.84938 0.0
H1361 H 0.0629 0.82424 0.83658 0.0
H1362 H 0.2412 0.90321 0.8807 0.0
H1363 H 0.25464 0.8539 0.87183 0.0
H1364 H 0.19543 0.93089 0.89971 0.0
H1365 H 0.1481 0.95178 0.89353 0.0
C1366 C 0.28578 0.87729 0.08597 0.0
C1367 C 0.29414 0.83791 0.09576 0.0
C1368 C 0.36475 0.85857 0.10264 0.0
C1369 C 0.35616 0.89801 0.09315 0.0
N1370 N 0.31221 0.94166 0.07068 0.0
N1371 N 0.34286 0.78738 0.10839 0.0
C1372 C 0.318 0.90605 0.08289 0.0
C1373 C 0.33418 0.82737 0.10247 0.0
N1374 N 0.24663 0.88862 0.08135 0.0
N1375 N 0.40181 0.8515 0.11237 0.0
H1376 H 0.32101 0.76391 0.10818 0.0
H1377 H 0.37209 0.77661 0.11158 0.0
H1378 H 0.42556 0.87291 0.11149 0.0
H1379 H 0.40859 0.82538 0.12205 0.0
H1380 H 0.23806 0.91866 0.07704 0.0
H1381 H 0.22189 0.86895 0.08355 0.0
H1382 H 0.28657 0.9471 0.06073 0.0
H1383 H 0.33447 0.96437 0.06878 0.0
C1384 C 0.62908 0.85563 0.61728 0.0
C1385 C 0.65893 0.84549 0.6007 0.0
C1386 C 0.62763 0.89362 0.57367 0.0
C1387 C 0.60263 0.90911 0.59152 0.0
N1388 N 0.57783 0.90435 0.63015 0.0
N1389 N 0.66969 0.83703 0.56036 0.0
C1390 C 0.60257 0.88968 0.61325 0.0
C1391 C 0.65314 0.85906 0.57796 0.0
N1392 N 0.62368 0.83047 0.63578 0.0
N1393 N 0.62916 0.9135 0.55308 0.0
H1394 H 0.68427 0.80873 0.56297 0.0
H1395 H 0.66389 0.84338 0.54325 0.0
H1396 H 0.61145 0.93927 0.54914 0.0
H1397 H 0.65049 0.90652 0.54053 0.0
H1398 H 0.6007 0.83448 0.64777 0.0
H1399 H 0.63831 0.80196 0.63727 0.0
H1400 H 0.5801 0.8952 0.64713 0.0
H1401 H 0.55621 0.92742 0.6274 0.0
C1402 C 0.81871 0.90998 0.37688 0.0
C1403 C 0.83918 0.93104 0.35892 0.0
C1404 C 0.79383 0.89854 0.33094 0.0
C1405 C 0.77477 0.87579 0.34876 0.0
N1406 N 0.77566 0.85224 0.38775 0.0
N1407 N 0.8531 0.93724 0.31871 0.0
C1408 C 0.78938 0.87909 0.37144 0.0
C1409 C 0.82891 0.92266 0.33589 0.0
N1410 N 0.82526 0.92112 0.39908 0.0
N1411 N 0.7771 0.89944 0.3096 0.0
H1412 H 0.87937 0.95448 0.32176 0.0
H1413 H 0.84945 0.92867 0.30169 0.0
H1414 H 0.75081 0.88333 0.30519 0.0
H1415 H 0.78716 0.91927 0.29675 0.0
H1416 H 0.80776 0.91009 0.4126 0.0
H1417 H 0.84568 0.94416 0.40396 0.0
H1418 H 0.78814 0.85039 0.40405 0.0
H1419 H 0.75457 0.82892 0.38426 0.0
C1420 C 0.79359 0.05462 0.12484 0.0
C1421 C 0.7888 0.09241 0.1128 0.0
C1422 C 0.85562 0.08276 0.09504 0.0
C1423 C 0.85788 0.04252 0.1048 0.0
N1424 N 0.82581 -0.01265 0.12614 0.0
N1425 N 0.81323 0.14169 0.08517 0.0
C1426 C 0.82619 0.02777 0.11912 0.0
C1427 C 0.81941 0.10648 0.09764 0.0
N1428 N 0.76736 0.04473 0.14211 0.0
N1429 N 0.8885 0.09865 0.08378 0.0
H1430 H 0.78749 0.16021 0.08708 0.0
H1431 H 0.83215 0.15112 0.07191 0.0
H1432 H 0.91556 0.08226 0.08178 0.0
H1433 H 0.89035 0.12921 0.07818 0.0
H1434 H 0.77188 0.01985 0.15313 0.0
H1435 H 0.74314 0.06369 0.14687 0.0
H1436 H 0.80113 0.97372 0.13436 0.0
H1437 H 0.84845 0.96612 0.12195 0.0
C1438 C 0.62467 0.03815 0.83282 0.0
C1439 C 0.60484 0.04235 0.85417 0.0
C1440 C 0.65128 0.099 0.8644 0.0
C1441 C 0.67497 0.08996 0.84479 0.0
N1442 N 0.68525 0.05028 0.81031 0.0
N1443 N 0.58619 0.09186 0.88327 0.0
C1444 C 0.66154 0.05993 0.82873 0.0
C1445 C 0.61416 0.07725 0.86805 0.0
N1446 N 0.60665 0.01534 0.81598 0.0
N1447 N 0.66469 0.12778 0.87978 0.0
H1448 H 0.55632 0.08125 0.88362 0.0
H1449 H 0.59021 0.1187 0.89287 0.0
H1450 H 0.6905 0.14591 0.87707 0.0
H1451 H 0.65169 0.13194 0.89582 0.0
H1452 H 0.61754 0.0137 0.79932 0.0
H1453 H 0.57779 0.00244 0.81797 0.0
H1454 H 0.6796 0.02518 0.7996 0.0
H1455 H 0.71245 0.06545 0.80661 0.0
C1456 C 0.81387 0.61849 0.86612 0.0
C1457 C 0.78173 0.61214 0.85039 0.0
C1458 C 0.80916 0.54432 0.84049 0.0
C1459 C 0.84413 0.55258 0.85388 0.0
N1460 N 0.88247 0.5999 0.8774 0.0
N1461 N 0.75438 0.5734 0.81855 0.0
C1462 C 0.84725 0.5903 0.86628 0.0
C1463 C 0.78117 0.5765 0.83628 0.0
N1464 N 0.81237 0.65122 0.88088 0.0
N1465 N 0.80131 0.50507 0.83281 0.0
H1466 H 0.7332 0.59625 0.81462 0.0
H1467 H 0.75584 0.5498 0.80642 0.0
H1468 H 0.8195 0.47964 0.83677 0.0
H1469 H 0.77413 0.49685 0.82489 0.0
H1470 H 0.8327 0.65516 0.89431 0.0
H1471 H 0.78904 0.67308 0.88056 0.0
H1472 H 0.88801 0.62867 0.88484 0.0
H1473 H 0.90756 0.58022 0.87761 0.0
C1474 C 0.66452 0.62134 0.0903 0.0
C1475 C 0.70274 0.61046 0.09969 0.0
C1476 C 0.6838 0.53718 0.09918 0.0
C1477 C 0.64597 0.54767 0.08916 0.0
N1478 N 0.60576 0.59818 0.06886 0.0
N1479 N 0.75321 0.55778 0.10647 0.0
C1480 C 0.63776 0.58937 0.08285 0.0
C1481 C 0.71377 0.56825 0.10206 0.0
N1482 N 0.65321 0.66201 0.0892 0.0
N1483 N 0.69046 0.4979 0.1071 0.0
H1484 H 0.77633 0.57973 0.10812 0.0
H1485 H 0.76377 0.52737 0.10598 0.0
H1486 H 0.66909 0.47419 0.10576 0.0
H1487 H 0.71564 0.48981 0.11688 0.0
H1488 H 0.62397 0.67147 0.08489 0.0
H1489 H 0.67224 0.68622 0.09421 0.0
H1490 H 0.60049 0.62753 0.0621 0.0
H1491 H 0.58718 0.57525 0.0619 0.0
C1492 C 0.6374 0.32514 0.34741 0.0
C1493 C 0.67638 0.33186 0.35702 0.0
C1494 C 0.65541 0.40043 0.37065 0.0
C1495 C 0.61668 0.39407 0.36059 0.0
N1496 N 0.56727 0.34789 0.34421 0.0
N1497 N 0.72004 0.37115 0.38208 0.0
C1498 C 0.60655 0.35548 0.35051 0.0
C1499 C 0.68438 0.36779 0.37028 0.0
N1500 N 0.63042 0.29027 0.33474 0.0
N1501 N 0.66561 0.43865 0.37903 0.0
H1502 H 0.7429 0.34889 0.38144 0.0
H1503 H 0.72576 0.39434 0.39402 0.0
H1504 H 0.64538 0.46344 0.37978 0.0
H1505 H 0.69495 0.44694 0.38383 0.0
H1506 H 0.60449 0.28561 0.32492 0.0
H1507 H 0.65163 0.26638 0.33334 0.0
H1508 H 0.55685 0.3192 0.33857 0.0
H1509 H 0.54413 0.36959 0.34647 0.0
C1510 C 0.81061 0.38776 0.58877 0.0
C1511 C 0.8473 0.39043 0.60144 0.0
C1512 C 0.82959 0.327 0.62221 0.0
C1513 C 0.79288 0.3244 0.60957 0.0
N1514 N 0.75433 0.34459 0.57653 0.0
N1515 N 0.89706 0.3569 0.62509 0.0
C1516 C 0.78545 0.35226 0.59136 0.0
C1517 C 0.85856 0.35797 0.61643 0.0
N1518 N 0.7982 0.42024 0.57552 0.0
N1519 N 0.83566 0.30199 0.64072 0.0
H1520 H 0.91894 0.37908 0.62091 0.0
H1521 H 0.9084 0.33203 0.63444 0.0
H1522 H 0.81521 0.27912 0.64578 0.0
H1523 H 0.85958 0.30599 0.65213 0.0
H1524 H 0.76942 0.42198 0.56824 0.0
H1525 H 0.81534 0.44703 0.57312 0.0
H1526 H 0.74967 0.36158 0.56165 0.0
H1527 H 0.73568 0.31852 0.57791 0.0
C1528 C 0.11912 0.37009 0.09037 0.0
C1529 C 0.11351 0.40946 0.10076 0.0
C1530 C 0.17631 0.39987 0.12275 0.0
C1531 C 0.18387 0.3625 0.11072 0.0
N1532 N 0.16526 0.31361 0.08147 0.0
N1533 N 0.14072 0.46533 0.12365 0.0
C1534 C 0.15607 0.34807 0.09402 0.0
C1535 C 0.14296 0.42517 0.11627 0.0
N1536 N 0.08847 0.35311 0.07769 0.0
N1537 N 0.20116 0.41145 0.14034 0.0
H1538 H 0.11753 0.48546 0.11898 0.0
H1539 H 0.16382 0.48007 0.13268 0.0
H1540 H 0.22738 0.39531 0.14483 0.0
H1541 H 0.19423 0.43541 0.1516 0.0
H1542 H 0.08889 0.32284 0.07154 0.0
H1543 H 0.06085 0.36809 0.07496 0.0
H1544 H 0.14866 0.30412 0.06728 0.0
H1545 H 0.1912 0.29584 0.08436 0.0
C1546 C 0.36242 0.38725 0.86068 0.0
C1547 C 0.35365 0.43033 0.86109 0.0
C1548 C 0.28246 0.41574 0.85194 0.0
C1549 C 0.29023 0.37262 0.85391 0.0
N1550 N 0.33624 0.31697 0.86293 0.0
N1551 N 0.3038 0.48521 0.86177 0.0
C1552 C 0.32991 0.35821 0.85899 0.0
C1553 C 0.31326 0.44452 0.85796 0.0
N1554 N 0.40188 0.37417 0.86116 0.0
N1555 N 0.24619 0.42931 0.8434 0.0
H1556 H 0.32517 0.5073 0.86673 0.0
H1557 H 0.2741 0.49626 0.86221 0.0
H1558 H 0.22304 0.40935 0.8382 0.0
H1559 H 0.24059 0.46019 0.83928 0.0
H1560 H 0.41052 0.34352 0.8585 0.0
H1561 H 0.4264 0.39457 0.8623 0.0
H1562 H 0.36345 0.30505 0.86912 0.0
H1563 H 0.31317 0.29488 0.86175 0.0
C1564 C 0.30548 0.53173 0.60319 0.0
C1565 C 0.34365 0.54867 0.59683 0.0
C1566 C 0.31349 0.61825 0.59559 0.0
C1567 C 0.27643 0.60157 0.60392 0.0
N1568 N 0.24003 0.54403 0.62061 0.0
N1569 N 0.38591 0.60835 0.58983 0.0
C1570 C 0.27323 0.55876 0.60914 0.0
C1571 C 0.34821 0.59208 0.59378 0.0
N1572 N 0.29927 0.48982 0.60247 0.0
N1573 N 0.31509 0.65871 0.58875 0.0
H1574 H 0.41188 0.59004 0.58838 0.0
H1575 H 0.39204 0.64001 0.5898 0.0
H1576 H 0.29032 0.67871 0.59 0.0
H1577 H 0.33983 0.67163 0.58026 0.0
H1578 H 0.27082 0.47619 0.60456 0.0
H1579 H 0.32154 0.46879 0.59743 0.0
H1580 H 0.23822 0.514 0.62705 0.0
H1581 H 0.21595 0.56283 0.62575 0.0
C1582 C 0.15379 0.5225 0.35131 0.0
C1583 C 0.11603 0.53925 0.35853 0.0
C1584 C 0.14537 0.60941 0.3574 0.0
C1585 C 0.182 0.59268 0.34862 0.0
N1586 N 0.21745 0.53474 0.33182 0.0
N1587 N 0.07354 0.59892 0.36496 0.0
C1588 C 0.18509 0.54965 0.34394 0.0
C1589 C 0.11114 0.58286 0.3606 0.0
N1590 N 0.16081 0.4808 0.35272 0.0
N1591 N 0.14375 0.65032 0.36338 0.0
H1592 H 0.04784 0.58041 0.36718 0.0
H1593 H 0.06707 0.63048 0.36446 0.0
H1594 H 0.16805 0.67062 0.36093 0.0
H1595 H 0.11954 0.66347 0.37222 0.0
H1596 H 0.18928 0.4676 0.35005 0.0
H1597 H 0.13951 0.45965 0.35887 0.0
H1598 H 0.21903 0.50439 0.3258 0.0
H1599 H 0.2408 0.55362 0.32574 0.0
loop_
_geom_bond_atom_site_label_1
_geom_bond_atom_site_label_2
_geom_bond_distance
_geom_bond_site_symmetry_2
_ccdc_geom_bond_type
Zn0 O3 2.031 . S
Zn0 O5 2.049 . S
Zn0 O10 2.067 . S
Zn1 O2 1.962 . S
Zn1 O4 1.986 . S
Zn1 O6 1.996 . S
Zn1 O9 1.943 . S
O2 Zn1 1.962 . S
O2 C7 1.254 . S
O3 Zn0 2.031 . S
O3 C7 1.269 . S
O4 Zn1 1.986 . S
O4 C11 1.262 . S
O5 Zn0 2.049 . S
O5 C13 1.260 . S
O6 Zn1 1.996 . S
O6 C13 1.257 . S
C7 O2 1.254 . S
C7 O3 1.269 . S
C8 O9 1.249 . S
C8 O10 1.270 . S
O9 Zn1 1.943 . S
O9 C8 1.249 . S
O10 Zn0 2.067 . S
O10 C8 1.270 . S
C11 O4 1.262 . S
C11 O12 1.232 . S
O12 C11 1.232 . S
C13 O5 1.260 . S
C13 O6 1.257 . S
Zn14 O17 2.031 . S
Zn14 O19 2.049 1_565 S
Zn14 O24 2.067 . S
Zn15 O16 1.962 1_455 S
Zn15 O18 1.986 1_565 S
Zn15 O20 1.996 1_565 S
Zn15 O23 1.943 . S
O16 Zn15 1.962 1_655 S
O16 C21 1.254 . S
O17 Zn14 2.031 . S
O17 C21 1.269 1_455 S
O18 Zn15 1.986 1_545 S
O18 C25 1.262 1_545 S
O19 Zn14 2.049 1_545 S
O19 C27 1.260 . S
O20 Zn15 1.996 1_545 S
O20 C27 1.257 . S
C21 O16 1.254 . S
C21 O17 1.269 1_655 S
C22 O23 1.249 . S
C22 O24 1.270 . S
O23 Zn15 1.943 . S
O23 C22 1.249 . S
O24 Zn14 2.067 . S
O24 C22 1.270 . S
C25 O18 1.262 1_565 S
C25 O26 1.232 . S
O26 C25 1.232 . S
C27 O19 1.260 . S
C27 O20 1.257 . S
Zn28 O31 2.031 . S
Zn28 O33 2.049 . S
Zn28 O38 2.067 . S
Zn29 O30 1.962 . S
Zn29 O32 1.986 . S
Zn29 O34 1.996 . S
Zn29 O37 1.943 . S
O30 Zn29 1.962 . S
O30 C35 1.254 . S
O31 Zn28 2.031 . S
O31 C35 1.269 . S
O32 Zn29 1.986 . S
O32 C39 1.262 . S
O33 Zn28 2.049 . S
O33 C41 1.260 . S
O34 Zn29 1.996 . S
O34 C41 1.257 . S
C35 O30 1.254 . S
C35 O31 1.269 . S
C36 O37 1.249 . S
C36 O38 1.270 . S
O37 Zn29 1.943 . S
O37 C36 1.249 . S
O38 Zn28 2.067 . S
O38 C36 1.270 . S
C39 O32 1.262 . S
C39 O40 1.232 . S
O40 C39 1.232 . S
C41 O33 1.260 . S
C41 O34 1.257 . S
Zn42 O45 2.031 . S
Zn42 O47 2.049 1_545 S
Zn42 O52 2.067 . S
Zn43 O44 1.962 . S
Zn43 O46 1.986 1_545 S
Zn43 O48 1.996 1_545 S
Zn43 O51 1.943 . S
O44 Zn43 1.962 . S
O44 C49 1.254 . S
O45 Zn42 2.031 . S
O45 C49 1.269 . S
O46 Zn43 1.986 1_565 S
O46 C53 1.262 1_565 S
O47 Zn42 2.049 1_565 S
O47 C55 1.260 . S
O48 Zn43 1.996 1_565 S
O48 C55 1.257 . S
C49 O44 1.254 . S
C49 O45 1.269 . S
C50 O51 1.249 . S
C50 O52 1.270 . S
O51 Zn43 1.943 . S
O51 C50 1.249 . S
O52 Zn42 2.067 . S
O52 C50 1.270 . S
C53 O46 1.262 1_545 S
C53 O54 1.232 . S
O54 C53 1.232 . S
C55 O47 1.260 . S
C55 O48 1.257 . S
Zn56 O59 2.031 . S
Zn56 O61 2.049 . S
Zn56 O66 2.067 . S
Zn57 O58 1.962 . S
Zn57 O60 1.986 . S
Zn57 O62 1.996 . S
Zn57 O65 1.943 . S
O58 Zn57 1.962 . S
O58 C63 1.254 . S
O59 Zn56 2.031 . S
O59 C63 1.269 . S
O60 Zn57 1.986 . S
O60 C67 1.262 . S
O61 Zn56 2.049 . S
O61 C69 1.260 . S
O62 Zn57 1.996 . S
O62 C69 1.257 . S
C63 O58 1.254 . S
C63 O59 1.269 . S
C64 O65 1.249 . S
C64 O66 1.270 . S
O65 Zn57 1.943 . S
O65 C64 1.249 . S
O66 Zn56 2.067 . S
O66 C64 1.270 . S
C67 O60 1.262 . S
C67 O68 1.232 . S
O68 C67 1.232 . S
C69 O61 1.260 . S
C69 O62 1.257 . S
Zn70 O73 2.031 . S
Zn70 O75 2.049 1_565 S
Zn70 O80 2.067 . S
Zn71 O72 1.962 . S
Zn71 O74 1.986 1_565 S
Zn71 O76 1.996 1_565 S
Zn71 O79 1.943 . S
O72 Zn71 1.962 . S
O72 C77 1.254 . S
O73 Zn70 2.031 . S
O73 C77 1.269 . S
O74 Zn71 1.986 1_545 S
O74 C81 1.262 1_545 S
O75 Zn70 2.049 1_545 S
O75 C83 1.260 . S
O76 Zn71 1.996 1_545 S
O76 C83 1.257 . S
C77 O72 1.254 . S
C77 O73 1.269 . S
C78 O79 1.249 . S
C78 O80 1.270 . S
O79 Zn71 1.943 . S
O79 C78 1.249 . S
O80 Zn70 2.067 . S
O80 C78 1.270 . S
C81 O74 1.262 1_565 S
C81 O82 1.232 . S
O82 C81 1.232 . S
C83 O75 1.260 . S
C83 O76 1.257 . S
Zn84 O87 2.031 . S
Zn84 O89 2.049 . S
Zn84 O94 2.067 . S
Zn85 O86 1.962 . S
Zn85 O88 1.986 . S
Zn85 O90 1.996 . S
Zn85 O93 1.943 . S
O86 Zn85 1.962 . S
O86 C91 1.254 . S
O87 Zn84 2.031 . S
O87 C91 1.269 . S
O88 Zn85 1.986 . S
O88 C95 1.262 . S
O89 Zn84 2.049 . S
O89 C97 1.260 . S
O90 Zn85 1.996 . S
O90 C97 1.257 . S
C91 O86 1.254 . S
C91 O87 1.269 . S
C92 O93 1.249 . S
C92 O94 1.270 . S
O93 Zn85 1.943 . S
O93 C92 1.249 . S
O94 Zn84 2.067 . S
O94 C92 1.270 . S
C95 O88 1.262 . S
C95 O96 1.232 . S
O96 C95 1.232 . S
C97 O89 1.260 . S
C97 O90 1.257 . S
Zn98 O101 2.031 . S
Zn98 O103 2.049 1_545 S
Zn98 O108 2.067 . S
Zn99 O100 1.962 1_455 S
Zn99 O102 1.986 1_545 S
Zn99 O104 1.996 1_545 S
Zn99 O107 1.943 . S
O100 Zn99 1.962 1_655 S
O100 C105 1.254 . S
O101 Zn98 2.031 . S
O101 C105 1.269 1_455 S
O102 Zn99 1.986 1_565 S
O102 C109 1.262 1_565 S
O103 Zn98 2.049 1_565 S
O103 C111 1.260 . S
O104 Zn99 1.996 1_565 S
O104 C111 1.257 . S
C105 O100 1.254 . S
C105 O101 1.269 1_655 S
C106 O107 1.249 . S
C106 O108 1.270 . S
O107 Zn99 1.943 . S
O107 C106 1.249 . S
O108 Zn98 2.067 . S
O108 C106 1.270 . S
C109 O102 1.262 1_545 S
C109 O110 1.232 . S
O110 C109 1.232 . S
C111 O103 1.260 . S
C111 O104 1.257 . S
Zn112 O115 2.031 . S
Zn112 O117 2.049 . S
Zn112 O122 2.067 . S
Zn113 O114 1.962 . S
Zn113 O116 1.986 . S
Zn113 O118 1.996 . S
Zn113 O121 1.943 . S
O114 Zn113 1.962 . S
O114 C119 1.254 . S
O115 Zn112 2.031 . S
O115 C119 1.269 . S
O116 Zn113 1.986 . S
O116 C123 1.262 . S
O117 Zn112 2.049 . S
O117 C125 1.260 . S
O118 Zn113 1.996 . S
O118 C125 1.257 . S
C119 O114 1.254 . S
C119 O115 1.269 . S
C120 O121 1.249 . S
C120 O122 1.270 . S
O121 Zn113 1.943 . S
O121 C120 1.249 . S
O122 Zn112 2.067 . S
O122 C120 1.270 . S
C123 O116 1.262 . S
C123 O124 1.232 . S
O124 C123 1.232 . S
C125 O117 1.260 . S
C125 O118 1.257 . S
Zn126 O129 2.031 . S
Zn126 O131 2.049 . S
Zn126 O136 2.067 1_655 S
Zn127 O128 1.962 . S
Zn127 O130 1.986 1_545 S
Zn127 O132 1.996 . S
Zn127 O135 1.943 . S
O128 Zn127 1.962 . S
O128 C133 1.254 . S
O129 Zn126 2.031 . S
O129 C133 1.269 . S
O130 Zn127 1.986 1_565 S
O130 C137 1.262 . S
O131 Zn126 2.049 . S
O131 C139 1.260 . S
O132 Zn127 1.996 . S
O132 C139 1.257 . S
C133 O128 1.254 . S
C133 O129 1.269 . S
C134 O135 1.249 1_455 S
C134 O136 1.270 . S
O135 Zn127 1.943 . S
O135 C134 1.249 1_655 S
O136 Zn126 2.067 1_455 S
O136 C134 1.270 . S
C137 O130 1.262 . S
C137 O138 1.232 . S
O138 C137 1.232 . S
C139 O131 1.260 . S
C139 O132 1.257 . S
Zn140 O143 2.031 . S
Zn140 O145 2.049 . S
Zn140 O150 2.067 . S
Zn141 O142 1.962 . S
Zn141 O144 1.986 . S
Zn141 O146 1.996 . S
Zn141 O149 1.943 . S
O142 Zn141 1.962 . S
O142 C147 1.254 . S
O143 Zn140 2.031 . S
O143 C147 1.269 . S
O144 Zn141 1.986 . S
O144 C151 1.262 . S
O145 Zn140 2.049 . S
O145 C153 1.260 . S
O146 Zn141 1.996 . S
O146 C153 1.257 . S
C147 O142 1.254 . S
C147 O143 1.269 . S
C148 O149 1.249 . S
C148 O150 1.270 . S
O149 Zn141 1.943 . S
O149 C148 1.249 . S
O150 Zn140 2.067 . S
O150 C148 1.270 . S
C151 O144 1.262 . S
C151 O152 1.232 . S
O152 C151 1.232 . S
C153 O145 1.260 . S
C153 O146 1.257 . S
Zn154 O157 2.031 . S
Zn154 O159 2.049 . S
Zn154 O164 2.067 . S
Zn155 O156 1.962 . S
Zn155 O158 1.986 1_565 S
Zn155 O160 1.996 . S
Zn155 O163 1.943 . S
O156 Zn155 1.962 . S
O156 C161 1.254 . S
O157 Zn154 2.031 . S
O157 C161 1.269 . S
O158 Zn155 1.986 1_545 S
O158 C165 1.262 . S
O159 Zn154 2.049 . S
O159 C167 1.260 . S
O160 Zn155 1.996 . S
O160 C167 1.257 . S
C161 O156 1.254 . S
C161 O157 1.269 . S
C162 O163 1.249 . S
C162 O164 1.270 . S
O163 Zn155 1.943 . S
O163 C162 1.249 . S
O164 Zn154 2.067 . S
O164 C162 1.270 . S
C165 O158 1.262 . S
C165 O166 1.232 . S
O166 C165 1.232 . S
C167 O159 1.260 . S
C167 O160 1.257 . S
Zn168 O171 2.031 . S
Zn168 O173 2.049 . S
Zn168 O178 2.067 . S
Zn169 O170 1.962 . S
Zn169 O172 1.986 . S
Zn169 O174 1.996 . S
Zn169 O177 1.943 . S
O170 Zn169 1.962 . S
O170 C175 1.254 . S
O171 Zn168 2.031 . S
O171 C175 1.269 . S
O172 Zn169 1.986 . S
O172 C179 1.262 . S
O173 Zn168 2.049 . S
O173 C181 1.260 . S
O174 Zn169 1.996 . S
O174 C181 1.257 . S
C175 O170 1.254 . S
C175 O171 1.269 . S
C176 O177 1.249 . S
C176 O178 1.270 . S
O177 Zn169 1.943 . S
O177 C176 1.249 . S
O178 Zn168 2.067 . S
O178 C176 1.270 . S
C179 O172 1.262 . S
C179 O180 1.232 . S
O180 C179 1.232 . S
C181 O173 1.260 . S
C181 O174 1.257 . S
Zn182 O185 2.031 . S
Zn182 O187 2.049 . S
Zn182 O192 2.067 . S
Zn183 O184 1.962 . S
Zn183 O186 1.986 1_545 S
Zn183 O188 1.996 . S
Zn183 O191 1.943 . S
O184 Zn183 1.962 . S
O184 C189 1.254 . S
O185 Zn182 2.031 . S
O185 C189 1.269 . S
O186 Zn183 1.986 1_565 S
O186 C193 1.262 . S
O187 Zn182 2.049 . S
O187 C195 1.260 . S
O188 Zn183 1.996 . S
O188 C195 1.257 . S
C189 O184 1.254 . S
C189 O185 1.269 . S
C190 O191 1.249 . S
C190 O192 1.270 . S
O191 Zn183 1.943 . S
O191 C190 1.249 . S
O192 Zn182 2.067 . S
O192 C190 1.270 . S
C193 O186 1.262 . S
C193 O194 1.232 . S
O194 C193 1.232 . S
C195 O187 1.260 . S
C195 O188 1.257 . S
Zn196 O199 2.031 . S
Zn196 O201 2.049 . S
Zn196 O206 2.067 . S
Zn197 O198 1.962 . S
Zn197 O200 1.986 . S
Zn197 O202 1.996 . S
Zn197 O205 1.943 . S
O198 Zn197 1.962 . S
O198 C203 1.254 . S
O199 Zn196 2.031 . S
O199 C203 1.269 . S
O200 Zn197 1.986 . S
O200 C207 1.262 . S
O201 Zn196 2.049 . S
O201 C209 1.260 . S
O202 Zn197 1.996 . S
O202 C209 1.257 . S
C203 O198 1.254 . S
C203 O199 1.269 . S
C204 O205 1.249 . S
C204 O206 1.270 . S
O205 Zn197 1.943 . S
O205 C204 1.249 . S
O206 Zn196 2.067 . S
O206 C204 1.270 . S
C207 O200 1.262 . S
C207 O208 1.232 . S
O208 C207 1.232 . S
C209 O201 1.260 . S
C209 O202 1.257 . S
Zn210 O213 2.031 . S
Zn210 O215 2.049 . S
Zn210 O220 2.067 1_655 S
Zn211 O212 1.962 . S
Zn211 O214 1.986 1_565 S
Zn211 O216 1.996 . S
Zn211 O219 1.943 . S
O212 Zn211 1.962 . S
O212 C217 1.254 . S
O213 Zn210 2.031 . S
O213 C217 1.269 . S
O214 Zn211 1.986 1_545 S
O214 C221 1.262 . S
O215 Zn210 2.049 . S
O215 C223 1.260 . S
O216 Zn211 1.996 . S
O216 C223 1.257 . S
C217 O212 1.254 . S
C217 O213 1.269 . S
C218 O219 1.249 1_455 S
C218 O220 1.270 . S
O219 Zn211 1.943 . S
O219 C218 1.249 1_655 S
O220 Zn210 2.067 1_455 S
O220 C218 1.270 . S
C221 O214 1.262 . S
C221 O222 1.232 . S
O222 C221 1.232 . S
C223 O215 1.260 . S
C223 O216 1.257 . S
Zn224 O227 2.031 . S
Zn224 O229 2.049 . S
Zn224 O234 2.067 . S
Zn225 O226 1.962 . S
Zn225 O228 1.986 . S
Zn225 O230 1.996 . S
Zn225 O233 1.943 . S
O226 Zn225 1.962 . S
O226 C231 1.254 . S
O227 Zn224 2.031 . S
O227 C231 1.269 . S
O228 Zn225 1.986 . S
O228 C235 1.262 . S
O229 Zn224 2.049 . S
O229 C237 1.260 . S
O230 Zn225 1.996 . S
O230 C237 1.257 . S
C231 O226 1.254 . S
C231 O227 1.269 . S
C232 O233 1.249 . S
C232 O234 1.270 . S
O233 Zn225 1.943 . S
O233 C232 1.249 . S
O234 Zn224 2.067 . S
O234 C232 1.270 . S
C235 O228 1.262 . S
C235 O236 1.232 . S
O236 C235 1.232 . S
C237 O229 1.260 . S
C237 O230 1.257 . S
Zn238 O241 2.031 . S
Zn238 O243 2.049 . S
Zn238 O248 2.067 . S
Zn239 O240 1.962 . S
Zn239 O242 1.986 . S
Zn239 O244 1.996 . S
Zn239 O247 1.943 . S
O240 Zn239 1.962 . S
O240 C245 1.254 . S
O241 Zn238 2.031 . S
O241 C245 1.269 . S
O242 Zn239 1.986 . S
O242 C249 1.262 . S
O243 Zn238 2.049 . S
O243 C251 1.260 . S
O244 Zn239 1.996 . S
O244 C251 1.257 . S
C245 O240 1.254 . S
C245 O241 1.269 . S
C246 O247 1.249 . S
C246 O248 1.270 . S
O247 Zn239 1.943 . S
O247 C246 1.249 . S
O248 Zn238 2.067 . S
O248 C246 1.270 . S
C249 O242 1.262 . S
C249 O250 1.232 . S
O250 C249 1.232 . S
C251 O243 1.260 . S
C251 O244 1.257 . S
Zn252 O255 2.031 . S
Zn252 O257 2.049 . S
Zn252 O262 2.067 . S
Zn253 O254 1.962 . S
Zn253 O256 1.986 . S
Zn253 O258 1.996 . S
Zn253 O261 1.943 . S
O254 Zn253 1.962 . S
O254 C259 1.254 . S
O255 Zn252 2.031 . S
O255 C259 1.269 . S
O256 Zn253 1.986 . S
O256 C263 1.262 . S
O257 Zn252 2.049 . S
O257 C265 1.260 . S
O258 Zn253 1.996 . S
O258 C265 1.257 . S
C259 O254 1.254 . S
C259 O255 1.269 . S
C260 O261 1.249 . S
C260 O262 1.270 . S
O261 Zn253 1.943 . S
O261 C260 1.249 . S
O262 Zn252 2.067 . S
O262 C260 1.270 . S
C263 O256 1.262 . S
C263 O264 1.232 . S
O264 C263 1.232 . S
C265 O257 1.260 . S
C265 O258 1.257 . S
Zn266 O269 2.031 . S
Zn266 O271 2.049 . S
Zn266 O276 2.067 . S
Zn267 O268 1.962 1_655 S
Zn267 O270 1.986 . S
Zn267 O272 1.996 . S
Zn267 O275 1.943 . S
O268 Zn267 1.962 1_455 S
O268 C273 1.254 . S
O269 Zn266 2.031 . S
O269 C273 1.269 1_655 S
O270 Zn267 1.986 . S
O270 C277 1.262 . S
O271 Zn266 2.049 . S
O271 C279 1.260 . S
O272 Zn267 1.996 . S
O272 C279 1.257 . S
C273 O268 1.254 . S
C273 O269 1.269 1_455 S
C274 O275 1.249 . S
C274 O276 1.270 . S
O275 Zn267 1.943 . S
O275 C274 1.249 . S
O276 Zn266 2.067 . S
O276 C274 1.270 . S
C277 O270 1.262 . S
C277 O278 1.232 . S
O278 C277 1.232 . S
C279 O271 1.260 . S
C279 O272 1.257 . S
Zn280 O283 2.031 . S
Zn280 O285 2.049 . S
Zn280 O290 2.067 . S
Zn281 O282 1.962 . S
Zn281 O284 1.986 . S
Zn281 O286 1.996 . S
Zn281 O289 1.943 . S
O282 Zn281 1.962 . S
O282 C287 1.254 . S
O283 Zn280 2.031 . S
O283 C287 1.269 . S
O284 Zn281 1.986 . S
O284 C291 1.262 . S
O285 Zn280 2.049 . S
O285 C293 1.260 . S
O286 Zn281 1.996 . S
O286 C293 1.257 . S
C287 O282 1.254 . S
C287 O283 1.269 . S
C288 O289 1.249 . S
C288 O290 1.270 . S
O289 Zn281 1.943 . S
O289 C288 1.249 . S
O290 Zn280 2.067 . S
O290 C288 1.270 . S
C291 O284 1.262 . S
C291 O292 1.232 . S
O292 C291 1.232 . S
C293 O285 1.260 . S
C293 O286 1.257 . S
Zn294 O297 2.031 . S
Zn294 O299 2.049 . S
Zn294 O304 2.067 . S
Zn295 O296 1.962 1_655 S
Zn295 O298 1.986 . S
Zn295 O300 1.996 . S
Zn295 O303 1.943 . S
O296 Zn295 1.962 1_455 S
O296 C301 1.254 . S
O297 Zn294 2.031 . S
O297 C301 1.269 1_655 S
O298 Zn295 1.986 . S
O298 C305 1.262 . S
O299 Zn294 2.049 . S
O299 C307 1.260 . S
O300 Zn295 1.996 . S
O300 C307 1.257 . S
C301 O296 1.254 . S
C301 O297 1.269 1_455 S
C302 O303 1.249 . S
C302 O304 1.270 . S
O303 Zn295 1.943 . S
O303 C302 1.249 . S
O304 Zn294 2.067 . S
O304 C302 1.270 . S
C305 O298 1.262 . S
C305 O306 1.232 . S
O306 C305 1.232 . S
C307 O299 1.260 . S
C307 O300 1.257 . S
Zn308 O311 2.031 . S
Zn308 O313 2.049 . S
Zn308 O318 2.067 . S
Zn309 O310 1.962 . S
Zn309 O312 1.986 . S
Zn309 O314 1.996 . S
Zn309 O317 1.943 . S
O310 Zn309 1.962 . S
O310 C315 1.254 . S
O311 Zn308 2.031 . S
O311 C315 1.269 . S
O312 Zn309 1.986 . S
O312 C319 1.262 . S
O313 Zn308 2.049 . S
O313 C321 1.260 . S
O314 Zn309 1.996 . S
O314 C321 1.257 . S
C315 O310 1.254 . S
C315 O311 1.269 . S
C316 O317 1.249 . S
C316 O318 1.270 . S
O317 Zn309 1.943 . S
O317 C316 1.249 . S
O318 Zn308 2.067 . S
O318 C316 1.270 . S
C319 O312 1.262 . S
C319 O320 1.232 . S
O320 C319 1.232 . S
C321 O313 1.260 . S
C321 O314 1.257 . S
Zn322 O325 2.031 . S
Zn322 O327 2.049 . S
Zn322 O332 2.067 . S
Zn323 O324 1.962 . S
Zn323 O326 1.986 . S
Zn323 O328 1.996 . S
Zn323 O331 1.943 . S
O324 Zn323 1.962 . S
O324 C329 1.254 . S
O325 Zn322 2.031 . S
O325 C329 1.269 . S
O326 Zn323 1.986 . S
O326 C333 1.262 . S
O327 Zn322 2.049 . S
O327 C335 1.260 . S
O328 Zn323 1.996 . S
O328 C335 1.257 . S
C329 O324 1.254 . S
C329 O325 1.269 . S
C330 O331 1.249 . S
C330 O332 1.270 . S
O331 Zn323 1.943 . S
O331 C330 1.249 . S
O332 Zn322 2.067 . S
O332 C330 1.270 . S
C333 O326 1.262 . S
C333 O334 1.232 . S
O334 C333 1.232 . S
C335 O327 1.260 . S
C335 O328 1.257 . S
Zn336 O339 2.031 . S
Zn336 O341 2.049 . S
Zn336 O346 2.067 . S
Zn337 O338 1.962 . S
Zn337 O340 1.986 . S
Zn337 O342 1.996 . S
Zn337 O345 1.943 . S
O338 Zn337 1.962 . S
O338 C343 1.254 . S
O339 Zn336 2.031 . S
O339 C343 1.269 . S
O340 Zn337 1.986 . S
O340 C347 1.262 . S
O341 Zn336 2.049 . S
O341 C349 1.260 . S
O342 Zn337 1.996 . S
O342 C349 1.257 . S
C343 O338 1.254 . S
C343 O339 1.269 . S
C344 O345 1.249 . S
C344 O346 1.270 . S
O345 Zn337 1.943 . S
O345 C344 1.249 . S
O346 Zn336 2.067 . S
O346 C344 1.270 . S
C347 O340 1.262 . S
C347 O348 1.232 . S
O348 C347 1.232 . S
C349 O341 1.260 . S
C349 O342 1.257 . S
Zn350 O353 2.031 . S
Zn350 O355 2.049 . S
Zn350 O360 2.067 . S
Zn351 O352 1.962 . S
Zn351 O354 1.986 . S
Zn351 O356 1.996 . S
Zn351 O359 1.943 . S
O352 Zn351 1.962 . S
O352 C357 1.254 . S
O353 Zn350 2.031 . S
O353 C357 1.269 . S
O354 Zn351 1.986 . S
O354 C361 1.262 . S
O355 Zn350 2.049 . S
O355 C363 1.260 . S
O356 Zn351 1.996 . S
O356 C363 1.257 . S
C357 O352 1.254 . S
C357 O353 1.269 . S
C358 O359 1.249 . S
C358 O360 1.270 . S
O359 Zn351 1.943 . S
O359 C358 1.249 . S
O360 Zn350 2.067 . S
O360 C358 1.270 . S
C361 O354 1.262 . S
C361 O362 1.232 . S
O362 C361 1.232 . S
C363 O355 1.260 . S
C363 O356 1.257 . S
Zn364 O367 2.031 . S
Zn364 O369 2.049 . S
Zn364 O374 2.067 . S
Zn365 O366 1.962 . S
Zn365 O368 1.986 . S
Zn365 O370 1.996 . S
Zn365 O373 1.943 . S
O366 Zn365 1.962 . S
O366 C371 1.254 . S
O367 Zn364 2.031 . S
O367 C371 1.269 . S
O368 Zn365 1.986 . S
O368 C375 1.262 . S
O369 Zn364 2.049 . S
O369 C377 1.260 . S
O370 Zn365 1.996 . S
O370 C377 1.257 . S
C371 O366 1.254 . S
C371 O367 1.269 . S
C372 O373 1.249 . S
C372 O374 1.270 . S
O373 Zn365 1.943 . S
O373 C372 1.249 . S
O374 Zn364 2.067 . S
O374 C372 1.270 . S
C375 O368 1.262 . S
C375 O376 1.232 . S
O376 C375 1.232 . S
C377 O369 1.260 . S
C377 O370 1.257 . S
Zn378 O381 2.031 . S
Zn378 O383 2.049 . S
Zn378 O388 2.067 1_455 S
Zn379 O380 1.962 . S
Zn379 O382 1.986 . S
Zn379 O384 1.996 . S
Zn379 O387 1.943 . S
O380 Zn379 1.962 . S
O380 C385 1.254 . S
O381 Zn378 2.031 . S
O381 C385 1.269 . S
O382 Zn379 1.986 . S
O382 C389 1.262 . S
O383 Zn378 2.049 . S
O383 C391 1.260 . S
O384 Zn379 1.996 . S
O384 C391 1.257 . S
C385 O380 1.254 . S
C385 O381 1.269 . S
C386 O387 1.249 1_655 S
C386 O388 1.270 . S
O387 Zn379 1.943 . S
O387 C386 1.249 1_455 S
O388 Zn378 2.067 1_655 S
O388 C386 1.270 . S
C389 O382 1.262 . S
C389 O390 1.232 . S
O390 C389 1.232 . S
C391 O383 1.260 . S
C391 O384 1.257 . S
Zn392 O395 2.031 . S
Zn392 O397 2.049 . S
Zn392 O402 2.067 . S
Zn393 O394 1.962 . S
Zn393 O396 1.986 . S
Zn393 O398 1.996 . S
Zn393 O401 1.943 . S
O394 Zn393 1.962 . S
O394 C399 1.254 . S
O395 Zn392 2.031 . S
O395 C399 1.269 . S
O396 Zn393 1.986 . S
O396 C403 1.262 . S
O397 Zn392 2.049 . S
O397 C405 1.260 . S
O398 Zn393 1.996 . S
O398 C405 1.257 . S
C399 O394 1.254 . S
C399 O395 1.269 . S
C400 O401 1.249 . S
C400 O402 1.270 . S
O401 Zn393 1.943 . S
O401 C400 1.249 . S
O402 Zn392 2.067 . S
O402 C400 1.270 . S
C403 O396 1.262 . S
C403 O404 1.232 . S
O404 C403 1.232 . S
C405 O397 1.260 . S
C405 O398 1.257 . S
Zn406 O409 2.031 . S
Zn406 O411 2.049 . S
Zn406 O416 2.067 1_455 S
Zn407 O408 1.962 . S
Zn407 O410 1.986 . S
Zn407 O412 1.996 . S
Zn407 O415 1.943 . S
O408 Zn407 1.962 . S
O408 C413 1.254 . S
O409 Zn406 2.031 . S
O409 C413 1.269 . S
O410 Zn407 1.986 . S
O410 C417 1.262 . S
O411 Zn406 2.049 . S
O411 C419 1.260 . S
O412 Zn407 1.996 . S
O412 C419 1.257 . S
C413 O408 1.254 . S
C413 O409 1.269 . S
C414 O415 1.249 1_655 S
C414 O416 1.270 . S
O415 Zn407 1.943 . S
O415 C414 1.249 1_455 S
O416 Zn406 2.067 1_655 S
O416 C414 1.270 . S
C417 O410 1.262 . S
C417 O418 1.232 . S
O418 C417 1.232 . S
C419 O411 1.260 . S
C419 O412 1.257 . S
Zn420 O423 2.031 . S
Zn420 O425 2.049 . S
Zn420 O430 2.067 . S
Zn421 O422 1.962 . S
Zn421 O424 1.986 . S
Zn421 O426 1.996 . S
Zn421 O429 1.943 . S
O422 Zn421 1.962 . S
O422 C427 1.254 . S
O423 Zn420 2.031 . S
O423 C427 1.269 . S
O424 Zn421 1.986 . S
O424 C431 1.262 . S
O425 Zn420 2.049 . S
O425 C433 1.260 . S
O426 Zn421 1.996 . S
O426 C433 1.257 . S
C427 O422 1.254 . S
C427 O423 1.269 . S
C428 O429 1.249 . S
C428 O430 1.270 . S
O429 Zn421 1.943 . S
O429 C428 1.249 . S
O430 Zn420 2.067 . S
O430 C428 1.270 . S
C431 O424 1.262 . S
C431 O432 1.232 . S
O432 C431 1.232 . S
C433 O425 1.260 . S
C433 O426 1.257 . S
Zn434 O437 2.031 . S
Zn434 O439 2.049 . S
Zn434 O444 2.067 . S
Zn435 O436 1.962 . S
Zn435 O438 1.986 . S
Zn435 O440 1.996 . S
Zn435 O443 1.943 . S
O436 Zn435 1.962 . S
O436 C441 1.254 . S
O437 Zn434 2.031 . S
O437 C441 1.269 . S
O438 Zn435 1.986 . S
O438 C445 1.262 . S
O439 Zn434 2.049 . S
O439 C447 1.260 . S
O440 Zn435 1.996 . S
O440 C447 1.257 . S
C441 O436 1.254 . S
C441 O437 1.269 . S
C442 O443 1.249 . S
C442 O444 1.270 . S
O443 Zn435 1.943 . S
O443 C442 1.249 . S
O444 Zn434 2.067 . S
O444 C442 1.270 . S
C445 O438 1.262 . S
C445 O446 1.232 . S
O446 C445 1.232 . S
C447 O439 1.260 . S
C447 O440 1.257 . S
C448 C449 1.363 . S
C448 C454 1.379 . S
C448 N456 1.356 . S
C449 C448 1.363 . S
C449 C455 1.363 . S
C450 C451 1.363 . S
C450 C455 1.379 . S
C450 N457 1.356 . S
C451 C450 1.363 . S
C451 C454 1.363 . S
N452 C454 1.356 . S
N452 H464 0.984 . S
N452 H465 0.985 . S
N453 C455 1.356 . S
N453 H458 0.984 . S
N453 H459 0.985 . S
C454 C448 1.379 . S
C454 C451 1.363 . S
C454 N452 1.356 . S
C455 C449 1.363 . S
C455 C450 1.379 . S
C455 N453 1.356 . S
N456 C448 1.356 . S
N456 H462 0.984 . S
N456 H463 0.984 . S
N457 C450 1.356 . S
N457 H460 0.984 . S
N457 H461 0.985 . S
H458 N453 0.984 . S
H459 N453 0.985 . S
H460 N457 0.984 . S
H461 N457 0.985 . S
H462 N456 0.984 . S
H463 N456 0.984 . S
H464 N452 0.984 . S
H465 N452 0.985 . S
C466 C467 1.363 . S
C466 C472 1.379 . S
C466 N474 1.356 1_655 S
C467 C466 1.363 . S
C467 C473 1.363 . S
C468 C469 1.363 . S
C468 C473 1.379 . S
C468 N475 1.356 . S
C469 C468 1.363 . S
C469 C472 1.363 . S
N470 C472 1.356 . S
N470 H482 0.984 . S
N470 H483 0.985 . S
N471 C473 1.356 . S
N471 H476 0.984 . S
N471 H477 0.985 . S
C472 C466 1.379 . S
C472 C469 1.363 . S
C472 N470 1.356 . S
C473 C467 1.363 . S
C473 C468 1.379 . S
C473 N471 1.356 . S
N474 C466 1.356 1_455 S
N474 H480 0.984 . S
N474 H481 0.984 . S
N475 C468 1.356 . S
N475 H478 0.984 . S
N475 H479 0.985 . S
H476 N471 0.984 . S
H477 N471 0.985 . S
H478 N475 0.984 . S
H479 N475 0.985 . S
H480 N474 0.984 . S
H481 N474 0.984 . S
H482 N470 0.984 . S
H483 N470 0.985 . S
C484 C485 1.363 . S
C484 C490 1.379 . S
C484 N492 1.356 . S
C485 C484 1.363 . S
C485 C491 1.363 . S
C486 C487 1.363 . S
C486 C491 1.379 . S
C486 N493 1.356 . S
C487 C486 1.363 . S
C487 C490 1.363 . S
N488 C490 1.356 . S
N488 H500 0.984 . S
N488 H501 0.985 . S
N489 C491 1.356 . S
N489 H494 0.984 . S
N489 H495 0.985 . S
C490 C484 1.379 . S
C490 C487 1.363 . S
C490 N488 1.356 . S
C491 C485 1.363 . S
C491 C486 1.379 . S
C491 N489 1.356 . S
N492 C484 1.356 . S
N492 H498 0.984 . S
N492 H499 0.984 . S
N493 C486 1.356 . S
N493 H496 0.984 . S
N493 H497 0.985 . S
H494 N489 0.984 . S
H495 N489 0.985 . S
H496 N493 0.984 . S
H497 N493 0.985 . S
H498 N492 0.984 . S
H499 N492 0.984 . S
H500 N488 0.984 . S
H501 N488 0.985 . S
C502 C503 1.363 . S
C502 C508 1.379 . S
C502 N510 1.356 . S
C503 C502 1.363 . S
C503 C509 1.363 . S
C504 C505 1.363 . S
C504 C509 1.379 . S
C504 N511 1.356 . S
C505 C504 1.363 . S
C505 C508 1.363 . S
N506 C508 1.356 . S
N506 H518 0.984 . S
N506 H519 0.985 . S
N507 C509 1.356 . S
N507 H512 0.984 . S
N507 H513 0.985 . S
C508 C502 1.379 . S
C508 C505 1.363 . S
C508 N506 1.356 . S
C509 C503 1.363 . S
C509 C504 1.379 . S
C509 N507 1.356 . S
N510 C502 1.356 . S
N510 H516 0.984 . S
N510 H517 0.984 . S
N511 C504 1.356 . S
N511 H514 0.984 . S
N511 H515 0.985 . S
H512 N507 0.984 . S
H513 N507 0.985 . S
H514 N511 0.984 . S
H515 N511 0.985 . S
H516 N510 0.984 . S
H517 N510 0.984 . S
H518 N506 0.984 . S
H519 N506 0.985 . S
C520 C521 1.363 . S
C520 C526 1.379 . S
C520 N528 1.356 . S
C521 C520 1.363 . S
C521 C527 1.363 . S
C522 C523 1.363 . S
C522 C527 1.379 . S
C522 N529 1.356 . S
C523 C522 1.363 . S
C523 C526 1.363 . S
N524 C526 1.356 . S
N524 H536 0.984 . S
N524 H537 0.985 . S
N525 C527 1.356 . S
N525 H530 0.984 . S
N525 H531 0.985 . S
C526 C520 1.379 . S
C526 C523 1.363 . S
C526 N524 1.356 . S
C527 C521 1.363 . S
C527 C522 1.379 . S
C527 N525 1.356 . S
N528 C520 1.356 . S
N528 H534 0.984 . S
N528 H535 0.984 . S
N529 C522 1.356 . S
N529 H532 0.984 . S
N529 H533 0.985 . S
H530 N525 0.984 . S
H531 N525 0.985 . S
H532 N529 0.984 . S
H533 N529 0.985 . S
H534 N528 0.984 . S
H535 N528 0.984 . S
H536 N524 0.984 . S
H537 N524 0.985 . S
C538 C539 1.363 . S
C538 C544 1.379 . S
C538 N546 1.356 . S
C539 C538 1.363 . S
C539 C545 1.363 . S
C540 C541 1.363 . S
C540 C545 1.379 . S
C540 N547 1.356 . S
C541 C540 1.363 . S
C541 C544 1.363 . S
N542 C544 1.356 . S
N542 H554 0.984 . S
N542 H555 0.985 . S
N543 C545 1.356 . S
N543 H548 0.984 . S
N543 H549 0.985 . S
C544 C538 1.379 . S
C544 C541 1.363 . S
C544 N542 1.356 . S
C545 C539 1.363 . S
C545 C540 1.379 . S
C545 N543 1.356 . S
N546 C538 1.356 . S
N546 H552 0.984 . S
N546 H553 0.984 . S
N547 C540 1.356 . S
N547 H550 0.984 . S
N547 H551 0.985 . S
H548 N543 0.984 . S
H549 N543 0.985 . S
H550 N547 0.984 . S
H551 N547 0.985 . S
H552 N546 0.984 . S
H553 N546 0.984 . S
H554 N542 0.984 . S
H555 N542 0.985 . S
C556 C557 1.363 . S
C556 C562 1.379 . S
C556 N564 1.356 . S
C557 C556 1.363 . S
C557 C563 1.363 . S
C558 C559 1.363 . S
C558 C563 1.379 . S
C558 N565 1.356 . S
C559 C558 1.363 . S
C559 C562 1.363 . S
N560 C562 1.356 . S
N560 H572 0.984 . S
N560 H573 0.985 . S
N561 C563 1.356 . S
N561 H566 0.984 . S
N561 H567 0.985 . S
C562 C556 1.379 . S
C562 C559 1.363 . S
C562 N560 1.356 . S
C563 C557 1.363 . S
C563 C558 1.379 . S
C563 N561 1.356 . S
N564 C556 1.356 . S
N564 H570 0.984 . S
N564 H571 0.984 . S
N565 C558 1.356 . S
N565 H568 0.984 . S
N565 H569 0.985 . S
H566 N561 0.984 . S
H567 N561 0.985 . S
H568 N565 0.984 . S
H569 N565 0.985 . S
H570 N564 0.984 . S
H571 N564 0.984 . S
H572 N560 0.984 . S
H573 N560 0.985 . S
C574 C575 1.363 . S
C574 C580 1.379 . S
C574 N582 1.356 . S
C575 C574 1.363 . S
C575 C581 1.363 . S
C576 C577 1.363 . S
C576 C581 1.379 . S
C576 N583 1.356 . S
C577 C576 1.363 . S
C577 C580 1.363 . S
N578 C580 1.356 . S
N578 H590 0.984 . S
N578 H591 0.985 . S
N579 C581 1.356 . S
N579 H584 0.984 . S
N579 H585 0.985 . S
C580 C574 1.379 . S
C580 C577 1.363 . S
C580 N578 1.356 . S
C581 C575 1.363 . S
C581 C576 1.379 . S
C581 N579 1.356 . S
N582 C574 1.356 . S
N582 H588 0.984 . S
N582 H589 0.984 1_655 S
N583 C576 1.356 . S
N583 H586 0.984 . S
N583 H587 0.985 . S
H584 N579 0.984 . S
H585 N579 0.985 . S
H586 N583 0.984 . S
H587 N583 0.985 . S
H588 N582 0.984 . S
H589 N582 0.984 1_455 S
H590 N578 0.984 . S
H591 N578 0.985 . S
C592 C593 1.363 . S
C592 C598 1.379 . S
C592 N600 1.356 . S
C593 C592 1.363 . S
C593 C599 1.363 . S
C594 C595 1.363 . S
C594 C599 1.379 . S
C594 N601 1.356 . S
C595 C594 1.363 . S
C595 C598 1.363 . S
N596 C598 1.356 . S
N596 H608 0.984 . S
N596 H609 0.985 . S
N597 C599 1.356 . S
N597 H602 0.984 . S
N597 H603 0.985 . S
C598 C592 1.379 . S
C598 C595 1.363 . S
C598 N596 1.356 . S
C599 C593 1.363 . S
C599 C594 1.379 . S
C599 N597 1.356 . S
N600 C592 1.356 . S
N600 H606 0.984 . S
N600 H607 0.984 . S
N601 C594 1.356 . S
N601 H604 0.984 . S
N601 H605 0.985 . S
H602 N597 0.984 . S
H603 N597 0.985 . S
H604 N601 0.984 . S
H605 N601 0.985 . S
H606 N600 0.984 . S
H607 N600 0.984 . S
H608 N596 0.984 . S
H609 N596 0.985 . S
C610 C611 1.363 . S
C610 C616 1.379 . S
C610 N618 1.356 . S
C611 C610 1.363 . S
C611 C617 1.363 . S
C612 C613 1.363 . S
C612 C617 1.379 . S
C612 N619 1.356 1_455 S
C613 C612 1.363 . S
C613 C616 1.363 . S
N614 C616 1.356 . S
N614 H626 0.984 . S
N614 H627 0.985 . S
N615 C617 1.356 . S
N615 H620 0.984 . S
N615 H621 0.985 . S
C616 C610 1.379 . S
C616 C613 1.363 . S
C616 N614 1.356 . S
C617 C611 1.363 . S
C617 C612 1.379 . S
C617 N615 1.356 . S
N618 C610 1.356 . S
N618 H624 0.984 . S
N618 H625 0.984 . S
N619 C612 1.356 1_655 S
N619 H622 0.984 . S
N619 H623 0.985 . S
H620 N615 0.984 . S
H621 N615 0.985 . S
H622 N619 0.984 . S
H623 N619 0.985 . S
H624 N618 0.984 . S
H625 N618 0.984 . S
H626 N614 0.984 . S
H627 N614 0.985 . S
C628 C629 1.363 . S
C628 C634 1.379 . S
C628 N636 1.356 . S
C629 C628 1.363 . S
C629 C635 1.363 . S
C630 C631 1.363 . S
C630 C635 1.379 . S
C630 N637 1.356 . S
C631 C630 1.363 . S
C631 C634 1.363 . S
N632 C634 1.356 . S
N632 H644 0.984 . S
N632 H645 0.985 . S
N633 C635 1.356 . S
N633 H638 0.984 . S
N633 H639 0.985 . S
C634 C628 1.379 . S
C634 C631 1.363 . S
C634 N632 1.356 . S
C635 C629 1.363 . S
C635 C630 1.379 . S
C635 N633 1.356 . S
N636 C628 1.356 . S
N636 H642 0.984 . S
N636 H643 0.984 . S
N637 C630 1.356 . S
N637 H640 0.984 . S
N637 H641 0.985 . S
H638 N633 0.984 . S
H639 N633 0.985 . S
H640 N637 0.984 . S
H641 N637 0.985 . S
H642 N636 0.984 . S
H643 N636 0.984 . S
H644 N632 0.984 . S
H645 N632 0.985 . S
C646 C647 1.363 . S
C646 C652 1.379 . S
C646 N654 1.356 . S
C647 C646 1.363 . S
C647 C653 1.363 . S
C648 C649 1.363 . S
C648 C653 1.379 . S
C648 N655 1.356 . S
C649 C648 1.363 . S
C649 C652 1.363 . S
N650 C652 1.356 . S
N650 H662 0.984 . S
N650 H663 0.985 . S
N651 C653 1.356 . S
N651 H656 0.984 . S
N651 H657 0.985 1_565 S
C652 C646 1.379 . S
C652 C649 1.363 . S
C652 N650 1.356 . S
C653 C647 1.363 . S
C653 C648 1.379 . S
C653 N651 1.356 . S
N654 C646 1.356 . S
N654 H660 0.984 . S
N654 H661 0.984 . S
N655 C648 1.356 . S
N655 H658 0.984 . S
N655 H659 0.985 . S
H656 N651 0.984 . S
H657 N651 0.985 1_545 S
H658 N655 0.984 . S
H659 N655 0.985 . S
H660 N654 0.984 . S
H661 N654 0.984 . S
H662 N650 0.984 . S
H663 N650 0.985 . S
C664 C665 1.363 . S
C664 C670 1.379 . S
C664 N672 1.356 . S
C665 C664 1.363 . S
C665 C671 1.363 . S
C666 C667 1.363 . S
C666 C671 1.379 . S
C666 N673 1.356 . S
C667 C666 1.363 . S
C667 C670 1.363 . S
N668 C670 1.356 . S
N668 H680 0.984 . S
N668 H681 0.985 . S
N669 C671 1.356 . S
N669 H674 0.984 . S
N669 H675 0.985 . S
C670 C664 1.379 . S
C670 C667 1.363 . S
C670 N668 1.356 . S
C671 C665 1.363 . S
C671 C666 1.379 . S
C671 N669 1.356 . S
N672 C664 1.356 . S
N672 H678 0.984 . S
N672 H679 0.984 . S
N673 C666 1.356 . S
N673 H676 0.984 . S
N673 H677 0.985 . S
H674 N669 0.984 . S
H675 N669 0.985 . S
H676 N673 0.984 . S
H677 N673 0.985 . S
H678 N672 0.984 . S
H679 N672 0.984 . S
H680 N668 0.984 . S
H681 N668 0.985 . S
C682 C683 1.363 . S
C682 C688 1.379 . S
C682 N690 1.356 . S
C683 C682 1.363 . S
C683 C689 1.363 . S
C684 C685 1.363 . S
C684 C689 1.379 . S
C684 N691 1.356 . S
C685 C684 1.363 . S
C685 C688 1.363 . S
N686 C688 1.356 . S
N686 H698 0.984 . S
N686 H699 0.985 . S
N687 C689 1.356 . S
N687 H692 0.984 . S
N687 H693 0.985 . S
C688 C682 1.379 . S
C688 C685 1.363 . S
C688 N686 1.356 . S
C689 C683 1.363 . S
C689 C684 1.379 . S
C689 N687 1.356 . S
N690 C682 1.356 . S
N690 H696 0.984 . S
N690 H697 0.984 . S
N691 C684 1.356 . S
N691 H694 0.984 . S
N691 H695 0.985 . S
H692 N687 0.984 . S
H693 N687 0.985 . S
H694 N691 0.984 . S
H695 N691 0.985 . S
H696 N690 0.984 . S
H697 N690 0.984 . S
H698 N686 0.984 . S
H699 N686 0.985 . S
C700 C701 1.363 . S
C700 C706 1.379 . S
C700 N708 1.356 . S
C701 C700 1.363 . S
C701 C707 1.363 . S
C702 C703 1.363 . S
C702 C707 1.379 . S
C702 N709 1.356 . S
C703 C702 1.363 . S
C703 C706 1.363 . S
N704 C706 1.356 . S
N704 H716 0.984 . S
N704 H717 0.985 . S
N705 C707 1.356 . S
N705 H710 0.984 . S
N705 H711 0.985 . S
C706 C700 1.379 . S
C706 C703 1.363 . S
C706 N704 1.356 . S
C707 C701 1.363 . S
C707 C702 1.379 . S
C707 N705 1.356 . S
N708 C700 1.356 . S
N708 H714 0.984 . S
N708 H715 0.984 . S
N709 C702 1.356 . S
N709 H712 0.984 . S
N709 H713 0.985 . S
H710 N705 0.984 . S
H711 N705 0.985 . S
H712 N709 0.984 . S
H713 N709 0.985 . S
H714 N708 0.984 . S
H715 N708 0.984 . S
H716 N704 0.984 . S
H717 N704 0.985 . S
C718 C719 1.363 . S
C718 C724 1.379 . S
C718 N726 1.356 . S
C719 C718 1.363 . S
C719 C725 1.363 . S
C720 C721 1.363 . S
C720 C725 1.379 . S
C720 N727 1.356 . S
C721 C720 1.363 . S
C721 C724 1.363 . S
N722 C724 1.356 . S
N722 H734 0.984 . S
N722 H735 0.985 . S
N723 C725 1.356 . S
N723 H728 0.984 . S
N723 H729 0.985 . S
C724 C718 1.379 . S
C724 C721 1.363 . S
C724 N722 1.356 . S
C725 C719 1.363 . S
C725 C720 1.379 . S
C725 N723 1.356 . S
N726 C718 1.356 . S
N726 H732 0.984 . S
N726 H733 0.984 . S
N727 C720 1.356 . S
N727 H730 0.984 1_455 S
N727 H731 0.985 . S
H728 N723 0.984 . S
H729 N723 0.985 . S
H730 N727 0.984 1_655 S
H731 N727 0.985 . S
H732 N726 0.984 . S
H733 N726 0.984 . S
H734 N722 0.984 . S
H735 N722 0.985 . S
C736 C737 1.363 . S
C736 C742 1.379 . S
C736 N744 1.356 . S
C737 C736 1.363 . S
C737 C743 1.363 . S
C738 C739 1.363 . S
C738 C743 1.379 . S
C738 N745 1.356 . S
C739 C738 1.363 . S
C739 C742 1.363 . S
N740 C742 1.356 . S
N740 H752 0.984 . S
N740 H753 0.985 . S
N741 C743 1.356 . S
N741 H746 0.984 . S
N741 H747 0.985 . S
C742 C736 1.379 . S
C742 C739 1.363 . S
C742 N740 1.356 . S
C743 C737 1.363 . S
C743 C738 1.379 . S
C743 N741 1.356 . S
N744 C736 1.356 . S
N744 H750 0.984 . S
N744 H751 0.984 . S
N745 C738 1.356 . S
N745 H748 0.984 . S
N745 H749 0.985 . S
H746 N741 0.984 . S
H747 N741 0.985 . S
H748 N745 0.984 . S
H749 N745 0.985 . S
H750 N744 0.984 . S
H751 N744 0.984 . S
H752 N740 0.984 . S
H753 N740 0.985 . S
C754 C755 1.363 . S
C754 C760 1.379 . S
C754 N762 1.356 . S
C755 C754 1.363 . S
C755 C761 1.363 . S
C756 C757 1.363 . S
C756 C761 1.379 . S
C756 N763 1.356 . S
C757 C756 1.363 . S
C757 C760 1.363 . S
N758 C760 1.356 . S
N758 H770 0.984 . S
N758 H771 0.985 . S
N759 C761 1.356 . S
N759 H764 0.984 . S
N759 H765 0.985 . S
C760 C754 1.379 . S
C760 C757 1.363 . S
C760 N758 1.356 . S
C761 C755 1.363 . S
C761 C756 1.379 . S
C761 N759 1.356 . S
N762 C754 1.356 . S
N762 H768 0.984 . S
N762 H769 0.984 . S
N763 C756 1.356 . S
N763 H766 0.984 . S
N763 H767 0.985 . S
H764 N759 0.984 . S
H765 N759 0.985 . S
H766 N763 0.984 . S
H767 N763 0.985 . S
H768 N762 0.984 . S
H769 N762 0.984 . S
H770 N758 0.984 . S
H771 N758 0.985 . S
C772 C773 1.363 . S
C772 C778 1.379 . S
C772 N780 1.356 . S
C773 C772 1.363 . S
C773 C779 1.363 . S
C774 C775 1.363 . S
C774 C779 1.379 . S
C774 N781 1.356 . S
C775 C774 1.363 . S
C775 C778 1.363 . S
N776 C778 1.356 . S
N776 H788 0.984 . S
N776 H789 0.985 . S
N777 C779 1.356 . S
N777 H782 0.984 . S
N777 H783 0.985 . S
C778 C772 1.379 . S
C778 C775 1.363 . S
C778 N776 1.356 . S
C779 C773 1.363 . S
C779 C774 1.379 . S
C779 N777 1.356 . S
N780 C772 1.356 . S
N780 H786 0.984 . S
N780 H787 0.984 . S
N781 C774 1.356 . S
N781 H784 0.984 . S
N781 H785 0.985 . S
H782 N777 0.984 . S
H783 N777 0.985 . S
H784 N781 0.984 . S
H785 N781 0.985 . S
H786 N780 0.984 . S
H787 N780 0.984 . S
H788 N776 0.984 . S
H789 N776 0.985 . S
C790 C791 1.363 . S
C790 C796 1.379 . S
C790 N798 1.356 . S
C791 C790 1.363 . S
C791 C797 1.363 . S
C792 C793 1.363 . S
C792 C797 1.379 . S
C792 N799 1.356 . S
C793 C792 1.363 . S
C793 C796 1.363 . S
N794 C796 1.356 . S
N794 H806 0.984 . S
N794 H807 0.985 . S
N795 C797 1.356 . S
N795 H800 0.984 . S
N795 H801 0.985 . S
C796 C790 1.379 . S
C796 C793 1.363 . S
C796 N794 1.356 . S
C797 C791 1.363 . S
C797 C792 1.379 . S
C797 N795 1.356 . S
N798 C790 1.356 . S
N798 H804 0.984 . S
N798 H805 0.984 . S
N799 C792 1.356 . S
N799 H802 0.984 . S
N799 H803 0.985 . S
H800 N795 0.984 . S
H801 N795 0.985 . S
H802 N799 0.984 . S
H803 N799 0.985 . S
H804 N798 0.984 . S
H805 N798 0.984 . S
H806 N794 0.984 . S
H807 N794 0.985 . S
C808 C809 1.363 . S
C808 C814 1.379 . S
C808 N816 1.356 . S
C809 C808 1.363 . S
C809 C815 1.363 . S
C810 C811 1.363 . S
C810 C815 1.379 . S
C810 N817 1.356 . S
C811 C810 1.363 . S
C811 C814 1.363 . S
N812 C814 1.356 . S
N812 H824 0.984 . S
N812 H825 0.985 . S
N813 C815 1.356 . S
N813 H818 0.984 . S
N813 H819 0.985 . S
C814 C808 1.379 . S
C814 C811 1.363 . S
C814 N812 1.356 . S
C815 C809 1.363 . S
C815 C810 1.379 . S
C815 N813 1.356 . S
N816 C808 1.356 . S
N816 H822 0.984 . S
N816 H823 0.984 . S
N817 C810 1.356 . S
N817 H820 0.984 . S
N817 H821 0.985 . S
H818 N813 0.984 . S
H819 N813 0.985 . S
H820 N817 0.984 . S
H821 N817 0.985 . S
H822 N816 0.984 . S
H823 N816 0.984 . S
H824 N812 0.984 . S
H825 N812 0.985 . S
C826 C827 1.363 . S
C826 C832 1.379 . S
C826 N834 1.356 . S
C827 C826 1.363 . S
C827 C833 1.363 . S
C828 C829 1.363 . S
C828 C833 1.379 . S
C828 N835 1.356 . S
C829 C828 1.363 . S
C829 C832 1.363 . S
N830 C832 1.356 . S
N830 H842 0.984 . S
N830 H843 0.985 . S
N831 C833 1.356 . S
N831 H836 0.984 . S
N831 H837 0.985 . S
C832 C826 1.379 . S
C832 C829 1.363 . S
C832 N830 1.356 . S
C833 C827 1.363 . S
C833 C828 1.379 . S
C833 N831 1.356 . S
N834 C826 1.356 . S
N834 H840 0.984 . S
N834 H841 0.984 . S
N835 C828 1.356 . S
N835 H838 0.984 . S
N835 H839 0.985 . S
H836 N831 0.984 . S
H837 N831 0.985 . S
H838 N835 0.984 . S
H839 N835 0.985 . S
H840 N834 0.984 . S
H841 N834 0.984 . S
H842 N830 0.984 . S
H843 N830 0.985 . S
C844 C845 1.363 . S
C844 C850 1.379 . S
C844 N852 1.356 . S
C845 C844 1.363 . S
C845 C851 1.363 . S
C846 C847 1.363 . S
C846 C851 1.379 . S
C846 N853 1.356 . S
C847 C846 1.363 . S
C847 C850 1.363 . S
N848 C850 1.356 . S
N848 H860 0.984 . S
N848 H861 0.985 . S
N849 C851 1.356 . S
N849 H854 0.984 . S
N849 H855 0.985 . S
C850 C844 1.379 . S
C850 C847 1.363 . S
C850 N848 1.356 . S
C851 C845 1.363 . S
C851 C846 1.379 . S
C851 N849 1.356 . S
N852 C844 1.356 . S
N852 H858 0.984 . S
N852 H859 0.984 . S
N853 C846 1.356 . S
N853 H856 0.984 . S
N853 H857 0.985 . S
H854 N849 0.984 . S
H855 N849 0.985 . S
H856 N853 0.984 . S
H857 N853 0.985 . S
H858 N852 0.984 . S
H859 N852 0.984 . S
H860 N848 0.984 . S
H861 N848 0.985 . S
C862 C863 1.363 . S
C862 C868 1.379 . S
C862 N870 1.356 . S
C863 C862 1.363 . S
C863 C869 1.363 . S
C864 C865 1.363 . S
C864 C869 1.379 . S
C864 N871 1.356 . S
C865 C864 1.363 . S
C865 C868 1.363 . S
N866 C868 1.356 . S
N866 H878 0.984 . S
N866 H879 0.985 . S
N867 C869 1.356 . S
N867 H872 0.984 . S
N867 H873 0.985 . S
C868 C862 1.379 . S
C868 C865 1.363 . S
C868 N866 1.356 . S
C869 C863 1.363 . S
C869 C864 1.379 . S
C869 N867 1.356 . S
N870 C862 1.356 . S
N870 H876 0.984 . S
N870 H877 0.984 . S
N871 C864 1.356 . S
N871 H874 0.984 . S
N871 H875 0.985 . S
H872 N867 0.984 . S
H873 N867 0.985 . S
H874 N871 0.984 . S
H875 N871 0.985 . S
H876 N870 0.984 . S
H877 N870 0.984 . S
H878 N866 0.984 . S
H879 N866 0.985 . S
C880 C881 1.363 . S
C880 C886 1.379 . S
C880 N888 1.356 . S
C881 C880 1.363 . S
C881 C887 1.363 . S
C882 C883 1.363 . S
C882 C887 1.379 . S
C882 N889 1.356 . S
C883 C882 1.363 . S
C883 C886 1.363 . S
N884 C886 1.356 . S
N884 H896 0.984 . S
N884 H897 0.985 . S
N885 C887 1.356 . S
N885 H890 0.984 . S
N885 H891 0.985 . S
C886 C880 1.379 . S
C886 C883 1.363 . S
C886 N884 1.356 . S
C887 C881 1.363 . S
C887 C882 1.379 . S
C887 N885 1.356 . S
N888 C880 1.356 . S
N888 H894 0.984 . S
N888 H895 0.984 . S
N889 C882 1.356 . S
N889 H892 0.984 . S
N889 H893 0.985 . S
H890 N885 0.984 . S
H891 N885 0.985 . S
H892 N889 0.984 . S
H893 N889 0.985 . S
H894 N888 0.984 . S
H895 N888 0.984 . S
H896 N884 0.984 . S
H897 N884 0.985 . S
C898 C899 1.363 . S
C898 C904 1.379 . S
C898 N906 1.356 . S
C899 C898 1.363 . S
C899 C905 1.363 . S
C900 C901 1.363 . S
C900 C905 1.379 . S
C900 N907 1.356 . S
C901 C900 1.363 . S
C901 C904 1.363 . S
N902 C904 1.356 . S
N902 H914 0.984 . S
N902 H915 0.985 . S
N903 C905 1.356 . S
N903 H908 0.984 . S
N903 H909 0.985 . S
C904 C898 1.379 . S
C904 C901 1.363 . S
C904 N902 1.356 . S
C905 C899 1.363 . S
C905 C900 1.379 . S
C905 N903 1.356 . S
N906 C898 1.356 . S
N906 H912 0.984 . S
N906 H913 0.984 . S
N907 C900 1.356 . S
N907 H910 0.984 . S
N907 H911 0.985 . S
H908 N903 0.984 . S
H909 N903 0.985 . S
H910 N907 0.984 . S
H911 N907 0.985 . S
H912 N906 0.984 . S
H913 N906 0.984 . S
H914 N902 0.984 . S
H915 N902 0.985 . S
C916 C917 1.363 . S
C916 C922 1.379 . S
C916 N924 1.356 . S
C917 C916 1.363 . S
C917 C923 1.363 . S
C918 C919 1.363 . S
C918 C923 1.379 . S
C918 N925 1.356 . S
C919 C918 1.363 . S
C919 C922 1.363 . S
N920 C922 1.356 . S
N920 H932 0.984 . S
N920 H933 0.985 . S
N921 C923 1.356 . S
N921 H926 0.984 . S
N921 H927 0.985 . S
C922 C916 1.379 . S
C922 C919 1.363 . S
C922 N920 1.356 . S
C923 C917 1.363 . S
C923 C918 1.379 . S
C923 N921 1.356 . S
N924 C916 1.356 . S
N924 H930 0.984 . S
N924 H931 0.984 . S
N925 C918 1.356 . S
N925 H928 0.984 . S
N925 H929 0.985 . S
H926 N921 0.984 . S
H927 N921 0.985 . S
H928 N925 0.984 . S
H929 N925 0.985 . S
H930 N924 0.984 . S
H931 N924 0.984 . S
H932 N920 0.984 . S
H933 N920 0.985 . S
C934 C935 1.363 . S
C934 C940 1.379 . S
C934 N942 1.356 . S
C935 C934 1.363 . S
C935 C941 1.363 . S
C936 C937 1.363 . S
C936 C941 1.379 . S
C936 N943 1.356 . S
C937 C936 1.363 . S
C937 C940 1.363 . S
N938 C940 1.356 . S
N938 H950 0.984 . S
N938 H951 0.985 . S
N939 C941 1.356 . S
N939 H944 0.984 . S
N939 H945 0.985 . S
C940 C934 1.379 . S
C940 C937 1.363 . S
C940 N938 1.356 . S
C941 C935 1.363 . S
C941 C936 1.379 . S
C941 N939 1.356 . S
N942 C934 1.356 . S
N942 H948 0.984 . S
N942 H949 0.984 . S
N943 C936 1.356 . S
N943 H946 0.984 . S
N943 H947 0.985 . S
H944 N939 0.984 . S
H945 N939 0.985 . S
H946 N943 0.984 . S
H947 N943 0.985 . S
H948 N942 0.984 . S
H949 N942 0.984 . S
H950 N938 0.984 . S
H951 N938 0.985 . S
C952 C953 1.363 . S
C952 C958 1.379 . S
C952 N960 1.356 . S
C953 C952 1.363 . S
C953 C959 1.363 . S
C954 C955 1.363 . S
C954 C959 1.379 . S
C954 N961 1.356 . S
C955 C954 1.363 . S
C955 C958 1.363 . S
N956 C958 1.356 . S
N956 H968 0.984 . S
N956 H969 0.985 . S
N957 C959 1.356 . S
N957 H962 0.984 . S
N957 H963 0.985 . S
C958 C952 1.379 . S
C958 C955 1.363 . S
C958 N956 1.356 . S
C959 C953 1.363 . S
C959 C954 1.379 . S
C959 N957 1.356 . S
N960 C952 1.356 . S
N960 H966 0.984 . S
N960 H967 0.984 . S
N961 C954 1.356 . S
N961 H964 0.984 . S
N961 H965 0.985 . S
H962 N957 0.984 . S
H963 N957 0.985 . S
H964 N961 0.984 . S
H965 N961 0.985 . S
H966 N960 0.984 . S
H967 N960 0.984 . S
H968 N956 0.984 . S
H969 N956 0.985 . S
C970 C971 1.363 . S
C970 C976 1.379 . S
C970 N978 1.356 . S
C971 C970 1.363 . S
C971 C977 1.363 . S
C972 C973 1.363 . S
C972 C977 1.379 . S
C972 N979 1.356 . S
C973 C972 1.363 . S
C973 C976 1.363 . S
N974 C976 1.356 . S
N974 H986 0.984 . S
N974 H987 0.985 . S
N975 C977 1.356 . S
N975 H980 0.984 . S
N975 H981 0.985 . S
C976 C970 1.379 . S
C976 C973 1.363 . S
C976 N974 1.356 . S
C977 C971 1.363 . S
C977 C972 1.379 . S
C977 N975 1.356 . S
N978 C970 1.356 . S
N978 H984 0.984 . S
N978 H985 0.984 . S
N979 C972 1.356 . S
N979 H982 0.984 . S
N979 H983 0.985 . S
H980 N975 0.984 . S
H981 N975 0.985 . S
H982 N979 0.984 . S
H983 N979 0.985 . S
H984 N978 0.984 . S
H985 N978 0.984 . S
H986 N974 0.984 . S
H987 N974 0.985 . S
C988 C989 1.363 . S
C988 C994 1.379 . S
C988 N996 1.356 . S
C989 C988 1.363 . S
C989 C995 1.363 . S
C990 C991 1.363 . S
C990 C995 1.379 . S
C990 N997 1.356 . S
C991 C990 1.363 . S
C991 C994 1.363 . S
N992 C994 1.356 . S
N992 H1004 0.984 . S
N992 H1005 0.985 . S
N993 C995 1.356 . S
N993 H998 0.984 . S
N993 H999 0.985 . S
C994 C988 1.379 . S
C994 C991 1.363 . S
C994 N992 1.356 . S
C995 C989 1.363 . S
C995 C990 1.379 . S
C995 N993 1.356 . S
N996 C988 1.356 . S
N996 H1002 0.984 . S
N996 H1003 0.984 . S
N997 C990 1.356 . S
N997 H1000 0.984 . S
N997 H1001 0.985 . S
H998 N993 0.984 . S
H999 N993 0.985 . S
H1000 N997 0.984 . S
H1001 N997 0.985 . S
H1002 N996 0.984 . S
H1003 N996 0.984 . S
H1004 N992 0.984 . S
H1005 N992 0.985 . S
C1006 C1007 1.363 . S
C1006 C1012 1.379 . S
C1006 N1014 1.356 . S
C1007 C1006 1.363 . S
C1007 C1013 1.363 . S
C1008 C1009 1.363 . S
C1008 C1013 1.379 . S
C1008 N1015 1.356 . S
C1009 C1008 1.363 . S
C1009 C1012 1.363 . S
N1010 C1012 1.356 . S
N1010 H1022 0.984 . S
N1010 H1023 0.985 . S
N1011 C1013 1.356 . S
N1011 H1016 0.984 . S
N1011 H1017 0.985 . S
C1012 C1006 1.379 . S
C1012 C1009 1.363 . S
C1012 N1010 1.356 . S
C1013 C1007 1.363 . S
C1013 C1008 1.379 . S
C1013 N1011 1.356 . S
N1014 C1006 1.356 . S
N1014 H1020 0.984 . S
N1014 H1021 0.984 . S
N1015 C1008 1.356 . S
N1015 H1018 0.984 . S
N1015 H1019 0.985 . S
H1016 N1011 0.984 . S
H1017 N1011 0.985 . S
H1018 N1015 0.984 . S
H1019 N1015 0.985 . S
H1020 N1014 0.984 . S
H1021 N1014 0.984 . S
H1022 N1010 0.984 . S
H1023 N1010 0.985 . S
C1024 C1025 1.363 . S
C1024 C1030 1.379 . S
C1024 N1032 1.356 . S
C1025 C1024 1.363 . S
C1025 C1031 1.363 . S
C1026 C1027 1.363 . S
C1026 C1031 1.379 . S
C1026 N1033 1.356 . S
C1027 C1026 1.363 . S
C1027 C1030 1.363 . S
N1028 C1030 1.356 . S
N1028 H1040 0.984 . S
N1028 H1041 0.985 . S
N1029 C1031 1.356 . S
N1029 H1034 0.984 . S
N1029 H1035 0.985 . S
C1030 C1024 1.379 . S
C1030 C1027 1.363 . S
C1030 N1028 1.356 . S
C1031 C1025 1.363 . S
C1031 C1026 1.379 . S
C1031 N1029 1.356 . S
N1032 C1024 1.356 . S
N1032 H1038 0.984 . S
N1032 H1039 0.984 . S
N1033 C1026 1.356 . S
N1033 H1036 0.984 . S
N1033 H1037 0.985 . S
H1034 N1029 0.984 . S
H1035 N1029 0.985 . S
H1036 N1033 0.984 . S
H1037 N1033 0.985 . S
H1038 N1032 0.984 . S
H1039 N1032 0.984 . S
H1040 N1028 0.984 . S
H1041 N1028 0.985 . S
C1042 C1043 1.363 . S
C1042 C1048 1.379 . S
C1042 N1050 1.356 . S
C1043 C1042 1.363 . S
C1043 C1049 1.363 1_465 S
C1044 C1045 1.363 . S
C1044 C1049 1.379 . S
C1044 N1051 1.356 . S
C1045 C1044 1.363 . S
C1045 C1048 1.363 1_645 S
N1046 C1048 1.356 . S
N1046 H1058 0.984 . S
N1046 H1059 0.985 . S
N1047 C1049 1.356 . S
N1047 H1052 0.984 1_655 S
N1047 H1053 0.985 . S
C1048 C1042 1.379 . S
C1048 C1045 1.363 1_465 S
C1048 N1046 1.356 . S
C1049 C1043 1.363 1_645 S
C1049 C1044 1.379 . S
C1049 N1047 1.356 . S
N1050 C1042 1.356 . S
N1050 H1056 0.984 . S
N1050 H1057 0.984 . S
N1051 C1044 1.356 . S
N1051 H1054 0.984 . S
N1051 H1055 0.985 . S
H1052 N1047 0.984 1_455 S
H1053 N1047 0.985 . S
H1054 N1051 0.984 . S
H1055 N1051 0.985 . S
H1056 N1050 0.984 . S
H1057 N1050 0.984 . S
H1058 N1046 0.984 . S
H1059 N1046 0.985 . S
C1060 C1061 1.363 . S
C1060 C1066 1.379 . S
C1060 N1068 1.356 . S
C1061 C1060 1.363 . S
C1061 C1067 1.363 . S
C1062 C1063 1.363 . S
C1062 C1067 1.379 . S
C1062 N1069 1.356 . S
C1063 C1062 1.363 . S
C1063 C1066 1.363 . S
N1064 C1066 1.356 . S
N1064 H1076 0.984 . S
N1064 H1077 0.985 . S
N1065 C1067 1.356 . S
N1065 H1070 0.984 . S
N1065 H1071 0.985 . S
C1066 C1060 1.379 . S
C1066 C1063 1.363 . S
C1066 N1064 1.356 . S
C1067 C1061 1.363 . S
C1067 C1062 1.379 . S
C1067 N1065 1.356 . S
N1068 C1060 1.356 . S
N1068 H1074 0.984 . S
N1068 H1075 0.984 . S
N1069 C1062 1.356 . S
N1069 H1072 0.984 . S
N1069 H1073 0.985 . S
H1070 N1065 0.984 . S
H1071 N1065 0.985 . S
H1072 N1069 0.984 . S
H1073 N1069 0.985 . S
H1074 N1068 0.984 . S
H1075 N1068 0.984 . S
H1076 N1064 0.984 . S
H1077 N1064 0.985 . S
C1078 C1079 1.363 1_556 S
C1078 C1084 1.379 . S
C1078 N1086 1.356 1_556 S
C1079 C1078 1.363 1_554 S
C1079 C1085 1.363 1_545 S
C1080 C1081 1.363 . S
C1080 C1085 1.379 1_556 S
C1080 N1087 1.356 . S
C1081 C1080 1.363 . S
C1081 C1084 1.363 1_565 S
N1082 C1084 1.356 . S
N1082 H1094 0.984 . S
N1082 H1095 0.985 . S
N1083 C1085 1.356 . S
N1083 H1088 0.984 . S
N1083 H1089 0.985 . S
C1084 C1078 1.379 . S
C1084 C1081 1.363 1_545 S
C1084 N1082 1.356 . S
C1085 C1079 1.363 1_565 S
C1085 C1080 1.379 1_554 S
C1085 N1083 1.356 . S
N1086 C1078 1.356 1_554 S
N1086 H1092 0.984 1_554 S
N1086 H1093 0.984 . S
N1087 C1080 1.356 . S
N1087 H1090 0.984 . S
N1087 H1091 0.985 . S
H1088 N1083 0.984 . S
H1089 N1083 0.985 . S
H1090 N1087 0.984 . S
H1091 N1087 0.985 . S
H1092 N1086 0.984 1_556 S
H1093 N1086 0.984 . S
H1094 N1082 0.984 . S
H1095 N1082 0.985 . S
C1096 C1097 1.363 . S
C1096 C1102 1.379 . S
C1096 N1104 1.356 . S
C1097 C1096 1.363 . S
C1097 C1103 1.363 . S
C1098 C1099 1.363 . S
C1098 C1103 1.379 . S
C1098 N1105 1.356 . S
C1099 C1098 1.363 . S
C1099 C1102 1.363 . S
N1100 C1102 1.356 . S
N1100 H1112 0.984 . S
N1100 H1113 0.985 . S
N1101 C1103 1.356 . S
N1101 H1106 0.984 . S
N1101 H1107 0.985 . S
C1102 C1096 1.379 . S
C1102 C1099 1.363 . S
C1102 N1100 1.356 . S
C1103 C1097 1.363 . S
C1103 C1098 1.379 . S
C1103 N1101 1.356 . S
N1104 C1096 1.356 . S
N1104 H1110 0.984 . S
N1104 H1111 0.984 . S
N1105 C1098 1.356 . S
N1105 H1108 0.984 . S
N1105 H1109 0.985 . S
H1106 N1101 0.984 . S
H1107 N1101 0.985 . S
H1108 N1105 0.984 . S
H1109 N1105 0.985 . S
H1110 N1104 0.984 . S
H1111 N1104 0.984 . S
H1112 N1100 0.984 . S
H1113 N1100 0.985 . S
C1114 C1115 1.363 . S
C1114 C1120 1.379 . S
C1114 N1122 1.356 . S
C1115 C1114 1.363 . S
C1115 C1121 1.363 1_565 S
C1116 C1117 1.363 . S
C1116 C1121 1.379 . S
C1116 N1123 1.356 . S
C1117 C1116 1.363 . S
C1117 C1120 1.363 1_545 S
N1118 C1120 1.356 . S
N1118 H1130 0.984 . S
N1118 H1131 0.985 . S
N1119 C1121 1.356 . S
N1119 H1124 0.984 . S
N1119 H1125 0.985 . S
C1120 C1114 1.379 . S
C1120 C1117 1.363 1_565 S
C1120 N1118 1.356 . S
C1121 C1115 1.363 1_545 S
C1121 C1116 1.379 . S
C1121 N1119 1.356 . S
N1122 C1114 1.356 . S
N1122 H1128 0.984 . S
N1122 H1129 0.984 . S
N1123 C1116 1.356 . S
N1123 H1126 0.984 . S
N1123 H1127 0.985 . S
H1124 N1119 0.984 . S
H1125 N1119 0.985 . S
H1126 N1123 0.984 . S
H1127 N1123 0.985 . S
H1128 N1122 0.984 . S
H1129 N1122 0.984 . S
H1130 N1118 0.984 . S
H1131 N1118 0.985 . S
C1132 C1133 1.363 . S
C1132 C1138 1.379 . S
C1132 N1140 1.356 . S
C1133 C1132 1.363 . S
C1133 C1139 1.363 . S
C1134 C1135 1.363 . S
C1134 C1139 1.379 . S
C1134 N1141 1.356 . S
C1135 C1134 1.363 . S
C1135 C1138 1.363 . S
N1136 C1138 1.356 . S
N1136 H1148 0.984 . S
N1136 H1149 0.985 . S
N1137 C1139 1.356 . S
N1137 H1142 0.984 . S
N1137 H1143 0.985 . S
C1138 C1132 1.379 . S
C1138 C1135 1.363 . S
C1138 N1136 1.356 . S
C1139 C1133 1.363 . S
C1139 C1134 1.379 . S
C1139 N1137 1.356 . S
N1140 C1132 1.356 . S
N1140 H1146 0.984 . S
N1140 H1147 0.984 . S
N1141 C1134 1.356 . S
N1141 H1144 0.984 . S
N1141 H1145 0.985 . S
H1142 N1137 0.984 . S
H1143 N1137 0.985 . S
H1144 N1141 0.984 . S
H1145 N1141 0.985 . S
H1146 N1140 0.984 . S
H1147 N1140 0.984 . S
H1148 N1136 0.984 . S
H1149 N1136 0.985 . S
C1150 C1151 1.363 1_554 S
C1150 C1156 1.379 . S
C1150 N1158 1.356 1_554 S
C1151 C1150 1.363 1_556 S
C1151 C1157 1.363 1_445 S
C1152 C1153 1.363 . S
C1152 C1157 1.379 1_554 S
C1152 N1159 1.356 . S
C1153 C1152 1.363 . S
C1153 C1156 1.363 1_665 S
N1154 C1156 1.356 . S
N1154 H1166 0.984 . S
N1154 H1167 0.985 1_455 S
N1155 C1157 1.356 . S
N1155 H1160 0.984 1_655 S
N1155 H1161 0.985 . S
C1156 C1150 1.379 . S
C1156 C1153 1.363 1_445 S
C1156 N1154 1.356 . S
C1157 C1151 1.363 1_665 S
C1157 C1152 1.379 1_556 S
C1157 N1155 1.356 . S
N1158 C1150 1.356 1_556 S
N1158 H1164 0.984 1_556 S
N1158 H1165 0.984 . S
N1159 C1152 1.356 . S
N1159 H1162 0.984 . S
N1159 H1163 0.985 . S
H1160 N1155 0.984 1_455 S
H1161 N1155 0.985 . S
H1162 N1159 0.984 . S
H1163 N1159 0.985 . S
H1164 N1158 0.984 1_554 S
H1165 N1158 0.984 . S
H1166 N1154 0.984 . S
H1167 N1154 0.985 1_655 S
C1168 C1169 1.363 . S
C1168 C1174 1.379 . S
C1168 N1176 1.356 . S
C1169 C1168 1.363 . S
C1169 C1175 1.363 . S
C1170 C1171 1.363 . S
C1170 C1175 1.379 . S
C1170 N1177 1.356 . S
C1171 C1170 1.363 . S
C1171 C1174 1.363 . S
N1172 C1174 1.356 . S
N1172 H1184 0.984 . S
N1172 H1185 0.985 . S
N1173 C1175 1.356 . S
N1173 H1178 0.984 . S
N1173 H1179 0.985 . S
C1174 C1168 1.379 . S
C1174 C1171 1.363 . S
C1174 N1172 1.356 . S
C1175 C1169 1.363 . S
C1175 C1170 1.379 . S
C1175 N1173 1.356 . S
N1176 C1168 1.356 . S
N1176 H1182 0.984 . S
N1176 H1183 0.984 . S
N1177 C1170 1.356 . S
N1177 H1180 0.984 . S
N1177 H1181 0.985 . S
H1178 N1173 0.984 . S
H1179 N1173 0.985 . S
H1180 N1177 0.984 . S
H1181 N1177 0.985 . S
H1182 N1176 0.984 . S
H1183 N1176 0.984 . S
H1184 N1172 0.984 . S
H1185 N1172 0.985 . S
C1186 C1187 1.363 . S
C1186 C1192 1.379 . S
C1186 N1194 1.356 . S
C1187 C1186 1.363 . S
C1187 C1193 1.363 . S
C1188 C1189 1.363 . S
C1188 C1193 1.379 . S
C1188 N1195 1.356 . S
C1189 C1188 1.363 . S
C1189 C1192 1.363 . S
N1190 C1192 1.356 . S
N1190 H1202 0.984 . S
N1190 H1203 0.985 . S
N1191 C1193 1.356 . S
N1191 H1196 0.984 . S
N1191 H1197 0.985 . S
C1192 C1186 1.379 . S
C1192 C1189 1.363 . S
C1192 N1190 1.356 . S
C1193 C1187 1.363 . S
C1193 C1188 1.379 . S
C1193 N1191 1.356 . S
N1194 C1186 1.356 . S
N1194 H1200 0.984 . S
N1194 H1201 0.984 . S
N1195 C1188 1.356 . S
N1195 H1198 0.984 . S
N1195 H1199 0.985 . S
H1196 N1191 0.984 . S
H1197 N1191 0.985 . S
H1198 N1195 0.984 . S
H1199 N1195 0.985 . S
H1200 N1194 0.984 . S
H1201 N1194 0.984 . S
H1202 N1190 0.984 . S
H1203 N1190 0.985 . S
C1204 C1205 1.363 . S
C1204 C1210 1.379 . S
C1204 N1212 1.356 . S
C1205 C1204 1.363 . S
C1205 C1211 1.363 . S
C1206 C1207 1.363 . S
C1206 C1211 1.379 . S
C1206 N1213 1.356 . S
C1207 C1206 1.363 . S
C1207 C1210 1.363 . S
N1208 C1210 1.356 . S
N1208 H1220 0.984 . S
N1208 H1221 0.985 . S
N1209 C1211 1.356 . S
N1209 H1214 0.984 . S
N1209 H1215 0.985 . S
C1210 C1204 1.379 . S
C1210 C1207 1.363 . S
C1210 N1208 1.356 . S
C1211 C1205 1.363 . S
C1211 C1206 1.379 . S
C1211 N1209 1.356 . S
N1212 C1204 1.356 . S
N1212 H1218 0.984 . S
N1212 H1219 0.984 . S
N1213 C1206 1.356 . S
N1213 H1216 0.984 . S
N1213 H1217 0.985 . S
H1214 N1209 0.984 . S
H1215 N1209 0.985 . S
H1216 N1213 0.984 . S
H1217 N1213 0.985 . S
H1218 N1212 0.984 . S
H1219 N1212 0.984 . S
H1220 N1208 0.984 . S
H1221 N1208 0.985 . S
C1222 C1223 1.363 . S
C1222 C1228 1.379 . S
C1222 N1230 1.356 . S
C1223 C1222 1.363 . S
C1223 C1229 1.363 . S
C1224 C1225 1.363 . S
C1224 C1229 1.379 . S
C1224 N1231 1.356 . S
C1225 C1224 1.363 . S
C1225 C1228 1.363 . S
N1226 C1228 1.356 . S
N1226 H1238 0.984 . S
N1226 H1239 0.985 . S
N1227 C1229 1.356 . S
N1227 H1232 0.984 . S
N1227 H1233 0.985 . S
C1228 C1222 1.379 . S
C1228 C1225 1.363 . S
C1228 N1226 1.356 . S
C1229 C1223 1.363 . S
C1229 C1224 1.379 . S
C1229 N1227 1.356 . S
N1230 C1222 1.356 . S
N1230 H1236 0.984 . S
N1230 H1237 0.984 . S
N1231 C1224 1.356 . S
N1231 H1234 0.984 . S
N1231 H1235 0.985 . S
H1232 N1227 0.984 . S
H1233 N1227 0.985 . S
H1234 N1231 0.984 . S
H1235 N1231 0.985 . S
H1236 N1230 0.984 . S
H1237 N1230 0.984 . S
H1238 N1226 0.984 . S
H1239 N1226 0.985 . S
C1240 C1241 1.395 . S
C1240 C1246 1.340 1_554 S
C1240 N1248 1.377 . S
C1241 C1240 1.395 . S
C1241 C1247 1.363 . S
C1242 C1243 1.363 . S
C1242 C1247 1.379 1_556 S
C1242 N1249 1.356 . S
C1243 C1242 1.363 . S
C1243 C1246 1.363 . S
N1244 C1246 1.356 . S
N1244 H1256 0.984 . S
N1244 H1257 0.985 . S
N1245 C1247 1.356 . S
N1245 H1250 0.984 . S
N1245 H1251 0.985 . S
C1246 C1240 1.340 1_556 S
C1246 C1243 1.363 . S
C1246 N1244 1.356 . S
C1247 C1241 1.363 . S
C1247 C1242 1.379 1_554 S
C1247 N1245 1.356 . S
N1248 C1240 1.377 . S
N1248 H1254 0.984 . S
N1248 H1255 0.984 . S
N1249 C1242 1.356 . S
N1249 H1252 0.984 . S
N1249 H1253 0.985 . S
H1250 N1245 0.984 . S
H1251 N1245 0.985 . S
H1252 N1249 0.984 . S
H1253 N1249 0.985 . S
H1254 N1248 0.984 . S
H1255 N1248 0.984 . S
H1256 N1244 0.984 . S
H1257 N1244 0.985 . S
C1258 C1259 1.363 1_655 S
C1258 C1264 1.379 . S
C1258 N1266 1.356 . S
C1259 C1258 1.363 1_455 S
C1259 C1265 1.363 . S
C1260 C1261 1.363 1_455 S
C1260 C1265 1.379 . S
C1260 N1267 1.356 . S
C1261 C1260 1.363 1_655 S
C1261 C1264 1.363 . S
N1262 C1264 1.356 . S
N1262 H1274 0.984 . S
N1262 H1275 0.985 . S
N1263 C1265 1.356 . S
N1263 H1268 0.984 . S
N1263 H1269 0.985 . S
C1264 C1258 1.379 . S
C1264 C1261 1.363 . S
C1264 N1262 1.356 . S
C1265 C1259 1.363 . S
C1265 C1260 1.379 . S
C1265 N1263 1.356 . S
N1266 C1258 1.356 . S
N1266 H1272 0.984 . S
N1266 H1273 0.984 1_655 S
N1267 C1260 1.356 . S
N1267 H1270 0.984 1_455 S
N1267 H1271 0.985 . S
H1268 N1263 0.984 . S
H1269 N1263 0.985 . S
H1270 N1267 0.984 1_655 S
H1271 N1267 0.985 . S
H1272 N1266 0.984 . S
H1273 N1266 0.984 1_455 S
H1274 N1262 0.984 . S
H1275 N1262 0.985 . S
C1276 C1277 1.361 1_655 S
C1276 C1282 1.380 1_554 S
C1276 N1284 1.356 1_655 S
C1277 C1276 1.361 1_455 S
C1277 C1283 1.363 . S
C1278 C1279 1.363 . S
C1278 C1283 1.379 1_656 S
C1278 N1285 1.356 . S
C1279 C1278 1.363 . S
C1279 C1282 1.363 . S
N1280 C1282 1.356 . S
N1280 H1292 0.984 . S
N1280 H1293 0.985 . S
N1281 C1283 1.356 . S
N1281 H1286 0.984 . S
N1281 H1287 0.985 . S
C1282 C1276 1.380 1_556 S
C1282 C1279 1.363 . S
C1282 N1280 1.356 . S
C1283 C1277 1.363 . S
C1283 C1278 1.379 1_454 S
C1283 N1281 1.356 . S
N1284 C1276 1.356 1_455 S
N1284 H1290 0.981 1_455 S
N1284 H1291 0.984 . S
N1285 C1278 1.356 . S
N1285 H1288 0.984 . S
N1285 H1289 0.985 . S
H1286 N1281 0.984 . S
H1287 N1281 0.985 . S
H1288 N1285 0.984 . S
H1289 N1285 0.985 . S
H1290 N1284 0.981 1_655 S
H1291 N1284 0.984 . S
H1292 N1280 0.984 . S
H1293 N1280 0.985 . S
C1294 C1295 1.363 . S
C1294 C1300 1.379 . S
C1294 N1302 1.356 . S
C1295 C1294 1.363 . S
C1295 C1301 1.363 . S
C1296 C1297 1.363 . S
C1296 C1301 1.379 . S
C1296 N1303 1.356 . S
C1297 C1296 1.363 . S
C1297 C1300 1.363 . S
N1298 C1300 1.356 . S
N1298 H1310 0.984 . S
N1298 H1311 0.985 . S
N1299 C1301 1.356 . S
N1299 H1304 0.984 . S
N1299 H1305 0.985 . S
C1300 C1294 1.379 . S
C1300 C1297 1.363 . S
C1300 N1298 1.356 . S
C1301 C1295 1.363 . S
C1301 C1296 1.379 . S
C1301 N1299 1.356 . S
N1302 C1294 1.356 . S
N1302 H1308 0.984 . S
N1302 H1309 0.984 . S
N1303 C1296 1.356 . S
N1303 H1306 0.984 . S
N1303 H1307 0.985 . S
H1304 N1299 0.984 . S
H1305 N1299 0.985 . S
H1306 N1303 0.984 . S
H1307 N1303 0.985 . S
H1308 N1302 0.984 . S
H1309 N1302 0.984 . S
H1310 N1298 0.984 . S
H1311 N1298 0.985 . S
C1312 C1313 1.363 . S
C1312 C1318 1.379 . S
C1312 N1320 1.356 . S
C1313 C1312 1.363 . S
C1313 C1319 1.363 . S
C1314 C1315 1.363 . S
C1314 C1319 1.379 . S
C1314 N1321 1.356 . S
C1315 C1314 1.363 . S
C1315 C1318 1.363 . S
N1316 C1318 1.356 . S
N1316 H1328 0.984 . S
N1316 H1329 0.985 . S
N1317 C1319 1.356 . S
N1317 H1322 0.984 . S
N1317 H1323 0.985 . S
C1318 C1312 1.379 . S
C1318 C1315 1.363 . S
C1318 N1316 1.356 . S
C1319 C1313 1.363 . S
C1319 C1314 1.379 . S
C1319 N1317 1.356 . S
N1320 C1312 1.356 . S
N1320 H1326 0.984 . S
N1320 H1327 0.984 . S
N1321 C1314 1.356 . S
N1321 H1324 0.984 1_545 S
N1321 H1325 0.985 1_545 S
H1322 N1317 0.984 . S
H1323 N1317 0.985 . S
H1324 N1321 0.984 1_565 S
H1325 N1321 0.985 1_565 S
H1326 N1320 0.984 . S
H1327 N1320 0.984 . S
H1328 N1316 0.984 . S
H1329 N1316 0.985 . S
C1330 C1331 1.363 . S
C1330 C1336 1.379 . S
C1330 N1338 1.356 . S
C1331 C1330 1.363 . S
C1331 C1337 1.363 . S
C1332 C1333 1.363 . S
C1332 C1337 1.379 . S
C1332 N1339 1.356 . S
C1333 C1332 1.363 . S
C1333 C1336 1.363 . S
N1334 C1336 1.356 . S
N1334 H1346 0.984 . S
N1334 H1347 0.985 . S
N1335 C1337 1.356 . S
N1335 H1340 0.984 1_545 S
N1335 H1341 0.985 1_545 S
C1336 C1330 1.379 . S
C1336 C1333 1.363 . S
C1336 N1334 1.356 . S
C1337 C1331 1.363 . S
C1337 C1332 1.379 . S
C1337 N1335 1.356 . S
N1338 C1330 1.356 . S
N1338 H1344 0.984 . S
N1338 H1345 0.984 . S
N1339 C1332 1.356 . S
N1339 H1342 0.984 . S
N1339 H1343 0.985 . S
H1340 N1335 0.984 1_565 S
H1341 N1335 0.985 1_565 S
H1342 N1339 0.984 . S
H1343 N1339 0.985 . S
H1344 N1338 0.984 . S
H1345 N1338 0.984 . S
H1346 N1334 0.984 . S
H1347 N1334 0.985 . S
C1348 C1349 1.363 . S
C1348 C1354 1.379 . S
C1348 N1356 1.356 . S
C1349 C1348 1.363 . S
C1349 C1355 1.363 . S
C1350 C1351 1.363 . S
C1350 C1355 1.379 . S
C1350 N1357 1.356 . S
C1351 C1350 1.363 . S
C1351 C1354 1.363 . S
N1352 C1354 1.356 . S
N1352 H1364 0.984 . S
N1352 H1365 0.985 . S
N1353 C1355 1.356 . S
N1353 H1358 0.984 . S
N1353 H1359 0.985 . S
C1354 C1348 1.379 . S
C1354 C1351 1.363 . S
C1354 N1352 1.356 . S
C1355 C1349 1.363 . S
C1355 C1350 1.379 . S
C1355 N1353 1.356 . S
N1356 C1348 1.356 . S
N1356 H1362 0.984 . S
N1356 H1363 0.984 . S
N1357 C1350 1.356 . S
N1357 H1360 0.984 . S
N1357 H1361 0.985 . S
H1358 N1353 0.984 . S
H1359 N1353 0.985 . S
H1360 N1357 0.984 . S
H1361 N1357 0.985 . S
H1362 N1356 0.984 . S
H1363 N1356 0.984 . S
H1364 N1352 0.984 . S
H1365 N1352 0.985 . S
C1366 C1367 1.363 . S
C1366 C1372 1.379 . S
C1366 N1374 1.356 . S
C1367 C1366 1.363 . S
C1367 C1373 1.363 . S
C1368 C1369 1.363 . S
C1368 C1373 1.379 . S
C1368 N1375 1.356 . S
C1369 C1368 1.363 . S
C1369 C1372 1.363 . S
N1370 C1372 1.356 . S
N1370 H1382 0.984 . S
N1370 H1383 0.985 . S
N1371 C1373 1.356 . S
N1371 H1376 0.984 . S
N1371 H1377 0.985 . S
C1372 C1366 1.379 . S
C1372 C1369 1.363 . S
C1372 N1370 1.356 . S
C1373 C1367 1.363 . S
C1373 C1368 1.379 . S
C1373 N1371 1.356 . S
N1374 C1366 1.356 . S
N1374 H1380 0.984 . S
N1374 H1381 0.984 . S
N1375 C1368 1.356 . S
N1375 H1378 0.984 . S
N1375 H1379 0.985 . S
H1376 N1371 0.984 . S
H1377 N1371 0.985 . S
H1378 N1375 0.984 . S
H1379 N1375 0.985 . S
H1380 N1374 0.984 . S
H1381 N1374 0.984 . S
H1382 N1370 0.984 . S
H1383 N1370 0.985 . S
C1384 C1385 1.363 . S
C1384 C1390 1.379 . S
C1384 N1392 1.356 . S
C1385 C1384 1.363 . S
C1385 C1391 1.363 . S
C1386 C1387 1.363 . S
C1386 C1391 1.379 . S
C1386 N1393 1.356 . S
C1387 C1386 1.363 . S
C1387 C1390 1.363 . S
N1388 C1390 1.356 . S
N1388 H1400 0.984 . S
N1388 H1401 0.985 . S
N1389 C1391 1.356 . S
N1389 H1394 0.984 . S
N1389 H1395 0.985 . S
C1390 C1384 1.379 . S
C1390 C1387 1.363 . S
C1390 N1388 1.356 . S
C1391 C1385 1.363 . S
C1391 C1386 1.379 . S
C1391 N1389 1.356 . S
N1392 C1384 1.356 . S
N1392 H1398 0.984 . S
N1392 H1399 0.984 . S
N1393 C1386 1.356 . S
N1393 H1396 0.984 . S
N1393 H1397 0.985 . S
H1394 N1389 0.984 . S
H1395 N1389 0.985 . S
H1396 N1393 0.984 . S
H1397 N1393 0.985 . S
H1398 N1392 0.984 . S
H1399 N1392 0.984 . S
H1400 N1388 0.984 . S
H1401 N1388 0.985 . S
C1402 C1403 1.363 . S
C1402 C1408 1.379 . S
C1402 N1410 1.356 . S
C1403 C1402 1.363 . S
C1403 C1409 1.363 . S
C1404 C1405 1.363 . S
C1404 C1409 1.379 . S
C1404 N1411 1.356 . S
C1405 C1404 1.363 . S
C1405 C1408 1.363 . S
N1406 C1408 1.356 . S
N1406 H1418 0.984 . S
N1406 H1419 0.985 . S
N1407 C1409 1.356 . S
N1407 H1412 0.984 . S
N1407 H1413 0.985 . S
C1408 C1402 1.379 . S
C1408 C1405 1.363 . S
C1408 N1406 1.356 . S
C1409 C1403 1.363 . S
C1409 C1404 1.379 . S
C1409 N1407 1.356 . S
N1410 C1402 1.356 . S
N1410 H1416 0.984 . S
N1410 H1417 0.984 . S
N1411 C1404 1.356 . S
N1411 H1414 0.984 . S
N1411 H1415 0.985 . S
H1412 N1407 0.984 . S
H1413 N1407 0.985 . S
H1414 N1411 0.984 . S
H1415 N1411 0.985 . S
H1416 N1410 0.984 . S
H1417 N1410 0.984 . S
H1418 N1406 0.984 . S
H1419 N1406 0.985 . S
C1420 C1421 1.363 . S
C1420 C1426 1.379 . S
C1420 N1428 1.356 . S
C1421 C1420 1.363 . S
C1421 C1427 1.363 . S
C1422 C1423 1.363 . S
C1422 C1427 1.379 . S
C1422 N1429 1.356 . S
C1423 C1422 1.363 . S
C1423 C1426 1.363 . S
N1424 C1426 1.356 . S
N1424 H1436 0.984 . S
N1424 H1437 0.985 . S
N1425 C1427 1.356 . S
N1425 H1430 0.984 . S
N1425 H1431 0.985 . S
C1426 C1420 1.379 . S
C1426 C1423 1.363 . S
C1426 N1424 1.356 . S
C1427 C1421 1.363 . S
C1427 C1422 1.379 . S
C1427 N1425 1.356 . S
N1428 C1420 1.356 . S
N1428 H1434 0.984 . S
N1428 H1435 0.984 . S
N1429 C1422 1.356 . S
N1429 H1432 0.984 . S
N1429 H1433 0.985 . S
H1430 N1425 0.984 . S
H1431 N1425 0.985 . S
H1432 N1429 0.984 . S
H1433 N1429 0.985 . S
H1434 N1428 0.984 . S
H1435 N1428 0.984 . S
H1436 N1424 0.984 . S
H1437 N1424 0.985 . S
C1438 C1439 1.363 . S
C1438 C1444 1.379 . S
C1438 N1446 1.356 . S
C1439 C1438 1.363 . S
C1439 C1445 1.363 . S
C1440 C1441 1.363 . S
C1440 C1445 1.379 . S
C1440 N1447 1.356 . S
C1441 C1440 1.363 . S
C1441 C1444 1.363 . S
N1442 C1444 1.356 . S
N1442 H1454 0.984 . S
N1442 H1455 0.985 . S
N1443 C1445 1.356 . S
N1443 H1448 0.984 . S
N1443 H1449 0.985 . S
C1444 C1438 1.379 . S
C1444 C1441 1.363 . S
C1444 N1442 1.356 . S
C1445 C1439 1.363 . S
C1445 C1440 1.379 . S
C1445 N1443 1.356 . S
N1446 C1438 1.356 . S
N1446 H1452 0.984 . S
N1446 H1453 0.984 . S
N1447 C1440 1.356 . S
N1447 H1450 0.984 . S
N1447 H1451 0.985 . S
H1448 N1443 0.984 . S
H1449 N1443 0.985 . S
H1450 N1447 0.984 . S
H1451 N1447 0.985 . S
H1452 N1446 0.984 . S
H1453 N1446 0.984 . S
H1454 N1442 0.984 . S
H1455 N1442 0.985 . S
C1456 C1457 1.363 . S
C1456 C1462 1.379 . S
C1456 N1464 1.356 . S
C1457 C1456 1.363 . S
C1457 C1463 1.363 . S
C1458 C1459 1.363 . S
C1458 C1463 1.379 . S
C1458 N1465 1.356 . S
C1459 C1458 1.363 . S
C1459 C1462 1.363 . S
N1460 C1462 1.356 . S
N1460 H1472 0.984 . S
N1460 H1473 0.985 . S
N1461 C1463 1.356 . S
N1461 H1466 0.984 . S
N1461 H1467 0.985 . S
C1462 C1456 1.379 . S
C1462 C1459 1.363 . S
C1462 N1460 1.356 . S
C1463 C1457 1.363 . S
C1463 C1458 1.379 . S
C1463 N1461 1.356 . S
N1464 C1456 1.356 . S
N1464 H1470 0.984 . S
N1464 H1471 0.984 . S
N1465 C1458 1.356 . S
N1465 H1468 0.984 . S
N1465 H1469 0.985 . S
H1466 N1461 0.984 . S
H1467 N1461 0.985 . S
H1468 N1465 0.984 . S
H1469 N1465 0.985 . S
H1470 N1464 0.984 . S
H1471 N1464 0.984 . S
H1472 N1460 0.984 . S
H1473 N1460 0.985 . S
C1474 C1475 1.363 . S
C1474 C1480 1.379 . S
C1474 N1482 1.356 . S
C1475 C1474 1.363 . S
C1475 C1481 1.363 . S
C1476 C1477 1.363 . S
C1476 C1481 1.379 . S
C1476 N1483 1.356 . S
C1477 C1476 1.363 . S
C1477 C1480 1.363 . S
N1478 C1480 1.356 . S
N1478 H1490 0.984 . S
N1478 H1491 0.985 . S
N1479 C1481 1.356 . S
N1479 H1484 0.984 . S
N1479 H1485 0.985 . S
C1480 C1474 1.379 . S
C1480 C1477 1.363 . S
C1480 N1478 1.356 . S
C1481 C1475 1.363 . S
C1481 C1476 1.379 . S
C1481 N1479 1.356 . S
N1482 C1474 1.356 . S
N1482 H1488 0.984 . S
N1482 H1489 0.984 . S
N1483 C1476 1.356 . S
N1483 H1486 0.984 . S
N1483 H1487 0.985 . S
H1484 N1479 0.984 . S
H1485 N1479 0.985 . S
H1486 N1483 0.984 . S
H1487 N1483 0.985 . S
H1488 N1482 0.984 . S
H1489 N1482 0.984 . S
H1490 N1478 0.984 . S
H1491 N1478 0.985 . S
C1492 C1493 1.363 . S
C1492 C1498 1.379 . S
C1492 N1500 1.356 . S
C1493 C1492 1.363 . S
C1493 C1499 1.363 . S
C1494 C1495 1.363 . S
C1494 C1499 1.379 . S
C1494 N1501 1.356 . S
C1495 C1494 1.363 . S
C1495 C1498 1.363 . S
N1496 C1498 1.356 . S
N1496 H1508 0.984 . S
N1496 H1509 0.985 . S
N1497 C1499 1.356 . S
N1497 H1502 0.984 . S
N1497 H1503 0.985 . S
C1498 C1492 1.379 . S
C1498 C1495 1.363 . S
C1498 N1496 1.356 . S
C1499 C1493 1.363 . S
C1499 C1494 1.379 . S
C1499 N1497 1.356 . S
N1500 C1492 1.356 . S
N1500 H1506 0.984 . S
N1500 H1507 0.984 . S
N1501 C1494 1.356 . S
N1501 H1504 0.984 . S
N1501 H1505 0.985 . S
H1502 N1497 0.984 . S
H1503 N1497 0.985 . S
H1504 N1501 0.984 . S
H1505 N1501 0.985 . S
H1506 N1500 0.984 . S
H1507 N1500 0.984 . S
H1508 N1496 0.984 . S
H1509 N1496 0.985 . S
C1510 C1511 1.363 . S
C1510 C1516 1.379 . S
C1510 N1518 1.356 . S
C1511 C1510 1.363 . S
C1511 C1517 1.363 . S
C1512 C1513 1.363 . S
C1512 C1517 1.379 . S
C1512 N1519 1.356 . S
C1513 C1512 1.363 . S
C1513 C1516 1.363 . S
N1514 C1516 1.356 . S
N1514 H1526 0.984 . S
N1514 H1527 0.985 . S
N1515 C1517 1.356 . S
N1515 H1520 0.984 . S
N1515 H1521 0.985 . S
C1516 C1510 1.379 . S
C1516 C1513 1.363 . S
C1516 N1514 1.356 . S
C1517 C1511 1.363 . S
C1517 C1512 1.379 . S
C1517 N1515 1.356 . S
N1518 C1510 1.356 . S
N1518 H1524 0.984 . S
N1518 H1525 0.984 . S
N1519 C1512 1.356 . S
N1519 H1522 0.984 . S
N1519 H1523 0.985 . S
H1520 N1515 0.984 . S
H1521 N1515 0.985 . S
H1522 N1519 0.984 . S
H1523 N1519 0.985 . S
H1524 N1518 0.984 . S
H1525 N1518 0.984 . S
H1526 N1514 0.984 . S
H1527 N1514 0.985 . S
C1528 C1529 1.363 . S
C1528 C1534 1.379 . S
C1528 N1536 1.356 . S
C1529 C1528 1.363 . S
C1529 C1535 1.363 . S
C1530 C1531 1.363 . S
C1530 C1535 1.379 . S
C1530 N1537 1.356 . S
C1531 C1530 1.363 . S
C1531 C1534 1.363 . S
N1532 C1534 1.356 . S
N1532 H1544 0.984 . S
N1532 H1545 0.985 . S
N1533 C1535 1.356 . S
N1533 H1538 0.984 . S
N1533 H1539 0.985 . S
C1534 C1528 1.379 . S
C1534 C1531 1.363 . S
C1534 N1532 1.356 . S
C1535 C1529 1.363 . S
C1535 C1530 1.379 . S
C1535 N1533 1.356 . S
N1536 C1528 1.356 . S
N1536 H1542 0.984 . S
N1536 H1543 0.984 . S
N1537 C1530 1.356 . S
N1537 H1540 0.984 . S
N1537 H1541 0.985 . S
H1538 N1533 0.984 . S
H1539 N1533 0.985 . S
H1540 N1537 0.984 . S
H1541 N1537 0.985 . S
H1542 N1536 0.984 . S
H1543 N1536 0.984 . S
H1544 N1532 0.984 . S
H1545 N1532 0.985 . S
C1546 C1547 1.363 . S
C1546 C1552 1.379 . S
C1546 N1554 1.356 . S
C1547 C1546 1.363 . S
C1547 C1553 1.363 . S
C1548 C1549 1.363 . S
C1548 C1553 1.379 . S
C1548 N1555 1.356 . S
C1549 C1548 1.363 . S
C1549 C1552 1.363 . S
N1550 C1552 1.356 . S
N1550 H1562 0.984 . S
N1550 H1563 0.985 . S
N1551 C1553 1.356 . S
N1551 H1556 0.984 . S
N1551 H1557 0.985 . S
C1552 C1546 1.379 . S
C1552 C1549 1.363 . S
C1552 N1550 1.356 . S
C1553 C1547 1.363 . S
C1553 C1548 1.379 . S
C1553 N1551 1.356 . S
N1554 C1546 1.356 . S
N1554 H1560 0.984 . S
N1554 H1561 0.984 . S
N1555 C1548 1.356 . S
N1555 H1558 0.984 . S
N1555 H1559 0.985 . S
H1556 N1551 0.984 . S
H1557 N1551 0.985 . S
H1558 N1555 0.984 . S
H1559 N1555 0.985 . S
H1560 N1554 0.984 . S
H1561 N1554 0.984 . S
H1562 N1550 0.984 . S
H1563 N1550 0.985 . S
C1564 C1565 1.363 . S
C1564 C1570 1.379 . S
C1564 N1572 1.356 . S
C1565 C1564 1.363 . S
C1565 C1571 1.363 . S
C1566 C1567 1.363 . S
C1566 C1571 1.379 . S
C1566 N1573 1.356 . S
C1567 C1566 1.363 . S
C1567 C1570 1.363 . S
N1568 C1570 1.356 . S
N1568 H1580 0.984 . S
N1568 H1581 0.985 . S
N1569 C1571 1.356 . S
N1569 H1574 0.984 . S
N1569 H1575 0.985 . S
C1570 C1564 1.379 . S
C1570 C1567 1.363 . S
C1570 N1568 1.356 . S
C1571 C1565 1.363 . S
C1571 C1566 1.379 . S
C1571 N1569 1.356 . S
N1572 C1564 1.356 . S
N1572 H1578 0.984 . S
N1572 H1579 0.984 . S
N1573 C1566 1.356 . S
N1573 H1576 0.984 . S
N1573 H1577 0.985 . S
H1574 N1569 0.984 . S
H1575 N1569 0.985 . S
H1576 N1573 0.984 . S
H1577 N1573 0.985 . S
H1578 N1572 0.984 . S
H1579 N1572 0.984 . S
H1580 N1568 0.984 . S
H1581 N1568 0.985 . S
C1582 C1583 1.363 . S
C1582 C1588 1.379 . S
C1582 N1590 1.356 . S
C1583 C1582 1.363 . S
C1583 C1589 1.363 . S
C1584 C1585 1.363 . S
C1584 C1589 1.379 . S
C1584 N1591 1.356 . S
C1585 C1584 1.363 . S
C1585 C1588 1.363 . S
N1586 C1588 1.356 . S
N1586 H1598 0.984 . S
N1586 H1599 0.985 . S
N1587 C1589 1.356 . S
N1587 H1592 0.984 . S
N1587 H1593 0.985 . S
C1588 C1582 1.379 . S
C1588 C1585 1.363 . S
C1588 N1586 1.356 . S
C1589 C1583 1.363 . S
C1589 C1584 1.379 . S
C1589 N1587 1.356 . S
N1590 C1582 1.356 . S
N1590 H1596 0.984 . S
N1590 H1597 0.984 . S
N1591 C1584 1.356 . S
N1591 H1594 0.984 . S
N1591 H1595 0.985 . S
H1592 N1587 0.984 . S
H1593 N1587 0.985 . S
H1594 N1591 0.984 . S
H1595 N1591 0.985 . S
H1596 N1590 0.984 . S
H1597 N1590 0.984 . S
H1598 N1586 0.984 . S
H1599 N1586 0.985 . S
C449 C385 1.434 . S
C451 C8 1.354 . S
C467 C21 1.318 . S
C469 C119 1.341 . S
C485 C357 1.434 . S
C487 C36 1.354 . S
C503 C49 1.318 . S
C505 C147 1.341 . S
C521 C64 1.354 . S
C523 C413 1.434 . S
C539 C77 1.318 . S
C541 C203 1.341 . S
C557 C92 1.354 . S
C559 C441 1.434 . S
C575 C105 1.318 . S
C577 C175 1.341 . S
C593 C274 1.309 . S
C595 C120 1.312 . S
C611 C7 1.291 . S
C613 C134 1.222 . S
C629 C246 1.309 . S
C631 C148 1.311 . S
C647 C162 1.222 . S
C649 C35 1.291 . S
C665 C302 1.309 . S
C667 C176 1.312 . S
C683 C91 1.291 . S
C685 C190 1.222 . S
C701 C204 1.311 . S
C703 C330 1.309 . S
C719 C63 1.291 . S
C721 C218 1.222 . S
C737 C232 1.354 . S
C739 C161 1.434 . S
C755 C245 1.318 . S
C757 C343 1.341 . S
C773 C133 1.434 . S
C775 C260 1.354 . S
C791 C371 1.341 . S
C793 C273 1.318 . S
C809 C189 1.434 . S
C811 C288 1.354 . S
C827 C427 1.341 . S
C829 C301 1.318 . S
C845 C217 1.434 . S
C847 C316 1.354 . S
C863 C329 1.318 . S
C865 C399 1.341 . S
C881 C50 1.309 . S
C883 C344 1.311 . S
C899 C358 1.222 . S
C901 C231 1.291 . S
C917 C372 1.312 . S
C919 C22 1.309 . S
C935 C386 1.222 . S
C937 C259 1.291 . S
C953 C400 1.311 . S
C955 C78 1.309 . S
C971 C414 1.222 . S
C973 C315 1.291 . S
C989 C428 1.312 . S
C991 C106 1.309 . S
C1007 C442 1.222 . S
C1009 C287 1.291 . S
C1025 C349 1.407 . S
C1027 C13 1.403 . S
C1043 C25 1.506 . S
C1045 C139 1.440 . S
C1061 C377 1.407 . S
C1063 C41 1.403 . S
C1079 C53 1.506 . S
C1081 C167 1.440 . S
C1097 C405 1.407 . S
C1099 C69 1.403 . S
C1115 C81 1.506 . S
C1117 C195 1.440 . S
C1133 C433 1.407 . S
C1135 C97 1.403 . S
C1151 C109 1.506 . S
C1153 C223 1.440 . S
C1169 C125 1.407 . S
C1171 C237 1.403 . S
C1187 C153 1.407 . S
C1189 C265 1.403 . S
C1205 C181 1.407 . S
C1207 C293 1.403 . S
C1223 C209 1.407 . S
C1225 C321 1.403 . S
C1241 C249 1.506 . S
C1243 C363 1.440 . S
C1259 C391 1.440 . S
C1261 C277 1.506 . S
C1277 C419 1.440 . S
C1279 C305 1.506 . S
C1295 C333 1.506 . S
C1297 C447 1.440 . S
C1313 C11 1.293 . S
C1315 C83 1.268 . S
C1331 C27 1.268 . S
C1333 C95 1.293 . S
C1349 C39 1.293 . S
C1351 C111 1.268 . S
C1367 C67 1.293 . S
C1369 C55 1.268 . S
C1385 C123 1.322 . S
C1387 C193 1.333 . S
C1403 C137 1.333 . S
C1405 C207 1.322 . S
C1421 C151 1.322 . S
C1423 C221 1.333 . S
C1439 C165 1.333 . S
C1441 C179 1.322 . S
C1457 C235 1.293 . S
C1459 C307 1.268 . S
C1475 C319 1.293 . S
C1477 C251 1.268 . S
C1493 C263 1.293 . S
C1495 C335 1.268 . S
C1511 C279 1.268 . S
C1513 C291 1.293 . S
C1529 C417 1.333 . S
C1531 C347 1.322 . S
C1547 C361 1.333 . S
C1549 C431 1.322 . S
C1565 C445 1.333 . S
C1567 C375 1.322 . S
C1583 C389 1.333 . S
C1585 C403 1.322 . S
