# Generated by pormake.
# Topology tzs, (4)-cn, num edge types: 1
# Building blocks:
#     Node 0, Type 0, BuildingBlock: QUQFOY_clean_sbu_3, # of connection points: 4
#     Node 1, Type 0, BuildingBlock: QUQFOY_clean_sbu_3, # of connection points: 4
#     Node 2, Type 0, BuildingBlock: QUQFOY_clean_sbu_3, # of connection points: 4
#     Node 3, Type 0, BuildingBlock: QUQFOY_clean_sbu_3, # of connection points: 4
#     Node 4, Type 0, BuildingBlock: QUQFOY_clean_sbu_3, # of connection points: 4
#     Node 5, Type 0, BuildingBlock: QUQFOY_clean_sbu_3, # of connection points: 4
#     Node 6, Type 0, BuildingBlock: QUQFOY_clean_sbu_3, # of connection points: 4
#     Node 7, Type 0, BuildingBlock: QUQFOY_clean_sbu_3, # of connection points: 4
#     Node 8, Type 0, BuildingBlock: QUQFOY_clean_sbu_3, # of connection points: 4
#     Node 9, Type 0, BuildingBlock: QUQFOY_clean_sbu_3, # of connection points: 4
#     Node 10, Type 0, BuildingBlock: QUQFOY_clean_sbu_3, # of connection points: 4
#     Node 11, Type 0, BuildingBlock: QUQFOY_clean_sbu_3, # of connection points: 4
#     Node 12, Type 0, BuildingBlock: QUQFOY_clean_sbu_3, # of connection points: 4
#     Node 13, Type 0, BuildingBlock: QUQFOY_clean_sbu_3, # of connection points: 4
#     Node 14, Type 0, BuildingBlock: QUQFOY_clean_sbu_3, # of connection points: 4
#     Node 15, Type 0, BuildingBlock: QUQFOY_clean_sbu_3, # of connection points: 4
#     Edge 16, Type (0, 0), BuildingBlock: EZIPEK_clean_linker_0, # of connection points: 2
#     Edge 17, Type (0, 0), BuildingBlock: EZIPEK_clean_linker_0, # of connection points: 2
#     Edge 18, Type (0, 0), BuildingBlock: EZIPEK_clean_linker_0, # of connection points: 2
#     Edge 19, Type (0, 0), BuildingBlock: EZIPEK_clean_linker_0, # of connection points: 2
#     Edge 20, Type (0, 0), BuildingBlock: EZIPEK_clean_linker_0, # of connection points: 2
#     Edge 21, Type (0, 0), BuildingBlock: EZIPEK_clean_linker_0, # of connection points: 2
#     Edge 22, Type (0, 0), BuildingBlock: EZIPEK_clean_linker_0, # of connection points: 2
#     Edge 23, Type (0, 0), BuildingBlock: EZIPEK_clean_linker_0, # of connection points: 2
#     Edge 24, Type (0, 0), BuildingBlock: EZIPEK_clean_linker_0, # of connection points: 2
#     Edge 25, Type (0, 0), BuildingBlock: EZIPEK_clean_linker_0, # of connection points: 2
#     Edge 26, Type (0, 0), BuildingBlock: EZIPEK_clean_linker_0, # of connection points: 2
#     Edge 27, Type (0, 0), BuildingBlock: EZIPEK_clean_linker_0, # of connection points: 2
#     Edge 28, Type (0, 0), BuildingBlock: EZIPEK_clean_linker_0, # of connection points: 2
#     Edge 29, Type (0, 0), BuildingBlock: EZIPEK_clean_linker_0, # of connection points: 2
#     Edge 30, Type (0, 0), BuildingBlock: EZIPEK_clean_linker_0, # of connection points: 2
#     Edge 31, Type (0, 0), BuildingBlock: EZIPEK_clean_linker_0, # of connection points: 2
#     Edge 32, Type (0, 0), BuildingBlock: EZIPEK_clean_linker_0, # of connection points: 2
#     Edge 33, Type (0, 0), BuildingBlock: EZIPEK_clean_linker_0, # of connection points: 2
#     Edge 34, Type (0, 0), BuildingBlock: EZIPEK_clean_linker_0, # of connection points: 2
#     Edge 35, Type (0, 0), BuildingBlock: EZIPEK_clean_linker_0, # of connection points: 2
#     Edge 36, Type (0, 0), BuildingBlock: EZIPEK_clean_linker_0, # of connection points: 2
#     Edge 37, Type (0, 0), BuildingBlock: EZIPEK_clean_linker_0, # of connection points: 2
#     Edge 38, Type (0, 0), BuildingBlock: EZIPEK_clean_linker_0, # of connection points: 2
#     Edge 39, Type (0, 0), BuildingBlock: EZIPEK_clean_linker_0, # of connection points: 2
#     Edge 40, Type (0, 0), BuildingBlock: EZIPEK_clean_linker_0, # of connection points: 2
#     Edge 41, Type (0, 0), BuildingBlock: EZIPEK_clean_linker_0, # of connection points: 2
#     Edge 42, Type (0, 0), BuildingBlock: EZIPEK_clean_linker_0, # of connection points: 2
#     Edge 43, Type (0, 0), BuildingBlock: EZIPEK_clean_linker_0, # of connection points: 2
#     Edge 44, Type (0, 0), BuildingBlock: EZIPEK_clean_linker_0, # of connection points: 2
#     Edge 45, Type (0, 0), BuildingBlock: EZIPEK_clean_linker_0, # of connection points: 2
#     Edge 46, Type (0, 0), BuildingBlock: EZIPEK_clean_linker_0, # of connection points: 2
#     Edge 47, Type (0, 0), BuildingBlock: EZIPEK_clean_linker_0, # of connection points: 2
# Relax obj value: 0.117
# Max RMSD: 0.119
# Mean RMSD: 0.119
data_MOF--net-tzs--node1-QUQFOY_clean_sbu_3--edge1-EZIPEK_clean_linker_0
_symmetry_space_group_name_H-M    P1
_symmetry_Int_Tables_number       1
_symmetry_cell_setting            triclinic
loop_
_symmetry_equiv_pos_as_xyz
'x, y, z'
_cell_length_a     37.95275
_cell_length_b     37.792041
_cell_length_c     30.874391
_cell_angle_alpha  90.150553
_cell_angle_beta   90.354253
_cell_angle_gamma 90.168556
loop_
_atom_site_label
_atom_site_type_symbol
_atom_site_fract_x
_atom_site_fract_y
_atom_site_fract_z
_atom_type_partial_charge
C0 C 0.04496 0.33346 0.15523 0.0
O1 O 0.04203 0.34607 0.11733 0.0
Cd2 Cd 0.09073 0.37008 0.08053 0.0
O3 O 0.07522 0.32748 0.17207 0.0
Cd4 Cd 0.13846 0.32951 0.14802 0.0
C5 C 0.12978 0.41658 0.16559 0.0
O6 O 0.12781 0.31999 0.07232 0.0
O7 O 0.17891 0.3422 0.08742 0.0
O8 O 0.15045 0.26816 0.16768 0.0
C9 C 0.15824 0.32845 0.05968 0.0
O10 O 0.11035 0.41638 0.13177 0.0
C11 C 0.17783 0.27564 0.1897 0.0
O12 O 0.14472 0.38842 0.17849 0.0
O13 O 0.18579 0.30807 0.19423 0.0
C14 C 0.63677 0.04001 0.18429 0.0
O15 O 0.62003 0.03061 0.15053 0.0
Cd16 Cd 0.60606 0.06927 0.09319 0.0
O17 O 0.64718 0.07183 0.18959 0.0
Cd18 Cd 0.64175 0.12651 0.14511 0.0
C19 C 0.55246 0.12009 0.15192 0.0
O20 O 0.66025 0.09944 0.07737 0.0
O21 O 0.63612 0.15053 0.07071 0.0
O22 O 0.69855 0.14606 0.17419 0.0
C23 C 0.65362 0.12567 0.05349 0.0
O24 O 0.554 0.10066 0.11832 0.0
C25 C 0.68841 0.17734 0.18236 0.0
O26 O 0.58051 0.13166 0.16976 0.0
O27 O 0.65645 0.1848 0.17435 0.0
C28 C 0.91687 0.62694 0.14077 0.0
O29 O 0.91692 0.61384 0.10289 0.0
Cd30 Cd 0.86414 0.58967 0.07388 0.0
O31 O 0.88801 0.634 0.15998 0.0
Cd32 Cd 0.82322 0.63394 0.14437 0.0
C33 C 0.83244 0.54806 0.16657 0.0
O34 O 0.82651 0.63946 0.06746 0.0
O35 O 0.77703 0.61861 0.09051 0.0
O36 O 0.8183 0.69685 0.16143 0.0
C37 C 0.79496 0.63085 0.05943 0.0
O38 O 0.8479 0.54638 0.13009 0.0
C39 C 0.79153 0.69283 0.18538 0.0
O40 O 0.82041 0.57716 0.18089 0.0
O41 O 0.78108 0.66144 0.19247 0.0
C42 C 0.33828 0.9164 0.16969 0.0
O43 O 0.36049 0.91838 0.13915 0.0
Cd44 Cd 0.37804 0.87077 0.09357 0.0
O45 O 0.32392 0.88701 0.17961 0.0
Cd46 Cd 0.33098 0.8247 0.15677 0.0
C47 C 0.42034 0.82767 0.1745 0.0
O48 O 0.32285 0.84147 0.08256 0.0
O49 O 0.32972 0.78552 0.09236 0.0
O50 O 0.27091 0.81836 0.18272 0.0
C51 C 0.32217 0.81062 0.06684 0.0
O52 O 0.42301 0.8438 0.13861 0.0
C53 C 0.27583 0.78772 0.19832 0.0
O54 O 0.39033 0.81895 0.18933 0.0
O55 O 0.30689 0.77537 0.19731 0.0
C56 C 0.03706 0.62906 0.25359 0.0
O57 O 0.02872 0.61115 0.28671 0.0
Cd58 Cd 0.06951 0.58909 0.33833 0.0
O59 O 0.06879 0.63869 0.24683 0.0
Cd60 Cd 0.12646 0.63462 0.28571 0.0
C61 C 0.12258 0.54638 0.26472 0.0
O62 O 0.10257 0.64042 0.35787 0.0
O63 O 0.15828 0.62989 0.35473 0.0
O64 O 0.13867 0.69583 0.26568 0.0
C65 C 0.13167 0.63705 0.37765 0.0
O66 O 0.09862 0.5449 0.29333 0.0
C67 C 0.16956 0.68913 0.25244 0.0
O68 O 0.138 0.57549 0.25637 0.0
O69 O 0.17965 0.65716 0.25299 0.0
C70 C 0.34169 0.04519 0.26545 0.0
O71 O 0.36464 0.04093 0.29507 0.0
Cd72 Cd 0.38857 0.08556 0.34015 0.0
O73 O 0.32905 0.0757 0.25721 0.0
Cd74 Cd 0.33991 0.13735 0.28289 0.0
C75 C 0.42672 0.12902 0.25564 0.0
O76 O 0.33759 0.11936 0.35668 0.0
O77 O 0.35199 0.17414 0.34878 0.0
O78 O 0.27783 0.14819 0.26705 0.0
C79 C 0.34335 0.14912 0.37387 0.0
O80 O 0.43059 0.11122 0.29024 0.0
C81 C 0.2833 0.17762 0.24854 0.0
O82 O 0.39658 0.14054 0.24414 0.0
O83 O 0.31506 0.18768 0.2445 0.0
C84 C 0.92261 0.33283 0.26362 0.0
O85 O 0.92996 0.35033 0.29762 0.0
Cd86 Cd 0.88824 0.37308 0.34727 0.0
O87 O 0.89087 0.32487 0.25374 0.0
Cd88 Cd 0.83158 0.33357 0.28656 0.0
C89 C 0.8433 0.42203 0.27184 0.0
O90 O 0.84948 0.3249 0.36055 0.0
O91 O 0.79751 0.3469 0.35304 0.0
O92 O 0.81508 0.27355 0.26555 0.0
C93 C 0.8209 0.33412 0.3779 0.0
O94 O 0.86193 0.42193 0.30631 0.0
C95 C 0.78602 0.2824 0.24815 0.0
O96 O 0.83039 0.39347 0.25646 0.0
O97 O 0.77859 0.31514 0.2473 0.0
C98 C 0.62742 0.92013 0.29554 0.0
O99 O 0.61318 0.92062 0.33264 0.0
Cd100 Cd 0.5916 0.86895 0.36691 0.0
O101 O 0.63562 0.89099 0.2771 0.0
Cd102 Cd 0.63565 0.82604 0.2932 0.0
C103 C 0.54748 0.83075 0.27883 0.0
O104 O 0.64298 0.83385 0.36855 0.0
O105 O 0.62664 0.7812 0.3513 0.0
O106 O 0.69758 0.82055 0.27406 0.0
C107 C 0.63676 0.80264 0.38049 0.0
O108 O 0.54683 0.84711 0.31501 0.0
C109 C 0.69276 0.79352 0.25026 0.0
O110 O 0.57639 0.8204 0.26242 0.0
O111 O 0.66128 0.78307 0.24419 0.0
C112 C 0.83733 0.55046 0.79477 0.0
O113 O 0.8516 0.55636 0.83158 0.0
Cd114 Cd 0.87146 0.61137 0.86567 0.0
O115 O 0.82481 0.57562 0.7719 0.0
Cd116 Cd 0.8179 0.63811 0.79109 0.0
C117 C 0.90998 0.64326 0.7777 0.0
O118 O 0.82344 0.65117 0.86737 0.0
O119 O 0.77704 0.62144 0.84783 0.0
O120 O 0.76825 0.65161 0.74355 0.0
C121 C 0.79447 0.63667 0.87767 0.0
O122 O 0.91572 0.63202 0.81583 0.0
C123 C 0.77301 0.68488 0.74573 0.0
O124 O 0.87865 0.64658 0.76322 0.0
O125 O 0.79968 0.69612 0.76668 0.0
C126 C 0.40909 0.84132 0.79191 0.0
O127 O 0.41067 0.85686 0.82841 0.0
Cd128 Cd 0.36097 0.87748 0.86568 0.0
O129 O 0.37962 0.83178 0.77512 0.0
Cd130 Cd 0.31574 0.83096 0.7964 0.0
C131 C 0.32035 0.91953 0.77899 0.0
O132 O 0.33201 0.82199 0.86973 0.0
O133 O 0.2763 0.82874 0.86097 0.0
O134 O 0.31058 0.77034 0.76881 0.0
C135 C 0.30173 0.82137 0.8861 0.0
O136 O 0.33981 0.92097 0.81269 0.0
C137 C 0.28024 0.77522 0.75231 0.0
O138 O 0.30625 0.89046 0.76714 0.0
O139 O 0.26791 0.80638 0.75335 0.0
C140 C 0.11329 0.41604 0.77954 0.0
O141 O 0.09493 0.41511 0.81398 0.0
Cd142 Cd 0.07726 0.36857 0.86276 0.0
O143 O 0.12864 0.38859 0.76452 0.0
Cd144 Cd 0.13446 0.32577 0.78649 0.0
C145 C 0.04207 0.31296 0.78463 0.0
O146 O 0.128 0.33537 0.86088 0.0
O147 O 0.17451 0.3061 0.84831 0.0
O148 O 0.1863 0.32165 0.74111 0.0
C149 C 0.15488 0.32054 0.87597 0.0
O150 O 0.0382 0.33379 0.81684 0.0
C151 C 0.18263 0.28854 0.73457 0.0
O152 O 0.07274 0.3071 0.76937 0.0
O153 O 0.15496 0.27362 0.74897 0.0
C154 C 0.54409 0.13175 0.79542 0.0
O155 O 0.54573 0.11844 0.83308 0.0
Cd156 Cd 0.59871 0.09461 0.86054 0.0
O157 O 0.57205 0.139 0.77418 0.0
Cd158 Cd 0.63786 0.13874 0.7856 0.0
C159 C 0.62779 0.05172 0.76686 0.0
O160 O 0.63444 0.14593 0.86178 0.0
O161 O 0.68483 0.12713 0.8408 0.0
O162 O 0.6427 0.20044 0.76262 0.0
C163 C 0.66578 0.13836 0.87144 0.0
O164 O 0.61344 0.05068 0.80407 0.0
C165 C 0.67085 0.19545 0.74144 0.0
O166 O 0.63929 0.08063 0.75128 0.0
O167 O 0.68174 0.16385 0.73793 0.0
C168 C 0.84515 0.42272 0.69657 0.0
O169 O 0.86728 0.42953 0.66713 0.0
Cd170 Cd 0.88588 0.38832 0.61459 0.0
O171 O 0.83052 0.39238 0.69926 0.0
Cd172 Cd 0.83283 0.33626 0.65588 0.0
C173 C 0.91943 0.3267 0.68329 0.0
O174 O 0.83154 0.36487 0.58536 0.0
O175 O 0.84127 0.30868 0.58418 0.0
O176 O 0.76987 0.328 0.67085 0.0
C177 C 0.83407 0.33667 0.56346 0.0
O178 O 0.92609 0.35092 0.65603 0.0
C179 C 0.77331 0.29605 0.68267 0.0
O180 O 0.88793 0.31643 0.68951 0.0
O181 O 0.80411 0.28313 0.68254 0.0
C182 C 0.5319 0.83735 0.68603 0.0
O183 O 0.52418 0.85555 0.65292 0.0
Cd184 Cd 0.56443 0.87222 0.59905 0.0
O185 O 0.5633 0.82681 0.69307 0.0
Cd186 Cd 0.61954 0.83426 0.65261 0.0
C187 C 0.61359 0.92385 0.66424 0.0
O188 O 0.59435 0.81798 0.58307 0.0
O189 O 0.64619 0.84102 0.57994 0.0
O190 O 0.63826 0.77587 0.67692 0.0
C191 C 0.62163 0.82397 0.56109 0.0
O192 O 0.59466 0.92342 0.63013 0.0
C193 C 0.66909 0.78569 0.6878 0.0
O194 O 0.62481 0.89513 0.68061 0.0
O195 O 0.67642 0.81834 0.68423 0.0
C196 C 0.10904 0.54381 0.67797 0.0
O197 O 0.08793 0.54165 0.64595 0.0
Cd198 Cd 0.07423 0.58662 0.59429 0.0
O199 O 0.12493 0.57266 0.68719 0.0
Cd200 Cd 0.12261 0.63304 0.65586 0.0
C201 C 0.03274 0.63578 0.66773 0.0
O202 O 0.12969 0.61312 0.58228 0.0
O203 O 0.12016 0.66888 0.58864 0.0
O204 O 0.18348 0.64166 0.68006 0.0
C205 C 0.12779 0.64299 0.56431 0.0
O206 O 0.03029 0.62357 0.62939 0.0
C207 C 0.17815 0.67267 0.69452 0.0
O208 O 0.06273 0.63961 0.68597 0.0
O209 O 0.14684 0.6844 0.69313 0.0
C210 C 0.42025 0.13131 0.69129 0.0
O211 O 0.4301 0.11155 0.66046 0.0
Cd212 Cd 0.39205 0.08745 0.60809 0.0
O213 O 0.38824 0.14115 0.69485 0.0
Cd214 Cd 0.33301 0.13389 0.65018 0.0
C215 C 0.33393 0.04653 0.67666 0.0
O216 O 0.36278 0.13913 0.58149 0.0
O217 O 0.30807 0.12374 0.57693 0.0
O218 O 0.31797 0.19597 0.66288 0.0
C219 C 0.33582 0.13408 0.55807 0.0
O220 O 0.35975 0.04392 0.65077 0.0
C221 C 0.28701 0.1894 0.67597 0.0
O222 O 0.31856 0.07607 0.68202 0.0
O223 O 0.27773 0.15716 0.67785 0.0
C224 C 0.23043 0.21532 0.26347 0.0
C225 C 0.25389 0.19988 0.23314 0.0
C226 C 0.2266 0.23348 0.17428 0.0
C227 C 0.20229 0.24784 0.20428 0.0
N228 N 0.17641 0.2482 0.27522 0.0
N229 N 0.26983 0.18808 0.15909 0.0
C230 C 0.20273 0.23737 0.24825 0.0
C231 C 0.25063 0.20712 0.18831 0.0
N232 N 0.23573 0.21039 0.3069 0.0
N233 N 0.22765 0.24605 0.1328 0.0
H234 H 0.28751 0.16834 0.16829 0.0
H235 H 0.26597 0.18948 0.12572 0.0
H236 H 0.21019 0.26505 0.12105 0.0
H237 H 0.2474 0.23967 0.11089 0.0
H238 H 0.22207 0.22412 0.33073 0.0
H239 H 0.25569 0.19444 0.3194 0.0
H240 H 0.1731 0.23859 0.3065 0.0
H241 H 0.15604 0.26476 0.26501 0.0
C242 C 0.75111 0.25594 0.18685 0.0
C243 C 0.7611 0.25548 0.23119 0.0
C244 C 0.72526 0.20224 0.24278 0.0
C245 C 0.71317 0.20435 0.19931 0.0
N246 N 0.71076 0.23528 0.13104 0.0
N247 N 0.75299 0.23252 0.30336 0.0
C248 C 0.72483 0.23195 0.17172 0.0
C249 C 0.74705 0.22969 0.25972 0.0
N250 N 0.76799 0.27814 0.1588 0.0
N251 N 0.71591 0.17402 0.26789 0.0
H252 H 0.76817 0.25265 0.31726 0.0
H253 H 0.74036 0.2169 0.32628 0.0
H254 H 0.69837 0.15442 0.25753 0.0
H255 H 0.72729 0.16873 0.29796 0.0
H256 H 0.76473 0.27707 0.12532 0.0
H257 H 0.78773 0.29574 0.16856 0.0
H258 H 0.71502 0.25716 0.11132 0.0
H259 H 0.6928 0.21725 0.11787 0.0
C260 C 0.75214 0.74494 0.17259 0.0
C261 C 0.77141 0.72332 0.20192 0.0
C262 C 0.74184 0.7509 0.26347 0.0
C263 C 0.72261 0.7725 0.23416 0.0
N264 N 0.7148 0.79639 0.16265 0.0
N265 N 0.79133 0.71134 0.27452 0.0
C266 C 0.72955 0.77156 0.18922 0.0
C267 C 0.76839 0.72815 0.24721 0.0
N268 N 0.75381 0.73871 0.12899 0.0
N269 N 0.73345 0.75072 0.30651 0.0
H270 H 0.81121 0.69468 0.26334 0.0
H271 H 0.79285 0.71637 0.30765 0.0
H272 H 0.7145 0.7673 0.31995 0.0
H273 H 0.74353 0.73249 0.32854 0.0
H274 H 0.73715 0.75056 0.10644 0.0
H275 H 0.77037 0.71985 0.1153 0.0
H276 H 0.72151 0.79943 0.13022 0.0
H277 H 0.69806 0.81613 0.17409 0.0
C278 C 0.24594 0.75405 0.25717 0.0
C279 C 0.24618 0.76588 0.21369 0.0
C280 C 0.19171 0.73291 0.19857 0.0
C281 C 0.19412 0.7176 0.24025 0.0
N282 N 0.22363 0.7118 0.30932 0.0
N283 N 0.22211 0.76356 0.14101 0.0
C284 C 0.22123 0.72775 0.26968 0.0
C285 C 0.21956 0.75491 0.1839 0.0
N286 N 0.26867 0.7688 0.2867 0.0
N287 N 0.16291 0.72625 0.17297 0.0
H288 H 0.24234 0.77913 0.12853 0.0
H289 H 0.20584 0.75294 0.11698 0.0
H290 H 0.14257 0.70929 0.18219 0.0
H291 H 0.15773 0.73965 0.14421 0.0
H292 H 0.26761 0.76396 0.31984 0.0
H293 H 0.28683 0.78843 0.27856 0.0
H294 H 0.24514 0.71475 0.3301 0.0
H295 H 0.20483 0.69396 0.3207 0.0
C296 C 0.69098 0.74204 0.74255 0.0
C297 C 0.69576 0.75986 0.70261 0.0
C298 C 0.74965 0.72582 0.68892 0.0
C299 C 0.746 0.70979 0.73002 0.0
N300 N 0.71634 0.70497 0.79864 0.0
N301 N 0.73064 0.7715 0.63897 0.0
C302 C 0.71743 0.71841 0.75753 0.0
C303 C 0.72547 0.75262 0.67616 0.0
N304 N 0.6611 0.74767 0.76613 0.0
N305 N 0.7757 0.71463 0.66172 0.0
H306 H 0.71264 0.78992 0.62715 0.0
H307 H 0.75362 0.7705 0.62084 0.0
H308 H 0.79409 0.69544 0.67051 0.0
H309 H 0.77779 0.72234 0.62951 0.0
H310 H 0.65381 0.73233 0.79256 0.0
H311 H 0.6423 0.76663 0.75797 0.0
H312 H 0.69874 0.71339 0.8222 0.0
H313 H 0.73468 0.68684 0.81048 0.0
C314 C 0.22011 0.72194 0.67861 0.0
C315 C 0.20769 0.69584 0.70786 0.0
C316 C 0.24562 0.71965 0.76537 0.0
C317 C 0.25842 0.74553 0.73596 0.0
N318 N 0.26399 0.76699 0.66303 0.0
N319 N 0.21339 0.66472 0.77546 0.0
C320 C 0.24748 0.74535 0.69203 0.0
C321 C 0.22217 0.69294 0.75005 0.0
N322 N 0.20524 0.72472 0.63829 0.0
N323 N 0.25404 0.72192 0.80845 0.0
H324 H 0.19546 0.64528 0.76561 0.0
H325 H 0.22589 0.659 0.80471 0.0
H326 H 0.27097 0.74107 0.82126 0.0
H327 H 0.24223 0.70648 0.8322 0.0
H328 H 0.20996 0.74574 0.61738 0.0
H329 H 0.18654 0.70683 0.62637 0.0
H330 H 0.25976 0.76587 0.62971 0.0
H331 H 0.2844 0.78412 0.67194 0.0
C332 C 0.20589 0.24856 0.6767 0.0
C333 C 0.21143 0.26707 0.71612 0.0
C334 C 0.26962 0.23957 0.72451 0.0
C335 C 0.26229 0.218 0.68787 0.0
N336 N 0.22422 0.20149 0.62821 0.0
N337 N 0.24673 0.27829 0.78014 0.0
C338 C 0.23063 0.22243 0.66362 0.0
C339 C 0.24305 0.26253 0.74039 0.0
N340 N 0.17744 0.25685 0.65131 0.0
N341 N 0.30181 0.23782 0.74458 0.0
H342 H 0.2283 0.29566 0.79306 0.0
H343 H 0.26684 0.27232 0.80198 0.0
H344 H 0.32112 0.21951 0.73632 0.0
H345 H 0.31043 0.25607 0.76766 0.0
H346 H 0.17325 0.24689 0.62026 0.0
H347 H 0.15913 0.27611 0.66003 0.0
H348 H 0.20005 0.20012 0.61221 0.0
H349 H 0.24288 0.1842 0.61547 0.0
C350 C 0.70561 0.2514 0.75345 0.0
C351 C 0.69213 0.22519 0.72455 0.0
C352 C 0.73013 0.24746 0.66683 0.0
C353 C 0.74279 0.27417 0.69535 0.0
N354 N 0.73711 0.30691 0.76202 0.0
N355 N 0.68493 0.20356 0.6516 0.0
C356 C 0.72845 0.27807 0.73731 0.0
C357 C 0.70237 0.22488 0.68049 0.0
N358 N 0.69894 0.24934 0.79687 0.0
N359 N 0.74521 0.24315 0.62708 0.0
H360 H 0.66396 0.18728 0.66057 0.0
H361 H 0.68885 0.20447 0.61827 0.0
H362 H 0.76463 0.26008 0.61532 0.0
H363 H 0.74007 0.22162 0.60687 0.0
H364 H 0.71151 0.26518 0.81993 0.0
H365 H 0.68328 0.22979 0.81073 0.0
H366 H 0.72452 0.31315 0.79092 0.0
H367 H 0.75478 0.32634 0.75186 0.0
C368 C 0.1647 0.29072 0.94744 0.0
C369 C 0.16361 0.32215 0.9225 0.0
C370 C 0.1658 0.3584 -0.01176 0.0
C371 C 0.16641 0.32699 0.0132 0.0
N372 N 0.17532 0.2641 0.01774 0.0
N373 N 0.17313 0.38509 0.91755 0.0
C374 C 0.16893 0.29338 -0.00695 0.0
C375 C 0.16744 0.35578 0.94246 0.0
N376 N 0.15945 0.25857 0.928 0.0
N377 N 0.16153 0.39051 0.00802 0.0
H378 H 0.17496 0.38391 0.88386 0.0
H379 H 0.17944 0.40985 0.93033 0.0
H380 H 0.16081 0.39365 0.04156 0.0
H381 H 0.15643 0.4138 -0.00881 0.0
H382 H 0.15574 0.23515 0.94507 0.0
H383 H 0.15641 0.25545 0.89463 0.0
H384 H 0.18082 0.23926 0.00483 0.0
H385 H 0.17832 0.2654 0.05132 0.0
C386 C 0.66657 0.09901 0.93511 0.0
C387 C 0.67464 0.13237 0.91725 0.0
C388 C 0.67952 0.15761 -0.00998 0.0
C389 C 0.66383 0.12646 0.00709 0.0
N390 N 0.63918 0.06797 -0.00608 0.0
N391 N 0.68934 0.19385 0.92645 0.0
C392 C 0.65716 0.09691 -0.02063 0.0
C393 C 0.68168 0.16176 0.94441 0.0
N394 N 0.66684 0.06949 0.90943 0.0
N395 N 0.69321 0.18268 0.01737 0.0
H396 H 0.69302 0.19706 0.8932 0.0
H397 H 0.69046 0.21732 0.94418 0.0
H398 H 0.69351 0.17969 0.05094 0.0
H399 H 0.70753 0.20451 0.00676 0.0
H400 H 0.66458 0.0439 0.92158 0.0
H401 H 0.673 0.07033 0.87659 0.0
H402 H 0.62998 0.04788 -0.0264 0.0
H403 H 0.63021 0.0653 0.02535 0.0
C404 C 0.79036 0.59914 0.94404 0.0
C405 C 0.78505 0.63235 0.92357 0.0
C406 C 0.77147 0.65963 -0.00658 0.0
C407 C 0.78312 0.62843 0.0141 0.0
N408 N 0.80163 0.56767 0.01119 0.0
N409 N 0.76799 0.69363 0.92688 0.0
C410 C 0.79119 0.59763 -0.01002 0.0
C411 C 0.77433 0.66237 0.94771 0.0
N412 N 0.79524 0.56932 0.91963 0.0
N413 N 0.75783 0.68643 0.01786 0.0
H414 H 0.76801 0.69586 0.89318 0.0
H415 H 0.76382 0.71757 0.94268 0.0
H416 H 0.75502 0.68425 0.05137 0.0
H417 H 0.7466 0.70924 0.00507 0.0
H418 H 0.79588 0.54388 0.93237 0.0
H419 H 0.79615 0.56949 0.88595 0.0
H420 H 0.81243 0.54569 -0.00401 0.0
H421 H 0.80063 0.56529 0.04485 0.0
C422 C 0.32907 0.78348 -0.00762 0.0
C423 C 0.3101 0.80508 0.02166 0.0
C424 C 0.27813 0.8325 0.96147 0.0
C425 C 0.29774 0.81151 0.93216 0.0
N426 N 0.33009 0.75751 0.92069 0.0
N427 N 0.25697 0.83821 0.03491 0.0
C428 C 0.31916 0.78366 0.94808 0.0
C429 C 0.28132 0.82559 0.00641 0.0
N430 N 0.35794 0.76485 0.00571 0.0
N431 N 0.25848 0.86043 0.94727 0.0
H432 H 0.25785 0.83222 0.06791 0.0
H433 H 0.23395 0.8509 0.02509 0.0
H434 H 0.25538 0.86696 0.91478 0.0
H435 H 0.24727 0.87881 0.96827 0.0
H436 H 0.37473 0.75207 -0.01578 0.0
H437 H 0.36698 0.76442 0.0376 0.0
H438 H 0.34344 0.73504 0.93131 0.0
H439 H 0.32215 0.75643 0.88827 0.0
C440 C 0.15777 0.62496 0.49608 0.0
C441 C 0.13187 0.64601 0.51673 0.0
C442 C 0.11375 0.66826 0.44584 0.0
C443 C 0.13396 0.64148 0.42536 0.0
N444 N 0.17023 0.58912 0.43347 0.0
N445 N 0.07997 0.68296 0.50914 0.0
C446 C 0.15489 0.61846 0.45103 0.0
C447 C 0.10848 0.66666 0.49119 0.0
N448 N 0.18549 0.61164 0.51923 0.0
N449 N 0.10036 0.69578 0.42241 0.0
H450 H 0.07325 0.6808 0.54165 0.0
H451 H 0.06067 0.6954 0.49051 0.0
H452 H 0.10559 0.69931 0.38957 0.0
H453 H 0.08788 0.71731 0.43681 0.0
H454 H 0.20645 0.59849 0.50467 0.0
H455 H 0.18965 0.61748 0.55192 0.0
H456 H 0.18302 0.57014 0.45227 0.0
H457 H 0.16675 0.58139 0.40133 0.0
C458 C 0.31487 0.16412 0.48996 0.0
C459 C 0.33751 0.1394 0.5107 0.0
C460 C 0.37047 0.13223 0.4436 0.0
C461 C 0.34468 0.1521 0.42139 0.0
N462 N 0.29076 0.18554 0.42193 0.0
N463 N 0.38211 0.09426 0.50453 0.0
C464 C 0.31649 0.16792 0.44416 0.0
C465 C 0.36422 0.12205 0.48686 0.0
N466 N 0.29279 0.18475 0.51397 0.0
N467 N 0.40109 0.12341 0.42331 0.0
H468 H 0.3759 0.08389 0.53474 0.0
H469 H 0.3998 0.0788 0.48712 0.0
H470 H 0.40684 0.13207 0.39206 0.0
H471 H 0.42215 0.11127 0.43913 0.0
H472 H 0.27833 0.2056 0.50099 0.0
H473 H 0.29112 0.18306 0.5476 0.0
H474 H 0.26735 0.19394 0.43603 0.0
H475 H 0.29207 0.19006 0.38866 0.0
C476 C 0.80251 0.31083 0.45019 0.0
C477 C 0.81889 0.33755 0.42533 0.0
C478 C 0.84682 0.36201 0.49012 0.0
C479 C 0.82883 0.33672 0.51583 0.0
N480 N 0.78249 0.29292 0.52115 0.0
N481 N 0.84728 0.39451 0.42277 0.0
C482 C 0.8046 0.3127 0.49614 0.0
C483 C 0.838 0.36511 0.44573 0.0
N484 N 0.78558 0.28338 0.42997 0.0
N485 N 0.87387 0.38154 0.50724 0.0
H486 H 0.83975 0.39807 0.39052 0.0
H487 H 0.85871 0.41682 0.43701 0.0
H488 H 0.88307 0.37813 0.53875 0.0
H489 H 0.88986 0.39796 0.48867 0.0
H490 H 0.7767 0.26098 0.44625 0.0
H491 H 0.78231 0.28209 0.39641 0.0
H492 H 0.76214 0.27745 0.50843 0.0
H493 H 0.78208 0.29479 0.55481 0.0
C494 C 0.65441 0.79508 0.50008 0.0
C495 C 0.62386 0.81292 0.51507 0.0
C496 C 0.59722 0.80682 0.44303 0.0
C497 C 0.63018 0.79637 0.42661 0.0
N498 N 0.69074 0.78037 0.43822 0.0
N499 N 0.56774 0.84035 0.49818 0.0
C500 C 0.65893 0.79009 0.45484 0.0
C501 C 0.59531 0.81948 0.48609 0.0
N502 N 0.6784 0.78192 0.52897 0.0
N503 N 0.568 0.80575 0.41698 0.0
H504 H 0.56637 0.8528 0.5281 0.0
H505 H 0.54822 0.84879 0.47674 0.0
H506 H 0.56883 0.79688 0.38499 0.0
H507 H 0.54259 0.81011 0.4284 0.0
H508 H 0.6996 0.76616 0.51992 0.0
H509 H 0.67506 0.7836 0.5624 0.0
H510 H 0.71387 0.77955 0.45654 0.0
H511 H 0.69411 0.77467 0.4054 0.0
C512 C 0.13179 0.51448 0.1932 0.0
C513 C 0.13054 0.51385 0.2393 0.0
C514 C 0.12851 0.44913 0.2373 0.0
C515 C 0.13303 0.44968 0.19159 0.0
N516 N 0.14984 0.48329 0.12856 0.0
N517 N 0.13921 0.48009 0.30473 0.0
C518 C 0.13823 0.4825 0.17034 0.0
C519 C 0.13275 0.48098 0.26118 0.0
N520 N 0.12445 0.54471 0.17074 0.0
N521 N 0.11764 0.41908 0.25791 0.0
H522 H 0.14391 0.50292 0.32299 0.0
H523 H 0.14396 0.45662 0.32145 0.0
H524 H 0.11125 0.39566 0.24181 0.0
H525 H 0.1109 0.41872 0.29059 0.0
H526 H 0.12153 0.5451 0.13715 0.0
H527 H 0.11749 0.56852 0.18532 0.0
H528 H 0.15694 0.50668 0.113 0.0
H529 H 0.15625 0.46043 0.11133 0.0
C530 C 0.50512 0.15748 0.18649 0.0
C531 C 0.51836 0.12362 0.17491 0.0
C532 C 0.46657 0.09559 0.20717 0.0
C533 C 0.4561 0.1287 0.22429 0.0
N534 N 0.46585 0.19128 0.23276 0.0
N535 N 0.51505 0.05986 0.18282 0.0
C536 C 0.47533 0.15983 0.2144 0.0
C537 C 0.49989 0.09248 0.18725 0.0
N538 N 0.52047 0.18723 0.16999 0.0
N539 N 0.44438 0.06706 0.2094 0.0
H540 H 0.54022 0.05591 0.17047 0.0
H541 H 0.50421 0.03692 0.1959 0.0
H542 H 0.41938 0.06838 0.22318 0.0
H543 H 0.44924 0.04323 0.1935 0.0
H544 H 0.51015 0.21253 0.17388 0.0
H545 H 0.54201 0.18629 0.14918 0.0
H546 H 0.48098 0.21424 0.23073 0.0
H547 H 0.44372 0.19383 0.25241 0.0
C548 C 0.80344 0.49698 0.20492 0.0
C549 C 0.83406 0.51706 0.19567 0.0
C550 C 0.87059 0.47439 0.23476 0.0
C551 C 0.83977 0.45539 0.24682 0.0
N552 N 0.77633 0.45242 0.25046 0.0
N553 N 0.89505 0.53021 0.21125 0.0
C554 C 0.80596 0.46774 0.23385 0.0
C555 C 0.86711 0.50737 0.21349 0.0
N556 N 0.77221 0.5053 0.18524 0.0
N557 N 0.90331 0.46024 0.24142 0.0
H558 H 0.8933 0.55508 0.19684 0.0
H559 H 0.91877 0.5261 0.22763 0.0
H560 H 0.90756 0.43577 0.25593 0.0
H561 H 0.92619 0.47118 0.22856 0.0
H562 H 0.74981 0.4894 0.18687 0.0
H563 H 0.76943 0.52695 0.16461 0.0
H564 H 0.75108 0.46238 0.24559 0.0
H565 H 0.77721 0.43157 0.27253 0.0
C566 C 0.49877 0.86085 0.23887 0.0
C567 C 0.51467 0.82883 0.25255 0.0
C568 C 0.46887 0.79488 0.21383 0.0
C569 C 0.45167 0.82703 0.20334 0.0
N570 N 0.44554 0.88996 0.21493 0.0
N571 N 0.51293 0.76527 0.25824 0.0
C572 C 0.46522 0.85982 0.21863 0.0
C573 C 0.49921 0.79572 0.24144 0.0
N574 N 0.51652 0.89223 0.24318 0.0
N575 N 0.45681 0.76382 0.19646 0.0
H576 H 0.53513 0.76507 0.27832 0.0
H577 H 0.50092 0.7406 0.25498 0.0
H578 H 0.4343 0.76242 0.17692 0.0
H579 H 0.47022 0.73993 0.19901 0.0
H580 H 0.50772 0.91587 0.22966 0.0
H581 H 0.54188 0.89402 0.25616 0.0
H582 H 0.45257 0.91382 0.22965 0.0
H583 H 0.42042 0.89037 0.201 0.0
C584 C 0.8058 0.49988 0.75848 0.0
C585 C 0.83729 0.51398 0.77686 0.0
C586 C 0.86867 0.46011 0.7559 0.0
C587 C 0.83946 0.44993 0.73011 0.0
N588 N 0.77995 0.45979 0.70556 0.0
N589 N 0.9004 0.50845 0.78901 0.0
C590 C 0.80769 0.46941 0.73147 0.0
C591 C 0.86912 0.49412 0.77526 0.0
N592 N 0.77412 0.51515 0.76768 0.0
N593 N 0.89609 0.43718 0.76161 0.0
H594 H 0.903 0.53369 0.80213 0.0
H595 H 0.92467 0.4965 0.78353 0.0
H596 H 0.8963 0.41192 0.74782 0.0
H597 H 0.91662 0.44169 0.78352 0.0
H598 H 0.75 0.50426 0.75829 0.0
H599 H 0.77177 0.53676 0.78856 0.0
H600 H 0.75764 0.47539 0.70125 0.0
H601 H 0.78017 0.43704 0.68635 0.0
C602 C 0.49709 0.86526 0.74341 0.0
C603 C 0.50497 0.83433 0.71977 0.0
C604 C 0.45271 0.80523 0.74924 0.0
C605 C 0.44195 0.83825 0.76683 0.0
N606 N 0.45067 0.90173 0.77163 0.0
N607 N 0.4902 0.77504 0.69749 0.0
C608 C 0.46337 0.86884 0.7618 0.0
C609 C 0.48287 0.80417 0.72208 0.0
N610 N 0.52185 0.89134 0.74799 0.0
N611 N 0.43489 0.77496 0.75947 0.0
H612 H 0.51294 0.77314 0.67881 0.0
H613 H 0.47294 0.75374 0.69393 0.0
H614 H 0.41314 0.77472 0.77993 0.0
H615 H 0.44349 0.74979 0.75077 0.0
H616 H 0.51846 0.91326 0.76809 0.0
H617 H 0.54721 0.889 0.73542 0.0
H618 H 0.46426 0.92498 0.76456 0.0
H619 H 0.42496 0.90621 0.78198 0.0
C620 C 0.08068 0.46525 0.74367 0.0
C621 C 0.11338 0.44919 0.75416 0.0
C622 C 0.14444 0.49557 0.71399 0.0
C623 C 0.11185 0.51308 0.70725 0.0
N624 N 0.05088 0.5199 0.7271 0.0
N625 N 0.17691 0.45266 0.75661 0.0
C626 C 0.08054 0.49954 0.72564 0.0
C627 C 0.14552 0.46535 0.74141 0.0
N628 N 0.04971 0.44717 0.74875 0.0
N629 N 0.17399 0.50693 0.69307 0.0
H630 H 0.17868 0.43102 0.77739 0.0
H631 H 0.20088 0.46553 0.75184 0.0
H632 H 0.17419 0.52902 0.6729 0.0
H633 H 0.19756 0.49287 0.69307 0.0
H634 H 0.02556 0.45674 0.73766 0.0
H635 H 0.04848 0.42102 0.75937 0.0
H636 H 0.02819 0.51236 0.7436 0.0
H637 H 0.05048 0.54603 0.71633 0.0
C638 C 0.45244 0.10818 0.75424 0.0
C639 C 0.44568 0.13713 0.72672 0.0
C640 C 0.49909 0.16665 0.75325 0.0
C641 C 0.50915 0.13473 0.77413 0.0
N642 N 0.4973 0.07252 0.78774 0.0
N643 N 0.46184 0.19413 0.69866 0.0
C644 C 0.48613 0.10489 0.77352 0.0
C645 C 0.4686 0.16671 0.72616 0.0
N646 N 0.42685 0.08327 0.76084 0.0
N647 N 0.51818 0.19689 0.76002 0.0
H648 H 0.43881 0.19538 0.68006 0.0
H649 H 0.47962 0.21459 0.69289 0.0
H650 H 0.54012 0.19785 0.78051 0.0
H651 H 0.51042 0.22159 0.74862 0.0
H652 H 0.42916 0.0632 0.78375 0.0
H653 H 0.40189 0.085 0.74661 0.0
H654 H 0.48267 0.04939 0.78346 0.0
H655 H 0.52263 0.06759 0.79933 0.0
C656 C 0.59171 0.00995 0.72238 0.0
C657 C 0.62528 0.02011 0.73852 0.0
C658 C 0.6522 0.97006 0.70025 0.0
C659 C 0.61805 0.95759 0.68859 0.0
N660 N 0.55473 0.96235 0.69632 0.0
N661 N 0.68735 0.00878 0.7465 0.0
C662 C 0.58762 0.9767 0.70159 0.0
C663 C 0.65559 -7e-05 0.72836 0.0
N664 N 0.5638 0.03259 0.72579 0.0
N665 N 0.68129 0.95408 0.68329 0.0
H666 H 0.69072 0.03085 0.7665 0.0
H667 H 0.70971 -0.00699 0.74425 0.0
H668 H 0.6797 0.93253 0.66219 0.0
H669 H 0.70677 0.96395 0.68705 0.0
H670 H 0.53961 0.02819 0.71053 0.0
H671 H 0.56583 0.05754 0.74015 0.0
H672 H 0.53219 0.97332 0.70992 0.0
H673 H 0.55006 0.9377 0.68224 0.0
C674 C 0.96026 0.67384 0.74003 0.0
C675 C 0.9396 0.64304 0.74667 0.0
C676 C 0.97846 0.60842 0.69957 0.0
C677 C 0.00014 0.63896 0.694 0.0
N678 N 0.01249 0.70053 0.70796 0.0
N679 N 0.92753 0.58131 0.73357 0.0
C680 C -0.00876 0.67168 0.71402 0.0
C681 C 0.94808 0.61054 0.72615 0.0
N682 N 0.94968 0.70511 0.75812 0.0
N683 N -0.01274 0.57714 0.67989 0.0
H684 H 0.90386 0.58227 0.75046 0.0
H685 H 0.93377 0.55567 0.72425 0.0
H686 H 0.01136 0.57254 0.66506 0.0
H687 H 0.97073 0.55527 0.67735 0.0
H688 H 0.96195 0.72937 0.75325 0.0
H689 H 0.92715 0.70713 0.77716 0.0
H690 H 0.00959 0.72462 0.7238 0.0
H691 H 0.03398 0.70034 0.68707 0.0
C692 C 0.32131 0.98152 0.6811 0.0
C693 C 0.32343 0.01481 0.70224 0.0
C694 C 0.31161 -0.01488 0.77129 0.0
C695 C 0.31712 0.95173 0.75138 0.0
N696 N 0.33433 0.91936 0.68684 0.0
N697 N 0.32629 0.04726 0.77013 0.0
C698 C 0.32348 0.95006 0.70601 0.0
C699 C 0.31969 0.01653 0.74806 0.0
N700 N 0.31705 0.97985 0.63717 0.0
N701 N 0.29839 -0.01308 0.81228 0.0
H702 H 0.33417 0.07067 0.75535 0.0
H703 H 0.3275 0.04851 0.80384 0.0
H704 H 0.29108 0.96444 0.82965 0.0
H705 H 0.29102 0.01067 0.82683 0.0
H706 H 0.31235 0.95618 0.62067 0.0
H707 H 0.31415 0.00241 0.61807 0.0
H708 H 0.34258 0.91819 0.65473 0.0
H709 H 0.33907 0.89602 0.70368 0.0
C710 C 0.97655 0.30555 0.78163 0.0
C711 C 0.0094 0.3006 0.76122 0.0
C712 C 0.97936 0.29871 0.69062 0.0
C713 C 0.9486 0.31261 0.71054 0.0
N714 N 0.91865 0.33106 0.77607 0.0
N715 N 0.03793 0.27357 0.70018 0.0
C716 C 0.94694 0.31561 0.75645 0.0
C717 C 0.00977 0.29143 0.71662 0.0
N718 N 0.97372 0.29981 0.8251 0.0
N719 N 0.97954 0.29316 0.64684 0.0
H720 H 0.05766 0.26325 0.72003 0.0
H721 H 0.03971 0.26481 0.66833 0.0
H722 H 0.9569 0.29533 0.62771 0.0
H723 H 0.00202 0.28722 0.62917 0.0
H724 H 0.94977 0.30011 0.84142 0.0
H725 H -0.00513 0.29026 0.84342 0.0
H726 H 0.91836 0.3375 0.8089 0.0
H727 H 0.89675 0.34059 0.75938 0.0
C728 C 0.33172 0.01359 0.19399 0.0
C729 C 0.3309 0.01369 0.24 0.0
C730 C 0.3306 0.94909 0.24058 0.0
C731 C 0.33024 0.94893 0.19454 0.0
N732 N 0.3169 0.98092 0.12891 0.0
N733 N 0.31579 -0.0179 0.30508 0.0
C734 C 0.32614 0.9812 0.17174 0.0
C735 C 0.32544 0.98155 0.26255 0.0
N736 N 0.34045 0.04334 0.17133 0.0
N737 N 0.33876 0.91936 0.26363 0.0
H738 H 0.31086 0.00567 0.32167 0.0
H739 H 0.30883 0.95932 0.32201 0.0
H740 H 0.3454 0.89527 0.24954 0.0
H741 H 0.34267 0.91969 0.29708 0.0
H742 H 0.34503 0.04301 0.13807 0.0
H743 H 0.34639 0.06757 0.18569 0.0
H744 H 0.31086 0.00388 0.1118 0.0
H745 H 0.3113 0.95755 0.1121 0.0
C746 C 0.97382 0.29975 0.23199 0.0
C747 C 0.95059 0.32902 0.23115 0.0
C748 C -0.0093 0.36149 0.18449 0.0
C749 C 0.01282 0.33129 0.18201 0.0
N750 N 0.02244 0.26944 0.19723 0.0
N751 N 0.93202 0.38338 0.19746 0.0
C752 C 0.00357 0.29966 0.20403 0.0
C753 C 0.95738 0.35835 0.20416 0.0
N754 N 0.96776 0.27251 0.25998 0.0
N755 N 0.00241 0.39387 0.17091 0.0
H756 H 0.907 0.38173 0.21114 0.0
H757 H 0.93458 0.40364 0.17484 0.0
H758 H 0.02781 0.39827 0.15936 0.0
H759 H -0.01155 0.41719 0.17603 0.0
H760 H -0.01424 0.25227 0.26564 0.0
H761 H 0.94534 0.2713 0.27933 0.0
H762 H 0.01497 0.24483 0.20923 0.0
H763 H 0.04401 0.26839 0.17652 0.0
C764 C 0.60319 0.9775 0.26741 0.0
C765 C 0.63216 0.95392 0.27208 0.0
C766 C 0.66741 -0.00902 0.22364 0.0
C767 C 0.63871 0.01461 0.22017 0.0
N768 N 0.58385 0.0364 0.24813 0.0
N769 N 0.69445 0.94309 0.26388 0.0
C770 C 0.60822 0.00992 0.24551 0.0
C771 C 0.66517 0.96215 0.25301 0.0
N772 N 0.57019 0.96797 0.28074 0.0
N773 N 0.69625 -0.00446 0.19797 0.0
H774 H 0.69393 0.92252 0.28635 0.0
H775 H 0.71977 0.9498 0.25394 0.0
H776 H 0.69916 0.01738 0.17766 0.0
H777 H 0.71627 0.97689 0.1952 0.0
H778 H 0.54769 -0.01745 0.27335 0.0
H779 H 0.56434 0.94388 0.29526 0.0
H780 H 0.56263 0.03579 0.26938 0.0
H781 H 0.58691 0.06058 0.2323 0.0
C782 C 0.00446 0.6021 0.19241 0.0
C783 C 0.01062 0.63214 0.21878 0.0
C784 C 0.95997 0.66194 0.18594 0.0
C785 C 0.95054 0.62973 0.16498 0.0
N786 N 0.96122 0.567 0.15421 0.0
N787 N -0.0055 0.69047 0.24271 0.0
C788 C 0.97231 0.5993 0.16922 0.0
C789 C -0.01139 0.66221 0.21592 0.0
N790 N 0.02928 0.57601 0.18988 0.0
N791 N 0.94211 0.6923 0.17634 0.0
H792 H 0.01615 0.69186 0.26367 0.0
H793 H 0.97708 0.71153 0.24582 0.0
H794 H 0.92152 0.69306 0.15382 0.0
H795 H 0.94968 0.7172 0.18761 0.0
H796 H 0.02788 0.55529 0.16761 0.0
H797 H 0.05301 0.57694 0.2071 0.0
H798 H 0.97428 0.54347 0.16119 0.0
H799 H 0.93715 0.56271 0.13871 0.0
loop_
_geom_bond_atom_site_label_1
_geom_bond_atom_site_label_2
_geom_bond_distance
_geom_bond_site_symmetry_2
_ccdc_geom_bond_type
C0 O1 1.306 . S
C0 O3 1.160 . S
O1 C0 1.306 . S
O1 Cd2 2.228 . S
Cd2 O1 2.228 . S
Cd2 O6 2.273 . S
Cd2 O10 2.277 . S
O3 C0 1.160 . S
O3 Cd4 2.203 . S
Cd4 O3 2.203 . S
Cd4 O6 2.411 . S
Cd4 O7 2.333 . S
Cd4 O8 2.352 . S
Cd4 O12 2.277 . S
Cd4 O13 2.356 . S
C5 O10 1.209 . S
C5 O12 1.226 . S
O6 Cd2 2.273 . S
O6 Cd4 2.411 . S
O6 C9 1.320 . S
O7 Cd4 2.333 . S
O7 C9 1.214 . S
O8 Cd4 2.352 . S
O8 C11 1.258 . S
C9 O6 1.320 . S
C9 O7 1.214 . S
O10 Cd2 2.277 . S
O10 C5 1.209 . S
C11 O8 1.258 . S
C11 O13 1.282 . S
O12 Cd4 2.277 . S
O12 C5 1.226 . S
O13 Cd4 2.356 . S
O13 C11 1.282 . S
C14 O15 1.306 . S
C14 O17 1.160 . S
O15 C14 1.306 . S
O15 Cd16 2.228 . S
Cd16 O15 2.228 . S
Cd16 O20 2.273 . S
Cd16 O24 2.277 . S
O17 C14 1.160 . S
O17 Cd18 2.203 . S
Cd18 O17 2.203 . S
Cd18 O20 2.411 . S
Cd18 O21 2.333 . S
Cd18 O22 2.352 . S
Cd18 O26 2.277 . S
Cd18 O27 2.356 . S
C19 O24 1.209 . S
C19 O26 1.226 . S
O20 Cd16 2.273 . S
O20 Cd18 2.411 . S
O20 C23 1.320 . S
O21 Cd18 2.333 . S
O21 C23 1.214 . S
O22 Cd18 2.352 . S
O22 C25 1.258 . S
C23 O20 1.320 . S
C23 O21 1.214 . S
O24 Cd16 2.277 . S
O24 C19 1.209 . S
C25 O22 1.258 . S
C25 O27 1.282 . S
O26 Cd18 2.277 . S
O26 C19 1.226 . S
O27 Cd18 2.356 . S
O27 C25 1.282 . S
C28 O29 1.306 . S
C28 O31 1.160 . S
O29 C28 1.306 . S
O29 Cd30 2.228 . S
Cd30 O29 2.228 . S
Cd30 O34 2.273 . S
Cd30 O38 2.277 . S
O31 C28 1.160 . S
O31 Cd32 2.203 . S
Cd32 O31 2.203 . S
Cd32 O34 2.411 . S
Cd32 O35 2.333 . S
Cd32 O36 2.352 . S
Cd32 O40 2.277 . S
Cd32 O41 2.356 . S
C33 O38 1.209 . S
C33 O40 1.226 . S
O34 Cd30 2.273 . S
O34 Cd32 2.411 . S
O34 C37 1.320 . S
O35 Cd32 2.333 . S
O35 C37 1.214 . S
O36 Cd32 2.352 . S
O36 C39 1.258 . S
C37 O34 1.320 . S
C37 O35 1.214 . S
O38 Cd30 2.277 . S
O38 C33 1.209 . S
C39 O36 1.258 . S
C39 O41 1.282 . S
O40 Cd32 2.277 . S
O40 C33 1.226 . S
O41 Cd32 2.356 . S
O41 C39 1.282 . S
C42 O43 1.306 . S
C42 O45 1.160 . S
O43 C42 1.306 . S
O43 Cd44 2.228 . S
Cd44 O43 2.228 . S
Cd44 O48 2.273 . S
Cd44 O52 2.277 . S
O45 C42 1.160 . S
O45 Cd46 2.203 . S
Cd46 O45 2.203 . S
Cd46 O48 2.411 . S
Cd46 O49 2.333 . S
Cd46 O50 2.352 . S
Cd46 O54 2.277 . S
Cd46 O55 2.356 . S
C47 O52 1.209 . S
C47 O54 1.226 . S
O48 Cd44 2.273 . S
O48 Cd46 2.411 . S
O48 C51 1.320 . S
O49 Cd46 2.333 . S
O49 C51 1.214 . S
O50 Cd46 2.352 . S
O50 C53 1.258 . S
C51 O48 1.320 . S
C51 O49 1.214 . S
O52 Cd44 2.277 . S
O52 C47 1.209 . S
C53 O50 1.258 . S
C53 O55 1.282 . S
O54 Cd46 2.277 . S
O54 C47 1.226 . S
O55 Cd46 2.356 . S
O55 C53 1.282 . S
C56 O57 1.306 . S
C56 O59 1.160 . S
O57 C56 1.306 . S
O57 Cd58 2.228 . S
Cd58 O57 2.228 . S
Cd58 O62 2.273 . S
Cd58 O66 2.277 . S
O59 C56 1.160 . S
O59 Cd60 2.203 . S
Cd60 O59 2.203 . S
Cd60 O62 2.411 . S
Cd60 O63 2.333 . S
Cd60 O64 2.352 . S
Cd60 O68 2.277 . S
Cd60 O69 2.356 . S
C61 O66 1.209 . S
C61 O68 1.226 . S
O62 Cd58 2.273 . S
O62 Cd60 2.411 . S
O62 C65 1.320 . S
O63 Cd60 2.333 . S
O63 C65 1.214 . S
O64 Cd60 2.352 . S
O64 C67 1.258 . S
C65 O62 1.320 . S
C65 O63 1.214 . S
O66 Cd58 2.277 . S
O66 C61 1.209 . S
C67 O64 1.258 . S
C67 O69 1.282 . S
O68 Cd60 2.277 . S
O68 C61 1.226 . S
O69 Cd60 2.356 . S
O69 C67 1.282 . S
C70 O71 1.306 . S
C70 O73 1.160 . S
O71 C70 1.306 . S
O71 Cd72 2.228 . S
Cd72 O71 2.228 . S
Cd72 O76 2.273 . S
Cd72 O80 2.277 . S
O73 C70 1.160 . S
O73 Cd74 2.203 . S
Cd74 O73 2.203 . S
Cd74 O76 2.411 . S
Cd74 O77 2.333 . S
Cd74 O78 2.352 . S
Cd74 O82 2.277 . S
Cd74 O83 2.356 . S
C75 O80 1.209 . S
C75 O82 1.226 . S
O76 Cd72 2.273 . S
O76 Cd74 2.411 . S
O76 C79 1.320 . S
O77 Cd74 2.333 . S
O77 C79 1.214 . S
O78 Cd74 2.352 . S
O78 C81 1.258 . S
C79 O76 1.320 . S
C79 O77 1.214 . S
O80 Cd72 2.277 . S
O80 C75 1.209 . S
C81 O78 1.258 . S
C81 O83 1.282 . S
O82 Cd74 2.277 . S
O82 C75 1.226 . S
O83 Cd74 2.356 . S
O83 C81 1.282 . S
C84 O85 1.306 . S
C84 O87 1.160 . S
O85 C84 1.306 . S
O85 Cd86 2.228 . S
Cd86 O85 2.228 . S
Cd86 O90 2.273 . S
Cd86 O94 2.277 . S
O87 C84 1.160 . S
O87 Cd88 2.203 . S
Cd88 O87 2.203 . S
Cd88 O90 2.411 . S
Cd88 O91 2.333 . S
Cd88 O92 2.352 . S
Cd88 O96 2.277 . S
Cd88 O97 2.356 . S
C89 O94 1.209 . S
C89 O96 1.226 . S
O90 Cd86 2.273 . S
O90 Cd88 2.411 . S
O90 C93 1.320 . S
O91 Cd88 2.333 . S
O91 C93 1.214 . S
O92 Cd88 2.352 . S
O92 C95 1.258 . S
C93 O90 1.320 . S
C93 O91 1.214 . S
O94 Cd86 2.277 . S
O94 C89 1.209 . S
C95 O92 1.258 . S
C95 O97 1.282 . S
O96 Cd88 2.277 . S
O96 C89 1.226 . S
O97 Cd88 2.356 . S
O97 C95 1.282 . S
C98 O99 1.306 . S
C98 O101 1.160 . S
O99 C98 1.306 . S
O99 Cd100 2.228 . S
Cd100 O99 2.228 . S
Cd100 O104 2.273 . S
Cd100 O108 2.277 . S
O101 C98 1.160 . S
O101 Cd102 2.203 . S
Cd102 O101 2.203 . S
Cd102 O104 2.411 . S
Cd102 O105 2.333 . S
Cd102 O106 2.352 . S
Cd102 O110 2.277 . S
Cd102 O111 2.356 . S
C103 O108 1.209 . S
C103 O110 1.226 . S
O104 Cd100 2.273 . S
O104 Cd102 2.411 . S
O104 C107 1.320 . S
O105 Cd102 2.333 . S
O105 C107 1.214 . S
O106 Cd102 2.352 . S
O106 C109 1.258 . S
C107 O104 1.320 . S
C107 O105 1.214 . S
O108 Cd100 2.277 . S
O108 C103 1.209 . S
C109 O106 1.258 . S
C109 O111 1.282 . S
O110 Cd102 2.277 . S
O110 C103 1.226 . S
O111 Cd102 2.356 . S
O111 C109 1.282 . S
C112 O113 1.306 . S
C112 O115 1.160 . S
O113 C112 1.306 . S
O113 Cd114 2.228 . S
Cd114 O113 2.228 . S
Cd114 O118 2.273 . S
Cd114 O122 2.277 . S
O115 C112 1.160 . S
O115 Cd116 2.203 . S
Cd116 O115 2.203 . S
Cd116 O118 2.411 . S
Cd116 O119 2.333 . S
Cd116 O120 2.352 . S
Cd116 O124 2.277 . S
Cd116 O125 2.356 . S
C117 O122 1.209 . S
C117 O124 1.226 . S
O118 Cd114 2.273 . S
O118 Cd116 2.411 . S
O118 C121 1.320 . S
O119 Cd116 2.333 . S
O119 C121 1.214 . S
O120 Cd116 2.352 . S
O120 C123 1.258 . S
C121 O118 1.320 . S
C121 O119 1.214 . S
O122 Cd114 2.277 . S
O122 C117 1.209 . S
C123 O120 1.258 . S
C123 O125 1.282 . S
O124 Cd116 2.277 . S
O124 C117 1.226 . S
O125 Cd116 2.356 . S
O125 C123 1.282 . S
C126 O127 1.306 . S
C126 O129 1.160 . S
O127 C126 1.306 . S
O127 Cd128 2.228 . S
Cd128 O127 2.228 . S
Cd128 O132 2.273 . S
Cd128 O136 2.277 . S
O129 C126 1.160 . S
O129 Cd130 2.203 . S
Cd130 O129 2.203 . S
Cd130 O132 2.411 . S
Cd130 O133 2.333 . S
Cd130 O134 2.352 . S
Cd130 O138 2.277 . S
Cd130 O139 2.356 . S
C131 O136 1.209 . S
C131 O138 1.226 . S
O132 Cd128 2.273 . S
O132 Cd130 2.411 . S
O132 C135 1.320 . S
O133 Cd130 2.333 . S
O133 C135 1.214 . S
O134 Cd130 2.352 . S
O134 C137 1.258 . S
C135 O132 1.320 . S
C135 O133 1.214 . S
O136 Cd128 2.277 . S
O136 C131 1.209 . S
C137 O134 1.258 . S
C137 O139 1.282 . S
O138 Cd130 2.277 . S
O138 C131 1.226 . S
O139 Cd130 2.356 . S
O139 C137 1.282 . S
C140 O141 1.306 . S
C140 O143 1.160 . S
O141 C140 1.306 . S
O141 Cd142 2.228 . S
Cd142 O141 2.228 . S
Cd142 O146 2.273 . S
Cd142 O150 2.277 . S
O143 C140 1.160 . S
O143 Cd144 2.203 . S
Cd144 O143 2.203 . S
Cd144 O146 2.411 . S
Cd144 O147 2.333 . S
Cd144 O148 2.352 . S
Cd144 O152 2.277 . S
Cd144 O153 2.356 . S
C145 O150 1.209 . S
C145 O152 1.226 . S
O146 Cd142 2.273 . S
O146 Cd144 2.411 . S
O146 C149 1.320 . S
O147 Cd144 2.333 . S
O147 C149 1.214 . S
O148 Cd144 2.352 . S
O148 C151 1.258 . S
C149 O146 1.320 . S
C149 O147 1.214 . S
O150 Cd142 2.277 . S
O150 C145 1.209 . S
C151 O148 1.258 . S
C151 O153 1.282 . S
O152 Cd144 2.277 . S
O152 C145 1.226 . S
O153 Cd144 2.356 . S
O153 C151 1.282 . S
C154 O155 1.306 . S
C154 O157 1.160 . S
O155 C154 1.306 . S
O155 Cd156 2.228 . S
Cd156 O155 2.228 . S
Cd156 O160 2.273 . S
Cd156 O164 2.277 . S
O157 C154 1.160 . S
O157 Cd158 2.203 . S
Cd158 O157 2.203 . S
Cd158 O160 2.411 . S
Cd158 O161 2.333 . S
Cd158 O162 2.352 . S
Cd158 O166 2.277 . S
Cd158 O167 2.356 . S
C159 O164 1.209 . S
C159 O166 1.226 . S
O160 Cd156 2.273 . S
O160 Cd158 2.411 . S
O160 C163 1.320 . S
O161 Cd158 2.333 . S
O161 C163 1.214 . S
O162 Cd158 2.352 . S
O162 C165 1.258 . S
C163 O160 1.320 . S
C163 O161 1.214 . S
O164 Cd156 2.277 . S
O164 C159 1.209 . S
C165 O162 1.258 . S
C165 O167 1.282 . S
O166 Cd158 2.277 . S
O166 C159 1.226 . S
O167 Cd158 2.356 . S
O167 C165 1.282 . S
C168 O169 1.306 . S
C168 O171 1.160 . S
O169 C168 1.306 . S
O169 Cd170 2.228 . S
Cd170 O169 2.228 . S
Cd170 O174 2.273 . S
Cd170 O178 2.277 . S
O171 C168 1.160 . S
O171 Cd172 2.203 . S
Cd172 O171 2.203 . S
Cd172 O174 2.411 . S
Cd172 O175 2.333 . S
Cd172 O176 2.352 . S
Cd172 O180 2.277 . S
Cd172 O181 2.356 . S
C173 O178 1.209 . S
C173 O180 1.226 . S
O174 Cd170 2.273 . S
O174 Cd172 2.411 . S
O174 C177 1.320 . S
O175 Cd172 2.333 . S
O175 C177 1.214 . S
O176 Cd172 2.352 . S
O176 C179 1.258 . S
C177 O174 1.320 . S
C177 O175 1.214 . S
O178 Cd170 2.277 . S
O178 C173 1.209 . S
C179 O176 1.258 . S
C179 O181 1.282 . S
O180 Cd172 2.277 . S
O180 C173 1.226 . S
O181 Cd172 2.356 . S
O181 C179 1.282 . S
C182 O183 1.306 . S
C182 O185 1.160 . S
O183 C182 1.306 . S
O183 Cd184 2.228 . S
Cd184 O183 2.228 . S
Cd184 O188 2.273 . S
Cd184 O192 2.277 . S
O185 C182 1.160 . S
O185 Cd186 2.203 . S
Cd186 O185 2.203 . S
Cd186 O188 2.411 . S
Cd186 O189 2.333 . S
Cd186 O190 2.352 . S
Cd186 O194 2.277 . S
Cd186 O195 2.356 . S
C187 O192 1.209 . S
C187 O194 1.226 . S
O188 Cd184 2.273 . S
O188 Cd186 2.411 . S
O188 C191 1.320 . S
O189 Cd186 2.333 . S
O189 C191 1.214 . S
O190 Cd186 2.352 . S
O190 C193 1.258 . S
C191 O188 1.320 . S
C191 O189 1.214 . S
O192 Cd184 2.277 . S
O192 C187 1.209 . S
C193 O190 1.258 . S
C193 O195 1.282 . S
O194 Cd186 2.277 . S
O194 C187 1.226 . S
O195 Cd186 2.356 . S
O195 C193 1.282 . S
C196 O197 1.306 . S
C196 O199 1.160 . S
O197 C196 1.306 . S
O197 Cd198 2.228 . S
Cd198 O197 2.228 . S
Cd198 O202 2.273 . S
Cd198 O206 2.277 . S
O199 C196 1.160 . S
O199 Cd200 2.203 . S
Cd200 O199 2.203 . S
Cd200 O202 2.411 . S
Cd200 O203 2.333 . S
Cd200 O204 2.352 . S
Cd200 O208 2.277 . S
Cd200 O209 2.356 . S
C201 O206 1.209 . S
C201 O208 1.226 . S
O202 Cd198 2.273 . S
O202 Cd200 2.411 . S
O202 C205 1.320 . S
O203 Cd200 2.333 . S
O203 C205 1.214 . S
O204 Cd200 2.352 . S
O204 C207 1.258 . S
C205 O202 1.320 . S
C205 O203 1.214 . S
O206 Cd198 2.277 . S
O206 C201 1.209 . S
C207 O204 1.258 . S
C207 O209 1.282 . S
O208 Cd200 2.277 . S
O208 C201 1.226 . S
O209 Cd200 2.356 . S
O209 C207 1.282 . S
C210 O211 1.306 . S
C210 O213 1.160 . S
O211 C210 1.306 . S
O211 Cd212 2.228 . S
Cd212 O211 2.228 . S
Cd212 O216 2.273 . S
Cd212 O220 2.277 . S
O213 C210 1.160 . S
O213 Cd214 2.203 . S
Cd214 O213 2.203 . S
Cd214 O216 2.411 . S
Cd214 O217 2.333 . S
Cd214 O218 2.352 . S
Cd214 O222 2.277 . S
Cd214 O223 2.356 . S
C215 O220 1.209 . S
C215 O222 1.226 . S
O216 Cd212 2.273 . S
O216 Cd214 2.411 . S
O216 C219 1.320 . S
O217 Cd214 2.333 . S
O217 C219 1.214 . S
O218 Cd214 2.352 . S
O218 C221 1.258 . S
C219 O216 1.320 . S
C219 O217 1.214 . S
O220 Cd212 2.277 . S
O220 C215 1.209 . S
C221 O218 1.258 . S
C221 O223 1.282 . S
O222 Cd214 2.277 . S
O222 C215 1.226 . S
O223 Cd214 2.356 . S
O223 C221 1.282 . S
C224 C225 1.363 . S
C224 C230 1.379 . S
C224 N232 1.356 . S
C225 C224 1.363 . S
C225 C231 1.363 . S
C226 C227 1.363 . S
C226 C231 1.379 . S
C226 N233 1.356 . S
C227 C226 1.363 . S
C227 C230 1.363 . S
N228 C230 1.356 . S
N228 H240 0.984 . S
N228 H241 0.985 . S
N229 C231 1.356 . S
N229 H234 0.984 . S
N229 H235 0.985 . S
C230 C224 1.379 . S
C230 C227 1.363 . S
C230 N228 1.356 . S
C231 C225 1.363 . S
C231 C226 1.379 . S
C231 N229 1.356 . S
N232 C224 1.356 . S
N232 H238 0.984 . S
N232 H239 0.984 . S
N233 C226 1.356 . S
N233 H236 0.984 . S
N233 H237 0.985 . S
H234 N229 0.984 . S
H235 N229 0.985 . S
H236 N233 0.984 . S
H237 N233 0.985 . S
H238 N232 0.984 . S
H239 N232 0.984 . S
H240 N228 0.984 . S
H241 N228 0.985 . S
C242 C243 1.363 . S
C242 C248 1.379 . S
C242 N250 1.356 . S
C243 C242 1.363 . S
C243 C249 1.363 . S
C244 C245 1.363 . S
C244 C249 1.379 . S
C244 N251 1.356 . S
C245 C244 1.363 . S
C245 C248 1.363 . S
N246 C248 1.356 . S
N246 H258 0.984 . S
N246 H259 0.985 . S
N247 C249 1.356 . S
N247 H252 0.984 . S
N247 H253 0.985 . S
C248 C242 1.379 . S
C248 C245 1.363 . S
C248 N246 1.356 . S
C249 C243 1.363 . S
C249 C244 1.379 . S
C249 N247 1.356 . S
N250 C242 1.356 . S
N250 H256 0.984 . S
N250 H257 0.984 . S
N251 C244 1.356 . S
N251 H254 0.984 . S
N251 H255 0.985 . S
H252 N247 0.984 . S
H253 N247 0.985 . S
H254 N251 0.984 . S
H255 N251 0.985 . S
H256 N250 0.984 . S
H257 N250 0.984 . S
H258 N246 0.984 . S
H259 N246 0.985 . S
C260 C261 1.363 . S
C260 C266 1.379 . S
C260 N268 1.356 . S
C261 C260 1.363 . S
C261 C267 1.363 . S
C262 C263 1.363 . S
C262 C267 1.379 . S
C262 N269 1.356 . S
C263 C262 1.363 . S
C263 C266 1.363 . S
N264 C266 1.356 . S
N264 H276 0.984 . S
N264 H277 0.985 . S
N265 C267 1.356 . S
N265 H270 0.984 . S
N265 H271 0.985 . S
C266 C260 1.379 . S
C266 C263 1.363 . S
C266 N264 1.356 . S
C267 C261 1.363 . S
C267 C262 1.379 . S
C267 N265 1.356 . S
N268 C260 1.356 . S
N268 H274 0.984 . S
N268 H275 0.984 . S
N269 C262 1.356 . S
N269 H272 0.984 . S
N269 H273 0.985 . S
H270 N265 0.984 . S
H271 N265 0.985 . S
H272 N269 0.984 . S
H273 N269 0.985 . S
H274 N268 0.984 . S
H275 N268 0.984 . S
H276 N264 0.984 . S
H277 N264 0.985 . S
C278 C279 1.363 . S
C278 C284 1.379 . S
C278 N286 1.356 . S
C279 C278 1.363 . S
C279 C285 1.363 . S
C280 C281 1.363 . S
C280 C285 1.379 . S
C280 N287 1.356 . S
C281 C280 1.363 . S
C281 C284 1.363 . S
N282 C284 1.356 . S
N282 H294 0.984 . S
N282 H295 0.985 . S
N283 C285 1.356 . S
N283 H288 0.984 . S
N283 H289 0.985 . S
C284 C278 1.379 . S
C284 C281 1.363 . S
C284 N282 1.356 . S
C285 C279 1.363 . S
C285 C280 1.379 . S
C285 N283 1.356 . S
N286 C278 1.356 . S
N286 H292 0.984 . S
N286 H293 0.984 . S
N287 C280 1.356 . S
N287 H290 0.984 . S
N287 H291 0.985 . S
H288 N283 0.984 . S
H289 N283 0.985 . S
H290 N287 0.984 . S
H291 N287 0.985 . S
H292 N286 0.984 . S
H293 N286 0.984 . S
H294 N282 0.984 . S
H295 N282 0.985 . S
C296 C297 1.363 . S
C296 C302 1.379 . S
C296 N304 1.356 . S
C297 C296 1.363 . S
C297 C303 1.363 . S
C298 C299 1.363 . S
C298 C303 1.379 . S
C298 N305 1.356 . S
C299 C298 1.363 . S
C299 C302 1.363 . S
N300 C302 1.356 . S
N300 H312 0.984 . S
N300 H313 0.985 . S
N301 C303 1.356 . S
N301 H306 0.984 . S
N301 H307 0.985 . S
C302 C296 1.379 . S
C302 C299 1.363 . S
C302 N300 1.356 . S
C303 C297 1.363 . S
C303 C298 1.379 . S
C303 N301 1.356 . S
N304 C296 1.356 . S
N304 H310 0.984 . S
N304 H311 0.984 . S
N305 C298 1.356 . S
N305 H308 0.984 . S
N305 H309 0.985 . S
H306 N301 0.984 . S
H307 N301 0.985 . S
H308 N305 0.984 . S
H309 N305 0.985 . S
H310 N304 0.984 . S
H311 N304 0.984 . S
H312 N300 0.984 . S
H313 N300 0.985 . S
C314 C315 1.363 . S
C314 C320 1.379 . S
C314 N322 1.356 . S
C315 C314 1.363 . S
C315 C321 1.363 . S
C316 C317 1.363 . S
C316 C321 1.379 . S
C316 N323 1.356 . S
C317 C316 1.363 . S
C317 C320 1.363 . S
N318 C320 1.356 . S
N318 H330 0.984 . S
N318 H331 0.985 . S
N319 C321 1.356 . S
N319 H324 0.984 . S
N319 H325 0.985 . S
C320 C314 1.379 . S
C320 C317 1.363 . S
C320 N318 1.356 . S
C321 C315 1.363 . S
C321 C316 1.379 . S
C321 N319 1.356 . S
N322 C314 1.356 . S
N322 H328 0.984 . S
N322 H329 0.984 . S
N323 C316 1.356 . S
N323 H326 0.984 . S
N323 H327 0.985 . S
H324 N319 0.984 . S
H325 N319 0.985 . S
H326 N323 0.984 . S
H327 N323 0.985 . S
H328 N322 0.984 . S
H329 N322 0.984 . S
H330 N318 0.984 . S
H331 N318 0.985 . S
C332 C333 1.363 . S
C332 C338 1.379 . S
C332 N340 1.356 . S
C333 C332 1.363 . S
C333 C339 1.363 . S
C334 C335 1.363 . S
C334 C339 1.379 . S
C334 N341 1.356 . S
C335 C334 1.363 . S
C335 C338 1.363 . S
N336 C338 1.356 . S
N336 H348 0.984 . S
N336 H349 0.985 . S
N337 C339 1.356 . S
N337 H342 0.984 . S
N337 H343 0.985 . S
C338 C332 1.379 . S
C338 C335 1.363 . S
C338 N336 1.356 . S
C339 C333 1.363 . S
C339 C334 1.379 . S
C339 N337 1.356 . S
N340 C332 1.356 . S
N340 H346 0.984 . S
N340 H347 0.984 . S
N341 C334 1.356 . S
N341 H344 0.984 . S
N341 H345 0.985 . S
H342 N337 0.984 . S
H343 N337 0.985 . S
H344 N341 0.984 . S
H345 N341 0.985 . S
H346 N340 0.984 . S
H347 N340 0.984 . S
H348 N336 0.984 . S
H349 N336 0.985 . S
C350 C351 1.363 . S
C350 C356 1.379 . S
C350 N358 1.356 . S
C351 C350 1.363 . S
C351 C357 1.363 . S
C352 C353 1.363 . S
C352 C357 1.379 . S
C352 N359 1.356 . S
C353 C352 1.363 . S
C353 C356 1.363 . S
N354 C356 1.356 . S
N354 H366 0.984 . S
N354 H367 0.985 . S
N355 C357 1.356 . S
N355 H360 0.984 . S
N355 H361 0.985 . S
C356 C350 1.379 . S
C356 C353 1.363 . S
C356 N354 1.356 . S
C357 C351 1.363 . S
C357 C352 1.379 . S
C357 N355 1.356 . S
N358 C350 1.356 . S
N358 H364 0.984 . S
N358 H365 0.984 . S
N359 C352 1.356 . S
N359 H362 0.984 . S
N359 H363 0.985 . S
H360 N355 0.984 . S
H361 N355 0.985 . S
H362 N359 0.984 . S
H363 N359 0.985 . S
H364 N358 0.984 . S
H365 N358 0.984 . S
H366 N354 0.984 . S
H367 N354 0.985 . S
C368 C369 1.363 . S
C368 C374 1.379 1_556 S
C368 N376 1.356 . S
C369 C368 1.363 . S
C369 C375 1.363 . S
C370 C371 1.363 . S
C370 C375 1.379 1_554 S
C370 N377 1.356 . S
C371 C370 1.363 . S
C371 C374 1.363 . S
N372 C374 1.356 . S
N372 H384 0.984 . S
N372 H385 0.985 . S
N373 C375 1.356 . S
N373 H378 0.984 . S
N373 H379 0.985 . S
C374 C368 1.379 1_554 S
C374 C371 1.363 . S
C374 N372 1.356 . S
C375 C369 1.363 . S
C375 C370 1.379 1_556 S
C375 N373 1.356 . S
N376 C368 1.356 . S
N376 H382 0.984 . S
N376 H383 0.984 . S
N377 C370 1.356 . S
N377 H380 0.984 . S
N377 H381 0.985 . S
H378 N373 0.984 . S
H379 N373 0.985 . S
H380 N377 0.984 . S
H381 N377 0.985 . S
H382 N376 0.984 . S
H383 N376 0.984 . S
H384 N372 0.984 . S
H385 N372 0.985 . S
C386 C387 1.363 . S
C386 C392 1.379 1_556 S
C386 N394 1.356 . S
C387 C386 1.363 . S
C387 C393 1.363 . S
C388 C389 1.363 . S
C388 C393 1.379 1_554 S
C388 N395 1.356 . S
C389 C388 1.363 . S
C389 C392 1.363 . S
N390 C392 1.356 . S
N390 H402 0.984 . S
N390 H403 0.985 . S
N391 C393 1.356 . S
N391 H396 0.984 . S
N391 H397 0.985 . S
C392 C386 1.379 1_554 S
C392 C389 1.363 . S
C392 N390 1.356 . S
C393 C387 1.363 . S
C393 C388 1.379 1_556 S
C393 N391 1.356 . S
N394 C386 1.356 . S
N394 H400 0.984 . S
N394 H401 0.984 . S
N395 C388 1.356 . S
N395 H398 0.984 . S
N395 H399 0.985 . S
H396 N391 0.984 . S
H397 N391 0.985 . S
H398 N395 0.984 . S
H399 N395 0.985 . S
H400 N394 0.984 . S
H401 N394 0.984 . S
H402 N390 0.984 . S
H403 N390 0.985 . S
C404 C405 1.363 . S
C404 C410 1.379 1_556 S
C404 N412 1.356 . S
C405 C404 1.363 . S
C405 C411 1.363 . S
C406 C407 1.363 . S
C406 C411 1.379 1_554 S
C406 N413 1.356 . S
C407 C406 1.363 . S
C407 C410 1.363 . S
N408 C410 1.356 . S
N408 H420 0.984 . S
N408 H421 0.985 . S
N409 C411 1.356 . S
N409 H414 0.984 . S
N409 H415 0.985 . S
C410 C404 1.379 1_554 S
C410 C407 1.363 . S
C410 N408 1.356 . S
C411 C405 1.363 . S
C411 C406 1.379 1_556 S
C411 N409 1.356 . S
N412 C404 1.356 . S
N412 H418 0.984 . S
N412 H419 0.984 . S
N413 C406 1.356 . S
N413 H416 0.984 . S
N413 H417 0.985 . S
H414 N409 0.984 . S
H415 N409 0.985 . S
H416 N413 0.984 . S
H417 N413 0.985 . S
H418 N412 0.984 . S
H419 N412 0.984 . S
H420 N408 0.984 . S
H421 N408 0.985 . S
C422 C423 1.363 . S
C422 C428 1.379 1_554 S
C422 N430 1.356 . S
C423 C422 1.363 . S
C423 C429 1.363 . S
C424 C425 1.363 . S
C424 C429 1.379 1_556 S
C424 N431 1.356 . S
C425 C424 1.363 . S
C425 C428 1.363 . S
N426 C428 1.356 . S
N426 H438 0.984 . S
N426 H439 0.985 . S
N427 C429 1.356 . S
N427 H432 0.984 . S
N427 H433 0.985 . S
C428 C422 1.379 1_556 S
C428 C425 1.363 . S
C428 N426 1.356 . S
C429 C423 1.363 . S
C429 C424 1.379 1_554 S
C429 N427 1.356 . S
N430 C422 1.356 . S
N430 H436 0.984 . S
N430 H437 0.984 . S
N431 C424 1.356 . S
N431 H434 0.984 . S
N431 H435 0.985 . S
H432 N427 0.984 . S
H433 N427 0.985 . S
H434 N431 0.984 . S
H435 N431 0.985 . S
H436 N430 0.984 . S
H437 N430 0.984 . S
H438 N426 0.984 . S
H439 N426 0.985 . S
C440 C441 1.363 . S
C440 C446 1.379 . S
C440 N448 1.356 . S
C441 C440 1.363 . S
C441 C447 1.363 . S
C442 C443 1.363 . S
C442 C447 1.379 . S
C442 N449 1.356 . S
C443 C442 1.363 . S
C443 C446 1.363 . S
N444 C446 1.356 . S
N444 H456 0.984 . S
N444 H457 0.985 . S
N445 C447 1.356 . S
N445 H450 0.984 . S
N445 H451 0.985 . S
C446 C440 1.379 . S
C446 C443 1.363 . S
C446 N444 1.356 . S
C447 C441 1.363 . S
C447 C442 1.379 . S
C447 N445 1.356 . S
N448 C440 1.356 . S
N448 H454 0.984 . S
N448 H455 0.984 . S
N449 C442 1.356 . S
N449 H452 0.984 . S
N449 H453 0.985 . S
H450 N445 0.984 . S
H451 N445 0.985 . S
H452 N449 0.984 . S
H453 N449 0.985 . S
H454 N448 0.984 . S
H455 N448 0.984 . S
H456 N444 0.984 . S
H457 N444 0.985 . S
C458 C459 1.363 . S
C458 C464 1.379 . S
C458 N466 1.356 . S
C459 C458 1.363 . S
C459 C465 1.363 . S
C460 C461 1.363 . S
C460 C465 1.379 . S
C460 N467 1.356 . S
C461 C460 1.363 . S
C461 C464 1.363 . S
N462 C464 1.356 . S
N462 H474 0.984 . S
N462 H475 0.985 . S
N463 C465 1.356 . S
N463 H468 0.984 . S
N463 H469 0.985 . S
C464 C458 1.379 . S
C464 C461 1.363 . S
C464 N462 1.356 . S
C465 C459 1.363 . S
C465 C460 1.379 . S
C465 N463 1.356 . S
N466 C458 1.356 . S
N466 H472 0.984 . S
N466 H473 0.984 . S
N467 C460 1.356 . S
N467 H470 0.984 . S
N467 H471 0.985 . S
H468 N463 0.984 . S
H469 N463 0.985 . S
H470 N467 0.984 . S
H471 N467 0.985 . S
H472 N466 0.984 . S
H473 N466 0.984 . S
H474 N462 0.984 . S
H475 N462 0.985 . S
C476 C477 1.363 . S
C476 C482 1.379 . S
C476 N484 1.356 . S
C477 C476 1.363 . S
C477 C483 1.363 . S
C478 C479 1.363 . S
C478 C483 1.379 . S
C478 N485 1.356 . S
C479 C478 1.363 . S
C479 C482 1.363 . S
N480 C482 1.356 . S
N480 H492 0.984 . S
N480 H493 0.985 . S
N481 C483 1.356 . S
N481 H486 0.984 . S
N481 H487 0.985 . S
C482 C476 1.379 . S
C482 C479 1.363 . S
C482 N480 1.356 . S
C483 C477 1.363 . S
C483 C478 1.379 . S
C483 N481 1.356 . S
N484 C476 1.356 . S
N484 H490 0.984 . S
N484 H491 0.984 . S
N485 C478 1.356 . S
N485 H488 0.984 . S
N485 H489 0.985 . S
H486 N481 0.984 . S
H487 N481 0.985 . S
H488 N485 0.984 . S
H489 N485 0.985 . S
H490 N484 0.984 . S
H491 N484 0.984 . S
H492 N480 0.984 . S
H493 N480 0.985 . S
C494 C495 1.363 . S
C494 C500 1.379 . S
C494 N502 1.356 . S
C495 C494 1.363 . S
C495 C501 1.363 . S
C496 C497 1.363 . S
C496 C501 1.379 . S
C496 N503 1.356 . S
C497 C496 1.363 . S
C497 C500 1.363 . S
N498 C500 1.356 . S
N498 H510 0.984 . S
N498 H511 0.985 . S
N499 C501 1.356 . S
N499 H504 0.984 . S
N499 H505 0.985 . S
C500 C494 1.379 . S
C500 C497 1.363 . S
C500 N498 1.356 . S
C501 C495 1.363 . S
C501 C496 1.379 . S
C501 N499 1.356 . S
N502 C494 1.356 . S
N502 H508 0.984 . S
N502 H509 0.984 . S
N503 C496 1.356 . S
N503 H506 0.984 . S
N503 H507 0.985 . S
H504 N499 0.984 . S
H505 N499 0.985 . S
H506 N503 0.984 . S
H507 N503 0.985 . S
H508 N502 0.984 . S
H509 N502 0.984 . S
H510 N498 0.984 . S
H511 N498 0.985 . S
C512 C513 1.363 . S
C512 C518 1.379 . S
C512 N520 1.356 . S
C513 C512 1.363 . S
C513 C519 1.363 . S
C514 C515 1.363 . S
C514 C519 1.379 . S
C514 N521 1.356 . S
C515 C514 1.363 . S
C515 C518 1.363 . S
N516 C518 1.356 . S
N516 H528 0.984 . S
N516 H529 0.985 . S
N517 C519 1.356 . S
N517 H522 0.984 . S
N517 H523 0.985 . S
C518 C512 1.379 . S
C518 C515 1.363 . S
C518 N516 1.356 . S
C519 C513 1.363 . S
C519 C514 1.379 . S
C519 N517 1.356 . S
N520 C512 1.356 . S
N520 H526 0.984 . S
N520 H527 0.984 . S
N521 C514 1.356 . S
N521 H524 0.984 . S
N521 H525 0.985 . S
H522 N517 0.984 . S
H523 N517 0.985 . S
H524 N521 0.984 . S
H525 N521 0.985 . S
H526 N520 0.984 . S
H527 N520 0.984 . S
H528 N516 0.984 . S
H529 N516 0.985 . S
C530 C531 1.363 . S
C530 C536 1.379 . S
C530 N538 1.356 . S
C531 C530 1.363 . S
C531 C537 1.363 . S
C532 C533 1.363 . S
C532 C537 1.379 . S
C532 N539 1.356 . S
C533 C532 1.363 . S
C533 C536 1.363 . S
N534 C536 1.356 . S
N534 H546 0.984 . S
N534 H547 0.985 . S
N535 C537 1.356 . S
N535 H540 0.984 . S
N535 H541 0.985 . S
C536 C530 1.379 . S
C536 C533 1.363 . S
C536 N534 1.356 . S
C537 C531 1.363 . S
C537 C532 1.379 . S
C537 N535 1.356 . S
N538 C530 1.356 . S
N538 H544 0.984 . S
N538 H545 0.984 . S
N539 C532 1.356 . S
N539 H542 0.984 . S
N539 H543 0.985 . S
H540 N535 0.984 . S
H541 N535 0.985 . S
H542 N539 0.984 . S
H543 N539 0.985 . S
H544 N538 0.984 . S
H545 N538 0.984 . S
H546 N534 0.984 . S
H547 N534 0.985 . S
C548 C549 1.363 . S
C548 C554 1.379 . S
C548 N556 1.356 . S
C549 C548 1.363 . S
C549 C555 1.363 . S
C550 C551 1.363 . S
C550 C555 1.379 . S
C550 N557 1.356 . S
C551 C550 1.363 . S
C551 C554 1.363 . S
N552 C554 1.356 . S
N552 H564 0.984 . S
N552 H565 0.985 . S
N553 C555 1.356 . S
N553 H558 0.984 . S
N553 H559 0.985 . S
C554 C548 1.379 . S
C554 C551 1.363 . S
C554 N552 1.356 . S
C555 C549 1.363 . S
C555 C550 1.379 . S
C555 N553 1.356 . S
N556 C548 1.356 . S
N556 H562 0.984 . S
N556 H563 0.984 . S
N557 C550 1.356 . S
N557 H560 0.984 . S
N557 H561 0.985 . S
H558 N553 0.984 . S
H559 N553 0.985 . S
H560 N557 0.984 . S
H561 N557 0.985 . S
H562 N556 0.984 . S
H563 N556 0.984 . S
H564 N552 0.984 . S
H565 N552 0.985 . S
C566 C567 1.363 . S
C566 C572 1.379 . S
C566 N574 1.356 . S
C567 C566 1.363 . S
C567 C573 1.363 . S
C568 C569 1.363 . S
C568 C573 1.379 . S
C568 N575 1.356 . S
C569 C568 1.363 . S
C569 C572 1.363 . S
N570 C572 1.356 . S
N570 H582 0.984 . S
N570 H583 0.985 . S
N571 C573 1.356 . S
N571 H576 0.984 . S
N571 H577 0.985 . S
C572 C566 1.379 . S
C572 C569 1.363 . S
C572 N570 1.356 . S
C573 C567 1.363 . S
C573 C568 1.379 . S
C573 N571 1.356 . S
N574 C566 1.356 . S
N574 H580 0.984 . S
N574 H581 0.984 . S
N575 C568 1.356 . S
N575 H578 0.984 . S
N575 H579 0.985 . S
H576 N571 0.984 . S
H577 N571 0.985 . S
H578 N575 0.984 . S
H579 N575 0.985 . S
H580 N574 0.984 . S
H581 N574 0.984 . S
H582 N570 0.984 . S
H583 N570 0.985 . S
C584 C585 1.363 . S
C584 C590 1.379 . S
C584 N592 1.356 . S
C585 C584 1.363 . S
C585 C591 1.363 . S
C586 C587 1.363 . S
C586 C591 1.379 . S
C586 N593 1.356 . S
C587 C586 1.363 . S
C587 C590 1.363 . S
N588 C590 1.356 . S
N588 H600 0.984 . S
N588 H601 0.985 . S
N589 C591 1.356 . S
N589 H594 0.984 . S
N589 H595 0.985 . S
C590 C584 1.379 . S
C590 C587 1.363 . S
C590 N588 1.356 . S
C591 C585 1.363 . S
C591 C586 1.379 . S
C591 N589 1.356 . S
N592 C584 1.356 . S
N592 H598 0.984 . S
N592 H599 0.984 . S
N593 C586 1.356 . S
N593 H596 0.984 . S
N593 H597 0.985 . S
H594 N589 0.984 . S
H595 N589 0.985 . S
H596 N593 0.984 . S
H597 N593 0.985 . S
H598 N592 0.984 . S
H599 N592 0.984 . S
H600 N588 0.984 . S
H601 N588 0.985 . S
C602 C603 1.363 . S
C602 C608 1.379 . S
C602 N610 1.356 . S
C603 C602 1.363 . S
C603 C609 1.363 . S
C604 C605 1.363 . S
C604 C609 1.379 . S
C604 N611 1.356 . S
C605 C604 1.363 . S
C605 C608 1.363 . S
N606 C608 1.356 . S
N606 H618 0.984 . S
N606 H619 0.985 . S
N607 C609 1.356 . S
N607 H612 0.984 . S
N607 H613 0.985 . S
C608 C602 1.379 . S
C608 C605 1.363 . S
C608 N606 1.356 . S
C609 C603 1.363 . S
C609 C604 1.379 . S
C609 N607 1.356 . S
N610 C602 1.356 . S
N610 H616 0.984 . S
N610 H617 0.984 . S
N611 C604 1.356 . S
N611 H614 0.984 . S
N611 H615 0.985 . S
H612 N607 0.984 . S
H613 N607 0.985 . S
H614 N611 0.984 . S
H615 N611 0.985 . S
H616 N610 0.984 . S
H617 N610 0.984 . S
H618 N606 0.984 . S
H619 N606 0.985 . S
C620 C621 1.363 . S
C620 C626 1.379 . S
C620 N628 1.356 . S
C621 C620 1.363 . S
C621 C627 1.363 . S
C622 C623 1.363 . S
C622 C627 1.379 . S
C622 N629 1.356 . S
C623 C622 1.363 . S
C623 C626 1.363 . S
N624 C626 1.356 . S
N624 H636 0.984 . S
N624 H637 0.985 . S
N625 C627 1.356 . S
N625 H630 0.984 . S
N625 H631 0.985 . S
C626 C620 1.379 . S
C626 C623 1.363 . S
C626 N624 1.356 . S
C627 C621 1.363 . S
C627 C622 1.379 . S
C627 N625 1.356 . S
N628 C620 1.356 . S
N628 H634 0.984 . S
N628 H635 0.984 . S
N629 C622 1.356 . S
N629 H632 0.984 . S
N629 H633 0.985 . S
H630 N625 0.984 . S
H631 N625 0.985 . S
H632 N629 0.984 . S
H633 N629 0.985 . S
H634 N628 0.984 . S
H635 N628 0.984 . S
H636 N624 0.984 . S
H637 N624 0.985 . S
C638 C639 1.363 . S
C638 C644 1.379 . S
C638 N646 1.356 . S
C639 C638 1.363 . S
C639 C645 1.363 . S
C640 C641 1.363 . S
C640 C645 1.379 . S
C640 N647 1.356 . S
C641 C640 1.363 . S
C641 C644 1.363 . S
N642 C644 1.356 . S
N642 H654 0.984 . S
N642 H655 0.985 . S
N643 C645 1.356 . S
N643 H648 0.984 . S
N643 H649 0.985 . S
C644 C638 1.379 . S
C644 C641 1.363 . S
C644 N642 1.356 . S
C645 C639 1.363 . S
C645 C640 1.379 . S
C645 N643 1.356 . S
N646 C638 1.356 . S
N646 H652 0.984 . S
N646 H653 0.984 . S
N647 C640 1.356 . S
N647 H650 0.984 . S
N647 H651 0.985 . S
H648 N643 0.984 . S
H649 N643 0.985 . S
H650 N647 0.984 . S
H651 N647 0.985 . S
H652 N646 0.984 . S
H653 N646 0.984 . S
H654 N642 0.984 . S
H655 N642 0.985 . S
C656 C657 1.363 . S
C656 C662 1.379 1_545 S
C656 N664 1.356 . S
C657 C656 1.363 . S
C657 C663 1.363 . S
C658 C659 1.363 . S
C658 C663 1.379 1_565 S
C658 N665 1.356 . S
C659 C658 1.363 . S
C659 C662 1.363 . S
N660 C662 1.356 . S
N660 H672 0.984 . S
N660 H673 0.985 . S
N661 C663 1.356 . S
N661 H666 0.984 . S
N661 H667 0.985 . S
C662 C656 1.379 1_565 S
C662 C659 1.363 . S
C662 N660 1.356 . S
C663 C657 1.363 . S
C663 C658 1.379 1_545 S
C663 N661 1.356 . S
N664 C656 1.356 . S
N664 H670 0.984 . S
N664 H671 0.984 . S
N665 C658 1.356 . S
N665 H668 0.984 . S
N665 H669 0.985 . S
H666 N661 0.984 . S
H667 N661 0.985 . S
H668 N665 0.984 . S
H669 N665 0.985 . S
H670 N664 0.984 . S
H671 N664 0.984 . S
H672 N660 0.984 . S
H673 N660 0.985 . S
C674 C675 1.363 . S
C674 C680 1.379 1_655 S
C674 N682 1.356 . S
C675 C674 1.363 . S
C675 C681 1.363 . S
C676 C677 1.363 . S
C676 C681 1.379 1_455 S
C676 N683 1.356 . S
C677 C676 1.363 . S
C677 C680 1.363 . S
N678 C680 1.356 . S
N678 H690 0.984 . S
N678 H691 0.985 . S
N679 C681 1.356 . S
N679 H684 0.984 . S
N679 H685 0.985 . S
C680 C674 1.379 1_455 S
C680 C677 1.363 . S
C680 N678 1.356 . S
C681 C675 1.363 . S
C681 C676 1.379 1_655 S
C681 N679 1.356 . S
N682 C674 1.356 . S
N682 H688 0.984 . S
N682 H689 0.984 . S
N683 C676 1.356 . S
N683 H686 0.984 . S
N683 H687 0.985 . S
H684 N679 0.984 . S
H685 N679 0.985 . S
H686 N683 0.984 . S
H687 N683 0.985 . S
H688 N682 0.984 . S
H689 N682 0.984 . S
H690 N678 0.984 . S
H691 N678 0.985 . S
C692 C693 1.363 . S
C692 C698 1.379 1_545 S
C692 N700 1.356 . S
C693 C692 1.363 . S
C693 C699 1.363 . S
C694 C695 1.363 . S
C694 C699 1.379 1_565 S
C694 N701 1.356 . S
C695 C694 1.363 . S
C695 C698 1.363 . S
N696 C698 1.356 . S
N696 H708 0.984 . S
N696 H709 0.985 . S
N697 C699 1.356 . S
N697 H702 0.984 . S
N697 H703 0.985 . S
C698 C692 1.379 1_565 S
C698 C695 1.363 . S
C698 N696 1.356 . S
C699 C693 1.363 . S
C699 C694 1.379 1_545 S
C699 N697 1.356 . S
N700 C692 1.356 . S
N700 H706 0.984 . S
N700 H707 0.984 . S
N701 C694 1.356 . S
N701 H704 0.984 . S
N701 H705 0.985 . S
H702 N697 0.984 . S
H703 N697 0.985 . S
H704 N701 0.984 . S
H705 N701 0.985 . S
H706 N700 0.984 . S
H707 N700 0.984 . S
H708 N696 0.984 . S
H709 N696 0.985 . S
C710 C711 1.363 . S
C710 C716 1.379 1_455 S
C710 N718 1.356 . S
C711 C710 1.363 . S
C711 C717 1.363 . S
C712 C713 1.363 . S
C712 C717 1.379 1_655 S
C712 N719 1.356 . S
C713 C712 1.363 . S
C713 C716 1.363 . S
N714 C716 1.356 . S
N714 H726 0.984 . S
N714 H727 0.985 . S
N715 C717 1.356 . S
N715 H720 0.984 . S
N715 H721 0.985 . S
C716 C710 1.379 1_655 S
C716 C713 1.363 . S
C716 N714 1.356 . S
C717 C711 1.363 . S
C717 C712 1.379 1_455 S
C717 N715 1.356 . S
N718 C710 1.356 . S
N718 H724 0.984 . S
N718 H725 0.984 . S
N719 C712 1.356 . S
N719 H722 0.984 . S
N719 H723 0.985 . S
H720 N715 0.984 . S
H721 N715 0.985 . S
H722 N719 0.984 . S
H723 N719 0.985 . S
H724 N718 0.984 . S
H725 N718 0.984 . S
H726 N714 0.984 . S
H727 N714 0.985 . S
C728 C729 1.363 . S
C728 C734 1.379 1_545 S
C728 N736 1.356 . S
C729 C728 1.363 . S
C729 C735 1.363 . S
C730 C731 1.363 . S
C730 C735 1.379 1_565 S
C730 N737 1.356 . S
C731 C730 1.363 . S
C731 C734 1.363 . S
N732 C734 1.356 . S
N732 H744 0.984 . S
N732 H745 0.985 . S
N733 C735 1.356 . S
N733 H738 0.984 . S
N733 H739 0.985 . S
C734 C728 1.379 1_565 S
C734 C731 1.363 . S
C734 N732 1.356 . S
C735 C729 1.363 . S
C735 C730 1.379 1_545 S
C735 N733 1.356 . S
N736 C728 1.356 . S
N736 H742 0.984 . S
N736 H743 0.984 . S
N737 C730 1.356 . S
N737 H740 0.984 . S
N737 H741 0.985 . S
H738 N733 0.984 . S
H739 N733 0.985 . S
H740 N737 0.984 . S
H741 N737 0.985 . S
H742 N736 0.984 . S
H743 N736 0.984 . S
H744 N732 0.984 . S
H745 N732 0.985 . S
C746 C747 1.363 . S
C746 C752 1.379 1_655 S
C746 N754 1.356 . S
C747 C746 1.363 . S
C747 C753 1.363 . S
C748 C749 1.363 . S
C748 C753 1.379 1_455 S
C748 N755 1.356 . S
C749 C748 1.363 . S
C749 C752 1.363 . S
N750 C752 1.356 . S
N750 H762 0.984 . S
N750 H763 0.985 . S
N751 C753 1.356 . S
N751 H756 0.984 . S
N751 H757 0.985 . S
C752 C746 1.379 1_455 S
C752 C749 1.363 . S
C752 N750 1.356 . S
C753 C747 1.363 . S
C753 C748 1.379 1_655 S
C753 N751 1.356 . S
N754 C746 1.356 . S
N754 H760 0.984 . S
N754 H761 0.984 . S
N755 C748 1.356 . S
N755 H758 0.984 . S
N755 H759 0.985 . S
H756 N751 0.984 . S
H757 N751 0.985 . S
H758 N755 0.984 . S
H759 N755 0.985 . S
H760 N754 0.984 . S
H761 N754 0.984 . S
H762 N750 0.984 . S
H763 N750 0.985 . S
C764 C765 1.363 . S
C764 C770 1.379 1_565 S
C764 N772 1.356 . S
C765 C764 1.363 . S
C765 C771 1.363 . S
C766 C767 1.363 . S
C766 C771 1.379 1_545 S
C766 N773 1.356 . S
C767 C766 1.363 . S
C767 C770 1.363 . S
N768 C770 1.356 . S
N768 H780 0.984 . S
N768 H781 0.985 . S
N769 C771 1.356 . S
N769 H774 0.984 . S
N769 H775 0.985 . S
C770 C764 1.379 1_545 S
C770 C767 1.363 . S
C770 N768 1.356 . S
C771 C765 1.363 . S
C771 C766 1.379 1_565 S
C771 N769 1.356 . S
N772 C764 1.356 . S
N772 H778 0.984 . S
N772 H779 0.984 . S
N773 C766 1.356 . S
N773 H776 0.984 . S
N773 H777 0.985 . S
H774 N769 0.984 . S
H775 N769 0.985 . S
H776 N773 0.984 . S
H777 N773 0.985 . S
H778 N772 0.984 . S
H779 N772 0.984 . S
H780 N768 0.984 . S
H781 N768 0.985 . S
C782 C783 1.363 . S
C782 C788 1.379 1_455 S
C782 N790 1.356 . S
C783 C782 1.363 . S
C783 C789 1.363 . S
C784 C785 1.363 . S
C784 C789 1.379 1_655 S
C784 N791 1.356 . S
C785 C784 1.363 . S
C785 C788 1.363 . S
N786 C788 1.356 . S
N786 H798 0.984 . S
N786 H799 0.985 . S
N787 C789 1.356 . S
N787 H792 0.984 . S
N787 H793 0.985 . S
C788 C782 1.379 1_655 S
C788 C785 1.363 . S
C788 N786 1.356 . S
C789 C783 1.363 . S
C789 C784 1.379 1_455 S
C789 N787 1.356 . S
N790 C782 1.356 . S
N790 H796 0.984 . S
N790 H797 0.984 . S
N791 C784 1.356 . S
N791 H794 0.984 . S
N791 H795 0.985 . S
H792 N787 0.984 . S
H793 N787 0.985 . S
H794 N791 0.984 . S
H795 N791 0.985 . S
H796 N790 0.984 . S
H797 N790 0.984 . S
H798 N786 0.984 . S
H799 N786 0.985 . S
C225 C81 1.442 . S
C227 C11 1.442 . S
C243 C95 1.442 . S
C245 C25 1.442 . S
C261 C39 1.442 . S
C263 C109 1.442 . S
C279 C53 1.442 . S
C281 C67 1.442 . S
C297 C193 1.442 . S
C299 C123 1.442 . S
C315 C207 1.442 . S
C317 C137 1.442 . S
C333 C151 1.442 . S
C335 C221 1.442 . S
C351 C165 1.442 . S
C353 C179 1.442 . S
C369 C149 1.540 . S
C371 C9 1.540 . S
C387 C163 1.540 . S
C389 C23 1.540 . S
C405 C121 1.540 . S
C407 C37 1.540 . S
C423 C51 1.540 . S
C425 C135 1.540 . S
C441 C205 1.540 . S
C443 C65 1.540 . S
C459 C219 1.540 . S
C461 C79 1.540 . S
C477 C93 1.540 . S
C479 C177 1.540 . S
C495 C191 1.540 . S
C497 C107 1.540 . S
C513 C61 1.824 . S
C515 C5 1.824 . S
C531 C19 1.824 . S
C533 C75 1.824 . S
C549 C33 1.824 . S
C551 C89 1.824 . S
C567 C103 1.824 . S
C569 C47 1.824 . S
C585 C112 1.093 . S
C587 C168 1.093 . S
C603 C182 1.093 . S
C605 C126 1.093 . S
C621 C140 1.093 . S
C623 C196 1.093 . S
C639 C210 1.093 . S
C641 C154 1.093 . S
C657 C159 1.824 . S
C659 C187 1.824 . S
C675 C117 1.824 . S
C677 C201 1.824 . S
C693 C215 1.824 . S
C695 C131 1.824 . S
C711 C145 1.824 . S
C713 C173 1.824 . S
C729 C70 1.093 . S
C731 C42 1.093 . S
C747 C84 1.093 . S
C749 C0 1.093 . S
C765 C98 1.093 . S
C767 C14 1.093 . S
C783 C56 1.093 . S
C785 C28 1.093 . S
