# Generated by pormake.
# Topology umu, (4)-cn, num edge types: 1
# Building blocks:
#     Node 0, Type 0, BuildingBlock: CEKHIL_clean_sbu_0, # of connection points: 4
#     Node 1, Type 0, BuildingBlock: CEKHIL_clean_sbu_0, # of connection points: 4
#     Node 2, Type 0, BuildingBlock: CEKHIL_clean_sbu_0, # of connection points: 4
#     Node 3, Type 0, BuildingBlock: CEKHIL_clean_sbu_0, # of connection points: 4
#     Node 4, Type 0, BuildingBlock: CEKHIL_clean_sbu_0, # of connection points: 4
#     Node 5, Type 0, BuildingBlock: CEKHIL_clean_sbu_0, # of connection points: 4
#     Node 6, Type 0, BuildingBlock: CEKHIL_clean_sbu_0, # of connection points: 4
#     Node 7, Type 0, BuildingBlock: CEKHIL_clean_sbu_0, # of connection points: 4
#     Node 8, Type 0, BuildingBlock: CEKHIL_clean_sbu_0, # of connection points: 4
#     Node 9, Type 0, BuildingBlock: CEKHIL_clean_sbu_0, # of connection points: 4
#     Node 10, Type 0, BuildingBlock: CEKHIL_clean_sbu_0, # of connection points: 4
#     Node 11, Type 0, BuildingBlock: CEKHIL_clean_sbu_0, # of connection points: 4
#     Node 12, Type 0, BuildingBlock: CEKHIL_clean_sbu_0, # of connection points: 4
#     Node 13, Type 0, BuildingBlock: CEKHIL_clean_sbu_0, # of connection points: 4
#     Node 14, Type 0, BuildingBlock: CEKHIL_clean_sbu_0, # of connection points: 4
#     Node 15, Type 0, BuildingBlock: CEKHIL_clean_sbu_0, # of connection points: 4
#     Node 16, Type 0, BuildingBlock: CEKHIL_clean_sbu_0, # of connection points: 4
#     Node 17, Type 0, BuildingBlock: CEKHIL_clean_sbu_0, # of connection points: 4
#     Node 18, Type 0, BuildingBlock: CEKHIL_clean_sbu_0, # of connection points: 4
#     Node 19, Type 0, BuildingBlock: CEKHIL_clean_sbu_0, # of connection points: 4
#     Node 20, Type 0, BuildingBlock: CEKHIL_clean_sbu_0, # of connection points: 4
#     Node 21, Type 0, BuildingBlock: CEKHIL_clean_sbu_0, # of connection points: 4
#     Node 22, Type 0, BuildingBlock: CEKHIL_clean_sbu_0, # of connection points: 4
#     Node 23, Type 0, BuildingBlock: CEKHIL_clean_sbu_0, # of connection points: 4
#     Node 24, Type 0, BuildingBlock: CEKHIL_clean_sbu_0, # of connection points: 4
#     Node 25, Type 0, BuildingBlock: CEKHIL_clean_sbu_0, # of connection points: 4
#     Node 26, Type 0, BuildingBlock: CEKHIL_clean_sbu_0, # of connection points: 4
#     Node 27, Type 0, BuildingBlock: CEKHIL_clean_sbu_0, # of connection points: 4
#     Node 28, Type 0, BuildingBlock: CEKHIL_clean_sbu_0, # of connection points: 4
#     Node 29, Type 0, BuildingBlock: CEKHIL_clean_sbu_0, # of connection points: 4
#     Node 30, Type 0, BuildingBlock: CEKHIL_clean_sbu_0, # of connection points: 4
#     Node 31, Type 0, BuildingBlock: CEKHIL_clean_sbu_0, # of connection points: 4
#     Edge 32, Type (0, 0), BuildingBlock: AJUNOK_clean_linker_0, # of connection points: 2
#     Edge 33, Type (0, 0), BuildingBlock: AJUNOK_clean_linker_0, # of connection points: 2
#     Edge 34, Type (0, 0), BuildingBlock: AJUNOK_clean_linker_0, # of connection points: 2
#     Edge 35, Type (0, 0), BuildingBlock: AJUNOK_clean_linker_0, # of connection points: 2
#     Edge 36, Type (0, 0), BuildingBlock: AJUNOK_clean_linker_0, # of connection points: 2
#     Edge 37, Type (0, 0), BuildingBlock: AJUNOK_clean_linker_0, # of connection points: 2
#     Edge 38, Type (0, 0), BuildingBlock: AJUNOK_clean_linker_0, # of connection points: 2
#     Edge 39, Type (0, 0), BuildingBlock: AJUNOK_clean_linker_0, # of connection points: 2
#     Edge 40, Type (0, 0), BuildingBlock: AJUNOK_clean_linker_0, # of connection points: 2
#     Edge 41, Type (0, 0), BuildingBlock: AJUNOK_clean_linker_0, # of connection points: 2
#     Edge 42, Type (0, 0), BuildingBlock: AJUNOK_clean_linker_0, # of connection points: 2
#     Edge 43, Type (0, 0), BuildingBlock: AJUNOK_clean_linker_0, # of connection points: 2
#     Edge 44, Type (0, 0), BuildingBlock: AJUNOK_clean_linker_0, # of connection points: 2
#     Edge 45, Type (0, 0), BuildingBlock: AJUNOK_clean_linker_0, # of connection points: 2
#     Edge 46, Type (0, 0), BuildingBlock: AJUNOK_clean_linker_0, # of connection points: 2
#     Edge 47, Type (0, 0), BuildingBlock: AJUNOK_clean_linker_0, # of connection points: 2
#     Edge 48, Type (0, 0), BuildingBlock: AJUNOK_clean_linker_0, # of connection points: 2
#     Edge 49, Type (0, 0), BuildingBlock: AJUNOK_clean_linker_0, # of connection points: 2
#     Edge 50, Type (0, 0), BuildingBlock: AJUNOK_clean_linker_0, # of connection points: 2
#     Edge 51, Type (0, 0), BuildingBlock: AJUNOK_clean_linker_0, # of connection points: 2
#     Edge 52, Type (0, 0), BuildingBlock: AJUNOK_clean_linker_0, # of connection points: 2
#     Edge 53, Type (0, 0), BuildingBlock: AJUNOK_clean_linker_0, # of connection points: 2
#     Edge 54, Type (0, 0), BuildingBlock: AJUNOK_clean_linker_0, # of connection points: 2
#     Edge 55, Type (0, 0), BuildingBlock: AJUNOK_clean_linker_0, # of connection points: 2
#     Edge 56, Type (0, 0), BuildingBlock: AJUNOK_clean_linker_0, # of connection points: 2
#     Edge 57, Type (0, 0), BuildingBlock: AJUNOK_clean_linker_0, # of connection points: 2
#     Edge 58, Type (0, 0), BuildingBlock: AJUNOK_clean_linker_0, # of connection points: 2
#     Edge 59, Type (0, 0), BuildingBlock: AJUNOK_clean_linker_0, # of connection points: 2
#     Edge 60, Type (0, 0), BuildingBlock: AJUNOK_clean_linker_0, # of connection points: 2
#     Edge 61, Type (0, 0), BuildingBlock: AJUNOK_clean_linker_0, # of connection points: 2
#     Edge 62, Type (0, 0), BuildingBlock: AJUNOK_clean_linker_0, # of connection points: 2
#     Edge 63, Type (0, 0), BuildingBlock: AJUNOK_clean_linker_0, # of connection points: 2
#     Edge 64, Type (0, 0), BuildingBlock: AJUNOK_clean_linker_0, # of connection points: 2
#     Edge 65, Type (0, 0), BuildingBlock: AJUNOK_clean_linker_0, # of connection points: 2
#     Edge 66, Type (0, 0), BuildingBlock: AJUNOK_clean_linker_0, # of connection points: 2
#     Edge 67, Type (0, 0), BuildingBlock: AJUNOK_clean_linker_0, # of connection points: 2
#     Edge 68, Type (0, 0), BuildingBlock: AJUNOK_clean_linker_0, # of connection points: 2
#     Edge 69, Type (0, 0), BuildingBlock: AJUNOK_clean_linker_0, # of connection points: 2
#     Edge 70, Type (0, 0), BuildingBlock: AJUNOK_clean_linker_0, # of connection points: 2
#     Edge 71, Type (0, 0), BuildingBlock: AJUNOK_clean_linker_0, # of connection points: 2
#     Edge 72, Type (0, 0), BuildingBlock: AJUNOK_clean_linker_0, # of connection points: 2
#     Edge 73, Type (0, 0), BuildingBlock: AJUNOK_clean_linker_0, # of connection points: 2
#     Edge 74, Type (0, 0), BuildingBlock: AJUNOK_clean_linker_0, # of connection points: 2
#     Edge 75, Type (0, 0), BuildingBlock: AJUNOK_clean_linker_0, # of connection points: 2
#     Edge 76, Type (0, 0), BuildingBlock: AJUNOK_clean_linker_0, # of connection points: 2
#     Edge 77, Type (0, 0), BuildingBlock: AJUNOK_clean_linker_0, # of connection points: 2
#     Edge 78, Type (0, 0), BuildingBlock: AJUNOK_clean_linker_0, # of connection points: 2
#     Edge 79, Type (0, 0), BuildingBlock: AJUNOK_clean_linker_0, # of connection points: 2
#     Edge 80, Type (0, 0), BuildingBlock: AJUNOK_clean_linker_0, # of connection points: 2
#     Edge 81, Type (0, 0), BuildingBlock: AJUNOK_clean_linker_0, # of connection points: 2
#     Edge 82, Type (0, 0), BuildingBlock: AJUNOK_clean_linker_0, # of connection points: 2
#     Edge 83, Type (0, 0), BuildingBlock: AJUNOK_clean_linker_0, # of connection points: 2
#     Edge 84, Type (0, 0), BuildingBlock: AJUNOK_clean_linker_0, # of connection points: 2
#     Edge 85, Type (0, 0), BuildingBlock: AJUNOK_clean_linker_0, # of connection points: 2
#     Edge 86, Type (0, 0), BuildingBlock: AJUNOK_clean_linker_0, # of connection points: 2
#     Edge 87, Type (0, 0), BuildingBlock: AJUNOK_clean_linker_0, # of connection points: 2
#     Edge 88, Type (0, 0), BuildingBlock: AJUNOK_clean_linker_0, # of connection points: 2
#     Edge 89, Type (0, 0), BuildingBlock: AJUNOK_clean_linker_0, # of connection points: 2
#     Edge 90, Type (0, 0), BuildingBlock: AJUNOK_clean_linker_0, # of connection points: 2
#     Edge 91, Type (0, 0), BuildingBlock: AJUNOK_clean_linker_0, # of connection points: 2
#     Edge 92, Type (0, 0), BuildingBlock: AJUNOK_clean_linker_0, # of connection points: 2
#     Edge 93, Type (0, 0), BuildingBlock: AJUNOK_clean_linker_0, # of connection points: 2
#     Edge 94, Type (0, 0), BuildingBlock: AJUNOK_clean_linker_0, # of connection points: 2
#     Edge 95, Type (0, 0), BuildingBlock: AJUNOK_clean_linker_0, # of connection points: 2
# Relax obj value: 0.129
# Max RMSD: 0.096
# Mean RMSD: 0.096
data_MOF--net-umu--node1-CEKHIL_clean_sbu_0--edge1-AJUNOK_clean_linker_0
_symmetry_space_group_name_H-M    P1
_symmetry_Int_Tables_number       1
_symmetry_cell_setting            triclinic
loop_
_symmetry_equiv_pos_as_xyz
'x, y, z'
_cell_length_a     57.941848
_cell_length_b     57.988596
_cell_length_c     19.014242
_cell_angle_alpha  89.990772
_cell_angle_beta   90.006928
_cell_angle_gamma 89.985561
loop_
_atom_site_label
_atom_site_type_symbol
_atom_site_fract_x
_atom_site_fract_y
_atom_site_fract_z
_atom_type_partial_charge
Co0 Co 0.23992 0.18511 0.09028 0.0
O1 O 0.23458 0.15382 0.05927 0.0
O2 O 0.20904 0.18183 0.05062 0.0
C3 C 0.25716 0.17585 0.1937 0.0
O4 O 0.23897 0.21948 0.11645 0.0
Co5 Co 0.29005 0.2033 0.11888 0.0
O6 O 0.27355 0.23004 0.16 0.0
C7 C 0.27378 0.1941 0.97446 0.0
C8 C 0.21439 0.16044 0.03758 0.0
C9 C 0.25244 0.23429 0.14619 0.0
O10 O 0.25271 0.1928 -0.00468 0.0
O11 O 0.29105 0.19601 0.01605 0.0
O12 O 0.23469 0.17635 0.18954 0.0
O13 O 0.26773 0.17937 0.13559 0.0
Co14 Co 0.12837 0.99006 0.3422 0.0
O15 O 0.15938 0.98401 0.3082 0.0
O16 O 0.13037 0.95956 0.30034 0.0
C17 C 0.13851 1.00597 0.44668 0.0
O18 O 0.09418 0.98942 0.37035 0.0
Co19 Co 0.1107 0.03975 0.37712 0.0
O20 O 0.0842 1.02323 0.41973 0.0
C21 C 0.11726 1.02492 0.22963 0.0
C22 C 0.15183 0.96416 0.28619 0.0
C23 C 0.07971 1.0024 0.40333 0.0
O24 O 0.12017 1.00386 0.24902 0.0
O25 O 0.1153 0.04171 0.27291 0.0
O26 O 0.1377 0.9836 0.43998 0.0
O27 O 0.13493 1.01737 0.3899 0.0
Co28 Co 0.32348 0.88011 0.58968 0.0
O29 O 0.32987 0.91111 0.55674 0.0
O30 O 0.35469 0.88233 0.55274 0.0
C31 C 0.30556 0.89024 0.69104 0.0
O32 O 0.32366 0.8459 0.61808 0.0
Co33 Co 0.27306 0.86258 0.61445 0.0
O34 O 0.2886 0.83582 0.65866 0.0
C35 C 0.29082 0.87017 0.47081 0.0
C36 C 0.35008 0.90372 0.53749 0.0
C37 C 0.30979 0.8313 0.64707 0.0
O38 O 0.31153 0.87201 0.49426 0.0
O39 O 0.27309 0.86826 0.51058 0.0
O40 O 0.32804 0.88944 0.68841 0.0
O41 O 0.2953 0.88659 0.63235 0.0
Co42 Co 0.43343 0.0756 0.84492 0.0
O43 O 0.40211 0.0812 0.81373 0.0
O44 O 0.43059 0.10612 0.80293 0.0
C45 C 0.42432 0.05953 0.95006 0.0
O46 O 0.46785 0.07643 0.87062 0.0
Co47 Co 0.4514 1.02574 0.87757 0.0
O48 O 0.47808 0.04243 0.91862 0.0
C49 C 0.44259 0.04069 0.73161 0.0
C50 C 0.40907 0.10111 0.79072 0.0
C51 C 0.48246 0.06333 0.90266 0.0
O52 O 0.44089 0.06187 0.75103 0.0
O53 O 0.44468 1.02378 0.77443 0.0
O54 O 0.42487 0.08192 0.94352 0.0
O55 O 0.4275 0.04826 0.8929 0.0
Co56 Co 0.23791 0.88178 0.05832 0.0
O57 O 0.23125 0.91276 0.09105 0.0
O58 O 0.20728 0.88339 0.09982 0.0
C59 C 0.25375 0.89169 0.95365 0.0
O60 O 0.23812 0.84751 0.03092 0.0
Co61 Co 0.28837 0.86552 0.02559 0.0
O62 O 0.27268 0.83824 0.98484 0.0
C63 C 0.27296 0.87286 0.17175 0.0
C64 C 0.21151 0.90499 0.11317 0.0
C65 C 0.25184 0.83321 -8e-05 0.0
O66 O 0.25176 0.87424 0.15206 0.0
O67 O 0.28998 0.87146 0.1291 0.0
O68 O 0.23137 0.89055 0.9601 0.0
O69 O 0.26511 0.88875 0.01081 0.0
Co70 Co 0.43387 0.98956 0.31432 0.0
O71 O 0.4027 0.98343 0.34667 0.0
O72 O 0.43134 0.95845 0.3514 0.0
C73 C 0.42417 1.00753 0.21251 0.0
O74 O 0.46813 0.9889 0.2869 0.0
Co75 Co 0.45221 0.03962 0.28883 0.0
O76 O 0.47886 1.02361 0.24534 0.0
C77 C 0.44404 1.02228 0.43278 0.0
C78 C 0.40995 0.9632 0.36621 0.0
C79 C 0.483 1.00241 0.25773 0.0
O80 O 0.44187 1.00155 0.40979 0.0
O81 O 0.44632 0.03986 0.39261 0.0
O82 O 0.42474 0.98505 0.21532 0.0
O83 O 0.42782 1.01776 0.2712 0.0
Co84 Co 0.32589 0.18572 0.56026 0.0
O85 O 0.33048 0.15444 0.59272 0.0
O86 O 0.35649 0.18203 0.60121 0.0
C87 C 0.30905 0.17684 0.45625 0.0
O88 O 0.32772 0.21996 0.5331 0.0
Co89 Co 0.27637 0.20512 0.5311 0.0
O90 O 0.29359 0.23101 0.48749 0.0
C91 C 0.29214 0.19609 0.67596 0.0
C92 C 0.35066 0.16085 0.61519 0.0
C93 C 0.31477 0.2348 0.50146 0.0
O94 O 0.31302 0.19392 0.65436 0.0
O95 O 0.27488 0.19881 0.6347 0.0
O96 O 0.33148 0.17659 0.462 0.0
O97 O 0.29807 0.18055 0.51376 0.0
Co98 Co 0.13021 0.07535 0.81217 0.0
O99 O 0.16139 0.0803 0.84512 0.0
O100 O 0.13375 0.10634 0.85041 0.0
C101 C 0.13973 0.05743 0.71005 0.0
O102 O 0.09603 0.07688 0.78395 0.0
Co103 Co 0.111 1.02562 0.78524 0.0
O104 O 0.08493 0.04242 0.74117 0.0
C105 C 0.11814 0.04277 0.92982 0.0
C106 C 0.15494 0.1007 0.86533 0.0
C107 C 0.08107 0.06364 0.75403 0.0
O108 O 0.12149 0.06339 0.90719 0.0
O109 O 0.11586 1.02523 0.8895 0.0
O110 O 0.13974 0.0799 0.71344 0.0
O111 O 0.13567 0.04715 0.76842 0.0
Co112 Co 0.82384 0.87819 0.06402 0.0
O113 O 0.83003 0.90918 0.09744 0.0
O114 O 0.85461 0.88023 0.10412 0.0
C115 C 0.80731 0.88808 0.96016 0.0
O116 O 0.8243 0.84404 0.03602 0.0
Co117 Co 0.77362 0.86089 0.03388 0.0
O118 O 0.78963 0.83379 -0.00719 0.0
C119 C 0.78991 0.86726 0.17946 0.0
C120 C 0.85002 0.90168 0.11844 0.0
C121 C 0.81072 0.82935 0.00645 0.0
O122 O 0.81079 0.86994 0.15811 0.0
O123 O 0.77252 0.86573 0.13819 0.0
O124 O 0.82972 0.8874 0.96596 0.0
O125 O 0.7962 0.88472 0.01765 0.0
Co126 Co 0.93413 0.07423 0.81035 0.0
O127 O 0.90275 0.07894 0.84209 0.0
O128 O 0.93046 0.10483 0.85096 0.0
C129 C 0.92542 0.05737 0.7062 0.0
O130 O 0.96845 0.07606 0.78407 0.0
Co131 Co 0.95357 1.02475 0.78177 0.0
O132 O 0.97988 0.04185 0.74022 0.0
C133 C 0.94424 0.04052 0.92642 0.0
C134 C 0.9092 0.0991 0.86446 0.0
C135 C 0.98359 0.06304 0.7541 0.0
O136 O 0.94209 0.06139 0.90474 0.0
O137 O 0.94703 1.02327 0.88523 0.0
O138 O 0.92522 0.07979 0.71184 0.0
O139 O 0.92901 0.04642 0.76382 0.0
Co140 Co 0.73893 0.18406 0.56168 0.0
O141 O 0.73303 0.1531 0.59626 0.0
O142 O 0.70808 0.18176 0.60085 0.0
C143 C 0.75611 0.17359 0.45921 0.0
O144 O 0.73795 0.21811 0.53234 0.0
Co145 Co 0.78831 0.20284 0.52888 0.0
O146 O 0.77147 0.22832 0.48169 0.0
C147 C 0.77265 0.19651 0.67615 0.0
C148 C 0.71286 0.16044 0.61625 0.0
C149 C 0.75056 0.23253 0.49787 0.0
O150 O 0.75177 0.19281 0.6559 0.0
O151 O 0.78958 0.19888 0.63351 0.0
O152 O 0.73364 0.17425 0.46352 0.0
O153 O 0.76681 0.17781 0.51677 0.0
Co154 Co 0.63006 0.98925 0.31086 0.0
O155 O 0.66138 0.98378 0.34205 0.0
O156 O 0.63301 0.95874 0.35301 0.0
C157 C 0.63909 1.00528 0.20561 0.0
O158 O 0.59563 0.98838 0.28516 0.0
Co159 Co 0.61224 0.03922 0.27848 0.0
O160 O 0.58526 1.02262 0.239 0.0
C161 C 0.62089 1.02413 0.42429 0.0
C162 C 0.65451 0.96387 0.36527 0.0
C163 C 0.58086 1.00169 0.25457 0.0
O164 O 0.62255 1.00297 0.40473 0.0
O165 O 0.61892 0.04108 0.3816 0.0
O166 O 0.6386 0.9829 0.21225 0.0
O167 O 0.63597 1.01656 0.26276 0.0
Co168 Co 0.82436 0.18301 0.09154 0.0
O169 O 0.82922 0.15174 0.059 0.0
O170 O 0.85503 0.17952 0.05111 0.0
C171 C 0.80754 0.17389 0.1956 0.0
O172 O 0.82611 0.21719 0.1189 0.0
Co173 Co 0.77504 0.20254 0.12208 0.0
O174 O 0.79236 0.22821 0.16685 0.0
C175 C 0.79084 0.19538 0.97602 0.0
C176 C 0.84949 0.15823 0.03758 0.0
C177 C 0.81344 0.23199 0.15165 0.0
O178 O 0.81155 0.19154 -0.00273 0.0
O179 O 0.77362 0.198 0.01752 0.0
O180 O 0.82996 0.17375 0.1897 0.0
O181 O 0.79652 0.17768 0.13818 0.0
Co182 Co 0.62905 0.07511 0.84122 0.0
O183 O 0.66022 0.08101 0.80841 0.0
O184 O 0.63172 0.10617 0.80392 0.0
C185 C 0.63878 0.05715 0.94294 0.0
O186 O 0.59482 0.07597 0.86902 0.0
Co187 Co 0.61037 1.02522 0.86712 0.0
O188 O 0.58412 0.04146 0.91217 0.0
C189 C 0.61864 0.04242 0.72305 0.0
C190 C 0.65306 0.10126 0.78878 0.0
C191 C 0.58008 0.06266 0.89955 0.0
O192 O 0.62087 0.06314 0.74597 0.0
O193 O 0.61625 1.02487 0.76327 0.0
O194 O 0.63835 0.07963 0.94005 0.0
O195 O 0.63497 0.04689 0.88436 0.0
Co196 Co 0.73862 0.8793 0.59349 0.0
O197 O 0.73407 0.91044 0.55964 0.0
O198 O 0.70789 0.88298 0.55328 0.0
C199 C 0.75593 0.88907 0.69645 0.0
O200 O 0.73663 0.84521 0.62221 0.0
Co201 Co 0.78781 0.85953 0.62565 0.0
O202 O 0.77027 0.83424 0.67101 0.0
C203 C 0.77209 0.86626 0.47891 0.0
C204 C 0.71373 0.90411 0.53848 0.0
C205 C 0.74922 0.83044 0.65546 0.0
O206 O 0.75131 0.87031 0.49941 0.0
O207 O 0.78909 0.86364 0.52118 0.0
O208 O 0.73347 0.8891 0.69183 0.0
O209 O 0.76655 0.88465 0.63893 0.0
Co210 Co 0.93328 0.98819 0.34103 0.0
O211 O 0.90218 0.9816 0.30918 0.0
O212 O 0.93129 0.9572 0.30248 0.0
C213 C 0.92339 1.00534 0.44397 0.0
O214 O 0.96759 0.98822 0.36801 0.0
Co215 Co 0.95041 0.03856 0.36974 0.0
O216 O 0.97719 1.02276 0.41343 0.0
C217 C 0.9419 1.02208 0.22501 0.0
C218 C 0.90974 0.96159 0.2887 0.0
C219 C 0.9819 1.00178 0.39947 0.0
O220 O 0.94082 1.00101 0.24594 0.0
O221 O 0.94353 0.03936 0.2666 0.0
O222 O 0.92449 0.98291 0.44015 0.0
O223 O 0.92667 1.01593 0.38571 0.0
Co224 Co 0.73934 0.68421 0.59201 0.0
O225 O 0.73485 0.65289 0.55974 0.0
O226 O 0.70864 0.68033 0.55222 0.0
C227 C 0.7566 0.67536 0.69537 0.0
O228 O 0.73725 0.71841 0.61932 0.0
Co229 Co 0.78867 0.70414 0.61965 0.0
O230 O 0.77136 0.7298 0.66414 0.0
C231 C 0.77258 0.69481 0.47524 0.0
C232 C 0.71451 0.65916 0.53828 0.0
C233 C 0.7501 0.73336 0.65079 0.0
O234 O 0.75178 0.69253 0.49747 0.0
O235 O 0.78993 0.69769 0.51607 0.0
O236 O 0.73415 0.67497 0.69029 0.0
O237 O 0.76737 0.67926 0.63761 0.0
Co238 Co 0.6313 0.48831 0.84264 0.0
O239 O 0.66249 0.48219 0.81018 0.0
O240 O 0.63346 0.45778 0.80152 0.0
C241 C 0.64074 0.50441 0.94742 0.0
O242 O 0.59702 0.48761 0.86935 0.0
Co243 Co 0.61321 0.53795 0.87586 0.0
O244 O 0.58671 0.52133 0.91865 0.0
C245 C 0.62161 0.52313 0.72937 0.0
C246 C 0.655 0.46231 0.78823 0.0
C247 C 0.58244 0.50045 0.90239 0.0
O248 O 0.62357 0.50196 0.74871 0.0
O249 O 0.61949 0.53999 0.77234 0.0
O250 O 0.64009 0.48203 0.94096 0.0
O251 O 0.6375 0.51572 0.89027 0.0
Co252 Co 0.82584 0.37824 0.09205 0.0
O253 O 0.83182 0.40937 0.05911 0.0
O254 O 0.85636 0.38044 0.05051 0.0
C255 C 0.80981 0.3879 0.19681 0.0
O256 O 0.82661 0.34402 0.11917 0.0
Co257 Co 0.77625 0.36013 0.12604 0.0
O258 O 0.79297 0.33375 0.16909 0.0
C259 C 0.79094 0.36826 0.97919 0.0
C260 C 0.85171 0.40192 0.03697 0.0
C261 C 0.81384 0.32947 0.15252 0.0
O262 O 0.81212 0.37036 -0.00162 0.0
O263 O 0.77411 0.36611 0.02234 0.0
O264 O 0.8322 0.38722 0.19017 0.0
O265 O 0.79845 0.38448 0.13984 0.0
Co266 Co 0.93551 0.57434 0.34308 0.0
O267 O 0.9042 0.57927 0.31126 0.0
O268 O 0.93209 0.60496 0.3023 0.0
C269 C 0.92667 0.55756 0.4473 0.0
O270 O 0.96982 0.57586 0.36939 0.0
Co271 Co 0.95446 0.52464 0.37173 0.0
O272 O 0.98097 0.54152 0.413 0.0
C273 C 0.94542 0.54055 0.22704 0.0
C274 C 0.91081 0.59935 0.28866 0.0
C275 C 0.98487 0.56268 0.39916 0.0
O276 O 0.94339 0.56142 0.24874 0.0
O277 O 0.94803 0.52326 0.26821 0.0
O278 O 0.92664 0.57998 0.4416 0.0
O279 O 0.93015 0.54658 0.38969 0.0
Co280 Co 0.74006 0.37872 0.56162 0.0
O281 O 0.73452 0.40983 0.59545 0.0
O282 O 0.70903 0.38163 0.5988 0.0
C283 C 0.75818 0.38844 0.46012 0.0
O284 O 0.73869 0.34466 0.5328 0.0
Co285 Co 0.78947 0.35908 0.53513 0.0
O286 O 0.77276 0.33361 0.48742 0.0
C287 C 0.7725 0.36702 0.67983 0.0
C288 C 0.71416 0.40282 0.61473 0.0
C289 C 0.75153 0.3299 0.50058 0.0
O290 O 0.75187 0.37003 0.65681 0.0
O291 O 0.78999 0.36423 0.6395 0.0
O292 O 0.73568 0.38837 0.46311 0.0
O293 O 0.76842 0.38431 0.51859 0.0
Co294 Co 0.93456 0.48831 0.81262 0.0
O295 O 0.90342 0.48189 0.8447 0.0
O296 O 0.93244 0.45737 0.85116 0.0
C297 C 0.92474 0.50555 0.70968 0.0
O298 O 0.96886 0.48804 0.78569 0.0
Co299 Co 0.95216 0.53849 0.78362 0.0
O300 O 0.97891 0.52248 0.74054 0.0
C301 C 0.94346 0.52216 0.92842 0.0
C302 C 0.91093 0.46185 0.86515 0.0
C303 C 0.98337 0.50146 0.75456 0.0
O304 O 0.94222 0.5011 0.90763 0.0
O305 O 0.94523 0.53941 0.88673 0.0
O306 O 0.92568 0.4831 0.71352 0.0
O307 O 0.92815 0.51611 0.76791 0.0
Co308 Co 0.82527 0.68237 0.06135 0.0
O309 O 0.83119 0.65114 0.09188 0.0
O310 O 0.8561 0.67966 0.10176 0.0
C311 C 0.80859 0.67294 0.95735 0.0
O312 O 0.82553 0.7168 0.03571 0.0
Co313 Co 0.77485 0.69953 0.03139 0.0
O314 O 0.79092 0.72662 -0.00919 0.0
C315 C 0.79093 0.69112 0.17657 0.0
C316 C 0.85119 0.65811 0.11403 0.0
C317 C 0.81186 0.73135 0.00555 0.0
O318 O 0.81204 0.68968 0.1561 0.0
O319 O 0.77374 0.69289 0.13462 0.0
O320 O 0.83103 0.67395 0.96213 0.0
O321 O 0.79774 0.6761 0.0152 0.0
Co322 Co 0.63042 0.57444 0.31222 0.0
O323 O 0.66178 0.57906 0.34446 0.0
O324 O 0.63437 0.60537 0.3499 0.0
C325 C 0.63947 0.55624 0.21028 0.0
O326 O 0.59621 0.57655 0.28482 0.0
Co327 Co 0.6098 0.52541 0.28607 0.0
O328 O 0.5845 0.54271 0.23943 0.0
C329 C 0.619 0.54201 0.43045 0.0
C330 C 0.65552 0.59954 0.36456 0.0
C331 C 0.58115 0.56396 0.25292 0.0
O332 O 0.62197 0.56265 0.40765 0.0
O333 O 0.61578 0.52464 0.38999 0.0
O334 O 0.63978 0.57872 0.21333 0.0
O335 O 0.63525 0.54607 0.26876 0.0
Co336 Co 0.32586 0.38082 0.56174 0.0
O337 O 0.33059 0.41198 0.59538 0.0
O338 O 0.35667 0.3844 0.60143 0.0
C339 C 0.30844 0.39064 0.45902 0.0
O340 O 0.32769 0.3467 0.53298 0.0
Co341 Co 0.27656 0.36122 0.53019 0.0
O342 O 0.29396 0.3359 0.48449 0.0
C343 C 0.29245 0.36804 0.6767 0.0
C344 C 0.35097 0.40557 0.61608 0.0
C345 C 0.31502 0.33201 0.49972 0.0
O346 O 0.31324 0.37194 0.65604 0.0
O347 O 0.27541 0.36547 0.63459 0.0
O348 O 0.33091 0.39059 0.46335 0.0
O349 O 0.29787 0.38628 0.51667 0.0
Co350 Co 0.43499 0.57544 0.31317 0.0
O351 O 0.40373 0.58014 0.34598 0.0
O352 O 0.43115 0.6064 0.35132 0.0
C353 C 0.42564 0.55748 0.21099 0.0
O354 O 0.46912 0.57735 0.28505 0.0
Co355 Co 0.45505 0.52615 0.2853 0.0
O356 O 0.48041 0.54343 0.23892 0.0
C357 C 0.44737 0.54281 0.43033 0.0
C358 C 0.40998 0.60063 0.36595 0.0
C359 C 0.48401 0.56463 0.2528 0.0
O360 O 0.44381 0.56347 0.40824 0.0
O361 O 0.44995 0.52541 0.38957 0.0
O362 O 0.42542 0.57994 0.21448 0.0
O363 O 0.42986 0.54719 0.26926 0.0
Co364 Co 0.24004 0.68647 0.06137 0.0
O365 O 0.23519 0.65548 0.0955 0.0
O366 O 0.20921 0.68314 0.10165 0.0
C367 C 0.25718 0.67618 0.95896 0.0
O368 O 0.2388 0.72057 0.03171 0.0
Co369 Co 0.28996 0.70477 0.03053 0.0
O370 O 0.2732 0.73069 0.986 0.0
C371 C 0.27354 0.69867 0.1765 0.0
C372 C 0.21492 0.66197 0.11663 0.0
C373 C 0.25216 0.73511 0.00013 0.0
O374 O 0.25272 0.6954 0.15531 0.0
O375 O 0.29081 0.70057 0.13492 0.0
O376 O 0.23472 0.67654 0.96338 0.0
O377 O 0.26785 0.68047 0.01647 0.0
Co378 Co 0.13013 0.49001 0.8115 0.0
O379 O 0.16148 0.48503 0.84294 0.0
O380 O 0.13359 0.45936 0.85221 0.0
C381 C 0.13896 0.50675 0.70731 0.0
O382 O 0.09576 0.48863 0.78539 0.0
Co383 Co 0.11124 0.53973 0.78275 0.0
O384 O 0.085 0.52285 0.73994 0.0
C385 C 0.12037 0.52384 0.92748 0.0
C386 C 0.15491 0.46493 0.86545 0.0
C387 C 0.08097 0.50175 0.75416 0.0
O388 O 0.12239 0.50295 0.90587 0.0
O389 O 0.1177 0.5411 0.88627 0.0
O390 O 0.13891 0.48434 0.71298 0.0
O391 O 0.13553 0.51775 0.76492 0.0
Co392 Co 0.32435 0.68459 0.59108 0.0
O393 O 0.32981 0.65354 0.55821 0.0
O394 O 0.35508 0.68178 0.54975 0.0
C395 C 0.30808 0.67491 0.69518 0.0
O396 O 0.32484 0.71882 0.61921 0.0
Co397 Co 0.27386 0.70153 0.62126 0.0
O398 O 0.29002 0.72832 0.66336 0.0
C399 C 0.2904 0.6959 0.47582 0.0
C400 C 0.34986 0.66038 0.53616 0.0
C401 C 0.311 0.73319 0.64955 0.0
O402 O 0.31121 0.69294 0.4973 0.0
O403 O 0.27293 0.69733 0.51679 0.0
O404 O 0.33048 0.67541 0.68898 0.0
O405 O 0.29687 0.67822 0.63788 0.0
Co406 Co 0.13162 0.57605 0.34186 0.0
O407 O 0.16287 0.58168 0.31071 0.0
O408 O 0.1346 0.60697 0.30261 0.0
C409 C 0.14097 0.55875 0.44509 0.0
O410 O 0.09727 0.57682 0.36822 0.0
Co411 Co 0.11355 0.52591 0.37032 0.0
O412 O 0.08682 0.54228 0.41205 0.0
C413 C 0.12268 0.54224 0.22591 0.0
C414 C 0.15603 0.60183 0.28937 0.0
C415 C 0.08252 0.56337 0.39823 0.0
O416 O 0.12394 0.5633 0.24682 0.0
O417 O 0.12081 0.52497 0.26746 0.0
O418 O 0.14039 0.58121 0.44113 0.0
O419 O 0.13751 0.54823 0.38687 0.0
Co420 Co 0.24043 0.3812 0.0911 0.0
O421 O 0.2351 0.41243 0.05918 0.0
O422 O 0.20973 0.38429 0.05031 0.0
C423 C 0.25697 0.39039 0.19553 0.0
O424 O 0.23934 0.34693 0.11786 0.0
Co425 Co 0.29044 0.36307 0.12126 0.0
O426 O 0.27382 0.33628 0.16185 0.0
C427 C 0.27437 0.37008 0.97576 0.0
C428 C 0.21495 0.4057 0.03738 0.0
C429 C 0.25272 0.33207 0.14763 0.0
O430 O 0.2535 0.37306 -0.0031 0.0
O431 O 0.2917 0.36819 0.01712 0.0
O432 O 0.23456 0.39013 0.18947 0.0
O433 O 0.26808 0.38701 0.13809 0.0
Co434 Co 0.43589 0.48988 0.84262 0.0
O435 O 0.40459 0.48523 0.80974 0.0
O436 O 0.43238 0.45948 0.80031 0.0
C437 C 0.4266 0.50606 0.94747 0.0
O438 O 0.47015 0.48798 0.86992 0.0
Co439 Co 0.45554 0.53879 0.8776 0.0
O440 O 0.48096 0.52108 0.92208 0.0
C441 C 0.4482 0.52436 0.72989 0.0
C442 C 0.41107 0.46511 0.78708 0.0
C443 C 0.48486 0.50024 0.9045 0.0
O444 O 0.44432 0.50344 0.7492 0.0
O445 O 0.45107 0.541 0.77326 0.0
O446 O 0.42659 0.48368 0.94056 0.0
O447 O 0.43051 0.51737 0.89074 0.0
C448 C 0.16327 0.13811 0.92905 0.0
C449 C 0.17046 0.11591 0.90801 0.0
C450 C 0.17735 0.15227 0.9715 0.0
C451 C 0.19917 0.14482 -0.00472 0.0
H452 H 0.1466 0.14464 0.91269 0.0
H453 H 0.17106 0.16924 0.9856 0.0
S454 S 0.22608 0.08804 0.95591 0.0
N455 N 0.20101 0.08721 0.9149 0.0
N456 N 0.22714 0.11351 -0.00558 0.0
C457 C 0.20648 0.1226 0.97488 0.0
C458 C 0.19225 0.10828 0.93139 0.0
C459 C 0.18861 0.95577 0.22056 0.0
C460 C 0.16664 0.9484 0.24309 0.0
C461 C 0.20267 0.94181 0.17785 0.0
C462 C 0.19554 0.91972 0.15581 0.0
H463 H 0.19504 0.9726 0.23562 0.0
H464 H 0.21943 0.9484 0.16253 0.0
S465 S 0.13951 0.89211 0.19976 0.0
N466 N 0.13838 0.91741 0.23944 0.0
N467 N 0.16481 0.89119 0.15988 0.0
C468 C 0.1736 0.9121 0.17788 0.0
C469 C 0.1592 0.92639 0.22121 0.0
C470 C 0.37298 0.95457 0.43047 0.0
C471 C 0.39501 0.94729 0.40835 0.0
C472 C 0.35888 0.94056 0.4729 0.0
C473 C 0.36609 0.91853 0.49526 0.0
H474 H 0.36652 0.97139 0.41535 0.0
H475 H 0.34207 0.94708 0.48786 0.0
S476 S 0.42227 0.89108 0.45211 0.0
N477 N 0.42338 0.91638 0.41244 0.0
N478 N 0.39692 0.89008 0.4916 0.0
C479 C 0.38808 0.91096 0.4735 0.0
C480 C 0.4025 0.92529 0.43032 0.0
C481 C 0.40193 0.13755 0.7209 0.0
C482 C 0.39366 0.1165 0.74816 0.0
C483 C 0.38807 0.15169 0.67775 0.0
C484 C 0.36538 0.14532 0.65939 0.0
H485 H 0.41935 0.14316 0.73257 0.0
H486 H 0.39528 0.16772 0.65841 0.0
S487 S 0.33502 0.09233 0.7189 0.0
N488 N 0.36087 0.09039 0.75484 0.0
N489 N 0.33509 0.11668 0.67402 0.0
C490 C 0.35683 0.12441 0.68683 0.0
C491 C 0.37086 0.11012 0.73107 0.0
C492 C 0.85874 0.93863 0.18247 0.0
C493 C 0.86594 0.91653 0.16081 0.0
C494 C 0.87281 0.95274 0.2246 0.0
C495 C 0.89485 0.94553 0.24695 0.0
H496 H 0.84195 0.94513 0.16714 0.0
H497 H 0.86635 0.9696 0.23921 0.0
S498 S 0.92207 0.88915 0.20521 0.0
N499 N 0.89674 0.88805 0.16556 0.0
N500 N 0.92319 0.91458 0.24408 0.0
C501 C 0.90233 0.92346 0.22575 0.0
C502 C 0.88792 0.909 0.18296 0.0
C503 C 0.90023 0.13657 0.92658 0.0
C504 C 0.89363 0.11399 0.90793 0.0
C505 C 0.8861 0.1506 0.96915 0.0
C506 C 0.86479 0.14263 -0.00452 0.0
H507 H 0.91646 0.14356 0.90796 0.0
H508 H 0.89191 0.16791 0.98111 0.0
S509 S 0.8399 0.08441 0.96501 0.0
N510 N 0.86447 0.08413 0.92119 0.0
N511 N 0.83816 0.11025 0.00094 0.0
C512 C 0.85814 0.11995 0.97802 0.0
C513 C 0.87245 0.10574 0.9344 0.0
C514 C 0.70405 0.12357 0.68092 0.0
C515 C 0.69692 0.14565 0.65879 0.0
C516 C 0.68995 0.10963 0.7236 0.0
C517 C 0.66799 0.11704 0.74618 0.0
H518 H 0.72079 0.11697 0.66558 0.0
H519 H 0.69633 0.09277 0.7386 0.0
S520 S 0.64087 0.17332 0.70253 0.0
N521 N 0.66617 0.1742 0.6627 0.0
N522 N 0.63974 0.14805 0.74235 0.0
C523 C 0.66057 0.13905 0.72423 0.0
C524 C 0.67497 0.1533 0.6808 0.0
C525 C 0.66234 0.92694 0.43211 0.0
C526 C 0.67002 0.94861 0.40792 0.0
C527 C 0.67639 0.91277 0.47463 0.0
C528 C 0.69871 0.91971 0.49538 0.0
H529 H 0.64527 0.92083 0.41825 0.0
H530 H 0.66966 0.89624 0.49136 0.0
S531 S 0.72719 0.97486 0.44635 0.0
N532 N 0.70167 0.97618 0.40807 0.0
N533 N 0.72779 0.94986 0.48772 0.0
C534 C 0.70658 0.94136 0.47157 0.0
C535 C 0.69236 0.95568 0.428 0.0
C536 C 0.67765 0.65082 0.47204 0.0
C537 C 0.69957 0.6435 0.49527 0.0
C538 C 0.6637 0.63671 0.42918 0.0
C539 C 0.67109 0.61469 0.40719 0.0
H540 H 0.67116 0.66764 0.48694 0.0
H541 H 0.64693 0.64315 0.41339 0.0
S542 S 0.72713 0.58731 0.45286 0.0
N543 N 0.72797 0.61261 0.49248 0.0
N544 N 0.70198 0.58632 0.41227 0.0
C545 C 0.69301 0.6072 0.42985 0.0
C546 C 0.70715 0.62151 0.47371 0.0
C547 C 0.69205 0.4535 0.72425 0.0
C548 C 0.66986 0.44644 0.74568 0.0
C549 C 0.70599 0.43949 0.68127 0.0
C550 C 0.69846 0.4177 0.65776 0.0
H551 H 0.69872 0.47014 0.74027 0.0
H552 H 0.72292 0.44581 0.66673 0.0
S553 S 0.64194 0.39075 0.69986 0.0
N554 N 0.64115 0.4159 0.74047 0.0
N555 N 0.66727 0.38963 0.66029 0.0
C556 C 0.67636 0.41033 0.67919 0.0
C557 C 0.66213 0.42464 0.72289 0.0
C558 C 0.87422 0.45315 0.93078 0.0
C559 C 0.8961 0.44583 0.90723 0.0
C560 C 0.86028 0.43902 0.97333 0.0
C561 C 0.86746 0.41683 -0.0058 0.0
H562 H 0.86781 0.47009 0.91681 0.0
H563 H 0.84361 0.44558 0.98962 0.0
S564 S 0.92318 0.38919 0.94653 0.0
N565 N 0.92423 0.4147 0.90809 0.0
N566 N 0.89806 0.38818 0.98741 0.0
C567 C 0.88927 0.40922 0.97085 0.0
C568 C 0.90354 0.42367 0.92764 0.0
C569 C 0.88761 0.65093 0.18419 0.0
C570 C 0.86667 0.64266 0.15606 0.0
C571 C 0.90171 0.63697 0.22719 0.0
C572 C 0.89539 0.61418 0.24452 0.0
H573 H 0.89313 0.66842 0.17341 0.0
H574 H 0.91764 0.64417 0.24732 0.0
S575 S 0.8428 0.58374 0.18201 0.0
N576 N 0.84081 0.60972 0.14712 0.0
N577 N 0.867 0.58379 0.22771 0.0
C578 C 0.87462 0.60563 0.21609 0.0
C579 C 0.86039 0.61975 0.17199 0.0
C580 C 0.38837 0.41393 0.67983 0.0
C581 C 0.36623 0.42118 0.65836 0.0
C582 C 0.40264 0.42806 0.72174 0.0
C583 C 0.39537 0.45004 0.74453 0.0
H584 H 0.39479 0.39714 0.66427 0.0
H585 H 0.41954 0.42166 0.73634 0.0
S586 S 0.33889 0.47729 0.70322 0.0
N587 N 0.33781 0.45203 0.66347 0.0
N588 N 0.36435 0.47831 0.74193 0.0
C589 C 0.37324 0.45747 0.72352 0.0
C590 C 0.35879 0.44316 0.68061 0.0
C591 C 0.38709 0.6523 0.47084 0.0
C592 C 0.36516 0.64487 0.49369 0.0
C593 C 0.40134 0.63809 0.42905 0.0
C594 C 0.39425 0.61589 0.40776 0.0
H595 H 0.39334 0.66924 0.48533 0.0
H596 H 0.4181 0.64459 0.41348 0.0
S597 S 0.33831 0.58819 0.45271 0.0
N598 N 0.33711 0.61364 0.49126 0.0
N599 N 0.3636 0.58728 0.41298 0.0
C600 C 0.37231 0.60832 0.43 0.0
C601 C 0.35789 0.62268 0.4728 0.0
C602 C 0.16376 0.63907 0.22397 0.0
C603 C 0.17147 0.61728 0.24719 0.0
C604 C 0.17773 0.65335 0.18148 0.0
C605 C 0.19994 0.64639 0.15987 0.0
H606 H 0.14675 0.64517 0.23847 0.0
H607 H 0.17101 0.66996 0.16543 0.0
S608 S 0.22842 0.59095 0.20636 0.0
N609 N 0.20303 0.5896 0.24532 0.0
N610 N 0.22896 0.61609 0.16578 0.0
C611 C 0.20783 0.62463 0.18281 0.0
C612 C 0.19371 0.61021 0.22632 0.0
C613 C 0.16404 0.42728 0.92668 0.0
C614 C 0.17048 0.44998 0.90876 0.0
C615 C 0.17827 0.41321 0.96891 0.0
C616 C 0.1995 0.42127 -0.00438 0.0
H617 H 0.14789 0.42024 0.90769 0.0
H618 H 0.17261 0.39581 0.9803 0.0
S619 S 0.22391 0.47982 0.96727 0.0
N620 N 0.19937 0.48003 0.92325 0.0
N621 N 0.22584 0.45387 0.00235 0.0
C622 C 0.20596 0.44406 0.97895 0.0
C623 C 0.19157 0.45831 0.93568 0.0
C624 C 0.26259 0.20365 0.85173 0.0
C625 C 0.27846 0.19378 0.89867 0.0
C626 C 0.26719 0.20439 0.77966 0.0
C627 C 0.28776 0.19516 0.75217 0.0
H628 H 0.24672 0.21129 0.87092 0.0
H629 H 0.25463 0.2125 0.74544 0.0
S630 S 0.33361 0.16489 0.8529 0.0
N631 N 0.31467 0.17303 0.91281 0.0
N632 N 0.32329 0.17418 0.77714 0.0
C633 C 0.30348 0.18462 0.79856 0.0
C634 C 0.29882 0.18397 0.87191 0.0
C635 C 0.1221 1.0125 0.10511 0.0
C636 C 0.11667 1.03002 0.1535 0.0
C637 C 0.12235 1.01681 0.03297 0.0
C638 C 0.11728 0.03884 0.00625 0.0
H639 H 0.12648 0.99529 0.12283 0.0
H640 H 0.12692 1.00279 -0.00201 0.0
S641 S 0.10087 0.09053 0.10976 0.0
N642 N 0.10528 0.07023 0.16907 0.0
N643 N 0.10591 0.07825 0.03304 0.0
C644 C 0.1116 0.05652 0.05366 0.0
C645 C 0.11123 0.05213 0.12735 0.0
C646 C 0.26153 0.86357 0.29441 0.0
C647 C 0.27799 0.87243 0.24747 0.0
C648 C 0.266 0.86263 0.36646 0.0
C649 C 0.28705 0.87064 0.39421 0.0
H650 H 0.24516 0.85704 0.27535 0.0
H651 H 0.25283 0.8555 0.40054 0.0
S652 S 0.33517 0.89708 0.2935 0.0
N653 N 0.31572 0.89033 0.23351 0.0
N654 N 0.32411 0.88873 0.36929 0.0
C655 C 0.30359 0.8798 0.3478 0.0
C656 C 0.29905 0.88067 0.27433 0.0
C657 C 0.45127 0.0519 0.60841 0.0
C658 C 0.44258 0.03556 0.65597 0.0
C659 C 0.45188 0.0473 0.53641 0.0
C660 C 0.44368 1.02625 0.50931 0.0
H661 H 0.45795 0.06825 0.62697 0.0
H662 H 0.45895 0.06037 0.50188 0.0
S663 S 0.41735 0.97852 0.61191 0.0
N664 N 0.4245 0.99801 0.67131 0.0
N665 N 0.42543 0.98938 0.53558 0.0
C666 C 0.43459 1.00987 0.55636 0.0
C667 C 0.43408 1.01453 0.62981 0.0
C668 C 0.76449 0.87392 0.28271 0.0
C669 C 0.78564 0.8661 0.25554 0.0
C670 C 0.76015 0.8736 0.35493 0.0
C671 C 0.77677 0.86531 0.40262 0.0
H672 H 0.75132 0.88079 0.24807 0.0
H673 H 0.74378 0.88029 0.37339 0.0
S674 S 0.83421 0.84094 0.35676 0.0
N675 N 0.82288 0.84865 0.28069 0.0
N676 N 0.81477 0.84775 0.4167 0.0
C677 C 0.79782 0.85687 0.37575 0.0
C678 C 0.80226 0.85736 0.30216 0.0
C679 C 0.95244 1.01556 0.03021 0.0
C680 C 0.94321 0.03612 0.00264 0.0
C681 C 0.95161 1.01093 0.10228 0.0
C682 C 0.94165 1.02676 0.14916 0.0
H683 H 0.96061 1.00303 -0.00393 0.0
H684 H 0.95923 0.99508 0.12151 0.0
S685 S 0.91275 0.08187 0.10305 0.0
N686 N 0.92216 0.07159 0.0274 0.0
N687 N 0.92083 0.06293 0.16303 0.0
C688 C 0.93185 0.04711 0.12227 0.0
C689 C 0.93259 0.05179 0.04893 0.0
C690 C 0.76477 0.19039 0.87307 0.0
C691 C 0.78653 0.19657 0.89979 0.0
C692 C 0.76037 0.19072 0.80083 0.0
C693 C 0.77752 0.19739 0.75252 0.0
H694 H 0.75114 0.1848 0.90811 0.0
H695 H 0.74346 0.18535 0.78288 0.0
S696 S 0.83692 0.21696 0.79683 0.0
N697 N 0.82508 0.21065 0.87334 0.0
N698 N 0.81688 0.21156 0.73742 0.0
C699 C 0.79925 0.20416 0.7789 0.0
C700 C 0.80374 0.20365 0.85252 0.0
C701 C 0.6109 1.01748 0.61914 0.0
C702 C 0.61919 0.03845 0.64654 0.0
C703 C 0.61172 1.01291 0.54714 0.0
C704 C 0.62073 1.02919 0.49993 0.0
H705 H 0.60359 1.00447 0.65343 0.0
H706 H 0.60494 0.99663 0.52828 0.0
S707 S 0.64633 0.08598 0.54496 0.0
N708 N 0.63787 0.07516 0.62097 0.0
N709 N 0.63921 0.06657 0.48527 0.0
C710 C 0.62933 0.05012 0.52642 0.0
C711 C 0.6286 0.05476 0.59984 0.0
C712 C 0.79769 0.70205 0.37108 0.0
C713 C 0.7768 0.69366 0.39888 0.0
C714 C 0.8023 0.70084 0.29908 0.0
C715 C 0.78614 0.69131 0.25239 0.0
H716 H 0.81055 0.7098 0.40501 0.0
H717 H 0.81846 0.70779 0.27976 0.0
S718 S 0.72982 0.66489 0.29889 0.0
N719 N 0.74046 0.67405 0.37436 0.0
N720 N 0.74912 0.67199 0.23884 0.0
C721 C 0.76538 0.68245 0.27941 0.0
C722 C 0.7607 0.68358 0.35273 0.0
C723 C 0.61112 0.51698 0.53438 0.0
C724 C 0.61966 0.53787 0.50705 0.0
C725 C 0.61203 0.51226 0.60636 0.0
C726 C 0.62136 0.52831 0.65369 0.0
H727 H 0.60354 0.50414 0.50006 0.0
H728 H 0.60507 0.49604 0.62512 0.0
S729 S 0.64786 0.58471 0.609 0.0
N730 N 0.63906 0.57419 0.53296 0.0
N731 N 0.64051 0.56533 0.66853 0.0
C732 C 0.63025 0.54914 0.6273 0.0
C733 C 0.62946 0.55393 0.5539 0.0
C734 C 0.79751 0.35894 0.78372 0.0
C735 C 0.77644 0.36715 0.75657 0.0
C736 C 0.80209 0.35948 0.85581 0.0
C737 C 0.78572 0.36808 0.9035 0.0
H738 H 0.81063 0.35199 0.74914 0.0
H739 H 0.81849 0.35286 0.87434 0.0
S740 S 0.72856 0.39318 0.85958 0.0
N741 N 0.73947 0.38523 0.78318 0.0
N742 N 0.74808 0.386 0.91892 0.0
C743 C 0.76465 0.37652 0.87733 0.0
C744 C 0.76 0.3761 0.80381 0.0
C745 C 0.95362 0.51557 0.12336 0.0
C746 C 0.94451 0.53619 0.15079 0.0
C747 C 0.9529 0.51097 0.05128 0.0
C748 C 0.94317 0.52689 0.00424 0.0
H749 H 0.96162 0.50296 0.15763 0.0
H750 H 0.96043 0.49505 0.03219 0.0
S751 S 0.91466 0.58223 0.04986 0.0
N752 N 0.92383 0.57185 0.12567 0.0
N753 N 0.92269 0.56324 0.99 0.0
C754 C 0.9335 0.54732 0.03095 0.0
C755 C 0.93413 0.55197 0.10432 0.0
C756 C 0.30413 0.3763 0.80032 0.0
C757 C 0.28777 0.36732 0.75297 0.0
C758 C 0.29969 0.37694 0.87248 0.0
C759 C 0.2787 0.36878 0.8998 0.0
H760 H 0.32034 0.3833 0.78162 0.0
H761 H 0.31263 0.38431 0.90693 0.0
S762 S 0.23097 0.34172 0.79963 0.0
N763 N 0.25029 0.34868 0.73948 0.0
N764 N 0.24197 0.35022 0.87535 0.0
C765 C 0.26237 0.35935 0.85356 0.0
C766 C 0.26691 0.35852 0.78007 0.0
C767 C 0.44145 0.51706 0.53318 0.0
C768 C 0.44816 0.53865 0.50661 0.0
C769 C 0.4417 0.51259 0.6053 0.0
C770 C 0.44882 0.52951 0.65372 0.0
H771 H 0.43557 0.50357 0.49808 0.0
H772 H 0.43598 0.49578 0.62304 0.0
S773 S 0.46948 0.58852 0.60991 0.0
N774 N 0.46294 0.57689 0.53328 0.0
N775 N 0.4637 0.56855 0.66921 0.0
C776 C 0.45594 0.55114 0.62757 0.0
C777 C 0.45552 0.5557 0.55397 0.0
C778 C 0.26526 0.68995 0.37172 0.0
C779 C 0.28632 0.6976 0.39985 0.0
C780 C 0.26114 0.69074 0.29947 0.0
C781 C 0.27791 0.69934 0.25283 0.0
H782 H 0.25203 0.68281 0.40558 0.0
H783 H 0.24486 0.68411 0.28012 0.0
S784 S 0.33508 0.72362 0.30157 0.0
N785 N 0.32358 0.71536 0.37686 0.0
N786 N 0.31584 0.71713 0.2407 0.0
C787 C 0.29884 0.70768 0.28067 0.0
C788 C 0.30305 0.70672 0.35429 0.0
C789 C 0.11297 0.55338 0.10326 0.0
C790 C 0.12296 0.53757 0.15011 0.0
C791 C 0.11215 0.54876 0.03121 0.0
C792 C 0.12141 0.52823 0.00366 0.0
H793 H 0.1053 0.56922 0.12251 0.0
H794 H 0.10394 0.56128 -0.00293 0.0
S795 S 0.15195 0.48252 0.10409 0.0
N796 N 0.14384 0.50144 0.16407 0.0
N797 N 0.14252 0.49279 0.02842 0.0
C798 C 0.13206 0.51256 0.04994 0.0
C799 C 0.13279 0.51724 0.12328 0.0
C800 C 0.2534 0.27096 0.2141 0.0
C801 C 0.24485 0.25852 0.15623 0.0
C802 C 0.25349 0.29515 0.21445 0.0
C803 C 0.24505 0.30784 0.15693 0.0
H804 H 0.2616 0.26191 0.2572 0.0
H805 H 0.26174 0.30401 0.25781 0.0
S806 S 0.21744 0.28354 -0.00267 0.0
N807 N 0.22498 0.26068 0.04385 0.0
N808 N 0.22517 0.30619 0.04448 0.0
C809 C 0.23415 0.29567 0.10216 0.0
C810 C 0.23405 0.27095 0.10182 0.0
C811 C 0.04326 0.98609 0.35359 0.0
C812 C 0.05544 0.99484 0.41185 0.0
C813 C 1.01896 0.98594 0.3526 0.0
C814 C 1.00618 0.99454 0.40986 0.0
H815 H 0.05244 0.98135 0.30611 0.0
H816 H 1.01023 0.98109 0.30442 0.0
S817 S 1.02996 1.01299 0.58152 0.0
N818 N 0.053 1.00783 0.53287 0.0
N819 N 1.00742 1.00758 0.53101 0.0
C820 C 1.01819 1.00075 0.4711 0.0
C821 C 0.04283 1.00089 0.4721 0.0
C822 C 0.30705 0.79446 0.71402 0.0
C823 C 0.31711 0.80703 0.65864 0.0
C824 C 0.30745 0.77029 0.71477 0.0
C825 C 0.31785 0.75765 0.66004 0.0
H826 H 0.29733 0.80332 0.75452 0.0
H827 H 0.298 0.76141 0.75584 0.0
S828 S 0.34925 0.78235 0.5076 0.0
N829 N 0.34005 0.8051 0.55176 0.0
N830 N 0.3407 0.75961 0.55298 0.0
C831 C 0.32997 0.77 0.60806 0.0
C832 C 0.32961 0.79473 0.60738 0.0
C833 C 0.51907 0.07929 0.85292 0.0
C834 C 0.50673 0.07088 0.91132 0.0
C835 C 0.54338 0.07912 0.85219 0.0
C836 C 0.55599 0.07052 0.90982 0.0
H837 H 0.50999 0.08396 0.80518 0.0
H838 H 0.55221 0.08366 0.80391 0.0
S839 S 0.53183 0.05287 0.0817 0.0
N840 N 0.5089 0.05823 0.03275 0.0
N841 N 0.55449 0.05784 0.03125 0.0
C842 C 0.54385 0.06468 0.97111 0.0
C843 C 0.51922 0.06488 0.9719 0.0
C844 C 0.25475 0.7962 0.93382 0.0
C845 C 0.24488 0.80877 0.98953 0.0
C846 C 0.25465 0.77203 0.93358 0.0
C847 C 0.24474 0.75939 0.98913 0.0
H848 H 0.2641 0.80508 0.89255 0.0
H849 H 0.264 0.76318 0.89224 0.0
S850 S 0.21377 0.78403 0.14246 0.0
N851 N 0.22249 0.80679 0.09748 0.0
N852 N 0.22239 0.76129 0.09716 0.0
C853 C 0.23273 0.7717 0.04142 0.0
C854 C 0.23279 0.79643 0.04161 0.0
C855 C 0.51959 1.003 0.18914 0.0
C856 C 0.50717 0.99465 0.24726 0.0
C857 C 0.5438 1.00276 0.18833 0.0
C858 C 0.55651 0.99422 0.24572 0.0
H859 H 0.51052 1.01125 0.14617 0.0
H860 H 0.5527 1.01082 0.1447 0.0
S861 S 0.53215 0.96681 0.40552 0.0
N862 N 0.50928 0.97468 0.35945 0.0
N863 N 0.55483 0.97431 0.35808 0.0
C864 C 0.54431 0.98347 0.30065 0.0
C865 C 0.51957 0.98367 0.3014 0.0
C866 C 0.33174 0.27131 0.54838 0.0
C867 C 0.32295 0.25876 0.49093 0.0
C868 C 0.33183 0.2956 0.54788 0.0
C869 C 0.32313 0.30799 0.48993 0.0
H870 H 0.3364 0.26244 0.59649 0.0
H871 H 0.33655 0.30461 0.59567 0.0
S872 S 0.30446 0.28307 0.31995 0.0
N873 N 0.30982 0.26039 0.3699 0.0
N874 N 0.30999 0.30593 0.36894 0.0
C875 C 0.31703 0.29557 0.42933 0.0
C876 C 0.31693 0.27096 0.42985 0.0
C877 C 1.0202 0.06343 0.6858 0.0
C878 C 1.00763 0.07126 0.7443 0.0
C879 C 0.04442 0.06351 0.68575 0.0
C880 C 0.05695 0.07159 0.74407 0.0
H881 H 1.01122 0.05558 0.64199 0.0
H882 H 0.05341 0.05558 0.64205 0.0
S883 S 0.03219 0.09778 0.90516 0.0
N884 N 1.00944 0.09032 0.85797 0.0
N885 N 0.05499 0.09066 0.85771 0.0
C886 C 0.0446 0.082 0.79933 0.0
C887 C 1.01987 0.08182 0.79948 0.0
C888 C 0.80994 0.7683 0.93904 0.0
C889 C 0.81894 0.75576 -0.00385 0.0
C890 C 0.8096 0.79249 0.93931 0.0
C891 C 0.81825 0.80509 -0.00333 0.0
H892 H 0.80165 0.75929 0.89602 0.0
H893 H 0.80113 0.80141 0.89647 0.0
S894 S 0.84698 0.78062 0.15425 0.0
N895 N 0.83939 0.75781 0.10758 0.0
N896 N 0.83875 0.80332 0.10807 0.0
C897 C 0.82953 0.79287 0.05063 0.0
C898 C 0.82988 0.76815 0.05037 0.0
C899 C 0.73658 0.26909 0.55131 0.0
C900 C 0.74285 0.25674 0.49055 0.0
C901 C 0.73684 0.29333 0.552 0.0
C902 C 0.74337 0.30591 0.49194 0.0
H903 H 0.73362 0.26005 0.60036 0.0
H904 H 0.73406 0.30214 0.60153 0.0
S905 S 0.75381 0.28177 0.31443 0.0
N906 N 0.75065 0.25885 0.36525 0.0
N907 N 0.75115 0.30443 0.36658 0.0
C908 C 0.74691 0.2938 0.42892 0.0
C909 C 0.74664 0.26917 0.42821 0.0
C910 C 0.82739 0.29282 0.09844 0.0
C911 C 0.82151 0.30525 0.15943 0.0
C912 C 0.82737 0.26857 0.09827 0.0
C913 C 0.82149 0.25606 0.15909 0.0
H914 H 0.8299 0.3018 0.04904 0.0
H915 H 0.82983 0.25967 0.04872 0.0
S916 S 0.8121 0.28051 0.33677 0.0
N917 N 0.81466 0.30334 0.28526 0.0
N918 N 0.81462 0.25777 0.28492 0.0
C919 C 0.81829 0.26829 0.22208 0.0
C920 C 0.8183 0.29292 0.22226 0.0
C921 C 0.7331 0.76987 0.60423 0.0
C922 C 0.74165 0.75719 0.66173 0.0
C923 C 0.73282 0.79416 0.60549 0.0
C924 C 0.7411 0.80639 0.66429 0.0
H925 H 0.7288 0.76115 0.55558 0.0
H926 H 0.72834 0.80331 0.55772 0.0
S927 S 0.75883 0.78099 0.83454 0.0
N928 N 0.754 0.75846 0.78355 0.0
N929 N 0.75347 0.80399 0.78597 0.0
C930 C 0.74691 0.79381 0.72484 0.0
C931 C 0.7472 0.7692 0.72353 0.0
C932 C 0.54565 0.48654 0.84962 0.0
C933 C 0.55825 0.49268 0.91006 0.0
C934 C 0.52138 0.48633 0.85024 0.0
C935 C 0.50902 0.49225 0.91132 0.0
H936 H 0.55449 0.48397 0.80001 0.0
H937 H 0.51233 0.48368 0.80102 0.0
S938 S 0.53407 0.50243 0.08791 0.0
N939 N 0.55674 0.4999 0.03571 0.0
N940 N 0.51114 0.4995 0.03692 0.0
C941 C 0.52147 0.49571 0.97384 0.0
C942 C 0.54612 0.49595 0.97319 0.0
C943 C 1.02164 0.56247 0.46661 0.0
C944 C 1.00897 0.57068 0.40877 0.0
C945 C 0.04585 0.56254 0.46631 0.0
C946 C 0.05829 0.57095 0.40825 0.0
H947 H 1.01273 0.55438 0.51015 0.0
H948 H 0.05491 0.55443 0.50957 0.0
S949 S 0.03328 0.59812 0.24897 0.0
N950 N 1.01061 0.5904 0.29609 0.0
N951 N 0.05616 0.59068 0.29566 0.0
C952 C 0.04587 0.58167 0.35368 0.0
C953 C 1.02114 0.58152 0.35392 0.0
C954 C 1.02012 0.4852 0.80245 0.0
C955 C 1.0076 0.49395 0.74483 0.0
C956 C 0.04443 0.48519 0.80231 0.0
C957 C 0.05686 0.4939 0.7445 0.0
H958 H 1.01119 0.4804 0.85034 0.0
H959 H 0.05342 0.48043 0.85013 0.0
S960 S 1.03211 0.51244 0.57419 0.0
N961 N 1.00935 0.5071 0.62385 0.0
N962 N 0.05493 0.50702 0.62352 0.0
C963 C 0.04449 0.50004 0.68383 0.0
C964 C 1.01986 0.50008 0.68401 0.0
C965 C 0.52053 0.57937 0.30469 0.0
C966 C 0.50802 0.57282 0.24449 0.0
C967 C 0.5448 0.57919 0.30472 0.0
C968 C 0.55723 0.57245 0.24456 0.0
H969 H 0.5116 0.58242 0.3539 0.0
H970 H 0.55376 0.58211 0.35396 0.0
S971 S 0.53255 0.56098 0.06829 0.0
N972 N 0.50977 0.5644 0.11957 0.0
N973 N 0.55538 0.56406 0.11961 0.0
C974 C 0.54493 0.56866 0.182 0.0
C975 C 0.52028 0.56885 0.18197 0.0
C976 C 0.25932 0.17697 0.32552 0.0
C977 C 0.27039 0.17438 0.26043 0.0
C978 C 0.27204 0.17741 0.38832 0.0
C979 C 0.29634 0.17532 0.38861 0.0
H980 H 0.24077 0.17916 0.32799 0.0
H981 H 0.26264 0.17971 0.43705 0.0
S982 S 0.3335 0.16648 0.23238 0.0
N983 N 0.3071 0.1683 0.20031 0.0
N984 N 0.33079 0.16949 0.31828 0.0
C985 C 0.30756 0.17213 0.32407 0.0
C986 C 0.29464 0.17157 0.26008 0.0
C987 C 0.1397 0.04274 0.51535 0.0
C988 C 0.14033 1.01837 0.51483 0.0
C989 C 0.14008 0.05531 0.57834 0.0
C990 C 0.14117 0.04407 0.64352 0.0
H991 H 0.13857 0.05232 0.4666 0.0
H992 H 0.13904 0.07395 0.57583 0.0
S993 S 0.14496 0.98062 0.67138 0.0
N994 N 0.14323 0.98359 0.58521 0.0
N995 N 0.14432 1.00703 0.7037 0.0
C996 C 0.14257 1.01971 0.6438 0.0
C997 C 0.14207 1.00692 0.57951 0.0
C998 C 0.2906 0.8921 0.88535 0.0
C999 C 0.26622 0.89289 0.88554 0.0
C1000 C 0.30325 0.89174 0.82253 0.0
C1001 C 0.29207 0.89228 0.75717 0.0
H1002 H 0.30015 0.89142 0.93425 0.0
H1003 H 0.32189 0.89062 0.82536 0.0
S1004 S 0.22863 0.89632 0.72831 0.0
N1005 N 0.2315 0.89537 0.81463 0.0
N1006 N 0.25508 0.89517 0.69634 0.0
C1007 C 0.2677 0.89388 0.75648 0.0
C1008 C 0.25483 0.89408 0.82064 0.0
C1009 C 0.42402 1.02265 0.01815 0.0
C1010 C 0.42295 0.047 0.01806 0.0
C1011 C 0.42389 1.00994 0.08088 0.0
C1012 C 0.42259 1.02103 0.14626 0.0
H1013 H 0.42526 1.01317 0.96924 0.0
H1014 H 0.42523 0.99133 0.07802 0.0
S1015 S 0.41772 0.08435 0.17524 0.0
N1016 N 0.41949 0.08159 0.08902 0.0
N1017 N 0.41884 0.0579 0.2071 0.0
C1018 C 0.4208 0.04536 0.14699 0.0
C1019 C 0.42107 0.05829 0.08293 0.0
C1020 C 0.77037 0.88833 0.89157 0.0
C1021 C 0.79472 0.88983 0.89226 0.0
C1022 C 0.75779 0.88875 0.82847 0.0
C1023 C 0.76904 0.89072 0.76345 0.0
H1024 H 0.76084 0.88648 0.94022 0.0
H1025 H 0.73919 0.88698 0.83068 0.0
S1026 S 0.83235 0.89707 0.73627 0.0
N1027 N 0.82941 0.89456 0.82226 0.0
N1028 N 0.80598 0.89568 0.70378 0.0
C1029 C 0.79334 0.893 0.76347 0.0
C1030 C 0.80612 0.89247 0.82775 0.0
C1031 C 0.92598 1.02036 0.63839 0.0
C1032 C 0.92371 0.04463 0.63865 0.0
C1033 C 0.92523 1.00761 0.57571 0.0
C1034 C 0.92211 1.0186 0.5107 0.0
H1035 H 0.92866 1.01102 0.68703 0.0
H1036 H 0.9276 0.9891 0.57819 0.0
S1037 S 0.91359 0.08158 0.4827 0.0
N1038 N 0.91718 0.07896 0.56842 0.0
N1039 N 0.91537 0.05519 0.45071 0.0
C1040 C 0.91912 0.04281 0.51036 0.0
C1041 C 0.92003 0.05577 0.57422 0.0
C1042 C 0.77062 0.17441 0.26415 0.0
C1043 C 0.79493 0.1724 0.2635 0.0
C1044 C 0.75802 0.17411 0.32721 0.0
C1045 C 0.76921 0.17177 0.39224 0.0
H1046 H 0.76114 0.17656 0.21551 0.0
H1047 H 0.73946 0.17627 0.32497 0.0
S1048 S 0.83239 0.16423 0.41948 0.0
N1049 N 0.82952 0.16692 0.33352 0.0
N1050 N 0.80604 0.16604 0.45192 0.0
C1051 C 0.79346 0.16904 0.39224 0.0
C1052 C 0.80627 0.16944 0.328 0.0
C1053 C 0.63936 0.04214 0.13736 0.0
C1054 C 0.64035 1.01778 0.13754 0.0
C1055 C 0.63937 0.05481 0.07456 0.0
C1056 C 0.64045 0.04368 0.00921 0.0
H1057 H 0.63828 0.05164 0.18625 0.0
H1058 H 0.63811 0.07342 0.07736 0.0
S1059 S 0.64499 0.98032 0.98041 0.0
N1060 N 0.64348 0.98314 0.06666 0.0
N1061 N 0.64389 1.00677 0.94845 0.0
C1062 C 0.64215 1.01934 0.00855 0.0
C1063 C 0.64202 1.00645 0.07267 0.0
C1064 C 0.80639 0.67625 0.8259 0.0
C1065 C 0.79558 0.67159 0.8903 0.0
C1066 C 0.7936 0.67716 0.76328 0.0
C1067 C 0.76948 0.67349 0.7626 0.0
H1068 H 0.82474 0.6798 0.82398 0.0
H1069 H 0.80275 0.68111 0.71512 0.0
S1070 S 0.73326 0.65865 0.91664 0.0
N1071 N 0.75951 0.66167 0.94908 0.0
N1072 N 0.73563 0.66371 0.83153 0.0
C1073 C 0.75859 0.66816 0.82635 0.0
C1074 C 0.7716 0.66712 0.89008 0.0
C1075 C 0.64098 0.55392 0.07864 0.0
C1076 C 0.64124 0.54275 0.14404 0.0
C1077 C 0.64128 0.54126 0.01579 0.0
C1078 C 0.64182 0.5169 0.0156 0.0
H1079 H 0.64014 0.57256 0.07581 0.0
H1080 H 0.6408 0.55079 0.96683 0.0
S1081 S 0.64414 0.47931 0.173 0.0
N1082 N 0.64329 0.50576 0.20493 0.0
N1083 N 0.64355 0.48218 0.08666 0.0
C1084 C 0.64264 0.50551 0.08057 0.0
C1085 C 0.64242 0.51838 0.14474 0.0
C1086 C 0.76038 0.38903 0.3284 0.0
C1087 C 0.77161 0.38994 0.39367 0.0
C1088 C 0.77299 0.38881 0.26544 0.0
C1089 C 0.79737 0.38945 0.265 0.0
H1090 H 0.74173 0.38803 0.32578 0.0
H1091 H 0.76341 0.38783 0.21662 0.0
S1092 S 0.8351 0.39345 0.42184 0.0
N1093 N 0.80866 0.39277 0.45406 0.0
N1094 N 0.83216 0.39203 0.33561 0.0
C1095 C 0.80881 0.39095 0.32979 0.0
C1096 C 0.79598 0.39127 0.39406 0.0
C1097 C 0.92628 0.5078 0.57788 0.0
C1098 C 0.92345 0.51882 0.64295 0.0
C1099 C 0.92699 0.52054 0.51515 0.0
C1100 C 0.92497 0.54483 0.5149 0.0
H1101 H 0.92845 0.48926 0.57537 0.0
H1102 H 0.92945 0.51118 0.46647 0.0
S1103 S 0.91566 0.58189 0.67104 0.0
N1104 N 0.91725 0.55548 0.70303 0.0
N1105 N 0.91899 0.57923 0.58523 0.0
C1106 C 0.92157 0.55601 0.5794 0.0
C1107 C 0.92071 0.54306 0.64331 0.0
C1108 C 0.29389 0.39032 0.26404 0.0
C1109 C 0.26954 0.39185 0.26348 0.0
C1110 C 0.30649 0.39056 0.32709 0.0
C1111 C 0.29527 0.39238 0.39218 0.0
H1112 H 0.30341 0.38861 0.21533 0.0
H1113 H 0.32509 0.38881 0.32475 0.0
S1114 S 0.23195 0.39862 0.41974 0.0
N1115 N 0.23487 0.39636 0.33368 0.0
N1116 N 0.25834 0.39714 0.45212 0.0
C1117 C 0.27096 0.39464 0.39232 0.0
C1118 C 0.25816 0.3943 0.32807 0.0
C1119 C 0.42581 0.54281 0.01623 0.0
C1120 C 0.42498 0.51846 0.01566 0.0
C1121 C 0.42545 0.55538 0.07923 0.0
C1122 C 0.42425 0.54413 0.1444 0.0
H1123 H 0.42702 0.55239 0.96747 0.0
H1124 H 0.42659 0.57401 0.07676 0.0
S1125 S 0.42027 0.4807 0.17218 0.0
N1126 N 0.42197 0.48367 0.086 0.0
N1127 N 0.42101 0.5071 0.20453 0.0
C1128 C 0.42278 0.51978 0.14464 0.0
C1129 C 0.42321 0.507 0.08034 0.0
C1130 C 0.25885 0.67533 0.82725 0.0
C1131 C 0.27022 0.67397 0.89219 0.0
C1132 C 0.27131 0.67513 0.76404 0.0
C1133 C 0.29565 0.67362 0.76324 0.0
H1134 H 0.24025 0.67709 0.82513 0.0
H1135 H 0.2617 0.67653 0.71541 0.0
S1136 S 0.33356 0.66774 0.91912 0.0
N1137 N 0.30724 0.66946 0.95185 0.0
N1138 N 0.33048 0.66947 0.83301 0.0
C1139 C 0.30718 0.67153 0.8277 0.0
C1140 C 0.29451 0.67162 0.89213 0.0
C1141 C 0.13949 0.55651 0.57684 0.0
C1142 C 0.1422 0.54547 0.51177 0.0
C1143 C 0.13876 0.54377 0.63955 0.0
C1144 C 0.14067 0.51947 0.63974 0.0
H1145 H 0.13743 0.57506 0.57937 0.0
H1146 H 0.1364 0.55314 0.68826 0.0
S1147 S 0.14968 0.48236 0.48355 0.0
N1148 N 0.14818 0.50878 0.45159 0.0
N1149 N 0.14643 0.48504 0.56938 0.0
C1150 C 0.14395 0.50827 0.57523 0.0
C1151 C 0.14482 0.52122 0.51134 0.0
loop_
_geom_bond_atom_site_label_1
_geom_bond_atom_site_label_2
_geom_bond_distance
_geom_bond_site_symmetry_2
_ccdc_geom_bond_type
Co0 O1 2.216 . S
Co0 O2 2.091 . S
Co0 O4 2.004 . S
Co0 O10 2.021 1_554 S
Co0 O12 2.137 . S
Co0 O13 2.244 . S
O1 Co0 2.216 . S
O1 C8 1.247 . S
O2 Co0 2.091 . S
O2 C8 1.261 . S
C3 O12 1.247 . S
C3 O13 1.272 . S
O4 Co0 2.004 . S
O4 C9 1.259 . S
Co5 O6 2.061 . S
Co5 O11 2.052 1_554 S
Co5 O13 2.135 . S
O6 Co5 2.061 . S
O6 C9 1.235 . S
C7 O10 1.238 . S
C7 O11 1.241 . S
C8 O1 1.247 . S
C8 O2 1.261 . S
C9 O4 1.259 . S
C9 O6 1.235 . S
O10 Co0 2.021 1_556 S
O10 C7 1.238 . S
O11 Co5 2.052 1_556 S
O11 C7 1.241 . S
O12 Co0 2.137 . S
O12 C3 1.247 . S
O13 Co0 2.244 . S
O13 C3 1.272 . S
O13 Co5 2.135 . S
Co14 O15 2.216 . S
Co14 O16 2.091 . S
Co14 O18 2.004 . S
Co14 O24 2.021 . S
Co14 O26 2.137 . S
Co14 O27 2.244 . S
O15 Co14 2.216 . S
O15 C22 1.247 . S
O16 Co14 2.091 . S
O16 C22 1.261 . S
C17 O26 1.247 . S
C17 O27 1.272 . S
O18 Co14 2.004 . S
O18 C23 1.259 . S
Co19 O20 2.061 1_545 S
Co19 O25 2.052 . S
Co19 O27 2.135 1_545 S
O20 Co19 2.061 1_565 S
O20 C23 1.235 . S
C21 O24 1.238 . S
C21 O25 1.241 1_565 S
C22 O15 1.247 . S
C22 O16 1.261 . S
C23 O18 1.259 . S
C23 O20 1.235 . S
O24 Co14 2.021 . S
O24 C21 1.238 . S
O25 Co19 2.052 . S
O25 C21 1.241 1_545 S
O26 Co14 2.137 . S
O26 C17 1.247 . S
O27 Co14 2.244 . S
O27 C17 1.272 . S
O27 Co19 2.135 1_565 S
Co28 O29 2.216 . S
Co28 O30 2.091 . S
Co28 O32 2.004 . S
Co28 O38 2.021 . S
Co28 O40 2.137 . S
Co28 O41 2.244 . S
O29 Co28 2.216 . S
O29 C36 1.247 . S
O30 Co28 2.091 . S
O30 C36 1.261 . S
C31 O40 1.247 . S
C31 O41 1.272 . S
O32 Co28 2.004 . S
O32 C37 1.259 . S
Co33 O34 2.061 . S
Co33 O39 2.052 . S
Co33 O41 2.135 . S
O34 Co33 2.061 . S
O34 C37 1.235 . S
C35 O38 1.238 . S
C35 O39 1.241 . S
C36 O29 1.247 . S
C36 O30 1.261 . S
C37 O32 1.259 . S
C37 O34 1.235 . S
O38 Co28 2.021 . S
O38 C35 1.238 . S
O39 Co33 2.052 . S
O39 C35 1.241 . S
O40 Co28 2.137 . S
O40 C31 1.247 . S
O41 Co28 2.244 . S
O41 C31 1.272 . S
O41 Co33 2.135 . S
Co42 O43 2.216 . S
Co42 O44 2.091 . S
Co42 O46 2.004 . S
Co42 O52 2.021 . S
Co42 O54 2.137 . S
Co42 O55 2.244 . S
O43 Co42 2.216 . S
O43 C50 1.247 . S
O44 Co42 2.091 . S
O44 C50 1.261 . S
C45 O54 1.247 . S
C45 O55 1.272 . S
O46 Co42 2.004 . S
O46 C51 1.259 . S
Co47 O48 2.061 1_565 S
Co47 O53 2.052 . S
Co47 O55 2.135 1_565 S
O48 Co47 2.061 1_545 S
O48 C51 1.235 . S
C49 O52 1.238 . S
C49 O53 1.241 1_545 S
C50 O43 1.247 . S
C50 O44 1.261 . S
C51 O46 1.259 . S
C51 O48 1.235 . S
O52 Co42 2.021 . S
O52 C49 1.238 . S
O53 Co47 2.052 . S
O53 C49 1.241 1_565 S
O54 Co42 2.137 . S
O54 C45 1.247 . S
O55 Co42 2.244 . S
O55 C45 1.272 . S
O55 Co47 2.135 1_545 S
Co56 O57 2.216 . S
Co56 O58 2.091 . S
Co56 O60 2.004 . S
Co56 O66 2.021 . S
Co56 O68 2.137 1_554 S
Co56 O69 2.244 . S
O57 Co56 2.216 . S
O57 C64 1.247 . S
O58 Co56 2.091 . S
O58 C64 1.261 . S
C59 O68 1.247 . S
C59 O69 1.272 1_556 S
O60 Co56 2.004 . S
O60 C65 1.259 . S
Co61 O62 2.061 . S
Co61 O67 2.052 . S
Co61 O69 2.135 . S
O62 Co61 2.061 . S
O62 C65 1.235 . S
C63 O66 1.238 . S
C63 O67 1.241 . S
C64 O57 1.247 . S
C64 O58 1.261 . S
C65 O60 1.259 . S
C65 O62 1.235 . S
O66 Co56 2.021 . S
O66 C63 1.238 . S
O67 Co61 2.052 . S
O67 C63 1.241 . S
O68 Co56 2.137 1_556 S
O68 C59 1.247 . S
O69 Co56 2.244 . S
O69 C59 1.272 1_554 S
O69 Co61 2.135 . S
Co70 O71 2.216 . S
Co70 O72 2.091 . S
Co70 O74 2.004 . S
Co70 O80 2.021 . S
Co70 O82 2.137 . S
Co70 O83 2.244 . S
O71 Co70 2.216 . S
O71 C78 1.247 . S
O72 Co70 2.091 . S
O72 C78 1.261 . S
C73 O82 1.247 . S
C73 O83 1.272 . S
O74 Co70 2.004 . S
O74 C79 1.259 . S
Co75 O76 2.061 1_545 S
Co75 O81 2.052 . S
Co75 O83 2.135 1_545 S
O76 Co75 2.061 1_565 S
O76 C79 1.235 . S
C77 O80 1.238 . S
C77 O81 1.241 1_565 S
C78 O71 1.247 . S
C78 O72 1.261 . S
C79 O74 1.259 . S
C79 O76 1.235 . S
O80 Co70 2.021 . S
O80 C77 1.238 . S
O81 Co75 2.052 . S
O81 C77 1.241 1_545 S
O82 Co70 2.137 . S
O82 C73 1.247 . S
O83 Co70 2.244 . S
O83 C73 1.272 . S
O83 Co75 2.135 1_565 S
Co84 O85 2.216 . S
Co84 O86 2.091 . S
Co84 O88 2.004 . S
Co84 O94 2.021 . S
Co84 O96 2.137 . S
Co84 O97 2.244 . S
O85 Co84 2.216 . S
O85 C92 1.247 . S
O86 Co84 2.091 . S
O86 C92 1.261 . S
C87 O96 1.247 . S
C87 O97 1.272 . S
O88 Co84 2.004 . S
O88 C93 1.259 . S
Co89 O90 2.061 . S
Co89 O95 2.052 . S
Co89 O97 2.135 . S
O90 Co89 2.061 . S
O90 C93 1.235 . S
C91 O94 1.238 . S
C91 O95 1.241 . S
C92 O85 1.247 . S
C92 O86 1.261 . S
C93 O88 1.259 . S
C93 O90 1.235 . S
O94 Co84 2.021 . S
O94 C91 1.238 . S
O95 Co89 2.052 . S
O95 C91 1.241 . S
O96 Co84 2.137 . S
O96 C87 1.247 . S
O97 Co84 2.244 . S
O97 C87 1.272 . S
O97 Co89 2.135 . S
Co98 O99 2.216 . S
Co98 O100 2.091 . S
Co98 O102 2.004 . S
Co98 O108 2.021 . S
Co98 O110 2.137 . S
Co98 O111 2.244 . S
O99 Co98 2.216 . S
O99 C106 1.247 . S
O100 Co98 2.091 . S
O100 C106 1.261 . S
C101 O110 1.247 . S
C101 O111 1.272 . S
O102 Co98 2.004 . S
O102 C107 1.259 . S
Co103 O104 2.061 1_565 S
Co103 O109 2.052 . S
Co103 O111 2.135 1_565 S
O104 Co103 2.061 1_545 S
O104 C107 1.235 . S
C105 O108 1.238 . S
C105 O109 1.241 1_545 S
C106 O99 1.247 . S
C106 O100 1.261 . S
C107 O102 1.259 . S
C107 O104 1.235 . S
O108 Co98 2.021 . S
O108 C105 1.238 . S
O109 Co103 2.052 . S
O109 C105 1.241 1_565 S
O110 Co98 2.137 . S
O110 C101 1.247 . S
O111 Co98 2.244 . S
O111 C101 1.272 . S
O111 Co103 2.135 1_545 S
Co112 O113 2.216 . S
Co112 O114 2.091 . S
Co112 O116 2.004 . S
Co112 O122 2.021 . S
Co112 O124 2.137 1_554 S
Co112 O125 2.244 . S
O113 Co112 2.216 . S
O113 C120 1.247 . S
O114 Co112 2.091 . S
O114 C120 1.261 . S
C115 O124 1.247 . S
C115 O125 1.272 1_556 S
O116 Co112 2.004 . S
O116 C121 1.259 . S
Co117 O118 2.061 . S
Co117 O123 2.052 . S
Co117 O125 2.135 . S
O118 Co117 2.061 . S
O118 C121 1.235 . S
C119 O122 1.238 . S
C119 O123 1.241 . S
C120 O113 1.247 . S
C120 O114 1.261 . S
C121 O116 1.259 . S
C121 O118 1.235 . S
O122 Co112 2.021 . S
O122 C119 1.238 . S
O123 Co117 2.052 . S
O123 C119 1.241 . S
O124 Co112 2.137 1_556 S
O124 C115 1.247 . S
O125 Co112 2.244 . S
O125 C115 1.272 1_554 S
O125 Co117 2.135 . S
Co126 O127 2.216 . S
Co126 O128 2.091 . S
Co126 O130 2.004 . S
Co126 O136 2.021 . S
Co126 O138 2.137 . S
Co126 O139 2.244 . S
O127 Co126 2.216 . S
O127 C134 1.247 . S
O128 Co126 2.091 . S
O128 C134 1.261 . S
C129 O138 1.247 . S
C129 O139 1.272 . S
O130 Co126 2.004 . S
O130 C135 1.259 . S
Co131 O132 2.061 1_565 S
Co131 O137 2.052 . S
Co131 O139 2.135 1_565 S
O132 Co131 2.061 1_545 S
O132 C135 1.235 . S
C133 O136 1.238 . S
C133 O137 1.241 1_545 S
C134 O127 1.247 . S
C134 O128 1.261 . S
C135 O130 1.259 . S
C135 O132 1.235 . S
O136 Co126 2.021 . S
O136 C133 1.238 . S
O137 Co131 2.052 . S
O137 C133 1.241 1_565 S
O138 Co126 2.137 . S
O138 C129 1.247 . S
O139 Co126 2.244 . S
O139 C129 1.272 . S
O139 Co131 2.135 1_545 S
Co140 O141 2.216 . S
Co140 O142 2.091 . S
Co140 O144 2.004 . S
Co140 O150 2.021 . S
Co140 O152 2.137 . S
Co140 O153 2.244 . S
O141 Co140 2.216 . S
O141 C148 1.247 . S
O142 Co140 2.091 . S
O142 C148 1.261 . S
C143 O152 1.247 . S
C143 O153 1.272 . S
O144 Co140 2.004 . S
O144 C149 1.259 . S
Co145 O146 2.061 . S
Co145 O151 2.052 . S
Co145 O153 2.135 . S
O146 Co145 2.061 . S
O146 C149 1.235 . S
C147 O150 1.238 . S
C147 O151 1.241 . S
C148 O141 1.247 . S
C148 O142 1.261 . S
C149 O144 1.259 . S
C149 O146 1.235 . S
O150 Co140 2.021 . S
O150 C147 1.238 . S
O151 Co145 2.052 . S
O151 C147 1.241 . S
O152 Co140 2.137 . S
O152 C143 1.247 . S
O153 Co140 2.244 . S
O153 C143 1.272 . S
O153 Co145 2.135 . S
Co154 O155 2.216 . S
Co154 O156 2.091 . S
Co154 O158 2.004 . S
Co154 O164 2.021 . S
Co154 O166 2.137 . S
Co154 O167 2.244 . S
O155 Co154 2.216 . S
O155 C162 1.247 . S
O156 Co154 2.091 . S
O156 C162 1.261 . S
C157 O166 1.247 . S
C157 O167 1.272 . S
O158 Co154 2.004 . S
O158 C163 1.259 . S
Co159 O160 2.061 1_545 S
Co159 O165 2.052 . S
Co159 O167 2.135 1_545 S
O160 Co159 2.061 1_565 S
O160 C163 1.235 . S
C161 O164 1.238 . S
C161 O165 1.241 1_565 S
C162 O155 1.247 . S
C162 O156 1.261 . S
C163 O158 1.259 . S
C163 O160 1.235 . S
O164 Co154 2.021 . S
O164 C161 1.238 . S
O165 Co159 2.052 . S
O165 C161 1.241 1_545 S
O166 Co154 2.137 . S
O166 C157 1.247 . S
O167 Co154 2.244 . S
O167 C157 1.272 . S
O167 Co159 2.135 1_565 S
Co168 O169 2.216 . S
Co168 O170 2.091 . S
Co168 O172 2.004 . S
Co168 O178 2.021 1_554 S
Co168 O180 2.137 . S
Co168 O181 2.244 . S
O169 Co168 2.216 . S
O169 C176 1.247 . S
O170 Co168 2.091 . S
O170 C176 1.261 . S
C171 O180 1.247 . S
C171 O181 1.272 . S
O172 Co168 2.004 . S
O172 C177 1.259 . S
Co173 O174 2.061 . S
Co173 O179 2.052 1_554 S
Co173 O181 2.135 . S
O174 Co173 2.061 . S
O174 C177 1.235 . S
C175 O178 1.238 . S
C175 O179 1.241 . S
C176 O169 1.247 . S
C176 O170 1.261 . S
C177 O172 1.259 . S
C177 O174 1.235 . S
O178 Co168 2.021 1_556 S
O178 C175 1.238 . S
O179 Co173 2.052 1_556 S
O179 C175 1.241 . S
O180 Co168 2.137 . S
O180 C171 1.247 . S
O181 Co168 2.244 . S
O181 C171 1.272 . S
O181 Co173 2.135 . S
Co182 O183 2.216 . S
Co182 O184 2.091 . S
Co182 O186 2.004 . S
Co182 O192 2.021 . S
Co182 O194 2.137 . S
Co182 O195 2.244 . S
O183 Co182 2.216 . S
O183 C190 1.247 . S
O184 Co182 2.091 . S
O184 C190 1.261 . S
C185 O194 1.247 . S
C185 O195 1.272 . S
O186 Co182 2.004 . S
O186 C191 1.259 . S
Co187 O188 2.061 1_565 S
Co187 O193 2.052 . S
Co187 O195 2.135 1_565 S
O188 Co187 2.061 1_545 S
O188 C191 1.235 . S
C189 O192 1.238 . S
C189 O193 1.241 1_545 S
C190 O183 1.247 . S
C190 O184 1.261 . S
C191 O186 1.259 . S
C191 O188 1.235 . S
O192 Co182 2.021 . S
O192 C189 1.238 . S
O193 Co187 2.052 . S
O193 C189 1.241 1_565 S
O194 Co182 2.137 . S
O194 C185 1.247 . S
O195 Co182 2.244 . S
O195 C185 1.272 . S
O195 Co187 2.135 1_545 S
Co196 O197 2.216 . S
Co196 O198 2.091 . S
Co196 O200 2.004 . S
Co196 O206 2.021 . S
Co196 O208 2.137 . S
Co196 O209 2.244 . S
O197 Co196 2.216 . S
O197 C204 1.247 . S
O198 Co196 2.091 . S
O198 C204 1.261 . S
C199 O208 1.247 . S
C199 O209 1.272 . S
O200 Co196 2.004 . S
O200 C205 1.259 . S
Co201 O202 2.061 . S
Co201 O207 2.052 . S
Co201 O209 2.135 . S
O202 Co201 2.061 . S
O202 C205 1.235 . S
C203 O206 1.238 . S
C203 O207 1.241 . S
C204 O197 1.247 . S
C204 O198 1.261 . S
C205 O200 1.259 . S
C205 O202 1.235 . S
O206 Co196 2.021 . S
O206 C203 1.238 . S
O207 Co201 2.052 . S
O207 C203 1.241 . S
O208 Co196 2.137 . S
O208 C199 1.247 . S
O209 Co196 2.244 . S
O209 C199 1.272 . S
O209 Co201 2.135 . S
Co210 O211 2.216 . S
Co210 O212 2.091 . S
Co210 O214 2.004 . S
Co210 O220 2.021 . S
Co210 O222 2.137 . S
Co210 O223 2.244 . S
O211 Co210 2.216 . S
O211 C218 1.247 . S
O212 Co210 2.091 . S
O212 C218 1.261 . S
C213 O222 1.247 . S
C213 O223 1.272 . S
O214 Co210 2.004 . S
O214 C219 1.259 . S
Co215 O216 2.061 1_545 S
Co215 O221 2.052 . S
Co215 O223 2.135 1_545 S
O216 Co215 2.061 1_565 S
O216 C219 1.235 . S
C217 O220 1.238 . S
C217 O221 1.241 1_565 S
C218 O211 1.247 . S
C218 O212 1.261 . S
C219 O214 1.259 . S
C219 O216 1.235 . S
O220 Co210 2.021 . S
O220 C217 1.238 . S
O221 Co215 2.052 . S
O221 C217 1.241 1_545 S
O222 Co210 2.137 . S
O222 C213 1.247 . S
O223 Co210 2.244 . S
O223 C213 1.272 . S
O223 Co215 2.135 1_565 S
Co224 O225 2.216 . S
Co224 O226 2.091 . S
Co224 O228 2.004 . S
Co224 O234 2.021 . S
Co224 O236 2.137 . S
Co224 O237 2.244 . S
O225 Co224 2.216 . S
O225 C232 1.247 . S
O226 Co224 2.091 . S
O226 C232 1.261 . S
C227 O236 1.247 . S
C227 O237 1.272 . S
O228 Co224 2.004 . S
O228 C233 1.259 . S
Co229 O230 2.061 . S
Co229 O235 2.052 . S
Co229 O237 2.135 . S
O230 Co229 2.061 . S
O230 C233 1.235 . S
C231 O234 1.238 . S
C231 O235 1.241 . S
C232 O225 1.247 . S
C232 O226 1.261 . S
C233 O228 1.259 . S
C233 O230 1.235 . S
O234 Co224 2.021 . S
O234 C231 1.238 . S
O235 Co229 2.052 . S
O235 C231 1.241 . S
O236 Co224 2.137 . S
O236 C227 1.247 . S
O237 Co224 2.244 . S
O237 C227 1.272 . S
O237 Co229 2.135 . S
Co238 O239 2.216 . S
Co238 O240 2.091 . S
Co238 O242 2.004 . S
Co238 O248 2.021 . S
Co238 O250 2.137 . S
Co238 O251 2.244 . S
O239 Co238 2.216 . S
O239 C246 1.247 . S
O240 Co238 2.091 . S
O240 C246 1.261 . S
C241 O250 1.247 . S
C241 O251 1.272 . S
O242 Co238 2.004 . S
O242 C247 1.259 . S
Co243 O244 2.061 . S
Co243 O249 2.052 . S
Co243 O251 2.135 . S
O244 Co243 2.061 . S
O244 C247 1.235 . S
C245 O248 1.238 . S
C245 O249 1.241 . S
C246 O239 1.247 . S
C246 O240 1.261 . S
C247 O242 1.259 . S
C247 O244 1.235 . S
O248 Co238 2.021 . S
O248 C245 1.238 . S
O249 Co243 2.052 . S
O249 C245 1.241 . S
O250 Co238 2.137 . S
O250 C241 1.247 . S
O251 Co238 2.244 . S
O251 C241 1.272 . S
O251 Co243 2.135 . S
Co252 O253 2.216 . S
Co252 O254 2.091 . S
Co252 O256 2.004 . S
Co252 O262 2.021 1_554 S
Co252 O264 2.137 . S
Co252 O265 2.244 . S
O253 Co252 2.216 . S
O253 C260 1.247 . S
O254 Co252 2.091 . S
O254 C260 1.261 . S
C255 O264 1.247 . S
C255 O265 1.272 . S
O256 Co252 2.004 . S
O256 C261 1.259 . S
Co257 O258 2.061 . S
Co257 O263 2.052 1_554 S
Co257 O265 2.135 . S
O258 Co257 2.061 . S
O258 C261 1.235 . S
C259 O262 1.238 . S
C259 O263 1.241 . S
C260 O253 1.247 . S
C260 O254 1.261 . S
C261 O256 1.259 . S
C261 O258 1.235 . S
O262 Co252 2.021 1_556 S
O262 C259 1.238 . S
O263 Co257 2.052 1_556 S
O263 C259 1.241 . S
O264 Co252 2.137 . S
O264 C255 1.247 . S
O265 Co252 2.244 . S
O265 C255 1.272 . S
O265 Co257 2.135 . S
Co266 O267 2.216 . S
Co266 O268 2.091 . S
Co266 O270 2.004 . S
Co266 O276 2.021 . S
Co266 O278 2.137 . S
Co266 O279 2.244 . S
O267 Co266 2.216 . S
O267 C274 1.247 . S
O268 Co266 2.091 . S
O268 C274 1.261 . S
C269 O278 1.247 . S
C269 O279 1.272 . S
O270 Co266 2.004 . S
O270 C275 1.259 . S
Co271 O272 2.061 . S
Co271 O277 2.052 . S
Co271 O279 2.135 . S
O272 Co271 2.061 . S
O272 C275 1.235 . S
C273 O276 1.238 . S
C273 O277 1.241 . S
C274 O267 1.247 . S
C274 O268 1.261 . S
C275 O270 1.259 . S
C275 O272 1.235 . S
O276 Co266 2.021 . S
O276 C273 1.238 . S
O277 Co271 2.052 . S
O277 C273 1.241 . S
O278 Co266 2.137 . S
O278 C269 1.247 . S
O279 Co266 2.244 . S
O279 C269 1.272 . S
O279 Co271 2.135 . S
Co280 O281 2.216 . S
Co280 O282 2.091 . S
Co280 O284 2.004 . S
Co280 O290 2.021 . S
Co280 O292 2.137 . S
Co280 O293 2.244 . S
O281 Co280 2.216 . S
O281 C288 1.247 . S
O282 Co280 2.091 . S
O282 C288 1.261 . S
C283 O292 1.247 . S
C283 O293 1.272 . S
O284 Co280 2.004 . S
O284 C289 1.259 . S
Co285 O286 2.061 . S
Co285 O291 2.052 . S
Co285 O293 2.135 . S
O286 Co285 2.061 . S
O286 C289 1.235 . S
C287 O290 1.238 . S
C287 O291 1.241 . S
C288 O281 1.247 . S
C288 O282 1.261 . S
C289 O284 1.259 . S
C289 O286 1.235 . S
O290 Co280 2.021 . S
O290 C287 1.238 . S
O291 Co285 2.052 . S
O291 C287 1.241 . S
O292 Co280 2.137 . S
O292 C283 1.247 . S
O293 Co280 2.244 . S
O293 C283 1.272 . S
O293 Co285 2.135 . S
Co294 O295 2.216 . S
Co294 O296 2.091 . S
Co294 O298 2.004 . S
Co294 O304 2.021 . S
Co294 O306 2.137 . S
Co294 O307 2.244 . S
O295 Co294 2.216 . S
O295 C302 1.247 . S
O296 Co294 2.091 . S
O296 C302 1.261 . S
C297 O306 1.247 . S
C297 O307 1.272 . S
O298 Co294 2.004 . S
O298 C303 1.259 . S
Co299 O300 2.061 . S
Co299 O305 2.052 . S
Co299 O307 2.135 . S
O300 Co299 2.061 . S
O300 C303 1.235 . S
C301 O304 1.238 . S
C301 O305 1.241 . S
C302 O295 1.247 . S
C302 O296 1.261 . S
C303 O298 1.259 . S
C303 O300 1.235 . S
O304 Co294 2.021 . S
O304 C301 1.238 . S
O305 Co299 2.052 . S
O305 C301 1.241 . S
O306 Co294 2.137 . S
O306 C297 1.247 . S
O307 Co294 2.244 . S
O307 C297 1.272 . S
O307 Co299 2.135 . S
Co308 O309 2.216 . S
Co308 O310 2.091 . S
Co308 O312 2.004 . S
Co308 O318 2.021 . S
Co308 O320 2.137 1_554 S
Co308 O321 2.244 . S
O309 Co308 2.216 . S
O309 C316 1.247 . S
O310 Co308 2.091 . S
O310 C316 1.261 . S
C311 O320 1.247 . S
C311 O321 1.272 1_556 S
O312 Co308 2.004 . S
O312 C317 1.259 . S
Co313 O314 2.061 . S
Co313 O319 2.052 . S
Co313 O321 2.135 . S
O314 Co313 2.061 . S
O314 C317 1.235 . S
C315 O318 1.238 . S
C315 O319 1.241 . S
C316 O309 1.247 . S
C316 O310 1.261 . S
C317 O312 1.259 . S
C317 O314 1.235 . S
O318 Co308 2.021 . S
O318 C315 1.238 . S
O319 Co313 2.052 . S
O319 C315 1.241 . S
O320 Co308 2.137 1_556 S
O320 C311 1.247 . S
O321 Co308 2.244 . S
O321 C311 1.272 1_554 S
O321 Co313 2.135 . S
Co322 O323 2.216 . S
Co322 O324 2.091 . S
Co322 O326 2.004 . S
Co322 O332 2.021 . S
Co322 O334 2.137 . S
Co322 O335 2.244 . S
O323 Co322 2.216 . S
O323 C330 1.247 . S
O324 Co322 2.091 . S
O324 C330 1.261 . S
C325 O334 1.247 . S
C325 O335 1.272 . S
O326 Co322 2.004 . S
O326 C331 1.259 . S
Co327 O328 2.061 . S
Co327 O333 2.052 . S
Co327 O335 2.135 . S
O328 Co327 2.061 . S
O328 C331 1.235 . S
C329 O332 1.238 . S
C329 O333 1.241 . S
C330 O323 1.247 . S
C330 O324 1.261 . S
C331 O326 1.259 . S
C331 O328 1.235 . S
O332 Co322 2.021 . S
O332 C329 1.238 . S
O333 Co327 2.052 . S
O333 C329 1.241 . S
O334 Co322 2.137 . S
O334 C325 1.247 . S
O335 Co322 2.244 . S
O335 C325 1.272 . S
O335 Co327 2.135 . S
Co336 O337 2.216 . S
Co336 O338 2.091 . S
Co336 O340 2.004 . S
Co336 O346 2.021 . S
Co336 O348 2.137 . S
Co336 O349 2.244 . S
O337 Co336 2.216 . S
O337 C344 1.247 . S
O338 Co336 2.091 . S
O338 C344 1.261 . S
C339 O348 1.247 . S
C339 O349 1.272 . S
O340 Co336 2.004 . S
O340 C345 1.259 . S
Co341 O342 2.061 . S
Co341 O347 2.052 . S
Co341 O349 2.135 . S
O342 Co341 2.061 . S
O342 C345 1.235 . S
C343 O346 1.238 . S
C343 O347 1.241 . S
C344 O337 1.247 . S
C344 O338 1.261 . S
C345 O340 1.259 . S
C345 O342 1.235 . S
O346 Co336 2.021 . S
O346 C343 1.238 . S
O347 Co341 2.052 . S
O347 C343 1.241 . S
O348 Co336 2.137 . S
O348 C339 1.247 . S
O349 Co336 2.244 . S
O349 C339 1.272 . S
O349 Co341 2.135 . S
Co350 O351 2.216 . S
Co350 O352 2.091 . S
Co350 O354 2.004 . S
Co350 O360 2.021 . S
Co350 O362 2.137 . S
Co350 O363 2.244 . S
O351 Co350 2.216 . S
O351 C358 1.247 . S
O352 Co350 2.091 . S
O352 C358 1.261 . S
C353 O362 1.247 . S
C353 O363 1.272 . S
O354 Co350 2.004 . S
O354 C359 1.259 . S
Co355 O356 2.061 . S
Co355 O361 2.052 . S
Co355 O363 2.135 . S
O356 Co355 2.061 . S
O356 C359 1.235 . S
C357 O360 1.238 . S
C357 O361 1.241 . S
C358 O351 1.247 . S
C358 O352 1.261 . S
C359 O354 1.259 . S
C359 O356 1.235 . S
O360 Co350 2.021 . S
O360 C357 1.238 . S
O361 Co355 2.052 . S
O361 C357 1.241 . S
O362 Co350 2.137 . S
O362 C353 1.247 . S
O363 Co350 2.244 . S
O363 C353 1.272 . S
O363 Co355 2.135 . S
Co364 O365 2.216 . S
Co364 O366 2.091 . S
Co364 O368 2.004 . S
Co364 O374 2.021 . S
Co364 O376 2.137 1_554 S
Co364 O377 2.244 . S
O365 Co364 2.216 . S
O365 C372 1.247 . S
O366 Co364 2.091 . S
O366 C372 1.261 . S
C367 O376 1.247 . S
C367 O377 1.272 1_556 S
O368 Co364 2.004 . S
O368 C373 1.259 . S
Co369 O370 2.061 . S
Co369 O375 2.052 . S
Co369 O377 2.135 . S
O370 Co369 2.061 . S
O370 C373 1.235 . S
C371 O374 1.238 . S
C371 O375 1.241 . S
C372 O365 1.247 . S
C372 O366 1.261 . S
C373 O368 1.259 . S
C373 O370 1.235 . S
O374 Co364 2.021 . S
O374 C371 1.238 . S
O375 Co369 2.052 . S
O375 C371 1.241 . S
O376 Co364 2.137 1_556 S
O376 C367 1.247 . S
O377 Co364 2.244 . S
O377 C367 1.272 1_554 S
O377 Co369 2.135 . S
Co378 O379 2.216 . S
Co378 O380 2.091 . S
Co378 O382 2.004 . S
Co378 O388 2.021 . S
Co378 O390 2.137 . S
Co378 O391 2.244 . S
O379 Co378 2.216 . S
O379 C386 1.247 . S
O380 Co378 2.091 . S
O380 C386 1.261 . S
C381 O390 1.247 . S
C381 O391 1.272 . S
O382 Co378 2.004 . S
O382 C387 1.259 . S
Co383 O384 2.061 . S
Co383 O389 2.052 . S
Co383 O391 2.135 . S
O384 Co383 2.061 . S
O384 C387 1.235 . S
C385 O388 1.238 . S
C385 O389 1.241 . S
C386 O379 1.247 . S
C386 O380 1.261 . S
C387 O382 1.259 . S
C387 O384 1.235 . S
O388 Co378 2.021 . S
O388 C385 1.238 . S
O389 Co383 2.052 . S
O389 C385 1.241 . S
O390 Co378 2.137 . S
O390 C381 1.247 . S
O391 Co378 2.244 . S
O391 C381 1.272 . S
O391 Co383 2.135 . S
Co392 O393 2.216 . S
Co392 O394 2.091 . S
Co392 O396 2.004 . S
Co392 O402 2.021 . S
Co392 O404 2.137 . S
Co392 O405 2.244 . S
O393 Co392 2.216 . S
O393 C400 1.247 . S
O394 Co392 2.091 . S
O394 C400 1.261 . S
C395 O404 1.247 . S
C395 O405 1.272 . S
O396 Co392 2.004 . S
O396 C401 1.259 . S
Co397 O398 2.061 . S
Co397 O403 2.052 . S
Co397 O405 2.135 . S
O398 Co397 2.061 . S
O398 C401 1.235 . S
C399 O402 1.238 . S
C399 O403 1.241 . S
C400 O393 1.247 . S
C400 O394 1.261 . S
C401 O396 1.259 . S
C401 O398 1.235 . S
O402 Co392 2.021 . S
O402 C399 1.238 . S
O403 Co397 2.052 . S
O403 C399 1.241 . S
O404 Co392 2.137 . S
O404 C395 1.247 . S
O405 Co392 2.244 . S
O405 C395 1.272 . S
O405 Co397 2.135 . S
Co406 O407 2.216 . S
Co406 O408 2.091 . S
Co406 O410 2.004 . S
Co406 O416 2.021 . S
Co406 O418 2.137 . S
Co406 O419 2.244 . S
O407 Co406 2.216 . S
O407 C414 1.247 . S
O408 Co406 2.091 . S
O408 C414 1.261 . S
C409 O418 1.247 . S
C409 O419 1.272 . S
O410 Co406 2.004 . S
O410 C415 1.259 . S
Co411 O412 2.061 . S
Co411 O417 2.052 . S
Co411 O419 2.135 . S
O412 Co411 2.061 . S
O412 C415 1.235 . S
C413 O416 1.238 . S
C413 O417 1.241 . S
C414 O407 1.247 . S
C414 O408 1.261 . S
C415 O410 1.259 . S
C415 O412 1.235 . S
O416 Co406 2.021 . S
O416 C413 1.238 . S
O417 Co411 2.052 . S
O417 C413 1.241 . S
O418 Co406 2.137 . S
O418 C409 1.247 . S
O419 Co406 2.244 . S
O419 C409 1.272 . S
O419 Co411 2.135 . S
Co420 O421 2.216 . S
Co420 O422 2.091 . S
Co420 O424 2.004 . S
Co420 O430 2.021 1_554 S
Co420 O432 2.137 . S
Co420 O433 2.244 . S
O421 Co420 2.216 . S
O421 C428 1.247 . S
O422 Co420 2.091 . S
O422 C428 1.261 . S
C423 O432 1.247 . S
C423 O433 1.272 . S
O424 Co420 2.004 . S
O424 C429 1.259 . S
Co425 O426 2.061 . S
Co425 O431 2.052 1_554 S
Co425 O433 2.135 . S
O426 Co425 2.061 . S
O426 C429 1.235 . S
C427 O430 1.238 . S
C427 O431 1.241 . S
C428 O421 1.247 . S
C428 O422 1.261 . S
C429 O424 1.259 . S
C429 O426 1.235 . S
O430 Co420 2.021 1_556 S
O430 C427 1.238 . S
O431 Co425 2.052 1_556 S
O431 C427 1.241 . S
O432 Co420 2.137 . S
O432 C423 1.247 . S
O433 Co420 2.244 . S
O433 C423 1.272 . S
O433 Co425 2.135 . S
Co434 O435 2.216 . S
Co434 O436 2.091 . S
Co434 O438 2.004 . S
Co434 O444 2.021 . S
Co434 O446 2.137 . S
Co434 O447 2.244 . S
O435 Co434 2.216 . S
O435 C442 1.247 . S
O436 Co434 2.091 . S
O436 C442 1.261 . S
C437 O446 1.247 . S
C437 O447 1.272 . S
O438 Co434 2.004 . S
O438 C443 1.259 . S
Co439 O440 2.061 . S
Co439 O445 2.052 . S
Co439 O447 2.135 . S
O440 Co439 2.061 . S
O440 C443 1.235 . S
C441 O444 1.238 . S
C441 O445 1.241 . S
C442 O435 1.247 . S
C442 O436 1.261 . S
C443 O438 1.259 . S
C443 O440 1.235 . S
O444 Co434 2.021 . S
O444 C441 1.238 . S
O445 Co439 2.052 . S
O445 C441 1.241 . S
O446 Co434 2.137 . S
O446 C437 1.247 . S
O447 Co434 2.244 . S
O447 C437 1.272 . S
O447 Co439 2.135 . S
C448 C449 1.369 . S
C448 C450 1.419 . S
C448 H452 0.930 . S
C449 C448 1.369 . S
C449 C458 1.429 . S
C450 C448 1.419 . S
C450 C451 1.363 1_556 S
C450 H453 0.929 . S
C451 C450 1.363 1_554 S
C451 C457 1.428 . S
H452 C448 0.930 . S
H453 C450 0.929 . S
S454 N455 1.613 . S
S454 N456 1.610 . S
N455 S454 1.613 . S
N455 C458 1.350 1_554 S
N456 S454 1.610 . S
N456 C457 1.351 . S
C457 C451 1.428 . S
C457 N456 1.351 . S
C457 C458 1.434 1_554 S
C458 C449 1.429 . S
C458 N455 1.350 1_556 S
C458 C457 1.434 1_556 S
C459 C460 1.369 . S
C459 C461 1.419 . S
C459 H463 0.930 . S
C460 C459 1.369 . S
C460 C469 1.429 . S
C461 C459 1.419 . S
C461 C462 1.363 . S
C461 H464 0.929 . S
C462 C461 1.363 . S
C462 C468 1.428 . S
H463 C459 0.930 . S
H464 C461 0.929 . S
S465 N466 1.613 . S
S465 N467 1.610 . S
N466 S465 1.613 . S
N466 C469 1.350 . S
N467 S465 1.610 . S
N467 C468 1.351 . S
C468 C462 1.428 . S
C468 N467 1.351 . S
C468 C469 1.434 . S
C469 C460 1.429 . S
C469 N466 1.350 . S
C469 C468 1.434 . S
C470 C471 1.369 . S
C470 C472 1.419 . S
C470 H474 0.930 . S
C471 C470 1.369 . S
C471 C480 1.429 . S
C472 C470 1.419 . S
C472 C473 1.363 . S
C472 H475 0.929 . S
C473 C472 1.363 . S
C473 C479 1.428 . S
H474 C470 0.930 . S
H475 C472 0.929 . S
S476 N477 1.613 . S
S476 N478 1.610 . S
N477 S476 1.613 . S
N477 C480 1.350 . S
N478 S476 1.610 . S
N478 C479 1.351 . S
C479 C473 1.428 . S
C479 N478 1.351 . S
C479 C480 1.434 . S
C480 C471 1.429 . S
C480 N477 1.350 . S
C480 C479 1.434 . S
C481 C482 1.369 . S
C481 C483 1.419 . S
C481 H485 0.930 . S
C482 C481 1.369 . S
C482 C491 1.429 . S
C483 C481 1.419 . S
C483 C484 1.363 . S
C483 H486 0.929 . S
C484 C483 1.363 . S
C484 C490 1.428 . S
H485 C481 0.930 . S
H486 C483 0.929 . S
S487 N488 1.613 . S
S487 N489 1.610 . S
N488 S487 1.613 . S
N488 C491 1.350 . S
N489 S487 1.610 . S
N489 C490 1.351 . S
C490 C484 1.428 . S
C490 N489 1.351 . S
C490 C491 1.434 . S
C491 C482 1.429 . S
C491 N488 1.350 . S
C491 C490 1.434 . S
C492 C493 1.369 . S
C492 C494 1.419 . S
C492 H496 0.930 . S
C493 C492 1.369 . S
C493 C502 1.429 . S
C494 C492 1.419 . S
C494 C495 1.363 . S
C494 H497 0.929 . S
C495 C494 1.363 . S
C495 C501 1.428 . S
H496 C492 0.930 . S
H497 C494 0.929 . S
S498 N499 1.613 . S
S498 N500 1.610 . S
N499 S498 1.613 . S
N499 C502 1.350 . S
N500 S498 1.610 . S
N500 C501 1.351 . S
C501 C495 1.428 . S
C501 N500 1.351 . S
C501 C502 1.434 . S
C502 C493 1.429 . S
C502 N499 1.350 . S
C502 C501 1.434 . S
C503 C504 1.369 . S
C503 C505 1.419 . S
C503 H507 0.930 . S
C504 C503 1.369 . S
C504 C513 1.429 . S
C505 C503 1.419 . S
C505 C506 1.363 1_556 S
C505 H508 0.929 . S
C506 C505 1.363 1_554 S
C506 C512 1.428 . S
H507 C503 0.930 . S
H508 C505 0.929 . S
S509 N510 1.613 . S
S509 N511 1.610 . S
N510 S509 1.613 . S
N510 C513 1.350 1_554 S
N511 S509 1.610 . S
N511 C512 1.351 . S
C512 C506 1.428 . S
C512 N511 1.351 . S
C512 C513 1.434 1_554 S
C513 C504 1.429 . S
C513 N510 1.350 1_556 S
C513 C512 1.434 1_556 S
C514 C515 1.369 . S
C514 C516 1.419 . S
C514 H518 0.930 . S
C515 C514 1.369 . S
C515 C524 1.429 . S
C516 C514 1.419 . S
C516 C517 1.363 . S
C516 H519 0.929 . S
C517 C516 1.363 . S
C517 C523 1.428 . S
H518 C514 0.930 . S
H519 C516 0.929 . S
S520 N521 1.613 . S
S520 N522 1.610 . S
N521 S520 1.613 . S
N521 C524 1.350 . S
N522 S520 1.610 . S
N522 C523 1.351 . S
C523 C517 1.428 . S
C523 N522 1.351 . S
C523 C524 1.434 . S
C524 C515 1.429 . S
C524 N521 1.350 . S
C524 C523 1.434 . S
C525 C526 1.369 . S
C525 C527 1.419 . S
C525 H529 0.930 . S
C526 C525 1.369 . S
C526 C535 1.429 . S
C527 C525 1.419 . S
C527 C528 1.363 . S
C527 H530 0.929 . S
C528 C527 1.363 . S
C528 C534 1.428 . S
H529 C525 0.930 . S
H530 C527 0.929 . S
S531 N532 1.613 . S
S531 N533 1.610 . S
N532 S531 1.613 . S
N532 C535 1.350 . S
N533 S531 1.610 . S
N533 C534 1.351 . S
C534 C528 1.428 . S
C534 N533 1.351 . S
C534 C535 1.434 . S
C535 C526 1.429 . S
C535 N532 1.350 . S
C535 C534 1.434 . S
C536 C537 1.369 . S
C536 C538 1.419 . S
C536 H540 0.930 . S
C537 C536 1.369 . S
C537 C546 1.429 . S
C538 C536 1.419 . S
C538 C539 1.363 . S
C538 H541 0.929 . S
C539 C538 1.363 . S
C539 C545 1.428 . S
H540 C536 0.930 . S
H541 C538 0.929 . S
S542 N543 1.613 . S
S542 N544 1.610 . S
N543 S542 1.613 . S
N543 C546 1.350 . S
N544 S542 1.610 . S
N544 C545 1.351 . S
C545 C539 1.428 . S
C545 N544 1.351 . S
C545 C546 1.434 . S
C546 C537 1.429 . S
C546 N543 1.350 . S
C546 C545 1.434 . S
C547 C548 1.369 . S
C547 C549 1.419 . S
C547 H551 0.930 . S
C548 C547 1.369 . S
C548 C557 1.429 . S
C549 C547 1.419 . S
C549 C550 1.363 . S
C549 H552 0.929 . S
C550 C549 1.363 . S
C550 C556 1.428 . S
H551 C547 0.930 . S
H552 C549 0.929 . S
S553 N554 1.613 . S
S553 N555 1.610 . S
N554 S553 1.613 . S
N554 C557 1.350 . S
N555 S553 1.610 . S
N555 C556 1.351 . S
C556 C550 1.428 . S
C556 N555 1.351 . S
C556 C557 1.434 . S
C557 C548 1.429 . S
C557 N554 1.350 . S
C557 C556 1.434 . S
C558 C559 1.369 . S
C558 C560 1.419 . S
C558 H562 0.930 . S
C559 C558 1.369 . S
C559 C568 1.429 . S
C560 C558 1.419 . S
C560 C561 1.363 1_556 S
C560 H563 0.929 . S
C561 C560 1.363 1_554 S
C561 C567 1.428 . S
H562 C558 0.930 . S
H563 C560 0.929 . S
S564 N565 1.613 . S
S564 N566 1.610 . S
N565 S564 1.613 . S
N565 C568 1.350 1_554 S
N566 S564 1.610 . S
N566 C567 1.351 . S
C567 C561 1.428 . S
C567 N566 1.351 . S
C567 C568 1.434 1_554 S
C568 C559 1.429 . S
C568 N565 1.350 1_556 S
C568 C567 1.434 1_556 S
C569 C570 1.369 . S
C569 C571 1.419 . S
C569 H573 0.930 . S
C570 C569 1.369 . S
C570 C579 1.429 . S
C571 C569 1.419 . S
C571 C572 1.363 . S
C571 H574 0.929 . S
C572 C571 1.363 . S
C572 C578 1.428 . S
H573 C569 0.930 . S
H574 C571 0.929 . S
S575 N576 1.613 . S
S575 N577 1.610 . S
N576 S575 1.613 . S
N576 C579 1.350 . S
N577 S575 1.610 . S
N577 C578 1.351 . S
C578 C572 1.428 . S
C578 N577 1.351 . S
C578 C579 1.434 . S
C579 C570 1.429 . S
C579 N576 1.350 . S
C579 C578 1.434 . S
C580 C581 1.369 . S
C580 C582 1.419 . S
C580 H584 0.930 . S
C581 C580 1.369 . S
C581 C590 1.429 . S
C582 C580 1.419 . S
C582 C583 1.363 . S
C582 H585 0.929 . S
C583 C582 1.363 . S
C583 C589 1.428 . S
H584 C580 0.930 . S
H585 C582 0.929 . S
S586 N587 1.613 . S
S586 N588 1.610 . S
N587 S586 1.613 . S
N587 C590 1.350 . S
N588 S586 1.610 . S
N588 C589 1.351 . S
C589 C583 1.428 . S
C589 N588 1.351 . S
C589 C590 1.434 . S
C590 C581 1.429 . S
C590 N587 1.350 . S
C590 C589 1.434 . S
C591 C592 1.369 . S
C591 C593 1.419 . S
C591 H595 0.930 . S
C592 C591 1.369 . S
C592 C601 1.429 . S
C593 C591 1.419 . S
C593 C594 1.363 . S
C593 H596 0.929 . S
C594 C593 1.363 . S
C594 C600 1.428 . S
H595 C591 0.930 . S
H596 C593 0.929 . S
S597 N598 1.613 . S
S597 N599 1.610 . S
N598 S597 1.613 . S
N598 C601 1.350 . S
N599 S597 1.610 . S
N599 C600 1.351 . S
C600 C594 1.428 . S
C600 N599 1.351 . S
C600 C601 1.434 . S
C601 C592 1.429 . S
C601 N598 1.350 . S
C601 C600 1.434 . S
C602 C603 1.369 . S
C602 C604 1.419 . S
C602 H606 0.930 . S
C603 C602 1.369 . S
C603 C612 1.429 . S
C604 C602 1.419 . S
C604 C605 1.363 . S
C604 H607 0.929 . S
C605 C604 1.363 . S
C605 C611 1.428 . S
H606 C602 0.930 . S
H607 C604 0.929 . S
S608 N609 1.613 . S
S608 N610 1.610 . S
N609 S608 1.613 . S
N609 C612 1.350 . S
N610 S608 1.610 . S
N610 C611 1.351 . S
C611 C605 1.428 . S
C611 N610 1.351 . S
C611 C612 1.434 . S
C612 C603 1.429 . S
C612 N609 1.350 . S
C612 C611 1.434 . S
C613 C614 1.369 . S
C613 C615 1.419 . S
C613 H617 0.930 . S
C614 C613 1.369 . S
C614 C623 1.429 . S
C615 C613 1.419 . S
C615 C616 1.363 1_556 S
C615 H618 0.929 . S
C616 C615 1.363 1_554 S
C616 C622 1.428 . S
H617 C613 0.930 . S
H618 C615 0.929 . S
S619 N620 1.613 1_554 S
S619 N621 1.610 . S
N620 S619 1.613 1_556 S
N620 C623 1.350 . S
N621 S619 1.610 . S
N621 C622 1.351 . S
C622 C616 1.428 . S
C622 N621 1.351 . S
C622 C623 1.434 1_554 S
C623 C614 1.429 . S
C623 N620 1.350 . S
C623 C622 1.434 1_556 S
C624 C625 1.369 . S
C624 C626 1.419 . S
C624 H628 0.930 . S
C625 C624 1.369 . S
C625 C634 1.429 . S
C626 C624 1.419 . S
C626 C627 1.363 . S
C626 H629 0.929 . S
C627 C626 1.363 . S
C627 C633 1.428 . S
H628 C624 0.930 . S
H629 C626 0.929 . S
S630 N631 1.613 . S
S630 N632 1.610 . S
N631 S630 1.613 . S
N631 C634 1.350 . S
N632 S630 1.610 . S
N632 C633 1.351 . S
C633 C627 1.428 . S
C633 N632 1.351 . S
C633 C634 1.434 . S
C634 C625 1.429 . S
C634 N631 1.350 . S
C634 C633 1.434 . S
C635 C636 1.369 . S
C635 C637 1.419 . S
C635 H639 0.930 . S
C636 C635 1.369 . S
C636 C645 1.429 1_565 S
C637 C635 1.419 . S
C637 C638 1.363 1_565 S
C637 H640 0.928 1_554 S
C638 C637 1.363 1_545 S
C638 C644 1.428 . S
H639 C635 0.930 . S
H640 C637 0.928 1_556 S
S641 N642 1.613 . S
S641 N643 1.610 . S
N642 S641 1.613 . S
N642 C645 1.350 . S
N643 S641 1.610 . S
N643 C644 1.351 . S
C644 C638 1.428 . S
C644 N643 1.351 . S
C644 C645 1.434 . S
C645 C636 1.429 1_545 S
C645 N642 1.350 . S
C645 C644 1.434 . S
C646 C647 1.369 . S
C646 C648 1.419 . S
C646 H650 0.930 . S
C647 C646 1.369 . S
C647 C656 1.429 . S
C648 C646 1.419 . S
C648 C649 1.363 . S
C648 H651 0.929 . S
C649 C648 1.363 . S
C649 C655 1.428 . S
H650 C646 0.930 . S
H651 C648 0.929 . S
S652 N653 1.613 . S
S652 N654 1.610 . S
N653 S652 1.613 . S
N653 C656 1.350 . S
N654 S652 1.610 . S
N654 C655 1.351 . S
C655 C649 1.428 . S
C655 N654 1.351 . S
C655 C656 1.434 . S
C656 C647 1.429 . S
C656 N653 1.350 . S
C656 C655 1.434 . S
C657 C658 1.369 . S
C657 C659 1.419 . S
C657 H661 0.930 . S
C658 C657 1.369 . S
C658 C667 1.429 1_545 S
C659 C657 1.419 . S
C659 C660 1.363 1_545 S
C659 H662 0.929 . S
C660 C659 1.363 1_565 S
C660 C666 1.428 . S
H661 C657 0.930 . S
H662 C659 0.929 . S
S663 N664 1.613 . S
S663 N665 1.610 . S
N664 S663 1.613 . S
N664 C667 1.350 . S
N665 S663 1.610 . S
N665 C666 1.351 . S
C666 C660 1.428 . S
C666 N665 1.351 . S
C666 C667 1.434 . S
C667 C658 1.429 1_565 S
C667 N664 1.350 . S
C667 C666 1.434 . S
C668 C669 1.369 . S
C668 C670 1.419 . S
C668 H672 0.930 . S
C669 C668 1.369 . S
C669 C678 1.429 . S
C670 C668 1.419 . S
C670 C671 1.363 . S
C670 H673 0.929 . S
C671 C670 1.363 . S
C671 C677 1.428 . S
H672 C668 0.930 . S
H673 C670 0.929 . S
S674 N675 1.613 . S
S674 N676 1.610 . S
N675 S674 1.613 . S
N675 C678 1.350 . S
N676 S674 1.610 . S
N676 C677 1.351 . S
C677 C671 1.428 . S
C677 N676 1.351 . S
C677 C678 1.434 . S
C678 C669 1.429 . S
C678 N675 1.350 . S
C678 C677 1.434 . S
C679 C680 1.369 1_565 S
C679 C681 1.419 . S
C679 H683 0.941 . S
C680 C679 1.369 1_545 S
C680 C689 1.429 . S
C681 C679 1.419 . S
C681 C682 1.363 . S
C681 H684 0.929 . S
C682 C681 1.363 . S
C682 C688 1.428 1_565 S
H683 C679 0.941 . S
H684 C681 0.929 . S
S685 N686 1.613 . S
S685 N687 1.610 . S
N686 S685 1.613 . S
N686 C689 1.350 . S
N687 S685 1.610 . S
N687 C688 1.351 . S
C688 C682 1.428 1_545 S
C688 N687 1.351 . S
C688 C689 1.434 . S
C689 C680 1.429 . S
C689 N686 1.350 . S
C689 C688 1.434 . S
C690 C691 1.369 . S
C690 C692 1.419 . S
C690 H694 0.930 . S
C691 C690 1.369 . S
C691 C700 1.429 . S
C692 C690 1.419 . S
C692 C693 1.363 . S
C692 H695 0.929 . S
C693 C692 1.363 . S
C693 C699 1.428 . S
H694 C690 0.930 . S
H695 C692 0.929 . S
S696 N697 1.613 . S
S696 N698 1.610 . S
N697 S696 1.613 . S
N697 C700 1.350 . S
N698 S696 1.610 . S
N698 C699 1.351 . S
C699 C693 1.428 . S
C699 N698 1.351 . S
C699 C700 1.434 . S
C700 C691 1.429 . S
C700 N697 1.350 . S
C700 C699 1.434 . S
C701 C702 1.369 . S
C701 C703 1.419 1_545 S
C701 H705 0.930 . S
C702 C701 1.369 . S
C702 C711 1.429 . S
C703 C701 1.419 1_565 S
C703 C704 1.363 . S
C703 H706 0.929 . S
C704 C703 1.363 . S
C704 C710 1.428 . S
H705 C701 0.930 . S
H706 C703 0.929 . S
S707 N708 1.613 . S
S707 N709 1.610 1_545 S
N708 S707 1.613 . S
N708 C711 1.350 . S
N709 S707 1.610 1_565 S
N709 C710 1.351 . S
C710 C704 1.428 . S
C710 N709 1.351 . S
C710 C711 1.434 1_565 S
C711 C702 1.429 . S
C711 N708 1.350 . S
C711 C710 1.434 1_545 S
C712 C713 1.369 . S
C712 C714 1.419 . S
C712 H716 0.930 . S
C713 C712 1.369 . S
C713 C722 1.429 . S
C714 C712 1.419 . S
C714 C715 1.363 . S
C714 H717 0.929 . S
C715 C714 1.363 . S
C715 C721 1.428 . S
H716 C712 0.930 . S
H717 C714 0.929 . S
S718 N719 1.613 . S
S718 N720 1.610 . S
N719 S718 1.613 . S
N719 C722 1.350 . S
N720 S718 1.610 . S
N720 C721 1.351 . S
C721 C715 1.428 . S
C721 N720 1.351 . S
C721 C722 1.434 . S
C722 C713 1.429 . S
C722 N719 1.350 . S
C722 C721 1.434 . S
C723 C724 1.369 . S
C723 C725 1.419 . S
C723 H727 0.930 . S
C724 C723 1.369 . S
C724 C733 1.429 . S
C725 C723 1.419 . S
C725 C726 1.363 . S
C725 H728 0.929 . S
C726 C725 1.363 . S
C726 C732 1.428 . S
H727 C723 0.930 . S
H728 C725 0.929 . S
S729 N730 1.613 . S
S729 N731 1.610 . S
N730 S729 1.613 . S
N730 C733 1.350 . S
N731 S729 1.610 . S
N731 C732 1.351 . S
C732 C726 1.428 . S
C732 N731 1.351 . S
C732 C733 1.434 . S
C733 C724 1.429 . S
C733 N730 1.350 . S
C733 C732 1.434 . S
C734 C735 1.369 . S
C734 C736 1.419 . S
C734 H738 0.930 . S
C735 C734 1.369 . S
C735 C744 1.429 . S
C736 C734 1.419 . S
C736 C737 1.363 . S
C736 H739 0.929 . S
C737 C736 1.363 . S
C737 C743 1.428 . S
H738 C734 0.930 . S
H739 C736 0.929 . S
S740 N741 1.613 . S
S740 N742 1.610 . S
N741 S740 1.613 . S
N741 C744 1.350 . S
N742 S740 1.610 . S
N742 C743 1.351 . S
C743 C737 1.428 . S
C743 N742 1.351 . S
C743 C744 1.434 . S
C744 C735 1.429 . S
C744 N741 1.350 . S
C744 C743 1.434 . S
C745 C746 1.369 . S
C745 C747 1.419 . S
C745 H749 0.930 . S
C746 C745 1.369 . S
C746 C755 1.429 . S
C747 C745 1.419 . S
C747 C748 1.363 . S
C747 H750 0.929 . S
C748 C747 1.363 . S
C748 C754 1.428 . S
H749 C745 0.930 . S
H750 C747 0.929 . S
S751 N752 1.613 . S
S751 N753 1.610 1_554 S
N752 S751 1.613 . S
N752 C755 1.350 . S
N753 S751 1.610 1_556 S
N753 C754 1.351 1_556 S
C754 C748 1.428 . S
C754 N753 1.351 1_554 S
C754 C755 1.434 . S
C755 C746 1.429 . S
C755 N752 1.350 . S
C755 C754 1.434 . S
C756 C757 1.369 . S
C756 C758 1.419 . S
C756 H760 0.930 . S
C757 C756 1.369 . S
C757 C766 1.429 . S
C758 C756 1.419 . S
C758 C759 1.363 . S
C758 H761 0.929 . S
C759 C758 1.363 . S
C759 C765 1.428 . S
H760 C756 0.930 . S
H761 C758 0.929 . S
S762 N763 1.613 . S
S762 N764 1.610 . S
N763 S762 1.613 . S
N763 C766 1.350 . S
N764 S762 1.610 . S
N764 C765 1.351 . S
C765 C759 1.428 . S
C765 N764 1.351 . S
C765 C766 1.434 . S
C766 C757 1.429 . S
C766 N763 1.350 . S
C766 C765 1.434 . S
C767 C768 1.369 . S
C767 C769 1.419 . S
C767 H771 0.930 . S
C768 C767 1.369 . S
C768 C777 1.429 . S
C769 C767 1.419 . S
C769 C770 1.363 . S
C769 H772 0.929 . S
C770 C769 1.363 . S
C770 C776 1.428 . S
H771 C767 0.930 . S
H772 C769 0.929 . S
S773 N774 1.613 . S
S773 N775 1.610 . S
N774 S773 1.613 . S
N774 C777 1.350 . S
N775 S773 1.610 . S
N775 C776 1.351 . S
C776 C770 1.428 . S
C776 N775 1.351 . S
C776 C777 1.434 . S
C777 C768 1.429 . S
C777 N774 1.350 . S
C777 C776 1.434 . S
C778 C779 1.369 . S
C778 C780 1.419 . S
C778 H782 0.930 . S
C779 C778 1.369 . S
C779 C788 1.429 . S
C780 C778 1.419 . S
C780 C781 1.363 . S
C780 H783 0.929 . S
C781 C780 1.363 . S
C781 C787 1.428 . S
H782 C778 0.930 . S
H783 C780 0.929 . S
S784 N785 1.613 . S
S784 N786 1.610 . S
N785 S784 1.613 . S
N785 C788 1.350 . S
N786 S784 1.610 . S
N786 C787 1.351 . S
C787 C781 1.428 . S
C787 N786 1.351 . S
C787 C788 1.434 . S
C788 C779 1.429 . S
C788 N785 1.350 . S
C788 C787 1.434 . S
C789 C790 1.369 . S
C789 C791 1.419 . S
C789 H793 0.930 . S
C790 C789 1.369 . S
C790 C799 1.429 . S
C791 C789 1.419 . S
C791 C792 1.363 . S
C791 H794 0.929 . S
C792 C791 1.363 . S
C792 C798 1.428 . S
H793 C789 0.930 . S
H794 C791 0.929 . S
S795 N796 1.613 . S
S795 N797 1.610 . S
N796 S795 1.613 . S
N796 C799 1.350 . S
N797 S795 1.610 . S
N797 C798 1.351 . S
C798 C792 1.428 . S
C798 N797 1.351 . S
C798 C799 1.434 . S
C799 C790 1.429 . S
C799 N796 1.350 . S
C799 C798 1.434 . S
C800 C801 1.369 . S
C800 C802 1.419 . S
C800 H804 0.930 . S
C801 C800 1.369 . S
C801 C810 1.429 . S
C802 C800 1.419 . S
C802 C803 1.363 . S
C802 H805 0.929 . S
C803 C802 1.363 . S
C803 C809 1.428 . S
H804 C800 0.930 . S
H805 C802 0.929 . S
S806 N807 1.613 . S
S806 N808 1.610 . S
N807 S806 1.613 . S
N807 C810 1.350 . S
N808 S806 1.610 . S
N808 C809 1.351 . S
C809 C803 1.428 . S
C809 N808 1.351 . S
C809 C810 1.434 . S
C810 C801 1.429 . S
C810 N807 1.350 . S
C810 C809 1.434 . S
C811 C812 1.369 . S
C811 C813 1.419 1_455 S
C811 H815 0.930 . S
C812 C811 1.369 . S
C812 C821 1.429 . S
C813 C811 1.419 1_655 S
C813 C814 1.363 . S
C813 H816 0.929 . S
C814 C813 1.363 . S
C814 C820 1.428 . S
H815 C811 0.930 . S
H816 C813 0.929 . S
S817 N818 1.617 1_655 S
S817 N819 1.606 . S
N818 S817 1.617 1_455 S
N818 C821 1.350 . S
N819 S817 1.606 . S
N819 C820 1.351 . S
C820 C814 1.428 . S
C820 N819 1.351 . S
C820 C821 1.434 1_655 S
C821 C812 1.429 . S
C821 N818 1.350 . S
C821 C820 1.434 1_455 S
C822 C823 1.369 . S
C822 C824 1.419 . S
C822 H826 0.930 . S
C823 C822 1.369 . S
C823 C832 1.429 . S
C824 C822 1.419 . S
C824 C825 1.363 . S
C824 H827 0.929 . S
C825 C824 1.363 . S
C825 C831 1.428 . S
H826 C822 0.930 . S
H827 C824 0.929 . S
S828 N829 1.613 . S
S828 N830 1.610 . S
N829 S828 1.613 . S
N829 C832 1.350 . S
N830 S828 1.610 . S
N830 C831 1.351 . S
C831 C825 1.428 . S
C831 N830 1.351 . S
C831 C832 1.434 . S
C832 C823 1.429 . S
C832 N829 1.350 . S
C832 C831 1.434 . S
C833 C834 1.369 . S
C833 C835 1.419 . S
C833 H837 0.930 . S
C834 C833 1.369 . S
C834 C843 1.429 . S
C835 C833 1.419 . S
C835 C836 1.363 . S
C835 H838 0.929 . S
C836 C835 1.363 . S
C836 C842 1.428 . S
H837 C833 0.930 . S
H838 C835 0.929 . S
S839 N840 1.613 . S
S839 N841 1.610 . S
N840 S839 1.613 . S
N840 C843 1.350 . S
N841 S839 1.610 . S
N841 C842 1.351 . S
C842 C836 1.428 . S
C842 N841 1.351 . S
C842 C843 1.434 . S
C843 C834 1.429 . S
C843 N840 1.350 . S
C843 C842 1.434 . S
C844 C845 1.369 . S
C844 C846 1.419 . S
C844 H848 0.930 1_554 S
C845 C844 1.369 . S
C845 C854 1.429 . S
C846 C844 1.419 . S
C846 C847 1.363 . S
C846 H849 0.929 1_554 S
C847 C846 1.363 . S
C847 C853 1.428 . S
H848 C844 0.930 1_556 S
H849 C846 0.929 1_556 S
S850 N851 1.613 . S
S850 N852 1.610 . S
N851 S850 1.613 . S
N851 C854 1.350 . S
N852 S850 1.610 . S
N852 C853 1.351 . S
C853 C847 1.428 . S
C853 N852 1.351 . S
C853 C854 1.434 . S
C854 C845 1.429 . S
C854 N851 1.350 . S
C854 C853 1.434 . S
C855 C856 1.369 . S
C855 C857 1.419 . S
C855 H859 0.930 . S
C856 C855 1.369 . S
C856 C865 1.429 . S
C857 C855 1.419 . S
C857 C858 1.363 . S
C857 H860 0.929 . S
C858 C857 1.363 . S
C858 C864 1.428 . S
H859 C855 0.930 . S
H860 C857 0.929 . S
S861 N862 1.639 . S
S861 N863 1.633 . S
N862 S861 1.639 . S
N862 C865 1.314 1_545 S
N863 S861 1.633 . S
N863 C864 1.319 1_545 S
C864 C858 1.428 . S
C864 N863 1.319 1_565 S
C864 C865 1.434 . S
C865 C856 1.429 . S
C865 N862 1.314 1_565 S
C865 C864 1.434 . S
C866 C867 1.369 . S
C866 C868 1.419 . S
C866 H870 0.930 . S
C867 C866 1.369 . S
C867 C876 1.429 . S
C868 C866 1.419 . S
C868 C869 1.363 . S
C868 H871 0.929 . S
C869 C868 1.363 . S
C869 C875 1.428 . S
H870 C866 0.930 . S
H871 C868 0.929 . S
S872 N873 1.613 . S
S872 N874 1.610 . S
N873 S872 1.613 . S
N873 C876 1.350 . S
N874 S872 1.610 . S
N874 C875 1.351 . S
C875 C869 1.428 . S
C875 N874 1.351 . S
C875 C876 1.434 . S
C876 C867 1.429 . S
C876 N873 1.350 . S
C876 C875 1.434 . S
C877 C878 1.369 . S
C877 C879 1.419 1_655 S
C877 H881 0.930 . S
C878 C877 1.369 . S
C878 C887 1.429 . S
C879 C877 1.419 1_455 S
C879 C880 1.363 . S
C879 H882 0.929 . S
C880 C879 1.363 . S
C880 C886 1.428 . S
H881 C877 0.930 . S
H882 C879 0.929 . S
S883 N884 1.617 1_455 S
S883 N885 1.606 . S
N884 S883 1.617 1_655 S
N884 C887 1.350 . S
N885 S883 1.606 . S
N885 C886 1.351 . S
C886 C880 1.428 . S
C886 N885 1.351 . S
C886 C887 1.434 1_455 S
C887 C878 1.429 . S
C887 N884 1.350 . S
C887 C886 1.434 1_655 S
C888 C889 1.369 . S
C888 C890 1.419 . S
C888 H892 0.930 . S
C889 C888 1.369 . S
C889 C898 1.429 . S
C890 C888 1.419 . S
C890 C891 1.363 . S
C890 H893 0.929 . S
C891 C890 1.363 . S
C891 C897 1.428 . S
H892 C888 0.930 . S
H893 C890 0.929 . S
S894 N895 1.613 . S
S894 N896 1.610 . S
N895 S894 1.613 . S
N895 C898 1.350 . S
N896 S894 1.610 . S
N896 C897 1.351 . S
C897 C891 1.428 . S
C897 N896 1.351 . S
C897 C898 1.434 . S
C898 C889 1.429 . S
C898 N895 1.350 . S
C898 C897 1.434 . S
C899 C900 1.369 . S
C899 C901 1.419 . S
C899 H903 0.930 . S
C900 C899 1.369 . S
C900 C909 1.429 . S
C901 C899 1.419 . S
C901 C902 1.363 . S
C901 H904 0.929 . S
C902 C901 1.363 . S
C902 C908 1.428 . S
H903 C899 0.930 . S
H904 C901 0.929 . S
S905 N906 1.613 . S
S905 N907 1.610 . S
N906 S905 1.613 . S
N906 C909 1.350 . S
N907 S905 1.610 . S
N907 C908 1.351 . S
C908 C902 1.428 . S
C908 N907 1.351 . S
C908 C909 1.434 . S
C909 C900 1.429 . S
C909 N906 1.350 . S
C909 C908 1.434 . S
C910 C911 1.369 . S
C910 C912 1.419 . S
C910 H914 0.930 1_554 S
C911 C910 1.369 . S
C911 C920 1.429 . S
C912 C910 1.419 . S
C912 C913 1.363 . S
C912 H915 0.929 1_554 S
C913 C912 1.363 . S
C913 C919 1.428 . S
H914 C910 0.930 1_556 S
H915 C912 0.929 1_556 S
S916 N917 1.613 . S
S916 N918 1.610 . S
N917 S916 1.613 . S
N917 C920 1.350 . S
N918 S916 1.610 . S
N918 C919 1.351 . S
C919 C913 1.428 . S
C919 N918 1.351 . S
C919 C920 1.434 . S
C920 C911 1.429 . S
C920 N917 1.350 . S
C920 C919 1.434 . S
C921 C922 1.369 . S
C921 C923 1.419 . S
C921 H925 0.930 . S
C922 C921 1.369 . S
C922 C931 1.429 . S
C923 C921 1.419 . S
C923 C924 1.363 . S
C923 H926 0.929 . S
C924 C923 1.363 . S
C924 C930 1.428 . S
H925 C921 0.930 . S
H926 C923 0.929 . S
S927 N928 1.613 . S
S927 N929 1.610 . S
N928 S927 1.613 . S
N928 C931 1.350 . S
N929 S927 1.610 . S
N929 C930 1.351 . S
C930 C924 1.428 . S
C930 N929 1.351 . S
C930 C931 1.434 . S
C931 C922 1.429 . S
C931 N928 1.350 . S
C931 C930 1.434 . S
C932 C933 1.369 . S
C932 C934 1.419 . S
C932 H936 0.930 . S
C933 C932 1.369 . S
C933 C942 1.429 . S
C934 C932 1.419 . S
C934 C935 1.363 . S
C934 H937 0.929 . S
C935 C934 1.363 . S
C935 C941 1.428 . S
H936 C932 0.930 . S
H937 C934 0.929 . S
S938 N939 1.613 . S
S938 N940 1.610 . S
N939 S938 1.613 . S
N939 C942 1.350 . S
N940 S938 1.610 . S
N940 C941 1.351 . S
C941 C935 1.428 . S
C941 N940 1.351 . S
C941 C942 1.434 . S
C942 C933 1.429 . S
C942 N939 1.350 . S
C942 C941 1.434 . S
C943 C944 1.369 . S
C943 C945 1.419 1_655 S
C943 H947 0.930 . S
C944 C943 1.369 . S
C944 C953 1.429 . S
C945 C943 1.419 1_455 S
C945 C946 1.363 . S
C945 H948 0.929 . S
C946 C945 1.363 . S
C946 C952 1.428 . S
H947 C943 0.930 . S
H948 C945 0.929 . S
S949 N950 1.617 1_455 S
S949 N951 1.606 . S
N950 S949 1.617 1_655 S
N950 C953 1.350 . S
N951 S949 1.606 . S
N951 C952 1.351 . S
C952 C946 1.428 . S
C952 N951 1.351 . S
C952 C953 1.434 1_455 S
C953 C944 1.429 . S
C953 N950 1.350 . S
C953 C952 1.434 1_655 S
C954 C955 1.369 . S
C954 C956 1.419 1_655 S
C954 H958 0.930 . S
C955 C954 1.369 . S
C955 C964 1.429 . S
C956 C954 1.419 1_455 S
C956 C957 1.363 . S
C956 H959 0.929 . S
C957 C956 1.363 . S
C957 C963 1.428 . S
H958 C954 0.930 . S
H959 C956 0.929 . S
S960 N961 1.617 1_455 S
S960 N962 1.606 . S
N961 S960 1.617 1_655 S
N961 C964 1.350 . S
N962 S960 1.606 . S
N962 C963 1.351 . S
C963 C957 1.428 . S
C963 N962 1.351 . S
C963 C964 1.434 1_455 S
C964 C955 1.429 . S
C964 N961 1.350 . S
C964 C963 1.434 1_655 S
C965 C966 1.369 . S
C965 C967 1.419 . S
C965 H969 0.930 . S
C966 C965 1.369 . S
C966 C975 1.429 . S
C967 C965 1.419 . S
C967 C968 1.363 . S
C967 H970 0.929 . S
C968 C967 1.363 . S
C968 C974 1.428 . S
H969 C965 0.930 . S
H970 C967 0.929 . S
S971 N972 1.613 . S
S971 N973 1.610 . S
N972 S971 1.613 . S
N972 C975 1.350 . S
N973 S971 1.610 . S
N973 C974 1.351 . S
C974 C968 1.428 . S
C974 N973 1.351 . S
C974 C975 1.434 . S
C975 C966 1.429 . S
C975 N972 1.350 . S
C975 C974 1.434 . S
C976 C977 1.369 . S
C976 C978 1.419 . S
C976 H980 0.930 . S
C977 C976 1.369 . S
C977 C986 1.429 . S
C978 C976 1.419 . S
C978 C979 1.363 . S
C978 H981 0.929 . S
C979 C978 1.363 . S
C979 C985 1.428 . S
H980 C976 0.930 . S
H981 C978 0.929 . S
S982 N983 1.613 . S
S982 N984 1.610 . S
N983 S982 1.613 . S
N983 C986 1.350 . S
N984 S982 1.610 . S
N984 C985 1.351 . S
C985 C979 1.428 . S
C985 N984 1.351 . S
C985 C986 1.434 . S
C986 C977 1.429 . S
C986 N983 1.350 . S
C986 C985 1.434 . S
C987 C988 1.369 1_545 S
C987 C989 1.419 . S
C987 H991 0.930 . S
C988 C987 1.369 1_565 S
C988 C997 1.429 . S
C989 C987 1.419 . S
C989 C990 1.363 . S
C989 H992 0.929 . S
C990 C989 1.363 . S
C990 C996 1.428 1_545 S
H991 C987 0.930 . S
H992 C989 0.929 . S
S993 N994 1.613 . S
S993 N995 1.610 . S
N994 S993 1.613 . S
N994 C997 1.350 . S
N995 S993 1.610 . S
N995 C996 1.351 . S
C996 C990 1.428 1_565 S
C996 N995 1.351 . S
C996 C997 1.434 . S
C997 C988 1.429 . S
C997 N994 1.350 . S
C997 C996 1.434 . S
C998 C999 1.369 . S
C998 C1000 1.419 . S
C998 H1002 0.930 . S
C999 C998 1.369 . S
C999 C1008 1.429 . S
C1000 C998 1.419 . S
C1000 C1001 1.363 . S
C1000 H1003 0.929 . S
C1001 C1000 1.363 . S
C1001 C1007 1.428 . S
H1002 C998 0.930 . S
H1003 C1000 0.929 . S
S1004 N1005 1.613 . S
S1004 N1006 1.610 . S
N1005 S1004 1.613 . S
N1005 C1008 1.350 . S
N1006 S1004 1.610 . S
N1006 C1007 1.351 . S
C1007 C1001 1.428 . S
C1007 N1006 1.351 . S
C1007 C1008 1.434 . S
C1008 C999 1.429 . S
C1008 N1005 1.350 . S
C1008 C1007 1.434 . S
C1009 C1010 1.369 1_565 S
C1009 C1011 1.419 . S
C1009 H1013 0.930 1_554 S
C1010 C1009 1.369 1_545 S
C1010 C1019 1.429 . S
C1011 C1009 1.419 . S
C1011 C1012 1.363 . S
C1011 H1014 0.929 . S
C1012 C1011 1.363 . S
C1012 C1018 1.428 1_565 S
H1013 C1009 0.930 1_556 S
H1014 C1011 0.929 . S
S1015 N1016 1.613 . S
S1015 N1017 1.610 . S
N1016 S1015 1.613 . S
N1016 C1019 1.350 . S
N1017 S1015 1.610 . S
N1017 C1018 1.351 . S
C1018 C1012 1.428 1_545 S
C1018 N1017 1.351 . S
C1018 C1019 1.434 . S
C1019 C1010 1.429 . S
C1019 N1016 1.350 . S
C1019 C1018 1.434 . S
C1020 C1021 1.369 . S
C1020 C1022 1.419 . S
C1020 H1024 0.930 . S
C1021 C1020 1.369 . S
C1021 C1030 1.429 . S
C1022 C1020 1.419 . S
C1022 C1023 1.363 . S
C1022 H1025 0.929 . S
C1023 C1022 1.363 . S
C1023 C1029 1.428 . S
H1024 C1020 0.930 . S
H1025 C1022 0.929 . S
S1026 N1027 1.613 . S
S1026 N1028 1.610 . S
N1027 S1026 1.613 . S
N1027 C1030 1.350 . S
N1028 S1026 1.610 . S
N1028 C1029 1.351 . S
C1029 C1023 1.428 . S
C1029 N1028 1.351 . S
C1029 C1030 1.434 . S
C1030 C1021 1.429 . S
C1030 N1027 1.350 . S
C1030 C1029 1.434 . S
C1031 C1032 1.369 1_565 S
C1031 C1033 1.419 . S
C1031 H1035 0.930 . S
C1032 C1031 1.369 1_545 S
C1032 C1041 1.429 . S
C1033 C1031 1.419 . S
C1033 C1034 1.363 . S
C1033 H1036 0.929 . S
C1034 C1033 1.363 . S
C1034 C1040 1.428 1_565 S
H1035 C1031 0.930 . S
H1036 C1033 0.929 . S
S1037 N1038 1.613 . S
S1037 N1039 1.610 . S
N1038 S1037 1.613 . S
N1038 C1041 1.350 . S
N1039 S1037 1.610 . S
N1039 C1040 1.351 . S
C1040 C1034 1.428 1_545 S
C1040 N1039 1.351 . S
C1040 C1041 1.434 . S
C1041 C1032 1.429 . S
C1041 N1038 1.350 . S
C1041 C1040 1.434 . S
C1042 C1043 1.369 . S
C1042 C1044 1.419 . S
C1042 H1046 0.930 . S
C1043 C1042 1.369 . S
C1043 C1052 1.429 . S
C1044 C1042 1.419 . S
C1044 C1045 1.363 . S
C1044 H1047 0.929 . S
C1045 C1044 1.363 . S
C1045 C1051 1.428 . S
H1046 C1042 0.930 . S
H1047 C1044 0.929 . S
S1048 N1049 1.613 . S
S1048 N1050 1.610 . S
N1049 S1048 1.613 . S
N1049 C1052 1.350 . S
N1050 S1048 1.610 . S
N1050 C1051 1.351 . S
C1051 C1045 1.428 . S
C1051 N1050 1.351 . S
C1051 C1052 1.434 . S
C1052 C1043 1.429 . S
C1052 N1049 1.350 . S
C1052 C1051 1.434 . S
C1053 C1054 1.369 1_545 S
C1053 C1055 1.419 . S
C1053 H1057 0.930 . S
C1054 C1053 1.369 1_565 S
C1054 C1063 1.429 . S
C1055 C1053 1.419 . S
C1055 C1056 1.363 . S
C1055 H1058 0.929 . S
C1056 C1055 1.363 . S
C1056 C1062 1.428 1_545 S
H1057 C1053 0.930 . S
H1058 C1055 0.929 . S
S1059 N1060 1.613 . S
S1059 N1061 1.610 1_554 S
N1060 S1059 1.613 . S
N1060 C1063 1.350 . S
N1061 S1059 1.610 1_556 S
N1061 C1062 1.351 1_556 S
C1062 C1056 1.428 1_565 S
C1062 N1061 1.351 1_554 S
C1062 C1063 1.434 . S
C1063 C1054 1.429 . S
C1063 N1060 1.350 . S
C1063 C1062 1.434 . S
C1064 C1065 1.369 . S
C1064 C1066 1.419 . S
C1064 H1068 0.930 . S
C1065 C1064 1.369 . S
C1065 C1074 1.429 . S
C1066 C1064 1.419 . S
C1066 C1067 1.363 . S
C1066 H1069 0.929 . S
C1067 C1066 1.363 . S
C1067 C1073 1.428 . S
H1068 C1064 0.930 . S
H1069 C1066 0.929 . S
S1070 N1071 1.613 . S
S1070 N1072 1.610 . S
N1071 S1070 1.613 . S
N1071 C1074 1.350 . S
N1072 S1070 1.610 . S
N1072 C1073 1.351 . S
C1073 C1067 1.428 . S
C1073 N1072 1.351 . S
C1073 C1074 1.434 . S
C1074 C1065 1.429 . S
C1074 N1071 1.350 . S
C1074 C1073 1.434 . S
C1075 C1076 1.369 . S
C1075 C1077 1.419 . S
C1075 H1079 0.930 . S
C1076 C1075 1.369 . S
C1076 C1085 1.429 . S
C1077 C1075 1.419 . S
C1077 C1078 1.363 . S
C1077 H1080 0.929 1_554 S
C1078 C1077 1.363 . S
C1078 C1084 1.428 . S
H1079 C1075 0.930 . S
H1080 C1077 0.929 1_556 S
S1081 N1082 1.613 . S
S1081 N1083 1.610 . S
N1082 S1081 1.613 . S
N1082 C1085 1.350 . S
N1083 S1081 1.610 . S
N1083 C1084 1.351 . S
C1084 C1078 1.428 . S
C1084 N1083 1.351 . S
C1084 C1085 1.434 . S
C1085 C1076 1.429 . S
C1085 N1082 1.350 . S
C1085 C1084 1.434 . S
C1086 C1087 1.369 . S
C1086 C1088 1.419 . S
C1086 H1090 0.930 . S
C1087 C1086 1.369 . S
C1087 C1096 1.429 . S
C1088 C1086 1.419 . S
C1088 C1089 1.363 . S
C1088 H1091 0.929 . S
C1089 C1088 1.363 . S
C1089 C1095 1.428 . S
H1090 C1086 0.930 . S
H1091 C1088 0.929 . S
S1092 N1093 1.613 . S
S1092 N1094 1.610 . S
N1093 S1092 1.613 . S
N1093 C1096 1.350 . S
N1094 S1092 1.610 . S
N1094 C1095 1.351 . S
C1095 C1089 1.428 . S
C1095 N1094 1.351 . S
C1095 C1096 1.434 . S
C1096 C1087 1.429 . S
C1096 N1093 1.350 . S
C1096 C1095 1.434 . S
C1097 C1098 1.369 . S
C1097 C1099 1.419 . S
C1097 H1101 0.930 . S
C1098 C1097 1.369 . S
C1098 C1107 1.429 . S
C1099 C1097 1.419 . S
C1099 C1100 1.363 . S
C1099 H1102 0.929 . S
C1100 C1099 1.363 . S
C1100 C1106 1.428 . S
H1101 C1097 0.930 . S
H1102 C1099 0.929 . S
S1103 N1104 1.613 . S
S1103 N1105 1.610 . S
N1104 S1103 1.613 . S
N1104 C1107 1.350 . S
N1105 S1103 1.610 . S
N1105 C1106 1.351 . S
C1106 C1100 1.428 . S
C1106 N1105 1.351 . S
C1106 C1107 1.434 . S
C1107 C1098 1.429 . S
C1107 N1104 1.350 . S
C1107 C1106 1.434 . S
C1108 C1109 1.369 . S
C1108 C1110 1.419 . S
C1108 H1112 0.930 . S
C1109 C1108 1.369 . S
C1109 C1118 1.429 . S
C1110 C1108 1.419 . S
C1110 C1111 1.363 . S
C1110 H1113 0.929 . S
C1111 C1110 1.363 . S
C1111 C1117 1.428 . S
H1112 C1108 0.930 . S
H1113 C1110 0.929 . S
S1114 N1115 1.613 . S
S1114 N1116 1.610 . S
N1115 S1114 1.613 . S
N1115 C1118 1.350 . S
N1116 S1114 1.610 . S
N1116 C1117 1.351 . S
C1117 C1111 1.428 . S
C1117 N1116 1.351 . S
C1117 C1118 1.434 . S
C1118 C1109 1.429 . S
C1118 N1115 1.350 . S
C1118 C1117 1.434 . S
C1119 C1120 1.369 . S
C1119 C1121 1.419 . S
C1119 H1123 0.930 1_554 S
C1120 C1119 1.369 . S
C1120 C1129 1.429 . S
C1121 C1119 1.419 . S
C1121 C1122 1.363 . S
C1121 H1124 0.929 . S
C1122 C1121 1.363 . S
C1122 C1128 1.428 . S
H1123 C1119 0.930 1_556 S
H1124 C1121 0.929 . S
S1125 N1126 1.613 . S
S1125 N1127 1.610 . S
N1126 S1125 1.613 . S
N1126 C1129 1.350 . S
N1127 S1125 1.610 . S
N1127 C1128 1.351 . S
C1128 C1122 1.428 . S
C1128 N1127 1.351 . S
C1128 C1129 1.434 . S
C1129 C1120 1.429 . S
C1129 N1126 1.350 . S
C1129 C1128 1.434 . S
C1130 C1131 1.369 . S
C1130 C1132 1.419 . S
C1130 H1134 0.930 . S
C1131 C1130 1.369 . S
C1131 C1140 1.429 . S
C1132 C1130 1.419 . S
C1132 C1133 1.363 . S
C1132 H1135 0.929 . S
C1133 C1132 1.363 . S
C1133 C1139 1.428 . S
H1134 C1130 0.930 . S
H1135 C1132 0.929 . S
S1136 N1137 1.613 . S
S1136 N1138 1.610 . S
N1137 S1136 1.613 . S
N1137 C1140 1.350 . S
N1138 S1136 1.610 . S
N1138 C1139 1.351 . S
C1139 C1133 1.428 . S
C1139 N1138 1.351 . S
C1139 C1140 1.434 . S
C1140 C1131 1.429 . S
C1140 N1137 1.350 . S
C1140 C1139 1.434 . S
C1141 C1142 1.369 . S
C1141 C1143 1.419 . S
C1141 H1145 0.930 . S
C1142 C1141 1.369 . S
C1142 C1151 1.429 . S
C1143 C1141 1.419 . S
C1143 C1144 1.363 . S
C1143 H1146 0.929 . S
C1144 C1143 1.363 . S
C1144 C1150 1.428 . S
H1145 C1141 0.930 . S
H1146 C1143 0.929 . S
S1147 N1148 1.613 . S
S1147 N1149 1.610 . S
N1148 S1147 1.613 . S
N1148 C1151 1.350 . S
N1149 S1147 1.610 . S
N1149 C1150 1.351 . S
C1150 C1144 1.428 . S
C1150 N1149 1.351 . S
C1150 C1151 1.434 . S
C1151 C1142 1.429 . S
C1151 N1148 1.350 . S
C1151 C1150 1.434 . S
C449 C106 1.601 . S
C451 C8 1.607 . S
C460 C22 1.606 . S
C462 C64 1.604 . S
C471 C78 1.608 . S
C473 C36 1.602 . S
C482 C50 1.602 . S
C484 C92 1.608 . S
C493 C120 1.607 . S
C495 C218 1.603 . S
C504 C134 1.603 . S
C506 C176 1.607 . S
C515 C148 1.601 . S
C517 C190 1.608 . S
C526 C162 1.604 . S
C528 C204 1.607 . S
C537 C232 1.602 . S
C539 C330 1.608 . S
C548 C246 1.609 . S
C550 C288 1.602 . S
C559 C302 1.601 . S
C561 C260 1.607 . S
C570 C316 1.604 . S
C572 C274 1.606 . S
C581 C344 1.609 . S
C583 C442 1.602 . S
C592 C400 1.603 . S
C594 C358 1.608 . S
C603 C414 1.602 . S
C605 C372 1.608 . S
C614 C386 1.605 . S
C616 C428 1.605 . S
C625 C7 0.837 . S
C627 C91 0.840 . S
C636 C21 0.837 . S
C638 C105 0.839 1_554 S
C647 C63 0.837 . S
C649 C35 0.841 . S
C658 C49 0.843 . S
C660 C77 0.844 . S
C669 C119 0.837 . S
C671 C203 0.837 . S
C680 C133 0.843 1_554 S
C682 C217 0.841 . S
C691 C175 0.836 . S
C693 C147 0.837 . S
C702 C189 0.846 . S
C704 C161 0.844 . S
C713 C231 0.843 . S
C715 C315 0.840 . S
C724 C329 0.845 . S
C726 C245 0.842 . S
C735 C287 0.844 . S
C737 C259 0.844 . S
C746 C273 0.843 . S
C748 C301 0.840 1_554 S
C757 C343 0.836 . S
C759 C427 0.838 . S
C768 C357 0.836 . S
C770 C441 0.838 . S
C779 C399 0.837 . S
C781 C371 0.837 . S
C790 C413 0.846 . S
C792 C385 0.844 1_554 S
C801 C9 1.510 . S
C803 C429 1.511 . S
C812 C23 1.512 . S
C814 C219 1.512 . S
C823 C37 1.510 . S
C825 C401 1.510 . S
C834 C51 1.515 . S
C836 C191 1.514 . S
C845 C65 1.512 . S
C847 C373 1.512 . S
C856 C79 1.510 . S
C858 C163 1.511 . S
C867 C93 1.511 . S
C869 C345 1.511 . S
C878 C135 1.515 . S
C880 C107 1.515 . S
C889 C317 1.510 . S
C891 C121 1.511 . S
C900 C149 1.512 . S
C902 C289 1.512 . S
C911 C261 1.512 . S
C913 C177 1.512 . S
C922 C233 1.513 . S
C924 C205 1.513 . S
C933 C247 1.511 . S
C935 C443 1.511 . S
C944 C275 1.511 . S
C946 C415 1.512 . S
C955 C303 1.512 . S
C957 C387 1.512 . S
C966 C359 1.514 . S
C968 C331 1.514 . S
C977 C3 1.595 . S
C979 C87 1.594 . S
C988 C17 1.592 . S
C990 C101 1.592 . S
C999 C59 1.593 . S
C1001 C31 1.593 . S
C1010 C45 1.594 1_554 S
C1012 C73 1.593 . S
C1021 C115 1.595 . S
C1023 C199 1.594 . S
C1032 C129 1.594 . S
C1034 C213 1.593 . S
C1043 C171 1.594 . S
C1045 C143 1.594 . S
C1054 C157 1.593 . S
C1056 C185 1.592 1_554 S
C1065 C311 1.595 . S
C1067 C227 1.594 . S
C1076 C325 1.594 . S
C1078 C241 1.594 1_554 S
C1087 C283 1.594 . S
C1089 C255 1.594 . S
C1098 C297 1.593 . S
C1100 C269 1.593 . S
C1109 C423 1.594 . S
C1111 C339 1.594 . S
C1120 C437 1.594 1_554 S
C1122 C353 1.593 . S
C1131 C367 1.592 . S
C1133 C395 1.593 . S
C1142 C409 1.593 . S
C1144 C381 1.593 . S
