# Generated by pormake.
# Topology crs, (6)-cn, num edge types: 1
# Building blocks:
#     Node 0, Type 0, BuildingBlock: BETDIP_clean_sbu_0, # of connection points: 6
#     Node 1, Type 0, BuildingBlock: BETDIP_clean_sbu_0, # of connection points: 6
#     Node 2, Type 0, BuildingBlock: BETDIP_clean_sbu_0, # of connection points: 6
#     Node 3, Type 0, BuildingBlock: BETDIP_clean_sbu_0, # of connection points: 6
#     Node 4, Type 0, BuildingBlock: BETDIP_clean_sbu_0, # of connection points: 6
#     Node 5, Type 0, BuildingBlock: BETDIP_clean_sbu_0, # of connection points: 6
#     Node 6, Type 0, BuildingBlock: BETDIP_clean_sbu_0, # of connection points: 6
#     Node 7, Type 0, BuildingBlock: BETDIP_clean_sbu_0, # of connection points: 6
#     Node 8, Type 0, BuildingBlock: BETDIP_clean_sbu_0, # of connection points: 6
#     Node 9, Type 0, BuildingBlock: BETDIP_clean_sbu_0, # of connection points: 6
#     Node 10, Type 0, BuildingBlock: BETDIP_clean_sbu_0, # of connection points: 6
#     Node 11, Type 0, BuildingBlock: BETDIP_clean_sbu_0, # of connection points: 6
#     Node 12, Type 0, BuildingBlock: BETDIP_clean_sbu_0, # of connection points: 6
#     Node 13, Type 0, BuildingBlock: BETDIP_clean_sbu_0, # of connection points: 6
#     Node 14, Type 0, BuildingBlock: BETDIP_clean_sbu_0, # of connection points: 6
#     Node 15, Type 0, BuildingBlock: BETDIP_clean_sbu_0, # of connection points: 6
#     Edge 16, Type (0, 0), BuildingBlock: EZIPEK_clean_linker_0, # of connection points: 2
#     Edge 17, Type (0, 0), BuildingBlock: EZIPEK_clean_linker_0, # of connection points: 2
#     Edge 18, Type (0, 0), BuildingBlock: EZIPEK_clean_linker_0, # of connection points: 2
#     Edge 19, Type (0, 0), BuildingBlock: EZIPEK_clean_linker_0, # of connection points: 2
#     Edge 20, Type (0, 0), BuildingBlock: EZIPEK_clean_linker_0, # of connection points: 2
#     Edge 21, Type (0, 0), BuildingBlock: EZIPEK_clean_linker_0, # of connection points: 2
#     Edge 22, Type (0, 0), BuildingBlock: EZIPEK_clean_linker_0, # of connection points: 2
#     Edge 23, Type (0, 0), BuildingBlock: EZIPEK_clean_linker_0, # of connection points: 2
#     Edge 24, Type (0, 0), BuildingBlock: EZIPEK_clean_linker_0, # of connection points: 2
#     Edge 25, Type (0, 0), BuildingBlock: EZIPEK_clean_linker_0, # of connection points: 2
#     Edge 26, Type (0, 0), BuildingBlock: EZIPEK_clean_linker_0, # of connection points: 2
#     Edge 27, Type (0, 0), BuildingBlock: EZIPEK_clean_linker_0, # of connection points: 2
#     Edge 28, Type (0, 0), BuildingBlock: EZIPEK_clean_linker_0, # of connection points: 2
#     Edge 29, Type (0, 0), BuildingBlock: EZIPEK_clean_linker_0, # of connection points: 2
#     Edge 30, Type (0, 0), BuildingBlock: EZIPEK_clean_linker_0, # of connection points: 2
#     Edge 31, Type (0, 0), BuildingBlock: EZIPEK_clean_linker_0, # of connection points: 2
#     Edge 32, Type (0, 0), BuildingBlock: EZIPEK_clean_linker_0, # of connection points: 2
#     Edge 33, Type (0, 0), BuildingBlock: EZIPEK_clean_linker_0, # of connection points: 2
#     Edge 34, Type (0, 0), BuildingBlock: EZIPEK_clean_linker_0, # of connection points: 2
#     Edge 35, Type (0, 0), BuildingBlock: EZIPEK_clean_linker_0, # of connection points: 2
#     Edge 36, Type (0, 0), BuildingBlock: EZIPEK_clean_linker_0, # of connection points: 2
#     Edge 37, Type (0, 0), BuildingBlock: EZIPEK_clean_linker_0, # of connection points: 2
#     Edge 38, Type (0, 0), BuildingBlock: EZIPEK_clean_linker_0, # of connection points: 2
#     Edge 39, Type (0, 0), BuildingBlock: EZIPEK_clean_linker_0, # of connection points: 2
#     Edge 40, Type (0, 0), BuildingBlock: EZIPEK_clean_linker_0, # of connection points: 2
#     Edge 41, Type (0, 0), BuildingBlock: EZIPEK_clean_linker_0, # of connection points: 2
#     Edge 42, Type (0, 0), BuildingBlock: EZIPEK_clean_linker_0, # of connection points: 2
#     Edge 43, Type (0, 0), BuildingBlock: EZIPEK_clean_linker_0, # of connection points: 2
#     Edge 44, Type (0, 0), BuildingBlock: EZIPEK_clean_linker_0, # of connection points: 2
#     Edge 45, Type (0, 0), BuildingBlock: EZIPEK_clean_linker_0, # of connection points: 2
#     Edge 46, Type (0, 0), BuildingBlock: EZIPEK_clean_linker_0, # of connection points: 2
#     Edge 47, Type (0, 0), BuildingBlock: EZIPEK_clean_linker_0, # of connection points: 2
#     Edge 48, Type (0, 0), BuildingBlock: EZIPEK_clean_linker_0, # of connection points: 2
#     Edge 49, Type (0, 0), BuildingBlock: EZIPEK_clean_linker_0, # of connection points: 2
#     Edge 50, Type (0, 0), BuildingBlock: EZIPEK_clean_linker_0, # of connection points: 2
#     Edge 51, Type (0, 0), BuildingBlock: EZIPEK_clean_linker_0, # of connection points: 2
#     Edge 52, Type (0, 0), BuildingBlock: EZIPEK_clean_linker_0, # of connection points: 2
#     Edge 53, Type (0, 0), BuildingBlock: EZIPEK_clean_linker_0, # of connection points: 2
#     Edge 54, Type (0, 0), BuildingBlock: EZIPEK_clean_linker_0, # of connection points: 2
#     Edge 55, Type (0, 0), BuildingBlock: EZIPEK_clean_linker_0, # of connection points: 2
#     Edge 56, Type (0, 0), BuildingBlock: EZIPEK_clean_linker_0, # of connection points: 2
#     Edge 57, Type (0, 0), BuildingBlock: EZIPEK_clean_linker_0, # of connection points: 2
#     Edge 58, Type (0, 0), BuildingBlock: EZIPEK_clean_linker_0, # of connection points: 2
#     Edge 59, Type (0, 0), BuildingBlock: EZIPEK_clean_linker_0, # of connection points: 2
#     Edge 60, Type (0, 0), BuildingBlock: EZIPEK_clean_linker_0, # of connection points: 2
#     Edge 61, Type (0, 0), BuildingBlock: EZIPEK_clean_linker_0, # of connection points: 2
#     Edge 62, Type (0, 0), BuildingBlock: EZIPEK_clean_linker_0, # of connection points: 2
#     Edge 63, Type (0, 0), BuildingBlock: EZIPEK_clean_linker_0, # of connection points: 2
# Relax obj value: 0.488
# Max RMSD: 0.362
# Mean RMSD: 0.358
data_MOF--net-crs--node1-BETDIP_clean_sbu_0--edge1-EZIPEK_clean_linker_0
_symmetry_space_group_name_H-M    P1
_symmetry_Int_Tables_number       1
_symmetry_cell_setting            triclinic
loop_
_symmetry_equiv_pos_as_xyz
'x, y, z'
_cell_length_a     30.226794
_cell_length_b     53.935284
_cell_length_c     32.444898
_cell_angle_alpha  90.064716
_cell_angle_beta   89.881909
_cell_angle_gamma 53.699466
loop_
_atom_site_label
_atom_site_type_symbol
_atom_site_fract_x
_atom_site_fract_y
_atom_site_fract_z
_atom_type_partial_charge
Tb0 Tb 0.95131 1.02008 0.04344 0.0
Tb1 Tb 0.01521 0.02912 0.98238 0.0
C2 C 0.88199 1.01725 0.08104 0.0
C3 C 0.87181 0.99367 0.07764 0.0
C4 C 0.8375 0.99552 0.04656 0.0
C5 C 0.8357 0.97064 0.03886 0.0
C6 C 0.86786 0.94375 0.06228 0.0
C7 C 0.89989 0.94236 0.09457 0.0
C8 C 0.90164 0.96717 0.10237 0.0
C9 C 0.04745 1.00474 0.07278 0.0
C10 C 0.03057 0.96627 0.98187 0.0
C11 C 0.08506 0.03489 0.95294 0.0
C12 C 0.10235 0.05364 0.9676 0.0
C13 C 0.09379 0.06329 1.00901 0.0
C14 C 0.09674 0.08721 0.02078 0.0
C15 C 0.10731 0.10197 0.99106 0.0
C16 C 0.1194 0.09096 0.95038 0.0
C17 C 0.11691 0.06692 0.9387 0.0
C18 C 0.93099 0.03538 0.94185 0.0
C19 C 0.93041 0.08528 0.04071 0.0
O20 O 0.86982 0.0347 0.04873 0.0
O21 O 0.92944 1.00771 0.09661 0.0
O22 O 0.01419 0.02716 0.04935 0.0
O23 O 0.02732 0.98944 0.07853 0.0
O24 O -0.0129 0.97899 1.00595 0.0
O25 O 0.05529 0.97958 0.9751 0.0
O26 O 0.09808 1.0115 0.97599 0.0
O27 O 0.03387 0.05124 0.9408 0.0
O28 O 0.9436 0.02982 0.97966 0.0
O29 O 0.96666 0.03848 0.9259 0.0
O30 O 0.96972 0.07399 1.01274 0.0
O31 O 0.91389 0.06901 0.05522 0.0
H32 H 0.81369 1.01568 0.02717 0.0
H33 H 0.8103 0.97204 0.01411 0.0
H34 H 0.92433 0.9218 0.11322 0.0
H35 H 0.92804 0.96509 0.12678 0.0
H36 H 0.08147 0.0537 0.03164 0.0
H37 H 0.08735 0.0955 0.0523 0.0
H38 H 0.12783 0.10212 0.92719 0.0
H39 H 0.12282 0.06007 0.90658 0.0
Tb40 Tb 0.02212 0.26925 0.29408 0.0
Tb41 Tb 0.95785 0.2695 0.23079 0.0
C42 C 0.05458 0.28178 0.3576 0.0
C43 C 0.05031 0.30845 0.37633 0.0
C44 C 0.0102 0.32671 0.40666 0.0
C45 C 0.00732 0.35089 0.42604 0.0
C46 C 0.04487 0.35723 0.41596 0.0
C47 C 0.08522 0.339 0.38591 0.0
C48 C 0.088 0.31484 0.36636 0.0
C49 C 0.06542 0.21121 0.26633 0.0
C50 C 0.92409 0.26609 0.31944 0.0
C51 C 0.92634 0.25667 0.16717 0.0
C52 C 0.92049 0.23302 0.15045 0.0
C53 C 0.96519 0.20637 0.13093 0.0
C54 C 0.95903 0.18502 0.11285 0.0
C55 C 0.90798 0.18994 0.11343 0.0
C56 C 0.86297 0.21667 0.13219 0.0
C57 C 0.86915 0.23804 0.15049 0.0
C58 C 0.91363 0.32741 0.25829 0.0
C59 C 0.05231 0.2766 0.20571 0.0
O60 O 0.00956 0.28371 0.35584 0.0
O61 O 0.08412 0.26914 0.32425 0.0
O62 O 0.01533 0.23313 0.27215 0.0
O63 O 0.09242 0.22117 0.27991 0.0
O64 O 0.95161 0.2773 0.32884 0.0
O65 O 0.92795 0.25586 0.28158 0.0
O66 O 0.9762 0.24822 0.17298 0.0
O67 O 0.89328 0.27477 0.19671 0.0
O68 O 0.964 0.30574 0.25279 0.0
O69 O 0.88695 0.31709 0.24528 0.0
O70 O 0.02372 0.26634 0.19444 0.0
O71 O 0.05018 0.28455 0.24456 0.0
H72 H -0.01901 0.32223 0.41562 0.0
H73 H 0.97573 0.36469 0.44897 0.0
H74 H 0.11453 0.34352 0.37756 0.0
H75 H 0.11992 0.30107 0.34365 0.0
H76 H 0.00499 0.20206 0.12928 0.0
H77 H -0.0058 0.16456 0.09843 0.0
H78 H 0.82327 0.22081 0.13298 0.0
H79 H 0.83366 0.2586 0.16441 0.0
Tb80 Tb 0.77462 0.27008 0.53661 0.0
Tb81 Tb 0.69049 0.27711 0.48146 0.0
C82 C 0.85719 0.26702 0.55828 0.0
C83 C 0.86283 0.28984 0.57733 0.0
C84 C 0.87545 0.30605 0.55213 0.0
C85 C 0.87308 0.33078 0.56789 0.0
C86 C 0.85894 0.33945 0.60922 0.0
C87 C 0.84955 0.3223 0.63531 0.0
C88 C 0.85113 0.29769 0.61937 0.0
C89 C 0.68797 0.28663 0.58517 0.0
C90 C 0.67866 0.33712 0.50134 0.0
C91 C 0.62669 0.27052 0.44245 0.0
C92 C 0.6114 0.24959 0.44864 0.0
C93 C 0.60847 0.24048 0.48853 0.0
C94 C 0.60545 0.21585 0.49394 0.0
C95 C 0.60676 0.19966 0.45956 0.0
C96 C 0.60703 0.20965 0.41975 0.0
C97 C 0.60914 0.23458 0.41433 0.0
C98 C 0.77308 0.27271 0.44266 0.0
C99 C 0.7692 0.21508 0.53336 0.0
O100 O 0.83757 0.27366 0.52078 0.0
O101 O 0.83559 0.25657 0.58087 0.0
O102 O 0.69261 0.28289 0.54617 0.0
O103 O 0.73341 0.28184 0.59666 0.0
O104 O 0.72764 0.31866 0.51873 0.0
O105 O 0.65218 0.32601 0.48822 0.0
O106 O 0.60973 0.29213 0.47018 0.0
O107 O 0.67837 0.25646 0.4327 0.0
O108 O 0.77691 0.25688 0.47353 0.0
O109 O 0.72189 0.29124 0.43303 0.0
O110 O 0.72126 0.23419 0.51508 0.0
O111 O 0.80302 0.22256 0.53917 0.0
H112 H 0.8851 0.30035 0.51976 0.0
H113 H 0.88103 0.34368 0.54757 0.0
H114 H 0.83921 0.32864 0.66745 0.0
H115 H 0.84157 0.2855 0.63963 0.0
H116 H 0.61143 0.25125 0.51547 0.0
H117 H 0.60521 0.20834 0.52485 0.0
H118 H 0.60783 0.19738 0.39295 0.0
H119 H 0.61215 0.24103 0.3834 0.0
Tb120 Tb 0.70769 1.01878 0.7886 0.0
Tb121 Tb 0.77181 1.02015 0.72787 0.0
C122 C 0.67705 1.0049 0.85211 0.0
C123 C 0.67671 0.97984 0.87124 0.0
C124 C 0.72589 0.9514 0.88211 0.0
C125 C 0.72493 0.92866 0.90206 0.0
C126 C 0.67486 0.93423 0.91328 0.0
C127 C 0.62573 0.96299 0.90387 0.0
C128 C 0.62666 0.9854 0.88274 0.0
C129 C 0.66354 0.07773 0.76575 0.0
C130 C 0.80239 0.02438 0.81719 0.0
C131 C 0.80644 0.03244 0.66512 0.0
C132 C 0.8022 0.05899 0.64599 0.0
C133 C 0.7601 0.07835 0.6176 0.0
C134 C 0.75666 0.10287 0.59881 0.0
C135 C 0.79587 0.10825 0.60718 0.0
C136 C 0.83857 0.08865 0.63479 0.0
C137 C 0.84168 0.06434 0.65402 0.0
C138 C 0.81492 0.96115 0.75077 0.0
C139 C 0.67455 1.01716 0.69971 0.0
O140 O 0.72464 0.99984 0.84776 0.0
O141 O 0.64518 1.01989 0.82061 0.0
O142 O 0.71381 0.05581 0.77039 0.0
O143 O 0.63684 0.06673 0.77563 0.0
O144 O 0.77454 1.01324 0.82579 0.0
O145 O 0.80026 0.03387 0.77924 0.0
O146 O 0.76205 0.03372 0.66585 0.0
O147 O 0.83396 1.02093 0.69932 0.0
O148 O 0.76504 0.98327 0.7453 0.0
O149 O 0.84171 0.97239 0.74298 0.0
O150 O 0.70087 0.02937 0.69199 0.0
O151 O 0.67936 1.00553 0.73661 0.0
H152 H 0.76536 0.94654 0.87508 0.0
H153 H 0.76336 0.90679 0.90919 0.0
H154 H 0.5866 0.96792 0.91244 0.0
H155 H 0.58817 1.00733 0.87594 0.0
H156 H 0.72943 0.07473 0.61007 0.0
H157 H 0.72324 0.11775 0.57781 0.0
H158 H 0.86927 0.09237 0.64173 0.0
H159 H 0.87516 0.04966 0.67506 0.0
Tb160 Tb 0.51631 0.77054 0.29074 0.0
Tb161 Tb 0.45448 0.76752 0.22681 0.0
C162 C 0.54434 0.78631 0.35375 0.0
C163 C 0.54364 0.81231 0.37086 0.0
C164 C 0.49501 0.83892 0.38695 0.0
C165 C 0.49543 0.86217 0.40595 0.0
C166 C 0.54463 0.85913 0.41024 0.0
C167 C 0.59337 0.83254 0.39466 0.0
C168 C 0.59286 0.80943 0.37514 0.0
C169 C 0.56147 0.71157 0.26679 0.0
C170 C 0.41893 0.76607 0.3158 0.0
C171 C 0.4265 0.75202 0.16383 0.0
C172 C 0.41758 0.72957 0.14751 0.0
C173 C 0.45321 0.69801 0.1569 0.0
C174 C 0.44793 0.67685 0.13668 0.0
C175 C 0.40714 0.68681 0.10667 0.0
C176 C 0.37067 0.71838 0.09814 0.0
C177 C 0.37596 0.73951 0.1183 0.0
C178 C 0.40756 0.8261 0.25238 0.0
C179 C 0.54866 0.77509 0.20102 0.0
O180 O 0.49724 0.79076 0.34947 0.0
O181 O 0.57741 0.77028 0.32307 0.0
O182 O 0.51107 0.73352 0.27087 0.0
O183 O 0.58753 0.72202 0.28075 0.0
O184 O 0.44651 0.77728 0.32525 0.0
O185 O 0.42318 0.75532 0.27822 0.0
O186 O 0.4769 0.74154 0.17261 0.0
O187 O 0.39142 0.77261 0.19054 0.0
O188 O 0.45837 0.80488 0.2473 0.0
O189 O 0.38222 0.81495 0.23933 0.0
O190 O 0.51918 0.7653 0.19023 0.0
O191 O 0.54761 0.78313 0.23975 0.0
H192 H 0.45665 0.84162 0.38561 0.0
H193 H 0.45735 0.88244 0.41776 0.0
H194 H 0.63181 0.82972 0.3976 0.0
H195 H 0.63121 0.78902 0.36396 0.0
H196 H 0.48589 0.68963 0.17909 0.0
H197 H 0.47631 0.65261 0.14388 0.0
H198 H 0.33876 0.72658 0.07531 0.0
H199 H 0.34835 0.76364 0.11022 0.0
Tb200 Tb 0.26833 0.77486 0.53306 0.0
Tb201 Tb 0.18266 0.77972 0.47862 0.0
C202 C 0.35031 0.77296 0.55339 0.0
C203 C 0.36027 0.7963 0.54887 0.0
C204 C 0.33525 0.81778 0.51666 0.0
C205 C 0.3339 0.84405 0.51739 0.0
C206 C 0.35787 0.84896 0.55022 0.0
C207 C 0.38576 0.82668 0.58113 0.0
C208 C 0.38675 0.80047 0.58054 0.0
C209 C 0.18419 0.78706 0.58178 0.0
C210 C 0.17033 0.83961 0.49412 0.0
C211 C 0.11906 0.77273 0.43941 0.0
C212 C 0.09866 0.75407 0.44354 0.0
C213 C 0.12125 0.73055 0.47297 0.0
C214 C 0.1102 0.7089 0.47138 0.0
C215 C 0.07559 0.71086 0.44079 0.0
C216 C 0.04959 0.73572 0.41327 0.0
C217 C 0.06155 0.75709 0.41441 0.0
C218 C 0.26374 0.77667 0.43855 0.0
C219 C 0.26374 0.71942 0.53402 0.0
O220 O 0.34811 0.76071 0.51933 0.0
O221 O 0.31013 0.78094 0.57854 0.0
O222 O 0.1892 0.78448 0.54273 0.0
O223 O 0.22928 0.78252 0.59368 0.0
O224 O 0.22137 0.82189 0.50834 0.0
O225 O 0.14168 0.82858 0.48887 0.0
O226 O 0.10193 0.79463 0.46661 0.0
O227 O 0.17185 0.75693 0.43232 0.0
O228 O 0.26806 0.76168 0.47044 0.0
O229 O 0.21278 0.7933 0.42807 0.0
O230 O 0.21617 0.7375 0.51465 0.0
O231 O 0.29701 0.72745 0.5392 0.0
H232 H 0.31443 0.81502 0.49205 0.0
H233 H 0.31236 0.86108 0.49331 0.0
H234 H 0.40436 0.83033 0.60666 0.0
H235 H 0.4056 0.78433 0.60587 0.0
H236 H 0.14938 0.72796 0.49598 0.0
H237 H 0.13031 0.68994 0.49299 0.0
H238 H 0.02255 0.73755 0.38962 0.0
H239 H 0.04381 0.77512 0.39145 0.0
Tb240 Tb 0.20487 0.51924 0.78807 0.0
Tb241 Tb 0.27028 0.52143 0.72563 0.0
C242 C 0.1843 0.49627 0.84511 0.0
C243 C 0.1743 0.48215 0.87954 0.0
C244 C 0.21557 0.46439 0.90894 0.0
C245 C 0.21366 0.44422 0.93464 0.0
C246 C 0.17082 0.44113 0.93107 0.0
C247 C 0.1273 0.46064 0.90401 0.0
C248 C 0.12886 0.48116 0.8786 0.0
C249 C 0.16059 0.57773 0.76574 0.0
C250 C 0.29887 0.52624 0.81766 0.0
C251 C 0.30158 0.53723 0.66503 0.0
C252 C 0.29653 0.56466 0.64915 0.0
C253 C 0.24498 0.5923 0.64019 0.0
C254 C 0.24139 0.61684 0.62145 0.0
C255 C 0.28914 0.61432 0.61152 0.0
C256 C 0.34052 0.58707 0.62115 0.0
C257 C 0.34417 0.56242 0.6396 0.0
C258 C 0.31078 0.46292 0.74694 0.0
C259 C 0.1691 0.52144 0.69732 0.0
O260 O 0.2342 0.48537 0.83337 0.0
O261 O 0.14532 0.52125 0.82577 0.0
O262 O 0.21153 0.55575 0.76919 0.0
O263 O 0.1336 0.5674 0.77875 0.0
O264 O 0.26159 0.52177 0.82808 0.0
O265 O 0.30654 0.5291 0.77828 0.0
O266 O 0.25715 0.53854 0.66551 0.0
O267 O 0.33109 0.52384 0.69796 0.0
O268 O 0.26115 0.48595 0.74306 0.0
O269 O 0.33929 0.47221 0.73442 0.0
O270 O 0.20015 0.53063 0.68889 0.0
O271 O 0.16966 0.51165 0.73475 0.0
H272 H 0.2512 0.46457 0.91022 0.0
H273 H 0.24792 0.42919 0.95493 0.0
H274 H 0.0941 0.45846 0.90052 0.0
H275 H 0.09684 0.49434 0.85591 0.0
H276 H 0.20739 0.59485 0.64703 0.0
H277 H 0.20136 0.63778 0.61451 0.0
H278 H 0.3778 0.58475 0.6139 0.0
H279 H 0.38435 0.54136 0.64581 0.0
Tb280 Tb 0.93503 0.52226 0.55134 0.0
Tb281 Tb 0.01133 0.52268 0.49005 0.0
C282 C 0.87365 0.51598 0.59501 0.0
C283 C 0.85946 0.49451 0.59904 0.0
C284 C 0.87668 0.47154 0.56938 0.0
C285 C 0.87077 0.44821 0.57687 0.0
C286 C 0.84824 0.44747 0.61428 0.0
C287 C 0.82968 0.47086 0.6435 0.0
C288 C 0.83514 0.49438 0.6358 0.0
C289 C 0.0152 0.52274 0.58468 0.0
C290 C 0.01704 0.46302 0.49488 0.0
C291 C 0.08845 0.52361 0.46415 0.0
C292 C 0.08909 0.54881 0.44851 0.0
C293 C 0.13302 0.5498 0.45882 0.0
C294 C 0.12918 0.57654 0.45204 0.0
C295 C 0.08141 0.60244 0.43486 0.0
C296 C 0.03877 0.60092 0.42227 0.0
C297 C 0.04238 0.57427 0.42937 0.0
C298 C 0.92109 0.5371 0.44987 0.0
C299 C 0.91248 0.58556 0.53161 0.0
O300 O 0.85657 0.5333 0.56197 0.0
O301 O 0.92477 0.50404 0.60391 0.0
O302 O 0.01883 0.50786 0.55269 0.0
O303 O 0.9663 0.53618 0.59932 0.0
O304 O 0.97407 0.47779 0.51995 0.0
O305 O 0.04417 0.47433 0.48443 0.0
O306 O 0.07474 0.52651 0.50305 0.0
O307 O 0.06377 0.51516 0.44132 0.0
O308 O 0.93276 0.53125 0.48776 0.0
O309 O 0.96084 0.53665 0.43369 0.0
O310 O 0.96138 0.57001 0.51346 0.0
O311 O 0.89035 0.57172 0.54378 0.0
H312 H 0.89664 0.47091 0.54131 0.0
H313 H 0.88561 0.4301 0.55421 0.0
H314 H 0.81254 0.47037 0.67258 0.0
H315 H 0.8225 0.51173 0.65925 0.0
H316 H 0.16893 0.53051 0.47415 0.0
H317 H 0.16231 0.57754 0.46191 0.0
H318 H 0.00177 0.62083 0.4089 0.0
H319 H 0.00763 0.57413 0.42184 0.0
Tb320 Tb 0.27968 0.26493 0.03799 0.0
Tb321 Tb 0.19123 0.27952 0.98968 0.0
C322 C 0.35953 0.26236 0.06631 0.0
C323 C 0.36119 0.288 0.07869 0.0
C324 C 0.40151 0.29025 0.06198 0.0
C325 C 0.39767 0.31716 0.06728 0.0
C326 C 0.35351 0.342 0.08936 0.0
C327 C 0.31441 0.33939 0.10751 0.0
C328 C 0.31799 0.31263 0.10201 0.0
C329 C 0.19656 0.2783 0.08608 0.0
C330 C 0.19994 0.33296 1.0011 0.0
C331 C 0.11261 0.28143 0.95998 0.0
C332 C 0.09419 0.26222 0.97002 0.0
C333 C 0.0894 0.25604 1.0113 0.0
C334 C 0.08492 0.23237 0.02083 0.0
C335 C 0.08549 0.21451 0.98923 0.0
C336 C 0.08656 0.22188 0.94798 0.0
C337 C 0.09078 0.24565 0.93842 0.0
C338 C 0.27452 0.26758 0.94269 0.0
C339 C 0.26699 0.2133 0.03173 0.0
O340 O 0.35165 0.26139 0.02706 0.0
O341 O 0.32888 0.25796 0.0887 0.0
O342 O 0.1921 0.29239 0.05285 0.0
O343 O 0.24796 0.25678 0.09198 0.0
O344 O 0.244 0.31296 0.02274 0.0
O345 O 0.16741 0.32614 0.98729 0.0
O346 O 0.10652 0.30031 0.98861 0.0
O347 O 0.16113 0.26642 0.94287 0.0
O348 O 0.27871 0.25251 0.97479 0.0
O349 O 0.22314 0.28945 0.93735 0.0
O350 O 0.21852 0.23531 0.01687 0.0
O351 O 0.3048 0.21804 0.03573 0.0
H352 H 0.43457 0.27173 0.0434 0.0
H353 H 0.42821 0.31896 0.05324 0.0
H354 H 0.28022 0.35844 0.12469 0.0
H355 H 0.28571 0.31176 0.11461 0.0
H356 H 0.09236 0.26821 0.03634 0.0
H357 H 0.0838 0.22699 0.0528 0.0
H358 H 0.08697 0.20821 0.92328 0.0
H359 H 0.09483 0.24982 0.90645 0.0
Tb360 Tb 0.1986 1.02079 0.2925 0.0
Tb361 Tb 0.27222 1.01833 0.22828 0.0
C362 C 0.16154 1.00914 0.35382 0.0
C363 C 0.15606 0.98585 0.37201 0.0
C364 C 0.19267 0.95437 0.36227 0.0
C365 C 0.18986 0.9326 0.38347 0.0
C366 C 0.15071 0.94192 0.41489 0.0
C367 C 0.11371 0.97339 0.4241 0.0
C368 C 0.11642 0.99509 0.40288 0.0
C369 C 0.16148 0.07734 0.26308 0.0
C370 C 0.29721 0.0237 0.32182 0.0
C371 C 0.30994 0.03201 0.17022 0.0
C372 C 0.3089 0.05719 0.15127 0.0
C373 C 0.31972 0.05555 0.10887 0.0
C374 C 0.31676 0.07945 0.08894 0.0
C375 C 0.30311 0.10545 0.11113 0.0
C376 C 0.29316 0.1069 0.15385 0.0
C377 C 0.29584 0.08297 0.1738 0.0
C378 C 0.30785 0.95949 0.24348 0.0
C379 C 0.17594 1.01517 0.20091 0.0
O380 O 0.21119 1.00163 0.3512 0.0
O381 O 0.13208 0.0245 0.32148 0.0
O382 O 0.21088 0.05442 0.26947 0.0
O383 O 0.13173 0.06887 0.2762 0.0
O384 O 0.25685 0.02178 0.33226 0.0
O385 O 0.30883 0.0244 0.28251 0.0
O386 O 0.26451 0.0343 0.16798 0.0
O387 O 0.33444 1.02122 0.20582 0.0
O388 O 0.26804 0.98438 0.25949 0.0
O389 O 0.32964 0.96773 0.21792 0.0
O390 O 0.20021 0.02864 0.1938 0.0
O391 O 0.17873 1.0045 0.23834 0.0
H392 H 0.22394 0.94659 0.33885 0.0
H393 H 0.21862 0.90844 0.37571 0.0
H394 H 0.08302 0.9811 0.44799 0.0
H395 H 0.08815 1.01917 0.41124 0.0
H396 H 0.3296 0.03589 0.09093 0.0
H397 H 0.32405 0.07797 0.05603 0.0
H398 H 0.28188 0.12695 0.17145 0.0
H399 H 0.28685 0.08481 0.20647 0.0
Tb400 Tb 0.51699 0.27106 0.79321 0.0
Tb401 Tb 0.4561 0.26861 0.73129 0.0
C402 C 0.54729 0.28481 0.85686 0.0
C403 C 0.54602 0.31065 0.87497 0.0
C404 C 0.49639 0.33796 0.88842 0.0
C405 C 0.49604 0.36146 0.90728 0.0
C406 C 0.54529 0.35797 0.91395 0.0
C407 C 0.59496 0.33064 0.90122 0.0
C408 C 0.5953 0.30723 0.88189 0.0
C409 C 0.56221 0.2122 0.76923 0.0
C410 C 0.421 0.26624 0.81999 0.0
C411 C 0.42569 0.2539 0.66905 0.0
C412 C 0.41938 0.23008 0.65431 0.0
C413 C 0.45987 0.19849 0.66141 0.0
C414 C 0.45659 0.17629 0.64213 0.0
C415 C 0.41281 0.1853 0.61555 0.0
C416 C 0.37153 0.21679 0.6096 0.0
C417 C 0.37484 0.23894 0.62876 0.0
C418 C 0.41099 0.32796 0.75383 0.0
C419 C 0.55059 0.27519 0.70421 0.0
O420 O 0.50042 0.28893 0.85319 0.0
O421 O 0.579 0.27021 0.82503 0.0
O422 O 0.51201 0.23381 0.77441 0.0
O423 O 0.58864 0.22298 0.78069 0.0
O424 O 0.44599 0.27915 0.82837 0.0
O425 O 0.42726 0.25482 0.78259 0.0
O426 O 0.47573 0.24505 0.67521 0.0
O427 O 0.39185 0.27328 0.69731 0.0
O428 O 0.46128 0.30601 0.74912 0.0
O429 O 0.38495 0.3163 0.74572 0.0
O430 O 0.52356 0.26366 0.69452 0.0
O431 O 0.54619 0.28507 0.74242 0.0
H432 H 0.45763 0.34133 0.88424 0.0
H433 H 0.45726 0.38243 0.91668 0.0
H434 H 0.63339 0.32757 0.90595 0.0
H435 H 0.63421 0.28631 0.87262 0.0
H436 H 0.49485 0.19093 0.68083 0.0
H437 H 0.48889 0.15211 0.64706 0.0
H438 H 0.33752 0.2242 0.58916 0.0
H439 H 0.34343 0.26306 0.62249 0.0
Tb440 Tb 0.01501 0.77243 0.79274 0.0
Tb441 Tb 0.95037 0.76829 0.7195 0.0
C442 C 0.04056 0.79416 0.84886 0.0
C443 C 0.04016 0.82086 0.86153 0.0
C444 C -0.00661 0.84692 0.88035 0.0
C445 C -0.00436 0.8699 0.89795 0.0
C446 C 0.04466 0.86728 0.89733 0.0
C447 C 0.09099 0.84181 0.8777 0.0
C448 C 0.08885 0.81876 0.86014 0.0
C449 C 0.05817 0.71239 0.77525 0.0
C450 C 0.91901 0.76574 0.81368 0.0
C451 C 0.91843 0.75043 0.66264 0.0
C452 C 0.91245 0.72645 0.64786 0.0
C453 C 0.95788 0.69755 0.63379 0.0
C454 C 0.95034 0.67702 0.61448 0.0
C455 C 0.89729 0.68506 0.60854 0.0
C456 C 0.852 0.71367 0.62299 0.0
C457 C 0.85952 0.73411 0.64248 0.0
C458 C 0.91146 0.82778 0.73641 0.0
C459 C 0.04784 0.77299 0.69841 0.0
O460 O -0.00686 0.79845 0.84677 0.0
O461 O 0.07471 0.77574 0.81969 0.0
O462 O 0.01796 0.73709 0.75898 0.0
O463 O 0.07441 0.72222 0.80378 0.0
O464 O 0.95005 0.77412 0.82671 0.0
O465 O 0.91737 0.75952 0.77413 0.0
O466 O 0.96788 0.74358 0.6645 0.0
O467 O 0.88675 0.76844 0.69298 0.0
O468 O 0.94886 0.80279 0.7532 0.0
O469 O 0.89405 0.81916 0.70728 0.0
O470 O 0.02021 0.76212 0.68687 0.0
O471 O 0.04556 0.78204 0.73723 0.0
H472 H 0.9554 0.84918 0.88266 0.0
H473 H 0.95939 0.88945 0.91282 0.0
H474 H 0.12918 0.83942 0.87688 0.0
H475 H 0.12584 0.79881 0.8466 0.0
H476 H -0.00081 0.69104 0.63678 0.0
H477 H -0.01417 0.65511 0.60336 0.0
H478 H 0.81073 0.72041 0.61845 0.0
H479 H 0.82367 0.75641 0.65215 0.0
Tb480 Tb 0.70138 0.51947 0.29311 0.0
Tb481 Tb 0.77142 0.51933 0.23303 0.0
C482 C 0.66704 0.50539 0.35383 0.0
C483 C 0.6608 0.48189 0.37056 0.0
C484 C 0.69818 0.45035 0.36112 0.0
C485 C 0.69633 0.42829 0.38261 0.0
C486 C 0.65708 0.43734 0.41388 0.0
C487 C 0.61865 0.46888 0.42219 0.0
C488 C 0.62053 0.49085 0.4008 0.0
C489 C 0.66024 0.57743 0.26718 0.0
C490 C 0.79369 0.52678 0.32442 0.0
C491 C 0.81028 0.53025 0.17178 0.0
C492 C 0.80923 0.55539 0.15186 0.0
C493 C 0.82233 0.55285 0.10974 0.0
C494 C 0.81994 0.5765 0.08922 0.0
C495 C 0.80446 0.60325 0.1104 0.0
C496 C 0.79205 0.60568 0.15279 0.0
C497 C 0.79428 0.58199 0.17335 0.0
C498 C 0.81191 0.46165 0.25977 0.0
C499 C 0.67429 0.51662 0.20241 0.0
O500 O 0.71702 0.49715 0.34974 0.0
O501 O 0.63556 0.52307 0.32356 0.0
O502 O 0.71005 0.55532 0.27349 0.0
O503 O 0.63212 0.56769 0.27923 0.0
O504 O 0.76276 0.51753 0.33315 0.0
O505 O 0.79672 0.53368 0.28589 0.0
O506 O 0.76475 0.53272 0.17108 0.0
O507 O 0.83504 0.51984 0.20718 0.0
O508 O 0.7625 0.48365 0.25225 0.0
O509 O 0.84018 0.47131 0.24828 0.0
O510 O 0.70261 0.52775 0.19533 0.0
O511 O 0.67539 0.50625 0.23952 0.0
H512 H 0.72975 0.44272 0.33806 0.0
H513 H 0.72645 0.40411 0.37565 0.0
H514 H 0.58809 0.47645 0.44614 0.0
H515 H 0.59162 0.51491 0.40903 0.0
H516 H 0.83374 0.53264 0.09247 0.0
H517 H 0.82916 0.57418 0.05656 0.0
H518 H 0.77931 0.62627 0.16969 0.0
H519 H 0.78356 0.58463 0.20574 0.0
Tb520 Tb 0.77941 0.76523 0.03168 0.0
Tb521 Tb 0.69146 0.77495 0.98361 0.0
C522 C 0.85842 0.76441 0.05813 0.0
C523 C 0.87746 0.78322 0.04871 0.0
C524 C 0.85905 0.80151 0.01306 0.0
C525 C 0.86309 0.82594 1.01006 0.0
C526 C 0.88649 0.83182 0.04234 0.0
C527 C 0.90955 0.81175 0.07607 0.0
C528 C 0.90473 0.78765 0.07935 0.0
C529 C 0.70157 0.77182 0.08047 0.0
C530 C 0.69245 0.83093 0.98995 0.0
C531 C 0.61268 0.77662 0.95479 0.0
C532 C 0.60043 0.75394 0.95589 0.0
C533 C 0.58544 0.74715 0.99296 0.0
C534 C 0.58497 0.72149 0.99544 0.0
C535 C 0.59905 0.70258 0.96089 0.0
C536 C 0.60995 0.71052 0.92316 0.0
C537 C 0.61039 0.73616 0.92061 0.0
C538 C 0.77264 0.76629 0.9362 0.0
C539 C 0.77164 0.71 0.02784 0.0
O540 O 0.86346 0.74608 0.02908 0.0
O541 O 0.81003 0.77983 0.07551 0.0
O542 O 0.69376 0.78626 0.04673 0.0
O543 O 0.7528 0.75738 0.08911 0.0
O544 O 0.74314 0.81066 1.00312 0.0
O545 O 0.65876 0.82316 0.98767 0.0
O546 O 0.61029 0.78936 0.98986 0.0
O547 O 0.65623 0.76819 0.93348 0.0
O548 O 0.77865 0.75153 0.96913 0.0
O549 O 0.72061 0.78611 0.93064 0.0
O550 O 0.72778 0.72822 1.00504 0.0
O551 O 0.80371 0.71819 0.03832 0.0
H552 H 0.83826 0.79827 0.98891 0.0
H553 H 0.84491 0.84136 0.98394 0.0
H554 H 0.92745 0.81619 0.10129 0.0
H555 H 0.91873 0.77391 0.10716 0.0
H556 H 0.57681 0.76065 0.02057 0.0
H557 H 0.57596 0.71563 0.02465 0.0
H558 H 0.62036 0.69616 0.89619 0.0
H559 H 0.62139 0.74112 0.89158 0.0
Tb560 Tb 0.44802 1.0212 0.54616 0.0
Tb561 Tb 0.51741 0.02367 0.4826 0.0
C562 C 0.37318 0.02602 0.5877 0.0
C563 C 0.35353 1.00664 0.58735 0.0
C564 C 0.32026 1.00886 0.5551 0.0
C565 C 0.31319 0.98576 0.54928 0.0
C566 C 0.33877 0.96047 0.57591 0.0
C567 C 0.36765 0.95959 0.61021 0.0
C568 C 0.37473 0.98263 0.61606 0.0
C569 C 0.5436 1.00716 0.57493 0.0
C570 C 0.52231 0.96351 0.48862 0.0
C571 C 0.59754 1.02021 0.45382 0.0
C572 C 0.61755 0.03845 0.46318 0.0
C573 C 0.59816 0.05715 0.49857 0.0
C574 C 0.60326 0.08112 0.5019 0.0
C575 C 0.6281 0.08636 0.47003 0.0
C576 C 0.65146 0.06616 0.4363 0.0
C577 C 0.64598 0.04231 0.43281 0.0
C578 C 0.43113 0.03227 0.44323 0.0
C579 C 0.4308 0.08525 0.53166 0.0
O580 O 0.36387 0.04222 0.55452 0.0
O581 O 0.4233 1.01242 0.60109 0.0
O582 O 0.51184 0.02752 0.54883 0.0
O583 O 0.52141 0.99359 0.58522 0.0
O584 O 0.47893 0.97855 0.51308 0.0
O585 O 0.54978 0.97484 0.47922 0.0
O586 O 0.60232 1.00201 0.48321 0.0
O587 O 0.5488 0.03637 0.43684 0.0
O588 O 0.44239 0.02784 0.48142 0.0
O589 O 0.46924 0.03295 0.42632 0.0
O590 O 0.47255 0.07091 0.50537 0.0
O591 O 0.41445 0.07008 0.55029 0.0
H592 H 0.30247 0.02737 0.53289 0.0
H593 H 0.29034 0.98674 0.52286 0.0
H594 H 0.38708 0.94027 0.63121 0.0
H595 H 0.39977 0.98059 0.64157 0.0
H596 H 0.57559 0.05466 0.52212 0.0
H597 H 0.58476 0.09674 0.52794 0.0
H598 H 0.67041 0.0702 0.41141 0.0
H599 H 0.66039 0.02834 0.4051 0.0
Tb600 Tb 0.44432 0.52338 0.04415 0.0
Tb601 Tb 0.52067 0.52234 0.98271 0.0
C602 C 0.3825 0.51616 0.0858 0.0
C603 C 0.36655 0.49524 0.08463 0.0
C604 C 0.39039 0.47117 0.05578 0.0
C605 C 0.38071 0.449 0.05801 0.0
C606 C 0.34728 0.4505 0.08931 0.0
C607 C 0.32175 0.47507 0.11744 0.0
C608 C 0.33142 0.49739 0.11509 0.0
C609 C 0.52391 0.5244 0.07848 0.0
C610 C 0.52374 0.46379 0.98587 0.0
C611 C 0.60069 0.51996 0.95515 0.0
C612 C 0.62014 0.5385 0.9643 0.0
C613 C 0.60139 0.5568 0.99998 0.0
C614 C 0.60551 0.58111 1.00331 0.0
C615 C 0.62889 0.58703 0.97106 0.0
C616 C 0.65206 0.56709 0.93705 0.0
C617 C 0.64745 0.54292 0.93359 0.0
C618 C 0.43307 0.53362 0.94151 0.0
C619 C 0.42605 0.58491 0.02722 0.0
O620 O 0.36489 0.53605 0.05566 0.0
O621 O 0.43429 0.50288 0.09425 0.0
O622 O 0.52828 0.50898 0.04681 0.0
O623 O 0.47443 0.53853 0.09217 0.0
O624 O 0.48377 0.47842 0.01355 0.0
O625 O 0.54921 0.47528 0.97209 0.0
O626 O 0.6051 0.50212 0.98475 0.0
O627 O 0.5523 0.53565 0.93789 0.0
O628 O 0.443 0.52954 0.97982 0.0
O629 O 0.47387 0.53201 0.92531 0.0
O630 O 0.47578 0.5684 1.01032 0.0
O631 O 0.39979 0.57261 0.03417 0.0
H632 H 0.41798 0.46872 0.03237 0.0
H633 H 0.40089 0.43004 0.03624 0.0
H634 H 0.29601 0.47633 0.14188 0.0
H635 H 0.31306 0.51567 0.13783 0.0
H636 H 0.57996 0.55368 0.0237 0.0
H637 H 0.58717 0.59651 0.02958 0.0
H638 H 0.66986 0.57167 0.91187 0.0
H639 H 0.66147 0.5292 0.90566 0.0
C640 C 0.8932 0.14113 0.03684 0.0
C641 C 0.91276 0.11469 0.0613 0.0
C642 C 0.91437 0.14176 0.12186 0.0
C643 C 0.90307 0.16602 0.09612 0.0
N644 N 0.8814 0.18963 0.0292 0.0
N645 N 0.94815 0.08868 0.12673 0.0
C646 C 0.89186 0.16609 0.05363 0.0
C647 C 0.92402 0.11489 0.1039 0.0
N648 N 0.87516 0.14244 0.99775 0.0
N649 N 0.91623 0.1443 0.16368 0.0
H650 H 0.95628 0.06839 0.11538 0.0
H651 H 0.96428 0.08624 0.15601 0.0
H652 H 0.91115 0.16318 0.17793 0.0
H653 H 0.91785 0.12908 0.18446 0.0
H654 H 0.85615 0.16188 0.97919 0.0
H655 H 0.8749 0.12472 0.98511 0.0
H656 H 0.8789 0.18961 0.99722 0.0
H657 H 0.87816 0.20868 0.04088 0.0
C658 C 0.85798 0.24052 0.395 0.0
C659 C 0.81816 0.26877 0.41549 0.0
C660 C 0.84461 0.29499 0.36987 0.0
C661 C 0.88699 0.26659 0.35152 0.0
N662 N 0.93992 0.21131 0.35169 0.0
N663 N 0.78463 0.32122 0.42827 0.0
C664 C 0.89533 0.23905 0.36556 0.0
C665 C 0.81483 0.29544 0.40446 0.0
N666 N 0.85866 0.21534 0.40206 0.0
N667 N 0.83084 0.32198 0.35318 0.0
H668 H 0.765 0.3218 0.45478 0.0
H669 H 0.78478 0.34037 0.42477 0.0
H670 H 0.85054 0.32289 0.32745 0.0
H671 H 0.79624 0.3435 0.36209 0.0
H672 H 0.88197 0.19519 0.38471 0.0
H673 H 0.83298 0.21526 0.42344 0.0
H674 H 0.9521 0.19031 0.36395 0.0
H675 H 0.96738 0.20937 0.33006 0.0
C676 C 0.80558 0.13403 0.54595 0.0
C677 C 0.79116 0.13503 0.58806 0.0
C678 C 0.77214 0.1859 0.59521 0.0
C679 C 0.78157 0.18631 0.55238 0.0
N680 N 0.8041 0.16173 0.48597 0.0
N681 N 0.75723 0.16388 0.65228 0.0
C682 C 0.79751 0.16057 0.52745 0.0
C683 C 0.77361 0.1613 0.61235 0.0
N684 N 0.82858 0.10736 0.52406 0.0
N685 N 0.76083 0.20939 0.62018 0.0
H686 H 0.75516 0.14758 0.66756 0.0
H687 H 0.75516 0.14758 0.66756 0.0
H688 H 0.76239 0.22709 0.60989 0.0
H689 H 0.75287 0.21016 0.65167 0.0
H690 H 0.84497 0.10385 0.49459 0.0
H691 H 0.83477 0.08771 0.53651 0.0
H692 H 0.8098 0.14541 0.46508 0.0
H693 H 0.80086 0.18015 0.47196 0.0
C694 C 0.88254 1.01184 0.91722 0.0
C695 C 0.88739 0.03646 0.91655 0.0
C696 C 0.82602 0.05677 0.85558 0.0
C697 C 0.83172 0.02866 0.85137 0.0
N698 N 0.87522 0.97685 0.87636 0.0
N699 N 0.86129 0.08353 0.88411 0.0
C700 C 0.86268 1.00548 0.88176 0.0
C701 C 0.85859 0.05915 0.88521 0.0
N702 N 0.89383 0.9955 0.95243 0.0
N703 N 0.787 0.08199 0.83332 0.0
H704 H 0.87845 0.08833 0.90783 0.0
H705 H 0.84798 0.09839 0.85905 0.0
H706 H 0.75965 0.08213 0.81367 0.0
H707 H 0.77734 0.1038 0.83792 0.0
H708 H 0.88874 0.97808 0.95545 0.0
H709 H 0.89818 1.00346 0.98014 0.0
H710 H 0.90165 0.95851 0.89592 0.0
H711 H 0.86451 0.97048 0.84998 0.0
C712 C 0.06111 1.01602 0.14707 0.0
C713 C 0.08139 1.00648 0.10593 0.0
C714 C 0.1655 1.00156 0.12687 0.0
C715 C 0.14305 1.01323 0.16714 0.0
N716 N 0.06293 0.03891 0.21081 0.0
N717 N 0.15508 0.98768 0.05777 0.0
C718 C 0.0893 0.0222 0.17592 0.0
C719 C 0.1341 0.99882 0.09622 0.0
N720 N 0.01512 1.01883 0.15942 0.0
N721 N 0.21791 0.99172 0.11833 0.0
H722 H 0.1381 0.98024 0.03789 0.0
H723 H 0.18869 0.98578 0.04532 0.0
H724 H 0.24215 0.99349 0.13898 0.0
H725 H 0.23929 0.98025 0.09154 0.0
H726 H 0.00356 1.02093 0.19024 0.0
H727 H -0.01024 1.01748 0.13953 0.0
H728 H 0.0216 0.0492 0.21683 0.0
H729 H 0.08021 0.0457 0.23153 0.0
C730 C 0.04729 0.40806 0.49767 0.0
C731 C 0.03033 0.4345 0.47407 0.0
C732 C 0.02003 0.41086 0.41316 0.0
C733 C 0.04072 0.38363 0.43596 0.0
N734 N 0.08211 0.35426 0.49803 0.0
N735 N 0.00828 0.45915 0.40734 0.0
C736 C 0.05656 0.38168 0.47776 0.0
C737 C 0.01945 0.43519 0.43116 0.0
N738 N 0.05407 0.40827 0.53928 0.0
N739 N -0.00178 0.41414 0.37489 0.0
H740 H 0.00507 0.47809 0.419 0.0
H741 H 0.00642 0.45922 0.3753 0.0
H742 H -0.00261 0.39705 0.36073 0.0
H743 H 0.97647 0.43472 0.35856 0.0
H744 H 0.05939 0.39153 0.55911 0.0
H745 H 0.05145 0.42616 0.55444 0.0
H746 H 0.09989 0.35025 0.52699 0.0
H747 H 0.08952 0.33457 0.48448 0.0
C748 C 0.6606 0.28175 0.65811 0.0
C749 C 0.64687 0.28816 0.61538 0.0
C750 C 0.56302 0.29128 0.63214 0.0
C751 C 0.58393 0.27856 0.6722 0.0
N752 N 0.6617 0.25476 0.71791 0.0
N753 N 0.57875 0.30298 0.56343 0.0
C754 C 0.63545 0.27166 0.68339 0.0
C755 C 0.5965 0.29367 0.60278 0.0
N756 N 0.69441 0.28756 0.6761 0.0
N757 N 0.50978 0.3032 0.62301 0.0
H758 H 0.5957 0.31074 0.54417 0.0
H759 H 0.54722 0.30318 0.55014 0.0
H760 H 0.48321 0.3036 0.64394 0.0
H761 H 0.49007 0.31541 0.59622 0.0
H762 H 0.70291 0.28468 0.70758 0.0
H763 H 0.70543 0.30045 0.66183 0.0
H764 H 0.70161 0.24693 0.72523 0.0
H765 H 0.6465 0.24548 0.73627 0.0
C766 C 0.69054 0.90193 0.97605 0.0
C767 C 0.67401 0.90966 0.93421 0.0
C768 C 0.65908 0.86941 0.9308 0.0
C769 C 0.67716 0.86098 0.97252 0.0
N770 N 0.69763 0.87372 0.03728 0.0
N771 N 0.63658 0.9035 0.87289 0.0
C772 C 0.68943 0.87857 0.99575 0.0
C773 C 0.6564 0.89423 0.91207 0.0
N774 N 0.70784 0.9168 0.99685 0.0
N775 N 0.64684 0.85289 0.90803 0.0
H776 H 0.63887 0.91927 0.85638 0.0
H777 H 0.61532 0.89678 0.85711 0.0
H778 H 0.63793 0.83868 0.92071 0.0
H779 H 0.64547 0.85314 0.87597 0.0
H780 H 0.7266 0.91009 0.02554 0.0
H781 H 0.70565 0.93537 0.98462 0.0
H782 H 0.70151 0.88743 0.05721 0.0
H783 H 0.69522 0.85758 0.05271 0.0
C784 C 0.17261 0.27312 0.15874 0.0
C785 C 0.15348 0.28591 0.11877 0.0
C786 C 0.06288 0.29835 0.13871 0.0
C787 C 0.08649 0.2798 0.17488 0.0
N788 N 0.16791 0.24571 0.21535 0.0
N789 N 0.07527 0.31785 0.07507 0.0
C790 C 0.14238 0.26628 0.18379 0.0
C791 C 0.0969 0.3007 0.10999 0.0
N792 N 0.21818 0.2694 0.1742 0.0
N793 N 0.00753 0.31477 0.13282 0.0
H794 H 0.09581 0.32459 0.05825 0.0
H795 H 0.03692 0.32606 0.06327 0.0
H796 H -0.01815 0.31395 0.15328 0.0
H797 H -0.01388 0.33052 0.10922 0.0
H798 H 0.23157 0.26249 0.2044 0.0
H799 H 0.23745 0.27767 0.15899 0.0
H800 H 0.21009 0.23282 0.22034 0.0
H801 H 0.14829 0.23905 0.23371 0.0
C802 C 0.69322 0.4006 0.47429 0.0
C803 C 0.65764 0.41403 0.43975 0.0
C804 C 0.61894 0.38596 0.45772 0.0
C805 C 0.6603 0.36898 0.48808 0.0
N806 N 0.71622 0.37165 0.53782 0.0
N807 N 0.58796 0.41864 0.39715 0.0
C808 C 0.69155 0.37969 0.50009 0.0
C809 C 0.6205 0.40666 0.43132 0.0
N810 N 0.72968 0.40723 0.48185 0.0
N811 N 0.57539 0.3845 0.45661 0.0
H812 H 0.58733 0.43416 0.37755 0.0
H813 H 0.5649 0.41138 0.38644 0.0
H814 H 0.56861 0.37359 0.47959 0.0
H815 H 0.54184 0.39788 0.43719 0.0
H816 H 0.76151 0.39536 0.50306 0.0
H817 H 0.73056 0.42334 0.46489 0.0
H818 H 0.73751 0.37968 0.54964 0.0
H819 H 0.70915 0.36011 0.55956 0.0
C820 C 0.63371 0.98509 0.61268 0.0
C821 C 0.57807 1.0103 0.6055 0.0
C822 C 0.58861 0.04108 0.65593 0.0
C823 C 0.64217 1.01499 0.6662 0.0
N824 N 0.71433 0.96103 0.65675 0.0
N825 N 0.49926 0.05975 0.62901 0.0
C826 C 0.66424 0.98665 0.64524 0.0
C827 C 0.55473 0.03773 0.62924 0.0
N828 N 0.65793 0.95983 0.58761 0.0
N829 N 0.56966 0.06922 0.6719 0.0
H830 H 0.47247 0.05695 0.61343 0.0
H831 H 0.47918 0.07894 0.6483 0.0
H832 H 0.59225 0.07244 0.69255 0.0
H833 H 0.53365 0.08966 0.66194 0.0
H834 H 0.69973 0.94198 0.58799 0.0
H835 H 0.63684 0.95781 0.56401 0.0
H836 H 0.73023 0.93894 0.6464 0.0
H837 H 0.73883 0.96154 0.6788 0.0
C838 C 0.0382 0.93951 0.91546 0.0
C839 C 0.04667 0.938 0.95886 0.0
C840 C 0.06223 0.88766 0.96037 0.0
C841 C 0.04763 0.891 0.9181 0.0
N842 N 0.01648 0.92113 0.85601 0.0
N843 N 0.06543 0.91121 0.02312 0.0
C844 C 0.03462 0.9171 0.89574 0.0
C845 C 0.05868 0.91207 0.98136 0.0
N846 N 0.03341 0.96236 0.89289 0.0
N847 N 0.07989 0.86096 0.98034 0.0
H848 H 0.06786 0.92723 0.0389 0.0
H849 H 0.06656 0.89544 0.04242 0.0
H850 H 0.08127 0.84309 0.96636 0.0
H851 H 0.09653 0.85553 1.00983 0.0
H852 H 0.03291 0.9629 0.86082 0.0
H853 H 0.0349 0.97952 0.90566 0.0
H854 H -0.00098 0.94151 0.83967 0.0
H855 H 0.01498 0.90481 0.84011 0.0
C856 C 0.1486 0.12984 1.00501 0.0
C857 C 0.10108 0.13071 1.00082 0.0
C858 C 0.04299 0.18704 1.00092 0.0
C859 C 0.09069 0.18609 0.9989 0.0
N860 N 0.18937 0.15722 0.99876 0.0
N861 N 0.00142 0.16098 0.99829 0.0
C862 C 0.14376 0.15765 1.00158 0.0
C863 C 0.04812 0.15931 1.00044 0.0
N864 N 0.19803 0.1024 1.01264 0.0
N865 N -0.00786 0.21459 1.00179 0.0
H866 H 0.00053 0.14194 0.99742 0.0
H867 H 0.00053 0.14194 0.99742 0.0
H868 H -0.01368 0.23569 1.00242 0.0
H869 H 0.95606 0.21613 1.00301 0.0
H870 H 0.23367 0.10031 0.01961 0.0
H871 H 0.20232 0.08181 0.01549 0.0
H872 H 0.22919 0.13722 0.99596 0.0
H873 H 0.18736 0.17719 0.99738 0.0
C874 C 0.63369 0.62678 0.23037 0.0
C875 C 0.63703 0.61162 0.26754 0.0
C876 C 0.59285 0.66169 0.30465 0.0
C877 C 0.58603 0.67724 0.26699 0.0
N878 N 0.59882 0.6746 0.19357 0.0
N879 N 0.618 0.61519 0.34027 0.0
C880 C 0.60635 0.65965 0.22979 0.0
C881 C 0.61603 0.62934 0.30466 0.0
N882 N 0.65769 0.6095 0.19552 0.0
N883 N 0.57894 0.67771 0.34087 0.0
H884 H 0.63896 0.59145 0.34265 0.0
H885 H 0.59719 0.62689 0.36716 0.0
H886 H 0.56025 0.70129 0.34213 0.0
H887 H 0.58844 0.66762 0.36988 0.0
H888 H 0.66253 0.61774 0.16821 0.0
H889 H 0.67611 0.58598 0.19462 0.0
H890 H 0.60668 0.66454 0.16457 0.0
H891 H 0.5818 0.69797 0.19229 0.0
C892 C 0.30754 0.90195 0.58014 0.0
C893 C 0.34992 0.87863 0.55411 0.0
C894 C 0.38142 0.91019 0.5396 0.0
C895 C 0.33985 0.9334 0.56612 0.0
N896 N 0.25792 0.95429 0.60642 0.0
N897 N 0.42552 0.86073 0.50727 0.0
C898 C 0.3012 0.93013 0.58491 0.0
C899 C 0.38584 0.88298 0.53307 0.0
N900 N 0.27442 0.89671 0.60101 0.0
N901 N 0.41815 0.91315 0.52027 0.0
H902 H 0.43099 0.84004 0.50159 0.0
H903 H 0.4527 0.86322 0.49135 0.0
H904 H 0.41877 0.93223 0.52308 0.0
H905 H 0.41877 0.93223 0.52308 0.0
H906 H 0.24669 0.9111 0.62387 0.0
H907 H 0.2761 0.877 0.59669 0.0
H908 H 0.22522 0.95478 0.61779 0.0
H909 H 0.25264 0.97507 0.61068 0.0
C910 C 0.13835 0.65557 0.78366 0.0
C911 C 0.08528 0.67797 0.76666 0.0
C912 C 0.08746 0.63349 0.74138 0.0
C913 C 0.13521 0.61223 0.76522 0.0
N914 N 0.19231 0.6077 0.82087 0.0
N915 N 0.00655 0.68613 0.73253 0.0
C916 C 0.15682 0.62456 0.78964 0.0
C917 C 0.05906 0.66633 0.74623 0.0
N918 N 0.1731 0.66313 0.79258 0.0
N919 N 0.06982 0.62244 0.71306 0.0
H920 H -0.0152 0.70984 0.73423 0.0
H921 H -0.01669 0.67883 0.72232 0.0
H922 H 0.09036 0.59896 0.70782 0.0
H923 H 0.03862 0.63645 0.69202 0.0
H924 H 0.21313 0.64689 0.80284 0.0
H925 H 0.16528 0.68396 0.78374 0.0
H926 H 0.20537 0.61692 0.84161 0.0
H927 H 0.20295 0.58615 0.82907 0.0
C928 C 0.90115 0.36512 0.63191 0.0
C929 C 0.85326 0.36712 0.62381 0.0
C930 C 0.79894 0.42314 0.61855 0.0
C931 C 0.84788 0.42083 0.62359 0.0
N932 N 0.94448 0.3898 0.64216 0.0
N933 N 0.75465 0.39756 0.6221 0.0
C934 C 0.89814 0.39216 0.63306 0.0
C935 C 0.80135 0.39608 0.62147 0.0
N936 N 0.95023 0.33716 0.63789 0.0
N937 N 0.75114 0.45075 0.60837 0.0
H938 H 0.75548 0.37801 0.62438 0.0
H939 H 0.71528 0.41803 0.62404 0.0
H940 H 0.7477 0.47113 0.6066 0.0
H941 H 0.71567 0.45327 0.59931 0.0
H942 H -0.01335 0.33477 0.64312 0.0
H943 H 0.95397 0.31664 0.63833 0.0
H944 H 0.94613 0.40855 0.64432 0.0
H945 H 0.94613 0.40855 0.64432 0.0
C946 C 0.3318 0.90962 0.21196 0.0
C947 C 0.32595 0.92644 0.24804 0.0
C948 C 0.36848 0.87799 0.28798 0.0
C949 C 0.38084 0.86059 0.25102 0.0
N950 N 0.37551 0.86044 0.17694 0.0
N951 N 0.34053 0.92599 0.32084 0.0
C952 C 0.36268 0.87668 0.21283 0.0
C953 C 0.34436 0.91043 0.28624 0.0
N954 N 0.30485 0.92552 0.17702 0.0
N955 N 0.37794 0.86374 0.32504 0.0
H956 H 0.32048 0.94969 0.32091 0.0
H957 H 0.35921 0.91536 0.34869 0.0
H958 H 0.39676 0.84022 0.32752 0.0
H959 H 0.36357 0.8755 0.35299 0.0
H960 H 0.30206 0.91552 0.15064 0.0
H961 H 0.27973 0.94943 0.17623 0.0
H962 H 0.37005 0.87001 0.14788 0.0
H963 H 0.39557 0.83673 0.17605 0.0
C964 C 0.31469 0.41551 0.72353 0.0
C965 C 0.33394 0.4287 0.74943 0.0
C966 C 0.40748 0.37569 0.77414 0.0
C967 C 0.38571 0.36263 0.75088 0.0
N968 N 0.31853 0.3714 0.70086 0.0
N969 N 0.39513 0.42097 0.8036 0.0
C970 C 0.33898 0.38304 0.72531 0.0
C971 C 0.37958 0.40854 0.77557 0.0
N972 N 0.27589 0.43351 0.69448 0.0
N973 N 0.45601 0.35671 0.79445 0.0
H974 H 0.37682 0.44447 0.80542 0.0
H975 H 0.42281 0.40848 0.82736 0.0
H976 H 0.47587 0.33319 0.79742 0.0
H977 H 0.47877 0.36397 0.80591 0.0
H978 H 0.26473 0.4252 0.67085 0.0
H979 H 0.25728 0.45686 0.69178 0.0
H980 H 0.27875 0.38465 0.68921 0.0
H981 H 0.3416 0.34857 0.69126 0.0
C982 C 0.15728 0.78046 0.65391 0.0
C983 C 0.1442 0.78688 0.6111 0.0
C984 C 0.06216 0.78784 0.62587 0.0
C985 C 0.08176 0.77608 0.66661 0.0
N986 N 0.15906 0.75255 0.71278 0.0
N987 N 0.07917 0.79931 0.55767 0.0
C988 C 0.13269 0.76971 0.67845 0.0
C989 C 0.09555 0.79087 0.59741 0.0
N990 N 0.18981 0.78688 0.67272 0.0
N991 N 0.01016 0.79829 0.61488 0.0
H992 H 0.09384 0.80888 0.53955 0.0
H993 H 0.05076 0.79724 0.54323 0.0
H994 H -0.01682 0.79787 0.63425 0.0
H995 H -0.00867 0.81017 0.58772 0.0
H996 H 0.1977 0.78396 0.70429 0.0
H997 H 0.20027 0.80021 0.65905 0.0
H998 H 0.19859 0.74518 0.72053 0.0
H999 H 0.14465 0.74246 0.73026 0.0
C1000 C 0.16958 0.90935 0.47798 0.0
C1001 C 0.14774 0.91877 0.43765 0.0
C1002 C 0.12848 0.88038 0.43678 0.0
C1003 C 0.15034 0.87079 0.47759 0.0
N1004 N 0.17525 0.88309 0.54069 0.0
N1005 N 0.09262 0.91946 0.38369 0.0
C1006 C 0.16552 0.88763 0.4993 0.0
C1007 C 0.12275 0.90627 0.41878 0.0
N1008 N 0.19603 0.92029 0.4954 0.0
N1009 N 0.11662 0.86387 0.41351 0.0
H1010 H 0.08817 0.93809 0.36925 0.0
H1011 H 0.06784 0.91387 0.37115 0.0
H1012 H 0.11523 0.84632 0.42448 0.0
H1013 H 0.11035 0.86678 0.38179 0.0
H1014 H 0.2181 0.91176 0.52273 0.0
H1015 H 0.19949 0.93634 0.48093 0.0
H1016 H 0.18193 0.89638 0.55915 0.0
H1017 H 0.17051 0.86824 0.55731 0.0
C1018 C 0.87068 0.6486 0.60658 0.0
C1019 C 0.88912 0.66401 0.58561 0.0
C1020 C 0.90067 0.6357 0.52217 0.0
C1021 C 0.88738 0.61826 0.5445 0.0
N1022 N 0.83055 0.62112 0.59964 0.0
N1023 N 0.90423 0.67966 0.52079 0.0
C1024 C 0.86277 0.62889 0.58405 0.0
C1025 C 0.89858 0.65993 0.54239 0.0
N1026 N 0.86303 0.6516 0.64831 0.0
N1027 N 0.91505 0.629 0.48159 0.0
H1028 H 0.90241 0.69766 0.53481 0.0
H1029 H 0.90674 0.67976 0.48883 0.0
H1030 H 0.91054 0.61395 0.4652 0.0
H1031 H 0.93116 0.63817 0.4643 0.0
H1032 H 0.85569 0.63809 0.6656 0.0
H1033 H 0.86883 0.66555 0.66612 0.0
H1034 H 0.80935 0.62978 0.62746 0.0
H1035 H 0.81773 0.61036 0.58194 0.0
C1036 C 0.30206 0.79908 0.39475 0.0
C1037 C 0.30854 0.77243 0.41068 0.0
C1038 C 0.39074 0.74067 0.36559 0.0
C1039 C 0.38034 0.76767 0.34732 0.0
N1040 N 0.31879 0.82261 0.33929 0.0
N1041 N 0.35602 0.71748 0.40594 0.0
C1042 C 0.33402 0.79682 0.36056 0.0
C1043 C 0.35243 0.74304 0.39489 0.0
N1044 N 0.26649 0.82684 0.41342 0.0
N1045 N 0.43783 0.71269 0.3555 0.0
H1046 H 0.32933 0.71801 0.42688 0.0
H1047 H 0.38284 0.69606 0.39201 0.0
H1048 H 0.46527 0.71009 0.33327 0.0
H1049 H 0.45155 0.69243 0.37101 0.0
H1050 H 0.26417 0.84647 0.40673 0.0
H1051 H 0.24408 0.82923 0.43911 0.0
H1052 H 0.28184 0.84416 0.34422 0.0
H1053 H 0.34027 0.82199 0.31371 0.0
C1054 C 0.24071 0.16026 0.08775 0.0
C1055 C 0.29411 0.13236 0.08897 0.0
C1056 C 0.32697 0.15571 0.04529 0.0
C1057 C 0.27561 0.18504 0.04984 0.0
N1058 N 0.18711 0.21518 0.0852 0.0
N1059 N 0.39056 0.10449 0.0735 0.0
C1060 C 0.2333 0.18733 0.07356 0.0
C1061 C 0.33803 0.13031 0.06896 0.0
N1062 N 0.1964 0.16092 0.09912 0.0
N1063 N 0.36441 0.15168 0.01713 0.0
H1064 H 0.40028 0.08562 0.09088 0.0
H1065 H 0.42475 0.10298 0.06316 0.0
H1066 H 0.35676 0.16919 0.99768 0.0
H1067 H 0.40034 0.1302 1.00988 0.0
H1068 H 0.156 0.18007 0.09468 0.0
H1069 H 0.19967 0.14143 0.10863 0.0
H1070 H 0.15912 0.21752 0.10665 0.0
H1071 H 0.17901 0.23602 0.07722 0.0
C1072 C 0.79481 0.77436 0.86364 0.0
C1073 C 0.81474 0.76013 0.90304 0.0
C1074 C 0.90719 0.74387 0.87995 0.0
C1075 C 0.88372 0.76355 0.84483 0.0
N1076 N 0.80142 0.80189 0.80809 0.0
N1077 N 0.8945 0.72615 0.9449 0.0
C1078 C 0.82651 0.78001 0.83818 0.0
C1079 C 0.87237 0.74341 0.91015 0.0
N1080 N 0.74748 0.7801 0.8484 0.0
N1081 N 0.96307 0.72426 0.88324 0.0
H1082 H 0.87394 0.71982 0.96252 0.0
H1083 H 0.93344 0.71765 0.95579 0.0
H1084 H -0.01054 0.72335 0.8615 0.0
H1085 H -0.01635 0.70717 0.90549 0.0
H1086 H 0.73324 0.78849 0.81876 0.0
H1087 H 0.72777 0.77165 0.86228 0.0
H1088 H 0.75887 0.81671 0.8049 0.0
H1089 H 0.82243 0.80744 0.7893 0.0
C1090 C 0.28749 0.64177 0.54786 0.0
C1091 C 0.28527 0.64048 0.59148 0.0
C1092 C 0.2789 0.68794 0.59748 0.0
C1093 C 0.27647 0.69077 0.55367 0.0
N1094 N 0.27497 0.67149 0.48698 0.0
N1095 N 0.27173 0.66396 0.65791 0.0
C1096 C 0.27977 0.66795 0.52884 0.0
C1097 C 0.27915 0.66399 0.61628 0.0
N1098 N 0.29796 0.61763 0.52466 0.0
N1099 N 0.28135 0.70798 0.62139 0.0
H1100 H 0.27386 0.64624 0.67308 0.0
H1101 H 0.25935 0.68249 0.67716 0.0
H1102 H 0.27957 0.72642 0.60965 0.0
H1103 H 0.28958 0.70503 0.65284 0.0
H1104 H 0.30624 0.6153 0.49319 0.0
H1105 H 0.30189 0.59867 0.53738 0.0
H1106 H 0.26935 0.65825 0.46745 0.0
H1107 H 0.27415 0.68874 0.47162 0.0
C1108 C 0.35055 1.00744 0.3897 0.0
C1109 C 0.32695 0.02794 0.35553 0.0
C1110 C 0.36208 0.05572 0.38442 0.0
C1111 C 0.38534 0.0352 0.41865 0.0
N1112 N 0.37999 1.00045 0.46076 0.0
N1113 N 0.29714 0.07698 0.32759 0.0
C1114 C 0.37294 1.01377 0.42344 0.0
C1115 C 0.32909 0.05362 0.3549 0.0
N1116 N 0.35373 0.98113 0.38946 0.0
N1117 N 0.37074 0.07775 0.38039 0.0
H1118 H 0.2708 0.07703 0.30683 0.0
H1119 H 0.29236 0.09774 0.32816 0.0
H1120 H 0.38747 0.083 0.4039 0.0
H1121 H 0.36239 0.09033 0.3535 0.0
H1122 H 0.37581 0.96375 0.41125 0.0
H1123 H 0.33906 0.97528 0.36522 0.0
H1124 H 0.36911 0.98575 0.46693 0.0
H1125 H 0.38777 1.00838 0.48692 0.0
C1126 C 0.91336 0.86601 0.02136 0.0
C1127 C 0.8788 0.86156 0.0444 0.0
C1128 C 0.83302 0.91258 0.07616 0.0
C1129 C 0.8683 0.91674 0.05344 0.0
N1130 N 0.94097 0.89767 1.00255 0.0
N1131 N 0.79971 0.88184 0.0883 0.0
C1132 C 0.90748 0.89388 0.02537 0.0
C1133 C 0.83679 0.88525 0.07028 0.0
N1134 N 0.95273 0.84342 0.99577 0.0
N1135 N 0.79725 0.93436 0.10432 0.0
H1136 H 0.80099 0.86221 0.08462 0.0
H1137 H 0.76492 0.89921 0.10425 0.0
H1138 H 0.79153 0.9553 0.10797 0.0
H1139 H 0.77506 0.93133 0.12559 0.0
H1140 H 0.97918 0.84587 0.9786 0.0
H1141 H 0.95903 0.82233 0.99192 0.0
H1142 H 0.93991 0.91737 1.00324 0.0
H1143 H 0.93991 0.91737 1.00324 0.0
C1144 C 0.66153 0.14365 0.47822 0.0
C1145 C 0.6113 0.17101 0.46483 0.0
C1146 C 0.57342 0.14223 0.45295 0.0
C1147 C 0.62233 0.11548 0.46894 0.0
N1148 N 0.7129 0.09042 0.49773 0.0
N1149 N 0.51584 0.19777 0.44729 0.0
C1150 C 0.66601 0.11622 0.48222 0.0
C1151 C 0.56613 0.17071 0.45443 0.0
N1152 N 0.70655 0.14274 0.48667 0.0
N1153 N 0.53502 0.14014 0.43466 0.0
H1154 H 0.50894 0.21914 0.44837 0.0
H1155 H 0.48002 0.19929 0.44407 0.0
H1156 H 0.53846 0.11974 0.43323 0.0
H1157 H 0.5017 0.15806 0.4182 0.0
H1158 H 0.70816 0.16143 0.48352 0.0
H1159 H 0.70816 0.16143 0.48352 0.0
H1160 H 0.74618 0.0901 0.50732 0.0
H1161 H 0.71807 0.06963 0.50145 0.0
C1162 C 0.84692 0.41141 0.22121 0.0
C1163 C 0.83577 0.42748 0.2592 0.0
C1164 C 0.88113 0.37745 0.29593 0.0
C1165 C 0.88885 0.36173 0.25823 0.0
N1166 N 0.87276 0.36499 0.18501 0.0
N1167 N 0.83691 0.42599 0.3332 0.0
C1168 C 0.86983 0.37915 0.22094 0.0
C1169 C 0.85155 0.41043 0.29664 0.0
N1170 N 0.83717 0.4268 0.18502 0.0
N1171 N 0.90275 0.3607 0.3313 0.0
H1172 H 0.81555 0.44976 0.33466 0.0
H1173 H 0.84149 0.41602 0.3618 0.0
H1174 H 0.92258 0.33703 0.33216 0.0
H1175 H 0.90444 0.36971 0.35912 0.0
H1176 H 0.85054 0.41604 0.15638 0.0
H1177 H 0.81852 0.45038 0.18371 0.0
H1178 H 0.8535 0.37676 0.15787 0.0
H1179 H 0.89172 0.34144 0.18276 0.0
C1180 C 0.04768 0.65301 0.46698 0.0
C1181 C 0.0743 0.63195 0.43371 0.0
C1182 C 0.09822 0.66399 0.403 0.0
C1183 C 0.07054 0.68535 0.436 0.0
N1184 N 0.01437 0.7018 0.49745 0.0
N1185 N 0.11472 0.62009 0.36595 0.0
C1186 C 0.04351 0.68045 0.46705 0.0
C1187 C 0.09628 0.63835 0.40033 0.0
N1188 N 0.02626 0.64743 0.49958 0.0
N1189 N 0.12933 0.66707 0.3758 0.0
H1190 H 0.11469 0.60081 0.36339 0.0
H1191 H 0.12563 0.62544 0.33873 0.0
H1192 H 0.13266 0.68521 0.37682 0.0
H1193 H 0.15549 0.65035 0.35415 0.0
H1194 H 0.02735 0.62782 0.5027 0.0
H1195 H 0.02735 0.62782 0.5027 0.0
H1196 H -0.00554 0.69874 0.52104 0.0
H1197 H 0.00871 0.72285 0.49824 0.0
C1198 C 0.60256 0.13138 0.80064 0.0
C1199 C 0.63921 0.11212 0.76809 0.0
C1200 C 0.62324 0.15881 0.73597 0.0
C1201 C 0.58762 0.17782 0.76874 0.0
N1202 N 0.55194 0.18083 0.83631 0.0
N1203 N 0.69235 0.10754 0.70936 0.0
C1204 C 0.57923 0.16371 0.80195 0.0
C1205 C 0.65183 0.12594 0.73725 0.0
N1206 N 0.59112 0.11868 0.83143 0.0
N1207 N 0.62829 0.17236 0.70248 0.0
H1208 H 0.71246 0.08389 0.70812 0.0
H1209 H 0.70919 0.11532 0.69 0.0
H1210 H 0.60896 0.19599 0.7006 0.0
H1211 H 0.64794 0.16068 0.67524 0.0
H1212 H 0.55826 0.13152 0.85177 0.0
H1213 H 0.61417 0.0951 0.83663 0.0
H1214 H 0.54891 0.17185 0.86363 0.0
H1215 H 0.53604 0.20393 0.8389 0.0
C1216 C 0.74288 0.65656 0.08015 0.0
C1217 C 0.79665 0.62974 0.08735 0.0
C1218 C 0.83386 0.65347 0.04936 0.0
C1219 C 0.78029 0.68165 0.04634 0.0
N1220 N 0.68282 0.70992 0.0634 0.0
N1221 N 0.89428 0.60396 0.0833 0.0
C1222 C 0.73474 0.68306 0.06277 0.0
C1223 C 0.84244 0.62853 0.07306 0.0
N1224 N 0.69764 0.65783 0.08987 0.0
N1225 N 0.87619 0.64985 0.02776 0.0
H1226 H 0.90213 0.58531 0.10022 0.0
H1227 H 0.92906 0.6032 0.07799 0.0
H1228 H 0.87105 0.66684 1.00851 0.0
H1229 H 0.91495 0.62897 0.02533 0.0
H1230 H 0.69877 0.63946 0.1016 0.0
H1231 H 0.69877 0.63946 0.1016 0.0
H1232 H 0.64927 0.71144 0.07552 0.0
H1233 H 0.67292 0.73119 0.05506 0.0
C1234 C 0.86884 0.51596 0.42627 0.0
C1235 C 0.87671 0.53937 0.42439 0.0
C1236 C 0.81891 0.55882 0.3616 0.0
C1237 C 0.82185 0.53148 0.35897 0.0
N1238 N 0.86057 0.48094 0.38667 0.0
N1239 N 0.85745 0.58412 0.38927 0.0
C1240 C 0.84962 0.50926 0.39087 0.0
C1241 C 0.85129 0.56104 0.39159 0.0
N1242 N 0.87792 0.50067 0.46216 0.0
N1243 N 0.78294 0.58343 0.3372 0.0
H1244 H 0.87545 0.58855 0.41276 0.0
H1245 H 0.84638 0.5981 0.36346 0.0
H1246 H 0.7561 0.58359 0.31691 0.0
H1247 H 0.77525 0.60489 0.3404 0.0
H1248 H 0.87 0.48444 0.46592 0.0
H1249 H 0.88424 0.50818 0.48945 0.0
H1250 H 0.88462 0.46313 0.40754 0.0
H1251 H 0.85165 0.47411 0.35987 0.0
C1252 C 0.15272 0.50307 0.62973 0.0
C1253 C 0.13171 0.52297 0.66483 0.0
C1254 C 0.03948 0.54806 0.63622 0.0
C1255 C 0.05843 0.52384 0.60709 0.0
N1256 N 0.13714 0.47608 0.57866 0.0
N1257 N 0.05164 0.56249 0.7033 0.0
C1258 C 0.11631 0.50075 0.60425 0.0
C1259 C 0.07409 0.54466 0.66876 0.0
N1260 N 0.2071 0.4868 0.62002 0.0
N1261 N -0.01066 0.5755 0.63137 0.0
H1262 H 0.07502 0.56145 0.72766 0.0
H1263 H 0.00948 0.5765 0.70901 0.0
H1264 H 0.96584 0.58032 0.60519 0.0
H1265 H 0.97551 0.5947 0.64974 0.0
H1266 H 0.22374 0.47413 0.59286 0.0
H1267 H 0.23436 0.48864 0.63685 0.0
H1268 H 0.17819 0.45703 0.57927 0.0
H1269 H 0.11324 0.47344 0.55884 0.0
C1270 C 0.56613 0.79784 0.13872 0.0
C1271 C 0.58644 0.77499 0.16991 0.0
C1272 C 0.67927 0.74897 0.14036 0.0
C1273 C 0.66049 0.77314 0.11042 0.0
N1274 N 0.58474 0.8244 0.08927 0.0
N1275 N 0.66377 0.72857 0.20026 0.0
C1276 C 0.60339 0.7985 0.11159 0.0
C1277 C 0.64329 0.75099 0.17085 0.0
N1278 N 0.51075 0.81903 0.13474 0.0
N1279 N 0.73129 0.72244 0.1407 0.0
H1280 H 0.63946 0.72817 0.22263 0.0
H1281 H 0.70538 0.71038 0.20259 0.0
H1282 H 0.76186 0.71572 0.11905 0.0
H1283 H 0.76186 0.71572 0.11905 0.0
H1284 H 0.49235 0.83392 0.10978 0.0
H1285 H 0.48304 0.81996 0.15499 0.0
H1286 H 0.54525 0.84469 0.09222 0.0
H1287 H 0.60982 0.82724 0.07118 0.0
C1288 C 0.59379 0.54647 0.15356 0.0
C1289 C 0.63845 0.51765 0.16895 0.0
C1290 C 0.61163 0.49187 0.12262 0.0
C1291 C 0.56893 0.52076 0.1052 0.0
N1292 N 0.52821 0.57486 0.09924 0.0
N1293 N 0.69517 0.46243 0.16374 0.0
C1294 C 0.56276 0.54776 0.1194 0.0
C1295 C 0.64889 0.49021 0.15212 0.0
N1296 N 0.57905 0.57295 0.1728 0.0
N1297 N 0.61498 0.46615 0.11293 0.0
H1298 H 0.72221 0.46036 0.1858 0.0
H1299 H 0.70896 0.44172 0.14941 0.0
H1300 H 0.58936 0.46611 0.09157 0.0
H1301 H 0.64055 0.44526 0.12819 0.0
H1302 H 0.54271 0.59446 0.16667 0.0
H1303 H 0.60036 0.57325 0.19776 0.0
H1304 H 0.52611 0.59458 0.10461 0.0
H1305 H 0.50657 0.57647 0.07358 0.0
C1306 C 0.30654 0.42351 0.06847 0.0
C1307 C 0.34309 0.42474 0.09399 0.0
C1308 C 0.38029 0.37352 0.12121 0.0
C1309 C 0.34763 0.37113 0.09254 0.0
N1310 N 0.27792 0.39475 0.0389 0.0
N1311 N 0.41798 0.40062 0.14247 0.0
C1312 C 0.3102 0.39624 0.06655 0.0
C1313 C 0.38052 0.39978 0.12015 0.0
N1314 N 0.26874 0.44827 0.04502 0.0
N1315 N 0.41001 0.35098 0.15002 0.0
H1316 H 0.41843 0.41979 0.14345 0.0
H1317 H 0.45076 0.38174 0.15806 0.0
H1318 H 0.41106 0.33131 0.15143 0.0
H1319 H 0.43007 0.35279 0.17457 0.0
H1320 H 0.24093 0.44822 0.02607 0.0
H1321 H 0.26417 0.46903 0.04557 0.0
H1322 H 0.2781 0.37552 0.03449 0.0
H1323 H 0.2781 0.37552 0.03449 0.0
C1324 C 0.09848 0.16058 0.30295 0.0
C1325 C 0.08968 0.17687 0.2656 0.0
C1326 C 0.13482 0.12714 0.22735 0.0
C1327 C 0.14032 0.11123 0.26433 0.0
N1328 N 0.12637 0.11323 0.33769 0.0
N1329 N 0.09776 0.17572 0.19181 0.0
C1330 C 0.12186 0.12819 0.30217 0.0
C1331 C 0.10765 0.16002 0.22774 0.0
N1332 N 0.0859 0.17601 0.33958 0.0
N1333 N 0.1565 0.11057 0.19171 0.0
H1334 H 0.08008 0.19919 0.1911 0.0
H1335 H 0.1042 0.16619 0.16258 0.0
H1336 H 0.17468 0.08708 0.19024 0.0
H1337 H 0.15976 0.11931 0.16426 0.0
H1338 H 0.09667 0.16549 0.36831 0.0
H1339 H 0.06678 0.19962 0.34143 0.0
H1340 H 0.10761 0.12425 0.36541 0.0
H1341 H 0.14769 0.08943 0.3393 0.0
C1342 C 0.14708 0.39099 0.99769 0.0
C1343 C 0.19302 0.36115 0.98575 0.0
C1344 C 0.21927 0.38417 0.9352 0.0
C1345 C 0.17692 0.41397 0.94991 0.0
N1346 N 0.10473 0.44592 0.99902 0.0
N1347 N 0.28032 0.32998 0.94957 0.0
C1348 C 0.14181 0.41748 0.98225 0.0
C1349 C 0.23149 0.35794 0.95667 0.0
N1350 N 0.10863 0.394 0.02379 0.0
N1351 N 0.24634 0.38077 0.89935 0.0
H1352 H 0.29201 0.3098 0.96404 0.0
H1353 H 0.31197 0.32728 0.93221 0.0
H1354 H 0.2377 0.39929 0.88169 0.0
H1355 H 0.2731 0.35961 0.88471 0.0
H1356 H 0.07127 0.41497 0.03023 0.0
H1357 H 0.11283 0.37516 0.03727 0.0
H1358 H 0.0817 0.44969 0.02533 0.0
H1359 H 0.09999 0.46561 0.98837 0.0
C1360 C 0.37332 0.24702 0.91934 0.0
C1361 C 0.31753 0.26029 0.90997 0.0
C1362 C 0.33103 0.27557 0.84152 0.0
C1363 C 0.3855 0.26464 0.8519 0.0
N1364 N 0.45649 0.24262 0.90375 0.0
N1365 N 0.25456 0.2733 0.85446 0.0
C1366 C 0.40607 0.25106 0.89167 0.0
C1367 C 0.29963 0.27067 0.86884 0.0
N1368 N 0.39666 0.22815 0.95268 0.0
N1369 N 0.30744 0.29255 0.80653 0.0
H1370 H 0.23447 0.26637 0.87167 0.0
H1371 H 0.24216 0.27786 0.82378 0.0
H1372 H 0.32764 0.29782 0.78636 0.0
H1373 H 0.26589 0.30429 0.79983 0.0
H1374 H 0.4383 0.21534 0.95957 0.0
H1375 H 0.37574 0.2221 0.97047 0.0
H1376 H 0.47085 0.23644 0.93384 0.0
H1377 H 0.48264 0.24398 0.88465 0.0
C1378 C 0.37357 0.51608 0.92035 0.0
C1379 C 0.38816 0.53653 0.91573 0.0
C1380 C 0.33843 0.55351 0.8489 0.0
C1381 C 0.32955 0.5302 0.85136 0.0
N1382 N 0.35107 0.48481 0.88686 0.0
N1383 N 0.3709 0.58083 0.88163 0.0
C1384 C 0.35001 0.51051 0.88661 0.0
C1385 C 0.36708 0.55677 0.88137 0.0
N1386 N 0.37975 0.50291 0.95767 0.0
N1387 N 0.3204 0.57241 0.81532 0.0
H1388 H 0.38813 0.58492 0.90613 0.0
H1389 H 0.35263 0.59853 0.86018 0.0
H1390 H 0.2934 0.57429 0.7936 0.0
H1391 H 0.33296 0.58612 0.80798 0.0
H1392 H 0.36551 0.48985 0.96421 0.0
H1393 H 0.39118 0.50912 0.98358 0.0
H1394 H 0.37149 0.46776 0.90925 0.0
H1395 H 0.33747 0.47847 0.86243 0.0
C1396 C 0.56301 0.67153 0.95216 0.0
C1397 C 0.60598 0.67324 0.96468 0.0
C1398 C 0.66228 0.61898 0.98457 0.0
C1399 C 0.6209 0.61673 0.96964 0.0
N1400 N 0.53566 0.63898 0.93312 0.0
N1401 N 0.69881 0.64757 0.99084 0.0
C1402 C 0.57216 0.64252 0.9518 0.0
C1403 C 0.65593 0.64691 0.98026 0.0
N1404 N 0.51301 0.69777 0.94182 0.0
N1405 N 0.70862 0.59421 1.0023 0.0
H1406 H 0.69874 0.66687 0.98796 0.0
H1407 H 0.69874 0.66687 0.98796 0.0
H1408 H 0.71526 0.57304 1.00615 0.0
H1409 H 0.7398 0.5952 0.01374 0.0
H1410 H 0.47813 0.69857 0.93706 0.0
H1411 H 0.50514 0.7194 0.94119 0.0
H1412 H 0.50295 0.65593 0.91523 0.0
H1413 H 0.5398 0.61836 0.93328 0.0
C1414 C 0.90896 0.87458 0.71633 0.0
C1415 C 0.89247 0.86077 0.7437 0.0
C1416 C 0.82025 0.91296 0.77105 0.0
C1417 C 0.83967 0.9267 0.74645 0.0
N1418 N 0.90091 0.91966 0.69196 0.0
N1419 N 0.83715 0.86674 0.80142 0.0
C1420 C 0.88398 0.9071 0.71839 0.0
C1421 C 0.84956 0.88003 0.77227 0.0
N1422 N 0.94715 0.85663 0.68671 0.0
N1423 N 0.77186 0.93138 0.79187 0.0
H1424 H 0.85742 0.843 0.80308 0.0
H1425 H 0.81065 0.87885 0.82609 0.0
H1426 H 0.74971 0.95519 0.79305 0.0
H1427 H 0.75106 0.92322 0.80451 0.0
H1428 H 0.95694 0.8649 0.66208 0.0
H1429 H 0.96792 0.83294 0.6859 0.0
H1430 H 0.93861 0.90701 0.67679 0.0
H1431 H 0.87663 0.94287 0.68423 0.0
C1432 C 0.38539 0.14938 0.60893 0.0
C1433 C 0.41136 0.16198 0.5919 0.0
C1434 C 0.42944 0.13273 0.52801 0.0
C1435 C 0.41095 0.11676 0.5473 0.0
N1436 N 0.34427 0.12294 0.59563 0.0
N1437 N 0.4603 0.16499 0.53575 0.0
C1438 C 0.38104 0.12874 0.58491 0.0
C1439 C 0.43348 0.15371 0.55138 0.0
N1440 N 0.36608 0.15652 0.64851 0.0
N1441 N 0.4383 0.12991 0.48643 0.0
H1442 H 0.4633 0.18083 0.55144 0.0
H1443 H 0.48315 0.15688 0.50865 0.0
H1444 H 0.42923 0.11763 0.46793 0.0
H1445 H 0.44653 0.14319 0.46965 0.0
H1446 H 0.353 0.14518 0.66444 0.0
H1447 H 0.36704 0.17222 0.66656 0.0
H1448 H 0.31861 0.13261 0.62128 0.0
H1449 H 0.33287 0.11266 0.57535 0.0
C1450 C 0.54109 0.40568 0.90624 0.0
C1451 C 0.54428 0.3837 0.93246 0.0
C1452 C 0.54519 0.41102 0.99298 0.0
C1453 C 0.53588 0.43491 0.96703 0.0
N1454 N 0.51567 0.45703 0.89854 0.0
N1455 N 0.54342 0.36681 1.00093 0.0
C1456 C 0.53191 0.43266 0.9235 0.0
C1457 C 0.54468 0.38675 0.97592 0.0
N1458 N 0.54693 0.4008 0.86457 0.0
N1459 N 0.55655 0.41093 0.03377 0.0
H1460 H 0.54509 0.34816 0.98958 0.0
H1461 H 0.53686 0.36994 0.03262 0.0
H1462 H 0.55903 0.42772 0.04696 0.0
H1463 H 0.56874 0.39279 0.05362 0.0
H1464 H 0.55202 0.41389 0.84428 0.0
H1465 H 0.5511 0.38214 0.85041 0.0
H1466 H 0.50405 0.45843 0.86794 0.0
H1467 H 0.50921 0.47712 0.90885 0.0
C1468 C 0.54643 0.88582 0.47398 0.0
C1469 C 0.54458 0.88423 0.43033 0.0
C1470 C 0.53335 0.93317 0.4244 0.0
C1471 C 0.53638 0.9346 0.46815 0.0
N1472 N 0.55546 0.9097 0.53394 0.0
N1473 N 0.54566 0.90335 0.36361 0.0
C1474 C 0.54562 0.91014 0.49273 0.0
C1475 C 0.54109 0.90695 0.40551 0.0
N1476 N 0.54815 0.86426 0.49752 0.0
N1477 N 0.51979 0.95765 0.40071 0.0
H1478 H 0.54862 0.88538 0.34838 0.0
H1479 H 0.55066 0.9168 0.34401 0.0
H1480 H 0.51716 0.97644 0.41212 0.0
H1481 H 0.50789 0.96028 0.36999 0.0
H1482 H 0.54287 0.86589 0.52935 0.0
H1483 H 0.55181 0.84533 0.48486 0.0
H1484 H 0.56732 0.8914 0.55333 0.0
H1485 H 0.55644 0.9267 0.54828 0.0
C1486 C 0.38631 0.62457 0.08621 0.0
C1487 C 0.40517 0.61609 0.04445 0.0
C1488 C 0.42123 0.6559 0.04272 0.0
C1489 C 0.40283 0.66407 0.0841 0.0
N1490 N 0.35332 0.66253 0.14089 0.0
N1491 N 0.42299 0.63072 0.97998 0.0
C1492 C 0.38072 0.65041 0.10437 0.0
C1493 C 0.41681 0.63417 0.02179 0.0
N1494 N 0.37694 0.6072 0.10997 0.0
N1495 N 0.4451 0.6679 0.02386 0.0
H1496 H 0.41785 0.61584 0.96381 0.0
H1497 H 0.42709 0.64484 0.96106 0.0
H1498 H 0.44921 0.68379 0.03805 0.0
H1499 H 0.46452 0.66039 0.99534 0.0
H1500 H 0.37331 0.60921 0.14195 0.0
H1501 H 0.37454 0.59 0.09893 0.0
H1502 H 0.33056 0.65605 0.15486 0.0
H1503 H 0.34887 0.68121 0.15527 0.0
loop_
_geom_bond_atom_site_label_1
_geom_bond_atom_site_label_2
_geom_bond_distance
_geom_bond_site_symmetry_2
_ccdc_geom_bond_type
Tb0 C2 2.809 . S
Tb0 O20 2.484 . S
Tb0 O21 2.440 . S
Tb0 O22 2.658 1_655 S
Tb0 O23 2.409 1_655 S
Tb0 O24 2.378 1_655 S
Tb0 O28 2.325 1_564 S
Tb0 O31 2.341 1_565 S
Tb1 C11 2.809 . S
Tb1 O22 2.325 1_546 S
Tb1 O25 2.341 1_545 S
Tb1 O26 2.484 . S
Tb1 O27 2.440 . S
Tb1 O28 2.658 1_455 S
Tb1 O29 2.409 1_455 S
Tb1 O30 2.378 1_455 S
C2 Tb0 2.809 . S
C2 C3 1.514 . S
C2 O20 1.248 . S
C2 O21 1.266 . S
C3 C2 1.514 . S
C3 C4 1.359 . S
C3 C8 1.348 . S
C4 C3 1.359 . S
C4 C5 1.380 . S
C4 H32 0.929 1_554 S
C5 C4 1.380 . S
C5 C6 1.347 . S
C5 H33 0.931 1_554 S
C6 C5 1.347 . S
C6 C7 1.369 . S
C7 C6 1.369 . S
C7 C8 1.408 . S
C7 H34 0.930 . S
C8 C3 1.348 . S
C8 C7 1.408 . S
C8 H35 0.930 . S
C9 O22 1.281 . S
C9 O23 1.254 . S
C10 O24 1.236 1_556 S
C10 O25 1.266 . S
C11 Tb1 2.809 . S
C11 C12 1.514 . S
C11 O26 1.248 . S
C11 O27 1.266 . S
C12 C11 1.514 . S
C12 C13 1.359 . S
C12 C17 1.348 . S
C13 C12 1.359 . S
C13 C14 1.380 . S
C13 H36 0.929 1_556 S
C14 C13 1.380 . S
C14 C15 1.347 . S
C14 H37 0.931 1_556 S
C15 C14 1.347 . S
C15 C16 1.369 . S
C16 C15 1.369 . S
C16 C17 1.408 . S
C16 H38 0.930 . S
C17 C12 1.348 . S
C17 C16 1.408 . S
C17 H39 0.930 . S
C18 O28 1.281 . S
C18 O29 1.254 . S
C19 O30 1.236 1_554 S
C19 O31 1.266 . S
O20 Tb0 2.484 . S
O20 C2 1.248 . S
O21 Tb0 2.440 . S
O21 C2 1.266 . S
O22 Tb0 2.658 1_455 S
O22 Tb1 2.325 1_564 S
O22 C9 1.281 . S
O23 Tb0 2.409 1_455 S
O23 C9 1.254 . S
O24 Tb0 2.378 1_455 S
O24 C10 1.236 1_554 S
O25 Tb1 2.341 1_565 S
O25 C10 1.266 . S
O26 Tb1 2.484 . S
O26 C11 1.248 . S
O27 Tb1 2.440 . S
O27 C11 1.266 . S
O28 Tb0 2.325 1_546 S
O28 Tb1 2.658 1_655 S
O28 C18 1.281 . S
O29 Tb1 2.409 1_655 S
O29 C18 1.254 . S
O30 Tb1 2.378 1_655 S
O30 C19 1.236 1_556 S
O31 Tb0 2.341 1_545 S
O31 C19 1.266 . S
H32 C4 0.929 1_556 S
H33 C5 0.931 1_556 S
H34 C7 0.930 . S
H35 C8 0.930 . S
H36 C13 0.929 1_554 S
H37 C14 0.931 1_554 S
H38 C16 0.930 . S
H39 C17 0.930 . S
Tb40 C42 2.809 . S
Tb40 O60 2.485 . S
Tb40 O61 2.440 . S
Tb40 O62 2.658 . S
Tb40 O63 2.409 . S
Tb40 O64 2.378 1_455 S
Tb40 O68 2.325 1_455 S
Tb40 O71 2.341 . S
Tb41 C51 2.809 . S
Tb41 O62 2.325 1_655 S
Tb41 O65 2.341 . S
Tb41 O66 2.485 1_655 S
Tb41 O67 2.440 . S
Tb41 O68 2.658 . S
Tb41 O69 2.409 . S
Tb41 O70 2.378 1_655 S
C42 Tb40 2.809 . S
C42 C43 1.514 . S
C42 O60 1.256 . S
C42 O61 1.266 . S
C43 C42 1.514 . S
C43 C44 1.359 1_455 S
C43 C48 1.348 . S
C44 C43 1.359 1_655 S
C44 C45 1.380 . S
C44 H72 0.929 . S
C45 C44 1.380 . S
C45 C46 1.347 1_655 S
C45 H73 0.931 . S
C46 C45 1.347 1_455 S
C46 C47 1.369 . S
C47 C46 1.369 . S
C47 C48 1.408 . S
C47 H74 0.930 . S
C48 C43 1.348 . S
C48 C47 1.408 . S
C48 H75 0.930 . S
C49 O62 1.281 . S
C49 O63 1.254 . S
C50 O64 1.236 . S
C50 O65 1.266 . S
C51 Tb41 2.809 . S
C51 C52 1.514 . S
C51 O66 1.250 1_655 S
C51 O67 1.266 . S
C52 C51 1.514 . S
C52 C53 1.359 1_655 S
C52 C57 1.348 . S
C53 C52 1.359 1_455 S
C53 C54 1.380 . S
C53 H76 0.929 . S
C54 C53 1.380 . S
C54 C55 1.347 1_455 S
C54 H77 0.931 . S
C55 C54 1.347 1_655 S
C55 C56 1.369 . S
C56 C55 1.369 . S
C56 C57 1.408 . S
C56 H78 0.930 . S
C57 C52 1.348 . S
C57 C56 1.408 . S
C57 H79 0.930 . S
C58 O68 1.281 . S
C58 O69 1.254 . S
C59 O70 1.236 . S
C59 O71 1.266 . S
O60 Tb40 2.485 . S
O60 C42 1.256 . S
O61 Tb40 2.440 . S
O61 C42 1.266 . S
O62 Tb40 2.658 . S
O62 Tb41 2.325 1_455 S
O62 C49 1.281 . S
O63 Tb40 2.409 . S
O63 C49 1.254 . S
O64 Tb40 2.378 1_655 S
O64 C50 1.236 . S
O65 Tb41 2.341 . S
O65 C50 1.266 . S
O66 Tb41 2.485 1_455 S
O66 C51 1.250 1_455 S
O67 Tb41 2.440 . S
O67 C51 1.266 . S
O68 Tb40 2.325 1_655 S
O68 Tb41 2.658 . S
O68 C58 1.281 . S
O69 Tb41 2.409 . S
O69 C58 1.254 . S
O70 Tb41 2.378 1_455 S
O70 C59 1.236 . S
O71 Tb40 2.341 . S
O71 C59 1.266 . S
H72 C44 0.929 . S
H73 C45 0.931 . S
H74 C47 0.930 . S
H75 C48 0.930 . S
H76 C53 0.929 . S
H77 C54 0.931 . S
H78 C56 0.930 . S
H79 C57 0.930 . S
Tb80 C82 2.809 . S
Tb80 O100 2.484 . S
Tb80 O101 2.440 . S
Tb80 O102 2.658 . S
Tb80 O103 2.409 . S
Tb80 O104 2.378 . S
Tb80 O108 2.325 . S
Tb80 O111 2.341 . S
Tb81 C91 2.809 . S
Tb81 O102 2.325 . S
Tb81 O105 2.341 . S
Tb81 O106 2.484 . S
Tb81 O107 2.440 . S
Tb81 O108 2.658 . S
Tb81 O109 2.409 . S
Tb81 O110 2.378 . S
C82 Tb80 2.809 . S
C82 C83 1.514 . S
C82 O100 1.248 . S
C82 O101 1.266 . S
C83 C82 1.514 . S
C83 C84 1.359 . S
C83 C88 1.348 . S
C84 C83 1.359 . S
C84 C85 1.380 . S
C84 H112 0.929 . S
C85 C84 1.380 . S
C85 C86 1.347 . S
C85 H113 0.931 . S
C86 C85 1.347 . S
C86 C87 1.369 . S
C87 C86 1.369 . S
C87 C88 1.408 . S
C87 H114 0.930 . S
C88 C83 1.348 . S
C88 C87 1.408 . S
C88 H115 0.930 . S
C89 O102 1.281 . S
C89 O103 1.254 . S
C90 O104 1.236 . S
C90 O105 1.266 . S
C91 Tb81 2.809 . S
C91 C92 1.514 . S
C91 O106 1.248 . S
C91 O107 1.266 . S
C92 C91 1.514 . S
C92 C93 1.359 . S
C92 C97 1.348 . S
C93 C92 1.359 . S
C93 C94 1.380 . S
C93 H116 0.929 . S
C94 C93 1.380 . S
C94 C95 1.347 . S
C94 H117 0.931 . S
C95 C94 1.347 . S
C95 C96 1.369 . S
C96 C95 1.369 . S
C96 C97 1.408 . S
C96 H118 0.930 . S
C97 C92 1.348 . S
C97 C96 1.408 . S
C97 H119 0.930 . S
C98 O108 1.281 . S
C98 O109 1.254 . S
C99 O110 1.236 . S
C99 O111 1.266 . S
O100 Tb80 2.484 . S
O100 C82 1.248 . S
O101 Tb80 2.440 . S
O101 C82 1.266 . S
O102 Tb80 2.658 . S
O102 Tb81 2.325 . S
O102 C89 1.281 . S
O103 Tb80 2.409 . S
O103 C89 1.254 . S
O104 Tb80 2.378 . S
O104 C90 1.236 . S
O105 Tb81 2.341 . S
O105 C90 1.266 . S
O106 Tb81 2.484 . S
O106 C91 1.248 . S
O107 Tb81 2.440 . S
O107 C91 1.266 . S
O108 Tb80 2.325 . S
O108 Tb81 2.658 . S
O108 C98 1.281 . S
O109 Tb81 2.409 . S
O109 C98 1.254 . S
O110 Tb81 2.378 . S
O110 C99 1.236 . S
O111 Tb80 2.341 . S
O111 C99 1.266 . S
H112 C84 0.929 . S
H113 C85 0.931 . S
H114 C87 0.930 . S
H115 C88 0.930 . S
H116 C93 0.929 . S
H117 C94 0.931 . S
H118 C96 0.930 . S
H119 C97 0.930 . S
Tb120 C122 2.809 . S
Tb120 O140 2.484 . S
Tb120 O141 2.440 . S
Tb120 O142 2.658 1_565 S
Tb120 O143 2.409 1_565 S
Tb120 O144 2.376 1_565 S
Tb120 O148 2.325 . S
Tb120 O151 2.341 1_565 S
Tb121 C131 2.809 . S
Tb121 O142 2.325 . S
Tb121 O145 2.341 . S
Tb121 O146 2.484 . S
Tb121 O147 2.440 . S
Tb121 O148 2.658 1_545 S
Tb121 O149 2.409 1_545 S
Tb121 O150 2.378 . S
C122 Tb120 2.809 . S
C122 C123 1.514 . S
C122 O140 1.248 . S
C122 O141 1.266 . S
C123 C122 1.514 . S
C123 C124 1.359 . S
C123 C128 1.348 . S
C124 C123 1.359 . S
C124 C125 1.380 . S
C124 H152 0.929 . S
C125 C124 1.380 . S
C125 C126 1.347 . S
C125 H153 0.931 . S
C126 C125 1.347 . S
C126 C127 1.369 . S
C127 C126 1.369 . S
C127 C128 1.408 . S
C127 H154 0.930 . S
C128 C123 1.348 . S
C128 C127 1.408 . S
C128 H155 0.930 . S
C129 O142 1.281 . S
C129 O143 1.254 . S
C130 O144 1.238 1_565 S
C130 O145 1.267 1_565 S
C131 Tb121 2.809 . S
C131 C132 1.514 . S
C131 O146 1.248 . S
C131 O147 1.266 . S
C132 C131 1.514 . S
C132 C133 1.359 . S
C132 C137 1.348 . S
C133 C132 1.359 . S
C133 C134 1.380 . S
C133 H156 0.929 . S
C134 C133 1.380 . S
C134 C135 1.347 . S
C134 H157 0.931 . S
C135 C134 1.347 . S
C135 C136 1.369 . S
C136 C135 1.369 . S
C136 C137 1.408 . S
C136 H158 0.930 . S
C137 C132 1.348 . S
C137 C136 1.408 . S
C137 H159 0.930 . S
C138 O148 1.281 . S
C138 O149 1.254 . S
C139 O150 1.236 . S
C139 O151 1.266 . S
O140 Tb120 2.484 . S
O140 C122 1.248 . S
O141 Tb120 2.440 . S
O141 C122 1.266 . S
O142 Tb120 2.658 1_545 S
O142 Tb121 2.325 . S
O142 C129 1.281 . S
O143 Tb120 2.409 1_545 S
O143 C129 1.254 . S
O144 Tb120 2.376 1_545 S
O144 C130 1.238 1_545 S
O145 Tb121 2.341 . S
O145 C130 1.267 1_545 S
O146 Tb121 2.484 . S
O146 C131 1.248 . S
O147 Tb121 2.440 . S
O147 C131 1.266 . S
O148 Tb120 2.325 . S
O148 Tb121 2.658 1_565 S
O148 C138 1.281 . S
O149 Tb121 2.409 1_565 S
O149 C138 1.254 . S
O150 Tb121 2.378 . S
O150 C139 1.236 . S
O151 Tb120 2.341 1_545 S
O151 C139 1.266 . S
H152 C124 0.929 . S
H153 C125 0.931 . S
H154 C127 0.930 . S
H155 C128 0.930 . S
H156 C133 0.929 . S
H157 C134 0.931 . S
H158 C136 0.930 . S
H159 C137 0.930 . S
Tb160 C162 2.809 . S
Tb160 O180 2.484 . S
Tb160 O181 2.440 . S
Tb160 O182 2.658 . S
Tb160 O183 2.409 . S
Tb160 O184 2.378 . S
Tb160 O188 2.325 . S
Tb160 O191 2.341 . S
Tb161 C171 2.809 . S
Tb161 O182 2.325 . S
Tb161 O185 2.341 . S
Tb161 O186 2.484 . S
Tb161 O187 2.440 . S
Tb161 O188 2.658 . S
Tb161 O189 2.409 . S
Tb161 O190 2.378 . S
C162 Tb160 2.809 . S
C162 C163 1.514 . S
C162 O180 1.248 . S
C162 O181 1.266 . S
C163 C162 1.514 . S
C163 C164 1.359 . S
C163 C168 1.348 . S
C164 C163 1.359 . S
C164 C165 1.380 . S
C164 H192 0.929 . S
C165 C164 1.380 . S
C165 C166 1.347 . S
C165 H193 0.931 . S
C166 C165 1.347 . S
C166 C167 1.369 . S
C167 C166 1.369 . S
C167 C168 1.408 . S
C167 H194 0.930 . S
C168 C163 1.348 . S
C168 C167 1.408 . S
C168 H195 0.930 . S
C169 O182 1.281 . S
C169 O183 1.254 . S
C170 O184 1.236 . S
C170 O185 1.266 . S
C171 Tb161 2.809 . S
C171 C172 1.514 . S
C171 O186 1.248 . S
C171 O187 1.266 . S
C172 C171 1.514 . S
C172 C173 1.359 . S
C172 C177 1.348 . S
C173 C172 1.359 . S
C173 C174 1.380 . S
C173 H196 0.929 . S
C174 C173 1.380 . S
C174 C175 1.347 . S
C174 H197 0.931 . S
C175 C174 1.347 . S
C175 C176 1.369 . S
C176 C175 1.369 . S
C176 C177 1.408 . S
C176 H198 0.930 . S
C177 C172 1.348 . S
C177 C176 1.408 . S
C177 H199 0.930 . S
C178 O188 1.281 . S
C178 O189 1.254 . S
C179 O190 1.236 . S
C179 O191 1.266 . S
O180 Tb160 2.484 . S
O180 C162 1.248 . S
O181 Tb160 2.440 . S
O181 C162 1.266 . S
O182 Tb160 2.658 . S
O182 Tb161 2.325 . S
O182 C169 1.281 . S
O183 Tb160 2.409 . S
O183 C169 1.254 . S
O184 Tb160 2.378 . S
O184 C170 1.236 . S
O185 Tb161 2.341 . S
O185 C170 1.266 . S
O186 Tb161 2.484 . S
O186 C171 1.248 . S
O187 Tb161 2.440 . S
O187 C171 1.266 . S
O188 Tb160 2.325 . S
O188 Tb161 2.658 . S
O188 C178 1.281 . S
O189 Tb161 2.409 . S
O189 C178 1.254 . S
O190 Tb161 2.378 . S
O190 C179 1.236 . S
O191 Tb160 2.341 . S
O191 C179 1.266 . S
H192 C164 0.929 . S
H193 C165 0.931 . S
H194 C167 0.930 . S
H195 C168 0.930 . S
H196 C173 0.929 . S
H197 C174 0.931 . S
H198 C176 0.930 . S
H199 C177 0.930 . S
Tb200 C202 2.809 . S
Tb200 O220 2.484 . S
Tb200 O221 2.440 . S
Tb200 O222 2.658 . S
Tb200 O223 2.409 . S
Tb200 O224 2.378 . S
Tb200 O228 2.325 . S
Tb200 O231 2.341 . S
Tb201 C211 2.809 . S
Tb201 O222 2.325 . S
Tb201 O225 2.341 . S
Tb201 O226 2.484 . S
Tb201 O227 2.440 . S
Tb201 O228 2.658 . S
Tb201 O229 2.409 . S
Tb201 O230 2.378 . S
C202 Tb200 2.809 . S
C202 C203 1.514 . S
C202 O220 1.248 . S
C202 O221 1.266 . S
C203 C202 1.514 . S
C203 C204 1.359 . S
C203 C208 1.348 . S
C204 C203 1.359 . S
C204 C205 1.380 . S
C204 H232 0.929 . S
C205 C204 1.380 . S
C205 C206 1.347 . S
C205 H233 0.931 . S
C206 C205 1.347 . S
C206 C207 1.369 . S
C207 C206 1.369 . S
C207 C208 1.408 . S
C207 H234 0.930 . S
C208 C203 1.348 . S
C208 C207 1.408 . S
C208 H235 0.930 . S
C209 O222 1.281 . S
C209 O223 1.254 . S
C210 O224 1.236 . S
C210 O225 1.266 . S
C211 Tb201 2.809 . S
C211 C212 1.514 . S
C211 O226 1.248 . S
C211 O227 1.266 . S
C212 C211 1.514 . S
C212 C213 1.359 . S
C212 C217 1.348 . S
C213 C212 1.359 . S
C213 C214 1.380 . S
C213 H236 0.929 . S
C214 C213 1.380 . S
C214 C215 1.347 . S
C214 H237 0.931 . S
C215 C214 1.347 . S
C215 C216 1.369 . S
C216 C215 1.369 . S
C216 C217 1.408 . S
C216 H238 0.930 . S
C217 C212 1.348 . S
C217 C216 1.408 . S
C217 H239 0.930 . S
C218 O228 1.281 . S
C218 O229 1.254 . S
C219 O230 1.236 . S
C219 O231 1.266 . S
O220 Tb200 2.484 . S
O220 C202 1.248 . S
O221 Tb200 2.440 . S
O221 C202 1.266 . S
O222 Tb200 2.658 . S
O222 Tb201 2.325 . S
O222 C209 1.281 . S
O223 Tb200 2.409 . S
O223 C209 1.254 . S
O224 Tb200 2.378 . S
O224 C210 1.236 . S
O225 Tb201 2.341 . S
O225 C210 1.266 . S
O226 Tb201 2.484 . S
O226 C211 1.248 . S
O227 Tb201 2.440 . S
O227 C211 1.266 . S
O228 Tb200 2.325 . S
O228 Tb201 2.658 . S
O228 C218 1.281 . S
O229 Tb201 2.409 . S
O229 C218 1.254 . S
O230 Tb201 2.378 . S
O230 C219 1.236 . S
O231 Tb200 2.341 . S
O231 C219 1.266 . S
H232 C204 0.929 . S
H233 C205 0.931 . S
H234 C207 0.930 . S
H235 C208 0.930 . S
H236 C213 0.929 . S
H237 C214 0.931 . S
H238 C216 0.930 . S
H239 C217 0.930 . S
Tb240 C242 2.809 . S
Tb240 O260 2.484 . S
Tb240 O261 2.440 . S
Tb240 O262 2.658 . S
Tb240 O263 2.409 . S
Tb240 O264 2.378 . S
Tb240 O268 2.325 . S
Tb240 O271 2.341 . S
Tb241 C251 2.809 . S
Tb241 O262 2.325 . S
Tb241 O265 2.341 . S
Tb241 O266 2.484 . S
Tb241 O267 2.440 . S
Tb241 O268 2.658 . S
Tb241 O269 2.409 . S
Tb241 O270 2.378 . S
C242 Tb240 2.809 . S
C242 C243 1.514 . S
C242 O260 1.248 . S
C242 O261 1.266 . S
C243 C242 1.514 . S
C243 C244 1.359 . S
C243 C248 1.348 . S
C244 C243 1.359 . S
C244 C245 1.380 . S
C244 H272 0.929 . S
C245 C244 1.380 . S
C245 C246 1.347 . S
C245 H273 0.931 . S
C246 C245 1.347 . S
C246 C247 1.369 . S
C247 C246 1.369 . S
C247 C248 1.408 . S
C247 H274 0.930 . S
C248 C243 1.348 . S
C248 C247 1.408 . S
C248 H275 0.930 . S
C249 O262 1.281 . S
C249 O263 1.254 . S
C250 O264 1.236 . S
C250 O265 1.266 . S
C251 Tb241 2.809 . S
C251 C252 1.514 . S
C251 O266 1.248 . S
C251 O267 1.266 . S
C252 C251 1.514 . S
C252 C253 1.359 . S
C252 C257 1.348 . S
C253 C252 1.359 . S
C253 C254 1.380 . S
C253 H276 0.929 . S
C254 C253 1.380 . S
C254 C255 1.347 . S
C254 H277 0.931 . S
C255 C254 1.347 . S
C255 C256 1.369 . S
C256 C255 1.369 . S
C256 C257 1.408 . S
C256 H278 0.930 . S
C257 C252 1.348 . S
C257 C256 1.408 . S
C257 H279 0.930 . S
C258 O268 1.281 . S
C258 O269 1.254 . S
C259 O270 1.236 . S
C259 O271 1.266 . S
O260 Tb240 2.484 . S
O260 C242 1.248 . S
O261 Tb240 2.440 . S
O261 C242 1.266 . S
O262 Tb240 2.658 . S
O262 Tb241 2.325 . S
O262 C249 1.281 . S
O263 Tb240 2.409 . S
O263 C249 1.254 . S
O264 Tb240 2.378 . S
O264 C250 1.236 . S
O265 Tb241 2.341 . S
O265 C250 1.266 . S
O266 Tb241 2.484 . S
O266 C251 1.248 . S
O267 Tb241 2.440 . S
O267 C251 1.266 . S
O268 Tb240 2.325 . S
O268 Tb241 2.658 . S
O268 C258 1.281 . S
O269 Tb241 2.409 . S
O269 C258 1.254 . S
O270 Tb241 2.378 . S
O270 C259 1.236 . S
O271 Tb240 2.341 . S
O271 C259 1.266 . S
H272 C244 0.929 . S
H273 C245 0.931 . S
H274 C247 0.930 . S
H275 C248 0.930 . S
H276 C253 0.929 . S
H277 C254 0.931 . S
H278 C256 0.930 . S
H279 C257 0.930 . S
Tb280 C282 2.809 . S
Tb280 O300 2.484 . S
Tb280 O301 2.440 . S
Tb280 O302 2.658 1_655 S
Tb280 O303 2.409 1_655 S
Tb280 O304 2.378 1_655 S
Tb280 O308 2.325 . S
Tb280 O311 2.341 . S
Tb281 C291 2.809 . S
Tb281 O302 2.325 . S
Tb281 O305 2.341 . S
Tb281 O306 2.484 . S
Tb281 O307 2.440 . S
Tb281 O308 2.658 1_455 S
Tb281 O309 2.409 1_455 S
Tb281 O310 2.378 1_455 S
C282 Tb280 2.809 . S
C282 C283 1.514 . S
C282 O300 1.248 . S
C282 O301 1.266 . S
C283 C282 1.514 . S
C283 C284 1.359 . S
C283 C288 1.348 . S
C284 C283 1.359 . S
C284 C285 1.380 . S
C284 H312 0.929 . S
C285 C284 1.380 . S
C285 C286 1.347 . S
C285 H313 0.931 . S
C286 C285 1.347 . S
C286 C287 1.369 . S
C287 C286 1.369 . S
C287 C288 1.408 . S
C287 H314 0.930 . S
C288 C283 1.348 . S
C288 C287 1.408 . S
C288 H315 0.930 . S
C289 O302 1.281 . S
C289 O303 1.254 . S
C290 O304 1.236 . S
C290 O305 1.266 . S
C291 Tb281 2.809 . S
C291 C292 1.514 . S
C291 O306 1.248 . S
C291 O307 1.266 . S
C292 C291 1.514 . S
C292 C293 1.359 . S
C292 C297 1.348 . S
C293 C292 1.359 . S
C293 C294 1.380 . S
C293 H316 0.929 . S
C294 C293 1.380 . S
C294 C295 1.347 . S
C294 H317 0.931 . S
C295 C294 1.347 . S
C295 C296 1.369 . S
C296 C295 1.369 . S
C296 C297 1.408 . S
C296 H318 0.930 . S
C297 C292 1.348 . S
C297 C296 1.408 . S
C297 H319 0.930 . S
C298 O308 1.281 . S
C298 O309 1.254 . S
C299 O310 1.236 . S
C299 O311 1.266 . S
O300 Tb280 2.484 . S
O300 C282 1.248 . S
O301 Tb280 2.440 . S
O301 C282 1.266 . S
O302 Tb280 2.658 1_455 S
O302 Tb281 2.325 . S
O302 C289 1.281 . S
O303 Tb280 2.409 1_455 S
O303 C289 1.254 . S
O304 Tb280 2.378 1_455 S
O304 C290 1.236 . S
O305 Tb281 2.341 . S
O305 C290 1.266 . S
O306 Tb281 2.484 . S
O306 C291 1.248 . S
O307 Tb281 2.440 . S
O307 C291 1.266 . S
O308 Tb280 2.325 . S
O308 Tb281 2.658 1_655 S
O308 C298 1.281 . S
O309 Tb281 2.409 1_655 S
O309 C298 1.254 . S
O310 Tb281 2.378 1_655 S
O310 C299 1.236 . S
O311 Tb280 2.341 . S
O311 C299 1.266 . S
H312 C284 0.929 . S
H313 C285 0.931 . S
H314 C287 0.930 . S
H315 C288 0.930 . S
H316 C293 0.929 . S
H317 C294 0.931 . S
H318 C296 0.930 . S
H319 C297 0.930 . S
Tb320 C322 2.809 . S
Tb320 O340 2.484 . S
Tb320 O341 2.440 . S
Tb320 O342 2.658 . S
Tb320 O343 2.409 . S
Tb320 O344 2.378 . S
Tb320 O348 2.325 1_554 S
Tb320 O351 2.341 . S
Tb321 C331 2.809 . S
Tb321 O342 2.325 1_556 S
Tb321 O345 2.341 . S
Tb321 O346 2.484 . S
Tb321 O347 2.440 . S
Tb321 O348 2.658 . S
Tb321 O349 2.409 . S
Tb321 O350 2.378 . S
C322 Tb320 2.809 . S
C322 C323 1.514 . S
C322 O340 1.248 . S
C322 O341 1.266 . S
C323 C322 1.514 . S
C323 C324 1.359 . S
C323 C328 1.348 . S
C324 C323 1.359 . S
C324 C325 1.380 . S
C324 H352 0.929 1_554 S
C325 C324 1.380 . S
C325 C326 1.347 . S
C325 H353 0.931 1_554 S
C326 C325 1.347 . S
C326 C327 1.369 . S
C327 C326 1.369 . S
C327 C328 1.408 . S
C327 H354 0.930 . S
C328 C323 1.348 . S
C328 C327 1.408 . S
C328 H355 0.930 . S
C329 O342 1.281 . S
C329 O343 1.254 . S
C330 O344 1.236 1_556 S
C330 O345 1.266 . S
C331 Tb321 2.809 . S
C331 C332 1.514 . S
C331 O346 1.248 . S
C331 O347 1.266 . S
C332 C331 1.514 . S
C332 C333 1.359 . S
C332 C337 1.348 . S
C333 C332 1.359 . S
C333 C334 1.380 . S
C333 H356 0.929 1_556 S
C334 C333 1.380 . S
C334 C335 1.347 . S
C334 H357 0.931 1_556 S
C335 C334 1.347 . S
C335 C336 1.369 . S
C336 C335 1.369 . S
C336 C337 1.408 . S
C336 H358 0.930 . S
C337 C332 1.348 . S
C337 C336 1.408 . S
C337 H359 0.930 . S
C338 O348 1.281 . S
C338 O349 1.254 . S
C339 O350 1.236 1_554 S
C339 O351 1.266 . S
O340 Tb320 2.484 . S
O340 C322 1.248 . S
O341 Tb320 2.440 . S
O341 C322 1.266 . S
O342 Tb320 2.658 . S
O342 Tb321 2.325 1_554 S
O342 C329 1.281 . S
O343 Tb320 2.409 . S
O343 C329 1.254 . S
O344 Tb320 2.378 . S
O344 C330 1.236 1_554 S
O345 Tb321 2.341 . S
O345 C330 1.266 . S
O346 Tb321 2.484 . S
O346 C331 1.248 . S
O347 Tb321 2.440 . S
O347 C331 1.266 . S
O348 Tb320 2.325 1_556 S
O348 Tb321 2.658 . S
O348 C338 1.281 . S
O349 Tb321 2.409 . S
O349 C338 1.254 . S
O350 Tb321 2.378 . S
O350 C339 1.236 1_556 S
O351 Tb320 2.341 . S
O351 C339 1.266 . S
H352 C324 0.929 1_556 S
H353 C325 0.931 1_556 S
H354 C327 0.930 . S
H355 C328 0.930 . S
H356 C333 0.929 1_554 S
H357 C334 0.931 1_554 S
H358 C336 0.930 . S
H359 C337 0.930 . S
Tb360 C362 2.809 . S
Tb360 O380 2.484 . S
Tb360 O381 2.440 . S
Tb360 O382 2.658 1_565 S
Tb360 O383 2.409 1_565 S
Tb360 O384 2.376 1_565 S
Tb360 O388 2.325 . S
Tb360 O391 2.341 1_565 S
Tb361 C371 2.809 . S
Tb361 O382 2.325 . S
Tb361 O385 2.341 . S
Tb361 O386 2.484 . S
Tb361 O387 2.440 . S
Tb361 O388 2.658 1_545 S
Tb361 O389 2.409 1_545 S
Tb361 O390 2.378 . S
C362 Tb360 2.809 . S
C362 C363 1.514 . S
C362 O380 1.248 . S
C362 O381 1.266 . S
C363 C362 1.514 . S
C363 C364 1.359 . S
C363 C368 1.348 . S
C364 C363 1.359 . S
C364 C365 1.380 . S
C364 H392 0.929 . S
C365 C364 1.380 . S
C365 C366 1.347 . S
C365 H393 0.931 . S
C366 C365 1.347 . S
C366 C367 1.369 . S
C367 C366 1.369 . S
C367 C368 1.408 . S
C367 H394 0.930 . S
C368 C363 1.348 . S
C368 C367 1.408 . S
C368 H395 0.930 . S
C369 O382 1.281 . S
C369 O383 1.254 . S
C370 O384 1.238 1_565 S
C370 O385 1.267 1_565 S
C371 Tb361 2.809 . S
C371 C372 1.514 . S
C371 O386 1.248 . S
C371 O387 1.266 . S
C372 C371 1.514 . S
C372 C373 1.359 . S
C372 C377 1.348 . S
C373 C372 1.359 . S
C373 C374 1.380 . S
C373 H396 0.929 . S
C374 C373 1.380 . S
C374 C375 1.347 . S
C374 H397 0.931 . S
C375 C374 1.347 . S
C375 C376 1.369 . S
C376 C375 1.369 . S
C376 C377 1.408 . S
C376 H398 0.930 . S
C377 C372 1.348 . S
C377 C376 1.408 . S
C377 H399 0.930 . S
C378 O388 1.281 . S
C378 O389 1.254 . S
C379 O390 1.236 . S
C379 O391 1.266 . S
O380 Tb360 2.484 . S
O380 C362 1.248 . S
O381 Tb360 2.440 . S
O381 C362 1.266 . S
O382 Tb360 2.658 1_545 S
O382 Tb361 2.325 . S
O382 C369 1.281 . S
O383 Tb360 2.409 1_545 S
O383 C369 1.254 . S
O384 Tb360 2.376 1_545 S
O384 C370 1.238 1_545 S
O385 Tb361 2.341 . S
O385 C370 1.267 1_545 S
O386 Tb361 2.484 . S
O386 C371 1.248 . S
O387 Tb361 2.440 . S
O387 C371 1.266 . S
O388 Tb360 2.325 . S
O388 Tb361 2.658 1_565 S
O388 C378 1.281 . S
O389 Tb361 2.409 1_565 S
O389 C378 1.254 . S
O390 Tb361 2.378 . S
O390 C379 1.236 . S
O391 Tb360 2.341 1_545 S
O391 C379 1.266 . S
H392 C364 0.929 . S
H393 C365 0.931 . S
H394 C367 0.930 . S
H395 C368 0.930 . S
H396 C373 0.929 . S
H397 C374 0.931 . S
H398 C376 0.930 . S
H399 C377 0.930 . S
Tb400 C402 2.809 . S
Tb400 O420 2.484 . S
Tb400 O421 2.440 . S
Tb400 O422 2.658 . S
Tb400 O423 2.409 . S
Tb400 O424 2.378 . S
Tb400 O428 2.325 . S
Tb400 O431 2.341 . S
Tb401 C411 2.809 . S
Tb401 O422 2.325 . S
Tb401 O425 2.341 . S
Tb401 O426 2.484 . S
Tb401 O427 2.440 . S
Tb401 O428 2.658 . S
Tb401 O429 2.409 . S
Tb401 O430 2.378 . S
C402 Tb400 2.809 . S
C402 C403 1.514 . S
C402 O420 1.248 . S
C402 O421 1.266 . S
C403 C402 1.514 . S
C403 C404 1.359 . S
C403 C408 1.348 . S
C404 C403 1.359 . S
C404 C405 1.380 . S
C404 H432 0.929 . S
C405 C404 1.380 . S
C405 C406 1.347 . S
C405 H433 0.931 . S
C406 C405 1.347 . S
C406 C407 1.369 . S
C407 C406 1.369 . S
C407 C408 1.408 . S
C407 H434 0.930 . S
C408 C403 1.348 . S
C408 C407 1.408 . S
C408 H435 0.930 . S
C409 O422 1.281 . S
C409 O423 1.254 . S
C410 O424 1.236 . S
C410 O425 1.266 . S
C411 Tb401 2.809 . S
C411 C412 1.514 . S
C411 O426 1.248 . S
C411 O427 1.266 . S
C412 C411 1.514 . S
C412 C413 1.359 . S
C412 C417 1.348 . S
C413 C412 1.359 . S
C413 C414 1.380 . S
C413 H436 0.929 . S
C414 C413 1.380 . S
C414 C415 1.347 . S
C414 H437 0.931 . S
C415 C414 1.347 . S
C415 C416 1.369 . S
C416 C415 1.369 . S
C416 C417 1.408 . S
C416 H438 0.930 . S
C417 C412 1.348 . S
C417 C416 1.408 . S
C417 H439 0.930 . S
C418 O428 1.281 . S
C418 O429 1.254 . S
C419 O430 1.236 . S
C419 O431 1.266 . S
O420 Tb400 2.484 . S
O420 C402 1.248 . S
O421 Tb400 2.440 . S
O421 C402 1.266 . S
O422 Tb400 2.658 . S
O422 Tb401 2.325 . S
O422 C409 1.281 . S
O423 Tb400 2.409 . S
O423 C409 1.254 . S
O424 Tb400 2.378 . S
O424 C410 1.236 . S
O425 Tb401 2.341 . S
O425 C410 1.266 . S
O426 Tb401 2.484 . S
O426 C411 1.248 . S
O427 Tb401 2.440 . S
O427 C411 1.266 . S
O428 Tb400 2.325 . S
O428 Tb401 2.658 . S
O428 C418 1.281 . S
O429 Tb401 2.409 . S
O429 C418 1.254 . S
O430 Tb401 2.378 . S
O430 C419 1.236 . S
O431 Tb400 2.341 . S
O431 C419 1.266 . S
H432 C404 0.929 . S
H433 C405 0.931 . S
H434 C407 0.930 . S
H435 C408 0.930 . S
H436 C413 0.929 . S
H437 C414 0.931 . S
H438 C416 0.930 . S
H439 C417 0.930 . S
Tb440 C442 2.809 . S
Tb440 O460 2.485 . S
Tb440 O461 2.440 . S
Tb440 O462 2.658 . S
Tb440 O463 2.409 . S
Tb440 O464 2.378 1_455 S
Tb440 O468 2.325 1_455 S
Tb440 O471 2.341 . S
Tb441 C451 2.809 . S
Tb441 O462 2.325 1_655 S
Tb441 O465 2.341 . S
Tb441 O466 2.484 1_655 S
Tb441 O467 2.440 . S
Tb441 O468 2.658 . S
Tb441 O469 2.409 . S
Tb441 O470 2.378 1_655 S
C442 Tb440 2.809 . S
C442 C443 1.514 . S
C442 O460 1.255 . S
C442 O461 1.266 . S
C443 C442 1.514 . S
C443 C444 1.359 1_455 S
C443 C448 1.348 . S
C444 C443 1.359 1_655 S
C444 C445 1.380 . S
C444 H472 0.929 . S
C445 C444 1.380 . S
C445 C446 1.347 1_655 S
C445 H473 0.931 . S
C446 C445 1.347 1_455 S
C446 C447 1.369 . S
C447 C446 1.369 . S
C447 C448 1.408 . S
C447 H474 0.930 . S
C448 C443 1.348 . S
C448 C447 1.408 . S
C448 H475 0.930 . S
C449 O462 1.281 . S
C449 O463 1.254 . S
C450 O464 1.236 . S
C450 O465 1.266 . S
C451 Tb441 2.809 . S
C451 C452 1.514 . S
C451 O466 1.249 1_655 S
C451 O467 1.266 . S
C452 C451 1.514 . S
C452 C453 1.359 1_655 S
C452 C457 1.348 . S
C453 C452 1.359 1_455 S
C453 C454 1.380 . S
C453 H476 0.929 . S
C454 C453 1.380 . S
C454 C455 1.347 1_455 S
C454 H477 0.931 . S
C455 C454 1.347 1_655 S
C455 C456 1.369 . S
C456 C455 1.369 . S
C456 C457 1.408 . S
C456 H478 0.930 . S
C457 C452 1.348 . S
C457 C456 1.408 . S
C457 H479 0.930 . S
C458 O468 1.281 . S
C458 O469 1.254 . S
C459 O470 1.236 . S
C459 O471 1.266 . S
O460 Tb440 2.485 . S
O460 C442 1.255 . S
O461 Tb440 2.440 . S
O461 C442 1.266 . S
O462 Tb440 2.658 . S
O462 Tb441 2.325 1_455 S
O462 C449 1.281 . S
O463 Tb440 2.409 . S
O463 C449 1.254 . S
O464 Tb440 2.378 1_655 S
O464 C450 1.236 . S
O465 Tb441 2.341 . S
O465 C450 1.266 . S
O466 Tb441 2.484 1_455 S
O466 C451 1.249 1_455 S
O467 Tb441 2.440 . S
O467 C451 1.266 . S
O468 Tb440 2.325 1_655 S
O468 Tb441 2.658 . S
O468 C458 1.281 . S
O469 Tb441 2.409 . S
O469 C458 1.254 . S
O470 Tb441 2.378 1_455 S
O470 C459 1.236 . S
O471 Tb440 2.341 . S
O471 C459 1.266 . S
H472 C444 0.929 . S
H473 C445 0.931 . S
H474 C447 0.930 . S
H475 C448 0.930 . S
H476 C453 0.929 . S
H477 C454 0.931 . S
H478 C456 0.930 . S
H479 C457 0.930 . S
Tb480 C482 2.809 . S
Tb480 O500 2.484 . S
Tb480 O501 2.440 . S
Tb480 O502 2.658 . S
Tb480 O503 2.409 . S
Tb480 O504 2.378 . S
Tb480 O508 2.325 . S
Tb480 O511 2.341 . S
Tb481 C491 2.809 . S
Tb481 O502 2.325 . S
Tb481 O505 2.341 . S
Tb481 O506 2.484 . S
Tb481 O507 2.440 . S
Tb481 O508 2.658 . S
Tb481 O509 2.409 . S
Tb481 O510 2.378 . S
C482 Tb480 2.809 . S
C482 C483 1.514 . S
C482 O500 1.248 . S
C482 O501 1.266 . S
C483 C482 1.514 . S
C483 C484 1.359 . S
C483 C488 1.348 . S
C484 C483 1.359 . S
C484 C485 1.380 . S
C484 H512 0.929 . S
C485 C484 1.380 . S
C485 C486 1.347 . S
C485 H513 0.931 . S
C486 C485 1.347 . S
C486 C487 1.369 . S
C487 C486 1.369 . S
C487 C488 1.408 . S
C487 H514 0.930 . S
C488 C483 1.348 . S
C488 C487 1.408 . S
C488 H515 0.930 . S
C489 O502 1.281 . S
C489 O503 1.254 . S
C490 O504 1.236 . S
C490 O505 1.266 . S
C491 Tb481 2.809 . S
C491 C492 1.514 . S
C491 O506 1.248 . S
C491 O507 1.266 . S
C492 C491 1.514 . S
C492 C493 1.359 . S
C492 C497 1.348 . S
C493 C492 1.359 . S
C493 C494 1.380 . S
C493 H516 0.929 . S
C494 C493 1.380 . S
C494 C495 1.347 . S
C494 H517 0.931 . S
C495 C494 1.347 . S
C495 C496 1.369 . S
C496 C495 1.369 . S
C496 C497 1.408 . S
C496 H518 0.930 . S
C497 C492 1.348 . S
C497 C496 1.408 . S
C497 H519 0.930 . S
C498 O508 1.281 . S
C498 O509 1.254 . S
C499 O510 1.236 . S
C499 O511 1.266 . S
O500 Tb480 2.484 . S
O500 C482 1.248 . S
O501 Tb480 2.440 . S
O501 C482 1.266 . S
O502 Tb480 2.658 . S
O502 Tb481 2.325 . S
O502 C489 1.281 . S
O503 Tb480 2.409 . S
O503 C489 1.254 . S
O504 Tb480 2.378 . S
O504 C490 1.236 . S
O505 Tb481 2.341 . S
O505 C490 1.266 . S
O506 Tb481 2.484 . S
O506 C491 1.248 . S
O507 Tb481 2.440 . S
O507 C491 1.266 . S
O508 Tb480 2.325 . S
O508 Tb481 2.658 . S
O508 C498 1.281 . S
O509 Tb481 2.409 . S
O509 C498 1.254 . S
O510 Tb481 2.378 . S
O510 C499 1.236 . S
O511 Tb480 2.341 . S
O511 C499 1.266 . S
H512 C484 0.929 . S
H513 C485 0.931 . S
H514 C487 0.930 . S
H515 C488 0.930 . S
H516 C493 0.929 . S
H517 C494 0.931 . S
H518 C496 0.930 . S
H519 C497 0.930 . S
Tb520 C522 2.809 . S
Tb520 O540 2.484 . S
Tb520 O541 2.440 . S
Tb520 O542 2.658 . S
Tb520 O543 2.409 . S
Tb520 O544 2.378 . S
Tb520 O548 2.325 1_554 S
Tb520 O551 2.341 . S
Tb521 C531 2.809 . S
Tb521 O542 2.325 1_556 S
Tb521 O545 2.341 . S
Tb521 O546 2.484 . S
Tb521 O547 2.440 . S
Tb521 O548 2.658 . S
Tb521 O549 2.409 . S
Tb521 O550 2.378 . S
C522 Tb520 2.809 . S
C522 C523 1.514 . S
C522 O540 1.248 . S
C522 O541 1.266 . S
C523 C522 1.514 . S
C523 C524 1.359 . S
C523 C528 1.348 . S
C524 C523 1.359 . S
C524 C525 1.380 . S
C524 H552 0.929 1_554 S
C525 C524 1.380 . S
C525 C526 1.347 . S
C525 H553 0.931 1_554 S
C526 C525 1.347 . S
C526 C527 1.369 . S
C527 C526 1.369 . S
C527 C528 1.408 . S
C527 H554 0.930 . S
C528 C523 1.348 . S
C528 C527 1.408 . S
C528 H555 0.930 . S
C529 O542 1.281 . S
C529 O543 1.254 . S
C530 O544 1.236 1_556 S
C530 O545 1.266 . S
C531 Tb521 2.809 . S
C531 C532 1.514 . S
C531 O546 1.248 . S
C531 O547 1.266 . S
C532 C531 1.514 . S
C532 C533 1.359 . S
C532 C537 1.348 . S
C533 C532 1.359 . S
C533 C534 1.380 . S
C533 H556 0.929 1_556 S
C534 C533 1.380 . S
C534 C535 1.347 . S
C534 H557 0.931 1_556 S
C535 C534 1.347 . S
C535 C536 1.369 . S
C536 C535 1.369 . S
C536 C537 1.408 . S
C536 H558 0.930 . S
C537 C532 1.348 . S
C537 C536 1.408 . S
C537 H559 0.930 . S
C538 O548 1.281 . S
C538 O549 1.254 . S
C539 O550 1.236 1_554 S
C539 O551 1.266 . S
O540 Tb520 2.484 . S
O540 C522 1.248 . S
O541 Tb520 2.440 . S
O541 C522 1.266 . S
O542 Tb520 2.658 . S
O542 Tb521 2.325 1_554 S
O542 C529 1.281 . S
O543 Tb520 2.409 . S
O543 C529 1.254 . S
O544 Tb520 2.378 . S
O544 C530 1.236 1_554 S
O545 Tb521 2.341 . S
O545 C530 1.266 . S
O546 Tb521 2.484 . S
O546 C531 1.248 . S
O547 Tb521 2.440 . S
O547 C531 1.266 . S
O548 Tb520 2.325 1_556 S
O548 Tb521 2.658 . S
O548 C538 1.281 . S
O549 Tb521 2.409 . S
O549 C538 1.254 . S
O550 Tb521 2.378 . S
O550 C539 1.236 1_556 S
O551 Tb520 2.341 . S
O551 C539 1.266 . S
H552 C524 0.929 1_556 S
H553 C525 0.931 1_556 S
H554 C527 0.930 . S
H555 C528 0.930 . S
H556 C533 0.929 1_554 S
H557 C534 0.931 1_554 S
H558 C536 0.930 . S
H559 C537 0.930 . S
Tb560 C562 2.809 . S
Tb560 O580 2.484 . S
Tb560 O581 2.440 . S
Tb560 O582 2.658 . S
Tb560 O583 2.409 . S
Tb560 O584 2.378 . S
Tb560 O588 2.325 1_565 S
Tb560 O591 2.341 1_565 S
Tb561 C571 2.809 . S
Tb561 O582 2.325 1_545 S
Tb561 O585 2.341 1_545 S
Tb561 O586 2.484 . S
Tb561 O587 2.440 . S
Tb561 O588 2.658 . S
Tb561 O589 2.409 . S
Tb561 O590 2.378 . S
C562 Tb560 2.809 . S
C562 C563 1.514 . S
C562 O580 1.248 . S
C562 O581 1.266 . S
C563 C562 1.514 . S
C563 C564 1.359 . S
C563 C568 1.348 . S
C564 C563 1.359 . S
C564 C565 1.380 . S
C564 H592 0.929 . S
C565 C564 1.380 . S
C565 C566 1.347 . S
C565 H593 0.931 . S
C566 C565 1.347 . S
C566 C567 1.369 . S
C567 C566 1.369 . S
C567 C568 1.408 . S
C567 H594 0.930 . S
C568 C563 1.348 . S
C568 C567 1.408 . S
C568 H595 0.930 . S
C569 O582 1.281 . S
C569 O583 1.254 . S
C570 O584 1.236 . S
C570 O585 1.266 . S
C571 Tb561 2.809 . S
C571 C572 1.514 . S
C571 O586 1.248 . S
C571 O587 1.266 . S
C572 C571 1.514 . S
C572 C573 1.359 . S
C572 C577 1.348 . S
C573 C572 1.359 . S
C573 C574 1.380 . S
C573 H596 0.929 . S
C574 C573 1.380 . S
C574 C575 1.347 . S
C574 H597 0.931 . S
C575 C574 1.347 . S
C575 C576 1.369 . S
C576 C575 1.369 . S
C576 C577 1.408 . S
C576 H598 0.930 . S
C577 C572 1.348 . S
C577 C576 1.408 . S
C577 H599 0.930 . S
C578 O588 1.281 . S
C578 O589 1.254 . S
C579 O590 1.236 . S
C579 O591 1.266 . S
O580 Tb560 2.484 . S
O580 C562 1.248 . S
O581 Tb560 2.440 . S
O581 C562 1.266 . S
O582 Tb560 2.658 . S
O582 Tb561 2.325 1_565 S
O582 C569 1.281 . S
O583 Tb560 2.409 . S
O583 C569 1.254 . S
O584 Tb560 2.378 . S
O584 C570 1.236 . S
O585 Tb561 2.341 1_565 S
O585 C570 1.266 . S
O586 Tb561 2.484 . S
O586 C571 1.248 . S
O587 Tb561 2.440 . S
O587 C571 1.266 . S
O588 Tb560 2.325 1_545 S
O588 Tb561 2.658 . S
O588 C578 1.281 . S
O589 Tb561 2.409 . S
O589 C578 1.254 . S
O590 Tb561 2.378 . S
O590 C579 1.236 . S
O591 Tb560 2.341 1_545 S
O591 C579 1.266 . S
H592 C564 0.929 . S
H593 C565 0.931 . S
H594 C567 0.930 . S
H595 C568 0.930 . S
H596 C573 0.929 . S
H597 C574 0.931 . S
H598 C576 0.930 . S
H599 C577 0.930 . S
Tb600 C602 2.809 . S
Tb600 O620 2.484 . S
Tb600 O621 2.440 . S
Tb600 O622 2.658 . S
Tb600 O623 2.409 . S
Tb600 O624 2.378 . S
Tb600 O628 2.325 1_554 S
Tb600 O631 2.341 . S
Tb601 C611 2.809 . S
Tb601 O622 2.325 1_556 S
Tb601 O625 2.341 . S
Tb601 O626 2.484 . S
Tb601 O627 2.440 . S
Tb601 O628 2.658 . S
Tb601 O629 2.409 . S
Tb601 O630 2.378 . S
C602 Tb600 2.809 . S
C602 C603 1.514 . S
C602 O620 1.248 . S
C602 O621 1.266 . S
C603 C602 1.514 . S
C603 C604 1.359 . S
C603 C608 1.348 . S
C604 C603 1.359 . S
C604 C605 1.380 . S
C604 H632 0.929 1_554 S
C605 C604 1.380 . S
C605 C606 1.347 . S
C605 H633 0.931 1_554 S
C606 C605 1.347 . S
C606 C607 1.369 . S
C607 C606 1.369 . S
C607 C608 1.408 . S
C607 H634 0.930 . S
C608 C603 1.348 . S
C608 C607 1.408 . S
C608 H635 0.930 . S
C609 O622 1.281 . S
C609 O623 1.254 . S
C610 O624 1.236 1_556 S
C610 O625 1.266 . S
C611 Tb601 2.809 . S
C611 C612 1.514 . S
C611 O626 1.248 . S
C611 O627 1.266 . S
C612 C611 1.514 . S
C612 C613 1.359 . S
C612 C617 1.348 . S
C613 C612 1.359 . S
C613 C614 1.380 . S
C613 H636 0.929 1_556 S
C614 C613 1.380 . S
C614 C615 1.347 . S
C614 H637 0.931 1_556 S
C615 C614 1.347 . S
C615 C616 1.369 . S
C616 C615 1.369 . S
C616 C617 1.408 . S
C616 H638 0.930 . S
C617 C612 1.348 . S
C617 C616 1.408 . S
C617 H639 0.930 . S
C618 O628 1.281 . S
C618 O629 1.254 . S
C619 O630 1.236 1_554 S
C619 O631 1.266 . S
O620 Tb600 2.484 . S
O620 C602 1.248 . S
O621 Tb600 2.440 . S
O621 C602 1.266 . S
O622 Tb600 2.658 . S
O622 Tb601 2.325 1_554 S
O622 C609 1.281 . S
O623 Tb600 2.409 . S
O623 C609 1.254 . S
O624 Tb600 2.378 . S
O624 C610 1.236 1_554 S
O625 Tb601 2.341 . S
O625 C610 1.266 . S
O626 Tb601 2.484 . S
O626 C611 1.248 . S
O627 Tb601 2.440 . S
O627 C611 1.266 . S
O628 Tb600 2.325 1_556 S
O628 Tb601 2.658 . S
O628 C618 1.281 . S
O629 Tb601 2.409 . S
O629 C618 1.254 . S
O630 Tb601 2.378 . S
O630 C619 1.236 1_556 S
O631 Tb600 2.341 . S
O631 C619 1.266 . S
H632 C604 0.929 1_556 S
H633 C605 0.931 1_556 S
H634 C607 0.930 . S
H635 C608 0.930 . S
H636 C613 0.929 1_554 S
H637 C614 0.931 1_554 S
H638 C616 0.930 . S
H639 C617 0.930 . S
C640 C641 1.363 . S
C640 C646 1.379 1_554 S
C640 N648 1.356 1_654 S
C641 C640 1.363 . S
C641 C647 1.363 . S
C642 C643 1.363 . S
C642 C647 1.379 . S
C642 N649 1.356 . S
C643 C642 1.363 . S
C643 C646 1.363 1_554 S
N644 C646 1.356 1_455 S
N644 H656 0.984 . S
N644 H657 0.985 . S
N645 C647 1.356 . S
N645 H650 0.984 . S
N645 H651 0.985 . S
C646 C640 1.379 1_556 S
C646 C643 1.363 1_556 S
C646 N644 1.356 1_655 S
C647 C641 1.363 . S
C647 C642 1.379 . S
C647 N645 1.356 . S
N648 C640 1.356 1_456 S
N648 H654 0.984 . S
N648 H655 0.984 1_455 S
N649 C642 1.356 . S
N649 H652 0.984 . S
N649 H653 0.985 . S
H650 N645 0.984 . S
H651 N645 0.985 . S
H652 N649 0.984 . S
H653 N649 0.985 . S
H654 N648 0.984 . S
H655 N648 0.984 1_655 S
H656 N644 0.984 . S
H657 N644 0.985 . S
C658 C659 1.363 . S
C658 C664 1.379 . S
C658 N666 1.356 . S
C659 C658 1.363 . S
C659 C665 1.363 . S
C660 C661 1.363 . S
C660 C665 1.379 . S
C660 N667 1.356 . S
C661 C660 1.363 . S
C661 C664 1.363 . S
N662 C664 1.356 . S
N662 H674 0.984 1_655 S
N662 H675 0.985 . S
N663 C665 1.356 . S
N663 H668 0.984 . S
N663 H669 0.985 . S
C664 C658 1.379 . S
C664 C661 1.363 . S
C664 N662 1.356 . S
C665 C659 1.363 . S
C665 C660 1.379 . S
C665 N663 1.356 . S
N666 C658 1.356 . S
N666 H672 0.984 . S
N666 H673 0.984 . S
N667 C660 1.356 . S
N667 H670 0.984 . S
N667 H671 0.985 . S
H668 N663 0.984 . S
H669 N663 0.985 . S
H670 N667 0.984 . S
H671 N667 0.985 . S
H672 N666 0.984 . S
H673 N666 0.984 . S
H674 N662 0.984 1_455 S
H675 N662 0.985 . S
C676 C677 1.363 . S
C676 C682 1.379 . S
C676 N684 1.356 . S
C677 C676 1.363 . S
C677 C683 1.363 . S
C678 C679 1.363 . S
C678 C683 1.379 . S
C678 N685 1.356 . S
C679 C678 1.363 . S
C679 C682 1.363 . S
N680 C682 1.356 . S
N680 H692 0.984 . S
N680 H693 0.985 . S
N681 C683 1.356 . S
N681 H686 0.984 . S
N681 H687 0.985 . S
C682 C676 1.379 . S
C682 C679 1.363 . S
C682 N680 1.356 . S
C683 C677 1.363 . S
C683 C678 1.379 . S
C683 N681 1.356 . S
N684 C676 1.356 . S
N684 H690 0.984 . S
N684 H691 0.984 . S
N685 C678 1.356 . S
N685 H688 0.984 . S
N685 H689 0.985 . S
H686 N681 0.984 . S
H687 N681 0.985 . S
H688 N685 0.984 . S
H689 N685 0.985 . S
H690 N684 0.984 . S
H691 N684 0.984 . S
H692 N680 0.984 . S
H693 N680 0.985 . S
C694 C695 1.363 1_565 S
C694 C700 1.379 . S
C694 N702 1.356 . S
C695 C694 1.363 1_545 S
C695 C701 1.363 . S
C696 C697 1.321 1_545 S
C696 C701 1.379 . S
C696 N703 1.356 . S
C697 C696 1.321 1_565 S
C697 C700 1.373 . S
N698 C700 1.356 . S
N698 H710 0.984 . S
N698 H711 0.985 . S
N699 C701 1.356 . S
N699 H704 0.984 . S
N699 H705 0.985 . S
C700 C694 1.379 . S
C700 C697 1.373 . S
C700 N698 1.356 . S
C701 C695 1.363 . S
C701 C696 1.379 . S
C701 N699 1.356 . S
N702 C694 1.356 . S
N702 H708 0.984 . S
N702 H709 0.984 1_565 S
N703 C696 1.356 . S
N703 H706 0.984 . S
N703 H707 0.985 . S
H704 N699 0.984 . S
H705 N699 0.985 . S
H706 N703 0.984 . S
H707 N703 0.985 . S
H708 N702 0.984 . S
H709 N702 0.984 1_545 S
H710 N698 0.984 . S
H711 N698 0.985 . S
C712 C713 1.363 . S
C712 C718 1.379 1_565 S
C712 N720 1.356 . S
C713 C712 1.363 . S
C713 C719 1.363 . S
C714 C715 1.363 1_565 S
C714 C719 1.379 . S
C714 N721 1.356 . S
C715 C714 1.363 1_545 S
C715 C718 1.363 . S
N716 C718 1.356 . S
N716 H728 0.984 . S
N716 H729 0.985 . S
N717 C719 1.356 . S
N717 H722 0.984 . S
N717 H723 0.985 . S
C718 C712 1.379 1_545 S
C718 C715 1.363 . S
C718 N716 1.356 . S
C719 C713 1.363 . S
C719 C714 1.379 . S
C719 N717 1.356 . S
N720 C712 1.356 . S
N720 H726 0.984 . S
N720 H727 0.984 . S
N721 C714 1.356 . S
N721 H724 0.984 1_565 S
N721 H725 0.985 . S
H722 N717 0.984 . S
H723 N717 0.985 . S
H724 N721 0.984 1_545 S
H725 N721 0.985 . S
H726 N720 0.984 . S
H727 N720 0.984 . S
H728 N716 0.984 . S
H729 N716 0.985 . S
C730 C731 1.363 . S
C730 C736 1.379 . S
C730 N738 1.356 . S
C731 C730 1.363 . S
C731 C737 1.363 1_455 S
C732 C733 1.363 1_655 S
C732 C737 1.379 . S
C732 N739 1.356 . S
C733 C732 1.363 1_455 S
C733 C736 1.363 . S
N734 C736 1.356 . S
N734 H746 0.984 . S
N734 H747 0.985 . S
N735 C737 1.356 . S
N735 H740 0.984 . S
N735 H741 0.985 . S
C736 C730 1.379 . S
C736 C733 1.363 . S
C736 N734 1.356 . S
C737 C731 1.363 1_655 S
C737 C732 1.379 . S
C737 N735 1.356 . S
N738 C730 1.356 . S
N738 H744 0.984 . S
N738 H745 0.984 . S
N739 C732 1.356 . S
N739 H742 0.984 . S
N739 H743 0.985 . S
H740 N735 0.984 . S
H741 N735 0.985 . S
H742 N739 0.984 . S
H743 N739 0.985 . S
H744 N738 0.984 . S
H745 N738 0.984 . S
H746 N734 0.984 . S
H747 N734 0.985 . S
C748 C749 1.363 . S
C748 C754 1.379 . S
C748 N756 1.356 . S
C749 C748 1.363 . S
C749 C755 1.363 . S
C750 C751 1.363 . S
C750 C755 1.379 . S
C750 N757 1.356 . S
C751 C750 1.363 . S
C751 C754 1.363 . S
N752 C754 1.356 . S
N752 H764 0.984 . S
N752 H765 0.985 . S
N753 C755 1.356 . S
N753 H758 0.984 . S
N753 H759 0.985 . S
C754 C748 1.379 . S
C754 C751 1.363 . S
C754 N752 1.356 . S
C755 C749 1.363 . S
C755 C750 1.379 . S
C755 N753 1.356 . S
N756 C748 1.356 . S
N756 H762 0.984 . S
N756 H763 0.984 . S
N757 C750 1.356 . S
N757 H760 0.984 . S
N757 H761 0.985 . S
H758 N753 0.984 . S
H759 N753 0.985 . S
H760 N757 0.984 . S
H761 N757 0.985 . S
H762 N756 0.984 . S
H763 N756 0.984 . S
H764 N752 0.984 . S
H765 N752 0.985 . S
C766 C767 1.358 1_554 S
C766 C772 1.378 1_554 S
C766 N774 1.362 . S
C767 C766 1.358 1_556 S
C767 C773 1.363 . S
C768 C769 1.363 . S
C768 C773 1.379 . S
C768 N775 1.356 . S
C769 C768 1.363 . S
C769 C772 1.363 . S
N770 C772 1.356 1_554 S
N770 H782 0.984 . S
N770 H783 0.994 . S
N771 C773 1.356 . S
N771 H776 0.984 . S
N771 H777 0.985 . S
C772 C766 1.378 1_556 S
C772 C769 1.363 . S
C772 N770 1.356 1_556 S
C773 C767 1.363 . S
C773 C768 1.379 . S
C773 N771 1.356 . S
N774 C766 1.362 . S
N774 H780 0.984 . S
N774 H781 0.984 . S
N775 C768 1.356 . S
N775 H778 0.984 . S
N775 H779 0.985 . S
H776 N771 0.984 . S
H777 N771 0.985 . S
H778 N775 0.984 . S
H779 N775 0.985 . S
H780 N774 0.984 . S
H781 N774 0.984 . S
H782 N770 0.984 . S
H783 N770 0.994 . S
C784 C785 1.363 . S
C784 C790 1.379 . S
C784 N792 1.356 . S
C785 C784 1.363 . S
C785 C791 1.363 . S
C786 C787 1.363 . S
C786 C791 1.379 . S
C786 N793 1.356 . S
C787 C786 1.363 . S
C787 C790 1.363 . S
N788 C790 1.356 . S
N788 H800 0.984 . S
N788 H801 0.985 . S
N789 C791 1.356 . S
N789 H794 0.984 . S
N789 H795 0.985 . S
C790 C784 1.379 . S
C790 C787 1.363 . S
C790 N788 1.356 . S
C791 C785 1.363 . S
C791 C786 1.379 . S
C791 N789 1.356 . S
N792 C784 1.356 . S
N792 H798 0.984 . S
N792 H799 0.984 . S
N793 C786 1.356 . S
N793 H796 0.984 . S
N793 H797 0.985 . S
H794 N789 0.984 . S
H795 N789 0.985 . S
H796 N793 0.984 . S
H797 N793 0.985 . S
H798 N792 0.984 . S
H799 N792 0.984 . S
H800 N788 0.984 . S
H801 N788 0.985 . S
C802 C803 1.363 . S
C802 C808 1.379 . S
C802 N810 1.356 . S
C803 C802 1.363 . S
C803 C809 1.363 . S
C804 C805 1.363 . S
C804 C809 1.379 . S
C804 N811 1.356 . S
C805 C804 1.363 . S
C805 C808 1.363 . S
N806 C808 1.356 . S
N806 H818 0.984 . S
N806 H819 0.985 . S
N807 C809 1.356 . S
N807 H812 0.984 . S
N807 H813 0.985 . S
C808 C802 1.379 . S
C808 C805 1.363 . S
C808 N806 1.356 . S
C809 C803 1.363 . S
C809 C804 1.379 . S
C809 N807 1.356 . S
N810 C802 1.356 . S
N810 H816 0.984 . S
N810 H817 0.984 . S
N811 C804 1.356 . S
N811 H814 0.984 . S
N811 H815 0.985 . S
H812 N807 0.984 . S
H813 N807 0.985 . S
H814 N811 0.984 . S
H815 N811 0.985 . S
H816 N810 0.984 . S
H817 N810 0.984 . S
H818 N806 0.984 . S
H819 N806 0.985 . S
C820 C821 1.363 . S
C820 C826 1.379 . S
C820 N828 1.356 . S
C821 C820 1.363 . S
C821 C827 1.363 . S
C822 C823 1.363 . S
C822 C827 1.379 1_545 S
C822 N829 1.356 . S
C823 C822 1.363 . S
C823 C826 1.363 1_545 S
N824 C826 1.356 . S
N824 H836 0.984 . S
N824 H837 0.985 . S
N825 C827 1.333 . S
N825 H830 1.013 . S
N825 H831 0.981 1_565 S
C826 C820 1.379 . S
C826 C823 1.363 1_565 S
C826 N824 1.356 . S
C827 C821 1.363 . S
C827 C822 1.379 1_565 S
C827 N825 1.333 . S
N828 C820 1.356 . S
N828 H834 0.984 . S
N828 H835 0.984 . S
N829 C822 1.356 . S
N829 H832 0.984 . S
N829 H833 0.985 . S
H830 N825 1.013 . S
H831 N825 0.981 1_545 S
H832 N829 0.984 . S
H833 N829 0.985 . S
H834 N828 0.984 . S
H835 N828 0.984 . S
H836 N824 0.984 . S
H837 N824 0.985 . S
C838 C839 1.363 . S
C838 C844 1.379 . S
C838 N846 1.356 . S
C839 C838 1.363 . S
C839 C845 1.350 1_556 S
C840 C841 1.363 1_554 S
C840 C845 1.381 . S
C840 N847 1.356 . S
C841 C840 1.363 1_556 S
C841 C844 1.363 . S
N842 C844 1.356 1_655 S
N842 H854 0.984 . S
N842 H855 0.985 . S
N843 C845 1.364 . S
N843 H848 0.984 . S
N843 H849 0.985 . S
C844 C838 1.379 . S
C844 C841 1.363 . S
C844 N842 1.356 1_455 S
C845 C839 1.350 1_554 S
C845 C840 1.381 . S
C845 N843 1.364 . S
N846 C838 1.356 . S
N846 H852 0.984 1_455 S
N846 H853 0.984 . S
N847 C840 1.356 . S
N847 H850 0.984 . S
N847 H851 0.985 . S
H848 N843 0.984 . S
H849 N843 0.985 . S
H850 N847 0.984 . S
H851 N847 0.985 . S
H852 N846 0.984 1_655 S
H853 N846 0.984 . S
H854 N842 0.984 . S
H855 N842 0.985 . S
C856 C857 1.363 . S
C856 C862 1.379 . S
C856 N864 1.356 . S
C857 C856 1.363 . S
C857 C863 1.363 . S
C858 C859 1.363 . S
C858 C863 1.379 . S
C858 N865 1.356 1_556 S
C859 C858 1.363 . S
C859 C862 1.363 . S
N860 C862 1.356 . S
N860 H872 0.984 . S
N860 H873 0.985 . S
N861 C863 1.356 1_554 S
N861 H866 0.984 1_554 S
N861 H867 0.985 . S
C862 C856 1.379 . S
C862 C859 1.363 . S
C862 N860 1.356 . S
C863 C857 1.363 . S
C863 C858 1.379 . S
C863 N861 1.356 1_556 S
N864 C856 1.356 . S
N864 H870 0.984 . S
N864 H871 0.984 . S
N865 C858 1.356 1_554 S
N865 H868 0.984 1_554 S
N865 H869 0.985 . S
H866 N861 0.984 1_556 S
H867 N861 0.985 . S
H868 N865 0.984 1_556 S
H869 N865 0.985 . S
H870 N864 0.984 . S
H871 N864 0.984 . S
H872 N860 0.984 . S
H873 N860 0.985 . S
C874 C875 1.363 . S
C874 C880 1.379 . S
C874 N882 1.356 . S
C875 C874 1.363 . S
C875 C881 1.363 . S
C876 C877 1.363 . S
C876 C881 1.379 . S
C876 N883 1.356 . S
C877 C876 1.363 . S
C877 C880 1.363 . S
N878 C880 1.356 . S
N878 H890 0.984 . S
N878 H891 0.985 . S
N879 C881 1.356 . S
N879 H884 0.984 . S
N879 H885 0.985 . S
C880 C874 1.379 . S
C880 C877 1.363 . S
C880 N878 1.356 . S
C881 C875 1.363 . S
C881 C876 1.379 . S
C881 N879 1.356 . S
N882 C874 1.356 . S
N882 H888 0.984 . S
N882 H889 0.984 . S
N883 C876 1.356 . S
N883 H886 0.984 . S
N883 H887 0.985 . S
H884 N879 0.984 . S
H885 N879 0.985 . S
H886 N883 0.984 . S
H887 N883 0.985 . S
H888 N882 0.984 . S
H889 N882 0.984 . S
H890 N878 0.984 . S
H891 N878 0.985 . S
C892 C893 1.363 . S
C892 C898 1.379 . S
C892 N900 1.356 . S
C893 C892 1.363 . S
C893 C899 1.363 . S
C894 C895 1.363 . S
C894 C899 1.379 . S
C894 N901 1.356 . S
C895 C894 1.363 . S
C895 C898 1.363 . S
N896 C898 1.356 . S
N896 H908 0.984 . S
N896 H909 0.985 . S
N897 C899 1.356 . S
N897 H902 0.984 . S
N897 H903 0.985 . S
C898 C892 1.379 . S
C898 C895 1.363 . S
C898 N896 1.356 . S
C899 C893 1.363 . S
C899 C894 1.379 . S
C899 N897 1.356 . S
N900 C892 1.356 . S
N900 H906 0.984 . S
N900 H907 0.984 . S
N901 C894 1.356 . S
N901 H904 0.984 . S
N901 H905 0.985 . S
H902 N897 0.984 . S
H903 N897 0.985 . S
H904 N901 0.984 . S
H905 N901 0.985 . S
H906 N900 0.984 . S
H907 N900 0.984 . S
H908 N896 0.984 . S
H909 N896 0.985 . S
C910 C911 1.363 . S
C910 C916 1.379 . S
C910 N918 1.356 . S
C911 C910 1.363 . S
C911 C917 1.363 . S
C912 C913 1.363 . S
C912 C917 1.379 . S
C912 N919 1.356 . S
C913 C912 1.363 . S
C913 C916 1.363 . S
N914 C916 1.356 . S
N914 H926 0.984 . S
N914 H927 0.985 . S
N915 C917 1.356 . S
N915 H920 0.984 . S
N915 H921 0.985 . S
C916 C910 1.379 . S
C916 C913 1.363 . S
C916 N914 1.356 . S
C917 C911 1.363 . S
C917 C912 1.379 . S
C917 N915 1.356 . S
N918 C910 1.356 . S
N918 H924 0.984 . S
N918 H925 0.984 . S
N919 C912 1.356 . S
N919 H922 0.984 . S
N919 H923 0.985 . S
H920 N915 0.984 . S
H921 N915 0.985 . S
H922 N919 0.984 . S
H923 N919 0.985 . S
H924 N918 0.984 . S
H925 N918 0.984 . S
H926 N914 0.984 . S
H927 N914 0.985 . S
C928 C929 1.363 . S
C928 C934 1.379 . S
C928 N936 1.356 . S
C929 C928 1.363 . S
C929 C935 1.363 . S
C930 C931 1.363 . S
C930 C935 1.379 . S
C930 N937 1.356 . S
C931 C930 1.363 . S
C931 C934 1.363 . S
N932 C934 1.356 . S
N932 H944 0.984 . S
N932 H945 0.985 . S
N933 C935 1.356 . S
N933 H938 0.984 . S
N933 H939 0.985 . S
C934 C928 1.379 . S
C934 C931 1.363 . S
C934 N932 1.356 . S
C935 C929 1.363 . S
C935 C930 1.379 . S
C935 N933 1.356 . S
N936 C928 1.356 . S
N936 H942 0.984 . S
N936 H943 0.984 . S
N937 C930 1.356 . S
N937 H940 0.984 . S
N937 H941 0.985 . S
H938 N933 0.984 . S
H939 N933 0.985 . S
H940 N937 0.984 . S
H941 N937 0.985 . S
H942 N936 0.984 . S
H943 N936 0.984 . S
H944 N932 0.984 . S
H945 N932 0.985 . S
C946 C947 1.363 . S
C946 C952 1.379 . S
C946 N954 1.356 . S
C947 C946 1.363 . S
C947 C953 1.363 . S
C948 C949 1.363 . S
C948 C953 1.379 . S
C948 N955 1.356 . S
C949 C948 1.363 . S
C949 C952 1.363 . S
N950 C952 1.356 . S
N950 H962 0.984 . S
N950 H963 0.985 . S
N951 C953 1.356 . S
N951 H956 0.984 . S
N951 H957 0.985 . S
C952 C946 1.379 . S
C952 C949 1.363 . S
C952 N950 1.356 . S
C953 C947 1.363 . S
C953 C948 1.379 . S
C953 N951 1.356 . S
N954 C946 1.356 . S
N954 H960 0.984 . S
N954 H961 0.984 . S
N955 C948 1.356 . S
N955 H958 0.984 . S
N955 H959 0.985 . S
H956 N951 0.984 . S
H957 N951 0.985 . S
H958 N955 0.984 . S
H959 N955 0.985 . S
H960 N954 0.984 . S
H961 N954 0.984 . S
H962 N950 0.984 . S
H963 N950 0.985 . S
C964 C965 1.363 . S
C964 C970 1.379 . S
C964 N972 1.356 . S
C965 C964 1.363 . S
C965 C971 1.363 . S
C966 C967 1.363 . S
C966 C971 1.379 . S
C966 N973 1.356 . S
C967 C966 1.363 . S
C967 C970 1.363 . S
N968 C970 1.356 . S
N968 H980 0.984 . S
N968 H981 0.985 . S
N969 C971 1.356 . S
N969 H974 0.984 . S
N969 H975 0.985 . S
C970 C964 1.379 . S
C970 C967 1.363 . S
C970 N968 1.356 . S
C971 C965 1.363 . S
C971 C966 1.379 . S
C971 N969 1.356 . S
N972 C964 1.356 . S
N972 H978 0.984 . S
N972 H979 0.984 . S
N973 C966 1.356 . S
N973 H976 0.984 . S
N973 H977 0.985 . S
H974 N969 0.984 . S
H975 N969 0.985 . S
H976 N973 0.984 . S
H977 N973 0.985 . S
H978 N972 0.984 . S
H979 N972 0.984 . S
H980 N968 0.984 . S
H981 N968 0.985 . S
C982 C983 1.363 . S
C982 C988 1.379 . S
C982 N990 1.356 . S
C983 C982 1.363 . S
C983 C989 1.363 . S
C984 C985 1.363 . S
C984 C989 1.379 . S
C984 N991 1.356 . S
C985 C984 1.363 . S
C985 C988 1.363 . S
N986 C988 1.356 . S
N986 H998 0.984 . S
N986 H999 0.985 . S
N987 C989 1.356 . S
N987 H992 0.984 . S
N987 H993 0.985 . S
C988 C982 1.379 . S
C988 C985 1.363 . S
C988 N986 1.356 . S
C989 C983 1.363 . S
C989 C984 1.379 . S
C989 N987 1.356 . S
N990 C982 1.356 . S
N990 H996 0.984 . S
N990 H997 0.984 . S
N991 C984 1.356 . S
N991 H994 0.984 . S
N991 H995 0.985 . S
H992 N987 0.984 . S
H993 N987 0.985 . S
H994 N991 0.984 . S
H995 N991 0.985 . S
H996 N990 0.984 . S
H997 N990 0.984 . S
H998 N986 0.984 . S
H999 N986 0.985 . S
C1000 C1001 1.363 . S
C1000 C1006 1.379 . S
C1000 N1008 1.356 . S
C1001 C1000 1.363 . S
C1001 C1007 1.363 . S
C1002 C1003 1.363 . S
C1002 C1007 1.379 . S
C1002 N1009 1.356 . S
C1003 C1002 1.363 . S
C1003 C1006 1.363 . S
N1004 C1006 1.356 . S
N1004 H1016 0.984 . S
N1004 H1017 0.985 . S
N1005 C1007 1.356 . S
N1005 H1010 0.984 . S
N1005 H1011 0.985 . S
C1006 C1000 1.379 . S
C1006 C1003 1.363 . S
C1006 N1004 1.356 . S
C1007 C1001 1.363 . S
C1007 C1002 1.379 . S
C1007 N1005 1.356 . S
N1008 C1000 1.356 . S
N1008 H1014 0.984 . S
N1008 H1015 0.984 . S
N1009 C1002 1.356 . S
N1009 H1012 0.984 . S
N1009 H1013 0.985 . S
H1010 N1005 0.984 . S
H1011 N1005 0.985 . S
H1012 N1009 0.984 . S
H1013 N1009 0.985 . S
H1014 N1008 0.984 . S
H1015 N1008 0.984 . S
H1016 N1004 0.984 . S
H1017 N1004 0.985 . S
C1018 C1019 1.363 . S
C1018 C1024 1.379 . S
C1018 N1026 1.356 . S
C1019 C1018 1.363 . S
C1019 C1025 1.363 . S
C1020 C1021 1.363 . S
C1020 C1025 1.379 . S
C1020 N1027 1.356 . S
C1021 C1020 1.363 . S
C1021 C1024 1.363 . S
N1022 C1024 1.356 . S
N1022 H1034 0.984 . S
N1022 H1035 0.985 . S
N1023 C1025 1.356 . S
N1023 H1028 0.984 . S
N1023 H1029 0.985 . S
C1024 C1018 1.379 . S
C1024 C1021 1.363 . S
C1024 N1022 1.356 . S
C1025 C1019 1.363 . S
C1025 C1020 1.379 . S
C1025 N1023 1.356 . S
N1026 C1018 1.356 . S
N1026 H1032 0.984 1_655 S
N1026 H1033 0.984 . S
N1027 C1020 1.356 . S
N1027 H1030 0.984 . S
N1027 H1031 0.985 . S
H1028 N1023 0.984 . S
H1029 N1023 0.985 . S
H1030 N1027 0.984 . S
H1031 N1027 0.985 . S
H1032 N1026 0.984 1_455 S
H1033 N1026 0.984 . S
H1034 N1022 0.984 . S
H1035 N1022 0.985 . S
C1036 C1037 1.363 . S
C1036 C1042 1.379 . S
C1036 N1044 1.356 . S
C1037 C1036 1.363 . S
C1037 C1043 1.363 . S
C1038 C1039 1.363 . S
C1038 C1043 1.379 . S
C1038 N1045 1.356 . S
C1039 C1038 1.363 . S
C1039 C1042 1.363 . S
N1040 C1042 1.356 . S
N1040 H1052 0.984 . S
N1040 H1053 0.985 . S
N1041 C1043 1.356 . S
N1041 H1046 0.984 . S
N1041 H1047 0.985 . S
C1042 C1036 1.379 . S
C1042 C1039 1.363 . S
C1042 N1040 1.356 . S
C1043 C1037 1.363 . S
C1043 C1038 1.379 . S
C1043 N1041 1.356 . S
N1044 C1036 1.356 . S
N1044 H1050 0.984 . S
N1044 H1051 0.984 . S
N1045 C1038 1.356 . S
N1045 H1048 0.984 . S
N1045 H1049 0.985 . S
H1046 N1041 0.984 . S
H1047 N1041 0.985 . S
H1048 N1045 0.984 . S
H1049 N1045 0.985 . S
H1050 N1044 0.984 . S
H1051 N1044 0.984 . S
H1052 N1040 0.984 . S
H1053 N1040 0.985 . S
C1054 C1055 1.363 . S
C1054 C1060 1.379 . S
C1054 N1062 1.356 . S
C1055 C1054 1.363 . S
C1055 C1061 1.363 . S
C1056 C1057 1.363 . S
C1056 C1061 1.379 . S
C1056 N1063 1.356 1_554 S
C1057 C1056 1.363 . S
C1057 C1060 1.363 . S
N1058 C1060 1.356 . S
N1058 H1070 0.984 . S
N1058 H1071 0.985 . S
N1059 C1061 1.356 1_556 S
N1059 H1064 0.984 . S
N1059 H1065 0.985 . S
C1060 C1054 1.379 . S
C1060 C1057 1.363 . S
C1060 N1058 1.356 . S
C1061 C1055 1.363 . S
C1061 C1056 1.379 . S
C1061 N1059 1.356 1_554 S
N1062 C1054 1.356 . S
N1062 H1068 0.984 . S
N1062 H1069 0.984 . S
N1063 C1056 1.356 1_556 S
N1063 H1066 0.984 1_556 S
N1063 H1067 0.985 . S
H1064 N1059 0.984 . S
H1065 N1059 0.985 . S
H1066 N1063 0.984 1_554 S
H1067 N1063 0.985 . S
H1068 N1062 0.984 . S
H1069 N1062 0.984 . S
H1070 N1058 0.984 . S
H1071 N1058 0.985 . S
C1072 C1073 1.363 . S
C1072 C1078 1.379 . S
C1072 N1080 1.356 . S
C1073 C1072 1.363 . S
C1073 C1079 1.363 . S
C1074 C1075 1.363 . S
C1074 C1079 1.379 . S
C1074 N1081 1.356 . S
C1075 C1074 1.363 . S
C1075 C1078 1.363 . S
N1076 C1078 1.356 . S
N1076 H1088 0.984 . S
N1076 H1089 0.985 . S
N1077 C1079 1.356 . S
N1077 H1082 0.984 . S
N1077 H1083 0.985 . S
C1078 C1072 1.379 . S
C1078 C1075 1.363 . S
C1078 N1076 1.356 . S
C1079 C1073 1.363 . S
C1079 C1074 1.379 . S
C1079 N1077 1.356 . S
N1080 C1072 1.356 . S
N1080 H1086 0.984 . S
N1080 H1087 0.984 . S
N1081 C1074 1.356 . S
N1081 H1084 0.984 . S
N1081 H1085 0.985 . S
H1082 N1077 0.984 . S
H1083 N1077 0.985 . S
H1084 N1081 0.984 . S
H1085 N1081 0.985 . S
H1086 N1080 0.984 . S
H1087 N1080 0.984 . S
H1088 N1076 0.984 . S
H1089 N1076 0.985 . S
C1090 C1091 1.363 . S
C1090 C1096 1.379 . S
C1090 N1098 1.356 . S
C1091 C1090 1.363 . S
C1091 C1097 1.363 . S
C1092 C1093 1.363 . S
C1092 C1097 1.379 . S
C1092 N1099 1.356 . S
C1093 C1092 1.363 . S
C1093 C1096 1.363 . S
N1094 C1096 1.356 . S
N1094 H1106 0.984 . S
N1094 H1107 0.985 . S
N1095 C1097 1.356 . S
N1095 H1100 0.984 . S
N1095 H1101 0.985 . S
C1096 C1090 1.379 . S
C1096 C1093 1.363 . S
C1096 N1094 1.356 . S
C1097 C1091 1.363 . S
C1097 C1092 1.379 . S
C1097 N1095 1.356 . S
N1098 C1090 1.356 . S
N1098 H1104 0.984 . S
N1098 H1105 0.984 . S
N1099 C1092 1.356 . S
N1099 H1102 0.984 . S
N1099 H1103 0.985 . S
H1100 N1095 0.984 . S
H1101 N1095 0.985 . S
H1102 N1099 0.984 . S
H1103 N1099 0.985 . S
H1104 N1098 0.984 . S
H1105 N1098 0.984 . S
H1106 N1094 0.984 . S
H1107 N1094 0.985 . S
C1108 C1109 1.373 . S
C1108 C1114 1.379 . S
C1108 N1116 1.356 . S
C1109 C1108 1.373 . S
C1109 C1115 1.322 1_565 S
C1110 C1111 1.363 . S
C1110 C1115 1.379 . S
C1110 N1117 1.356 . S
C1111 C1110 1.363 . S
C1111 C1114 1.363 1_545 S
N1112 C1114 1.356 . S
N1112 H1124 0.984 . S
N1112 H1125 0.985 . S
N1113 C1115 1.356 . S
N1113 H1118 0.984 . S
N1113 H1119 0.985 . S
C1114 C1108 1.379 . S
C1114 C1111 1.363 1_565 S
C1114 N1112 1.356 . S
C1115 C1109 1.322 1_545 S
C1115 C1110 1.379 . S
C1115 N1113 1.356 . S
N1116 C1108 1.356 . S
N1116 H1122 0.984 . S
N1116 H1123 0.984 . S
N1117 C1110 1.356 . S
N1117 H1120 0.984 . S
N1117 H1121 0.985 . S
H1118 N1113 0.984 . S
H1119 N1113 0.985 . S
H1120 N1117 0.984 . S
H1121 N1117 0.985 . S
H1122 N1116 0.984 . S
H1123 N1116 0.984 . S
H1124 N1112 0.984 . S
H1125 N1112 0.985 . S
C1126 C1127 1.363 . S
C1126 C1132 1.379 . S
C1126 N1134 1.344 1_554 S
C1127 C1126 1.363 . S
C1127 C1133 1.363 . S
C1128 C1129 1.363 . S
C1128 C1133 1.379 . S
C1128 N1135 1.356 . S
C1129 C1128 1.363 . S
C1129 C1132 1.363 . S
N1130 C1132 1.343 1_556 S
N1130 H1142 1.004 . S
N1130 H1143 0.979 1_556 S
N1131 C1133 1.356 . S
N1131 H1136 0.984 . S
N1131 H1137 0.985 . S
C1132 C1126 1.379 . S
C1132 C1129 1.363 . S
C1132 N1130 1.343 1_554 S
C1133 C1127 1.363 . S
C1133 C1128 1.379 . S
C1133 N1131 1.356 . S
N1134 C1126 1.344 1_556 S
N1134 H1140 1.002 . S
N1134 H1141 0.979 1_556 S
N1135 C1128 1.356 . S
N1135 H1138 0.984 . S
N1135 H1139 0.985 . S
H1136 N1131 0.984 . S
H1137 N1131 0.985 . S
H1138 N1135 0.984 . S
H1139 N1135 0.985 . S
H1140 N1134 1.002 . S
H1141 N1134 0.979 1_554 S
H1142 N1130 1.004 . S
H1143 N1130 0.979 1_554 S
C1144 C1145 1.363 . S
C1144 C1150 1.379 . S
C1144 N1152 1.356 . S
C1145 C1144 1.363 . S
C1145 C1151 1.363 . S
C1146 C1147 1.363 . S
C1146 C1151 1.379 . S
C1146 N1153 1.356 . S
C1147 C1146 1.363 . S
C1147 C1150 1.363 . S
N1148 C1150 1.356 . S
N1148 H1160 0.984 . S
N1148 H1161 0.985 . S
N1149 C1151 1.356 . S
N1149 H1154 0.984 . S
N1149 H1155 0.985 . S
C1150 C1144 1.379 . S
C1150 C1147 1.363 . S
C1150 N1148 1.356 . S
C1151 C1145 1.363 . S
C1151 C1146 1.379 . S
C1151 N1149 1.356 . S
N1152 C1144 1.356 . S
N1152 H1158 0.984 . S
N1152 H1159 0.984 . S
N1153 C1146 1.356 . S
N1153 H1156 0.984 . S
N1153 H1157 0.985 . S
H1154 N1149 0.984 . S
H1155 N1149 0.985 . S
H1156 N1153 0.984 . S
H1157 N1153 0.985 . S
H1158 N1152 0.984 . S
H1159 N1152 0.984 . S
H1160 N1148 0.984 . S
H1161 N1148 0.985 . S
C1162 C1163 1.363 . S
C1162 C1168 1.379 . S
C1162 N1170 1.356 . S
C1163 C1162 1.363 . S
C1163 C1169 1.363 . S
C1164 C1165 1.363 . S
C1164 C1169 1.379 . S
C1164 N1171 1.356 . S
C1165 C1164 1.363 . S
C1165 C1168 1.363 . S
N1166 C1168 1.356 . S
N1166 H1178 0.984 . S
N1166 H1179 0.985 . S
N1167 C1169 1.356 . S
N1167 H1172 0.984 . S
N1167 H1173 0.985 . S
C1168 C1162 1.379 . S
C1168 C1165 1.363 . S
C1168 N1166 1.356 . S
C1169 C1163 1.363 . S
C1169 C1164 1.379 . S
C1169 N1167 1.356 . S
N1170 C1162 1.356 . S
N1170 H1176 0.984 . S
N1170 H1177 0.984 . S
N1171 C1164 1.356 . S
N1171 H1174 0.984 . S
N1171 H1175 0.985 . S
H1172 N1167 0.984 . S
H1173 N1167 0.985 . S
H1174 N1171 0.984 . S
H1175 N1171 0.985 . S
H1176 N1170 0.984 . S
H1177 N1170 0.984 . S
H1178 N1166 0.984 . S
H1179 N1166 0.985 . S
C1180 C1181 1.363 . S
C1180 C1186 1.379 . S
C1180 N1188 1.356 . S
C1181 C1180 1.363 . S
C1181 C1187 1.363 . S
C1182 C1183 1.363 . S
C1182 C1187 1.379 . S
C1182 N1189 1.356 . S
C1183 C1182 1.363 . S
C1183 C1186 1.363 . S
N1184 C1186 1.356 . S
N1184 H1196 0.984 . S
N1184 H1197 0.985 . S
N1185 C1187 1.356 . S
N1185 H1190 0.984 . S
N1185 H1191 0.985 . S
C1186 C1180 1.379 . S
C1186 C1183 1.363 . S
C1186 N1184 1.356 . S
C1187 C1181 1.363 . S
C1187 C1182 1.379 . S
C1187 N1185 1.356 . S
N1188 C1180 1.356 . S
N1188 H1194 0.984 . S
N1188 H1195 0.984 . S
N1189 C1182 1.356 . S
N1189 H1192 0.984 . S
N1189 H1193 0.985 . S
H1190 N1185 0.984 . S
H1191 N1185 0.985 . S
H1192 N1189 0.984 . S
H1193 N1189 0.985 . S
H1194 N1188 0.984 . S
H1195 N1188 0.984 . S
H1196 N1184 0.984 . S
H1197 N1184 0.985 . S
C1198 C1199 1.363 . S
C1198 C1204 1.379 . S
C1198 N1206 1.356 . S
C1199 C1198 1.363 . S
C1199 C1205 1.363 . S
C1200 C1201 1.363 . S
C1200 C1205 1.379 . S
C1200 N1207 1.356 . S
C1201 C1200 1.363 . S
C1201 C1204 1.363 . S
N1202 C1204 1.356 . S
N1202 H1214 0.984 . S
N1202 H1215 0.985 . S
N1203 C1205 1.356 . S
N1203 H1208 0.984 . S
N1203 H1209 0.985 . S
C1204 C1198 1.379 . S
C1204 C1201 1.363 . S
C1204 N1202 1.356 . S
C1205 C1199 1.363 . S
C1205 C1200 1.379 . S
C1205 N1203 1.356 . S
N1206 C1198 1.356 . S
N1206 H1212 0.984 . S
N1206 H1213 0.984 . S
N1207 C1200 1.356 . S
N1207 H1210 0.984 . S
N1207 H1211 0.985 . S
H1208 N1203 0.984 . S
H1209 N1203 0.985 . S
H1210 N1207 0.984 . S
H1211 N1207 0.985 . S
H1212 N1206 0.984 . S
H1213 N1206 0.984 . S
H1214 N1202 0.984 . S
H1215 N1202 0.985 . S
C1216 C1217 1.363 . S
C1216 C1222 1.379 . S
C1216 N1224 1.356 . S
C1217 C1216 1.363 . S
C1217 C1223 1.363 1_554 S
C1218 C1219 1.363 . S
C1218 C1223 1.379 1_554 S
C1218 N1225 1.356 1_554 S
C1219 C1218 1.363 . S
C1219 C1222 1.363 . S
N1220 C1222 1.356 . S
N1220 H1232 0.984 . S
N1220 H1233 0.985 . S
N1221 C1223 1.356 . S
N1221 H1226 0.984 . S
N1221 H1227 0.985 . S
C1222 C1216 1.379 . S
C1222 C1219 1.363 . S
C1222 N1220 1.356 . S
C1223 C1217 1.363 1_556 S
C1223 C1218 1.379 1_556 S
C1223 N1221 1.356 . S
N1224 C1216 1.356 . S
N1224 H1230 0.984 . S
N1224 H1231 0.984 . S
N1225 C1218 1.356 1_556 S
N1225 H1228 0.984 . S
N1225 H1229 0.985 . S
H1226 N1221 0.984 . S
H1227 N1221 0.985 . S
H1228 N1225 0.984 . S
H1229 N1225 0.985 . S
H1230 N1224 0.984 . S
H1231 N1224 0.984 . S
H1232 N1220 0.984 . S
H1233 N1220 0.985 . S
C1234 C1235 1.363 . S
C1234 C1240 1.379 . S
C1234 N1242 1.356 . S
C1235 C1234 1.363 . S
C1235 C1241 1.363 . S
C1236 C1237 1.363 . S
C1236 C1241 1.379 . S
C1236 N1243 1.356 . S
C1237 C1236 1.363 . S
C1237 C1240 1.363 . S
N1238 C1240 1.356 . S
N1238 H1250 0.984 . S
N1238 H1251 0.985 . S
N1239 C1241 1.356 . S
N1239 H1244 0.984 . S
N1239 H1245 0.985 . S
C1240 C1234 1.379 . S
C1240 C1237 1.363 . S
C1240 N1238 1.356 . S
C1241 C1235 1.363 . S
C1241 C1236 1.379 . S
C1241 N1239 1.356 . S
N1242 C1234 1.356 . S
N1242 H1248 0.984 . S
N1242 H1249 0.984 . S
N1243 C1236 1.356 . S
N1243 H1246 0.984 . S
N1243 H1247 0.985 . S
H1244 N1239 0.984 . S
H1245 N1239 0.985 . S
H1246 N1243 0.984 . S
H1247 N1243 0.985 . S
H1248 N1242 0.984 . S
H1249 N1242 0.984 . S
H1250 N1238 0.984 . S
H1251 N1238 0.985 . S
C1252 C1253 1.363 . S
C1252 C1258 1.379 . S
C1252 N1260 1.356 . S
C1253 C1252 1.363 . S
C1253 C1259 1.363 . S
C1254 C1255 1.363 . S
C1254 C1259 1.379 . S
C1254 N1261 1.356 . S
C1255 C1254 1.363 . S
C1255 C1258 1.363 . S
N1256 C1258 1.356 . S
N1256 H1268 0.984 . S
N1256 H1269 0.985 . S
N1257 C1259 1.356 . S
N1257 H1262 0.984 . S
N1257 H1263 0.985 . S
C1258 C1252 1.379 . S
C1258 C1255 1.363 . S
C1258 N1256 1.356 . S
C1259 C1253 1.363 . S
C1259 C1254 1.379 . S
C1259 N1257 1.356 . S
N1260 C1252 1.356 . S
N1260 H1266 0.984 . S
N1260 H1267 0.984 . S
N1261 C1254 1.356 . S
N1261 H1264 0.984 . S
N1261 H1265 0.985 . S
H1262 N1257 0.984 . S
H1263 N1257 0.985 . S
H1264 N1261 0.984 . S
H1265 N1261 0.985 . S
H1266 N1260 0.984 . S
H1267 N1260 0.984 . S
H1268 N1256 0.984 . S
H1269 N1256 0.985 . S
C1270 C1271 1.363 . S
C1270 C1276 1.379 . S
C1270 N1278 1.356 . S
C1271 C1270 1.363 . S
C1271 C1277 1.363 . S
C1272 C1273 1.363 . S
C1272 C1277 1.379 . S
C1272 N1279 1.356 . S
C1273 C1272 1.363 . S
C1273 C1276 1.363 . S
N1274 C1276 1.356 . S
N1274 H1286 0.984 . S
N1274 H1287 0.985 . S
N1275 C1277 1.356 . S
N1275 H1280 0.984 . S
N1275 H1281 0.985 . S
C1276 C1270 1.379 . S
C1276 C1273 1.363 . S
C1276 N1274 1.356 . S
C1277 C1271 1.363 . S
C1277 C1272 1.379 . S
C1277 N1275 1.356 . S
N1278 C1270 1.356 . S
N1278 H1284 0.984 . S
N1278 H1285 0.984 . S
N1279 C1272 1.356 . S
N1279 H1282 0.984 . S
N1279 H1283 0.985 . S
H1280 N1275 0.984 . S
H1281 N1275 0.985 . S
H1282 N1279 0.984 . S
H1283 N1279 0.985 . S
H1284 N1278 0.984 . S
H1285 N1278 0.984 . S
H1286 N1274 0.984 . S
H1287 N1274 0.985 . S
C1288 C1289 1.363 . S
C1288 C1294 1.379 . S
C1288 N1296 1.356 . S
C1289 C1288 1.363 . S
C1289 C1295 1.363 . S
C1290 C1291 1.363 . S
C1290 C1295 1.379 . S
C1290 N1297 1.356 . S
C1291 C1290 1.363 . S
C1291 C1294 1.363 . S
N1292 C1294 1.356 . S
N1292 H1304 0.984 . S
N1292 H1305 0.985 . S
N1293 C1295 1.356 . S
N1293 H1298 0.984 . S
N1293 H1299 0.985 . S
C1294 C1288 1.379 . S
C1294 C1291 1.363 . S
C1294 N1292 1.356 . S
C1295 C1289 1.363 . S
C1295 C1290 1.379 . S
C1295 N1293 1.356 . S
N1296 C1288 1.356 . S
N1296 H1302 0.984 . S
N1296 H1303 0.984 . S
N1297 C1290 1.356 . S
N1297 H1300 0.984 . S
N1297 H1301 0.985 . S
H1298 N1293 0.984 . S
H1299 N1293 0.985 . S
H1300 N1297 0.984 . S
H1301 N1297 0.985 . S
H1302 N1296 0.984 . S
H1303 N1296 0.984 . S
H1304 N1292 0.984 . S
H1305 N1292 0.985 . S
C1306 C1307 1.363 . S
C1306 C1312 1.379 . S
C1306 N1314 1.343 1_554 S
C1307 C1306 1.363 . S
C1307 C1313 1.363 . S
C1308 C1309 1.363 . S
C1308 C1313 1.379 . S
C1308 N1315 1.356 . S
C1309 C1308 1.363 . S
C1309 C1312 1.363 . S
N1310 C1312 1.344 1_556 S
N1310 H1322 1.003 . S
N1310 H1323 0.979 1_556 S
N1311 C1313 1.356 . S
N1311 H1316 0.984 . S
N1311 H1317 0.985 . S
C1312 C1306 1.379 . S
C1312 C1309 1.363 . S
C1312 N1310 1.344 1_554 S
C1313 C1307 1.363 . S
C1313 C1308 1.379 . S
C1313 N1311 1.356 . S
N1314 C1306 1.343 1_556 S
N1314 H1320 1.003 . S
N1314 H1321 0.979 1_556 S
N1315 C1308 1.356 . S
N1315 H1318 0.984 . S
N1315 H1319 0.985 . S
H1316 N1311 0.984 . S
H1317 N1311 0.985 . S
H1318 N1315 0.984 . S
H1319 N1315 0.985 . S
H1320 N1314 1.003 . S
H1321 N1314 0.979 1_554 S
H1322 N1310 1.003 . S
H1323 N1310 0.979 1_554 S
C1324 C1325 1.363 . S
C1324 C1330 1.379 . S
C1324 N1332 1.356 . S
C1325 C1324 1.363 . S
C1325 C1331 1.363 . S
C1326 C1327 1.363 . S
C1326 C1331 1.379 . S
C1326 N1333 1.356 . S
C1327 C1326 1.363 . S
C1327 C1330 1.363 . S
N1328 C1330 1.356 . S
N1328 H1340 0.984 . S
N1328 H1341 0.985 . S
N1329 C1331 1.356 . S
N1329 H1334 0.984 . S
N1329 H1335 0.985 . S
C1330 C1324 1.379 . S
C1330 C1327 1.363 . S
C1330 N1328 1.356 . S
C1331 C1325 1.363 . S
C1331 C1326 1.379 . S
C1331 N1329 1.356 . S
N1332 C1324 1.356 . S
N1332 H1338 0.984 . S
N1332 H1339 0.984 . S
N1333 C1326 1.356 . S
N1333 H1336 0.984 . S
N1333 H1337 0.985 . S
H1334 N1329 0.984 . S
H1335 N1329 0.985 . S
H1336 N1333 0.984 . S
H1337 N1333 0.985 . S
H1338 N1332 0.984 . S
H1339 N1332 0.984 . S
H1340 N1328 0.984 . S
H1341 N1328 0.985 . S
C1342 C1343 1.352 1_554 S
C1342 C1348 1.381 . S
C1342 N1350 1.363 . S
C1343 C1342 1.352 1_556 S
C1343 C1349 1.363 . S
C1344 C1345 1.363 . S
C1344 C1349 1.379 . S
C1344 N1351 1.356 . S
C1345 C1344 1.363 . S
C1345 C1348 1.363 1_556 S
N1346 C1348 1.356 . S
N1346 H1358 0.984 . S
N1346 H1359 0.985 . S
N1347 C1349 1.356 . S
N1347 H1352 0.984 . S
N1347 H1353 0.985 . S
C1348 C1342 1.381 . S
C1348 C1345 1.363 1_554 S
C1348 N1346 1.356 . S
C1349 C1343 1.363 . S
C1349 C1344 1.379 . S
C1349 N1347 1.356 . S
N1350 C1342 1.363 . S
N1350 H1356 0.984 . S
N1350 H1357 0.984 . S
N1351 C1344 1.356 . S
N1351 H1354 0.984 . S
N1351 H1355 0.985 . S
H1352 N1347 0.984 . S
H1353 N1347 0.985 . S
H1354 N1351 0.984 . S
H1355 N1351 0.985 . S
H1356 N1350 0.984 . S
H1357 N1350 0.984 . S
H1358 N1346 0.984 . S
H1359 N1346 0.985 . S
C1360 C1361 1.363 . S
C1360 C1366 1.379 . S
C1360 N1368 1.356 . S
C1361 C1360 1.363 . S
C1361 C1367 1.363 . S
C1362 C1363 1.363 . S
C1362 C1367 1.379 . S
C1362 N1369 1.356 . S
C1363 C1362 1.363 . S
C1363 C1366 1.363 . S
N1364 C1366 1.356 . S
N1364 H1376 0.984 . S
N1364 H1377 0.985 . S
N1365 C1367 1.356 . S
N1365 H1370 0.984 . S
N1365 H1371 0.985 . S
C1366 C1360 1.379 . S
C1366 C1363 1.363 . S
C1366 N1364 1.356 . S
C1367 C1361 1.363 . S
C1367 C1362 1.379 . S
C1367 N1365 1.356 . S
N1368 C1360 1.356 . S
N1368 H1374 0.984 . S
N1368 H1375 0.984 . S
N1369 C1362 1.356 . S
N1369 H1372 0.984 . S
N1369 H1373 0.985 . S
H1370 N1365 0.984 . S
H1371 N1365 0.985 . S
H1372 N1369 0.984 . S
H1373 N1369 0.985 . S
H1374 N1368 0.984 . S
H1375 N1368 0.984 . S
H1376 N1364 0.984 . S
H1377 N1364 0.985 . S
C1378 C1379 1.363 . S
C1378 C1384 1.379 . S
C1378 N1386 1.356 . S
C1379 C1378 1.363 . S
C1379 C1385 1.363 . S
C1380 C1381 1.363 . S
C1380 C1385 1.379 . S
C1380 N1387 1.356 . S
C1381 C1380 1.363 . S
C1381 C1384 1.363 . S
N1382 C1384 1.356 . S
N1382 H1394 0.984 . S
N1382 H1395 0.985 . S
N1383 C1385 1.356 . S
N1383 H1388 0.984 . S
N1383 H1389 0.985 . S
C1384 C1378 1.379 . S
C1384 C1381 1.363 . S
C1384 N1382 1.356 . S
C1385 C1379 1.363 . S
C1385 C1380 1.379 . S
C1385 N1383 1.356 . S
N1386 C1378 1.356 . S
N1386 H1392 0.984 . S
N1386 H1393 0.984 . S
N1387 C1380 1.356 . S
N1387 H1390 0.984 . S
N1387 H1391 0.985 . S
H1388 N1383 0.984 . S
H1389 N1383 0.985 . S
H1390 N1387 0.984 . S
H1391 N1387 0.985 . S
H1392 N1386 0.984 . S
H1393 N1386 0.984 . S
H1394 N1382 0.984 . S
H1395 N1382 0.985 . S
C1396 C1397 1.363 . S
C1396 C1402 1.379 . S
C1396 N1404 1.356 . S
C1397 C1396 1.363 . S
C1397 C1403 1.363 . S
C1398 C1399 1.363 . S
C1398 C1403 1.379 . S
C1398 N1405 1.356 1_556 S
C1399 C1398 1.363 . S
C1399 C1402 1.363 . S
N1400 C1402 1.356 . S
N1400 H1412 0.984 . S
N1400 H1413 0.985 . S
N1401 C1403 1.356 1_554 S
N1401 H1406 0.984 1_554 S
N1401 H1407 0.985 . S
C1402 C1396 1.379 . S
C1402 C1399 1.363 . S
C1402 N1400 1.356 . S
C1403 C1397 1.363 . S
C1403 C1398 1.379 . S
C1403 N1401 1.356 1_556 S
N1404 C1396 1.356 . S
N1404 H1410 0.984 . S
N1404 H1411 0.984 . S
N1405 C1398 1.356 1_554 S
N1405 H1408 0.984 1_554 S
N1405 H1409 0.985 . S
H1406 N1401 0.984 1_556 S
H1407 N1401 0.985 . S
H1408 N1405 0.984 1_556 S
H1409 N1405 0.985 . S
H1410 N1404 0.984 . S
H1411 N1404 0.984 . S
H1412 N1400 0.984 . S
H1413 N1400 0.985 . S
C1414 C1415 1.363 . S
C1414 C1420 1.379 . S
C1414 N1422 1.356 . S
C1415 C1414 1.363 . S
C1415 C1421 1.363 . S
C1416 C1417 1.363 . S
C1416 C1421 1.379 . S
C1416 N1423 1.356 . S
C1417 C1416 1.363 . S
C1417 C1420 1.363 . S
N1418 C1420 1.356 . S
N1418 H1430 0.984 . S
N1418 H1431 0.985 . S
N1419 C1421 1.356 . S
N1419 H1424 0.984 . S
N1419 H1425 0.985 . S
C1420 C1414 1.379 . S
C1420 C1417 1.363 . S
C1420 N1418 1.356 . S
C1421 C1415 1.363 . S
C1421 C1416 1.379 . S
C1421 N1419 1.356 . S
N1422 C1414 1.356 . S
N1422 H1428 0.984 . S
N1422 H1429 0.984 . S
N1423 C1416 1.356 . S
N1423 H1426 0.984 . S
N1423 H1427 0.985 . S
H1424 N1419 0.984 . S
H1425 N1419 0.985 . S
H1426 N1423 0.984 . S
H1427 N1423 0.985 . S
H1428 N1422 0.984 . S
H1429 N1422 0.984 . S
H1430 N1418 0.984 . S
H1431 N1418 0.985 . S
C1432 C1433 1.363 . S
C1432 C1438 1.379 . S
C1432 N1440 1.356 . S
C1433 C1432 1.363 . S
C1433 C1439 1.363 . S
C1434 C1435 1.363 . S
C1434 C1439 1.379 . S
C1434 N1441 1.356 . S
C1435 C1434 1.363 . S
C1435 C1438 1.363 . S
N1436 C1438 1.356 . S
N1436 H1448 0.984 . S
N1436 H1449 0.985 . S
N1437 C1439 1.356 . S
N1437 H1442 0.984 . S
N1437 H1443 0.985 . S
C1438 C1432 1.379 . S
C1438 C1435 1.363 . S
C1438 N1436 1.356 . S
C1439 C1433 1.363 . S
C1439 C1434 1.379 . S
C1439 N1437 1.356 . S
N1440 C1432 1.356 . S
N1440 H1446 0.984 . S
N1440 H1447 0.984 . S
N1441 C1434 1.356 . S
N1441 H1444 0.984 . S
N1441 H1445 0.985 . S
H1442 N1437 0.984 . S
H1443 N1437 0.985 . S
H1444 N1441 0.984 . S
H1445 N1441 0.985 . S
H1446 N1440 0.984 . S
H1447 N1440 0.984 . S
H1448 N1436 0.984 . S
H1449 N1436 0.985 . S
C1450 C1451 1.363 . S
C1450 C1456 1.379 . S
C1450 N1458 1.356 . S
C1451 C1450 1.363 . S
C1451 C1457 1.363 1_556 S
C1452 C1453 1.361 . S
C1452 C1457 1.379 1_556 S
C1452 N1459 1.358 1_556 S
C1453 C1452 1.361 . S
C1453 C1456 1.363 . S
N1454 C1456 1.356 . S
N1454 H1466 0.984 . S
N1454 H1467 0.985 . S
N1455 C1457 1.356 . S
N1455 H1460 0.984 . S
N1455 H1461 0.985 . S
C1456 C1450 1.379 . S
C1456 C1453 1.363 . S
C1456 N1454 1.356 . S
C1457 C1451 1.363 1_554 S
C1457 C1452 1.379 1_554 S
C1457 N1455 1.356 . S
N1458 C1450 1.356 . S
N1458 H1464 0.984 . S
N1458 H1465 0.984 . S
N1459 C1452 1.358 1_554 S
N1459 H1462 0.984 . S
N1459 H1463 0.985 . S
H1460 N1455 0.984 . S
H1461 N1455 0.985 . S
H1462 N1459 0.984 . S
H1463 N1459 0.985 . S
H1464 N1458 0.984 . S
H1465 N1458 0.984 . S
H1466 N1454 0.984 . S
H1467 N1454 0.985 . S
C1468 C1469 1.363 . S
C1468 C1474 1.379 . S
C1468 N1476 1.356 . S
C1469 C1468 1.363 . S
C1469 C1475 1.363 . S
C1470 C1471 1.363 . S
C1470 C1475 1.379 . S
C1470 N1477 1.356 . S
C1471 C1470 1.363 . S
C1471 C1474 1.363 . S
N1472 C1474 1.356 . S
N1472 H1484 0.984 . S
N1472 H1485 0.985 . S
N1473 C1475 1.356 . S
N1473 H1478 0.984 . S
N1473 H1479 0.985 . S
C1474 C1468 1.379 . S
C1474 C1471 1.363 . S
C1474 N1472 1.356 . S
C1475 C1469 1.363 . S
C1475 C1470 1.379 . S
C1475 N1473 1.356 . S
N1476 C1468 1.356 . S
N1476 H1482 0.984 . S
N1476 H1483 0.984 . S
N1477 C1470 1.356 . S
N1477 H1480 0.984 . S
N1477 H1481 0.985 . S
H1478 N1473 0.984 . S
H1479 N1473 0.985 . S
H1480 N1477 0.984 . S
H1481 N1477 0.985 . S
H1482 N1476 0.984 . S
H1483 N1476 0.984 . S
H1484 N1472 0.984 . S
H1485 N1472 0.985 . S
C1486 C1487 1.363 . S
C1486 C1492 1.379 . S
C1486 N1494 1.356 . S
C1487 C1486 1.363 . S
C1487 C1493 1.359 1_554 S
C1488 C1489 1.363 1_556 S
C1488 C1493 1.379 . S
C1488 N1495 1.356 . S
C1489 C1488 1.363 1_554 S
C1489 C1492 1.363 . S
N1490 C1492 1.356 . S
N1490 H1502 0.984 . S
N1490 H1503 0.985 . S
N1491 C1493 1.359 . S
N1491 H1496 0.984 . S
N1491 H1497 0.985 . S
C1492 C1486 1.379 . S
C1492 C1489 1.363 . S
C1492 N1490 1.356 . S
C1493 C1487 1.359 1_556 S
C1493 C1488 1.379 . S
C1493 N1491 1.359 . S
N1494 C1486 1.356 . S
N1494 H1500 0.984 . S
N1494 H1501 0.984 . S
N1495 C1488 1.356 . S
N1495 H1498 0.984 . S
N1495 H1499 0.985 . S
H1496 N1491 0.984 . S
H1497 N1491 0.985 . S
H1498 N1495 0.984 . S
H1499 N1495 0.985 . S
H1500 N1494 0.984 . S
H1501 N1494 0.984 . S
H1502 N1490 0.984 . S
H1503 N1490 0.985 . S
C641 C19 2.277 . S
C643 C55 2.065 . S
C659 C98 1.947 . S
C661 C50 1.927 . S
C677 C135 2.065 . S
C679 C99 2.278 . S
C695 C18 1.946 . S
C697 C130 1.949 . S
C713 C9 1.947 . S
C715 C379 1.927 . S
C731 C290 2.277 . S
C733 C46 2.065 . S
C749 C89 1.947 . S
C751 C419 1.927 . S
C767 C126 2.065 . S
C769 C530 2.277 . S
C785 C329 1.947 . S
C787 C59 1.927 . S
C803 C486 2.065 . S
C805 C90 2.278 . S
C821 C569 1.948 . S
C823 C139 1.928 . S
C839 C10 2.278 . S
C841 C446 2.066 . S
C857 C15 0.382 . S
C859 C335 0.382 . S
C875 C489 2.062 . S
C877 C169 2.062 . S
C893 C206 0.387 . S
C895 C566 0.387 . S
C911 C449 2.062 . S
C913 C249 2.062 . S
C929 C86 0.382 . S
C931 C286 0.382 . S
C947 C378 2.062 . S
C949 C178 2.062 . S
C965 C258 2.062 . S
C967 C418 2.062 . S
C983 C209 1.946 . S
C985 C459 1.927 . S
C1001 C366 2.065 . S
C1003 C210 2.277 . S
C1019 C455 2.066 . S
C1021 C299 2.278 . S
C1037 C218 1.947 . S
C1039 C170 1.927 . S
C1055 C375 2.065 . S
C1057 C339 2.278 . S
C1073 C538 1.946 . S
C1075 C450 1.927 . S
C1091 C255 2.065 . S
C1093 C219 2.277 . S
C1109 C370 1.947 . S
C1111 C578 1.945 . S
C1127 C526 0.386 . S
C1129 C6 0.386 . S
C1145 C95 0.381 . S
C1147 C575 0.381 . S
C1163 C498 2.062 . S
C1165 C58 2.062 . S
C1181 C295 0.387 . S
C1183 C215 0.387 . S
C1199 C129 2.062 . S
C1201 C409 2.062 . S
C1217 C495 2.065 . S
C1219 C539 2.277 . S
C1235 C298 1.947 . S
C1237 C490 1.927 . S
C1253 C259 1.927 . S
C1255 C289 1.946 . S
C1271 C179 1.927 . S
C1273 C529 1.947 . S
C1289 C499 1.927 . S
C1291 C609 1.946 . S
C1307 C606 0.383 . S
C1309 C326 0.383 . S
C1325 C49 2.062 . S
C1327 C369 2.062 . S
C1343 C330 2.278 . S
C1345 C246 2.065 . S
C1361 C338 1.947 . S
C1363 C410 1.927 . S
C1379 C618 1.947 . S
C1381 C250 1.928 . S
C1397 C535 0.385 . S
C1399 C615 0.386 . S
C1415 C458 2.062 . S
C1417 C138 2.062 . S
C1433 C415 2.065 . S
C1435 C579 2.277 . S
C1451 C406 2.065 . S
C1453 C610 2.277 . S
C1469 C166 2.066 . S
C1471 C570 2.278 . S
C1487 C619 2.278 . S
C1489 C175 2.066 . S
