# Generated by pormake.
# Topology wgf, (5)-cn, num edge types: 1
# Building blocks:
#     Node 0, Type 0, BuildingBlock: XOMCOT_clean_sbu_1, # of connection points: 5
#     Node 1, Type 0, BuildingBlock: XOMCOT_clean_sbu_1, # of connection points: 5
#     Node 2, Type 0, BuildingBlock: XOMCOT_clean_sbu_1, # of connection points: 5
#     Node 3, Type 0, BuildingBlock: XOMCOT_clean_sbu_1, # of connection points: 5
#     Node 4, Type 0, BuildingBlock: XOMCOT_clean_sbu_1, # of connection points: 5
#     Node 5, Type 0, BuildingBlock: XOMCOT_clean_sbu_1, # of connection points: 5
#     Node 6, Type 0, BuildingBlock: XOMCOT_clean_sbu_1, # of connection points: 5
#     Node 7, Type 0, BuildingBlock: XOMCOT_clean_sbu_1, # of connection points: 5
#     Node 8, Type 0, BuildingBlock: XOMCOT_clean_sbu_1, # of connection points: 5
#     Node 9, Type 0, BuildingBlock: XOMCOT_clean_sbu_1, # of connection points: 5
#     Node 10, Type 0, BuildingBlock: XOMCOT_clean_sbu_1, # of connection points: 5
#     Node 11, Type 0, BuildingBlock: XOMCOT_clean_sbu_1, # of connection points: 5
#     Node 12, Type 0, BuildingBlock: XOMCOT_clean_sbu_1, # of connection points: 5
#     Node 13, Type 0, BuildingBlock: XOMCOT_clean_sbu_1, # of connection points: 5
#     Node 14, Type 0, BuildingBlock: XOMCOT_clean_sbu_1, # of connection points: 5
#     Node 15, Type 0, BuildingBlock: XOMCOT_clean_sbu_1, # of connection points: 5
#     Node 16, Type 0, BuildingBlock: XOMCOT_clean_sbu_1, # of connection points: 5
#     Node 17, Type 0, BuildingBlock: XOMCOT_clean_sbu_1, # of connection points: 5
#     Node 18, Type 0, BuildingBlock: XOMCOT_clean_sbu_1, # of connection points: 5
#     Node 19, Type 0, BuildingBlock: XOMCOT_clean_sbu_1, # of connection points: 5
#     Node 20, Type 0, BuildingBlock: XOMCOT_clean_sbu_1, # of connection points: 5
#     Node 21, Type 0, BuildingBlock: XOMCOT_clean_sbu_1, # of connection points: 5
#     Node 22, Type 0, BuildingBlock: XOMCOT_clean_sbu_1, # of connection points: 5
#     Node 23, Type 0, BuildingBlock: XOMCOT_clean_sbu_1, # of connection points: 5
#     Node 24, Type 0, BuildingBlock: XOMCOT_clean_sbu_1, # of connection points: 5
#     Node 25, Type 0, BuildingBlock: XOMCOT_clean_sbu_1, # of connection points: 5
#     Node 26, Type 0, BuildingBlock: XOMCOT_clean_sbu_1, # of connection points: 5
#     Node 27, Type 0, BuildingBlock: XOMCOT_clean_sbu_1, # of connection points: 5
#     Node 28, Type 0, BuildingBlock: XOMCOT_clean_sbu_1, # of connection points: 5
#     Node 29, Type 0, BuildingBlock: XOMCOT_clean_sbu_1, # of connection points: 5
#     Node 30, Type 0, BuildingBlock: XOMCOT_clean_sbu_1, # of connection points: 5
#     Node 31, Type 0, BuildingBlock: XOMCOT_clean_sbu_1, # of connection points: 5
#     Edge 32, Type (0, 0), None
#     Edge 33, Type (0, 0), None
#     Edge 34, Type (0, 0), None
#     Edge 35, Type (0, 0), None
#     Edge 36, Type (0, 0), None
#     Edge 37, Type (0, 0), None
#     Edge 38, Type (0, 0), None
#     Edge 39, Type (0, 0), None
#     Edge 40, Type (0, 0), None
#     Edge 41, Type (0, 0), None
#     Edge 42, Type (0, 0), None
#     Edge 43, Type (0, 0), None
#     Edge 44, Type (0, 0), None
#     Edge 45, Type (0, 0), None
#     Edge 46, Type (0, 0), None
#     Edge 47, Type (0, 0), None
#     Edge 48, Type (0, 0), None
#     Edge 49, Type (0, 0), None
#     Edge 50, Type (0, 0), None
#     Edge 51, Type (0, 0), None
#     Edge 52, Type (0, 0), None
#     Edge 53, Type (0, 0), None
#     Edge 54, Type (0, 0), None
#     Edge 55, Type (0, 0), None
#     Edge 56, Type (0, 0), None
#     Edge 57, Type (0, 0), None
#     Edge 58, Type (0, 0), None
#     Edge 59, Type (0, 0), None
#     Edge 60, Type (0, 0), None
#     Edge 61, Type (0, 0), None
#     Edge 62, Type (0, 0), None
#     Edge 63, Type (0, 0), None
#     Edge 64, Type (0, 0), None
#     Edge 65, Type (0, 0), None
#     Edge 66, Type (0, 0), None
#     Edge 67, Type (0, 0), None
#     Edge 68, Type (0, 0), None
#     Edge 69, Type (0, 0), None
#     Edge 70, Type (0, 0), None
#     Edge 71, Type (0, 0), None
#     Edge 72, Type (0, 0), None
#     Edge 73, Type (0, 0), None
#     Edge 74, Type (0, 0), None
#     Edge 75, Type (0, 0), None
#     Edge 76, Type (0, 0), None
#     Edge 77, Type (0, 0), None
#     Edge 78, Type (0, 0), None
#     Edge 79, Type (0, 0), None
#     Edge 80, Type (0, 0), None
#     Edge 81, Type (0, 0), None
#     Edge 82, Type (0, 0), None
#     Edge 83, Type (0, 0), None
#     Edge 84, Type (0, 0), None
#     Edge 85, Type (0, 0), None
#     Edge 86, Type (0, 0), None
#     Edge 87, Type (0, 0), None
#     Edge 88, Type (0, 0), None
#     Edge 89, Type (0, 0), None
#     Edge 90, Type (0, 0), None
#     Edge 91, Type (0, 0), None
#     Edge 92, Type (0, 0), None
#     Edge 93, Type (0, 0), None
#     Edge 94, Type (0, 0), None
#     Edge 95, Type (0, 0), None
#     Edge 96, Type (0, 0), None
#     Edge 97, Type (0, 0), None
#     Edge 98, Type (0, 0), None
#     Edge 99, Type (0, 0), None
#     Edge 100, Type (0, 0), None
#     Edge 101, Type (0, 0), None
#     Edge 102, Type (0, 0), None
#     Edge 103, Type (0, 0), None
#     Edge 104, Type (0, 0), None
#     Edge 105, Type (0, 0), None
#     Edge 106, Type (0, 0), None
#     Edge 107, Type (0, 0), None
#     Edge 108, Type (0, 0), None
#     Edge 109, Type (0, 0), None
#     Edge 110, Type (0, 0), None
#     Edge 111, Type (0, 0), None
# Relax obj value: 0.469
# Max RMSD: 0.213
# Mean RMSD: 0.205
data_MOF--net-wgf--node1-XOMCOT_clean_sbu_1--edge1-none
_symmetry_space_group_name_H-M    P1
_symmetry_Int_Tables_number       1
_symmetry_cell_setting            triclinic
loop_
_symmetry_equiv_pos_as_xyz
'x, y, z'
_cell_length_a     47.566598
_cell_length_b     47.521885
_cell_length_c     11.615719
_cell_angle_alpha  89.9996
_cell_angle_beta   89.982885
_cell_angle_gamma 89.999579
loop_
_atom_site_label
_atom_site_type_symbol
_atom_site_fract_x
_atom_site_fract_y
_atom_site_fract_z
_atom_type_partial_charge
C0 C 0.03467 0.11049 0.11731 0.0
C1 C 0.01951 0.12493 0.1989 0.0
N2 N 1.00389 0.10604 0.25631 0.0
N3 N 0.02935 0.08271 0.12885 0.0
C4 C 0.00959 0.08084 0.20928 0.0
H5 H 0.05121 0.1192 0.06433 0.0
Co6 Co 0.05182 0.05459 0.0777 0.0
C7 C 0.04044 0.01964 0.32617 0.0
O8 O 0.0389 0.03922 0.40544 0.0
N9 N 0.07555 0.02802 1.02397 0.0
C10 C 0.10922 0.99663 0.99868 0.0
C11 C 0.09047 0.00761 0.07664 0.0
C12 C 0.08648 0.03004 0.91879 0.0
N13 N 0.1065 0.01087 0.89893 0.0
O14 O 0.01891 0.03967 0.98544 0.0
H15 H 0.08785 1.00087 0.16482 0.0
H16 H 0.07829 0.04383 0.85312 0.0
O17 O 0.04439 0.02689 0.21867 0.0
C18 C 0.01417 0.04953 0.88284 0.0
O19 O 0.03263 0.06679 0.83756 0.0
N20 N 0.08308 0.0724 0.14684 0.0
C21 C 0.12659 0.10992 0.20647 0.0
C22 C 0.10832 0.09836 0.2908 0.0
C23 C 0.08694 0.07944 0.25928 0.0
C24 C 0.10007 0.08387 0.06453 0.0
C25 C 0.1224 0.10141 0.09239 0.0
H26 H 0.07236 0.07231 0.32368 0.0
H27 H 0.09538 0.08094 0.97467 0.0
H28 H 1.00312 0.0611 0.24651 0.0
H29 H 0.02247 0.14666 0.22406 0.0
H30 H 0.12154 0.97767 1.00986 0.0
H31 H 0.10927 0.10464 0.38002 0.0
H32 H 0.13545 0.10886 1.02268 0.0
C33 C 0.14799 0.78473 0.36751 0.0
C34 C 0.13357 0.76955 0.44912 0.0
N35 N 0.15246 0.75394 0.50652 0.0
N36 N 0.17575 0.77944 0.37903 0.0
C37 C 0.17763 0.75966 0.45947 0.0
H38 H 0.13928 0.80128 0.31453 0.0
Co39 Co 0.20382 0.80195 0.3279 0.0
C40 C 0.23875 0.79059 0.57635 0.0
O41 O 0.21918 0.78906 0.65564 0.0
N42 N 0.23035 0.82571 0.27417 0.0
C43 C 0.26168 0.85945 0.2489 0.0
C44 C 0.25072 0.84067 0.32685 0.0
C45 C 0.22834 0.83665 0.16898 0.0
N46 N 0.24747 0.8567 0.14914 0.0
O47 O 0.21876 0.76902 0.23561 0.0
H48 H 0.25745 0.83807 0.41504 0.0
H49 H 0.21458 0.82843 0.1033 0.0
O50 O 0.2315 0.79453 0.46885 0.0
C51 C 0.20889 0.76427 0.13304 0.0
O52 O 0.19163 0.78273 0.08785 0.0
N53 N 0.186 0.83322 0.39706 0.0
C54 C 0.14842 0.87671 0.45665 0.0
C55 C 0.15998 0.85843 0.54098 0.0
C56 C 0.17893 0.83706 0.50948 0.0
C57 C 0.17454 0.85022 0.31476 0.0
C58 C 0.15697 0.87254 0.3426 0.0
H59 H 0.18604 0.82247 0.57387 0.0
H60 H 0.1775 0.84553 0.22489 0.0
H61 H 0.19735 0.75321 0.4967 0.0
H62 H 0.11186 0.7725 0.47429 0.0
H63 H 0.28061 0.8718 0.2601 0.0
H64 H 0.15367 0.85936 0.63018 0.0
H65 H 0.14954 0.88559 0.27288 0.0
C66 C 0.47366 0.89799 0.61741 0.0
C67 C 0.48882 0.88355 0.69898 0.0
N68 N 0.50442 0.90245 0.7564 0.0
N69 N 0.47895 0.92577 0.62897 0.0
C70 C 0.4987 0.92764 0.70941 0.0
H71 H 0.45713 0.88926 0.56441 0.0
Co72 Co 0.45648 0.95387 0.57784 0.0
C73 C 0.46781 0.98883 0.82632 0.0
O74 O 0.46935 0.96924 0.90558 0.0
N75 N 0.43274 0.98043 0.52413 0.0
C76 C 0.39901 0.01177 0.49896 0.0
C77 C 0.41779 1.00081 0.57686 0.0
C78 C 0.42181 0.9784 0.41897 0.0
N79 N 0.40176 0.99753 0.39919 0.0
O80 O 0.48939 0.96881 0.48557 0.0
H81 H 0.42039 0.00755 0.66505 0.0
H82 H 0.43002 0.96463 0.35327 0.0
O83 O 0.46387 0.98157 0.71881 0.0
C84 C 0.49413 0.95894 0.38299 0.0
O85 O 0.47568 0.94166 0.3378 0.0
N86 N 0.42522 0.93605 0.64696 0.0
C87 C 0.38169 0.89853 0.7065 0.0
C88 C 0.39992 0.91011 0.79088 0.0
C89 C 0.42132 0.92903 0.7594 0.0
C90 C 0.40827 0.92455 0.5646 0.0
C91 C 0.38593 0.90702 0.59241 0.0
H92 H 0.43586 0.93617 0.82385 0.0
H93 H 0.413 0.92748 0.47476 0.0
H94 H 0.50515 0.94738 0.74666 0.0
H95 H 0.48587 0.86181 0.72411 0.0
H96 H 0.38666 0.0307 0.5102 0.0
H97 H 0.39894 0.90385 0.88012 0.0
H98 H 0.37292 0.89956 0.52266 0.0
C99 C 0.36027 0.22371 0.86719 0.0
C100 C 0.3747 0.23888 0.94874 0.0
N101 N 0.35582 0.2545 1.0062 0.0
N102 N 0.33252 0.22901 0.8788 0.0
C103 C 0.33065 0.24879 0.95925 0.0
H104 H 0.36898 0.20716 0.81418 0.0
Co105 Co 0.30444 0.20651 0.82773 0.0
C106 C 0.26951 0.21788 0.07624 0.0
O107 O 0.28908 0.21942 0.15549 0.0
N108 N 0.2779 0.18275 0.77405 0.0
C109 C 0.24657 0.14902 0.74885 0.0
C110 C 0.25753 0.1678 0.82678 0.0
C111 C 0.27991 0.17182 0.66885 0.0
N112 N 0.26078 0.15177 0.64905 0.0
O113 O 0.28952 0.23944 0.73545 0.0
H114 H 0.2508 0.17039 0.91499 0.0
H115 H 0.29367 0.18004 0.60314 0.0
O116 O 0.27676 0.21394 0.96872 0.0
C117 C 0.29939 0.24419 0.63286 0.0
O118 O 0.31665 0.22573 0.58765 0.0
N119 N 0.32224 0.17524 0.8969 0.0
C120 C 0.3598 0.13174 0.95657 0.0
C121 C 0.34826 0.15004 1.04085 0.0
C122 C 0.32932 0.17142 1.00932 0.0
C123 C 0.33369 0.15821 0.81463 0.0
C124 C 0.35124 0.13588 0.84253 0.0
H125 H 0.32222 0.18603 0.07366 0.0
H126 H 0.33073 0.16287 0.72476 0.0
H127 H 0.31093 0.25524 0.99654 0.0
H128 H 0.39641 0.23593 0.97383 0.0
H129 H 0.22764 0.13667 0.76009 0.0
H130 H 0.35457 0.14913 0.13003 0.0
H131 H 0.35867 0.1228 0.77286 0.0
C132 C 0.03455 0.89809 0.57414 0.0
C133 C 0.0194 0.88364 0.49254 0.0
N134 N 1.00381 0.90254 0.43507 0.0
N135 N 0.02925 0.92587 0.56255 0.0
C136 C 0.00951 0.92774 0.48205 0.0
H137 H 0.05107 0.88937 0.62718 0.0
Co138 Co 0.05171 0.95397 0.61372 0.0
C139 C 0.04043 0.98893 0.36521 0.0
O140 O 0.03892 0.96934 0.28594 0.0
N141 N 0.07543 0.98054 0.66748 0.0
C142 C 0.10925 0.0118 0.69253 0.0
C143 C 0.09047 1.00084 0.61463 0.0
C144 C 0.08628 0.97856 0.77279 0.0
N145 N 0.10639 0.99763 0.79237 0.0
O146 O 0.01878 0.96891 0.70592 0.0
H147 H 0.08796 0.0075 0.52629 0.0
H148 H 0.078 0.96485 0.83859 0.0
O149 O 0.04433 0.98168 0.47274 0.0
C150 C 0.01402 0.959 0.80843 0.0
O151 O 0.03244 0.94167 0.85347 0.0
N152 N 0.08298 0.93616 0.54467 0.0
C153 C 0.12649 0.89861 0.48514 0.0
C154 C 0.10821 0.91013 0.4008 0.0
C155 C 0.08683 0.92906 0.43227 0.0
C156 C 0.09998 0.92472 0.627 0.0
C157 C 0.12232 0.90717 0.59917 0.0
H158 H 0.07224 0.93615 0.36788 0.0
H159 H 0.0953 0.9277 0.71686 0.0
H160 H 1.00307 0.94747 0.44476 0.0
H161 H 0.02236 0.86191 0.46744 0.0
H162 H 0.1217 0.03067 0.68118 0.0
H163 H 0.10914 0.90381 0.31163 0.0
H164 H 0.13537 0.89976 0.66889 0.0
C165 C 0.36019 0.78472 0.82428 0.0
C166 C 0.37463 0.76957 0.74265 0.0
N167 N 0.35576 0.75396 0.68514 0.0
N168 N 0.33244 0.77941 0.81266 0.0
C169 C 0.33058 0.75966 0.73212 0.0
H170 H 0.36888 0.80126 0.87735 0.0
Co171 Co 0.30435 0.80189 0.86383 0.0
C172 C 0.26943 0.79059 0.61536 0.0
O173 O 0.28899 0.78908 0.53605 0.0
N174 N 0.27781 0.82563 0.91761 0.0
C175 C 0.24656 0.85948 0.94275 0.0
C176 C 0.25753 0.8407 0.86479 0.0
C177 C 0.27976 0.83648 1.02296 0.0
N178 N 0.26071 0.8566 1.04258 0.0
O179 O 0.28944 0.76895 0.95607 0.0
H180 H 0.25089 0.83819 0.77644 0.0
H181 H 0.29346 0.82819 0.08874 0.0
O182 O 0.27667 0.7945 0.72288 0.0
C183 C 0.29936 0.76418 0.05854 0.0
O184 O 0.31668 0.78262 0.10353 0.0
N185 N 0.32215 0.83319 0.7947 0.0
C186 C 0.35975 0.87665 0.73502 0.0
C187 C 0.34828 0.8583 0.65078 0.0
C188 C 0.32931 0.83695 0.68232 0.0
C189 C 0.33353 0.85027 0.87693 0.0
C190 C 0.3511 0.87258 0.849 0.0
H191 H 0.32228 0.82229 0.61805 0.0
H192 H 0.3305 0.84566 0.96681 0.0
H193 H 0.31087 0.75321 0.69479 0.0
H194 H 0.39634 0.77253 0.71756 0.0
H195 H 0.22771 0.87193 0.93143 0.0
H196 H 0.35466 0.85915 0.56167 0.0
H197 H 0.35848 0.88569 0.91863 0.0
C198 C 0.47359 0.11038 0.07424 0.0
C199 C 0.48874 0.12484 0.99262 0.0
N200 N 0.50435 0.10595 0.93517 0.0
N201 N 0.47892 0.08261 0.06267 0.0
C202 C 0.49867 0.08075 0.98218 0.0
H203 H 0.45706 0.11909 0.12727 0.0
Co204 Co 0.45647 0.05449 0.11386 0.0
C205 C 0.4678 0.01953 0.86536 0.0
O206 O 0.46931 0.03912 0.78608 0.0
N207 N 0.43276 0.02791 0.16763 0.0
C208 C 0.39898 0.9966 0.19282 0.0
C209 C 0.41774 0.00759 0.11484 0.0
C210 C 0.42191 0.02988 0.27297 0.0
N211 N 0.40183 0.01078 0.29263 0.0
O212 O 0.48939 0.03957 0.20606 0.0
H213 H 0.42027 1.00092 1.02651 0.0
H214 H 0.43017 0.04361 0.33873 0.0
O215 O 0.46388 0.02678 0.97289 0.0
C216 C 0.49415 0.04948 0.30857 0.0
O217 O 0.47572 0.0668 0.35369 0.0
N218 N 0.4252 0.07228 0.04476 0.0
C219 C 0.38171 0.10984 0.98511 0.0
C220 C 0.40003 0.09834 0.90083 0.0
C221 C 0.4214 0.0794 0.93236 0.0
C222 C 0.40815 0.08369 0.12703 0.0
C223 C 0.38582 0.10125 0.09913 0.0
H224 H 0.43603 0.07234 0.86804 0.0
H225 H 0.41278 0.0807 0.2169 0.0
H226 H 0.50513 0.06101 0.9449 0.0
H227 H 0.48577 0.14656 0.9675 0.0
H228 H 0.38657 0.97771 0.18152 0.0
H229 H 0.39914 0.10468 0.81168 0.0
H230 H 0.37273 0.10864 0.16878 0.0
C231 C 0.14807 0.22376 0.3244 0.0
C232 C 0.13364 0.23892 0.24283 0.0
N233 N 0.15251 0.25454 0.18532 0.0
N234 N 0.17583 0.22906 0.31275 0.0
C235 C 0.17769 0.24883 0.23226 0.0
H236 H 0.13937 0.20721 0.37744 0.0
Co237 Co 0.2039 0.20657 0.36386 0.0
C238 C 0.23883 0.21789 0.11532 0.0
O239 O 0.21927 0.2194 1.03606 0.0
N240 N 0.23044 0.18282 0.41756 0.0
C241 C 0.2617 0.14899 0.44267 0.0
C242 C 0.25073 0.16777 0.36472 0.0
C243 C 0.22848 0.17197 0.52291 0.0
N244 N 0.24754 0.15186 0.54252 0.0
O245 O 0.21883 0.23951 0.45609 0.0
H246 H 0.25739 0.17029 0.27637 0.0
H247 H 0.21477 0.18025 0.58871 0.0
O248 O 0.23159 0.21397 0.22285 0.0
C249 C 0.20893 0.24427 0.55861 0.0
O250 O 0.19161 0.22584 0.6037 0.0
N251 N 0.1861 0.17528 0.29472 0.0
C252 C 0.14851 0.13182 0.23501 0.0
C253 C 0.16 0.15017 0.15079 0.0
C254 C 0.17895 0.17152 0.18234 0.0
C255 C 0.17471 0.1582 0.37694 0.0
C256 C 0.15714 0.13588 0.349 0.0
H257 H 0.186 0.18618 0.11808 0.0
H258 H 0.17773 0.1628 0.46683 0.0
H259 H 0.19741 0.25527 0.19492 0.0
H260 H 0.11193 0.23597 0.21775 0.0
H261 H 0.28057 0.13655 0.43133 0.0
H262 H 0.15363 0.14931 0.06167 0.0
H263 H 0.14975 0.12277 0.41862 0.0
C264 C 0.89939 0.96975 1.04278 0.0
C265 C 0.88809 0.98451 0.95173 0.0
N266 N 0.90925 0.99855 0.90153 0.0
N267 N 0.92752 0.97416 0.04637 0.0
C268 C 0.93237 0.99313 0.964 0.0
H269 H 0.88805 0.95496 0.0958 0.0
Co270 Co 0.95494 0.9522 0.11504 0.0
C271 C 0.9859 0.96115 0.86755 0.0
O272 O 0.96336 0.95975 0.8028 0.0
N273 N 0.98063 0.92939 0.18301 0.0
C274 C 0.01676 0.90353 0.23705 0.0
C275 C 0.00674 0.92125 0.15323 0.0
C276 C 0.97472 0.91518 0.27951 0.0
N277 N 0.99681 0.90061 0.31881 0.0
O278 O 0.96866 0.98664 0.20641 0.0
H279 H 0.01855 0.92903 0.08051 0.0
H280 H 0.95575 0.91839 0.32906 0.0
O281 O 0.98352 0.95828 0.97876 0.0
C282 C 0.96595 0.98996 0.3174 0.0
O283 O 0.95623 0.96902 0.37889 0.0
N284 N 0.93908 0.91971 0.04855 0.0
C285 C 0.90642 0.873 0.98971 0.0
C286 C 0.92793 0.88255 0.91613 0.0
C287 C 0.94455 0.90569 0.94847 0.0
C288 C 0.91942 0.90953 0.12327 0.0
C289 C 0.90292 0.88631 0.09591 0.0
H290 H 0.96146 0.91204 0.89294 0.0
H291 H 0.91571 0.92039 0.20367 0.0
H292 H 0.95301 1.00089 0.94429 0.0
H293 H 0.86681 0.98309 0.91923 0.0
H294 H 0.0385 0.89719 0.24678 0.0
H295 H 0.93161 0.87243 0.83395 0.0
H296 H 0.8865 0.87985 0.15492 0.0
C297 C 0.78864 0.14945 0.79279 0.0
C298 C 0.7739 0.13812 0.70175 0.0
N299 N 0.75987 0.15929 0.65155 0.0
N300 N 0.78422 0.17761 0.79637 0.0
C301 C 0.76527 0.18244 0.71401 0.0
H302 H 0.80342 0.1381 0.84581 0.0
Co303 Co 0.80614 0.20506 0.86505 0.0
C304 C 0.79718 0.23604 0.61761 0.0
O305 O 0.7986 0.21347 0.55287 0.0
N306 N 0.82891 0.2308 0.93301 0.0
C307 C 0.85477 0.26695 0.9869 0.0
C308 C 0.83705 0.25692 0.90319 0.0
C309 C 0.84314 0.22489 1.02943 0.0
N310 N 0.85773 0.247 0.06873 0.0
O311 O 0.77172 0.21878 0.95647 0.0
H312 H 0.82927 0.26873 0.83048 0.0
H313 H 0.83994 0.20591 0.07899 0.0
O314 O 0.80004 0.23366 0.72881 0.0
C315 C 0.76841 0.21604 0.06745 0.0
O316 O 0.78935 0.20633 0.12889 0.0
N317 N 0.83861 0.18921 0.79853 0.0
C318 C 0.88534 0.15659 0.73976 0.0
C319 C 0.87579 0.17811 0.6662 0.0
C320 C 0.85264 0.19471 0.69849 0.0
C321 C 0.84879 0.16954 0.87322 0.0
C322 C 0.87202 0.15306 0.8459 0.0
H323 H 0.84628 0.21164 0.64299 0.0
H324 H 0.83793 0.16582 0.95359 0.0
H325 H 0.7575 0.20309 0.6943 0.0
H326 H 0.77533 0.11682 0.66927 0.0
H327 H 0.86111 0.28871 0.99653 0.0
H328 H 0.88591 0.18182 0.58406 0.0
H329 H 0.87849 0.13663 0.9049 0.0
C330 C 0.60879 0.03872 0.5428 0.0
C331 C 0.62012 0.02398 0.45171 0.0
N332 N 0.59897 0.00997 0.40143 0.0
N333 N 0.58066 0.03433 0.54633 0.0
C334 C 0.57583 0.01538 0.46388 0.0
H335 H 0.62013 0.0535 0.59591 0.0
Co336 Co 0.55324 0.05628 0.61505 0.0
C337 C 0.52228 0.04734 0.3676 0.0
O338 O 0.54482 0.04874 0.30278 0.0
N339 N 0.52754 0.07909 0.68308 0.0
C340 C 0.49141 0.10496 0.73716 0.0
C341 C 0.50143 0.08723 0.65334 0.0
C342 C 0.53345 0.0933 0.77956 0.0
N343 N 0.51136 0.10787 0.81889 0.0
O344 O 0.53952 0.02183 0.70644 0.0
H345 H 0.48963 0.07945 0.58063 0.0
H346 H 0.55241 0.09009 0.82909 0.0
O347 O 0.52467 0.0502 0.47881 0.0
C348 C 0.54226 0.01851 0.81741 0.0
O349 O 0.55198 0.03947 0.87885 0.0
N350 N 0.56911 0.08877 0.54858 0.0
C351 C 0.60181 0.13546 0.48979 0.0
C352 C 0.58031 0.12592 0.41617 0.0
C353 C 0.56367 0.10279 0.44847 0.0
C354 C 0.58876 0.09894 0.62333 0.0
C355 C 0.60527 0.12216 0.596 0.0
H356 H 0.54678 0.09644 0.3929 0.0
H357 H 0.59244 0.08808 0.70372 0.0
H358 H 0.55519 0.00762 0.44412 0.0
H359 H 0.6414 0.0254 0.41927 0.0
H360 H 0.46967 0.11129 0.74692 0.0
H361 H 0.57666 0.13604 0.33397 0.0
H362 H 0.62168 0.12861 0.65505 0.0
C363 C 0.71965 0.85902 0.29275 0.0
C364 C 0.7344 0.87034 0.20169 0.0
N365 N 0.74843 0.84917 0.15149 0.0
N366 N 0.72406 0.83086 0.29635 0.0
C367 C 0.74302 0.82602 0.21397 0.0
H368 H 0.70487 0.87037 0.34578 0.0
Co369 Co 0.70214 0.80342 0.36508 0.0
C370 C 0.7111 0.77243 0.11763 0.0
O371 O 0.70968 0.795 0.05289 0.0
N372 N 0.67935 0.77769 0.4331 0.0
C373 C 0.65348 0.74155 0.48706 0.0
C374 C 0.6712 0.75157 0.40329 0.0
C375 C 0.66513 0.7836 0.52957 0.0
N376 N 0.65054 0.76149 0.56891 0.0
O377 O 0.73655 0.78969 0.45644 0.0
H378 H 0.67898 0.73976 0.33055 0.0
H379 H 0.66835 0.80258 0.57912 0.0
O380 O 0.70823 0.77481 0.22884 0.0
C381 C 0.73987 0.79242 0.56741 0.0
O382 O 0.71894 0.80214 0.62892 0.0
N383 N 0.66967 0.81928 0.29859 0.0
C384 C 0.62296 0.85191 0.23979 0.0
C385 C 0.63252 0.83039 0.16625 0.0
C386 C 0.65565 0.81378 0.19856 0.0
C387 C 0.65948 0.83896 0.37327 0.0
C388 C 0.63626 0.85544 0.34593 0.0
H389 H 0.66201 0.79685 0.14308 0.0
H390 H 0.67033 0.84268 0.45364 0.0
H391 H 0.75078 0.80537 0.19427 0.0
H392 H 0.73297 0.89164 0.16918 0.0
H393 H 0.64714 0.71979 0.4967 0.0
H394 H 0.6224 0.82668 0.08412 0.0
H395 H 0.6298 0.87187 0.40492 0.0
C396 C 0.89947 0.03875 0.64847 0.0
C397 C 0.88812 0.02409 0.73973 0.0
N398 N 0.90928 0.01017 0.79043 0.0
N399 N 0.92761 0.03439 0.64519 0.0
C400 C 0.93243 0.01552 0.72797 0.0
H401 H 0.88813 0.05346 0.59503 0.0
Co402 Co 0.95502 0.05634 0.57645 0.0
C403 C 0.98603 0.04742 0.82389 0.0
O404 O 0.9635 0.04887 0.88879 0.0
N405 N 0.98072 0.07915 0.50839 0.0
C406 C 0.01683 0.10504 0.45431 0.0
C407 C 0.00682 0.08731 0.53813 0.0
C408 C 0.9748 0.09337 0.41191 0.0
N409 N 0.99689 0.10795 0.37259 0.0
O410 O 0.96873 0.0219 0.48502 0.0
H411 H 0.01862 0.07953 0.61085 0.0
H412 H 0.95583 0.09015 0.36239 0.0
O413 O 0.98362 0.05026 0.71267 0.0
C414 C 0.96597 0.01858 0.37405 0.0
O415 O 0.95626 0.03953 0.31261 0.0
N416 N 0.93916 0.08883 0.64295 0.0
C417 C 0.90645 0.13551 0.70175 0.0
C418 C 0.92797 0.12599 0.77531 0.0
C419 C 0.94461 0.10287 0.74299 0.0
C420 C 0.91949 0.09899 0.56825 0.0
C421 C 0.90297 0.12219 0.59559 0.0
H422 H 0.96153 0.09654 0.79849 0.0
H423 H 0.9158 0.08811 0.48788 0.0
H424 H 0.95306 0.00778 0.7479 0.0
H425 H 0.86682 0.02549 0.77197 0.0
H426 H 0.03857 0.11139 0.44456 0.0
H427 H 0.93164 0.13613 0.85746 0.0
H428 H 0.88655 0.12863 0.53658 0.0
C429 C 0.71968 0.14945 0.39862 0.0
C430 C 0.73435 0.13811 0.48986 0.0
N431 N 0.74825 0.1593 0.54047 0.0
N432 N 0.72404 0.17762 0.39528 0.0
C433 C 0.7429 0.18246 0.47798 0.0
H434 H 0.70498 0.13809 0.34526 0.0
Co435 Co 0.7021 0.20505 0.32656 0.0
C436 C 0.71099 0.23607 0.574 0.0
O437 O 0.70954 0.21351 0.63881 0.0
N438 N 0.6793 0.23076 0.25856 0.0
C439 C 0.65337 0.26686 0.20471 0.0
C440 C 0.67112 0.25686 0.28841 0.0
C441 C 0.66508 0.22483 0.16215 0.0
N442 N 0.65045 0.24691 0.12288 0.0
O443 O 0.73651 0.21878 0.23512 0.0
H444 H 0.67888 0.26869 0.36113 0.0
H445 H 0.6683 0.20585 0.11261 0.0
O446 O 0.70817 0.23367 0.46278 0.0
C447 C 0.73982 0.21604 0.12415 0.0
O448 O 0.71889 0.20632 0.06269 0.0
N449 N 0.66964 0.18917 0.39309 0.0
C450 C 0.62293 0.15653 0.45181 0.0
C451 C 0.63244 0.17809 0.5253 0.0
C452 C 0.65558 0.19469 0.49303 0.0
C453 C 0.6595 0.16947 0.31845 0.0
C454 C 0.63628 0.15298 0.34575 0.0
H455 H 0.6619 0.21165 0.54844 0.0
H456 H 0.67038 0.16574 0.23813 0.0
H457 H 0.75064 0.20311 0.49786 0.0
H458 H 0.73295 0.1168 0.52214 0.0
H459 H 0.647 0.28861 0.1951 0.0
H460 H 0.62228 0.18181 0.60737 0.0
H461 H 0.62984 0.13653 0.2868 0.0
C462 C 0.6088 0.96975 0.14843 0.0
C463 C 0.62013 0.98443 0.23967 0.0
N464 N 0.59896 0.99835 0.29031 0.0
N465 N 0.58066 0.97411 0.14511 0.0
C466 C 0.57582 0.993 0.22784 0.0
H467 H 0.62015 0.95503 0.09504 0.0
Co468 Co 0.55326 0.95215 0.07644 0.0
C469 C 0.52226 0.96106 0.32394 0.0
O470 O 0.54479 0.95962 0.38876 0.0
N471 N 0.52758 0.92932 1.00845 0.0
C472 C 0.49147 0.90343 0.95442 0.0
C473 C 0.50148 0.92116 1.03824 0.0
C474 C 0.5335 0.91511 0.91195 0.0
N475 N 0.51142 0.90053 0.87266 0.0
O476 O 0.53953 0.98658 0.98504 0.0
H477 H 0.48967 0.92893 0.11097 0.0
H478 H 0.55247 0.91833 0.8624 0.0
O479 O 0.52466 0.95822 0.21272 0.0
C480 C 0.54227 0.9899 0.87406 0.0
O481 O 0.55199 0.96895 0.81257 0.0
N482 N 0.56914 0.91966 0.14293 0.0
C483 C 0.60185 0.87299 0.20178 0.0
C484 C 0.58032 0.88251 0.27532 0.0
C485 C 0.56368 0.90563 0.24299 0.0
C486 C 0.58882 0.90951 0.06823 0.0
C487 C 0.60534 0.88631 0.09559 0.0
H488 H 0.54675 0.91195 0.29848 0.0
H489 H 0.59251 0.92037 0.98784 0.0
H490 H 0.55519 1.00073 0.24773 0.0
H491 H 0.64142 0.98303 0.27195 0.0
H492 H 0.46973 0.89708 0.94471 0.0
H493 H 0.57665 0.87238 0.35749 0.0
H494 H 0.62177 0.87987 1.03658 0.0
C495 C 0.78862 0.85898 0.89843 0.0
C496 C 0.77396 0.87033 0.9897 0.0
N497 N 0.76005 0.84914 1.04038 0.0
N498 N 0.78425 0.83082 0.89513 0.0
C499 C 0.76539 0.82598 0.97791 0.0
H500 H 0.80332 0.87033 0.84501 0.0
Co501 Co 0.80618 0.80338 0.82637 0.0
C502 C 0.79728 0.77235 0.07382 0.0
O503 O 0.79872 0.7949 0.13864 0.0
N504 N 0.82898 0.77767 0.75831 0.0
C505 C 0.85491 0.74156 0.7044 0.0
C506 C 0.83716 0.75156 0.78815 0.0
C507 C 0.8432 0.78359 0.66186 0.0
N508 N 0.85783 0.76151 0.62255 0.0
O509 O 0.77178 0.78966 0.73499 0.0
H510 H 0.82941 0.73974 0.8609 0.0
H511 H 0.83998 0.80257 0.61232 0.0
O512 O 0.80011 0.77475 0.9626 0.0
C513 C 0.76846 0.79241 0.62402 0.0
O514 O 0.7894 0.80212 0.56251 0.0
N515 N 0.83865 0.81925 0.89287 0.0
C516 C 0.88533 0.85191 0.95167 0.0
C517 C 0.87581 0.83036 1.02515 0.0
C518 C 0.85268 0.81373 0.99283 0.0
C519 C 0.8488 0.83895 0.81823 0.0
C520 C 0.87201 0.85545 0.84558 0.0
H521 H 0.84636 0.79678 0.04824 0.0
H522 H 0.83794 0.84267 0.73789 0.0
H523 H 0.75765 0.80533 0.99782 0.0
H524 H 0.77536 0.89165 1.02195 0.0
H525 H 0.86128 0.71981 0.69478 0.0
H526 H 0.88594 0.82664 0.10724 0.0
H527 H 0.87845 0.8719 0.78663 0.0
C528 C 0.53467 0.61051 0.61741 0.0
C529 C 0.51949 0.62494 0.699 0.0
N530 N 0.50388 0.60604 0.75637 0.0
N531 N 0.52936 0.58273 0.62891 0.0
C532 C 0.5096 0.58085 0.70932 0.0
H533 H 0.5512 0.61924 0.56444 0.0
Co534 Co 0.55185 0.55463 0.57776 0.0
C535 C 0.54048 0.51967 0.82623 0.0
O536 O 0.53892 0.53926 0.90549 0.0
N537 N 0.57559 0.52808 0.52402 0.0
C538 C 0.60928 0.4967 0.49872 0.0
C539 C 0.59052 0.50767 0.57668 0.0
C540 C 0.58653 0.53011 0.41885 0.0
N541 N 0.60655 0.51095 0.39897 0.0
O542 O 0.51894 0.53969 0.48551 0.0
H543 H 0.5879 0.50092 0.66485 0.0
H544 H 0.57833 0.5439 0.35319 0.0
O545 O 0.54443 0.52693 0.71873 0.0
C546 C 0.5142 0.54954 0.38291 0.0
O547 O 0.53265 0.56681 0.33763 0.0
N548 N 0.58309 0.57245 0.64688 0.0
C549 C 0.62661 0.60997 0.70647 0.0
C550 C 0.60837 0.59839 0.79084 0.0
C551 C 0.58698 0.57947 0.75933 0.0
C552 C 0.60006 0.58395 0.56454 0.0
C553 C 0.6224 0.60149 0.59238 0.0
H554 H 0.57242 0.57232 0.82377 0.0
H555 H 0.59534 0.58103 0.47469 0.0
H556 H 0.50314 0.5611 0.74652 0.0
H557 H 0.52244 0.64667 0.72418 0.0
H558 H 0.6216 0.47775 0.50989 0.0
H559 H 0.60934 0.60464 0.88008 0.0
H560 H 0.63542 0.60895 0.52264 0.0
C561 C 0.64795 0.28463 0.8673 0.0
C562 C 0.63352 0.26949 0.949 0.0
N563 N 0.65242 0.25397 1.00668 0.0
N564 N 0.67572 0.27937 0.87901 0.0
C565 C 0.6776 0.25966 0.9597 0.0
H566 H 0.63924 0.30113 0.81406 0.0
Co567 Co 0.70377 0.30189 0.82784 0.0
C568 C 0.7387 0.29058 0.07631 0.0
O569 O 0.71914 0.28903 0.15561 0.0
N570 N 0.73029 0.32568 0.7741 0.0
C571 C 0.7616 0.35944 0.74885 0.0
C572 C 0.75065 0.34064 0.82679 0.0
C573 C 0.72827 0.33662 0.66892 0.0
N574 N 0.74739 0.35668 0.64909 0.0
O575 O 0.71873 0.26897 0.7356 0.0
H576 H 0.75739 0.33804 0.91497 0.0
H577 H 0.71451 0.32839 0.60323 0.0
O578 O 0.73145 0.29451 0.9688 0.0
C579 C 0.70886 0.26423 0.63304 0.0
O580 O 0.69159 0.28269 0.58786 0.0
N581 N 0.68594 0.33315 0.89696 0.0
C582 C 0.6484 0.37668 0.95649 0.0
C583 C 0.65997 0.35843 1.04087 0.0
C584 C 0.6789 0.33704 1.00939 0.0
C585 C 0.67445 0.35012 0.8146 0.0
C586 C 0.6569 0.37246 0.84241 0.0
H587 H 0.68604 0.32248 0.07383 0.0
H588 H 0.67739 0.3454 0.72475 0.0
H589 H 0.69732 0.25323 0.99707 0.0
H590 H 0.61179 0.27241 0.974 0.0
H591 H 0.78052 0.37179 0.76006 0.0
H592 H 0.6537 0.3594 0.1301 0.0
H593 H 0.64945 0.38549 0.77266 0.0
C594 C 0.97365 0.39795 0.11746 0.0
C595 C 0.98881 0.38352 0.19903 0.0
N596 N 0.00442 0.40242 0.25641 0.0
N597 N 0.97894 0.42574 0.12898 0.0
C598 C 0.9987 0.42762 0.20939 0.0
H599 H 0.95712 0.38923 0.06449 0.0
Co600 Co 0.95646 0.45384 0.07786 0.0
C601 C 0.96781 0.48879 0.32634 0.0
O602 O 0.96935 0.46921 0.40559 0.0
N603 N 0.93272 0.4804 1.02416 0.0
C604 C 0.89901 0.51175 0.99898 0.0
C605 C 0.91779 0.50079 0.07688 0.0
C606 C 0.92178 0.47837 0.91902 0.0
N607 N 0.90175 0.49751 0.89922 0.0
O608 O 0.98937 0.46878 0.98558 0.0
H609 H 0.92039 0.50754 0.16506 0.0
H610 H 0.92999 0.46458 0.85332 0.0
O611 O 0.96387 0.48154 0.21883 0.0
C612 C 0.99411 0.45892 0.88298 0.0
O613 O 0.97566 0.44165 0.83776 0.0
N614 N 0.92521 0.43602 0.14698 0.0
C615 C 0.88167 0.3985 0.2065 0.0
C616 C 0.89989 0.41009 0.2909 0.0
C617 C 0.92129 0.42901 0.25943 0.0
C618 C 0.90827 0.42451 0.06461 0.0
C619 C 0.88593 0.40698 0.0924 0.0
H620 H 0.93583 0.43616 0.3239 0.0
H621 H 0.91301 0.42742 0.97477 0.0
H622 H 0.00515 0.44736 0.24661 0.0
H623 H 0.98587 0.36179 0.22419 0.0
H624 H 0.88668 0.53069 1.01021 0.0
H625 H 0.8989 0.40384 0.38014 0.0
H626 H 0.87292 0.39951 1.02263 0.0
C627 C 0.86031 0.72378 0.367 0.0
C628 C 0.87475 0.73892 0.44866 0.0
N629 N 0.85585 0.75445 0.50636 0.0
N630 N 0.83255 0.72905 0.37877 0.0
C631 C 0.83067 0.74877 0.45944 0.0
H632 H 0.86903 0.70727 0.31378 0.0
Co633 Co 0.80449 0.70652 0.32769 0.0
C634 C 0.76956 0.71787 0.57622 0.0
O635 O 0.78913 0.71941 0.65547 0.0
N636 N 0.77797 0.68274 0.27403 0.0
C637 C 0.74663 0.64902 0.24882 0.0
C638 C 0.75759 0.66779 0.32675 0.0
C639 C 0.77998 0.6718 0.16884 0.0
N640 N 0.76085 0.65176 0.14903 0.0
O641 O 0.78954 0.73944 0.23543 0.0
H642 H 0.75086 0.6704 0.41494 0.0
H643 H 0.79375 0.68002 0.10313 0.0
O644 O 0.77681 0.71393 0.4687 0.0
C645 C 0.79941 0.74419 0.13283 0.0
O646 O 0.81667 0.72573 0.08759 0.0
N647 N 0.82232 0.67526 0.39685 0.0
C648 C 0.85986 0.63176 0.45648 0.0
C649 C 0.84831 0.65004 0.5408 0.0
C650 C 0.82938 0.67142 0.50927 0.0
C651 C 0.83379 0.65826 0.31455 0.0
C652 C 0.85134 0.63592 0.34242 0.0
H653 H 0.82226 0.68602 0.57365 0.0
H654 H 0.83084 0.66294 0.22468 0.0
H655 H 0.81096 0.7552 0.49684 0.0
H656 H 0.89648 0.73599 0.47362 0.0
H657 H 0.72769 0.63668 0.26006 0.0
H658 H 0.8546 0.64911 0.62999 0.0
H659 H 0.85878 0.62287 0.27273 0.0
C660 C 0.53465 0.39812 0.07429 0.0
C661 C 0.51951 0.38366 0.9927 0.0
N662 N 0.50391 0.40254 0.93519 0.0
N663 N 0.52933 0.42589 0.06264 0.0
C664 C 0.5096 0.42774 0.98212 0.0
H665 H 0.55117 0.38942 0.12736 0.0
Co666 Co 0.55178 0.45401 0.11378 0.0
C667 C 0.54048 0.48896 0.86528 0.0
O668 O 0.53899 0.46938 0.786 0.0
N669 N 0.57549 0.48059 0.16752 0.0
C670 C 0.6093 0.51187 0.19257 0.0
C671 C 0.59054 0.50089 0.11465 0.0
C672 C 0.58632 0.47863 0.27286 0.0
N673 N 0.60643 0.4977 0.29242 0.0
O674 O 0.51886 0.46893 0.20603 0.0
H675 H 0.58803 0.50754 1.02629 0.0
H676 H 0.57804 0.46492 0.33866 0.0
O677 O 0.54439 0.48172 0.97281 0.0
C678 C 0.5141 0.45899 0.30851 0.0
O679 O 0.53253 0.44166 0.3535 0.0
N680 N 0.58305 0.43621 0.04465 0.0
C681 C 0.62651 0.39861 0.985 0.0
C682 C 0.60819 0.4101 0.90075 0.0
C683 C 0.58683 0.42906 0.93228 0.0
C684 C 0.60011 0.42482 0.1269 0.0
C685 C 0.62242 0.40725 0.09899 0.0
H686 H 0.57219 0.4361 0.868 0.0
H687 H 0.59549 0.42784 0.21678 0.0
H688 H 0.50315 0.44747 0.94477 0.0
H689 H 0.52248 0.36192 0.96765 0.0
H690 H 0.62175 0.53073 0.1812 0.0
H691 H 0.60905 0.40372 0.81164 0.0
H692 H 0.63552 0.39988 0.16863 0.0
C693 C 0.86014 0.28469 0.32444 0.0
C694 C 0.8746 0.26958 0.24271 0.0
N695 N 0.85572 0.25405 0.18493 0.0
N696 N 0.83238 0.2794 0.31263 0.0
C697 C 0.83053 0.25971 0.23185 0.0
H698 H 0.86882 0.30119 0.37774 0.0
Co699 Co 0.8043 0.30189 0.3638 0.0
C700 C 0.76938 0.2906 0.11531 0.0
O701 O 0.78894 0.28912 1.036 0.0
N702 N 0.77776 0.32563 0.41757 0.0
C703 C 0.74649 0.35946 0.4427 0.0
C704 C 0.75747 0.34069 0.36473 0.0
C705 C 0.7797 0.33648 0.52293 0.0
N706 N 0.76063 0.35659 0.54254 0.0
O707 O 0.78938 0.26895 0.45604 0.0
H708 H 0.75083 0.33818 0.27638 0.0
H709 H 0.79339 0.32819 0.58872 0.0
O710 O 0.77662 0.29449 0.22285 0.0
C711 C 0.79931 0.26419 0.55849 0.0
O712 O 0.81663 0.28263 0.60348 0.0
N713 N 0.8221 0.33318 0.29466 0.0
C714 C 0.85973 0.37663 0.235 0.0
C715 C 0.84826 0.35827 0.15078 0.0
C716 C 0.82929 0.33692 0.1823 0.0
C717 C 0.83348 0.35027 0.37689 0.0
C718 C 0.85106 0.37257 0.34897 0.0
H719 H 0.82227 0.32225 0.11805 0.0
H720 H 0.83043 0.34567 0.46678 0.0
H721 H 0.81082 0.25328 0.19438 0.0
H722 H 0.89633 0.27253 0.21778 0.0
H723 H 0.72763 0.3719 0.43137 0.0
H724 H 0.85467 0.3591 0.06168 0.0
H725 H 0.85842 0.3857 0.41859 0.0
C726 C 0.97361 0.61035 0.5743 0.0
C727 C 0.98875 0.62481 0.49269 0.0
N728 N 0.00436 0.60593 0.43519 0.0
N729 N 0.97893 0.58258 0.56268 0.0
C730 C 0.99867 0.58073 0.48216 0.0
H731 H 0.95707 0.61905 0.62736 0.0
Co732 Co 0.95648 0.55446 0.61387 0.0
C733 C 0.9678 0.5195 0.36538 0.0
O734 O 0.96931 0.53908 0.2861 0.0
N735 N 0.93277 0.52788 0.66766 0.0
C736 C 0.89898 0.49659 0.69283 0.0
C737 C 0.91774 0.50757 0.61485 0.0
C738 C 0.92194 0.52984 0.77302 0.0
N739 N 0.90184 0.51076 0.79266 0.0
O740 O 0.9894 0.53955 0.70608 0.0
H741 H 0.92025 0.50092 0.5265 0.0
H742 H 0.93021 0.54356 0.83879 0.0
O743 O 0.96389 0.52675 0.47291 0.0
C744 C 0.99416 0.54948 0.80856 0.0
O745 O 0.97574 0.5668 0.85364 0.0
N746 N 0.92521 0.57225 0.54474 0.0
C747 C 0.88175 0.60983 0.48503 0.0
C748 C 0.90009 0.59835 0.4008 0.0
C749 C 0.92145 0.5794 0.43236 0.0
C750 C 0.90813 0.58364 0.62697 0.0
C751 C 0.88582 0.60121 0.59903 0.0
H752 H 0.9361 0.57236 0.36809 0.0
H753 H 0.91274 0.58063 0.71686 0.0
H754 H 0.00513 0.56099 0.44484 0.0
H755 H 0.98578 0.64654 0.4676 0.0
H756 H 0.88655 0.47771 0.68152 0.0
H757 H 0.89924 0.60473 0.31168 0.0
H758 H 0.87271 0.60859 0.66865 0.0
C759 C 0.64813 0.7238 0.8246 0.0
C760 C 0.63367 0.73891 0.74293 0.0
N761 N 0.65255 0.75444 0.6851 0.0
N762 N 0.67589 0.72908 0.81272 0.0
C763 C 0.67774 0.74877 0.73194 0.0
H764 H 0.63944 0.7073 0.87792 0.0
Co765 Co 0.70396 0.70658 0.86384 0.0
C766 C 0.73889 0.71787 0.61529 0.0
O767 O 0.71932 0.71936 0.53602 0.0
N768 N 0.73049 0.68283 0.91756 0.0
C769 C 0.76175 0.64899 0.94264 0.0
C770 C 0.75078 0.66777 0.86469 0.0
C771 C 0.72855 0.67199 1.02293 0.0
N772 N 0.7476 0.65187 1.04251 0.0
O773 O 0.71888 0.73952 0.95605 0.0
H774 H 0.75741 0.67027 0.77632 0.0
H775 H 0.71485 0.68028 0.08875 0.0
O776 O 0.73164 0.71397 0.72284 0.0
C777 C 0.70895 0.74428 0.05853 0.0
O778 O 0.69163 0.72585 0.10356 0.0
N779 N 0.68615 0.6753 0.79471 0.0
C780 C 0.64854 0.63185 0.73501 0.0
C781 C 0.66001 0.65022 0.65081 0.0
C782 C 0.67897 0.67157 0.68235 0.0
C783 C 0.67478 0.6582 0.87692 0.0
C784 C 0.6572 0.63589 0.84898 0.0
H785 H 0.68599 0.68625 0.61812 0.0
H786 H 0.67782 0.66278 0.96682 0.0
H787 H 0.69745 0.75519 0.69442 0.0
H788 H 0.61194 0.73597 0.71806 0.0
H789 H 0.7806 0.63654 0.93126 0.0
H790 H 0.65361 0.64939 0.56172 0.0
H791 H 0.64983 0.62276 0.91857 0.0
C792 C 0.39947 0.46971 0.54293 0.0
C793 C 0.38816 0.48446 0.45189 0.0
N794 N 0.40931 0.49851 0.40167 0.0
N795 N 0.4276 0.47412 0.54649 0.0
C796 C 0.43244 0.49309 0.46412 0.0
H797 H 0.38813 0.45491 0.59596 0.0
Co798 Co 0.45502 0.45216 0.61514 0.0
C799 C 0.48598 0.46113 0.36764 0.0
O800 O 0.46343 0.45973 0.3029 0.0
N801 N 0.48072 0.42935 0.68309 0.0
C802 C 0.51687 0.40351 0.73716 0.0
C803 C 0.50684 0.42122 0.65333 0.0
C804 C 0.47481 0.41514 0.7796 0.0
N805 N 0.49692 0.40059 0.81893 0.0
O806 O 0.46874 0.4866 0.70652 0.0
H807 H 0.51864 0.42901 0.5806 0.0
H808 H 0.45585 0.41835 0.82917 0.0
O809 O 0.4836 0.45825 0.47885 0.0
C810 C 0.46601 0.48993 0.8175 0.0
O811 O 0.45629 0.46898 0.87898 0.0
N812 N 0.43916 0.41967 0.54865 0.0
C813 C 0.40647 0.37298 0.48978 0.0
C814 C 0.42798 0.38253 0.41618 0.0
C815 C 0.44461 0.40566 0.44852 0.0
C816 C 0.4195 0.40948 0.62339 0.0
C817 C 0.403 0.38627 0.59602 0.0
H818 H 0.46151 0.41201 0.39296 0.0
H819 H 0.41581 0.42033 0.70381 0.0
H820 H 0.45308 0.50086 0.4444 0.0
H821 H 0.36688 0.48304 0.41942 0.0
H822 H 0.53861 0.39719 0.74689 0.0
H823 H 0.43164 0.37242 0.33396 0.0
H824 H 0.38658 0.37981 0.65506 0.0
C825 C 0.28865 0.64945 0.29279 0.0
C826 C 0.27391 0.63812 0.20177 0.0
N827 N 0.25988 0.65929 0.15159 0.0
N828 N 0.28425 0.6776 0.29639 0.0
C829 C 0.26529 0.68245 0.21405 0.0
H830 H 0.30343 0.63809 0.3458 0.0
Co831 Co 0.30617 0.70505 0.36508 0.0
C832 C 0.29722 0.73604 0.11765 0.0
O833 O 0.29863 0.71347 0.05288 0.0
N834 N 0.32895 0.73077 0.43307 0.0
C835 C 0.35478 0.76694 0.48715 0.0
C836 C 0.33708 0.75691 0.40334 0.0
C837 C 0.34315 0.72485 0.52953 0.0
N838 N 0.3577 0.74697 0.56887 0.0
O839 O 0.27175 0.71877 0.45651 0.0
H840 H 0.3293 0.76873 0.33064 0.0
H841 H 0.33995 0.70586 0.57905 0.0
O842 O 0.30008 0.73365 0.22885 0.0
C843 C 0.26844 0.71603 0.56749 0.0
O844 O 0.28937 0.70631 0.62894 0.0
N845 N 0.33864 0.68919 0.29855 0.0
C846 C 0.38536 0.65656 0.23977 0.0
C847 C 0.37581 0.67808 0.16621 0.0
C848 C 0.35266 0.69468 0.1985 0.0
C849 C 0.34882 0.66951 0.37324 0.0
C850 C 0.37204 0.65303 0.34592 0.0
H851 H 0.34631 0.71161 0.143 0.0
H852 H 0.33795 0.66579 0.45361 0.0
H853 H 0.25753 0.7031 0.19435 0.0
H854 H 0.27533 0.61682 0.16929 0.0
H855 H 0.36111 0.7887 0.49691 0.0
H856 H 0.38593 0.68178 0.08406 0.0
H857 H 0.3785 0.6366 0.40492 0.0
C858 C 0.1088 0.53873 1.04276 0.0
C859 C 0.12012 0.52399 0.95168 0.0
N860 N 0.09897 0.50996 0.90144 0.0
N861 N 0.08067 0.53433 0.04634 0.0
C862 C 0.07583 0.51537 0.96391 0.0
H863 H 0.12015 0.55352 0.09583 0.0
Co864 Co 0.05326 0.55628 0.11506 0.0
C865 C 0.02229 0.54734 0.8676 0.0
O866 O 0.04483 0.54874 0.80279 0.0
N867 N 0.02755 0.57909 0.18308 0.0
C868 C 0.99141 0.60495 0.23719 0.0
C869 C 1.00144 0.58723 0.15335 0.0
C870 C 0.03346 0.59331 0.27957 0.0
N871 N 0.01136 0.60787 0.31892 0.0
O872 O 0.03953 0.52184 0.20644 0.0
H873 H 0.98964 0.57945 0.08064 0.0
H874 H 0.05242 0.59009 0.32911 0.0
O875 O 0.02468 0.55021 0.97881 0.0
C876 C 0.04227 0.51852 0.31741 0.0
O877 O 0.05199 0.53946 0.37886 0.0
N878 N 0.06912 0.58878 0.04859 0.0
C879 C 0.10183 0.63547 0.98982 0.0
C880 C 0.08033 0.62593 0.91619 0.0
C881 C 0.0637 0.6028 0.94847 0.0
C882 C 0.08877 0.59895 0.12335 0.0
C883 C 0.10528 0.62217 0.09604 0.0
H884 H 0.0468 0.59644 0.89288 0.0
H885 H 0.09245 0.58809 0.20374 0.0
H886 H 0.0552 0.50762 0.94419 0.0
H887 H 0.1414 0.52541 0.9192 0.0
H888 H 0.96967 0.61128 0.24695 0.0
H889 H 0.07669 0.63604 0.83398 0.0
H890 H 0.12169 0.62862 0.1551 0.0
C891 C 0.21966 0.35903 0.79279 0.0
C892 C 0.23441 0.37036 0.70174 0.0
N893 N 0.24843 0.34918 0.65151 0.0
N894 N 0.22406 0.33087 0.79635 0.0
C895 C 0.24302 0.32602 0.71396 0.0
H896 H 0.20489 0.37038 0.84585 0.0
Co897 Co 0.20213 0.30343 0.86511 0.0
C898 C 0.21108 0.27242 0.61768 0.0
O899 O 0.20968 0.29499 0.5529 0.0
N900 N 0.17935 0.27771 0.93318 0.0
C901 C 0.15349 0.24156 0.98732 0.0
C902 C 0.1712 0.25158 0.90346 0.0
C903 C 0.16515 0.28365 1.02968 0.0
N904 N 0.15059 0.26154 0.06905 0.0
O905 O 0.23655 0.28971 0.95649 0.0
H906 H 0.17897 0.23976 0.83073 0.0
H907 H 0.16837 0.30263 0.07919 0.0
O908 O 0.20822 0.27481 0.7289 0.0
C909 C 0.23987 0.29244 0.06747 0.0
O910 O 0.21894 0.30217 0.12898 0.0
N911 N 0.16966 0.31929 0.79861 0.0
C912 C 0.12295 0.35192 0.7398 0.0
C913 C 0.13251 0.33039 0.66628 0.0
C914 C 0.15565 0.31379 0.6986 0.0
C915 C 0.15948 0.33898 0.87327 0.0
C916 C 0.13626 0.35546 0.84593 0.0
H917 H 0.162 0.29685 0.64313 0.0
H918 H 0.17034 0.3427 0.95363 0.0
H919 H 0.25077 0.30537 0.69423 0.0
H920 H 0.233 0.39165 0.66928 0.0
H921 H 0.14715 0.21981 0.99708 0.0
H922 H 0.12239 0.32668 0.58416 0.0
H923 H 0.1298 0.3719 0.9049 0.0
C924 C 0.39951 0.5387 0.14859 0.0
C925 C 0.38817 0.52403 0.23988 0.0
N926 N 0.40934 0.51013 0.29057 0.0
N927 N 0.42765 0.53434 0.14529 0.0
C928 C 0.43249 0.51548 0.22809 0.0
H929 H 0.38816 0.5534 0.09515 0.0
Co930 Co 0.45505 0.5563 0.07652 0.0
C931 C 0.48606 0.54742 0.32396 0.0
O932 O 0.46353 0.54885 0.38886 0.0
N933 N 0.48073 0.57913 1.00845 0.0
C934 C 0.51683 0.60504 0.95438 0.0
C935 C 0.50683 0.58731 1.03819 0.0
C936 C 0.4748 0.59334 0.91197 0.0
N937 N 0.49688 0.60794 0.87265 0.0
O938 O 0.46878 0.52186 0.98512 0.0
H939 H 0.51864 0.57954 0.11091 0.0
H940 H 0.45584 0.59011 0.86246 0.0
O941 O 0.48365 0.55025 0.21274 0.0
C942 C 0.46603 0.51854 0.87415 0.0
O943 O 0.45631 0.53949 0.81268 0.0
N944 N 0.43917 0.58879 0.14301 0.0
C945 C 0.40647 0.63548 0.20178 0.0
C946 C 0.42799 0.62597 0.27532 0.0
C947 C 0.44464 0.60284 0.24302 0.0
C948 C 0.4195 0.59894 0.06832 0.0
C949 C 0.40298 0.62214 0.09564 0.0
H950 H 0.46156 0.59652 0.2985 0.0
H951 H 0.41581 0.58806 0.98797 0.0
H952 H 0.45311 0.50775 0.248 0.0
H953 H 0.36687 0.52542 0.27213 0.0
H954 H 0.53856 0.61141 0.94463 0.0
H955 H 0.43167 0.63611 0.35745 0.0
H956 H 0.38655 0.62857 1.03665 0.0
C957 C 0.21968 0.64947 0.89867 0.0
C958 C 0.23435 0.63813 0.9899 0.0
N959 N 0.24826 0.65931 1.04052 0.0
N960 N 0.22405 0.67763 0.89534 0.0
C961 C 0.24291 0.68248 0.97805 0.0
H962 H 0.20498 0.63811 0.8453 0.0
Co963 Co 0.20212 0.70507 0.8266 0.0
C964 C 0.21102 0.7361 0.07404 0.0
O965 O 0.20957 0.71355 0.13889 0.0
N966 N 0.17933 0.73078 0.75856 0.0
C967 C 0.15345 0.76691 0.70452 0.0
C968 C 0.17117 0.7569 0.78831 0.0
C969 C 0.16513 0.72484 0.66211 0.0
N970 N 0.15055 0.74694 0.6228 0.0
O971 O 0.23653 0.71879 0.73516 0.0
H972 H 0.17893 0.76873 0.86102 0.0
H973 H 0.16834 0.70585 0.61259 0.0
O974 O 0.20818 0.7337 0.96281 0.0
C975 C 0.23985 0.71604 0.62418 0.0
O976 O 0.21891 0.70633 0.56272 0.0
N977 N 0.16965 0.6892 0.89313 0.0
C978 C 0.12294 0.65655 0.95185 0.0
C979 C 0.13246 0.67809 1.02537 0.0
C980 C 0.1556 0.6947 0.9931 0.0
C981 C 0.15951 0.6695 0.81847 0.0
C982 C 0.13629 0.65301 0.84577 0.0
H983 H 0.16193 0.71165 0.04855 0.0
H984 H 0.17038 0.66578 0.73814 0.0
H985 H 0.25065 0.70312 0.99793 0.0
H986 H 0.23295 0.61681 1.02218 0.0
H987 H 0.1471 0.78867 0.69478 0.0
H988 H 0.12231 0.68181 0.10746 0.0
H989 H 0.12985 0.63656 0.7868 0.0
C990 C 0.10879 0.46976 0.64839 0.0
C991 C 0.12012 0.48443 0.73964 0.0
N992 N 0.09895 0.49834 0.79032 0.0
N993 N 0.08065 0.47411 0.64512 0.0
C994 C 0.07581 0.49299 0.72788 0.0
H995 H 0.12014 0.45505 0.59498 0.0
Co996 Co 0.05325 0.45215 0.57644 0.0
C997 C 0.02225 0.46105 0.82394 0.0
O998 O 0.04478 0.45962 0.88877 0.0
N999 N 0.02757 0.42932 0.50845 0.0
C1000 C 0.99147 0.40342 0.45444 0.0
C1001 C 1.00147 0.42115 0.53824 0.0
C1002 C 0.0335 0.41511 0.41195 0.0
N1003 N 0.01142 0.40052 0.37267 0.0
O1004 O 0.03952 0.48658 0.48504 0.0
H1005 H 0.98966 0.42892 0.61098 0.0
H1006 H 0.05246 0.41833 0.36239 0.0
O1007 O 0.02465 0.45821 0.71272 0.0
C1008 C 0.04226 0.4899 0.37406 0.0
O1009 O 0.05198 0.46895 0.31257 0.0
N1010 N 0.06913 0.41966 0.64293 0.0
C1011 C 0.10185 0.37299 0.70178 0.0
C1012 C 0.08031 0.38251 0.77532 0.0
C1013 C 0.06367 0.40563 0.74299 0.0
C1014 C 0.08881 0.40951 0.56823 0.0
C1015 C 0.10534 0.38631 0.5956 0.0
H1016 H 0.04674 0.41195 0.79847 0.0
H1017 H 0.0925 0.42038 0.48784 0.0
H1018 H 0.05518 0.50072 0.7478 0.0
H1019 H 0.14142 0.48303 0.77188 0.0
H1020 H 0.96974 0.39706 0.44473 0.0
H1021 H 0.07664 0.37238 0.85748 0.0
H1022 H 0.12177 0.37987 0.5366 0.0
C1023 C 0.28866 0.359 0.39857 0.0
C1024 C 0.27399 0.37034 0.48982 0.0
N1025 N 0.26006 0.34916 0.54042 0.0
N1026 N 0.28428 0.33083 0.39521 0.0
C1027 C 0.2654 0.326 0.47793 0.0
H1028 H 0.30337 0.37035 0.3452 0.0
Co1029 Co 0.3062 0.30339 0.32643 0.0
C1030 C 0.29727 0.27236 0.57387 0.0
O1031 O 0.29872 0.29491 0.63872 0.0
N1032 N 0.32898 0.27768 0.25834 0.0
C1033 C 0.35484 0.24153 0.20421 0.0
C1034 C 0.33714 0.25155 0.28806 0.0
C1035 C 0.34318 0.28361 0.16183 0.0
N1036 N 0.35774 0.2615 0.12247 0.0
O1037 O 0.27178 0.28969 0.23504 0.0
H1038 H 0.32937 0.23973 0.3608 0.0
H1039 H 0.33996 0.3026 0.11233 0.0
O1040 O 0.30011 0.27476 0.46264 0.0
C1041 C 0.26846 0.29243 0.12407 0.0
O1042 O 0.28939 0.30215 0.06254 0.0
N1043 N 0.33867 0.31925 0.39293 0.0
C1044 C 0.38536 0.3519 0.45175 0.0
C1045 C 0.37583 0.33035 0.52523 0.0
C1046 C 0.3527 0.31374 0.49291 0.0
C1047 C 0.34884 0.33895 0.31829 0.0
C1048 C 0.37205 0.35544 0.34564 0.0
H1049 H 0.34636 0.29679 0.54834 0.0
H1050 H 0.33798 0.34268 0.23795 0.0
H1051 H 0.25765 0.30535 0.49779 0.0
H1052 H 0.2754 0.39166 0.52212 0.0
H1053 H 0.36119 0.21978 0.19445 0.0
H1054 H 0.38596 0.32663 0.60733 0.0
H1055 H 0.3785 0.37189 0.28669 0.0
loop_
_geom_bond_atom_site_label_1
_geom_bond_atom_site_label_2
_geom_bond_distance
_geom_bond_site_symmetry_2
_ccdc_geom_bond_type
C0 C1 1.351 1_455 S
C0 N3 1.368 . S
C0 H5 0.931 . S
C1 C0 1.351 1_655 S
C1 N2 1.373 1_655 S
C1 H29 0.930 . S
N2 C1 1.373 1_455 S
N2 C4 1.340 . S
N3 C0 1.368 . S
N3 C4 1.321 . S
N3 Co6 2.135 . S
C4 N2 1.340 . S
C4 N3 1.321 . S
C4 H28 0.930 . S
H5 C0 0.931 . S
Co6 N3 2.135 . S
Co6 N9 2.121 1_554 S
Co6 O14 2.055 1_554 S
Co6 O17 2.039 . S
Co6 N20 2.140 . S
C7 O8 1.227 . S
C7 O17 1.265 . S
O8 C7 1.227 . S
N9 Co6 2.121 1_556 S
N9 C11 1.375 . S
N9 C12 1.313 . S
C10 C11 1.338 . S
C10 N13 1.377 . S
C10 H30 0.930 1_545 S
C11 N9 1.375 . S
C11 C10 1.338 . S
C11 H15 0.931 1_556 S
C12 N9 1.313 . S
C12 N13 1.344 . S
C12 H16 0.930 . S
N13 C10 1.377 . S
N13 C12 1.344 . S
O14 Co6 2.055 1_556 S
O14 C18 1.253 . S
H15 C11 0.931 1_554 S
H16 C12 0.930 . S
O17 Co6 2.039 . S
O17 C7 1.265 . S
C18 O14 1.253 . S
C18 O19 1.227 . S
O19 C18 1.227 . S
N20 Co6 2.140 . S
N20 C23 1.346 . S
N20 C24 1.345 . S
C21 C22 1.387 . S
C21 C25 1.391 . S
C22 C21 1.387 . S
C22 C23 1.369 . S
C22 H31 0.929 . S
C23 N20 1.346 . S
C23 C22 1.369 . S
C23 H26 0.928 . S
C24 N20 1.345 . S
C24 C25 1.371 . S
C24 H27 0.931 1_554 S
C25 C21 1.391 . S
C25 C24 1.371 . S
C25 H32 0.930 1_554 S
H26 C23 0.928 . S
H27 C24 0.931 1_556 S
H28 C4 0.930 . S
H29 C1 0.930 . S
H30 C10 0.930 1_565 S
H31 C22 0.929 . S
H32 C25 0.930 1_556 S
C33 C34 1.351 . S
C33 N36 1.368 . S
C33 H38 0.931 . S
C34 C33 1.351 . S
C34 N35 1.373 . S
C34 H62 0.930 . S
N35 C34 1.373 . S
N35 C37 1.340 . S
N36 C33 1.368 . S
N36 C37 1.321 . S
N36 Co39 2.135 . S
C37 N35 1.340 . S
C37 N36 1.321 . S
C37 H61 0.930 . S
H38 C33 0.931 . S
Co39 N36 2.135 . S
Co39 N42 2.121 . S
Co39 O47 2.055 . S
Co39 O50 2.039 . S
Co39 N53 2.140 . S
C40 O41 1.227 . S
C40 O50 1.265 . S
O41 C40 1.227 . S
N42 Co39 2.121 . S
N42 C44 1.375 . S
N42 C45 1.313 . S
C43 C44 1.338 . S
C43 N46 1.377 . S
C43 H63 0.930 . S
C44 N42 1.375 . S
C44 C43 1.338 . S
C44 H48 0.931 . S
C45 N42 1.313 . S
C45 N46 1.344 . S
C45 H49 0.930 . S
N46 C43 1.377 . S
N46 C45 1.344 . S
O47 Co39 2.055 . S
O47 C51 1.253 . S
H48 C44 0.931 . S
H49 C45 0.930 . S
O50 Co39 2.039 . S
O50 C40 1.265 . S
C51 O47 1.253 . S
C51 O52 1.227 . S
O52 C51 1.227 . S
N53 Co39 2.140 . S
N53 C56 1.346 . S
N53 C57 1.345 . S
C54 C55 1.387 . S
C54 C58 1.391 . S
C55 C54 1.387 . S
C55 C56 1.369 . S
C55 H64 0.929 . S
C56 N53 1.346 . S
C56 C55 1.369 . S
C56 H59 0.928 . S
C57 N53 1.345 . S
C57 C58 1.371 . S
C57 H60 0.931 . S
C58 C54 1.391 . S
C58 C57 1.371 . S
C58 H65 0.930 . S
H59 C56 0.928 . S
H60 C57 0.931 . S
H61 C37 0.930 . S
H62 C34 0.930 . S
H63 C43 0.930 . S
H64 C55 0.929 . S
H65 C58 0.930 . S
C66 C67 1.351 . S
C66 N69 1.368 . S
C66 H71 0.931 . S
C67 C66 1.351 . S
C67 N68 1.373 . S
C67 H95 0.930 . S
N68 C67 1.373 . S
N68 C70 1.340 . S
N69 C66 1.368 . S
N69 C70 1.321 . S
N69 Co72 2.135 . S
C70 N68 1.340 . S
C70 N69 1.321 . S
C70 H94 0.930 . S
H71 C66 0.931 . S
Co72 N69 2.135 . S
Co72 N75 2.121 . S
Co72 O80 2.055 . S
Co72 O83 2.039 . S
Co72 N86 2.140 . S
C73 O74 1.227 . S
C73 O83 1.265 . S
O74 C73 1.227 . S
N75 Co72 2.121 . S
N75 C77 1.375 . S
N75 C78 1.313 . S
C76 C77 1.338 . S
C76 N79 1.377 . S
C76 H96 0.930 1_565 S
C77 N75 1.375 . S
C77 C76 1.338 . S
C77 H81 0.931 . S
C78 N75 1.313 . S
C78 N79 1.344 . S
C78 H82 0.930 . S
N79 C76 1.377 . S
N79 C78 1.344 . S
O80 Co72 2.055 . S
O80 C84 1.253 . S
H81 C77 0.931 . S
H82 C78 0.930 . S
O83 Co72 2.039 . S
O83 C73 1.265 . S
C84 O80 1.253 . S
C84 O85 1.227 . S
O85 C84 1.227 . S
N86 Co72 2.140 . S
N86 C89 1.346 . S
N86 C90 1.345 . S
C87 C88 1.387 . S
C87 C91 1.391 . S
C88 C87 1.387 . S
C88 C89 1.369 . S
C88 H97 0.929 . S
C89 N86 1.346 . S
C89 C88 1.369 . S
C89 H92 0.928 . S
C90 N86 1.345 . S
C90 C91 1.371 . S
C90 H93 0.931 . S
C91 C87 1.391 . S
C91 C90 1.371 . S
C91 H98 0.930 . S
H92 C89 0.928 . S
H93 C90 0.931 . S
H94 C70 0.930 . S
H95 C67 0.930 . S
H96 C76 0.930 1_545 S
H97 C88 0.929 . S
H98 C91 0.930 . S
C99 C100 1.351 . S
C99 N102 1.368 . S
C99 H104 0.931 . S
C100 C99 1.351 . S
C100 N101 1.373 1_556 S
C100 H128 0.930 . S
N101 C100 1.373 1_554 S
N101 C103 1.340 . S
N102 C99 1.368 . S
N102 C103 1.321 1_556 S
N102 Co105 2.135 . S
C103 N101 1.340 . S
C103 N102 1.321 1_554 S
C103 H127 0.930 . S
H104 C99 0.931 . S
Co105 N102 2.135 . S
Co105 N108 2.121 . S
Co105 O113 2.055 . S
Co105 O116 2.039 . S
Co105 N119 2.140 . S
C106 O107 1.227 1_556 S
C106 O116 1.265 . S
O107 C106 1.227 1_554 S
N108 Co105 2.121 . S
N108 C110 1.375 . S
N108 C111 1.313 . S
C109 C110 1.338 . S
C109 N112 1.377 . S
C109 H129 0.930 . S
C110 N108 1.375 . S
C110 C109 1.338 . S
C110 H114 0.931 . S
C111 N108 1.313 . S
C111 N112 1.344 . S
C111 H115 0.930 . S
N112 C109 1.377 . S
N112 C111 1.344 . S
O113 Co105 2.055 . S
O113 C117 1.253 . S
H114 C110 0.931 . S
H115 C111 0.930 . S
O116 Co105 2.039 . S
O116 C106 1.265 . S
C117 O113 1.253 . S
C117 O118 1.227 . S
O118 C117 1.227 . S
N119 Co105 2.140 . S
N119 C122 1.346 . S
N119 C123 1.345 . S
C120 C121 1.387 . S
C120 C124 1.391 . S
C121 C120 1.387 . S
C121 C122 1.369 . S
C121 H130 0.929 1_556 S
C122 N119 1.346 . S
C122 C121 1.369 . S
C122 H125 0.928 . S
C123 N119 1.345 . S
C123 C124 1.371 . S
C123 H126 0.931 . S
C124 C120 1.391 . S
C124 C123 1.371 . S
C124 H131 0.930 . S
H125 C122 0.928 . S
H126 C123 0.931 . S
H127 C103 0.930 . S
H128 C100 0.930 . S
H129 C109 0.930 . S
H130 C121 0.929 1_554 S
H131 C124 0.930 . S
C132 C133 1.351 1_455 S
C132 N135 1.368 . S
C132 H137 0.931 . S
C133 C132 1.351 1_655 S
C133 N134 1.373 1_655 S
C133 H161 0.930 . S
N134 C133 1.373 1_455 S
N134 C136 1.340 . S
N135 C132 1.368 . S
N135 C136 1.321 . S
N135 Co138 2.135 . S
C136 N134 1.340 . S
C136 N135 1.321 . S
C136 H160 0.930 . S
H137 C132 0.931 . S
Co138 N135 2.135 . S
Co138 N141 2.121 . S
Co138 O146 2.055 . S
Co138 O149 2.039 . S
Co138 N152 2.140 . S
C139 O140 1.227 . S
C139 O149 1.265 . S
O140 C139 1.227 . S
N141 Co138 2.121 . S
N141 C143 1.375 . S
N141 C144 1.313 . S
C142 C143 1.338 . S
C142 N145 1.377 . S
C142 H162 0.930 1_565 S
C143 N141 1.375 . S
C143 C142 1.338 . S
C143 H147 0.931 . S
C144 N141 1.313 . S
C144 N145 1.344 . S
C144 H148 0.930 . S
N145 C142 1.377 . S
N145 C144 1.344 . S
O146 Co138 2.055 . S
O146 C150 1.253 . S
H147 C143 0.931 . S
H148 C144 0.930 . S
O149 Co138 2.039 . S
O149 C139 1.265 . S
C150 O146 1.253 . S
C150 O151 1.227 . S
O151 C150 1.227 . S
N152 Co138 2.140 . S
N152 C155 1.346 . S
N152 C156 1.345 . S
C153 C154 1.387 . S
C153 C157 1.391 . S
C154 C153 1.387 . S
C154 C155 1.369 . S
C154 H163 0.929 . S
C155 N152 1.346 . S
C155 C154 1.369 . S
C155 H158 0.928 . S
C156 N152 1.345 . S
C156 C157 1.371 . S
C156 H159 0.931 . S
C157 C153 1.391 . S
C157 C156 1.371 . S
C157 H164 0.930 . S
H158 C155 0.928 . S
H159 C156 0.931 . S
H160 C136 0.930 . S
H161 C133 0.930 . S
H162 C142 0.930 1_545 S
H163 C154 0.929 . S
H164 C157 0.930 . S
C165 C166 1.351 . S
C165 N168 1.368 . S
C165 H170 0.931 . S
C166 C165 1.351 . S
C166 N167 1.373 . S
C166 H194 0.930 . S
N167 C166 1.373 . S
N167 C169 1.340 . S
N168 C165 1.368 . S
N168 C169 1.321 . S
N168 Co171 2.135 . S
C169 N167 1.340 . S
C169 N168 1.321 . S
C169 H193 0.930 . S
H170 C165 0.931 . S
Co171 N168 2.135 . S
Co171 N174 2.121 . S
Co171 O179 2.055 . S
Co171 O182 2.039 . S
Co171 N185 2.140 . S
C172 O173 1.227 . S
C172 O182 1.265 . S
O173 C172 1.227 . S
N174 Co171 2.121 . S
N174 C176 1.375 . S
N174 C177 1.313 . S
C175 C176 1.338 . S
C175 N178 1.377 1_556 S
C175 H195 0.930 . S
C176 N174 1.375 . S
C176 C175 1.338 . S
C176 H180 0.931 . S
C177 N174 1.313 . S
C177 N178 1.344 1_556 S
C177 H181 0.930 1_556 S
N178 C175 1.377 1_554 S
N178 C177 1.344 1_554 S
O179 Co171 2.055 . S
O179 C183 1.253 . S
H180 C176 0.931 . S
H181 C177 0.930 1_554 S
O182 Co171 2.039 . S
O182 C172 1.265 . S
C183 O179 1.253 . S
C183 O184 1.227 . S
O184 C183 1.227 . S
N185 Co171 2.140 . S
N185 C188 1.346 . S
N185 C189 1.345 . S
C186 C187 1.387 . S
C186 C190 1.391 . S
C187 C186 1.387 . S
C187 C188 1.369 . S
C187 H196 0.929 . S
C188 N185 1.346 . S
C188 C187 1.369 . S
C188 H191 0.928 . S
C189 N185 1.345 . S
C189 C190 1.371 . S
C189 H192 0.931 . S
C190 C186 1.391 . S
C190 C189 1.371 . S
C190 H197 0.930 . S
H191 C188 0.928 . S
H192 C189 0.931 . S
H193 C169 0.930 . S
H194 C166 0.930 . S
H195 C175 0.930 . S
H196 C187 0.929 . S
H197 C190 0.930 . S
C198 C199 1.351 . S
C198 N201 1.368 . S
C198 H203 0.931 1_556 S
C199 C198 1.351 . S
C199 N200 1.373 . S
C199 H227 0.930 . S
N200 C199 1.373 . S
N200 C202 1.340 . S
N201 C198 1.368 . S
N201 C202 1.321 . S
N201 Co204 2.135 1_556 S
C202 N200 1.340 . S
C202 N201 1.321 . S
C202 H226 0.930 . S
H203 C198 0.931 1_554 S
Co204 N201 2.135 1_554 S
Co204 N207 2.121 . S
Co204 O212 2.055 . S
Co204 O215 2.039 1_554 S
Co204 N218 2.140 . S
C205 O206 1.227 . S
C205 O215 1.265 . S
O206 C205 1.227 . S
N207 Co204 2.121 . S
N207 C209 1.375 . S
N207 C210 1.313 . S
C208 C209 1.338 . S
C208 N211 1.377 . S
C208 H228 0.930 1_545 S
C209 N207 1.375 . S
C209 C208 1.338 . S
C209 H213 0.931 . S
C210 N207 1.313 . S
C210 N211 1.344 . S
C210 H214 0.930 . S
N211 C208 1.377 . S
N211 C210 1.344 . S
O212 Co204 2.055 . S
O212 C216 1.253 . S
H213 C209 0.931 . S
H214 C210 0.930 . S
O215 Co204 2.039 1_556 S
O215 C205 1.265 . S
C216 O212 1.253 . S
C216 O217 1.227 . S
O217 C216 1.227 . S
N218 Co204 2.140 . S
N218 C221 1.346 1_554 S
N218 C222 1.345 . S
C219 C220 1.387 . S
C219 C223 1.391 1_556 S
C220 C219 1.387 . S
C220 C221 1.369 . S
C220 H229 0.929 . S
C221 N218 1.346 1_556 S
C221 C220 1.369 . S
C221 H224 0.928 . S
C222 N218 1.345 . S
C222 C223 1.371 . S
C222 H225 0.931 . S
C223 C219 1.391 1_554 S
C223 C222 1.371 . S
C223 H230 0.930 . S
H224 C221 0.928 . S
H225 C222 0.931 . S
H226 C202 0.930 . S
H227 C199 0.930 . S
H228 C208 0.930 1_565 S
H229 C220 0.929 . S
H230 C223 0.930 . S
C231 C232 1.351 . S
C231 N234 1.368 . S
C231 H236 0.931 . S
C232 C231 1.351 . S
C232 N233 1.373 . S
C232 H260 0.930 . S
N233 C232 1.373 . S
N233 C235 1.340 . S
N234 C231 1.368 . S
N234 C235 1.321 . S
N234 Co237 2.135 . S
C235 N233 1.340 . S
C235 N234 1.321 . S
C235 H259 0.930 . S
H236 C231 0.931 . S
Co237 N234 2.135 . S
Co237 N240 2.121 . S
Co237 O245 2.055 . S
Co237 O248 2.039 . S
Co237 N251 2.140 . S
C238 O239 1.227 . S
C238 O248 1.265 . S
O239 C238 1.227 . S
N240 Co237 2.121 . S
N240 C242 1.375 . S
N240 C243 1.313 . S
C241 C242 1.338 . S
C241 N244 1.377 . S
C241 H261 0.930 . S
C242 N240 1.375 . S
C242 C241 1.338 . S
C242 H246 0.931 . S
C243 N240 1.313 . S
C243 N244 1.344 . S
C243 H247 0.930 . S
N244 C241 1.377 . S
N244 C243 1.344 . S
O245 Co237 2.055 . S
O245 C249 1.253 . S
H246 C242 0.931 . S
H247 C243 0.930 . S
O248 Co237 2.039 . S
O248 C238 1.265 . S
C249 O245 1.253 . S
C249 O250 1.227 . S
O250 C249 1.227 . S
N251 Co237 2.140 . S
N251 C254 1.346 . S
N251 C255 1.345 . S
C252 C253 1.387 . S
C252 C256 1.391 . S
C253 C252 1.387 . S
C253 C254 1.369 . S
C253 H262 0.929 . S
C254 N251 1.346 . S
C254 C253 1.369 . S
C254 H257 0.928 . S
C255 N251 1.345 . S
C255 C256 1.371 . S
C255 H258 0.931 . S
C256 C252 1.391 . S
C256 C255 1.371 . S
C256 H263 0.930 . S
H257 C254 0.928 . S
H258 C255 0.931 . S
H259 C235 0.930 . S
H260 C232 0.930 . S
H261 C241 0.930 . S
H262 C253 0.929 . S
H263 C256 0.930 . S
C264 C265 1.351 1_565 S
C264 N267 1.368 . S
C264 H269 0.931 1_556 S
C265 C264 1.351 1_545 S
C265 N266 1.375 . S
C265 H293 0.930 . S
N266 C265 1.375 . S
N266 C268 1.334 1_545 S
N267 C264 1.368 . S
N267 C268 1.321 . S
N267 Co270 2.135 1_556 S
C268 N266 1.334 1_565 S
C268 N267 1.321 . S
C268 H292 0.930 . S
H269 C264 0.931 1_554 S
Co270 N267 2.135 1_554 S
Co270 N273 2.121 . S
Co270 O278 2.055 . S
Co270 O281 2.039 1_554 S
Co270 N284 2.140 . S
C271 O272 1.227 . S
C271 O281 1.265 . S
O272 C271 1.227 . S
N273 Co270 2.121 . S
N273 C275 1.375 . S
N273 C276 1.313 . S
C274 C275 1.338 . S
C274 N277 1.377 . S
C274 H294 0.930 1_655 S
C275 N273 1.375 . S
C275 C274 1.338 . S
C275 H279 0.931 . S
C276 N273 1.313 . S
C276 N277 1.344 . S
C276 H280 0.930 . S
N277 C274 1.377 . S
N277 C276 1.344 . S
O278 Co270 2.055 . S
O278 C282 1.253 . S
H279 C275 0.931 . S
H280 C276 0.930 . S
O281 Co270 2.039 1_556 S
O281 C271 1.265 . S
C282 O278 1.253 . S
C282 O283 1.227 . S
O283 C282 1.227 . S
N284 Co270 2.140 . S
N284 C287 1.346 1_554 S
N284 C288 1.345 . S
C285 C286 1.387 . S
C285 C289 1.391 1_556 S
C286 C285 1.387 . S
C286 C287 1.369 . S
C286 H295 0.929 . S
C287 N284 1.346 1_556 S
C287 C286 1.369 . S
C287 H290 0.928 . S
C288 N284 1.345 . S
C288 C289 1.371 . S
C288 H291 0.931 . S
C289 C285 1.391 1_554 S
C289 C288 1.371 . S
C289 H296 0.930 . S
H290 C287 0.928 . S
H291 C288 0.931 . S
H292 C268 0.930 . S
H293 C265 0.930 . S
H294 C274 0.930 1_455 S
H295 C286 0.929 . S
H296 C289 0.930 . S
C297 C298 1.351 . S
C297 N300 1.368 . S
C297 H302 0.931 . S
C298 C297 1.351 . S
C298 N299 1.373 . S
C298 H326 0.930 . S
N299 C298 1.373 . S
N299 C301 1.340 . S
N300 C297 1.368 . S
N300 C301 1.321 . S
N300 Co303 2.135 . S
C301 N299 1.340 . S
C301 N300 1.321 . S
C301 H325 0.930 . S
H302 C297 0.931 . S
Co303 N300 2.135 . S
Co303 N306 2.121 . S
Co303 O311 2.055 . S
Co303 O314 2.039 . S
Co303 N317 2.140 . S
C304 O305 1.227 . S
C304 O314 1.265 . S
O305 C304 1.227 . S
N306 Co303 2.121 . S
N306 C308 1.375 . S
N306 C309 1.313 . S
C307 C308 1.338 . S
C307 N310 1.377 1_556 S
C307 H327 0.930 . S
C308 N306 1.375 . S
C308 C307 1.338 . S
C308 H312 0.931 . S
C309 N306 1.313 . S
C309 N310 1.344 1_556 S
C309 H313 0.930 1_556 S
N310 C307 1.377 1_554 S
N310 C309 1.344 1_554 S
O311 Co303 2.055 . S
O311 C315 1.253 . S
H312 C308 0.931 . S
H313 C309 0.930 1_554 S
O314 Co303 2.039 . S
O314 C304 1.265 . S
C315 O311 1.253 . S
C315 O316 1.227 . S
O316 C315 1.227 . S
N317 Co303 2.140 . S
N317 C320 1.346 . S
N317 C321 1.345 . S
C318 C319 1.387 . S
C318 C322 1.391 . S
C319 C318 1.387 . S
C319 C320 1.369 . S
C319 H328 0.929 . S
C320 N317 1.346 . S
C320 C319 1.369 . S
C320 H323 0.928 . S
C321 N317 1.345 . S
C321 C322 1.371 . S
C321 H324 0.931 . S
C322 C318 1.391 . S
C322 C321 1.371 . S
C322 H329 0.930 . S
H323 C320 0.928 . S
H324 C321 0.931 . S
H325 C301 0.930 . S
H326 C298 0.930 . S
H327 C307 0.930 . S
H328 C319 0.929 . S
H329 C322 0.930 . S
C330 C331 1.351 1_545 S
C330 N333 1.368 . S
C330 H335 0.931 . S
C331 C330 1.351 1_565 S
C331 N332 1.375 . S
C331 H359 0.930 . S
N332 C331 1.375 . S
N332 C334 1.335 1_565 S
N333 C330 1.368 . S
N333 C334 1.321 . S
N333 Co336 2.135 . S
C334 N332 1.335 1_545 S
C334 N333 1.321 . S
C334 H358 0.930 . S
H335 C330 0.931 . S
Co336 N333 2.135 . S
Co336 N339 2.121 . S
Co336 O344 2.055 . S
Co336 O347 2.039 . S
Co336 N350 2.140 . S
C337 O338 1.227 . S
C337 O347 1.265 . S
O338 C337 1.227 . S
N339 Co336 2.121 . S
N339 C341 1.375 . S
N339 C342 1.313 . S
C340 C341 1.338 . S
C340 N343 1.377 . S
C340 H360 0.930 . S
C341 N339 1.375 . S
C341 C340 1.338 . S
C341 H345 0.931 . S
C342 N339 1.313 . S
C342 N343 1.344 . S
C342 H346 0.930 . S
N343 C340 1.377 . S
N343 C342 1.344 . S
O344 Co336 2.055 . S
O344 C348 1.253 . S
H345 C341 0.931 . S
H346 C342 0.930 . S
O347 Co336 2.039 . S
O347 C337 1.265 . S
C348 O344 1.253 . S
C348 O349 1.227 . S
O349 C348 1.227 . S
N350 Co336 2.140 . S
N350 C353 1.346 . S
N350 C354 1.345 . S
C351 C352 1.387 . S
C351 C355 1.391 . S
C352 C351 1.387 . S
C352 C353 1.369 . S
C352 H361 0.929 . S
C353 N350 1.346 . S
C353 C352 1.369 . S
C353 H356 0.928 . S
C354 N350 1.345 . S
C354 C355 1.371 . S
C354 H357 0.931 . S
C355 C351 1.391 . S
C355 C354 1.371 . S
C355 H362 0.930 . S
H356 C353 0.928 . S
H357 C354 0.931 . S
H358 C334 0.930 . S
H359 C331 0.930 . S
H360 C340 0.930 . S
H361 C352 0.929 . S
H362 C355 0.930 . S
C363 C364 1.351 . S
C363 N366 1.368 . S
C363 H368 0.931 . S
C364 C363 1.351 . S
C364 N365 1.373 . S
C364 H392 0.930 . S
N365 C364 1.373 . S
N365 C367 1.340 . S
N366 C363 1.368 . S
N366 C367 1.321 . S
N366 Co369 2.135 . S
C367 N365 1.340 . S
C367 N366 1.321 . S
C367 H391 0.930 . S
H368 C363 0.931 . S
Co369 N366 2.135 . S
Co369 N372 2.121 . S
Co369 O377 2.055 . S
Co369 O380 2.039 . S
Co369 N383 2.140 . S
C370 O371 1.227 . S
C370 O380 1.265 . S
O371 C370 1.227 . S
N372 Co369 2.121 . S
N372 C374 1.375 . S
N372 C375 1.313 . S
C373 C374 1.338 . S
C373 N376 1.377 . S
C373 H393 0.930 . S
C374 N372 1.375 . S
C374 C373 1.338 . S
C374 H378 0.931 . S
C375 N372 1.313 . S
C375 N376 1.344 . S
C375 H379 0.930 . S
N376 C373 1.377 . S
N376 C375 1.344 . S
O377 Co369 2.055 . S
O377 C381 1.253 . S
H378 C374 0.931 . S
H379 C375 0.930 . S
O380 Co369 2.039 . S
O380 C370 1.265 . S
C381 O377 1.253 . S
C381 O382 1.227 . S
O382 C381 1.227 . S
N383 Co369 2.140 . S
N383 C386 1.346 . S
N383 C387 1.345 . S
C384 C385 1.387 . S
C384 C388 1.391 . S
C385 C384 1.387 . S
C385 C386 1.369 . S
C385 H394 0.929 . S
C386 N383 1.346 . S
C386 C385 1.369 . S
C386 H389 0.928 . S
C387 N383 1.345 . S
C387 C388 1.371 . S
C387 H390 0.931 . S
C388 C384 1.391 . S
C388 C387 1.371 . S
C388 H395 0.930 . S
H389 C386 0.928 . S
H390 C387 0.931 . S
H391 C367 0.930 . S
H392 C364 0.930 . S
H393 C373 0.930 . S
H394 C385 0.929 . S
H395 C388 0.930 . S
C396 C397 1.351 1_545 S
C396 N399 1.368 . S
C396 H401 0.931 . S
C397 C396 1.351 1_565 S
C397 N398 1.375 . S
C397 H425 0.930 . S
N398 C397 1.375 . S
N398 C400 1.335 1_565 S
N399 C396 1.368 . S
N399 C400 1.321 . S
N399 Co402 2.135 . S
C400 N398 1.335 1_545 S
C400 N399 1.321 . S
C400 H424 0.930 . S
H401 C396 0.931 . S
Co402 N399 2.135 . S
Co402 N405 2.121 . S
Co402 O410 2.055 . S
Co402 O413 2.039 . S
Co402 N416 2.140 . S
C403 O404 1.227 . S
C403 O413 1.265 . S
O404 C403 1.227 . S
N405 Co402 2.121 . S
N405 C407 1.375 . S
N405 C408 1.313 . S
C406 C407 1.338 . S
C406 N409 1.377 . S
C406 H426 0.930 1_655 S
C407 N405 1.375 . S
C407 C406 1.338 . S
C407 H411 0.931 . S
C408 N405 1.313 . S
C408 N409 1.344 . S
C408 H412 0.930 . S
N409 C406 1.377 . S
N409 C408 1.344 . S
O410 Co402 2.055 . S
O410 C414 1.253 . S
H411 C407 0.931 . S
H412 C408 0.930 . S
O413 Co402 2.039 . S
O413 C403 1.265 . S
C414 O410 1.253 . S
C414 O415 1.227 . S
O415 C414 1.227 . S
N416 Co402 2.140 . S
N416 C419 1.346 . S
N416 C420 1.345 . S
C417 C418 1.387 . S
C417 C421 1.391 . S
C418 C417 1.387 . S
C418 C419 1.369 . S
C418 H427 0.929 . S
C419 N416 1.346 . S
C419 C418 1.369 . S
C419 H422 0.928 . S
C420 N416 1.345 . S
C420 C421 1.371 . S
C420 H423 0.931 . S
C421 C417 1.391 . S
C421 C420 1.371 . S
C421 H428 0.930 . S
H422 C419 0.928 . S
H423 C420 0.931 . S
H424 C400 0.930 . S
H425 C397 0.930 . S
H426 C406 0.930 1_455 S
H427 C418 0.929 . S
H428 C421 0.930 . S
C429 C430 1.351 . S
C429 N432 1.368 . S
C429 H434 0.931 . S
C430 C429 1.351 . S
C430 N431 1.373 . S
C430 H458 0.930 . S
N431 C430 1.373 . S
N431 C433 1.340 . S
N432 C429 1.368 . S
N432 C433 1.321 . S
N432 Co435 2.135 . S
C433 N431 1.340 . S
C433 N432 1.321 . S
C433 H457 0.930 . S
H434 C429 0.931 . S
Co435 N432 2.135 . S
Co435 N438 2.121 . S
Co435 O443 2.055 . S
Co435 O446 2.039 . S
Co435 N449 2.140 . S
C436 O437 1.227 . S
C436 O446 1.265 . S
O437 C436 1.227 . S
N438 Co435 2.121 . S
N438 C440 1.375 . S
N438 C441 1.313 . S
C439 C440 1.338 . S
C439 N442 1.377 . S
C439 H459 0.930 . S
C440 N438 1.375 . S
C440 C439 1.338 . S
C440 H444 0.931 . S
C441 N438 1.313 . S
C441 N442 1.344 . S
C441 H445 0.930 . S
N442 C439 1.377 . S
N442 C441 1.344 . S
O443 Co435 2.055 . S
O443 C447 1.253 . S
H444 C440 0.931 . S
H445 C441 0.930 . S
O446 Co435 2.039 . S
O446 C436 1.265 . S
C447 O443 1.253 . S
C447 O448 1.227 . S
O448 C447 1.227 . S
N449 Co435 2.140 . S
N449 C452 1.346 . S
N449 C453 1.345 . S
C450 C451 1.387 . S
C450 C454 1.391 . S
C451 C450 1.387 . S
C451 C452 1.369 . S
C451 H460 0.929 . S
C452 N449 1.346 . S
C452 C451 1.369 . S
C452 H455 0.928 . S
C453 N449 1.345 . S
C453 C454 1.371 . S
C453 H456 0.931 . S
C454 C450 1.391 . S
C454 C453 1.371 . S
C454 H461 0.930 . S
H455 C452 0.928 . S
H456 C453 0.931 . S
H457 C433 0.930 . S
H458 C430 0.930 . S
H459 C439 0.930 . S
H460 C451 0.929 . S
H461 C454 0.930 . S
C462 C463 1.351 1_565 S
C462 N465 1.368 . S
C462 H467 0.931 . S
C463 C462 1.351 1_545 S
C463 N464 1.375 . S
C463 H491 0.930 . S
N464 C463 1.375 . S
N464 C466 1.334 1_545 S
N465 C462 1.368 . S
N465 C466 1.321 . S
N465 Co468 2.135 . S
C466 N464 1.334 1_565 S
C466 N465 1.321 . S
C466 H490 0.930 . S
H467 C462 0.931 . S
Co468 N465 2.135 . S
Co468 N471 2.121 1_554 S
Co468 O476 2.055 1_554 S
Co468 O479 2.039 . S
Co468 N482 2.140 . S
C469 O470 1.227 . S
C469 O479 1.265 . S
O470 C469 1.227 . S
N471 Co468 2.121 1_556 S
N471 C473 1.378 . S
N471 C474 1.313 . S
C472 C473 1.344 . S
C472 N475 1.377 . S
C472 H492 0.930 . S
C473 N471 1.378 . S
C473 C472 1.344 . S
C473 H477 0.922 1_556 S
C474 N471 1.313 . S
C474 N475 1.344 . S
C474 H478 0.930 . S
N475 C472 1.377 . S
N475 C474 1.344 . S
O476 Co468 2.055 1_556 S
O476 C480 1.253 . S
H477 C473 0.922 1_554 S
H478 C474 0.930 . S
O479 Co468 2.039 . S
O479 C469 1.265 . S
C480 O476 1.253 . S
C480 O481 1.227 . S
O481 C480 1.227 . S
N482 Co468 2.140 . S
N482 C485 1.346 . S
N482 C486 1.345 . S
C483 C484 1.387 . S
C483 C487 1.391 . S
C484 C483 1.387 . S
C484 C485 1.369 . S
C484 H493 0.929 . S
C485 N482 1.346 . S
C485 C484 1.369 . S
C485 H488 0.928 . S
C486 N482 1.345 . S
C486 C487 1.371 . S
C486 H489 0.931 1_554 S
C487 C483 1.391 . S
C487 C486 1.371 . S
C487 H494 0.930 1_554 S
H488 C485 0.928 . S
H489 C486 0.931 1_556 S
H490 C466 0.930 . S
H491 C463 0.930 . S
H492 C472 0.930 . S
H493 C484 0.929 . S
H494 C487 0.930 1_556 S
C495 C496 1.351 . S
C495 N498 1.368 . S
C495 H500 0.931 . S
C496 C495 1.351 . S
C496 N497 1.373 1_556 S
C496 H524 0.930 . S
N497 C496 1.373 1_554 S
N497 C499 1.340 . S
N498 C495 1.368 . S
N498 C499 1.321 1_556 S
N498 Co501 2.135 . S
C499 N497 1.340 . S
C499 N498 1.321 1_554 S
C499 H523 0.930 . S
H500 C495 0.931 . S
Co501 N498 2.135 . S
Co501 N504 2.121 . S
Co501 O509 2.055 . S
Co501 O512 2.039 . S
Co501 N515 2.140 . S
C502 O503 1.227 1_556 S
C502 O512 1.265 . S
O503 C502 1.227 1_554 S
N504 Co501 2.121 . S
N504 C506 1.375 . S
N504 C507 1.313 . S
C505 C506 1.338 . S
C505 N508 1.377 . S
C505 H525 0.930 . S
C506 N504 1.375 . S
C506 C505 1.338 . S
C506 H510 0.931 . S
C507 N504 1.313 . S
C507 N508 1.344 . S
C507 H511 0.930 . S
N508 C505 1.377 . S
N508 C507 1.344 . S
O509 Co501 2.055 . S
O509 C513 1.253 . S
H510 C506 0.931 . S
H511 C507 0.930 . S
O512 Co501 2.039 . S
O512 C502 1.265 . S
C513 O509 1.253 . S
C513 O514 1.227 . S
O514 C513 1.227 . S
N515 Co501 2.140 . S
N515 C518 1.346 . S
N515 C519 1.345 . S
C516 C517 1.387 . S
C516 C520 1.391 . S
C517 C516 1.387 . S
C517 C518 1.369 . S
C517 H526 0.929 1_556 S
C518 N515 1.346 . S
C518 C517 1.369 . S
C518 H521 0.928 . S
C519 N515 1.345 . S
C519 C520 1.371 . S
C519 H522 0.931 . S
C520 C516 1.391 . S
C520 C519 1.371 . S
C520 H527 0.930 . S
H521 C518 0.928 . S
H522 C519 0.931 . S
H523 C499 0.930 . S
H524 C496 0.930 . S
H525 C505 0.930 . S
H526 C517 0.929 1_554 S
H527 C520 0.930 . S
C528 C529 1.351 . S
C528 N531 1.368 . S
C528 H533 0.931 . S
C529 C528 1.351 . S
C529 N530 1.373 . S
C529 H557 0.930 . S
N530 C529 1.373 . S
N530 C532 1.340 . S
N531 C528 1.368 . S
N531 C532 1.321 . S
N531 Co534 2.135 . S
C532 N530 1.340 . S
C532 N531 1.321 . S
C532 H556 0.930 . S
H533 C528 0.931 . S
Co534 N531 2.135 . S
Co534 N537 2.121 . S
Co534 O542 2.055 . S
Co534 O545 2.039 . S
Co534 N548 2.140 . S
C535 O536 1.227 . S
C535 O545 1.265 . S
O536 C535 1.227 . S
N537 Co534 2.121 . S
N537 C539 1.375 . S
N537 C540 1.313 . S
C538 C539 1.338 . S
C538 N541 1.377 . S
C538 H558 0.930 . S
C539 N537 1.375 . S
C539 C538 1.338 . S
C539 H543 0.931 . S
C540 N537 1.313 . S
C540 N541 1.344 . S
C540 H544 0.930 . S
N541 C538 1.377 . S
N541 C540 1.344 . S
O542 Co534 2.055 . S
O542 C546 1.253 . S
H543 C539 0.931 . S
H544 C540 0.930 . S
O545 Co534 2.039 . S
O545 C535 1.265 . S
C546 O542 1.253 . S
C546 O547 1.227 . S
O547 C546 1.227 . S
N548 Co534 2.140 . S
N548 C551 1.346 . S
N548 C552 1.345 . S
C549 C550 1.387 . S
C549 C553 1.391 . S
C550 C549 1.387 . S
C550 C551 1.369 . S
C550 H559 0.929 . S
C551 N548 1.346 . S
C551 C550 1.369 . S
C551 H554 0.928 . S
C552 N548 1.345 . S
C552 C553 1.371 . S
C552 H555 0.931 . S
C553 C549 1.391 . S
C553 C552 1.371 . S
C553 H560 0.930 . S
H554 C551 0.928 . S
H555 C552 0.931 . S
H556 C532 0.930 . S
H557 C529 0.930 . S
H558 C538 0.930 . S
H559 C550 0.929 . S
H560 C553 0.930 . S
C561 C562 1.351 . S
C561 N564 1.368 . S
C561 H566 0.931 . S
C562 C561 1.351 . S
C562 N563 1.373 1_556 S
C562 H590 0.930 . S
N563 C562 1.373 1_554 S
N563 C565 1.340 . S
N564 C561 1.368 . S
N564 C565 1.321 1_556 S
N564 Co567 2.135 . S
C565 N563 1.340 . S
C565 N564 1.321 1_554 S
C565 H589 0.930 . S
H566 C561 0.931 . S
Co567 N564 2.135 . S
Co567 N570 2.121 . S
Co567 O575 2.055 . S
Co567 O578 2.039 . S
Co567 N581 2.140 . S
C568 O569 1.227 1_556 S
C568 O578 1.265 . S
O569 C568 1.227 1_554 S
N570 Co567 2.121 . S
N570 C572 1.375 . S
N570 C573 1.313 . S
C571 C572 1.338 . S
C571 N574 1.377 . S
C571 H591 0.930 . S
C572 N570 1.375 . S
C572 C571 1.338 . S
C572 H576 0.931 . S
C573 N570 1.313 . S
C573 N574 1.344 . S
C573 H577 0.930 . S
N574 C571 1.377 . S
N574 C573 1.344 . S
O575 Co567 2.055 . S
O575 C579 1.253 . S
H576 C572 0.931 . S
H577 C573 0.930 . S
O578 Co567 2.039 . S
O578 C568 1.265 . S
C579 O575 1.253 . S
C579 O580 1.227 . S
O580 C579 1.227 . S
N581 Co567 2.140 . S
N581 C584 1.346 . S
N581 C585 1.345 . S
C582 C583 1.387 . S
C582 C586 1.391 . S
C583 C582 1.387 . S
C583 C584 1.369 . S
C583 H592 0.929 1_556 S
C584 N581 1.346 . S
C584 C583 1.369 . S
C584 H587 0.928 . S
C585 N581 1.345 . S
C585 C586 1.371 . S
C585 H588 0.931 . S
C586 C582 1.391 . S
C586 C585 1.371 . S
C586 H593 0.930 . S
H587 C584 0.928 . S
H588 C585 0.931 . S
H589 C565 0.930 . S
H590 C562 0.930 . S
H591 C571 0.930 . S
H592 C583 0.929 1_554 S
H593 C586 0.930 . S
C594 C595 1.351 1_655 S
C594 N597 1.368 . S
C594 H599 0.931 . S
C595 C594 1.351 1_455 S
C595 N596 1.373 1_455 S
C595 H623 0.930 . S
N596 C595 1.373 1_655 S
N596 C598 1.340 . S
N597 C594 1.368 . S
N597 C598 1.321 . S
N597 Co600 2.135 . S
C598 N596 1.340 . S
C598 N597 1.321 . S
C598 H622 0.930 . S
H599 C594 0.931 . S
Co600 N597 2.135 . S
Co600 N603 2.121 1_554 S
Co600 O608 2.055 1_554 S
Co600 O611 2.039 . S
Co600 N614 2.140 . S
C601 O602 1.227 . S
C601 O611 1.265 . S
O602 C601 1.227 . S
N603 Co600 2.121 1_556 S
N603 C605 1.375 . S
N603 C606 1.313 . S
C604 C605 1.338 . S
C604 N607 1.377 . S
C604 H624 0.930 . S
C605 N603 1.375 . S
C605 C604 1.338 . S
C605 H609 0.931 1_556 S
C606 N603 1.313 . S
C606 N607 1.344 . S
C606 H610 0.930 . S
N607 C604 1.377 . S
N607 C606 1.344 . S
O608 Co600 2.055 1_556 S
O608 C612 1.253 . S
H609 C605 0.931 1_554 S
H610 C606 0.930 . S
O611 Co600 2.039 . S
O611 C601 1.265 . S
C612 O608 1.253 . S
C612 O613 1.227 . S
O613 C612 1.227 . S
N614 Co600 2.140 . S
N614 C617 1.346 . S
N614 C618 1.345 . S
C615 C616 1.387 . S
C615 C619 1.391 . S
C616 C615 1.387 . S
C616 C617 1.369 . S
C616 H625 0.929 . S
C617 N614 1.346 . S
C617 C616 1.369 . S
C617 H620 0.928 . S
C618 N614 1.345 . S
C618 C619 1.371 . S
C618 H621 0.931 1_554 S
C619 C615 1.391 . S
C619 C618 1.371 . S
C619 H626 0.930 1_554 S
H620 C617 0.928 . S
H621 C618 0.931 1_556 S
H622 C598 0.930 . S
H623 C595 0.930 . S
H624 C604 0.930 . S
H625 C616 0.929 . S
H626 C619 0.930 1_556 S
C627 C628 1.351 . S
C627 N630 1.368 . S
C627 H632 0.931 . S
C628 C627 1.351 . S
C628 N629 1.373 . S
C628 H656 0.930 . S
N629 C628 1.373 . S
N629 C631 1.340 . S
N630 C627 1.368 . S
N630 C631 1.321 . S
N630 Co633 2.135 . S
C631 N629 1.340 . S
C631 N630 1.321 . S
C631 H655 0.930 . S
H632 C627 0.931 . S
Co633 N630 2.135 . S
Co633 N636 2.121 . S
Co633 O641 2.055 . S
Co633 O644 2.039 . S
Co633 N647 2.140 . S
C634 O635 1.227 . S
C634 O644 1.265 . S
O635 C634 1.227 . S
N636 Co633 2.121 . S
N636 C638 1.375 . S
N636 C639 1.313 . S
C637 C638 1.338 . S
C637 N640 1.377 . S
C637 H657 0.930 . S
C638 N636 1.375 . S
C638 C637 1.338 . S
C638 H642 0.931 . S
C639 N636 1.313 . S
C639 N640 1.344 . S
C639 H643 0.930 . S
N640 C637 1.377 . S
N640 C639 1.344 . S
O641 Co633 2.055 . S
O641 C645 1.253 . S
H642 C638 0.931 . S
H643 C639 0.930 . S
O644 Co633 2.039 . S
O644 C634 1.265 . S
C645 O641 1.253 . S
C645 O646 1.227 . S
O646 C645 1.227 . S
N647 Co633 2.140 . S
N647 C650 1.346 . S
N647 C651 1.345 . S
C648 C649 1.387 . S
C648 C652 1.391 . S
C649 C648 1.387 . S
C649 C650 1.369 . S
C649 H658 0.929 . S
C650 N647 1.346 . S
C650 C649 1.369 . S
C650 H653 0.928 . S
C651 N647 1.345 . S
C651 C652 1.371 . S
C651 H654 0.931 . S
C652 C648 1.391 . S
C652 C651 1.371 . S
C652 H659 0.930 . S
H653 C650 0.928 . S
H654 C651 0.931 . S
H655 C631 0.930 . S
H656 C628 0.930 . S
H657 C637 0.930 . S
H658 C649 0.929 . S
H659 C652 0.930 . S
C660 C661 1.351 . S
C660 N663 1.368 . S
C660 H665 0.931 1_556 S
C661 C660 1.351 . S
C661 N662 1.373 . S
C661 H689 0.930 . S
N662 C661 1.373 . S
N662 C664 1.340 . S
N663 C660 1.368 . S
N663 C664 1.321 . S
N663 Co666 2.135 1_556 S
C664 N662 1.340 . S
C664 N663 1.321 . S
C664 H688 0.930 . S
H665 C660 0.931 1_554 S
Co666 N663 2.135 1_554 S
Co666 N669 2.121 . S
Co666 O674 2.055 . S
Co666 O677 2.039 1_554 S
Co666 N680 2.140 . S
C667 O668 1.227 . S
C667 O677 1.265 . S
O668 C667 1.227 . S
N669 Co666 2.121 . S
N669 C671 1.375 . S
N669 C672 1.313 . S
C670 C671 1.338 . S
C670 N673 1.377 . S
C670 H690 0.930 . S
C671 N669 1.375 . S
C671 C670 1.338 . S
C671 H675 0.931 . S
C672 N669 1.313 . S
C672 N673 1.344 . S
C672 H676 0.930 . S
N673 C670 1.377 . S
N673 C672 1.344 . S
O674 Co666 2.055 . S
O674 C678 1.253 . S
H675 C671 0.931 . S
H676 C672 0.930 . S
O677 Co666 2.039 1_556 S
O677 C667 1.265 . S
C678 O674 1.253 . S
C678 O679 1.227 . S
O679 C678 1.227 . S
N680 Co666 2.140 . S
N680 C683 1.346 1_554 S
N680 C684 1.345 . S
C681 C682 1.387 . S
C681 C685 1.391 1_556 S
C682 C681 1.387 . S
C682 C683 1.369 . S
C682 H691 0.929 . S
C683 N680 1.346 1_556 S
C683 C682 1.369 . S
C683 H686 0.928 . S
C684 N680 1.345 . S
C684 C685 1.371 . S
C684 H687 0.931 . S
C685 C681 1.391 1_554 S
C685 C684 1.371 . S
C685 H692 0.930 . S
H686 C683 0.928 . S
H687 C684 0.931 . S
H688 C664 0.930 . S
H689 C661 0.930 . S
H690 C670 0.930 . S
H691 C682 0.929 . S
H692 C685 0.930 . S
C693 C694 1.351 . S
C693 N696 1.368 . S
C693 H698 0.931 . S
C694 C693 1.351 . S
C694 N695 1.373 . S
C694 H722 0.930 . S
N695 C694 1.373 . S
N695 C697 1.340 . S
N696 C693 1.368 . S
N696 C697 1.321 . S
N696 Co699 2.135 . S
C697 N695 1.340 . S
C697 N696 1.321 . S
C697 H721 0.930 . S
H698 C693 0.931 . S
Co699 N696 2.135 . S
Co699 N702 2.121 . S
Co699 O707 2.055 . S
Co699 O710 2.039 . S
Co699 N713 2.140 . S
C700 O701 1.227 . S
C700 O710 1.265 . S
O701 C700 1.227 . S
N702 Co699 2.121 . S
N702 C704 1.375 . S
N702 C705 1.313 . S
C703 C704 1.338 . S
C703 N706 1.377 . S
C703 H723 0.930 . S
C704 N702 1.375 . S
C704 C703 1.338 . S
C704 H708 0.931 . S
C705 N702 1.313 . S
C705 N706 1.344 . S
C705 H709 0.930 . S
N706 C703 1.377 . S
N706 C705 1.344 . S
O707 Co699 2.055 . S
O707 C711 1.253 . S
H708 C704 0.931 . S
H709 C705 0.930 . S
O710 Co699 2.039 . S
O710 C700 1.265 . S
C711 O707 1.253 . S
C711 O712 1.227 . S
O712 C711 1.227 . S
N713 Co699 2.140 . S
N713 C716 1.346 . S
N713 C717 1.345 . S
C714 C715 1.387 . S
C714 C718 1.391 . S
C715 C714 1.387 . S
C715 C716 1.369 . S
C715 H724 0.929 . S
C716 N713 1.346 . S
C716 C715 1.369 . S
C716 H719 0.928 . S
C717 N713 1.345 . S
C717 C718 1.371 . S
C717 H720 0.931 . S
C718 C714 1.391 . S
C718 C717 1.371 . S
C718 H725 0.930 . S
H719 C716 0.928 . S
H720 C717 0.931 . S
H721 C697 0.930 . S
H722 C694 0.930 . S
H723 C703 0.930 . S
H724 C715 0.929 . S
H725 C718 0.930 . S
C726 C727 1.351 1_655 S
C726 N729 1.368 . S
C726 H731 0.931 . S
C727 C726 1.351 1_455 S
C727 N728 1.373 1_455 S
C727 H755 0.930 . S
N728 C727 1.373 1_655 S
N728 C730 1.340 . S
N729 C726 1.368 . S
N729 C730 1.321 . S
N729 Co732 2.135 . S
C730 N728 1.340 . S
C730 N729 1.321 . S
C730 H754 0.930 . S
H731 C726 0.931 . S
Co732 N729 2.135 . S
Co732 N735 2.121 . S
Co732 O740 2.055 . S
Co732 O743 2.039 . S
Co732 N746 2.140 . S
C733 O734 1.227 . S
C733 O743 1.265 . S
O734 C733 1.227 . S
N735 Co732 2.121 . S
N735 C737 1.375 . S
N735 C738 1.313 . S
C736 C737 1.338 . S
C736 N739 1.377 . S
C736 H756 0.930 . S
C737 N735 1.375 . S
C737 C736 1.338 . S
C737 H741 0.931 . S
C738 N735 1.313 . S
C738 N739 1.344 . S
C738 H742 0.930 . S
N739 C736 1.377 . S
N739 C738 1.344 . S
O740 Co732 2.055 . S
O740 C744 1.253 . S
H741 C737 0.931 . S
H742 C738 0.930 . S
O743 Co732 2.039 . S
O743 C733 1.265 . S
C744 O740 1.253 . S
C744 O745 1.227 . S
O745 C744 1.227 . S
N746 Co732 2.140 . S
N746 C749 1.346 . S
N746 C750 1.345 . S
C747 C748 1.387 . S
C747 C751 1.391 . S
C748 C747 1.387 . S
C748 C749 1.369 . S
C748 H757 0.929 . S
C749 N746 1.346 . S
C749 C748 1.369 . S
C749 H752 0.928 . S
C750 N746 1.345 . S
C750 C751 1.371 . S
C750 H753 0.931 . S
C751 C747 1.391 . S
C751 C750 1.371 . S
C751 H758 0.930 . S
H752 C749 0.928 . S
H753 C750 0.931 . S
H754 C730 0.930 . S
H755 C727 0.930 . S
H756 C736 0.930 . S
H757 C748 0.929 . S
H758 C751 0.930 . S
C759 C760 1.351 . S
C759 N762 1.368 . S
C759 H764 0.931 . S
C760 C759 1.351 . S
C760 N761 1.373 . S
C760 H788 0.930 . S
N761 C760 1.373 . S
N761 C763 1.340 . S
N762 C759 1.368 . S
N762 C763 1.321 . S
N762 Co765 2.135 . S
C763 N761 1.340 . S
C763 N762 1.321 . S
C763 H787 0.930 . S
H764 C759 0.931 . S
Co765 N762 2.135 . S
Co765 N768 2.121 . S
Co765 O773 2.055 . S
Co765 O776 2.039 . S
Co765 N779 2.140 . S
C766 O767 1.227 . S
C766 O776 1.265 . S
O767 C766 1.227 . S
N768 Co765 2.121 . S
N768 C770 1.375 . S
N768 C771 1.313 . S
C769 C770 1.338 . S
C769 N772 1.377 1_556 S
C769 H789 0.930 . S
C770 N768 1.375 . S
C770 C769 1.338 . S
C770 H774 0.931 . S
C771 N768 1.313 . S
C771 N772 1.344 1_556 S
C771 H775 0.930 1_556 S
N772 C769 1.377 1_554 S
N772 C771 1.344 1_554 S
O773 Co765 2.055 . S
O773 C777 1.253 . S
H774 C770 0.931 . S
H775 C771 0.930 1_554 S
O776 Co765 2.039 . S
O776 C766 1.265 . S
C777 O773 1.253 . S
C777 O778 1.227 . S
O778 C777 1.227 . S
N779 Co765 2.140 . S
N779 C782 1.346 . S
N779 C783 1.345 . S
C780 C781 1.387 . S
C780 C784 1.391 . S
C781 C780 1.387 . S
C781 C782 1.369 . S
C781 H790 0.929 . S
C782 N779 1.346 . S
C782 C781 1.369 . S
C782 H785 0.928 . S
C783 N779 1.345 . S
C783 C784 1.371 . S
C783 H786 0.931 . S
C784 C780 1.391 . S
C784 C783 1.371 . S
C784 H791 0.930 . S
H785 C782 0.928 . S
H786 C783 0.931 . S
H787 C763 0.930 . S
H788 C760 0.930 . S
H789 C769 0.930 . S
H790 C781 0.929 . S
H791 C784 0.930 . S
C792 C793 1.351 . S
C792 N795 1.368 . S
C792 H797 0.931 . S
C793 C792 1.351 . S
C793 N794 1.373 . S
C793 H821 0.930 . S
N794 C793 1.373 . S
N794 C796 1.340 . S
N795 C792 1.368 . S
N795 C796 1.321 . S
N795 Co798 2.135 . S
C796 N794 1.340 . S
C796 N795 1.321 . S
C796 H820 0.930 . S
H797 C792 0.931 . S
Co798 N795 2.135 . S
Co798 N801 2.121 . S
Co798 O806 2.055 . S
Co798 O809 2.039 . S
Co798 N812 2.140 . S
C799 O800 1.227 . S
C799 O809 1.265 . S
O800 C799 1.227 . S
N801 Co798 2.121 . S
N801 C803 1.375 . S
N801 C804 1.313 . S
C802 C803 1.338 . S
C802 N805 1.377 . S
C802 H822 0.930 . S
C803 N801 1.375 . S
C803 C802 1.338 . S
C803 H807 0.931 . S
C804 N801 1.313 . S
C804 N805 1.344 . S
C804 H808 0.930 . S
N805 C802 1.377 . S
N805 C804 1.344 . S
O806 Co798 2.055 . S
O806 C810 1.253 . S
H807 C803 0.931 . S
H808 C804 0.930 . S
O809 Co798 2.039 . S
O809 C799 1.265 . S
C810 O806 1.253 . S
C810 O811 1.227 . S
O811 C810 1.227 . S
N812 Co798 2.140 . S
N812 C815 1.346 . S
N812 C816 1.345 . S
C813 C814 1.387 . S
C813 C817 1.391 . S
C814 C813 1.387 . S
C814 C815 1.369 . S
C814 H823 0.929 . S
C815 N812 1.346 . S
C815 C814 1.369 . S
C815 H818 0.928 . S
C816 N812 1.345 . S
C816 C817 1.371 . S
C816 H819 0.931 . S
C817 C813 1.391 . S
C817 C816 1.371 . S
C817 H824 0.930 . S
H818 C815 0.928 . S
H819 C816 0.931 . S
H820 C796 0.930 . S
H821 C793 0.930 . S
H822 C802 0.930 . S
H823 C814 0.929 . S
H824 C817 0.930 . S
C825 C826 1.351 . S
C825 N828 1.368 . S
C825 H830 0.931 . S
C826 C825 1.351 . S
C826 N827 1.373 . S
C826 H854 0.930 . S
N827 C826 1.373 . S
N827 C829 1.340 . S
N828 C825 1.368 . S
N828 C829 1.321 . S
N828 Co831 2.135 . S
C829 N827 1.340 . S
C829 N828 1.321 . S
C829 H853 0.930 . S
H830 C825 0.931 . S
Co831 N828 2.135 . S
Co831 N834 2.121 . S
Co831 O839 2.055 . S
Co831 O842 2.039 . S
Co831 N845 2.140 . S
C832 O833 1.227 . S
C832 O842 1.265 . S
O833 C832 1.227 . S
N834 Co831 2.121 . S
N834 C836 1.375 . S
N834 C837 1.313 . S
C835 C836 1.338 . S
C835 N838 1.377 . S
C835 H855 0.930 . S
C836 N834 1.375 . S
C836 C835 1.338 . S
C836 H840 0.931 . S
C837 N834 1.313 . S
C837 N838 1.344 . S
C837 H841 0.930 . S
N838 C835 1.377 . S
N838 C837 1.344 . S
O839 Co831 2.055 . S
O839 C843 1.253 . S
H840 C836 0.931 . S
H841 C837 0.930 . S
O842 Co831 2.039 . S
O842 C832 1.265 . S
C843 O839 1.253 . S
C843 O844 1.227 . S
O844 C843 1.227 . S
N845 Co831 2.140 . S
N845 C848 1.346 . S
N845 C849 1.345 . S
C846 C847 1.387 . S
C846 C850 1.391 . S
C847 C846 1.387 . S
C847 C848 1.369 . S
C847 H856 0.929 . S
C848 N845 1.346 . S
C848 C847 1.369 . S
C848 H851 0.928 . S
C849 N845 1.345 . S
C849 C850 1.371 . S
C849 H852 0.931 . S
C850 C846 1.391 . S
C850 C849 1.371 . S
C850 H857 0.930 . S
H851 C848 0.928 . S
H852 C849 0.931 . S
H853 C829 0.930 . S
H854 C826 0.930 . S
H855 C835 0.930 . S
H856 C847 0.929 . S
H857 C850 0.930 . S
C858 C859 1.351 . S
C858 N861 1.368 . S
C858 H863 0.931 1_556 S
C859 C858 1.351 . S
C859 N860 1.373 . S
C859 H887 0.930 . S
N860 C859 1.373 . S
N860 C862 1.340 . S
N861 C858 1.368 . S
N861 C862 1.321 . S
N861 Co864 2.135 1_556 S
C862 N860 1.340 . S
C862 N861 1.321 . S
C862 H886 0.930 . S
H863 C858 0.931 1_554 S
Co864 N861 2.135 1_554 S
Co864 N867 2.121 . S
Co864 O872 2.055 . S
Co864 O875 2.039 1_554 S
Co864 N878 2.140 . S
C865 O866 1.227 . S
C865 O875 1.265 . S
O866 C865 1.227 . S
N867 Co864 2.121 . S
N867 C869 1.375 . S
N867 C870 1.313 . S
C868 C869 1.338 . S
C868 N871 1.377 . S
C868 H888 0.930 1_455 S
C869 N867 1.375 . S
C869 C868 1.338 . S
C869 H873 0.931 . S
C870 N867 1.313 . S
C870 N871 1.344 . S
C870 H874 0.930 . S
N871 C868 1.377 . S
N871 C870 1.344 . S
O872 Co864 2.055 . S
O872 C876 1.253 . S
H873 C869 0.931 . S
H874 C870 0.930 . S
O875 Co864 2.039 1_556 S
O875 C865 1.265 . S
C876 O872 1.253 . S
C876 O877 1.227 . S
O877 C876 1.227 . S
N878 Co864 2.140 . S
N878 C881 1.346 1_554 S
N878 C882 1.345 . S
C879 C880 1.387 . S
C879 C883 1.391 1_556 S
C880 C879 1.387 . S
C880 C881 1.369 . S
C880 H889 0.929 . S
C881 N878 1.346 1_556 S
C881 C880 1.369 . S
C881 H884 0.928 . S
C882 N878 1.345 . S
C882 C883 1.371 . S
C882 H885 0.931 . S
C883 C879 1.391 1_554 S
C883 C882 1.371 . S
C883 H890 0.930 . S
H884 C881 0.928 . S
H885 C882 0.931 . S
H886 C862 0.930 . S
H887 C859 0.930 . S
H888 C868 0.930 1_655 S
H889 C880 0.929 . S
H890 C883 0.930 . S
C891 C892 1.351 . S
C891 N894 1.368 . S
C891 H896 0.931 . S
C892 C891 1.351 . S
C892 N893 1.373 . S
C892 H920 0.930 . S
N893 C892 1.373 . S
N893 C895 1.340 . S
N894 C891 1.368 . S
N894 C895 1.321 . S
N894 Co897 2.135 . S
C895 N893 1.340 . S
C895 N894 1.321 . S
C895 H919 0.930 . S
H896 C891 0.931 . S
Co897 N894 2.135 . S
Co897 N900 2.121 . S
Co897 O905 2.055 . S
Co897 O908 2.039 . S
Co897 N911 2.140 . S
C898 O899 1.227 . S
C898 O908 1.265 . S
O899 C898 1.227 . S
N900 Co897 2.121 . S
N900 C902 1.375 . S
N900 C903 1.313 . S
C901 C902 1.338 . S
C901 N904 1.377 1_556 S
C901 H921 0.930 . S
C902 N900 1.375 . S
C902 C901 1.338 . S
C902 H906 0.931 . S
C903 N900 1.313 . S
C903 N904 1.344 1_556 S
C903 H907 0.930 1_556 S
N904 C901 1.377 1_554 S
N904 C903 1.344 1_554 S
O905 Co897 2.055 . S
O905 C909 1.253 . S
H906 C902 0.931 . S
H907 C903 0.930 1_554 S
O908 Co897 2.039 . S
O908 C898 1.265 . S
C909 O905 1.253 . S
C909 O910 1.227 . S
O910 C909 1.227 . S
N911 Co897 2.140 . S
N911 C914 1.346 . S
N911 C915 1.345 . S
C912 C913 1.387 . S
C912 C916 1.391 . S
C913 C912 1.387 . S
C913 C914 1.369 . S
C913 H922 0.929 . S
C914 N911 1.346 . S
C914 C913 1.369 . S
C914 H917 0.928 . S
C915 N911 1.345 . S
C915 C916 1.371 . S
C915 H918 0.931 . S
C916 C912 1.391 . S
C916 C915 1.371 . S
C916 H923 0.930 . S
H917 C914 0.928 . S
H918 C915 0.931 . S
H919 C895 0.930 . S
H920 C892 0.930 . S
H921 C901 0.930 . S
H922 C913 0.929 . S
H923 C916 0.930 . S
C924 C925 1.351 . S
C924 N927 1.368 . S
C924 H929 0.931 . S
C925 C924 1.351 . S
C925 N926 1.373 . S
C925 H953 0.930 . S
N926 C925 1.373 . S
N926 C928 1.340 . S
N927 C924 1.368 . S
N927 C928 1.321 . S
N927 Co930 2.135 . S
C928 N926 1.340 . S
C928 N927 1.321 . S
C928 H952 0.930 . S
H929 C924 0.931 . S
Co930 N927 2.135 . S
Co930 N933 2.121 1_554 S
Co930 O938 2.055 1_554 S
Co930 O941 2.039 . S
Co930 N944 2.140 . S
C931 O932 1.227 . S
C931 O941 1.265 . S
O932 C931 1.227 . S
N933 Co930 2.121 1_556 S
N933 C935 1.378 . S
N933 C936 1.313 . S
C934 C935 1.344 . S
C934 N937 1.377 . S
C934 H954 0.930 . S
C935 N933 1.378 . S
C935 C934 1.344 . S
C935 H939 0.922 1_556 S
C936 N933 1.313 . S
C936 N937 1.344 . S
C936 H940 0.930 . S
N937 C934 1.377 . S
N937 C936 1.344 . S
O938 Co930 2.055 1_556 S
O938 C942 1.253 . S
H939 C935 0.922 1_554 S
H940 C936 0.930 . S
O941 Co930 2.039 . S
O941 C931 1.265 . S
C942 O938 1.253 . S
C942 O943 1.227 . S
O943 C942 1.227 . S
N944 Co930 2.140 . S
N944 C947 1.346 . S
N944 C948 1.345 . S
C945 C946 1.387 . S
C945 C949 1.391 . S
C946 C945 1.387 . S
C946 C947 1.369 . S
C946 H955 0.929 . S
C947 N944 1.346 . S
C947 C946 1.369 . S
C947 H950 0.928 . S
C948 N944 1.345 . S
C948 C949 1.371 . S
C948 H951 0.931 1_554 S
C949 C945 1.391 . S
C949 C948 1.371 . S
C949 H956 0.930 1_554 S
H950 C947 0.928 . S
H951 C948 0.931 1_556 S
H952 C928 0.930 . S
H953 C925 0.930 . S
H954 C934 0.930 . S
H955 C946 0.929 . S
H956 C949 0.930 1_556 S
C957 C958 1.351 . S
C957 N960 1.368 . S
C957 H962 0.931 . S
C958 C957 1.351 . S
C958 N959 1.373 1_556 S
C958 H986 0.930 . S
N959 C958 1.373 1_554 S
N959 C961 1.340 . S
N960 C957 1.368 . S
N960 C961 1.321 1_556 S
N960 Co963 2.135 . S
C961 N959 1.340 . S
C961 N960 1.321 1_554 S
C961 H985 0.930 . S
H962 C957 0.931 . S
Co963 N960 2.135 . S
Co963 N966 2.121 . S
Co963 O971 2.055 . S
Co963 O974 2.039 . S
Co963 N977 2.140 . S
C964 O965 1.227 1_556 S
C964 O974 1.265 . S
O965 C964 1.227 1_554 S
N966 Co963 2.121 . S
N966 C968 1.375 . S
N966 C969 1.313 . S
C967 C968 1.338 . S
C967 N970 1.377 . S
C967 H987 0.930 . S
C968 N966 1.375 . S
C968 C967 1.338 . S
C968 H972 0.931 . S
C969 N966 1.313 . S
C969 N970 1.344 . S
C969 H973 0.930 . S
N970 C967 1.377 . S
N970 C969 1.344 . S
O971 Co963 2.055 . S
O971 C975 1.253 . S
H972 C968 0.931 . S
H973 C969 0.930 . S
O974 Co963 2.039 . S
O974 C964 1.265 . S
C975 O971 1.253 . S
C975 O976 1.227 . S
O976 C975 1.227 . S
N977 Co963 2.140 . S
N977 C980 1.346 . S
N977 C981 1.345 . S
C978 C979 1.387 . S
C978 C982 1.391 . S
C979 C978 1.387 . S
C979 C980 1.369 . S
C979 H988 0.929 1_556 S
C980 N977 1.346 . S
C980 C979 1.369 . S
C980 H983 0.928 . S
C981 N977 1.345 . S
C981 C982 1.371 . S
C981 H984 0.931 . S
C982 C978 1.391 . S
C982 C981 1.371 . S
C982 H989 0.930 . S
H983 C980 0.928 . S
H984 C981 0.931 . S
H985 C961 0.930 . S
H986 C958 0.930 . S
H987 C967 0.930 . S
H988 C979 0.929 1_554 S
H989 C982 0.930 . S
C990 C991 1.351 . S
C990 N993 1.368 . S
C990 H995 0.931 . S
C991 C990 1.351 . S
C991 N992 1.373 . S
C991 H1019 0.930 . S
N992 C991 1.373 . S
N992 C994 1.340 . S
N993 C990 1.368 . S
N993 C994 1.321 . S
N993 Co996 2.135 . S
C994 N992 1.340 . S
C994 N993 1.321 . S
C994 H1018 0.930 . S
H995 C990 0.931 . S
Co996 N993 2.135 . S
Co996 N999 2.121 . S
Co996 O1004 2.055 . S
Co996 O1007 2.039 . S
Co996 N1010 2.140 . S
C997 O998 1.227 . S
C997 O1007 1.265 . S
O998 C997 1.227 . S
N999 Co996 2.121 . S
N999 C1001 1.375 . S
N999 C1002 1.313 . S
C1000 C1001 1.338 . S
C1000 N1003 1.377 . S
C1000 H1020 0.930 1_455 S
C1001 N999 1.375 . S
C1001 C1000 1.338 . S
C1001 H1005 0.931 . S
C1002 N999 1.313 . S
C1002 N1003 1.344 . S
C1002 H1006 0.930 . S
N1003 C1000 1.377 . S
N1003 C1002 1.344 . S
O1004 Co996 2.055 . S
O1004 C1008 1.253 . S
H1005 C1001 0.931 . S
H1006 C1002 0.930 . S
O1007 Co996 2.039 . S
O1007 C997 1.265 . S
C1008 O1004 1.253 . S
C1008 O1009 1.227 . S
O1009 C1008 1.227 . S
N1010 Co996 2.140 . S
N1010 C1013 1.346 . S
N1010 C1014 1.345 . S
C1011 C1012 1.387 . S
C1011 C1015 1.391 . S
C1012 C1011 1.387 . S
C1012 C1013 1.369 . S
C1012 H1021 0.929 . S
C1013 N1010 1.346 . S
C1013 C1012 1.369 . S
C1013 H1016 0.928 . S
C1014 N1010 1.345 . S
C1014 C1015 1.371 . S
C1014 H1017 0.931 . S
C1015 C1011 1.391 . S
C1015 C1014 1.371 . S
C1015 H1022 0.930 . S
H1016 C1013 0.928 . S
H1017 C1014 0.931 . S
H1018 C994 0.930 . S
H1019 C991 0.930 . S
H1020 C1000 0.930 1_655 S
H1021 C1012 0.929 . S
H1022 C1015 0.930 . S
C1023 C1024 1.351 . S
C1023 N1026 1.368 . S
C1023 H1028 0.931 . S
C1024 C1023 1.351 . S
C1024 N1025 1.373 . S
C1024 H1052 0.930 . S
N1025 C1024 1.373 . S
N1025 C1027 1.340 . S
N1026 C1023 1.368 . S
N1026 C1027 1.321 . S
N1026 Co1029 2.135 . S
C1027 N1025 1.340 . S
C1027 N1026 1.321 . S
C1027 H1051 0.930 . S
H1028 C1023 0.931 . S
Co1029 N1026 2.135 . S
Co1029 N1032 2.121 . S
Co1029 O1037 2.055 . S
Co1029 O1040 2.039 . S
Co1029 N1043 2.140 . S
C1030 O1031 1.227 . S
C1030 O1040 1.265 . S
O1031 C1030 1.227 . S
N1032 Co1029 2.121 . S
N1032 C1034 1.375 . S
N1032 C1035 1.313 . S
C1033 C1034 1.338 . S
C1033 N1036 1.377 . S
C1033 H1053 0.930 . S
C1034 N1032 1.375 . S
C1034 C1033 1.338 . S
C1034 H1038 0.931 . S
C1035 N1032 1.313 . S
C1035 N1036 1.344 . S
C1035 H1039 0.930 . S
N1036 C1033 1.377 . S
N1036 C1035 1.344 . S
O1037 Co1029 2.055 . S
O1037 C1041 1.253 . S
H1038 C1034 0.931 . S
H1039 C1035 0.930 . S
O1040 Co1029 2.039 . S
O1040 C1030 1.265 . S
C1041 O1037 1.253 . S
C1041 O1042 1.227 . S
O1042 C1041 1.227 . S
N1043 Co1029 2.140 . S
N1043 C1046 1.346 . S
N1043 C1047 1.345 . S
C1044 C1045 1.387 . S
C1044 C1048 1.391 . S
C1045 C1044 1.387 . S
C1045 C1046 1.369 . S
C1045 H1054 0.929 . S
C1046 N1043 1.346 . S
C1046 C1045 1.369 . S
C1046 H1049 0.928 . S
C1047 N1043 1.345 . S
C1047 C1048 1.371 . S
C1047 H1050 0.931 . S
C1048 C1044 1.391 . S
C1048 C1047 1.371 . S
C1048 H1055 0.930 . S
H1049 C1046 0.928 . S
H1050 C1047 0.931 . S
H1051 C1027 0.930 . S
H1052 C1024 0.930 . S
H1053 C1033 0.930 . S
H1054 C1045 0.929 . S
H1055 C1048 0.930 . S
N145 N13 1.140 1_565 S
N46 N178 1.141 . S
N79 N211 1.140 1_565 S
N112 N244 1.141 . S
C414 C282 2.875 1_545 S
C315 C447 2.874 1_556 S
C348 C480 2.875 1_545 S
C513 C381 2.874 . S
N541 N673 1.140 . S
N574 N706 1.141 . S
N739 N607 1.140 . S
N640 N772 1.141 . S
C810 C942 2.875 . S
C843 C975 2.874 . S
C1008 C876 2.875 . S
C909 C1041 2.874 1_556 S
C403 C18 2.548 1_655 S
C51 C964 2.549 1_554 S
C469 C84 2.548 . S
C117 C1030 2.549 . S
C150 C271 2.548 1_455 S
C832 C183 2.549 1_554 S
C337 C216 2.548 . S
C249 C898 2.549 . S
N277 N134 0.708 1_655 S
N310 N695 0.707 . S
N343 N200 0.708 . S
N376 N761 0.707 . S
N2 N409 0.708 1_455 S
N563 N442 0.707 . S
N475 N68 0.707 . S
N629 N508 0.707 . S
C546 C931 2.548 . S
C579 C436 2.549 . S
C612 C997 2.548 1_655 S
C645 C502 2.549 1_554 S
C678 C799 2.548 . S
C304 C711 2.549 . S
C865 C744 2.548 1_455 S
C777 C370 2.549 1_556 S
N662 N805 0.708 . S
N167 N838 0.707 . S
N728 N871 0.708 1_655 S
N233 N904 0.707 . S
N937 N530 0.707 . S
N35 N970 0.707 . S
N1003 N596 0.708 1_455 S
N101 N1036 0.707 . S
C7 C139 2.156 1_545 S
C172 C40 2.156 . S
C205 C73 2.156 1_545 S
C106 C238 2.156 1_556 S
N266 N398 0.124 1_545 S
N299 N431 0.127 . S
N464 N332 0.124 1_545 S
N365 N497 0.127 . S
C667 C535 2.156 . S
C568 C700 2.156 1_556 S
C733 C601 2.156 . S
C634 C766 2.156 . S
N926 N794 0.127 . S
N827 N959 0.127 . S
N992 N860 0.127 . S
N893 N1025 0.127 . S
C252 C21 1.670 . S
C54 C153 1.670 . S
C87 C186 1.670 . S
C219 C120 1.671 . S
C285 C516 1.669 . S
C417 C318 1.668 . S
C450 C351 1.669 . S
C384 C483 1.668 . S
C780 C549 1.670 . S
C582 C681 1.671 . S
C714 C615 1.670 . S
C648 C747 1.670 . S
C813 C1044 1.669 . S
C846 C945 1.668 . S
C879 C978 1.669 . S
C1011 C912 1.668 . S
