# Generated by pormake.
# Topology fnj, (5)-cn, num edge types: 1
# Building blocks:
#     Node 0, Type 0, BuildingBlock: XOMCOT_clean_sbu_0, # of connection points: 5
#     Node 1, Type 0, BuildingBlock: XOMCOT_clean_sbu_0, # of connection points: 5
#     Node 2, Type 0, BuildingBlock: XOMCOT_clean_sbu_0, # of connection points: 5
#     Node 3, Type 0, BuildingBlock: XOMCOT_clean_sbu_0, # of connection points: 5
#     Node 4, Type 0, BuildingBlock: XOMCOT_clean_sbu_0, # of connection points: 5
#     Node 5, Type 0, BuildingBlock: XOMCOT_clean_sbu_0, # of connection points: 5
#     Node 6, Type 0, BuildingBlock: XOMCOT_clean_sbu_0, # of connection points: 5
#     Node 7, Type 0, BuildingBlock: XOMCOT_clean_sbu_0, # of connection points: 5
#     Node 8, Type 0, BuildingBlock: XOMCOT_clean_sbu_0, # of connection points: 5
#     Node 9, Type 0, BuildingBlock: XOMCOT_clean_sbu_0, # of connection points: 5
#     Node 10, Type 0, BuildingBlock: XOMCOT_clean_sbu_0, # of connection points: 5
#     Node 11, Type 0, BuildingBlock: XOMCOT_clean_sbu_0, # of connection points: 5
#     Node 12, Type 0, BuildingBlock: XOMCOT_clean_sbu_0, # of connection points: 5
#     Node 13, Type 0, BuildingBlock: XOMCOT_clean_sbu_0, # of connection points: 5
#     Node 14, Type 0, BuildingBlock: XOMCOT_clean_sbu_0, # of connection points: 5
#     Node 15, Type 0, BuildingBlock: XOMCOT_clean_sbu_0, # of connection points: 5
#     Edge 16, Type (0, 0), None
#     Edge 17, Type (0, 0), None
#     Edge 18, Type (0, 0), None
#     Edge 19, Type (0, 0), None
#     Edge 20, Type (0, 0), None
#     Edge 21, Type (0, 0), None
#     Edge 22, Type (0, 0), None
#     Edge 23, Type (0, 0), None
#     Edge 24, Type (0, 0), None
#     Edge 25, Type (0, 0), None
#     Edge 26, Type (0, 0), None
#     Edge 27, Type (0, 0), None
#     Edge 28, Type (0, 0), None
#     Edge 29, Type (0, 0), None
#     Edge 30, Type (0, 0), None
#     Edge 31, Type (0, 0), None
#     Edge 32, Type (0, 0), None
#     Edge 33, Type (0, 0), None
#     Edge 34, Type (0, 0), None
#     Edge 35, Type (0, 0), None
#     Edge 36, Type (0, 0), None
#     Edge 37, Type (0, 0), None
#     Edge 38, Type (0, 0), None
#     Edge 39, Type (0, 0), None
#     Edge 40, Type (0, 0), None
#     Edge 41, Type (0, 0), None
#     Edge 42, Type (0, 0), None
#     Edge 43, Type (0, 0), None
#     Edge 44, Type (0, 0), None
#     Edge 45, Type (0, 0), None
#     Edge 46, Type (0, 0), None
#     Edge 47, Type (0, 0), None
#     Edge 48, Type (0, 0), None
#     Edge 49, Type (0, 0), None
#     Edge 50, Type (0, 0), None
#     Edge 51, Type (0, 0), None
#     Edge 52, Type (0, 0), None
#     Edge 53, Type (0, 0), None
#     Edge 54, Type (0, 0), None
#     Edge 55, Type (0, 0), None
# Relax obj value: 0.067
# Max RMSD: 0.165
# Mean RMSD: 0.164
data_MOF--net-fnj--node1-XOMCOT_clean_sbu_0--edge1-none
_symmetry_space_group_name_H-M    P1
_symmetry_Int_Tables_number       1
_symmetry_cell_setting            triclinic
loop_
_symmetry_equiv_pos_as_xyz
'x, y, z'
_cell_length_a     38.55783
_cell_length_b     38.563014
_cell_length_c     9.4109421
_cell_angle_alpha  90.069022
_cell_angle_beta   90.06682
_cell_angle_gamma 90.787524
loop_
_atom_site_label
_atom_site_type_symbol
_atom_site_fract_x
_atom_site_fract_y
_atom_site_fract_z
_atom_type_partial_charge
Co0 Co 0.36209 1.00061 1.01895 0.0
C1 C 0.37189 0.99524 0.70931 0.0
C2 C 0.34701 0.04282 0.76399 0.0
C3 C 0.34539 0.03852 0.61803 0.0
N4 N 0.36377 0.01568 0.82135 0.0
N5 N 0.36091 0.00843 0.58535 0.0
H6 H 0.38245 0.96963 0.71823 0.0
H7 H 0.33437 0.06287 0.82429 0.0
C8 C 0.35411 0.08053 0.13171 0.0
O9 O 0.37979 0.10258 0.10969 0.0
N10 N 0.3606 0.98539 0.2151 0.0
C11 C 0.37956 0.95964 0.27129 0.0
C12 C 0.38061 0.96356 0.41717 0.0
C13 C 0.34991 1.00423 0.32766 0.0
N14 N 0.36224 0.99189 0.45122 0.0
C15 C 0.43065 0.97953 0.95284 0.0
C16 C 0.46575 0.0277 0.1163 0.0
C17 C 0.48533 0.00543 0.02881 0.0
C18 C 0.46665 0.98081 0.94792 0.0
C19 C 0.42949 0.02616 0.11454 0.0
N20 N 0.41236 1.00294 0.02981 0.0
H21 H 0.41763 0.95931 0.89397 0.0
H22 H 0.4154 0.04318 0.18392 0.0
H23 H 0.39419 0.94119 0.20984 0.0
H24 H 0.33543 0.02769 0.3196 0.0
O25 O 0.35688 0.95354 0.95391 0.0
O26 O 0.31364 0.99019 0.99083 0.0
O27 O 0.35705 0.04944 0.08811 0.0
C28 C 0.32424 0.96066 0.94096 0.0
H29 H 0.33234 0.05522 0.54356 0.0
H30 H 0.39566 0.94826 0.49046 0.0
H31 H 0.47764 0.04617 0.18803 0.0
H32 H 0.47891 0.96227 0.87939 0.0
Co33 Co 0.26852 0.11551 0.24747 0.0
C34 C 0.28045 0.11318 0.93779 0.0
C35 C 0.22722 0.10166 0.98602 0.0
C36 C 0.232 0.0987 0.84116 0.0
N37 N 0.25776 0.11056 0.04677 0.0
N38 N 0.26554 0.10575 0.81297 0.0
H39 H 0.30712 0.1218 0.94676 0.0
H40 H 0.20293 0.09879 0.04168 0.0
C41 C 0.19865 0.09142 0.39989 0.0
O42 O 0.20215 0.11148 0.51124 0.0
N43 N 0.28054 0.11983 0.44553 0.0
C44 C 0.29817 0.14674 0.50408 0.0
C45 C 0.29745 0.14328 0.64934 0.0
C46 C 0.27105 0.09931 0.55485 0.0
N47 N 0.27989 0.11382 0.67981 0.0
C48 C 0.2692 0.18441 0.14371 0.0
C49 C 0.23494 0.21616 0.36257 0.0
C50 C 0.25361 0.23765 0.26621 0.0
C51 C 0.26969 0.22053 0.15258 0.0
C52 C 0.23519 0.17977 0.34959 0.0
N53 N 0.25313 0.16402 0.24321 0.0
H54 H 0.28461 0.17301 0.06137 0.0
H55 H 0.22334 0.16474 0.43224 0.0
H56 H 0.30871 0.16858 0.44551 0.0
H57 H 0.25644 0.0753 0.54441 0.0
O58 O 0.31638 0.12621 0.20202 0.0
O59 O 0.29548 0.07308 0.23133 0.0
O60 O 0.22036 0.09301 0.29508 0.0
C61 C 0.32171 0.09316 0.19688 0.0
H62 H 0.21214 0.09392 0.76279 0.0
H63 H 0.30647 0.16222 0.7264 0.0
H64 H 0.22102 0.22651 0.45192 0.0
H65 H 0.28417 0.23415 0.07175 0.0
Co66 Co 0.14702 0.99379 0.5537 0.0
C67 C 0.14968 0.98205 0.8634 0.0
C68 C 0.15978 0.03555 0.81501 0.0
C69 C 0.16267 0.0309 0.96002 0.0
N70 N 0.15179 1.00476 0.75432 0.0
N71 N 0.15656 0.99719 0.9882 0.0
H72 H 0.14156 0.95523 0.85465 0.0
H73 H 0.16201 0.0599 0.75922 0.0
C74 C 0.17102 0.06397 0.40295 0.0
O75 O 0.15036 0.0611 0.29317 0.0
N76 N 0.14311 0.98149 0.35562 0.0
C77 C 0.11683 0.9629 0.29707 0.0
C78 C 0.12012 0.96394 0.15176 0.0
C79 C 0.16318 0.99185 0.24619 0.0
N80 N 0.1489 0.98261 0.12132 0.0
C81 C 0.07799 0.99587 0.66046 0.0
C82 C 0.04665 0.0247 0.42756 0.0
C83 C 0.02499 0.00893 0.53117 0.0
C84 C 0.04178 0.99578 0.65174 0.0
C85 C 0.08295 0.02506 0.44253 0.0
N86 N 0.09857 0.0096 0.5557 0.0
H87 H 0.08916 0.98212 0.7481 0.0
H88 H 0.09804 0.03455 0.35511 0.0
H89 H 0.09536 0.95162 0.35569 0.0
H90 H 0.18676 0.00714 0.25643 0.0
O91 O 0.13591 0.94611 0.59996 0.0
O92 O 0.18925 0.96666 0.57109 0.0
O93 O 0.16988 0.04175 0.50602 0.0
C94 C 0.16896 0.94056 0.6051 0.0
H95 H 0.16662 0.05089 0.03852 0.0
H96 H 0.10145 0.95434 0.07475 0.0
H97 H 0.0365 0.0353 0.33034 0.0
H98 H 0.02764 0.98415 0.73872 0.0
Co99 Co 0.26144 0.89988 0.7819 0.0
C100 C 0.26668 0.88963 0.09126 0.0
C101 C 0.21948 0.91526 0.03665 0.0
C102 C 0.22381 0.91682 0.18251 0.0
N103 N 0.24637 0.89812 0.97931 0.0
N104 N 0.25367 0.90089 0.21526 0.0
H105 H 0.29206 0.8785 0.08196 0.0
H106 H 0.19964 0.92823 0.97636 0.0
C107 C 0.18143 0.90809 0.66997 0.0
O108 O 0.15924 0.88255 0.69224 0.0
N109 N 0.27665 0.90138 0.58564 0.0
C110 C 0.30256 0.88259 0.52953 0.0
C111 C 0.29865 0.88145 0.38361 0.0
C112 C 0.25774 0.91186 0.47298 0.0
N113 N 0.27019 0.89959 0.34945 0.0
C114 C 0.28331 0.83129 0.8436 0.0
C115 C 0.23315 0.79632 0.68991 0.0
C116 C 0.25642 0.77661 0.77246 0.0
C117 C 0.28223 0.79526 0.84732 0.0
C118 C 0.23503 0.83253 0.69041 0.0
N119 N 0.25914 0.84962 0.77089 0.0
H120 H 0.30401 0.84432 0.89981 0.0
H121 H 0.21736 0.84657 0.62377 0.0
H122 H 0.32115 0.86815 0.59106 0.0
H123 H 0.23416 0.92616 0.48096 0.0
O124 O 0.30851 0.90515 0.84705 0.0
O125 O 0.27183 0.94834 0.8102 0.0
O126 O 0.21254 0.90497 0.71336 0.0
C127 C 0.30136 0.93777 0.86015 0.0
H128 H 0.20732 0.93019 0.25685 0.0
H129 H 0.3141 0.86654 0.31037 0.0
H130 H 0.21347 0.78472 0.62316 0.0
H131 H 0.30199 0.78297 0.90963 0.0
Co132 Co 0.6477 0.01363 0.03088 0.0
C133 C 0.63693 0.01843 0.33983 0.0
C134 C 0.66414 0.9721 0.28545 0.0
C135 C 0.66555 0.9765 0.43125 0.0
N136 N 0.64617 0.99842 0.22802 0.0
N137 N 0.64869 0.00585 0.46397 0.0
H138 H 0.62468 0.0433 0.32993 0.0
H139 H 0.67775 0.95269 0.22522 0.0
C140 C 0.65671 0.93376 0.91969 0.0
O141 O 0.6313 0.91174 0.94669 0.0
N142 N 0.64891 0.02892 0.83452 0.0
C143 C 0.62969 0.0545 0.77835 0.0
C144 C 0.62855 0.05053 0.6324 0.0
C145 C 0.65965 0.01016 0.72176 0.0
N146 N 0.64711 0.02236 0.5982 0.0
C147 C 0.5789 0.036 0.08549 0.0
C148 C 0.5443 0.9822 0.95211 0.0
C149 C 0.52444 0.00742 0.02328 0.0
C150 C 0.54283 0.03508 0.08713 0.0
C151 C 0.58046 0.98472 0.94961 0.0
N152 N 0.59742 0.01064 1.02057 0.0
H153 H 0.59176 0.05763 0.13636 0.0
H154 H 0.59446 0.96584 0.88927 0.0
H155 H 0.61504 0.07293 0.83984 0.0
H156 H 0.67443 0.98686 0.72972 0.0
O157 O 0.65238 0.06074 0.09684 0.0
O158 O 0.69598 0.02465 0.05878 0.0
O159 O 0.65425 0.96505 0.96133 0.0
C160 C 0.68509 0.05395 0.10945 0.0
H161 H 0.67947 0.96048 0.5056 0.0
H162 H 0.61342 0.06577 0.55913 0.0
H163 H 0.53286 0.96022 0.89804 0.0
H164 H 0.53013 0.05651 0.13795 0.0
Co165 Co 0.74204 0.89874 0.8034 0.0
C166 C 0.72996 0.90132 0.11308 0.0
C167 C 0.78331 0.91226 0.06498 0.0
C168 C 0.77857 0.91516 0.20983 0.0
N169 N 0.75267 0.90377 1.00414 0.0
N170 N 0.74495 0.90851 0.23796 0.0
H171 H 0.70322 0.8929 0.10407 0.0
H172 H 0.80767 0.91479 1.00947 0.0
C173 C 0.81208 0.92301 0.65225 0.0
O174 O 0.80868 0.90308 0.54045 0.0
N175 N 0.73015 0.89431 0.60531 0.0
C176 C 0.71245 0.86744 0.5468 0.0
C177 C 0.71304 0.87098 0.40156 0.0
C178 C 0.73959 0.91486 0.49603 0.0
N179 N 0.73061 0.90043 0.3711 0.0
C180 C 0.74111 0.82997 0.90721 0.0
C181 C 0.77587 0.79816 0.68984 0.0
C182 C 0.75687 0.77672 0.78538 0.0
C183 C 0.74049 0.79387 0.89818 0.0
C184 C 0.77562 0.83455 0.70263 0.0
N185 N 0.75745 0.85031 0.8083 0.0
H186 H 0.72556 0.84142 0.98901 0.0
H187 H 0.78772 0.8496 0.62059 0.0
H188 H 0.7019 0.84562 0.60539 0.0
H189 H 0.75422 0.93885 0.50647 0.0
O190 O 0.69417 0.88797 0.84843 0.0
O191 O 0.71506 0.94111 0.81863 0.0
O192 O 0.79021 0.92131 0.75649 0.0
C193 C 0.68884 0.92102 0.85315 0.0
H194 H 0.79849 0.91948 0.28827 0.0
H195 H 0.70392 0.85209 0.32444 0.0
H196 H 0.7901 0.78775 0.60143 0.0
H197 H 0.72566 0.78031 0.9781 0.0
Co198 Co 0.86372 0.0205 0.49804 0.0
C199 C 0.86143 0.03262 0.1884 0.0
C200 C 0.84967 0.97944 0.23646 0.0
C201 C 0.84675 0.98424 0.09167 0.0
N202 N 0.85865 0.00994 0.2973 0.0
N203 N 0.85393 0.01775 0.06353 0.0
H204 H 0.87009 0.05928 0.19754 0.0
H205 H 0.84675 0.95513 0.29194 0.0
C206 C 0.83959 0.95063 0.65017 0.0
O207 O 0.8593 0.95437 0.7625 0.0
N208 N 0.86833 0.03226 0.69611 0.0
C209 C 0.89552 0.04944 0.75456 0.0
C210 C 0.89196 0.04897 0.89978 0.0
C211 C 0.84759 0.02322 0.8054 0.0
N212 N 0.86219 0.03197 0.93034 0.0
C213 C 0.9325 0.02327 0.39693 0.0
C214 C 0.96457 0.98519 0.60409 0.0
C215 C 0.9858 0.00582 0.51361 0.0
C216 C 0.96857 0.02413 0.40646 0.0
C217 C 0.9281 0.98574 0.59264 0.0
N218 N 0.91227 0.00547 0.49194 0.0
H219 H 0.92094 0.03976 0.31859 0.0
H220 H 0.91307 0.97209 0.67068 0.0
H221 H 0.91752 0.05962 0.69595 0.0
H222 H 0.8234 0.00892 0.79494 0.0
O223 O 0.874 0.06855 0.45344 0.0
O224 O 0.82111 0.04718 0.4835 0.0
O225 O 0.8415 0.97219 0.54493 0.0
C226 C 0.84093 0.07358 0.44874 0.0
H227 H 0.84196 0.96439 1.01331 0.0
H228 H 0.911 0.05777 0.97685 0.0
H229 H 0.97539 0.96926 0.68673 0.0
H230 H 0.98207 0.04079 0.33249 0.0
Co231 Co 0.74801 0.11411 0.27025 0.0
C232 C 0.74318 0.12472 0.96106 0.0
C233 C 0.78981 0.09807 1.01548 0.0
C234 C 0.78544 0.09664 0.86959 0.0
N235 N 0.76328 0.11572 0.07298 0.0
N236 N 0.7559 0.11318 0.83691 0.0
H237 H 0.71809 0.13651 0.97063 0.0
H238 H 0.80939 0.08468 0.07569 0.0
C239 C 0.82783 0.10555 0.38197 0.0
O240 O 0.84947 0.13131 0.35537 0.0
N241 N 0.73266 0.11282 0.46652 0.0
C242 C 0.70722 0.13221 0.52269 0.0
C243 C 0.71125 0.1334 0.66859 0.0
C244 C 0.7514 0.10201 0.57926 0.0
N245 N 0.73933 0.1147 0.70278 0.0
C246 C 0.72634 0.18285 0.21155 0.0
C247 C 0.77824 0.21748 0.35665 0.0
C248 C 0.75417 0.23735 0.27875 0.0
C249 C 0.72745 0.21888 0.20874 0.0
C250 C 0.77592 0.18129 0.35754 0.0
N251 N 0.75097 0.16435 0.28099 0.0
H252 H 0.70517 0.16998 0.15765 0.0
H253 H 0.79401 0.16718 0.42173 0.0
H254 H 0.68891 0.147 0.46118 0.0
H255 H 0.77462 0.0871 0.5713 0.0
O256 O 0.70093 0.10941 0.20406 0.0
O257 O 0.73709 0.06585 0.2421 0.0
O258 O 0.7965 0.10754 0.34052 0.0
C259 C 0.70779 0.07671 0.19132 0.0
H260 H 0.80164 0.08295 0.79515 0.0
H261 H 0.69617 0.14871 0.74176 0.0
H262 H 0.79899 0.22891 0.41822 0.0
H263 H 0.70687 0.23132 0.15161 0.0
Co264 Co 0.86214 0.50039 0.51955 0.0
C265 C 0.87257 0.49531 0.21028 0.0
C266 C 0.84647 0.54226 0.26478 0.0
C267 C 0.84499 0.53792 0.11891 0.0
N268 N 0.86383 0.51553 0.32221 0.0
N269 N 0.8612 0.50821 0.0862 0.0
H270 H 0.88399 0.47007 0.21969 0.0
H271 H 0.83331 0.56198 0.32504 0.0
C272 C 0.8539 0.58033 0.63134 0.0
O273 O 0.87957 0.60223 0.60687 0.0
N274 N 0.86075 0.48511 0.71581 0.0
C275 C 0.87985 0.45943 0.77191 0.0
C276 C 0.88103 0.4634 0.91781 0.0
C277 C 0.85012 0.50394 0.82852 0.0
N278 N 0.86261 0.49167 0.95202 0.0
C279 C 0.93078 0.47858 0.45917 0.0
C280 C 0.9656 0.52953 0.60906 0.0
C281 C 0.98538 0.50591 0.52852 0.0
C282 C 0.96681 0.47967 0.45586 0.0
C283 C 0.9294 0.52744 0.6092 0.0
N284 N 0.91238 0.50296 0.53041 0.0
H285 H 0.91783 0.45766 0.40403 0.0
H286 H 0.91533 0.54528 0.67484 0.0
H287 H 0.89446 0.44098 0.71036 0.0
H288 H 0.83553 0.52735 0.82055 0.0
O289 O 0.8571 0.45332 0.45398 0.0
O290 O 0.81375 0.48978 0.49138 0.0
O291 O 0.85643 0.5491 0.58888 0.0
C292 C 0.82444 0.46034 0.4411 0.0
H293 H 0.83149 0.55428 0.0445 0.0
H294 H 0.89614 0.44813 0.99099 0.0
H295 H 0.9771 0.54969 0.67358 0.0
H296 H 0.97916 0.45952 0.39589 0.0
Co297 Co 0.76857 0.6154 0.74795 0.0
C298 C 0.78048 0.61299 0.43824 0.0
C299 C 0.72721 0.60167 0.48647 0.0
C300 C 0.73197 0.59871 0.34158 0.0
N301 N 0.75778 0.61045 0.54723 0.0
N302 N 0.76554 0.60564 0.31342 0.0
H303 H 0.80717 0.62156 0.44719 0.0
H304 H 0.7029 0.59888 0.54213 0.0
C305 C 0.69862 0.59136 0.9 0.0
O306 O 0.702 0.61152 1.01108 0.0
N307 N 0.78067 0.61964 0.946 0.0
C308 C 0.79856 0.64638 1.00456 0.0
C309 C 0.79778 0.64293 0.14983 0.0
C310 C 0.77098 0.5992 0.05531 0.0
N311 N 0.77994 0.61364 0.18026 0.0
C312 C 0.76847 0.6843 0.64289 0.0
C313 C 0.73582 0.71592 0.86623 0.0
C314 C 0.75363 0.73748 0.76749 0.0
C315 C 0.76878 0.72044 0.6515 0.0
C316 C 0.73588 0.67957 0.85258 0.0
N317 N 0.75309 0.66387 0.74409 0.0
H318 H 0.78342 0.67297 0.55901 0.0
H319 H 0.72476 0.66453 0.93683 0.0
H320 H 0.80929 0.66812 0.946 0.0
H321 H 0.7562 0.5753 0.04489 0.0
O322 O 0.8164 0.62618 0.70222 0.0
O323 O 0.79549 0.57303 0.73186 0.0
O324 O 0.72045 0.59284 0.79558 0.0
C325 C 0.8217 0.59311 0.69729 0.0
H326 H 0.7121 0.59404 0.26317 0.0
H327 H 0.80697 0.66179 0.2269 0.0
H328 H 0.7229 0.72614 0.95831 0.0
H329 H 0.78231 0.73418 0.56829 0.0
Co330 Co 0.64707 0.49368 0.05367 0.0
C331 C 0.64967 0.48198 0.36338 0.0
C332 C 0.65987 0.53545 0.31498 0.0
C333 C 0.66277 0.5308 0.45999 0.0
N334 N 0.65181 0.50468 0.2543 0.0
N335 N 0.65659 0.4971 0.48817 0.0
H336 H 0.64153 0.45517 0.35463 0.0
H337 H 0.66215 0.55979 0.25917 0.0
C338 C 0.67102 0.56389 0.90304 0.0
O339 O 0.65031 0.56106 0.79337 0.0
N340 N 0.64321 0.48135 0.8556 0.0
C341 C 0.617 0.46265 0.79706 0.0
C342 C 0.62028 0.46372 0.65175 0.0
C343 C 0.66324 0.49179 0.74616 0.0
N344 N 0.64898 0.48251 0.62131 0.0
C345 C 0.578 0.49599 0.16056 0.0
C346 C 0.54672 0.52435 0.92651 0.0
C347 C 0.52505 0.50885 0.0307 0.0
C348 C 0.5418 0.49594 0.15178 0.0
C349 C 0.58301 0.52475 0.94165 0.0
N350 N 0.59861 0.50951 0.05539 0.0
H351 H 0.58914 0.4824 0.24866 0.0
H352 H 0.59811 0.53405 0.8539 0.0
H353 H 0.59557 0.4513 0.85568 0.0
H354 H 0.68676 0.50715 0.75639 0.0
O355 O 0.63595 0.446 0.10007 0.0
O356 O 0.68928 0.46658 0.07119 0.0
O357 O 0.66993 0.54163 1.00597 0.0
C358 C 0.66901 0.44047 0.10523 0.0
H359 H 0.66679 0.55078 0.53851 0.0
H360 H 0.60163 0.45406 0.57476 0.0
H361 H 0.53657 0.53466 0.82874 0.0
H362 H 0.52757 0.48455 0.23912 0.0
Co363 Co 0.76156 0.39975 0.28194 0.0
C364 C 0.76676 0.38951 0.59131 0.0
C365 C 0.71968 0.41534 0.53669 0.0
C366 C 0.72401 0.41689 0.68254 0.0
N367 N 0.74649 0.39807 0.47935 0.0
N368 N 0.7538 0.40083 0.7153 0.0
H369 H 0.79209 0.37826 0.58201 0.0
H370 H 0.69989 0.42838 0.47638 0.0
C371 C 0.68155 0.40806 0.17032 0.0
O372 O 0.65944 0.3825 0.19328 0.0
N373 N 0.77678 0.40118 0.08568 0.0
C374 C 0.80261 0.38229 0.02955 0.0
C375 C 0.7987 0.3812 0.88363 0.0
C376 C 0.75791 0.41176 0.97304 0.0
N377 N 0.77032 0.39946 0.84949 0.0
C378 C 0.7833 0.33115 0.3436 0.0
C379 C 0.73301 0.29625 0.19036 0.0
C380 C 0.75633 0.27651 0.2726 0.0
C381 C 0.7822 0.29512 0.34723 0.0
C382 C 0.73494 0.33246 0.19084 0.0
N383 N 0.75912 0.34951 0.27109 0.0
H384 H 0.80405 0.34414 0.39965 0.0
H385 H 0.71726 0.34652 0.12437 0.0
H386 H 0.82114 0.36778 0.09105 0.0
H387 H 0.73439 0.42616 0.98106 0.0
O388 O 0.80866 0.40486 0.34707 0.0
O389 O 0.7721 0.44816 0.31004 0.0
O390 O 0.71271 0.4051 0.21331 0.0
C391 C 0.80159 0.43751 0.36003 0.0
H392 H 0.70758 0.43034 0.75688 0.0
H393 H 0.8141 0.36624 0.81036 0.0
H394 H 0.71327 0.28468 0.12387 0.0
H395 H 0.80201 0.28282 0.40922 0.0
Co396 Co 0.14777 0.51381 0.53099 0.0
C397 C 0.13735 0.51886 0.8403 0.0
C398 C 0.16364 0.47203 0.78572 0.0
C399 C 0.16516 0.47639 0.93157 0.0
N400 N 0.14614 0.49867 0.72835 0.0
N401 N 0.14883 0.50603 0.96433 0.0
H402 H 0.12579 0.54404 0.83088 0.0
H403 H 0.17688 0.45237 0.72542 0.0
C404 C 0.15639 0.43389 0.41924 0.0
O405 O 0.13079 0.41186 0.44305 0.0
N406 N 0.14913 0.52906 0.33474 0.0
C407 C 0.13005 0.55475 0.2786 0.0
C408 C 0.12894 0.55082 0.13268 0.0
C409 C 0.15981 0.51025 0.22207 0.0
N410 N 0.14738 0.52255 0.09852 0.0
C411 C 0.0791 0.53556 0.59101 0.0
C412 C 0.04434 0.48433 0.44248 0.0
C413 C 0.02454 0.50808 0.52228 0.0
C414 C 0.04308 0.53446 0.5942 0.0
C415 C 0.08054 0.48649 0.44213 0.0
N416 N 0.09754 0.51111 0.52026 0.0
H417 H 0.09203 0.55654 0.64585 0.0
H418 H 0.09462 0.46856 0.37698 0.0
H419 H 0.11543 0.5732 0.34011 0.0
H420 H 0.17441 0.48685 0.23007 0.0
O421 O 0.15262 0.56091 0.59644 0.0
O422 O 0.19609 0.52458 0.55913 0.0
O423 O 0.15363 0.46509 0.46182 0.0
C424 C 0.18529 0.55398 0.60939 0.0
H425 H 0.17878 0.4601 1.0059 0.0
H426 H 0.11387 0.56611 0.05943 0.0
H427 H 0.03286 0.464 0.3788 0.0
H428 H 0.03071 0.55473 0.65338 0.0
Co429 Co 0.24196 0.39901 0.30373 0.0
C430 C 0.23001 0.40168 0.61341 0.0
C431 C 0.28347 0.41199 0.56513 0.0
C432 C 0.27881 0.41483 0.71006 0.0
N433 N 0.25271 0.40393 0.50438 0.0
N434 N 0.24512 0.4086 0.73827 0.0
H435 H 0.20319 0.39352 0.60452 0.0
H436 H 0.30785 0.41425 0.50949 0.0
C437 C 0.31214 0.42316 0.15296 0.0
O438 O 0.30892 0.40304 0.04164 0.0
N439 N 0.22995 0.39473 0.10563 0.0
C440 C 0.21199 0.36803 0.04716 0.0
C441 C 0.21276 0.37145 0.90187 0.0
C442 C 0.23973 0.41509 0.99626 0.0
N443 N 0.23068 0.40068 0.87138 0.0
C444 C 0.24187 0.33013 0.40843 0.0
C445 C 0.27489 0.29847 0.18608 0.0
C446 C 0.25684 0.27692 0.28415 0.0
C447 C 0.24144 0.29398 0.39958 0.0
C448 C 0.27481 0.33483 0.19964 0.0
N449 N 0.25745 0.35054 0.30771 0.0
H450 H 0.22683 0.3415 0.49203 0.0
H451 H 0.28611 0.3499 0.11579 0.0
H452 H 0.20119 0.34633 0.1058 0.0
H453 H 0.2546 0.43894 1.00658 0.0
O454 O 0.19413 0.38818 0.34913 0.0
O455 O 0.21493 0.44136 0.31968 0.0
O456 O 0.2901 0.42164 0.25666 0.0
C457 C 0.18873 0.42123 0.35394 0.0
H458 H 0.29881 0.41877 0.78848 0.0
H459 H 0.20351 0.35261 0.82483 0.0
H460 H 0.28808 0.28822 0.0947 0.0
H461 H 0.22763 0.28027 0.4821 0.0
Co462 Co 0.36381 0.52056 0.99809 0.0
C463 C 0.36167 0.5327 0.68847 0.0
C464 C 0.34938 0.47963 0.73648 0.0
C465 C 0.34644 0.48448 0.59172 0.0
N466 N 0.35871 0.51003 0.79734 0.0
N467 N 0.35397 0.51792 0.5636 0.0
H468 H 0.37052 0.5593 0.69768 0.0
H469 H 0.3462 0.45536 0.79194 0.0
C470 C 0.33964 0.4508 0.15069 0.0
O471 O 0.35933 0.45461 0.26305 0.0
N472 N 0.36848 0.53229 0.19616 0.0
C473 C 0.39576 0.54932 0.25461 0.0
C474 C 0.39217 0.54891 0.39982 0.0
C475 C 0.34767 0.5234 0.30543 0.0
N476 N 0.3623 0.53209 0.43039 0.0
C477 C 0.4326 0.52361 0.89752 0.0
C478 C 0.46467 0.48489 0.10265 0.0
C479 C 0.48588 0.5058 1.01319 0.0
C480 C 0.46866 0.52448 0.90715 0.0
C481 C 0.42818 0.48549 0.09136 0.0
N482 N 0.41237 0.50554 0.9917 0.0
H483 H 0.42106 0.54029 0.81986 0.0
H484 H 0.41315 0.47154 0.1685 0.0
H485 H 0.41782 0.55937 0.19603 0.0
H486 H 0.32341 0.50922 0.29495 0.0
O487 O 0.37408 0.56862 0.95363 0.0
O488 O 0.32119 0.54725 0.9837 0.0
O489 O 0.34161 0.47225 0.04509 0.0
C490 C 0.34101 0.57365 0.94892 0.0
H491 H 0.34134 0.4647 0.51335 0.0
H492 H 0.41126 0.55761 0.4769 0.0
H493 H 0.47555 0.46867 0.18424 0.0
H494 H 0.48219 0.54143 0.83431 0.0
Co495 Co 0.24816 0.61418 0.77034 0.0
C496 C 0.24332 0.62482 0.46117 0.0
C497 C 0.28994 0.59814 0.51558 0.0
C498 C 0.28555 0.5967 0.36971 0.0
N499 N 0.26343 0.61581 0.57308 0.0
N500 N 0.25603 0.61325 0.33702 0.0
H501 H 0.21825 0.63663 0.47077 0.0
H502 H 0.30951 0.58474 0.5758 0.0
C503 C 0.32796 0.60564 0.88222 0.0
O504 O 0.34964 0.63137 0.85581 0.0
N505 N 0.23279 0.61287 0.96661 0.0
C506 C 0.20733 0.63225 0.02278 0.0
C507 C 0.21136 0.63344 0.16868 0.0
C508 C 0.25154 0.60207 0.07938 0.0
N509 N 0.23945 0.61475 0.20289 0.0
C510 C 0.22639 0.68293 0.71188 0.0
C511 C 0.27838 0.71759 0.85634 0.0
C512 C 0.25426 0.73745 0.7787 0.0
C513 C 0.22749 0.71896 0.70905 0.0
C514 C 0.27605 0.68139 0.85739 0.0
N515 N 0.25106 0.66443 0.78112 0.0
H516 H 0.2052 0.67005 0.65816 0.0
H517 H 0.29419 0.6673 0.92143 0.0
H518 H 0.18901 0.64702 0.96126 0.0
H519 H 0.27477 0.58718 0.07142 0.0
O520 O 0.20109 0.60943 0.70409 0.0
O521 O 0.2373 0.5659 0.74212 0.0
O522 O 0.29665 0.6077 0.8406 0.0
C523 C 0.208 0.57673 0.69126 0.0
H524 H 0.30174 0.58299 0.29528 0.0
H525 H 0.19626 0.64873 0.24185 0.0
H526 H 0.29919 0.72903 0.91754 0.0
H527 H 0.20686 0.73141 0.6522 0.0
loop_
_geom_bond_atom_site_label_1
_geom_bond_atom_site_label_2
_geom_bond_distance
_geom_bond_site_symmetry_2
_ccdc_geom_bond_type
Co0 N4 2.148 1_564 S
Co0 N10 2.128 . S
Co0 N20 2.193 1_564 S
Co0 O25 2.351 1_554 S
Co0 O26 2.155 1_554 S
Co0 O27 2.096 1_565 S
C1 N4 1.317 . S
C1 N5 1.347 . S
C1 H6 0.900 1_545 S
C2 C3 1.333 . S
C2 N4 1.317 . S
C2 H7 0.930 . S
C3 C2 1.333 . S
C3 N5 1.350 . S
C3 H29 0.931 . S
N4 Co0 2.148 1_546 S
N4 C1 1.317 . S
N4 C2 1.317 . S
N5 C1 1.347 . S
N5 C3 1.350 . S
H6 C1 0.900 1_565 S
H7 C2 0.930 . S
C8 O9 1.224 . S
C8 O27 1.247 . S
O9 C8 1.224 . S
N10 Co0 2.128 . S
N10 C11 1.355 . S
N10 C13 1.311 . S
C11 N10 1.355 . S
C11 C12 1.363 . S
C11 H23 0.929 . S
C12 C11 1.363 . S
C12 N14 1.375 . S
C12 H30 0.931 . S
C13 N10 1.311 . S
C13 N14 1.347 . S
C13 H24 0.929 1_565 S
N14 C12 1.375 . S
N14 C13 1.347 . S
C15 C18 1.365 . S
C15 N20 1.303 1_565 S
C15 H21 0.929 . S
C16 C17 1.362 1_554 S
C16 C19 1.378 . S
C16 H31 0.929 . S
C17 C16 1.362 1_556 S
C17 C18 1.367 1_545 S
C18 C15 1.365 . S
C18 C17 1.367 1_565 S
C18 H32 0.930 . S
C19 C16 1.378 . S
C19 N20 1.343 1_554 S
C19 H22 0.930 . S
N20 Co0 2.193 1_546 S
N20 C15 1.303 1_545 S
N20 C19 1.343 1_556 S
H21 C15 0.929 . S
H22 C19 0.930 . S
H23 C11 0.929 . S
H24 C13 0.929 1_545 S
O25 Co0 2.351 1_556 S
O25 C28 1.244 . S
O26 Co0 2.155 1_556 S
O26 C28 1.240 . S
O27 Co0 2.096 1_545 S
O27 C8 1.247 . S
C28 O25 1.244 . S
C28 O26 1.240 . S
H29 C3 0.931 . S
H30 C12 0.931 . S
H31 C16 0.929 . S
H32 C18 0.930 . S
Co33 N37 2.148 . S
Co33 N43 2.128 . S
Co33 N53 2.194 . S
Co33 O58 2.351 . S
Co33 O59 2.155 . S
Co33 O60 2.096 . S
C34 N37 1.301 1_556 S
C34 N38 1.328 . S
C34 H39 0.930 . S
C35 C36 1.333 . S
C35 N37 1.317 1_556 S
C35 H40 0.930 1_556 S
C36 C35 1.333 . S
C36 N38 1.350 . S
C36 H62 0.931 . S
N37 Co33 2.148 . S
N37 C34 1.301 1_554 S
N37 C35 1.317 1_554 S
N38 C34 1.328 . S
N38 C36 1.350 . S
H39 C34 0.930 . S
H40 C35 0.930 1_554 S
C41 O42 1.224 . S
C41 O60 1.247 . S
O42 C41 1.224 . S
N43 Co33 2.128 . S
N43 C44 1.355 . S
N43 C46 1.311 . S
C44 N43 1.355 . S
C44 C45 1.363 . S
C44 H56 0.929 . S
C45 C44 1.363 . S
C45 N47 1.375 . S
C45 H63 0.931 . S
C46 N43 1.311 . S
C46 N47 1.347 . S
C46 H57 0.929 . S
N47 C45 1.375 . S
N47 C46 1.347 . S
C48 C51 1.365 . S
C48 N53 1.328 . S
C48 H54 0.929 . S
C49 C50 1.362 . S
C49 C52 1.378 . S
C49 H64 0.929 . S
C50 C49 1.362 . S
C50 C51 1.366 . S
C51 C48 1.365 . S
C51 C50 1.366 . S
C51 H65 0.930 . S
C52 C49 1.378 . S
C52 N53 1.315 . S
C52 H55 0.930 . S
N53 Co33 2.194 . S
N53 C48 1.328 . S
N53 C52 1.315 . S
H54 C48 0.929 . S
H55 C52 0.930 . S
H56 C44 0.929 . S
H57 C46 0.929 . S
O58 Co33 2.351 . S
O58 C61 1.244 . S
O59 Co33 2.155 . S
O59 C61 1.240 . S
O60 Co33 2.096 . S
O60 C41 1.247 . S
C61 O58 1.244 . S
C61 O59 1.240 . S
H62 C36 0.931 . S
H63 C45 0.931 . S
H64 C49 0.929 . S
H65 C51 0.930 . S
Co66 N70 2.148 1_565 S
Co66 N76 2.128 . S
Co66 N86 2.193 1_565 S
Co66 O91 2.351 . S
Co66 O92 2.155 . S
Co66 O93 2.096 1_565 S
C67 N70 1.301 . S
C67 N71 1.328 . S
C67 H72 0.930 1_545 S
C68 C69 1.333 . S
C68 N70 1.317 . S
C68 H73 0.930 . S
C69 C68 1.333 . S
C69 N71 1.350 . S
C69 H95 0.931 . S
N70 Co66 2.148 1_545 S
N70 C67 1.301 . S
N70 C68 1.317 . S
N71 C67 1.328 . S
N71 C69 1.350 . S
H72 C67 0.930 1_565 S
H73 C68 0.930 . S
C74 O75 1.224 . S
C74 O93 1.247 . S
O75 C74 1.224 . S
N76 Co66 2.128 . S
N76 C77 1.355 . S
N76 C79 1.311 . S
C77 N76 1.355 . S
C77 C78 1.363 . S
C77 H89 0.929 . S
C78 C77 1.363 . S
C78 N80 1.375 . S
C78 H96 0.931 . S
C79 N76 1.311 . S
C79 N80 1.347 . S
C79 H90 0.929 1_565 S
N80 C78 1.375 . S
N80 C79 1.347 . S
C81 C84 1.365 . S
C81 N86 1.302 1_565 S
C81 H87 0.929 . S
C82 C83 1.362 . S
C82 C85 1.378 . S
C82 H97 0.929 . S
C83 C82 1.362 . S
C83 C84 1.366 1_545 S
C84 C81 1.365 . S
C84 C83 1.366 1_565 S
C84 H98 0.930 . S
C85 C82 1.378 . S
C85 N86 1.343 . S
C85 H88 0.930 . S
N86 Co66 2.193 1_545 S
N86 C81 1.302 1_545 S
N86 C85 1.343 . S
H87 C81 0.929 . S
H88 C85 0.930 . S
H89 C77 0.929 . S
H90 C79 0.929 1_545 S
O91 Co66 2.351 . S
O91 C94 1.244 . S
O92 Co66 2.155 . S
O92 C94 1.240 . S
O93 Co66 2.096 1_545 S
O93 C74 1.247 . S
C94 O91 1.244 . S
C94 O92 1.240 . S
H95 C69 0.931 . S
H96 C78 0.931 . S
H97 C82 0.929 . S
H98 C84 0.930 . S
Co99 N103 2.148 . S
Co99 N109 2.128 . S
Co99 N119 2.194 . S
Co99 O124 2.351 . S
Co99 O125 2.155 . S
Co99 O126 2.096 . S
C100 N103 1.301 1_554 S
C100 N104 1.328 . S
C100 H105 0.930 . S
C101 C102 1.333 . S
C101 N103 1.317 1_554 S
C101 H106 0.930 1_554 S
C102 C101 1.333 . S
C102 N104 1.350 . S
C102 H128 0.931 . S
N103 Co99 2.148 . S
N103 C100 1.301 1_556 S
N103 C101 1.317 1_556 S
N104 C100 1.328 . S
N104 C102 1.350 . S
H105 C100 0.930 . S
H106 C101 0.930 1_556 S
C107 O108 1.224 . S
C107 O126 1.247 . S
O108 C107 1.224 . S
N109 Co99 2.128 . S
N109 C110 1.355 . S
N109 C112 1.311 . S
C110 N109 1.355 . S
C110 C111 1.363 . S
C110 H122 0.929 . S
C111 C110 1.363 . S
C111 N113 1.375 . S
C111 H129 0.931 . S
C112 N109 1.311 . S
C112 N113 1.347 . S
C112 H123 0.929 . S
N113 C111 1.375 . S
N113 C112 1.347 . S
C114 C117 1.365 . S
C114 N119 1.328 . S
C114 H120 0.929 . S
C115 C116 1.362 . S
C115 C118 1.378 . S
C115 H130 0.929 . S
C116 C115 1.362 . S
C116 C117 1.366 . S
C117 C114 1.365 . S
C117 C116 1.366 . S
C117 H131 0.930 . S
C118 C115 1.378 . S
C118 N119 1.315 . S
C118 H121 0.930 . S
N119 Co99 2.194 . S
N119 C114 1.328 . S
N119 C118 1.315 . S
H120 C114 0.929 . S
H121 C118 0.930 . S
H122 C110 0.929 . S
H123 C112 0.929 . S
O124 Co99 2.351 . S
O124 C127 1.244 . S
O125 Co99 2.155 . S
O125 C127 1.240 . S
O126 Co99 2.096 . S
O126 C107 1.247 . S
C127 O124 1.244 . S
C127 O125 1.240 . S
H128 C102 0.931 . S
H129 C111 0.931 . S
H130 C115 0.929 . S
H131 C117 0.930 . S
Co132 N136 2.148 1_545 S
Co132 N142 2.128 1_554 S
Co132 N152 2.194 . S
Co132 O157 2.351 . S
Co132 O158 2.155 . S
Co132 O159 2.096 1_544 S
C133 N136 1.301 1_545 S
C133 N137 1.328 1_545 S
C133 H138 0.930 . S
C134 C135 1.333 . S
C134 N136 1.317 . S
C134 H139 0.930 . S
C135 C134 1.333 . S
C135 N137 1.350 . S
C135 H161 0.931 . S
N136 Co132 2.148 1_565 S
N136 C133 1.301 1_565 S
N136 C134 1.317 . S
N137 C133 1.328 1_565 S
N137 C135 1.350 . S
H138 C133 0.930 . S
H139 C134 0.930 . S
C140 O141 1.224 . S
C140 O159 1.247 . S
O141 C140 1.224 . S
N142 Co132 2.128 1_556 S
N142 C143 1.355 . S
N142 C145 1.311 . S
C143 N142 1.355 . S
C143 C144 1.363 . S
C143 H155 0.929 . S
C144 C143 1.363 . S
C144 N146 1.375 . S
C144 H162 0.931 . S
C145 N142 1.311 . S
C145 N146 1.347 . S
C145 H156 0.929 1_545 S
N146 C144 1.375 . S
N146 C145 1.347 . S
C147 C150 1.365 . S
C147 N152 1.328 . S
C147 H153 0.929 . S
C148 C149 1.362 1_566 S
C148 C151 1.378 . S
C148 H163 0.929 . S
C149 C148 1.362 1_544 S
C149 C150 1.366 . S
C150 C147 1.365 . S
C150 C149 1.366 . S
C150 H164 0.930 . S
C151 C148 1.378 . S
C151 N152 1.315 1_566 S
C151 H154 0.930 . S
N152 Co132 2.194 . S
N152 C147 1.328 . S
N152 C151 1.315 1_544 S
H153 C147 0.929 . S
H154 C151 0.930 . S
H155 C143 0.929 . S
H156 C145 0.929 1_565 S
O157 Co132 2.351 . S
O157 C160 1.244 . S
O158 Co132 2.155 . S
O158 C160 1.240 . S
O159 Co132 2.096 1_566 S
O159 C140 1.247 . S
C160 O157 1.244 . S
C160 O158 1.240 . S
H161 C135 0.931 . S
H162 C144 0.931 . S
H163 C148 0.929 . S
H164 C150 0.930 . S
Co165 N169 2.148 . S
Co165 N175 2.128 . S
Co165 N185 2.194 . S
Co165 O190 2.351 . S
Co165 O191 2.155 . S
Co165 O192 2.096 . S
C166 N169 1.301 1_554 S
C166 N170 1.328 . S
C166 H171 0.930 . S
C167 C168 1.333 . S
C167 N169 1.317 1_554 S
C167 H172 0.930 1_554 S
C168 C167 1.333 . S
C168 N170 1.350 . S
C168 H194 0.931 . S
N169 Co165 2.148 . S
N169 C166 1.301 1_556 S
N169 C167 1.317 1_556 S
N170 C166 1.328 . S
N170 C168 1.350 . S
H171 C166 0.930 . S
H172 C167 0.930 1_556 S
C173 O174 1.224 . S
C173 O192 1.247 . S
O174 C173 1.224 . S
N175 Co165 2.128 . S
N175 C176 1.355 . S
N175 C178 1.311 . S
C176 N175 1.355 . S
C176 C177 1.363 . S
C176 H188 0.929 . S
C177 C176 1.363 . S
C177 N179 1.375 . S
C177 H195 0.931 . S
C178 N175 1.311 . S
C178 N179 1.347 . S
C178 H189 0.929 . S
N179 C177 1.375 . S
N179 C178 1.347 . S
C180 C183 1.365 . S
C180 N185 1.328 . S
C180 H186 0.929 . S
C181 C182 1.362 . S
C181 C184 1.378 . S
C181 H196 0.929 . S
C182 C181 1.362 . S
C182 C183 1.366 . S
C183 C180 1.365 . S
C183 C182 1.366 . S
C183 H197 0.930 . S
C184 C181 1.378 . S
C184 N185 1.315 . S
C184 H187 0.930 . S
N185 Co165 2.194 . S
N185 C180 1.328 . S
N185 C184 1.315 . S
H186 C180 0.929 . S
H187 C184 0.930 . S
H188 C176 0.929 . S
H189 C178 0.929 . S
O190 Co165 2.351 . S
O190 C193 1.244 . S
O191 Co165 2.155 . S
O191 C193 1.240 . S
O192 Co165 2.096 . S
O192 C173 1.247 . S
C193 O190 1.244 . S
C193 O191 1.240 . S
H194 C168 0.931 . S
H195 C177 0.931 . S
H196 C181 0.929 . S
H197 C183 0.930 . S
Co198 N202 2.148 1_545 S
Co198 N208 2.128 . S
Co198 N218 2.194 . S
Co198 O223 2.351 . S
Co198 O224 2.155 . S
Co198 O225 2.096 1_545 S
C199 N202 1.301 1_545 S
C199 N203 1.328 1_545 S
C199 H204 0.930 . S
C200 C201 1.333 . S
C200 N202 1.317 . S
C200 H205 0.930 . S
C201 C200 1.333 . S
C201 N203 1.350 . S
C201 H227 0.931 . S
N202 Co198 2.148 1_565 S
N202 C199 1.301 1_565 S
N202 C200 1.317 . S
N203 C199 1.328 1_565 S
N203 C201 1.350 . S
H204 C199 0.930 . S
H205 C200 0.930 . S
C206 O207 1.224 . S
C206 O225 1.247 . S
O207 C206 1.224 . S
N208 Co198 2.128 . S
N208 C209 1.355 . S
N208 C211 1.311 . S
C209 N208 1.355 . S
C209 C210 1.363 . S
C209 H221 0.929 . S
C210 C209 1.363 . S
C210 N212 1.375 . S
C210 H228 0.931 . S
C211 N208 1.311 . S
C211 N212 1.347 . S
C211 H222 0.929 1_545 S
N212 C210 1.375 . S
N212 C211 1.347 . S
C213 C216 1.365 . S
C213 N218 1.328 . S
C213 H219 0.929 . S
C214 C215 1.362 1_565 S
C214 C217 1.378 . S
C214 H229 0.929 . S
C215 C214 1.362 1_545 S
C215 C216 1.366 . S
C216 C213 1.365 . S
C216 C215 1.366 . S
C216 H230 0.930 . S
C217 C214 1.378 . S
C217 N218 1.315 1_565 S
C217 H220 0.930 . S
N218 Co198 2.194 . S
N218 C213 1.328 . S
N218 C217 1.315 1_545 S
H219 C213 0.929 . S
H220 C217 0.930 . S
H221 C209 0.929 . S
H222 C211 0.929 1_565 S
O223 Co198 2.351 . S
O223 C226 1.244 . S
O224 Co198 2.155 . S
O224 C226 1.240 . S
O225 Co198 2.096 1_565 S
O225 C206 1.247 . S
C226 O223 1.244 . S
C226 O224 1.240 . S
H227 C201 0.931 . S
H228 C210 0.931 . S
H229 C214 0.929 . S
H230 C216 0.930 . S
Co231 N235 2.148 . S
Co231 N241 2.128 . S
Co231 N251 2.194 . S
Co231 O256 2.351 . S
Co231 O257 2.155 . S
Co231 O258 2.096 . S
C232 N235 1.301 1_556 S
C232 N236 1.328 . S
C232 H237 0.930 . S
C233 C234 1.333 1_554 S
C233 N235 1.317 . S
C233 H238 0.930 . S
C234 C233 1.333 1_556 S
C234 N236 1.350 . S
C234 H260 0.931 . S
N235 Co231 2.148 . S
N235 C232 1.301 1_554 S
N235 C233 1.317 . S
N236 C232 1.328 . S
N236 C234 1.350 . S
H237 C232 0.930 . S
H238 C233 0.930 . S
C239 O240 1.224 . S
C239 O258 1.247 . S
O240 C239 1.224 . S
N241 Co231 2.128 . S
N241 C242 1.355 . S
N241 C244 1.311 . S
C242 N241 1.355 . S
C242 C243 1.363 . S
C242 H254 0.929 . S
C243 C242 1.363 . S
C243 N245 1.375 . S
C243 H261 0.931 . S
C244 N241 1.311 . S
C244 N245 1.347 . S
C244 H255 0.929 . S
N245 C243 1.375 . S
N245 C244 1.347 . S
C246 C249 1.365 . S
C246 N251 1.328 . S
C246 H252 0.929 . S
C247 C248 1.362 . S
C247 C250 1.378 . S
C247 H262 0.929 . S
C248 C247 1.362 . S
C248 C249 1.366 . S
C249 C246 1.365 . S
C249 C248 1.366 . S
C249 H263 0.930 . S
C250 C247 1.378 . S
C250 N251 1.315 . S
C250 H253 0.930 . S
N251 Co231 2.194 . S
N251 C246 1.328 . S
N251 C250 1.315 . S
H252 C246 0.929 . S
H253 C250 0.930 . S
H254 C242 0.929 . S
H255 C244 0.929 . S
O256 Co231 2.351 . S
O256 C259 1.244 . S
O257 Co231 2.155 . S
O257 C259 1.240 . S
O258 Co231 2.096 . S
O258 C239 1.247 . S
C259 O256 1.244 . S
C259 O257 1.240 . S
H260 C234 0.931 . S
H261 C243 0.931 . S
H262 C247 0.929 . S
H263 C249 0.930 . S
Co264 N268 2.148 . S
Co264 N274 2.128 . S
Co264 N284 2.194 . S
Co264 O289 2.351 . S
Co264 O290 2.155 . S
Co264 O291 2.096 . S
C265 N268 1.301 . S
C265 N269 1.328 . S
C265 H270 0.930 . S
C266 C267 1.333 . S
C266 N268 1.317 . S
C266 H271 0.930 . S
C267 C266 1.333 . S
C267 N269 1.350 . S
C267 H293 0.931 . S
N268 Co264 2.148 . S
N268 C265 1.301 . S
N268 C266 1.317 . S
N269 C265 1.328 . S
N269 C267 1.350 . S
H270 C265 0.930 . S
H271 C266 0.930 . S
C272 O273 1.224 . S
C272 O291 1.247 . S
O273 C272 1.224 . S
N274 Co264 2.128 . S
N274 C275 1.355 . S
N274 C277 1.311 . S
C275 N274 1.355 . S
C275 C276 1.363 . S
C275 H287 0.929 . S
C276 C275 1.363 . S
C276 N278 1.375 . S
C276 H294 0.931 . S
C277 N274 1.311 . S
C277 N278 1.347 . S
C277 H288 0.929 . S
N278 C276 1.375 . S
N278 C277 1.347 . S
C279 C282 1.365 . S
C279 N284 1.328 . S
C279 H285 0.929 . S
C280 C281 1.362 . S
C280 C283 1.378 . S
C280 H295 0.929 . S
C281 C280 1.362 . S
C281 C282 1.366 . S
C282 C279 1.365 . S
C282 C281 1.366 . S
C282 H296 0.930 . S
C283 C280 1.378 . S
C283 N284 1.315 . S
C283 H286 0.930 . S
N284 Co264 2.194 . S
N284 C279 1.328 . S
N284 C283 1.315 . S
H285 C279 0.929 . S
H286 C283 0.930 . S
H287 C275 0.929 . S
H288 C277 0.929 . S
O289 Co264 2.351 . S
O289 C292 1.244 . S
O290 Co264 2.155 . S
O290 C292 1.240 . S
O291 Co264 2.096 . S
O291 C272 1.247 . S
C292 O289 1.244 . S
C292 O290 1.240 . S
H293 C267 0.931 . S
H294 C276 0.931 . S
H295 C280 0.929 . S
H296 C282 0.930 . S
Co297 N301 2.148 . S
Co297 N307 2.128 . S
Co297 N317 2.194 . S
Co297 O322 2.351 . S
Co297 O323 2.155 . S
Co297 O324 2.096 . S
C298 N301 1.301 . S
C298 N302 1.328 . S
C298 H303 0.930 . S
C299 C300 1.333 . S
C299 N301 1.317 . S
C299 H304 0.930 . S
C300 C299 1.333 . S
C300 N302 1.350 . S
C300 H326 0.931 . S
N301 Co297 2.148 . S
N301 C298 1.301 . S
N301 C299 1.317 . S
N302 C298 1.328 . S
N302 C300 1.350 . S
H303 C298 0.930 . S
H304 C299 0.930 . S
C305 O306 1.224 . S
C305 O324 1.247 . S
O306 C305 1.224 . S
N307 Co297 2.128 . S
N307 C308 1.355 1_556 S
N307 C310 1.311 1_556 S
C308 N307 1.355 1_554 S
C308 C309 1.363 . S
C308 H320 0.929 1_554 S
C309 C308 1.363 . S
C309 N311 1.375 . S
C309 H327 0.931 . S
C310 N307 1.311 1_554 S
C310 N311 1.347 . S
C310 H321 0.929 . S
N311 C309 1.375 . S
N311 C310 1.347 . S
C312 C315 1.365 . S
C312 N317 1.328 . S
C312 H318 0.929 . S
C313 C314 1.362 . S
C313 C316 1.378 . S
C313 H328 0.929 . S
C314 C313 1.362 . S
C314 C315 1.366 . S
C315 C312 1.365 . S
C315 C314 1.366 . S
C315 H329 0.930 . S
C316 C313 1.378 . S
C316 N317 1.315 . S
C316 H319 0.930 . S
N317 Co297 2.194 . S
N317 C312 1.328 . S
N317 C316 1.315 . S
H318 C312 0.929 . S
H319 C316 0.930 . S
H320 C308 0.929 1_556 S
H321 C310 0.929 . S
O322 Co297 2.351 . S
O322 C325 1.244 . S
O323 Co297 2.155 . S
O323 C325 1.240 . S
O324 Co297 2.096 . S
O324 C305 1.247 . S
C325 O322 1.244 . S
C325 O323 1.240 . S
H326 C300 0.931 . S
H327 C309 0.931 . S
H328 C313 0.929 . S
H329 C315 0.930 . S
Co330 N334 2.148 . S
Co330 N340 2.128 1_554 S
Co330 N350 2.194 . S
Co330 O355 2.351 . S
Co330 O356 2.155 . S
Co330 O357 2.096 1_554 S
C331 N334 1.301 . S
C331 N335 1.328 . S
C331 H336 0.930 . S
C332 C333 1.333 . S
C332 N334 1.317 . S
C332 H337 0.930 . S
C333 C332 1.333 . S
C333 N335 1.350 . S
C333 H359 0.931 . S
N334 Co330 2.148 . S
N334 C331 1.301 . S
N334 C332 1.317 . S
N335 C331 1.328 . S
N335 C333 1.350 . S
H336 C331 0.930 . S
H337 C332 0.930 . S
C338 O339 1.224 . S
C338 O357 1.247 . S
O339 C338 1.224 . S
N340 Co330 2.128 1_556 S
N340 C341 1.355 . S
N340 C343 1.311 . S
C341 N340 1.355 . S
C341 C342 1.363 . S
C341 H353 0.929 . S
C342 C341 1.363 . S
C342 N344 1.375 . S
C342 H360 0.931 . S
C343 N340 1.311 . S
C343 N344 1.347 . S
C343 H354 0.929 . S
N344 C342 1.375 . S
N344 C343 1.347 . S
C345 C348 1.365 . S
C345 N350 1.328 . S
C345 H351 0.929 . S
C346 C347 1.362 1_556 S
C346 C349 1.378 . S
C346 H361 0.929 . S
C347 C346 1.362 1_554 S
C347 C348 1.366 . S
C348 C345 1.365 . S
C348 C347 1.366 . S
C348 H362 0.930 . S
C349 C346 1.378 . S
C349 N350 1.315 1_556 S
C349 H352 0.930 . S
N350 Co330 2.194 . S
N350 C345 1.328 . S
N350 C349 1.315 1_554 S
H351 C345 0.929 . S
H352 C349 0.930 . S
H353 C341 0.929 . S
H354 C343 0.929 . S
O355 Co330 2.351 . S
O355 C358 1.244 . S
O356 Co330 2.155 . S
O356 C358 1.240 . S
O357 Co330 2.096 1_556 S
O357 C338 1.247 . S
C358 O355 1.244 . S
C358 O356 1.240 . S
H359 C333 0.931 . S
H360 C342 0.931 . S
H361 C346 0.929 . S
H362 C348 0.930 . S
Co363 N367 2.148 . S
Co363 N373 2.128 . S
Co363 N383 2.194 . S
Co363 O388 2.351 . S
Co363 O389 2.155 . S
Co363 O390 2.096 . S
C364 N367 1.301 . S
C364 N368 1.328 . S
C364 H369 0.930 . S
C365 C366 1.333 . S
C365 N367 1.317 . S
C365 H370 0.930 . S
C366 C365 1.333 . S
C366 N368 1.350 . S
C366 H392 0.931 . S
N367 Co363 2.148 . S
N367 C364 1.301 . S
N367 C365 1.317 . S
N368 C364 1.328 . S
N368 C366 1.350 . S
H369 C364 0.930 . S
H370 C365 0.930 . S
C371 O372 1.224 . S
C371 O390 1.247 . S
O372 C371 1.224 . S
N373 Co363 2.128 . S
N373 C374 1.355 . S
N373 C376 1.311 1_554 S
C374 N373 1.355 . S
C374 C375 1.363 1_554 S
C374 H386 0.929 . S
C375 C374 1.363 1_556 S
C375 N377 1.375 . S
C375 H393 0.931 . S
C376 N373 1.311 1_556 S
C376 N377 1.347 . S
C376 H387 0.929 . S
N377 C375 1.375 . S
N377 C376 1.347 . S
C378 C381 1.365 . S
C378 N383 1.328 . S
C378 H384 0.929 . S
C379 C380 1.362 . S
C379 C382 1.378 . S
C379 H394 0.929 . S
C380 C379 1.362 . S
C380 C381 1.366 . S
C381 C378 1.365 . S
C381 C380 1.366 . S
C381 H395 0.930 . S
C382 C379 1.378 . S
C382 N383 1.315 . S
C382 H385 0.930 . S
N383 Co363 2.194 . S
N383 C378 1.328 . S
N383 C382 1.315 . S
H384 C378 0.929 . S
H385 C382 0.930 . S
H386 C374 0.929 . S
H387 C376 0.929 . S
O388 Co363 2.351 . S
O388 C391 1.244 . S
O389 Co363 2.155 . S
O389 C391 1.240 . S
O390 Co363 2.096 . S
O390 C371 1.247 . S
C391 O388 1.244 . S
C391 O389 1.240 . S
H392 C366 0.931 . S
H393 C375 0.931 . S
H394 C379 0.929 . S
H395 C381 0.930 . S
Co396 N400 2.148 . S
Co396 N406 2.128 . S
Co396 N416 2.194 . S
Co396 O421 2.351 . S
Co396 O422 2.155 . S
Co396 O423 2.096 . S
C397 N400 1.301 . S
C397 N401 1.328 . S
C397 H402 0.930 . S
C398 C399 1.333 . S
C398 N400 1.317 . S
C398 H403 0.930 . S
C399 C398 1.333 . S
C399 N401 1.350 . S
C399 H425 0.931 . S
N400 Co396 2.148 . S
N400 C397 1.301 . S
N400 C398 1.317 . S
N401 C397 1.328 . S
N401 C399 1.350 . S
H402 C397 0.930 . S
H403 C398 0.930 . S
C404 O405 1.224 . S
C404 O423 1.247 . S
O405 C404 1.224 . S
N406 Co396 2.128 . S
N406 C407 1.355 . S
N406 C409 1.311 . S
C407 N406 1.355 . S
C407 C408 1.363 . S
C407 H419 0.929 . S
C408 C407 1.363 . S
C408 N410 1.375 . S
C408 H426 0.931 . S
C409 N406 1.311 . S
C409 N410 1.347 . S
C409 H420 0.929 . S
N410 C408 1.375 . S
N410 C409 1.347 . S
C411 C414 1.365 . S
C411 N416 1.328 . S
C411 H417 0.929 . S
C412 C413 1.362 . S
C412 C415 1.378 . S
C412 H427 0.929 . S
C413 C412 1.362 . S
C413 C414 1.366 . S
C414 C411 1.365 . S
C414 C413 1.366 . S
C414 H428 0.930 . S
C415 C412 1.378 . S
C415 N416 1.315 . S
C415 H418 0.930 . S
N416 Co396 2.194 . S
N416 C411 1.328 . S
N416 C415 1.315 . S
H417 C411 0.929 . S
H418 C415 0.930 . S
H419 C407 0.929 . S
H420 C409 0.929 . S
O421 Co396 2.351 . S
O421 C424 1.244 . S
O422 Co396 2.155 . S
O422 C424 1.240 . S
O423 Co396 2.096 . S
O423 C404 1.247 . S
C424 O421 1.244 . S
C424 O422 1.240 . S
H425 C399 0.931 . S
H426 C408 0.931 . S
H427 C412 0.929 . S
H428 C414 0.930 . S
Co429 N433 2.148 . S
Co429 N439 2.128 . S
Co429 N449 2.194 . S
Co429 O454 2.351 . S
Co429 O455 2.155 . S
Co429 O456 2.096 . S
C430 N433 1.301 . S
C430 N434 1.328 . S
C430 H435 0.930 . S
C431 C432 1.333 . S
C431 N433 1.317 . S
C431 H436 0.930 . S
C432 C431 1.333 . S
C432 N434 1.350 . S
C432 H458 0.931 . S
N433 Co429 2.148 . S
N433 C430 1.301 . S
N433 C431 1.317 . S
N434 C430 1.328 . S
N434 C432 1.350 . S
H435 C430 0.930 . S
H436 C431 0.930 . S
C437 O438 1.224 . S
C437 O456 1.247 . S
O438 C437 1.224 . S
N439 Co429 2.128 . S
N439 C440 1.355 1_554 S
N439 C442 1.311 1_554 S
C440 N439 1.355 1_556 S
C440 C441 1.363 . S
C440 H452 0.929 1_556 S
C441 C440 1.363 . S
C441 N443 1.375 . S
C441 H459 0.931 . S
C442 N439 1.311 1_556 S
C442 N443 1.347 . S
C442 H453 0.929 . S
N443 C441 1.375 . S
N443 C442 1.347 . S
C444 C447 1.365 . S
C444 N449 1.328 . S
C444 H450 0.929 . S
C445 C446 1.362 . S
C445 C448 1.378 . S
C445 H460 0.929 . S
C446 C445 1.362 . S
C446 C447 1.366 . S
C447 C444 1.365 . S
C447 C446 1.366 . S
C447 H461 0.930 . S
C448 C445 1.378 . S
C448 N449 1.315 . S
C448 H451 0.930 . S
N449 Co429 2.194 . S
N449 C444 1.328 . S
N449 C448 1.315 . S
H450 C444 0.929 . S
H451 C448 0.930 . S
H452 C440 0.929 1_554 S
H453 C442 0.929 . S
O454 Co429 2.351 . S
O454 C457 1.244 . S
O455 Co429 2.155 . S
O455 C457 1.240 . S
O456 Co429 2.096 . S
O456 C437 1.247 . S
C457 O454 1.244 . S
C457 O455 1.240 . S
H458 C432 0.931 . S
H459 C441 0.931 . S
H460 C445 0.929 . S
H461 C447 0.930 . S
Co462 N466 2.148 1_554 S
Co462 N472 2.128 . S
Co462 N482 2.194 1_554 S
Co462 O487 2.351 1_554 S
Co462 O488 2.155 1_554 S
Co462 O489 2.096 . S
C463 N466 1.301 . S
C463 N467 1.328 . S
C463 H468 0.930 . S
C464 C465 1.333 . S
C464 N466 1.317 . S
C464 H469 0.930 . S
C465 C464 1.333 . S
C465 N467 1.350 . S
C465 H491 0.931 . S
N466 Co462 2.148 1_556 S
N466 C463 1.301 . S
N466 C464 1.317 . S
N467 C463 1.328 . S
N467 C465 1.350 . S
H468 C463 0.930 . S
H469 C464 0.930 . S
C470 O471 1.224 . S
C470 O489 1.247 . S
O471 C470 1.224 . S
N472 Co462 2.128 . S
N472 C473 1.355 . S
N472 C475 1.311 . S
C473 N472 1.355 . S
C473 C474 1.363 . S
C473 H485 0.929 . S
C474 C473 1.363 . S
C474 N476 1.375 . S
C474 H492 0.931 . S
C475 N472 1.311 . S
C475 N476 1.347 . S
C475 H486 0.929 . S
N476 C474 1.375 . S
N476 C475 1.347 . S
C477 C480 1.365 . S
C477 N482 1.328 . S
C477 H483 0.929 . S
C478 C479 1.361 1_554 S
C478 C481 1.378 . S
C478 H493 0.929 . S
C479 C478 1.361 1_556 S
C479 C480 1.367 . S
C480 C477 1.365 . S
C480 C479 1.367 . S
C480 H494 0.930 . S
C481 C478 1.378 . S
C481 N482 1.315 1_554 S
C481 H484 0.930 . S
N482 Co462 2.194 1_556 S
N482 C477 1.328 . S
N482 C481 1.315 1_556 S
H483 C477 0.929 . S
H484 C481 0.930 . S
H485 C473 0.929 . S
H486 C475 0.929 . S
O487 Co462 2.351 1_556 S
O487 C490 1.244 . S
O488 Co462 2.155 1_556 S
O488 C490 1.240 . S
O489 Co462 2.096 . S
O489 C470 1.247 . S
C490 O487 1.244 . S
C490 O488 1.240 . S
H491 C465 0.931 . S
H492 C474 0.931 . S
H493 C478 0.929 . S
H494 C480 0.930 . S
Co495 N499 2.148 . S
Co495 N505 2.128 . S
Co495 N515 2.194 . S
Co495 O520 2.351 . S
Co495 O521 2.155 . S
Co495 O522 2.096 . S
C496 N499 1.301 . S
C496 N500 1.328 . S
C496 H501 0.930 . S
C497 C498 1.333 . S
C497 N499 1.317 . S
C497 H502 0.930 . S
C498 C497 1.333 . S
C498 N500 1.350 . S
C498 H524 0.931 . S
N499 Co495 2.148 . S
N499 C496 1.301 . S
N499 C497 1.317 . S
N500 C496 1.328 . S
N500 C498 1.350 . S
H501 C496 0.930 . S
H502 C497 0.930 . S
C503 O504 1.224 . S
C503 O522 1.247 . S
O504 C503 1.224 . S
N505 Co495 2.128 . S
N505 C506 1.355 1_556 S
N505 C508 1.311 1_556 S
C506 N505 1.355 1_554 S
C506 C507 1.363 . S
C506 H518 0.929 1_554 S
C507 C506 1.363 . S
C507 N509 1.375 . S
C507 H525 0.931 . S
C508 N505 1.311 1_554 S
C508 N509 1.347 . S
C508 H519 0.929 . S
N509 C507 1.375 . S
N509 C508 1.347 . S
C510 C513 1.365 . S
C510 N515 1.328 . S
C510 H516 0.929 . S
C511 C512 1.362 . S
C511 C514 1.378 . S
C511 H526 0.929 . S
C512 C511 1.362 . S
C512 C513 1.366 . S
C513 C510 1.365 . S
C513 C512 1.366 . S
C513 H527 0.930 . S
C514 C511 1.378 . S
C514 N515 1.315 . S
C514 H517 0.930 . S
N515 Co495 2.194 . S
N515 C510 1.328 . S
N515 C514 1.315 . S
H516 C510 0.929 . S
H517 C514 0.930 . S
H518 C506 0.929 1_556 S
H519 C508 0.929 . S
O520 Co495 2.351 . S
O520 C523 1.244 . S
O521 Co495 2.155 . S
O521 C523 1.240 . S
O522 Co495 2.096 . S
O522 C503 1.247 . S
C523 O520 1.244 . S
C523 O521 1.240 . S
H524 C498 0.931 . S
H525 C507 0.931 . S
H526 C511 0.929 . S
H527 C513 0.930 . S
N5 N14 1.873 1_545 S
N38 N47 1.932 . S
N80 N71 1.932 1_564 S
N113 N104 1.873 . S
N146 N137 1.873 1_545 S
N179 N170 1.932 . S
N203 N212 1.932 1_564 S
N245 N236 1.873 . S
N269 N278 1.873 1_554 S
N302 N311 1.932 . S
N344 N335 1.932 . S
N368 N377 1.873 . S
N401 N410 1.873 1_556 S
N443 N434 1.932 . S
N467 N476 1.932 . S
N509 N500 1.873 . S
C8 C61 1.418 . S
C74 C41 1.491 . S
C107 C94 1.418 . S
C28 C127 1.354 . S
C193 C140 1.418 . S
C173 C206 1.491 . S
C226 C239 1.418 . S
C259 C160 1.354 . S
C325 C272 1.418 . S
C305 C338 1.491 . S
C358 C371 1.418 . S
C391 C292 1.354 . S
C404 C457 1.418 . S
C437 C470 1.491 . S
C503 C490 1.418 . S
C424 C523 1.355 . S
C17 C149 1.279 1_556 S
C446 C50 1.343 . S
C83 C215 1.343 1_455 S
C512 C116 1.279 . S
C314 C182 1.343 . S
C248 C380 1.279 . S
C281 C413 1.279 1_655 S
C479 C347 1.343 1_556 S
