# Generated by pormake.
# Topology vmg, (6)-cn, num edge types: 1
# Building blocks:
#     Node 0, Type 0, BuildingBlock: IZENUY_clean_sbu_0, # of connection points: 6
#     Node 1, Type 0, BuildingBlock: IZENUY_clean_sbu_0, # of connection points: 6
#     Node 2, Type 0, BuildingBlock: IZENUY_clean_sbu_0, # of connection points: 6
#     Node 3, Type 0, BuildingBlock: IZENUY_clean_sbu_0, # of connection points: 6
#     Node 4, Type 0, BuildingBlock: IZENUY_clean_sbu_0, # of connection points: 6
#     Node 5, Type 0, BuildingBlock: IZENUY_clean_sbu_0, # of connection points: 6
#     Node 6, Type 0, BuildingBlock: IZENUY_clean_sbu_0, # of connection points: 6
#     Node 7, Type 0, BuildingBlock: IZENUY_clean_sbu_0, # of connection points: 6
#     Edge 8, Type (0, 0), BuildingBlock: XUDNAN_clean_linker_2, # of connection points: 2
#     Edge 9, Type (0, 0), BuildingBlock: XUDNAN_clean_linker_2, # of connection points: 2
#     Edge 10, Type (0, 0), BuildingBlock: XUDNAN_clean_linker_2, # of connection points: 2
#     Edge 11, Type (0, 0), BuildingBlock: XUDNAN_clean_linker_2, # of connection points: 2
#     Edge 12, Type (0, 0), BuildingBlock: XUDNAN_clean_linker_2, # of connection points: 2
#     Edge 13, Type (0, 0), BuildingBlock: XUDNAN_clean_linker_2, # of connection points: 2
#     Edge 14, Type (0, 0), BuildingBlock: XUDNAN_clean_linker_2, # of connection points: 2
#     Edge 15, Type (0, 0), BuildingBlock: XUDNAN_clean_linker_2, # of connection points: 2
#     Edge 16, Type (0, 0), BuildingBlock: XUDNAN_clean_linker_2, # of connection points: 2
#     Edge 17, Type (0, 0), BuildingBlock: XUDNAN_clean_linker_2, # of connection points: 2
#     Edge 18, Type (0, 0), BuildingBlock: XUDNAN_clean_linker_2, # of connection points: 2
#     Edge 19, Type (0, 0), BuildingBlock: XUDNAN_clean_linker_2, # of connection points: 2
#     Edge 20, Type (0, 0), BuildingBlock: XUDNAN_clean_linker_2, # of connection points: 2
#     Edge 21, Type (0, 0), BuildingBlock: XUDNAN_clean_linker_2, # of connection points: 2
#     Edge 22, Type (0, 0), BuildingBlock: XUDNAN_clean_linker_2, # of connection points: 2
#     Edge 23, Type (0, 0), BuildingBlock: XUDNAN_clean_linker_2, # of connection points: 2
#     Edge 24, Type (0, 0), BuildingBlock: XUDNAN_clean_linker_2, # of connection points: 2
#     Edge 25, Type (0, 0), BuildingBlock: XUDNAN_clean_linker_2, # of connection points: 2
#     Edge 26, Type (0, 0), BuildingBlock: XUDNAN_clean_linker_2, # of connection points: 2
#     Edge 27, Type (0, 0), BuildingBlock: XUDNAN_clean_linker_2, # of connection points: 2
#     Edge 28, Type (0, 0), BuildingBlock: XUDNAN_clean_linker_2, # of connection points: 2
#     Edge 29, Type (0, 0), BuildingBlock: XUDNAN_clean_linker_2, # of connection points: 2
#     Edge 30, Type (0, 0), BuildingBlock: XUDNAN_clean_linker_2, # of connection points: 2
#     Edge 31, Type (0, 0), BuildingBlock: XUDNAN_clean_linker_2, # of connection points: 2
# Relax obj value: 0.255
# Max RMSD: 0.238
# Mean RMSD: 0.238
data_MOF--net-vmg--node1-IZENUY_clean_sbu_0--edge1-XUDNAN_clean_linker_2
_symmetry_space_group_name_H-M    P1
_symmetry_Int_Tables_number       1
_symmetry_cell_setting            triclinic
loop_
_symmetry_equiv_pos_as_xyz
'x, y, z'
_cell_length_a     27.989261
_cell_length_b     44.467568
_cell_length_c     26.379456
_cell_angle_alpha  90.06932
_cell_angle_beta   101.0397
_cell_angle_gamma 89.90729
loop_
_atom_site_label
_atom_site_type_symbol
_atom_site_fract_x
_atom_site_fract_y
_atom_site_fract_z
_atom_type_partial_charge
Fe0 Fe 0.25201 0.39174 0.18597 0.0
Fe1 Fe 0.18022 0.41305 0.09019 0.0
O2 O 0.22985 0.42019 0.14087 0.0
Fe3 Fe 0.25641 0.45628 0.14693 0.0
O4 O 0.23931 0.46165 0.20852 0.0
O5 O 0.2687 0.41842 0.24129 0.0
O6 O 0.1936 0.38862 0.20536 0.0
C7 C 0.15347 0.38416 0.17562 0.0
C8 C 0.33823 0.41721 0.1779 0.0
O9 O 0.15005 0.38591 0.12705 0.0
C10 C 0.24234 0.45161 0.0437 0.0
O11 O 0.23899 0.36009 0.13771 0.0
O12 O 0.21344 0.38408 0.06464 0.0
O13 O 0.31836 0.44298 0.17727 0.0
O14 O 0.31216 0.39388 0.17044 0.0
C15 C 0.1553 0.46907 0.11256 0.0
O16 O 0.20123 0.43935 0.04392 0.0
O17 O 0.27396 0.45262 0.08481 0.0
C18 C 0.23043 0.36066 0.08826 0.0
O19 O 0.14415 0.44178 0.11351 0.0
O20 O 0.19978 0.47649 0.1179 0.0
C21 C 0.25356 0.44506 0.24702 0.0
Fe22 Fe 0.77173 0.45364 0.37061 0.0
Fe23 Fe 0.77814 0.38974 0.32738 0.0
O24 O 0.79445 0.41623 0.37801 0.0
Fe25 Fe 0.83544 0.40564 0.43535 0.0
O26 O 0.8628 0.44248 0.44754 0.0
O27 O 0.83369 0.46881 0.3781 0.0
O28 O 0.76864 0.4556 0.30113 0.0
C29 C 0.7911 0.44088 0.27217 0.0
C30 C 0.77309 0.44109 0.4771 0.0
O31 O 0.80191 0.41353 0.28129 0.0
C32 C 0.77699 0.35345 0.41174 0.0
O33 O 0.70822 0.44074 0.36165 0.0
O34 O 0.71668 0.40453 0.30676 0.0
O35 O 0.79092 0.41484 0.47585 0.0
O36 O 0.7711 0.45884 0.43925 0.0
C37 C 0.87825 0.3803 0.359 0.0
O38 O 0.75346 0.36385 0.36957 0.0
O39 O 0.81551 0.36626 0.43454 0.0
C40 C 0.6899 0.42101 0.32882 0.0
O41 O 0.83674 0.37021 0.33915 0.0
O42 O 0.88321 0.39724 0.39823 0.0
C43 C 0.86697 0.46336 0.41665 0.0
Fe44 Fe 0.76145 0.56726 0.8863 0.0
Fe45 Fe 0.75788 0.62518 0.82331 0.0
O46 O 0.7844 0.60326 0.87702 0.0
Fe47 Fe 0.83459 0.61743 0.9222 0.0
O48 O 0.87264 0.58797 0.90605 0.0
O49 O 0.82251 0.55125 0.91502 0.0
O50 O 0.77286 0.55383 0.82588 0.0
C51 C 0.7558 0.56499 0.78251 0.0
C52 C 0.78312 0.58186 0.98553 0.0
O53 O 0.74147 0.59233 0.77857 0.0
C54 C 0.77742 0.6673 0.90755 0.0
O55 O 0.69703 0.57666 0.85778 0.0
O56 O 0.69953 0.6252 0.84248 0.0
O57 O 0.82145 0.59531 0.9785 0.0
O58 O 0.74868 0.57914 0.94769 0.0
C59 C 0.85479 0.63449 0.82632 0.0
O60 O 0.76981 0.66149 0.85912 0.0
O61 O 0.79832 0.64819 0.93981 0.0
C62 C 0.6758 0.60193 0.84865 0.0
O63 O 0.81446 0.62593 0.80096 0.0
O64 O 0.85906 0.6405 0.87411 0.0
C65 C 0.8648 0.56049 0.91146 0.0
Fe66 Fe 0.23131 0.63166 0.67866 0.0
Fe67 Fe 0.18455 0.60607 0.57228 0.0
O68 O 0.22429 0.6014 0.63314 0.0
Fe69 Fe 0.25485 0.56644 0.6478 0.0
O70 O 0.25029 0.56629 0.71559 0.0
O71 O 0.21325 0.6086 0.72915 0.0
O72 O 0.16697 0.64374 0.66182 0.0
C73 C 0.13064 0.6278 0.64174 0.0
C74 C 0.32703 0.60628 0.6921 0.0
O75 O 0.13358 0.61003 0.60495 0.0
C76 C 0.26057 0.57735 0.54206 0.0
O77 O 0.2512 0.65771 0.63237 0.0
O78 O 0.19186 0.64657 0.56877 0.0
O79 O 0.3147 0.5841 0.66246 0.0
O80 O 0.29561 0.62409 0.70405 0.0
C81 C 0.16783 0.54574 0.593 0.0
O82 O 0.23393 0.60077 0.53681 0.0
O83 O 0.2646 0.56087 0.5819 0.0
C84 C 0.22763 0.66283 0.58734 0.0
O85 O 0.16827 0.56699 0.56205 0.0
O86 O 0.1978 0.54488 0.63525 0.0
C87 C 0.22747 0.58227 0.74254 0.0
Fe88 Fe 0.74601 0.88624 0.18879 0.0
Fe89 Fe 0.67573 0.91056 0.09356 0.0
O90 O 0.72451 0.91608 0.14606 0.0
Fe91 Fe 0.75198 0.95209 0.15599 0.0
O92 O 0.7328 0.95593 0.21688 0.0
O93 O 0.75913 0.91132 0.24713 0.0
O94 O 0.68775 0.8807 0.20549 0.0
C95 C 0.6478 0.87729 0.1752 0.0
C96 C 0.83195 0.91281 0.18355 0.0
O97 O 0.64276 0.88349 0.12751 0.0
C98 C 0.74205 0.94879 0.05241 0.0
O99 O 0.73547 0.85619 0.13807 0.0
O100 O 0.70783 0.8813 0.0666 0.0
O101 O 0.81245 0.93817 0.18736 0.0
O102 O 0.80621 0.88961 0.17509 0.0
C103 C 0.65246 0.96652 0.11867 0.0
O104 O 0.70003 0.93719 0.05022 0.0
O105 O 0.77186 0.94996 0.09487 0.0
C106 C 0.7262 0.85778 0.08886 0.0
O107 O 0.64009 0.93939 0.11722 0.0
O108 O 0.69716 0.9733 0.12641 0.0
C109 C 0.74339 0.93777 0.2539 0.0
Fe110 Fe 0.25584 0.95091 0.38291 0.0
Fe111 Fe 0.27228 0.89378 0.32371 0.0
O112 O 0.28574 0.91613 0.37985 0.0
Fe113 Fe 0.3298 0.90396 0.43308 0.0
O114 O 0.367 0.93616 0.42697 0.0
O115 O 0.30826 0.96911 0.42497 0.0
O116 O 0.27961 0.96537 0.32921 0.0
C117 C 0.27475 0.95367 0.28507 0.0
C118 C 0.25834 0.93342 0.48081 0.0
O119 O 0.26115 0.92636 0.27787 0.0
C120 C 0.2822 0.85137 0.40758 0.0
O121 O 0.19812 0.93912 0.34097 0.0
O122 O 0.20971 0.89106 0.32903 0.0
O123 O 0.30105 0.92314 0.48231 0.0
O124 O 0.23105 0.93838 0.43775 0.0
C125 C 0.37035 0.88672 0.34695 0.0
O126 O 0.28129 0.8574 0.35999 0.0
O127 O 0.29475 0.87111 0.44176 0.0
C128 C 0.1815 0.91304 0.32858 0.0
O129 O 0.33407 0.89528 0.31467 0.0
O130 O 0.36734 0.88302 0.39396 0.0
C131 C 0.35326 0.96261 0.4334 0.0
Fe132 Fe 0.27112 0.06688 0.87786 0.0
Fe133 Fe 0.25715 0.12762 0.82108 0.0
O134 O 0.28698 0.1053 0.87345 0.0
Fe135 Fe 0.33444 0.121 0.92001 0.0
O136 O 0.37728 0.09411 0.90441 0.0
O137 O 0.33292 0.05395 0.90793 0.0
O138 O 0.28667 0.05848 0.81565 0.0
C139 C 0.26631 0.07063 0.77398 0.0
C140 C 0.2855 0.0811 0.97965 0.0
O141 O 0.24616 0.09622 0.7742 0.0
C142 C 0.27157 0.16846 0.90735 0.0
O143 O 0.2063 0.07295 0.84857 0.0
O144 O 0.19775 0.12196 0.83838 0.0
O145 O 0.32107 0.09773 0.97387 0.0
O146 O 0.2552 0.07215 0.94081 0.0
C147 C 0.35329 0.14366 0.82587 0.0
O148 O 0.26279 0.16313 0.85895 0.0
O149 O 0.29474 0.14963 0.9384 0.0
C150 C 0.17912 0.09611 0.83983 0.0
O151 O 0.31406 0.13402 0.79907 0.0
O152 O 0.35768 0.14622 0.87448 0.0
C153 C 0.37391 0.06616 0.90874 0.0
Fe154 Fe 0.74854 0.13212 0.69092 0.0
Fe155 Fe 0.67304 0.116 0.59502 0.0
O156 O 0.71994 0.10479 0.64595 0.0
Fe157 Fe 0.73552 0.06636 0.65292 0.0
O158 O 0.72037 0.0652 0.7164 0.0
O159 O 0.75919 0.1062 0.74704 0.0
O160 O 0.69001 0.14115 0.70926 0.0
C161 C 0.65202 0.14871 0.67787 0.0
C162 C 0.8273 0.09725 0.68233 0.0
O163 O 0.65236 0.14782 0.63003 0.0
C164 C 0.71956 0.06859 0.54848 0.0
O165 O 0.74296 0.16312 0.64126 0.0
O166 O 0.71495 0.13906 0.56872 0.0
O167 O 0.80016 0.07409 0.67931 0.0
O168 O 0.80894 0.12349 0.67765 0.0
C169 C 0.63262 0.06583 0.6265 0.0
O170 O 0.68363 0.08578 0.55019 0.0
O171 O 0.75112 0.06422 0.58887 0.0
C172 C 0.73482 0.162 0.59176 0.0
O173 O 0.62933 0.09375 0.61988 0.0
O174 O 0.67307 0.05245 0.62853 0.0
C175 C 0.73907 0.08137 0.75409 0.0
H176 H 0.61334 0.46295 0.31296 0.0
H177 H 0.64607 0.36765 0.30774 0.0
H178 H 0.56097 0.35723 0.26846 0.0
H179 H 0.48848 0.45286 0.341 0.0
H180 H 0.46346 0.48406 0.30096 0.0
H181 H 0.52658 0.48438 0.33245 0.0
H182 H 0.55158 0.49252 0.24393 0.0
H183 H 0.4886 0.49176 0.2121 0.0
H184 H 0.53154 0.46616 0.19227 0.0
H185 H 0.47581 0.3566 0.22352 0.0
H186 H 0.39028 0.36507 0.18342 0.0
H187 H 0.40747 0.46057 0.21739 0.0
C188 C 0.60212 0.43989 0.30469 0.0
C189 C 0.63653 0.41609 0.31347 0.0
C190 C 0.62056 0.38626 0.30121 0.0
C191 C 0.57223 0.38006 0.27876 0.0
C192 C 0.53965 0.4039 0.26875 0.0
C193 C 0.55334 0.43318 0.28192 0.0
C194 C 0.51025 0.45436 0.2655 0.0
C195 C 0.49637 0.46983 0.3128 0.0
C196 C 0.52117 0.47758 0.22611 0.0
C197 C 0.47091 0.43235 0.24061 0.0
C198 C 0.48912 0.40343 0.24296 0.0
C199 C 0.46085 0.37911 0.22192 0.0
C200 C 0.41218 0.38422 0.19894 0.0
C201 C 0.39164 0.41347 0.19718 0.0
C202 C 0.42187 0.43794 0.21787 0.0
H203 H 0.60816 0.56195 0.79623 0.0
H204 H 0.62274 0.64883 0.87256 0.0
H205 H 0.53538 0.65863 0.8414 0.0
H206 H 0.52846 0.58613 0.68382 0.0
H207 H 0.49136 0.55274 0.67491 0.0
H208 H 0.55393 0.55043 0.70765 0.0
H209 H 0.52749 0.52648 0.78732 0.0
H210 H 0.46485 0.52823 0.75448 0.0
H211 H 0.48294 0.54537 0.81716 0.0
H212 H 0.44931 0.66123 0.7972 0.0
H213 H 0.36638 0.65511 0.74716 0.0
H214 H 0.40495 0.56675 0.69682 0.0
C215 C 0.59247 0.58256 0.80766 0.0
C216 C 0.62205 0.6045 0.83745 0.0
C217 C 0.60063 0.63166 0.85021 0.0
C218 C 0.55109 0.63747 0.83254 0.0
C219 C 0.52324 0.61596 0.80183 0.0
C220 C 0.54279 0.5889 0.7898 0.0
C221 C 0.5048 0.57047 0.75385 0.0
C222 C 0.5206 0.56461 0.70199 0.0
C223 C 0.4944 0.54088 0.77976 0.0
C224 C 0.46125 0.5916 0.74725 0.0
C225 C 0.47296 0.61764 0.77545 0.0
C226 C 0.43951 0.64083 0.7753 0.0
C227 C 0.39241 0.63713 0.7465 0.0
C228 C 0.37878 0.61043 0.71792 0.0
C229 C 0.41409 0.5875 0.71796 0.0
H230 H 0.1057 0.95424 0.31588 0.0
H231 H 0.13989 0.86074 0.28915 0.0
H232 H 0.05589 0.85231 0.24508 0.0
H233 H 0.98551 0.93923 0.34196 0.0
H234 H 0.95866 0.9728 0.31034 0.0
H235 H 0.02238 0.97219 0.33935 0.0
H236 H 0.04386 0.98821 0.25197 0.0
H237 H 0.9802 0.98853 0.22255 0.0
H238 H 0.02234 0.96593 0.19505 0.0
H239 H 0.97056 0.85325 0.20279 0.0
H240 H 0.88339 0.86227 0.17163 0.0
H241 H 0.90076 0.95455 0.2268 0.0
C242 C 0.09539 0.93201 0.3009 0.0
C243 C 0.12965 0.90828 0.30574 0.0
C244 C 0.1146 0.87942 0.28587 0.0
C245 C 0.06691 0.87433 0.26048 0.0
C246 C 0.0344 0.89821 0.25551 0.0
C247 C 0.04746 0.92636 0.27563 0.0
C248 C 1.00421 0.9476 0.26617 0.0
C249 C 0.99197 0.95859 0.31751 0.0
C250 C 0.01321 0.97414 0.23189 0.0
C251 C 0.9651 0.9268 0.23781 0.0
C252 C 0.98376 0.89855 0.23173 0.0
C253 C 0.95526 0.87522 0.20738 0.0
C254 C 0.90577 0.88061 0.18982 0.0
C255 C 0.88518 0.90906 0.19707 0.0
C256 C 0.9155 0.93262 0.22055 0.0
H257 H 0.10595 0.13912 0.81043 0.0
H258 H 0.13094 0.04268 0.82308 0.0
H259 H 0.04609 0.03365 0.7813 0.0
H260 H 0.98153 0.13631 0.8366 0.0
H261 H 0.95927 0.16597 0.79171 0.0
H262 H 0.02231 0.16536 0.8234 0.0
H263 H 0.04808 0.16681 0.7343 0.0
H264 H 0.98512 0.167 0.70232 0.0
H265 H 0.02575 0.13839 0.68689 0.0
H266 H 0.96091 0.03413 0.73403 0.0
H267 H 0.87593 0.04387 0.69377 0.0
H268 H 0.90068 0.14002 0.71362 0.0
C269 C 0.0934 0.11612 0.80501 0.0
C270 C 0.12574 0.09164 0.82025 0.0
C271 C 0.10746 0.06192 0.81213 0.0
C272 C 0.05914 0.05648 0.78804 0.0
C273 C 0.02876 0.08092 0.77251 0.0
C274 C 0.04465 0.11017 0.78136 0.0
C275 C 1.00342 0.13216 0.76142 0.0
C276 C 0.99089 0.15106 0.80594 0.0
C277 C 0.01639 0.15228 0.71869 0.0
C278 C 0.96223 0.11058 0.73979 0.0
C279 C 0.97821 0.08118 0.7463 0.0
C280 C 0.94781 0.05706 0.72916 0.0
C281 C 0.89937 0.06292 0.70606 0.0
C282 C 0.88092 0.09275 0.70045 0.0
C283 C 0.91334 0.11696 0.71699 0.0
H284 H 0.26408 0.30172 0.1165 0.0
H285 H 0.20604 0.35771 0.98369 0.0
H286 H 0.20846 0.3151 0.92622 0.0
H287 H 0.34671 0.2591 0.05166 0.0
H288 H 0.33753 0.22381 0.08192 0.0
H289 H 0.33099 0.25868 0.11482 0.0
H290 H 0.24397 0.24322 0.12409 0.0
H291 H 0.2502 0.20837 0.091 0.0
H292 H 0.20003 0.23326 0.06725 0.0
H293 H 0.21493 0.26732 0.88106 0.0
H294 H 0.23038 0.21656 0.85063 0.0
H295 H 0.28662 0.18925 1.00898 0.0
C296 C 0.25197 0.30498 0.07539 0.0
C297 C 0.23463 0.33349 0.05536 0.0
C298 C 0.21939 0.33647 1.00093 0.0
C299 C 0.22047 0.31224 0.96743 0.0
C300 C 0.23722 0.28466 0.98812 0.0
C301 C 0.25312 0.28071 0.04064 0.0
C302 C 0.27028 0.24836 0.05155 0.0
C303 C 0.32461 0.24744 0.07647 0.0
C304 C 0.23927 0.23236 0.0855 0.0
C305 C 0.26137 0.23513 0.99706 0.0
C306 C 0.24196 0.25661 0.96133 0.0
C307 C 0.23027 0.25024 0.90864 0.0
C308 C 0.23913 0.22121 0.89167 0.0
C309 C 0.25983 0.19865 0.92707 0.0
C310 C 0.27076 0.20585 0.98069 0.0
H311 H 0.81035 0.32802 0.50791 0.0
H312 H 0.7118 0.31215 0.36192 0.0
H313 H 0.69184 0.26233 0.39311 0.0
H314 H 0.85608 0.25274 0.52822 0.0
H315 H 0.85807 0.25266 0.59692 0.0
H316 H 0.86467 0.28748 0.5641 0.0
H317 H 0.79265 0.31042 0.59962 0.0
H318 H 0.78599 0.27573 0.63283 0.0
H319 H 0.73487 0.29125 0.5885 0.0
H320 H 0.68586 0.21369 0.43683 0.0
H321 H 0.68744 0.16994 0.49285 0.0
H322 H 0.78654 0.2163 0.61508 0.0
C323 C 0.78439 0.31411 0.48255 0.0
C324 C 0.76283 0.32411 0.4321 0.0
C325 C 0.72882 0.3052 0.40051 0.0
C326 C 0.71734 0.27677 0.4179 0.0
C327 C 0.73965 0.26752 0.46733 0.0
C328 C 0.77197 0.28568 0.4996 0.0
C329 C 0.79009 0.27014 0.5513 0.0
C330 C 0.84552 0.26549 0.56067 0.0
C331 C 0.77499 0.28795 0.59569 0.0
C332 C 0.76324 0.24024 0.54274 0.0
C333 C 0.73477 0.23939 0.49372 0.0
C334 C 0.70769 0.21419 0.4754 0.0
C335 C 0.70918 0.18925 0.50786 0.0
C336 C 0.73719 0.18929 0.55894 0.0
C337 C 0.76461 0.2154 0.57656 0.0
H338 H 0.75768 0.79867 0.11589 0.0
H339 H 0.71088 0.85721 0.98376 0.0
H340 H 0.71831 0.81552 0.92519 0.0
H341 H 0.84657 0.75659 0.05876 0.0
H342 H 0.83367 0.72102 0.08593 0.0
H343 H 0.82508 0.75554 0.11895 0.0
H344 H 0.73564 0.74076 0.1188 0.0
H345 H 0.74394 0.70626 0.08563 0.0
H346 H 0.69584 0.73186 0.05848 0.0
H347 H 0.72833 0.76773 0.87916 0.0
H348 H 0.74416 0.71678 0.84923 0.0
H349 H 0.78633 0.68766 1.00869 0.0
C350 C 0.74922 0.80273 0.07469 0.0
C351 C 0.73344 0.83157 0.05501 0.0
C352 C 0.72281 0.83561 1.00052 0.0
C353 C 0.7269 0.81195 0.96652 0.0
C354 C 0.74194 0.78394 0.98692 0.0
C355 C 0.75328 0.77911 0.03965 0.0
C356 C 0.76883 0.74652 0.05067 0.0
C357 C 0.82168 0.74483 0.08034 0.0
C358 C 0.73398 0.7304 0.08015 0.0
C359 C 0.76424 0.73405 0.99602 0.0
C360 C 0.74848 0.75612 0.95997 0.0
C361 C 0.7409 0.75025 0.90705 0.0
C362 C 0.74994 0.72112 0.89035 0.0
C363 C 0.76671 0.69798 0.92628 0.0
C364 C 0.77374 0.70473 0.97997 0.0
H365 H 0.26397 0.72058 0.61465 0.0
H366 H 0.21737 0.66134 0.48374 0.0
H367 H 0.2283 0.7021 0.42416 0.0
H368 H 0.20309 0.78582 0.55583 0.0
H369 H 0.25012 0.81203 0.5831 0.0
H370 H 0.24264 0.77761 0.61663 0.0
H371 H 0.33274 0.76365 0.61798 0.0
H372 H 0.34056 0.79815 0.58476 0.0
H373 H 0.35497 0.76265 0.55821 0.0
H374 H 0.2402 0.74977 0.37742 0.0
H375 H 0.25376 0.80126 0.34769 0.0
H376 H 0.29102 0.83063 0.50748 0.0
C377 C 0.25701 0.71613 0.57354 0.0
C378 C 0.2399 0.68763 0.55402 0.0
C379 C 0.23034 0.68294 0.49976 0.0
C380 C 0.2365 0.70597 0.46543 0.0
C381 C 0.25218 0.73394 0.48553 0.0
C382 C 0.2625 0.7392 0.53827 0.0
C383 C 0.27681 0.77188 0.5491 0.0
C384 C 0.24103 0.78777 0.57786 0.0
C385 C 0.3294 0.77421 0.5793 0.0
C386 C 0.27241 0.78399 0.49441 0.0
C387 C 0.25842 0.76167 0.45834 0.0
C388 C 0.25141 0.76746 0.40536 0.0
C389 C 0.25912 0.79682 0.38874 0.0
C390 C 0.27349 0.82019 0.42492 0.0
C391 C 0.28007 0.81343 0.47851 0.0
H392 H 0.88338 0.51798 0.98871 0.0
H393 H 0.94615 0.56338 0.87149 0.0
H394 H 0.02791 0.54674 0.91399 0.0
H395 H 0.97242 0.53578 0.09329 0.0
H396 H 0.97459 0.50019 0.12628 0.0
H397 H 0.91947 0.51189 0.08383 0.0
H398 H 0.91846 0.46321 0.02996 0.0
H399 H 0.97259 0.45073 0.07329 0.0
H400 H 0.97173 0.45274 1.00487 0.0
H401 H 0.10262 0.53338 0.97587 0.0
H402 H 0.16728 0.51094 0.04127 0.0
H403 H 0.05794 0.4706 0.11642 0.0
C404 C 0.9141 0.52313 0.97076 0.0
C405 C 0.90862 0.54185 0.92678 0.0
C406 C 0.94977 0.54892 0.90507 0.0
C407 C 0.99636 0.53987 0.9292 0.0
C408 C 1.00109 0.52334 0.97457 0.0
C409 C 0.96117 0.51396 0.99421 0.0
C410 C 0.97709 0.4965 0.04401 0.0
C411 C 0.95986 0.51203 0.08952 0.0
C412 C 0.95891 0.46385 0.03763 0.0
C413 C 0.03205 0.49822 0.04957 0.0
C414 C 0.04487 0.51433 1.0095 0.0
C415 C 0.0932 0.52021 1.00698 0.0
C416 C 0.1297 0.50777 0.04484 0.0
C417 C 0.1176 0.48912 0.08398 0.0
C418 C 0.06811 0.48495 0.08708 0.0
H419 H 0.0815 0.53241 0.62053 0.0
H420 H 0.17739 0.50752 0.51668 0.0
H421 H 0.10788 0.48561 0.45608 0.0
H422 H 0.99529 0.46606 0.58991 0.0
H423 H 0.9438 0.48948 0.59508 0.0
H424 H 1.00264 0.4975 0.63394 0.0
H425 H 0.99562 0.55133 0.59712 0.0
H426 H 0.93815 0.54334 0.55614 0.0
H427 H 0.98806 0.55742 0.52866 0.0
H428 H 0.02621 0.47605 0.39951 0.0
H429 H 0.9396 0.4651 0.36155 0.0
H430 H 0.8975 0.49635 0.50219 0.0
C431 C 0.08817 0.52075 0.58651 0.0
C432 C 0.13483 0.52096 0.57375 0.0
C433 C 0.14209 0.50662 0.52783 0.0
C434 C 0.10269 0.49476 0.49266 0.0
C435 C 0.05639 0.49727 0.50421 0.0
C436 C 0.04909 0.50883 0.55088 0.0
C437 C 0.99532 0.51013 0.55261 0.0
C438 C 0.98356 0.48955 0.5954 0.0
C439 C 0.97827 0.54252 0.55891 0.0
C440 C 0.97375 0.49827 0.49949 0.0
C441 C 0.0094 0.49135 0.47177 0.0
C442 C 0.99787 0.48095 0.42097 0.0
C443 C 0.9487 0.47554 0.39929 0.0
C444 C 0.91217 0.48061 0.42864 0.0
C445 C 0.92481 0.49305 0.47858 0.0
H446 H 0.55316 0.96452 0.10857 0.0
H447 H 0.67072 0.0161 0.06501 0.0
H448 H 0.61128 0.04419 1.00181 0.0
H449 H 0.48163 0.95667 0.98565 0.0
H450 H 0.42358 0.9619 1.00452 0.0
H451 H 0.47428 0.94697 0.05007 0.0
H452 H 0.466 0.98929 0.11528 0.0
H453 H 0.41418 1.00379 0.07078 0.0
H454 H 0.4651 0.02799 0.09478 0.0
H455 H 0.54174 0.06235 0.93695 0.0
H456 H 0.46236 0.07932 0.888 0.0
H457 H 0.38857 0.01782 0.9748 0.0
C458 C 0.56618 0.98231 0.0867 0.0
C459 C 0.61651 0.98816 0.09175 0.0
C460 C 0.63233 0.01146 0.06231 0.0
C461 C 0.59892 0.02723 0.0257 0.0
C462 C 0.54992 0.01974 0.01962 0.0
C463 C 0.53324 0.99863 0.0504 0.0
C464 C 0.47835 0.99543 0.03638 0.0
C465 C 0.46363 0.96333 0.01806 0.0
C466 C 0.45451 1.00469 0.082 0.0
C467 C 0.46706 0.01775 0.99232 0.0
C468 C 0.5091 0.03111 0.98296 0.0
C469 C 0.50846 0.0524 0.9443 0.0
C470 C 0.46333 0.06169 0.91645 0.0
C471 C 0.41958 0.0499 0.92775 0.0
C472 C 0.4215 0.02685 0.96486 0.0
H473 H 0.45178 0.95619 0.45465 0.0
H474 H 0.3348 0.01393 0.4844 0.0
H475 H 0.394 0.04261 0.54774 0.0
H476 H 0.51727 0.9529 0.5862 0.0
H477 H 0.57626 0.95328 0.56827 0.0
H478 H 0.5249 0.93708 0.52528 0.0
H479 H 0.53825 0.97275 0.45111 0.0
H480 H 0.59079 0.98755 0.4937 0.0
H481 H 0.54326 0.01266 0.46316 0.0
H482 H 0.46534 0.06457 0.60753 0.0
H483 H 0.54606 0.08434 0.64755 0.0
H484 H 0.61544 0.01114 0.58005 0.0
C485 C 0.43852 0.97498 0.47422 0.0
C486 C 0.38873 0.98285 0.46465 0.0
C487 C 0.37289 1.00767 0.49084 0.0
C488 C 0.40605 0.02376 0.52745 0.0
C489 C 0.45452 0.01447 0.53756 0.0
C490 C 0.47082 0.99101 0.51106 0.0
C491 C 0.52507 0.98634 0.52723 0.0
C492 C 0.53652 0.95557 0.5533 0.0
C493 C 0.55081 0.99009 0.48103 0.0
C494 C 0.53718 0.01163 0.56577 0.0
C495 C 0.49578 0.02712 0.57209 0.0
C496 C 0.49797 0.05255 0.60318 0.0
C497 C 0.54388 0.06349 0.6259 0.0
C498 C 0.58669 0.04911 0.61683 0.0
C499 C 0.58326 0.02211 0.58849 0.0
H500 H 0.12745 0.41095 0.25932 0.0
H501 H 0.08134 0.34289 0.14253 0.0
H502 H 0.00965 0.33175 0.18199 0.0
H503 H 0.0881 0.37637 0.36815 0.0
H504 H 0.0655 0.41099 0.39043 0.0
H505 H 0.11491 0.41177 0.35557 0.0
H506 H 0.06608 0.44877 0.29045 0.0
H507 H 0.01495 0.44752 0.3227 0.0
H508 H 1.0067 0.43825 0.25529 0.0
H509 H 0.94341 0.32813 0.23441 0.0
H510 H 0.88182 0.33595 0.28833 0.0
H511 H 0.9678 0.40888 0.36861 0.0
C512 C 0.10256 0.39337 0.24258 0.0
C513 C 0.1103 0.37728 0.19848 0.0
C514 C 0.07619 0.35523 0.1765 0.0
C515 C 0.03559 0.34871 0.19884 0.0
C516 C 0.02913 0.36488 0.24252 0.0
C517 C 0.06124 0.38713 0.26361 0.0
C518 C 0.04337 0.40326 0.3073 0.0
C519 C 0.08017 0.40041 0.3584 0.0
C520 C 0.03216 0.43641 0.2931 0.0
C521 C 0.99704 0.38587 0.30894 0.0
C522 C 0.98967 0.36381 0.27122 0.0
C523 C 0.94886 0.34532 0.26402 0.0
C524 C 0.91408 0.34993 0.29512 0.0
C525 C 0.91983 0.37296 0.33314 0.0
C526 C 0.96251 0.3908 0.34059 0.0
H527 H 0.09938 0.66729 0.71239 0.0
H528 H 0.06201 0.58466 0.626 0.0
H529 H 0.99368 0.57695 0.67056 0.0
H530 H 0.06542 0.64252 0.83208 0.0
H531 H 0.03823 0.67768 0.84564 0.0
H532 H 0.08664 0.67733 0.80932 0.0
H533 H 0.0319 0.70595 0.73456 0.0
H534 H 0.98354 0.70666 0.77088 0.0
H535 H 0.97289 0.69095 0.70669 0.0
H536 H 0.93088 0.57648 0.72026 0.0
H537 H 0.86813 0.58607 0.77117 0.0
H538 H 0.9379 0.67042 0.82573 0.0
C539 C 0.07637 0.6478 0.70237 0.0
C540 C 0.08631 0.62655 0.66531 0.0
C541 C 0.05528 0.60134 0.65364 0.0
C542 C 0.01641 0.59663 0.67878 0.0
C543 C 0.00777 0.6176 0.71488 0.0
C544 C 0.03598 0.64299 0.72641 0.0
C545 C 0.01616 0.66224 0.7658 0.0
C546 C 0.05387 0.66511 0.81621 0.0
C547 C 1.00017 0.6933 0.74312 0.0
C548 C 0.97246 0.64355 0.77386 0.0
C549 C 0.96934 0.61772 0.74425 0.0
C550 C 0.93265 0.59667 0.74348 0.0
C551 C 0.89705 0.60242 0.77253 0.0
C552 C 0.89771 0.62911 0.80205 0.0
C553 C 0.93662 0.64977 0.80375 0.0
H554 H 0.39443 0.90547 0.25697 0.0
H555 H 0.44721 0.85109 0.39279 0.0
H556 H 0.51999 0.83753 0.35686 0.0
H557 H 0.43672 0.85782 0.16264 0.0
H558 H 0.45364 0.88918 0.12661 0.0
H559 H 0.40443 0.89301 0.16134 0.0
H560 H 0.44717 0.93896 0.21099 0.0
H561 H 0.49592 0.93548 0.17575 0.0
H562 H 0.5091 0.93529 0.24538 0.0
H563 H 0.58786 0.83174 0.30786 0.0
H564 H 0.65048 0.8383 0.25456 0.0
H565 H 0.55321 0.89665 0.15059 0.0
C566 C 0.42102 0.89042 0.27904 0.0
C567 C 0.41498 0.87901 0.32749 0.0
C568 C 0.45111 0.85999 0.3556 0.0
C569 C 0.49228 0.85202 0.33528 0.0
C570 C 0.49665 0.86338 0.28703 0.0
C571 C 0.46226 0.88246 0.25957 0.0
C572 C 0.47706 0.89334 0.21036 0.0
C573 C 0.4408 0.88269 0.16241 0.0
C574 C 0.48266 0.9278 0.21068 0.0
C575 C 0.52568 0.87767 0.21462 0.0
C576 C 0.53595 0.86019 0.25882 0.0
C577 C 0.58 0.84506 0.27294 0.0
C578 C 0.61523 0.84883 0.24231 0.0
C579 C 0.60629 0.86761 0.19811 0.0
C580 C 0.56037 0.88144 0.18324 0.0
H581 H 0.62791 0.13893 0.77421 0.0
H582 H 0.56918 0.17297 0.62075 0.0
H583 H 0.48865 0.17847 0.64433 0.0
H584 H 0.52468 0.0955 0.78751 0.0
H585 H 0.52931 0.10336 0.85534 0.0
H586 H 0.58291 0.10426 0.82717 0.0
H587 H 0.59963 0.15869 0.86163 0.0
H588 H 0.54522 0.15775 0.88875 0.0
H589 H 0.55343 0.18713 0.8442 0.0
H590 H 0.41247 0.17586 0.68088 0.0
H591 H 0.34655 0.16725 0.7294 0.0
H592 H 0.45263 0.13662 0.8612 0.0
C593 C 0.59842 0.14829 0.74602 0.0
C594 C 0.60545 0.15584 0.69561 0.0
C595 C 0.56527 0.16723 0.65963 0.0
C596 C 0.51914 0.17041 0.67267 0.0
C597 C 0.51322 0.16224 0.72209 0.0
C598 C 0.55177 0.15164 0.75847 0.0
C599 C 0.53465 0.14321 0.80809 0.0
C600 C 0.54339 0.10958 0.82019 0.0
C601 C 0.55973 0.16287 0.85335 0.0
C602 C 0.48044 0.15037 0.79361 0.0
C603 C 0.46904 0.1613 0.74371 0.0
C604 C 0.42111 0.1678 0.72027 0.0
C605 C 0.38381 0.16284 0.74817 0.0
C606 C 0.39425 0.15182 0.79948 0.0
C607 C 0.4435 0.14584 0.82258 0.0
H608 H 0.19086 0.45396 0.94275 0.0
H609 H 0.30313 0.49996 0.05179 0.0
H610 H 0.3033 0.54099 0.9897 0.0
H611 H 0.24155 0.47264 0.83022 0.0
H612 H 0.18301 0.47702 0.78835 0.0
H613 H 0.18977 0.45182 0.84262 0.0
H614 H 0.1206 0.48016 0.87583 0.0
H615 H 0.11433 0.50564 0.82184 0.0
H616 H 0.1257 0.52014 0.88685 0.0
H617 H 0.28952 0.57845 0.91802 0.0
H618 H 0.27533 0.60453 0.83358 0.0
H619 H 0.17834 0.53299 0.76703 0.0
C620 C 0.21581 0.47251 0.95327 0.0
C621 C 0.24693 0.47355 1.00236 0.0
C622 C 0.27911 0.4983 0.01447 0.0
C623 C 0.27912 0.52204 0.97965 0.0
C624 C 0.2473 0.52069 0.93226 0.0
C625 C 0.21718 0.49623 0.91832 0.0
C626 C 0.18931 0.49956 0.86325 0.0
C627 C 0.20167 0.47373 0.82909 0.0
C628 C 0.13422 0.50148 0.86189 0.0
C629 C 0.2091 0.52943 0.84845 0.0
C630 C 0.24135 0.54165 0.88949 0.0
C631 C 0.26434 0.56914 0.88554 0.0
C632 C 0.25571 0.58397 0.83772 0.0
C633 C 0.22519 0.57097 0.79443 0.0
C634 C 0.20107 0.5436 0.80004 0.0
H635 H 0.77237 0.50065 0.50269 0.0
H636 H 0.75365 0.41155 0.56307 0.0
H637 H 0.74032 0.43465 0.64492 0.0
H638 H 0.84035 0.53037 0.61908 0.0
H639 H 0.81459 0.56758 0.60944 0.0
H640 H 0.8186 0.54423 0.5546 0.0
H641 H 0.72579 0.55022 0.52123 0.0
H642 H 0.7214 0.57354 0.57609 0.0
H643 H 0.68409 0.54039 0.56282 0.0
H644 H 0.73131 0.46733 0.72019 0.0
H645 H 0.73354 0.50612 0.78689 0.0
H646 H 0.7612 0.57462 0.67906 0.0
C647 C 0.76464 0.48587 0.53271 0.0
C648 C 0.76325 0.45415 0.52606 0.0
C649 C 0.75446 0.4358 0.56704 0.0
C650 C 0.74673 0.44878 0.61353 0.0
C651 C 0.74838 0.48011 0.61857 0.0
C652 C 0.75755 0.4984 0.57941 0.0
C653 C 0.76075 0.53127 0.59577 0.0
C654 C 0.81159 0.54411 0.59467 0.0
C655 C 0.72061 0.54996 0.56196 0.0
C656 C 0.75205 0.52875 0.65062 0.0
C657 C 0.74454 0.499 0.66258 0.0
C658 C 0.73706 0.49062 0.71114 0.0
C659 C 0.73846 0.51295 0.74881 0.0
C660 C 0.74755 0.54354 0.73834 0.0
C661 C 0.75346 0.5516 0.68808 0.0
H662 H 0.81472 0.49964 0.26067 0.0
H663 H 0.78467 0.41597 0.17606 0.0
H664 H 0.7853 0.44314 0.0943 0.0
H665 H 0.74245 0.54672 0.17503 0.0
H666 H 0.78346 0.57831 0.1814 0.0
H667 H 0.78642 0.55215 0.23389 0.0
H668 H 0.87767 0.54245 0.23418 0.0
H669 H 0.87534 0.5689 0.18199 0.0
H670 H 0.89641 0.53104 0.17536 0.0
H671 H 0.77398 0.48015 0.02271 0.0
H672 H 0.76458 0.52321 0.96398 0.0
H673 H 0.81163 0.58368 0.09318 0.0
C674 C 0.80939 0.48698 0.22494 0.0
C675 C 0.79944 0.45571 0.22444 0.0
C676 C 0.79267 0.43981 0.17722 0.0
C677 C 0.79281 0.45511 0.13069 0.0
C678 C 0.80114 0.48611 0.13236 0.0
C679 C 0.81071 0.50178 0.17832 0.0
C680 C 0.81739 0.53517 0.16904 0.0
C681 C 0.78021 0.55419 0.19115 0.0
C682 C 0.86982 0.54496 0.19147 0.0
C683 C 0.80739 0.53611 0.11043 0.0
C684 C 0.79804 0.50744 0.09039 0.0
C685 C 0.78275 0.50251 0.03785 0.0
C686 C 0.7773 0.52731 1.00479 0.0
C687 C 0.78826 0.55692 0.02375 0.0
C688 C 0.80394 0.56132 0.07745 0.0
H689 H 0.19734 0.48846 0.27831 0.0
H690 H 0.32912 0.43663 0.32907 0.0
H691 H 0.34994 0.46925 0.40651 0.0
H692 H 0.24452 0.56035 0.31654 0.0
H693 H 0.19098 0.57343 0.33854 0.0
H694 H 0.18551 0.54551 0.28824 0.0
H695 H 0.14198 0.50936 0.34143 0.0
H696 H 0.14632 0.53719 0.39175 0.0
H697 H 0.17077 0.50002 0.40658 0.0
H698 H 0.35735 0.50897 0.47646 0.0
H699 H 0.34425 0.54677 0.54119 0.0
H700 H 0.20761 0.57271 0.44396 0.0
C701 C 0.23022 0.48369 0.30621 0.0
C702 C 0.26161 0.45999 0.29798 0.0
C703 C 0.30427 0.45438 0.33516 0.0
C704 C 0.31666 0.47307 0.37877 0.0
C705 C 0.28577 0.49702 0.38462 0.0
C706 C 0.24286 0.5019 0.34992 0.0
C707 C 0.21499 0.52842 0.36583 0.0
C708 C 0.20864 0.5534 0.32483 0.0
C709 C 0.16558 0.51815 0.37707 0.0
C710 C 0.24921 0.5381 0.41471 0.0
C711 C 0.29001 0.51982 0.42466 0.0
C712 C 0.32571 0.52348 0.46887 0.0
C713 C 0.31828 0.54525 0.50511 0.0
C714 C 0.27555 0.56315 0.49696 0.0
C715 C 0.24146 0.56019 0.4503 0.0
H716 H 0.67976 0.96319 0.96098 0.0
H717 H 0.82575 0.97952 0.04763 0.0
H718 H 0.83818 0.01785 0.98421 0.0
H719 H 0.71026 0.97109 0.83399 0.0
H720 H 0.65352 0.98923 0.80674 0.0
H721 H 0.65617 0.96306 0.85924 0.0
H722 H 0.62109 1.00403 0.91237 0.0
H723 H 0.61874 0.03017 0.8598 0.0
H724 H 0.65158 0.0398 0.92329 0.0
H725 H 0.83358 0.05662 0.91399 0.0
H726 H 0.81694 0.0869 0.83381 0.0
H727 H 0.67607 0.04386 0.79037 0.0
C728 C 0.71464 0.97444 0.96623 0.0
C729 C 0.7517 0.96822 1.00958 0.0
C730 C 0.79667 0.98375 0.01493 0.0
C731 C 0.80404 1.00579 0.97926 0.0
C732 C 0.7663 0.01204 0.93801 0.0
C733 C 0.72281 0.99644 0.9307 0.0
C734 C 0.68871 1.00697 0.88217 0.0
C735 C 0.67647 0.98105 0.84323 0.0
C736 C 0.64228 0.02106 0.89521 0.0
C737 C 0.72012 0.0306 0.86312 0.0
C738 C 0.76433 0.03364 0.89649 0.0
C739 C 0.79916 0.05435 0.88742 0.0
C740 C 0.78925 0.07167 0.84208 0.0
C741 C 0.74526 0.06775 0.80607 0.0
C742 C 0.71001 0.04732 0.81734 0.0
H743 H 0.32632 0.0284 0.74226 0.0
H744 H 0.18415 0.07018 0.69958 0.0
H745 H 0.16398 0.03569 0.62505 0.0
H746 H 0.34449 0.02029 0.61087 0.0
H747 H 0.37672 0.98507 0.62228 0.0
H748 H 0.37943 0.01186 0.67399 0.0
H749 H 0.34805 0.97157 0.73023 0.0
H750 H 0.34499 0.94446 0.67887 0.0
H751 H 0.29168 0.95236 0.70564 0.0
H752 H 0.15823 0.99588 0.55678 0.0
H753 H 0.17191 0.95952 0.49048 0.0
H754 H 0.31975 0.94523 0.57382 0.0
C755 C 0.29104 0.03029 0.71703 0.0
C756 C 0.25673 0.05193 0.72664 0.0
C757 C 0.21111 0.05397 0.69261 0.0
C758 C 0.19914 0.03426 0.65053 0.0
C759 C 0.23344 0.01288 0.64251 0.0
C760 C 0.27888 0.0112 0.67407 0.0
C761 C 0.31021 0.98756 0.65461 0.0
C762 C 0.3554 1.00205 0.63954 0.0
C763 C 0.32457 0.9625 0.69474 0.0
C764 C 0.27512 0.97606 0.60747 0.0
C765 C 0.23083 0.99069 0.60174 0.0
C766 C 0.19282 0.98435 0.56076 0.0
C767 C 0.2009 0.96348 0.52338 0.0
C768 C 0.24689 0.94936 0.52669 0.0
C769 C 0.28395 0.95521 0.57029 0.0
H770 H 0.23295 0.95303 0.17933 0.0
H771 H 0.33786 0.99998 0.29496 0.0
H772 H 0.34995 0.03748 0.23046 0.0
H773 H 0.29628 0.96747 0.07068 0.0
H774 H 0.24056 0.97278 0.02439 0.0
H775 H 0.24162 0.94825 0.07893 0.0
H776 H 0.17101 0.97875 0.10466 0.0
H777 H 0.17025 1.00361 0.05062 0.0
H778 H 0.17783 0.01872 0.1151 0.0
H779 H 0.34923 0.07138 0.15594 0.0
H780 H 0.33939 0.09807 0.07281 0.0
H781 H 0.23469 0.03088 1.00277 0.0
C782 C 0.25899 0.97093 0.19068 0.0
C783 C 0.28429 0.97351 0.24251 0.0
C784 C 0.31768 0.99754 0.2558 0.0
C785 C 0.32491 0.01905 0.21937 0.0
C786 C 0.29855 0.01651 0.16927 0.0
C787 C 0.2666 0.993 0.15446 0.0
C788 C 0.24262 0.99625 0.0978 0.0
C789 C 0.25608 0.9696 0.06608 0.0
C790 C 0.18713 0.99953 0.09171 0.0
C791 C 0.26571 0.02535 0.08372 0.0
C792 C 0.29794 0.0365 0.12569 0.0
C793 C 0.32413 0.06286 0.12268 0.0
C794 C 0.31811 0.07799 0.07523 0.0
C795 C 0.28602 0.06689 0.03105 0.0
C796 C 0.25902 0.04031 0.03581 0.0
H797 H 0.79413 0.04179 0.50725 0.0
H798 H 0.63686 0.04677 0.48934 0.0
H799 H 0.62809 1.00933 0.41948 0.0
H800 H 0.79306 0.03659 0.36977 0.0
H801 H 0.84452 0.01148 0.37677 0.0
H802 H 0.83904 0.03739 0.42786 0.0
H803 H 0.84561 0.99288 0.49203 0.0
H804 H 0.85027 0.9668 0.44081 0.0
H805 H 0.80345 0.96198 0.47845 0.0
H806 H 0.63482 0.97077 0.35316 0.0
H807 H 0.6565 0.94062 0.28219 0.0
H808 H 0.80877 0.96186 0.33599 0.0
C809 C 0.75793 0.03488 0.48864 0.0
C810 C 0.71619 0.04732 0.50407 0.0
C811 C 0.66943 0.03791 0.47822 0.0
C812 C 0.664 0.01629 0.43882 0.0
C813 C 0.70558 1.00421 0.42497 0.0
C814 C 0.75169 0.0136 0.44806 0.0
C815 C 0.78988 0.99871 0.42216 0.0
C816 C 0.81829 0.02246 0.39768 0.0
C817 C 0.82434 0.97892 0.46067 0.0
C818 C 0.75792 0.97961 0.38106 0.0
C819 C 0.70947 0.98273 0.38439 0.0
C820 C 0.67264 0.96803 0.35031 0.0
C821 C 0.6853 0.95068 0.31043 0.0
C822 C 0.7343 0.94816 0.30454 0.0
C823 C 0.77122 0.9625 0.3408 0.0
loop_
_geom_bond_atom_site_label_1
_geom_bond_atom_site_label_2
_geom_bond_distance
_geom_bond_site_symmetry_2
_ccdc_geom_bond_type
Fe0 O2 1.918 . S
Fe0 O5 1.997 . S
Fe0 O6 2.002 . S
Fe0 O11 1.976 . S
Fe0 O14 1.996 . S
Fe1 O2 1.918 . S
Fe1 O9 1.997 . S
Fe1 O12 1.996 . S
Fe1 O16 1.976 . S
Fe1 O19 2.002 . S
O2 Fe0 1.918 . S
O2 Fe1 1.918 . S
O2 Fe3 1.918 . S
Fe3 O2 1.918 . S
Fe3 O4 2.002 . S
Fe3 O13 1.976 . S
Fe3 O17 1.996 . S
Fe3 O20 1.997 . S
O4 Fe3 2.002 . S
O4 C21 1.295 . S
O5 Fe0 1.997 . S
O5 C21 1.235 . S
O6 Fe0 2.002 . S
O6 C7 1.295 . S
C7 O6 1.295 . S
C7 O9 1.235 . S
C8 O13 1.287 . S
C8 O14 1.255 . S
O9 Fe1 1.997 . S
O9 C7 1.235 . S
C10 O16 1.287 . S
C10 O17 1.255 . S
O11 Fe0 1.976 . S
O11 C18 1.287 . S
O12 Fe1 1.996 . S
O12 C18 1.255 . S
O13 Fe3 1.976 . S
O13 C8 1.287 . S
O14 Fe0 1.996 . S
O14 C8 1.255 . S
C15 O19 1.295 . S
C15 O20 1.235 . S
O16 Fe1 1.976 . S
O16 C10 1.287 . S
O17 Fe3 1.996 . S
O17 C10 1.255 . S
C18 O11 1.287 . S
C18 O12 1.255 . S
O19 Fe1 2.002 . S
O19 C15 1.295 . S
O20 Fe3 1.997 . S
O20 C15 1.235 . S
C21 O4 1.295 . S
C21 O5 1.235 . S
Fe22 O24 1.918 . S
Fe22 O27 1.997 . S
Fe22 O28 2.002 . S
Fe22 O33 1.976 . S
Fe22 O36 1.996 . S
Fe23 O24 1.918 . S
Fe23 O31 1.997 . S
Fe23 O34 1.996 . S
Fe23 O38 1.976 . S
Fe23 O41 2.002 . S
O24 Fe22 1.918 . S
O24 Fe23 1.918 . S
O24 Fe25 1.918 . S
Fe25 O24 1.918 . S
Fe25 O26 2.002 . S
Fe25 O35 1.976 . S
Fe25 O39 1.996 . S
Fe25 O42 1.997 . S
O26 Fe25 2.002 . S
O26 C43 1.295 . S
O27 Fe22 1.997 . S
O27 C43 1.235 . S
O28 Fe22 2.002 . S
O28 C29 1.295 . S
C29 O28 1.295 . S
C29 O31 1.235 . S
C30 O35 1.287 . S
C30 O36 1.255 . S
O31 Fe23 1.997 . S
O31 C29 1.235 . S
C32 O38 1.287 . S
C32 O39 1.255 . S
O33 Fe22 1.976 . S
O33 C40 1.287 . S
O34 Fe23 1.996 . S
O34 C40 1.255 . S
O35 Fe25 1.976 . S
O35 C30 1.287 . S
O36 Fe22 1.996 . S
O36 C30 1.255 . S
C37 O41 1.295 . S
C37 O42 1.235 . S
O38 Fe23 1.976 . S
O38 C32 1.287 . S
O39 Fe25 1.996 . S
O39 C32 1.255 . S
C40 O33 1.287 . S
C40 O34 1.255 . S
O41 Fe23 2.002 . S
O41 C37 1.295 . S
O42 Fe25 1.997 . S
O42 C37 1.235 . S
C43 O26 1.295 . S
C43 O27 1.235 . S
Fe44 O46 1.918 . S
Fe44 O49 1.997 . S
Fe44 O50 2.002 . S
Fe44 O55 1.976 . S
Fe44 O58 1.996 . S
Fe45 O46 1.918 . S
Fe45 O53 1.997 . S
Fe45 O56 1.996 . S
Fe45 O60 1.976 . S
Fe45 O63 2.002 . S
O46 Fe44 1.918 . S
O46 Fe45 1.918 . S
O46 Fe47 1.918 . S
Fe47 O46 1.918 . S
Fe47 O48 2.002 . S
Fe47 O57 1.976 . S
Fe47 O61 1.996 . S
Fe47 O64 1.997 . S
O48 Fe47 2.002 . S
O48 C65 1.295 . S
O49 Fe44 1.997 . S
O49 C65 1.235 . S
O50 Fe44 2.002 . S
O50 C51 1.295 . S
C51 O50 1.295 . S
C51 O53 1.235 . S
C52 O57 1.287 . S
C52 O58 1.255 . S
O53 Fe45 1.997 . S
O53 C51 1.235 . S
C54 O60 1.287 . S
C54 O61 1.255 . S
O55 Fe44 1.976 . S
O55 C62 1.287 . S
O56 Fe45 1.996 . S
O56 C62 1.255 . S
O57 Fe47 1.976 . S
O57 C52 1.287 . S
O58 Fe44 1.996 . S
O58 C52 1.255 . S
C59 O63 1.295 . S
C59 O64 1.235 . S
O60 Fe45 1.976 . S
O60 C54 1.287 . S
O61 Fe47 1.996 . S
O61 C54 1.255 . S
C62 O55 1.287 . S
C62 O56 1.255 . S
O63 Fe45 2.002 . S
O63 C59 1.295 . S
O64 Fe47 1.997 . S
O64 C59 1.235 . S
C65 O48 1.295 . S
C65 O49 1.235 . S
Fe66 O68 1.918 . S
Fe66 O71 1.997 . S
Fe66 O72 2.002 . S
Fe66 O77 1.976 . S
Fe66 O80 1.996 . S
Fe67 O68 1.918 . S
Fe67 O75 1.997 . S
Fe67 O78 1.996 . S
Fe67 O82 1.976 . S
Fe67 O85 2.002 . S
O68 Fe66 1.918 . S
O68 Fe67 1.918 . S
O68 Fe69 1.918 . S
Fe69 O68 1.918 . S
Fe69 O70 2.002 . S
Fe69 O79 1.976 . S
Fe69 O83 1.996 . S
Fe69 O86 1.997 . S
O70 Fe69 2.002 . S
O70 C87 1.295 . S
O71 Fe66 1.997 . S
O71 C87 1.235 . S
O72 Fe66 2.002 . S
O72 C73 1.295 . S
C73 O72 1.295 . S
C73 O75 1.235 . S
C74 O79 1.287 . S
C74 O80 1.255 . S
O75 Fe67 1.997 . S
O75 C73 1.235 . S
C76 O82 1.287 . S
C76 O83 1.255 . S
O77 Fe66 1.976 . S
O77 C84 1.287 . S
O78 Fe67 1.996 . S
O78 C84 1.255 . S
O79 Fe69 1.976 . S
O79 C74 1.287 . S
O80 Fe66 1.996 . S
O80 C74 1.255 . S
C81 O85 1.295 . S
C81 O86 1.235 . S
O82 Fe67 1.976 . S
O82 C76 1.287 . S
O83 Fe69 1.996 . S
O83 C76 1.255 . S
C84 O77 1.287 . S
C84 O78 1.255 . S
O85 Fe67 2.002 . S
O85 C81 1.295 . S
O86 Fe69 1.997 . S
O86 C81 1.235 . S
C87 O70 1.295 . S
C87 O71 1.235 . S
Fe88 O90 1.918 . S
Fe88 O93 1.997 . S
Fe88 O94 2.002 . S
Fe88 O99 1.976 . S
Fe88 O102 1.996 . S
Fe89 O90 1.918 . S
Fe89 O97 1.997 . S
Fe89 O100 1.996 . S
Fe89 O104 1.976 . S
Fe89 O107 2.002 . S
O90 Fe88 1.918 . S
O90 Fe89 1.918 . S
O90 Fe91 1.918 . S
Fe91 O90 1.918 . S
Fe91 O92 2.002 . S
Fe91 O101 1.976 . S
Fe91 O105 1.996 . S
Fe91 O108 1.997 . S
O92 Fe91 2.002 . S
O92 C109 1.295 . S
O93 Fe88 1.997 . S
O93 C109 1.235 . S
O94 Fe88 2.002 . S
O94 C95 1.295 . S
C95 O94 1.295 . S
C95 O97 1.235 . S
C96 O101 1.287 . S
C96 O102 1.255 . S
O97 Fe89 1.997 . S
O97 C95 1.235 . S
C98 O104 1.287 . S
C98 O105 1.255 . S
O99 Fe88 1.976 . S
O99 C106 1.287 . S
O100 Fe89 1.996 . S
O100 C106 1.255 . S
O101 Fe91 1.976 . S
O101 C96 1.287 . S
O102 Fe88 1.996 . S
O102 C96 1.255 . S
C103 O107 1.295 . S
C103 O108 1.235 . S
O104 Fe89 1.976 . S
O104 C98 1.287 . S
O105 Fe91 1.996 . S
O105 C98 1.255 . S
C106 O99 1.287 . S
C106 O100 1.255 . S
O107 Fe89 2.002 . S
O107 C103 1.295 . S
O108 Fe91 1.997 . S
O108 C103 1.235 . S
C109 O92 1.295 . S
C109 O93 1.235 . S
Fe110 O112 1.918 . S
Fe110 O115 1.997 . S
Fe110 O116 2.002 . S
Fe110 O121 1.976 . S
Fe110 O124 1.996 . S
Fe111 O112 1.918 . S
Fe111 O119 1.997 . S
Fe111 O122 1.996 . S
Fe111 O126 1.976 . S
Fe111 O129 2.002 . S
O112 Fe110 1.918 . S
O112 Fe111 1.918 . S
O112 Fe113 1.918 . S
Fe113 O112 1.918 . S
Fe113 O114 2.002 . S
Fe113 O123 1.976 . S
Fe113 O127 1.996 . S
Fe113 O130 1.997 . S
O114 Fe113 2.002 . S
O114 C131 1.295 . S
O115 Fe110 1.997 . S
O115 C131 1.235 . S
O116 Fe110 2.002 . S
O116 C117 1.295 . S
C117 O116 1.295 . S
C117 O119 1.235 . S
C118 O123 1.287 . S
C118 O124 1.255 . S
O119 Fe111 1.997 . S
O119 C117 1.235 . S
C120 O126 1.287 . S
C120 O127 1.255 . S
O121 Fe110 1.976 . S
O121 C128 1.287 . S
O122 Fe111 1.996 . S
O122 C128 1.255 . S
O123 Fe113 1.976 . S
O123 C118 1.287 . S
O124 Fe110 1.996 . S
O124 C118 1.255 . S
C125 O129 1.295 . S
C125 O130 1.235 . S
O126 Fe111 1.976 . S
O126 C120 1.287 . S
O127 Fe113 1.996 . S
O127 C120 1.255 . S
C128 O121 1.287 . S
C128 O122 1.255 . S
O129 Fe111 2.002 . S
O129 C125 1.295 . S
O130 Fe113 1.997 . S
O130 C125 1.235 . S
C131 O114 1.295 . S
C131 O115 1.235 . S
Fe132 O134 1.918 . S
Fe132 O137 1.997 . S
Fe132 O138 2.002 . S
Fe132 O143 1.976 . S
Fe132 O146 1.996 . S
Fe133 O134 1.918 . S
Fe133 O141 1.997 . S
Fe133 O144 1.996 . S
Fe133 O148 1.976 . S
Fe133 O151 2.002 . S
O134 Fe132 1.918 . S
O134 Fe133 1.918 . S
O134 Fe135 1.918 . S
Fe135 O134 1.918 . S
Fe135 O136 2.002 . S
Fe135 O145 1.976 . S
Fe135 O149 1.996 . S
Fe135 O152 1.997 . S
O136 Fe135 2.002 . S
O136 C153 1.295 . S
O137 Fe132 1.997 . S
O137 C153 1.235 . S
O138 Fe132 2.002 . S
O138 C139 1.295 . S
C139 O138 1.295 . S
C139 O141 1.235 . S
C140 O145 1.287 . S
C140 O146 1.255 . S
O141 Fe133 1.997 . S
O141 C139 1.235 . S
C142 O148 1.287 . S
C142 O149 1.255 . S
O143 Fe132 1.976 . S
O143 C150 1.287 . S
O144 Fe133 1.996 . S
O144 C150 1.255 . S
O145 Fe135 1.976 . S
O145 C140 1.287 . S
O146 Fe132 1.996 . S
O146 C140 1.255 . S
C147 O151 1.295 . S
C147 O152 1.235 . S
O148 Fe133 1.976 . S
O148 C142 1.287 . S
O149 Fe135 1.996 . S
O149 C142 1.255 . S
C150 O143 1.287 . S
C150 O144 1.255 . S
O151 Fe133 2.002 . S
O151 C147 1.295 . S
O152 Fe135 1.997 . S
O152 C147 1.235 . S
C153 O136 1.295 . S
C153 O137 1.235 . S
Fe154 O156 1.918 . S
Fe154 O159 1.997 . S
Fe154 O160 2.002 . S
Fe154 O165 1.976 . S
Fe154 O168 1.996 . S
Fe155 O156 1.918 . S
Fe155 O163 1.997 . S
Fe155 O166 1.996 . S
Fe155 O170 1.976 . S
Fe155 O173 2.002 . S
O156 Fe154 1.918 . S
O156 Fe155 1.918 . S
O156 Fe157 1.918 . S
Fe157 O156 1.918 . S
Fe157 O158 2.002 . S
Fe157 O167 1.976 . S
Fe157 O171 1.996 . S
Fe157 O174 1.997 . S
O158 Fe157 2.002 . S
O158 C175 1.295 . S
O159 Fe154 1.997 . S
O159 C175 1.235 . S
O160 Fe154 2.002 . S
O160 C161 1.295 . S
C161 O160 1.295 . S
C161 O163 1.235 . S
C162 O167 1.287 . S
C162 O168 1.255 . S
O163 Fe155 1.997 . S
O163 C161 1.235 . S
C164 O170 1.287 . S
C164 O171 1.255 . S
O165 Fe154 1.976 . S
O165 C172 1.287 . S
O166 Fe155 1.996 . S
O166 C172 1.255 . S
O167 Fe157 1.976 . S
O167 C162 1.287 . S
O168 Fe154 1.996 . S
O168 C162 1.255 . S
C169 O173 1.295 . S
C169 O174 1.235 . S
O170 Fe155 1.976 . S
O170 C164 1.287 . S
O171 Fe157 1.996 . S
O171 C164 1.255 . S
C172 O165 1.287 . S
C172 O166 1.255 . S
O173 Fe155 2.002 . S
O173 C169 1.295 . S
O174 Fe157 1.997 . S
O174 C169 1.235 . S
C175 O158 1.295 . S
C175 O159 1.235 . S
H176 C188 0.930 . S
H177 C190 0.930 . S
H178 C191 0.930 . S
H179 C195 0.959 . S
H180 C195 0.959 . S
H181 C195 0.961 . S
H182 C196 0.960 . S
H183 C196 0.961 . S
H184 C196 0.959 . S
H185 C199 0.929 . S
H186 C200 0.931 . S
H187 C202 0.930 . S
C188 H176 0.930 . S
C188 C189 1.399 . S
C188 C193 1.399 . S
C189 C188 1.399 . S
C189 C190 1.376 . S
C190 H177 0.930 . S
C190 C189 1.376 . S
C190 C191 1.388 . S
C191 H178 0.930 . S
C191 C190 1.388 . S
C191 C192 1.390 . S
C192 C191 1.390 . S
C192 C193 1.394 . S
C192 C198 1.465 . S
C193 C188 1.399 . S
C193 C192 1.394 . S
C193 C194 1.516 . S
C194 C193 1.516 . S
C194 C195 1.502 . S
C194 C196 1.561 . S
C194 C197 1.526 . S
C195 H179 0.959 . S
C195 H180 0.959 . S
C195 H181 0.961 . S
C195 C194 1.502 . S
C196 H182 0.960 . S
C196 H183 0.961 . S
C196 H184 0.959 . S
C196 C194 1.561 . S
C197 C194 1.526 . S
C197 C198 1.396 . S
C197 C202 1.390 . S
C198 C192 1.465 . S
C198 C197 1.396 . S
C198 C199 1.399 . S
C199 H185 0.929 . S
C199 C198 1.399 . S
C199 C200 1.385 . S
C200 H186 0.931 . S
C200 C199 1.385 . S
C200 C201 1.389 . S
C201 C200 1.389 . S
C201 C202 1.387 . S
C202 H187 0.930 . S
C202 C197 1.390 . S
C202 C201 1.387 . S
H203 C215 0.930 . S
H204 C217 0.930 . S
H205 C218 0.930 . S
H206 C222 0.959 . S
H207 C222 0.959 . S
H208 C222 0.961 . S
H209 C223 0.960 . S
H210 C223 0.961 . S
H211 C223 0.959 . S
H212 C226 0.929 . S
H213 C227 0.931 . S
H214 C229 0.930 . S
C215 H203 0.930 . S
C215 C216 1.399 . S
C215 C220 1.399 . S
C216 C215 1.399 . S
C216 C217 1.376 . S
C217 H204 0.930 . S
C217 C216 1.376 . S
C217 C218 1.388 . S
C218 H205 0.930 . S
C218 C217 1.388 . S
C218 C219 1.390 . S
C219 C218 1.390 . S
C219 C220 1.394 . S
C219 C225 1.465 . S
C220 C215 1.399 . S
C220 C219 1.394 . S
C220 C221 1.516 . S
C221 C220 1.516 . S
C221 C222 1.502 . S
C221 C223 1.561 . S
C221 C224 1.526 . S
C222 H206 0.959 . S
C222 H207 0.959 . S
C222 H208 0.961 . S
C222 C221 1.502 . S
C223 H209 0.960 . S
C223 H210 0.961 . S
C223 H211 0.959 . S
C223 C221 1.561 . S
C224 C221 1.526 . S
C224 C225 1.396 . S
C224 C229 1.390 . S
C225 C219 1.465 . S
C225 C224 1.396 . S
C225 C226 1.399 . S
C226 H212 0.929 . S
C226 C225 1.399 . S
C226 C227 1.385 . S
C227 H213 0.931 . S
C227 C226 1.385 . S
C227 C228 1.389 . S
C228 C227 1.389 . S
C228 C229 1.387 . S
C229 H214 0.930 . S
C229 C224 1.390 . S
C229 C228 1.387 . S
H230 C242 0.930 . S
H231 C244 0.930 . S
H232 C245 0.930 . S
H233 C249 0.959 . S
H234 C249 0.959 . S
H235 C249 0.961 1_455 S
H236 C250 0.960 . S
H237 C250 0.961 1_655 S
H238 C250 0.959 . S
H239 C253 0.929 . S
H240 C254 0.931 . S
H241 C256 0.930 . S
C242 H230 0.930 . S
C242 C243 1.399 . S
C242 C247 1.399 . S
C243 C242 1.399 . S
C243 C244 1.376 . S
C244 H231 0.930 . S
C244 C243 1.376 . S
C244 C245 1.388 . S
C245 H232 0.930 . S
C245 C244 1.388 . S
C245 C246 1.390 . S
C246 C245 1.390 . S
C246 C247 1.394 . S
C246 C252 1.465 1_455 S
C247 C242 1.399 . S
C247 C246 1.394 . S
C247 C248 1.516 1_455 S
C248 C247 1.516 1_655 S
C248 C249 1.502 . S
C248 C250 1.561 1_655 S
C248 C251 1.526 . S
C249 H233 0.959 . S
C249 H234 0.959 . S
C249 H235 0.961 1_655 S
C249 C248 1.502 . S
C250 H236 0.960 . S
C250 H237 0.961 1_455 S
C250 H238 0.959 . S
C250 C248 1.561 1_455 S
C251 C248 1.526 . S
C251 C252 1.396 . S
C251 C256 1.390 . S
C252 C246 1.465 1_655 S
C252 C251 1.396 . S
C252 C253 1.399 . S
C253 H239 0.929 . S
C253 C252 1.399 . S
C253 C254 1.385 . S
C254 H240 0.931 . S
C254 C253 1.385 . S
C254 C255 1.389 . S
C255 C254 1.389 . S
C255 C256 1.387 . S
C256 H241 0.930 . S
C256 C251 1.390 . S
C256 C255 1.387 . S
H257 C269 0.930 . S
H258 C271 0.930 . S
H259 C272 0.930 . S
H260 C276 0.959 . S
H261 C276 0.959 . S
H262 C276 0.961 1_455 S
H263 C277 0.960 . S
H264 C277 0.961 1_655 S
H265 C277 0.959 . S
H266 C280 0.929 . S
H267 C281 0.931 . S
H268 C283 0.930 . S
C269 H257 0.930 . S
C269 C270 1.399 . S
C269 C274 1.399 . S
C270 C269 1.399 . S
C270 C271 1.376 . S
C271 H258 0.930 . S
C271 C270 1.376 . S
C271 C272 1.388 . S
C272 H259 0.930 . S
C272 C271 1.388 . S
C272 C273 1.390 . S
C273 C272 1.390 . S
C273 C274 1.394 . S
C273 C279 1.465 1_455 S
C274 C269 1.399 . S
C274 C273 1.394 . S
C274 C275 1.516 1_455 S
C275 C274 1.516 1_655 S
C275 C276 1.502 . S
C275 C277 1.561 1_655 S
C275 C278 1.526 . S
C276 H260 0.959 . S
C276 H261 0.959 . S
C276 H262 0.961 1_655 S
C276 C275 1.502 . S
C277 H263 0.960 . S
C277 H264 0.961 1_455 S
C277 H265 0.959 . S
C277 C275 1.561 1_455 S
C278 C275 1.526 . S
C278 C279 1.396 . S
C278 C283 1.390 . S
C279 C273 1.465 1_655 S
C279 C278 1.396 . S
C279 C280 1.399 . S
C280 H266 0.929 . S
C280 C279 1.399 . S
C280 C281 1.385 . S
C281 H267 0.931 . S
C281 C280 1.385 . S
C281 C282 1.389 . S
C282 C281 1.389 . S
C282 C283 1.387 . S
C283 H268 0.930 . S
C283 C278 1.390 . S
C283 C282 1.387 . S
H284 C296 0.930 . S
H285 C298 0.931 . S
H286 C299 0.930 . S
H287 C303 0.959 . S
H288 C303 0.959 . S
H289 C303 0.961 . S
H290 C304 0.960 . S
H291 C304 0.961 . S
H292 C304 0.959 . S
H293 C307 0.929 . S
H294 C308 0.931 . S
H295 C310 0.930 1_554 S
C296 H284 0.930 . S
C296 C297 1.399 . S
C296 C301 1.399 . S
C297 C296 1.399 . S
C297 C298 1.376 . S
C298 H285 0.931 . S
C298 C297 1.376 . S
C298 C299 1.388 1_554 S
C299 H286 0.930 . S
C299 C298 1.388 1_556 S
C299 C300 1.390 . S
C300 C299 1.390 . S
C300 C301 1.394 1_556 S
C300 C306 1.465 . S
C301 C296 1.399 . S
C301 C300 1.394 1_554 S
C301 C302 1.516 . S
C302 C301 1.516 . S
C302 C303 1.502 . S
C302 C304 1.561 . S
C302 C305 1.526 1_554 S
C303 H287 0.959 . S
C303 H288 0.959 . S
C303 H289 0.961 . S
C303 C302 1.502 . S
C304 H290 0.960 . S
C304 H291 0.961 . S
C304 H292 0.959 . S
C304 C302 1.561 . S
C305 C302 1.526 1_556 S
C305 C306 1.396 . S
C305 C310 1.390 . S
C306 C300 1.465 . S
C306 C305 1.396 . S
C306 C307 1.399 . S
C307 H293 0.929 . S
C307 C306 1.399 . S
C307 C308 1.385 . S
C308 H294 0.931 . S
C308 C307 1.385 . S
C308 C309 1.389 . S
C309 C308 1.389 . S
C309 C310 1.387 . S
C310 H295 0.930 1_556 S
C310 C305 1.390 . S
C310 C309 1.387 . S
H311 C323 0.930 . S
H312 C325 0.930 . S
H313 C326 0.930 . S
H314 C330 0.959 . S
H315 C330 0.959 . S
H316 C330 0.961 . S
H317 C331 0.960 . S
H318 C331 0.961 . S
H319 C331 0.959 . S
H320 C334 0.929 . S
H321 C335 0.931 . S
H322 C337 0.930 . S
C323 H311 0.930 . S
C323 C324 1.399 . S
C323 C328 1.399 . S
C324 C323 1.399 . S
C324 C325 1.376 . S
C325 H312 0.930 . S
C325 C324 1.376 . S
C325 C326 1.388 . S
C326 H313 0.930 . S
C326 C325 1.388 . S
C326 C327 1.390 . S
C327 C326 1.390 . S
C327 C328 1.394 . S
C327 C333 1.465 . S
C328 C323 1.399 . S
C328 C327 1.394 . S
C328 C329 1.516 . S
C329 C328 1.516 . S
C329 C330 1.502 . S
C329 C331 1.561 . S
C329 C332 1.526 . S
C330 H314 0.959 . S
C330 H315 0.959 . S
C330 H316 0.961 . S
C330 C329 1.502 . S
C331 H317 0.960 . S
C331 H318 0.961 . S
C331 H319 0.959 . S
C331 C329 1.561 . S
C332 C329 1.526 . S
C332 C333 1.396 . S
C332 C337 1.390 . S
C333 C327 1.465 . S
C333 C332 1.396 . S
C333 C334 1.399 . S
C334 H320 0.929 . S
C334 C333 1.399 . S
C334 C335 1.385 . S
C335 H321 0.931 . S
C335 C334 1.385 . S
C335 C336 1.389 . S
C336 C335 1.389 . S
C336 C337 1.387 . S
C337 H322 0.930 . S
C337 C332 1.390 . S
C337 C336 1.387 . S
H338 C350 0.930 . S
H339 C352 0.934 . S
H340 C353 0.930 . S
H341 C357 0.959 . S
H342 C357 0.959 . S
H343 C357 0.961 . S
H344 C358 0.960 . S
H345 C358 0.961 . S
H346 C358 0.959 . S
H347 C361 0.929 . S
H348 C362 0.931 . S
H349 C364 0.930 1_554 S
C350 H338 0.930 . S
C350 C351 1.399 . S
C350 C355 1.399 . S
C351 C350 1.399 . S
C351 C352 1.376 . S
C352 H339 0.934 . S
C352 C351 1.376 . S
C352 C353 1.388 1_554 S
C353 H340 0.930 . S
C353 C352 1.388 1_556 S
C353 C354 1.390 . S
C354 C353 1.390 . S
C354 C355 1.394 1_556 S
C354 C360 1.465 . S
C355 C350 1.399 . S
C355 C354 1.394 1_554 S
C355 C356 1.516 . S
C356 C355 1.516 . S
C356 C357 1.502 . S
C356 C358 1.561 . S
C356 C359 1.526 1_554 S
C357 H341 0.959 . S
C357 H342 0.959 . S
C357 H343 0.961 . S
C357 C356 1.502 . S
C358 H344 0.960 . S
C358 H345 0.961 . S
C358 H346 0.959 . S
C358 C356 1.561 . S
C359 C356 1.526 1_556 S
C359 C360 1.396 . S
C359 C364 1.390 . S
C360 C354 1.465 . S
C360 C359 1.396 . S
C360 C361 1.399 . S
C361 H347 0.929 . S
C361 C360 1.399 . S
C361 C362 1.385 . S
C362 H348 0.931 . S
C362 C361 1.385 . S
C362 C363 1.389 . S
C363 C362 1.389 . S
C363 C364 1.387 . S
C364 H349 0.930 1_556 S
C364 C359 1.390 . S
C364 C363 1.387 . S
H365 C377 0.930 . S
H366 C379 0.930 . S
H367 C380 0.930 . S
H368 C384 0.959 . S
H369 C384 0.959 . S
H370 C384 0.961 . S
H371 C385 0.960 . S
H372 C385 0.961 . S
H373 C385 0.959 . S
H374 C388 0.929 . S
H375 C389 0.931 . S
H376 C391 0.930 . S
C377 H365 0.930 . S
C377 C378 1.399 . S
C377 C382 1.399 . S
C378 C377 1.399 . S
C378 C379 1.376 . S
C379 H366 0.930 . S
C379 C378 1.376 . S
C379 C380 1.388 . S
C380 H367 0.930 . S
C380 C379 1.388 . S
C380 C381 1.390 . S
C381 C380 1.390 . S
C381 C382 1.394 . S
C381 C387 1.465 . S
C382 C377 1.399 . S
C382 C381 1.394 . S
C382 C383 1.516 . S
C383 C382 1.516 . S
C383 C384 1.502 . S
C383 C385 1.561 . S
C383 C386 1.526 . S
C384 H368 0.959 . S
C384 H369 0.959 . S
C384 H370 0.961 . S
C384 C383 1.502 . S
C385 H371 0.960 . S
C385 H372 0.961 . S
C385 H373 0.959 . S
C385 C383 1.561 . S
C386 C383 1.526 . S
C386 C387 1.396 . S
C386 C391 1.390 . S
C387 C381 1.465 . S
C387 C386 1.396 . S
C387 C388 1.399 . S
C388 H374 0.929 . S
C388 C387 1.399 . S
C388 C389 1.385 . S
C389 H375 0.931 . S
C389 C388 1.385 . S
C389 C390 1.389 . S
C390 C389 1.389 . S
C390 C391 1.387 . S
C391 H376 0.930 . S
C391 C386 1.390 . S
C391 C390 1.387 . S
H392 C404 0.930 . S
H393 C406 0.930 . S
H394 C407 0.930 . S
H395 C411 0.959 . S
H396 C411 0.959 . S
H397 C411 0.961 . S
H398 C412 0.960 . S
H399 C412 0.961 1_554 S
H400 C412 0.959 . S
H401 C415 0.929 . S
H402 C416 0.931 . S
H403 C418 0.930 . S
C404 H392 0.930 . S
C404 C405 1.399 . S
C404 C409 1.399 . S
C405 C404 1.399 . S
C405 C406 1.376 . S
C406 H393 0.930 . S
C406 C405 1.376 . S
C406 C407 1.388 . S
C407 H394 0.930 . S
C407 C406 1.388 . S
C407 C408 1.390 . S
C408 C407 1.390 . S
C408 C409 1.394 . S
C408 C414 1.465 1_655 S
C409 C404 1.399 . S
C409 C408 1.394 . S
C409 C410 1.516 1_556 S
C410 C409 1.516 1_554 S
C410 C411 1.502 . S
C410 C412 1.561 1_554 S
C410 C413 1.526 1_655 S
C411 H395 0.959 . S
C411 H396 0.959 . S
C411 H397 0.961 . S
C411 C410 1.502 . S
C412 H398 0.960 . S
C412 H399 0.961 1_556 S
C412 H400 0.959 . S
C412 C410 1.561 1_556 S
C413 C410 1.526 1_455 S
C413 C414 1.396 1_554 S
C413 C418 1.390 . S
C414 C408 1.465 1_455 S
C414 C413 1.396 1_556 S
C414 C415 1.399 . S
C415 H401 0.929 . S
C415 C414 1.399 . S
C415 C416 1.385 1_556 S
C416 H402 0.931 . S
C416 C415 1.385 1_554 S
C416 C417 1.389 . S
C417 C416 1.389 . S
C417 C418 1.387 . S
C418 H403 0.930 . S
C418 C413 1.390 . S
C418 C417 1.387 . S
H419 C431 0.930 . S
H420 C433 0.930 . S
H421 C434 0.930 . S
H422 C438 0.959 . S
H423 C438 0.959 . S
H424 C438 0.961 . S
H425 C439 0.959 1_455 S
H426 C439 0.961 . S
H427 C439 0.959 . S
H428 C442 0.929 . S
H429 C443 0.931 . S
H430 C445 0.930 . S
C431 H419 0.930 . S
C431 C432 1.399 . S
C431 C436 1.399 . S
C432 C431 1.399 . S
C432 C433 1.376 . S
C433 H420 0.930 . S
C433 C432 1.376 . S
C433 C434 1.388 . S
C434 H421 0.930 . S
C434 C433 1.388 . S
C434 C435 1.390 . S
C435 C434 1.390 . S
C435 C436 1.394 . S
C435 C441 1.465 1_455 S
C436 C431 1.399 . S
C436 C435 1.394 . S
C436 C437 1.516 1_455 S
C437 C436 1.516 1_655 S
C437 C438 1.502 . S
C437 C439 1.561 . S
C437 C440 1.526 . S
C438 H422 0.959 . S
C438 H423 0.959 . S
C438 H424 0.961 . S
C438 C437 1.502 . S
C439 H425 0.959 1_655 S
C439 H426 0.961 . S
C439 H427 0.959 . S
C439 C437 1.561 . S
C440 C437 1.526 . S
C440 C441 1.396 . S
C440 C445 1.390 . S
C441 C435 1.465 1_655 S
C441 C440 1.396 . S
C441 C442 1.399 . S
C442 H428 0.929 . S
C442 C441 1.399 . S
C442 C443 1.385 . S
C443 H429 0.931 . S
C443 C442 1.385 . S
C443 C444 1.389 . S
C444 C443 1.389 . S
C444 C445 1.387 . S
C445 H430 0.930 . S
C445 C440 1.390 . S
C445 C444 1.387 . S
H446 C458 0.930 . S
H447 C460 0.930 . S
H448 C461 0.930 1_556 S
H449 C465 0.959 1_556 S
H450 C465 0.959 . S
H451 C465 0.961 . S
H452 C466 0.960 . S
H453 C466 0.961 . S
H454 C466 0.959 1_545 S
H455 C469 0.929 . S
H456 C470 0.931 . S
H457 C472 0.930 1_565 S
C458 H446 0.930 . S
C458 C459 1.399 . S
C458 C463 1.399 . S
C459 C458 1.399 . S
C459 C460 1.376 1_565 S
C460 H447 0.930 . S
C460 C459 1.376 1_545 S
C460 C461 1.388 . S
C461 H448 0.930 1_554 S
C461 C460 1.388 . S
C461 C462 1.390 . S
C462 C461 1.390 . S
C462 C463 1.394 1_545 S
C462 C468 1.465 1_554 S
C463 C458 1.399 . S
C463 C462 1.394 1_565 S
C463 C464 1.516 . S
C464 C463 1.516 . S
C464 C465 1.502 . S
C464 C466 1.561 . S
C464 C467 1.526 1_564 S
C465 H449 0.959 1_554 S
C465 H450 0.959 . S
C465 H451 0.961 . S
C465 C464 1.502 . S
C466 H452 0.960 . S
C466 H453 0.961 . S
C466 H454 0.959 1_565 S
C466 C464 1.561 . S
C467 C464 1.526 1_546 S
C467 C468 1.396 . S
C467 C472 1.390 . S
C468 C462 1.465 1_556 S
C468 C467 1.396 . S
C468 C469 1.399 . S
C469 H455 0.929 . S
C469 C468 1.399 . S
C469 C470 1.385 . S
C470 H456 0.931 . S
C470 C469 1.385 . S
C470 C471 1.389 . S
C471 C470 1.389 . S
C471 C472 1.387 . S
C472 H457 0.930 1_545 S
C472 C467 1.390 . S
C472 C471 1.387 . S
H473 C485 0.930 . S
H474 C487 0.930 . S
H475 C488 0.930 . S
H476 C492 0.959 . S
H477 C492 0.959 . S
H478 C492 0.961 . S
H479 C493 0.960 . S
H480 C493 0.961 . S
H481 C493 0.959 . S
H482 C496 0.929 . S
H483 C497 0.931 . S
H484 C499 0.911 1_565 S
C485 H473 0.930 . S
C485 C486 1.399 . S
C485 C490 1.399 . S
C486 C485 1.399 . S
C486 C487 1.376 1_565 S
C487 H474 0.930 . S
C487 C486 1.376 1_545 S
C487 C488 1.388 . S
C488 H475 0.930 . S
C488 C487 1.388 . S
C488 C489 1.390 . S
C489 C488 1.390 . S
C489 C490 1.394 1_545 S
C489 C495 1.465 . S
C490 C485 1.399 . S
C490 C489 1.394 1_565 S
C490 C491 1.516 . S
C491 C490 1.516 . S
C491 C492 1.502 . S
C491 C493 1.561 . S
C491 C494 1.526 . S
C492 H476 0.959 . S
C492 H477 0.959 . S
C492 H478 0.961 . S
C492 C491 1.502 . S
C493 H479 0.960 . S
C493 H480 0.961 . S
C493 H481 0.959 . S
C493 C491 1.561 . S
C494 C491 1.526 . S
C494 C495 1.396 1_565 S
C494 C499 1.385 1_565 S
C495 C489 1.465 . S
C495 C494 1.396 1_545 S
C495 C496 1.399 . S
C496 H482 0.929 . S
C496 C495 1.399 . S
C496 C497 1.385 . S
C497 H483 0.931 . S
C497 C496 1.385 . S
C497 C498 1.389 . S
C498 C497 1.389 . S
C498 C499 1.411 . S
C499 H484 0.911 1_545 S
C499 C494 1.385 1_545 S
C499 C498 1.411 . S
H500 C512 0.930 . S
H501 C514 0.930 . S
H502 C515 0.930 . S
H503 C519 0.959 . S
H504 C519 0.959 . S
H505 C519 0.961 . S
H506 C520 0.960 1_455 S
H507 C520 0.961 . S
H508 C520 0.959 . S
H509 C523 0.929 . S
H510 C524 0.931 . S
H511 C526 0.930 . S
C512 H500 0.930 . S
C512 C513 1.399 . S
C512 C517 1.399 . S
C513 C512 1.399 . S
C513 C514 1.376 . S
C514 H501 0.930 . S
C514 C513 1.376 . S
C514 C515 1.388 . S
C515 H502 0.930 . S
C515 C514 1.388 . S
C515 C516 1.390 . S
C516 C515 1.390 . S
C516 C517 1.394 . S
C516 C522 1.465 1_455 S
C517 C512 1.399 . S
C517 C516 1.394 . S
C517 C518 1.516 . S
C518 C517 1.516 . S
C518 C519 1.502 . S
C518 C520 1.561 1_455 S
C518 C521 1.526 1_455 S
C519 H503 0.959 . S
C519 H504 0.959 . S
C519 H505 0.961 . S
C519 C518 1.502 . S
C520 H506 0.960 1_655 S
C520 H507 0.961 . S
C520 H508 0.959 . S
C520 C518 1.561 1_655 S
C521 C518 1.526 1_655 S
C521 C522 1.396 . S
C521 C526 1.390 . S
C522 C516 1.465 1_655 S
C522 C521 1.396 . S
C522 C523 1.399 . S
C523 H509 0.929 . S
C523 C522 1.399 . S
C523 C524 1.385 . S
C524 H510 0.931 . S
C524 C523 1.385 . S
C524 C525 1.389 . S
C525 C524 1.389 . S
C525 C526 1.387 . S
C526 H511 0.930 . S
C526 C521 1.390 . S
C526 C525 1.387 . S
H527 C539 0.930 . S
H528 C541 0.930 . S
H529 C542 0.930 . S
H530 C546 0.959 . S
H531 C546 0.959 . S
H532 C546 0.961 . S
H533 C547 0.978 . S
H534 C547 0.961 . S
H535 C547 0.959 . S
H536 C550 0.929 . S
H537 C551 0.931 . S
H538 C553 0.930 . S
C539 H527 0.930 . S
C539 C540 1.399 . S
C539 C544 1.399 . S
C540 C539 1.399 . S
C540 C541 1.376 . S
C541 H528 0.930 . S
C541 C540 1.376 . S
C541 C542 1.388 . S
C542 H529 0.930 . S
C542 C541 1.388 . S
C542 C543 1.390 . S
C543 C542 1.390 . S
C543 C544 1.394 . S
C543 C549 1.465 1_455 S
C544 C539 1.399 . S
C544 C543 1.394 . S
C544 C545 1.516 . S
C545 C544 1.516 . S
C545 C546 1.502 . S
C545 C547 1.561 1_455 S
C545 C548 1.526 1_455 S
C546 H530 0.959 . S
C546 H531 0.959 . S
C546 H532 0.961 . S
C546 C545 1.502 . S
C547 H533 0.978 . S
C547 H534 0.961 . S
C547 H535 0.959 . S
C547 C545 1.561 1_655 S
C548 C545 1.526 1_655 S
C548 C549 1.396 . S
C548 C553 1.390 . S
C549 C543 1.465 1_655 S
C549 C548 1.396 . S
C549 C550 1.399 . S
C550 H536 0.929 . S
C550 C549 1.399 . S
C550 C551 1.385 . S
C551 H537 0.931 . S
C551 C550 1.385 . S
C551 C552 1.389 . S
C552 C551 1.389 . S
C552 C553 1.387 . S
C553 H538 0.930 . S
C553 C548 1.390 . S
C553 C552 1.387 . S
H554 C566 0.930 . S
H555 C568 0.930 . S
H556 C569 0.930 . S
H557 C573 0.959 . S
H558 C573 0.959 . S
H559 C573 0.961 . S
H560 C574 0.960 . S
H561 C574 0.961 . S
H562 C574 0.959 . S
H563 C577 0.929 . S
H564 C578 0.931 . S
H565 C580 0.930 . S
C566 H554 0.930 . S
C566 C567 1.399 . S
C566 C571 1.399 . S
C567 C566 1.399 . S
C567 C568 1.376 . S
C568 H555 0.930 . S
C568 C567 1.376 . S
C568 C569 1.388 . S
C569 H556 0.930 . S
C569 C568 1.388 . S
C569 C570 1.390 . S
C570 C569 1.390 . S
C570 C571 1.394 . S
C570 C576 1.465 . S
C571 C566 1.399 . S
C571 C570 1.394 . S
C571 C572 1.516 . S
C572 C571 1.516 . S
C572 C573 1.502 . S
C572 C574 1.561 . S
C572 C575 1.526 . S
C573 H557 0.959 . S
C573 H558 0.959 . S
C573 H559 0.961 . S
C573 C572 1.502 . S
C574 H560 0.960 . S
C574 H561 0.961 . S
C574 H562 0.959 . S
C574 C572 1.561 . S
C575 C572 1.526 . S
C575 C576 1.396 . S
C575 C580 1.390 . S
C576 C570 1.465 . S
C576 C575 1.396 . S
C576 C577 1.399 . S
C577 H563 0.929 . S
C577 C576 1.399 . S
C577 C578 1.385 . S
C578 H564 0.931 . S
C578 C577 1.385 . S
C578 C579 1.389 . S
C579 C578 1.389 . S
C579 C580 1.387 . S
C580 H565 0.930 . S
C580 C575 1.390 . S
C580 C579 1.387 . S
H581 C593 0.930 . S
H582 C595 0.930 . S
H583 C596 0.930 . S
H584 C600 0.959 . S
H585 C600 0.959 . S
H586 C600 0.961 . S
H587 C601 0.960 . S
H588 C601 0.961 . S
H589 C601 0.959 . S
H590 C604 0.929 . S
H591 C605 0.931 . S
H592 C607 0.930 . S
C593 H581 0.930 . S
C593 C594 1.399 . S
C593 C598 1.399 . S
C594 C593 1.399 . S
C594 C595 1.376 . S
C595 H582 0.930 . S
C595 C594 1.376 . S
C595 C596 1.388 . S
C596 H583 0.930 . S
C596 C595 1.388 . S
C596 C597 1.390 . S
C597 C596 1.390 . S
C597 C598 1.394 . S
C597 C603 1.465 . S
C598 C593 1.399 . S
C598 C597 1.394 . S
C598 C599 1.516 . S
C599 C598 1.516 . S
C599 C600 1.502 . S
C599 C601 1.561 . S
C599 C602 1.526 . S
C600 H584 0.959 . S
C600 H585 0.959 . S
C600 H586 0.961 . S
C600 C599 1.502 . S
C601 H587 0.960 . S
C601 H588 0.961 . S
C601 H589 0.959 . S
C601 C599 1.561 . S
C602 C599 1.526 . S
C602 C603 1.396 . S
C602 C607 1.390 . S
C603 C597 1.465 . S
C603 C602 1.396 . S
C603 C604 1.399 . S
C604 H590 0.929 . S
C604 C603 1.399 . S
C604 C605 1.385 . S
C605 H591 0.931 . S
C605 C604 1.385 . S
C605 C606 1.389 . S
C606 C605 1.389 . S
C606 C607 1.387 . S
C607 H592 0.930 . S
C607 C602 1.390 . S
C607 C606 1.387 . S
H608 C620 0.930 . S
H609 C622 0.930 1_554 S
H610 C623 0.930 . S
H611 C627 0.959 . S
H612 C627 0.959 . S
H613 C627 0.961 . S
H614 C628 0.960 . S
H615 C628 0.961 . S
H616 C628 0.959 . S
H617 C631 0.929 . S
H618 C632 0.931 . S
H619 C634 0.930 . S
C620 H608 0.930 . S
C620 C621 1.399 . S
C620 C625 1.399 . S
C621 C620 1.399 . S
C621 C622 1.376 . S
C622 H609 0.930 1_556 S
C622 C621 1.376 . S
C622 C623 1.388 . S
C623 H610 0.930 . S
C623 C622 1.388 . S
C623 C624 1.390 . S
C624 C623 1.390 . S
C624 C625 1.394 . S
C624 C630 1.465 . S
C625 C620 1.399 . S
C625 C624 1.394 . S
C625 C626 1.516 . S
C626 C625 1.516 . S
C626 C627 1.502 . S
C626 C628 1.561 . S
C626 C629 1.526 . S
C627 H611 0.959 . S
C627 H612 0.959 . S
C627 H613 0.961 . S
C627 C626 1.502 . S
C628 H614 0.960 . S
C628 H615 0.961 . S
C628 H616 0.959 . S
C628 C626 1.561 . S
C629 C626 1.526 . S
C629 C630 1.396 . S
C629 C634 1.390 . S
C630 C624 1.465 . S
C630 C629 1.396 . S
C630 C631 1.399 . S
C631 H617 0.929 . S
C631 C630 1.399 . S
C631 C632 1.385 . S
C632 H618 0.931 . S
C632 C631 1.385 . S
C632 C633 1.389 . S
C633 C632 1.389 . S
C633 C634 1.387 . S
C634 H619 0.930 . S
C634 C629 1.390 . S
C634 C633 1.387 . S
H635 C647 0.930 . S
H636 C649 0.930 . S
H637 C650 0.930 . S
H638 C654 0.959 . S
H639 C654 0.959 . S
H640 C654 0.961 . S
H641 C655 0.960 . S
H642 C655 0.961 . S
H643 C655 0.959 . S
H644 C658 0.929 . S
H645 C659 0.931 . S
H646 C661 0.930 . S
C647 H635 0.930 . S
C647 C648 1.399 . S
C647 C652 1.399 . S
C648 C647 1.399 . S
C648 C649 1.376 . S
C649 H636 0.930 . S
C649 C648 1.376 . S
C649 C650 1.388 . S
C650 H637 0.930 . S
C650 C649 1.388 . S
C650 C651 1.390 . S
C651 C650 1.390 . S
C651 C652 1.394 . S
C651 C657 1.465 . S
C652 C647 1.399 . S
C652 C651 1.394 . S
C652 C653 1.516 . S
C653 C652 1.516 . S
C653 C654 1.502 . S
C653 C655 1.561 . S
C653 C656 1.526 . S
C654 H638 0.959 . S
C654 H639 0.959 . S
C654 H640 0.961 . S
C654 C653 1.502 . S
C655 H641 0.960 . S
C655 H642 0.961 . S
C655 H643 0.959 . S
C655 C653 1.561 . S
C656 C653 1.526 . S
C656 C657 1.396 . S
C656 C661 1.390 . S
C657 C651 1.465 . S
C657 C656 1.396 . S
C657 C658 1.399 . S
C658 H644 0.929 . S
C658 C657 1.399 . S
C658 C659 1.385 . S
C659 H645 0.931 . S
C659 C658 1.385 . S
C659 C660 1.389 . S
C660 C659 1.389 . S
C660 C661 1.387 . S
C661 H646 0.930 . S
C661 C656 1.390 . S
C661 C660 1.387 . S
H662 C674 0.930 . S
H663 C676 0.930 . S
H664 C677 0.930 . S
H665 C681 0.959 . S
H666 C681 0.959 . S
H667 C681 0.961 . S
H668 C682 0.960 . S
H669 C682 0.961 . S
H670 C682 0.959 . S
H671 C685 0.929 . S
H672 C686 0.931 1_556 S
H673 C688 0.930 . S
C674 H662 0.930 . S
C674 C675 1.399 . S
C674 C679 1.399 . S
C675 C674 1.399 . S
C675 C676 1.376 . S
C676 H663 0.930 . S
C676 C675 1.376 . S
C676 C677 1.388 . S
C677 H664 0.930 . S
C677 C676 1.388 . S
C677 C678 1.390 . S
C678 C677 1.390 . S
C678 C679 1.394 . S
C678 C684 1.465 . S
C679 C674 1.399 . S
C679 C678 1.394 . S
C679 C680 1.516 . S
C680 C679 1.516 . S
C680 C681 1.502 . S
C680 C682 1.561 . S
C680 C683 1.526 . S
C681 H665 0.959 . S
C681 H666 0.959 . S
C681 H667 0.961 . S
C681 C680 1.502 . S
C682 H668 0.960 . S
C682 H669 0.961 . S
C682 H670 0.959 . S
C682 C680 1.561 . S
C683 C680 1.526 . S
C683 C684 1.396 . S
C683 C688 1.390 . S
C684 C678 1.465 . S
C684 C683 1.396 . S
C684 C685 1.399 . S
C685 H671 0.929 . S
C685 C684 1.399 . S
C685 C686 1.385 . S
C686 H672 0.931 1_554 S
C686 C685 1.385 . S
C686 C687 1.389 . S
C687 C686 1.389 . S
C687 C688 1.387 . S
C688 H673 0.930 . S
C688 C683 1.390 . S
C688 C687 1.387 . S
H689 C701 0.930 . S
H690 C703 0.930 . S
H691 C704 0.930 . S
H692 C708 0.959 . S
H693 C708 0.959 . S
H694 C708 0.961 . S
H695 C709 0.960 . S
H696 C709 0.961 . S
H697 C709 0.959 . S
H698 C712 0.929 . S
H699 C713 0.931 . S
H700 C715 0.930 . S
C701 H689 0.930 . S
C701 C702 1.399 . S
C701 C706 1.399 . S
C702 C701 1.399 . S
C702 C703 1.376 . S
C703 H690 0.930 . S
C703 C702 1.376 . S
C703 C704 1.388 . S
C704 H691 0.930 . S
C704 C703 1.388 . S
C704 C705 1.390 . S
C705 C704 1.390 . S
C705 C706 1.394 . S
C705 C711 1.465 . S
C706 C701 1.399 . S
C706 C705 1.394 . S
C706 C707 1.516 . S
C707 C706 1.516 . S
C707 C708 1.502 . S
C707 C709 1.561 . S
C707 C710 1.526 . S
C708 H692 0.959 . S
C708 H693 0.959 . S
C708 H694 0.961 . S
C708 C707 1.502 . S
C709 H695 0.960 . S
C709 H696 0.961 . S
C709 H697 0.959 . S
C709 C707 1.561 . S
C710 C707 1.526 . S
C710 C711 1.396 . S
C710 C715 1.390 . S
C711 C705 1.465 . S
C711 C710 1.396 . S
C711 C712 1.399 . S
C712 H698 0.929 . S
C712 C711 1.399 . S
C712 C713 1.385 . S
C713 H699 0.931 . S
C713 C712 1.385 . S
C713 C714 1.389 . S
C714 C713 1.389 . S
C714 C715 1.387 . S
C715 H700 0.930 . S
C715 C710 1.390 . S
C715 C714 1.387 . S
H716 C728 0.930 . S
H717 C730 0.930 . S
H718 C731 0.930 . S
H719 C735 0.959 1_565 S
H720 C735 0.959 . S
H721 C735 0.961 . S
H722 C736 0.960 . S
H723 C736 0.961 . S
H724 C736 0.959 . S
H725 C739 0.929 . S
H726 C740 0.931 . S
H727 C742 0.930 . S
C728 H716 0.930 . S
C728 C729 1.399 . S
C728 C733 1.399 . S
C729 C728 1.399 . S
C729 C730 1.376 . S
C730 H717 0.930 . S
C730 C729 1.376 . S
C730 C731 1.388 . S
C731 H718 0.930 . S
C731 C730 1.388 . S
C731 C732 1.390 . S
C732 C731 1.390 . S
C732 C733 1.394 . S
C732 C738 1.465 . S
C733 C728 1.399 . S
C733 C732 1.394 . S
C733 C734 1.516 1_565 S
C734 C733 1.516 1_545 S
C734 C735 1.502 . S
C734 C736 1.561 . S
C734 C737 1.526 . S
C735 H719 0.959 1_545 S
C735 H720 0.959 . S
C735 H721 0.961 . S
C735 C734 1.502 . S
C736 H722 0.960 . S
C736 H723 0.961 . S
C736 H724 0.959 . S
C736 C734 1.561 . S
C737 C734 1.526 . S
C737 C738 1.396 1_545 S
C737 C742 1.390 . S
C738 C732 1.465 . S
C738 C737 1.396 1_565 S
C738 C739 1.399 . S
C739 H725 0.929 . S
C739 C738 1.399 . S
C739 C740 1.385 1_565 S
C740 H726 0.931 . S
C740 C739 1.385 1_545 S
C740 C741 1.389 . S
C741 C740 1.389 . S
C741 C742 1.387 . S
C742 H727 0.930 . S
C742 C737 1.390 . S
C742 C741 1.387 . S
H743 C755 0.916 1_565 S
H744 C757 0.930 . S
H745 C758 0.930 . S
H746 C762 0.959 . S
H747 C762 0.959 . S
H748 C762 0.961 . S
H749 C763 0.960 . S
H750 C763 0.961 . S
H751 C763 0.959 . S
H752 C766 0.929 1_545 S
H753 C767 0.931 . S
H754 C769 0.930 . S
C755 H743 0.916 1_545 S
C755 C756 1.399 . S
C755 C760 1.399 1_545 S
C756 C755 1.399 . S
C756 C757 1.376 . S
C757 H744 0.930 . S
C757 C756 1.376 . S
C757 C758 1.388 . S
C758 H745 0.930 . S
C758 C757 1.388 . S
C758 C759 1.390 . S
C759 C758 1.390 . S
C759 C760 1.394 1_545 S
C759 C765 1.465 1_545 S
C760 C755 1.399 1_565 S
C760 C759 1.394 1_565 S
C760 C761 1.516 . S
C761 C760 1.516 . S
C761 C762 1.502 . S
C761 C763 1.561 . S
C761 C764 1.526 . S
C762 H746 0.959 . S
C762 H747 0.959 . S
C762 H748 0.961 . S
C762 C761 1.502 . S
C763 H749 0.960 . S
C763 H750 0.961 . S
C763 H751 0.959 . S
C763 C761 1.561 . S
C764 C761 1.526 . S
C764 C765 1.396 . S
C764 C769 1.390 . S
C765 C759 1.465 1_565 S
C765 C764 1.396 . S
C765 C766 1.399 . S
C766 H752 0.929 1_565 S
C766 C765 1.399 . S
C766 C767 1.385 . S
C767 H753 0.931 . S
C767 C766 1.385 . S
C767 C768 1.389 . S
C768 C767 1.389 . S
C768 C769 1.387 . S
C769 H754 0.930 . S
C769 C764 1.390 . S
C769 C768 1.387 . S
H770 C782 0.930 . S
H771 C784 0.930 . S
H772 C785 0.930 . S
H773 C789 0.959 . S
H774 C789 0.959 . S
H775 C789 0.961 . S
H776 C790 0.960 . S
H777 C790 0.961 . S
H778 C790 0.959 . S
H779 C793 0.929 . S
H780 C794 0.931 . S
H781 C796 0.930 . S
C782 H770 0.930 . S
C782 C783 1.399 . S
C782 C787 1.399 . S
C783 C782 1.399 . S
C783 C784 1.376 . S
C784 H771 0.930 . S
C784 C783 1.376 . S
C784 C785 1.388 1_565 S
C785 H772 0.930 . S
C785 C784 1.388 1_545 S
C785 C786 1.390 . S
C786 C785 1.390 . S
C786 C787 1.394 1_545 S
C786 C792 1.465 . S
C787 C782 1.399 . S
C787 C786 1.394 1_565 S
C787 C788 1.516 . S
C788 C787 1.516 . S
C788 C789 1.502 . S
C788 C790 1.561 . S
C788 C791 1.526 1_565 S
C789 H773 0.959 . S
C789 H774 0.959 . S
C789 H775 0.961 . S
C789 C788 1.502 . S
C790 H776 0.960 . S
C790 H777 0.961 . S
C790 H778 0.959 . S
C790 C788 1.561 . S
C791 C788 1.526 1_545 S
C791 C792 1.396 . S
C791 C796 1.390 . S
C792 C786 1.465 . S
C792 C791 1.396 . S
C792 C793 1.399 . S
C793 H779 0.929 . S
C793 C792 1.399 . S
C793 C794 1.385 . S
C794 H780 0.931 . S
C794 C793 1.385 . S
C794 C795 1.389 . S
C795 C794 1.389 . S
C795 C796 1.387 . S
C796 H781 0.930 . S
C796 C791 1.390 . S
C796 C795 1.387 . S
H797 C809 0.930 . S
H798 C811 0.930 . S
H799 C812 0.930 . S
H800 C816 0.959 . S
H801 C816 0.959 . S
H802 C816 0.961 . S
H803 C817 0.960 . S
H804 C817 0.961 . S
H805 C817 0.959 . S
H806 C820 0.929 . S
H807 C821 0.931 . S
H808 C823 0.930 . S
C809 H797 0.930 . S
C809 C810 1.399 . S
C809 C814 1.399 . S
C810 C809 1.399 . S
C810 C811 1.376 . S
C811 H798 0.930 . S
C811 C810 1.376 . S
C811 C812 1.388 . S
C812 H799 0.930 . S
C812 C811 1.388 . S
C812 C813 1.390 . S
C813 C812 1.390 . S
C813 C814 1.394 . S
C813 C819 1.465 . S
C814 C809 1.399 . S
C814 C813 1.394 . S
C814 C815 1.516 1_545 S
C815 C814 1.516 1_565 S
C815 C816 1.502 . S
C815 C817 1.561 . S
C815 C818 1.526 . S
C816 H800 0.959 . S
C816 H801 0.959 . S
C816 H802 0.961 . S
C816 C815 1.502 . S
C817 H803 0.960 . S
C817 H804 0.961 . S
C817 H805 0.959 . S
C817 C815 1.561 . S
C818 C815 1.526 . S
C818 C819 1.396 1_565 S
C818 C823 1.390 . S
C819 C813 1.465 . S
C819 C818 1.396 1_545 S
C819 C820 1.399 . S
C820 H806 0.929 . S
C820 C819 1.399 . S
C820 C821 1.385 1_545 S
C821 H807 0.931 . S
C821 C820 1.385 1_565 S
C821 C822 1.389 . S
C822 C821 1.389 . S
C822 C823 1.387 . S
C823 H808 0.930 . S
C823 C818 1.390 . S
C823 C822 1.387 . S
C189 C40 1.333 . S
C201 C8 1.362 . S
C216 C62 1.369 . S
C228 C74 1.339 . S
C243 C128 1.333 . S
C255 C96 1.363 . S
C270 C150 1.331 . S
C282 C162 1.363 . S
C297 C18 1.599 . S
C309 C142 1.634 . S
C324 C32 1.621 . S
C336 C172 1.607 . S
C351 C106 1.600 . S
C363 C54 1.634 . S
C378 C84 1.600 . S
C390 C120 1.634 . S
C405 C65 1.017 . S
C417 C15 1.013 . S
C432 C81 1.020 . S
C444 C43 0.976 . S
C459 C103 1.038 . S
C471 C153 0.990 . S
C486 C131 1.057 . S
C498 C169 0.949 . S
C513 C7 1.571 . S
C525 C37 1.561 . S
C540 C73 1.544 . S
C552 C59 1.530 . S
C567 C125 1.571 . S
C579 C95 1.561 . S
C594 C161 1.545 . S
C606 C147 1.529 . S
C621 C10 1.214 1_556 S
C633 C87 1.319 . S
C648 C30 1.284 . S
C660 C51 1.301 . S
C675 C29 1.309 . S
C687 C52 1.250 1_554 S
C702 C21 1.285 . S
C714 C76 1.305 . S
C729 C98 1.294 1_556 S
C741 C175 1.286 . S
C756 C139 1.305 . S
C768 C118 1.234 . S
C783 C117 1.287 . S
C795 C140 1.304 1_554 S
C810 C164 1.273 . S
C822 C109 1.296 . S
