# Generated by pormake.
# Topology uou, (4)-cn, num edge types: 1
# Building blocks:
#     Node 0, Type 0, BuildingBlock: UXUYUI_clean_sbu_0, # of connection points: 4
#     Node 1, Type 0, BuildingBlock: UXUYUI_clean_sbu_0, # of connection points: 4
#     Node 2, Type 0, BuildingBlock: UXUYUI_clean_sbu_0, # of connection points: 4
#     Node 3, Type 0, BuildingBlock: UXUYUI_clean_sbu_0, # of connection points: 4
#     Node 4, Type 0, BuildingBlock: UXUYUI_clean_sbu_0, # of connection points: 4
#     Node 5, Type 0, BuildingBlock: UXUYUI_clean_sbu_0, # of connection points: 4
#     Node 6, Type 0, BuildingBlock: UXUYUI_clean_sbu_0, # of connection points: 4
#     Node 7, Type 0, BuildingBlock: UXUYUI_clean_sbu_0, # of connection points: 4
#     Node 8, Type 0, BuildingBlock: UXUYUI_clean_sbu_0, # of connection points: 4
#     Node 9, Type 0, BuildingBlock: UXUYUI_clean_sbu_0, # of connection points: 4
#     Node 10, Type 0, BuildingBlock: UXUYUI_clean_sbu_0, # of connection points: 4
#     Node 11, Type 0, BuildingBlock: UXUYUI_clean_sbu_0, # of connection points: 4
#     Node 12, Type 0, BuildingBlock: UXUYUI_clean_sbu_0, # of connection points: 4
#     Node 13, Type 0, BuildingBlock: UXUYUI_clean_sbu_0, # of connection points: 4
#     Node 14, Type 0, BuildingBlock: UXUYUI_clean_sbu_0, # of connection points: 4
#     Node 15, Type 0, BuildingBlock: UXUYUI_clean_sbu_0, # of connection points: 4
#     Edge 16, Type (0, 0), None
#     Edge 17, Type (0, 0), None
#     Edge 18, Type (0, 0), None
#     Edge 19, Type (0, 0), None
#     Edge 20, Type (0, 0), None
#     Edge 21, Type (0, 0), None
#     Edge 22, Type (0, 0), None
#     Edge 23, Type (0, 0), None
#     Edge 24, Type (0, 0), None
#     Edge 25, Type (0, 0), None
#     Edge 26, Type (0, 0), None
#     Edge 27, Type (0, 0), None
#     Edge 28, Type (0, 0), None
#     Edge 29, Type (0, 0), None
#     Edge 30, Type (0, 0), None
#     Edge 31, Type (0, 0), None
#     Edge 32, Type (0, 0), None
#     Edge 33, Type (0, 0), None
#     Edge 34, Type (0, 0), None
#     Edge 35, Type (0, 0), None
#     Edge 36, Type (0, 0), None
#     Edge 37, Type (0, 0), None
#     Edge 38, Type (0, 0), None
#     Edge 39, Type (0, 0), None
#     Edge 40, Type (0, 0), None
#     Edge 41, Type (0, 0), None
#     Edge 42, Type (0, 0), None
#     Edge 43, Type (0, 0), None
#     Edge 44, Type (0, 0), None
#     Edge 45, Type (0, 0), None
#     Edge 46, Type (0, 0), None
#     Edge 47, Type (0, 0), None
# Relax obj value: 0.194
# Max RMSD: 0.198
# Mean RMSD: 0.197
data_MOF--net-uou--node1-UXUYUI_clean_sbu_0--edge1-none
_symmetry_space_group_name_H-M    P1
_symmetry_Int_Tables_number       1
_symmetry_cell_setting            triclinic
loop_
_symmetry_equiv_pos_as_xyz
'x, y, z'
_cell_length_a     35.80052
_cell_length_b     34.903692
_cell_length_c     48.998925
_cell_angle_alpha  89.999377
_cell_angle_beta   90.000032
_cell_angle_gamma 90.000237
loop_
_atom_site_label
_atom_site_type_symbol
_atom_site_fract_x
_atom_site_fract_y
_atom_site_fract_z
_atom_type_partial_charge
Li0 Li 0.05515 0.04727 0.09979 0.0
Li1 Li 0.11194 0.05624 0.12366 0.0
Li2 Li 0.05274 0.04699 0.14957 0.0
Li3 Li 0.06233 0.10845 0.12097 0.0
C4 C 0.08259 0.97325 0.12067 0.0
N5 N 0.08951 0.89564 0.11076 0.0
C6 C 0.11295 0.95931 0.10572 0.0
C7 C 0.05618 0.94762 0.13107 0.0
C8 C 0.11583 0.92 0.1008 0.0
C9 C 0.06004 0.90852 0.12569 0.0
C10 C 0.10069 0.08431 0.06454 0.0
C11 C 0.09849 0.11196 0.01944 0.0
N12 N 0.1111 0.07838 0.0088 0.0
C13 C 0.1142 0.05029 0.05318 0.0
C14 C 0.0932 0.11558 0.04758 0.0
C15 C 0.11904 0.04776 0.02495 0.0
C16 C 0.0174 0.05506 0.05056 0.0
N17 N 0.03347 0.02786 0.06662 0.0
C18 C 0.0246 0.98063 0.03191 0.0
C19 C 0.03671 0.99098 0.058 0.0
C20 C 0.00898 0.00849 0.0146 0.0
C21 C 0.00486 0.04599 0.02442 0.0
H22 H 0.0157 0.08431 0.05771 0.0
H23 H 0.04954 0.96975 0.07091 0.0
C24 C 0.17453 0.02187 0.14804 0.0
N25 N 0.16353 0.04241 0.12585 0.0
C26 C 0.21037 0.00606 0.14919 0.0
C27 C 0.22288 0.0326 0.10456 0.0
C28 C 0.18704 0.04856 0.1045 0.0
C29 C 0.23474 0.01068 0.12699 0.0
H30 H 0.15496 0.01671 0.16446 0.0
H31 H 0.17761 0.06482 0.08705 0.0
C32 C 0.98465 0.06273 0.11393 0.0
N33 N 0.91676 0.0397 0.09271 0.0
C34 C 0.96128 0.08929 0.10112 0.0
C35 C 0.97326 0.02459 0.11628 0.0
C36 C 0.92712 0.07706 0.09043 0.0
C37 C 0.93891 0.01346 0.10532 0.0
C38 C 0.12177 0.10523 0.16501 0.0
C39 C 0.13533 0.09248 0.19016 0.0
C40 C 0.14097 0.13376 0.15076 0.0
C41 C 0.16808 0.10851 0.20064 0.0
C42 C 0.17361 0.14908 0.16193 0.0
N43 N 0.18639 0.13623 0.18643 0.0
C44 C 0.0567 0.01317 0.20146 0.0
C45 C 0.99731 0.03854 0.18995 0.0
C46 C 0.04517 0.00697 0.22835 0.0
N47 N 0.03305 0.02957 0.18318 0.0
C48 C 0.9845 0.03252 0.21652 0.0
C49 C 0.00892 0.01763 0.23633 0.0
H50 H 0.0851 0.00671 0.19549 0.0
H51 H 0.97937 0.05227 0.17513 0.0
C52 C 0.02916 0.17271 0.09683 0.0
N53 N 0.0473 0.16077 0.11966 0.0
C54 C 0.01195 0.2086 0.0961 0.0
C55 C 0.03261 0.21952 0.1424 0.0
C56 C 0.04952 0.18336 0.14221 0.0
C57 C 0.01305 0.23238 0.11923 0.0
H58 H 0.02654 0.15358 0.07958 0.0
H59 H 0.06332 0.17279 0.16034 0.0
O60 O 0.07938 0.01158 0.12595 0.0
O61 O 0.09485 0.08705 0.0921 0.0
O62 O 0.01855 0.0739 0.12407 0.0
O63 O 0.0903 0.08929 0.15404 0.0
H64 H 0.13417 0.97852 0.09807 0.0
H65 H 0.03308 0.95776 0.14332 0.0
H66 H 0.13907 0.90885 0.08914 0.0
H67 H 0.0397 0.88838 0.1335 0.0
H68 H 0.09258 0.13586 0.00607 0.0
H69 H 0.12021 0.02589 0.06597 0.0
H70 H 0.08349 0.14239 0.05603 0.0
H71 H 0.129 0.02141 0.01588 0.0
H72 H 0.0277 0.95121 0.02527 0.0
H73 H 0.9933 0.06842 0.01171 0.0
H74 H 0.21846 0.98918 0.16678 0.0
H75 H 0.24106 0.03712 0.08719 0.0
H76 H 0.96946 0.11899 0.09933 0.0
H77 H 0.99092 0.00378 0.12626 0.0
H78 H 0.90886 0.09726 0.08033 0.0
H79 H 0.92988 0.98396 0.10683 0.0
H80 H 0.12082 0.07032 0.20139 0.0
H81 H 0.13089 0.14374 0.13117 0.0
H82 H 0.17899 0.09886 0.22005 0.0
H83 H 0.18884 0.17111 0.15111 0.0
H84 H 0.06478 0.99526 0.24297 0.0
H85 H 0.95655 0.04171 0.22188 0.0
H86 H 0.99673 0.21699 0.07796 0.0
H87 H 0.03454 0.23704 0.16058 0.0
Li88 Li 0.44435 0.89417 0.12097 0.0
Li89 Li 0.45405 0.95567 0.1495 0.0
Li90 Li 0.39481 0.94647 0.12359 0.0
Li91 Li 0.45165 0.95529 0.09974 0.0
C92 C 0.38498 0.89741 0.16497 0.0
N93 N 0.32047 0.86617 0.18638 0.0
C94 C 0.37139 0.91008 0.19013 0.0
C95 C 0.36586 0.86883 0.1507 0.0
C96 C 0.33869 0.89393 0.20061 0.0
C97 C 0.33327 0.85339 0.16188 0.0
C98 C 0.52208 0.93967 0.11379 0.0
C99 C 0.56798 0.98872 0.10503 0.0
N100 N 0.5899 0.9624 0.09229 0.0
C101 C 0.54521 0.91301 0.10084 0.0
C102 C 0.53367 0.97774 0.11613 0.0
C103 C 0.57934 0.9251 0.09002 0.0
C104 C 0.47715 0.82969 0.09684 0.0
N105 N 0.4593 0.84183 0.11974 0.0
C106 C 0.47428 0.78329 0.14265 0.0
C107 C 0.45737 0.81945 0.1424 0.0
C108 C 0.49354 0.77022 0.11941 0.0
C109 C 0.49434 0.79379 0.09616 0.0
H110 H 0.47956 0.84867 0.0795 0.0
H111 H 0.44381 0.83019 0.16059 0.0
C112 C 0.45009 0.98941 0.20141 0.0
N113 N 0.47375 0.97308 0.1831 0.0
C114 C 0.46164 0.99557 0.2283 0.0
C115 C 0.52233 0.97013 0.21642 0.0
C116 C 0.50951 0.96415 0.18985 0.0
C117 C 0.4979 0.98493 0.23626 0.0
H118 H 0.42167 0.99584 0.19545 0.0
H119 H 0.52745 0.95048 0.17501 0.0
C120 C 0.40592 0.91829 0.06452 0.0
N121 N 0.39524 0.92416 0.0088 0.0
C122 C 0.39262 0.95239 0.05315 0.0
C123 C 0.41307 0.88692 0.04758 0.0
C124 C 0.38763 0.95489 0.02494 0.0
C125 C 0.40765 0.89051 0.01946 0.0
C126 C 0.4244 0.0294 0.1205 0.0
C127 C 0.39407 0.04342 0.10554 0.0
C128 C 0.45093 0.05495 0.13083 0.0
C129 C 0.39136 0.08272 0.10054 0.0
C130 C 0.44723 0.09405 0.12537 0.0
N131 N 0.4178 0.10701 0.11044 0.0
C132 C 0.33225 0.98084 0.14801 0.0
C133 C 0.31974 0.95433 0.10441 0.0
C134 C 0.29642 0.99667 0.14919 0.0
N135 N 0.34324 0.96038 0.12578 0.0
C136 C 0.28391 0.97032 0.1045 0.0
C137 C 0.27206 0.99216 0.12698 0.0
H138 H 0.35181 0.98591 0.16444 0.0
H139 H 0.32915 0.93813 0.08694 0.0
C140 C 0.48917 0.94728 0.05043 0.0
N141 N 0.4734 0.97459 0.06655 0.0
C142 C 0.50177 0.95631 0.0243 0.0
C143 C 0.48273 0.02185 0.03193 0.0
C144 C 0.47054 0.01153 0.058 0.0
C145 C 0.49804 0.99388 0.01456 0.0
H146 H 0.49061 0.91799 0.05753 0.0
H147 H 0.45796 0.03286 0.07097 0.0
O148 O 0.41639 0.91346 0.15401 0.0
O149 O 0.4882 0.92864 0.12405 0.0
O150 O 0.41188 0.91558 0.09207 0.0
O151 O 0.42746 0.99108 0.12586 0.0
H152 H 0.38584 0.93227 0.20137 0.0
H153 H 0.37596 0.85891 0.13111 0.0
H154 H 0.32777 0.90351 0.22003 0.0
H155 H 0.31811 0.83132 0.15104 0.0
H156 H 0.57715 0.01818 0.10654 0.0
H157 H 0.53688 0.88336 0.09906 0.0
H158 H 0.51619 0.99861 0.12621 0.0
H159 H 0.59743 0.90484 0.07981 0.0
H160 H 0.47259 0.76594 0.16093 0.0
H161 H 0.50933 0.78523 0.07795 0.0
H162 H 0.44201 0.00721 0.24294 0.0
H163 H 0.55029 0.96095 0.22176 0.0
H164 H 0.38687 0.97688 0.06593 0.0
H165 H 0.42262 0.86005 0.05604 0.0
H166 H 0.37782 0.98129 0.01586 0.0
H167 H 0.4133 0.86652 0.0061 0.0
H168 H 0.37276 0.02427 0.09795 0.0
H169 H 0.47401 0.04476 0.14309 0.0
H170 H 0.36815 0.09393 0.08887 0.0
H171 H 0.46766 0.11413 0.13312 0.0
H172 H 0.28834 0.01349 0.1668 0.0
H173 H 0.26573 0.96588 0.08711 0.0
H174 H 0.51307 0.93379 0.01154 0.0
H175 H 0.47995 0.05134 0.02536 0.0
Li176 Li 0.61202 0.94608 0.37808 0.0
Li177 Li 0.55526 0.95504 0.40198 0.0
Li178 Li 0.56242 0.89387 0.38076 0.0
Li179 Li 0.55282 0.95537 0.3522 0.0
C180 C 0.60067 0.91796 0.43721 0.0
N181 N 0.6108 0.92388 0.49298 0.0
C182 C 0.61429 0.95191 0.4486 0.0
C183 C 0.59293 0.88675 0.45416 0.0
C184 C 0.61899 0.95445 0.47684 0.0
C185 C 0.59808 0.89036 0.48231 0.0
C186 C 0.5827 0.02907 0.38116 0.0
C187 C 0.56021 0.09384 0.37624 0.0
N188 N 0.58971 0.10666 0.39115 0.0
C189 C 0.61311 0.04295 0.3961 0.0
C190 C 0.5563 0.05475 0.37082 0.0
C191 C 0.61603 0.08225 0.40106 0.0
C192 C 0.67457 0.98049 0.35369 0.0
N193 N 0.6636 0.95993 0.37587 0.0
C194 C 0.72294 0.96978 0.39715 0.0
C195 C 0.68712 0.95379 0.39721 0.0
C196 C 0.73477 0.99174 0.37473 0.0
C197 C 0.7104 0.99634 0.35253 0.0
H198 H 0.65499 0.98565 0.33728 0.0
H199 H 0.67771 0.93751 0.41466 0.0
C200 C 0.51714 0.94719 0.45103 0.0
N201 N 0.53359 0.97438 0.43517 0.0
C202 C 0.5045 0.95613 0.47716 0.0
C203 C 0.52508 0.02131 0.47013 0.0
C204 C 0.53722 0.01111 0.44402 0.0
C205 C 0.50897 0.99346 0.4872 0.0
H206 H 0.5152 0.91803 0.44372 0.0
H207 H 0.55041 0.03232 0.43128 0.0
C208 C 0.62183 0.89717 0.33669 0.0
N209 N 0.68646 0.86626 0.31522 0.0
C210 C 0.63535 0.90996 0.31154 0.0
C211 C 0.64107 0.86863 0.35091 0.0
C212 C 0.66811 0.89398 0.30103 0.0
C213 C 0.67372 0.85336 0.33971 0.0
C214 C 0.48467 0.93958 0.3877 0.0
C215 C 0.4611 0.91292 0.40022 0.0
C216 C 0.47338 0.97776 0.3855 0.0
C217 C 0.42684 0.92511 0.41075 0.0
C218 C 0.43892 0.98884 0.39629 0.0
N219 N 0.41657 0.96251 0.40862 0.0
C220 C 0.52904 0.82974 0.40487 0.0
C221 C 0.54969 0.81887 0.35959 0.0
C222 C 0.51181 0.79385 0.40563 0.0
N223 N 0.54734 0.84156 0.38208 0.0
C224 C 0.53277 0.78271 0.35943 0.0
C225 C 0.51306 0.76996 0.38256 0.0
H226 H 0.5263 0.84895 0.42206 0.0
H227 H 0.56362 0.82934 0.34148 0.0
C228 C 0.55672 0.98931 0.30035 0.0
N229 N 0.5331 0.97283 0.31861 0.0
C230 C 0.54517 0.99556 0.27347 0.0
C231 C 0.48454 0.96991 0.28528 0.0
C232 C 0.49736 0.96383 0.31184 0.0
C233 C 0.50894 0.98486 0.26548 0.0
H234 H 0.58512 0.99579 0.30633 0.0
H235 H 0.47945 0.95005 0.32664 0.0
O236 O 0.59497 0.91524 0.40964 0.0
O237 O 0.57946 0.99076 0.37583 0.0
O238 O 0.59036 0.91305 0.34769 0.0
O239 O 0.51866 0.92844 0.3777 0.0
H240 H 0.6205 0.97628 0.43581 0.0
H241 H 0.58314 0.85998 0.4457 0.0
H242 H 0.62903 0.98075 0.48593 0.0
H243 H 0.59198 0.8665 0.49568 0.0
H244 H 0.53987 0.11401 0.36847 0.0
H245 H 0.63433 0.02371 0.40371 0.0
H246 H 0.53317 0.04466 0.35857 0.0
H247 H 0.63931 0.09335 0.41271 0.0
H248 H 0.74113 0.96528 0.41453 0.0
H249 H 0.71846 0.01325 0.33496 0.0
H250 H 0.49256 0.93371 0.4897 0.0
H251 H 0.52849 0.05061 0.47697 0.0
H252 H 0.6208 0.93211 0.30033 0.0
H253 H 0.63103 0.85862 0.3705 0.0
H254 H 0.67898 0.90365 0.28162 0.0
H255 H 0.68898 0.83133 0.35052 0.0
H256 H 0.4692 0.88318 0.40189 0.0
H257 H 0.49119 0.99864 0.37574 0.0
H258 H 0.40842 0.90483 0.42063 0.0
H259 H 0.42996 0.01837 0.39488 0.0
H260 H 0.49647 0.78556 0.42373 0.0
H261 H 0.53481 0.7651 0.34129 0.0
H262 H 0.56477 0.00732 0.25886 0.0
H263 H 0.4566 0.96068 0.27991 0.0
Li264 Li 0.95156 0.0472 0.40209 0.0
Li265 Li 0.89477 0.05608 0.37819 0.0
Li266 Li 0.95402 0.04689 0.35232 0.0
Li267 Li 0.94432 0.10836 0.38089 0.0
C268 C 0.92424 0.97313 0.38123 0.0
N269 N 0.91741 0.89552 0.3912 0.0
C270 C 0.89388 0.95917 0.39618 0.0
C271 C 0.95069 0.94753 0.37087 0.0
C272 C 0.89104 0.91987 0.40113 0.0
C273 C 0.94687 0.90842 0.37627 0.0
C274 C 0.90591 0.08422 0.4373 0.0
C275 C 0.90792 0.11195 0.48238 0.0
N276 N 0.89539 0.07834 0.49304 0.0
C277 C 0.89248 0.05017 0.44868 0.0
C278 C 0.91327 0.11554 0.45424 0.0
C279 C 0.88758 0.04767 0.4769 0.0
C280 C 0.98919 0.05509 0.45136 0.0
N281 N 0.97323 0.02785 0.43528 0.0
C282 C 0.98218 0.98063 0.46999 0.0
C283 C 0.97009 0.99096 0.44389 0.0
C284 C 0.99769 0.00853 0.48732 0.0
C285 C 1.00171 0.04605 0.47751 0.0
H286 H 0.99082 0.08435 0.44422 0.0
H287 H 0.95736 0.96969 0.43096 0.0
C288 C 0.83226 0.02168 0.35374 0.0
N289 N 0.84321 0.04217 0.37596 0.0
C290 C 0.79644 0.0058 0.35255 0.0
C291 C 0.78387 0.03219 0.39722 0.0
C292 C 0.81968 0.04821 0.39731 0.0
C293 C 0.77206 0.01031 0.37475 0.0
H294 H 0.85184 0.0166 0.33732 0.0
H295 H 0.82907 0.06443 0.41479 0.0
C296 C 0.02204 0.06274 0.388 0.0
N297 N 0.0899 0.0398 0.40933 0.0
C298 C 0.04532 0.08933 0.40087 0.0
C299 C 0.0335 0.02462 0.38566 0.0
C300 C 0.07947 0.07714 0.4116 0.0
C301 C 0.06783 0.01354 0.39666 0.0
C302 C 0.88496 0.1051 0.33683 0.0
C303 C 0.87144 0.09239 0.31166 0.0
C304 C 0.86574 0.13361 0.35108 0.0
C305 C 0.83871 0.10844 0.30116 0.0
C306 C 0.83312 0.14896 0.33989 0.0
N307 N 0.82038 0.13615 0.31538 0.0
C308 C 0.9501 0.0131 0.30042 0.0
C309 C 0.00948 0.03848 0.31195 0.0
C310 C 0.96165 0.00693 0.27353 0.0
N311 N 0.97374 0.02949 0.31871 0.0
C312 C 0.0223 0.03248 0.28538 0.0
C313 C 0.99789 0.01762 0.26556 0.0
H314 H 0.9217 0.00663 0.30639 0.0
H315 H 0.02741 0.0522 0.32678 0.0
C316 C 0.97734 0.17268 0.40504 0.0
N317 N 0.95929 0.16069 0.38219 0.0
C318 C 0.99454 0.20858 0.40577 0.0
C319 C 0.97404 0.2194 0.35942 0.0
C320 C 0.95714 0.18324 0.35962 0.0
C321 C 0.99351 0.23232 0.38261 0.0
H322 H 0.97991 0.15358 0.42231 0.0
H323 H 0.94341 0.17262 0.34146 0.0
O324 O 0.9274 0.01146 0.37592 0.0
O325 O 0.91179 0.08692 0.40975 0.0
O326 O 0.98815 0.07387 0.37781 0.0
O327 O 0.9164 0.08914 0.34781 0.0
H328 H 0.87262 0.97836 0.40381 0.0
H329 H 0.97379 0.95768 0.35862 0.0
H330 H 0.8678 0.9087 0.41278 0.0
H331 H 0.96725 0.88831 0.36849 0.0
H332 H 0.91373 0.13589 0.49574 0.0
H333 H 0.88657 0.02573 0.4359 0.0
H334 H 0.92291 0.14237 0.44579 0.0
H335 H 0.87768 0.02131 0.48598 0.0
H336 H 0.97917 0.95119 0.47661 0.0
H337 H 0.01318 0.06851 0.49024 0.0
H338 H 0.7884 0.98896 0.33494 0.0
H339 H 0.76567 0.03662 0.4146 0.0
H340 H 0.03709 0.11901 0.40266 0.0
H341 H 0.0159 0.0038 0.37564 0.0
H342 H 0.09767 0.09736 0.42176 0.0
H343 H 0.07691 0.98406 0.39515 0.0
H344 H 0.88596 0.07025 0.30042 0.0
H345 H 0.87578 0.14356 0.37068 0.0
H346 H 0.82783 0.09884 0.28173 0.0
H347 H 0.81788 0.17098 0.35072 0.0
H348 H 0.94204 0.99522 0.25891 0.0
H349 H 0.05025 0.0417 0.28003 0.0
H350 H 0.00969 0.21701 0.42393 0.0
H351 H 0.97217 0.23688 0.34121 0.0
Li352 Li 0.94453 0.89389 0.88068 0.0
Li353 Li 0.95341 0.955 0.90248 0.0
Li354 Li 0.8946 0.94482 0.88063 0.0
Li355 Li 0.95126 0.95282 0.8537 0.0
C356 C 0.9194 0.91036 0.93916 0.0
N357 N 0.92923 0.90358 0.99491 0.0
C358 C 0.95189 0.89367 0.94962 0.0
C359 C 0.89168 0.9231 0.95707 0.0
C360 C 0.9564 0.89063 0.97785 0.0
C361 C 0.89723 0.91954 0.98519 0.0
C362 C 0.02195 0.94561 0.87513 0.0
C363 C 0.05922 0.00301 0.87233 0.0
N364 N 0.09024 0.98118 0.8684 0.0
C365 C 0.05413 0.92374 0.87098 0.0
C366 C 0.02441 0.98558 0.87573 0.0
C367 C 0.08842 0.94227 0.86765 0.0
C368 C 0.97817 0.82994 0.85748 0.0
N369 N 0.95913 0.8412 0.88011 0.0
C370 C 0.97246 0.78149 0.90204 0.0
C371 C 0.95519 0.81748 0.90195 0.0
C372 C 0.99329 0.76965 0.87923 0.0
C373 C 0.99531 0.79403 0.85651 0.0
H374 H 0.98102 0.84941 0.84048 0.0
H375 H 0.93958 0.8268 0.9196 0.0
C376 C 0.95299 0.00129 0.94924 0.0
N377 N 0.97472 0.97702 0.93448 0.0
C378 C 0.96401 0.01263 0.97536 0.0
C379 C 0.02012 0.97476 0.97015 0.0
C380 C 0.00806 0.96421 0.94414 0.0
C381 C 0.99764 0.99867 0.98633 0.0
H382 H 0.92624 0.01031 0.94123 0.0
H383 H 0.02437 0.94415 0.93231 0.0
C384 C 0.88841 0.88442 0.84185 0.0
N385 N 0.83892 0.82782 0.82621 0.0
C386 C 0.88426 0.87516 0.81428 0.0
C387 C 0.86752 0.86482 0.86151 0.0
C388 C 0.85905 0.84648 0.80678 0.0
C389 C 0.84261 0.83633 0.85317 0.0
C390 C 0.90926 0.0184 0.86273 0.0
C391 C 0.88959 0.00785 0.83924 0.0
C392 C 0.9098 0.05675 0.87086 0.0
C393 C 0.87078 0.03593 0.82428 0.0
C394 C 0.89071 0.084 0.85531 0.0
N395 N 0.87173 0.07311 0.83255 0.0
C396 C 0.83198 0.98044 0.90363 0.0
C397 C 0.81932 0.95307 0.86035 0.0
C398 C 0.79636 0.99676 0.90454 0.0
N399 N 0.84272 0.95893 0.88185 0.0
C400 C 0.78369 0.96955 0.86016 0.0
C401 C 0.77196 0.99189 0.88241 0.0
H402 H 0.85169 0.98623 0.91982 0.0
H403 H 0.82879 0.93707 0.84279 0.0
C404 C 0.98882 0.93574 0.80775 0.0
N405 N 0.97209 0.96667 0.81919 0.0
C406 C 1.00225 0.93729 0.78117 0.0
C407 C 0.98211 0.00324 0.77847 0.0
C408 C 0.96956 1.00056 0.80553 0.0
C409 C 0.9978 0.97088 0.76569 0.0
H410 H 0.99092 0.9094 0.81921 0.0
H411 H 0.95693 0.02518 0.81518 0.0
O412 O 0.91491 0.91443 0.91155 0.0
O413 O 0.98818 0.92778 0.87804 0.0
O414 O 0.91313 0.91232 0.8494 0.0
O415 O 0.92698 0.99141 0.87831 0.0
H416 H 0.97383 0.88403 0.93606 0.0
H417 H 0.86611 0.93551 0.94941 0.0
H418 H 0.98162 0.87823 0.98621 0.0
H419 H 0.87607 0.92946 0.99928 0.0
H420 H 0.06158 0.0339 0.87279 0.0
H421 H 0.05258 0.89278 0.8703 0.0
H422 H 0.99977 0.00298 0.87877 0.0
H423 H 0.11358 0.92571 0.86444 0.0
H424 H 0.96971 0.76318 0.91977 0.0
H425 H 0.01109 0.78597 0.83854 0.0
H426 H 0.94571 0.03085 0.98724 0.0
H427 H 0.04646 0.96378 0.9777 0.0
H428 H 0.90036 0.89003 0.79886 0.0
H429 H 0.87038 0.87153 0.88294 0.0
H430 H 0.85551 0.83903 0.7855 0.0
H431 H 0.82621 0.82096 0.86814 0.0
H432 H 0.88894 0.97838 0.83252 0.0
H433 H 0.9247 0.06533 0.8891 0.0
H434 H 0.85546 0.02815 0.80607 0.0
H435 H 0.89088 0.1138 0.86139 0.0
H436 H 0.78848 0.01425 0.92187 0.0
H437 H 0.7656 0.96516 0.84272 0.0
H438 H 0.01543 0.91202 0.77271 0.0
H439 H 0.97834 0.02984 0.76745 0.0
Li440 Li 0.56174 0.10744 0.87995 0.0
Li441 Li 0.5532 0.04661 0.90211 0.0
Li442 Li 0.61186 0.05692 0.88006 0.0
Li443 Li 0.5551 0.04826 0.85326 0.0
C444 C 0.58626 0.09254 0.93832 0.0
N445 N 0.57482 0.10138 0.99376 0.0
C446 C 0.55391 0.11048 0.94793 0.0
C447 C 0.61298 0.07951 0.95692 0.0
C448 C 0.54859 0.11458 0.97602 0.0
C449 C 0.60664 0.08414 0.98486 0.0
C450 C 0.48455 0.05498 0.87542 0.0
C451 C 0.44809 0.99699 0.873 0.0
N452 N 0.41651 0.01835 0.87044 0.0
C453 C 0.45177 0.07635 0.8727 0.0
C454 C 0.48279 0.01496 0.87551 0.0
C455 C 0.41762 0.0573 0.87023 0.0
C456 C 0.52451 0.17012 0.85816 0.0
N457 N 0.5469 0.16003 0.87938 0.0
C458 C 0.53709 0.22098 0.90054 0.0
C459 C 0.55416 0.18488 0.90009 0.0
C460 C 0.51294 0.23168 0.87923 0.0
C461 C 0.50738 0.20604 0.85756 0.0
H462 H 0.51902 0.14973 0.84207 0.0
H463 H 0.57228 0.17635 0.91665 0.0
C464 C 0.55367 1.00042 0.94898 0.0
N465 N 0.53214 0.02498 0.93431 0.0
C466 C 0.54272 0.98924 0.97515 0.0
C467 C 0.48711 0.02794 0.97021 0.0
C468 C 0.4991 0.03833 0.94415 0.0
C469 C 0.50937 0.00366 0.98627 0.0
H470 H 0.58022 0.99099 0.94083 0.0
H471 H 0.48296 0.05863 0.9324 0.0
C472 C 0.61782 0.11673 0.84098 0.0
N473 N 0.66752 0.17298 0.82507 0.0
C474 C 0.62272 0.12502 0.81332 0.0
C475 C 0.63808 0.1371 0.86058 0.0
C476 C 0.64802 0.15355 0.80568 0.0
C477 C 0.66311 0.16542 0.85211 0.0
C478 C 0.59754 0.98294 0.86266 0.0
C479 C 0.61772 0.99331 0.83937 0.0
C480 C 0.59667 0.94462 0.87087 0.0
C481 C 0.63671 0.9651 0.82467 0.0
C482 C 0.61595 0.91723 0.85557 0.0
N483 N 0.63543 0.92795 0.833 0.0
C484 C 0.67466 0.02222 0.90341 0.0
C485 C 0.68731 0.04893 0.85992 0.0
C486 C 0.71035 0.00605 0.90449 0.0
N487 N 0.66386 0.04326 0.88142 0.0
C488 C 0.723 0.0326 0.85991 0.0
C489 C 0.73475 0.01063 0.88233 0.0
H490 H 0.65495 0.01663 0.91964 0.0
H491 H 0.67782 0.06463 0.84223 0.0
C492 C 0.51499 0.06432 0.80827 0.0
N493 N 0.53399 0.03416 0.81883 0.0
C494 C 0.50118 0.06304 0.78179 0.0
C495 C 0.52567 0.99888 0.77732 0.0
C496 C 0.53845 0.00115 0.80435 0.0
C497 C 0.5077 0.03065 0.76543 0.0
H498 H 0.51144 0.08996 0.82032 0.0
H499 H 0.55283 0.97703 0.81326 0.0
O500 O 0.59147 0.0874 0.91088 0.0
O501 O 0.51814 0.07337 0.87764 0.0
O502 O 0.59304 0.08894 0.84865 0.0
O503 O 0.57978 0.0101 0.87807 0.0
H504 H 0.53268 0.12029 0.93385 0.0
H505 H 0.63837 0.06599 0.9499 0.0
H506 H 0.52348 0.128 0.98372 0.0
H507 H 0.62701 0.07401 0.99948 0.0
H508 H 0.44628 0.96605 0.87307 0.0
H509 H 0.45276 0.10736 0.87248 0.0
H510 H 0.50785 0.99792 0.87751 0.0
H511 H 0.39201 0.07348 0.86813 0.0
H512 H 0.54255 0.24023 0.91741 0.0
H513 H 0.48892 0.21315 0.84079 0.0
H514 H 0.56086 0.97072 0.98693 0.0
H515 H 0.46099 0.0393 0.97787 0.0
H516 H 0.60714 0.10952 0.79793 0.0
H517 H 0.63465 0.13115 0.88208 0.0
H518 H 0.65214 0.16025 0.78433 0.0
H519 H 0.67902 0.18138 0.86704 0.0
H520 H 0.61857 0.02275 0.83258 0.0
H521 H 0.5814 0.93619 0.88897 0.0
H522 H 0.65243 0.97274 0.80661 0.0
H523 H 0.61553 0.88746 0.8617 0.0
H524 H 0.71825 0.98888 0.92197 0.0
H525 H 0.74111 0.03678 0.84245 0.0
H526 H 0.48621 0.08771 0.77406 0.0
H527 H 0.5311 0.97316 0.76563 0.0
Li528 Li 0.39437 0.05755 0.62122 0.0
Li529 Li 0.45084 0.04988 0.64791 0.0
Li530 Li 0.44432 0.10871 0.62103 0.0
Li531 Li 0.45299 0.04671 0.59913 0.0
C532 C 0.38794 0.11831 0.65956 0.0
N533 N 0.33808 0.17486 0.67466 0.0
C534 C 0.38349 0.12784 0.68706 0.0
C535 C 0.36715 0.13761 0.6397 0.0
C536 C 0.35811 0.1565 0.69429 0.0
C537 C 0.34205 0.16609 0.64776 0.0
C538 C 0.40899 0.98408 0.63948 0.0
C539 C 0.38995 0.91868 0.64716 0.0
N540 N 0.37174 0.92978 0.6702 0.0
C541 C 0.39007 0.99484 0.66325 0.0
C542 C 0.4089 0.94573 0.63133 0.0
C543 C 0.37141 0.96696 0.67849 0.0
C544 C 0.33163 0.02239 0.5981 0.0
N545 N 0.34253 0.04346 0.62005 0.0
C546 C 0.28366 0.03243 0.64187 0.0
C547 C 0.3193 0.04888 0.64171 0.0
C548 C 0.27176 0.01054 0.61944 0.0
C549 C 0.296 0.0061 0.59717 0.0
H550 H 0.35122 0.01691 0.58178 0.0
H551 H 0.32892 0.06455 0.65938 0.0
C552 C 0.48612 0.06771 0.69473 0.0
N553 N 0.47167 0.03622 0.68245 0.0
C554 C 0.49936 0.06587 0.72135 0.0
C555 C 0.48344 0.99863 0.72244 0.0
C556 C 0.47106 0.00166 0.69535 0.0
C557 C 0.49696 0.03137 0.73604 0.0
H558 H 0.48663 0.09462 0.68388 0.0
H559 H 0.46007 0.97672 0.68506 0.0
C560 C 0.41909 0.09179 0.56253 0.0
N561 N 0.42884 0.09849 0.50677 0.0
C562 C 0.45192 0.1077 0.55202 0.0
C563 C 0.39101 0.07979 0.54466 0.0
C564 C 0.45639 0.1107 0.52378 0.0
C565 C 0.39651 0.08331 0.51654 0.0
C566 C 0.52169 0.05922 0.62917 0.0
C567 C 0.55038 0.08301 0.63845 0.0
C568 C 0.52774 0.01979 0.6269 0.0
C569 C 0.5849 0.06691 0.64519 0.0
C570 C 0.56266 0.00481 0.63382 0.0
N571 N 0.59027 0.02848 0.64274 0.0
C572 C 0.47712 0.17305 0.64447 0.0
C573 C 0.45631 0.18468 0.59933 0.0
C574 C 0.49424 0.20897 0.64553 0.0
N575 N 0.45916 0.16137 0.62148 0.0
C576 C 0.47358 0.22067 0.59934 0.0
C577 C 0.49331 0.23293 0.62255 0.0
H578 H 0.47912 0.15392 0.66172 0.0
H579 H 0.4415 0.17507 0.58139 0.0
C580 C 0.45214 1.00099 0.55211 0.0
N581 N 0.47418 0.0245 0.56725 0.0
C582 C 0.46334 0.98977 0.52601 0.0
C583 C 0.5202 0.02623 0.532 0.0
C584 C 0.50797 0.03664 0.558 0.0
C585 C 0.49744 0.00311 0.51545 0.0
H586 H 0.42505 0.99251 0.55982 0.0
H587 H 0.52454 0.05605 0.5702 0.0
O588 O 0.41283 0.09041 0.65231 0.0
O589 O 0.42667 0.01087 0.6237 0.0
O590 O 0.41466 0.08769 0.59014 0.0
O591 O 0.4875 0.07439 0.62309 0.0
H592 H 0.3995 0.1132 0.70264 0.0
H593 H 0.37021 0.13069 0.61832 0.0
H594 H 0.35434 0.16416 0.71551 0.0
H595 H 0.32572 0.18122 0.63263 0.0
H596 H 0.38965 0.88889 0.64108 0.0
H597 H 0.38986 0.02432 0.66996 0.0
H598 H 0.42322 0.937 0.61289 0.0
H599 H 0.35667 0.9749 0.69692 0.0
H600 H 0.2657 0.03648 0.65942 0.0
H601 H 0.288 0.98896 0.57969 0.0
H602 H 0.51087 0.09158 0.73041 0.0
H603 H 0.48124 0.97135 0.73284 0.0
H604 H 0.47414 0.11676 0.56554 0.0
H605 H 0.36518 0.06801 0.55237 0.0
H606 H 0.48186 0.12249 0.51539 0.0
H607 H 0.37506 0.07397 0.50248 0.0
H608 H 0.54594 0.11356 0.64052 0.0
H609 H 0.50566 1.00095 0.62002 0.0
H610 H 0.60739 0.08496 0.65241 0.0
H611 H 0.56778 0.97435 0.63217 0.0
H612 H 0.50916 0.21736 0.66382 0.0
H613 H 0.47166 0.23865 0.58138 0.0
H614 H 0.44484 0.97216 0.51383 0.0
H615 H 0.54689 0.03671 0.52474 0.0
Li616 Li 0.05516 0.95305 0.64831 0.0
Li617 Li 0.11184 0.94493 0.6214 0.0
Li618 Li 0.05307 0.95517 0.59952 0.0
Li619 Li 0.06186 0.8941 0.62135 0.0
C620 C 0.09728 0.01856 0.63925 0.0
N621 N 0.13488 0.07326 0.66938 0.0
C622 C 0.11707 0.008 0.66268 0.0
C623 C 0.09667 0.05693 0.63114 0.0
C624 C 0.13591 0.03607 0.67762 0.0
C625 C 0.1158 0.08417 0.64667 0.0
C626 C 0.118 0.88463 0.6602 0.0
C627 C 0.16364 0.83638 0.64889 0.0
N628 N 0.1676 0.82815 0.67587 0.0
C629 C 0.12243 0.87565 0.6878 0.0
C630 C 0.13867 0.86482 0.64054 0.0
C631 C 0.14768 0.84702 0.69532 0.0
C632 C 0.01714 0.93611 0.69408 0.0
N633 N 0.0343 0.96693 0.68281 0.0
C634 C 0.02462 0.00324 0.72369 0.0
C635 C 0.0372 1.00065 0.69663 0.0
C636 C 0.00851 0.97097 0.73629 0.0
C637 C 0.00366 0.93759 0.72064 0.0
H638 H 0.01476 0.90991 0.68249 0.0
H639 H 0.05016 0.0252 0.68713 0.0
C640 C 0.17443 0.98042 0.59834 0.0
N641 N 0.16375 0.95894 0.62014 0.0
C642 C 0.21007 0.99671 0.59736 0.0
C643 C 0.22287 0.96948 0.64171 0.0
C644 C 0.18722 0.95305 0.6416 0.0
C645 C 0.23454 0.99182 0.61945 0.0
H646 H 0.15467 0.98623 0.58218 0.0
H647 H 0.17779 0.93705 0.65917 0.0
C648 C 0.98452 0.94607 0.62666 0.0
N649 N 0.91632 0.98202 0.63286 0.0
C650 C 0.95211 0.92437 0.63031 0.0
C651 C 0.98232 0.98605 0.62627 0.0
C652 C 0.91787 0.94309 0.63338 0.0
C653 C 0.94755 0.00368 0.6294 0.0
C654 C 0.08688 0.91032 0.5629 0.0
C655 C 0.05442 0.89339 0.5526 0.0
C656 C 0.1144 0.92316 0.54486 0.0
C657 C 0.04975 0.89018 0.52438 0.0
C658 C 0.1087 0.91942 0.51677 0.0
N659 N 0.07673 0.90321 0.5072 0.0
C660 C 0.05352 0.00149 0.55276 0.0
C661 C 0.99855 0.96423 0.55776 0.0
C662 C 0.04254 0.0128 0.52662 0.0
N663 N 0.03182 0.97715 0.56749 0.0
C664 C 0.98653 0.97475 0.53174 0.0
C665 C 0.00899 0.99874 0.5156 0.0
H666 H 0.08022 0.0106 0.56082 0.0
H667 H 0.98227 0.94411 0.56957 0.0
C668 C 0.02748 0.83039 0.64425 0.0
N669 N 0.0472 0.84143 0.62188 0.0
C670 C 0.01032 0.79449 0.64512 0.0
C671 C 0.03454 0.78151 0.60003 0.0
C672 C 0.0518 0.81751 0.60022 0.0
C673 C 0.01303 0.76989 0.62256 0.0
H674 H 0.0241 0.85002 0.6611 0.0
H675 H 0.06793 0.82668 0.58278 0.0
O676 O 0.07955 0.99157 0.62368 0.0
O677 O 0.09324 0.9125 0.65265 0.0
O678 O 0.01822 0.92803 0.62395 0.0
O679 O 0.09151 0.91456 0.59048 0.0
H680 H 0.11777 0.97852 0.66939 0.0
H681 H 0.08168 0.06551 0.61295 0.0
H682 H 0.15132 0.02829 0.69578 0.0
H683 H 0.11556 0.11398 0.64062 0.0
H684 H 0.17988 0.82085 0.63391 0.0
H685 H 0.10651 0.8907 0.70323 0.0
H686 H 0.13561 0.87131 0.61909 0.0
H687 H 0.15144 0.8398 0.71661 0.0
H688 H 0.02871 0.02968 0.73484 0.0
H689 H 0.99015 0.91241 0.72896 0.0
H690 H 0.21789 0.01419 0.58001 0.0
H691 H 0.24102 0.96507 0.65912 0.0
H692 H 0.95345 0.89339 0.63081 0.0
H693 H 0.00711 0.00333 0.62359 0.0
H694 H 0.89254 0.92667 0.63621 0.0
H695 H 0.9454 0.0346 0.6291 0.0
H696 H 0.03262 0.88369 0.56625 0.0
H697 H 0.13994 0.93578 0.55241 0.0
H698 H 0.02455 0.87758 0.51615 0.0
H699 H 0.1297 0.92941 0.50258 0.0
H700 H 0.06082 0.03109 0.51478 0.0
H701 H 0.96025 0.96368 0.52415 0.0
H702 H 0.99399 0.7866 0.66287 0.0
H703 H 0.03782 0.76303 0.58244 0.0
Li704 Li 0.5625 0.60865 0.12126 0.0
Li705 Li 0.55292 0.54714 0.14981 0.0
Li706 Li 0.6121 0.55643 0.12389 0.0
Li707 Li 0.55532 0.54749 0.10003 0.0
C708 C 0.62197 0.60531 0.16529 0.0
N709 N 0.68666 0.63617 0.1867 0.0
C710 C 0.63553 0.5925 0.19042 0.0
C711 C 0.64121 0.63384 0.15105 0.0
C712 C 0.66832 0.60845 0.2009 0.0
C713 C 0.67388 0.64908 0.16223 0.0
C714 C 0.48471 0.56296 0.11441 0.0
C715 C 0.43896 0.5137 0.10582 0.0
N716 N 0.4165 0.54009 0.09365 0.0
C717 C 0.46103 0.58968 0.10207 0.0
C718 C 0.47348 0.52475 0.11653 0.0
C719 C 0.42671 0.57751 0.09161 0.0
C720 C 0.529 0.67272 0.09717 0.0
N721 N 0.5474 0.66096 0.11994 0.0
C722 C 0.53291 0.71985 0.14255 0.0
C723 C 0.54985 0.6837 0.14239 0.0
C724 C 0.51311 0.73254 0.11944 0.0
C725 C 0.51176 0.70859 0.09641 0.0
H726 H 0.52619 0.65346 0.08002 0.0
H727 H 0.56385 0.67327 0.16048 0.0
C728 C 0.55684 0.51321 0.20167 0.0
N729 N 0.53321 0.52966 0.1834 0.0
C730 C 0.54528 0.50695 0.22854 0.0
C731 C 0.48463 0.53255 0.21672 0.0
C732 C 0.49747 0.53863 0.19016 0.0
C733 C 0.50903 0.51761 0.23652 0.0
H734 H 0.58524 0.50675 0.19569 0.0
H735 H 0.47954 0.5524 0.17536 0.0
C736 C 0.60063 0.58456 0.06477 0.0
N737 N 0.61057 0.5786 0.00898 0.0
C738 C 0.6143 0.55063 0.05337 0.0
C739 C 0.59275 0.61573 0.04782 0.0
C740 C 0.6189 0.54808 0.02512 0.0
C741 C 0.5978 0.6121 0.01966 0.0
C742 C 0.58278 0.47344 0.1208 0.0
C743 C 0.61319 0.45958 0.10585 0.0
C744 C 0.55638 0.44775 0.13113 0.0
C745 C 0.61612 0.42029 0.10087 0.0
C746 C 0.5603 0.40866 0.1257 0.0
N747 N 0.5898 0.39586 0.11077 0.0
C748 C 0.67465 0.52198 0.14824 0.0
C749 C 0.68719 0.54874 0.10473 0.0
C750 C 0.71048 0.50612 0.14937 0.0
N751 N 0.66368 0.54257 0.12608 0.0
C752 C 0.723 0.53274 0.10477 0.0
C753 C 0.73484 0.51075 0.12717 0.0
H754 H 0.65509 0.51679 0.16465 0.0
H755 H 0.67777 0.56505 0.0873 0.0
C756 C 0.51694 0.5554 0.05111 0.0
N757 N 0.5336 0.52821 0.06685 0.0
C758 C 0.5042 0.54653 0.02499 0.0
C759 C 0.52524 0.48144 0.03175 0.0
C760 C 0.53743 0.49155 0.05787 0.0
C761 C 0.50887 0.50929 0.01483 0.0
H762 H 0.51487 0.5845 0.0585 0.0
H763 H 0.55083 0.47036 0.07051 0.0
O764 O 0.59047 0.58945 0.15432 0.0
O765 O 0.51875 0.57409 0.12433 0.0
O766 O 0.59503 0.58729 0.09236 0.0
O767 O 0.57953 0.51175 0.12616 0.0
H768 H 0.62099 0.57035 0.20163 0.0
H769 H 0.63113 0.64387 0.13148 0.0
H770 H 0.67922 0.59876 0.22029 0.0
H771 H 0.68914 0.67111 0.15141 0.0
H772 H 0.43005 0.48415 0.10715 0.0
H773 H 0.46908 0.61944 0.10047 0.0
H774 H 0.49138 0.50384 0.12615 0.0
H775 H 0.4082 0.59783 0.08186 0.0
H776 H 0.53502 0.7375 0.16066 0.0
H777 H 0.49634 0.71684 0.07833 0.0
H778 H 0.56488 0.4952 0.24315 0.0
H779 H 0.45669 0.54175 0.22208 0.0
H780 H 0.62062 0.5263 0.06616 0.0
H781 H 0.58293 0.64249 0.05629 0.0
H782 H 0.62897 0.5218 0.01603 0.0
H783 H 0.59159 0.63593 0.00629 0.0
H784 H 0.6344 0.47884 0.09825 0.0
H785 H 0.53326 0.45782 0.14339 0.0
H786 H 0.63939 0.4092 0.08922 0.0
H787 H 0.53997 0.38848 0.13345 0.0
H788 H 0.71855 0.48918 0.16693 0.0
H789 H 0.74119 0.53727 0.08739 0.0
H790 H 0.49205 0.56893 0.01254 0.0
H791 H 0.52882 0.45222 0.0248 0.0
Li792 Li 0.94435 0.39405 0.12096 0.0
Li793 Li 0.95407 0.4555 0.14954 0.0
Li794 Li 0.89482 0.44635 0.12365 0.0
Li795 Li 0.95163 0.4552 0.09977 0.0
C796 C 0.88499 0.3973 0.16501 0.0
N797 N 0.82042 0.3662 0.18645 0.0
C798 C 0.87147 0.40997 0.19019 0.0
C799 C 0.86578 0.36879 0.15074 0.0
C800 C 0.83874 0.3939 0.20068 0.0
C801 C 0.83316 0.35342 0.16193 0.0
C802 C 0.02209 0.43961 0.11385 0.0
C803 C 0.06792 0.48877 0.1052 0.0
N804 N 0.08995 0.4625 0.09251 0.0
C805 C 0.04534 0.41301 0.10097 0.0
C806 C 0.03359 0.47771 0.11621 0.0
C807 C 0.07949 0.42517 0.09022 0.0
C808 C 0.97731 0.32969 0.09679 0.0
N809 N 0.95929 0.3417 0.11966 0.0
C810 C 0.97405 0.283 0.14243 0.0
C811 C 0.95717 0.31917 0.14224 0.0
C812 C 0.99349 0.27007 0.11923 0.0
C813 C 0.99449 0.29379 0.09607 0.0
H814 H 0.97986 0.34878 0.07952 0.0
H815 H 0.94347 0.3298 0.1604 0.0
C816 C 0.95014 0.48928 0.20144 0.0
N817 N 0.97378 0.47289 0.18315 0.0
C818 C 0.96167 0.49546 0.22833 0.0
C819 C 0.02234 0.46991 0.21648 0.0
C820 C 0.00952 0.46391 0.18991 0.0
C821 C 0.99792 0.48478 0.2363 0.0
H822 H 0.92173 0.49575 0.19546 0.0
H823 H 0.02746 0.45019 0.17509 0.0
C824 C 0.90596 0.41822 0.06455 0.0
N825 N 0.89542 0.42412 0.00881 0.0
C826 C 0.89258 0.45229 0.05317 0.0
C827 C 0.91326 0.3869 0.0476 0.0
C828 C 0.88767 0.4548 0.02495 0.0
C829 C 0.90791 0.3905 0.01947 0.0
C830 C 0.92435 0.52928 0.12062 0.0
C831 C 0.894 0.54327 0.10567 0.0
C832 C 0.95082 0.55486 0.131 0.0
C833 C 0.89121 0.58258 0.10073 0.0
C834 C 0.94704 0.59397 0.12559 0.0
N835 N 0.9176 0.60689 0.11066 0.0
C836 C 0.83233 0.48074 0.14813 0.0
C837 C 0.81974 0.4543 0.10453 0.0
C838 C 0.79652 0.49663 0.14933 0.0
N839 N 0.84327 0.46029 0.12589 0.0
C840 C 0.78393 0.47034 0.10464 0.0
C841 C 0.77213 0.49217 0.12713 0.0
H842 H 0.85191 0.48578 0.16455 0.0
H843 H 0.82912 0.43811 0.08703 0.0
C844 C 0.98925 0.44729 0.0505 0.0
N845 N 0.97334 0.47454 0.0666 0.0
C846 C 1.0018 0.45634 0.02436 0.0
C847 C 0.98242 0.52179 0.03192 0.0
C848 C 0.97029 0.51146 0.05801 0.0
C849 C 0.99787 0.49388 0.01458 0.0
H850 H 0.99081 0.41802 0.05762 0.0
H851 H 0.9576 0.53274 0.07096 0.0
O852 O 0.91642 0.41328 0.15403 0.0
O853 O 0.9882 0.42851 0.12405 0.0
O854 O 0.91184 0.4155 0.0921 0.0
O855 O 0.92748 0.49095 0.12593 0.0
H856 H 0.88598 0.43211 0.20143 0.0
H857 H 0.87582 0.35886 0.13113 0.0
H858 H 0.82787 0.40348 0.22011 0.0
H859 H 0.81793 0.3314 0.15109 0.0
H860 H 0.07703 0.51825 0.10671 0.0
H861 H 0.03707 0.38333 0.09917 0.0
H862 H 0.01602 0.49855 0.12625 0.0
H863 H 0.09766 0.40494 0.08005 0.0
H864 H 0.9722 0.26553 0.16064 0.0
H865 H 0.00962 0.28535 0.0779 0.0
H866 H 0.94206 0.50716 0.24295 0.0
H867 H 0.05028 0.4607 0.22184 0.0
H868 H 0.88671 0.47675 0.06596 0.0
H869 H 0.92286 0.36005 0.05605 0.0
H870 H 0.87781 0.48118 0.01588 0.0
H871 H 0.91367 0.36654 0.00611 0.0
H872 H 0.87273 0.5241 0.09804 0.0
H873 H 0.97391 0.54468 0.14325 0.0
H874 H 0.86798 0.59377 0.08906 0.0
H875 H 0.96743 0.61406 0.13337 0.0
H876 H 0.78848 0.51344 0.16696 0.0
H877 H 0.76573 0.46595 0.08725 0.0
H878 H 0.01322 0.43387 0.01161 0.0
H879 H 0.97948 0.55125 0.02532 0.0
Li880 Li 0.05515 0.4551 0.40206 0.0
Li881 Li 0.11196 0.44615 0.3782 0.0
Li882 Li 0.05275 0.4554 0.35229 0.0
Li883 Li 0.06236 0.39393 0.38088 0.0
C884 C 0.08256 0.52914 0.38121 0.0
N885 N 0.08943 0.60674 0.39116 0.0
C886 C 0.11292 0.54308 0.39617 0.0
C887 C 0.05614 0.55475 0.37083 0.0
C888 C 0.11577 0.58239 0.40111 0.0
C889 C 0.05997 0.59386 0.37622 0.0
C890 C 0.10071 0.41806 0.43731 0.0
C891 C 0.09854 0.39039 0.4824 0.0
N892 N 0.11113 0.42398 0.49305 0.0
C893 C 0.11419 0.45209 0.44868 0.0
C894 C 0.09325 0.38678 0.45427 0.0
C895 C 0.11903 0.45461 0.47691 0.0
C896 C 0.01742 0.44726 0.45129 0.0
N897 N 0.03346 0.47448 0.43523 0.0
C898 C 0.02455 0.52168 0.46996 0.0
C899 C 0.03667 0.51136 0.44387 0.0
C900 C 0.00894 0.49381 0.48725 0.0
C901 C 0.00486 0.45631 0.47742 0.0
H902 H 0.01573 0.41802 0.44413 0.0
H903 H 0.04949 0.53261 0.43096 0.0
C904 C 0.17455 0.48053 0.35383 0.0
N905 N 0.16354 0.46 0.37601 0.0
C906 C 0.21039 0.49636 0.35268 0.0
C907 C 0.22287 0.46984 0.39732 0.0
C908 C 0.18704 0.45387 0.39737 0.0
C909 C 0.23474 0.49176 0.37489 0.0
H910 H 0.15499 0.48568 0.3374 0.0
H911 H 0.17761 0.43762 0.41482 0.0
C912 C 0.98466 0.43962 0.38792 0.0
N913 N 0.91676 0.46259 0.40915 0.0
C914 C 0.96131 0.41303 0.40073 0.0
C915 C 0.97325 0.47775 0.38558 0.0
C916 C 0.92714 0.42524 0.41141 0.0
C917 C 0.93889 0.48885 0.39654 0.0
C918 C 0.12179 0.39716 0.33684 0.0
C919 C 0.13535 0.40991 0.31169 0.0
C920 C 0.14098 0.36862 0.35109 0.0
C921 C 0.1681 0.39387 0.30121 0.0
C922 C 0.17361 0.35328 0.33991 0.0
N923 N 0.18639 0.36613 0.31542 0.0
C924 C 0.05672 0.48923 0.30041 0.0
C925 C 0.99733 0.46385 0.31191 0.0
C926 C 0.04519 0.49543 0.27352 0.0
N927 N 0.03307 0.47282 0.31868 0.0
C928 C 0.98452 0.46988 0.28534 0.0
C929 C 0.00894 0.48476 0.26553 0.0
H930 H 0.08512 0.49569 0.30638 0.0
H931 H 0.97939 0.45012 0.32672 0.0
C932 C 0.02922 0.32966 0.40502 0.0
N933 N 0.04733 0.34161 0.38218 0.0
C934 C 0.01201 0.29377 0.40575 0.0
C935 C 0.03261 0.28288 0.35943 0.0
C936 C 0.04952 0.31903 0.35963 0.0
C937 C 0.01308 0.27 0.38261 0.0
H938 H 0.02662 0.34878 0.42227 0.0
H939 H 0.0633 0.32961 0.34148 0.0
O940 O 0.07938 0.49081 0.37591 0.0
O941 O 0.09487 0.41533 0.40975 0.0
O942 O 0.01857 0.42847 0.37777 0.0
O943 O 0.09033 0.41311 0.34781 0.0
H944 H 0.13416 0.52388 0.40381 0.0
H945 H 0.03304 0.54461 0.35857 0.0
H946 H 0.13901 0.59355 0.41277 0.0
H947 H 0.03962 0.61398 0.36843 0.0
H948 H 0.09266 0.36648 0.49577 0.0
H949 H 0.12017 0.47651 0.43589 0.0
H950 H 0.08356 0.35996 0.44581 0.0
H951 H 0.12897 0.48097 0.48598 0.0
H952 H 0.02762 0.55111 0.4766 0.0
H953 H 0.99331 0.43386 0.49013 0.0
H954 H 0.21847 0.51324 0.33509 0.0
H955 H 0.24105 0.46534 0.4147 0.0
H956 H 0.96951 0.38334 0.40251 0.0
H957 H 0.99089 0.49857 0.37561 0.0
H958 H 0.90889 0.40502 0.42152 0.0
H959 H 0.92985 0.51835 0.39503 0.0
H960 H 0.12085 0.43207 0.30046 0.0
H961 H 0.1309 0.35864 0.37067 0.0
H962 H 0.179 0.40351 0.2818 0.0
H963 H 0.18883 0.33124 0.35073 0.0
H964 H 0.0648 0.50714 0.2589 0.0
H965 H 0.95658 0.46067 0.27998 0.0
H966 H 0.9968 0.28537 0.42389 0.0
H967 H 0.03452 0.26537 0.34124 0.0
Li968 Li 0.4516 0.54719 0.40224 0.0
Li969 Li 0.39479 0.55601 0.37835 0.0
Li970 Li 0.45406 0.54681 0.35248 0.0
Li971 Li 0.44433 0.60831 0.381 0.0
C972 C 0.42434 0.47308 0.38144 0.0
N973 N 0.41763 0.39547 0.39145 0.0
C974 C 0.39399 0.45909 0.39639 0.0
C975 C 0.45083 0.44751 0.3711 0.0
C976 C 0.39122 0.41978 0.40136 0.0
C977 C 0.44708 0.4084 0.37653 0.0
C978 C 0.40588 0.5842 0.43743 0.0
C979 C 0.4077 0.61198 0.4825 0.0
N980 N 0.39524 0.57835 0.49316 0.0
C981 C 0.39253 0.55013 0.44881 0.0
C982 C 0.4131 0.61556 0.45437 0.0
C983 C 0.38756 0.54764 0.47703 0.0
C984 C 0.48914 0.55517 0.45155 0.0
N985 N 0.47332 0.52789 0.43544 0.0
C986 C 0.48253 0.48064 0.47009 0.0
C987 C 0.47037 0.49096 0.44401 0.0
C988 C 0.4979 0.50858 0.48745 0.0
C989 C 0.50172 0.54613 0.47769 0.0
H990 H 0.49065 0.58445 0.44444 0.0
H991 H 0.45774 0.46965 0.43105 0.0
C992 C 0.33226 0.52162 0.35391 0.0
N993 N 0.34323 0.5421 0.37613 0.0
C994 C 0.29643 0.50577 0.35272 0.0
C995 C 0.28388 0.53216 0.39739 0.0
C996 C 0.3197 0.54815 0.39749 0.0
C997 C 0.27205 0.5103 0.37492 0.0
H998 H 0.35184 0.51653 0.33749 0.0
H999 H 0.3291 0.56437 0.41496 0.0
C1000 C 0.52205 0.56278 0.3882 0.0
N1001 N 0.58988 0.53996 0.40965 0.0
C1002 C 0.54524 0.58941 0.40112 0.0
C1003 C 0.53359 0.52468 0.38586 0.0
C1004 C 0.57937 0.57728 0.41192 0.0
C1005 C 0.5679 0.51366 0.39693 0.0
C1006 C 0.38499 0.60503 0.33696 0.0
C1007 C 0.37145 0.59232 0.31179 0.0
C1008 C 0.36581 0.63359 0.35121 0.0
C1009 C 0.33874 0.60843 0.30129 0.0
C1010 C 0.33322 0.64898 0.34 0.0
N1011 N 0.32046 0.63617 0.31549 0.0
C1012 C 0.45016 0.51303 0.30058 0.0
C1013 C 0.50954 0.53836 0.31215 0.0
C1014 C 0.46172 0.50687 0.27369 0.0
N1015 N 0.47379 0.52939 0.31889 0.0
C1016 C 0.52239 0.53238 0.28559 0.0
C1017 C 0.49798 0.51755 0.26574 0.0
H1018 H 0.42174 0.50658 0.30653 0.0
H1019 H 0.52747 0.55206 0.32699 0.0
C1020 C 0.47719 0.67276 0.40513 0.0
N1021 N 0.45928 0.66065 0.38225 0.0
C1022 C 0.49438 0.70866 0.40582 0.0
C1023 C 0.47417 0.71924 0.35937 0.0
C1024 C 0.45727 0.68308 0.35961 0.0
C1025 C 0.4935 0.73228 0.3826 0.0
H1026 H 0.47966 0.65374 0.42245 0.0
H1027 H 0.44366 0.67238 0.34144 0.0
O1028 O 0.42744 0.5114 0.37611 0.0
O1029 O 0.41182 0.58691 0.40989 0.0
O1030 O 0.48818 0.57384 0.37795 0.0
O1031 O 0.41641 0.58903 0.34795 0.0
H1032 H 0.3727 0.47825 0.404 0.0
H1033 H 0.47393 0.45768 0.35885 0.0
H1034 H 0.36799 0.40859 0.41302 0.0
H1035 H 0.46749 0.38831 0.36877 0.0
H1036 H 0.4134 0.63596 0.49586 0.0
H1037 H 0.38672 0.52565 0.43603 0.0
H1038 H 0.42269 0.64241 0.44591 0.0
H1039 H 0.37772 0.52125 0.4861 0.0
H1040 H 0.47967 0.45116 0.47668 0.0
H1041 H 0.51307 0.56863 0.49044 0.0
H1042 H 0.28837 0.48894 0.3351 0.0
H1043 H 0.26568 0.5366 0.41476 0.0
H1044 H 0.53694 0.61907 0.4029 0.0
H1045 H 0.51607 0.50383 0.3758 0.0
H1046 H 0.59749 0.59753 0.42211 0.0
H1047 H 0.57704 0.4842 0.39543 0.0
H1048 H 0.38594 0.57015 0.30057 0.0
H1049 H 0.37587 0.64353 0.3708 0.0
H1050 H 0.32786 0.59882 0.28186 0.0
H1051 H 0.31801 0.67104 0.35083 0.0
H1052 H 0.44212 0.4952 0.25905 0.0
H1053 H 0.55034 0.54158 0.28025 0.0
H1054 H 0.50942 0.71718 0.424 0.0
H1055 H 0.47242 0.73663 0.34111 0.0
Li1056 Li 0.4529 0.45593 0.90302 0.0
Li1057 Li 0.44439 0.39344 0.88115 0.0
Li1058 Li 0.45099 0.45189 0.8543 0.0
Li1059 Li 0.39441 0.4447 0.8807 0.0
C1060 C 0.52151 0.44162 0.87149 0.0
N1061 N 0.58948 0.46976 0.854 0.0
C1062 C 0.54807 0.41683 0.86034 0.0
C1063 C 0.52941 0.4807 0.87372 0.0
C1064 C 0.58231 0.43163 0.85162 0.0
C1065 C 0.56397 0.49437 0.86477 0.0
C1066 C 0.4185 0.41101 0.93961 0.0
C1067 C 0.39477 0.41932 0.98531 0.0
N1068 N 0.42722 0.40498 0.99551 0.0
C1069 C 0.45144 0.39594 0.95056 0.0
C1070 C 0.38979 0.42249 0.95712 0.0
C1071 C 0.45538 0.39328 0.97886 0.0
C1072 C 0.4516 0.50146 0.95016 0.0
N1073 N 0.47386 0.47843 0.93482 0.0
C1074 C 0.52023 0.47716 0.96983 0.0
C1075 C 0.50793 0.4668 0.94383 0.0
C1076 C 0.49726 0.49975 0.98659 0.0
C1077 C 0.46287 0.51264 0.97625 0.0
H1078 H 0.4243 0.50953 0.94263 0.0
H1079 H 0.52469 0.4478 0.93143 0.0
C1080 C 0.47563 0.32843 0.85744 0.0
N1081 N 0.45918 0.34075 0.88086 0.0
C1082 C 0.49276 0.29251 0.85631 0.0
C1083 C 0.47513 0.28211 0.90332 0.0
C1084 C 0.45782 0.31807 0.90341 0.0
C1085 C 0.49337 0.2692 0.87964 0.0
H1086 H 0.47646 0.34705 0.83985 0.0
H1087 H 0.44418 0.32815 0.9217 0.0
C1088 C 0.40921 0.51797 0.86209 0.0
N1089 N 0.37232 0.57201 0.83091 0.0
C1090 C 0.39063 0.50702 0.83822 0.0
C1091 C 0.40896 0.55638 0.8701 0.0
C1092 C 0.37215 0.53477 0.82275 0.0
C1093 C 0.3902 0.58329 0.85404 0.0
C1094 C 0.388 0.38363 0.84268 0.0
C1095 C 0.38369 0.37375 0.81524 0.0
C1096 C 0.36701 0.36469 0.8626 0.0
C1097 C 0.35823 0.3451 0.80812 0.0
C1098 C 0.34184 0.33621 0.85465 0.0
N1099 N 0.33801 0.32709 0.82781 0.0
C1100 C 0.48485 0.43339 0.80697 0.0
C1101 C 0.47223 0.49998 0.80706 0.0
C1102 C 0.49794 0.43523 0.78032 0.0
N1103 N 0.47177 0.4652 0.81965 0.0
C1104 C 0.48443 0.50303 0.77992 0.0
C1105 C 0.49672 0.47007 0.76596 0.0
H1106 H 0.48445 0.40627 0.81756 0.0
H1107 H 0.4622 0.52511 0.81765 0.0
C1108 C 0.3317 0.48003 0.90365 0.0
N1109 N 0.34261 0.4589 0.88173 0.0
C1110 C 0.29607 0.49634 0.90453 0.0
C1111 C 0.28379 0.46992 0.85985 0.0
C1112 C 0.31943 0.45346 0.86006 0.0
C1113 C 0.27185 0.49185 0.88226 0.0
H1114 H 0.35126 0.48552 0.91998 0.0
H1115 H 0.32907 0.43774 0.84242 0.0
O1116 O 0.48757 0.42781 0.87963 0.0
O1117 O 0.41455 0.41479 0.91194 0.0
O1118 O 0.42676 0.49132 0.87807 0.0
O1119 O 0.41297 0.41151 0.84982 0.0
H1120 H 0.54222 0.38653 0.85836 0.0
H1121 H 0.50895 0.50028 0.88209 0.0
H1122 H 0.60316 0.41281 0.84292 0.0
H1123 H 0.57049 0.52455 0.86632 0.0
H1124 H 0.37283 0.42826 0.99909 0.0
H1125 H 0.47412 0.38726 0.93732 0.0
H1126 H 0.36386 0.43358 0.94907 0.0
H1127 H 0.48093 0.38215 0.98758 0.0
H1128 H 0.54714 0.46705 0.97692 0.0
H1129 H 0.44422 0.52985 0.9886 0.0
H1130 H 0.50648 0.28363 0.83765 0.0
H1131 H 0.47437 0.26463 0.92158 0.0
H1132 H 0.39052 0.47748 0.83163 0.0
H1133 H 0.42303 0.56526 0.88862 0.0
H1134 H 0.35768 0.52669 0.80424 0.0
H1135 H 0.38978 0.61312 0.86001 0.0
H1136 H 0.39986 0.38811 0.79961 0.0
H1137 H 0.36996 0.37188 0.88395 0.0
H1138 H 0.35457 0.33718 0.78694 0.0
H1139 H 0.32536 0.32135 0.86982 0.0
H1140 H 0.50847 0.40926 0.771 0.0
H1141 H 0.4831 0.53056 0.7698 0.0
H1142 H 0.28805 0.51351 0.92199 0.0
H1143 H 0.26585 0.46583 0.84229 0.0
Li1144 Li 0.05314 0.54703 0.90228 0.0
Li1145 Li 0.06182 0.60799 0.8803 0.0
Li1146 Li 0.05511 0.54891 0.85349 0.0
Li1147 Li 0.11185 0.55724 0.8803 0.0
C1148 C 0.98452 0.55583 0.87532 0.0
N1149 N 0.91638 0.51961 0.86961 0.0
C1150 C 0.95197 0.5774 0.872 0.0
C1151 C 0.98249 0.51583 0.87563 0.0
C1152 C 0.91776 0.55855 0.86917 0.0
C1153 C 0.94775 0.49807 0.87276 0.0
C1154 C 0.08681 0.5922 0.93872 0.0
C1155 C 0.10833 0.5833 0.98495 0.0
N1156 N 0.07641 0.59977 0.99437 0.0
C1157 C 0.05438 0.60938 0.94887 0.0
C1158 C 0.11416 0.57932 0.95689 0.0
C1159 C 0.04958 0.61284 0.97706 0.0
C1160 C 0.05364 0.50079 0.9491 0.0
N1161 N 0.03198 0.52519 0.93438 0.0
C1162 C 0.98677 0.52774 0.97018 0.0
C1163 C 0.99877 0.53822 0.94415 0.0
C1164 C 0.00918 0.50368 0.9863 0.0
C1165 C 0.04268 0.48952 0.97524 0.0
H1166 H 0.08029 0.49159 0.94101 0.0
H1167 H 0.98253 0.55839 0.93236 0.0
C1168 C 0.02673 0.67143 0.85759 0.0
N1169 N 0.04711 0.66064 0.87971 0.0
C1170 C 0.00956 0.70733 0.85677 0.0
C1171 C 0.03512 0.72083 0.90138 0.0
C1172 C 0.05235 0.68482 0.90114 0.0
C1173 C 0.01296 0.7322 0.87913 0.0
H1174 H 0.02284 0.6516 0.84092 0.0
H1175 H 0.06898 0.67583 0.91839 0.0
C1176 C 0.09734 0.4835 0.86265 0.0
N1177 N 0.13498 0.42871 0.83263 0.0
C1178 C 0.11711 0.49398 0.83919 0.0
C1179 C 0.09677 0.44517 0.87084 0.0
C1180 C 0.13597 0.46586 0.82431 0.0
C1181 C 0.11592 0.41788 0.85537 0.0
C1182 C 0.11787 0.61734 0.84135 0.0
C1183 C 0.12239 0.62607 0.81373 0.0
C1184 C 0.13846 0.63735 0.86097 0.0
C1185 C 0.14763 0.65466 0.80613 0.0
C1186 C 0.16343 0.66574 0.85253 0.0
N1187 N 0.16746 0.67373 0.82552 0.0
C1188 C 0.01672 0.56558 0.80786 0.0
C1189 C 0.03726 0.50121 0.80517 0.0
C1190 C 1.00317 0.56408 0.78131 0.0
N1191 N 0.03415 0.53488 0.81904 0.0
C1192 C 0.02462 0.49862 0.77812 0.0
C1193 C 0.00825 0.53081 0.76559 0.0
H1194 H 0.01418 0.59173 0.81948 0.0
H1195 H 0.05044 0.47675 0.8146 0.0
C1196 C 0.17454 0.52199 0.90338 0.0
N1197 N 0.16378 0.54333 0.88153 0.0
C1198 C 0.21019 0.50575 0.90436 0.0
C1199 C 0.22287 0.53273 0.85991 0.0
C1200 C 0.1872 0.54913 0.86003 0.0
C1201 C 0.23461 0.51053 0.88223 0.0
H1202 H 0.15482 0.51626 0.91958 0.0
H1203 H 0.17772 0.56501 0.84242 0.0
O1204 O 0.01818 0.57401 0.87784 0.0
O1205 O 0.09155 0.58771 0.91118 0.0
O1206 O 0.07961 0.51055 0.87817 0.0
O1207 O 0.09313 0.5895 0.84899 0.0
H1208 H 0.95318 0.6084 0.87158 0.0
H1209 H 0.00739 0.49865 0.87808 0.0
H1210 H 0.89232 0.57488 0.8666 0.0
H1211 H 0.94573 0.46715 0.873 0.0
H1212 H 0.1292 0.57329 0.99924 0.0
H1213 H 0.0327 0.6191 0.93513 0.0
H1214 H 0.13965 0.56646 0.94946 0.0
H1215 H 0.02441 0.62565 0.98518 0.0
H1216 H 0.96053 0.53889 0.97779 0.0
H1217 H 0.06092 0.47117 0.98707 0.0
H1218 H 0.99272 0.71501 0.83924 0.0
H1219 H 0.03892 0.73951 0.91881 0.0
H1220 H 0.11778 0.52343 0.83242 0.0
H1221 H 0.0818 0.43665 0.88906 0.0
H1222 H 0.15137 0.47359 0.80612 0.0
H1223 H 0.11571 0.3881 0.86148 0.0
H1224 H 0.10653 0.61087 0.79834 0.0
H1225 H 0.13533 0.63105 0.88244 0.0
H1226 H 0.15146 0.6617 0.78481 0.0
H1227 H 0.1796 0.68143 0.86747 0.0
H1228 H 0.98946 0.58919 0.77305 0.0
H1229 H 0.02889 0.47226 0.76691 0.0
H1230 H 0.21806 0.48837 0.92175 0.0
H1231 H 0.24098 0.53707 0.84247 0.0
Li1232 Li 0.89456 0.55735 0.62124 0.0
Li1233 Li 0.95117 0.54923 0.64818 0.0
Li1234 Li 0.94453 0.60821 0.62124 0.0
Li1235 Li 0.95337 0.54712 0.59941 0.0
C1236 C 0.88835 0.6177 0.66002 0.0
N1237 N 0.8388 0.67425 0.67561 0.0
C1238 C 0.88405 0.62687 0.6876 0.0
C1239 C 0.86757 0.63735 0.64034 0.0
C1240 C 0.85882 0.65553 0.69508 0.0
C1241 C 0.84262 0.66583 0.64865 0.0
C1242 C 0.90909 0.48373 0.63909 0.0
C1243 C 0.8903 0.41818 0.6464 0.0
N1244 N 0.87146 0.42905 0.66923 0.0
C1245 C 0.88955 0.49426 0.66264 0.0
C1246 C 0.90944 0.44541 0.63087 0.0
C1247 C 0.87069 0.4662 0.67758 0.0
C1248 C 0.83182 0.52211 0.59811 0.0
N1249 N 0.84266 0.54334 0.62 0.0
C1250 C 0.78372 0.53251 0.64176 0.0
C1251 C 0.81935 0.54897 0.64158 0.0
C1252 C 0.77189 0.51043 0.61942 0.0
C1253 C 0.79618 0.50582 0.59719 0.0
H1254 H 0.85145 0.51648 0.58185 0.0
H1255 H 0.82891 0.56477 0.65921 0.0
C1256 C 0.98848 0.56625 0.69422 0.0
N1257 N 0.97194 0.53529 0.68269 0.0
C1258 C 1.00187 0.56465 0.7208 0.0
C1259 C 0.98208 0.49858 0.72332 0.0
C1260 C 0.96956 0.50131 0.69625 0.0
C1261 C 0.99757 0.53096 0.73619 0.0
H1262 H 0.99046 0.59265 0.68282 0.0
H1263 H 0.95707 0.47668 0.68654 0.0
C1264 C 0.9197 0.59209 0.56278 0.0
N1265 N 0.93012 0.59938 0.50712 0.0
C1266 C 0.95223 0.609 0.55259 0.0
C1267 C 0.89225 0.57935 0.54464 0.0
C1268 C 0.95704 0.61231 0.52439 0.0
C1269 C 0.89809 0.58318 0.51658 0.0
C1270 C 0.02188 0.55637 0.62678 0.0
C1271 C 0.05411 0.57817 0.63093 0.0
C1272 C 0.02428 0.5164 0.62615 0.0
C1273 C 0.08837 0.55958 0.63424 0.0
C1274 C 0.05906 0.4989 0.62953 0.0
N1275 N 0.09011 0.52067 0.63347 0.0
C1276 C 0.97893 0.67189 0.64417 0.0
C1277 C 0.9546 0.68485 0.60016 0.0
C1278 C 0.99609 0.70779 0.64508 0.0
N1279 N 0.9592 0.66089 0.6218 0.0
C1280 C 0.97186 0.72085 0.60001 0.0
C1281 C 0.99337 0.73243 0.62254 0.0
H1282 H 0.98232 0.65223 0.66101 0.0
H1283 H 0.93847 0.6757 0.58271 0.0
C1284 C 0.95295 0.5009 0.55261 0.0
N1285 N 0.97467 0.52516 0.5674 0.0
C1286 C 0.96398 0.4896 0.52649 0.0
C1287 C 0.02006 0.52751 0.53171 0.0
C1288 C 0.00799 0.53802 0.55773 0.0
C1289 C 0.99759 0.50359 0.51553 0.0
H1290 H 0.92621 0.49185 0.56063 0.0
H1291 H 0.02429 0.55808 0.56958 0.0
O1292 O 0.91309 0.58979 0.65251 0.0
O1293 O 0.92686 0.51072 0.62354 0.0
O1294 O 0.91494 0.58774 0.59034 0.0
O1295 O 0.98814 0.57427 0.62388 0.0
H1296 H 0.90006 0.61194 0.70304 0.0
H1297 H 0.87053 0.63071 0.61891 0.0
H1298 H 0.85516 0.66291 0.71635 0.0
H1299 H 0.8263 0.68125 0.63366 0.0
H1300 H 0.89033 0.38841 0.64026 0.0
H1301 H 0.88904 0.52371 0.66943 0.0
H1302 H 0.92424 0.43686 0.61258 0.0
H1303 H 0.85548 0.47396 0.69584 0.0
H1304 H 0.76571 0.5367 0.65927 0.0
H1305 H 0.78822 0.48854 0.57978 0.0
H1306 H 0.01491 0.58995 0.72933 0.0
H1307 H 0.97843 0.47191 0.73428 0.0
H1308 H 0.97398 0.61862 0.56631 0.0
H1309 H 0.86666 0.56673 0.5521 0.0
H1310 H 0.9823 0.6249 0.51624 0.0
H1311 H 0.87714 0.57328 0.50232 0.0
H1312 H 0.05261 0.60915 0.63163 0.0
H1313 H 0.99961 0.49905 0.6231 0.0
H1314 H 0.11356 0.57609 0.63746 0.0
H1315 H 0.06136 0.46801 0.62905 0.0
H1316 H 0.01241 0.71565 0.66283 0.0
H1317 H 0.96857 0.73936 0.58243 0.0
H1318 H 0.94569 0.47137 0.51461 0.0
H1319 H 0.04639 0.53853 0.52417 0.0
Li1320 Li 0.55507 0.45375 0.64868 0.0
Li1321 Li 0.61184 0.44523 0.6218 0.0
Li1322 Li 0.55311 0.45556 0.59982 0.0
Li1323 Li 0.56171 0.39466 0.62188 0.0
C1324 C 0.59744 0.51917 0.63931 0.0
N1325 N 0.63538 0.57419 0.66891 0.0
C1326 C 0.61798 0.50877 0.66242 0.0
C1327 C 0.59624 0.55754 0.63124 0.0
C1328 C 0.63699 0.537 0.67709 0.0
C1329 C 0.61554 0.58495 0.6465 0.0
C1330 C 0.61781 0.38528 0.66082 0.0
C1331 C 0.66313 0.33666 0.64964 0.0
N1332 N 0.66742 0.32892 0.67667 0.0
C1333 C 0.62257 0.3768 0.68847 0.0
C1334 C 0.63815 0.36503 0.6412 0.0
C1335 C 0.64783 0.34822 0.69608 0.0
C1336 C 0.51423 0.43781 0.69346 0.0
N1337 N 0.53392 0.4677 0.68317 0.0
C1338 C 0.5262 0.50251 0.72494 0.0
C1339 C 0.539 0.50037 0.69792 0.0
C1340 C 0.5075 0.47099 0.73656 0.0
C1341 C 0.50032 0.43902 0.71992 0.0
H1342 H 0.51019 0.41243 0.68121 0.0
H1343 H 0.5539 0.52432 0.68924 0.0
C1344 C 0.67446 0.48038 0.59854 0.0
N1345 N 0.66383 0.45896 0.62039 0.0
C1346 C 0.71012 0.49659 0.59746 0.0
C1347 C 0.72312 0.46933 0.64177 0.0
C1348 C 0.68744 0.45297 0.64175 0.0
C1349 C 0.73469 0.49168 0.61948 0.0
H1350 H 0.65462 0.48623 0.58244 0.0
H1351 H 0.67809 0.43698 0.65935 0.0
C1352 C 0.48449 0.44704 0.62652 0.0
N1353 N 0.41641 0.48357 0.63162 0.0
C1354 C 0.45174 0.42562 0.62921 0.0
C1355 C 0.48268 0.48706 0.62652 0.0
C1356 C 0.41757 0.44462 0.63174 0.0
C1357 C 0.44797 0.50498 0.62909 0.0
C1358 C 0.58649 0.41008 0.56345 0.0
C1359 C 0.55412 0.39257 0.5535 0.0
C1360 C 0.61358 0.42309 0.54512 0.0
C1361 C 0.54912 0.3889 0.52534 0.0
C1362 C 0.60755 0.41889 0.51711 0.0
N1363 N 0.57569 0.40208 0.50788 0.0
C1364 C 0.55358 0.50185 0.55299 0.0
C1365 C 0.49888 0.46415 0.55786 0.0
C1366 C 0.54262 0.51309 0.52683 0.0
N1367 N 0.53199 0.47734 0.56767 0.0
C1368 C 0.48688 0.4746 0.53181 0.0
C1369 C 0.50921 0.49879 0.51574 0.0
H1370 H 0.58017 0.51117 0.56112 0.0
H1371 H 0.4827 0.44389 0.56961 0.0
C1372 C 0.52569 0.33154 0.6442 0.0
N1373 N 0.54694 0.34205 0.62246 0.0
C1374 C 0.50856 0.29561 0.64491 0.0
C1375 C 0.53594 0.28155 0.60096 0.0
C1376 C 0.55308 0.3176 0.60131 0.0
C1377 C 0.51291 0.27043 0.62282 0.0
H1378 H 0.52111 0.35161 0.66065 0.0
H1379 H 0.57036 0.32641 0.58436 0.0
O1380 O 0.57971 0.492 0.6239 0.0
O1381 O 0.59306 0.41311 0.65318 0.0
O1382 O 0.5181 0.42869 0.62426 0.0
O1383 O 0.59141 0.4148 0.59096 0.0
H1384 H 0.61908 0.47929 0.66911 0.0
H1385 H 0.58069 0.566 0.61327 0.0
H1386 H 0.65298 0.52934 0.69501 0.0
H1387 H 0.61486 0.61476 0.64048 0.0
H1388 H 0.67912 0.32079 0.6347 0.0
H1389 H 0.60691 0.3922 0.70387 0.0
H1390 H 0.63483 0.37113 0.61971 0.0
H1391 H 0.65184 0.34138 0.71741 0.0
H1392 H 0.53218 0.52792 0.73683 0.0
H1393 H 0.48476 0.41458 0.7274 0.0
H1394 H 0.71789 0.51406 0.58009 0.0
H1395 H 0.74135 0.4649 0.65913 0.0
H1396 H 0.45276 0.39461 0.62936 0.0
H1397 H 0.50772 0.50414 0.62456 0.0
H1398 H 0.39198 0.4284 0.63382 0.0
H1399 H 0.44613 0.53591 0.62909 0.0
H1400 H 0.53263 0.38277 0.56737 0.0
H1401 H 0.63902 0.43624 0.5524 0.0
H1402 H 0.52399 0.37582 0.51738 0.0
H1403 H 0.62822 0.429 0.5027 0.0
H1404 H 0.56081 0.53154 0.51504 0.0
H1405 H 0.46071 0.46333 0.52417 0.0
H1406 H 0.49102 0.28815 0.66212 0.0
H1407 H 0.54047 0.26263 0.58375 0.0
loop_
_geom_bond_atom_site_label_1
_geom_bond_atom_site_label_2
_geom_bond_distance
_geom_bond_site_symmetry_2
_ccdc_geom_bond_type
Li0 N17 1.990 . S
Li0 O60 1.956 . S
Li0 O61 1.970 . S
Li0 O62 1.961 . S
Li1 N25 1.990 . S
Li1 O60 1.970 . S
Li1 O61 1.956 . S
Li1 O63 1.961 . S
Li2 N47 1.990 . S
Li2 O60 1.961 . S
Li2 O62 1.956 . S
Li2 O63 1.970 . S
Li3 N53 1.990 . S
Li3 O61 1.961 . S
Li3 O62 1.970 . S
Li3 O63 1.956 . S
C4 C6 1.348 . S
C4 C7 1.356 . S
C4 O60 1.325 1_565 S
N5 C8 1.314 . S
N5 C9 1.279 . S
C6 C4 1.348 . S
C6 C8 1.353 . S
C6 H64 0.929 . S
C7 C4 1.356 . S
C7 C9 1.358 . S
C7 H65 0.930 . S
C8 N5 1.314 . S
C8 C6 1.353 . S
C8 H66 0.930 . S
C9 N5 1.279 . S
C9 C7 1.358 . S
C9 H67 0.930 . S
C10 C13 1.348 . S
C10 C14 1.356 . S
C10 O61 1.325 . S
C11 N12 1.279 . S
C11 C14 1.358 . S
C11 H68 0.930 . S
N12 C11 1.279 . S
N12 C15 1.314 . S
C13 C10 1.348 . S
C13 C15 1.353 . S
C13 H69 0.929 . S
C14 C10 1.356 . S
C14 C11 1.358 . S
C14 H70 0.930 . S
C15 N12 1.314 . S
C15 C13 1.353 . S
C15 H71 0.930 . S
C16 N17 1.314 1_655 S
C16 C21 1.353 . S
C16 H22 0.930 . S
N17 Li0 1.990 . S
N17 C16 1.314 1_455 S
N17 C19 1.279 1_545 S
C18 C19 1.358 . S
C18 C20 1.356 1_455 S
C18 H72 0.930 . S
C19 N17 1.279 1_565 S
C19 C18 1.358 . S
C19 H23 0.930 . S
C20 C18 1.356 1_655 S
C20 C21 1.348 1_565 S
C21 C16 1.353 . S
C21 C20 1.348 1_545 S
C21 H73 0.929 . S
H22 C16 0.930 . S
H23 C19 0.930 . S
C24 N25 1.314 . S
C24 C26 1.353 . S
C24 H30 0.930 . S
N25 Li1 1.990 . S
N25 C24 1.314 . S
N25 C28 1.279 . S
C26 C24 1.353 . S
C26 C29 1.348 . S
C26 H74 0.929 . S
C27 C28 1.358 . S
C27 C29 1.356 . S
C27 H75 0.930 . S
C28 N25 1.279 . S
C28 C27 1.358 . S
C28 H31 0.930 . S
C29 C26 1.348 . S
C29 C27 1.356 . S
H30 C24 0.930 . S
H31 C28 0.930 . S
C32 C34 1.348 . S
C32 C35 1.356 . S
C32 O62 1.325 1_655 S
N33 C36 1.314 . S
N33 C37 1.279 . S
C34 C32 1.348 . S
C34 C36 1.353 . S
C34 H76 0.929 . S
C35 C32 1.356 . S
C35 C37 1.358 . S
C35 H77 0.930 . S
C36 N33 1.314 . S
C36 C34 1.353 . S
C36 H78 0.930 . S
C37 N33 1.279 . S
C37 C35 1.358 . S
C37 H79 0.930 . S
C38 C39 1.348 . S
C38 C40 1.356 . S
C38 O63 1.325 . S
C39 C38 1.348 . S
C39 C41 1.353 . S
C39 H80 0.929 . S
C40 C38 1.356 . S
C40 C42 1.358 . S
C40 H81 0.930 . S
C41 C39 1.353 . S
C41 N43 1.314 . S
C41 H82 0.930 . S
C42 C40 1.358 . S
C42 N43 1.279 . S
C42 H83 0.930 . S
N43 C41 1.314 . S
N43 C42 1.279 . S
C44 C46 1.353 . S
C44 N47 1.314 1_565 S
C44 H50 0.930 . S
C45 N47 1.279 1_655 S
C45 C48 1.358 . S
C45 H51 0.930 . S
C46 C44 1.353 . S
C46 C49 1.348 1_455 S
C46 H84 0.929 . S
N47 Li2 1.990 . S
N47 C44 1.314 1_545 S
N47 C45 1.279 1_455 S
C48 C45 1.358 . S
C48 C49 1.356 1_545 S
C48 H85 0.930 . S
C49 C46 1.348 1_655 S
C49 C48 1.356 1_565 S
H50 C44 0.930 . S
H51 C45 0.930 . S
C52 N53 1.314 . S
C52 C54 1.353 . S
C52 H58 0.930 . S
N53 Li3 1.990 . S
N53 C52 1.314 . S
N53 C56 1.279 . S
C54 C52 1.353 . S
C54 C57 1.348 . S
C54 H86 0.929 . S
C55 C56 1.358 . S
C55 C57 1.356 . S
C55 H87 0.930 . S
C56 N53 1.279 . S
C56 C55 1.358 . S
C56 H59 0.930 . S
C57 C54 1.348 . S
C57 C55 1.356 . S
H58 C52 0.930 . S
H59 C56 0.930 . S
O60 Li0 1.956 . S
O60 Li1 1.970 . S
O60 Li2 1.961 . S
O60 C4 1.325 1_545 S
O61 Li0 1.970 . S
O61 Li1 1.956 . S
O61 Li3 1.961 . S
O61 C10 1.325 . S
O62 Li0 1.961 . S
O62 Li2 1.956 . S
O62 Li3 1.970 . S
O62 C32 1.325 1_455 S
O63 Li1 1.961 . S
O63 Li2 1.970 . S
O63 Li3 1.956 . S
O63 C38 1.325 . S
H64 C6 0.929 . S
H65 C7 0.930 . S
H66 C8 0.930 . S
H67 C9 0.930 . S
H68 C11 0.930 . S
H69 C13 0.929 . S
H70 C14 0.930 . S
H71 C15 0.930 . S
H72 C18 0.930 . S
H73 C21 0.929 . S
H74 C26 0.929 . S
H75 C27 0.930 . S
H76 C34 0.929 . S
H77 C35 0.930 . S
H78 C36 0.930 . S
H79 C37 0.930 . S
H80 C39 0.929 . S
H81 C40 0.930 . S
H82 C41 0.930 . S
H83 C42 0.930 . S
H84 C46 0.929 . S
H85 C48 0.930 . S
H86 C54 0.929 . S
H87 C55 0.930 . S
Li88 N105 1.990 . S
Li88 O148 1.956 . S
Li88 O149 1.970 . S
Li88 O150 1.961 . S
Li89 N113 1.990 . S
Li89 O148 1.970 . S
Li89 O149 1.956 . S
Li89 O151 1.961 . S
Li90 N135 1.990 . S
Li90 O148 1.961 . S
Li90 O150 1.956 . S
Li90 O151 1.970 . S
Li91 N141 1.990 . S
Li91 O149 1.961 . S
Li91 O150 1.970 . S
Li91 O151 1.956 . S
C92 C94 1.348 . S
C92 C95 1.356 . S
C92 O148 1.325 . S
N93 C96 1.314 . S
N93 C97 1.279 . S
C94 C92 1.348 . S
C94 C96 1.353 . S
C94 H152 0.929 . S
C95 C92 1.356 . S
C95 C97 1.358 . S
C95 H153 0.930 . S
C96 N93 1.314 . S
C96 C94 1.353 . S
C96 H154 0.930 . S
C97 N93 1.279 . S
C97 C95 1.358 . S
C97 H155 0.930 . S
C98 C101 1.348 . S
C98 C102 1.356 . S
C98 O149 1.325 . S
C99 N100 1.279 . S
C99 C102 1.358 . S
C99 H156 0.930 . S
N100 C99 1.279 . S
N100 C103 1.314 . S
C101 C98 1.348 . S
C101 C103 1.353 . S
C101 H157 0.929 . S
C102 C98 1.356 . S
C102 C99 1.358 . S
C102 H158 0.930 . S
C103 N100 1.314 . S
C103 C101 1.353 . S
C103 H159 0.930 . S
C104 N105 1.314 . S
C104 C109 1.353 . S
C104 H110 0.930 . S
N105 Li88 1.990 . S
N105 C104 1.314 . S
N105 C107 1.279 . S
C106 C107 1.358 . S
C106 C108 1.356 . S
C106 H160 0.930 . S
C107 N105 1.279 . S
C107 C106 1.358 . S
C107 H111 0.930 . S
C108 C106 1.356 . S
C108 C109 1.348 . S
C109 C104 1.353 . S
C109 C108 1.348 . S
C109 H161 0.929 . S
H110 C104 0.930 . S
H111 C107 0.930 . S
C112 N113 1.314 1_545 S
C112 C114 1.353 . S
C112 H118 0.930 . S
N113 Li89 1.990 . S
N113 C112 1.314 1_565 S
N113 C116 1.279 . S
C114 C112 1.353 . S
C114 C117 1.348 . S
C114 H162 0.929 . S
C115 C116 1.358 . S
C115 C117 1.356 1_565 S
C115 H163 0.930 . S
C116 N113 1.279 . S
C116 C115 1.358 . S
C116 H119 0.930 . S
C117 C114 1.348 . S
C117 C115 1.356 1_545 S
H118 C112 0.930 . S
H119 C116 0.930 . S
C120 C122 1.348 . S
C120 C123 1.356 . S
C120 O150 1.325 . S
N121 C124 1.314 . S
N121 C125 1.279 . S
C122 C120 1.348 . S
C122 C124 1.353 . S
C122 H164 0.929 . S
C123 C120 1.356 . S
C123 C125 1.358 . S
C123 H165 0.930 . S
C124 N121 1.314 . S
C124 C122 1.353 . S
C124 H166 0.930 . S
C125 N121 1.279 . S
C125 C123 1.358 . S
C125 H167 0.930 . S
C126 C127 1.348 . S
C126 C128 1.356 . S
C126 O151 1.325 1_545 S
C127 C126 1.348 . S
C127 C129 1.353 . S
C127 H168 0.929 . S
C128 C126 1.356 . S
C128 C130 1.358 . S
C128 H169 0.930 . S
C129 C127 1.353 . S
C129 N131 1.314 . S
C129 H170 0.930 . S
C130 C128 1.358 . S
C130 N131 1.279 . S
C130 H171 0.930 . S
N131 C129 1.314 . S
N131 C130 1.279 . S
C132 C134 1.353 . S
C132 N135 1.314 . S
C132 H138 0.930 . S
C133 N135 1.279 . S
C133 C136 1.358 . S
C133 H139 0.930 . S
C134 C132 1.353 . S
C134 C137 1.348 . S
C134 H172 0.929 . S
N135 Li90 1.990 . S
N135 C132 1.314 . S
N135 C133 1.279 . S
C136 C133 1.358 . S
C136 C137 1.356 . S
C136 H173 0.930 . S
C137 C134 1.348 . S
C137 C136 1.356 . S
H138 C132 0.930 . S
H139 C133 0.930 . S
C140 N141 1.314 . S
C140 C142 1.353 . S
C140 H146 0.930 . S
N141 Li91 1.990 . S
N141 C140 1.314 . S
N141 C144 1.279 1_565 S
C142 C140 1.353 . S
C142 C145 1.348 1_565 S
C142 H174 0.929 . S
C143 C144 1.358 . S
C143 C145 1.356 . S
C143 H175 0.930 . S
C144 N141 1.279 1_545 S
C144 C143 1.358 . S
C144 H147 0.930 . S
C145 C142 1.348 1_545 S
C145 C143 1.356 . S
H146 C140 0.930 . S
H147 C144 0.930 . S
O148 Li88 1.956 . S
O148 Li89 1.970 . S
O148 Li90 1.961 . S
O148 C92 1.325 . S
O149 Li88 1.970 . S
O149 Li89 1.956 . S
O149 Li91 1.961 . S
O149 C98 1.325 . S
O150 Li88 1.961 . S
O150 Li90 1.956 . S
O150 Li91 1.970 . S
O150 C120 1.325 . S
O151 Li89 1.961 . S
O151 Li90 1.970 . S
O151 Li91 1.956 . S
O151 C126 1.325 1_565 S
H152 C94 0.929 . S
H153 C95 0.930 . S
H154 C96 0.930 . S
H155 C97 0.930 . S
H156 C99 0.930 . S
H157 C101 0.929 . S
H158 C102 0.930 . S
H159 C103 0.930 . S
H160 C106 0.930 . S
H161 C109 0.929 . S
H162 C114 0.929 . S
H163 C115 0.930 . S
H164 C122 0.929 . S
H165 C123 0.930 . S
H166 C124 0.930 . S
H167 C125 0.930 . S
H168 C127 0.929 . S
H169 C128 0.930 . S
H170 C129 0.930 . S
H171 C130 0.930 . S
H172 C134 0.929 . S
H173 C136 0.930 . S
H174 C142 0.929 . S
H175 C143 0.930 . S
Li176 N193 1.990 . S
Li176 O236 1.956 . S
Li176 O237 1.970 . S
Li176 O238 1.961 . S
Li177 N201 1.990 . S
Li177 O236 1.970 . S
Li177 O237 1.956 . S
Li177 O239 1.961 . S
Li178 N223 1.990 . S
Li178 O236 1.961 . S
Li178 O238 1.956 . S
Li178 O239 1.970 . S
Li179 N229 1.990 . S
Li179 O237 1.961 . S
Li179 O238 1.970 . S
Li179 O239 1.956 . S
C180 C182 1.348 . S
C180 C183 1.356 . S
C180 O236 1.325 . S
N181 C184 1.314 . S
N181 C185 1.279 . S
C182 C180 1.348 . S
C182 C184 1.353 . S
C182 H240 0.929 . S
C183 C180 1.356 . S
C183 C185 1.358 . S
C183 H241 0.930 . S
C184 N181 1.314 . S
C184 C182 1.353 . S
C184 H242 0.930 . S
C185 N181 1.279 . S
C185 C183 1.358 . S
C185 H243 0.930 . S
C186 C189 1.348 . S
C186 C190 1.356 . S
C186 O237 1.325 1_545 S
C187 N188 1.279 . S
C187 C190 1.358 . S
C187 H244 0.930 . S
N188 C187 1.279 . S
N188 C191 1.314 . S
C189 C186 1.348 . S
C189 C191 1.353 . S
C189 H245 0.929 . S
C190 C186 1.356 . S
C190 C187 1.358 . S
C190 H246 0.930 . S
C191 N188 1.314 . S
C191 C189 1.353 . S
C191 H247 0.930 . S
C192 N193 1.314 . S
C192 C197 1.353 . S
C192 H198 0.930 . S
N193 Li176 1.990 . S
N193 C192 1.314 . S
N193 C195 1.279 . S
C194 C195 1.358 . S
C194 C196 1.356 . S
C194 H248 0.930 . S
C195 N193 1.279 . S
C195 C194 1.358 . S
C195 H199 0.930 . S
C196 C194 1.356 . S
C196 C197 1.348 . S
C197 C192 1.353 . S
C197 C196 1.348 . S
C197 H249 0.929 . S
H198 C192 0.930 . S
H199 C195 0.930 . S
C200 N201 1.314 . S
C200 C202 1.353 . S
C200 H206 0.930 . S
N201 Li177 1.990 . S
N201 C200 1.314 . S
N201 C204 1.279 1_565 S
C202 C200 1.353 . S
C202 C205 1.348 1_565 S
C202 H250 0.929 . S
C203 C204 1.358 . S
C203 C205 1.356 . S
C203 H251 0.930 . S
C204 N201 1.279 1_545 S
C204 C203 1.358 . S
C204 H207 0.930 . S
C205 C202 1.348 1_545 S
C205 C203 1.356 . S
H206 C200 0.930 . S
H207 C204 0.930 . S
C208 C210 1.348 . S
C208 C211 1.356 . S
C208 O238 1.325 . S
N209 C212 1.314 . S
N209 C213 1.279 . S
C210 C208 1.348 . S
C210 C212 1.353 . S
C210 H252 0.929 . S
C211 C208 1.356 . S
C211 C213 1.358 . S
C211 H253 0.930 . S
C212 N209 1.314 . S
C212 C210 1.353 . S
C212 H254 0.930 . S
C213 N209 1.279 . S
C213 C211 1.358 . S
C213 H255 0.930 . S
C214 C215 1.348 . S
C214 C216 1.356 . S
C214 O239 1.325 . S
C215 C214 1.348 . S
C215 C217 1.353 . S
C215 H256 0.929 . S
C216 C214 1.356 . S
C216 C218 1.358 . S
C216 H257 0.930 . S
C217 C215 1.353 . S
C217 N219 1.314 . S
C217 H258 0.930 . S
C218 C216 1.358 . S
C218 N219 1.279 . S
C218 H259 0.930 . S
N219 C217 1.314 . S
N219 C218 1.279 . S
C220 C222 1.353 . S
C220 N223 1.314 . S
C220 H226 0.930 . S
C221 N223 1.279 . S
C221 C224 1.358 . S
C221 H227 0.930 . S
C222 C220 1.353 . S
C222 C225 1.348 . S
C222 H260 0.929 . S
N223 Li178 1.990 . S
N223 C220 1.314 . S
N223 C221 1.279 . S
C224 C221 1.358 . S
C224 C225 1.356 . S
C224 H261 0.930 . S
C225 C222 1.348 . S
C225 C224 1.356 . S
H226 C220 0.930 . S
H227 C221 0.930 . S
C228 N229 1.314 1_545 S
C228 C230 1.353 . S
C228 H234 0.930 . S
N229 Li179 1.990 . S
N229 C228 1.314 1_565 S
N229 C232 1.279 . S
C230 C228 1.353 . S
C230 C233 1.348 . S
C230 H262 0.929 . S
C231 C232 1.358 . S
C231 C233 1.356 1_565 S
C231 H263 0.930 . S
C232 N229 1.279 . S
C232 C231 1.358 . S
C232 H235 0.930 . S
C233 C230 1.348 . S
C233 C231 1.356 1_545 S
H234 C228 0.930 . S
H235 C232 0.930 . S
O236 Li176 1.956 . S
O236 Li177 1.970 . S
O236 Li178 1.961 . S
O236 C180 1.325 . S
O237 Li176 1.970 . S
O237 Li177 1.956 . S
O237 Li179 1.961 . S
O237 C186 1.325 1_565 S
O238 Li176 1.961 . S
O238 Li178 1.956 . S
O238 Li179 1.970 . S
O238 C208 1.325 . S
O239 Li177 1.961 . S
O239 Li178 1.970 . S
O239 Li179 1.956 . S
O239 C214 1.325 . S
H240 C182 0.929 . S
H241 C183 0.930 . S
H242 C184 0.930 . S
H243 C185 0.930 . S
H244 C187 0.930 . S
H245 C189 0.929 . S
H246 C190 0.930 . S
H247 C191 0.930 . S
H248 C194 0.930 . S
H249 C197 0.929 . S
H250 C202 0.929 . S
H251 C203 0.930 . S
H252 C210 0.929 . S
H253 C211 0.930 . S
H254 C212 0.930 . S
H255 C213 0.930 . S
H256 C215 0.929 . S
H257 C216 0.930 . S
H258 C217 0.930 . S
H259 C218 0.930 . S
H260 C222 0.929 . S
H261 C224 0.930 . S
H262 C230 0.929 . S
H263 C231 0.930 . S
Li264 N281 1.990 . S
Li264 O324 1.956 . S
Li264 O325 1.970 . S
Li264 O326 1.961 . S
Li265 N289 1.990 . S
Li265 O324 1.970 . S
Li265 O325 1.956 . S
Li265 O327 1.961 . S
Li266 N311 1.990 . S
Li266 O324 1.961 . S
Li266 O326 1.956 . S
Li266 O327 1.970 . S
Li267 N317 1.990 . S
Li267 O325 1.961 . S
Li267 O326 1.970 . S
Li267 O327 1.956 . S
C268 C270 1.348 . S
C268 C271 1.356 . S
C268 O324 1.325 1_565 S
N269 C272 1.314 . S
N269 C273 1.279 . S
C270 C268 1.348 . S
C270 C272 1.353 . S
C270 H328 0.929 . S
C271 C268 1.356 . S
C271 C273 1.358 . S
C271 H329 0.930 . S
C272 N269 1.314 . S
C272 C270 1.353 . S
C272 H330 0.930 . S
C273 N269 1.279 . S
C273 C271 1.358 . S
C273 H331 0.930 . S
C274 C277 1.348 . S
C274 C278 1.356 . S
C274 O325 1.325 . S
C275 N276 1.279 . S
C275 C278 1.358 . S
C275 H332 0.930 . S
N276 C275 1.279 . S
N276 C279 1.314 . S
C277 C274 1.348 . S
C277 C279 1.353 . S
C277 H333 0.929 . S
C278 C274 1.356 . S
C278 C275 1.358 . S
C278 H334 0.930 . S
C279 N276 1.314 . S
C279 C277 1.353 . S
C279 H335 0.930 . S
C280 N281 1.314 1_455 S
C280 C285 1.353 . S
C280 H286 0.930 . S
N281 Li264 1.990 . S
N281 C280 1.314 1_655 S
N281 C283 1.279 1_545 S
C282 C283 1.358 . S
C282 C284 1.356 1_655 S
C282 H336 0.930 . S
C283 N281 1.279 1_565 S
C283 C282 1.358 . S
C283 H287 0.930 . S
C284 C282 1.356 1_455 S
C284 C285 1.348 1_565 S
C285 C280 1.353 . S
C285 C284 1.348 1_545 S
C285 H337 0.929 . S
H286 C280 0.930 . S
H287 C283 0.930 . S
C288 N289 1.314 . S
C288 C290 1.353 . S
C288 H294 0.930 . S
N289 Li265 1.990 . S
N289 C288 1.314 . S
N289 C292 1.279 . S
C290 C288 1.353 . S
C290 C293 1.348 . S
C290 H338 0.929 . S
C291 C292 1.358 . S
C291 C293 1.356 . S
C291 H339 0.930 . S
C292 N289 1.279 . S
C292 C291 1.358 . S
C292 H295 0.930 . S
C293 C290 1.348 . S
C293 C291 1.356 . S
H294 C288 0.930 . S
H295 C292 0.930 . S
C296 C298 1.348 . S
C296 C299 1.356 . S
C296 O326 1.325 1_455 S
N297 C300 1.314 . S
N297 C301 1.279 . S
C298 C296 1.348 . S
C298 C300 1.353 . S
C298 H340 0.929 . S
C299 C296 1.356 . S
C299 C301 1.358 . S
C299 H341 0.930 . S
C300 N297 1.314 . S
C300 C298 1.353 . S
C300 H342 0.930 . S
C301 N297 1.279 . S
C301 C299 1.358 . S
C301 H343 0.930 . S
C302 C303 1.348 . S
C302 C304 1.356 . S
C302 O327 1.325 . S
C303 C302 1.348 . S
C303 C305 1.353 . S
C303 H344 0.929 . S
C304 C302 1.356 . S
C304 C306 1.358 . S
C304 H345 0.930 . S
C305 C303 1.353 . S
C305 N307 1.314 . S
C305 H346 0.930 . S
C306 C304 1.358 . S
C306 N307 1.279 . S
C306 H347 0.930 . S
N307 C305 1.314 . S
N307 C306 1.279 . S
C308 C310 1.353 . S
C308 N311 1.314 1_565 S
C308 H314 0.930 . S
C309 N311 1.279 1_455 S
C309 C312 1.358 . S
C309 H315 0.930 . S
C310 C308 1.353 . S
C310 C313 1.348 1_655 S
C310 H348 0.929 . S
N311 Li266 1.990 . S
N311 C308 1.314 1_545 S
N311 C309 1.279 1_655 S
C312 C309 1.358 . S
C312 C313 1.356 1_545 S
C312 H349 0.930 . S
C313 C310 1.348 1_455 S
C313 C312 1.356 1_565 S
H314 C308 0.930 . S
H315 C309 0.930 . S
C316 N317 1.314 . S
C316 C318 1.353 . S
C316 H322 0.930 . S
N317 Li267 1.990 . S
N317 C316 1.314 . S
N317 C320 1.279 . S
C318 C316 1.353 . S
C318 C321 1.348 . S
C318 H350 0.929 . S
C319 C320 1.358 . S
C319 C321 1.356 . S
C319 H351 0.930 . S
C320 N317 1.279 . S
C320 C319 1.358 . S
C320 H323 0.930 . S
C321 C318 1.348 . S
C321 C319 1.356 . S
H322 C316 0.930 . S
H323 C320 0.930 . S
O324 Li264 1.956 . S
O324 Li265 1.970 . S
O324 Li266 1.961 . S
O324 C268 1.325 1_545 S
O325 Li264 1.970 . S
O325 Li265 1.956 . S
O325 Li267 1.961 . S
O325 C274 1.325 . S
O326 Li264 1.961 . S
O326 Li266 1.956 . S
O326 Li267 1.970 . S
O326 C296 1.325 1_655 S
O327 Li265 1.961 . S
O327 Li266 1.970 . S
O327 Li267 1.956 . S
O327 C302 1.325 . S
H328 C270 0.929 . S
H329 C271 0.930 . S
H330 C272 0.930 . S
H331 C273 0.930 . S
H332 C275 0.930 . S
H333 C277 0.929 . S
H334 C278 0.930 . S
H335 C279 0.930 . S
H336 C282 0.930 . S
H337 C285 0.929 . S
H338 C290 0.929 . S
H339 C291 0.930 . S
H340 C298 0.929 . S
H341 C299 0.930 . S
H342 C300 0.930 . S
H343 C301 0.930 . S
H344 C303 0.929 . S
H345 C304 0.930 . S
H346 C305 0.930 . S
H347 C306 0.930 . S
H348 C310 0.929 . S
H349 C312 0.930 . S
H350 C318 0.929 . S
H351 C319 0.930 . S
Li352 N369 1.990 . S
Li352 O412 1.956 . S
Li352 O413 1.970 . S
Li352 O414 1.961 . S
Li353 N377 1.990 . S
Li353 O412 1.970 . S
Li353 O413 1.956 . S
Li353 O415 1.961 . S
Li354 N399 1.990 . S
Li354 O412 1.961 . S
Li354 O414 1.956 . S
Li354 O415 1.970 . S
Li355 N405 1.990 . S
Li355 O413 1.961 . S
Li355 O414 1.970 . S
Li355 O415 1.956 . S
C356 C358 1.348 . S
C356 C359 1.356 . S
C356 O412 1.325 . S
N357 C360 1.314 . S
N357 C361 1.279 . S
C358 C356 1.348 . S
C358 C360 1.353 . S
C358 H416 0.929 . S
C359 C356 1.356 . S
C359 C361 1.358 . S
C359 H417 0.930 . S
C360 N357 1.314 . S
C360 C358 1.353 . S
C360 H418 0.930 . S
C361 N357 1.279 . S
C361 C359 1.358 . S
C361 H419 0.930 . S
C362 C365 1.348 . S
C362 C366 1.356 . S
C362 O413 1.325 1_455 S
C363 N364 1.279 . S
C363 C366 1.358 . S
C363 H420 0.930 . S
N364 C363 1.279 . S
N364 C367 1.314 . S
C365 C362 1.348 . S
C365 C367 1.353 . S
C365 H421 0.929 . S
C366 C362 1.356 . S
C366 C363 1.358 . S
C366 H422 0.930 . S
C367 N364 1.314 . S
C367 C365 1.353 . S
C367 H423 0.930 . S
C368 N369 1.314 . S
C368 C373 1.353 . S
C368 H374 0.930 . S
N369 Li352 1.990 . S
N369 C368 1.314 . S
N369 C371 1.279 . S
C370 C371 1.358 . S
C370 C372 1.356 . S
C370 H424 0.930 . S
C371 N369 1.279 . S
C371 C370 1.358 . S
C371 H375 0.930 . S
C372 C370 1.356 . S
C372 C373 1.348 . S
C373 C368 1.353 . S
C373 C372 1.348 . S
C373 H425 0.929 . S
H374 C368 0.930 . S
H375 C371 0.930 . S
C376 N377 1.314 1_545 S
C376 C378 1.353 . S
C376 H382 0.930 . S
N377 Li353 1.990 . S
N377 C376 1.314 1_565 S
N377 C380 1.279 1_655 S
C378 C376 1.353 . S
C378 C381 1.348 1_655 S
C378 H426 0.929 . S
C379 C380 1.358 1_545 S
C379 C381 1.356 . S
C379 H427 0.930 1_545 S
C380 N377 1.279 1_455 S
C380 C379 1.358 1_565 S
C380 H383 0.930 . S
C381 C378 1.348 1_455 S
C381 C379 1.356 . S
H382 C376 0.930 . S
H383 C380 0.930 . S
C384 C386 1.348 . S
C384 C387 1.356 . S
C384 O414 1.325 . S
N385 C388 1.314 . S
N385 C389 1.279 . S
C386 C384 1.348 . S
C386 C388 1.353 . S
C386 H428 0.929 . S
C387 C384 1.356 . S
C387 C389 1.358 . S
C387 H429 0.930 . S
C388 N385 1.314 . S
C388 C386 1.353 . S
C388 H430 0.930 . S
C389 N385 1.279 . S
C389 C387 1.358 . S
C389 H431 0.930 . S
C390 C391 1.348 . S
C390 C392 1.356 . S
C390 O415 1.325 1_545 S
C391 C390 1.348 . S
C391 C393 1.353 . S
C391 H432 0.929 . S
C392 C390 1.356 . S
C392 C394 1.358 . S
C392 H433 0.930 . S
C393 C391 1.353 . S
C393 N395 1.314 . S
C393 H434 0.930 . S
C394 C392 1.358 . S
C394 N395 1.279 . S
C394 H435 0.930 . S
N395 C393 1.314 . S
N395 C394 1.279 . S
C396 C398 1.353 . S
C396 N399 1.314 . S
C396 H402 0.930 . S
C397 N399 1.279 . S
C397 C400 1.358 . S
C397 H403 0.930 . S
C398 C396 1.353 . S
C398 C401 1.348 . S
C398 H436 0.929 . S
N399 Li354 1.990 . S
N399 C396 1.314 . S
N399 C397 1.279 . S
C400 C397 1.358 . S
C400 C401 1.356 . S
C400 H437 0.930 . S
C401 C398 1.348 . S
C401 C400 1.356 . S
H402 C396 0.930 . S
H403 C397 0.930 . S
C404 N405 1.314 1_455 S
C404 C406 1.353 . S
C404 H410 0.930 . S
N405 Li355 1.990 . S
N405 C404 1.314 1_655 S
N405 C408 1.279 1_565 S
C406 C404 1.353 . S
C406 C409 1.348 1_565 S
C406 H438 0.929 . S
C407 C408 1.358 . S
C407 C409 1.356 1_655 S
C407 H439 0.930 . S
C408 N405 1.279 1_545 S
C408 C407 1.358 . S
C408 H411 0.930 . S
C409 C406 1.348 1_545 S
C409 C407 1.356 1_455 S
H410 C404 0.930 . S
H411 C408 0.930 . S
O412 Li352 1.956 . S
O412 Li353 1.970 . S
O412 Li354 1.961 . S
O412 C356 1.325 . S
O413 Li352 1.970 . S
O413 Li353 1.956 . S
O413 Li355 1.961 . S
O413 C362 1.325 1_655 S
O414 Li352 1.961 . S
O414 Li354 1.956 . S
O414 Li355 1.970 . S
O414 C384 1.325 . S
O415 Li353 1.961 . S
O415 Li354 1.970 . S
O415 Li355 1.956 . S
O415 C390 1.325 1_565 S
H416 C358 0.929 . S
H417 C359 0.930 . S
H418 C360 0.930 . S
H419 C361 0.930 . S
H420 C363 0.930 . S
H421 C365 0.929 . S
H422 C366 0.930 . S
H423 C367 0.930 . S
H424 C370 0.930 . S
H425 C373 0.929 . S
H426 C378 0.929 . S
H427 C379 0.930 1_565 S
H428 C386 0.929 . S
H429 C387 0.930 . S
H430 C388 0.930 . S
H431 C389 0.930 . S
H432 C391 0.929 . S
H433 C392 0.930 . S
H434 C393 0.930 . S
H435 C394 0.930 . S
H436 C398 0.929 . S
H437 C400 0.930 . S
H438 C406 0.929 . S
H439 C407 0.930 . S
Li440 N457 1.990 . S
Li440 O500 1.956 . S
Li440 O501 1.970 . S
Li440 O502 1.961 . S
Li441 N465 1.990 . S
Li441 O500 1.970 . S
Li441 O501 1.956 . S
Li441 O503 1.961 . S
Li442 N487 1.990 . S
Li442 O500 1.961 . S
Li442 O502 1.956 . S
Li442 O503 1.970 . S
Li443 N493 1.990 . S
Li443 O501 1.961 . S
Li443 O502 1.970 . S
Li443 O503 1.956 . S
C444 C446 1.348 . S
C444 C447 1.356 . S
C444 O500 1.325 . S
N445 C448 1.314 . S
N445 C449 1.279 . S
C446 C444 1.348 . S
C446 C448 1.353 . S
C446 H504 0.929 . S
C447 C444 1.356 . S
C447 C449 1.358 . S
C447 H505 0.930 . S
C448 N445 1.314 . S
C448 C446 1.353 . S
C448 H506 0.930 . S
C449 N445 1.279 . S
C449 C447 1.358 . S
C449 H507 0.930 . S
C450 C453 1.348 . S
C450 C454 1.356 . S
C450 O501 1.325 . S
C451 N452 1.279 . S
C451 C454 1.358 . S
C451 H508 0.930 . S
N452 C451 1.279 . S
N452 C455 1.314 . S
C453 C450 1.348 . S
C453 C455 1.353 . S
C453 H509 0.929 . S
C454 C450 1.356 . S
C454 C451 1.358 . S
C454 H510 0.930 . S
C455 N452 1.314 . S
C455 C453 1.353 . S
C455 H511 0.930 . S
C456 N457 1.314 . S
C456 C461 1.353 . S
C456 H462 0.930 . S
N457 Li440 1.990 . S
N457 C456 1.314 . S
N457 C459 1.279 . S
C458 C459 1.358 . S
C458 C460 1.356 . S
C458 H512 0.930 . S
C459 N457 1.279 . S
C459 C458 1.358 . S
C459 H463 0.930 . S
C460 C458 1.356 . S
C460 C461 1.348 . S
C461 C456 1.353 . S
C461 C460 1.348 . S
C461 H513 0.929 . S
H462 C456 0.930 . S
H463 C459 0.930 . S
C464 N465 1.314 1_565 S
C464 C466 1.353 . S
C464 H470 0.930 . S
N465 Li441 1.990 . S
N465 C464 1.314 1_545 S
N465 C468 1.279 . S
C466 C464 1.353 . S
C466 C469 1.348 . S
C466 H514 0.929 . S
C467 C468 1.358 1_565 S
C467 C469 1.356 . S
C467 H515 0.930 1_565 S
C468 N465 1.279 . S
C468 C467 1.358 1_545 S
C468 H471 0.930 . S
C469 C466 1.348 . S
C469 C467 1.356 . S
H470 C464 0.930 . S
H471 C468 0.930 . S
C472 C474 1.348 . S
C472 C475 1.356 . S
C472 O502 1.325 . S
N473 C476 1.314 . S
N473 C477 1.279 . S
C474 C472 1.348 . S
C474 C476 1.353 . S
C474 H516 0.929 . S
C475 C472 1.356 . S
C475 C477 1.358 . S
C475 H517 0.930 . S
C476 N473 1.314 . S
C476 C474 1.353 . S
C476 H518 0.930 . S
C477 N473 1.279 . S
C477 C475 1.358 . S
C477 H519 0.930 . S
C478 C479 1.348 . S
C478 C480 1.356 . S
C478 O503 1.325 1_565 S
C479 C478 1.348 . S
C479 C481 1.353 . S
C479 H520 0.929 . S
C480 C478 1.356 . S
C480 C482 1.358 . S
C480 H521 0.930 . S
C481 C479 1.353 . S
C481 N483 1.314 . S
C481 H522 0.930 . S
C482 C480 1.358 . S
C482 N483 1.279 . S
C482 H523 0.930 . S
N483 C481 1.314 . S
N483 C482 1.279 . S
C484 C486 1.353 . S
C484 N487 1.314 . S
C484 H490 0.930 . S
C485 N487 1.279 . S
C485 C488 1.358 . S
C485 H491 0.930 . S
C486 C484 1.353 . S
C486 C489 1.348 . S
C486 H524 0.929 . S
N487 Li442 1.990 . S
N487 C484 1.314 . S
N487 C485 1.279 . S
C488 C485 1.358 . S
C488 C489 1.356 . S
C488 H525 0.930 . S
C489 C486 1.348 . S
C489 C488 1.356 . S
H490 C484 0.930 . S
H491 C485 0.930 . S
C492 N493 1.314 . S
C492 C494 1.353 . S
C492 H498 0.930 . S
N493 Li443 1.990 . S
N493 C492 1.314 . S
N493 C496 1.279 1_545 S
C494 C492 1.353 . S
C494 C497 1.348 1_545 S
C494 H526 0.929 . S
C495 C496 1.358 . S
C495 C497 1.356 . S
C495 H527 0.930 . S
C496 N493 1.279 1_565 S
C496 C495 1.358 . S
C496 H499 0.930 . S
C497 C494 1.348 1_565 S
C497 C495 1.356 . S
H498 C492 0.930 . S
H499 C496 0.930 . S
O500 Li440 1.956 . S
O500 Li441 1.970 . S
O500 Li442 1.961 . S
O500 C444 1.325 . S
O501 Li440 1.970 . S
O501 Li441 1.956 . S
O501 Li443 1.961 . S
O501 C450 1.325 . S
O502 Li440 1.961 . S
O502 Li442 1.956 . S
O502 Li443 1.970 . S
O502 C472 1.325 . S
O503 Li441 1.961 . S
O503 Li442 1.970 . S
O503 Li443 1.956 . S
O503 C478 1.325 1_545 S
H504 C446 0.929 . S
H505 C447 0.930 . S
H506 C448 0.930 . S
H507 C449 0.930 . S
H508 C451 0.930 . S
H509 C453 0.929 . S
H510 C454 0.930 . S
H511 C455 0.930 . S
H512 C458 0.930 . S
H513 C461 0.929 . S
H514 C466 0.929 . S
H515 C467 0.930 1_545 S
H516 C474 0.929 . S
H517 C475 0.930 . S
H518 C476 0.930 . S
H519 C477 0.930 . S
H520 C479 0.929 . S
H521 C480 0.930 . S
H522 C481 0.930 . S
H523 C482 0.930 . S
H524 C486 0.929 . S
H525 C488 0.930 . S
H526 C494 0.929 . S
H527 C495 0.930 . S
Li528 N545 1.990 . S
Li528 O588 1.956 . S
Li528 O589 1.970 . S
Li528 O590 1.961 . S
Li529 N553 1.990 . S
Li529 O588 1.970 . S
Li529 O589 1.956 . S
Li529 O591 1.961 . S
Li530 N575 1.990 . S
Li530 O588 1.961 . S
Li530 O590 1.956 . S
Li530 O591 1.970 . S
Li531 N581 1.990 . S
Li531 O589 1.961 . S
Li531 O590 1.970 . S
Li531 O591 1.956 . S
C532 C534 1.348 . S
C532 C535 1.356 . S
C532 O588 1.325 . S
N533 C536 1.314 . S
N533 C537 1.279 . S
C534 C532 1.348 . S
C534 C536 1.353 . S
C534 H592 0.929 . S
C535 C532 1.356 . S
C535 C537 1.358 . S
C535 H593 0.930 . S
C536 N533 1.314 . S
C536 C534 1.353 . S
C536 H594 0.930 . S
C537 N533 1.279 . S
C537 C535 1.358 . S
C537 H595 0.930 . S
C538 C541 1.348 . S
C538 C542 1.356 . S
C538 O589 1.325 1_565 S
C539 N540 1.279 . S
C539 C542 1.358 . S
C539 H596 0.930 . S
N540 C539 1.279 . S
N540 C543 1.314 . S
C541 C538 1.348 . S
C541 C543 1.353 . S
C541 H597 0.929 . S
C542 C538 1.356 . S
C542 C539 1.358 . S
C542 H598 0.930 . S
C543 N540 1.314 . S
C543 C541 1.353 . S
C543 H599 0.930 . S
C544 N545 1.314 . S
C544 C549 1.353 . S
C544 H550 0.930 . S
N545 Li528 1.990 . S
N545 C544 1.314 . S
N545 C547 1.279 . S
C546 C547 1.358 . S
C546 C548 1.356 . S
C546 H600 0.930 . S
C547 N545 1.279 . S
C547 C546 1.358 . S
C547 H551 0.930 . S
C548 C546 1.356 . S
C548 C549 1.348 . S
C549 C544 1.353 . S
C549 C548 1.348 . S
C549 H601 0.929 . S
H550 C544 0.930 . S
H551 C547 0.930 . S
C552 N553 1.314 . S
C552 C554 1.353 . S
C552 H558 0.930 . S
N553 Li529 1.990 . S
N553 C552 1.314 . S
N553 C556 1.279 1_545 S
C554 C552 1.353 . S
C554 C557 1.348 1_545 S
C554 H602 0.929 . S
C555 C556 1.358 . S
C555 C557 1.356 . S
C555 H603 0.930 . S
C556 N553 1.279 1_565 S
C556 C555 1.358 . S
C556 H559 0.930 . S
C557 C554 1.348 1_565 S
C557 C555 1.356 . S
H558 C552 0.930 . S
H559 C556 0.930 . S
C560 C562 1.348 . S
C560 C563 1.356 . S
C560 O590 1.325 . S
N561 C564 1.314 . S
N561 C565 1.279 . S
C562 C560 1.348 . S
C562 C564 1.353 . S
C562 H604 0.929 . S
C563 C560 1.356 . S
C563 C565 1.358 . S
C563 H605 0.930 . S
C564 N561 1.314 . S
C564 C562 1.353 . S
C564 H606 0.930 . S
C565 N561 1.279 . S
C565 C563 1.358 . S
C565 H607 0.930 . S
C566 C567 1.348 . S
C566 C568 1.356 . S
C566 O591 1.325 . S
C567 C566 1.348 . S
C567 C569 1.353 . S
C567 H608 0.929 . S
C568 C566 1.356 . S
C568 C570 1.358 . S
C568 H609 0.930 . S
C569 C567 1.353 . S
C569 N571 1.314 . S
C569 H610 0.930 . S
C570 C568 1.358 . S
C570 N571 1.279 . S
C570 H611 0.930 . S
N571 C569 1.314 . S
N571 C570 1.279 . S
C572 C574 1.353 . S
C572 N575 1.314 . S
C572 H578 0.930 . S
C573 N575 1.279 . S
C573 C576 1.358 . S
C573 H579 0.930 . S
C574 C572 1.353 . S
C574 C577 1.348 . S
C574 H612 0.929 . S
N575 Li530 1.990 . S
N575 C572 1.314 . S
N575 C573 1.279 . S
C576 C573 1.358 . S
C576 C577 1.356 . S
C576 H613 0.930 . S
C577 C574 1.348 . S
C577 C576 1.356 . S
H578 C572 0.930 . S
H579 C573 0.930 . S
C580 N581 1.314 1_565 S
C580 C582 1.353 . S
C580 H586 0.930 . S
N581 Li531 1.990 . S
N581 C580 1.314 1_545 S
N581 C584 1.279 . S
C582 C580 1.353 . S
C582 C585 1.348 . S
C582 H614 0.929 . S
C583 C584 1.358 1_565 S
C583 C585 1.356 . S
C583 H615 0.930 1_565 S
C584 N581 1.279 . S
C584 C583 1.358 1_545 S
C584 H587 0.930 . S
C585 C582 1.348 . S
C585 C583 1.356 . S
H586 C580 0.930 . S
H587 C584 0.930 . S
O588 Li528 1.956 . S
O588 Li529 1.970 . S
O588 Li530 1.961 . S
O588 C532 1.325 . S
O589 Li528 1.970 . S
O589 Li529 1.956 . S
O589 Li531 1.961 . S
O589 C538 1.325 1_545 S
O590 Li528 1.961 . S
O590 Li530 1.956 . S
O590 Li531 1.970 . S
O590 C560 1.325 . S
O591 Li529 1.961 . S
O591 Li530 1.970 . S
O591 Li531 1.956 . S
O591 C566 1.325 . S
H592 C534 0.929 . S
H593 C535 0.930 . S
H594 C536 0.930 . S
H595 C537 0.930 . S
H596 C539 0.930 . S
H597 C541 0.929 . S
H598 C542 0.930 . S
H599 C543 0.930 . S
H600 C546 0.930 . S
H601 C549 0.929 . S
H602 C554 0.929 . S
H603 C555 0.930 . S
H604 C562 0.929 . S
H605 C563 0.930 . S
H606 C564 0.930 . S
H607 C565 0.930 . S
H608 C567 0.929 . S
H609 C568 0.930 . S
H610 C569 0.930 . S
H611 C570 0.930 . S
H612 C574 0.929 . S
H613 C576 0.930 . S
H614 C582 0.929 . S
H615 C583 0.930 1_545 S
Li616 N633 1.990 . S
Li616 O676 1.956 . S
Li616 O677 1.970 . S
Li616 O678 1.961 . S
Li617 N641 1.990 . S
Li617 O676 1.970 . S
Li617 O677 1.956 . S
Li617 O679 1.961 . S
Li618 N663 1.990 . S
Li618 O676 1.961 . S
Li618 O678 1.956 . S
Li618 O679 1.970 . S
Li619 N669 1.990 . S
Li619 O677 1.961 . S
Li619 O678 1.970 . S
Li619 O679 1.956 . S
C620 C622 1.348 . S
C620 C623 1.356 . S
C620 O676 1.325 1_545 S
N621 C624 1.314 . S
N621 C625 1.279 . S
C622 C620 1.348 . S
C622 C624 1.353 . S
C622 H680 0.929 . S
C623 C620 1.356 . S
C623 C625 1.358 . S
C623 H681 0.930 . S
C624 N621 1.314 . S
C624 C622 1.353 . S
C624 H682 0.930 . S
C625 N621 1.279 . S
C625 C623 1.358 . S
C625 H683 0.930 . S
C626 C629 1.348 . S
C626 C630 1.356 . S
C626 O677 1.325 . S
C627 N628 1.279 . S
C627 C630 1.358 . S
C627 H684 0.930 . S
N628 C627 1.279 . S
N628 C631 1.314 . S
C629 C626 1.348 . S
C629 C631 1.353 . S
C629 H685 0.929 . S
C630 C626 1.356 . S
C630 C627 1.358 . S
C630 H686 0.930 . S
C631 N628 1.314 . S
C631 C629 1.353 . S
C631 H687 0.930 . S
C632 N633 1.314 1_655 S
C632 C637 1.353 . S
C632 H638 0.930 . S
N633 Li616 1.990 . S
N633 C632 1.314 1_455 S
N633 C635 1.279 1_565 S
C634 C635 1.358 . S
C634 C636 1.356 1_455 S
C634 H688 0.930 . S
C635 N633 1.279 1_545 S
C635 C634 1.358 . S
C635 H639 0.930 . S
C636 C634 1.356 1_655 S
C636 C637 1.348 1_545 S
C637 C632 1.353 . S
C637 C636 1.348 1_565 S
C637 H689 0.929 . S
H638 C632 0.930 . S
H639 C635 0.930 . S
C640 N641 1.314 . S
C640 C642 1.353 . S
C640 H646 0.930 . S
N641 Li617 1.990 . S
N641 C640 1.314 . S
N641 C644 1.279 . S
C642 C640 1.353 . S
C642 C645 1.348 . S
C642 H690 0.929 . S
C643 C644 1.358 . S
C643 C645 1.356 . S
C643 H691 0.930 . S
C644 N641 1.279 . S
C644 C643 1.358 . S
C644 H647 0.930 . S
C645 C642 1.348 . S
C645 C643 1.356 . S
H646 C640 0.930 . S
H647 C644 0.930 . S
C648 C650 1.348 . S
C648 C651 1.356 . S
C648 O678 1.325 1_655 S
N649 C652 1.314 . S
N649 C653 1.279 . S
C650 C648 1.348 . S
C650 C652 1.353 . S
C650 H692 0.929 . S
C651 C648 1.356 . S
C651 C653 1.358 . S
C651 H693 0.930 . S
C652 N649 1.314 . S
C652 C650 1.353 . S
C652 H694 0.930 . S
C653 N649 1.279 . S
C653 C651 1.358 . S
C653 H695 0.930 . S
C654 C655 1.348 . S
C654 C656 1.356 . S
C654 O679 1.325 . S
C655 C654 1.348 . S
C655 C657 1.353 . S
C655 H696 0.929 . S
C656 C654 1.356 . S
C656 C658 1.358 . S
C656 H697 0.930 . S
C657 C655 1.353 . S
C657 N659 1.314 . S
C657 H698 0.930 . S
C658 C656 1.358 . S
C658 N659 1.279 . S
C658 H699 0.930 . S
N659 C657 1.314 . S
N659 C658 1.279 . S
C660 C662 1.353 . S
C660 N663 1.314 1_545 S
C660 H666 0.930 . S
C661 N663 1.279 1_655 S
C661 C664 1.358 1_565 S
C661 H667 0.930 . S
C662 C660 1.353 . S
C662 C665 1.348 1_455 S
C662 H700 0.929 . S
N663 Li618 1.990 . S
N663 C660 1.314 1_565 S
N663 C661 1.279 1_455 S
C664 C661 1.358 1_545 S
C664 C665 1.356 . S
C664 H701 0.930 1_545 S
C665 C662 1.348 1_655 S
C665 C664 1.356 . S
H666 C660 0.930 . S
H667 C661 0.930 . S
C668 N669 1.314 . S
C668 C670 1.353 . S
C668 H674 0.930 . S
N669 Li619 1.990 . S
N669 C668 1.314 . S
N669 C672 1.279 . S
C670 C668 1.353 . S
C670 C673 1.348 . S
C670 H702 0.929 . S
C671 C672 1.358 . S
C671 C673 1.356 . S
C671 H703 0.930 . S
C672 N669 1.279 . S
C672 C671 1.358 . S
C672 H675 0.930 . S
C673 C670 1.348 . S
C673 C671 1.356 . S
H674 C668 0.930 . S
H675 C672 0.930 . S
O676 Li616 1.956 . S
O676 Li617 1.970 . S
O676 Li618 1.961 . S
O676 C620 1.325 1_565 S
O677 Li616 1.970 . S
O677 Li617 1.956 . S
O677 Li619 1.961 . S
O677 C626 1.325 . S
O678 Li616 1.961 . S
O678 Li618 1.956 . S
O678 Li619 1.970 . S
O678 C648 1.325 1_455 S
O679 Li617 1.961 . S
O679 Li618 1.970 . S
O679 Li619 1.956 . S
O679 C654 1.325 . S
H680 C622 0.929 . S
H681 C623 0.930 . S
H682 C624 0.930 . S
H683 C625 0.930 . S
H684 C627 0.930 . S
H685 C629 0.929 . S
H686 C630 0.930 . S
H687 C631 0.930 . S
H688 C634 0.930 . S
H689 C637 0.929 . S
H690 C642 0.929 . S
H691 C643 0.930 . S
H692 C650 0.929 . S
H693 C651 0.930 . S
H694 C652 0.930 . S
H695 C653 0.930 . S
H696 C655 0.929 . S
H697 C656 0.930 . S
H698 C657 0.930 . S
H699 C658 0.930 . S
H700 C662 0.929 . S
H701 C664 0.930 1_565 S
H702 C670 0.929 . S
H703 C671 0.930 . S
Li704 N721 1.990 . S
Li704 O764 1.956 . S
Li704 O765 1.970 . S
Li704 O766 1.961 . S
Li705 N729 1.990 . S
Li705 O764 1.970 . S
Li705 O765 1.956 . S
Li705 O767 1.961 . S
Li706 N751 1.990 . S
Li706 O764 1.961 . S
Li706 O766 1.956 . S
Li706 O767 1.970 . S
Li707 N757 1.990 . S
Li707 O765 1.961 . S
Li707 O766 1.970 . S
Li707 O767 1.956 . S
C708 C710 1.348 . S
C708 C711 1.356 . S
C708 O764 1.325 . S
N709 C712 1.314 . S
N709 C713 1.279 . S
C710 C708 1.348 . S
C710 C712 1.353 . S
C710 H768 0.929 . S
C711 C708 1.356 . S
C711 C713 1.358 . S
C711 H769 0.930 . S
C712 N709 1.314 . S
C712 C710 1.353 . S
C712 H770 0.930 . S
C713 N709 1.279 . S
C713 C711 1.358 . S
C713 H771 0.930 . S
C714 C717 1.348 . S
C714 C718 1.356 . S
C714 O765 1.325 . S
C715 N716 1.279 . S
C715 C718 1.358 . S
C715 H772 0.930 . S
N716 C715 1.279 . S
N716 C719 1.314 . S
C717 C714 1.348 . S
C717 C719 1.353 . S
C717 H773 0.929 . S
C718 C714 1.356 . S
C718 C715 1.358 . S
C718 H774 0.930 . S
C719 N716 1.314 . S
C719 C717 1.353 . S
C719 H775 0.930 . S
C720 N721 1.314 . S
C720 C725 1.353 . S
C720 H726 0.930 . S
N721 Li704 1.990 . S
N721 C720 1.314 . S
N721 C723 1.279 . S
C722 C723 1.358 . S
C722 C724 1.356 . S
C722 H776 0.930 . S
C723 N721 1.279 . S
C723 C722 1.358 . S
C723 H727 0.930 . S
C724 C722 1.356 . S
C724 C725 1.348 . S
C725 C720 1.353 . S
C725 C724 1.348 . S
C725 H777 0.929 . S
H726 C720 0.930 . S
H727 C723 0.930 . S
C728 N729 1.314 . S
C728 C730 1.353 . S
C728 H734 0.930 . S
N729 Li705 1.990 . S
N729 C728 1.314 . S
N729 C732 1.279 . S
C730 C728 1.353 . S
C730 C733 1.348 . S
C730 H778 0.929 . S
C731 C732 1.358 . S
C731 C733 1.356 . S
C731 H779 0.930 . S
C732 N729 1.279 . S
C732 C731 1.358 . S
C732 H735 0.930 . S
C733 C730 1.348 . S
C733 C731 1.356 . S
H734 C728 0.930 . S
H735 C732 0.930 . S
C736 C738 1.348 . S
C736 C739 1.356 . S
C736 O766 1.325 . S
N737 C740 1.314 . S
N737 C741 1.279 . S
C738 C736 1.348 . S
C738 C740 1.353 . S
C738 H780 0.929 . S
C739 C736 1.356 . S
C739 C741 1.358 . S
C739 H781 0.930 . S
C740 N737 1.314 . S
C740 C738 1.353 . S
C740 H782 0.930 . S
C741 N737 1.279 . S
C741 C739 1.358 . S
C741 H783 0.930 . S
C742 C743 1.348 . S
C742 C744 1.356 . S
C742 O767 1.325 . S
C743 C742 1.348 . S
C743 C745 1.353 . S
C743 H784 0.929 . S
C744 C742 1.356 . S
C744 C746 1.358 . S
C744 H785 0.930 . S
C745 C743 1.353 . S
C745 N747 1.314 . S
C745 H786 0.930 . S
C746 C744 1.358 . S
C746 N747 1.279 . S
C746 H787 0.930 . S
N747 C745 1.314 . S
N747 C746 1.279 . S
C748 C750 1.353 . S
C748 N751 1.314 . S
C748 H754 0.930 . S
C749 N751 1.279 . S
C749 C752 1.358 . S
C749 H755 0.930 . S
C750 C748 1.353 . S
C750 C753 1.348 . S
C750 H788 0.929 . S
N751 Li706 1.990 . S
N751 C748 1.314 . S
N751 C749 1.279 . S
C752 C749 1.358 . S
C752 C753 1.356 . S
C752 H789 0.930 . S
C753 C750 1.348 . S
C753 C752 1.356 . S
H754 C748 0.930 . S
H755 C749 0.930 . S
C756 N757 1.314 . S
C756 C758 1.353 . S
C756 H762 0.930 . S
N757 Li707 1.990 . S
N757 C756 1.314 . S
N757 C760 1.279 . S
C758 C756 1.353 . S
C758 C761 1.348 . S
C758 H790 0.929 . S
C759 C760 1.358 . S
C759 C761 1.356 . S
C759 H791 0.930 . S
C760 N757 1.279 . S
C760 C759 1.358 . S
C760 H763 0.930 . S
C761 C758 1.348 . S
C761 C759 1.356 . S
H762 C756 0.930 . S
H763 C760 0.930 . S
O764 Li704 1.956 . S
O764 Li705 1.970 . S
O764 Li706 1.961 . S
O764 C708 1.325 . S
O765 Li704 1.970 . S
O765 Li705 1.956 . S
O765 Li707 1.961 . S
O765 C714 1.325 . S
O766 Li704 1.961 . S
O766 Li706 1.956 . S
O766 Li707 1.970 . S
O766 C736 1.325 . S
O767 Li705 1.961 . S
O767 Li706 1.970 . S
O767 Li707 1.956 . S
O767 C742 1.325 . S
H768 C710 0.929 . S
H769 C711 0.930 . S
H770 C712 0.930 . S
H771 C713 0.930 . S
H772 C715 0.930 . S
H773 C717 0.929 . S
H774 C718 0.930 . S
H775 C719 0.930 . S
H776 C722 0.930 . S
H777 C725 0.929 . S
H778 C730 0.929 . S
H779 C731 0.930 . S
H780 C738 0.929 . S
H781 C739 0.930 . S
H782 C740 0.930 . S
H783 C741 0.930 . S
H784 C743 0.929 . S
H785 C744 0.930 . S
H786 C745 0.930 . S
H787 C746 0.930 . S
H788 C750 0.929 . S
H789 C752 0.930 . S
H790 C758 0.929 . S
H791 C759 0.930 . S
Li792 N809 1.990 . S
Li792 O852 1.956 . S
Li792 O853 1.970 . S
Li792 O854 1.961 . S
Li793 N817 1.990 . S
Li793 O852 1.970 . S
Li793 O853 1.956 . S
Li793 O855 1.961 . S
Li794 N839 1.990 . S
Li794 O852 1.961 . S
Li794 O854 1.956 . S
Li794 O855 1.970 . S
Li795 N845 1.990 . S
Li795 O853 1.961 . S
Li795 O854 1.970 . S
Li795 O855 1.956 . S
C796 C798 1.348 . S
C796 C799 1.356 . S
C796 O852 1.325 . S
N797 C800 1.314 . S
N797 C801 1.279 . S
C798 C796 1.348 . S
C798 C800 1.353 . S
C798 H856 0.929 . S
C799 C796 1.356 . S
C799 C801 1.358 . S
C799 H857 0.930 . S
C800 N797 1.314 . S
C800 C798 1.353 . S
C800 H858 0.930 . S
C801 N797 1.279 . S
C801 C799 1.358 . S
C801 H859 0.930 . S
C802 C805 1.348 . S
C802 C806 1.356 . S
C802 O853 1.325 1_455 S
C803 N804 1.279 . S
C803 C806 1.358 . S
C803 H860 0.930 . S
N804 C803 1.279 . S
N804 C807 1.314 . S
C805 C802 1.348 . S
C805 C807 1.353 . S
C805 H861 0.929 . S
C806 C802 1.356 . S
C806 C803 1.358 . S
C806 H862 0.930 . S
C807 N804 1.314 . S
C807 C805 1.353 . S
C807 H863 0.930 . S
C808 N809 1.314 . S
C808 C813 1.353 . S
C808 H814 0.930 . S
N809 Li792 1.990 . S
N809 C808 1.314 . S
N809 C811 1.279 . S
C810 C811 1.358 . S
C810 C812 1.356 . S
C810 H864 0.930 . S
C811 N809 1.279 . S
C811 C810 1.358 . S
C811 H815 0.930 . S
C812 C810 1.356 . S
C812 C813 1.348 . S
C813 C808 1.353 . S
C813 C812 1.348 . S
C813 H865 0.929 . S
H814 C808 0.930 . S
H815 C811 0.930 . S
C816 N817 1.314 . S
C816 C818 1.353 . S
C816 H822 0.930 . S
N817 Li793 1.990 . S
N817 C816 1.314 . S
N817 C820 1.279 1_655 S
C818 C816 1.353 . S
C818 C821 1.348 1_655 S
C818 H866 0.929 . S
C819 C820 1.358 . S
C819 C821 1.356 . S
C819 H867 0.930 . S
C820 N817 1.279 1_455 S
C820 C819 1.358 . S
C820 H823 0.930 . S
C821 C818 1.348 1_455 S
C821 C819 1.356 . S
H822 C816 0.930 . S
H823 C820 0.930 . S
C824 C826 1.348 . S
C824 C827 1.356 . S
C824 O854 1.325 . S
N825 C828 1.314 . S
N825 C829 1.279 . S
C826 C824 1.348 . S
C826 C828 1.353 . S
C826 H868 0.929 . S
C827 C824 1.356 . S
C827 C829 1.358 . S
C827 H869 0.930 . S
C828 N825 1.314 . S
C828 C826 1.353 . S
C828 H870 0.930 . S
C829 N825 1.279 . S
C829 C827 1.358 . S
C829 H871 0.930 . S
C830 C831 1.348 . S
C830 C832 1.356 . S
C830 O855 1.325 . S
C831 C830 1.348 . S
C831 C833 1.353 . S
C831 H872 0.929 . S
C832 C830 1.356 . S
C832 C834 1.358 . S
C832 H873 0.930 . S
C833 C831 1.353 . S
C833 N835 1.314 . S
C833 H874 0.930 . S
C834 C832 1.358 . S
C834 N835 1.279 . S
C834 H875 0.930 . S
N835 C833 1.314 . S
N835 C834 1.279 . S
C836 C838 1.353 . S
C836 N839 1.314 . S
C836 H842 0.930 . S
C837 N839 1.279 . S
C837 C840 1.358 . S
C837 H843 0.930 . S
C838 C836 1.353 . S
C838 C841 1.348 . S
C838 H876 0.929 . S
N839 Li794 1.990 . S
N839 C836 1.314 . S
N839 C837 1.279 . S
C840 C837 1.358 . S
C840 C841 1.356 . S
C840 H877 0.930 . S
C841 C838 1.348 . S
C841 C840 1.356 . S
H842 C836 0.930 . S
H843 C837 0.930 . S
C844 N845 1.314 1_455 S
C844 C846 1.353 . S
C844 H850 0.930 . S
N845 Li795 1.990 . S
N845 C844 1.314 1_655 S
N845 C848 1.279 . S
C846 C844 1.353 . S
C846 C849 1.348 . S
C846 H878 0.929 . S
C847 C848 1.358 . S
C847 C849 1.356 1_655 S
C847 H879 0.930 . S
C848 N845 1.279 . S
C848 C847 1.358 . S
C848 H851 0.930 . S
C849 C846 1.348 . S
C849 C847 1.356 1_455 S
H850 C844 0.930 . S
H851 C848 0.930 . S
O852 Li792 1.956 . S
O852 Li793 1.970 . S
O852 Li794 1.961 . S
O852 C796 1.325 . S
O853 Li792 1.970 . S
O853 Li793 1.956 . S
O853 Li795 1.961 . S
O853 C802 1.325 1_655 S
O854 Li792 1.961 . S
O854 Li794 1.956 . S
O854 Li795 1.970 . S
O854 C824 1.325 . S
O855 Li793 1.961 . S
O855 Li794 1.970 . S
O855 Li795 1.956 . S
O855 C830 1.325 . S
H856 C798 0.929 . S
H857 C799 0.930 . S
H858 C800 0.930 . S
H859 C801 0.930 . S
H860 C803 0.930 . S
H861 C805 0.929 . S
H862 C806 0.930 . S
H863 C807 0.930 . S
H864 C810 0.930 . S
H865 C813 0.929 . S
H866 C818 0.929 . S
H867 C819 0.930 . S
H868 C826 0.929 . S
H869 C827 0.930 . S
H870 C828 0.930 . S
H871 C829 0.930 . S
H872 C831 0.929 . S
H873 C832 0.930 . S
H874 C833 0.930 . S
H875 C834 0.930 . S
H876 C838 0.929 . S
H877 C840 0.930 . S
H878 C846 0.929 . S
H879 C847 0.930 . S
Li880 N897 1.990 . S
Li880 O940 1.956 . S
Li880 O941 1.970 . S
Li880 O942 1.961 . S
Li881 N905 1.990 . S
Li881 O940 1.970 . S
Li881 O941 1.956 . S
Li881 O943 1.961 . S
Li882 N927 1.990 . S
Li882 O940 1.961 . S
Li882 O942 1.956 . S
Li882 O943 1.970 . S
Li883 N933 1.990 . S
Li883 O941 1.961 . S
Li883 O942 1.970 . S
Li883 O943 1.956 . S
C884 C886 1.348 . S
C884 C887 1.356 . S
C884 O940 1.325 . S
N885 C888 1.314 . S
N885 C889 1.279 . S
C886 C884 1.348 . S
C886 C888 1.353 . S
C886 H944 0.929 . S
C887 C884 1.356 . S
C887 C889 1.358 . S
C887 H945 0.930 . S
C888 N885 1.314 . S
C888 C886 1.353 . S
C888 H946 0.930 . S
C889 N885 1.279 . S
C889 C887 1.358 . S
C889 H947 0.930 . S
C890 C893 1.348 . S
C890 C894 1.356 . S
C890 O941 1.325 . S
C891 N892 1.279 . S
C891 C894 1.358 . S
C891 H948 0.930 . S
N892 C891 1.279 . S
N892 C895 1.314 . S
C893 C890 1.348 . S
C893 C895 1.353 . S
C893 H949 0.929 . S
C894 C890 1.356 . S
C894 C891 1.358 . S
C894 H950 0.930 . S
C895 N892 1.314 . S
C895 C893 1.353 . S
C895 H951 0.930 . S
C896 N897 1.314 1_655 S
C896 C901 1.353 . S
C896 H902 0.930 . S
N897 Li880 1.990 . S
N897 C896 1.314 1_455 S
N897 C899 1.279 . S
C898 C899 1.358 . S
C898 C900 1.356 1_455 S
C898 H952 0.930 . S
C899 N897 1.279 . S
C899 C898 1.358 . S
C899 H903 0.930 . S
C900 C898 1.356 1_655 S
C900 C901 1.348 . S
C901 C896 1.353 . S
C901 C900 1.348 . S
C901 H953 0.929 . S
H902 C896 0.930 . S
H903 C899 0.930 . S
C904 N905 1.314 . S
C904 C906 1.353 . S
C904 H910 0.930 . S
N905 Li881 1.990 . S
N905 C904 1.314 . S
N905 C908 1.279 . S
C906 C904 1.353 . S
C906 C909 1.348 . S
C906 H954 0.929 . S
C907 C908 1.358 . S
C907 C909 1.356 . S
C907 H955 0.930 . S
C908 N905 1.279 . S
C908 C907 1.358 . S
C908 H911 0.930 . S
C909 C906 1.348 . S
C909 C907 1.356 . S
H910 C904 0.930 . S
H911 C908 0.930 . S
C912 C914 1.348 . S
C912 C915 1.356 . S
C912 O942 1.325 1_655 S
N913 C916 1.314 . S
N913 C917 1.279 . S
C914 C912 1.348 . S
C914 C916 1.353 . S
C914 H956 0.929 . S
C915 C912 1.356 . S
C915 C917 1.358 . S
C915 H957 0.930 . S
C916 N913 1.314 . S
C916 C914 1.353 . S
C916 H958 0.930 . S
C917 N913 1.279 . S
C917 C915 1.358 . S
C917 H959 0.930 . S
C918 C919 1.348 . S
C918 C920 1.356 . S
C918 O943 1.325 . S
C919 C918 1.348 . S
C919 C921 1.353 . S
C919 H960 0.929 . S
C920 C918 1.356 . S
C920 C922 1.358 . S
C920 H961 0.930 . S
C921 C919 1.353 . S
C921 N923 1.314 . S
C921 H962 0.930 . S
C922 C920 1.358 . S
C922 N923 1.279 . S
C922 H963 0.930 . S
N923 C921 1.314 . S
N923 C922 1.279 . S
C924 C926 1.353 . S
C924 N927 1.314 . S
C924 H930 0.930 . S
C925 N927 1.279 1_655 S
C925 C928 1.358 . S
C925 H931 0.930 . S
C926 C924 1.353 . S
C926 C929 1.348 1_455 S
C926 H964 0.929 . S
N927 Li882 1.990 . S
N927 C924 1.314 . S
N927 C925 1.279 1_455 S
C928 C925 1.358 . S
C928 C929 1.356 . S
C928 H965 0.930 . S
C929 C926 1.348 1_655 S
C929 C928 1.356 . S
H930 C924 0.930 . S
H931 C925 0.930 . S
C932 N933 1.314 . S
C932 C934 1.353 . S
C932 H938 0.930 . S
N933 Li883 1.990 . S
N933 C932 1.314 . S
N933 C936 1.279 . S
C934 C932 1.353 . S
C934 C937 1.348 . S
C934 H966 0.929 . S
C935 C936 1.358 . S
C935 C937 1.356 . S
C935 H967 0.930 . S
C936 N933 1.279 . S
C936 C935 1.358 . S
C936 H939 0.930 . S
C937 C934 1.348 . S
C937 C935 1.356 . S
H938 C932 0.930 . S
H939 C936 0.930 . S
O940 Li880 1.956 . S
O940 Li881 1.970 . S
O940 Li882 1.961 . S
O940 C884 1.325 . S
O941 Li880 1.970 . S
O941 Li881 1.956 . S
O941 Li883 1.961 . S
O941 C890 1.325 . S
O942 Li880 1.961 . S
O942 Li882 1.956 . S
O942 Li883 1.970 . S
O942 C912 1.325 1_455 S
O943 Li881 1.961 . S
O943 Li882 1.970 . S
O943 Li883 1.956 . S
O943 C918 1.325 . S
H944 C886 0.929 . S
H945 C887 0.930 . S
H946 C888 0.930 . S
H947 C889 0.930 . S
H948 C891 0.930 . S
H949 C893 0.929 . S
H950 C894 0.930 . S
H951 C895 0.930 . S
H952 C898 0.930 . S
H953 C901 0.929 . S
H954 C906 0.929 . S
H955 C907 0.930 . S
H956 C914 0.929 . S
H957 C915 0.930 . S
H958 C916 0.930 . S
H959 C917 0.930 . S
H960 C919 0.929 . S
H961 C920 0.930 . S
H962 C921 0.930 . S
H963 C922 0.930 . S
H964 C926 0.929 . S
H965 C928 0.930 . S
H966 C934 0.929 . S
H967 C935 0.930 . S
Li968 N985 1.990 . S
Li968 O1028 1.956 . S
Li968 O1029 1.970 . S
Li968 O1030 1.961 . S
Li969 N993 1.990 . S
Li969 O1028 1.970 . S
Li969 O1029 1.956 . S
Li969 O1031 1.961 . S
Li970 N1015 1.990 . S
Li970 O1028 1.961 . S
Li970 O1030 1.956 . S
Li970 O1031 1.970 . S
Li971 N1021 1.990 . S
Li971 O1029 1.961 . S
Li971 O1030 1.970 . S
Li971 O1031 1.956 . S
C972 C974 1.348 . S
C972 C975 1.356 . S
C972 O1028 1.325 . S
N973 C976 1.314 . S
N973 C977 1.279 . S
C974 C972 1.348 . S
C974 C976 1.353 . S
C974 H1032 0.929 . S
C975 C972 1.356 . S
C975 C977 1.358 . S
C975 H1033 0.930 . S
C976 N973 1.314 . S
C976 C974 1.353 . S
C976 H1034 0.930 . S
C977 N973 1.279 . S
C977 C975 1.358 . S
C977 H1035 0.930 . S
C978 C981 1.348 . S
C978 C982 1.356 . S
C978 O1029 1.325 . S
C979 N980 1.279 . S
C979 C982 1.358 . S
C979 H1036 0.930 . S
N980 C979 1.279 . S
N980 C983 1.314 . S
C981 C978 1.348 . S
C981 C983 1.353 . S
C981 H1037 0.929 . S
C982 C978 1.356 . S
C982 C979 1.358 . S
C982 H1038 0.930 . S
C983 N980 1.314 . S
C983 C981 1.353 . S
C983 H1039 0.930 . S
C984 N985 1.314 . S
C984 C989 1.353 . S
C984 H990 0.930 . S
N985 Li968 1.990 . S
N985 C984 1.314 . S
N985 C987 1.279 . S
C986 C987 1.358 . S
C986 C988 1.356 . S
C986 H1040 0.930 . S
C987 N985 1.279 . S
C987 C986 1.358 . S
C987 H991 0.930 . S
C988 C986 1.356 . S
C988 C989 1.348 . S
C989 C984 1.353 . S
C989 C988 1.348 . S
C989 H1041 0.929 . S
H990 C984 0.930 . S
H991 C987 0.930 . S
C992 N993 1.314 . S
C992 C994 1.353 . S
C992 H998 0.930 . S
N993 Li969 1.990 . S
N993 C992 1.314 . S
N993 C996 1.279 . S
C994 C992 1.353 . S
C994 C997 1.348 . S
C994 H1042 0.929 . S
C995 C996 1.358 . S
C995 C997 1.356 . S
C995 H1043 0.930 . S
C996 N993 1.279 . S
C996 C995 1.358 . S
C996 H999 0.930 . S
C997 C994 1.348 . S
C997 C995 1.356 . S
H998 C992 0.930 . S
H999 C996 0.930 . S
C1000 C1002 1.348 . S
C1000 C1003 1.356 . S
C1000 O1030 1.325 . S
N1001 C1004 1.314 . S
N1001 C1005 1.279 . S
C1002 C1000 1.348 . S
C1002 C1004 1.353 . S
C1002 H1044 0.929 . S
C1003 C1000 1.356 . S
C1003 C1005 1.358 . S
C1003 H1045 0.930 . S
C1004 N1001 1.314 . S
C1004 C1002 1.353 . S
C1004 H1046 0.930 . S
C1005 N1001 1.279 . S
C1005 C1003 1.358 . S
C1005 H1047 0.930 . S
C1006 C1007 1.348 . S
C1006 C1008 1.356 . S
C1006 O1031 1.325 . S
C1007 C1006 1.348 . S
C1007 C1009 1.353 . S
C1007 H1048 0.929 . S
C1008 C1006 1.356 . S
C1008 C1010 1.358 . S
C1008 H1049 0.930 . S
C1009 C1007 1.353 . S
C1009 N1011 1.314 . S
C1009 H1050 0.930 . S
C1010 C1008 1.358 . S
C1010 N1011 1.279 . S
C1010 H1051 0.930 . S
N1011 C1009 1.314 . S
N1011 C1010 1.279 . S
C1012 C1014 1.353 . S
C1012 N1015 1.314 . S
C1012 H1018 0.930 . S
C1013 N1015 1.279 . S
C1013 C1016 1.358 . S
C1013 H1019 0.930 . S
C1014 C1012 1.353 . S
C1014 C1017 1.348 . S
C1014 H1052 0.929 . S
N1015 Li970 1.990 . S
N1015 C1012 1.314 . S
N1015 C1013 1.279 . S
C1016 C1013 1.358 . S
C1016 C1017 1.356 . S
C1016 H1053 0.930 . S
C1017 C1014 1.348 . S
C1017 C1016 1.356 . S
H1018 C1012 0.930 . S
H1019 C1013 0.930 . S
C1020 N1021 1.314 . S
C1020 C1022 1.353 . S
C1020 H1026 0.930 . S
N1021 Li971 1.990 . S
N1021 C1020 1.314 . S
N1021 C1024 1.279 . S
C1022 C1020 1.353 . S
C1022 C1025 1.348 . S
C1022 H1054 0.929 . S
C1023 C1024 1.358 . S
C1023 C1025 1.356 . S
C1023 H1055 0.930 . S
C1024 N1021 1.279 . S
C1024 C1023 1.358 . S
C1024 H1027 0.930 . S
C1025 C1022 1.348 . S
C1025 C1023 1.356 . S
H1026 C1020 0.930 . S
H1027 C1024 0.930 . S
O1028 Li968 1.956 . S
O1028 Li969 1.970 . S
O1028 Li970 1.961 . S
O1028 C972 1.325 . S
O1029 Li968 1.970 . S
O1029 Li969 1.956 . S
O1029 Li971 1.961 . S
O1029 C978 1.325 . S
O1030 Li968 1.961 . S
O1030 Li970 1.956 . S
O1030 Li971 1.970 . S
O1030 C1000 1.325 . S
O1031 Li969 1.961 . S
O1031 Li970 1.970 . S
O1031 Li971 1.956 . S
O1031 C1006 1.325 . S
H1032 C974 0.929 . S
H1033 C975 0.930 . S
H1034 C976 0.930 . S
H1035 C977 0.930 . S
H1036 C979 0.930 . S
H1037 C981 0.929 . S
H1038 C982 0.930 . S
H1039 C983 0.930 . S
H1040 C986 0.930 . S
H1041 C989 0.929 . S
H1042 C994 0.929 . S
H1043 C995 0.930 . S
H1044 C1002 0.929 . S
H1045 C1003 0.930 . S
H1046 C1004 0.930 . S
H1047 C1005 0.930 . S
H1048 C1007 0.929 . S
H1049 C1008 0.930 . S
H1050 C1009 0.930 . S
H1051 C1010 0.930 . S
H1052 C1014 0.929 . S
H1053 C1016 0.930 . S
H1054 C1022 0.929 . S
H1055 C1023 0.930 . S
Li1056 N1073 1.990 . S
Li1056 O1116 1.956 . S
Li1056 O1117 1.970 . S
Li1056 O1118 1.961 . S
Li1057 N1081 1.990 . S
Li1057 O1116 1.970 . S
Li1057 O1117 1.956 . S
Li1057 O1119 1.961 . S
Li1058 N1103 1.990 . S
Li1058 O1116 1.961 . S
Li1058 O1118 1.956 . S
Li1058 O1119 1.970 . S
Li1059 N1109 1.990 . S
Li1059 O1117 1.961 . S
Li1059 O1118 1.970 . S
Li1059 O1119 1.956 . S
C1060 C1062 1.348 . S
C1060 C1063 1.356 . S
C1060 O1116 1.325 . S
N1061 C1064 1.314 . S
N1061 C1065 1.279 . S
C1062 C1060 1.348 . S
C1062 C1064 1.353 . S
C1062 H1120 0.929 . S
C1063 C1060 1.356 . S
C1063 C1065 1.358 . S
C1063 H1121 0.930 . S
C1064 N1061 1.314 . S
C1064 C1062 1.353 . S
C1064 H1122 0.930 . S
C1065 N1061 1.279 . S
C1065 C1063 1.358 . S
C1065 H1123 0.930 . S
C1066 C1069 1.348 . S
C1066 C1070 1.356 . S
C1066 O1117 1.325 . S
C1067 N1068 1.279 . S
C1067 C1070 1.358 . S
C1067 H1124 0.930 . S
N1068 C1067 1.279 . S
N1068 C1071 1.314 . S
C1069 C1066 1.348 . S
C1069 C1071 1.353 . S
C1069 H1125 0.929 . S
C1070 C1066 1.356 . S
C1070 C1067 1.358 . S
C1070 H1126 0.930 . S
C1071 N1068 1.314 . S
C1071 C1069 1.353 . S
C1071 H1127 0.930 . S
C1072 N1073 1.314 . S
C1072 C1077 1.353 . S
C1072 H1078 0.930 . S
N1073 Li1056 1.990 . S
N1073 C1072 1.314 . S
N1073 C1075 1.279 . S
C1074 C1075 1.358 . S
C1074 C1076 1.356 . S
C1074 H1128 0.930 . S
C1075 N1073 1.279 . S
C1075 C1074 1.358 . S
C1075 H1079 0.930 . S
C1076 C1074 1.356 . S
C1076 C1077 1.348 . S
C1077 C1072 1.353 . S
C1077 C1076 1.348 . S
C1077 H1129 0.929 . S
H1078 C1072 0.930 . S
H1079 C1075 0.930 . S
C1080 N1081 1.314 . S
C1080 C1082 1.353 . S
C1080 H1086 0.930 . S
N1081 Li1057 1.990 . S
N1081 C1080 1.314 . S
N1081 C1084 1.279 . S
C1082 C1080 1.353 . S
C1082 C1085 1.348 . S
C1082 H1130 0.929 . S
C1083 C1084 1.358 . S
C1083 C1085 1.356 . S
C1083 H1131 0.930 . S
C1084 N1081 1.279 . S
C1084 C1083 1.358 . S
C1084 H1087 0.930 . S
C1085 C1082 1.348 . S
C1085 C1083 1.356 . S
H1086 C1080 0.930 . S
H1087 C1084 0.930 . S
C1088 C1090 1.348 . S
C1088 C1091 1.356 . S
C1088 O1118 1.325 . S
N1089 C1092 1.314 . S
N1089 C1093 1.279 . S
C1090 C1088 1.348 . S
C1090 C1092 1.353 . S
C1090 H1132 0.929 . S
C1091 C1088 1.356 . S
C1091 C1093 1.358 . S
C1091 H1133 0.930 . S
C1092 N1089 1.314 . S
C1092 C1090 1.353 . S
C1092 H1134 0.930 . S
C1093 N1089 1.279 . S
C1093 C1091 1.358 . S
C1093 H1135 0.930 . S
C1094 C1095 1.348 . S
C1094 C1096 1.356 . S
C1094 O1119 1.325 . S
C1095 C1094 1.348 . S
C1095 C1097 1.353 . S
C1095 H1136 0.929 . S
C1096 C1094 1.356 . S
C1096 C1098 1.358 . S
C1096 H1137 0.930 . S
C1097 C1095 1.353 . S
C1097 N1099 1.314 . S
C1097 H1138 0.930 . S
C1098 C1096 1.358 . S
C1098 N1099 1.279 . S
C1098 H1139 0.930 . S
N1099 C1097 1.314 . S
N1099 C1098 1.279 . S
C1100 C1102 1.353 . S
C1100 N1103 1.314 . S
C1100 H1106 0.930 . S
C1101 N1103 1.279 . S
C1101 C1104 1.358 . S
C1101 H1107 0.930 . S
C1102 C1100 1.353 . S
C1102 C1105 1.348 . S
C1102 H1140 0.929 . S
N1103 Li1058 1.990 . S
N1103 C1100 1.314 . S
N1103 C1101 1.279 . S
C1104 C1101 1.358 . S
C1104 C1105 1.356 . S
C1104 H1141 0.930 . S
C1105 C1102 1.348 . S
C1105 C1104 1.356 . S
H1106 C1100 0.930 . S
H1107 C1101 0.930 . S
C1108 N1109 1.314 . S
C1108 C1110 1.353 . S
C1108 H1114 0.930 . S
N1109 Li1059 1.990 . S
N1109 C1108 1.314 . S
N1109 C1112 1.279 . S
C1110 C1108 1.353 . S
C1110 C1113 1.348 . S
C1110 H1142 0.929 . S
C1111 C1112 1.358 . S
C1111 C1113 1.356 . S
C1111 H1143 0.930 . S
C1112 N1109 1.279 . S
C1112 C1111 1.358 . S
C1112 H1115 0.930 . S
C1113 C1110 1.348 . S
C1113 C1111 1.356 . S
H1114 C1108 0.930 . S
H1115 C1112 0.930 . S
O1116 Li1056 1.956 . S
O1116 Li1057 1.970 . S
O1116 Li1058 1.961 . S
O1116 C1060 1.325 . S
O1117 Li1056 1.970 . S
O1117 Li1057 1.956 . S
O1117 Li1059 1.961 . S
O1117 C1066 1.325 . S
O1118 Li1056 1.961 . S
O1118 Li1058 1.956 . S
O1118 Li1059 1.970 . S
O1118 C1088 1.325 . S
O1119 Li1057 1.961 . S
O1119 Li1058 1.970 . S
O1119 Li1059 1.956 . S
O1119 C1094 1.325 . S
H1120 C1062 0.929 . S
H1121 C1063 0.930 . S
H1122 C1064 0.930 . S
H1123 C1065 0.930 . S
H1124 C1067 0.930 . S
H1125 C1069 0.929 . S
H1126 C1070 0.930 . S
H1127 C1071 0.930 . S
H1128 C1074 0.930 . S
H1129 C1077 0.929 . S
H1130 C1082 0.929 . S
H1131 C1083 0.930 . S
H1132 C1090 0.929 . S
H1133 C1091 0.930 . S
H1134 C1092 0.930 . S
H1135 C1093 0.930 . S
H1136 C1095 0.929 . S
H1137 C1096 0.930 . S
H1138 C1097 0.930 . S
H1139 C1098 0.930 . S
H1140 C1102 0.929 . S
H1141 C1104 0.930 . S
H1142 C1110 0.929 . S
H1143 C1111 0.930 . S
Li1144 N1161 1.990 . S
Li1144 O1204 1.956 . S
Li1144 O1205 1.970 . S
Li1144 O1206 1.961 . S
Li1145 N1169 1.990 . S
Li1145 O1204 1.970 . S
Li1145 O1205 1.956 . S
Li1145 O1207 1.961 . S
Li1146 N1191 1.990 . S
Li1146 O1204 1.961 . S
Li1146 O1206 1.956 . S
Li1146 O1207 1.970 . S
Li1147 N1197 1.990 . S
Li1147 O1205 1.961 . S
Li1147 O1206 1.970 . S
Li1147 O1207 1.956 . S
C1148 C1150 1.348 . S
C1148 C1151 1.356 . S
C1148 O1204 1.325 1_655 S
N1149 C1152 1.314 . S
N1149 C1153 1.279 . S
C1150 C1148 1.348 . S
C1150 C1152 1.353 . S
C1150 H1208 0.929 . S
C1151 C1148 1.356 . S
C1151 C1153 1.358 . S
C1151 H1209 0.930 . S
C1152 N1149 1.314 . S
C1152 C1150 1.353 . S
C1152 H1210 0.930 . S
C1153 N1149 1.279 . S
C1153 C1151 1.358 . S
C1153 H1211 0.930 . S
C1154 C1157 1.348 . S
C1154 C1158 1.356 . S
C1154 O1205 1.325 . S
C1155 N1156 1.279 . S
C1155 C1158 1.358 . S
C1155 H1212 0.930 . S
N1156 C1155 1.279 . S
N1156 C1159 1.314 . S
C1157 C1154 1.348 . S
C1157 C1159 1.353 . S
C1157 H1213 0.929 . S
C1158 C1154 1.356 . S
C1158 C1155 1.358 . S
C1158 H1214 0.930 . S
C1159 N1156 1.314 . S
C1159 C1157 1.353 . S
C1159 H1215 0.930 . S
C1160 N1161 1.314 . S
C1160 C1165 1.353 . S
C1160 H1166 0.930 . S
N1161 Li1144 1.990 . S
N1161 C1160 1.314 . S
N1161 C1163 1.279 1_455 S
C1162 C1163 1.358 . S
C1162 C1164 1.356 . S
C1162 H1216 0.930 . S
C1163 N1161 1.279 1_655 S
C1163 C1162 1.358 . S
C1163 H1167 0.930 . S
C1164 C1162 1.356 . S
C1164 C1165 1.348 1_655 S
C1165 C1160 1.353 . S
C1165 C1164 1.348 1_455 S
C1165 H1217 0.929 . S
H1166 C1160 0.930 . S
H1167 C1163 0.930 . S
C1168 N1169 1.314 . S
C1168 C1170 1.353 . S
C1168 H1174 0.930 . S
N1169 Li1145 1.990 . S
N1169 C1168 1.314 . S
N1169 C1172 1.279 . S
C1170 C1168 1.353 . S
C1170 C1173 1.348 . S
C1170 H1218 0.929 . S
C1171 C1172 1.358 . S
C1171 C1173 1.356 . S
C1171 H1219 0.930 . S
C1172 N1169 1.279 . S
C1172 C1171 1.358 . S
C1172 H1175 0.930 . S
C1173 C1170 1.348 . S
C1173 C1171 1.356 . S
H1174 C1168 0.930 . S
H1175 C1172 0.930 . S
C1176 C1178 1.348 . S
C1176 C1179 1.356 . S
C1176 O1206 1.325 . S
N1177 C1180 1.314 . S
N1177 C1181 1.279 . S
C1178 C1176 1.348 . S
C1178 C1180 1.353 . S
C1178 H1220 0.929 . S
C1179 C1176 1.356 . S
C1179 C1181 1.358 . S
C1179 H1221 0.930 . S
C1180 N1177 1.314 . S
C1180 C1178 1.353 . S
C1180 H1222 0.930 . S
C1181 N1177 1.279 . S
C1181 C1179 1.358 . S
C1181 H1223 0.930 . S
C1182 C1183 1.348 . S
C1182 C1184 1.356 . S
C1182 O1207 1.325 . S
C1183 C1182 1.348 . S
C1183 C1185 1.353 . S
C1183 H1224 0.929 . S
C1184 C1182 1.356 . S
C1184 C1186 1.358 . S
C1184 H1225 0.930 . S
C1185 C1183 1.353 . S
C1185 N1187 1.314 . S
C1185 H1226 0.930 . S
C1186 C1184 1.358 . S
C1186 N1187 1.279 . S
C1186 H1227 0.930 . S
N1187 C1185 1.314 . S
N1187 C1186 1.279 . S
C1188 C1190 1.353 . S
C1188 N1191 1.314 1_655 S
C1188 H1194 0.930 . S
C1189 N1191 1.279 . S
C1189 C1192 1.358 . S
C1189 H1195 0.930 . S
C1190 C1188 1.353 . S
C1190 C1193 1.348 . S
C1190 H1228 0.929 . S
N1191 Li1146 1.990 . S
N1191 C1188 1.314 1_455 S
N1191 C1189 1.279 . S
C1192 C1189 1.358 . S
C1192 C1193 1.356 1_455 S
C1192 H1229 0.930 . S
C1193 C1190 1.348 . S
C1193 C1192 1.356 1_655 S
H1194 C1188 0.930 . S
H1195 C1189 0.930 . S
C1196 N1197 1.314 . S
C1196 C1198 1.353 . S
C1196 H1202 0.930 . S
N1197 Li1147 1.990 . S
N1197 C1196 1.314 . S
N1197 C1200 1.279 . S
C1198 C1196 1.353 . S
C1198 C1201 1.348 . S
C1198 H1230 0.929 . S
C1199 C1200 1.358 . S
C1199 C1201 1.356 . S
C1199 H1231 0.930 . S
C1200 N1197 1.279 . S
C1200 C1199 1.358 . S
C1200 H1203 0.930 . S
C1201 C1198 1.348 . S
C1201 C1199 1.356 . S
H1202 C1196 0.930 . S
H1203 C1200 0.930 . S
O1204 Li1144 1.956 . S
O1204 Li1145 1.970 . S
O1204 Li1146 1.961 . S
O1204 C1148 1.325 1_455 S
O1205 Li1144 1.970 . S
O1205 Li1145 1.956 . S
O1205 Li1147 1.961 . S
O1205 C1154 1.325 . S
O1206 Li1144 1.961 . S
O1206 Li1146 1.956 . S
O1206 Li1147 1.970 . S
O1206 C1176 1.325 . S
O1207 Li1145 1.961 . S
O1207 Li1146 1.970 . S
O1207 Li1147 1.956 . S
O1207 C1182 1.325 . S
H1208 C1150 0.929 . S
H1209 C1151 0.930 . S
H1210 C1152 0.930 . S
H1211 C1153 0.930 . S
H1212 C1155 0.930 . S
H1213 C1157 0.929 . S
H1214 C1158 0.930 . S
H1215 C1159 0.930 . S
H1216 C1162 0.930 . S
H1217 C1165 0.929 . S
H1218 C1170 0.929 . S
H1219 C1171 0.930 . S
H1220 C1178 0.929 . S
H1221 C1179 0.930 . S
H1222 C1180 0.930 . S
H1223 C1181 0.930 . S
H1224 C1183 0.929 . S
H1225 C1184 0.930 . S
H1226 C1185 0.930 . S
H1227 C1186 0.930 . S
H1228 C1190 0.929 . S
H1229 C1192 0.930 . S
H1230 C1198 0.929 . S
H1231 C1199 0.930 . S
Li1232 N1249 1.990 . S
Li1232 O1292 1.956 . S
Li1232 O1293 1.970 . S
Li1232 O1294 1.961 . S
Li1233 N1257 1.990 . S
Li1233 O1292 1.970 . S
Li1233 O1293 1.956 . S
Li1233 O1295 1.961 . S
Li1234 N1279 1.990 . S
Li1234 O1292 1.961 . S
Li1234 O1294 1.956 . S
Li1234 O1295 1.970 . S
Li1235 N1285 1.990 . S
Li1235 O1293 1.961 . S
Li1235 O1294 1.970 . S
Li1235 O1295 1.956 . S
C1236 C1238 1.348 . S
C1236 C1239 1.356 . S
C1236 O1292 1.325 . S
N1237 C1240 1.314 . S
N1237 C1241 1.279 . S
C1238 C1236 1.348 . S
C1238 C1240 1.353 . S
C1238 H1296 0.929 . S
C1239 C1236 1.356 . S
C1239 C1241 1.358 . S
C1239 H1297 0.930 . S
C1240 N1237 1.314 . S
C1240 C1238 1.353 . S
C1240 H1298 0.930 . S
C1241 N1237 1.279 . S
C1241 C1239 1.358 . S
C1241 H1299 0.930 . S
C1242 C1245 1.348 . S
C1242 C1246 1.356 . S
C1242 O1293 1.325 . S
C1243 N1244 1.279 . S
C1243 C1246 1.358 . S
C1243 H1300 0.930 . S
N1244 C1243 1.279 . S
N1244 C1247 1.314 . S
C1245 C1242 1.348 . S
C1245 C1247 1.353 . S
C1245 H1301 0.929 . S
C1246 C1242 1.356 . S
C1246 C1243 1.358 . S
C1246 H1302 0.930 . S
C1247 N1244 1.314 . S
C1247 C1245 1.353 . S
C1247 H1303 0.930 . S
C1248 N1249 1.314 . S
C1248 C1253 1.353 . S
C1248 H1254 0.930 . S
N1249 Li1232 1.990 . S
N1249 C1248 1.314 . S
N1249 C1251 1.279 . S
C1250 C1251 1.358 . S
C1250 C1252 1.356 . S
C1250 H1304 0.930 . S
C1251 N1249 1.279 . S
C1251 C1250 1.358 . S
C1251 H1255 0.930 . S
C1252 C1250 1.356 . S
C1252 C1253 1.348 . S
C1253 C1248 1.353 . S
C1253 C1252 1.348 . S
C1253 H1305 0.929 . S
H1254 C1248 0.930 . S
H1255 C1251 0.930 . S
C1256 N1257 1.314 1_455 S
C1256 C1258 1.353 . S
C1256 H1262 0.930 . S
N1257 Li1233 1.990 . S
N1257 C1256 1.314 1_655 S
N1257 C1260 1.279 . S
C1258 C1256 1.353 . S
C1258 C1261 1.348 . S
C1258 H1306 0.929 . S
C1259 C1260 1.358 . S
C1259 C1261 1.356 1_655 S
C1259 H1307 0.930 . S
C1260 N1257 1.279 . S
C1260 C1259 1.358 . S
C1260 H1263 0.930 . S
C1261 C1258 1.348 . S
C1261 C1259 1.356 1_455 S
H1262 C1256 0.930 . S
H1263 C1260 0.930 . S
C1264 C1266 1.348 . S
C1264 C1267 1.356 . S
C1264 O1294 1.325 . S
N1265 C1268 1.314 . S
N1265 C1269 1.279 . S
C1266 C1264 1.348 . S
C1266 C1268 1.353 . S
C1266 H1308 0.929 . S
C1267 C1264 1.356 . S
C1267 C1269 1.358 . S
C1267 H1309 0.930 . S
C1268 N1265 1.314 . S
C1268 C1266 1.353 . S
C1268 H1310 0.930 . S
C1269 N1265 1.279 . S
C1269 C1267 1.358 . S
C1269 H1311 0.930 . S
C1270 C1271 1.348 . S
C1270 C1272 1.356 . S
C1270 O1295 1.325 1_455 S
C1271 C1270 1.348 . S
C1271 C1273 1.353 . S
C1271 H1312 0.929 . S
C1272 C1270 1.356 . S
C1272 C1274 1.358 . S
C1272 H1313 0.930 . S
C1273 C1271 1.353 . S
C1273 N1275 1.314 . S
C1273 H1314 0.930 . S
C1274 C1272 1.358 . S
C1274 N1275 1.279 . S
C1274 H1315 0.930 . S
N1275 C1273 1.314 . S
N1275 C1274 1.279 . S
C1276 C1278 1.353 . S
C1276 N1279 1.314 . S
C1276 H1282 0.930 . S
C1277 N1279 1.279 . S
C1277 C1280 1.358 . S
C1277 H1283 0.930 . S
C1278 C1276 1.353 . S
C1278 C1281 1.348 . S
C1278 H1316 0.929 . S
N1279 Li1234 1.990 . S
N1279 C1276 1.314 . S
N1279 C1277 1.279 . S
C1280 C1277 1.358 . S
C1280 C1281 1.356 . S
C1280 H1317 0.930 . S
C1281 C1278 1.348 . S
C1281 C1280 1.356 . S
H1282 C1276 0.930 . S
H1283 C1277 0.930 . S
C1284 N1285 1.314 . S
C1284 C1286 1.353 . S
C1284 H1290 0.930 . S
N1285 Li1235 1.990 . S
N1285 C1284 1.314 . S
N1285 C1288 1.279 1_655 S
C1286 C1284 1.353 . S
C1286 C1289 1.348 1_655 S
C1286 H1318 0.929 . S
C1287 C1288 1.358 . S
C1287 C1289 1.356 . S
C1287 H1319 0.930 . S
C1288 N1285 1.279 1_455 S
C1288 C1287 1.358 . S
C1288 H1291 0.930 . S
C1289 C1286 1.348 1_455 S
C1289 C1287 1.356 . S
H1290 C1284 0.930 . S
H1291 C1288 0.930 . S
O1292 Li1232 1.956 . S
O1292 Li1233 1.970 . S
O1292 Li1234 1.961 . S
O1292 C1236 1.325 . S
O1293 Li1232 1.970 . S
O1293 Li1233 1.956 . S
O1293 Li1235 1.961 . S
O1293 C1242 1.325 . S
O1294 Li1232 1.961 . S
O1294 Li1234 1.956 . S
O1294 Li1235 1.970 . S
O1294 C1264 1.325 . S
O1295 Li1233 1.961 . S
O1295 Li1234 1.970 . S
O1295 Li1235 1.956 . S
O1295 C1270 1.325 1_655 S
H1296 C1238 0.929 . S
H1297 C1239 0.930 . S
H1298 C1240 0.930 . S
H1299 C1241 0.930 . S
H1300 C1243 0.930 . S
H1301 C1245 0.929 . S
H1302 C1246 0.930 . S
H1303 C1247 0.930 . S
H1304 C1250 0.930 . S
H1305 C1253 0.929 . S
H1306 C1258 0.929 . S
H1307 C1259 0.930 . S
H1308 C1266 0.929 . S
H1309 C1267 0.930 . S
H1310 C1268 0.930 . S
H1311 C1269 0.930 . S
H1312 C1271 0.929 . S
H1313 C1272 0.930 . S
H1314 C1273 0.930 . S
H1315 C1274 0.930 . S
H1316 C1278 0.929 . S
H1317 C1280 0.930 . S
H1318 C1286 0.929 . S
H1319 C1287 0.930 . S
Li1320 N1337 1.990 . S
Li1320 O1380 1.956 . S
Li1320 O1381 1.970 . S
Li1320 O1382 1.961 . S
Li1321 N1345 1.990 . S
Li1321 O1380 1.970 . S
Li1321 O1381 1.956 . S
Li1321 O1383 1.961 . S
Li1322 N1367 1.990 . S
Li1322 O1380 1.961 . S
Li1322 O1382 1.956 . S
Li1322 O1383 1.970 . S
Li1323 N1373 1.990 . S
Li1323 O1381 1.961 . S
Li1323 O1382 1.970 . S
Li1323 O1383 1.956 . S
C1324 C1326 1.348 . S
C1324 C1327 1.356 . S
C1324 O1380 1.325 . S
N1325 C1328 1.314 . S
N1325 C1329 1.279 . S
C1326 C1324 1.348 . S
C1326 C1328 1.353 . S
C1326 H1384 0.929 . S
C1327 C1324 1.356 . S
C1327 C1329 1.358 . S
C1327 H1385 0.930 . S
C1328 N1325 1.314 . S
C1328 C1326 1.353 . S
C1328 H1386 0.930 . S
C1329 N1325 1.279 . S
C1329 C1327 1.358 . S
C1329 H1387 0.930 . S
C1330 C1333 1.348 . S
C1330 C1334 1.356 . S
C1330 O1381 1.325 . S
C1331 N1332 1.279 . S
C1331 C1334 1.358 . S
C1331 H1388 0.930 . S
N1332 C1331 1.279 . S
N1332 C1335 1.314 . S
C1333 C1330 1.348 . S
C1333 C1335 1.353 . S
C1333 H1389 0.929 . S
C1334 C1330 1.356 . S
C1334 C1331 1.358 . S
C1334 H1390 0.930 . S
C1335 N1332 1.314 . S
C1335 C1333 1.353 . S
C1335 H1391 0.930 . S
C1336 N1337 1.314 . S
C1336 C1341 1.353 . S
C1336 H1342 0.930 . S
N1337 Li1320 1.990 . S
N1337 C1336 1.314 . S
N1337 C1339 1.279 . S
C1338 C1339 1.358 . S
C1338 C1340 1.356 . S
C1338 H1392 0.930 . S
C1339 N1337 1.279 . S
C1339 C1338 1.358 . S
C1339 H1343 0.930 . S
C1340 C1338 1.356 . S
C1340 C1341 1.348 . S
C1341 C1336 1.353 . S
C1341 C1340 1.348 . S
C1341 H1393 0.929 . S
H1342 C1336 0.930 . S
H1343 C1339 0.930 . S
C1344 N1345 1.314 . S
C1344 C1346 1.353 . S
C1344 H1350 0.930 . S
N1345 Li1321 1.990 . S
N1345 C1344 1.314 . S
N1345 C1348 1.279 . S
C1346 C1344 1.353 . S
C1346 C1349 1.348 . S
C1346 H1394 0.929 . S
C1347 C1348 1.358 . S
C1347 C1349 1.356 . S
C1347 H1395 0.930 . S
C1348 N1345 1.279 . S
C1348 C1347 1.358 . S
C1348 H1351 0.930 . S
C1349 C1346 1.348 . S
C1349 C1347 1.356 . S
H1350 C1344 0.930 . S
H1351 C1348 0.930 . S
C1352 C1354 1.348 . S
C1352 C1355 1.356 . S
C1352 O1382 1.325 . S
N1353 C1356 1.314 . S
N1353 C1357 1.279 . S
C1354 C1352 1.348 . S
C1354 C1356 1.353 . S
C1354 H1396 0.929 . S
C1355 C1352 1.356 . S
C1355 C1357 1.358 . S
C1355 H1397 0.930 . S
C1356 N1353 1.314 . S
C1356 C1354 1.353 . S
C1356 H1398 0.930 . S
C1357 N1353 1.279 . S
C1357 C1355 1.358 . S
C1357 H1399 0.930 . S
C1358 C1359 1.348 . S
C1358 C1360 1.356 . S
C1358 O1383 1.325 . S
C1359 C1358 1.348 . S
C1359 C1361 1.353 . S
C1359 H1400 0.929 . S
C1360 C1358 1.356 . S
C1360 C1362 1.358 . S
C1360 H1401 0.930 . S
C1361 C1359 1.353 . S
C1361 N1363 1.314 . S
C1361 H1402 0.930 . S
C1362 C1360 1.358 . S
C1362 N1363 1.279 . S
C1362 H1403 0.930 . S
N1363 C1361 1.314 . S
N1363 C1362 1.279 . S
C1364 C1366 1.353 . S
C1364 N1367 1.314 . S
C1364 H1370 0.930 . S
C1365 N1367 1.279 . S
C1365 C1368 1.358 . S
C1365 H1371 0.930 . S
C1366 C1364 1.353 . S
C1366 C1369 1.348 . S
C1366 H1404 0.929 . S
N1367 Li1322 1.990 . S
N1367 C1364 1.314 . S
N1367 C1365 1.279 . S
C1368 C1365 1.358 . S
C1368 C1369 1.356 . S
C1368 H1405 0.930 . S
C1369 C1366 1.348 . S
C1369 C1368 1.356 . S
H1370 C1364 0.930 . S
H1371 C1365 0.930 . S
C1372 N1373 1.314 . S
C1372 C1374 1.353 . S
C1372 H1378 0.930 . S
N1373 Li1323 1.990 . S
N1373 C1372 1.314 . S
N1373 C1376 1.279 . S
C1374 C1372 1.353 . S
C1374 C1377 1.348 . S
C1374 H1406 0.929 . S
C1375 C1376 1.358 . S
C1375 C1377 1.356 . S
C1375 H1407 0.930 . S
C1376 N1373 1.279 . S
C1376 C1375 1.358 . S
C1376 H1379 0.930 . S
C1377 C1374 1.348 . S
C1377 C1375 1.356 . S
H1378 C1372 0.930 . S
H1379 C1376 0.930 . S
O1380 Li1320 1.956 . S
O1380 Li1321 1.970 . S
O1380 Li1322 1.961 . S
O1380 C1324 1.325 . S
O1381 Li1320 1.970 . S
O1381 Li1321 1.956 . S
O1381 Li1323 1.961 . S
O1381 C1330 1.325 . S
O1382 Li1320 1.961 . S
O1382 Li1322 1.956 . S
O1382 Li1323 1.970 . S
O1382 C1352 1.325 . S
O1383 Li1321 1.961 . S
O1383 Li1322 1.970 . S
O1383 Li1323 1.956 . S
O1383 C1358 1.325 . S
H1384 C1326 0.929 . S
H1385 C1327 0.930 . S
H1386 C1328 0.930 . S
H1387 C1329 0.930 . S
H1388 C1331 0.930 . S
H1389 C1333 0.929 . S
H1390 C1334 0.930 . S
H1391 C1335 0.930 . S
H1392 C1338 0.930 . S
H1393 C1341 0.929 . S
H1394 C1346 0.929 . S
H1395 C1347 0.930 . S
H1396 C1354 0.929 . S
H1397 C1355 0.930 . S
H1398 C1356 0.930 . S
H1399 C1357 0.930 . S
H1400 C1359 0.929 . S
H1401 C1360 0.930 . S
H1402 C1361 0.930 . S
H1403 C1362 0.930 . S
H1404 C1366 0.929 . S
H1405 C1368 0.930 . S
H1406 C1374 0.929 . S
H1407 C1375 0.930 . S
C137 C29 1.698 1_565 S
C196 C293 1.698 1_565 S
C401 C489 1.694 1_565 S
C645 C548 1.694 1_565 S
C841 C753 1.698 . S
C997 C909 1.698 . S
C1201 C1113 1.694 . S
C1349 C1252 1.694 . S
C313 C49 1.898 1_455 S
C117 C233 1.898 . S
C636 C409 1.887 1_655 S
C557 C497 1.888 . S
C733 C1017 1.898 . S
C929 C821 1.898 1_655 S
C1340 C1105 1.887 . S
C1193 C1261 1.888 1_655 S
C57 C812 2.612 1_455 S
C108 C724 2.612 . S
C1025 C225 2.612 . S
C937 C321 2.612 1_455 S
C1173 C372 2.621 1_455 S
C1085 C460 2.621 . S
C577 C1377 2.621 . S
C673 C1281 2.621 1_455 S
C381 C20 3.402 1_446 S
C469 C145 3.402 1_566 S
C585 C205 3.402 1_565 S
C665 C284 3.402 1_645 S
C761 C1076 3.402 1_554 S
C849 C1164 3.402 1_454 S
C1289 C900 3.402 1_455 S
C1369 C988 3.402 . S
