# Generated by pormake.
# Topology wfx, (7)-cn, num edge types: 1
# Building blocks:
#     Node 0, Type 0, BuildingBlock: NUHQUE_clean_sbu_2, # of connection points: 7
#     Node 1, Type 0, BuildingBlock: NUHQUE_clean_sbu_2, # of connection points: 7
#     Node 2, Type 0, BuildingBlock: NUHQUE_clean_sbu_2, # of connection points: 7
#     Node 3, Type 0, BuildingBlock: NUHQUE_clean_sbu_2, # of connection points: 7
#     Node 4, Type 0, BuildingBlock: NUHQUE_clean_sbu_2, # of connection points: 7
#     Node 5, Type 0, BuildingBlock: NUHQUE_clean_sbu_2, # of connection points: 7
#     Node 6, Type 0, BuildingBlock: NUHQUE_clean_sbu_2, # of connection points: 7
#     Node 7, Type 0, BuildingBlock: NUHQUE_clean_sbu_2, # of connection points: 7
#     Node 8, Type 0, BuildingBlock: NUHQUE_clean_sbu_2, # of connection points: 7
#     Node 9, Type 0, BuildingBlock: NUHQUE_clean_sbu_2, # of connection points: 7
#     Node 10, Type 0, BuildingBlock: NUHQUE_clean_sbu_2, # of connection points: 7
#     Node 11, Type 0, BuildingBlock: NUHQUE_clean_sbu_2, # of connection points: 7
#     Node 12, Type 0, BuildingBlock: NUHQUE_clean_sbu_2, # of connection points: 7
#     Node 13, Type 0, BuildingBlock: NUHQUE_clean_sbu_2, # of connection points: 7
#     Node 14, Type 0, BuildingBlock: NUHQUE_clean_sbu_2, # of connection points: 7
#     Node 15, Type 0, BuildingBlock: NUHQUE_clean_sbu_2, # of connection points: 7
#     Edge 16, Type (0, 0), BuildingBlock: TEMPAE_clean_linker_10, # of connection points: 2
#     Edge 17, Type (0, 0), BuildingBlock: TEMPAE_clean_linker_10, # of connection points: 2
#     Edge 18, Type (0, 0), BuildingBlock: TEMPAE_clean_linker_10, # of connection points: 2
#     Edge 19, Type (0, 0), BuildingBlock: TEMPAE_clean_linker_10, # of connection points: 2
#     Edge 20, Type (0, 0), BuildingBlock: TEMPAE_clean_linker_10, # of connection points: 2
#     Edge 21, Type (0, 0), BuildingBlock: TEMPAE_clean_linker_10, # of connection points: 2
#     Edge 22, Type (0, 0), BuildingBlock: TEMPAE_clean_linker_10, # of connection points: 2
#     Edge 23, Type (0, 0), BuildingBlock: TEMPAE_clean_linker_10, # of connection points: 2
#     Edge 24, Type (0, 0), BuildingBlock: TEMPAE_clean_linker_10, # of connection points: 2
#     Edge 25, Type (0, 0), BuildingBlock: TEMPAE_clean_linker_10, # of connection points: 2
#     Edge 26, Type (0, 0), BuildingBlock: TEMPAE_clean_linker_10, # of connection points: 2
#     Edge 27, Type (0, 0), BuildingBlock: TEMPAE_clean_linker_10, # of connection points: 2
#     Edge 28, Type (0, 0), BuildingBlock: TEMPAE_clean_linker_10, # of connection points: 2
#     Edge 29, Type (0, 0), BuildingBlock: TEMPAE_clean_linker_10, # of connection points: 2
#     Edge 30, Type (0, 0), BuildingBlock: TEMPAE_clean_linker_10, # of connection points: 2
#     Edge 31, Type (0, 0), BuildingBlock: TEMPAE_clean_linker_10, # of connection points: 2
#     Edge 32, Type (0, 0), BuildingBlock: TEMPAE_clean_linker_10, # of connection points: 2
#     Edge 33, Type (0, 0), BuildingBlock: TEMPAE_clean_linker_10, # of connection points: 2
#     Edge 34, Type (0, 0), BuildingBlock: TEMPAE_clean_linker_10, # of connection points: 2
#     Edge 35, Type (0, 0), BuildingBlock: TEMPAE_clean_linker_10, # of connection points: 2
#     Edge 36, Type (0, 0), BuildingBlock: TEMPAE_clean_linker_10, # of connection points: 2
#     Edge 37, Type (0, 0), BuildingBlock: TEMPAE_clean_linker_10, # of connection points: 2
#     Edge 38, Type (0, 0), BuildingBlock: TEMPAE_clean_linker_10, # of connection points: 2
#     Edge 39, Type (0, 0), BuildingBlock: TEMPAE_clean_linker_10, # of connection points: 2
#     Edge 40, Type (0, 0), BuildingBlock: TEMPAE_clean_linker_10, # of connection points: 2
#     Edge 41, Type (0, 0), BuildingBlock: TEMPAE_clean_linker_10, # of connection points: 2
#     Edge 42, Type (0, 0), BuildingBlock: TEMPAE_clean_linker_10, # of connection points: 2
#     Edge 43, Type (0, 0), BuildingBlock: TEMPAE_clean_linker_10, # of connection points: 2
#     Edge 44, Type (0, 0), BuildingBlock: TEMPAE_clean_linker_10, # of connection points: 2
#     Edge 45, Type (0, 0), BuildingBlock: TEMPAE_clean_linker_10, # of connection points: 2
#     Edge 46, Type (0, 0), BuildingBlock: TEMPAE_clean_linker_10, # of connection points: 2
#     Edge 47, Type (0, 0), BuildingBlock: TEMPAE_clean_linker_10, # of connection points: 2
#     Edge 48, Type (0, 0), BuildingBlock: TEMPAE_clean_linker_10, # of connection points: 2
#     Edge 49, Type (0, 0), BuildingBlock: TEMPAE_clean_linker_10, # of connection points: 2
#     Edge 50, Type (0, 0), BuildingBlock: TEMPAE_clean_linker_10, # of connection points: 2
#     Edge 51, Type (0, 0), BuildingBlock: TEMPAE_clean_linker_10, # of connection points: 2
#     Edge 52, Type (0, 0), BuildingBlock: TEMPAE_clean_linker_10, # of connection points: 2
#     Edge 53, Type (0, 0), BuildingBlock: TEMPAE_clean_linker_10, # of connection points: 2
#     Edge 54, Type (0, 0), BuildingBlock: TEMPAE_clean_linker_10, # of connection points: 2
#     Edge 55, Type (0, 0), BuildingBlock: TEMPAE_clean_linker_10, # of connection points: 2
#     Edge 56, Type (0, 0), BuildingBlock: TEMPAE_clean_linker_10, # of connection points: 2
#     Edge 57, Type (0, 0), BuildingBlock: TEMPAE_clean_linker_10, # of connection points: 2
#     Edge 58, Type (0, 0), BuildingBlock: TEMPAE_clean_linker_10, # of connection points: 2
#     Edge 59, Type (0, 0), BuildingBlock: TEMPAE_clean_linker_10, # of connection points: 2
#     Edge 60, Type (0, 0), BuildingBlock: TEMPAE_clean_linker_10, # of connection points: 2
#     Edge 61, Type (0, 0), BuildingBlock: TEMPAE_clean_linker_10, # of connection points: 2
#     Edge 62, Type (0, 0), BuildingBlock: TEMPAE_clean_linker_10, # of connection points: 2
#     Edge 63, Type (0, 0), BuildingBlock: TEMPAE_clean_linker_10, # of connection points: 2
#     Edge 64, Type (0, 0), BuildingBlock: TEMPAE_clean_linker_10, # of connection points: 2
#     Edge 65, Type (0, 0), BuildingBlock: TEMPAE_clean_linker_10, # of connection points: 2
#     Edge 66, Type (0, 0), BuildingBlock: TEMPAE_clean_linker_10, # of connection points: 2
#     Edge 67, Type (0, 0), BuildingBlock: TEMPAE_clean_linker_10, # of connection points: 2
#     Edge 68, Type (0, 0), BuildingBlock: TEMPAE_clean_linker_10, # of connection points: 2
#     Edge 69, Type (0, 0), BuildingBlock: TEMPAE_clean_linker_10, # of connection points: 2
#     Edge 70, Type (0, 0), BuildingBlock: TEMPAE_clean_linker_10, # of connection points: 2
#     Edge 71, Type (0, 0), BuildingBlock: TEMPAE_clean_linker_10, # of connection points: 2
# Relax obj value: 0.247
# Max RMSD: 0.275
# Mean RMSD: 0.275
data_MOF--net-wfx--node1-NUHQUE_clean_sbu_2--edge1-TEMPAE_clean_linker_10
_symmetry_space_group_name_H-M    P1
_symmetry_Int_Tables_number       1
_symmetry_cell_setting            triclinic
loop_
_symmetry_equiv_pos_as_xyz
'x, y, z'
_cell_length_a     45.563636
_cell_length_b     45.564247
_cell_length_c     48.611725
_cell_angle_alpha  90.011839
_cell_angle_beta   90.030224
_cell_angle_gamma 89.802358
loop_
_atom_site_label
_atom_site_type_symbol
_atom_site_fract_x
_atom_site_fract_y
_atom_site_fract_z
_atom_type_partial_charge
O0 O 0.63991 0.12119 0.07733 0.0
Tb1 Tb 0.6668 0.09723 0.10679 0.0
Eu2 Eu 0.69102 0.02461 0.12602 0.0
C3 C 0.65396 0.13619 0.05831 0.0
O4 O 0.68275 0.13459 0.05767 0.0
C5 C 0.71466 0.0631 0.07627 0.0
O6 O 0.73462 1.00248 0.13506 0.0
C7 C 0.65509 0.99112 0.09883 0.0
C8 C 0.73913 0.97657 0.14634 0.0
O9 O 0.71692 0.96163 0.15625 0.0
C10 C 0.64827 0.06642 0.16111 0.0
C11 C 0.62478 0.97931 0.09553 0.0
C12 C 0.60432 0.99387 0.07837 0.0
C13 C 0.57692 0.98118 0.07249 0.0
C14 C 0.57018 0.95369 0.08356 0.0
C15 C 0.59043 0.9382 0.09969 0.0
C16 C 0.61753 0.95129 0.10612 0.0
O17 O 0.68796 0.07349 0.07338 0.0
O18 O 0.72227 0.04987 0.09913 0.0
O19 O 0.70797 0.11227 0.12593 0.0
O20 O 0.67332 0.14266 0.11868 0.0
C21 C 0.6999 0.13973 0.12791 0.0
O22 O 0.67092 0.04831 0.16237 0.0
O23 O 0.63859 0.07708 0.13754 0.0
O24 O 0.67108 0.98173 0.11969 0.0
O25 O 0.65996 0.01883 0.09241 0.0
H26 H 0.60988 0.01472 0.06904 0.0
H27 H 0.54938 0.94353 0.07845 0.0
H28 H 0.63346 0.93902 0.11808 0.0
O29 O 0.38377 0.66491 0.07039 0.0
Tb30 Tb 0.39004 0.6811 0.11206 0.0
Eu31 Eu 0.47356 0.68171 0.11554 0.0
C32 C 0.37777 0.63709 0.06583 0.0
O33 O 0.38104 0.6181 0.08594 0.0
C34 C 0.43015 0.72451 0.08275 0.0
O35 O 0.50149 0.72144 0.12496 0.0
C36 C 0.5073 0.64029 0.09644 0.0
C37 C 0.48988 0.74666 0.13253 0.0
O38 O 0.46142 0.74825 0.1366 0.0
C39 C 0.42706 0.65276 0.15775 0.0
C40 C 0.52136 0.61081 0.09794 0.0
C41 C 0.51051 0.58832 0.08093 0.0
C42 C 0.52567 0.5616 0.07811 0.0
C43 C 0.55138 0.55698 0.09332 0.0
C44 C 0.56296 0.57909 0.11013 0.0
C45 C 0.54804 0.60617 0.11223 0.0
O46 O 0.41212 0.72223 0.10366 0.0
O47 O 0.45206 0.70586 0.07992 0.0
O48 O 0.34253 0.67745 0.10823 0.0
O49 O 0.35979 0.70174 0.14163 0.0
C50 C 0.33576 0.6931 0.1296 0.0
O51 O 0.45066 0.66935 0.15551 0.0
O52 O 0.41067 0.64679 0.13623 0.0
O53 O 0.51683 0.66142 0.11253 0.0
O54 O 0.47904 0.64216 0.09085 0.0
H55 H 0.49084 0.59206 0.06886 0.0
H56 H 0.56372 0.53681 0.0905 0.0
H57 H 0.55764 0.62369 0.12429 0.0
O58 O 0.84598 0.37247 0.07577 0.0
Tb59 Tb 0.82469 0.37869 0.1154 0.0
Eu60 Eu 0.81989 0.46287 0.11947 0.0
C61 C 0.83178 0.35873 0.05602 0.0
O62 O 0.80369 0.35341 0.05936 0.0
C63 C 0.77999 0.41861 0.0852 0.0
O64 O 0.7748 0.48351 0.12278 0.0
C65 C 0.85796 0.50049 0.10139 0.0
C66 C 0.76705 0.50338 0.14107 0.0
O67 O 0.78597 0.51159 0.15994 0.0
C68 C 0.84926 0.41703 0.16211 0.0
C69 C 0.88592 0.51724 0.10016 0.0
C70 C 0.90695 0.50901 0.08026 0.0
C71 C 0.93115 0.52699 0.07456 0.0
C72 C 0.93491 0.55279 0.08968 0.0
C73 C 0.91415 0.56191 0.10911 0.0
C74 C 0.88966 0.54401 0.11458 0.0
O75 O 0.78278 0.39777 0.10367 0.0
O76 O 0.79971 0.4395 0.08295 0.0
O77 O 0.83083 0.33125 0.11309 0.0
O78 O 0.80427 0.34841 0.14498 0.0
C79 C 0.81453 0.32441 0.13396 0.0
O80 O 0.8324 0.44052 0.15974 0.0
O81 O 0.85671 0.4015 0.14044 0.0
O82 O 0.83732 0.50757 0.1192 0.0
O83 O 0.85789 0.47257 0.09417 0.0
H84 H 0.90351 0.48954 0.06787 0.0
H85 H 0.95373 0.56665 0.08554 0.0
H86 H 0.87302 0.5516 0.12884 0.0
O87 O 0.12881 0.8671 0.0761 0.0
Tb88 Tb 0.10623 0.83893 0.1055 0.0
Eu89 Eu 0.03681 0.8105 0.12311 0.0
C90 C 0.14505 0.85369 0.05744 0.0
O91 O 0.14604 0.82487 0.05772 0.0
C92 C 0.0765 0.78872 0.07319 0.0
O93 O 0.00885 0.77302 0.13886 0.0
C94 C 1.00336 0.84804 0.0972 0.0
C95 C 0.02025 0.74662 0.14194 0.0
O96 O 0.04871 0.74323 0.13889 0.0
C97 C 0.075 0.8535 0.1605 0.0
C98 C 0.98642 0.87614 0.09724 0.0
C99 C 0.99375 0.89832 0.07814 0.0
C100 C 0.97545 0.92307 0.0745 0.0
C101 C 0.95037 0.92599 0.09099 0.0
C102 C 0.9423 0.90409 0.10961 0.0
C103 C 0.96027 0.87916 0.11274 0.0
O104 O 0.08527 0.8161 0.07123 0.0
O105 O 0.06174 0.78005 0.09486 0.0
O106 O 0.1227 0.79811 0.12429 0.0
O107 O 0.15166 0.83402 0.11831 0.0
C108 C 0.14969 0.80719 0.12707 0.0
O109 O 0.05987 0.82887 0.16049 0.0
O110 O 0.08436 0.86521 0.13724 0.0
O111 O 0.99341 0.8263 0.11227 0.0
O112 O 0.03224 0.84857 0.09561 0.0
H113 H 0.01273 0.89546 0.06497 0.0
H114 H 0.93614 0.94495 0.08851 0.0
H115 H 0.95326 0.8618 0.12645 0.0
O116 O 0.13499 0.88128 0.4228 0.0
Tb117 Tb 0.16684 0.90433 0.39727 0.0
Eu118 Eu 0.19825 0.96986 0.37789 0.0
C119 C 0.12834 0.88918 0.44812 0.0
O120 O 0.13712 0.91478 0.45735 0.0
C121 C 0.21879 0.93123 0.42889 0.0
O122 O 0.23673 0.9976 0.36439 0.0
C123 C 0.16144 1.00391 0.40371 0.0
C124 C 0.26284 0.98602 0.36013 0.0
O125 O 0.26578 0.95734 0.36098 0.0
C126 C 0.15388 0.93293 0.34099 0.0
C127 C 0.13255 0.01881 0.40721 0.0
C128 C 0.11336 0.00862 0.42786 0.0
C129 C 0.08849 0.02503 0.43544 0.0
C130 C 0.08226 0.05117 0.4215 0.0
C131 C 0.10129 0.06235 0.40156 0.0
C132 C 0.12632 0.04595 0.39409 0.0
O133 O 0.191 0.92396 0.43132 0.0
O134 O 0.22804 0.9445 0.40654 0.0
O135 O 0.20601 0.88875 0.37507 0.0
O136 O 0.1745 0.85806 0.38927 0.0
C137 C 0.19935 0.86099 0.37657 0.0
O138 O 0.17951 0.94627 0.34099 0.0
O139 O 0.14138 0.92506 0.36435 0.0
O140 O 0.17945 0.01324 0.38451 0.0
O141 O 0.1638 0.97557 0.40873 0.0
H142 H 0.11874 0.98887 0.43926 0.0
H143 H 0.06285 0.06372 0.42701 0.0
H144 H 0.14158 0.05507 0.37933 0.0
O145 O 0.63148 0.14367 0.41828 0.0
Tb146 Tb 0.60348 0.16985 0.39147 0.0
Eu147 Eu 0.53249 0.19605 0.37378 0.0
C148 C 0.6232 0.13336 0.44233 0.0
O149 O 0.59569 0.13614 0.44999 0.0
C150 C 0.57236 0.21938 0.42339 0.0
O151 O 0.50471 0.23452 0.35985 0.0
C152 C 0.50029 0.15912 0.40109 0.0
C153 C 0.51701 0.25998 0.35449 0.0
O154 O 0.5458 0.26169 0.35441 0.0
C155 C 0.57054 0.15098 0.33908 0.0
C156 C 0.48892 0.12863 0.4033 0.0
C157 C 0.50318 0.10848 0.42086 0.0
C158 C 0.49083 0.0809 0.42632 0.0
C159 C 0.46402 0.07351 0.41414 0.0
C160 C 0.44895 0.09334 0.39722 0.0
C161 C 0.46166 0.12078 0.39144 0.0
O162 O 0.58283 0.19256 0.42587 0.0
O163 O 0.5576 0.22716 0.40129 0.0
O164 O 0.61618 0.21241 0.37393 0.0
O165 O 0.64523 0.17608 0.37059 0.0
C166 C 0.6417 0.20369 0.36492 0.0
O167 O 0.5549 0.17525 0.33723 0.0
O168 O 0.58001 0.14143 0.36308 0.0
O169 O 0.48994 0.17604 0.38139 0.0
O170 O 0.52823 0.16376 0.40653 0.0
H171 H 0.52349 0.11452 0.43098 0.0
H172 H 0.45398 0.05257 0.41896 0.0
H173 H 0.44961 0.13643 0.37897 0.0
O174 O 0.34327 0.63512 0.43087 0.0
Tb175 Tb 0.32771 0.6264 0.38933 0.0
Eu176 Eu 0.32308 0.54313 0.3875 0.0
C177 C 0.37117 0.64057 0.43566 0.0
O178 O 0.39044 0.63566 0.41609 0.0
C179 C 0.28237 0.5891 0.42001 0.0
O180 O 0.2834 0.5154 0.37725 0.0
C181 C 0.36351 0.50922 0.40791 0.0
C182 C 0.25761 0.5271 0.37175 0.0
O183 O 0.2552 0.5558 0.3704 0.0
C184 C 0.35435 0.58684 0.34476 0.0
C185 C 0.39173 0.49285 0.40804 0.0
C186 C 0.41311 0.50107 0.42749 0.0
C187 C 0.43778 0.4833 0.43236 0.0
C188 C 0.44157 0.45775 0.41683 0.0
C189 C 0.42034 0.44859 0.39789 0.0
C190 C 0.39549 0.46636 0.39317 0.0
O191 O 0.28545 0.60718 0.39921 0.0
O192 O 0.29974 0.56615 0.42272 0.0
O193 O 0.33477 0.67368 0.38864 0.0
O194 O 0.30653 0.65505 0.35882 0.0
C195 C 0.31767 0.67945 0.36798 0.0
O196 O 0.33643 0.56429 0.34706 0.0
O197 O 0.36106 0.6029 0.36629 0.0
O198 O 0.3415 0.49944 0.39306 0.0
O199 O 0.36346 0.53792 0.41127 0.0
H200 H 0.40953 0.52031 0.4402 0.0
H201 H 0.46076 0.44406 0.42031 0.0
H202 H 0.37856 0.45878 0.37925 0.0
O203 O 0.8752 0.34352 0.43067 0.0
Tb204 Tb 0.88661 0.319 0.39366 0.0
Eu205 Eu 0.98014 0.31686 0.38348 0.0
C206 C 0.86215 0.33056 0.45156 0.0
O207 O 0.86027 0.30179 0.45173 0.0
C208 C 0.93464 0.28146 0.41779 0.0
O209 O 0.00768 0.27699 0.37228 0.0
C210 C 0.01454 0.35829 0.40105 0.0
C211 C 0.99583 0.25081 0.36951 0.0
O212 O 0.96717 0.24836 0.37102 0.0
C213 C 0.92514 0.34405 0.3462 0.0
C214 C 0.02609 0.38881 0.40128 0.0
C215 C 0.01152 0.41057 0.41681 0.0
C216 C 0.0247 0.43788 0.42177 0.0
C217 C 0.05239 0.44361 0.41065 0.0
C218 C 0.06763 0.42228 0.39561 0.0
C219 C 0.05432 0.39494 0.39061 0.0
O220 O 0.92031 0.28585 0.39488 0.0
O221 O 0.96117 0.29216 0.41966 0.0
O222 O 0.84975 0.31816 0.36449 0.0
O223 O 0.85262 0.28569 0.39577 0.0
C224 C 0.83701 0.29533 0.3753 0.0
O225 O 0.95078 0.33001 0.34712 0.0
O226 O 0.91019 0.35086 0.36859 0.0
O227 O 0.02193 0.34029 0.38103 0.0
O228 O 0.98819 0.35333 0.41114 0.0
H229 H 0.99048 0.40589 0.42619 0.0
H230 H 0.06315 0.46426 0.41524 0.0
H231 H 0.06663 0.37798 0.38 0.0
O232 O 0.3685 0.88163 0.9218 0.0
Tb233 Tb 0.34258 0.90661 0.89213 0.0
Eu234 Eu 0.31446 0.97741 0.87493 0.0
C235 C 0.3547 0.8608 0.93543 0.0
O236 O 0.3266 0.85693 0.93056 0.0
C237 C 0.2922 0.93664 0.92399 0.0
O238 O 0.27548 0.0057 0.86255 0.0
C239 C 0.35203 0.00908 0.90219 0.0
C240 C 0.24959 0.99387 0.85782 0.0
O241 O 0.24761 0.96513 0.85681 0.0
C242 C 0.359 0.93961 0.83915 0.0
C243 C 0.38165 0.02277 0.90192 0.0
C244 C 0.40257 0.01435 0.92187 0.0
C245 C 0.42921 0.0297 0.92457 0.0
C246 C 0.43527 0.05275 0.90638 0.0
C247 C 0.41466 0.06184 0.88677 0.0
C248 C 0.38781 0.04693 0.88465 0.0
O249 O 0.31926 0.92688 0.92636 0.0
O250 O 0.284 0.95131 0.90203 0.0
O251 O 0.30128 0.89212 0.87324 0.0
O252 O 0.33868 0.86411 0.87216 0.0
C253 C 0.31127 0.86665 0.86518 0.0
O254 O 0.33478 0.95551 0.83772 0.0
O255 O 0.36949 0.93105 0.86316 0.0
O256 O 0.3321 0.02002 0.88548 0.0
O257 O 0.35004 0.98041 0.90519 0.0
H258 H 0.39744 0.99694 0.93625 0.0
H259 H 0.4557 0.06475 0.90837 0.0
H260 H 0.37158 0.05473 0.87005 0.0
O261 O 0.62508 0.37643 0.92357 0.0
Tb262 Tb 0.60724 0.33977 0.90019 0.0
Eu263 Eu 0.53826 0.30896 0.87608 0.0
C264 C 0.6186 0.3811 0.94961 0.0
O265 O 0.59596 0.36768 0.96053 0.0
C266 C 0.57459 0.28952 0.92897 0.0
O267 O 0.51751 0.265 0.86749 0.0
C268 C 0.49952 0.34409 0.89772 0.0
C269 C 0.49666 0.2594 0.84954 0.0
O270 O 0.4875 0.2801 0.83278 0.0
C271 C 0.58064 0.35121 0.84139 0.0
C272 C 0.48502 0.37342 0.89974 0.0
C273 C 0.49465 0.39339 0.91995 0.0
C274 C 0.47891 0.41931 0.92534 0.0
C275 C 0.45411 0.42598 0.90946 0.0
C276 C 0.44356 0.40636 0.88969 0.0
C277 C 0.45888 0.37985 0.88501 0.0
O278 O 0.58242 0.31704 0.93197 0.0
O279 O 0.56309 0.28048 0.90579 0.0
O280 O 0.65418 0.33245 0.90519 0.0
O281 O 0.63076 0.30381 0.87885 0.0
C282 C 0.65653 0.3098 0.88922 0.0
O283 O 0.56501 0.32691 0.84099 0.0
O284 O 0.58954 0.36354 0.86457 0.0
O285 O 0.49401 0.32741 0.87618 0.0
O286 O 0.52642 0.34092 0.90747 0.0
H287 H 0.51343 0.38797 0.9327 0.0
H288 H 0.442 0.44608 0.91345 0.0
H289 H 0.45008 0.36412 0.87049 0.0
O290 O 0.16839 0.63227 0.92637 0.0
Tb291 Tb 0.19346 0.62344 0.88902 0.0
Eu292 Eu 0.19316 0.53799 0.88435 0.0
C293 C 0.1447 0.64884 0.92432 0.0
O294 O 0.13497 0.65535 0.89961 0.0
C295 C 0.23452 0.58075 0.91698 0.0
O296 O 0.23774 0.51596 0.87967 0.0
C297 C 0.15442 0.50063 0.90198 0.0
C298 C 0.24442 0.49602 0.86101 0.0
O299 O 0.22477 0.48876 0.84244 0.0
C300 C 0.16392 0.58694 0.84293 0.0
C301 C 0.12498 0.48643 0.90198 0.0
C302 C 0.10258 0.49836 0.91865 0.0
C303 C 0.07641 0.48297 0.92337 0.0
C304 C 0.07242 0.45566 0.91082 0.0
C305 C 0.09436 0.44297 0.89448 0.0
C306 C 0.12062 0.4585 0.88981 0.0
O307 O 0.233 0.59775 0.89537 0.0
O308 O 0.21431 0.56069 0.92082 0.0
O309 O 0.20731 0.66774 0.8989 0.0
O310 O 0.20316 0.65607 0.85683 0.0
C311 C 0.20984 0.67714 0.87386 0.0
O312 O 0.17949 0.56241 0.84519 0.0
O313 O 0.15893 0.60422 0.86414 0.0
O314 O 0.17387 0.49396 0.88292 0.0
O315 O 0.15656 0.52782 0.91106 0.0
H316 H 0.10591 0.51915 0.929 0.0
H317 H 0.05264 0.44326 0.91504 0.0
H318 H 0.13808 0.44821 0.8781 0.0
O319 O 0.87821 0.13655 0.92748 0.0
Tb320 Tb 0.89554 0.1667 0.89686 0.0
Eu321 Eu 0.96956 0.19273 0.87757 0.0
C322 C 0.86442 0.14858 0.9485 0.0
O323 O 0.86366 0.17736 0.95012 0.0
C324 C 0.92862 0.21683 0.92557 0.0
O325 O 0.99933 0.23012 0.86467 0.0
C326 C 1.00114 0.15345 0.90328 0.0
C327 C 0.98862 0.25652 0.85982 0.0
O328 O 0.96 0.26015 0.85958 0.0
C329 C 0.92614 0.15377 0.84049 0.0
C330 C 0.0145 0.12349 0.90543 0.0
C331 C 1.00175 0.10231 0.92295 0.0
C332 C 0.01612 0.07547 0.92828 0.0
C333 C 0.04353 0.0701 0.91624 0.0
C334 C 0.05726 0.09099 0.89955 0.0
C335 C 0.04243 0.11748 0.89372 0.0
O336 O 0.92049 0.18941 0.92861 0.0
O337 O 0.94492 0.2245 0.90459 0.0
O338 O 0.87339 0.20657 0.88132 0.0
O339 O 0.8483 0.16859 0.89025 0.0
C340 C 0.84689 0.19569 0.88212 0.0
O341 O 0.94396 0.17654 0.84081 0.0
O342 O 0.91589 0.1418 0.86329 0.0
O343 O 0.01171 0.17166 0.88483 0.0
O344 O 0.97286 0.15726 0.90796 0.0
H345 H 0.98102 0.10694 0.93299 0.0
H346 H 0.05503 0.04981 0.92091 0.0
H347 H 0.05335 0.13393 0.88135 0.0
O348 O 0.84322 0.13122 0.56883 0.0
Tb349 Tb 0.82869 0.12252 0.61064 0.0
Eu350 Eu 0.82032 0.03941 0.61371 0.0
C351 C 0.87084 0.13711 0.56332 0.0
O352 O 0.89096 0.13188 0.58207 0.0
C353 C 0.78225 0.08568 0.5802 0.0
O354 O 0.77639 0.01718 0.61878 0.0
C355 C 0.85987 1.00229 0.59677 0.0
C356 C 0.77018 0.99864 0.63869 0.0
O357 O 0.79003 0.99296 0.65759 0.0
C358 C 0.85231 0.08242 0.65614 0.0
C359 C 0.8888 0.98728 0.59966 0.0
C360 C 0.91262 0.99713 0.58368 0.0
C361 C 0.93895 0.98101 0.58231 0.0
C362 C 0.94172 0.95537 0.59797 0.0
C363 C 0.91837 0.94489 0.61385 0.0
C364 C 0.89173 0.96069 0.61444 0.0
O365 O 0.78595 0.10453 0.60033 0.0
O366 O 0.79985 0.06295 0.5775 0.0
O367 O 0.80671 0.15236 0.63964 0.0
O368 O 0.83762 0.16953 0.61147 0.0
C369 C 0.81924 0.17625 0.63087 0.0
O370 O 0.83181 0.06226 0.65375 0.0
O371 O 0.8607 0.09793 0.63475 0.0
O372 O 0.83815 0.99488 0.61318 0.0
O373 O 0.8594 0.03018 0.58952 0.0
H374 H 0.91028 0.01681 0.57134 0.0
H375 H 0.96152 0.94219 0.59632 0.0
H376 H 0.87327 0.95185 0.62573 0.0
O377 O 0.37239 0.84339 0.5807 0.0
Tb378 Tb 0.38991 0.82663 0.61954 0.0
Eu379 Eu 0.47524 0.82277 0.61566 0.0
C380 C 0.35993 0.86956 0.58007 0.0
O381 O 0.36107 0.88588 0.60234 0.0
C382 C 0.42707 0.78463 0.5842 0.0
O383 O 0.49529 0.77727 0.61972 0.0
C384 C 0.5131 0.85958 0.5955 0.0
C385 C 0.51576 0.7703 0.63777 0.0
O386 O 0.52442 0.79011 0.65564 0.0
C387 C 0.43308 0.85562 0.65874 0.0
C388 C 0.52902 0.88798 0.59709 0.0
C389 C 0.52134 0.91042 0.57843 0.0
C390 C 0.53825 0.93605 0.57633 0.0
C391 C 0.56221 0.93974 0.59397 0.0
C392 C 0.57076 0.91758 0.61226 0.0
C393 C 0.55432 0.89149 0.61365 0.0
O394 O 0.4094 0.78577 0.60544 0.0
O395 O 0.44757 0.80457 0.58061 0.0
O396 O 0.37133 0.80372 0.65524 0.0
O397 O 0.34361 0.82992 0.63027 0.0
C398 C 0.34449 0.81277 0.65158 0.0
O399 O 0.45628 0.83837 0.65656 0.0
O400 O 0.41668 0.86098 0.63713 0.0
O401 O 0.52043 0.83813 0.61231 0.0
O402 O 0.4849 0.8602 0.58948 0.0
H403 H 0.50321 0.90718 0.56432 0.0
H404 H 0.57534 0.9595 0.59246 0.0
H405 H 0.56164 0.87389 0.62701 0.0
O406 O 0.64196 0.38381 0.5747 0.0
Tb407 Tb 0.67 0.40513 0.60515 0.0
Eu408 Eu 0.69829 0.47556 0.62756 0.0
C409 C 0.65524 0.36921 0.55481 0.0
O410 O 0.68406 0.36945 0.5541 0.0
C411 C 0.72051 0.43723 0.57675 0.0
O412 O 0.73634 0.50165 0.64432 0.0
C413 C 0.6617 0.51201 0.6043 0.0
C414 C 0.76207 0.48926 0.64852 0.0
O415 O 0.76469 0.46073 0.64542 0.0
C416 C 0.65514 0.43344 0.66147 0.0
C417 C 0.63191 0.52567 0.60378 0.0
C418 C 0.60992 0.51338 0.58703 0.0
C419 C 0.58291 0.52778 0.58318 0.0
C420 C 0.57758 0.55429 0.5969 0.0
C421 C 0.59911 0.56734 0.61335 0.0
C422 C 0.62646 0.55314 0.61655 0.0
O423 O 0.69275 0.43023 0.57362 0.0
O424 O 0.72895 0.45168 0.59872 0.0
O425 O 0.71107 0.3889 0.6237 0.0
O426 O 0.67684 0.35894 0.61444 0.0
C427 C 0.7033 0.36137 0.62403 0.0
O428 O 0.67948 0.44897 0.66238 0.0
O429 O 0.64354 0.42486 0.6379 0.0
O430 O 0.67977 0.51954 0.62415 0.0
O431 O 0.66469 0.48438 0.59663 0.0
H432 H 0.61414 0.49304 0.57614 0.0
H433 H 0.55717 0.56601 0.59327 0.0
H434 H 0.64353 0.56376 0.62842 0.0
O435 O 0.14158 0.67363 0.58063 0.0
Tb436 Tb 0.12373 0.68632 0.6205 0.0
Eu437 Eu 0.03853 0.69187 0.62005 0.0
C438 C 0.14132 0.64641 0.57157 0.0
O439 O 0.12716 0.62628 0.58558 0.0
C440 C 0.0859 0.73121 0.58775 0.0
O441 O 0.01807 0.73678 0.6256 0.0
C442 C 1.00145 0.65515 0.59882 0.0
C443 C 0.99652 0.74274 0.64276 0.0
O444 O 0.98683 0.72211 0.65927 0.0
C445 C 0.08162 0.65737 0.66011 0.0
C446 C 0.98598 0.62655 0.5982 0.0
C447 C 0.99402 0.60602 0.57781 0.0
C448 C 0.97692 0.58099 0.57296 0.0
C449 C 0.95223 0.57602 0.58932 0.0
C450 C 0.9434 0.59631 0.6093 0.0
C451 C 0.96042 0.62153 0.614 0.0
O452 O 0.10576 0.72824 0.60719 0.0
O453 O 0.06418 0.71243 0.58503 0.0
O454 O 0.16929 0.6792 0.63235 0.0
O455 O 0.14338 0.70857 0.65598 0.0
C456 C 0.1694 0.69707 0.6532 0.0
O457 O 0.05895 0.67536 0.65981 0.0
O458 O 0.0959 0.65232 0.63716 0.0
O459 O 0.9938 0.67517 0.61702 0.0
O460 O 0.02953 0.65564 0.59235 0.0
H461 H 0.01255 0.61044 0.56448 0.0
H462 H 0.93899 0.55663 0.58578 0.0
H463 H 0.95294 0.63773 0.62875 0.0
C464 C 0.45903 0.99506 0.95383 0.0
C465 C 0.44996 0.0237 0.9476 0.0
C466 C 0.47992 0.98975 0.97463 0.0
C467 C 0.49177 0.01364 0.98966 0.0
C468 C 0.48217 0.04252 0.98381 0.0
C469 C 0.46143 0.04718 0.96291 0.0
C470 C 0.48959 0.95861 0.98027 0.0
C471 C 0.4939 0.06855 0.99956 0.0
C472 C 0.52594 0.99581 0.05907 0.0
C473 C 0.55592 0.99445 0.05261 0.0
C474 C 0.50491 1.00278 0.03898 0.0
C475 C 0.51404 0.00841 0.01166 0.0
C476 C 0.54441 0.00839 0.00529 0.0
C477 C 0.56502 1.00149 0.02589 0.0
C478 C 0.47283 1.00301 0.04677 0.0
C479 C 0.55505 0.01438 0.97644 0.0
H480 H 0.45032 0.97688 0.94201 0.0
H481 H 0.45409 0.06935 0.95854 0.0
H482 H 0.51361 0.95653 0.97698 0.0
H483 H 0.48521 0.9529 1.00207 0.0
H484 H 0.47823 0.94248 0.96687 0.0
H485 H 0.48399 0.0896 0.99262 0.0
H486 H 0.48946 0.06582 0.02185 0.0
H487 H 0.51805 0.0699 0.99703 0.0
H488 H 0.51887 0.99042 0.07976 0.0
H489 H 0.58813 1.00006 0.02072 0.0
H490 H 0.46125 0.98513 0.03575 0.0
H491 H 0.46244 0.024 0.04045 0.0
H492 H 0.46949 1.0 0.06923 0.0
H493 H 0.54693 0.99701 0.96238 0.0
H494 H 0.57938 0.01503 0.97515 0.0
H495 H 0.54613 0.0356 0.96894 0.0
C496 C 0.5099 0.54905 0.03025 0.0
C497 C 0.51689 0.53977 0.05697 0.0
C498 C 0.50429 0.52868 0.00928 0.0
C499 C 0.5057 0.49828 0.01516 0.0
C500 C 0.51235 0.48874 0.04217 0.0
C501 C 0.51787 0.50961 0.06276 0.0
C502 C 0.49721 0.53971 0.98072 0.0
C503 C 0.51383 0.45651 0.04925 0.0
C504 C 0.46408 0.44847 0.96659 0.0
C505 C 0.48645 0.43836 0.94911 0.0
C506 C 0.47017 0.46751 0.98846 0.0
C507 C 0.49939 0.47658 0.99312 0.0
C508 C 0.52227 0.46577 0.9761 0.0
C509 C 0.51551 0.44672 0.95426 0.0
C510 C 0.4452 0.47834 0.00626 0.0
C511 C 0.55374 0.47487 0.98056 0.0
H512 H 0.50969 0.57229 0.02549 0.0
H513 H 0.52315 0.50235 0.08342 0.0
H514 H 0.51359 0.53114 0.96584 0.0
H515 H 0.4754 0.53151 0.97418 0.0
H516 H 0.49705 0.56406 0.97954 0.0
H517 H 0.51926 0.45272 0.07125 0.0
H518 H 0.49248 0.44592 0.04468 0.0
H519 H 0.53066 0.44547 0.03637 0.0
H520 H 0.44166 0.44149 0.96313 0.0
H521 H 0.53284 0.43893 0.94081 0.0
H522 H 0.44312 0.50252 0.00437 0.0
H523 H 0.44976 0.47339 0.0282 0.0
H524 H 0.42388 0.46828 1.00054 0.0
H525 H 0.55587 0.49886 0.97721 0.0
H526 H 0.56911 0.4633 0.96649 0.0
H527 H 0.56045 0.47034 1.00209 0.0
C528 C 0.02436 0.49059 0.93855 0.0
C529 C 0.05451 0.49329 0.94389 0.0
C530 C 1.00347 0.4963 0.95908 0.0
C531 C 0.01294 0.50504 0.98556 0.0
C532 C 0.04328 0.50878 0.99082 0.0
C533 C 0.0637 0.50283 0.96992 0.0
C534 C 0.97131 0.49229 0.95262 0.0
C535 C 0.0542 0.51827 0.01876 0.0
C536 C 0.95919 0.54337 0.03315 0.0
C537 C 0.95122 0.52067 0.05118 0.0
C538 C 0.97905 0.53853 0.01163 0.0
C539 C 0.99115 0.5102 0.00784 0.0
C540 C 0.98272 0.48698 0.02554 0.0
C541 C 0.96278 0.49248 0.04701 0.0
C542 C 0.98732 0.56382 0.99313 0.0
C543 C 0.99513 0.45645 0.02203 0.0
H544 H 0.01715 0.48342 0.91839 0.0
H545 H 0.08696 0.50451 0.97433 0.0
H546 H 0.96203 0.47486 0.96593 0.0
H547 H 0.95904 0.51281 0.95709 0.0
H548 H 0.96753 0.48618 0.93078 0.0
H549 H 0.07841 0.5211 0.01924 0.0
H550 H 0.04371 0.53931 0.02481 0.0
H551 H 0.04803 0.50169 0.03442 0.0
H552 H 0.94981 0.56508 0.03589 0.0
H553 H 0.95672 0.47491 0.0609 0.0
H554 H 0.98231 0.55832 0.9714 0.0
H555 H 0.01128 0.56785 0.99447 0.0
H556 H 0.97556 0.5844 0.9986 0.0
H557 H 0.99061 0.44832 1.00094 0.0
H558 H 0.98581 0.44066 0.03706 0.0
H559 H 0.01932 0.45691 0.02463 0.0
C560 C 0.00866 0.95637 0.04716 0.0
C561 C 0.98065 0.94489 0.05212 0.0
C562 C 0.01307 0.97794 0.02682 0.0
C563 C 0.98893 0.98819 0.01101 0.0
C564 C 0.96072 0.97634 0.01568 0.0
C565 C 0.95697 0.95482 0.03602 0.0
C566 C 0.04353 0.98993 0.02236 0.0
C567 C 0.93444 0.98641 0.9992 0.0
C568 C 0.99641 0.06217 0.9749 0.0
C569 C 0.0046 0.05358 0.94828 0.0
C570 C 0.99071 0.04114 0.99543 0.0
C571 C 0.99323 0.01083 0.98916 0.0
C572 C 1.0002 1.0021 0.96198 0.0
C573 C 0.00572 0.02354 0.94192 0.0
C574 C 0.98306 0.05135 0.02408 0.0
C575 C 1.00282 0.97008 0.95429 0.0
H576 H 0.02701 0.94891 0.05955 0.0
H577 H 0.93534 0.94562 0.03925 0.0
H578 H 0.05047 0.98606 1.00078 0.0
H579 H 0.04353 0.01401 0.02576 0.0
H580 H 0.05996 0.97973 0.03632 0.0
H581 H 0.91389 0.97528 0.00562 0.0
H582 H 0.93139 0.01044 1.00154 0.0
H583 H 0.93813 0.98201 0.97702 0.0
H584 H 0.99586 0.08531 0.98004 0.0
H585 H 0.01185 0.01678 0.92131 0.0
H586 H 1.00055 0.04446 0.03863 0.0
H587 H 0.96235 0.04098 0.03101 0.0
H588 H 0.98052 0.07557 0.02531 0.0
H589 H 0.02093 0.95977 0.96614 0.0
H590 H 0.00722 0.96693 0.932 0.0
H591 H 0.98236 0.95829 0.95968 0.0
C592 C 0.06137 0.03855 0.47822 0.0
C593 C 0.07004 0.01679 0.45941 0.0
C594 C 0.04148 0.03245 0.49937 0.0
C595 C 0.03026 1.00372 0.50214 0.0
C596 C 0.04013 0.9812 0.48421 0.0
C597 C 0.05992 0.98803 0.46295 0.0
C598 C 0.03167 0.05707 0.5181 0.0
C599 C 0.02898 0.95018 0.48685 0.0
C600 C 0.99219 0.98545 0.56951 0.0
C601 C 0.96248 0.98877 0.56238 0.0
C602 C 0.0145 0.98973 0.55002 0.0
C603 C 0.00696 0.99789 0.52283 0.0
C604 C 0.97708 1.00177 0.51562 0.0
C605 C 0.95522 0.99706 0.53543 0.0
C606 C 0.04611 0.9854 0.55848 0.0
C607 C 0.96819 0.01075 0.48688 0.0
H608 H 0.06977 0.06066 0.47606 0.0
H609 H 0.06665 0.97113 0.44855 0.0
H610 H 0.00785 0.0612 0.5152 0.0
H611 H 0.03499 0.05083 0.53994 0.0
H612 H 0.04366 0.07781 0.51409 0.0
H613 H 0.0408 0.93473 0.47303 0.0
H614 H 0.03133 0.94239 0.50836 0.0
H615 H 0.00526 0.94959 0.4817 0.0
H616 H 0.998 0.97927 0.59035 0.0
H617 H 0.93236 0.99909 0.52955 0.0
H618 H 0.05846 0.00612 0.55564 0.0
H619 H 0.05662 0.96859 0.54519 0.0
H620 H 0.04825 0.9784 0.58028 0.0
H621 H 0.97827 0.03215 0.4816 0.0
H622 H 0.944 0.01274 0.48456 0.0
H623 H 0.97638 0.9944 0.47179 0.0
C624 C 0.51124 0.07086 0.47322 0.0
C625 C 0.50376 0.06061 0.44695 0.0
C626 C 0.51856 0.05119 0.4944 0.0
C627 C 0.51841 0.02061 0.48911 0.0
C628 C 0.51236 0.01028 0.46225 0.0
C629 C 0.50511 0.03041 0.4415 0.0
C630 C 0.52512 0.06304 0.52274 0.0
C631 C 0.51238 0.97788 0.45567 0.0
C632 C 0.55654 0.96873 0.53874 0.0
C633 C 0.53286 0.95785 0.55413 0.0
C634 C 0.55222 0.98938 0.51774 0.0
C635 C 0.52348 0.99932 0.51183 0.0
C636 C 0.49943 0.98841 0.52721 0.0
C637 C 0.50441 0.96771 0.54815 0.0
C638 C 0.57838 1.00032 0.50171 0.0
C639 C 0.46845 0.99857 0.5215 0.0
H640 H 0.50991 0.09415 0.4776 0.0
H641 H 0.49958 0.02247 0.42112 0.0
H642 H 0.50778 0.05591 0.53728 0.0
H643 H 0.54627 0.05409 0.5304 0.0
H644 H 0.52623 0.08739 0.52304 0.0
H645 H 0.50903 0.97357 0.43339 0.0
H646 H 0.53344 0.96771 0.46212 0.0
H647 H 0.49462 0.96686 0.46733 0.0
H648 H 0.57855 0.96076 0.54288 0.0
H649 H 0.48609 0.95949 0.56006 0.0
H650 H 0.5797 0.02459 0.50308 0.0
H651 H 0.57584 0.99466 0.47964 0.0
H652 H 0.59938 0.99083 0.50926 0.0
H653 H 0.46698 0.02277 0.52367 0.0
H654 H 0.45225 0.98834 0.53559 0.0
H655 H 0.46232 0.99313 0.5 0.0
C656 C 0.5707 0.50889 0.53622 0.0
C657 C 0.5613 0.51728 0.56255 0.0
C658 C 0.55038 0.50277 0.51531 0.0
C659 C 0.51997 0.50521 0.52086 0.0
C660 C 0.51033 0.51276 0.54762 0.0
C661 C 0.53112 0.51861 0.56816 0.0
C662 C 0.56147 0.4945 0.48707 0.0
C663 C 0.47808 0.5154 0.55435 0.0
C664 C 0.4688 0.51789 0.46017 0.0
C665 C 0.45823 0.48949 0.45544 0.0
C666 C 0.48875 0.52341 0.48159 0.0
C667 C 0.49826 0.49996 0.4986 0.0
C668 C 0.48727 0.47138 0.49419 0.0
C669 C 0.4673 0.46653 0.47278 0.0
C670 C 0.49992 0.55424 0.48583 0.0
C671 C 0.49679 0.44584 0.51194 0.0
H672 H 0.59396 0.50827 0.53161 0.0
H673 H 0.52377 0.52483 0.58856 0.0
H674 H 0.55177 0.47332 0.48051 0.0
H675 H 0.55453 0.51133 0.4719 0.0
H676 H 0.58576 0.49248 0.48641 0.0
H677 H 0.47422 0.52072 0.57636 0.0
H678 H 0.46794 0.53286 0.54155 0.0
H679 H 0.46666 0.49459 0.54941 0.0
H680 H 0.46188 0.53566 0.44681 0.0
H681 H 0.45866 0.44465 0.46966 0.0
H682 H 0.52409 0.55469 0.48308 0.0
H683 H 0.49526 0.56156 0.50716 0.0
H684 H 0.48982 0.57014 0.47129 0.0
H685 H 0.5209 0.4428 0.51046 0.0
H686 H 0.48597 0.425 0.5059 0.0
H687 H 0.4916 0.45042 0.53382 0.0
C688 C 0.95977 0.55231 0.53223 0.0
C689 C 0.98294 0.56122 0.54933 0.0
C690 C 0.96447 0.53269 0.51047 0.0
C691 C 0.99307 0.52177 0.50559 0.0
C692 C 0.0167 0.53114 0.52239 0.0
C693 C 0.01136 0.55085 0.54406 0.0
C694 C 0.93877 0.52341 0.4929 0.0
C695 C 0.04754 0.51997 0.51773 0.0
C696 C 1.00314 0.44954 0.46777 0.0
C697 C 0.01206 0.45912 0.44169 0.0
C698 C 0.99618 0.46973 0.48859 0.0
C699 C 0.99819 0.50019 0.48315 0.0
C700 C 0.00585 0.50998 0.45649 0.0
C701 C 0.01268 0.48931 0.43607 0.0
C702 C 0.98791 0.45846 0.51675 0.0
C703 C 0.00795 0.54227 0.44982 0.0
H704 H 0.93784 0.56077 0.53586 0.0
H705 H 0.02927 0.55764 0.55727 0.0
H706 H 0.94316 0.52856 0.47098 0.0
H707 H 0.9357 0.49932 0.4944 0.0
H708 H 0.918 0.53441 0.4991 0.0
H709 H 0.06357 0.52988 0.5322 0.0
H710 H 0.04814 0.49577 0.52026 0.0
H711 H 0.05458 0.52484 0.49637 0.0
H712 H 1.00305 0.42626 0.47236 0.0
H713 H 0.01943 0.49676 0.41586 0.0
H714 H 0.96683 0.46837 0.52348 0.0
H715 H 0.00487 0.46502 0.53192 0.0
H716 H 0.98577 0.43419 0.51719 0.0
H717 H 0.98724 0.55366 0.45545 0.0
H718 H 0.01246 0.54624 0.42768 0.0
H719 H 0.02579 0.55234 0.46212 0.0
C720 C 0.57327 0.88817 0.08695 0.0
C721 C 0.58323 0.90745 0.10741 0.0
C722 C 0.56107 0.86091 0.09365 0.0
C723 C 0.55896 0.85241 0.12158 0.0
C724 C 0.57079 0.87091 0.14227 0.0
C725 C 0.58279 0.89833 0.13493 0.0
C726 C 0.54885 0.842 0.07084 0.0
C727 C 0.56939 0.86245 0.17223 0.0
C728 C 0.49476 0.80137 0.13496 0.0
C729 C 0.50814 0.77364 0.13342 0.0
C730 C 0.5113 0.82722 0.13256 0.0
C731 C 0.5421 0.82541 0.12881 0.0
C732 C 0.55596 0.79753 0.12879 0.0
C733 C 0.53881 0.77198 0.1309 0.0
C734 C 0.49554 0.85643 0.13246 0.0
C735 C 0.58874 0.79461 0.12523 0.0
H736 H 0.57394 0.89503 0.06559 0.0
H737 H 0.59043 0.9132 0.15079 0.0
H738 H 0.55787 0.81941 0.07225 0.0
H739 H 0.52466 0.84043 0.07298 0.0
H740 H 0.5539 0.85091 0.05011 0.0
H741 H 0.58302 0.87704 0.1853 0.0
H742 H 0.54633 0.86381 0.17946 0.0
H743 H 0.57682 0.83944 0.17512 0.0
H744 H 0.47111 0.80295 0.13692 0.0
H745 H 0.54941 0.75068 0.1299 0.0
H746 H 0.49718 0.86649 0.11172 0.0
H747 H 0.50599 0.87173 0.14723 0.0
H748 H 0.47195 0.85429 0.13783 0.0
H749 H 0.59479 0.80039 0.1038 0.0
H750 H 0.59658 0.77195 0.12948 0.0
H751 H 0.6004 0.81004 0.13907 0.0
C752 C 0.71869 0.51041 0.11736 0.0
C753 C 0.73729 0.51688 0.13957 0.0
C754 C 0.69064 0.52309 0.1152 0.0
C755 C 0.68065 0.54265 0.13588 0.0
C756 C 0.69926 0.5493 0.15838 0.0
C757 C 0.72739 0.53643 0.15991 0.0
C758 C 0.67166 0.51543 0.09075 0.0
C759 C 0.68934 0.56979 0.18096 0.0
C760 C 0.61637 0.591 0.11391 0.0
C761 C 0.59242 0.57406 0.12239 0.0
C762 C 0.64536 0.58191 0.11945 0.0
C763 C 0.65042 0.5554 0.13402 0.0
C764 C 0.62619 0.53945 0.14438 0.0
C765 C 0.59752 0.54885 0.13826 0.0
C766 C 0.67049 0.59952 0.10791 0.0
C767 C 0.63047 0.51133 0.16033 0.0
H768 H 0.72609 0.49545 0.10143 0.0
H769 H 0.74154 0.54158 0.17716 0.0
H770 H 0.65118 0.50473 0.09783 0.0
H771 H 0.66524 0.5357 0.07959 0.0
H772 H 0.68295 0.50043 0.07611 0.0
H773 H 0.70652 0.57304 0.19689 0.0
H774 H 0.68337 0.59146 0.17216 0.0
H775 H 0.66939 0.56092 0.191 0.0
H776 H 0.61249 0.61024 0.10127 0.0
H777 H 0.579 0.53564 0.14469 0.0
H778 H 0.6808 0.58718 0.09074 0.0
H779 H 0.68761 0.60298 0.1238 0.0
H780 H 0.66317 0.62123 0.10003 0.0
H781 H 0.6387 0.49393 0.14631 0.0
H782 H 0.60974 0.50361 0.16987 0.0
H783 H 0.64713 0.51434 0.17673 0.0
C784 C 0.9713 0.723 0.15143 0.0
C785 C 1.00105 0.72039 0.1443 0.0
C786 C 0.95253 0.69845 0.15081 0.0
C787 C 0.96359 0.67086 0.1421 0.0
C788 C 0.99383 0.66799 0.13577 0.0
C789 C 0.01217 0.69263 0.13727 0.0
C790 C 0.92067 0.7023 0.15847 0.0
C791 C 0.00658 0.63921 0.12588 0.0
C792 C 0.92753 0.59583 0.14778 0.0
C793 C 0.91782 0.5918 0.12071 0.0
C794 C 0.94008 0.6227 0.15603 0.0
C795 C 0.94347 0.64564 0.13654 0.0
C796 C 0.93131 0.64235 0.1099 0.0
C797 C 0.91847 0.61559 0.10243 0.0
C798 C 0.95188 0.62561 0.18488 0.0
C799 C 0.93457 0.66591 0.08826 0.0
H800 H 0.96255 0.74432 0.15707 0.0
H801 H 0.03507 0.69034 0.13161 0.0
H802 H 0.90695 0.70165 0.13963 0.0
H803 H 0.91337 0.68413 0.17201 0.0
H804 H 0.91661 0.72352 0.1691 0.0
H805 H 0.03071 0.64034 0.12276 0.0
H806 H 1.00187 0.62152 0.14088 0.0
H807 H 0.9962 0.63292 0.10608 0.0
H808 H 0.92731 0.57738 0.16186 0.0
H809 H 0.91113 0.61236 0.08141 0.0
H810 H 0.94729 0.64781 0.19325 0.0
H811 H 0.97605 0.62255 0.18462 0.0
H812 H 0.94231 0.60893 0.19889 0.0
H813 H 0.92801 0.68762 0.09657 0.0
H814 H 0.92121 0.66129 0.06965 0.0
H815 H 0.95795 0.66742 0.08202 0.0
C816 C 0.77641 0.93823 0.16045 0.0
C817 C 0.76922 0.96366 0.14555 0.0
C818 C 0.80461 0.92547 0.15858 0.0
C819 C 0.82594 0.93811 0.14102 0.0
C820 C 0.81881 0.9639 0.12613 0.0
C821 C 0.79075 0.97643 0.12875 0.0
C822 C 0.81149 0.89832 0.17516 0.0
C823 C 0.84063 0.97798 0.10684 0.0
C824 C 0.90848 0.92557 0.14475 0.0
C825 C 0.91296 0.90649 0.12254 0.0
C826 C 0.87997 0.93423 0.15252 0.0
C827 C 0.85547 0.92417 0.13721 0.0
C828 C 0.85993 0.90356 0.11575 0.0
C829 C 0.88862 0.8949 0.10875 0.0
C830 C 0.87627 0.95579 0.17583 0.0
C831 C 0.83463 0.89254 0.09859 0.0
H832 H 0.76 0.92825 0.17355 0.0
H833 H 0.78549 0.99596 0.11699 0.0
H834 H 0.81611 0.87965 0.16115 0.0
H835 H 0.83151 0.90188 0.18772 0.0
H836 H 0.79316 0.89212 0.18904 0.0
H837 H 0.83167 0.99796 0.09675 0.0
H838 H 0.86079 0.98409 0.11826 0.0
H839 H 0.84717 0.9621 0.09063 0.0
H840 H 0.92737 0.93493 0.15506 0.0
H841 H 0.89218 0.88066 0.09118 0.0
H842 H 0.8579 0.94913 0.18941 0.0
H843 H 0.87082 0.97775 0.16737 0.0
H844 H 0.89655 0.95773 0.18839 0.0
H845 H 0.8164 0.88507 0.11193 0.0
H846 H 0.84125 0.87417 0.08488 0.0
H847 H 0.82607 0.91072 0.08565 0.0
C848 C 1.0022 0.19635 0.37325 0.0
C849 C 0.01453 0.22398 0.36801 0.0
C850 C 0.01976 0.17101 0.37498 0.0
C851 C 0.05048 0.17307 0.37089 0.0
C852 C 0.06289 0.20063 0.36414 0.0
C853 C 0.04483 0.22581 0.36308 0.0
C854 C 0.00554 0.14225 0.38266 0.0
C855 C 0.0954 0.20372 0.35906 0.0
C856 C 0.09251 0.11523 0.41094 0.0
C857 C 0.09546 0.09264 0.3915 0.0
C858 C 0.07957 0.14219 0.40401 0.0
C859 C 0.06956 0.14699 0.3768 0.0
C860 C 0.07479 0.12518 0.35648 0.0
C861 C 0.08756 0.0981 0.36412 0.0
C862 C 0.0744 0.16454 0.42647 0.0
C863 C 0.0651 0.12965 0.32711 0.0
H864 H 0.97885 0.19463 0.37715 0.0
H865 H 0.05456 0.247 0.35882 0.0
H866 H 0.01143 0.12501 0.36751 0.0
H867 H 0.01378 0.13493 0.40303 0.0
H868 H 0.98124 0.14397 0.38369 0.0
H869 H 0.10099 0.22548 0.35023 0.0
H870 H 0.10747 0.20105 0.37873 0.0
H871 H 0.10325 0.18631 0.34487 0.0
H872 H 0.09864 0.11101 0.43214 0.0
H873 H 0.08964 0.08062 0.3491 0.0
H874 H 0.05053 0.16626 0.43073 0.0
H875 H 0.08201 0.18653 0.41987 0.0
H876 H 0.08581 0.15861 0.4459 0.0
H877 H 0.0409 0.12744 0.3258 0.0
H878 H 0.07524 0.11331 0.31303 0.0
H879 H 0.07079 0.15204 0.31994 0.0
C880 C 0.2865 0.03582 0.35891 0.0
C881 C 0.28922 0.0051 0.35857 0.0
C882 C 0.31134 0.05394 0.3613 0.0
C883 C 0.33957 0.04106 0.36366 0.0
C884 C 0.34255 0.01015 0.36178 0.0
C885 C 0.31741 0.9926 0.35916 0.0
C886 C 0.30719 0.08677 0.36286 0.0
C887 C 0.37218 0.99543 0.36431 0.0
C888 C 0.41169 0.08339 0.36009 0.0
C889 C 0.41888 0.0854 0.38806 0.0
C890 C 0.3851 0.07039 0.35166 0.0
C891 C 0.36547 0.05919 0.37171 0.0
C892 C 0.37195 0.06296 0.39998 0.0
C893 C 0.39846 0.07607 0.40775 0.0
C894 C 0.37881 0.06717 0.32135 0.0
C895 C 0.35173 0.05153 0.42212 0.0
H896 H 0.26486 0.04575 0.35827 0.0
H897 H 0.31984 0.96894 0.35879 0.0
H898 H 0.31088 0.09425 0.3843 0.0
H899 H 0.32342 0.09812 0.34964 0.0
H900 H 0.28475 0.09357 0.3565 0.0
H901 H 0.37114 0.97154 0.35987 0.0
H902 H 0.38813 0.00566 0.35003 0.0
H903 H 0.38071 0.99841 0.38551 0.0
H904 H 0.42749 0.09051 0.34485 0.0
H905 H 0.40391 0.07787 0.42941 0.0
H906 H 0.35581 0.07354 0.31673 0.0
H907 H 0.38153 0.04384 0.31528 0.0
H908 H 0.3938 0.0807 0.3086 0.0
H909 H 0.32907 0.05973 0.4188 0.0
H910 H 0.35895 0.05808 0.44307 0.0
H911 H 0.351 0.02721 0.42117 0.0
C912 C 0.42711 0.39503 0.40415 0.0
C913 C 0.42375 0.41876 0.38605 0.0
C914 C 0.43844 0.36808 0.39513 0.0
C915 C 0.44623 0.36454 0.36713 0.0
C916 C 0.44023 0.38754 0.34822 0.0
C917 C 0.42921 0.41459 0.35797 0.0
C918 C 0.44455 0.3444 0.41613 0.0
C919 C 0.44743 0.38436 0.3181 0.0
C920 C 0.51222 0.31446 0.35822 0.0
C921 C 0.49899 0.2872 0.35335 0.0
C922 C 0.49531 0.34005 0.36134 0.0
C923 C 0.46435 0.33858 0.35894 0.0
C924 C 0.451 0.31148 0.35217 0.0
C925 C 0.46844 0.28601 0.34981 0.0
C926 C 0.51053 0.3683 0.36903 0.0
C927 C 0.41818 0.30909 0.34872 0.0
H928 H 0.4228 0.39829 0.42588 0.0
H929 H 0.42673 0.43296 0.34399 0.0
H930 H 0.43581 0.32302 0.40905 0.0
H931 H 0.46863 0.34181 0.41875 0.0
H932 H 0.43479 0.34958 0.43651 0.0
H933 H 0.43634 0.40145 0.30549 0.0
H934 H 0.47147 0.38649 0.31516 0.0
H935 H 0.44094 0.36238 0.31043 0.0
H936 H 0.53578 0.31564 0.36107 0.0
H937 H 0.45806 0.26507 0.34583 0.0
H938 H 0.50396 0.37489 0.39014 0.0
H939 H 0.50381 0.38622 0.35491 0.0
H940 H 0.53482 0.36621 0.36842 0.0
H941 H 0.40746 0.31027 0.36917 0.0
H942 H 0.41179 0.28811 0.33878 0.0
H943 H 0.40961 0.32762 0.33622 0.0
C944 C 0.10752 0.43275 0.36131 0.0
C945 C 0.09871 0.42844 0.3886 0.0
C946 C 0.13496 0.44547 0.35529 0.0
C947 C 0.15372 0.45422 0.37711 0.0
C948 C 0.14557 0.44799 0.4046 0.0
C949 C 0.11826 0.43513 0.40996 0.0
C950 C 0.14302 0.45127 0.32571 0.0
C951 C 0.1647 0.45689 0.42856 0.0
C952 C 0.23348 0.4776 0.36879 0.0
C953 C 0.23103 0.50832 0.36986 0.0
C954 C 0.2084 0.45962 0.36953 0.0
C955 C 0.18022 0.47263 0.37182 0.0
C956 C 0.17761 0.50364 0.37191 0.0
C957 C 0.20297 0.52106 0.37075 0.0
C958 C 0.21215 0.42671 0.36898 0.0
C959 C 0.14806 0.51849 0.37462 0.0
H960 H 0.0923 0.42781 0.34481 0.0
H961 H 0.11137 0.43183 0.43108 0.0
H962 H 0.14097 0.4751 0.32139 0.0
H963 H 0.16616 0.4449 0.32174 0.0
H964 H 0.12858 0.43921 0.3112 0.0
H965 H 0.15641 0.44825 0.44846 0.0
H966 H 0.18749 0.44891 0.42553 0.0
H967 H 0.16554 0.48119 0.42989 0.0
H968 H 0.25504 0.46753 0.36789 0.0
H969 H 0.20079 0.54473 0.3716 0.0
H970 H 0.19681 0.41674 0.35394 0.0
H971 H 0.2068 0.41753 0.38949 0.0
H972 H 0.23493 0.4201 0.36359 0.0
H973 H 0.13273 0.51015 0.35873 0.0
H974 H 0.14956 0.54273 0.37259 0.0
H975 H 0.13843 0.5133 0.395 0.0
C976 C 0.48718 0.21149 0.87267 0.0
C977 C 0.48242 0.23011 0.85009 0.0
C978 C 0.47346 0.18409 0.87451 0.0
C979 C 0.45476 0.17462 0.85301 0.0
C980 C 0.45007 0.19308 0.82994 0.0
C981 C 0.46376 0.22076 0.82885 0.0
C982 C 0.47887 0.16534 0.89968 0.0
C983 C 0.43072 0.18351 0.80641 0.0
C984 C 0.44619 0.09207 0.85592 0.0
C985 C 0.42047 0.08935 0.87148 0.0
C986 C 0.4562 0.11972 0.84735 0.0
C987 C 0.44046 0.14527 0.85514 0.0
C988 C 0.41328 0.14238 0.86905 0.0
C989 C 0.4035 0.11437 0.87691 0.0
C990 C 0.48494 0.12168 0.83205 0.0
C991 C 0.39592 0.16897 0.87805 0.0
H992 H 0.50136 0.21852 0.88931 0.0
H993 H 0.46003 0.23497 0.81131 0.0
H994 H 0.45773 0.16025 0.90991 0.0
H995 H 0.48905 0.14417 0.89358 0.0
H996 H 0.49348 0.17622 0.91485 0.0
H997 H 0.42956 0.20022 0.78981 0.0
H998 H 0.43916 0.16266 0.79759 0.0
H999 H 0.40818 0.17919 0.81398 0.0
H1000 H 0.45935 0.07268 0.85181 0.0
H1001 H 0.38381 0.11229 0.88926 0.0
H1002 H 0.50238 0.12916 0.84634 0.0
H1003 H 0.48344 0.13795 0.81512 0.0
H1004 H 0.49166 0.10015 0.82333 0.0
H1005 H 0.40735 0.17968 0.89552 0.0
H1006 H 0.3734 0.16309 0.88477 0.0
H1007 H 0.39437 0.18528 0.86118 0.0
C1008 C 0.41151 0.43929 0.86157 0.0
C1009 C 0.41474 0.41335 0.87681 0.0
C1010 C 0.38357 0.451 0.85572 0.0
C1011 C 0.35816 0.43674 0.86581 0.0
C1012 C 0.36129 0.40957 0.87981 0.0
C1013 C 0.38955 0.39814 0.88504 0.0
C1014 C 0.38142 0.47971 0.84037 0.0
C1015 C 0.33493 0.39367 0.89112 0.0
C1016 C 0.29295 0.48596 0.88384 0.0
C1017 C 0.27365 0.48107 0.86179 0.0
C1018 C 0.32026 0.47151 0.88542 0.0
C1019 C 0.32884 0.45178 0.86432 0.0
C1020 C 0.30959 0.44691 0.84187 0.0
C1021 C 0.28222 0.46146 0.84094 0.0
C1022 C 0.33992 0.47733 0.90984 0.0
C1023 C 0.31797 0.42638 0.81879 0.0
H1024 H 0.43098 0.45131 0.85555 0.0
H1025 H 0.39199 0.37844 0.89735 0.0
H1026 H 0.36441 0.47844 0.82408 0.0
H1027 H 0.37476 0.49739 0.8548 0.0
H1028 H 0.40262 0.48595 0.83078 0.0
H1029 H 0.34062 0.37132 0.8986 0.0
H1030 H 0.3256 0.4064 0.90852 0.0
H1031 H 0.31757 0.39181 0.87522 0.0
H1032 H 0.28663 0.50094 0.90013 0.0
H1033 H 0.26757 0.45751 0.82378 0.0
H1034 H 0.36111 0.48659 0.90278 0.0
H1035 H 0.34488 0.45645 0.92065 0.0
H1036 H 0.32986 0.49286 0.92476 0.0
H1037 H 0.33862 0.43392 0.80903 0.0
H1038 H 0.30066 0.42497 0.80274 0.0
H1039 H 0.32215 0.40406 0.82704 0.0
C1040 C 0.99639 0.31087 0.86142 0.0
C1041 C 0.00828 0.28256 0.85867 0.0
C1042 C 0.01452 0.33561 0.86391 0.0
C1043 C 0.04544 0.33222 0.86315 0.0
C1044 C 0.05759 0.30391 0.8588 0.0
C1045 C 0.0389 0.27938 0.8569 0.0
C1046 C 1.00049 0.36524 0.86888 0.0
C1047 C 0.09036 0.29937 0.85727 0.0
C1048 C 0.08512 0.40561 0.8574 0.0
C1049 C 0.08971 0.41224 0.88521 0.0
C1050 C 0.07278 0.37849 0.84952 0.0
C1051 C 0.06458 0.35786 0.87 0.0
C1052 C 0.07139 0.36372 0.89789 0.0
C1053 C 0.08397 0.39071 0.90508 0.0
C1054 C 0.06659 0.37285 0.81952 0.0
C1055 C 0.06301 0.34263 0.92052 0.0
H1056 H 0.97281 0.31366 0.86285 0.0
H1057 H 0.04832 0.25765 0.85459 0.0
H1058 H 0.00656 0.37328 0.88967 0.0
H1059 H 0.00871 0.38147 0.85376 0.0
H1060 H 0.97617 0.36447 0.86745 0.0
H1061 H 0.09618 0.27708 0.84971 0.0
H1062 H 0.10048 0.31592 0.84351 0.0
H1063 H 0.10011 0.30229 0.878 0.0
H1064 H 0.08932 0.4223 0.84202 0.0
H1065 H 0.08749 0.39587 0.92662 0.0
H1066 H 0.04281 0.37593 0.81549 0.0
H1067 H 0.07229 0.34992 0.81393 0.0
H1068 H 0.07896 0.38807 0.80598 0.0
H1069 H 0.03875 0.34194 0.92241 0.0
H1070 H 0.07234 0.3491 0.94074 0.0
H1071 H 0.07062 0.32011 0.91555 0.0
C1072 C 0.22361 0.04287 0.86024 0.0
C1073 C 0.22235 0.01217 0.85784 0.0
C1074 C 0.19788 0.0598 0.86373 0.0
C1075 C 0.17022 0.04571 0.86518 0.0
C1076 C 0.16877 0.01489 0.86152 0.0
C1077 C 0.19472 0.9986 0.85777 0.0
C1078 C 0.20046 0.0926 0.86715 0.0
C1079 C 0.13989 0.99881 0.86314 0.0
C1080 C 0.10873 0.07562 0.90996 0.0
C1081 C 0.08798 0.08497 0.89044 0.0
C1082 C 0.13608 0.06423 0.902 0.0
C1083 C 0.14324 0.06229 0.87372 0.0
C1084 C 0.12323 0.07361 0.85394 0.0
C1085 C 0.09575 0.08481 0.86254 0.0
C1086 C 0.15655 0.05254 0.92391 0.0
C1087 C 0.13013 0.0724 0.82363 0.0
H1088 H 0.24477 0.05366 0.86021 0.0
H1089 H 0.19335 0.97494 0.8559 0.0
H1090 H 0.18394 0.10409 0.85425 0.0
H1091 H 0.19601 0.09858 0.88888 0.0
H1092 H 0.22266 0.10067 0.8616 0.0
H1093 H 0.14213 0.97522 0.85772 0.0
H1094 H 0.13101 1.00043 0.88434 0.0
H1095 H 0.12358 0.00902 0.84912 0.0
H1096 H 0.10295 0.07604 0.9316 0.0
H1097 H 0.07981 0.09194 0.84737 0.0
H1098 H 0.17883 0.06185 0.9213 0.0
H1099 H 0.15851 0.02835 0.92186 0.0
H1100 H 0.14873 0.05767 0.94502 0.0
H1101 H 0.15279 0.0802 0.81971 0.0
H1102 H 0.11456 0.08584 0.8113 0.0
H1103 H 0.12889 0.04934 0.8164 0.0
C1104 C 0.99024 0.79261 0.62188 0.0
C1105 C 0.98241 0.77224 0.64223 0.0
C1106 C 0.97667 0.82028 0.62034 0.0
C1107 C 0.9548 0.82806 0.63977 0.0
C1108 C 0.94687 0.80771 0.66048 0.0
C1109 C 0.96067 0.78 0.6614 0.0
C1110 C 0.98577 0.84119 0.5978 0.0
C1111 C 0.92389 0.81526 0.68171 0.0
C1112 C 0.94517 0.91061 0.64493 0.0
C1113 C 0.92188 0.91555 0.62665 0.0
C1114 C 0.95468 0.88201 0.65114 0.0
C1115 C 0.94083 0.85776 0.63838 0.0
C1116 C 0.91587 0.8626 0.62151 0.0
C1117 C 0.90661 0.8915 0.61591 0.0
C1118 C 0.98106 0.87794 0.66956 0.0
C1119 C 0.90051 0.83745 0.60742 0.0
H1120 H 0.00688 0.78687 0.60687 0.0
H1121 H 0.95445 0.76445 0.6772 0.0
H1122 H 0.96639 0.84747 0.58526 0.0
H1123 H 0.99471 0.8616 0.60694 0.0
H1124 H 1.00265 0.83157 0.58396 0.0
H1125 H 0.92013 0.79703 0.69645 0.0
H1126 H 0.93069 0.83502 0.6934 0.0
H1127 H 0.90281 0.82065 0.67141 0.0
H1128 H 0.95715 0.92925 0.65302 0.0
H1129 H 0.88893 0.89532 0.6014 0.0
H1130 H 1.00033 0.8716 0.6569 0.0
H1131 H 0.97721 0.86003 0.68457 0.0
H1132 H 0.98653 0.89832 0.68099 0.0
H1133 H 0.91475 0.82872 0.59078 0.0
H1134 H 0.87925 0.84433 0.59821 0.0
H1135 H 0.89647 0.81928 0.62209 0.0
C1136 C 0.72105 0.98861 0.61769 0.0
C1137 C 0.74118 0.98375 0.63909 0.0
C1138 C 0.69368 0.97459 0.6173 0.0
C1139 C 0.68599 0.95521 0.63892 0.0
C1140 C 0.70613 0.95018 0.66062 0.0
C1141 C 0.73352 0.96445 0.66043 0.0
C1142 C 0.67292 0.98061 0.59369 0.0
C1143 C 0.69868 0.92985 0.68408 0.0
C1144 C 0.60351 0.94628 0.64308 0.0
C1145 C 0.59918 0.92138 0.62665 0.0
C1146 C 0.63189 0.95614 0.64938 0.0
C1147 C 0.65653 0.94092 0.63868 0.0
C1148 C 0.65223 0.91426 0.62417 0.0
C1149 C 0.62353 0.90476 0.61838 0.0
C1150 C 0.63536 0.98441 0.66523 0.0
C1151 C 0.67782 0.8973 0.61243 0.0
H1152 H 0.7267 1.00339 0.60105 0.0
H1153 H 0.74889 0.96053 0.67705 0.0
H1154 H 0.6672 0.95977 0.5832 0.0
H1155 H 0.65221 0.99033 0.60158 0.0
H1156 H 0.68242 0.99585 0.57825 0.0
H1157 H 0.71685 0.92796 0.69923 0.0
H1158 H 0.67878 0.93792 0.69487 0.0
H1159 H 0.69358 0.90765 0.67605 0.0
H1160 H 0.58464 0.95927 0.64926 0.0
H1161 H 0.62022 0.88577 0.6053 0.0
H1162 H 0.64151 1.00226 0.65084 0.0
H1163 H 0.65314 0.98242 0.68071 0.0
H1164 H 0.61475 0.99088 0.67586 0.0
H1165 H 0.68663 0.90922 0.59433 0.0
H1166 H 0.67131 0.87493 0.60574 0.0
H1167 H 0.69579 0.89539 0.62772 0.0
C1168 C 0.52325 0.72088 0.61581 0.0
C1169 C 0.5298 0.74065 0.63708 0.0
C1170 C 0.53685 0.69314 0.61436 0.0
C1171 C 0.55742 0.68466 0.6348 0.0
C1172 C 0.56401 0.70443 0.65643 0.0
C1173 C 0.55024 0.73217 0.65726 0.0
C1174 C 0.5292 0.67289 0.59084 0.0
C1175 C 0.5855 0.69618 0.67879 0.0
C1176 C 0.56774 0.60191 0.64041 0.0
C1177 C 0.59289 0.59721 0.62435 0.0
C1178 C 0.55698 0.63039 0.64538 0.0
C1179 C 0.57142 0.65485 0.63362 0.0
C1180 C 0.59781 0.65031 0.61869 0.0
C1181 C 0.6083 0.62153 0.61433 0.0
C1182 C 0.52907 0.63409 0.66176 0.0
C1183 C 0.61386 0.67566 0.60567 0.0
H1184 H 0.50761 0.72714 0.60005 0.0
H1185 H 0.55548 0.74721 0.67381 0.0
H1186 H 0.54936 0.6669 0.57929 0.0
H1187 H 0.51967 0.65226 0.59894 0.0
H1188 H 0.51325 0.68295 0.57631 0.0
H1189 H 0.58836 0.714 0.69416 0.0
H1190 H 0.57783 0.67618 0.68959 0.0
H1191 H 0.60719 0.69093 0.66965 0.0
H1192 H 0.55563 0.58311 0.64796 0.0
H1193 H 0.62743 0.61794 0.60149 0.0
H1194 H 0.511 0.64098 0.64786 0.0
H1195 H 0.53172 0.65153 0.67749 0.0
H1196 H 0.5225 0.61345 0.67221 0.0
H1197 H 0.60045 0.68475 0.5886 0.0
H1198 H 0.63556 0.66895 0.5973 0.0
H1199 H 0.61717 0.69353 0.62083 0.0
C1200 C 0.78617 0.53747 0.65899 0.0
C1201 C 0.78858 0.50776 0.65166 0.0
C1202 C 0.81071 0.55613 0.65804 0.0
C1203 C 0.83802 0.54496 0.6488 0.0
C1204 C 0.84084 0.51463 0.64281 0.0
C1205 C 0.81619 0.49637 0.64463 0.0
C1206 C 0.80697 0.58808 0.66545 0.0
C1207 C 0.86941 0.5018 0.63249 0.0
C1208 C 0.88978 0.58976 0.60527 0.0
C1209 C 0.91448 0.59157 0.62235 0.0
C1210 C 0.86388 0.57651 0.61439 0.0
C1211 C 0.86248 0.56518 0.64148 0.0
C1212 C 0.88635 0.56971 0.65973 0.0
C1213 C 0.91233 0.58267 0.64983 0.0
C1214 C 0.83917 0.57208 0.59408 0.0
C1215 C 0.88535 0.55884 0.68901 0.0
H1216 H 0.76494 0.54637 0.66472 0.0
H1217 H 0.81826 0.47346 0.63892 0.0
H1218 H 0.82594 0.59593 0.67772 0.0
H1219 H 0.806 0.60143 0.64639 0.0
H1220 H 0.78649 0.59201 0.6773 0.0
H1221 H 0.8685 0.47753 0.63043 0.0
H1222 H 0.8747 0.51129 0.61206 0.0
H1223 H 0.88763 0.50748 0.64662 0.0
H1224 H 0.89159 0.59662 0.58397 0.0
H1225 H 0.93152 0.58391 0.66297 0.0
H1226 H 0.81794 0.57904 0.60314 0.0
H1227 H 0.8374 0.5484 0.58898 0.0
H1228 H 0.84266 0.58448 0.57469 0.0
H1229 H 0.86347 0.56299 0.69827 0.0
H1230 H 0.9024 0.56944 0.70194 0.0
H1231 H 0.88922 0.53479 0.6893 0.0
C1232 C 0.5733 0.23809 0.94693 0.0
C1233 C 0.58145 0.26754 0.95063 0.0
C1234 C 0.58228 0.21623 0.96545 0.0
C1235 C 0.59977 0.22392 0.98839 0.0
C1236 C 0.60689 0.25379 0.99301 0.0
C1237 C 0.59769 0.27525 0.97404 0.0
C1238 C 0.57427 0.18468 0.95967 0.0
C1239 C 0.62529 0.26292 0.01737 0.0
C1240 C 0.61077 0.16796 0.04589 0.0
C1241 C 0.63869 0.15684 0.03958 0.0
C1242 C 0.59772 0.18986 0.02945 0.0
C1243 C 0.61281 0.20048 0.006 0.0
C1244 C 0.64064 0.18864 0.99917 0.0
C1245 C 0.65327 0.16714 0.0161 0.0
C1246 C 0.56813 0.20211 0.0375 0.0
C1247 C 0.6573 0.19895 0.97411 0.0
H1248 H 0.56055 0.23187 0.92903 0.0
H1249 H 0.60402 0.29792 0.97716 0.0
H1250 H 0.59436 0.17211 0.95426 0.0
H1251 H 0.56473 0.17432 0.97825 0.0
H1252 H 0.55833 0.18265 0.94247 0.0
H1253 H 0.62645 0.28716 0.01957 0.0
H1254 H 0.61625 0.25351 0.03661 0.0
H1255 H 0.64793 0.25425 0.01495 0.0
H1256 H 0.59952 0.16025 0.06414 0.0
H1257 H 0.67481 0.15851 0.01102 0.0
H1258 H 0.55238 0.1997 0.02024 0.0
H1259 H 0.57008 0.22592 0.04187 0.0
H1260 H 0.55895 0.19106 0.05594 0.0
H1261 H 0.64371 0.19597 0.95538 0.0
H1262 H 0.67835 0.18694 0.97127 0.0
H1263 H 0.66212 0.22272 0.97594 0.0
C1264 C 0.28493 0.59717 0.92972 0.0
C1265 C 0.25751 0.58632 0.93787 0.0
C1266 C 0.30663 0.60411 0.9492 0.0
C1267 C 0.30042 0.60105 0.97759 0.0
C1268 C 0.27279 0.58987 0.98591 0.0
C1269 C 0.25183 0.58219 0.96591 0.0
C1270 C 0.33605 0.61507 0.93939 0.0
C1271 C 0.265 0.58697 0.01597 0.0
C1272 C 0.36097 0.59939 0.03176 0.0
C1273 C 0.36101 0.62857 0.04094 0.0
C1274 C 0.3422 0.59034 0.0104 0.0
C1275 C 0.32229 0.61074 0.9986 0.0
C1276 C 0.32267 0.64036 0.00748 0.0
C1277 C 0.34232 0.64899 0.02823 0.0
C1278 C 0.34321 0.55881 1.00089 0.0
C1279 C 0.30143 0.66271 0.99593 0.0
H1280 H 0.28946 0.60016 0.90801 0.0
H1281 H 0.23057 0.57403 0.97227 0.0
H1282 H 0.33914 0.63818 0.94592 0.0
H1283 H 0.35398 0.60196 0.94884 0.0
H1284 H 0.33823 0.61394 0.91665 0.0
H1285 H 0.24271 0.57773 0.01905 0.0
H1286 H 0.28115 0.57264 0.02655 0.0
H1287 H 0.26595 0.60883 0.026 0.0
H1288 H 0.37538 0.58354 0.04154 0.0
H1289 H 0.34192 0.67149 0.03549 0.0
H1290 H 0.34534 0.55783 0.97817 0.0
H1291 H 0.32243 0.54768 0.00642 0.0
H1292 H 0.36175 0.54645 0.01027 0.0
H1293 H 0.3037 0.66405 0.97326 0.0
H1294 H 0.30485 0.68495 0.00472 0.0
H1295 H 0.27858 0.6558 1.00036 0.0
C1296 C 0.91814 0.26939 0.93721 0.0
C1297 C 0.91759 0.23966 0.94478 0.0
C1298 C 0.90553 0.29109 0.95405 0.0
C1299 C 0.8922 0.28293 0.97921 0.0
C1300 C 0.89229 0.25305 0.98732 0.0
C1301 C 0.90499 0.2318 0.97003 0.0
C1302 C 0.90573 0.32264 0.94456 0.0
C1303 C 0.87853 0.24342 0.01408 0.0
C1304 C 0.8785 0.33903 0.03585 0.0
C1305 C 0.84807 0.34336 0.03381 0.0
C1306 C 0.89335 0.32011 0.01769 0.0
C1307 C 0.87746 0.30542 0.99678 0.0
C1308 C 0.84704 0.31101 0.99366 0.0
C1309 C 0.83271 0.32979 0.01228 0.0
C1310 C 0.92578 0.31469 0.02175 0.0
C1311 C 0.82934 0.29618 0.97138 0.0
H1312 H 0.92773 0.27569 0.91769 0.0
H1313 H 0.90487 0.20897 0.97623 0.0
H1314 H 0.88287 0.33034 0.94126 0.0
H1315 H 0.91554 0.33689 0.9606 0.0
H1316 H 0.91819 0.32558 0.92512 0.0
H1317 H 0.88116 0.21949 0.01776 0.0
H1318 H 0.88854 0.25551 0.03152 0.0
H1319 H 0.85475 0.24874 0.01398 0.0
H1320 H 0.89055 0.34929 0.05249 0.0
H1321 H 0.80921 0.33311 0.01047 0.0
H1322 H 0.93776 0.31784 1.00212 0.0
H1323 H 0.92939 0.29163 0.02828 0.0
H1324 H 0.93539 0.32945 0.03754 0.0
H1325 H 0.83992 0.29935 0.95105 0.0
H1326 H 0.80648 0.30467 0.9703 0.0
H1327 H 0.82853 0.27221 0.9753 0.0
C1328 C 0.27815 0.91323 0.96887 0.0
C1329 C 0.27004 0.92903 0.94527 0.0
C1330 C 0.25701 0.90382 0.98796 0.0
C1331 C 0.22693 0.91016 0.98331 0.0
C1332 C 0.21869 0.92692 0.96 0.0
C1333 C 0.24032 0.93622 0.94134 0.0
C1334 C 0.26678 0.88617 0.01263 0.0
C1335 C 0.1869 0.93395 0.95409 0.0
C1336 C 0.17353 0.85523 0.01378 0.0
C1337 C 0.16358 0.86979 0.03746 0.0
C1338 C 0.1934 0.8685 0.99565 0.0
C1339 C 0.20403 0.897 1.00146 0.0
C1340 C 0.19351 0.91218 0.02498 0.0
C1341 C 0.17319 0.89846 0.04263 0.0
C1342 C 0.20358 0.85165 0.97061 0.0
C1343 C 0.20449 0.94248 0.03199 0.0
H1344 H 0.30102 0.90762 0.97219 0.0
H1345 H 0.23374 0.94843 0.92321 0.0
H1346 H 0.25747 0.89567 0.03176 0.0
H1347 H 0.25848 0.86339 0.01085 0.0
H1348 H 0.29107 0.88531 0.0146 0.0
H1349 H 0.18432 0.94931 0.9365 0.0
H1350 H 0.17496 0.9134 0.94925 0.0
H1351 H 0.1763 0.94378 0.97247 0.0
H1352 H 0.16601 0.83313 0.00952 0.0
H1353 H 0.16572 0.90973 0.06098 0.0
H1354 H 0.22747 0.84715 0.97217 0.0
H1355 H 0.20003 0.86491 0.95175 0.0
H1356 H 0.19195 0.83041 0.96821 0.0
H1357 H 0.22835 0.94148 0.03648 0.0
H1358 H 0.19302 0.95198 0.0501 0.0
H1359 H 0.20151 0.95744 0.0142 0.0
C1360 C 0.06505 0.76524 0.55192 0.0
C1361 C 0.08909 0.75553 0.56758 0.0
C1362 C 0.06806 0.78806 0.53258 0.0
C1363 C 0.09589 0.80112 0.52841 0.0
C1364 C 0.12017 0.79149 0.5443 0.0
C1365 C 0.11642 0.76905 0.5638 0.0
C1366 C 0.04151 0.79806 0.5165 0.0
C1367 C 0.15032 0.80451 0.54034 0.0
C1368 C 0.11565 0.83732 0.46037 0.0
C1369 C 0.11576 0.86721 0.46742 0.0
C1370 C 0.10818 0.81569 0.47973 0.0
C1371 C 0.10015 0.82406 0.50677 0.0
C1372 C 0.09854 0.85428 0.51355 0.0
C1373 C 0.10658 0.87547 0.49389 0.0
C1374 C 0.11042 0.78376 0.47161 0.0
C1375 C 0.08952 0.86422 0.54195 0.0
H1376 H 0.04378 0.75515 0.55492 0.0
H1377 H 0.13516 0.76164 0.5757 0.0
H1378 H 0.03839 0.82208 0.51893 0.0
H1379 H 0.04493 0.79374 0.49427 0.0
H1380 H 0.02114 0.78678 0.52316 0.0
H1381 H 0.16685 0.79484 0.55452 0.0
H1382 H 0.15774 0.80086 0.51887 0.0
H1383 H 0.14953 0.82857 0.54375 0.0
H1384 H 0.12277 0.83063 0.44004 0.0
H1385 H 0.1064 0.8985 0.4995 0.0
H1386 H 0.08976 0.77213 0.47663 0.0
H1387 H 0.12829 0.77305 0.4835 0.0
H1388 H 0.11505 0.7809 0.44933 0.0
H1389 H 0.06914 0.85292 0.54846 0.0
H1390 H 0.08583 0.88831 0.54295 0.0
H1391 H 0.10693 0.8583 0.55694 0.0
C1392 C 0.74314 0.11733 0.55923 0.0
C1393 C 0.75777 0.0902 0.56042 0.0
C1394 C 0.7205 0.12239 0.54017 0.0
C1395 C 0.71196 0.09968 0.52198 0.0
C1396 C 0.72619 0.07203 0.52344 0.0
C1397 C 0.74904 0.06767 0.54252 0.0
C1398 C 0.70611 0.15229 0.53915 0.0
C1399 C 0.71752 0.04716 0.50463 0.0
C1400 C 0.63758 0.10986 0.48722 0.0
C1401 C 0.64569 0.12184 0.46174 0.0
C1402 C 0.65892 0.10147 0.50667 0.0
C1403 C 0.68908 0.10548 0.50063 0.0
C1404 C 0.69738 0.11673 0.47464 0.0
C1405 C 0.67564 0.1246 0.4555 0.0
C1406 C 0.64917 0.08918 0.53399 0.0
C1407 C 0.72924 0.12149 0.46738 0.0
H1408 H 0.74975 0.13492 0.57289 0.0
H1409 H 0.76004 0.04656 0.54343 0.0
H1410 H 0.70975 0.16238 0.51866 0.0
H1411 H 0.68206 0.15018 0.54199 0.0
H1412 H 0.71478 0.16737 0.55515 0.0
H1413 H 0.72965 0.02656 0.50931 0.0
H1414 H 0.69364 0.04288 0.50641 0.0
H1415 H 0.72189 0.05331 0.48294 0.0
H1416 H 0.61452 0.1075 0.4922 0.0
H1417 H 0.68221 0.13384 0.43592 0.0
H1418 H 0.65462 0.10492 0.55064 0.0
H1419 H 0.66102 0.06842 0.53851 0.0
H1420 H 0.62519 0.08489 0.53455 0.0
H1421 H 0.73884 0.13816 0.48136 0.0
H1422 H 0.73213 0.12907 0.44583 0.0
H1423 H 0.7419 0.10088 0.47024 0.0
C1424 C 0.35961 0.67709 0.4725 0.0
C1425 C 0.37983 0.65786 0.4602 0.0
C1426 C 0.36837 0.69686 0.4931 0.0
C1427 C 0.39791 0.69689 0.50224 0.0
C1428 C 0.41812 0.67657 0.49078 0.0
C1429 C 0.40894 0.65763 0.46959 0.0
C1430 C 0.34623 0.71851 0.50432 0.0
C1431 C 0.44955 0.67522 0.50053 0.0
C1432 C 0.42667 0.76713 0.53526 0.0
C1433 C 0.42204 0.76152 0.56326 0.0
C1434 C 0.41919 0.74618 0.51517 0.0
C1435 C 0.40766 0.71864 0.52335 0.0
C1436 C 0.40418 0.71247 0.55171 0.0
C1437 C 0.41098 0.73413 0.57126 0.0
C1438 C 0.42261 0.75392 0.48516 0.0
C1439 C 0.39279 0.68316 0.5614 0.0
H1440 H 0.33717 0.67769 0.4651 0.0
H1441 H 0.42465 0.64281 0.46015 0.0
H1442 H 0.34443 0.71617 0.52696 0.0
H1443 H 0.35365 0.74124 0.50009 0.0
H1444 H 0.32409 0.71555 0.49515 0.0
H1445 H 0.46183 0.65662 0.49119 0.0
H1446 H 0.46093 0.69593 0.49521 0.0
H1447 H 0.4503 0.67296 0.52326 0.0
H1448 H 0.43499 0.78836 0.52899 0.0
H1449 H 0.4076 0.72962 0.59293 0.0
H1450 H 0.40084 0.75346 0.47491 0.0
H1451 H 0.43669 0.73746 0.4747 0.0
H1452 H 0.43237 0.776 0.48218 0.0
H1453 H 0.3697 0.68038 0.55468 0.0
H1454 H 0.3937 0.68094 0.58414 0.0
H1455 H 0.40576 0.66509 0.55203 0.0
C1456 C 0.77274 0.42487 0.56504 0.0
C1457 C 0.74294 0.42509 0.5576 0.0
C1458 C 0.79391 0.41078 0.54859 0.0
C1459 C 0.78516 0.39655 0.52402 0.0
C1460 C 0.75525 0.39743 0.516 0.0
C1461 C 0.73457 0.41179 0.53279 0.0
C1462 C 0.82552 0.41043 0.55791 0.0
C1463 C 0.74494 0.38261 0.48996 0.0
C1464 C 0.84123 0.37842 0.46829 0.0
C1465 C 0.8454 0.34814 0.47207 0.0
C1466 C 0.82222 0.39458 0.4854 0.0
C1467 C 0.8071 0.3802 0.50698 0.0
C1468 C 0.81215 0.3499 0.51162 0.0
C1469 C 0.83116 0.33425 0.49411 0.0
C1470 C 0.81752 0.42684 0.47977 0.0
C1471 C 0.7968 0.33377 0.5346 0.0
H1472 H 0.77951 0.43502 0.58417 0.0
H1473 H 0.71171 0.41221 0.52664 0.0
H1474 H 0.83248 0.38753 0.56226 0.0
H1475 H 0.83997 0.41887 0.54136 0.0
H1476 H 0.82903 0.42382 0.57673 0.0
H1477 H 0.72112 0.38601 0.4862 0.0
H1478 H 0.75735 0.39111 0.47203 0.0
H1479 H 0.74928 0.35867 0.49123 0.0
H1480 H 0.85203 0.38939 0.45132 0.0
H1481 H 0.83428 0.3109 0.4973 0.0
H1482 H 0.82147 0.43983 0.49871 0.0
H1483 H 0.7944 0.43072 0.47355 0.0
H1484 H 0.83213 0.43514 0.46324 0.0
H1485 H 0.80105 0.34478 0.55456 0.0
H1486 H 0.804 0.3105 0.53618 0.0
H1487 H 0.77273 0.33426 0.53116 0.0
C1488 C 0.35673 0.81487 0.96324 0.0
C1489 C 0.36979 0.84152 0.95565 0.0
C1490 C 0.36942 0.7966 0.98322 0.0
C1491 C 0.39569 0.8053 0.99642 0.0
C1492 C 0.40932 0.83198 0.98858 0.0
C1493 C 0.39632 0.84969 0.96809 0.0
C1494 C 0.35431 0.76819 0.99058 0.0
C1495 C 0.43714 0.84219 0.0024 0.0
C1496 C 0.4052 0.77059 0.06698 0.0
C1497 C 0.42416 0.74701 0.06132 0.0
C1498 C 0.39709 0.79067 0.04637 0.0
C1499 C 0.40782 0.78692 0.01925 0.0
C1500 C 0.42782 0.76378 0.01362 0.0
C1501 C 0.43591 0.74424 0.03476 0.0
C1502 C 0.37604 0.81521 0.05342 0.0
C1503 C 0.4395 0.75877 0.98495 0.0
H1504 H 0.33637 0.80822 0.95355 0.0
H1505 H 0.40648 0.87028 0.96238 0.0
H1506 H 0.3699 0.74953 0.98873 0.0
H1507 H 0.34682 0.76898 0.01227 0.0
H1508 H 0.33501 0.76376 0.97725 0.0
H1509 H 0.44578 0.86268 0.9931 0.0
H1510 H 0.43288 0.84619 0.02456 0.0
H1511 H 0.45429 0.82491 1.00107 0.0
H1512 H 0.39625 0.77312 0.0875 0.0
H1513 H 0.45054 0.72608 0.03018 0.0
H1514 H 0.35467 0.81134 0.0431 0.0
H1515 H 0.38458 0.83649 0.04582 0.0
H1516 H 0.37214 0.81698 0.07592 0.0
H1517 H 0.42132 0.75173 0.97129 0.0
H1518 H 0.45695 0.74168 0.98445 0.0
H1519 H 0.44846 0.77943 0.97637 0.0
C1520 C 0.63305 0.40386 0.99464 0.0
C1521 C 0.64058 0.39524 0.96784 0.0
C1522 C 0.65476 0.41212 0.01373 0.0
C1523 C 0.68474 0.41103 0.00602 0.0
C1524 C 0.69229 0.40394 0.97854 0.0
C1525 C 0.67012 0.39646 0.95973 0.0
C1526 C 0.64568 0.42033 0.04258 0.0
C1527 C 0.72395 0.4021 0.96949 0.0
C1528 C 0.74566 0.44234 0.05123 0.0
C1529 C 0.75506 0.41726 0.06554 0.0
C1530 C 0.72216 0.44097 0.03243 0.0
C1531 C 0.70828 0.41372 0.02728 0.0
C1532 C 0.71763 0.38841 0.04183 0.0
C1533 C 0.74054 0.3906 0.06102 0.0
C1534 C 0.7123 0.4686 0.01797 0.0
C1535 C 0.70381 0.3588 0.03674 0.0
H1536 H 0.61027 0.40319 1.00101 0.0
H1537 H 0.67622 0.38971 0.93913 0.0
H1538 H 0.65129 0.40214 0.05684 0.0
H1539 H 0.65771 0.44009 0.04964 0.0
H1540 H 0.62173 0.42468 0.04409 0.0
H1541 H 0.72608 0.39897 0.94691 0.0
H1542 H 0.73592 0.42228 0.97544 0.0
H1543 H 0.73483 0.38336 0.97998 0.0
H1544 H 0.75648 0.46313 0.05493 0.0
H1545 H 0.74751 0.37113 0.07206 0.0
H1546 H 0.68833 0.47183 0.02074 0.0
H1547 H 0.71641 0.46658 0.99556 0.0
H1548 H 0.72387 0.48838 0.02572 0.0
H1549 H 0.67993 0.35984 0.04106 0.0
H1550 H 0.71369 0.34125 0.04967 0.0
H1551 H 0.70643 0.35261 0.01479 0.0
C1552 C 0.14899 0.66843 0.9726 0.0
C1553 C 0.13239 0.66466 0.94853 0.0
C1554 C 0.13938 0.68734 0.99374 0.0
C1555 C 0.11234 0.7026 0.99094 0.0
C1556 C 0.09488 0.69773 0.96727 0.0
C1557 C 0.10516 0.67901 0.94636 0.0
C1558 C 0.15876 0.69198 0.01855 0.0
C1559 C 0.06575 0.71313 0.96354 0.0
C1560 C 0.07681 0.73728 0.05431 0.0
C1561 C 0.08462 0.76695 0.05152 0.0
C1562 C 0.08561 0.71614 0.03482 0.0
C1563 C 0.10291 0.72471 0.01201 0.0
C1564 C 0.11073 0.75463 0.00898 0.0
C1565 C 0.10129 0.77536 0.02858 0.0
C1566 C 0.07642 0.68461 0.0387 0.0
C1567 C 0.12926 0.76478 0.98508 0.0
H1568 H 0.17015 0.65765 0.97439 0.0
H1569 H 0.09211 0.67619 0.9279 0.0
H1570 H 0.16645 0.71506 0.01901 0.0
H1571 H 0.14617 0.68817 0.03774 0.0
H1572 H 0.17824 0.67724 0.01847 0.0
H1573 H 0.05382 0.70536 0.945 0.0
H1574 H 0.05164 0.70964 0.98184 0.0
H1575 H 0.06932 0.73711 0.96158 0.0
H1576 H 0.06391 0.73043 0.07189 0.0
H1577 H 0.10721 0.79819 0.02596 0.0
H1578 H 0.09612 0.67034 0.04037 0.0
H1579 H 0.06379 0.67707 0.02052 0.0
H1580 H 0.06273 0.68152 0.05738 0.0
H1581 H 0.15037 0.75257 0.9848 0.0
H1582 H 0.13404 0.78866 0.98599 0.0
H1583 H 0.11786 0.76002 0.96542 0.0
C1584 C 0.76685 0.06197 0.05996 0.0
C1585 C 0.73741 0.06983 0.05534 0.0
C1586 C 0.78917 0.07106 0.04199 0.0
C1587 C 0.78195 0.08852 0.01886 0.0
C1588 C 0.75214 0.09528 0.01333 0.0
C1589 C 0.73024 0.08571 0.03153 0.0
C1590 C 0.82063 0.06321 0.04855 0.0
C1591 C 0.74347 0.11382 0.98887 0.0
C1592 C 0.83646 0.14442 0.99226 0.0
C1593 C 0.84652 0.13118 0.96795 0.0
C1594 C 0.81622 0.1303 0.0094 0.0
C1595 C 0.80558 0.10222 1.00205 0.0
C1596 C 0.81655 0.08816 0.97813 0.0
C1597 C 0.83702 0.1028 0.96136 0.0
C1598 C 0.8054 0.14598 0.03488 0.0
C1599 C 0.80577 0.05821 0.96966 0.0
H1600 H 0.77266 0.04944 0.07813 0.0
H1601 H 0.70755 0.09143 0.02748 0.0
H1602 H 0.83181 0.0543 0.03006 0.0
H1603 H 0.83264 0.08325 0.05487 0.0
H1604 H 0.8223 0.04682 0.0654 0.0
H1605 H 0.71928 0.1152 0.98624 0.0
H1606 H 0.75211 0.13639 0.99149 0.0
H1607 H 0.75323 0.10474 0.96976 0.0
H1608 H 0.84389 0.16627 0.9976 0.0
H1609 H 0.84461 0.09252 0.94254 0.0
H1610 H 0.80839 0.13183 0.05324 0.0
H1611 H 0.78157 0.15064 0.03291 0.0
H1612 H 0.81702 0.16704 0.03846 0.0
H1613 H 0.8074 0.04263 0.98713 0.0
H1614 H 0.81831 0.04918 0.95197 0.0
H1615 H 0.78227 0.05965 0.96379 0.0
C1616 C 0.85933 0.17968 0.53294 0.0
C1617 C 0.87801 0.15621 0.53965 0.0
C1618 C 0.86745 0.20064 0.51316 0.0
C1619 C 0.89445 0.19744 0.499 0.0
C1620 C 0.91285 0.17308 0.50498 0.0
C1621 C 0.9047 0.15311 0.52567 0.0
C1622 C 0.84768 0.22679 0.50819 0.0
C1623 C 0.94135 0.16833 0.48976 0.0
C1624 C 0.904 0.23849 0.43135 0.0
C1625 C 0.92306 0.2612 0.43895 0.0
C1626 C 0.8946 0.21754 0.45062 0.0
C1627 C 0.90374 0.21988 0.47838 0.0
C1628 C 0.92214 0.24344 0.48635 0.0
C1629 C 0.932 0.26352 0.46644 0.0
C1630 C 0.87559 0.19244 0.44108 0.0
C1631 C 0.93151 0.24738 0.51591 0.0
H1632 H 0.83894 0.1825 0.54416 0.0
H1633 H 0.91921 0.13506 0.53097 0.0
H1634 H 0.85971 0.24735 0.51284 0.0
H1635 H 0.84111 0.22779 0.48625 0.0
H1636 H 0.82753 0.22616 0.52104 0.0
H1637 H 0.95202 0.14719 0.49533 0.0
H1638 H 0.93741 0.16862 0.46723 0.0
H1639 H 0.95678 0.18642 0.49448 0.0
H1640 H 0.89723 0.23645 0.41005 0.0
H1641 H 0.94657 0.28118 0.4724 0.0
H1642 H 0.85469 0.19219 0.45275 0.0
H1643 H 0.88692 0.17128 0.44518 0.0
H1644 H 0.87043 0.19376 0.41877 0.0
H1645 H 0.91197 0.24786 0.52952 0.0
H1646 H 0.94418 0.2679 0.51906 0.0
H1647 H 0.94531 0.22852 0.52243 0.0
C1648 C 0.27009 0.92989 0.44807 0.0
C1649 C 0.2402 0.92299 0.45082 0.0
C1650 C 0.29077 0.92122 0.46802 0.0
C1651 C 0.28148 0.90521 0.49142 0.0
C1652 C 0.25134 0.89821 0.49435 0.0
C1653 C 0.23112 0.90716 0.47408 0.0
C1654 C 0.32263 0.92921 0.46405 0.0
C1655 C 0.24041 0.88127 0.51897 0.0
C1656 C 0.33686 0.86073 0.5336 0.0
C1657 C 0.34182 0.8793 0.55617 0.0
C1658 C 0.31769 0.86903 0.51215 0.0
C1659 C 0.30306 0.89654 0.51326 0.0
C1660 C 0.30855 0.91562 0.53566 0.0
C1661 C 0.3278 0.90681 0.55674 0.0
C1662 C 0.3126 0.84808 0.48858 0.0
C1663 C 0.29354 0.94514 0.53772 0.0
H1664 H 0.27745 0.942 0.43018 0.0
H1665 H 0.20815 0.90155 0.47642 0.0
H1666 H 0.33023 0.94296 0.48147 0.0
H1667 H 0.33636 0.90905 0.46392 0.0
H1668 H 0.3264 0.94138 0.44458 0.0
H1669 H 0.21641 0.87715 0.51803 0.0
H1670 H 0.25199 0.85986 0.52038 0.0
H1671 H 0.2453 0.89357 0.53812 0.0
H1672 H 0.3475 0.83943 0.53292 0.0
H1673 H 0.33143 0.92141 0.57401 0.0
H1674 H 0.31728 0.85911 0.46872 0.0
H1675 H 0.28923 0.84134 0.48817 0.0
H1676 H 0.32651 0.82806 0.49012 0.0
H1677 H 0.298 0.95831 0.519 0.0
H1678 H 0.30083 0.95782 0.556 0.0
H1679 H 0.26943 0.94211 0.53898 0.0
C1680 C 0.65339 0.3406 0.51107 0.0
C1681 C 0.6391 0.35041 0.53496 0.0
C1682 C 0.64016 0.32037 0.49321 0.0
C1683 C 0.61194 0.30928 0.49944 0.0
C1684 C 0.59697 0.31972 0.52311 0.0
C1685 C 0.61067 0.34031 0.54053 0.0
C1686 C 0.6568 0.31025 0.46803 0.0
C1687 C 0.56694 0.30835 0.53054 0.0
C1688 C 0.57232 0.27156 0.44017 0.0
C1689 C 0.57988 0.24197 0.44438 0.0
C1690 C 0.58165 0.29359 0.45844 0.0
C1691 C 0.59888 0.28593 0.48163 0.0
C1692 C 0.60562 0.25599 0.48658 0.0
C1693 C 0.59613 0.23443 0.4679 0.0
C1694 C 0.57408 0.3252 0.45226 0.0
C1695 C 0.62379 0.24681 0.51111 0.0
H1696 H 0.67529 0.34845 0.50648 0.0
H1697 H 0.59956 0.34766 0.55901 0.0
H1698 H 0.66169 0.28644 0.46969 0.0
H1699 H 0.64322 0.31343 0.44931 0.0
H1700 H 0.67782 0.32219 0.4653 0.0
H1701 H 0.55748 0.31988 0.54864 0.0
H1702 H 0.55171 0.31089 0.51288 0.0
H1703 H 0.56836 0.28456 0.53526 0.0
H1704 H 0.55976 0.27772 0.42211 0.0
H1705 H 0.60203 0.21167 0.47145 0.0
H1706 H 0.59439 0.33739 0.44711 0.0
H1707 H 0.5643 0.33587 0.47062 0.0
H1708 H 0.55849 0.32732 0.43478 0.0
H1709 H 0.64639 0.25552 0.509 0.0
H1710 H 0.62513 0.22256 0.51329 0.0
H1711 H 0.61439 0.25615 0.53027 0.0
C1712 C 0.18312 0.65581 0.53938 0.0
C1713 C 0.15958 0.63801 0.54747 0.0
C1714 C 0.20223 0.64716 0.51816 0.0
C1715 C 0.19734 0.62034 0.50415 0.0
C1716 C 0.17306 0.6027 0.51165 0.0
C1717 C 0.1547 0.61156 0.53344 0.0
C1718 C 0.22813 0.66639 0.51122 0.0
C1719 C 0.16664 0.57432 0.49681 0.0
C1720 C 0.23511 0.61279 0.43455 0.0
C1721 C 0.2596 0.59537 0.44108 0.0
C1722 C 0.21414 0.6202 0.45462 0.0
C1723 C 0.21808 0.61059 0.4821 0.0
C1724 C 0.24261 0.59271 0.48873 0.0
C1725 C 0.26286 0.58503 0.46808 0.0
C1726 C 0.18799 0.63871 0.44651 0.0
C1727 C 0.24799 0.58247 0.51784 0.0
H1728 H 0.18724 0.67616 0.55026 0.0
H1729 H 0.13649 0.59774 0.5395 0.0
H1730 H 0.24885 0.65392 0.51424 0.0
H1731 H 0.22721 0.67299 0.48928 0.0
H1732 H 0.22892 0.68653 0.52408 0.0
H1733 H 0.14596 0.56401 0.504 0.0
H1734 H 0.16496 0.57832 0.47435 0.0
H1735 H 0.18494 0.55857 0.50004 0.0
H1736 H 0.23232 0.62066 0.41366 0.0
H1737 H 0.28183 0.57173 0.47332 0.0
H1738 H 0.18901 0.66027 0.45705 0.0
H1739 H 0.16738 0.6279 0.45313 0.0
H1740 H 0.18694 0.64256 0.42396 0.0
H1741 H 0.25091 0.60174 0.53152 0.0
H1742 H 0.26775 0.56823 0.51953 0.0
H1743 H 0.22873 0.57012 0.52552 0.0
C1744 C 0.56049 0.13007 0.29229 0.0
C1745 C 0.58023 0.13583 0.3137 0.0
C1746 C 0.57004 0.1167 0.26771 0.0
C1747 C 0.60028 0.11027 0.26397 0.0
C1748 C 0.62027 0.11633 0.28558 0.0
C1749 C 0.60989 0.12843 0.31037 0.0
C1750 C 0.54781 0.10964 0.24567 0.0
C1751 C 0.65281 0.11106 0.28218 0.0
C1752 C 0.62806 0.05761 0.20847 0.0
C1753 C 0.63456 0.07695 0.18693 0.0
C1754 C 0.61582 0.06798 0.23328 0.0
C1755 C 0.61127 0.09854 0.23708 0.0
C1756 C 0.61818 0.11812 0.21538 0.0
C1757 C 0.62913 0.10702 0.19042 0.0
C1758 C 0.60776 0.04625 0.25542 0.0
C1759 C 0.61488 0.15091 0.21882 0.0
H1760 H 0.53753 0.13573 0.2949 0.0
H1761 H 0.62524 0.13328 0.3268 0.0
H1762 H 0.55174 0.12352 0.22731 0.0
H1763 H 0.55019 0.08641 0.23912 0.0
H1764 H 0.52492 0.11333 0.25277 0.0
H1765 H 0.66548 0.1174 0.30078 0.0
H1766 H 0.65711 0.08757 0.27775 0.0
H1767 H 0.6611 0.12386 0.2644 0.0
H1768 H 0.63219 0.03434 0.20574 0.0
H1769 H 0.63455 0.12205 0.1739 0.0
H1770 H 0.58467 0.04977 0.26196 0.0
H1771 H 0.62182 0.04962 0.27377 0.0
H1772 H 0.61034 0.02316 0.24843 0.0
H1773 H 0.59168 0.15661 0.22322 0.0
H1774 H 0.62197 0.16318 0.20024 0.0
H1775 H 0.62815 0.15842 0.23662 0.0
C1776 C 0.37137 0.57415 0.29693 0.0
C1777 C 0.36651 0.59517 0.31751 0.0
C1778 C 0.38273 0.58225 0.27105 0.0
C1779 C 0.38846 0.61222 0.26531 0.0
C1780 C 0.38332 0.63352 0.28601 0.0
C1781 C 0.37286 0.6247 0.31191 0.0
C1782 C 0.38855 0.55876 0.24984 0.0
C1783 C 0.38819 0.66578 0.28061 0.0
C1784 C 0.43818 0.63568 0.20594 0.0
C1785 C 0.41772 0.64153 0.18507 0.0
C1786 C 0.42909 0.62527 0.23188 0.0
C1787 C 0.39875 0.62155 0.23739 0.0
C1788 C 0.37803 0.62771 0.2164 0.0
C1789 C 0.38779 0.63718 0.19046 0.0
C1790 C 0.45194 0.61829 0.25341 0.0
C1791 C 0.34546 0.62499 0.22152 0.0
H1792 H 0.36665 0.55129 0.30118 0.0
H1793 H 0.36885 0.64112 0.32762 0.0
H1794 H 0.3741 0.56215 0.23175 0.0
H1795 H 0.41156 0.56021 0.24249 0.0
H1796 H 0.38474 0.53634 0.25805 0.0
H1797 H 0.38284 0.6796 0.29877 0.0
H1798 H 0.41139 0.66968 0.27481 0.0
H1799 H 0.37437 0.67304 0.26306 0.0
H1800 H 0.46134 0.63887 0.20186 0.0
H1801 H 0.3718 0.64199 0.17454 0.0
H1802 H 0.44897 0.59551 0.26099 0.0
H1803 H 0.44924 0.63315 0.27131 0.0
H1804 H 0.47464 0.6206 0.2454 0.0
H1805 H 0.34002 0.60216 0.22749 0.0
H1806 H 0.3322 0.63101 0.20317 0.0
H1807 H 0.33892 0.63943 0.23887 0.0
C1808 C 0.88482 0.36284 0.31568 0.0
C1809 C 0.91466 0.3561 0.31941 0.0
C1810 C 0.87412 0.3733 0.29035 0.0
C1811 C 0.89386 0.37831 0.26836 0.0
C1812 C 0.92416 0.37238 0.27222 0.0
C1813 C 0.93412 0.36091 0.2975 0.0
C1814 C 0.84154 0.37835 0.28698 0.0
C1815 C 0.94609 0.37813 0.24961 0.0
C1816 C 0.86494 0.37773 0.19476 0.0
C1817 C 0.86059 0.40769 0.18941 0.0
C1818 C 0.87535 0.36793 0.22039 0.0
C1819 C 0.88259 0.38862 0.24104 0.0
C1820 C 0.87862 0.41899 0.23563 0.0
C1821 C 0.86718 0.42814 0.21004 0.0
C1822 C 0.87823 0.33534 0.22547 0.0
C1823 C 0.88676 0.44183 0.25676 0.0
H1824 H 0.86961 0.35937 0.33244 0.0
H1825 H 0.95725 0.35611 0.30022 0.0
H1826 H 0.83719 0.40166 0.2818 0.0
H1827 H 0.8331 0.36488 0.26969 0.0
H1828 H 0.82902 0.37272 0.30585 0.0
H1829 H 0.96906 0.37429 0.25644 0.0
H1830 H 0.94152 0.36364 0.23179 0.0
H1831 H 0.94401 0.40112 0.24232 0.0
H1832 H 0.85957 0.36178 0.17899 0.0
H1833 H 0.86402 0.45133 0.20595 0.0
H1834 H 0.86523 0.32906 0.24384 0.0
H1835 H 0.90145 0.32961 0.22978 0.0
H1836 H 0.87062 0.3221 0.20766 0.0
H1837 H 0.87331 0.43893 0.27556 0.0
H1838 H 0.88353 0.46454 0.24901 0.0
H1839 H 0.91008 0.43903 0.26286 0.0
C1840 C 0.15869 0.91732 0.29178 0.0
C1841 C 0.14055 0.92401 0.31427 0.0
C1842 C 0.147 0.90675 0.26688 0.0
C1843 C 0.11621 0.90364 0.26389 0.0
C1844 C 0.09768 0.91128 0.28626 0.0
C1845 C 0.11009 0.92083 0.31132 0.0
C1846 C 0.16773 0.89802 0.24404 0.0
C1847 C 0.06475 0.90919 0.28377 0.0
C1848 C 0.08857 0.89719 0.1897 0.0
C1849 C 0.08361 0.86692 0.18728 0.0
C1850 C 0.098 0.90962 0.21478 0.0
C1851 C 0.10369 0.89124 0.23776 0.0
C1852 C 0.09869 0.86065 0.23535 0.0
C1853 C 0.08829 0.84899 0.21036 0.0
C1854 C 0.10213 0.9424 0.21662 0.0
C1855 C 0.10532 0.84003 0.25887 0.0
H1856 H 0.18228 0.91934 0.29397 0.0
H1857 H 0.09592 0.92605 0.32856 0.0
H1858 H 0.16468 0.87448 0.23896 0.0
H1859 H 0.16279 0.91077 0.22517 0.0
H1860 H 0.19109 0.90158 0.24964 0.0
H1861 H 0.05331 0.91812 0.30215 0.0
H1862 H 0.05712 0.92135 0.2653 0.0
H1863 H 0.05822 0.88594 0.28107 0.0
H1864 H 0.08489 0.9112 0.17201 0.0
H1865 H 0.08487 0.82553 0.2086 0.0
H1866 H 0.12569 0.9475 0.21966 0.0
H1867 H 0.09007 0.95126 0.23465 0.0
H1868 H 0.09436 0.9539 0.19781 0.0
H1869 H 0.1289 0.84153 0.26443 0.0
H1870 H 0.10022 0.81684 0.25376 0.0
H1871 H 0.0925 0.84642 0.27732 0.0
C1872 C 0.39411 0.87035 0.69221 0.0
C1873 C 0.42404 0.86795 0.68579 0.0
C1874 C 0.38467 0.88176 0.71761 0.0
C1875 C 0.40559 0.89236 0.73674 0.0
C1876 C 0.4359 0.89044 0.73016 0.0
C1877 C 0.44479 0.87768 0.70502 0.0
C1878 C 0.35224 0.88216 0.72402 0.0
C1879 C 0.45891 0.90235 0.74947 0.0
C1880 C 0.37484 0.94616 0.78997 0.0
C1881 C 0.37288 0.9285 0.8135 0.0
C1882 C 0.38669 0.93508 0.76524 0.0
C1883 C 0.39559 0.90524 0.7636 0.0
C1884 C 0.39347 0.88733 0.78736 0.0
C1885 C 0.38273 0.89933 0.8121 0.0
C1886 C 0.38942 0.95526 0.74077 0.0
C1887 C 0.40144 0.85515 0.7864 0.0
H1888 H 0.37797 0.86275 0.67749 0.0
H1889 H 0.46793 0.8761 0.70005 0.0
H1890 H 0.34811 0.87101 0.74394 0.0
H1891 H 0.34445 0.90513 0.72611 0.0
H1892 H 0.33902 0.87118 0.70782 0.0
H1893 H 0.48143 0.90026 0.74092 0.0
H1894 H 0.4544 0.92585 0.75381 0.0
H1895 H 0.45807 0.89053 0.76939 0.0
H1896 H 0.3673 0.96873 0.79098 0.0
H1897 H 0.38085 0.88546 0.83013 0.0
H1898 H 0.37415 0.94819 0.7243 0.0
H1899 H 0.41198 0.9541 0.73223 0.0
H1900 H 0.38436 0.97844 0.74611 0.0
H1901 H 0.3875 0.84382 0.771 0.0
H1902 H 0.39854 0.8442 0.80663 0.0
H1903 H 0.42457 0.85235 0.7798 0.0
C1904 C 0.59408 0.34674 0.79177 0.0
C1905 C 0.58886 0.36469 0.81471 0.0
C1906 C 0.60355 0.35865 0.76665 0.0
C1907 C 0.607 0.38941 0.76405 0.0
C1908 C 0.60076 0.40775 0.78691 0.0
C1909 C 0.59228 0.39513 0.81212 0.0
C1910 C 0.61088 0.33817 0.74318 0.0
C1911 C 0.60333 0.44069 0.7848 0.0
C1912 C 0.66066 0.41745 0.71025 0.0
C1913 C 0.64219 0.42337 0.68781 0.0
C1914 C 0.64947 0.40643 0.73508 0.0
C1915 C 0.61886 0.40208 0.73797 0.0
C1916 C 0.59997 0.40879 0.71561 0.0
C1917 C 0.61192 0.41886 0.6906 0.0
C1918 C 0.67056 0.39868 0.75796 0.0
C1919 C 0.56716 0.40528 0.7181 0.0
H1920 H 0.59175 0.32316 0.79374 0.0
H1921 H 0.58806 0.4091 0.82974 0.0
H1922 H 0.59774 0.34393 0.72475 0.0
H1923 H 0.63435 0.34057 0.73755 0.0
H1924 H 0.60674 0.31481 0.74842 0.0
H1925 H 0.59517 0.45199 0.80356 0.0
H1926 H 0.6266 0.44686 0.78158 0.0
H1927 H 0.59074 0.44881 0.76677 0.0
H1928 H 0.68413 0.42055 0.7081 0.0
H1929 H 0.59757 0.42354 0.67335 0.0
H1930 H 0.66839 0.37509 0.76325 0.0
H1931 H 0.66519 0.41144 0.77673 0.0
H1932 H 0.69376 0.40305 0.75232 0.0
H1933 H 0.56166 0.38182 0.72116 0.0
H1934 H 0.55534 0.41338 0.69959 0.0
H1935 H 0.55901 0.41742 0.73638 0.0
C1936 C 0.14394 0.57493 0.79576 0.0
C1937 C 0.15141 0.59576 0.81581 0.0
C1938 C 0.13174 0.58361 0.7703 0.0
C1939 C 0.1278 0.61388 0.76436 0.0
C1940 C 0.13585 0.63495 0.7844 0.0
C1941 C 0.14705 0.62564 0.80993 0.0
C1942 C 0.12281 0.56038 0.74985 0.0
C1943 C 0.13301 0.66744 0.77878 0.0
C1944 C 0.12294 0.63845 0.68934 0.0
C1945 C 0.09302 0.64526 0.68651 0.0
C1946 C 0.13452 0.62827 0.71446 0.0
C1947 C 0.11559 0.6237 0.73718 0.0
C1948 C 0.08518 0.62975 0.73419 0.0
C1949 C 0.07436 0.64092 0.70908 0.0
C1950 C 0.16719 0.62318 0.71687 0.0
C1951 C 0.06406 0.62455 0.75758 0.0
H1952 H 0.14709 0.55182 0.80017 0.0
H1953 H 0.15299 0.64194 0.82517 0.0
H1954 H 0.09931 0.56316 0.74439 0.0
H1955 H 0.13565 0.56283 0.73062 0.0
H1956 H 0.12621 0.53781 0.75793 0.0
H1957 H 0.14139 0.68102 0.79605 0.0
H1958 H 0.14533 0.67323 0.75986 0.0
H1959 H 0.10967 0.67324 0.77514 0.0
H1960 H 0.13756 0.64185 0.67207 0.0
H1961 H 0.05119 0.64593 0.707 0.0
H1962 H 0.17166 0.60003 0.72257 0.0
H1963 H 0.17631 0.63718 0.73346 0.0
H1964 H 0.17898 0.62817 0.69743 0.0
H1965 H 0.06637 0.60172 0.76526 0.0
H1966 H 0.04087 0.62829 0.7514 0.0
H1967 H 0.06929 0.63943 0.77495 0.0
C1968 C 0.91472 0.11136 0.80931 0.0
C1969 C 0.91689 0.1417 0.81355 0.0
C1970 C 0.90551 0.1 0.78377 0.0
C1971 C 0.89702 0.11948 0.76241 0.0
C1972 C 0.89878 0.15017 0.76686 0.0
C1973 C 0.90925 0.16086 0.79214 0.0
C1974 C 0.90503 0.06718 0.77958 0.0
C1975 C 0.88896 0.17176 0.74512 0.0
C1976 C 0.89394 0.0966 0.68697 0.0
C1977 C 0.86417 0.08984 0.68365 0.0
C1978 C 0.90519 0.10497 0.71277 0.0
C1979 C 0.88594 0.10794 0.73552 0.0
C1980 C 0.85579 0.10117 0.73218 0.0
C1981 C 0.84541 0.09164 0.70642 0.0
C1982 C 0.93762 0.11091 0.7156 0.0
C1983 C 0.83427 0.10508 0.75551 0.0
H1984 H 0.92075 0.09652 0.82581 0.0
H1985 H 0.91055 0.18435 0.79552 0.0
H1986 H 0.88224 0.05974 0.77583 0.0
H1987 H 0.91812 0.06125 0.76114 0.0
H1988 H 0.91394 0.05509 0.7976 0.0
H1989 H 0.89062 0.19488 0.75221 0.0
H1990 H 0.90251 0.16915 0.72633 0.0
H1991 H 0.86586 0.16733 0.73925 0.0
H1992 H 0.9085 0.09508 0.66938 0.0
H1993 H 0.8223 0.08676 0.7038 0.0
H1994 H 0.94675 0.09842 0.73326 0.0
H1995 H 0.94123 0.13453 0.71984 0.0
H1996 H 0.95002 0.10487 0.69675 0.0
H1997 H 0.84105 0.09164 0.77344 0.0
H1998 H 0.81159 0.09883 0.74959 0.0
H1999 H 0.83414 0.12836 0.76226 0.0
C2000 C 0.80961 0.27211 0.12038 0.0
C2001 C 0.80423 0.29431 0.13972 0.0
C2002 C 0.7955 0.24488 0.12221 0.0
C2003 C 0.77606 0.23944 0.14434 0.0
C2004 C 0.77265 0.26086 0.16528 0.0
C2005 C 0.78647 0.28828 0.16252 0.0
C2006 C 0.7994 0.22304 0.09909 0.0
C2007 C 0.75289 0.25555 0.18966 0.0
C2008 C 0.71007 0.193 0.12617 0.0
C2009 C 0.71886 0.16495 0.13472 0.0
C2010 C 0.72831 0.21736 0.12968 0.0
C2011 C 0.75581 0.21385 0.14288 0.0
C2012 C 0.76432 0.18576 0.1527 0.0
C2013 C 0.7459 0.16144 0.14807 0.0
C2014 C 0.71858 0.24666 0.11819 0.0
C2015 C 0.79305 0.18134 0.16759 0.0
H2016 H 0.8234 0.27667 0.10272 0.0
H2017 H 0.7825 0.30533 0.17765 0.0
H2018 H 0.80381 0.20078 0.10733 0.0
H2019 H 0.77882 0.22185 0.0869 0.0
H2020 H 0.8176 0.22917 0.08503 0.0
H2021 H 0.757 0.27153 0.20649 0.0
H2022 H 0.72964 0.25771 0.18318 0.0
H2023 H 0.75601 0.23299 0.19777 0.0
H2024 H 0.68924 0.19579 0.11567 0.0
H2025 H 0.75267 0.13976 0.15477 0.0
H2026 H 0.73456 0.25427 0.10254 0.0
H2027 H 0.71795 0.26337 0.13477 0.0
H2028 H 0.69653 0.24562 0.10848 0.0
H2029 H 0.81153 0.18407 0.153 0.0
H2030 H 0.7947 0.15919 0.17702 0.0
H2031 H 0.79567 0.19813 0.18395 0.0
C2032 C 0.284 0.70078 0.11535 0.0
C2033 C 0.30584 0.70403 0.13541 0.0
C2034 C 0.25689 0.71517 0.11782 0.0
C2035 C 0.25117 0.73264 0.14133 0.0
C2036 C 0.27228 0.734 0.16274 0.0
C2037 C 0.29963 0.72001 0.15934 0.0
C2038 C 0.23537 0.71355 0.0942 0.0
C2039 C 0.26662 0.75155 0.18853 0.0
C2040 C 0.20345 0.79912 0.12717 0.0
C2041 C 0.17545 0.78892 0.13411 0.0
C2042 C 0.22831 0.78128 0.13025 0.0
C2043 C 0.22528 0.75271 0.14133 0.0
C2044 C 0.19723 0.74286 0.14987 0.0
C2045 C 0.17247 0.76095 0.14572 0.0
C2046 C 0.2576 0.7925 0.12022 0.0
C2047 C 0.19326 0.71294 0.16258 0.0
H2048 H 0.28871 0.68838 0.09682 0.0
H2049 H 0.31642 0.72232 0.17499 0.0
H2050 H 0.21318 0.70779 0.10177 0.0
H2051 H 0.23371 0.73537 0.08416 0.0
H2052 H 0.24207 0.69717 0.07846 0.0
H2053 H 0.28248 0.74599 0.20511 0.0
H2054 H 0.26861 0.7753 0.1839 0.0
H2055 H 0.24401 0.74771 0.19618 0.0
H2056 H 0.20584 0.82071 0.11808 0.0
H2057 H 0.15082 0.7531 0.15122 0.0
H2058 H 0.26572 0.77837 0.10323 0.0
H2059 H 0.27406 0.7915 0.13699 0.0
H2060 H 0.25629 0.81547 0.11263 0.0
H2061 H 0.19596 0.69579 0.14657 0.0
H2062 H 0.17121 0.71042 0.17201 0.0
H2063 H 0.21023 0.70894 0.17855 0.0
C2064 C 0.31372 0.73251 0.37887 0.0
C2065 C 0.30706 0.70921 0.36114 0.0
C2066 C 0.2988 0.75938 0.37689 0.0
C2067 C 0.2772 0.76322 0.35624 0.0
C2068 C 0.27262 0.74078 0.33652 0.0
C2069 C 0.28734 0.71378 0.33944 0.0
C2070 C 0.30412 0.78245 0.39864 0.0
C2071 C 0.25053 0.74441 0.31363 0.0
C2072 C 0.21155 0.80811 0.37892 0.0
C2073 C 0.21829 0.83604 0.36876 0.0
C2074 C 0.23025 0.78419 0.37435 0.0
C2075 C 0.25606 0.78808 0.35856 0.0
C2076 C 0.26231 0.81596 0.34707 0.0
C2077 C 0.2435 0.83984 0.35267 0.0
C2078 C 0.22295 0.75504 0.38748 0.0
C2079 C 0.28914 0.82072 0.32948 0.0
H2080 H 0.32907 0.72908 0.39562 0.0
H2081 H 0.28239 0.69586 0.32553 0.0
H2082 H 0.30668 0.80441 0.38915 0.0
H2083 H 0.28487 0.78355 0.4126 0.0
H2084 H 0.32394 0.7776 0.41118 0.0
H2085 H 0.25392 0.72798 0.29704 0.0
H2086 H 0.22806 0.74156 0.32198 0.0
H2087 H 0.2518 0.76675 0.30464 0.0
H2088 H 0.19209 0.80512 0.39142 0.0
H2089 H 0.24862 0.86143 0.34469 0.0
H2090 H 0.24068 0.74857 0.40195 0.0
H2091 H 0.22147 0.7377 0.37154 0.0
H2092 H 0.20189 0.75569 0.39897 0.0
H2093 H 0.30911 0.81977 0.34251 0.0
H2094 H 0.28858 0.84231 0.31887 0.0
H2095 H 0.29111 0.80309 0.31383 0.0
C2096 C 0.79475 0.26303 0.38543 0.0
C2097 C 0.80763 0.28401 0.36825 0.0
C2098 C 0.76618 0.25302 0.38069 0.0
C2099 C 0.75015 0.26389 0.35786 0.0
C2100 C 0.76321 0.28477 0.3401 0.0
C2101 C 0.79183 0.2948 0.34564 0.0
C2102 C 0.7531 0.23093 0.40033 0.0
C2103 C 0.74697 0.29646 0.31534 0.0
C2104 C 0.68938 0.21073 0.34136 0.0
C2105 C 0.66608 0.22277 0.35641 0.0
C2106 C 0.71618 0.22558 0.33907 0.0
C2107 C 0.71993 0.25268 0.35287 0.0
C2108 C 0.6956 0.26603 0.36616 0.0
C2109 C 0.66875 0.25099 0.3675 0.0
C2110 C 0.74126 0.21088 0.32412 0.0
C2111 C 0.69869 0.29469 0.38145 0.0
H2112 H 0.80685 0.25475 0.40302 0.0
H2113 H 0.80179 0.31109 0.33238 0.0
H2114 H 0.73235 0.23965 0.40912 0.0
H2115 H 0.74771 0.21041 0.38917 0.0
H2116 H 0.76819 0.2254 0.41754 0.0
H2117 H 0.76038 0.31219 0.30329 0.0
H2118 H 0.74047 0.27805 0.30172 0.0
H2119 H 0.7265 0.30764 0.32198 0.0
H2120 H 0.6872 0.18892 0.33267 0.0
H2121 H 0.65076 0.26019 0.37932 0.0
H2122 H 0.75662 0.20116 0.33934 0.0
H2123 H 0.75374 0.22705 0.31175 0.0
H2124 H 0.73347 0.19309 0.31031 0.0
H2125 H 0.71087 0.29079 0.4009 0.0
H2126 H 0.67701 0.30446 0.38663 0.0
H2127 H 0.71142 0.31074 0.3692 0.0
C2128 C 0.30739 0.81517 0.84918 0.0
C2129 C 0.29345 0.84183 0.85529 0.0
C2130 C 0.29123 0.78927 0.8462 0.0
C2131 C 0.26034 0.79014 0.84922 0.0
C2132 C 0.24594 0.81756 0.85241 0.0
C2133 C 0.26274 0.84319 0.85559 0.0
C2134 C 0.30757 0.76059 0.84283 0.0
C2135 C 0.213 0.81952 0.855 0.0
C2136 C 0.22149 0.71682 0.83957 0.0
C2137 C 0.22048 0.70675 0.8668 0.0
C2138 C 0.2331 0.74469 0.83339 0.0
C2139 C 0.24439 0.76235 0.85494 0.0
C2140 C 0.24265 0.7524 0.88249 0.0
C2141 C 0.23053 0.72489 0.88804 0.0
C2142 C 0.23398 0.75482 0.80385 0.0
C2143 C 0.25465 0.7703 0.90615 0.0
H2144 H 0.33117 0.81414 0.84859 0.0
H2145 H 0.25188 0.86385 0.86007 0.0
H2146 H 0.30719 0.74841 0.8626 0.0
H2147 H 0.29686 0.74662 0.82711 0.0
H2148 H 0.33083 0.76401 0.83682 0.0
H2149 H 0.2049 0.8422 0.85127 0.0
H2150 H 0.20212 0.80439 0.84033 0.0
H2151 H 0.20642 0.81294 0.87608 0.0
H2152 H 0.21349 0.70287 0.82315 0.0
H2153 H 0.22967 0.71723 0.90914 0.0
H2154 H 0.25682 0.75346 0.79606 0.0
H2155 H 0.22688 0.77808 0.80221 0.0
H2156 H 0.21982 0.74118 0.79037 0.0
H2157 H 0.27859 0.77363 0.9034 0.0
H2158 H 0.25102 0.75959 0.92639 0.0
H2159 H 0.24414 0.79228 0.90658 0.0
C2160 C 0.79337 0.20068 0.8911 0.0
C2161 C 0.81891 0.21214 0.87917 0.0
C2162 C 0.76684 0.21645 0.89091 0.0
C2163 C 0.76545 0.24412 0.8777 0.0
C2164 C 0.79095 0.25537 0.8647 0.0
C2165 C 0.81755 0.23945 0.86598 0.0
C2166 C 0.74062 0.20398 0.90585 0.0
C2167 C 0.79025 0.28444 0.84988 0.0
C2168 C 0.68804 0.27334 0.86355 0.0
C2169 C 0.68429 0.2932 0.88529 0.0
C2170 C 0.71475 0.25797 0.86017 0.0
C2171 C 0.73787 0.26201 0.87938 0.0
C2172 C 0.73401 0.28204 0.90137 0.0
C2173 C 0.70748 0.29759 0.90382 0.0
C2174 C 0.7182 0.2373 0.83613 0.0
C2175 C 0.75762 0.28652 0.92282 0.0
H2176 H 0.79435 0.17969 0.90158 0.0
H2177 H 0.83723 0.24835 0.85672 0.0
H2178 H 0.73413 0.21892 0.92285 0.0
H2179 H 0.72161 0.20232 0.8917 0.0
H2180 H 0.74514 0.18191 0.91463 0.0
H2181 H 0.81093 0.28872 0.83849 0.0
H2182 H 0.77163 0.28508 0.83517 0.0
H2183 H 0.78679 0.30245 0.8649 0.0
H2184 H 0.67025 0.27004 0.84909 0.0
H2185 H 0.70467 0.31286 0.92074 0.0
H2186 H 0.72068 0.21446 0.84368 0.0
H2187 H 0.7384 0.24272 0.82445 0.0
H2188 H 0.69912 0.23822 0.82191 0.0
H2189 H 0.76231 0.26545 0.93342 0.0
H2190 H 0.75127 0.30309 0.93851 0.0
H2191 H 0.77829 0.29371 0.91291 0.0
C2192 C 0.74902 0.33908 0.64429 0.0
C2193 C 0.72248 0.33598 0.63003 0.0
C2194 C 0.76758 0.3147 0.64861 0.0
C2195 C 0.75973 0.28697 0.63762 0.0
C2196 C 0.73286 0.28391 0.62327 0.0
C2197 C 0.71444 0.30832 0.62002 0.0
C2198 C 0.79567 0.31863 0.66462 0.0
C2199 C 0.7239 0.25501 0.61055 0.0
C2200 C 0.81509 0.22871 0.61739 0.0
C2201 C 0.80874 0.20641 0.63633 0.0
C2202 C 0.80059 0.2559 0.61857 0.0
C2203 C 0.77984 0.26119 0.6397 0.0
C2204 C 0.77533 0.23965 0.6603 0.0
C2205 C 0.78951 0.21227 0.65812 0.0
C2206 C 0.80559 0.27786 0.59577 0.0
C2207 C 0.75406 0.24476 0.6836 0.0
H2208 H 0.75521 0.36048 0.65206 0.0
H2209 H 0.69403 0.3059 0.60877 0.0
H2210 H 0.79713 0.302 0.68124 0.0
H2211 H 0.81479 0.31516 0.65087 0.0
H2212 H 0.79732 0.34085 0.67388 0.0
H2213 H 0.70244 0.25645 0.59977 0.0
H2214 H 0.74078 0.24774 0.59555 0.0
H2215 H 0.72236 0.23785 0.62665 0.0
H2216 H 0.8299 0.22423 0.60043 0.0
H2217 H 0.78471 0.19511 0.67288 0.0
H2218 H 0.8094 0.30008 0.60432 0.0
H2219 H 0.78568 0.27915 0.58264 0.0
H2220 H 0.82454 0.27178 0.58255 0.0
H2221 H 0.75679 0.26713 0.69225 0.0
H2222 H 0.75696 0.22843 0.70036 0.0
H2223 H 0.73125 0.24308 0.67577 0.0
C2224 C 0.19512 0.72978 0.68677 0.0
C2225 C 0.1964 0.70864 0.66585 0.0
C2226 C 0.22012 0.74621 0.69376 0.0
C2227 C 0.24639 0.74202 0.67868 0.0
C2228 C 0.24841 0.71859 0.65959 0.0
C2229 C 0.22345 0.70189 0.65374 0.0
C2230 C 0.21765 0.76958 0.71561 0.0
C2231 C 0.27595 0.71319 0.643 0.0
C2232 C 0.29072 0.8057 0.65257 0.0
C2233 C 0.31817 0.79982 0.6643 0.0
C2234 C 0.26634 0.7884 0.65891 0.0
C2235 C 0.26933 0.76517 0.67811 0.0
C2236 C 0.29612 0.76153 0.69254 0.0
C2237 C 0.32051 0.77864 0.6851 0.0
C2238 C 0.23825 0.79317 0.64293 0.0
C2239 C 0.29974 0.73823 0.71432 0.0
H2240 H 0.17429 0.73463 0.69658 0.0
H2241 H 0.22459 0.68525 0.63783 0.0
H2242 H 0.23866 0.77218 0.72692 0.0
H2243 H 0.21222 0.79091 0.70583 0.0
H2244 H 0.19999 0.76436 0.73057 0.0
H2245 H 0.27464 0.69276 0.6306 0.0
H2246 H 0.2796 0.73191 0.6288 0.0
H2247 H 0.29533 0.71162 0.65671 0.0
H2248 H 0.28877 0.82235 0.63673 0.0
H2249 H 0.34166 0.77439 0.69455 0.0
H2250 H 0.21933 0.79509 0.65714 0.0
H2251 H 0.23421 0.77402 0.62934 0.0
H2252 H 0.23904 0.81323 0.62997 0.0
H2253 H 0.27898 0.73464 0.72575 0.0
H2254 H 0.31728 0.74421 0.72916 0.0
H2255 H 0.30611 0.7172 0.70445 0.0
loop_
_geom_bond_atom_site_label_1
_geom_bond_atom_site_label_2
_geom_bond_distance
_geom_bond_site_symmetry_2
_ccdc_geom_bond_type
O0 Tb1 2.292 . S
O0 C3 1.255 . S
Tb1 O0 2.292 . S
Tb1 O17 2.326 . S
Tb1 O19 2.500 . S
Tb1 O20 2.473 . S
Tb1 O23 2.324 . S
Eu2 O6 2.292 . S
Eu2 C7 2.852 . S
Eu2 O18 2.324 . S
Eu2 O22 2.326 . S
Eu2 O24 2.500 . S
Eu2 O25 2.473 . S
C3 O0 1.255 . S
C3 O4 1.247 . S
O4 C3 1.247 . S
C5 O17 1.242 . S
C5 O18 1.258 . S
O6 Eu2 2.292 . S
O6 C8 1.255 . S
C7 Eu2 2.852 . S
C7 C11 1.503 . S
C7 O24 1.273 . S
C7 O25 1.257 . S
C8 O6 1.255 . S
C8 O9 1.247 . S
O9 C8 1.247 . S
C10 O22 1.242 . S
C10 O23 1.258 . S
C11 C7 1.503 . S
C11 C12 1.379 . S
C11 C16 1.392 1_545 S
C12 C11 1.379 . S
C12 C13 1.404 . S
C12 H26 0.929 . S
C13 C12 1.404 . S
C13 C14 1.389 1_545 S
C14 C13 1.389 1_565 S
C14 C15 1.399 . S
C14 H27 0.931 . S
C15 C14 1.399 . S
C15 C16 1.390 . S
C16 C11 1.392 1_565 S
C16 C15 1.390 . S
C16 H28 0.929 . S
O17 Tb1 2.326 . S
O17 C5 1.242 . S
O18 Eu2 2.324 . S
O18 C5 1.258 . S
O19 Tb1 2.500 . S
O19 C21 1.273 . S
O20 Tb1 2.473 . S
O20 C21 1.257 . S
C21 O19 1.273 . S
C21 O20 1.257 . S
O22 Eu2 2.326 . S
O22 C10 1.242 . S
O23 Tb1 2.324 . S
O23 C10 1.258 . S
O24 Eu2 2.500 . S
O24 C7 1.273 . S
O25 Eu2 2.473 . S
O25 C7 1.257 . S
H26 C12 0.929 . S
H27 C14 0.931 . S
H28 C16 0.929 . S
O29 Tb30 2.292 . S
O29 C32 1.255 . S
Tb30 O29 2.292 . S
Tb30 O46 2.326 . S
Tb30 O48 2.500 . S
Tb30 O49 2.473 . S
Tb30 O52 2.324 . S
Eu31 O35 2.292 . S
Eu31 C36 2.852 . S
Eu31 O47 2.324 . S
Eu31 O51 2.326 . S
Eu31 O53 2.500 . S
Eu31 O54 2.473 . S
C32 O29 1.255 . S
C32 O33 1.247 . S
O33 C32 1.247 . S
C34 O46 1.242 . S
C34 O47 1.258 . S
O35 Eu31 2.292 . S
O35 C37 1.255 . S
C36 Eu31 2.852 . S
C36 C40 1.503 . S
C36 O53 1.273 . S
C36 O54 1.257 . S
C37 O35 1.255 . S
C37 O38 1.247 . S
O38 C37 1.247 . S
C39 O51 1.242 . S
C39 O52 1.258 . S
C40 C36 1.503 . S
C40 C41 1.379 . S
C40 C45 1.392 . S
C41 C40 1.379 . S
C41 C42 1.404 . S
C41 H55 0.929 . S
C42 C41 1.404 . S
C42 C43 1.389 . S
C43 C42 1.389 . S
C43 C44 1.399 . S
C43 H56 0.931 . S
C44 C43 1.399 . S
C44 C45 1.390 . S
C45 C40 1.392 . S
C45 C44 1.390 . S
C45 H57 0.929 . S
O46 Tb30 2.326 . S
O46 C34 1.242 . S
O47 Eu31 2.324 . S
O47 C34 1.258 . S
O48 Tb30 2.500 . S
O48 C50 1.273 . S
O49 Tb30 2.473 . S
O49 C50 1.257 . S
C50 O48 1.273 . S
C50 O49 1.257 . S
O51 Eu31 2.326 . S
O51 C39 1.242 . S
O52 Tb30 2.324 . S
O52 C39 1.258 . S
O53 Eu31 2.500 . S
O53 C36 1.273 . S
O54 Eu31 2.473 . S
O54 C36 1.257 . S
H55 C41 0.929 . S
H56 C43 0.931 . S
H57 C45 0.929 . S
O58 Tb59 2.292 . S
O58 C61 1.255 . S
Tb59 O58 2.292 . S
Tb59 O75 2.326 . S
Tb59 O77 2.500 . S
Tb59 O78 2.473 . S
Tb59 O81 2.324 . S
Eu60 O64 2.292 . S
Eu60 C65 2.852 . S
Eu60 O76 2.324 . S
Eu60 O80 2.326 . S
Eu60 O82 2.500 . S
Eu60 O83 2.473 . S
C61 O58 1.255 . S
C61 O62 1.247 . S
O62 C61 1.247 . S
C63 O75 1.242 . S
C63 O76 1.258 . S
O64 Eu60 2.292 . S
O64 C66 1.255 . S
C65 Eu60 2.852 . S
C65 C69 1.503 . S
C65 O82 1.273 . S
C65 O83 1.257 . S
C66 O64 1.255 . S
C66 O67 1.247 . S
O67 C66 1.247 . S
C68 O80 1.242 . S
C68 O81 1.258 . S
C69 C65 1.503 . S
C69 C70 1.379 . S
C69 C74 1.392 . S
C70 C69 1.379 . S
C70 C71 1.404 . S
C70 H84 0.929 . S
C71 C70 1.404 . S
C71 C72 1.389 . S
C72 C71 1.389 . S
C72 C73 1.399 . S
C72 H85 0.931 . S
C73 C72 1.399 . S
C73 C74 1.390 . S
C74 C69 1.392 . S
C74 C73 1.390 . S
C74 H86 0.929 . S
O75 Tb59 2.326 . S
O75 C63 1.242 . S
O76 Eu60 2.324 . S
O76 C63 1.258 . S
O77 Tb59 2.500 . S
O77 C79 1.273 . S
O78 Tb59 2.473 . S
O78 C79 1.257 . S
C79 O77 1.273 . S
C79 O78 1.257 . S
O80 Eu60 2.326 . S
O80 C68 1.242 . S
O81 Tb59 2.324 . S
O81 C68 1.258 . S
O82 Eu60 2.500 . S
O82 C65 1.273 . S
O83 Eu60 2.473 . S
O83 C65 1.257 . S
H84 C70 0.929 . S
H85 C72 0.931 . S
H86 C74 0.929 . S
O87 Tb88 2.292 . S
O87 C90 1.255 . S
Tb88 O87 2.292 . S
Tb88 O104 2.326 . S
Tb88 O106 2.500 . S
Tb88 O107 2.473 . S
Tb88 O110 2.324 . S
Eu89 O93 2.292 . S
Eu89 C94 2.852 . S
Eu89 O105 2.324 . S
Eu89 O109 2.326 . S
Eu89 O111 2.500 . S
Eu89 O112 2.473 . S
C90 O87 1.255 . S
C90 O91 1.247 . S
O91 C90 1.247 . S
C92 O104 1.242 . S
C92 O105 1.258 . S
O93 Eu89 2.292 . S
O93 C95 1.255 . S
C94 Eu89 2.852 . S
C94 C98 1.503 . S
C94 O111 1.273 . S
C94 O112 1.257 . S
C95 O93 1.255 . S
C95 O96 1.247 . S
O96 C95 1.247 . S
C97 O109 1.242 . S
C97 O110 1.258 . S
C98 C94 1.503 . S
C98 C99 1.379 . S
C98 C103 1.392 1_455 S
C99 C98 1.379 . S
C99 C100 1.404 . S
C99 H113 0.929 . S
C100 C99 1.404 . S
C100 C101 1.389 1_455 S
C101 C100 1.389 1_655 S
C101 C102 1.399 . S
C101 H114 0.931 . S
C102 C101 1.399 . S
C102 C103 1.390 . S
C103 C98 1.392 1_655 S
C103 C102 1.390 . S
C103 H115 0.929 . S
O104 Tb88 2.326 . S
O104 C92 1.242 . S
O105 Eu89 2.324 . S
O105 C92 1.258 . S
O106 Tb88 2.500 . S
O106 C108 1.273 . S
O107 Tb88 2.473 . S
O107 C108 1.257 . S
C108 O106 1.273 . S
C108 O107 1.257 . S
O109 Eu89 2.326 . S
O109 C97 1.242 . S
O110 Tb88 2.324 . S
O110 C97 1.258 . S
O111 Eu89 2.500 . S
O111 C94 1.273 . S
O112 Eu89 2.473 . S
O112 C94 1.257 . S
H113 C99 0.929 . S
H114 C101 0.931 . S
H115 C103 0.929 . S
O116 Tb117 2.292 . S
O116 C119 1.255 . S
Tb117 O116 2.292 . S
Tb117 O133 2.326 . S
Tb117 O135 2.500 . S
Tb117 O136 2.473 . S
Tb117 O139 2.324 . S
Eu118 O122 2.292 . S
Eu118 C123 2.852 . S
Eu118 O134 2.324 . S
Eu118 O138 2.326 . S
Eu118 O140 2.500 . S
Eu118 O141 2.473 . S
C119 O116 1.255 . S
C119 O120 1.247 . S
O120 C119 1.247 . S
C121 O133 1.242 . S
C121 O134 1.258 . S
O122 Eu118 2.292 . S
O122 C124 1.255 . S
C123 Eu118 2.852 . S
C123 C127 1.503 . S
C123 O140 1.273 . S
C123 O141 1.257 . S
C124 O122 1.255 . S
C124 O125 1.247 . S
O125 C124 1.247 . S
C126 O138 1.242 . S
C126 O139 1.258 . S
C127 C123 1.503 . S
C127 C128 1.379 . S
C127 C132 1.392 1_565 S
C128 C127 1.379 . S
C128 C129 1.404 . S
C128 H142 0.929 . S
C129 C128 1.404 . S
C129 C130 1.389 1_565 S
C130 C129 1.389 1_545 S
C130 C131 1.399 . S
C130 H143 0.931 . S
C131 C130 1.399 . S
C131 C132 1.390 . S
C132 C127 1.392 1_545 S
C132 C131 1.390 . S
C132 H144 0.929 . S
O133 Tb117 2.326 . S
O133 C121 1.242 . S
O134 Eu118 2.324 . S
O134 C121 1.258 . S
O135 Tb117 2.500 . S
O135 C137 1.273 . S
O136 Tb117 2.473 . S
O136 C137 1.257 . S
C137 O135 1.273 . S
C137 O136 1.257 . S
O138 Eu118 2.326 . S
O138 C126 1.242 . S
O139 Tb117 2.324 . S
O139 C126 1.258 . S
O140 Eu118 2.500 . S
O140 C123 1.273 . S
O141 Eu118 2.473 . S
O141 C123 1.257 . S
H142 C128 0.929 . S
H143 C130 0.931 . S
H144 C132 0.929 . S
O145 Tb146 2.292 . S
O145 C148 1.255 . S
Tb146 O145 2.292 . S
Tb146 O162 2.326 . S
Tb146 O164 2.500 . S
Tb146 O165 2.473 . S
Tb146 O168 2.324 . S
Eu147 O151 2.292 . S
Eu147 C152 2.852 . S
Eu147 O163 2.324 . S
Eu147 O167 2.326 . S
Eu147 O169 2.500 . S
Eu147 O170 2.473 . S
C148 O145 1.255 . S
C148 O149 1.247 . S
O149 C148 1.247 . S
C150 O162 1.242 . S
C150 O163 1.258 . S
O151 Eu147 2.292 . S
O151 C153 1.255 . S
C152 Eu147 2.852 . S
C152 C156 1.503 . S
C152 O169 1.273 . S
C152 O170 1.257 . S
C153 O151 1.255 . S
C153 O154 1.247 . S
O154 C153 1.247 . S
C155 O167 1.242 . S
C155 O168 1.258 . S
C156 C152 1.503 . S
C156 C157 1.379 . S
C156 C161 1.392 . S
C157 C156 1.379 . S
C157 C158 1.404 . S
C157 H171 0.929 . S
C158 C157 1.404 . S
C158 C159 1.389 . S
C159 C158 1.389 . S
C159 C160 1.399 . S
C159 H172 0.931 . S
C160 C159 1.399 . S
C160 C161 1.390 . S
C161 C156 1.392 . S
C161 C160 1.390 . S
C161 H173 0.929 . S
O162 Tb146 2.326 . S
O162 C150 1.242 . S
O163 Eu147 2.324 . S
O163 C150 1.258 . S
O164 Tb146 2.500 . S
O164 C166 1.273 . S
O165 Tb146 2.473 . S
O165 C166 1.257 . S
C166 O164 1.273 . S
C166 O165 1.257 . S
O167 Eu147 2.326 . S
O167 C155 1.242 . S
O168 Tb146 2.324 . S
O168 C155 1.258 . S
O169 Eu147 2.500 . S
O169 C152 1.273 . S
O170 Eu147 2.473 . S
O170 C152 1.257 . S
H171 C157 0.929 . S
H172 C159 0.931 . S
H173 C161 0.929 . S
O174 Tb175 2.292 . S
O174 C177 1.255 . S
Tb175 O174 2.292 . S
Tb175 O191 2.326 . S
Tb175 O193 2.500 . S
Tb175 O194 2.473 . S
Tb175 O197 2.324 . S
Eu176 O180 2.292 . S
Eu176 C181 2.852 . S
Eu176 O192 2.324 . S
Eu176 O196 2.326 . S
Eu176 O198 2.500 . S
Eu176 O199 2.473 . S
C177 O174 1.255 . S
C177 O178 1.247 . S
O178 C177 1.247 . S
C179 O191 1.242 . S
C179 O192 1.258 . S
O180 Eu176 2.292 . S
O180 C182 1.255 . S
C181 Eu176 2.852 . S
C181 C185 1.503 . S
C181 O198 1.273 . S
C181 O199 1.257 . S
C182 O180 1.255 . S
C182 O183 1.247 . S
O183 C182 1.247 . S
C184 O196 1.242 . S
C184 O197 1.258 . S
C185 C181 1.503 . S
C185 C186 1.379 . S
C185 C190 1.392 . S
C186 C185 1.379 . S
C186 C187 1.404 . S
C186 H200 0.929 . S
C187 C186 1.404 . S
C187 C188 1.389 . S
C188 C187 1.389 . S
C188 C189 1.399 . S
C188 H201 0.931 . S
C189 C188 1.399 . S
C189 C190 1.390 . S
C190 C185 1.392 . S
C190 C189 1.390 . S
C190 H202 0.929 . S
O191 Tb175 2.326 . S
O191 C179 1.242 . S
O192 Eu176 2.324 . S
O192 C179 1.258 . S
O193 Tb175 2.500 . S
O193 C195 1.273 . S
O194 Tb175 2.473 . S
O194 C195 1.257 . S
C195 O193 1.273 . S
C195 O194 1.257 . S
O196 Eu176 2.326 . S
O196 C184 1.242 . S
O197 Tb175 2.324 . S
O197 C184 1.258 . S
O198 Eu176 2.500 . S
O198 C181 1.273 . S
O199 Eu176 2.473 . S
O199 C181 1.257 . S
H200 C186 0.929 . S
H201 C188 0.931 . S
H202 C190 0.929 . S
O203 Tb204 2.292 . S
O203 C206 1.255 . S
Tb204 O203 2.292 . S
Tb204 O220 2.326 . S
Tb204 O222 2.500 . S
Tb204 O223 2.473 . S
Tb204 O226 2.324 . S
Eu205 O209 2.292 . S
Eu205 C210 2.852 . S
Eu205 O221 2.324 . S
Eu205 O225 2.326 . S
Eu205 O227 2.500 . S
Eu205 O228 2.473 . S
C206 O203 1.255 . S
C206 O207 1.247 . S
O207 C206 1.247 . S
C208 O220 1.242 . S
C208 O221 1.258 . S
O209 Eu205 2.292 . S
O209 C211 1.255 . S
C210 Eu205 2.852 . S
C210 C214 1.503 . S
C210 O227 1.273 . S
C210 O228 1.257 . S
C211 O209 1.255 . S
C211 O212 1.247 . S
O212 C211 1.247 . S
C213 O225 1.242 . S
C213 O226 1.258 . S
C214 C210 1.503 . S
C214 C215 1.379 . S
C214 C219 1.392 1_655 S
C215 C214 1.379 . S
C215 C216 1.404 . S
C215 H229 0.929 . S
C216 C215 1.404 . S
C216 C217 1.389 1_655 S
C217 C216 1.389 1_455 S
C217 C218 1.399 . S
C217 H230 0.931 . S
C218 C217 1.399 . S
C218 C219 1.390 . S
C219 C214 1.392 1_455 S
C219 C218 1.390 . S
C219 H231 0.929 . S
O220 Tb204 2.326 . S
O220 C208 1.242 . S
O221 Eu205 2.324 . S
O221 C208 1.258 . S
O222 Tb204 2.500 . S
O222 C224 1.273 . S
O223 Tb204 2.473 . S
O223 C224 1.257 . S
C224 O222 1.273 . S
C224 O223 1.257 . S
O225 Eu205 2.326 . S
O225 C213 1.242 . S
O226 Tb204 2.324 . S
O226 C213 1.258 . S
O227 Eu205 2.500 . S
O227 C210 1.273 . S
O228 Eu205 2.473 . S
O228 C210 1.257 . S
H229 C215 0.929 . S
H230 C217 0.931 . S
H231 C219 0.929 . S
O232 Tb233 2.292 . S
O232 C235 1.255 . S
Tb233 O232 2.292 . S
Tb233 O249 2.326 . S
Tb233 O251 2.500 . S
Tb233 O252 2.473 . S
Tb233 O255 2.324 . S
Eu234 O238 2.292 . S
Eu234 C239 2.852 . S
Eu234 O250 2.324 . S
Eu234 O254 2.326 . S
Eu234 O256 2.500 . S
Eu234 O257 2.473 . S
C235 O232 1.255 . S
C235 O236 1.247 . S
O236 C235 1.247 . S
C237 O249 1.242 . S
C237 O250 1.258 . S
O238 Eu234 2.292 . S
O238 C240 1.255 . S
C239 Eu234 2.852 . S
C239 C243 1.503 . S
C239 O256 1.273 . S
C239 O257 1.257 . S
C240 O238 1.255 . S
C240 O241 1.247 . S
O241 C240 1.247 . S
C242 O254 1.242 . S
C242 O255 1.258 . S
C243 C239 1.503 . S
C243 C244 1.379 . S
C243 C248 1.392 1_565 S
C244 C243 1.379 . S
C244 C245 1.404 . S
C244 H258 0.929 . S
C245 C244 1.404 . S
C245 C246 1.389 1_565 S
C246 C245 1.389 1_545 S
C246 C247 1.399 . S
C246 H259 0.931 . S
C247 C246 1.399 . S
C247 C248 1.390 . S
C248 C243 1.392 1_545 S
C248 C247 1.390 . S
C248 H260 0.929 . S
O249 Tb233 2.326 . S
O249 C237 1.242 . S
O250 Eu234 2.324 . S
O250 C237 1.258 . S
O251 Tb233 2.500 . S
O251 C253 1.273 . S
O252 Tb233 2.473 . S
O252 C253 1.257 . S
C253 O251 1.273 . S
C253 O252 1.257 . S
O254 Eu234 2.326 . S
O254 C242 1.242 . S
O255 Tb233 2.324 . S
O255 C242 1.258 . S
O256 Eu234 2.500 . S
O256 C239 1.273 . S
O257 Eu234 2.473 . S
O257 C239 1.257 . S
H258 C244 0.929 . S
H259 C246 0.931 . S
H260 C248 0.929 . S
O261 Tb262 2.292 . S
O261 C264 1.255 . S
Tb262 O261 2.292 . S
Tb262 O278 2.326 . S
Tb262 O280 2.500 . S
Tb262 O281 2.473 . S
Tb262 O284 2.324 . S
Eu263 O267 2.292 . S
Eu263 C268 2.852 . S
Eu263 O279 2.324 . S
Eu263 O283 2.326 . S
Eu263 O285 2.500 . S
Eu263 O286 2.473 . S
C264 O261 1.255 . S
C264 O265 1.247 . S
O265 C264 1.247 . S
C266 O278 1.242 . S
C266 O279 1.258 . S
O267 Eu263 2.292 . S
O267 C269 1.255 . S
C268 Eu263 2.852 . S
C268 C272 1.503 . S
C268 O285 1.273 . S
C268 O286 1.257 . S
C269 O267 1.255 . S
C269 O270 1.247 . S
O270 C269 1.247 . S
C271 O283 1.242 . S
C271 O284 1.258 . S
C272 C268 1.503 . S
C272 C273 1.379 . S
C272 C277 1.392 . S
C273 C272 1.379 . S
C273 C274 1.404 . S
C273 H287 0.929 . S
C274 C273 1.404 . S
C274 C275 1.389 . S
C275 C274 1.389 . S
C275 C276 1.399 . S
C275 H288 0.931 . S
C276 C275 1.399 . S
C276 C277 1.390 . S
C277 C272 1.392 . S
C277 C276 1.390 . S
C277 H289 0.929 . S
O278 Tb262 2.326 . S
O278 C266 1.242 . S
O279 Eu263 2.324 . S
O279 C266 1.258 . S
O280 Tb262 2.500 . S
O280 C282 1.273 . S
O281 Tb262 2.473 . S
O281 C282 1.257 . S
C282 O280 1.273 . S
C282 O281 1.257 . S
O283 Eu263 2.326 . S
O283 C271 1.242 . S
O284 Tb262 2.324 . S
O284 C271 1.258 . S
O285 Eu263 2.500 . S
O285 C268 1.273 . S
O286 Eu263 2.473 . S
O286 C268 1.257 . S
H287 C273 0.929 . S
H288 C275 0.931 . S
H289 C277 0.929 . S
O290 Tb291 2.292 . S
O290 C293 1.255 . S
Tb291 O290 2.292 . S
Tb291 O307 2.326 . S
Tb291 O309 2.500 . S
Tb291 O310 2.473 . S
Tb291 O313 2.324 . S
Eu292 O296 2.292 . S
Eu292 C297 2.852 . S
Eu292 O308 2.324 . S
Eu292 O312 2.326 . S
Eu292 O314 2.500 . S
Eu292 O315 2.473 . S
C293 O290 1.255 . S
C293 O294 1.247 . S
O294 C293 1.247 . S
C295 O307 1.242 . S
C295 O308 1.258 . S
O296 Eu292 2.292 . S
O296 C298 1.255 . S
C297 Eu292 2.852 . S
C297 C301 1.503 . S
C297 O314 1.273 . S
C297 O315 1.257 . S
C298 O296 1.255 . S
C298 O299 1.247 . S
O299 C298 1.247 . S
C300 O312 1.242 . S
C300 O313 1.258 . S
C301 C297 1.503 . S
C301 C302 1.379 . S
C301 C306 1.392 . S
C302 C301 1.379 . S
C302 C303 1.404 . S
C302 H316 0.929 . S
C303 C302 1.404 . S
C303 C304 1.389 . S
C304 C303 1.389 . S
C304 C305 1.399 . S
C304 H317 0.931 . S
C305 C304 1.399 . S
C305 C306 1.390 . S
C306 C301 1.392 . S
C306 C305 1.390 . S
C306 H318 0.929 . S
O307 Tb291 2.326 . S
O307 C295 1.242 . S
O308 Eu292 2.324 . S
O308 C295 1.258 . S
O309 Tb291 2.500 . S
O309 C311 1.273 . S
O310 Tb291 2.473 . S
O310 C311 1.257 . S
C311 O309 1.273 . S
C311 O310 1.257 . S
O312 Eu292 2.326 . S
O312 C300 1.242 . S
O313 Tb291 2.324 . S
O313 C300 1.258 . S
O314 Eu292 2.500 . S
O314 C297 1.273 . S
O315 Eu292 2.473 . S
O315 C297 1.257 . S
H316 C302 0.929 . S
H317 C304 0.931 . S
H318 C306 0.929 . S
O319 Tb320 2.292 . S
O319 C322 1.255 . S
Tb320 O319 2.292 . S
Tb320 O336 2.326 . S
Tb320 O338 2.500 . S
Tb320 O339 2.473 . S
Tb320 O342 2.324 . S
Eu321 O325 2.292 . S
Eu321 C326 2.852 . S
Eu321 O337 2.324 . S
Eu321 O341 2.326 . S
Eu321 O343 2.500 . S
Eu321 O344 2.473 . S
C322 O319 1.255 . S
C322 O323 1.247 . S
O323 C322 1.247 . S
C324 O336 1.242 . S
C324 O337 1.258 . S
O325 Eu321 2.292 . S
O325 C327 1.255 . S
C326 Eu321 2.852 . S
C326 C330 1.503 . S
C326 O343 1.273 . S
C326 O344 1.257 . S
C327 O325 1.255 . S
C327 O328 1.247 . S
O328 C327 1.247 . S
C329 O341 1.242 . S
C329 O342 1.258 . S
C330 C326 1.503 . S
C330 C331 1.379 . S
C330 C335 1.392 1_655 S
C331 C330 1.379 . S
C331 C332 1.404 . S
C331 H345 0.929 . S
C332 C331 1.404 . S
C332 C333 1.389 1_655 S
C333 C332 1.389 1_455 S
C333 C334 1.399 . S
C333 H346 0.931 . S
C334 C333 1.399 . S
C334 C335 1.390 . S
C335 C330 1.392 1_455 S
C335 C334 1.390 . S
C335 H347 0.929 . S
O336 Tb320 2.326 . S
O336 C324 1.242 . S
O337 Eu321 2.324 . S
O337 C324 1.258 . S
O338 Tb320 2.500 . S
O338 C340 1.273 . S
O339 Tb320 2.473 . S
O339 C340 1.257 . S
C340 O338 1.273 . S
C340 O339 1.257 . S
O341 Eu321 2.326 . S
O341 C329 1.242 . S
O342 Tb320 2.324 . S
O342 C329 1.258 . S
O343 Eu321 2.500 . S
O343 C326 1.273 . S
O344 Eu321 2.473 . S
O344 C326 1.257 . S
H345 C331 0.929 . S
H346 C333 0.931 . S
H347 C335 0.929 . S
O348 Tb349 2.292 . S
O348 C351 1.255 . S
Tb349 O348 2.292 . S
Tb349 O365 2.326 . S
Tb349 O367 2.500 . S
Tb349 O368 2.473 . S
Tb349 O371 2.324 . S
Eu350 O354 2.292 . S
Eu350 C355 2.852 . S
Eu350 O366 2.324 . S
Eu350 O370 2.326 . S
Eu350 O372 2.500 . S
Eu350 O373 2.473 . S
C351 O348 1.255 . S
C351 O352 1.247 . S
O352 C351 1.247 . S
C353 O365 1.242 . S
C353 O366 1.258 . S
O354 Eu350 2.292 . S
O354 C356 1.255 . S
C355 Eu350 2.852 . S
C355 C359 1.503 . S
C355 O372 1.273 . S
C355 O373 1.257 . S
C356 O354 1.255 . S
C356 O357 1.247 . S
O357 C356 1.247 . S
C358 O370 1.242 . S
C358 O371 1.258 . S
C359 C355 1.503 . S
C359 C360 1.379 . S
C359 C364 1.392 1_545 S
C360 C359 1.379 . S
C360 C361 1.404 . S
C360 H374 0.929 . S
C361 C360 1.404 . S
C361 C362 1.389 1_545 S
C362 C361 1.389 1_565 S
C362 C363 1.399 . S
C362 H375 0.931 . S
C363 C362 1.399 . S
C363 C364 1.390 . S
C364 C359 1.392 1_565 S
C364 C363 1.390 . S
C364 H376 0.929 . S
O365 Tb349 2.326 . S
O365 C353 1.242 . S
O366 Eu350 2.324 . S
O366 C353 1.258 . S
O367 Tb349 2.500 . S
O367 C369 1.273 . S
O368 Tb349 2.473 . S
O368 C369 1.257 . S
C369 O367 1.273 . S
C369 O368 1.257 . S
O370 Eu350 2.326 . S
O370 C358 1.242 . S
O371 Tb349 2.324 . S
O371 C358 1.258 . S
O372 Eu350 2.500 . S
O372 C355 1.273 . S
O373 Eu350 2.473 . S
O373 C355 1.257 . S
H374 C360 0.929 . S
H375 C362 0.931 . S
H376 C364 0.929 . S
O377 Tb378 2.292 . S
O377 C380 1.255 . S
Tb378 O377 2.292 . S
Tb378 O394 2.326 . S
Tb378 O396 2.500 . S
Tb378 O397 2.473 . S
Tb378 O400 2.324 . S
Eu379 O383 2.292 . S
Eu379 C384 2.852 . S
Eu379 O395 2.324 . S
Eu379 O399 2.326 . S
Eu379 O401 2.500 . S
Eu379 O402 2.473 . S
C380 O377 1.255 . S
C380 O381 1.247 . S
O381 C380 1.247 . S
C382 O394 1.242 . S
C382 O395 1.258 . S
O383 Eu379 2.292 . S
O383 C385 1.255 . S
C384 Eu379 2.852 . S
C384 C388 1.503 . S
C384 O401 1.273 . S
C384 O402 1.257 . S
C385 O383 1.255 . S
C385 O386 1.247 . S
O386 C385 1.247 . S
C387 O399 1.242 . S
C387 O400 1.258 . S
C388 C384 1.503 . S
C388 C389 1.379 . S
C388 C393 1.392 . S
C389 C388 1.379 . S
C389 C390 1.404 . S
C389 H403 0.929 . S
C390 C389 1.404 . S
C390 C391 1.389 . S
C391 C390 1.389 . S
C391 C392 1.399 . S
C391 H404 0.931 . S
C392 C391 1.399 . S
C392 C393 1.390 . S
C393 C388 1.392 . S
C393 C392 1.390 . S
C393 H405 0.929 . S
O394 Tb378 2.326 . S
O394 C382 1.242 . S
O395 Eu379 2.324 . S
O395 C382 1.258 . S
O396 Tb378 2.500 . S
O396 C398 1.273 . S
O397 Tb378 2.473 . S
O397 C398 1.257 . S
C398 O396 1.273 . S
C398 O397 1.257 . S
O399 Eu379 2.326 . S
O399 C387 1.242 . S
O400 Tb378 2.324 . S
O400 C387 1.258 . S
O401 Eu379 2.500 . S
O401 C384 1.273 . S
O402 Eu379 2.473 . S
O402 C384 1.257 . S
H403 C389 0.929 . S
H404 C391 0.931 . S
H405 C393 0.929 . S
O406 Tb407 2.292 . S
O406 C409 1.255 . S
Tb407 O406 2.292 . S
Tb407 O423 2.326 . S
Tb407 O425 2.500 . S
Tb407 O426 2.473 . S
Tb407 O429 2.324 . S
Eu408 O412 2.292 . S
Eu408 C413 2.852 . S
Eu408 O424 2.324 . S
Eu408 O428 2.326 . S
Eu408 O430 2.500 . S
Eu408 O431 2.473 . S
C409 O406 1.255 . S
C409 O410 1.247 . S
O410 C409 1.247 . S
C411 O423 1.242 . S
C411 O424 1.258 . S
O412 Eu408 2.292 . S
O412 C414 1.255 . S
C413 Eu408 2.852 . S
C413 C417 1.503 . S
C413 O430 1.273 . S
C413 O431 1.257 . S
C414 O412 1.255 . S
C414 O415 1.247 . S
O415 C414 1.247 . S
C416 O428 1.242 . S
C416 O429 1.258 . S
C417 C413 1.503 . S
C417 C418 1.379 . S
C417 C422 1.392 . S
C418 C417 1.379 . S
C418 C419 1.404 . S
C418 H432 0.929 . S
C419 C418 1.404 . S
C419 C420 1.389 . S
C420 C419 1.389 . S
C420 C421 1.399 . S
C420 H433 0.931 . S
C421 C420 1.399 . S
C421 C422 1.390 . S
C422 C417 1.392 . S
C422 C421 1.390 . S
C422 H434 0.929 . S
O423 Tb407 2.326 . S
O423 C411 1.242 . S
O424 Eu408 2.324 . S
O424 C411 1.258 . S
O425 Tb407 2.500 . S
O425 C427 1.273 . S
O426 Tb407 2.473 . S
O426 C427 1.257 . S
C427 O425 1.273 . S
C427 O426 1.257 . S
O428 Eu408 2.326 . S
O428 C416 1.242 . S
O429 Tb407 2.324 . S
O429 C416 1.258 . S
O430 Eu408 2.500 . S
O430 C413 1.273 . S
O431 Eu408 2.473 . S
O431 C413 1.257 . S
H432 C418 0.929 . S
H433 C420 0.931 . S
H434 C422 0.929 . S
O435 Tb436 2.292 . S
O435 C438 1.255 . S
Tb436 O435 2.292 . S
Tb436 O452 2.326 . S
Tb436 O454 2.500 . S
Tb436 O455 2.473 . S
Tb436 O458 2.324 . S
Eu437 O441 2.292 . S
Eu437 C442 2.852 . S
Eu437 O453 2.324 . S
Eu437 O457 2.326 . S
Eu437 O459 2.500 . S
Eu437 O460 2.473 . S
C438 O435 1.255 . S
C438 O439 1.247 . S
O439 C438 1.247 . S
C440 O452 1.242 . S
C440 O453 1.258 . S
O441 Eu437 2.292 . S
O441 C443 1.255 . S
C442 Eu437 2.852 . S
C442 C446 1.503 . S
C442 O459 1.273 . S
C442 O460 1.257 . S
C443 O441 1.255 . S
C443 O444 1.247 . S
O444 C443 1.247 . S
C445 O457 1.242 . S
C445 O458 1.258 . S
C446 C442 1.503 . S
C446 C447 1.379 . S
C446 C451 1.392 1_455 S
C447 C446 1.379 . S
C447 C448 1.404 . S
C447 H461 0.929 . S
C448 C447 1.404 . S
C448 C449 1.389 1_455 S
C449 C448 1.389 1_655 S
C449 C450 1.399 . S
C449 H462 0.931 . S
C450 C449 1.399 . S
C450 C451 1.390 . S
C451 C446 1.392 1_655 S
C451 C450 1.390 . S
C451 H463 0.929 . S
O452 Tb436 2.326 . S
O452 C440 1.242 . S
O453 Eu437 2.324 . S
O453 C440 1.258 . S
O454 Tb436 2.500 . S
O454 C456 1.273 . S
O455 Tb436 2.473 . S
O455 C456 1.257 . S
C456 O454 1.273 . S
C456 O455 1.257 . S
O457 Eu437 2.326 . S
O457 C445 1.242 . S
O458 Tb436 2.324 . S
O458 C445 1.258 . S
O459 Eu437 2.500 . S
O459 C442 1.273 . S
O460 Eu437 2.473 . S
O460 C442 1.257 . S
H461 C447 0.929 . S
H462 C449 0.931 . S
H463 C451 0.929 . S
C464 C465 1.391 . S
C464 C466 1.394 . S
C464 H480 0.931 . S
C465 C464 1.391 . S
C465 C469 1.376 1_565 S
C466 C464 1.394 . S
C466 C467 1.369 1_565 S
C466 C470 1.531 . S
C467 C466 1.369 1_545 S
C467 C468 1.410 . S
C467 C475 1.503 1_556 S
C468 C467 1.410 . S
C468 C469 1.392 . S
C468 C471 1.522 . S
C469 C465 1.376 1_545 S
C469 C468 1.392 . S
C469 H481 0.929 . S
C470 C466 1.531 . S
C470 H482 0.960 . S
C470 H483 0.962 . S
C470 H484 0.960 . S
C471 C468 1.522 . S
C471 H485 0.959 1_556 S
C471 H486 0.945 1_556 S
C471 H487 0.967 . S
C472 C473 1.370 1_565 S
C472 C474 1.363 . S
C472 H488 0.931 . S
C473 C472 1.370 1_545 S
C473 C477 1.408 . S
C474 C472 1.363 . S
C474 C475 1.370 1_565 S
C474 C478 1.524 . S
C475 C467 1.503 1_554 S
C475 C474 1.370 1_545 S
C475 C476 1.403 . S
C476 C475 1.403 . S
C476 C477 1.404 . S
C476 C479 1.539 1_554 S
C477 C473 1.408 . S
C477 C476 1.404 . S
C477 H489 0.930 . S
C478 C474 1.524 . S
C478 H490 0.956 . S
C478 H491 0.961 . S
C478 H492 0.961 . S
C479 C476 1.539 1_556 S
C479 H493 0.958 . S
C479 H494 0.961 . S
C479 H495 0.960 . S
H480 C464 0.931 . S
H481 C469 0.929 . S
H482 C470 0.960 . S
H483 C470 0.962 . S
H484 C470 0.960 . S
H485 C471 0.959 1_554 S
H486 C471 0.945 1_554 S
H487 C471 0.967 . S
H488 C472 0.931 . S
H489 C477 0.930 . S
H490 C478 0.956 . S
H491 C478 0.961 . S
H492 C478 0.961 . S
H493 C479 0.958 . S
H494 C479 0.961 . S
H495 C479 0.960 . S
C496 C497 1.391 . S
C496 C498 1.394 . S
C496 H512 0.931 . S
C497 C496 1.391 . S
C497 C501 1.376 . S
C498 C496 1.394 . S
C498 C499 1.369 . S
C498 C502 1.531 1_554 S
C499 C498 1.369 . S
C499 C500 1.410 . S
C499 C507 1.503 1_554 S
C500 C499 1.410 . S
C500 C501 1.392 . S
C500 C503 1.511 . S
C501 C497 1.376 . S
C501 C500 1.392 . S
C501 H513 0.929 . S
C502 C498 1.531 1_556 S
C502 H514 0.960 . S
C502 H515 0.962 . S
C502 H516 0.960 . S
C503 C500 1.511 . S
C503 H517 0.961 . S
C503 H518 0.961 . S
C503 H519 0.961 . S
C504 C505 1.370 . S
C504 C506 1.363 . S
C504 H520 0.931 . S
C505 C504 1.370 . S
C505 C509 1.408 . S
C506 C504 1.363 . S
C506 C507 1.370 . S
C506 C510 1.524 . S
C507 C499 1.503 1_556 S
C507 C506 1.370 . S
C507 C508 1.403 . S
C508 C507 1.403 . S
C508 C509 1.404 . S
C508 C511 1.539 . S
C509 C505 1.408 . S
C509 C508 1.404 . S
C509 H521 0.930 . S
C510 C506 1.524 . S
C510 H522 0.956 . S
C510 H523 0.961 1_556 S
C510 H524 0.961 . S
C511 C508 1.539 . S
C511 H525 0.958 . S
C511 H526 0.961 . S
C511 H527 0.960 1_556 S
H512 C496 0.931 . S
H513 C501 0.929 . S
H514 C502 0.960 . S
H515 C502 0.962 . S
H516 C502 0.960 . S
H517 C503 0.961 . S
H518 C503 0.961 . S
H519 C503 0.961 . S
H520 C504 0.931 . S
H521 C509 0.930 . S
H522 C510 0.956 . S
H523 C510 0.961 1_554 S
H524 C510 0.961 . S
H525 C511 0.958 . S
H526 C511 0.961 . S
H527 C511 0.960 1_554 S
C528 C529 1.391 . S
C528 C530 1.394 . S
C528 H544 0.931 . S
C529 C528 1.391 . S
C529 C533 1.376 . S
C530 C528 1.394 . S
C530 C531 1.369 . S
C530 C534 1.531 1_455 S
C531 C530 1.369 . S
C531 C532 1.410 . S
C531 C539 1.503 1_456 S
C532 C531 1.410 . S
C532 C533 1.392 . S
C532 C535 1.511 1_556 S
C533 C529 1.376 . S
C533 C532 1.392 . S
C533 H545 0.929 . S
C534 C530 1.531 1_655 S
C534 H546 0.960 . S
C534 H547 0.962 . S
C534 H548 0.960 . S
C535 C532 1.511 1_554 S
C535 H549 0.961 . S
C535 H550 0.961 . S
C535 H551 0.961 . S
C536 C537 1.370 . S
C536 C538 1.363 . S
C536 H552 0.931 . S
C537 C536 1.370 . S
C537 C541 1.408 . S
C538 C536 1.363 . S
C538 C539 1.370 . S
C538 C542 1.524 . S
C539 C531 1.503 1_654 S
C539 C538 1.370 . S
C539 C540 1.403 . S
C540 C539 1.403 . S
C540 C541 1.404 . S
C540 C543 1.539 1_655 S
C541 C537 1.408 . S
C541 C540 1.404 . S
C541 H553 0.930 . S
C542 C538 1.524 . S
C542 H554 0.956 1_554 S
C542 H555 0.961 . S
C542 H556 0.961 . S
C543 C540 1.539 1_455 S
C543 H557 0.958 1_455 S
C543 H558 0.961 . S
C543 H559 0.960 . S
H544 C528 0.931 . S
H545 C533 0.929 . S
H546 C534 0.960 . S
H547 C534 0.962 . S
H548 C534 0.960 . S
H549 C535 0.961 . S
H550 C535 0.961 . S
H551 C535 0.961 . S
H552 C536 0.931 . S
H553 C541 0.930 . S
H554 C542 0.956 1_556 S
H555 C542 0.961 . S
H556 C542 0.961 . S
H557 C543 0.958 1_655 S
H558 C543 0.961 . S
H559 C543 0.960 . S
C560 C561 1.391 . S
C560 C562 1.394 . S
C560 H576 0.931 . S
C561 C560 1.391 . S
C561 C565 1.376 1_455 S
C562 C560 1.394 . S
C562 C563 1.369 . S
C562 C566 1.531 1_565 S
C563 C562 1.369 . S
C563 C564 1.410 1_455 S
C563 C571 1.498 1_464 S
C564 C563 1.410 1_655 S
C564 C565 1.392 . S
C564 C567 1.511 . S
C565 C561 1.376 1_655 S
C565 C564 1.392 . S
C565 H577 0.929 . S
C566 C562 1.531 1_545 S
C566 H578 0.960 1_554 S
C566 H579 0.962 . S
C566 H580 0.960 1_545 S
C567 C564 1.511 . S
C567 H581 0.961 . S
C567 H582 0.961 1_554 S
C567 H583 0.961 1_554 S
C568 C569 1.370 . S
C568 C570 1.363 . S
C568 H584 0.931 . S
C569 C568 1.370 . S
C569 C573 1.423 . S
C570 C568 1.363 . S
C570 C571 1.382 . S
C570 C574 1.524 1_556 S
C571 C563 1.498 1_646 S
C571 C570 1.382 . S
C571 C572 1.387 1_645 S
C572 C571 1.387 1_465 S
C572 C573 1.371 1_465 S
C572 C575 1.577 . S
C573 C569 1.423 . S
C573 C572 1.371 1_645 S
C573 H585 0.924 1_655 S
C574 C570 1.524 1_554 S
C574 H586 0.956 1_655 S
C574 H587 0.961 . S
C574 H588 0.961 . S
C575 C572 1.577 . S
C575 H589 0.958 . S
C575 H590 0.961 . S
C575 H591 0.960 . S
H576 C560 0.931 . S
H577 C565 0.929 . S
H578 C566 0.960 1_556 S
H579 C566 0.962 . S
H580 C566 0.960 1_565 S
H581 C567 0.961 . S
H582 C567 0.961 1_556 S
H583 C567 0.961 1_556 S
H584 C568 0.931 . S
H585 C573 0.924 1_455 S
H586 C574 0.956 1_455 S
H587 C574 0.961 . S
H588 C574 0.961 . S
H589 C575 0.958 . S
H590 C575 0.961 . S
H591 C575 0.960 . S
C592 C593 1.391 1_545 S
C592 C594 1.394 . S
C592 H608 0.931 . S
C593 C592 1.391 1_565 S
C593 C597 1.376 . S
C594 C592 1.394 . S
C594 C595 1.388 . S
C594 C598 1.531 . S
C595 C594 1.388 . S
C595 C596 1.385 1_545 S
C595 C603 1.507 1_455 S
C596 C595 1.385 1_565 S
C596 C597 1.392 . S
C596 C599 1.511 1_455 S
C597 C593 1.376 . S
C597 C596 1.392 . S
C597 H609 0.929 . S
C598 C594 1.531 . S
C598 H610 0.960 . S
C598 H611 0.962 . S
C598 H612 0.960 . S
C599 C596 1.511 1_655 S
C599 H613 0.961 . S
C599 H614 0.961 . S
C599 H615 0.961 . S
C600 C601 1.369 1_565 S
C600 C602 1.363 . S
C600 H616 0.931 . S
C601 C600 1.369 1_545 S
C601 C605 1.408 . S
C602 C600 1.363 . S
C602 C603 1.370 1_565 S
C602 C606 1.524 1_655 S
C603 C595 1.507 1_655 S
C603 C602 1.370 1_545 S
C603 C604 1.403 . S
C604 C603 1.403 . S
C604 C605 1.404 . S
C604 C607 1.539 . S
C605 C601 1.408 . S
C605 C604 1.404 . S
C605 H617 0.930 . S
C606 C602 1.524 1_455 S
C606 H618 0.956 . S
C606 H619 0.961 . S
C606 H620 0.961 . S
C607 C604 1.539 . S
C607 H621 0.958 . S
C607 H622 0.961 . S
C607 H623 0.960 . S
H608 C592 0.931 . S
H609 C597 0.929 . S
H610 C598 0.960 . S
H611 C598 0.962 . S
H612 C598 0.960 . S
H613 C599 0.961 . S
H614 C599 0.961 . S
H615 C599 0.961 . S
H616 C600 0.931 . S
H617 C605 0.930 . S
H618 C606 0.956 . S
H619 C606 0.961 . S
H620 C606 0.961 . S
H621 C607 0.958 . S
H622 C607 0.961 . S
H623 C607 0.960 . S
C624 C625 1.391 . S
C624 C626 1.394 . S
C624 H640 0.931 . S
C625 C624 1.391 . S
C625 C629 1.376 . S
C626 C624 1.394 . S
C626 C627 1.369 . S
C626 C630 1.531 . S
C627 C626 1.369 . S
C627 C628 1.410 . S
C627 C635 1.503 1_545 S
C628 C627 1.410 . S
C628 C629 1.392 . S
C628 C631 1.511 1_545 S
C629 C625 1.376 . S
C629 C628 1.392 . S
C629 H641 0.929 . S
C630 C626 1.531 . S
C630 H642 0.960 . S
C630 H643 0.962 . S
C630 H644 0.960 . S
C631 C628 1.511 1_565 S
C631 H645 0.961 . S
C631 H646 0.961 . S
C631 H647 0.961 . S
C632 C633 1.370 . S
C632 C634 1.363 . S
C632 H648 0.931 . S
C633 C632 1.370 . S
C633 C637 1.408 . S
C634 C632 1.363 . S
C634 C635 1.370 . S
C634 C638 1.524 . S
C635 C627 1.503 1_565 S
C635 C634 1.370 . S
C635 C636 1.403 . S
C636 C635 1.403 . S
C636 C637 1.404 . S
C636 C639 1.539 1_565 S
C637 C633 1.408 . S
C637 C636 1.404 . S
C637 H649 0.930 . S
C638 C634 1.524 . S
C638 H650 0.956 . S
C638 H651 0.961 . S
C638 H652 0.961 . S
C639 C636 1.539 1_545 S
C639 H653 0.958 . S
C639 H654 0.961 . S
C639 H655 0.960 . S
H640 C624 0.931 . S
H641 C629 0.929 . S
H642 C630 0.960 . S
H643 C630 0.962 . S
H644 C630 0.960 . S
H645 C631 0.961 . S
H646 C631 0.961 . S
H647 C631 0.961 . S
H648 C632 0.931 . S
H649 C637 0.930 . S
H650 C638 0.956 . S
H651 C638 0.961 . S
H652 C638 0.961 . S
H653 C639 0.958 . S
H654 C639 0.961 . S
H655 C639 0.960 . S
C656 C657 1.391 . S
C656 C658 1.394 . S
C656 H672 0.931 . S
C657 C656 1.391 . S
C657 C661 1.376 . S
C658 C656 1.394 . S
C658 C659 1.369 . S
C658 C662 1.531 . S
C659 C658 1.369 . S
C659 C660 1.410 . S
C659 C667 1.503 . S
C660 C659 1.410 . S
C660 C661 1.392 . S
C660 C663 1.511 . S
C661 C657 1.376 . S
C661 C660 1.392 . S
C661 H673 0.929 . S
C662 C658 1.531 . S
C662 H674 0.960 . S
C662 H675 0.962 . S
C662 H676 0.960 . S
C663 C660 1.511 . S
C663 H677 0.961 . S
C663 H678 0.961 . S
C663 H679 0.961 . S
C664 C665 1.370 . S
C664 C666 1.363 . S
C664 H680 0.931 . S
C665 C664 1.370 . S
C665 C669 1.408 . S
C666 C664 1.363 . S
C666 C667 1.370 . S
C666 C670 1.524 . S
C667 C659 1.503 . S
C667 C666 1.370 . S
C667 C668 1.403 . S
C668 C667 1.403 . S
C668 C669 1.404 . S
C668 C671 1.539 . S
C669 C665 1.408 . S
C669 C668 1.404 . S
C669 H681 0.930 . S
C670 C666 1.524 . S
C670 H682 0.956 . S
C670 H683 0.961 . S
C670 H684 0.961 . S
C671 C668 1.539 . S
C671 H685 0.958 . S
C671 H686 0.961 . S
C671 H687 0.960 . S
H672 C656 0.931 . S
H673 C661 0.929 . S
H674 C662 0.960 . S
H675 C662 0.962 . S
H676 C662 0.960 . S
H677 C663 0.961 . S
H678 C663 0.961 . S
H679 C663 0.961 . S
H680 C664 0.931 . S
H681 C669 0.930 . S
H682 C670 0.956 . S
H683 C670 0.961 . S
H684 C670 0.961 . S
H685 C671 0.958 . S
H686 C671 0.961 . S
H687 C671 0.960 . S
C688 C689 1.391 1_655 S
C688 C690 1.394 . S
C688 H704 0.931 . S
C689 C688 1.391 1_455 S
C689 C693 1.376 . S
C690 C688 1.394 . S
C690 C691 1.369 1_655 S
C690 C694 1.531 . S
C691 C690 1.369 1_455 S
C691 C692 1.410 . S
C691 C699 1.503 . S
C692 C691 1.410 . S
C692 C693 1.392 . S
C692 C695 1.511 . S
C693 C689 1.376 . S
C693 C692 1.392 . S
C693 H705 0.929 . S
C694 C690 1.531 . S
C694 H706 0.960 . S
C694 H707 0.962 . S
C694 H708 0.960 . S
C695 C692 1.511 . S
C695 H709 0.961 . S
C695 H710 0.961 . S
C695 H711 0.961 . S
C696 C697 1.370 . S
C696 C698 1.363 . S
C696 H712 0.931 . S
C697 C696 1.370 . S
C697 C701 1.408 1_655 S
C698 C696 1.363 . S
C698 C699 1.370 1_655 S
C698 C702 1.524 . S
C699 C691 1.503 . S
C699 C698 1.370 1_455 S
C699 C700 1.403 . S
C700 C699 1.403 . S
C700 C701 1.404 . S
C700 C703 1.539 . S
C701 C697 1.408 1_455 S
C701 C700 1.404 . S
C701 H713 0.930 . S
C702 C698 1.524 . S
C702 H714 0.956 . S
C702 H715 0.961 . S
C702 H716 0.961 . S
C703 C700 1.539 . S
C703 H717 0.958 . S
C703 H718 0.961 . S
C703 H719 0.960 . S
H704 C688 0.931 . S
H705 C693 0.929 . S
H706 C694 0.960 . S
H707 C694 0.962 . S
H708 C694 0.960 . S
H709 C695 0.961 . S
H710 C695 0.961 . S
H711 C695 0.961 . S
H712 C696 0.931 . S
H713 C701 0.930 . S
H714 C702 0.956 . S
H715 C702 0.961 . S
H716 C702 0.961 . S
H717 C703 0.958 . S
H718 C703 0.961 . S
H719 C703 0.960 . S
C720 C721 1.391 . S
C720 C722 1.394 . S
C720 H736 0.931 . S
C721 C720 1.391 . S
C721 C725 1.376 . S
C722 C720 1.394 . S
C722 C723 1.369 . S
C722 C726 1.531 . S
C723 C722 1.369 . S
C723 C724 1.410 . S
C723 C731 1.503 . S
C724 C723 1.410 . S
C724 C725 1.392 . S
C724 C727 1.511 . S
C725 C721 1.376 . S
C725 C724 1.392 . S
C725 H737 0.929 . S
C726 C722 1.531 . S
C726 H738 0.960 . S
C726 H739 0.962 . S
C726 H740 0.960 . S
C727 C724 1.511 . S
C727 H741 0.961 . S
C727 H742 0.961 . S
C727 H743 0.961 . S
C728 C729 1.370 . S
C728 C730 1.363 . S
C728 H744 0.931 . S
C729 C728 1.370 . S
C729 C733 1.408 . S
C730 C728 1.363 . S
C730 C731 1.370 . S
C730 C734 1.524 . S
C731 C723 1.503 . S
C731 C730 1.370 . S
C731 C732 1.403 . S
C732 C731 1.403 . S
C732 C733 1.404 . S
C732 C735 1.539 . S
C733 C729 1.408 . S
C733 C732 1.404 . S
C733 H745 0.930 . S
C734 C730 1.524 . S
C734 H746 0.956 . S
C734 H747 0.961 . S
C734 H748 0.961 . S
C735 C732 1.539 . S
C735 H749 0.958 . S
C735 H750 0.961 . S
C735 H751 0.960 . S
H736 C720 0.931 . S
H737 C725 0.929 . S
H738 C726 0.960 . S
H739 C726 0.962 . S
H740 C726 0.960 . S
H741 C727 0.961 . S
H742 C727 0.961 . S
H743 C727 0.961 . S
H744 C728 0.931 . S
H745 C733 0.930 . S
H746 C734 0.956 . S
H747 C734 0.961 . S
H748 C734 0.961 . S
H749 C735 0.958 . S
H750 C735 0.961 . S
H751 C735 0.960 . S
C752 C753 1.391 . S
C752 C754 1.394 . S
C752 H768 0.931 . S
C753 C752 1.391 . S
C753 C757 1.376 . S
C754 C752 1.394 . S
C754 C755 1.369 . S
C754 C758 1.531 . S
C755 C754 1.369 . S
C755 C756 1.410 . S
C755 C763 1.503 . S
C756 C755 1.410 . S
C756 C757 1.392 . S
C756 C759 1.511 . S
C757 C753 1.376 . S
C757 C756 1.392 . S
C757 H769 0.929 . S
C758 C754 1.531 . S
C758 H770 0.960 . S
C758 H771 0.962 . S
C758 H772 0.960 . S
C759 C756 1.511 . S
C759 H773 0.961 . S
C759 H774 0.961 . S
C759 H775 0.961 . S
C760 C761 1.370 . S
C760 C762 1.363 . S
C760 H776 0.931 . S
C761 C760 1.370 . S
C761 C765 1.408 . S
C762 C760 1.363 . S
C762 C763 1.370 . S
C762 C766 1.524 . S
C763 C755 1.503 . S
C763 C762 1.370 . S
C763 C764 1.403 . S
C764 C763 1.403 . S
C764 C765 1.404 . S
C764 C767 1.539 . S
C765 C761 1.408 . S
C765 C764 1.404 . S
C765 H777 0.930 . S
C766 C762 1.524 . S
C766 H778 0.956 . S
C766 H779 0.961 . S
C766 H780 0.961 . S
C767 C764 1.539 . S
C767 H781 0.958 . S
C767 H782 0.961 . S
C767 H783 0.960 . S
H768 C752 0.931 . S
H769 C757 0.929 . S
H770 C758 0.960 . S
H771 C758 0.962 . S
H772 C758 0.960 . S
H773 C759 0.961 . S
H774 C759 0.961 . S
H775 C759 0.961 . S
H776 C760 0.931 . S
H777 C765 0.930 . S
H778 C766 0.956 . S
H779 C766 0.961 . S
H780 C766 0.961 . S
H781 C767 0.958 . S
H782 C767 0.961 . S
H783 C767 0.960 . S
C784 C785 1.391 . S
C784 C786 1.394 . S
C784 H800 0.931 . S
C785 C784 1.391 . S
C785 C789 1.376 1_655 S
C786 C784 1.394 . S
C786 C787 1.369 . S
C786 C790 1.531 . S
C787 C786 1.369 . S
C787 C788 1.410 1_655 S
C787 C795 1.503 . S
C788 C787 1.410 1_455 S
C788 C789 1.392 . S
C788 C791 1.511 . S
C789 C785 1.376 1_455 S
C789 C788 1.392 . S
C789 H801 0.929 . S
C790 C786 1.531 . S
C790 H802 0.960 . S
C790 H803 0.962 . S
C790 H804 0.960 . S
C791 C788 1.511 . S
C791 H805 0.961 . S
C791 H806 0.961 . S
C791 H807 0.961 . S
C792 C793 1.370 . S
C792 C794 1.363 . S
C792 H808 0.931 . S
C793 C792 1.370 . S
C793 C797 1.408 . S
C794 C792 1.363 . S
C794 C795 1.370 . S
C794 C798 1.524 . S
C795 C787 1.503 . S
C795 C794 1.370 . S
C795 C796 1.403 . S
C796 C795 1.403 . S
C796 C797 1.404 . S
C796 C799 1.539 . S
C797 C793 1.408 . S
C797 C796 1.404 . S
C797 H809 0.930 . S
C798 C794 1.524 . S
C798 H810 0.956 . S
C798 H811 0.961 . S
C798 H812 0.961 . S
C799 C796 1.539 . S
C799 H813 0.958 . S
C799 H814 0.961 . S
C799 H815 0.960 1_655 S
H800 C784 0.931 . S
H801 C789 0.929 . S
H802 C790 0.960 . S
H803 C790 0.962 . S
H804 C790 0.960 . S
H805 C791 0.961 . S
H806 C791 0.961 . S
H807 C791 0.961 . S
H808 C792 0.931 . S
H809 C797 0.930 . S
H810 C798 0.956 . S
H811 C798 0.961 . S
H812 C798 0.961 . S
H813 C799 0.958 . S
H814 C799 0.961 . S
H815 C799 0.960 1_455 S
C816 C817 1.391 . S
C816 C818 1.394 . S
C816 H832 0.931 . S
C817 C816 1.391 . S
C817 C821 1.376 1_565 S
C818 C816 1.394 . S
C818 C819 1.369 . S
C818 C822 1.531 . S
C819 C818 1.369 . S
C819 C820 1.410 . S
C819 C827 1.503 . S
C820 C819 1.410 . S
C820 C821 1.392 1_565 S
C820 C823 1.511 1_565 S
C821 C817 1.376 1_545 S
C821 C820 1.392 1_545 S
C821 H833 0.929 . S
C822 C818 1.531 . S
C822 H834 0.960 . S
C822 H835 0.962 . S
C822 H836 0.960 . S
C823 C820 1.511 1_545 S
C823 H837 0.961 . S
C823 H838 0.961 . S
C823 H839 0.961 . S
C824 C825 1.370 . S
C824 C826 1.363 . S
C824 H840 0.931 . S
C825 C824 1.370 . S
C825 C829 1.408 . S
C826 C824 1.363 . S
C826 C827 1.370 . S
C826 C830 1.524 . S
C827 C819 1.503 . S
C827 C826 1.370 . S
C827 C828 1.403 . S
C828 C827 1.403 . S
C828 C829 1.404 . S
C828 C831 1.539 . S
C829 C825 1.408 . S
C829 C828 1.404 . S
C829 H841 0.930 . S
C830 C826 1.524 . S
C830 H842 0.956 . S
C830 H843 0.958 1_565 S
C830 H844 0.961 . S
C831 C828 1.539 . S
C831 H845 0.958 . S
C831 H846 0.961 . S
C831 H847 0.960 . S
H832 C816 0.931 . S
H833 C821 0.929 . S
H834 C822 0.960 . S
H835 C822 0.962 . S
H836 C822 0.960 . S
H837 C823 0.961 . S
H838 C823 0.961 . S
H839 C823 0.961 . S
H840 C824 0.931 . S
H841 C829 0.930 . S
H842 C830 0.956 . S
H843 C830 0.958 1_545 S
H844 C830 0.961 . S
H845 C831 0.958 . S
H846 C831 0.961 . S
H847 C831 0.960 . S
C848 C849 1.391 1_655 S
C848 C850 1.394 1_655 S
C848 H864 0.931 . S
C849 C848 1.391 1_455 S
C849 C853 1.376 . S
C850 C848 1.394 1_455 S
C850 C851 1.369 . S
C850 C854 1.531 1_455 S
C851 C850 1.369 . S
C851 C852 1.410 . S
C851 C859 1.503 . S
C852 C851 1.410 . S
C852 C853 1.392 . S
C852 C855 1.511 . S
C853 C849 1.376 . S
C853 C852 1.392 . S
C853 H865 0.929 . S
C854 C850 1.531 1_655 S
C854 H866 0.960 1_655 S
C854 H867 0.962 . S
C854 H868 0.960 . S
C855 C852 1.511 . S
C855 H869 0.961 . S
C855 H870 0.961 . S
C855 H871 0.961 . S
C856 C857 1.370 . S
C856 C858 1.363 . S
C856 H872 0.931 . S
C857 C856 1.370 . S
C857 C861 1.408 . S
C858 C856 1.363 . S
C858 C859 1.370 . S
C858 C862 1.524 . S
C859 C851 1.503 . S
C859 C858 1.370 . S
C859 C860 1.403 . S
C860 C859 1.403 . S
C860 C861 1.404 . S
C860 C863 1.539 . S
C861 C857 1.408 . S
C861 C860 1.404 . S
C861 H873 0.930 . S
C862 C858 1.524 . S
C862 H874 0.956 1_455 S
C862 H875 0.961 . S
C862 H876 0.961 . S
C863 C860 1.539 . S
C863 H877 0.958 . S
C863 H878 0.961 . S
C863 H879 0.960 . S
H864 C848 0.931 . S
H865 C853 0.929 . S
H866 C854 0.960 1_455 S
H867 C854 0.962 . S
H868 C854 0.960 . S
H869 C855 0.961 . S
H870 C855 0.961 . S
H871 C855 0.961 . S
H872 C856 0.931 . S
H873 C861 0.930 . S
H874 C862 0.956 1_655 S
H875 C862 0.961 . S
H876 C862 0.961 . S
H877 C863 0.958 . S
H878 C863 0.961 . S
H879 C863 0.960 . S
C880 C881 1.391 . S
C880 C882 1.394 . S
C880 H896 0.931 . S
C881 C880 1.391 . S
C881 C885 1.376 1_545 S
C882 C880 1.394 . S
C882 C883 1.369 . S
C882 C886 1.531 . S
C883 C882 1.369 . S
C883 C884 1.418 . S
C883 C891 1.503 . S
C884 C883 1.418 . S
C884 C885 1.388 1_545 S
C884 C887 1.506 1_545 S
C885 C881 1.376 1_565 S
C885 C884 1.388 1_565 S
C885 H897 0.929 . S
C886 C882 1.531 . S
C886 H898 0.960 . S
C886 H899 0.962 . S
C886 H900 0.960 . S
C887 C884 1.506 1_565 S
C887 H901 0.961 . S
C887 H902 0.961 1_565 S
C887 H903 0.961 . S
C888 C889 1.370 . S
C888 C890 1.363 . S
C888 H904 0.931 . S
C889 C888 1.370 . S
C889 C893 1.408 . S
C890 C888 1.363 . S
C890 C891 1.370 . S
C890 C894 1.524 . S
C891 C883 1.503 . S
C891 C890 1.370 . S
C891 C892 1.403 . S
C892 C891 1.403 . S
C892 C893 1.404 . S
C892 C895 1.539 . S
C893 C889 1.408 . S
C893 C892 1.404 . S
C893 H905 0.930 . S
C894 C890 1.524 . S
C894 H906 0.956 . S
C894 H907 0.961 . S
C894 H908 0.961 . S
C895 C892 1.539 . S
C895 H909 0.958 . S
C895 H910 0.961 1_545 S
C895 H911 0.960 1_545 S
H896 C880 0.931 . S
H897 C885 0.929 . S
H898 C886 0.960 . S
H899 C886 0.962 . S
H900 C886 0.960 . S
H901 C887 0.961 . S
H902 C887 0.961 1_545 S
H903 C887 0.961 . S
H904 C888 0.931 . S
H905 C893 0.930 . S
H906 C894 0.956 . S
H907 C894 0.961 . S
H908 C894 0.961 . S
H909 C895 0.958 . S
H910 C895 0.961 1_565 S
H911 C895 0.960 1_565 S
C912 C913 1.391 . S
C912 C914 1.394 . S
C912 H928 0.931 . S
C913 C912 1.391 . S
C913 C917 1.376 . S
C914 C912 1.394 . S
C914 C915 1.369 . S
C914 C918 1.531 . S
C915 C914 1.369 . S
C915 C916 1.410 . S
C915 C923 1.503 . S
C916 C915 1.410 . S
C916 C917 1.392 . S
C916 C919 1.511 . S
C917 C913 1.376 . S
C917 C916 1.392 . S
C917 H929 0.929 . S
C918 C914 1.531 . S
C918 H930 0.960 . S
C918 H931 0.962 . S
C918 H932 0.960 . S
C919 C916 1.511 . S
C919 H933 0.961 . S
C919 H934 0.961 . S
C919 H935 0.961 . S
C920 C921 1.370 . S
C920 C922 1.363 . S
C920 H936 0.931 . S
C921 C920 1.370 . S
C921 C925 1.408 . S
C922 C920 1.363 . S
C922 C923 1.370 . S
C922 C926 1.524 . S
C923 C915 1.503 . S
C923 C922 1.370 . S
C923 C924 1.403 . S
C924 C923 1.403 . S
C924 C925 1.404 . S
C924 C927 1.539 . S
C925 C921 1.408 . S
C925 C924 1.404 . S
C925 H937 0.930 . S
C926 C922 1.524 . S
C926 H938 0.956 . S
C926 H939 0.961 . S
C926 H940 0.961 . S
C927 C924 1.539 . S
C927 H941 0.958 . S
C927 H942 0.961 . S
C927 H943 0.960 . S
H928 C912 0.931 . S
H929 C917 0.929 . S
H930 C918 0.960 . S
H931 C918 0.962 . S
H932 C918 0.960 . S
H933 C919 0.961 . S
H934 C919 0.961 . S
H935 C919 0.961 . S
H936 C920 0.931 . S
H937 C925 0.930 . S
H938 C926 0.956 . S
H939 C926 0.961 . S
H940 C926 0.961 . S
H941 C927 0.958 . S
H942 C927 0.961 . S
H943 C927 0.960 . S
C944 C945 1.391 . S
C944 C946 1.394 . S
C944 H960 0.931 . S
C945 C944 1.391 . S
C945 C949 1.376 . S
C946 C944 1.394 . S
C946 C947 1.369 . S
C946 C950 1.531 . S
C947 C946 1.369 . S
C947 C948 1.410 . S
C947 C955 1.503 . S
C948 C947 1.410 . S
C948 C949 1.392 . S
C948 C951 1.511 . S
C949 C945 1.376 . S
C949 C948 1.392 . S
C949 H961 0.929 . S
C950 C946 1.531 . S
C950 H962 0.960 . S
C950 H963 0.962 . S
C950 H964 0.960 . S
C951 C948 1.511 . S
C951 H965 0.961 . S
C951 H966 0.961 . S
C951 H967 0.961 . S
C952 C953 1.370 . S
C952 C954 1.363 . S
C952 H968 0.931 . S
C953 C952 1.370 . S
C953 C957 1.408 . S
C954 C952 1.363 . S
C954 C955 1.370 . S
C954 C958 1.524 . S
C955 C947 1.503 . S
C955 C954 1.370 . S
C955 C956 1.403 . S
C956 C955 1.403 . S
C956 C957 1.404 . S
C956 C959 1.539 . S
C957 C953 1.408 . S
C957 C956 1.404 . S
C957 H969 0.930 . S
C958 C954 1.524 . S
C958 H970 0.956 . S
C958 H971 0.961 . S
C958 H972 0.961 . S
C959 C956 1.539 . S
C959 H973 0.958 . S
C959 H974 0.961 . S
C959 H975 0.960 . S
H960 C944 0.931 . S
H961 C949 0.929 . S
H962 C950 0.960 . S
H963 C950 0.962 . S
H964 C950 0.960 . S
H965 C951 0.961 . S
H966 C951 0.961 . S
H967 C951 0.961 . S
H968 C952 0.931 . S
H969 C957 0.930 . S
H970 C958 0.956 . S
H971 C958 0.961 . S
H972 C958 0.961 . S
H973 C959 0.958 . S
H974 C959 0.961 . S
H975 C959 0.960 . S
C976 C977 1.391 . S
C976 C978 1.394 . S
C976 H992 0.931 . S
C977 C976 1.391 . S
C977 C981 1.376 . S
C978 C976 1.394 . S
C978 C979 1.369 . S
C978 C982 1.531 . S
C979 C978 1.369 . S
C979 C980 1.410 . S
C979 C987 1.503 . S
C980 C979 1.410 . S
C980 C981 1.392 . S
C980 C983 1.511 . S
C981 C977 1.376 . S
C981 C980 1.392 . S
C981 H993 0.929 . S
C982 C978 1.531 . S
C982 H994 0.960 . S
C982 H995 0.962 . S
C982 H996 0.960 . S
C983 C980 1.511 . S
C983 H997 0.961 . S
C983 H998 0.961 . S
C983 H999 0.961 . S
C984 C985 1.370 . S
C984 C986 1.363 . S
C984 H1000 0.931 . S
C985 C984 1.370 . S
C985 C989 1.408 . S
C986 C984 1.363 . S
C986 C987 1.370 . S
C986 C990 1.524 . S
C987 C979 1.503 . S
C987 C986 1.370 . S
C987 C988 1.403 . S
C988 C987 1.403 . S
C988 C989 1.404 . S
C988 C991 1.539 . S
C989 C985 1.408 . S
C989 C988 1.404 . S
C989 H1001 0.930 . S
C990 C986 1.524 . S
C990 H1002 0.956 . S
C990 H1003 0.961 . S
C990 H1004 0.961 . S
C991 C988 1.539 . S
C991 H1005 0.958 . S
C991 H1006 0.961 . S
C991 H1007 0.960 . S
H992 C976 0.931 . S
H993 C981 0.929 . S
H994 C982 0.960 . S
H995 C982 0.962 . S
H996 C982 0.960 . S
H997 C983 0.961 . S
H998 C983 0.961 . S
H999 C983 0.961 . S
H1000 C984 0.931 . S
H1001 C989 0.930 . S
H1002 C990 0.956 . S
H1003 C990 0.961 . S
H1004 C990 0.961 . S
H1005 C991 0.958 . S
H1006 C991 0.961 . S
H1007 C991 0.960 . S
C1008 C1009 1.391 . S
C1008 C1010 1.394 . S
C1008 H1024 0.931 . S
C1009 C1008 1.391 . S
C1009 C1013 1.376 . S
C1010 C1008 1.394 . S
C1010 C1011 1.369 . S
C1010 C1014 1.531 . S
C1011 C1010 1.369 . S
C1011 C1012 1.410 . S
C1011 C1019 1.503 . S
C1012 C1011 1.410 . S
C1012 C1013 1.392 . S
C1012 C1015 1.511 . S
C1013 C1009 1.376 . S
C1013 C1012 1.392 . S
C1013 H1025 0.929 . S
C1014 C1010 1.531 . S
C1014 H1026 0.960 . S
C1014 H1027 0.962 . S
C1014 H1028 0.960 . S
C1015 C1012 1.511 . S
C1015 H1029 0.961 . S
C1015 H1030 0.961 . S
C1015 H1031 0.961 . S
C1016 C1017 1.370 . S
C1016 C1018 1.363 . S
C1016 H1032 0.931 . S
C1017 C1016 1.370 . S
C1017 C1021 1.408 . S
C1018 C1016 1.363 . S
C1018 C1019 1.370 . S
C1018 C1022 1.524 . S
C1019 C1011 1.503 . S
C1019 C1018 1.370 . S
C1019 C1020 1.403 . S
C1020 C1019 1.403 . S
C1020 C1021 1.404 . S
C1020 C1023 1.539 . S
C1021 C1017 1.408 . S
C1021 C1020 1.404 . S
C1021 H1033 0.930 . S
C1022 C1018 1.524 . S
C1022 H1034 0.956 . S
C1022 H1035 0.961 . S
C1022 H1036 0.961 . S
C1023 C1020 1.539 . S
C1023 H1037 0.958 . S
C1023 H1038 0.961 . S
C1023 H1039 0.960 . S
H1024 C1008 0.931 . S
H1025 C1013 0.929 . S
H1026 C1014 0.960 . S
H1027 C1014 0.962 . S
H1028 C1014 0.960 . S
H1029 C1015 0.961 . S
H1030 C1015 0.961 . S
H1031 C1015 0.961 . S
H1032 C1016 0.931 . S
H1033 C1021 0.930 . S
H1034 C1022 0.956 . S
H1035 C1022 0.961 . S
H1036 C1022 0.961 . S
H1037 C1023 0.958 . S
H1038 C1023 0.961 . S
H1039 C1023 0.960 . S
C1040 C1041 1.391 1_655 S
C1040 C1042 1.394 . S
C1040 H1056 0.931 . S
C1041 C1040 1.391 1_455 S
C1041 C1045 1.376 . S
C1042 C1040 1.394 . S
C1042 C1043 1.369 1_655 S
C1042 C1046 1.531 . S
C1043 C1042 1.369 1_455 S
C1043 C1044 1.410 . S
C1043 C1051 1.503 . S
C1044 C1043 1.410 . S
C1044 C1045 1.392 . S
C1044 C1047 1.511 . S
C1045 C1041 1.376 . S
C1045 C1044 1.392 . S
C1045 H1057 0.929 . S
C1046 C1042 1.531 . S
C1046 H1058 0.960 . S
C1046 H1059 0.962 . S
C1046 H1060 0.960 . S
C1047 C1044 1.511 . S
C1047 H1061 0.961 . S
C1047 H1062 0.961 . S
C1047 H1063 0.961 . S
C1048 C1049 1.370 . S
C1048 C1050 1.363 . S
C1048 H1064 0.931 . S
C1049 C1048 1.370 . S
C1049 C1053 1.408 . S
C1050 C1048 1.363 . S
C1050 C1051 1.370 . S
C1050 C1054 1.524 . S
C1051 C1043 1.503 . S
C1051 C1050 1.370 . S
C1051 C1052 1.403 . S
C1052 C1051 1.403 . S
C1052 C1053 1.404 . S
C1052 C1055 1.539 . S
C1053 C1049 1.408 . S
C1053 C1052 1.404 . S
C1053 H1065 0.930 . S
C1054 C1050 1.524 . S
C1054 H1066 0.956 . S
C1054 H1067 0.961 . S
C1054 H1068 0.961 . S
C1055 C1052 1.539 . S
C1055 H1069 0.958 1_455 S
C1055 H1070 0.961 . S
C1055 H1071 0.960 . S
H1056 C1040 0.931 . S
H1057 C1045 0.929 . S
H1058 C1046 0.960 . S
H1059 C1046 0.962 . S
H1060 C1046 0.960 . S
H1061 C1047 0.961 . S
H1062 C1047 0.961 . S
H1063 C1047 0.961 . S
H1064 C1048 0.931 . S
H1065 C1053 0.930 . S
H1066 C1054 0.956 . S
H1067 C1054 0.961 . S
H1068 C1054 0.961 . S
H1069 C1055 0.958 1_655 S
H1070 C1055 0.961 . S
H1071 C1055 0.960 . S
C1072 C1073 1.391 . S
C1072 C1074 1.394 . S
C1072 H1088 0.931 . S
C1073 C1072 1.391 . S
C1073 C1077 1.376 1_545 S
C1074 C1072 1.394 . S
C1074 C1075 1.369 . S
C1074 C1078 1.531 . S
C1075 C1074 1.369 . S
C1075 C1076 1.418 . S
C1075 C1083 1.503 . S
C1076 C1075 1.418 . S
C1076 C1077 1.389 1_545 S
C1076 C1079 1.506 1_545 S
C1077 C1073 1.376 1_565 S
C1077 C1076 1.389 1_565 S
C1077 H1089 0.929 . S
C1078 C1074 1.531 . S
C1078 H1090 0.960 . S
C1078 H1091 0.962 . S
C1078 H1092 0.960 . S
C1079 C1076 1.506 1_565 S
C1079 H1093 0.961 . S
C1079 H1094 0.961 . S
C1079 H1095 0.961 . S
C1080 C1081 1.370 . S
C1080 C1082 1.363 . S
C1080 H1096 0.931 . S
C1081 C1080 1.370 . S
C1081 C1085 1.408 . S
C1082 C1080 1.363 . S
C1082 C1083 1.370 . S
C1082 C1086 1.524 . S
C1083 C1075 1.503 . S
C1083 C1082 1.370 . S
C1083 C1084 1.403 . S
C1084 C1083 1.403 . S
C1084 C1085 1.404 . S
C1084 C1087 1.539 . S
C1085 C1081 1.408 . S
C1085 C1084 1.404 . S
C1085 H1097 0.930 . S
C1086 C1082 1.524 . S
C1086 H1098 0.956 . S
C1086 H1099 0.961 . S
C1086 H1100 0.961 . S
C1087 C1084 1.539 . S
C1087 H1101 0.958 . S
C1087 H1102 0.961 . S
C1087 H1103 0.960 . S
H1088 C1072 0.931 . S
H1089 C1077 0.929 . S
H1090 C1078 0.960 . S
H1091 C1078 0.962 . S
H1092 C1078 0.960 . S
H1093 C1079 0.961 . S
H1094 C1079 0.961 . S
H1095 C1079 0.961 . S
H1096 C1080 0.931 . S
H1097 C1085 0.930 . S
H1098 C1086 0.956 . S
H1099 C1086 0.961 . S
H1100 C1086 0.961 . S
H1101 C1087 0.958 . S
H1102 C1087 0.961 . S
H1103 C1087 0.960 . S
C1104 C1105 1.391 1_455 S
C1104 C1106 1.394 1_455 S
C1104 H1120 0.931 . S
C1105 C1104 1.391 1_655 S
C1105 C1109 1.376 . S
C1106 C1104 1.394 1_655 S
C1106 C1107 1.369 . S
C1106 C1110 1.531 1_655 S
C1107 C1106 1.369 . S
C1107 C1108 1.410 . S
C1107 C1115 1.503 . S
C1108 C1107 1.410 . S
C1108 C1109 1.392 . S
C1108 C1111 1.511 . S
C1109 C1105 1.376 . S
C1109 C1108 1.392 . S
C1109 H1121 0.929 . S
C1110 C1106 1.531 1_455 S
C1110 H1122 0.960 . S
C1110 H1123 0.962 . S
C1110 H1124 0.960 . S
C1111 C1108 1.511 . S
C1111 H1125 0.961 . S
C1111 H1126 0.961 . S
C1111 H1127 0.961 . S
C1112 C1113 1.370 . S
C1112 C1114 1.363 . S
C1112 H1128 0.931 . S
C1113 C1112 1.370 . S
C1113 C1117 1.408 . S
C1114 C1112 1.363 . S
C1114 C1115 1.370 . S
C1114 C1118 1.524 . S
C1115 C1107 1.503 . S
C1115 C1114 1.370 . S
C1115 C1116 1.403 . S
C1116 C1115 1.403 . S
C1116 C1117 1.404 . S
C1116 C1119 1.539 . S
C1117 C1113 1.408 . S
C1117 C1116 1.404 . S
C1117 H1129 0.930 . S
C1118 C1114 1.524 . S
C1118 H1130 0.974 . S
C1118 H1131 0.961 . S
C1118 H1132 0.961 . S
C1119 C1116 1.539 . S
C1119 H1133 0.958 . S
C1119 H1134 0.961 . S
C1119 H1135 0.960 . S
H1120 C1104 0.931 . S
H1121 C1109 0.929 . S
H1122 C1110 0.960 . S
H1123 C1110 0.962 . S
H1124 C1110 0.960 . S
H1125 C1111 0.961 . S
H1126 C1111 0.961 . S
H1127 C1111 0.961 . S
H1128 C1112 0.931 . S
H1129 C1117 0.930 . S
H1130 C1118 0.974 . S
H1131 C1118 0.961 . S
H1132 C1118 0.961 . S
H1133 C1119 0.958 . S
H1134 C1119 0.961 . S
H1135 C1119 0.960 . S
C1136 C1137 1.391 . S
C1136 C1138 1.394 . S
C1136 H1152 0.931 1_565 S
C1137 C1136 1.391 . S
C1137 C1141 1.376 . S
C1138 C1136 1.394 . S
C1138 C1139 1.369 . S
C1138 C1142 1.531 . S
C1139 C1138 1.369 . S
C1139 C1140 1.410 . S
C1139 C1147 1.503 . S
C1140 C1139 1.410 . S
C1140 C1141 1.392 . S
C1140 C1143 1.511 . S
C1141 C1137 1.376 . S
C1141 C1140 1.392 . S
C1141 H1153 0.929 . S
C1142 C1138 1.531 . S
C1142 H1154 0.960 . S
C1142 H1155 0.967 . S
C1142 H1156 0.960 . S
C1143 C1140 1.511 . S
C1143 H1157 0.961 . S
C1143 H1158 0.961 . S
C1143 H1159 0.961 . S
C1144 C1145 1.370 . S
C1144 C1146 1.363 . S
C1144 H1160 0.931 . S
C1145 C1144 1.370 . S
C1145 C1149 1.408 . S
C1146 C1144 1.363 . S
C1146 C1147 1.370 . S
C1146 C1150 1.524 1_565 S
C1147 C1139 1.503 . S
C1147 C1146 1.370 . S
C1147 C1148 1.403 . S
C1148 C1147 1.403 . S
C1148 C1149 1.404 . S
C1148 C1151 1.539 . S
C1149 C1145 1.408 . S
C1149 C1148 1.404 . S
C1149 H1161 0.930 . S
C1150 C1146 1.524 1_545 S
C1150 H1162 0.956 . S
C1150 H1163 0.961 . S
C1150 H1164 0.961 . S
C1151 C1148 1.539 . S
C1151 H1165 0.958 . S
C1151 H1166 0.961 . S
C1151 H1167 0.960 . S
H1152 C1136 0.931 1_545 S
H1153 C1141 0.929 . S
H1154 C1142 0.960 . S
H1155 C1142 0.967 . S
H1156 C1142 0.960 . S
H1157 C1143 0.961 . S
H1158 C1143 0.961 . S
H1159 C1143 0.961 . S
H1160 C1144 0.931 . S
H1161 C1149 0.930 . S
H1162 C1150 0.956 . S
H1163 C1150 0.961 . S
H1164 C1150 0.961 . S
H1165 C1151 0.958 . S
H1166 C1151 0.961 . S
H1167 C1151 0.960 . S
C1168 C1169 1.391 . S
C1168 C1170 1.394 . S
C1168 H1184 0.931 . S
C1169 C1168 1.391 . S
C1169 C1173 1.376 . S
C1170 C1168 1.394 . S
C1170 C1171 1.369 . S
C1170 C1174 1.531 . S
C1171 C1170 1.369 . S
C1171 C1172 1.410 . S
C1171 C1179 1.503 . S
C1172 C1171 1.410 . S
C1172 C1173 1.392 . S
C1172 C1175 1.511 . S
C1173 C1169 1.376 . S
C1173 C1172 1.392 . S
C1173 H1185 0.929 . S
C1174 C1170 1.531 . S
C1174 H1186 0.960 . S
C1174 H1187 0.962 . S
C1174 H1188 0.960 . S
C1175 C1172 1.511 . S
C1175 H1189 0.961 . S
C1175 H1190 0.961 . S
C1175 H1191 0.961 . S
C1176 C1177 1.370 . S
C1176 C1178 1.363 . S
C1176 H1192 0.931 . S
C1177 C1176 1.370 . S
C1177 C1181 1.408 . S
C1178 C1176 1.363 . S
C1178 C1179 1.370 . S
C1178 C1182 1.524 . S
C1179 C1171 1.503 . S
C1179 C1178 1.370 . S
C1179 C1180 1.403 . S
C1180 C1179 1.403 . S
C1180 C1181 1.404 . S
C1180 C1183 1.539 . S
C1181 C1177 1.408 . S
C1181 C1180 1.404 . S
C1181 H1193 0.930 . S
C1182 C1178 1.524 . S
C1182 H1194 0.956 . S
C1182 H1195 0.961 . S
C1182 H1196 0.961 . S
C1183 C1180 1.539 . S
C1183 H1197 0.958 . S
C1183 H1198 0.961 . S
C1183 H1199 0.960 . S
H1184 C1168 0.931 . S
H1185 C1173 0.929 . S
H1186 C1174 0.960 . S
H1187 C1174 0.962 . S
H1188 C1174 0.960 . S
H1189 C1175 0.961 . S
H1190 C1175 0.961 . S
H1191 C1175 0.961 . S
H1192 C1176 0.931 . S
H1193 C1181 0.930 . S
H1194 C1182 0.956 . S
H1195 C1182 0.961 . S
H1196 C1182 0.961 . S
H1197 C1183 0.958 . S
H1198 C1183 0.961 . S
H1199 C1183 0.960 . S
C1200 C1201 1.391 . S
C1200 C1202 1.394 . S
C1200 H1216 0.931 . S
C1201 C1200 1.391 . S
C1201 C1205 1.376 . S
C1202 C1200 1.394 . S
C1202 C1203 1.369 . S
C1202 C1206 1.531 . S
C1203 C1202 1.369 . S
C1203 C1204 1.410 . S
C1203 C1211 1.503 . S
C1204 C1203 1.410 . S
C1204 C1205 1.392 . S
C1204 C1207 1.511 . S
C1205 C1201 1.376 . S
C1205 C1204 1.392 . S
C1205 H1217 0.929 . S
C1206 C1202 1.531 . S
C1206 H1218 0.960 . S
C1206 H1219 0.962 . S
C1206 H1220 0.960 . S
C1207 C1204 1.511 . S
C1207 H1221 0.961 . S
C1207 H1222 0.961 . S
C1207 H1223 0.961 . S
C1208 C1209 1.370 . S
C1208 C1210 1.363 . S
C1208 H1224 0.931 . S
C1209 C1208 1.370 . S
C1209 C1213 1.408 . S
C1210 C1208 1.363 . S
C1210 C1211 1.370 . S
C1210 C1214 1.524 . S
C1211 C1203 1.503 . S
C1211 C1210 1.370 . S
C1211 C1212 1.403 . S
C1212 C1211 1.403 . S
C1212 C1213 1.404 . S
C1212 C1215 1.539 . S
C1213 C1209 1.408 . S
C1213 C1212 1.404 . S
C1213 H1225 0.930 . S
C1214 C1210 1.524 . S
C1214 H1226 0.956 . S
C1214 H1227 0.961 . S
C1214 H1228 0.961 . S
C1215 C1212 1.539 . S
C1215 H1229 0.958 . S
C1215 H1230 0.961 . S
C1215 H1231 0.960 . S
H1216 C1200 0.931 . S
H1217 C1205 0.929 . S
H1218 C1206 0.960 . S
H1219 C1206 0.962 . S
H1220 C1206 0.960 . S
H1221 C1207 0.961 . S
H1222 C1207 0.961 . S
H1223 C1207 0.961 . S
H1224 C1208 0.931 . S
H1225 C1213 0.930 . S
H1226 C1214 0.956 . S
H1227 C1214 0.961 . S
H1228 C1214 0.961 . S
H1229 C1215 0.958 . S
H1230 C1215 0.961 . S
H1231 C1215 0.960 . S
C1232 C1233 1.391 . S
C1232 C1234 1.394 . S
C1232 H1248 0.931 . S
C1233 C1232 1.391 . S
C1233 C1237 1.376 . S
C1234 C1232 1.394 . S
C1234 C1235 1.369 . S
C1234 C1238 1.531 . S
C1235 C1234 1.369 . S
C1235 C1236 1.410 . S
C1235 C1243 1.503 1_556 S
C1236 C1235 1.410 . S
C1236 C1237 1.392 . S
C1236 C1239 1.511 . S
C1237 C1233 1.376 . S
C1237 C1236 1.392 . S
C1237 H1249 0.929 . S
C1238 C1234 1.531 . S
C1238 H1250 0.960 . S
C1238 H1251 0.962 . S
C1238 H1252 0.960 . S
C1239 C1236 1.511 . S
C1239 H1253 0.961 . S
C1239 H1254 0.961 1_556 S
C1239 H1255 0.961 . S
C1240 C1241 1.370 . S
C1240 C1242 1.363 . S
C1240 H1256 0.931 . S
C1241 C1240 1.370 . S
C1241 C1245 1.408 . S
C1242 C1240 1.363 . S
C1242 C1243 1.370 . S
C1242 C1246 1.524 . S
C1243 C1235 1.503 1_554 S
C1243 C1242 1.370 . S
C1243 C1244 1.403 1_554 S
C1244 C1243 1.403 1_556 S
C1244 C1245 1.404 1_556 S
C1244 C1247 1.539 . S
C1245 C1241 1.408 . S
C1245 C1244 1.404 1_554 S
C1245 H1257 0.930 . S
C1246 C1242 1.524 . S
C1246 H1258 0.956 . S
C1246 H1259 0.961 . S
C1246 H1260 0.961 . S
C1247 C1244 1.539 . S
C1247 H1261 0.958 . S
C1247 H1262 0.961 . S
C1247 H1263 0.960 . S
H1248 C1232 0.931 . S
H1249 C1237 0.929 . S
H1250 C1238 0.960 . S
H1251 C1238 0.962 . S
H1252 C1238 0.960 . S
H1253 C1239 0.961 . S
H1254 C1239 0.961 1_554 S
H1255 C1239 0.961 . S
H1256 C1240 0.931 . S
H1257 C1245 0.930 . S
H1258 C1246 0.956 . S
H1259 C1246 0.961 . S
H1260 C1246 0.961 . S
H1261 C1247 0.958 . S
H1262 C1247 0.961 . S
H1263 C1247 0.960 . S
C1264 C1265 1.391 . S
C1264 C1266 1.394 . S
C1264 H1280 0.931 . S
C1265 C1264 1.391 . S
C1265 C1269 1.376 . S
C1266 C1264 1.394 . S
C1266 C1267 1.369 . S
C1266 C1270 1.531 . S
C1267 C1266 1.369 . S
C1267 C1268 1.410 . S
C1267 C1275 1.503 1_556 S
C1268 C1267 1.410 . S
C1268 C1269 1.392 . S
C1268 C1271 1.511 1_556 S
C1269 C1265 1.376 . S
C1269 C1268 1.392 . S
C1269 H1281 0.929 . S
C1270 C1266 1.531 . S
C1270 H1282 0.960 . S
C1270 H1283 0.962 . S
C1270 H1284 0.960 . S
C1271 C1268 1.511 1_554 S
C1271 H1285 0.961 . S
C1271 H1286 0.961 . S
C1271 H1287 0.961 . S
C1272 C1273 1.370 . S
C1272 C1274 1.363 . S
C1272 H1288 0.931 . S
C1273 C1272 1.370 . S
C1273 C1277 1.408 . S
C1274 C1272 1.363 . S
C1274 C1275 1.370 . S
C1274 C1278 1.524 1_554 S
C1275 C1267 1.503 1_554 S
C1275 C1274 1.370 . S
C1275 C1276 1.403 . S
C1276 C1275 1.403 . S
C1276 C1277 1.404 . S
C1276 C1279 1.539 . S
C1277 C1273 1.408 . S
C1277 C1276 1.404 . S
C1277 H1289 0.930 . S
C1278 C1274 1.524 1_556 S
C1278 H1290 0.956 . S
C1278 H1291 0.961 . S
C1278 H1292 0.961 . S
C1279 C1276 1.539 . S
C1279 H1293 0.958 . S
C1279 H1294 0.961 . S
C1279 H1295 0.960 . S
H1280 C1264 0.931 . S
H1281 C1269 0.929 . S
H1282 C1270 0.960 . S
H1283 C1270 0.962 . S
H1284 C1270 0.960 . S
H1285 C1271 0.961 . S
H1286 C1271 0.961 . S
H1287 C1271 0.961 . S
H1288 C1272 0.931 . S
H1289 C1277 0.930 . S
H1290 C1278 0.956 . S
H1291 C1278 0.961 . S
H1292 C1278 0.961 . S
H1293 C1279 0.958 . S
H1294 C1279 0.961 . S
H1295 C1279 0.960 . S
C1296 C1297 1.391 . S
C1296 C1298 1.394 . S
C1296 H1312 0.931 . S
C1297 C1296 1.391 . S
C1297 C1301 1.376 . S
C1298 C1296 1.394 . S
C1298 C1299 1.369 . S
C1298 C1302 1.531 . S
C1299 C1298 1.369 . S
C1299 C1300 1.410 . S
C1299 C1307 1.503 1_556 S
C1300 C1299 1.410 . S
C1300 C1301 1.392 . S
C1300 C1303 1.511 1_556 S
C1301 C1297 1.376 . S
C1301 C1300 1.392 . S
C1301 H1313 0.929 . S
C1302 C1298 1.531 . S
C1302 H1314 0.960 . S
C1302 H1315 0.962 . S
C1302 H1316 0.960 . S
C1303 C1300 1.511 1_554 S
C1303 H1317 0.961 . S
C1303 H1318 0.961 . S
C1303 H1319 0.961 . S
C1304 C1305 1.370 . S
C1304 C1306 1.363 . S
C1304 H1320 0.931 . S
C1305 C1304 1.370 . S
C1305 C1309 1.408 . S
C1306 C1304 1.363 . S
C1306 C1307 1.370 . S
C1306 C1310 1.524 . S
C1307 C1299 1.503 1_554 S
C1307 C1306 1.370 . S
C1307 C1308 1.403 . S
C1308 C1307 1.403 . S
C1308 C1309 1.411 . S
C1308 C1311 1.532 1_554 S
C1309 C1305 1.408 . S
C1309 C1308 1.411 . S
C1309 H1321 0.930 . S
C1310 C1306 1.524 . S
C1310 H1322 0.956 . S
C1310 H1323 0.961 . S
C1310 H1324 0.961 . S
C1311 C1308 1.532 1_556 S
C1311 H1325 0.958 . S
C1311 H1326 0.961 . S
C1311 H1327 0.960 . S
H1312 C1296 0.931 . S
H1313 C1301 0.929 . S
H1314 C1302 0.960 . S
H1315 C1302 0.962 . S
H1316 C1302 0.960 . S
H1317 C1303 0.961 . S
H1318 C1303 0.961 . S
H1319 C1303 0.961 . S
H1320 C1304 0.931 . S
H1321 C1309 0.930 . S
H1322 C1310 0.956 . S
H1323 C1310 0.961 . S
H1324 C1310 0.961 . S
H1325 C1311 0.958 . S
H1326 C1311 0.961 . S
H1327 C1311 0.960 . S
C1328 C1329 1.391 . S
C1328 C1330 1.394 . S
C1328 H1344 0.931 . S
C1329 C1328 1.391 . S
C1329 C1333 1.376 . S
C1330 C1328 1.394 . S
C1330 C1331 1.369 . S
C1330 C1334 1.531 . S
C1331 C1330 1.369 . S
C1331 C1332 1.410 . S
C1331 C1339 1.503 1_556 S
C1332 C1331 1.410 . S
C1332 C1333 1.392 . S
C1332 C1335 1.511 . S
C1333 C1329 1.376 . S
C1333 C1332 1.392 . S
C1333 H1345 0.929 . S
C1334 C1330 1.531 . S
C1334 H1346 0.960 1_556 S
C1334 H1347 0.962 . S
C1334 H1348 0.960 . S
C1335 C1332 1.511 . S
C1335 H1349 0.961 . S
C1335 H1350 0.961 . S
C1335 H1351 0.961 1_556 S
C1336 C1337 1.370 . S
C1336 C1338 1.363 1_554 S
C1336 H1352 0.931 . S
C1337 C1336 1.370 . S
C1337 C1341 1.408 . S
C1338 C1336 1.363 1_556 S
C1338 C1339 1.370 1_556 S
C1338 C1342 1.524 . S
C1339 C1331 1.503 1_554 S
C1339 C1338 1.370 1_554 S
C1339 C1340 1.403 . S
C1340 C1339 1.403 . S
C1340 C1341 1.404 . S
C1340 C1343 1.539 . S
C1341 C1337 1.408 . S
C1341 C1340 1.404 . S
C1341 H1353 0.930 . S
C1342 C1338 1.524 . S
C1342 H1354 0.956 . S
C1342 H1355 0.961 . S
C1342 H1356 0.961 . S
C1343 C1340 1.539 . S
C1343 H1357 0.958 . S
C1343 H1358 0.961 . S
C1343 H1359 0.960 . S
H1344 C1328 0.931 . S
H1345 C1333 0.929 . S
H1346 C1334 0.960 1_554 S
H1347 C1334 0.962 . S
H1348 C1334 0.960 . S
H1349 C1335 0.961 . S
H1350 C1335 0.961 . S
H1351 C1335 0.961 1_554 S
H1352 C1336 0.931 . S
H1353 C1341 0.930 . S
H1354 C1342 0.956 . S
H1355 C1342 0.961 . S
H1356 C1342 0.961 . S
H1357 C1343 0.958 . S
H1358 C1343 0.961 . S
H1359 C1343 0.960 . S
C1360 C1361 1.391 . S
C1360 C1362 1.394 . S
C1360 H1376 0.931 . S
C1361 C1360 1.391 . S
C1361 C1365 1.376 . S
C1362 C1360 1.394 . S
C1362 C1363 1.369 . S
C1362 C1366 1.531 . S
C1363 C1362 1.369 . S
C1363 C1364 1.410 . S
C1363 C1371 1.503 . S
C1364 C1363 1.410 . S
C1364 C1365 1.392 . S
C1364 C1367 1.511 . S
C1365 C1361 1.376 . S
C1365 C1364 1.392 . S
C1365 H1377 0.929 . S
C1366 C1362 1.531 . S
C1366 H1378 0.960 . S
C1366 H1379 0.962 . S
C1366 H1380 0.960 . S
C1367 C1364 1.511 . S
C1367 H1381 0.961 . S
C1367 H1382 0.961 . S
C1367 H1383 0.961 . S
C1368 C1369 1.370 . S
C1368 C1370 1.363 . S
C1368 H1384 0.931 . S
C1369 C1368 1.370 . S
C1369 C1373 1.408 . S
C1370 C1368 1.363 . S
C1370 C1371 1.370 . S
C1370 C1374 1.524 . S
C1371 C1363 1.503 . S
C1371 C1370 1.370 . S
C1371 C1372 1.403 . S
C1372 C1371 1.403 . S
C1372 C1373 1.404 . S
C1372 C1375 1.539 . S
C1373 C1369 1.408 . S
C1373 C1372 1.404 . S
C1373 H1385 0.930 . S
C1374 C1370 1.524 . S
C1374 H1386 0.956 . S
C1374 H1387 0.961 . S
C1374 H1388 0.961 . S
C1375 C1372 1.539 . S
C1375 H1389 0.958 . S
C1375 H1390 0.961 . S
C1375 H1391 0.960 . S
H1376 C1360 0.931 . S
H1377 C1365 0.929 . S
H1378 C1366 0.960 . S
H1379 C1366 0.962 . S
H1380 C1366 0.960 . S
H1381 C1367 0.961 . S
H1382 C1367 0.961 . S
H1383 C1367 0.961 . S
H1384 C1368 0.931 . S
H1385 C1373 0.930 . S
H1386 C1374 0.956 . S
H1387 C1374 0.961 . S
H1388 C1374 0.961 . S
H1389 C1375 0.958 . S
H1390 C1375 0.961 . S
H1391 C1375 0.960 . S
C1392 C1393 1.391 . S
C1392 C1394 1.394 . S
C1392 H1408 0.931 . S
C1393 C1392 1.391 . S
C1393 C1397 1.376 . S
C1394 C1392 1.394 . S
C1394 C1395 1.369 . S
C1394 C1398 1.531 . S
C1395 C1394 1.369 . S
C1395 C1396 1.410 . S
C1395 C1403 1.503 . S
C1396 C1395 1.410 . S
C1396 C1397 1.392 . S
C1396 C1399 1.511 . S
C1397 C1393 1.376 . S
C1397 C1396 1.392 . S
C1397 H1409 0.929 . S
C1398 C1394 1.531 . S
C1398 H1410 0.960 . S
C1398 H1411 0.962 . S
C1398 H1412 0.960 . S
C1399 C1396 1.511 . S
C1399 H1413 0.961 . S
C1399 H1414 0.961 . S
C1399 H1415 0.961 . S
C1400 C1401 1.370 . S
C1400 C1402 1.363 . S
C1400 H1416 0.931 . S
C1401 C1400 1.370 . S
C1401 C1405 1.408 . S
C1402 C1400 1.363 . S
C1402 C1403 1.370 . S
C1402 C1406 1.524 . S
C1403 C1395 1.503 . S
C1403 C1402 1.370 . S
C1403 C1404 1.403 . S
C1404 C1403 1.403 . S
C1404 C1405 1.404 . S
C1404 C1407 1.539 . S
C1405 C1401 1.408 . S
C1405 C1404 1.404 . S
C1405 H1417 0.930 . S
C1406 C1402 1.524 . S
C1406 H1418 0.956 . S
C1406 H1419 0.961 . S
C1406 H1420 0.961 . S
C1407 C1404 1.539 . S
C1407 H1421 0.958 . S
C1407 H1422 0.961 . S
C1407 H1423 0.960 . S
H1408 C1392 0.931 . S
H1409 C1397 0.929 . S
H1410 C1398 0.960 . S
H1411 C1398 0.962 . S
H1412 C1398 0.960 . S
H1413 C1399 0.961 . S
H1414 C1399 0.961 . S
H1415 C1399 0.961 . S
H1416 C1400 0.931 . S
H1417 C1405 0.930 . S
H1418 C1406 0.956 . S
H1419 C1406 0.961 . S
H1420 C1406 0.961 . S
H1421 C1407 0.958 . S
H1422 C1407 0.961 . S
H1423 C1407 0.960 . S
C1424 C1425 1.391 . S
C1424 C1426 1.394 . S
C1424 H1440 0.931 . S
C1425 C1424 1.391 . S
C1425 C1429 1.376 . S
C1426 C1424 1.394 . S
C1426 C1427 1.369 . S
C1426 C1430 1.531 . S
C1427 C1426 1.369 . S
C1427 C1428 1.410 . S
C1427 C1435 1.503 . S
C1428 C1427 1.410 . S
C1428 C1429 1.392 . S
C1428 C1431 1.511 . S
C1429 C1425 1.376 . S
C1429 C1428 1.392 . S
C1429 H1441 0.929 . S
C1430 C1426 1.531 . S
C1430 H1442 0.960 . S
C1430 H1443 0.962 . S
C1430 H1444 0.960 . S
C1431 C1428 1.511 . S
C1431 H1445 0.961 . S
C1431 H1446 0.961 . S
C1431 H1447 0.961 . S
C1432 C1433 1.370 . S
C1432 C1434 1.363 . S
C1432 H1448 0.931 . S
C1433 C1432 1.370 . S
C1433 C1437 1.408 . S
C1434 C1432 1.363 . S
C1434 C1435 1.370 . S
C1434 C1438 1.524 . S
C1435 C1427 1.503 . S
C1435 C1434 1.370 . S
C1435 C1436 1.403 . S
C1436 C1435 1.403 . S
C1436 C1437 1.404 . S
C1436 C1439 1.539 . S
C1437 C1433 1.408 . S
C1437 C1436 1.404 . S
C1437 H1449 0.930 . S
C1438 C1434 1.524 . S
C1438 H1450 0.956 . S
C1438 H1451 0.961 . S
C1438 H1452 0.961 . S
C1439 C1436 1.539 . S
C1439 H1453 0.958 . S
C1439 H1454 0.961 . S
C1439 H1455 0.960 . S
H1440 C1424 0.931 . S
H1441 C1429 0.929 . S
H1442 C1430 0.960 . S
H1443 C1430 0.962 . S
H1444 C1430 0.960 . S
H1445 C1431 0.961 . S
H1446 C1431 0.961 . S
H1447 C1431 0.961 . S
H1448 C1432 0.931 . S
H1449 C1437 0.930 . S
H1450 C1438 0.956 . S
H1451 C1438 0.961 . S
H1452 C1438 0.961 . S
H1453 C1439 0.958 . S
H1454 C1439 0.961 . S
H1455 C1439 0.960 . S
C1456 C1457 1.391 . S
C1456 C1458 1.394 . S
C1456 H1472 0.931 . S
C1457 C1456 1.391 . S
C1457 C1461 1.376 . S
C1458 C1456 1.394 . S
C1458 C1459 1.369 . S
C1458 C1462 1.531 . S
C1459 C1458 1.369 . S
C1459 C1460 1.410 . S
C1459 C1467 1.503 . S
C1460 C1459 1.410 . S
C1460 C1461 1.392 . S
C1460 C1463 1.511 . S
C1461 C1457 1.376 . S
C1461 C1460 1.392 . S
C1461 H1473 0.929 . S
C1462 C1458 1.531 . S
C1462 H1474 0.960 . S
C1462 H1475 0.962 . S
C1462 H1476 0.960 . S
C1463 C1460 1.511 . S
C1463 H1477 0.961 . S
C1463 H1478 0.961 . S
C1463 H1479 0.961 . S
C1464 C1465 1.370 . S
C1464 C1466 1.363 . S
C1464 H1480 0.931 . S
C1465 C1464 1.370 . S
C1465 C1469 1.408 . S
C1466 C1464 1.363 . S
C1466 C1467 1.370 . S
C1466 C1470 1.524 . S
C1467 C1459 1.503 . S
C1467 C1466 1.370 . S
C1467 C1468 1.403 . S
C1468 C1467 1.403 . S
C1468 C1469 1.404 . S
C1468 C1471 1.539 . S
C1469 C1465 1.408 . S
C1469 C1468 1.404 . S
C1469 H1481 0.930 . S
C1470 C1466 1.524 . S
C1470 H1482 0.956 . S
C1470 H1483 0.961 . S
C1470 H1484 0.961 . S
C1471 C1468 1.539 . S
C1471 H1485 0.958 . S
C1471 H1486 0.961 . S
C1471 H1487 0.960 . S
H1472 C1456 0.931 . S
H1473 C1461 0.929 . S
H1474 C1462 0.960 . S
H1475 C1462 0.962 . S
H1476 C1462 0.960 . S
H1477 C1463 0.961 . S
H1478 C1463 0.961 . S
H1479 C1463 0.961 . S
H1480 C1464 0.931 . S
H1481 C1469 0.930 . S
H1482 C1470 0.956 . S
H1483 C1470 0.961 . S
H1484 C1470 0.961 . S
H1485 C1471 0.958 . S
H1486 C1471 0.961 . S
H1487 C1471 0.960 . S
C1488 C1489 1.391 . S
C1488 C1490 1.394 . S
C1488 H1504 0.931 . S
C1489 C1488 1.391 . S
C1489 C1493 1.376 . S
C1490 C1488 1.394 . S
C1490 C1491 1.369 . S
C1490 C1494 1.531 . S
C1491 C1490 1.369 . S
C1491 C1492 1.410 . S
C1491 C1499 1.503 1_556 S
C1492 C1491 1.410 . S
C1492 C1493 1.392 . S
C1492 C1495 1.511 1_556 S
C1493 C1489 1.376 . S
C1493 C1492 1.392 . S
C1493 H1505 0.929 . S
C1494 C1490 1.531 . S
C1494 H1506 0.960 . S
C1494 H1507 0.962 . S
C1494 H1508 0.960 . S
C1495 C1492 1.511 1_554 S
C1495 H1509 0.961 . S
C1495 H1510 0.961 . S
C1495 H1511 0.961 . S
C1496 C1497 1.370 . S
C1496 C1498 1.363 . S
C1496 H1512 0.931 . S
C1497 C1496 1.370 . S
C1497 C1501 1.408 . S
C1498 C1496 1.363 . S
C1498 C1499 1.370 . S
C1498 C1502 1.524 . S
C1499 C1491 1.503 1_554 S
C1499 C1498 1.370 . S
C1499 C1500 1.403 . S
C1500 C1499 1.403 . S
C1500 C1501 1.404 . S
C1500 C1503 1.539 1_554 S
C1501 C1497 1.408 . S
C1501 C1500 1.404 . S
C1501 H1513 0.930 . S
C1502 C1498 1.524 . S
C1502 H1514 0.956 . S
C1502 H1515 0.961 . S
C1502 H1516 0.961 . S
C1503 C1500 1.539 1_556 S
C1503 H1517 0.958 . S
C1503 H1518 0.961 . S
C1503 H1519 0.960 . S
H1504 C1488 0.931 . S
H1505 C1493 0.929 . S
H1506 C1494 0.960 . S
H1507 C1494 0.962 . S
H1508 C1494 0.960 . S
H1509 C1495 0.961 . S
H1510 C1495 0.961 . S
H1511 C1495 0.961 . S
H1512 C1496 0.931 . S
H1513 C1501 0.930 . S
H1514 C1502 0.956 . S
H1515 C1502 0.961 . S
H1516 C1502 0.961 . S
H1517 C1503 0.958 . S
H1518 C1503 0.961 . S
H1519 C1503 0.960 . S
C1520 C1521 1.391 . S
C1520 C1522 1.394 1_556 S
C1520 H1536 0.931 . S
C1521 C1520 1.391 . S
C1521 C1525 1.376 . S
C1522 C1520 1.394 1_554 S
C1522 C1523 1.369 1_554 S
C1522 C1526 1.531 . S
C1523 C1522 1.369 1_556 S
C1523 C1524 1.410 . S
C1523 C1531 1.503 1_556 S
C1524 C1523 1.410 . S
C1524 C1525 1.392 . S
C1524 C1527 1.511 . S
C1525 C1521 1.376 . S
C1525 C1524 1.392 . S
C1525 H1537 0.929 . S
C1526 C1522 1.531 . S
C1526 H1538 0.960 . S
C1526 H1539 0.962 . S
C1526 H1540 0.960 . S
C1527 C1524 1.511 . S
C1527 H1541 0.961 . S
C1527 H1542 0.961 . S
C1527 H1543 0.961 . S
C1528 C1529 1.370 . S
C1528 C1530 1.363 . S
C1528 H1544 0.931 . S
C1529 C1528 1.370 . S
C1529 C1533 1.408 . S
C1530 C1528 1.363 . S
C1530 C1531 1.370 . S
C1530 C1534 1.524 1_554 S
C1531 C1523 1.503 1_554 S
C1531 C1530 1.370 . S
C1531 C1532 1.403 . S
C1532 C1531 1.403 . S
C1532 C1533 1.404 . S
C1532 C1535 1.539 . S
C1533 C1529 1.408 . S
C1533 C1532 1.404 . S
C1533 H1545 0.930 . S
C1534 C1530 1.524 1_556 S
C1534 H1546 0.956 . S
C1534 H1547 0.961 . S
C1534 H1548 0.961 . S
C1535 C1532 1.539 . S
C1535 H1549 0.958 . S
C1535 H1550 0.961 . S
C1535 H1551 0.960 . S
H1536 C1520 0.931 . S
H1537 C1525 0.929 . S
H1538 C1526 0.960 . S
H1539 C1526 0.962 . S
H1540 C1526 0.960 . S
H1541 C1527 0.961 . S
H1542 C1527 0.961 . S
H1543 C1527 0.961 . S
H1544 C1528 0.931 . S
H1545 C1533 0.930 . S
H1546 C1534 0.956 . S
H1547 C1534 0.961 . S
H1548 C1534 0.961 . S
H1549 C1535 0.958 . S
H1550 C1535 0.961 . S
H1551 C1535 0.960 . S
C1552 C1553 1.391 . S
C1552 C1554 1.394 . S
C1552 H1568 0.931 . S
C1553 C1552 1.391 . S
C1553 C1557 1.376 . S
C1554 C1552 1.394 . S
C1554 C1555 1.369 . S
C1554 C1558 1.531 . S
C1555 C1554 1.369 . S
C1555 C1556 1.410 . S
C1555 C1563 1.503 1_556 S
C1556 C1555 1.410 . S
C1556 C1557 1.392 . S
C1556 C1559 1.504 1_556 S
C1557 C1553 1.376 . S
C1557 C1556 1.392 . S
C1557 H1569 0.929 . S
C1558 C1554 1.531 . S
C1558 H1570 0.960 . S
C1558 H1571 0.962 . S
C1558 H1572 0.960 . S
C1559 C1556 1.504 1_554 S
C1559 H1573 0.962 . S
C1559 H1574 0.976 . S
C1559 H1575 0.952 1_554 S
C1560 C1561 1.370 . S
C1560 C1562 1.363 . S
C1560 H1576 0.931 . S
C1561 C1560 1.370 . S
C1561 C1565 1.408 . S
C1562 C1560 1.363 . S
C1562 C1563 1.370 . S
C1562 C1566 1.524 . S
C1563 C1555 1.503 1_554 S
C1563 C1562 1.370 . S
C1563 C1564 1.403 . S
C1564 C1563 1.403 . S
C1564 C1565 1.404 . S
C1564 C1567 1.539 1_554 S
C1565 C1561 1.408 . S
C1565 C1564 1.404 . S
C1565 H1577 0.930 . S
C1566 C1562 1.524 . S
C1566 H1578 0.956 . S
C1566 H1579 0.961 . S
C1566 H1580 0.961 . S
C1567 C1564 1.539 1_556 S
C1567 H1581 0.958 . S
C1567 H1582 0.961 . S
C1567 H1583 0.960 . S
H1568 C1552 0.931 . S
H1569 C1557 0.929 . S
H1570 C1558 0.960 . S
H1571 C1558 0.962 . S
H1572 C1558 0.960 . S
H1573 C1559 0.962 . S
H1574 C1559 0.976 . S
H1575 C1559 0.952 1_556 S
H1576 C1560 0.931 . S
H1577 C1565 0.930 . S
H1578 C1566 0.956 . S
H1579 C1566 0.961 . S
H1580 C1566 0.961 . S
H1581 C1567 0.958 . S
H1582 C1567 0.961 . S
H1583 C1567 0.960 . S
C1584 C1585 1.391 . S
C1584 C1586 1.394 . S
C1584 H1600 0.931 . S
C1585 C1584 1.391 . S
C1585 C1589 1.376 . S
C1586 C1584 1.394 . S
C1586 C1587 1.369 . S
C1586 C1590 1.531 . S
C1587 C1586 1.369 . S
C1587 C1588 1.410 . S
C1587 C1595 1.503 1_554 S
C1588 C1587 1.410 . S
C1588 C1589 1.392 . S
C1588 C1591 1.511 1_554 S
C1589 C1585 1.376 . S
C1589 C1588 1.392 . S
C1589 H1601 0.929 . S
C1590 C1586 1.531 . S
C1590 H1602 0.960 . S
C1590 H1603 0.962 . S
C1590 H1604 0.960 . S
C1591 C1588 1.511 1_556 S
C1591 H1605 0.946 1_556 S
C1591 H1606 0.961 . S
C1591 H1607 0.961 . S
C1592 C1593 1.370 . S
C1592 C1594 1.358 1_556 S
C1592 H1608 0.931 . S
C1593 C1592 1.370 . S
C1593 C1597 1.408 . S
C1594 C1592 1.358 1_554 S
C1594 C1595 1.368 1_554 S
C1594 C1598 1.531 . S
C1595 C1587 1.503 1_556 S
C1595 C1594 1.368 1_556 S
C1595 C1596 1.403 . S
C1596 C1595 1.403 . S
C1596 C1597 1.404 . S
C1596 C1599 1.539 . S
C1597 C1593 1.408 . S
C1597 C1596 1.404 . S
C1597 H1609 0.930 . S
C1598 C1594 1.531 . S
C1598 H1610 0.956 . S
C1598 H1611 0.961 . S
C1598 H1612 0.961 . S
C1599 C1596 1.539 . S
C1599 H1613 0.958 . S
C1599 H1614 0.961 . S
C1599 H1615 0.960 . S
H1600 C1584 0.931 . S
H1601 C1589 0.929 . S
H1602 C1590 0.960 . S
H1603 C1590 0.962 . S
H1604 C1590 0.960 . S
H1605 C1591 0.946 1_554 S
H1606 C1591 0.961 . S
H1607 C1591 0.961 . S
H1608 C1592 0.931 . S
H1609 C1597 0.930 . S
H1610 C1598 0.956 . S
H1611 C1598 0.961 . S
H1612 C1598 0.961 . S
H1613 C1599 0.958 . S
H1614 C1599 0.961 . S
H1615 C1599 0.960 . S
C1616 C1617 1.391 . S
C1616 C1618 1.394 . S
C1616 H1632 0.931 . S
C1617 C1616 1.391 . S
C1617 C1621 1.376 . S
C1618 C1616 1.394 . S
C1618 C1619 1.369 . S
C1618 C1622 1.531 . S
C1619 C1618 1.369 . S
C1619 C1620 1.410 . S
C1619 C1627 1.503 . S
C1620 C1619 1.410 . S
C1620 C1621 1.392 . S
C1620 C1623 1.511 . S
C1621 C1617 1.376 . S
C1621 C1620 1.392 . S
C1621 H1633 0.929 . S
C1622 C1618 1.531 . S
C1622 H1634 0.960 . S
C1622 H1635 0.962 . S
C1622 H1636 0.960 . S
C1623 C1620 1.511 . S
C1623 H1637 0.961 . S
C1623 H1638 0.961 . S
C1623 H1639 0.961 . S
C1624 C1625 1.370 . S
C1624 C1626 1.363 . S
C1624 H1640 0.931 . S
C1625 C1624 1.370 . S
C1625 C1629 1.408 . S
C1626 C1624 1.363 . S
C1626 C1627 1.370 . S
C1626 C1630 1.524 . S
C1627 C1619 1.503 . S
C1627 C1626 1.370 . S
C1627 C1628 1.403 . S
C1628 C1627 1.403 . S
C1628 C1629 1.404 . S
C1628 C1631 1.539 . S
C1629 C1625 1.408 . S
C1629 C1628 1.404 . S
C1629 H1641 0.930 . S
C1630 C1626 1.524 . S
C1630 H1642 0.956 . S
C1630 H1643 0.961 . S
C1630 H1644 0.961 . S
C1631 C1628 1.539 . S
C1631 H1645 0.958 . S
C1631 H1646 0.961 . S
C1631 H1647 0.960 . S
H1632 C1616 0.931 . S
H1633 C1621 0.929 . S
H1634 C1622 0.960 . S
H1635 C1622 0.962 . S
H1636 C1622 0.960 . S
H1637 C1623 0.961 . S
H1638 C1623 0.961 . S
H1639 C1623 0.961 . S
H1640 C1624 0.931 . S
H1641 C1629 0.930 . S
H1642 C1630 0.956 . S
H1643 C1630 0.961 . S
H1644 C1630 0.961 . S
H1645 C1631 0.958 . S
H1646 C1631 0.961 . S
H1647 C1631 0.960 . S
C1648 C1649 1.391 . S
C1648 C1650 1.394 . S
C1648 H1664 0.931 . S
C1649 C1648 1.391 . S
C1649 C1653 1.376 . S
C1650 C1648 1.394 . S
C1650 C1651 1.369 . S
C1650 C1654 1.531 . S
C1651 C1650 1.369 . S
C1651 C1652 1.410 . S
C1651 C1659 1.503 . S
C1652 C1651 1.410 . S
C1652 C1653 1.392 . S
C1652 C1655 1.511 . S
C1653 C1649 1.376 . S
C1653 C1652 1.392 . S
C1653 H1665 0.929 . S
C1654 C1650 1.531 . S
C1654 H1666 0.960 . S
C1654 H1667 0.962 . S
C1654 H1668 0.960 . S
C1655 C1652 1.511 . S
C1655 H1669 0.961 . S
C1655 H1670 0.961 . S
C1655 H1671 0.961 . S
C1656 C1657 1.370 . S
C1656 C1658 1.363 . S
C1656 H1672 0.931 . S
C1657 C1656 1.370 . S
C1657 C1661 1.408 . S
C1658 C1656 1.363 . S
C1658 C1659 1.370 . S
C1658 C1662 1.524 . S
C1659 C1651 1.503 . S
C1659 C1658 1.370 . S
C1659 C1660 1.403 . S
C1660 C1659 1.403 . S
C1660 C1661 1.404 . S
C1660 C1663 1.539 . S
C1661 C1657 1.408 . S
C1661 C1660 1.404 . S
C1661 H1673 0.930 . S
C1662 C1658 1.524 . S
C1662 H1674 0.956 . S
C1662 H1675 0.961 . S
C1662 H1676 0.961 . S
C1663 C1660 1.539 . S
C1663 H1677 0.958 . S
C1663 H1678 0.961 . S
C1663 H1679 0.960 . S
H1664 C1648 0.931 . S
H1665 C1653 0.929 . S
H1666 C1654 0.960 . S
H1667 C1654 0.962 . S
H1668 C1654 0.960 . S
H1669 C1655 0.961 . S
H1670 C1655 0.961 . S
H1671 C1655 0.961 . S
H1672 C1656 0.931 . S
H1673 C1661 0.930 . S
H1674 C1662 0.956 . S
H1675 C1662 0.961 . S
H1676 C1662 0.961 . S
H1677 C1663 0.958 . S
H1678 C1663 0.961 . S
H1679 C1663 0.960 . S
C1680 C1681 1.391 . S
C1680 C1682 1.394 . S
C1680 H1696 0.931 . S
C1681 C1680 1.391 . S
C1681 C1685 1.376 . S
C1682 C1680 1.394 . S
C1682 C1683 1.369 . S
C1682 C1686 1.531 . S
C1683 C1682 1.369 . S
C1683 C1684 1.410 . S
C1683 C1691 1.503 . S
C1684 C1683 1.410 . S
C1684 C1685 1.392 . S
C1684 C1687 1.511 . S
C1685 C1681 1.376 . S
C1685 C1684 1.392 . S
C1685 H1697 0.929 . S
C1686 C1682 1.531 . S
C1686 H1698 0.960 . S
C1686 H1699 0.962 . S
C1686 H1700 0.960 . S
C1687 C1684 1.511 . S
C1687 H1701 0.961 . S
C1687 H1702 0.961 . S
C1687 H1703 0.961 . S
C1688 C1689 1.370 . S
C1688 C1690 1.363 . S
C1688 H1704 0.931 . S
C1689 C1688 1.370 . S
C1689 C1693 1.408 . S
C1690 C1688 1.363 . S
C1690 C1691 1.370 . S
C1690 C1694 1.524 . S
C1691 C1683 1.503 . S
C1691 C1690 1.370 . S
C1691 C1692 1.403 . S
C1692 C1691 1.403 . S
C1692 C1693 1.404 . S
C1692 C1695 1.539 . S
C1693 C1689 1.408 . S
C1693 C1692 1.404 . S
C1693 H1705 0.930 . S
C1694 C1690 1.524 . S
C1694 H1706 0.956 . S
C1694 H1707 0.961 . S
C1694 H1708 0.961 . S
C1695 C1692 1.539 . S
C1695 H1709 0.958 . S
C1695 H1710 0.961 . S
C1695 H1711 0.960 . S
H1696 C1680 0.931 . S
H1697 C1685 0.929 . S
H1698 C1686 0.960 . S
H1699 C1686 0.962 . S
H1700 C1686 0.960 . S
H1701 C1687 0.961 . S
H1702 C1687 0.961 . S
H1703 C1687 0.961 . S
H1704 C1688 0.931 . S
H1705 C1693 0.930 . S
H1706 C1694 0.956 . S
H1707 C1694 0.961 . S
H1708 C1694 0.961 . S
H1709 C1695 0.958 . S
H1710 C1695 0.961 . S
H1711 C1695 0.960 . S
C1712 C1713 1.391 . S
C1712 C1714 1.394 . S
C1712 H1728 0.931 . S
C1713 C1712 1.391 . S
C1713 C1717 1.376 . S
C1714 C1712 1.394 . S
C1714 C1715 1.369 . S
C1714 C1718 1.531 . S
C1715 C1714 1.369 . S
C1715 C1716 1.410 . S
C1715 C1723 1.503 . S
C1716 C1715 1.410 . S
C1716 C1717 1.392 . S
C1716 C1719 1.511 . S
C1717 C1713 1.376 . S
C1717 C1716 1.392 . S
C1717 H1729 0.929 . S
C1718 C1714 1.531 . S
C1718 H1730 0.960 . S
C1718 H1731 0.962 . S
C1718 H1732 0.960 . S
C1719 C1716 1.511 . S
C1719 H1733 0.961 . S
C1719 H1734 0.961 . S
C1719 H1735 0.961 . S
C1720 C1721 1.370 . S
C1720 C1722 1.363 . S
C1720 H1736 0.931 . S
C1721 C1720 1.370 . S
C1721 C1725 1.408 . S
C1722 C1720 1.363 . S
C1722 C1723 1.370 . S
C1722 C1726 1.524 . S
C1723 C1715 1.503 . S
C1723 C1722 1.370 . S
C1723 C1724 1.403 . S
C1724 C1723 1.403 . S
C1724 C1725 1.404 . S
C1724 C1727 1.539 . S
C1725 C1721 1.408 . S
C1725 C1724 1.404 . S
C1725 H1737 0.930 . S
C1726 C1722 1.524 . S
C1726 H1738 0.956 . S
C1726 H1739 0.961 . S
C1726 H1740 0.961 . S
C1727 C1724 1.539 . S
C1727 H1741 0.958 . S
C1727 H1742 0.961 . S
C1727 H1743 0.960 . S
H1728 C1712 0.931 . S
H1729 C1717 0.929 . S
H1730 C1718 0.960 . S
H1731 C1718 0.962 . S
H1732 C1718 0.960 . S
H1733 C1719 0.961 . S
H1734 C1719 0.961 . S
H1735 C1719 0.961 . S
H1736 C1720 0.931 . S
H1737 C1725 0.930 . S
H1738 C1726 0.956 . S
H1739 C1726 0.961 . S
H1740 C1726 0.961 . S
H1741 C1727 0.958 . S
H1742 C1727 0.961 . S
H1743 C1727 0.960 . S
C1744 C1745 1.391 . S
C1744 C1746 1.394 . S
C1744 H1760 0.931 . S
C1745 C1744 1.391 . S
C1745 C1749 1.376 . S
C1746 C1744 1.394 . S
C1746 C1747 1.369 . S
C1746 C1750 1.531 . S
C1747 C1746 1.369 . S
C1747 C1748 1.410 . S
C1747 C1755 1.503 . S
C1748 C1747 1.410 . S
C1748 C1749 1.392 . S
C1748 C1751 1.511 . S
C1749 C1745 1.376 . S
C1749 C1748 1.392 . S
C1749 H1761 0.929 . S
C1750 C1746 1.531 . S
C1750 H1762 0.960 . S
C1750 H1763 0.962 . S
C1750 H1764 0.960 . S
C1751 C1748 1.511 . S
C1751 H1765 0.961 . S
C1751 H1766 0.961 . S
C1751 H1767 0.961 . S
C1752 C1753 1.370 . S
C1752 C1754 1.363 . S
C1752 H1768 0.931 . S
C1753 C1752 1.370 . S
C1753 C1757 1.408 . S
C1754 C1752 1.363 . S
C1754 C1755 1.370 . S
C1754 C1758 1.524 . S
C1755 C1747 1.503 . S
C1755 C1754 1.370 . S
C1755 C1756 1.403 . S
C1756 C1755 1.403 . S
C1756 C1757 1.404 . S
C1756 C1759 1.539 . S
C1757 C1753 1.408 . S
C1757 C1756 1.404 . S
C1757 H1769 0.930 . S
C1758 C1754 1.524 . S
C1758 H1770 0.956 . S
C1758 H1771 0.961 . S
C1758 H1772 0.961 . S
C1759 C1756 1.539 . S
C1759 H1773 0.958 . S
C1759 H1774 0.961 . S
C1759 H1775 0.960 . S
H1760 C1744 0.931 . S
H1761 C1749 0.929 . S
H1762 C1750 0.960 . S
H1763 C1750 0.962 . S
H1764 C1750 0.960 . S
H1765 C1751 0.961 . S
H1766 C1751 0.961 . S
H1767 C1751 0.961 . S
H1768 C1752 0.931 . S
H1769 C1757 0.930 . S
H1770 C1758 0.956 . S
H1771 C1758 0.961 . S
H1772 C1758 0.961 . S
H1773 C1759 0.958 . S
H1774 C1759 0.961 . S
H1775 C1759 0.960 . S
C1776 C1777 1.391 . S
C1776 C1778 1.394 . S
C1776 H1792 0.931 . S
C1777 C1776 1.391 . S
C1777 C1781 1.376 . S
C1778 C1776 1.394 . S
C1778 C1779 1.369 . S
C1778 C1782 1.531 . S
C1779 C1778 1.369 . S
C1779 C1780 1.410 . S
C1779 C1787 1.503 . S
C1780 C1779 1.410 . S
C1780 C1781 1.392 . S
C1780 C1783 1.511 . S
C1781 C1777 1.376 . S
C1781 C1780 1.392 . S
C1781 H1793 0.929 . S
C1782 C1778 1.531 . S
C1782 H1794 0.960 . S
C1782 H1795 0.962 . S
C1782 H1796 0.960 . S
C1783 C1780 1.511 . S
C1783 H1797 0.961 . S
C1783 H1798 0.961 . S
C1783 H1799 0.961 . S
C1784 C1785 1.370 . S
C1784 C1786 1.363 . S
C1784 H1800 0.931 . S
C1785 C1784 1.370 . S
C1785 C1789 1.408 . S
C1786 C1784 1.363 . S
C1786 C1787 1.370 . S
C1786 C1790 1.524 . S
C1787 C1779 1.503 . S
C1787 C1786 1.370 . S
C1787 C1788 1.403 . S
C1788 C1787 1.403 . S
C1788 C1789 1.404 . S
C1788 C1791 1.539 . S
C1789 C1785 1.408 . S
C1789 C1788 1.404 . S
C1789 H1801 0.930 . S
C1790 C1786 1.524 . S
C1790 H1802 0.956 . S
C1790 H1803 0.961 . S
C1790 H1804 0.961 . S
C1791 C1788 1.539 . S
C1791 H1805 0.958 . S
C1791 H1806 0.961 . S
C1791 H1807 0.960 . S
H1792 C1776 0.931 . S
H1793 C1781 0.929 . S
H1794 C1782 0.960 . S
H1795 C1782 0.962 . S
H1796 C1782 0.960 . S
H1797 C1783 0.961 . S
H1798 C1783 0.961 . S
H1799 C1783 0.961 . S
H1800 C1784 0.931 . S
H1801 C1789 0.930 . S
H1802 C1790 0.956 . S
H1803 C1790 0.961 . S
H1804 C1790 0.961 . S
H1805 C1791 0.958 . S
H1806 C1791 0.961 . S
H1807 C1791 0.960 . S
C1808 C1809 1.391 . S
C1808 C1810 1.394 . S
C1808 H1824 0.931 . S
C1809 C1808 1.391 . S
C1809 C1813 1.376 . S
C1810 C1808 1.394 . S
C1810 C1811 1.369 . S
C1810 C1814 1.531 . S
C1811 C1810 1.369 . S
C1811 C1812 1.410 . S
C1811 C1819 1.503 . S
C1812 C1811 1.410 . S
C1812 C1813 1.392 . S
C1812 C1815 1.511 . S
C1813 C1809 1.376 . S
C1813 C1812 1.392 . S
C1813 H1825 0.929 . S
C1814 C1810 1.531 . S
C1814 H1826 0.960 . S
C1814 H1827 0.962 . S
C1814 H1828 0.960 . S
C1815 C1812 1.511 . S
C1815 H1829 0.961 . S
C1815 H1830 0.961 . S
C1815 H1831 0.961 . S
C1816 C1817 1.370 . S
C1816 C1818 1.363 . S
C1816 H1832 0.931 . S
C1817 C1816 1.370 . S
C1817 C1821 1.408 . S
C1818 C1816 1.363 . S
C1818 C1819 1.370 . S
C1818 C1822 1.524 . S
C1819 C1811 1.503 . S
C1819 C1818 1.370 . S
C1819 C1820 1.403 . S
C1820 C1819 1.403 . S
C1820 C1821 1.404 . S
C1820 C1823 1.539 . S
C1821 C1817 1.408 . S
C1821 C1820 1.404 . S
C1821 H1833 0.930 . S
C1822 C1818 1.524 . S
C1822 H1834 0.956 . S
C1822 H1835 0.961 . S
C1822 H1836 0.961 . S
C1823 C1820 1.539 . S
C1823 H1837 0.958 . S
C1823 H1838 0.961 . S
C1823 H1839 0.960 . S
H1824 C1808 0.931 . S
H1825 C1813 0.929 . S
H1826 C1814 0.960 . S
H1827 C1814 0.962 . S
H1828 C1814 0.960 . S
H1829 C1815 0.961 . S
H1830 C1815 0.961 . S
H1831 C1815 0.961 . S
H1832 C1816 0.931 . S
H1833 C1821 0.930 . S
H1834 C1822 0.956 . S
H1835 C1822 0.961 . S
H1836 C1822 0.961 . S
H1837 C1823 0.958 . S
H1838 C1823 0.961 . S
H1839 C1823 0.960 . S
C1840 C1841 1.391 . S
C1840 C1842 1.394 . S
C1840 H1856 0.931 . S
C1841 C1840 1.391 . S
C1841 C1845 1.376 . S
C1842 C1840 1.394 . S
C1842 C1843 1.369 . S
C1842 C1846 1.531 . S
C1843 C1842 1.369 . S
C1843 C1844 1.410 . S
C1843 C1851 1.503 . S
C1844 C1843 1.410 . S
C1844 C1845 1.392 . S
C1844 C1847 1.511 . S
C1845 C1841 1.376 . S
C1845 C1844 1.392 . S
C1845 H1857 0.929 . S
C1846 C1842 1.531 . S
C1846 H1858 0.960 . S
C1846 H1859 0.962 . S
C1846 H1860 0.960 . S
C1847 C1844 1.511 . S
C1847 H1861 0.961 . S
C1847 H1862 0.961 . S
C1847 H1863 0.961 . S
C1848 C1849 1.370 . S
C1848 C1850 1.363 . S
C1848 H1864 0.931 . S
C1849 C1848 1.370 . S
C1849 C1853 1.408 . S
C1850 C1848 1.363 . S
C1850 C1851 1.370 . S
C1850 C1854 1.524 . S
C1851 C1843 1.503 . S
C1851 C1850 1.370 . S
C1851 C1852 1.403 . S
C1852 C1851 1.403 . S
C1852 C1853 1.404 . S
C1852 C1855 1.539 . S
C1853 C1849 1.408 . S
C1853 C1852 1.404 . S
C1853 H1865 0.930 . S
C1854 C1850 1.524 . S
C1854 H1866 0.956 . S
C1854 H1867 0.961 . S
C1854 H1868 0.961 . S
C1855 C1852 1.539 . S
C1855 H1869 0.958 . S
C1855 H1870 0.961 . S
C1855 H1871 0.960 . S
H1856 C1840 0.931 . S
H1857 C1845 0.929 . S
H1858 C1846 0.960 . S
H1859 C1846 0.962 . S
H1860 C1846 0.960 . S
H1861 C1847 0.961 . S
H1862 C1847 0.961 . S
H1863 C1847 0.961 . S
H1864 C1848 0.931 . S
H1865 C1853 0.930 . S
H1866 C1854 0.956 . S
H1867 C1854 0.961 . S
H1868 C1854 0.961 . S
H1869 C1855 0.958 . S
H1870 C1855 0.961 . S
H1871 C1855 0.960 . S
C1872 C1873 1.391 . S
C1872 C1874 1.394 . S
C1872 H1888 0.931 . S
C1873 C1872 1.391 . S
C1873 C1877 1.376 . S
C1874 C1872 1.394 . S
C1874 C1875 1.369 . S
C1874 C1878 1.531 . S
C1875 C1874 1.369 . S
C1875 C1876 1.410 . S
C1875 C1883 1.503 . S
C1876 C1875 1.410 . S
C1876 C1877 1.392 . S
C1876 C1879 1.511 . S
C1877 C1873 1.376 . S
C1877 C1876 1.392 . S
C1877 H1889 0.929 . S
C1878 C1874 1.531 . S
C1878 H1890 0.960 . S
C1878 H1891 0.962 . S
C1878 H1892 0.960 . S
C1879 C1876 1.511 . S
C1879 H1893 0.961 . S
C1879 H1894 0.961 . S
C1879 H1895 0.961 . S
C1880 C1881 1.370 . S
C1880 C1882 1.363 . S
C1880 H1896 0.931 . S
C1881 C1880 1.370 . S
C1881 C1885 1.408 . S
C1882 C1880 1.363 . S
C1882 C1883 1.370 . S
C1882 C1886 1.524 . S
C1883 C1875 1.503 . S
C1883 C1882 1.370 . S
C1883 C1884 1.403 . S
C1884 C1883 1.403 . S
C1884 C1885 1.404 . S
C1884 C1887 1.539 . S
C1885 C1881 1.408 . S
C1885 C1884 1.404 . S
C1885 H1897 0.930 . S
C1886 C1882 1.524 . S
C1886 H1898 0.956 . S
C1886 H1899 0.961 . S
C1886 H1900 0.961 . S
C1887 C1884 1.539 . S
C1887 H1901 0.958 . S
C1887 H1902 0.961 . S
C1887 H1903 0.960 . S
H1888 C1872 0.931 . S
H1889 C1877 0.929 . S
H1890 C1878 0.960 . S
H1891 C1878 0.962 . S
H1892 C1878 0.960 . S
H1893 C1879 0.961 . S
H1894 C1879 0.961 . S
H1895 C1879 0.961 . S
H1896 C1880 0.931 . S
H1897 C1885 0.930 . S
H1898 C1886 0.956 . S
H1899 C1886 0.961 . S
H1900 C1886 0.961 . S
H1901 C1887 0.958 . S
H1902 C1887 0.961 . S
H1903 C1887 0.960 . S
C1904 C1905 1.391 . S
C1904 C1906 1.394 . S
C1904 H1920 0.931 . S
C1905 C1904 1.391 . S
C1905 C1909 1.376 . S
C1906 C1904 1.394 . S
C1906 C1907 1.369 . S
C1906 C1910 1.531 . S
C1907 C1906 1.369 . S
C1907 C1908 1.410 . S
C1907 C1915 1.503 . S
C1908 C1907 1.410 . S
C1908 C1909 1.392 . S
C1908 C1911 1.511 . S
C1909 C1905 1.376 . S
C1909 C1908 1.392 . S
C1909 H1921 0.929 . S
C1910 C1906 1.531 . S
C1910 H1922 0.960 . S
C1910 H1923 0.962 . S
C1910 H1924 0.960 . S
C1911 C1908 1.511 . S
C1911 H1925 0.961 . S
C1911 H1926 0.961 . S
C1911 H1927 0.961 . S
C1912 C1913 1.370 . S
C1912 C1914 1.363 . S
C1912 H1928 0.931 . S
C1913 C1912 1.370 . S
C1913 C1917 1.408 . S
C1914 C1912 1.363 . S
C1914 C1915 1.370 . S
C1914 C1918 1.524 . S
C1915 C1907 1.503 . S
C1915 C1914 1.370 . S
C1915 C1916 1.403 . S
C1916 C1915 1.403 . S
C1916 C1917 1.404 . S
C1916 C1919 1.539 . S
C1917 C1913 1.408 . S
C1917 C1916 1.404 . S
C1917 H1929 0.930 . S
C1918 C1914 1.524 . S
C1918 H1930 0.956 . S
C1918 H1931 0.961 . S
C1918 H1932 0.961 . S
C1919 C1916 1.539 . S
C1919 H1933 0.958 . S
C1919 H1934 0.961 . S
C1919 H1935 0.960 . S
H1920 C1904 0.931 . S
H1921 C1909 0.929 . S
H1922 C1910 0.960 . S
H1923 C1910 0.962 . S
H1924 C1910 0.960 . S
H1925 C1911 0.961 . S
H1926 C1911 0.961 . S
H1927 C1911 0.961 . S
H1928 C1912 0.931 . S
H1929 C1917 0.930 . S
H1930 C1918 0.956 . S
H1931 C1918 0.961 . S
H1932 C1918 0.961 . S
H1933 C1919 0.958 . S
H1934 C1919 0.961 . S
H1935 C1919 0.960 . S
C1936 C1937 1.391 . S
C1936 C1938 1.394 . S
C1936 H1952 0.931 . S
C1937 C1936 1.391 . S
C1937 C1941 1.376 . S
C1938 C1936 1.394 . S
C1938 C1939 1.369 . S
C1938 C1942 1.531 . S
C1939 C1938 1.369 . S
C1939 C1940 1.410 . S
C1939 C1947 1.503 . S
C1940 C1939 1.410 . S
C1940 C1941 1.392 . S
C1940 C1943 1.511 . S
C1941 C1937 1.376 . S
C1941 C1940 1.392 . S
C1941 H1953 0.929 . S
C1942 C1938 1.531 . S
C1942 H1954 0.960 . S
C1942 H1955 0.962 . S
C1942 H1956 0.960 . S
C1943 C1940 1.511 . S
C1943 H1957 0.961 . S
C1943 H1958 0.961 . S
C1943 H1959 0.961 . S
C1944 C1945 1.370 . S
C1944 C1946 1.363 . S
C1944 H1960 0.931 . S
C1945 C1944 1.370 . S
C1945 C1949 1.408 . S
C1946 C1944 1.363 . S
C1946 C1947 1.370 . S
C1946 C1950 1.524 . S
C1947 C1939 1.503 . S
C1947 C1946 1.370 . S
C1947 C1948 1.403 . S
C1948 C1947 1.403 . S
C1948 C1949 1.404 . S
C1948 C1951 1.539 . S
C1949 C1945 1.408 . S
C1949 C1948 1.404 . S
C1949 H1961 0.930 . S
C1950 C1946 1.524 . S
C1950 H1962 0.956 . S
C1950 H1963 0.961 . S
C1950 H1964 0.961 . S
C1951 C1948 1.539 . S
C1951 H1965 0.958 . S
C1951 H1966 0.961 . S
C1951 H1967 0.960 . S
H1952 C1936 0.931 . S
H1953 C1941 0.929 . S
H1954 C1942 0.960 . S
H1955 C1942 0.962 . S
H1956 C1942 0.960 . S
H1957 C1943 0.961 . S
H1958 C1943 0.961 . S
H1959 C1943 0.961 . S
H1960 C1944 0.931 . S
H1961 C1949 0.930 . S
H1962 C1950 0.956 . S
H1963 C1950 0.961 . S
H1964 C1950 0.961 . S
H1965 C1951 0.958 . S
H1966 C1951 0.961 . S
H1967 C1951 0.960 . S
C1968 C1969 1.391 . S
C1968 C1970 1.394 . S
C1968 H1984 0.931 . S
C1969 C1968 1.391 . S
C1969 C1973 1.376 . S
C1970 C1968 1.394 . S
C1970 C1971 1.369 . S
C1970 C1974 1.531 . S
C1971 C1970 1.369 . S
C1971 C1972 1.410 . S
C1971 C1979 1.503 . S
C1972 C1971 1.410 . S
C1972 C1973 1.392 . S
C1972 C1975 1.511 . S
C1973 C1969 1.376 . S
C1973 C1972 1.392 . S
C1973 H1985 0.929 . S
C1974 C1970 1.531 . S
C1974 H1986 0.960 . S
C1974 H1987 0.962 . S
C1974 H1988 0.960 . S
C1975 C1972 1.511 . S
C1975 H1989 0.961 . S
C1975 H1990 0.961 . S
C1975 H1991 0.961 . S
C1976 C1977 1.370 . S
C1976 C1978 1.363 . S
C1976 H1992 0.931 . S
C1977 C1976 1.370 . S
C1977 C1981 1.408 . S
C1978 C1976 1.363 . S
C1978 C1979 1.370 . S
C1978 C1982 1.524 . S
C1979 C1971 1.503 . S
C1979 C1978 1.370 . S
C1979 C1980 1.403 . S
C1980 C1979 1.403 . S
C1980 C1981 1.404 . S
C1980 C1983 1.539 . S
C1981 C1977 1.408 . S
C1981 C1980 1.404 . S
C1981 H1993 0.930 . S
C1982 C1978 1.524 . S
C1982 H1994 0.956 . S
C1982 H1995 0.961 . S
C1982 H1996 0.961 . S
C1983 C1980 1.539 . S
C1983 H1997 0.958 . S
C1983 H1998 0.961 . S
C1983 H1999 0.960 . S
H1984 C1968 0.931 . S
H1985 C1973 0.929 . S
H1986 C1974 0.960 . S
H1987 C1974 0.962 . S
H1988 C1974 0.960 . S
H1989 C1975 0.961 . S
H1990 C1975 0.961 . S
H1991 C1975 0.961 . S
H1992 C1976 0.931 . S
H1993 C1981 0.930 . S
H1994 C1982 0.956 . S
H1995 C1982 0.961 . S
H1996 C1982 0.961 . S
H1997 C1983 0.958 . S
H1998 C1983 0.961 . S
H1999 C1983 0.960 . S
C2000 C2001 1.391 . S
C2000 C2002 1.394 . S
C2000 H2016 0.931 . S
C2001 C2000 1.391 . S
C2001 C2005 1.376 . S
C2002 C2000 1.394 . S
C2002 C2003 1.369 . S
C2002 C2006 1.531 . S
C2003 C2002 1.369 . S
C2003 C2004 1.410 . S
C2003 C2011 1.503 . S
C2004 C2003 1.410 . S
C2004 C2005 1.392 . S
C2004 C2007 1.511 . S
C2005 C2001 1.376 . S
C2005 C2004 1.392 . S
C2005 H2017 0.929 . S
C2006 C2002 1.531 . S
C2006 H2018 0.960 . S
C2006 H2019 0.962 . S
C2006 H2020 0.960 . S
C2007 C2004 1.511 . S
C2007 H2021 0.961 . S
C2007 H2022 0.961 . S
C2007 H2023 0.961 . S
C2008 C2009 1.370 . S
C2008 C2010 1.363 . S
C2008 H2024 0.931 . S
C2009 C2008 1.370 . S
C2009 C2013 1.408 . S
C2010 C2008 1.363 . S
C2010 C2011 1.370 . S
C2010 C2014 1.524 . S
C2011 C2003 1.503 . S
C2011 C2010 1.370 . S
C2011 C2012 1.403 . S
C2012 C2011 1.403 . S
C2012 C2013 1.404 . S
C2012 C2015 1.539 . S
C2013 C2009 1.408 . S
C2013 C2012 1.404 . S
C2013 H2025 0.930 . S
C2014 C2010 1.524 . S
C2014 H2026 0.956 . S
C2014 H2027 0.961 . S
C2014 H2028 0.961 . S
C2015 C2012 1.539 . S
C2015 H2029 0.958 . S
C2015 H2030 0.961 . S
C2015 H2031 0.960 . S
H2016 C2000 0.931 . S
H2017 C2005 0.929 . S
H2018 C2006 0.960 . S
H2019 C2006 0.962 . S
H2020 C2006 0.960 . S
H2021 C2007 0.961 . S
H2022 C2007 0.961 . S
H2023 C2007 0.961 . S
H2024 C2008 0.931 . S
H2025 C2013 0.930 . S
H2026 C2014 0.956 . S
H2027 C2014 0.961 . S
H2028 C2014 0.961 . S
H2029 C2015 0.958 . S
H2030 C2015 0.961 . S
H2031 C2015 0.960 . S
C2032 C2033 1.391 . S
C2032 C2034 1.394 . S
C2032 H2048 0.931 . S
C2033 C2032 1.391 . S
C2033 C2037 1.376 . S
C2034 C2032 1.394 . S
C2034 C2035 1.369 . S
C2034 C2038 1.531 . S
C2035 C2034 1.369 . S
C2035 C2036 1.410 . S
C2035 C2043 1.503 . S
C2036 C2035 1.410 . S
C2036 C2037 1.392 . S
C2036 C2039 1.511 . S
C2037 C2033 1.376 . S
C2037 C2036 1.392 . S
C2037 H2049 0.929 . S
C2038 C2034 1.531 . S
C2038 H2050 0.960 . S
C2038 H2051 0.962 . S
C2038 H2052 0.960 . S
C2039 C2036 1.511 . S
C2039 H2053 0.961 . S
C2039 H2054 0.961 . S
C2039 H2055 0.961 . S
C2040 C2041 1.370 . S
C2040 C2042 1.363 . S
C2040 H2056 0.931 . S
C2041 C2040 1.370 . S
C2041 C2045 1.408 . S
C2042 C2040 1.363 . S
C2042 C2043 1.370 . S
C2042 C2046 1.524 . S
C2043 C2035 1.503 . S
C2043 C2042 1.370 . S
C2043 C2044 1.403 . S
C2044 C2043 1.403 . S
C2044 C2045 1.404 . S
C2044 C2047 1.539 . S
C2045 C2041 1.408 . S
C2045 C2044 1.404 . S
C2045 H2057 0.930 . S
C2046 C2042 1.524 . S
C2046 H2058 0.956 . S
C2046 H2059 0.961 . S
C2046 H2060 0.961 . S
C2047 C2044 1.539 . S
C2047 H2061 0.958 . S
C2047 H2062 0.961 . S
C2047 H2063 0.960 . S
H2048 C2032 0.931 . S
H2049 C2037 0.929 . S
H2050 C2038 0.960 . S
H2051 C2038 0.962 . S
H2052 C2038 0.960 . S
H2053 C2039 0.961 . S
H2054 C2039 0.961 . S
H2055 C2039 0.961 . S
H2056 C2040 0.931 . S
H2057 C2045 0.930 . S
H2058 C2046 0.956 . S
H2059 C2046 0.961 . S
H2060 C2046 0.961 . S
H2061 C2047 0.958 . S
H2062 C2047 0.961 . S
H2063 C2047 0.960 . S
C2064 C2065 1.391 . S
C2064 C2066 1.394 . S
C2064 H2080 0.931 . S
C2065 C2064 1.391 . S
C2065 C2069 1.376 . S
C2066 C2064 1.394 . S
C2066 C2067 1.369 . S
C2066 C2070 1.531 . S
C2067 C2066 1.369 . S
C2067 C2068 1.410 . S
C2067 C2075 1.503 . S
C2068 C2067 1.410 . S
C2068 C2069 1.392 . S
C2068 C2071 1.511 . S
C2069 C2065 1.376 . S
C2069 C2068 1.392 . S
C2069 H2081 0.929 . S
C2070 C2066 1.531 . S
C2070 H2082 0.960 . S
C2070 H2083 0.962 . S
C2070 H2084 0.960 . S
C2071 C2068 1.511 . S
C2071 H2085 0.961 . S
C2071 H2086 0.961 . S
C2071 H2087 0.961 . S
C2072 C2073 1.370 . S
C2072 C2074 1.363 . S
C2072 H2088 0.931 . S
C2073 C2072 1.370 . S
C2073 C2077 1.408 . S
C2074 C2072 1.363 . S
C2074 C2075 1.370 . S
C2074 C2078 1.524 . S
C2075 C2067 1.503 . S
C2075 C2074 1.370 . S
C2075 C2076 1.403 . S
C2076 C2075 1.403 . S
C2076 C2077 1.404 . S
C2076 C2079 1.539 . S
C2077 C2073 1.408 . S
C2077 C2076 1.404 . S
C2077 H2089 0.930 . S
C2078 C2074 1.524 . S
C2078 H2090 0.956 . S
C2078 H2091 0.961 . S
C2078 H2092 0.961 . S
C2079 C2076 1.539 . S
C2079 H2093 0.958 . S
C2079 H2094 0.961 . S
C2079 H2095 0.960 . S
H2080 C2064 0.931 . S
H2081 C2069 0.929 . S
H2082 C2070 0.960 . S
H2083 C2070 0.962 . S
H2084 C2070 0.960 . S
H2085 C2071 0.961 . S
H2086 C2071 0.961 . S
H2087 C2071 0.961 . S
H2088 C2072 0.931 . S
H2089 C2077 0.930 . S
H2090 C2078 0.956 . S
H2091 C2078 0.961 . S
H2092 C2078 0.961 . S
H2093 C2079 0.958 . S
H2094 C2079 0.961 . S
H2095 C2079 0.960 . S
C2096 C2097 1.391 . S
C2096 C2098 1.394 . S
C2096 H2112 0.931 . S
C2097 C2096 1.391 . S
C2097 C2101 1.376 . S
C2098 C2096 1.394 . S
C2098 C2099 1.369 . S
C2098 C2102 1.531 . S
C2099 C2098 1.369 . S
C2099 C2100 1.410 . S
C2099 C2107 1.503 . S
C2100 C2099 1.410 . S
C2100 C2101 1.392 . S
C2100 C2103 1.511 . S
C2101 C2097 1.376 . S
C2101 C2100 1.392 . S
C2101 H2113 0.929 . S
C2102 C2098 1.531 . S
C2102 H2114 0.960 . S
C2102 H2115 0.962 . S
C2102 H2116 0.960 . S
C2103 C2100 1.511 . S
C2103 H2117 0.961 . S
C2103 H2118 0.961 . S
C2103 H2119 0.961 . S
C2104 C2105 1.370 . S
C2104 C2106 1.363 . S
C2104 H2120 0.931 . S
C2105 C2104 1.370 . S
C2105 C2109 1.408 . S
C2106 C2104 1.363 . S
C2106 C2107 1.370 . S
C2106 C2110 1.524 . S
C2107 C2099 1.503 . S
C2107 C2106 1.370 . S
C2107 C2108 1.403 . S
C2108 C2107 1.403 . S
C2108 C2109 1.404 . S
C2108 C2111 1.539 . S
C2109 C2105 1.408 . S
C2109 C2108 1.404 . S
C2109 H2121 0.930 . S
C2110 C2106 1.524 . S
C2110 H2122 0.956 . S
C2110 H2123 0.961 . S
C2110 H2124 0.961 . S
C2111 C2108 1.539 . S
C2111 H2125 0.958 . S
C2111 H2126 0.961 . S
C2111 H2127 0.960 . S
H2112 C2096 0.931 . S
H2113 C2101 0.929 . S
H2114 C2102 0.960 . S
H2115 C2102 0.962 . S
H2116 C2102 0.960 . S
H2117 C2103 0.961 . S
H2118 C2103 0.961 . S
H2119 C2103 0.961 . S
H2120 C2104 0.931 . S
H2121 C2109 0.930 . S
H2122 C2110 0.956 . S
H2123 C2110 0.961 . S
H2124 C2110 0.961 . S
H2125 C2111 0.958 . S
H2126 C2111 0.961 . S
H2127 C2111 0.960 . S
C2128 C2129 1.391 . S
C2128 C2130 1.394 . S
C2128 H2144 0.931 . S
C2129 C2128 1.391 . S
C2129 C2133 1.376 . S
C2130 C2128 1.394 . S
C2130 C2131 1.369 . S
C2130 C2134 1.531 . S
C2131 C2130 1.369 . S
C2131 C2132 1.410 . S
C2131 C2139 1.503 . S
C2132 C2131 1.410 . S
C2132 C2133 1.392 . S
C2132 C2135 1.511 . S
C2133 C2129 1.376 . S
C2133 C2132 1.392 . S
C2133 H2145 0.929 . S
C2134 C2130 1.531 . S
C2134 H2146 0.960 . S
C2134 H2147 0.962 . S
C2134 H2148 0.960 . S
C2135 C2132 1.511 . S
C2135 H2149 0.961 . S
C2135 H2150 0.961 . S
C2135 H2151 0.961 . S
C2136 C2137 1.370 . S
C2136 C2138 1.363 . S
C2136 H2152 0.931 . S
C2137 C2136 1.370 . S
C2137 C2141 1.408 . S
C2138 C2136 1.363 . S
C2138 C2139 1.370 . S
C2138 C2142 1.524 . S
C2139 C2131 1.503 . S
C2139 C2138 1.370 . S
C2139 C2140 1.403 . S
C2140 C2139 1.403 . S
C2140 C2141 1.404 . S
C2140 C2143 1.539 . S
C2141 C2137 1.408 . S
C2141 C2140 1.404 . S
C2141 H2153 0.930 . S
C2142 C2138 1.524 . S
C2142 H2154 0.956 . S
C2142 H2155 0.961 . S
C2142 H2156 0.961 . S
C2143 C2140 1.539 . S
C2143 H2157 0.958 . S
C2143 H2158 0.961 . S
C2143 H2159 0.960 . S
H2144 C2128 0.931 . S
H2145 C2133 0.929 . S
H2146 C2134 0.960 . S
H2147 C2134 0.962 . S
H2148 C2134 0.960 . S
H2149 C2135 0.961 . S
H2150 C2135 0.961 . S
H2151 C2135 0.961 . S
H2152 C2136 0.931 . S
H2153 C2141 0.930 . S
H2154 C2142 0.956 . S
H2155 C2142 0.961 . S
H2156 C2142 0.961 . S
H2157 C2143 0.958 . S
H2158 C2143 0.961 . S
H2159 C2143 0.960 . S
C2160 C2161 1.391 . S
C2160 C2162 1.394 . S
C2160 H2176 0.931 . S
C2161 C2160 1.391 . S
C2161 C2165 1.376 . S
C2162 C2160 1.394 . S
C2162 C2163 1.369 . S
C2162 C2166 1.531 . S
C2163 C2162 1.369 . S
C2163 C2164 1.410 . S
C2163 C2171 1.503 . S
C2164 C2163 1.410 . S
C2164 C2165 1.392 . S
C2164 C2167 1.511 . S
C2165 C2161 1.376 . S
C2165 C2164 1.392 . S
C2165 H2177 0.929 . S
C2166 C2162 1.531 . S
C2166 H2178 0.960 . S
C2166 H2179 0.962 . S
C2166 H2180 0.960 . S
C2167 C2164 1.511 . S
C2167 H2181 0.961 . S
C2167 H2182 0.961 . S
C2167 H2183 0.961 . S
C2168 C2169 1.370 . S
C2168 C2170 1.363 . S
C2168 H2184 0.931 . S
C2169 C2168 1.370 . S
C2169 C2173 1.408 . S
C2170 C2168 1.363 . S
C2170 C2171 1.370 . S
C2170 C2174 1.524 . S
C2171 C2163 1.503 . S
C2171 C2170 1.370 . S
C2171 C2172 1.403 . S
C2172 C2171 1.403 . S
C2172 C2173 1.404 . S
C2172 C2175 1.539 . S
C2173 C2169 1.408 . S
C2173 C2172 1.404 . S
C2173 H2185 0.930 . S
C2174 C2170 1.524 . S
C2174 H2186 0.956 . S
C2174 H2187 0.961 . S
C2174 H2188 0.961 . S
C2175 C2172 1.539 . S
C2175 H2189 0.958 . S
C2175 H2190 0.961 . S
C2175 H2191 0.960 . S
H2176 C2160 0.931 . S
H2177 C2165 0.929 . S
H2178 C2166 0.960 . S
H2179 C2166 0.962 . S
H2180 C2166 0.960 . S
H2181 C2167 0.961 . S
H2182 C2167 0.961 . S
H2183 C2167 0.961 . S
H2184 C2168 0.931 . S
H2185 C2173 0.930 . S
H2186 C2174 0.956 . S
H2187 C2174 0.961 . S
H2188 C2174 0.961 . S
H2189 C2175 0.958 . S
H2190 C2175 0.961 . S
H2191 C2175 0.960 . S
C2192 C2193 1.391 . S
C2192 C2194 1.394 . S
C2192 H2208 0.931 . S
C2193 C2192 1.391 . S
C2193 C2197 1.376 . S
C2194 C2192 1.394 . S
C2194 C2195 1.369 . S
C2194 C2198 1.531 . S
C2195 C2194 1.369 . S
C2195 C2196 1.410 . S
C2195 C2203 1.503 . S
C2196 C2195 1.410 . S
C2196 C2197 1.392 . S
C2196 C2199 1.511 . S
C2197 C2193 1.376 . S
C2197 C2196 1.392 . S
C2197 H2209 0.929 . S
C2198 C2194 1.531 . S
C2198 H2210 0.960 . S
C2198 H2211 0.962 . S
C2198 H2212 0.960 . S
C2199 C2196 1.511 . S
C2199 H2213 0.961 . S
C2199 H2214 0.961 . S
C2199 H2215 0.961 . S
C2200 C2201 1.370 . S
C2200 C2202 1.363 . S
C2200 H2216 0.931 . S
C2201 C2200 1.370 . S
C2201 C2205 1.408 . S
C2202 C2200 1.363 . S
C2202 C2203 1.370 . S
C2202 C2206 1.524 . S
C2203 C2195 1.503 . S
C2203 C2202 1.370 . S
C2203 C2204 1.403 . S
C2204 C2203 1.403 . S
C2204 C2205 1.404 . S
C2204 C2207 1.539 . S
C2205 C2201 1.408 . S
C2205 C2204 1.404 . S
C2205 H2217 0.930 . S
C2206 C2202 1.524 . S
C2206 H2218 0.956 . S
C2206 H2219 0.961 . S
C2206 H2220 0.961 . S
C2207 C2204 1.539 . S
C2207 H2221 0.958 . S
C2207 H2222 0.961 . S
C2207 H2223 0.960 . S
H2208 C2192 0.931 . S
H2209 C2197 0.929 . S
H2210 C2198 0.960 . S
H2211 C2198 0.962 . S
H2212 C2198 0.960 . S
H2213 C2199 0.961 . S
H2214 C2199 0.961 . S
H2215 C2199 0.961 . S
H2216 C2200 0.931 . S
H2217 C2205 0.930 . S
H2218 C2206 0.956 . S
H2219 C2206 0.961 . S
H2220 C2206 0.961 . S
H2221 C2207 0.958 . S
H2222 C2207 0.961 . S
H2223 C2207 0.960 . S
C2224 C2225 1.391 . S
C2224 C2226 1.394 . S
C2224 H2240 0.931 . S
C2225 C2224 1.391 . S
C2225 C2229 1.376 . S
C2226 C2224 1.394 . S
C2226 C2227 1.369 . S
C2226 C2230 1.531 . S
C2227 C2226 1.369 . S
C2227 C2228 1.410 . S
C2227 C2235 1.503 . S
C2228 C2227 1.410 . S
C2228 C2229 1.392 . S
C2228 C2231 1.511 . S
C2229 C2225 1.376 . S
C2229 C2228 1.392 . S
C2229 H2241 0.929 . S
C2230 C2226 1.531 . S
C2230 H2242 0.960 . S
C2230 H2243 0.962 . S
C2230 H2244 0.960 . S
C2231 C2228 1.511 . S
C2231 H2245 0.961 . S
C2231 H2246 0.961 . S
C2231 H2247 0.961 . S
C2232 C2233 1.370 . S
C2232 C2234 1.363 . S
C2232 H2248 0.931 . S
C2233 C2232 1.370 . S
C2233 C2237 1.408 . S
C2234 C2232 1.363 . S
C2234 C2235 1.370 . S
C2234 C2238 1.524 . S
C2235 C2227 1.503 . S
C2235 C2234 1.370 . S
C2235 C2236 1.403 . S
C2236 C2235 1.403 . S
C2236 C2237 1.404 . S
C2236 C2239 1.539 . S
C2237 C2233 1.408 . S
C2237 C2236 1.404 . S
C2237 H2249 0.930 . S
C2238 C2234 1.524 . S
C2238 H2250 0.956 . S
C2238 H2251 0.961 . S
C2238 H2252 0.961 . S
C2239 C2236 1.539 . S
C2239 H2253 0.958 . S
C2239 H2254 0.961 . S
C2239 H2255 0.960 . S
H2240 C2224 0.931 . S
H2241 C2229 0.929 . S
H2242 C2230 0.960 . S
H2243 C2230 0.962 . S
H2244 C2230 0.960 . S
H2245 C2231 0.961 . S
H2246 C2231 0.961 . S
H2247 C2231 0.961 . S
H2248 C2232 0.931 . S
H2249 C2237 0.930 . S
H2250 C2238 0.956 . S
H2251 C2238 0.961 . S
H2252 C2238 0.961 . S
H2253 C2239 0.958 . S
H2254 C2239 0.961 . S
H2255 C2239 0.960 . S
C465 C245 1.709 . S
C473 C13 1.729 . S
C497 C42 1.686 . S
C505 C274 1.736 . S
C529 C303 1.684 . S
C537 C71 1.737 . S
C561 C100 1.716 . S
C569 C332 1.726 . S
C593 C129 1.717 . S
C601 C361 1.721 . S
C625 C158 1.687 . S
C633 C390 1.737 . S
C657 C419 1.750 . S
C665 C187 1.711 . S
C689 C448 1.727 . S
C697 C216 1.717 . S
C721 C15 2.888 . S
C729 C37 2.481 . S
C753 C66 2.456 . S
C761 C44 2.890 . S
C785 C95 2.430 1_655 S
C793 C73 2.886 . S
C817 C8 2.455 1_565 S
C825 C102 2.887 . S
C849 C211 2.497 1_455 S
C857 C131 2.893 . S
C881 C124 2.429 1_545 S
C889 C160 2.886 . S
C913 C189 2.888 . S
C921 C153 2.481 . S
C945 C218 2.886 . S
C953 C182 2.466 . S
C977 C269 2.493 . S
C985 C247 2.892 . S
C1009 C276 2.891 . S
C1017 C298 2.483 . S
C1041 C327 2.431 1_455 S
C1049 C305 2.885 . S
C1073 C240 2.492 1_545 S
C1081 C334 2.892 . S
C1105 C443 2.454 1_655 S
C1113 C363 2.887 . S
C1137 C356 2.481 1_565 S
C1145 C392 2.890 . S
C1169 C385 2.461 . S
C1177 C421 2.888 . S
C1201 C414 2.495 . S
C1209 C450 2.893 . S
C1233 C266 0.978 . S
C1241 C3 1.056 . S
C1265 C295 1.064 . S
C1273 C32 1.061 . S
C1297 C324 1.012 . S
C1305 C61 1.056 . S
C1329 C237 1.052 . S
C1337 C90 1.062 . S
C1361 C440 0.964 . S
C1369 C119 1.056 . S
C1393 C353 1.028 . S
C1401 C148 1.062 . S
C1425 C177 1.051 . S
C1433 C382 1.018 . S
C1457 C411 0.974 . S
C1465 C206 1.056 . S
C1489 C235 1.063 . S
C1497 C34 1.011 . S
C1521 C264 1.050 . S
C1529 C63 1.019 . S
C1553 C293 1.064 . S
C1561 C92 1.022 . S
C1585 C5 1.031 . S
C1593 C322 1.062 . S
C1617 C351 1.064 . S
C1625 C208 1.019 . S
C1649 C121 0.966 . S
C1657 C380 1.059 . S
C1681 C409 1.058 . S
C1689 C150 1.036 . S
C1713 C438 1.063 . S
C1721 C179 1.009 . S
C1745 C155 1.776 . S
C1753 C10 1.759 . S
C1777 C184 1.750 . S
C1785 C39 1.766 . S
C1809 C213 1.781 . S
C1817 C68 1.788 . S
C1841 C126 1.732 . S
C1849 C97 1.782 . S
C1873 C387 1.766 . S
C1881 C242 1.759 . S
C1905 C271 1.803 . S
C1913 C416 1.765 . S
C1937 C300 1.760 . S
C1945 C445 1.791 . S
C1969 C329 1.733 . S
C1977 C358 1.781 . S
C2001 C79 0.780 . S
C2009 C21 0.888 . S
C2033 C50 0.780 . S
C2041 C108 0.888 . S
C2065 C195 0.780 . S
C2073 C137 0.888 . S
C2097 C224 0.779 . S
C2105 C166 0.888 . S
C2129 C253 0.842 . S
C2137 C311 0.849 . S
C2161 C340 0.877 . S
C2169 C282 0.836 . S
C2193 C427 0.775 . S
C2201 C369 0.889 . S
C2225 C456 0.791 . S
C2233 C398 0.889 . S
