# Generated by pormake.
# Topology uof, (4)-cn, num edge types: 1
# Building blocks:
#     Node 0, Type 0, BuildingBlock: NAHDIM_clean_sbu_0, # of connection points: 4
#     Node 1, Type 0, BuildingBlock: NAHDIM_clean_sbu_0, # of connection points: 4
#     Node 2, Type 0, BuildingBlock: NAHDIM_clean_sbu_0, # of connection points: 4
#     Node 3, Type 0, BuildingBlock: NAHDIM_clean_sbu_0, # of connection points: 4
#     Node 4, Type 0, BuildingBlock: NAHDIM_clean_sbu_0, # of connection points: 4
#     Node 5, Type 0, BuildingBlock: NAHDIM_clean_sbu_0, # of connection points: 4
#     Node 6, Type 0, BuildingBlock: NAHDIM_clean_sbu_0, # of connection points: 4
#     Node 7, Type 0, BuildingBlock: NAHDIM_clean_sbu_0, # of connection points: 4
#     Node 8, Type 0, BuildingBlock: NAHDIM_clean_sbu_0, # of connection points: 4
#     Node 9, Type 0, BuildingBlock: NAHDIM_clean_sbu_0, # of connection points: 4
#     Node 10, Type 0, BuildingBlock: NAHDIM_clean_sbu_0, # of connection points: 4
#     Node 11, Type 0, BuildingBlock: NAHDIM_clean_sbu_0, # of connection points: 4
#     Edge 12, Type (0, 0), BuildingBlock: TEMPAE_clean_linker_10, # of connection points: 2
#     Edge 13, Type (0, 0), BuildingBlock: TEMPAE_clean_linker_10, # of connection points: 2
#     Edge 14, Type (0, 0), BuildingBlock: TEMPAE_clean_linker_10, # of connection points: 2
#     Edge 15, Type (0, 0), BuildingBlock: TEMPAE_clean_linker_10, # of connection points: 2
#     Edge 16, Type (0, 0), BuildingBlock: TEMPAE_clean_linker_10, # of connection points: 2
#     Edge 17, Type (0, 0), BuildingBlock: TEMPAE_clean_linker_10, # of connection points: 2
#     Edge 18, Type (0, 0), BuildingBlock: TEMPAE_clean_linker_10, # of connection points: 2
#     Edge 19, Type (0, 0), BuildingBlock: TEMPAE_clean_linker_10, # of connection points: 2
#     Edge 20, Type (0, 0), BuildingBlock: TEMPAE_clean_linker_10, # of connection points: 2
#     Edge 21, Type (0, 0), BuildingBlock: TEMPAE_clean_linker_10, # of connection points: 2
#     Edge 22, Type (0, 0), BuildingBlock: TEMPAE_clean_linker_10, # of connection points: 2
#     Edge 23, Type (0, 0), BuildingBlock: TEMPAE_clean_linker_10, # of connection points: 2
#     Edge 24, Type (0, 0), BuildingBlock: TEMPAE_clean_linker_10, # of connection points: 2
#     Edge 25, Type (0, 0), BuildingBlock: TEMPAE_clean_linker_10, # of connection points: 2
#     Edge 26, Type (0, 0), BuildingBlock: TEMPAE_clean_linker_10, # of connection points: 2
#     Edge 27, Type (0, 0), BuildingBlock: TEMPAE_clean_linker_10, # of connection points: 2
#     Edge 28, Type (0, 0), BuildingBlock: TEMPAE_clean_linker_10, # of connection points: 2
#     Edge 29, Type (0, 0), BuildingBlock: TEMPAE_clean_linker_10, # of connection points: 2
#     Edge 30, Type (0, 0), BuildingBlock: TEMPAE_clean_linker_10, # of connection points: 2
#     Edge 31, Type (0, 0), BuildingBlock: TEMPAE_clean_linker_10, # of connection points: 2
#     Edge 32, Type (0, 0), BuildingBlock: TEMPAE_clean_linker_10, # of connection points: 2
#     Edge 33, Type (0, 0), BuildingBlock: TEMPAE_clean_linker_10, # of connection points: 2
#     Edge 34, Type (0, 0), BuildingBlock: TEMPAE_clean_linker_10, # of connection points: 2
#     Edge 35, Type (0, 0), BuildingBlock: TEMPAE_clean_linker_10, # of connection points: 2
# Relax obj value: 0.217
# Max RMSD: 0.169
# Mean RMSD: 0.169
data_MOF--net-uof--node1-NAHDIM_clean_sbu_0--edge1-TEMPAE_clean_linker_10
_symmetry_space_group_name_H-M    P1
_symmetry_Int_Tables_number       1
_symmetry_cell_setting            triclinic
loop_
_symmetry_equiv_pos_as_xyz
'x, y, z'
_cell_length_a     32.868737
_cell_length_b     32.822236
_cell_length_c     61.117202
_cell_angle_alpha  89.969623
_cell_angle_beta   89.996464
_cell_angle_gamma 119.868
loop_
_atom_site_label
_atom_site_type_symbol
_atom_site_fract_x
_atom_site_fract_y
_atom_site_fract_z
_atom_type_partial_charge
C0 C 0.15074 0.35826 0.20465 0.0
O1 O 0.15192 0.3539 0.22596 0.0
O2 O 0.23838 0.35333 0.23875 0.0
Zn3 Zn 0.23914 0.35841 0.20593 0.0
O4 O 0.23423 0.29904 0.19445 0.0
C5 C 0.33018 0.44106 0.20925 0.0
O6 O 0.31362 0.4466 0.22789 0.0
O7 O 0.18564 0.36414 0.19326 0.0
C8 C 0.26333 0.28772 0.20191 0.0
O9 O 0.29401 0.31473 0.21667 0.0
C10 C 0.21198 0.31434 0.24817 0.0
O11 O 0.18105 0.27874 0.23648 0.0
O12 O 0.30287 0.40858 0.19635 0.0
C13 C 0.82755 0.12743 0.54849 0.0
O14 O 0.85395 0.12329 0.56346 0.0
O15 O 0.9048 0.21345 0.58782 0.0
Zn16 Zn 0.89824 0.2199 0.55519 0.0
O17 O 0.94868 0.21332 0.54009 0.0
C18 C 0.95418 0.31616 0.55537 0.0
O19 O 0.98067 0.30059 0.56378 0.0
O20 O 0.83712 0.16851 0.54274 0.0
C21 C 0.96462 0.23059 0.52136 0.0
O22 O 0.94668 0.25286 0.51081 0.0
C23 C 0.933 0.20052 0.59496 0.0
O24 O 0.95443 0.18725 0.58096 0.0
O25 O 0.91244 0.2864 0.54969 0.0
C26 C 0.68374 0.82653 0.87632 0.0
O27 O 0.70614 0.84433 0.89475 0.0
O28 O 0.68149 0.90756 0.91421 0.0
Zn29 Zn 0.66015 0.89893 0.88259 0.0
O30 O 0.70796 0.95553 0.86617 0.0
C31 C 0.5858 0.91478 0.8965 0.0
O32 O 0.60789 0.92185 0.91522 0.0
O33 O 0.65824 0.84205 0.86845 0.0
C34 C 0.71633 0.99606 0.87215 0.0
O35 O 0.69292 -0.00029 0.88874 0.0
C36 C 0.72439 0.93346 0.91943 0.0
O37 O 0.75623 0.9513 0.90393 0.0
O38 O 0.59962 0.90091 0.88013 0.0
C39 C 0.85896 0.65801 0.21486 0.0
O40 O 0.85808 0.66856 0.23551 0.0
O41 O 0.76584 0.65957 0.24638 0.0
Zn42 Zn 0.76909 0.65421 0.21366 0.0
O43 O 0.77642 0.71339 0.20064 0.0
C44 C 0.67716 0.57201 0.2153 0.0
O45 O 0.69101 0.56635 0.23466 0.0
O46 O 0.82318 0.647 0.203 0.0
C47 C 0.74619 0.72509 0.20579 0.0
O48 O 0.71292 0.69895 0.21978 0.0
C49 C 0.78925 0.69873 0.25615 0.0
O50 O 0.81981 0.73564 0.24503 0.0
O51 O 0.70633 0.60439 0.20286 0.0
C52 C 0.18348 0.84706 0.53382 0.0
O53 O 0.17953 0.85174 0.55493 0.0
O54 O 0.09881 0.77463 0.57277 0.0
Zn55 Zn 0.10058 0.75664 0.5413 0.0
O56 O 0.04187 0.74898 0.5272 0.0
C57 C 0.07717 0.66531 0.55633 0.0
O58 O 0.0671 0.68157 0.57389 0.0
O59 O 0.15571 0.80805 0.52472 0.0
C60 C 0.00309 0.72718 0.5374 0.0
O61 O 0.00186 0.70881 0.55666 0.0
C62 C 0.08079 0.7998 0.57784 0.0
O63 O 0.0687 0.81916 0.5622 0.0
O64 O 0.09548 0.69251 0.53998 0.0
C65 C 0.32061 0.18688 0.8877 0.0
O66 O 0.29828 0.16781 0.90601 0.0
O67 O 0.31685 0.09772 0.92235 0.0
Zn68 Zn 0.3312 0.10641 0.8899 0.0
O69 O 0.27416 0.05776 0.87416 0.0
C70 C 0.3685 0.04766 0.88907 0.0
O71 O 0.32554 0.02135 0.89644 0.0
O72 O 0.3427 0.1691 0.87831 0.0
C73 C 0.27545 0.04209 0.85536 0.0
O74 O 0.31573 0.05939 0.845 0.0
C75 C 0.27493 0.07179 0.929 0.0
O76 O 0.24063 0.05416 0.91467 0.0
O77 O 0.38239 0.09048 0.88446 0.0
C78 C 0.69726 0.848 0.45287 0.0
O79 O 0.73089 0.84804 0.44121 0.0
O80 O 0.68483 0.7556 0.41615 0.0
Zn81 Zn 0.66633 0.75251 0.44799 0.0
O82 O 0.7187 0.75426 0.466 0.0
C83 C 0.57927 0.66701 0.43849 0.0
O84 O 0.5829 0.68723 0.41947 0.0
O85 O 0.66113 0.80876 0.45724 0.0
C86 C 0.71572 0.71724 0.47418 0.0
O87 O 0.67713 0.67679 0.47139 0.0
C88 C 0.7 0.72816 0.41067 0.0
O89 O 0.70163 0.70005 0.42549 0.0
O90 O 0.60834 0.69014 0.45354 0.0
C91 C 0.84886 0.71816 0.7773 0.0
O92 O 0.87976 0.75295 0.76521 0.0
O93 O 0.92784 0.70768 0.73766 0.0
Zn94 Zn 0.91764 0.69341 0.77015 0.0
O95 O 0.9674 0.74999 0.78585 0.0
C96 C 0.92142 0.60667 0.76444 0.0
O97 O 0.89797 0.60154 0.74628 0.0
O98 O 0.85532 0.68368 0.78105 0.0
C99 C 0.99169 0.74844 0.80163 0.0
O100 O 0.98314 0.70751 0.80928 0.0
C101 C 0.95457 0.74975 0.73125 0.0
O102 O 0.9721 0.78373 0.74576 0.0
O103 O 0.93012 0.64067 0.77714 0.0
C104 C 0.15013 0.85613 0.13345 0.0
O105 O 0.1487 0.89275 0.12574 0.0
O106 O 0.23658 0.93085 0.09107 0.0
Zn107 Zn 0.24283 0.91884 0.12304 0.0
O108 O 0.24255 0.97021 0.14063 0.0
C109 C 0.32803 0.91767 0.11273 0.0
O110 O 0.30564 0.89694 0.09467 0.0
O111 O 0.18923 0.85701 0.1335 0.0
C112 C 0.27595 0.01193 0.13779 0.0
O113 O 0.30943 0.01954 0.12383 0.0
C114 C 0.22137 0.95797 0.08508 0.0
O115 O 0.20597 0.97595 0.09991 0.0
O116 O 0.30653 0.92631 0.12766 0.0
C117 C 0.28537 0.13094 0.44188 0.0
O118 O 0.24987 0.13156 0.4323 0.0
O119 O 0.30429 0.22938 0.40447 0.0
Zn120 Zn 0.31632 0.22562 0.43651 0.0
O121 O 0.25839 0.21678 0.4518 0.0
C122 C 0.40309 0.31445 0.43306 0.0
O123 O 0.40765 0.29716 0.41443 0.0
O124 O 0.3232 0.16971 0.44459 0.0
C125 C 0.25937 0.24166 0.46791 0.0
O126 O 0.29999 0.27354 0.4759 0.0
C127 C 0.29046 0.25865 0.40064 0.0
O128 O 0.28716 0.28273 0.41704 0.0
O129 O 0.36939 0.28854 0.44574 0.0
C130 C 0.1444 0.29785 0.79867 0.0
O131 O 0.10836 0.2616 0.78959 0.0
O132 O 0.07125 0.31143 0.75684 0.0
Zn133 Zn 0.08405 0.33201 0.78856 0.0
O134 O 0.0309 0.28338 0.80644 0.0
C135 C 0.08559 0.41778 0.77596 0.0
O136 O 0.10186 0.41149 0.75739 0.0
O137 O 0.14423 0.33647 0.79974 0.0
C138 C 0.99008 0.27731 0.8031 0.0
O139 O 0.98456 0.30348 0.78845 0.0
C140 C 0.04256 0.26914 0.75147 0.0
O141 O 0.02324 0.23708 0.76682 0.0
O142 O 0.07979 0.39076 0.792 0.0
C143 C 0.86077 0.14812 0.12514 0.0
O144 O 0.86274 0.11095 0.11872 0.0
O145 O 0.7739 0.07356 0.08152 0.0
Zn146 Zn 0.76879 0.08489 0.11365 0.0
O147 O 0.77115 0.03432 0.13101 0.0
C148 C 0.68031 0.08154 0.10519 0.0
O149 O 0.69931 0.10013 0.08622 0.0
O150 O 0.82178 0.1473 0.12388 0.0
C151 C 0.73909 0.99201 0.12816 0.0
O152 O 0.70576 0.98277 0.11384 0.0
C153 C 0.79109 0.04849 0.07499 0.0
O154 O 0.80891 0.03201 0.08938 0.0
O155 O 0.70481 0.07574 0.11958 0.0
C156 C 0.90316 0.22983 0.14083 0.0
C157 C 0.90232 0.18784 0.13547 0.0
C158 C 0.94204 0.26638 0.15164 0.0
C159 C 0.98031 0.2602 0.1575 0.0
C160 C 0.97975 0.21811 0.15184 0.0
C161 C 0.94103 0.18273 0.14076 0.0
C162 C 0.94186 0.31113 0.15706 0.0
C163 C 0.01967 0.20984 0.15791 0.0
C164 C 0.10474 0.35153 0.17094 0.0
C165 C 0.1057 0.34436 0.19352 0.0
C166 C 0.06259 0.32821 0.15915 0.0
C167 C 0.02077 0.29645 0.17019 0.0
C168 C 0.02077 0.29298 0.19328 0.0
C169 C 0.06327 0.31735 0.20472 0.0
C170 C 0.06381 0.33404 0.13463 0.0
C171 C 0.97699 0.2595 0.20571 0.0
H172 H 0.87341 0.23406 0.1367 0.0
H173 H 0.94071 0.15042 0.13673 0.0
H174 H 0.93907 0.31382 0.17503 0.0
H175 H 0.97523 0.34216 0.15179 0.0
H176 H 0.91216 0.3126 0.14918 0.0
H177 H 0.01359 0.17501 0.15236 0.0
H178 H 0.05288 0.23743 0.15052 0.0
H179 H 0.02448 0.21201 0.17592 0.0
H180 H 0.13733 0.37309 0.16224 0.0
H181 H 0.06362 0.31195 0.2222 0.0
H182 H 0.03234 0.33502 0.12879 0.0
H183 H 0.06379 0.30361 0.12672 0.0
H184 H 0.09572 0.36659 0.12921 0.0
H185 H 0.94623 0.26156 0.19972 0.0
H186 H 0.98082 0.26668 0.22358 0.0
H187 H 0.9696 0.22298 0.20305 0.0
C188 C 0.78966 0.04169 0.54074 0.0
C189 C 0.79408 0.08547 0.5358 0.0
C190 C 0.76587 0.00325 0.52667 0.0
C191 C 0.74519 0.00834 0.5073 0.0
C192 C 0.74594 0.05118 0.50317 0.0
C193 C 0.77075 0.08947 0.5174 0.0
C194 C 0.76607 0.95828 0.53174 0.0
C195 C 0.7231 0.05756 0.48304 0.0
C196 C 0.7493 0.93275 0.46171 0.0
C197 C 0.70553 0.89179 0.46384 0.0
C198 C 0.76148 0.97216 0.47484 0.0
C199 C 0.72882 0.97097 0.4903 0.0
C200 C 0.68315 0.93129 0.49124 0.0
C201 C 0.67211 0.89193 0.47811 0.0
C202 C 0.81064 0.01367 0.47329 0.0
C203 C 0.6469 0.92924 0.50704 0.0
H204 H 0.80705 0.038 0.55504 0.0
H205 H 0.77355 0.12302 0.51356 0.0
H206 H 0.73003 0.92774 0.53077 0.0
H207 H 0.78772 0.95283 0.51942 0.0
H208 H 0.78049 0.95881 0.54824 0.0
H209 H 0.71837 0.08869 0.48446 0.0
H210 H 0.74545 0.06252 0.46856 0.0
H211 H 0.68843 0.02594 0.48005 0.0
H212 H 0.77522 0.93326 0.45057 0.0
H213 H 0.63798 0.86064 0.47968 0.0
H214 H 0.83008 0.01631 0.48857 0.0
H215 H 0.80965 0.04679 0.47157 0.0
H216 H 0.83049 0.01069 0.45926 0.0
H217 H 0.65527 0.92266 0.5238 0.0
H218 H 0.61103 0.90072 0.50281 0.0
H219 H 0.64715 0.96317 0.50734 0.0
C220 C 0.67095 0.77482 0.84373 0.0
C221 C 0.69566 0.79622 0.86298 0.0
C222 C 0.68711 0.75266 0.82925 0.0
C223 C 0.72953 0.75307 0.83391 0.0
C224 C 0.75285 0.77195 0.85398 0.0
C225 C 0.73532 0.79276 0.86836 0.0
C226 C 0.66032 0.73135 0.8084 0.0
C227 C 0.79847 0.77365 0.85953 0.0
C228 C 0.77963 0.68767 0.8028 0.0
C229 C 0.81245 0.72345 0.7892 0.0
C230 C 0.74969 0.69553 0.81642 0.0
C231 C 0.75349 0.74046 0.81674 0.0
C232 C 0.78474 0.77574 0.80217 0.0
C233 C 0.81339 0.76663 0.78844 0.0
C234 C 0.71575 0.65655 0.83122 0.0
C235 C 0.79031 0.82432 0.80207 0.0
H236 H 0.63991 0.77679 0.83958 0.0
H237 H 0.75455 0.80893 0.88324 0.0
H238 H 0.67857 0.75534 0.7945 0.0
H239 H 0.65877 0.69744 0.80488 0.0
H240 H 0.62399 0.7254 0.80923 0.0
H241 H 0.81023 0.78615 0.87649 0.0
H242 H 0.79489 0.73842 0.85767 0.0
H243 H 0.82623 0.79773 0.84803 0.0
H244 H 0.77832 0.65403 0.80332 0.0
H245 H 0.83835 0.79443 0.7779 0.0
H246 H 0.68126 0.65505 0.83148 0.0
H247 H 0.72954 0.66338 0.84818 0.0
H248 H 0.71044 0.62179 0.82604 0.0
H249 H 0.75578 0.82209 0.79986 0.0
H250 H 0.81427 0.84695 0.78893 0.0
H251 H 0.80458 0.84161 0.81806 0.0
C252 C 0.94646 0.70095 0.21479 0.0
C253 C 0.90416 0.67053 0.20421 0.0
C254 C 0.98882 0.7234 0.20313 0.0
C255 C 0.98888 0.7145 0.18047 0.0
C256 C 0.94732 0.67954 0.17037 0.0
C257 C 0.90526 0.65823 0.18232 0.0
C258 C 0.03233 0.76042 0.21456 0.0
C259 C 0.94626 0.66787 0.14642 0.0
C260 C 0.06814 0.82203 0.14687 0.0
C261 C 0.10787 0.81732 0.14384 0.0
C262 C 0.029 0.78821 0.15834 0.0
C263 C 0.02909 0.74806 0.16676 0.0
C264 C 0.0682 0.7419 0.16298 0.0
C265 C 0.10745 0.77691 0.15171 0.0
C266 C 0.98812 0.79637 0.16206 0.0
C267 C 0.06912 0.69908 0.1713 0.0
H268 H 0.94606 0.71032 0.23176 0.0
H269 H 0.87281 0.63404 0.17413 0.0
H270 H 0.06331 0.75725 0.21007 0.0
H271 H 0.03944 0.79576 0.20931 0.0
H272 H 0.0284 0.75812 0.23265 0.0
H273 H 0.91481 0.63374 0.14228 0.0
H274 H 0.94546 0.6957 0.13643 0.0
H275 H 0.97818 0.66649 0.14176 0.0
H276 H 0.06803 0.85303 0.14082 0.0
H277 H 0.13795 0.77291 0.14932 0.0
H278 H 0.98279 0.79842 0.17987 0.0
H279 H 0.95544 0.76653 0.15543 0.0
H280 H 0.99349 0.82925 0.15424 0.0
H281 H 0.07342 0.70131 0.18934 0.0
H282 H 0.0984 0.69587 0.16405 0.0
H283 H 0.03553 0.66668 0.16762 0.0
C284 C 0.31597 0.08352 0.46084 0.0
C285 C 0.27819 0.0872 0.45245 0.0
C286 C 0.30825 0.04371 0.47289 0.0
C287 C 0.26168 0.00755 0.4771 0.0
C288 C 0.22361 0.01051 0.46803 0.0
C289 C 0.23237 0.04994 0.45562 0.0
C290 C 0.34976 0.04111 0.48171 0.0
C291 C 0.17333 0.97316 0.47236 0.0
C292 C 0.22154 0.88465 0.49817 0.0
C293 C 0.21248 0.88913 0.52021 0.0
C294 C 0.24172 0.92395 0.48423 0.0
C295 C 0.2518 0.96838 0.49241 0.0
C296 C 0.24558 0.97355 0.51496 0.0
C297 C 0.22654 0.93396 0.52863 0.0
C298 C 0.2494 0.91732 0.46046 0.0
C299 C 0.25519 0.02008 0.52434 0.0
H300 H 0.3515 0.11205 0.45832 0.0
H301 H 0.20292 0.05244 0.44924 0.0
H302 H 0.35226 0.04692 0.49965 0.0
H303 H 0.34535 0.00576 0.4788 0.0
H304 H 0.38326 0.06792 0.47416 0.0
H305 H 0.1478 0.98024 0.46368 0.0
H306 H 0.16742 0.93826 0.46716 0.0
H307 H 0.166 0.97114 0.49018 0.0
H308 H 0.21131 0.85018 0.49161 0.0
H309 H 0.21978 0.9378 0.54565 0.0
H310 H 0.28355 0.94647 0.45464 0.0
H311 H 0.22146 0.91763 0.4504 0.0
H312 H 0.24852 0.88345 0.45763 0.0
H313 H 0.29053 0.04849 0.51947 0.0
H314 H 0.25282 0.01928 0.54249 0.0
H315 H 0.22927 0.02919 0.51772 0.0
C316 C 0.3285 0.23624 0.85477 0.0
C317 C 0.31036 0.22017 0.87579 0.0
C318 C 0.31066 0.25886 0.84156 0.0
C319 C 0.27335 0.26468 0.84946 0.0
C320 C 0.25798 0.25235 0.87134 0.0
C321 C 0.27698 0.23068 0.88429 0.0
C322 C 0.32918 0.27304 0.81859 0.0
C323 C 0.21819 0.25773 0.88045 0.0
C324 C 0.22018 0.32909 0.81965 0.0
C325 C 0.18122 0.29149 0.80954 0.0
C326 C 0.25236 0.32158 0.83173 0.0
C327 C 0.24476 0.27535 0.83406 0.0
C328 C 0.20657 0.23771 0.82313 0.0
C329 C 0.17562 0.24632 0.8109 0.0
C330 C 0.29336 0.36278 0.84265 0.0
C331 C 0.19687 0.18775 0.82524 0.0
H332 H 0.3548 0.22894 0.84816 0.0
H333 H 0.26314 0.21903 0.90061 0.0
H334 H 0.3044 0.24639 0.80689 0.0
H335 H 0.3322 0.30725 0.8142 0.0
H336 H 0.36401 0.27569 0.81656 0.0
H337 H 0.21411 0.25169 0.8984 0.0
H338 H 0.22378 0.29331 0.87696 0.0
H339 H 0.18488 0.23199 0.87242 0.0
H340 H 0.225 0.36418 0.81853 0.0
H341 H 0.14586 0.21703 0.80306 0.0
H342 H 0.32588 0.36083 0.84057 0.0
H343 H 0.28653 0.36198 0.86046 0.0
H344 H 0.29935 0.39686 0.83602 0.0
H345 H 0.22818 0.18555 0.82028 0.0
H346 H 0.16666 0.16276 0.81507 0.0
H347 H 0.18923 0.17633 0.84257 0.0
C348 C 0.59405 0.51085 0.22285 0.0
C349 C 0.62655 0.5485 0.21007 0.0
C350 C 0.54568 0.49304 0.22027 0.0
C351 C 0.52957 0.51388 0.20477 0.0
C352 C 0.56209 0.55052 0.19115 0.0
C353 C 0.61021 0.56717 0.19385 0.0
C354 C 0.51193 0.45323 0.2348 0.0
C355 C 0.54627 0.57384 0.17455 0.0
C356 C 0.40009 0.44577 0.19067 0.0
C357 C 0.38143 0.4646 0.20564 0.0
C358 C 0.44848 0.46238 0.18972 0.0
C359 C 0.47893 0.49915 0.20382 0.0
C360 C 0.46061 0.52017 0.21803 0.0
C361 C 0.41199 0.50239 0.21888 0.0
C362 C 0.46666 0.43886 0.17448 0.0
C363 C 0.49216 0.56012 0.23301 0.0
H364 H 0.60644 0.49614 0.23532 0.0
H365 H 0.63509 0.59646 0.18395 0.0
H366 H 0.49431 0.466 0.24611 0.0
H367 H 0.48421 0.42473 0.22479 0.0
H368 H 0.52978 0.43833 0.24468 0.0
H369 H 0.57556 0.5991 0.16401 0.0
H370 H 0.51829 0.54712 0.16398 0.0
H371 H 0.53119 0.59304 0.18316 0.0
H372 H 0.3767 0.41636 0.18045 0.0
H373 H 0.39781 0.51722 0.23039 0.0
H374 H 0.48029 0.41969 0.18422 0.0
H375 H 0.49623 0.46545 0.16453 0.0
H376 H 0.43901 0.41352 0.16328 0.0
H377 H 0.50801 0.54747 0.24539 0.0
H378 H 0.47293 0.57513 0.24169 0.0
H379 H 0.52134 0.58853 0.22356 0.0
C380 C 0.06752 0.59492 0.5356 0.0
C381 C 0.06233 0.61471 0.55501 0.0
C382 C 0.05037 0.54631 0.53398 0.0
C383 C 0.0275 0.51695 0.55216 0.0
C384 C 0.02264 0.53684 0.57183 0.0
C385 C 0.04016 0.58539 0.57302 0.0
C386 C 0.05641 0.5263 0.51279 0.0
C387 C -0.00135 0.50677 0.59163 0.0
C388 C 0.94484 0.38554 0.54583 0.0
C389 C 0.97314 0.36742 0.55306 0.0
C390 C 0.96252 0.43431 0.54474 0.0
C391 C 0.00954 0.4655 0.55101 0.0
C392 C 0.0386 0.44737 0.5577 0.0
C393 C 0.02006 0.39863 0.55865 0.0
C394 C 0.93051 0.45243 0.53752 0.0
C395 C 0.08891 0.47943 0.56451 0.0
H396 H 0.08445 0.61728 0.52159 0.0
H397 H 0.0359 0.60027 0.58809 0.0
H398 H 0.07645 0.50784 0.51573 0.0
H399 H 0.0216 0.49998 0.50625 0.0
H400 H 0.07504 0.55384 0.50017 0.0
H401 H 0.99735 0.52768 0.60563 0.0
H402 H 0.96225 0.47961 0.58741 0.0
H403 H 0.01736 0.48815 0.59693 0.0
H404 H 0.90863 0.36167 0.5414 0.0
H405 H 0.04236 0.38502 0.56412 0.0
H406 H 0.94714 0.47845 0.52414 0.0
H407 H 0.92456 0.47073 0.55135 0.0
H408 H 0.89596 0.4238 0.53176 0.0
H409 H 0.10811 0.50581 0.55155 0.0
H410 H 0.10773 0.45985 0.56789 0.0
H411 H 0.08986 0.49895 0.5795 0.0
C412 C 0.38075 0.97859 0.88934 0.0
C413 C 0.39962 0.02727 0.88698 0.0
C414 C 0.40955 0.95836 0.88908 0.0
C415 C 0.45855 0.98751 0.88651 0.0
C416 C 0.47773 0.03649 0.88334 0.0
C417 C 0.44797 0.05582 0.88354 0.0
C418 C 0.38767 0.90597 0.89237 0.0
C419 C 0.52987 0.06868 0.88056 0.0
C420 C 0.5365 0.94582 0.91214 0.0
C421 C 0.55024 0.92963 0.89391 0.0
C422 C 0.50663 0.96459 0.90991 0.0
C423 C 0.48989 0.96717 0.88891 0.0
C424 C 0.50268 0.94992 0.87047 0.0
C425 C 0.53273 0.93131 0.87318 0.0
C426 C 0.49354 0.98231 0.93001 0.0
C427 C 0.48523 0.95183 0.84786 0.0
H428 H 0.34333 0.95614 0.89176 0.0
H429 H 0.46275 0.09342 0.88165 0.0
H430 H 0.39929 0.89053 0.87934 0.0
H431 H 0.3994 0.8989 0.90823 0.0
H432 H 0.34871 0.88779 0.89234 0.0
H433 H 0.53886 0.10528 0.87664 0.0
H434 H 0.54823 0.06908 0.89586 0.0
H435 H 0.54347 0.05556 0.86733 0.0
H436 H 0.54976 0.94464 0.92823 0.0
H437 H 0.54332 0.91906 0.85899 0.0
H438 H 0.45486 0.96349 0.93202 0.0
H439 H 0.50526 0.0202 0.92811 0.0
H440 H 0.50941 0.97758 0.94517 0.0
H441 H 0.44632 0.93313 0.84769 0.0
H442 H 0.49747 0.93592 0.83529 0.0
H443 H 0.49758 0.98888 0.84325 0.0
C444 C 0.55704 0.59132 0.45753 0.0
C445 C 0.54848 0.61558 0.44087 0.0
C446 C 0.53343 0.54206 0.45801 0.0
C447 C 0.49959 0.51642 0.44176 0.0
C448 C 0.48886 0.54066 0.42564 0.0
C449 C 0.51379 0.58999 0.42525 0.0
C450 C 0.54632 0.51754 0.47529 0.0
C451 C 0.4521 0.51449 0.40836 0.0
C452 C 0.47268 0.3936 0.4259 0.0
C453 C 0.43069 0.36558 0.43719 0.0
C454 C 0.49632 0.44275 0.42785 0.0
C455 C 0.47687 0.46433 0.441 0.0
C456 C 0.43502 0.43615 0.45281 0.0
C457 C 0.4127 0.38709 0.45095 0.0
C458 C 0.54151 0.47163 0.4154 0.0
C459 C 0.41277 0.45785 0.4667 0.0
H460 H 0.58377 0.61075 0.46969 0.0
H461 H 0.50682 0.60848 0.41241 0.0
H462 H 0.51452 0.49131 0.48414 0.0
H463 H 0.56207 0.49821 0.46738 0.0
H464 H 0.57174 0.5425 0.48738 0.0
H465 H 0.44516 0.53838 0.39815 0.0
H466 H 0.46382 0.49525 0.39749 0.0
H467 H 0.41874 0.48805 0.4161 0.0
H468 H 0.48675 0.37713 0.4153 0.0
H469 H 0.37995 0.36568 0.45956 0.0
H470 H 0.56949 0.49624 0.42665 0.0
H471 H 0.53654 0.49313 0.40281 0.0
H472 H 0.55365 0.44943 0.40715 0.0
H473 H 0.43836 0.48238 0.47881 0.0
H474 H 0.38126 0.431 0.47559 0.0
H475 H 0.4023 0.47863 0.45617 0.0
C476 C 0.92836 0.53518 0.75744 0.0
C477 C 0.9436 0.57766 0.76858 0.0
C478 C 0.95172 0.50943 0.75997 0.0
C479 C 0.99184 0.52713 0.77361 0.0
C480 C 0.00696 0.56965 0.78514 0.0
C481 C 0.98238 0.59414 0.78266 0.0
C482 C 0.93392 0.46366 0.74778 0.0
C483 C 0.04999 0.59006 0.79954 0.0
C484 C 0.03178 0.44244 0.79264 0.0
C485 C 0.06574 0.44954 0.77686 0.0
C486 C 0.00781 0.46782 0.79195 0.0
C487 C 0.01869 0.50175 0.77532 0.0
C488 C 0.05435 0.51051 0.75992 0.0
C489 C 0.07715 0.48397 0.76075 0.0
C490 C 0.96959 0.45701 0.80848 0.0
C491 C 0.06764 0.54712 0.74222 0.0
H492 H 0.89834 0.52221 0.74661 0.0
H493 H 0.99466 0.62717 0.79119 0.0
H494 H 0.96066 0.46677 0.73579 0.0
H495 H 0.92793 0.43512 0.75934 0.0
H496 H 0.90071 0.45338 0.73889 0.0
H497 H 0.05643 0.62287 0.80782 0.0
H498 H 0.04632 0.5642 0.81219 0.0
H499 H 0.08126 0.5979 0.78955 0.0
H500 H 0.02241 0.41557 0.80503 0.0
H501 H 0.10341 0.48968 0.74854 0.0
H502 H 0.93541 0.4431 0.79996 0.0
H503 H 0.97638 0.48953 0.81709 0.0
H504 H 0.96656 0.4308 0.82084 0.0
H505 H 0.03749 0.53678 0.73103 0.0
H506 H 0.09816 0.55182 0.73243 0.0
H507 H 0.07624 0.58141 0.74956 0.0
C508 C 0.40311 0.9238 0.09985 0.0
C509 C 0.37952 0.93855 0.11405 0.0
C510 C 0.45233 0.94677 0.09946 0.0
C511 C 0.47844 0.986 0.11327 0.0
C512 C 0.45479 0.0005 0.12791 0.0
C513 C 0.40561 0.9763 0.12829 0.0
C514 C 0.47639 0.92966 0.08397 0.0
C515 C 0.4814 0.0426 0.14264 0.0
C516 C 0.60625 0.02475 0.12417 0.0
C517 C 0.62915 0.06026 0.10847 0.0
C518 C 0.55721 0.0004 0.12597 0.0
C519 C 0.5305 0.0125 0.11204 0.0
C520 C 0.55348 0.0494 0.09668 0.0
C521 C 0.60258 0.07254 0.09492 0.0
C522 C 0.53394 0.96077 0.14231 0.0
C523 C 0.52616 0.06394 0.08187 0.0
H524 H 0.38309 0.8946 0.08886 0.0
H525 H 0.38763 0.98823 0.13916 0.0
H526 H 0.49669 0.95717 0.07161 0.0
H527 H 0.50165 0.92287 0.09306 0.0
H528 H 0.45109 0.897 0.0753 0.0
H529 H 0.45774 0.04868 0.15343 0.0
H530 H 0.50643 0.0379 0.15303 0.0
H531 H 0.50227 0.07452 0.13256 0.0
H532 H 0.62653 0.01471 0.13457 0.0
H533 H 0.62013 0.10001 0.0828 0.0
H534 H 0.51098 0.92736 0.1336 0.0
H535 H 0.5113 0.96723 0.15357 0.0
H536 H 0.55982 0.95628 0.15219 0.0
H537 H 0.50327 0.03442 0.07088 0.0
H538 H 0.54942 0.09495 0.07166 0.0
H539 H 0.50301 0.07242 0.09174 0.0
C540 C 0.24124 0.04345 0.16467 0.0
C541 C 0.27509 0.05168 0.14867 0.0
C542 C 0.23871 0.08084 0.17437 0.0
C543 C 0.27054 0.12742 0.16776 0.0
C544 C 0.30514 0.13598 0.15182 0.0
C545 C 0.30713 0.09798 0.14253 0.0
C546 C 0.20164 0.07047 0.19149 0.0
C547 C 0.3395 0.18523 0.14427 0.0
C548 C 0.23665 0.22126 0.17545 0.0
C549 C 0.26363 0.24555 0.19372 0.0
C550 C 0.2382 0.18239 0.16696 0.0
C551 C 0.26709 0.16727 0.17713 0.0
C552 C 0.29362 0.19099 0.19585 0.0
C553 C 0.29174 0.23003 0.20387 0.0
C554 C 0.20963 0.15806 0.14687 0.0
C555 C 0.32443 0.17549 0.20724 0.0
H556 H 0.21646 0.00773 0.16954 0.0
H557 H 0.3333 0.10459 0.13013 0.0
H558 H 0.21823 0.09002 0.20675 0.0
H559 H 0.17745 0.08256 0.18567 0.0
H560 H 0.18073 0.03242 0.1954 0.0
H561 H 0.36474 0.18593 0.13199 0.0
H562 H 0.32021 0.20162 0.13695 0.0
H563 H 0.35952 0.20721 0.15844 0.0
H564 H 0.21489 0.23311 0.16751 0.0
H565 H 0.31246 0.24848 0.21809 0.0
H566 H 0.18586 0.12022 0.15032 0.0
H567 H 0.23329 0.16038 0.13337 0.0
H568 H 0.18822 0.17361 0.14119 0.0
H569 H 0.30344 0.13793 0.21195 0.0
H570 H 0.34131 0.19653 0.22215 0.0
H571 H 0.3523 0.17881 0.19592 0.0
C572 C 0.02876 0.25437 0.4938 0.0
C573 C 0.00544 0.22866 0.51252 0.0
C574 C 0.06948 0.25525 0.48622 0.0
C575 C 0.08697 0.22962 0.49761 0.0
C576 C 0.06293 0.20268 0.51619 0.0
C577 C 0.02248 0.20258 0.52345 0.0
C578 C 0.09434 0.28441 0.46633 0.0
C579 C 0.08043 0.17465 0.52865 0.0
C580 C 0.1719 0.20229 0.46806 0.0
C581 C 0.2152 0.23721 0.47631 0.0
C582 C 0.1298 0.19919 0.47496 0.0
C583 C 0.13111 0.23188 0.49041 0.0
C584 C 0.17461 0.26685 0.499 0.0
C585 C 0.21618 0.26903 0.49188 0.0
C586 C 0.08397 0.16124 0.46558 0.0
C587 C 0.17726 0.30232 0.51552 0.0
H588 H 0.01581 0.27463 0.4853 0.0
H589 H 0.00451 0.18243 0.53789 0.0
H590 H 0.13018 0.31236 0.4709 0.0
H591 H 0.09818 0.26218 0.45376 0.0
H592 H 0.07539 0.30116 0.45896 0.0
H593 H 0.05666 0.15417 0.54229 0.0
H594 H 0.08401 0.15002 0.51746 0.0
H595 H 0.11572 0.19863 0.53548 0.0
H596 H 0.17086 0.1775 0.45605 0.0
H597 H 0.24951 0.29617 0.49827 0.0
H598 H 0.06592 0.1774 0.45685 0.0
H599 H 0.06037 0.13935 0.47896 0.0
H600 H 0.08898 0.13802 0.454 0.0
H601 H 0.162 0.3229 0.50846 0.0
H602 H 0.21385 0.32706 0.52071 0.0
H603 H 0.15627 0.28401 0.53022 0.0
C604 C 0.90342 0.22598 0.80732 0.0
C605 C 0.94896 0.23863 0.81412 0.0
C606 C 0.86414 0.1875 0.81671 0.0
C607 C 0.87065 0.16141 0.8334 0.0
C608 C 0.91645 0.17469 0.8407 0.0
C609 C 0.95511 0.21306 0.83091 0.0
C610 C 0.81578 0.17412 0.80843 0.0
C611 C 0.92468 0.14787 0.85861 0.0
C612 C 0.76873 0.08314 0.8705 0.0
C613 C 0.75427 0.03859 0.86163 0.0
C614 C 0.80631 0.12357 0.86134 0.0
C615 C 0.82966 0.11928 0.84279 0.0
C616 C 0.81464 0.07453 0.83349 0.0
C617 C 0.77719 0.03467 0.84307 0.0
C618 C 0.82159 0.17075 0.87174 0.0
C619 C 0.83854 0.06867 0.81361 0.0
H620 H 0.89842 0.24552 0.79431 0.0
H621 H 0.99021 0.22278 0.8363 0.0
H622 H 0.799 0.13836 0.80123 0.0
H623 H 0.79326 0.1731 0.82218 0.0
H624 H 0.81665 0.19896 0.79583 0.0
H625 H 0.96235 0.16395 0.86303 0.0
H626 H 0.90458 0.14636 0.87347 0.0
H627 H 0.91186 0.11115 0.85328 0.0
H628 H 0.75125 0.08642 0.88487 0.0
H629 H 0.76609 0.00036 0.83608 0.0
H630 H 0.82091 0.19533 0.85947 0.0
H631 H 0.85827 0.18627 0.87763 0.0
H632 H 0.79893 0.16822 0.88576 0.0
H633 H 0.8382 0.09089 0.8 0.0
H634 H 0.82148 0.03164 0.80792 0.0
H635 H 0.8758 0.08057 0.81742 0.0
C636 C 0.70983 0.90668 0.13445 0.0
C637 C 0.74023 0.95362 0.14025 0.0
C638 C 0.71122 0.86993 0.14547 0.0
C639 C 0.74345 0.88043 0.16283 0.0
C640 C 0.77387 0.9277 0.16893 0.0
C641 C 0.77206 0.96379 0.15748 0.0
C642 C 0.67851 0.81989 0.13841 0.0
C643 C 0.80838 0.94014 0.1875 0.0
C644 C 0.71719 0.78221 0.20296 0.0
C645 C 0.74708 0.7662 0.19546 0.0
C646 C 0.71625 0.81997 0.19272 0.0
C647 C 0.74559 0.84186 0.17445 0.0
C648 C 0.77624 0.82625 0.16696 0.0
C649 C 0.7768 0.78872 0.17763 0.0
C650 C 0.68349 0.83609 0.2013 0.0
C651 C 0.80779 0.84858 0.14741 0.0
H652 H 0.68527 0.8986 0.1211 0.0
H653 H 0.79554 1e-05 0.16209 0.0
H654 H 0.69914 0.80312 0.13333 0.0
H655 H 0.65604 0.79922 0.15234 0.0
H656 H 0.65552 0.81771 0.12461 0.0
H657 H 0.8289 0.97861 0.19048 0.0
H658 H 0.78952 0.9225 0.20276 0.0
H659 H 0.83315 0.92734 0.18385 0.0
H660 H 0.69431 0.7651 0.21679 0.0
H661 H 0.79992 0.77644 0.17173 0.0
H662 H 0.6575 0.8313 0.18852 0.0
H663 H 0.70351 0.87411 0.20525 0.0
H664 H 0.66429 0.8165 0.21618 0.0
H665 H 0.78623 0.84453 0.13273 0.0
H666 H 0.83016 0.83281 0.1439 0.0
H667 H 0.83083 0.8868 0.15021 0.0
C668 C 0.75901 0.67756 0.48729 0.0
C669 C 0.75683 0.71889 0.4848 0.0
C670 C 0.79892 0.67872 0.49611 0.0
C671 C 0.83715 0.72214 0.50294 0.0
C672 C 0.83472 0.76385 0.50096 0.0
C673 C 0.79468 0.76179 0.49171 0.0
C674 C 0.80055 0.63362 0.4977 0.0
C675 C 0.87455 0.81066 0.50843 0.0
C676 C 0.92338 0.7171 0.54247 0.0
C677 C 0.96059 0.72549 0.5285 0.0
C678 C 0.88323 0.71666 0.53442 0.0
C679 C 0.87999 0.72392 0.51182 0.0
C680 C 0.91734 0.73209 0.49761 0.0
C681 C 0.95746 0.73322 0.50618 0.0
C682 C 0.84441 0.70865 0.55011 0.0
C683 C 0.91473 0.73925 0.47334 0.0
H684 H 0.72997 0.64434 0.48184 0.0
H685 H 0.793 0.79378 0.4899 0.0
H686 H 0.83043 0.63669 0.48795 0.0
H687 H 0.80639 0.62711 0.51491 0.0
H688 H 0.76775 0.60276 0.49173 0.0
H689 H 0.8663 0.83945 0.5066 0.0
H690 H 0.8828 0.80854 0.52586 0.0
H691 H 0.9066 0.81979 0.49882 0.0
H692 H 0.92592 0.71164 0.5598 0.0
H693 H 0.98616 0.73962 0.49534 0.0
H694 H 0.81154 0.67635 0.54549 0.0
H695 H 0.83739 0.73835 0.54914 0.0
H696 H 0.85307 0.70504 0.56731 0.0
H697 H 0.88377 0.70819 0.46623 0.0
H698 H 0.94665 0.74481 0.46452 0.0
H699 H 0.91016 0.77009 0.47045 0.0
C700 C 0.18955 0.98517 0.85716 0.0
C701 C 0.23265 0.0017 0.84637 0.0
C702 C 0.14919 0.94484 0.84989 0.0
C703 C 0.15207 0.92041 0.83145 0.0
C704 C 0.19517 0.93745 0.82018 0.0
C705 C 0.235 0.97805 0.82776 0.0
C706 C 0.1037 0.92786 0.86221 0.0
C707 C 0.19942 0.9122 0.80042 0.0
C708 C 0.06188 0.7912 0.82578 0.0
C709 C 0.03145 0.79247 0.81008 0.0
C710 C 0.10123 0.83269 0.83296 0.0
C711 C 0.11017 0.87637 0.82425 0.0
C712 C 0.07921 0.87796 0.80866 0.0
C713 C 0.04021 0.83597 0.80175 0.0
C714 C 0.13356 0.82976 0.84966 0.0
C715 C 0.08756 0.92396 0.79912 0.0
H716 H 0.1874 0.0034 0.87151 0.0
H717 H 0.2682 0.9906 0.81937 0.0
H718 H 0.07577 0.92442 0.8509 0.0
H719 H 0.09211 0.89253 0.86918 0.0
H720 H 0.10701 0.95192 0.87574 0.0
H721 H 0.23509 0.93085 0.79311 0.0
H722 H 0.1913 0.87626 0.80513 0.0
H723 H 0.17359 0.90844 0.78776 0.0
H724 H 0.05537 0.75774 0.83227 0.0
H725 H 0.01681 0.83726 0.78962 0.0
H726 H 0.13624 0.851 0.86427 0.0
H727 H 0.16937 0.84463 0.84271 0.0
H728 H 0.12137 0.79309 0.85496 0.0
H729 H 0.08926 0.94778 0.8124 0.0
H730 H 0.05965 0.91916 0.78742 0.0
H731 H 0.1218 0.94171 0.79049 0.0
C732 C 0.2529 0.28996 0.37548 0.0
C733 C 0.27743 0.26551 0.37835 0.0
C734 C 0.2404 0.29746 0.35458 0.0
C735 C 0.25326 0.28063 0.33605 0.0
C736 C 0.27791 0.25579 0.3388 0.0
C737 C 0.28946 0.24823 0.35998 0.0
C738 C 0.21362 0.32361 0.35232 0.0
C739 C 0.29263 0.23778 0.31937 0.0
C740 C 0.18927 0.26607 0.28236 0.0
C741 C 0.22067 0.30726 0.27122 0.0
C742 C 0.19915 0.25715 0.30359 0.0
C743 C 0.24171 0.28995 0.31377 0.0
C744 C 0.27327 0.33187 0.30272 0.0
C745 C 0.26221 0.34018 0.28163 0.0
C746 C 0.16433 0.21242 0.31504 0.0
C747 C 0.31915 0.36754 0.313 0.0
H748 H 0.24317 0.30313 0.38963 0.0
H749 H 0.30852 0.22943 0.36211 0.0
H750 H 0.23462 0.35634 0.34279 0.0
H751 H 0.18053 0.30187 0.34319 0.0
H752 H 0.20493 0.33303 0.36843 0.0
H753 H 0.31133 0.21886 0.3243 0.0
H754 H 0.26141 0.21365 0.30956 0.0
H755 H 0.31601 0.26755 0.30858 0.0
H756 H 0.15709 0.24053 0.27441 0.0
H757 H 0.28685 0.37195 0.27307 0.0
H758 H 0.15391 0.22081 0.33094 0.0
H759 H 0.18076 0.19071 0.31862 0.0
H760 H 0.13224 0.19121 0.30512 0.0
H761 H 0.31249 0.38015 0.3287 0.0
H762 H 0.33985 0.39834 0.3022 0.0
H763 H 0.34062 0.35092 0.31676 0.0
C764 C 0.98182 0.19734 0.62549 0.0
C765 C 0.94584 0.20545 0.61841 0.0
C766 C 0.99763 0.20597 0.6472 0.0
C767 C 0.97676 0.22282 0.66225 0.0
C768 C 0.93948 0.22975 0.6554 0.0
C769 C 0.92453 0.22109 0.63353 0.0
C770 C 0.03752 0.19824 0.65389 0.0
C771 C 0.91611 0.24729 0.67107 0.0
C772 C 0.9924 0.21114 0.72301 0.0
C773 C 0.0277 0.2568 0.72842 0.0
C774 C 0.97562 0.19951 0.70151 0.0
C775 C 0.99474 0.23432 0.68502 0.0
C776 C 0.03096 0.28025 0.69026 0.0
C777 C 0.04696 0.29097 0.71192 0.0
C778 C 0.93694 0.15018 0.69653 0.0
C779 C 0.05242 0.3182 0.67304 0.0
H780 H -0.00145 0.18528 0.61393 0.0
H781 H 0.89667 0.22737 0.6282 0.0
H782 H 0.06802 0.23205 0.65913 0.0
H783 H 0.02696 0.17396 0.66808 0.0
H784 H 0.04887 0.18348 0.6404 0.0
H785 H 0.88629 0.24892 0.66342 0.0
H786 H 0.90299 0.22406 0.68563 0.0
H787 H 0.94204 0.28294 0.67694 0.0
H788 H 0.97723 0.18451 0.73565 0.0
H789 H 0.07422 0.32632 0.71596 0.0
H790 H 0.94847 0.13445 0.68359 0.0
H791 H 0.90575 0.15102 0.69017 0.0
H792 H 0.92631 0.12703 0.71116 0.0
H793 H 0.06689 0.30672 0.65951 0.0
H794 H 0.08093 0.35186 0.67971 0.0
H795 H 0.02504 0.32458 0.66591 0.0
C796 C 0.79749 -0.00062 0.04542 0.0
C797 C 0.78669 0.03398 0.05179 0.0
C798 C 0.78981 0.98234 0.02389 0.0
C799 C 0.77124 0.00062 0.00833 0.0
C800 C 0.76159 0.03655 0.01448 0.0
C801 C 0.76927 0.05269 0.03616 0.0
C802 C 0.80031 0.94386 0.01796 0.0
C803 C 0.74219 0.05724 0.99826 0.0
C804 C 0.78287 0.98396 0.94766 0.0
C805 C 0.73757 0.94769 0.94248 0.0
C806 C 0.79461 0.00106 0.96911 0.0
C807 C 0.76034 0.98113 0.9858 0.0
C808 C 0.71503 0.94348 0.98082 0.0
C809 C 0.70413 0.92732 0.9592 0.0
C810 C 0.84321 0.04141 0.97379 0.0
C811 C 0.67771 0.921 0.99825 0.0
H812 H 0.81088 0.98465 0.0574 0.0
H813 H 0.76098 0.07953 0.04094 0.0
H814 H 0.76743 0.91181 0.01309 0.0
H815 H 0.82442 0.95468 0.00372 0.0
H816 H 0.81642 0.93478 0.03173 0.0
H817 H 0.7387 0.08649 0.00537 0.0
H818 H 0.76529 0.07052 0.98367 0.0
H819 H 0.70714 0.0296 0.99255 0.0
H820 H 0.80889 1e-05 0.93483 0.0
H821 H 0.6691 0.89921 0.95534 0.0
H822 H 0.85969 0.03195 0.98722 0.0
H823 H 0.84092 0.0724 0.97932 0.0
H824 H 0.86642 0.05161 0.9592 0.0
H825 H 0.69093 0.90897 0.01209 0.0
H826 H 0.64503 0.89053 0.99191 0.0
H827 H 0.66901 0.94723 0.00484 0.0
C828 C 0.80815 0.74443 0.29104 0.0
C829 C 0.77852 0.70372 0.27916 0.0
C830 C 0.79696 0.75057 0.31251 0.0
C831 C 0.75483 0.71544 0.32217 0.0
C832 C 0.72479 0.67428 0.31025 0.0
C833 C 0.73717 0.66876 0.28895 0.0
C834 C 0.83021 0.79458 0.32487 0.0
C835 C 0.67934 0.63622 0.31992 0.0
C836 C 0.74232 0.70555 0.38386 0.0
C837 C 0.71549 0.72712 0.38808 0.0
C838 C 0.75631 0.70257 0.36255 0.0
C839 C 0.74257 0.72104 0.34495 0.0
C840 C 0.7159 0.74335 0.34909 0.0
C841 C 0.70294 0.74645 0.37067 0.0
C842 C 0.78529 0.67911 0.35885 0.0
C843 C 0.70019 0.76296 0.33067 0.0
H844 H 0.84016 0.77156 0.28357 0.0
H845 H 0.71386 0.63738 0.2798 0.0
H846 H 0.81199 0.81398 0.32968 0.0
H847 H 0.84183 0.78515 0.34015 0.0
H848 H 0.8617 0.81838 0.31507 0.0
H849 H 0.65935 0.6069 0.30829 0.0
H850 H 0.6866 0.62179 0.33489 0.0
H851 H 0.65694 0.65115 0.32483 0.0
H852 H 0.75251 0.6909 0.39728 0.0
H853 H 0.6821 0.76303 0.37385 0.0
H854 H 0.81788 0.7031 0.34983 0.0
H855 H 0.76537 0.64726 0.34862 0.0
H856 H 0.79501 0.66866 0.37442 0.0
H857 H 0.73097 0.78892 0.32113 0.0
H858 H 0.6806 0.78023 0.33667 0.0
H859 H 0.67729 0.73428 0.31929 0.0
C860 C 0.08295 0.78408 0.61767 0.0
C861 C 0.06548 0.79952 0.6006 0.0
C862 C 0.06471 0.77826 0.63891 0.0
C863 C 0.02769 0.7875 0.64308 0.0
C864 C 0.01068 0.80419 0.62604 0.0
C865 C 0.03003 0.81033 0.60501 0.0
C866 C 0.08428 0.76113 0.65677 0.0
C867 C 0.97096 0.81399 0.62983 0.0
C868 C 0.95146 0.72465 0.69227 0.0
C869 C 0.97008 0.76009 0.70818 0.0
C870 C 0.96897 0.73349 0.67079 0.0
C871 C 0.00623 0.77869 0.66521 0.0
C872 C 0.0243 0.8149 0.68103 0.0
C873 C 0.00585 0.80523 0.70229 0.0
C874 C 0.94842 0.69417 0.65423 0.0
C875 C 0.06421 0.86343 0.67573 0.0
H876 H 0.1104 0.77575 0.61435 0.0
H877 H 0.01604 0.82184 0.59184 0.0
H878 H 0.09563 0.78562 0.67088 0.0
H879 H 0.0566 0.72633 0.66275 0.0
H880 H 0.11461 0.75782 0.65108 0.0
H881 H 0.963 0.82851 0.61506 0.0
H882 H 0.93885 0.78105 0.63461 0.0
H883 H 0.97966 0.83922 0.6435 0.0
H884 H 0.92372 0.68976 0.69668 0.0
H885 H 0.0205 0.83287 0.71447 0.0
H886 H 0.97546 0.68524 0.64915 0.0
H887 H 0.93742 0.70552 0.63935 0.0
H888 H 0.91769 0.66197 0.66079 0.0
H889 H 0.096 0.86143 0.67148 0.0
H890 H 0.07283 0.88825 0.6896 0.0
H891 H 0.0553 0.8779 0.66127 0.0
C892 C 0.21648 0.00919 0.05617 0.0
C893 C 0.22535 0.97297 0.06197 0.0
C894 C 0.22338 0.0263 0.03467 0.0
C895 C 0.23915 0.00644 0.01855 0.0
C896 C 0.24716 0.96916 0.02417 0.0
C897 C 0.24032 0.95297 0.04585 0.0
C898 C 0.21469 0.06625 0.02929 0.0
C899 C 0.26354 0.9468 0.00734 0.0
C900 C 0.22027 0.02243 0.95865 0.0
C901 C 0.2652 0.05764 0.95225 0.0
C902 C 0.21118 0.00572 0.98023 0.0
C903 C 0.2478 0.025 0.99583 0.0
C904 C 0.29292 0.06141 0.98964 0.0
C905 C 0.30115 0.0772 0.96789 0.0
C906 C 0.16268 0.96669 0.98621 0.0
C907 C 0.33271 0.08314 0.00592 0.0
H908 H 0.20506 0.02498 0.06854 0.0
H909 H 0.24718 0.92492 0.0502 0.0
H910 H 0.24763 0.09698 0.0234 0.0
H911 H 0.18859 0.05581 0.0159 0.0
H912 H 0.20171 0.07726 0.04363 0.0
H913 H 0.26678 0.9172 0.01422 0.0
H914 H 0.23864 0.93352 0.9934 0.0
H915 H 0.29817 0.97342 0.00073 0.0
H916 H 0.19229 0.00701 0.94667 0.0
H917 H 0.33592 0.10448 0.96307 0.0
H918 H 0.14851 0.97772 4e-05 0.0
H919 H 0.16447 0.9354 0.99171 0.0
H920 H 0.13777 0.9563 0.97228 0.0
H921 H 0.32239 0.09676 0.02023 0.0
H922 H 0.36519 0.11236 -0.0013 0.0
H923 H 0.34063 0.05604 0.01208 0.0
loop_
_geom_bond_atom_site_label_1
_geom_bond_atom_site_label_2
_geom_bond_distance
_geom_bond_site_symmetry_2
_ccdc_geom_bond_type
C0 O1 1.160 . S
C0 O7 1.185 . S
O1 C0 1.160 . S
O2 Zn3 1.899 . S
O2 C10 1.284 . S
Zn3 O2 1.899 . S
Zn3 O4 2.032 . S
Zn3 O7 2.086 . S
Zn3 O12 1.977 . S
O4 Zn3 2.032 . S
O4 C8 1.278 . S
C5 O6 1.203 . S
C5 O12 1.267 . S
O6 C5 1.203 . S
O7 C0 1.185 . S
O7 Zn3 2.086 . S
C8 O4 1.278 . S
C8 O9 1.211 . S
O9 C8 1.211 . S
C10 O2 1.284 . S
C10 O11 1.273 . S
O11 C10 1.273 . S
O12 Zn3 1.977 . S
O12 C5 1.267 . S
C13 O14 1.160 . S
C13 O20 1.185 . S
O14 C13 1.160 . S
O15 Zn16 1.899 . S
O15 C23 1.284 . S
Zn16 O15 1.899 . S
Zn16 O17 2.032 . S
Zn16 O20 2.086 . S
Zn16 O25 1.977 . S
O17 Zn16 2.032 . S
O17 C21 1.278 1_655 S
C18 O19 1.203 . S
C18 O25 1.267 . S
O19 C18 1.203 . S
O20 C13 1.185 . S
O20 Zn16 2.086 . S
C21 O17 1.278 1_455 S
C21 O22 1.211 . S
O22 C21 1.211 . S
C23 O15 1.284 . S
C23 O24 1.273 1_655 S
O24 C23 1.273 1_455 S
O25 Zn16 1.977 . S
O25 C18 1.267 . S
C26 O27 1.160 . S
C26 O33 1.185 . S
O27 C26 1.160 . S
O28 Zn29 1.899 . S
O28 C36 1.284 . S
Zn29 O28 1.899 . S
Zn29 O30 2.032 . S
Zn29 O33 2.086 . S
Zn29 O38 1.977 . S
O30 Zn29 2.032 . S
O30 C34 1.278 1_565 S
C31 O32 1.203 . S
C31 O38 1.267 . S
O32 C31 1.203 . S
O33 C26 1.185 . S
O33 Zn29 2.086 . S
C34 O30 1.278 1_545 S
C34 O35 1.211 . S
O35 C34 1.211 . S
C36 O28 1.284 . S
C36 O37 1.273 1_565 S
O37 C36 1.273 1_545 S
O38 Zn29 1.977 . S
O38 C31 1.267 . S
C39 O40 1.160 . S
C39 O46 1.185 . S
O40 C39 1.160 . S
O41 Zn42 1.899 . S
O41 C49 1.284 . S
Zn42 O41 1.899 . S
Zn42 O43 2.032 . S
Zn42 O46 2.086 . S
Zn42 O51 1.977 . S
O43 Zn42 2.032 . S
O43 C47 1.278 . S
C44 O45 1.203 . S
C44 O51 1.267 . S
O45 C44 1.203 . S
O46 C39 1.185 . S
O46 Zn42 2.086 . S
C47 O43 1.278 . S
C47 O48 1.211 . S
O48 C47 1.211 . S
C49 O41 1.284 . S
C49 O50 1.273 . S
O50 C49 1.273 . S
O51 Zn42 1.977 . S
O51 C44 1.267 . S
C52 O53 1.160 . S
C52 O59 1.185 . S
O53 C52 1.160 . S
O54 Zn55 1.899 . S
O54 C62 1.284 . S
Zn55 O54 1.899 . S
Zn55 O56 2.032 . S
Zn55 O59 2.086 . S
Zn55 O64 1.977 . S
O56 Zn55 2.032 . S
O56 C60 1.278 1_455 S
C57 O58 1.203 . S
C57 O64 1.267 . S
O58 C57 1.203 . S
O59 C52 1.185 . S
O59 Zn55 2.086 . S
C60 O56 1.278 1_655 S
C60 O61 1.211 . S
O61 C60 1.211 . S
C62 O54 1.284 . S
C62 O63 1.273 1_455 S
O63 C62 1.273 1_655 S
O64 Zn55 1.977 . S
O64 C57 1.267 . S
C65 O66 1.160 . S
C65 O72 1.185 . S
O66 C65 1.160 . S
O67 Zn68 1.899 . S
O67 C75 1.284 . S
Zn68 O67 1.899 . S
Zn68 O69 2.032 . S
Zn68 O72 2.086 . S
Zn68 O77 1.977 . S
O69 Zn68 2.032 . S
O69 C73 1.278 1_545 S
C70 O71 1.203 . S
C70 O77 1.267 . S
O71 C70 1.203 . S
O72 C65 1.185 . S
O72 Zn68 2.086 . S
C73 O69 1.278 1_565 S
C73 O74 1.211 . S
O74 C73 1.211 . S
C75 O67 1.284 . S
C75 O76 1.273 1_545 S
O76 C75 1.273 1_565 S
O77 Zn68 1.977 . S
O77 C70 1.267 . S
C78 O79 1.160 . S
C78 O85 1.185 . S
O79 C78 1.160 . S
O80 Zn81 1.899 . S
O80 C88 1.284 . S
Zn81 O80 1.899 . S
Zn81 O82 2.032 . S
Zn81 O85 2.086 . S
Zn81 O90 1.977 . S
O82 Zn81 2.032 . S
O82 C86 1.278 . S
C83 O84 1.203 . S
C83 O90 1.267 . S
O84 C83 1.203 . S
O85 C78 1.185 . S
O85 Zn81 2.086 . S
C86 O82 1.278 . S
C86 O87 1.211 . S
O87 C86 1.211 . S
C88 O80 1.284 . S
C88 O89 1.273 . S
O89 C88 1.273 . S
O90 Zn81 1.977 . S
O90 C83 1.267 . S
C91 O92 1.160 . S
C91 O98 1.185 . S
O92 C91 1.160 . S
O93 Zn94 1.899 . S
O93 C101 1.284 . S
Zn94 O93 1.899 . S
Zn94 O95 2.032 . S
Zn94 O98 2.086 . S
Zn94 O103 1.977 . S
O95 Zn94 2.032 . S
O95 C99 1.278 1_655 S
C96 O97 1.203 . S
C96 O103 1.267 . S
O97 C96 1.203 . S
O98 C91 1.185 . S
O98 Zn94 2.086 . S
C99 O95 1.278 1_455 S
C99 O100 1.211 . S
O100 C99 1.211 . S
C101 O93 1.284 . S
C101 O102 1.273 1_655 S
O102 C101 1.273 1_455 S
O103 Zn94 1.977 . S
O103 C96 1.267 . S
C104 O105 1.160 . S
C104 O111 1.185 . S
O105 C104 1.160 . S
O106 Zn107 1.899 . S
O106 C114 1.284 . S
Zn107 O106 1.899 . S
Zn107 O108 2.032 . S
Zn107 O111 2.086 . S
Zn107 O116 1.977 . S
O108 Zn107 2.032 . S
O108 C112 1.278 1_565 S
C109 O110 1.203 . S
C109 O116 1.267 . S
O110 C109 1.203 . S
O111 C104 1.185 . S
O111 Zn107 2.086 . S
C112 O108 1.278 1_545 S
C112 O113 1.211 . S
O113 C112 1.211 . S
C114 O106 1.284 . S
C114 O115 1.273 1_565 S
O115 C114 1.273 1_545 S
O116 Zn107 1.977 . S
O116 C109 1.267 . S
C117 O118 1.160 . S
C117 O124 1.185 . S
O118 C117 1.160 . S
O119 Zn120 1.899 . S
O119 C127 1.284 . S
Zn120 O119 1.899 . S
Zn120 O121 2.032 . S
Zn120 O124 2.086 . S
Zn120 O129 1.977 . S
O121 Zn120 2.032 . S
O121 C125 1.278 . S
C122 O123 1.203 . S
C122 O129 1.267 . S
O123 C122 1.203 . S
O124 C117 1.185 . S
O124 Zn120 2.086 . S
C125 O121 1.278 . S
C125 O126 1.211 . S
O126 C125 1.211 . S
C127 O119 1.284 . S
C127 O128 1.273 . S
O128 C127 1.273 . S
O129 Zn120 1.977 . S
O129 C122 1.267 . S
C130 O131 1.160 . S
C130 O137 1.185 . S
O131 C130 1.160 . S
O132 Zn133 1.899 . S
O132 C140 1.284 . S
Zn133 O132 1.899 . S
Zn133 O134 2.032 . S
Zn133 O137 2.086 . S
Zn133 O142 1.977 . S
O134 Zn133 2.032 . S
O134 C138 1.278 1_455 S
C135 O136 1.203 . S
C135 O142 1.267 . S
O136 C135 1.203 . S
O137 C130 1.185 . S
O137 Zn133 2.086 . S
C138 O134 1.278 1_655 S
C138 O139 1.211 . S
O139 C138 1.211 . S
C140 O132 1.284 . S
C140 O141 1.273 1_455 S
O141 C140 1.273 1_655 S
O142 Zn133 1.977 . S
O142 C135 1.267 . S
C143 O144 1.160 . S
C143 O150 1.185 . S
O144 C143 1.160 . S
O145 Zn146 1.899 . S
O145 C153 1.284 . S
Zn146 O145 1.899 . S
Zn146 O147 2.032 . S
Zn146 O150 2.086 . S
Zn146 O155 1.977 . S
O147 Zn146 2.032 . S
O147 C151 1.278 1_545 S
C148 O149 1.203 . S
C148 O155 1.267 . S
O149 C148 1.203 . S
O150 C143 1.185 . S
O150 Zn146 2.086 . S
C151 O147 1.278 1_565 S
C151 O152 1.211 . S
O152 C151 1.211 . S
C153 O145 1.284 . S
C153 O154 1.273 1_545 S
O154 C153 1.273 1_565 S
O155 Zn146 1.977 . S
O155 C148 1.267 . S
C156 C157 1.391 . S
C156 C158 1.394 . S
C156 H172 0.931 . S
C157 C156 1.391 . S
C157 C161 1.376 . S
C158 C156 1.394 . S
C158 C159 1.369 . S
C158 C162 1.531 . S
C159 C158 1.369 . S
C159 C160 1.410 . S
C159 C167 1.503 1_655 S
C160 C159 1.410 . S
C160 C161 1.392 . S
C160 C163 1.511 . S
C161 C157 1.376 . S
C161 C160 1.392 . S
C161 H173 0.929 . S
C162 C158 1.531 . S
C162 H174 0.960 1_655 S
C162 H175 0.962 1_655 S
C162 H176 0.960 . S
C163 C160 1.511 . S
C163 H177 0.961 . S
C163 H178 0.961 . S
C163 H179 0.961 . S
C164 C165 1.370 . S
C164 C166 1.363 . S
C164 H180 0.931 . S
C165 C164 1.370 . S
C165 C169 1.408 . S
C166 C164 1.363 . S
C166 C167 1.370 . S
C166 C170 1.524 . S
C167 C159 1.503 1_455 S
C167 C166 1.370 . S
C167 C168 1.403 . S
C168 C167 1.403 . S
C168 C169 1.404 . S
C168 C171 1.539 1_455 S
C169 C165 1.408 . S
C169 C168 1.404 . S
C169 H181 0.930 . S
C170 C166 1.524 . S
C170 H182 0.956 . S
C170 H183 0.961 . S
C170 H184 0.961 . S
C171 C168 1.539 1_655 S
C171 H185 0.958 . S
C171 H186 0.961 1_655 S
C171 H187 0.960 . S
H172 C156 0.931 . S
H173 C161 0.929 . S
H174 C162 0.960 1_455 S
H175 C162 0.962 1_455 S
H176 C162 0.960 . S
H177 C163 0.961 . S
H178 C163 0.961 . S
H179 C163 0.961 . S
H180 C164 0.931 . S
H181 C169 0.930 . S
H182 C170 0.956 . S
H183 C170 0.961 . S
H184 C170 0.961 . S
H185 C171 0.958 . S
H186 C171 0.961 1_455 S
H187 C171 0.960 . S
C188 C189 1.391 . S
C188 C190 1.394 . S
C188 H204 0.931 . S
C189 C188 1.391 . S
C189 C193 1.376 . S
C190 C188 1.394 . S
C190 C191 1.369 . S
C190 C194 1.531 . S
C191 C190 1.369 . S
C191 C192 1.410 . S
C191 C199 1.503 1_545 S
C192 C191 1.410 . S
C192 C193 1.392 . S
C192 C195 1.511 . S
C193 C189 1.376 . S
C193 C192 1.392 . S
C193 H205 0.929 . S
C194 C190 1.531 . S
C194 H206 0.960 1_545 S
C194 H207 0.962 . S
C194 H208 0.960 . S
C195 C192 1.511 . S
C195 H209 0.961 . S
C195 H210 0.961 . S
C195 H211 0.961 . S
C196 C197 1.370 . S
C196 C198 1.363 . S
C196 H212 0.931 . S
C197 C196 1.370 . S
C197 C201 1.408 . S
C198 C196 1.363 . S
C198 C199 1.370 . S
C198 C202 1.524 1_565 S
C199 C191 1.503 1_565 S
C199 C198 1.370 . S
C199 C200 1.403 . S
C200 C199 1.403 . S
C200 C201 1.404 . S
C200 C203 1.539 . S
C201 C197 1.408 . S
C201 C200 1.404 . S
C201 H213 0.930 . S
C202 C198 1.524 1_545 S
C202 H214 0.956 . S
C202 H215 0.961 . S
C202 H216 0.961 1_545 S
C203 C200 1.539 . S
C203 H217 0.958 . S
C203 H218 0.961 . S
C203 H219 0.960 . S
H204 C188 0.931 . S
H205 C193 0.929 . S
H206 C194 0.960 1_565 S
H207 C194 0.962 . S
H208 C194 0.960 . S
H209 C195 0.961 . S
H210 C195 0.961 . S
H211 C195 0.961 . S
H212 C196 0.931 . S
H213 C201 0.930 . S
H214 C202 0.956 . S
H215 C202 0.961 . S
H216 C202 0.961 1_565 S
H217 C203 0.958 . S
H218 C203 0.961 . S
H219 C203 0.960 . S
C220 C221 1.391 . S
C220 C222 1.394 . S
C220 H236 0.931 . S
C221 C220 1.391 . S
C221 C225 1.376 . S
C222 C220 1.394 . S
C222 C223 1.369 . S
C222 C226 1.531 . S
C223 C222 1.369 . S
C223 C224 1.410 . S
C223 C231 1.503 . S
C224 C223 1.410 . S
C224 C225 1.392 . S
C224 C227 1.511 . S
C225 C221 1.376 . S
C225 C224 1.392 . S
C225 H237 0.929 . S
C226 C222 1.531 . S
C226 H238 0.960 . S
C226 H239 0.962 . S
C226 H240 0.960 . S
C227 C224 1.511 . S
C227 H241 0.961 . S
C227 H242 0.961 . S
C227 H243 0.961 . S
C228 C229 1.370 . S
C228 C230 1.363 . S
C228 H244 0.931 . S
C229 C228 1.370 . S
C229 C233 1.408 . S
C230 C228 1.363 . S
C230 C231 1.370 . S
C230 C234 1.524 . S
C231 C223 1.503 . S
C231 C230 1.370 . S
C231 C232 1.403 . S
C232 C231 1.403 . S
C232 C233 1.404 . S
C232 C235 1.539 . S
C233 C229 1.408 . S
C233 C232 1.404 . S
C233 H245 0.930 . S
C234 C230 1.524 . S
C234 H246 0.956 . S
C234 H247 0.961 . S
C234 H248 0.961 . S
C235 C232 1.539 . S
C235 H249 0.958 . S
C235 H250 0.961 . S
C235 H251 0.960 . S
H236 C220 0.931 . S
H237 C225 0.929 . S
H238 C226 0.960 . S
H239 C226 0.962 . S
H240 C226 0.960 . S
H241 C227 0.961 . S
H242 C227 0.961 . S
H243 C227 0.961 . S
H244 C228 0.931 . S
H245 C233 0.930 . S
H246 C234 0.956 . S
H247 C234 0.961 . S
H248 C234 0.961 . S
H249 C235 0.958 . S
H250 C235 0.961 . S
H251 C235 0.960 . S
C252 C253 1.391 . S
C252 C254 1.394 . S
C252 H268 0.931 . S
C253 C252 1.391 . S
C253 C257 1.376 . S
C254 C252 1.394 . S
C254 C255 1.369 . S
C254 C258 1.531 1_655 S
C255 C254 1.369 . S
C255 C256 1.410 . S
C255 C263 1.503 1_655 S
C256 C255 1.410 . S
C256 C257 1.392 . S
C256 C259 1.511 . S
C257 C253 1.376 . S
C257 C256 1.392 . S
C257 H269 0.929 . S
C258 C254 1.531 1_455 S
C258 H270 0.960 . S
C258 H271 0.962 . S
C258 H272 0.960 1_455 S
C259 C256 1.511 . S
C259 H273 0.961 . S
C259 H274 0.961 . S
C259 H275 0.961 . S
C260 C261 1.370 . S
C260 C262 1.363 . S
C260 H276 0.931 . S
C261 C260 1.370 . S
C261 C265 1.408 . S
C262 C260 1.363 . S
C262 C263 1.370 . S
C262 C266 1.524 . S
C263 C255 1.503 1_455 S
C263 C262 1.370 . S
C263 C264 1.403 . S
C264 C263 1.403 . S
C264 C265 1.404 . S
C264 C267 1.539 . S
C265 C261 1.408 . S
C265 C264 1.404 . S
C265 H277 0.930 . S
C266 C262 1.524 . S
C266 H278 0.967 . S
C266 H279 0.961 1_455 S
C266 H280 0.961 . S
C267 C264 1.539 . S
C267 H281 0.958 . S
C267 H282 0.961 . S
C267 H283 0.960 . S
H268 C252 0.931 . S
H269 C257 0.929 . S
H270 C258 0.960 . S
H271 C258 0.962 . S
H272 C258 0.960 1_655 S
H273 C259 0.961 . S
H274 C259 0.961 . S
H275 C259 0.961 . S
H276 C260 0.931 . S
H277 C265 0.930 . S
H278 C266 0.967 . S
H279 C266 0.961 1_655 S
H280 C266 0.961 . S
H281 C267 0.958 . S
H282 C267 0.961 . S
H283 C267 0.960 . S
C284 C285 1.391 . S
C284 C286 1.394 . S
C284 H300 0.931 . S
C285 C284 1.391 . S
C285 C289 1.376 . S
C286 C284 1.394 . S
C286 C287 1.369 . S
C286 C290 1.531 . S
C287 C286 1.369 . S
C287 C288 1.410 . S
C287 C295 1.503 1_545 S
C288 C287 1.410 . S
C288 C289 1.392 . S
C288 C291 1.511 . S
C289 C285 1.376 . S
C289 C288 1.392 . S
C289 H301 0.929 . S
C290 C286 1.531 . S
C290 H302 0.960 . S
C290 H303 0.962 . S
C290 H304 0.960 . S
C291 C288 1.511 . S
C291 H305 0.961 . S
C291 H306 0.961 1_545 S
C291 H307 0.961 . S
C292 C293 1.370 . S
C292 C294 1.363 . S
C292 H308 0.931 . S
C293 C292 1.370 . S
C293 C297 1.408 . S
C294 C292 1.363 . S
C294 C295 1.370 . S
C294 C298 1.524 . S
C295 C287 1.503 1_565 S
C295 C294 1.370 . S
C295 C296 1.403 . S
C296 C295 1.403 . S
C296 C297 1.404 . S
C296 C299 1.539 . S
C297 C293 1.408 . S
C297 C296 1.404 . S
C297 H309 0.930 . S
C298 C294 1.524 . S
C298 H310 0.956 . S
C298 H311 0.961 . S
C298 H312 0.961 . S
C299 C296 1.539 . S
C299 H313 0.958 1_565 S
C299 H314 0.961 . S
C299 H315 0.960 1_565 S
H300 C284 0.931 . S
H301 C289 0.929 . S
H302 C290 0.960 . S
H303 C290 0.962 . S
H304 C290 0.960 . S
H305 C291 0.961 . S
H306 C291 0.961 1_565 S
H307 C291 0.961 . S
H308 C292 0.931 . S
H309 C297 0.930 . S
H310 C298 0.956 . S
H311 C298 0.961 . S
H312 C298 0.961 . S
H313 C299 0.958 1_545 S
H314 C299 0.961 . S
H315 C299 0.960 1_545 S
C316 C317 1.391 . S
C316 C318 1.394 . S
C316 H332 0.931 . S
C317 C316 1.391 . S
C317 C321 1.376 . S
C318 C316 1.394 . S
C318 C319 1.369 . S
C318 C322 1.531 . S
C319 C318 1.369 . S
C319 C320 1.410 . S
C319 C327 1.503 . S
C320 C319 1.410 . S
C320 C321 1.392 . S
C320 C323 1.511 . S
C321 C317 1.376 . S
C321 C320 1.392 . S
C321 H333 0.929 . S
C322 C318 1.531 . S
C322 H334 0.960 . S
C322 H335 0.962 . S
C322 H336 0.960 . S
C323 C320 1.511 . S
C323 H337 0.961 . S
C323 H338 0.961 . S
C323 H339 0.961 . S
C324 C325 1.370 . S
C324 C326 1.363 . S
C324 H340 0.931 . S
C325 C324 1.370 . S
C325 C329 1.408 . S
C326 C324 1.363 . S
C326 C327 1.370 . S
C326 C330 1.524 . S
C327 C319 1.503 . S
C327 C326 1.370 . S
C327 C328 1.403 . S
C328 C327 1.403 . S
C328 C329 1.404 . S
C328 C331 1.539 . S
C329 C325 1.408 . S
C329 C328 1.404 . S
C329 H341 0.930 . S
C330 C326 1.524 . S
C330 H342 0.956 . S
C330 H343 0.961 . S
C330 H344 0.961 . S
C331 C328 1.539 . S
C331 H345 0.958 . S
C331 H346 0.961 . S
C331 H347 0.960 . S
H332 C316 0.931 . S
H333 C321 0.929 . S
H334 C322 0.960 . S
H335 C322 0.962 . S
H336 C322 0.960 . S
H337 C323 0.961 . S
H338 C323 0.961 . S
H339 C323 0.961 . S
H340 C324 0.931 . S
H341 C329 0.930 . S
H342 C330 0.956 . S
H343 C330 0.961 . S
H344 C330 0.961 . S
H345 C331 0.958 . S
H346 C331 0.961 . S
H347 C331 0.960 . S
C348 C349 1.391 . S
C348 C350 1.394 . S
C348 H364 0.931 . S
C349 C348 1.391 . S
C349 C353 1.376 . S
C350 C348 1.394 . S
C350 C351 1.369 . S
C350 C354 1.531 . S
C351 C350 1.369 . S
C351 C352 1.410 . S
C351 C359 1.503 . S
C352 C351 1.410 . S
C352 C353 1.392 . S
C352 C355 1.511 . S
C353 C349 1.376 . S
C353 C352 1.392 . S
C353 H365 0.929 . S
C354 C350 1.531 . S
C354 H366 0.960 . S
C354 H367 0.962 . S
C354 H368 0.960 . S
C355 C352 1.511 . S
C355 H369 0.961 . S
C355 H370 0.961 . S
C355 H371 0.961 . S
C356 C357 1.370 . S
C356 C358 1.363 . S
C356 H372 0.931 . S
C357 C356 1.370 . S
C357 C361 1.408 . S
C358 C356 1.363 . S
C358 C359 1.370 . S
C358 C362 1.524 . S
C359 C351 1.503 . S
C359 C358 1.370 . S
C359 C360 1.403 . S
C360 C359 1.403 . S
C360 C361 1.404 . S
C360 C363 1.539 . S
C361 C357 1.408 . S
C361 C360 1.404 . S
C361 H373 0.930 . S
C362 C358 1.524 . S
C362 H374 0.956 . S
C362 H375 0.961 . S
C362 H376 0.961 . S
C363 C360 1.539 . S
C363 H377 0.958 . S
C363 H378 0.961 . S
C363 H379 0.960 . S
H364 C348 0.931 . S
H365 C353 0.929 . S
H366 C354 0.960 . S
H367 C354 0.962 . S
H368 C354 0.960 . S
H369 C355 0.961 . S
H370 C355 0.961 . S
H371 C355 0.961 . S
H372 C356 0.931 . S
H373 C361 0.930 . S
H374 C362 0.956 . S
H375 C362 0.961 . S
H376 C362 0.961 . S
H377 C363 0.958 . S
H378 C363 0.961 . S
H379 C363 0.960 . S
C380 C381 1.391 . S
C380 C382 1.394 . S
C380 H396 0.931 . S
C381 C380 1.391 . S
C381 C385 1.376 . S
C382 C380 1.394 . S
C382 C383 1.369 . S
C382 C386 1.531 . S
C383 C382 1.369 . S
C383 C384 1.408 1_455 S
C383 C391 1.503 1_455 S
C384 C383 1.408 1_655 S
C384 C385 1.393 1_655 S
C384 C387 1.512 . S
C385 C381 1.376 . S
C385 C384 1.393 1_455 S
C385 H397 0.929 . S
C386 C382 1.531 . S
C386 H398 0.960 . S
C386 H399 0.962 . S
C386 H400 0.960 . S
C387 C384 1.512 . S
C387 H401 0.961 . S
C387 H402 0.961 . S
C387 H403 0.961 . S
C388 C389 1.370 . S
C388 C390 1.363 . S
C388 H404 0.931 . S
C389 C388 1.370 . S
C389 C393 1.408 . S
C390 C388 1.363 . S
C390 C391 1.370 . S
C390 C394 1.524 . S
C391 C383 1.503 1_655 S
C391 C390 1.370 . S
C391 C392 1.403 1_655 S
C392 C391 1.403 1_455 S
C392 C393 1.404 1_455 S
C392 C395 1.539 . S
C393 C389 1.408 . S
C393 C392 1.404 1_655 S
C393 H405 0.930 . S
C394 C390 1.524 . S
C394 H406 0.956 . S
C394 H407 0.961 . S
C394 H408 0.961 . S
C395 C392 1.539 . S
C395 H409 0.958 . S
C395 H410 0.961 . S
C395 H411 0.960 . S
H396 C380 0.931 . S
H397 C385 0.929 . S
H398 C386 0.960 . S
H399 C386 0.962 . S
H400 C386 0.960 . S
H401 C387 0.961 . S
H402 C387 0.961 . S
H403 C387 0.961 . S
H404 C388 0.931 . S
H405 C393 0.930 . S
H406 C394 0.956 . S
H407 C394 0.961 . S
H408 C394 0.961 . S
H409 C395 0.958 . S
H410 C395 0.961 . S
H411 C395 0.960 . S
C412 C413 1.391 . S
C412 C414 1.394 1_545 S
C412 H428 0.931 1_545 S
C413 C412 1.391 . S
C413 C417 1.376 . S
C414 C412 1.394 1_565 S
C414 C415 1.369 1_565 S
C414 C418 1.531 . S
C415 C414 1.369 1_545 S
C415 C416 1.410 . S
C415 C423 1.503 1_545 S
C416 C415 1.410 . S
C416 C417 1.392 . S
C416 C419 1.511 . S
C417 C413 1.376 . S
C417 C416 1.392 . S
C417 H429 0.929 . S
C418 C414 1.531 . S
C418 H430 0.960 . S
C418 H431 0.962 . S
C418 H432 0.960 . S
C419 C416 1.511 . S
C419 H433 0.961 . S
C419 H434 0.961 . S
C419 H435 0.961 . S
C420 C421 1.370 . S
C420 C422 1.363 . S
C420 H436 0.931 . S
C421 C420 1.370 . S
C421 C425 1.408 . S
C422 C420 1.363 . S
C422 C423 1.370 . S
C422 C426 1.524 1_565 S
C423 C415 1.503 1_565 S
C423 C422 1.370 . S
C423 C424 1.403 . S
C424 C423 1.403 . S
C424 C425 1.404 . S
C424 C427 1.539 . S
C425 C421 1.408 . S
C425 C424 1.404 . S
C425 H437 0.930 . S
C426 C422 1.524 1_545 S
C426 H438 0.956 . S
C426 H439 0.961 . S
C426 H440 0.961 . S
C427 C424 1.539 . S
C427 H441 0.958 . S
C427 H442 0.961 . S
C427 H443 0.960 . S
H428 C412 0.931 1_565 S
H429 C417 0.929 . S
H430 C418 0.960 . S
H431 C418 0.962 . S
H432 C418 0.960 . S
H433 C419 0.961 . S
H434 C419 0.961 . S
H435 C419 0.961 . S
H436 C420 0.931 . S
H437 C425 0.930 . S
H438 C426 0.956 . S
H439 C426 0.961 . S
H440 C426 0.961 . S
H441 C427 0.958 . S
H442 C427 0.961 . S
H443 C427 0.960 . S
C444 C445 1.391 . S
C444 C446 1.394 . S
C444 H460 0.931 . S
C445 C444 1.391 . S
C445 C449 1.376 . S
C446 C444 1.394 . S
C446 C447 1.369 . S
C446 C450 1.531 . S
C447 C446 1.369 . S
C447 C448 1.410 . S
C447 C455 1.503 . S
C448 C447 1.410 . S
C448 C449 1.392 . S
C448 C451 1.511 . S
C449 C445 1.376 . S
C449 C448 1.392 . S
C449 H461 0.929 . S
C450 C446 1.531 . S
C450 H462 0.960 . S
C450 H463 0.962 . S
C450 H464 0.960 . S
C451 C448 1.511 . S
C451 H465 0.961 . S
C451 H466 0.961 . S
C451 H467 0.961 . S
C452 C453 1.370 . S
C452 C454 1.363 . S
C452 H468 0.931 . S
C453 C452 1.370 . S
C453 C457 1.408 . S
C454 C452 1.363 . S
C454 C455 1.370 . S
C454 C458 1.524 . S
C455 C447 1.503 . S
C455 C454 1.370 . S
C455 C456 1.403 . S
C456 C455 1.403 . S
C456 C457 1.404 . S
C456 C459 1.539 . S
C457 C453 1.408 . S
C457 C456 1.404 . S
C457 H469 0.930 . S
C458 C454 1.524 . S
C458 H470 0.956 . S
C458 H471 0.961 . S
C458 H472 0.961 . S
C459 C456 1.539 . S
C459 H473 0.958 . S
C459 H474 0.961 . S
C459 H475 0.960 . S
H460 C444 0.931 . S
H461 C449 0.929 . S
H462 C450 0.960 . S
H463 C450 0.962 . S
H464 C450 0.960 . S
H465 C451 0.961 . S
H466 C451 0.961 . S
H467 C451 0.961 . S
H468 C452 0.931 . S
H469 C457 0.930 . S
H470 C458 0.956 . S
H471 C458 0.961 . S
H472 C458 0.961 . S
H473 C459 0.958 . S
H474 C459 0.961 . S
H475 C459 0.960 . S
C476 C477 1.391 . S
C476 C478 1.394 . S
C476 H492 0.931 . S
C477 C476 1.391 . S
C477 C481 1.376 . S
C478 C476 1.394 . S
C478 C479 1.369 . S
C478 C482 1.531 . S
C479 C478 1.369 . S
C479 C480 1.410 1_655 S
C479 C487 1.503 1_655 S
C480 C479 1.410 1_455 S
C480 C481 1.392 1_455 S
C480 C483 1.511 . S
C481 C477 1.376 . S
C481 C480 1.392 1_655 S
C481 H493 0.929 . S
C482 C478 1.531 . S
C482 H494 0.960 . S
C482 H495 0.962 . S
C482 H496 0.960 . S
C483 C480 1.511 . S
C483 H497 0.961 . S
C483 H498 0.961 . S
C483 H499 0.961 . S
C484 C485 1.370 . S
C484 C486 1.363 . S
C484 H500 0.931 . S
C485 C484 1.370 . S
C485 C489 1.408 . S
C486 C484 1.363 . S
C486 C487 1.370 . S
C486 C490 1.524 . S
C487 C479 1.503 1_455 S
C487 C486 1.370 . S
C487 C488 1.403 1_455 S
C488 C487 1.403 1_655 S
C488 C489 1.404 1_655 S
C488 C491 1.539 . S
C489 C485 1.408 . S
C489 C488 1.404 1_455 S
C489 H501 0.930 . S
C490 C486 1.524 . S
C490 H502 0.956 . S
C490 H503 0.961 . S
C490 H504 0.961 . S
C491 C488 1.539 . S
C491 H505 0.958 . S
C491 H506 0.961 . S
C491 H507 0.960 . S
H492 C476 0.931 . S
H493 C481 0.929 . S
H494 C482 0.960 . S
H495 C482 0.962 . S
H496 C482 0.960 . S
H497 C483 0.961 . S
H498 C483 0.961 . S
H499 C483 0.961 . S
H500 C484 0.931 . S
H501 C489 0.930 . S
H502 C490 0.956 . S
H503 C490 0.961 . S
H504 C490 0.961 . S
H505 C491 0.958 . S
H506 C491 0.961 . S
H507 C491 0.960 . S
C508 C509 1.391 . S
C508 C510 1.394 . S
C508 H524 0.931 . S
C509 C508 1.391 . S
C509 C513 1.376 . S
C510 C508 1.394 . S
C510 C511 1.369 . S
C510 C514 1.531 . S
C511 C510 1.369 . S
C511 C512 1.410 1_565 S
C511 C519 1.503 1_565 S
C512 C511 1.410 1_545 S
C512 C513 1.392 1_545 S
C512 C515 1.511 . S
C513 C509 1.376 . S
C513 C512 1.392 1_565 S
C513 H525 0.929 . S
C514 C510 1.531 . S
C514 H526 0.960 . S
C514 H527 0.962 . S
C514 H528 0.960 . S
C515 C512 1.511 . S
C515 H529 0.961 . S
C515 H530 0.961 . S
C515 H531 0.961 . S
C516 C517 1.370 . S
C516 C518 1.363 1_545 S
C516 H532 0.931 1_545 S
C517 C516 1.370 . S
C517 C521 1.408 . S
C518 C516 1.363 1_565 S
C518 C519 1.370 1_565 S
C518 C522 1.524 . S
C519 C511 1.503 1_545 S
C519 C518 1.370 1_545 S
C519 C520 1.403 . S
C520 C519 1.403 . S
C520 C521 1.404 . S
C520 C523 1.539 . S
C521 C517 1.408 . S
C521 C520 1.404 . S
C521 H533 0.930 . S
C522 C518 1.524 . S
C522 H534 0.956 . S
C522 H535 0.961 . S
C522 H536 0.961 . S
C523 C520 1.539 . S
C523 H537 0.958 . S
C523 H538 0.961 . S
C523 H539 0.960 . S
H524 C508 0.931 . S
H525 C513 0.929 . S
H526 C514 0.960 . S
H527 C514 0.962 . S
H528 C514 0.960 . S
H529 C515 0.961 . S
H530 C515 0.961 . S
H531 C515 0.961 . S
H532 C516 0.931 1_565 S
H533 C521 0.930 . S
H534 C522 0.956 . S
H535 C522 0.961 . S
H536 C522 0.961 . S
H537 C523 0.958 . S
H538 C523 0.961 . S
H539 C523 0.960 . S
C540 C541 1.391 . S
C540 C542 1.394 . S
C540 H556 0.931 1_545 S
C541 C540 1.391 . S
C541 C545 1.376 . S
C542 C540 1.394 . S
C542 C543 1.369 . S
C542 C546 1.531 . S
C543 C542 1.369 . S
C543 C544 1.410 . S
C543 C551 1.503 . S
C544 C543 1.410 . S
C544 C545 1.392 . S
C544 C547 1.511 . S
C545 C541 1.376 . S
C545 C544 1.392 . S
C545 H557 0.929 . S
C546 C542 1.531 . S
C546 H558 0.960 . S
C546 H559 0.962 . S
C546 H560 0.960 . S
C547 C544 1.511 . S
C547 H561 0.961 . S
C547 H562 0.961 . S
C547 H563 0.961 . S
C548 C549 1.370 . S
C548 C550 1.363 . S
C548 H564 0.931 . S
C549 C548 1.370 . S
C549 C553 1.408 . S
C550 C548 1.363 . S
C550 C551 1.370 . S
C550 C554 1.524 . S
C551 C543 1.503 . S
C551 C550 1.370 . S
C551 C552 1.403 . S
C552 C551 1.403 . S
C552 C553 1.404 . S
C552 C555 1.539 . S
C553 C549 1.408 . S
C553 C552 1.404 . S
C553 H565 0.930 . S
C554 C550 1.524 . S
C554 H566 0.956 . S
C554 H567 0.961 . S
C554 H568 0.961 . S
C555 C552 1.539 . S
C555 H569 0.958 . S
C555 H570 0.961 . S
C555 H571 0.960 . S
H556 C540 0.931 1_565 S
H557 C545 0.929 . S
H558 C546 0.960 . S
H559 C546 0.962 . S
H560 C546 0.960 . S
H561 C547 0.961 . S
H562 C547 0.961 . S
H563 C547 0.961 . S
H564 C548 0.931 . S
H565 C553 0.930 . S
H566 C554 0.956 . S
H567 C554 0.961 . S
H568 C554 0.961 . S
H569 C555 0.958 . S
H570 C555 0.961 . S
H571 C555 0.960 . S
C572 C573 1.391 . S
C572 C574 1.394 . S
C572 H588 0.931 . S
C573 C572 1.391 . S
C573 C577 1.376 . S
C574 C572 1.394 . S
C574 C575 1.369 . S
C574 C578 1.531 . S
C575 C574 1.369 . S
C575 C576 1.410 . S
C575 C583 1.503 . S
C576 C575 1.410 . S
C576 C577 1.392 . S
C576 C579 1.511 . S
C577 C573 1.376 . S
C577 C576 1.392 . S
C577 H589 0.929 . S
C578 C574 1.531 . S
C578 H590 0.960 . S
C578 H591 0.962 . S
C578 H592 0.960 . S
C579 C576 1.511 . S
C579 H593 0.961 . S
C579 H594 0.961 . S
C579 H595 0.961 . S
C580 C581 1.370 . S
C580 C582 1.363 . S
C580 H596 0.931 . S
C581 C580 1.370 . S
C581 C585 1.408 . S
C582 C580 1.363 . S
C582 C583 1.370 . S
C582 C586 1.524 . S
C583 C575 1.503 . S
C583 C582 1.370 . S
C583 C584 1.403 . S
C584 C583 1.403 . S
C584 C585 1.404 . S
C584 C587 1.539 . S
C585 C581 1.408 . S
C585 C584 1.404 . S
C585 H597 0.930 . S
C586 C582 1.524 . S
C586 H598 0.956 . S
C586 H599 0.961 . S
C586 H600 0.961 . S
C587 C584 1.539 . S
C587 H601 0.958 . S
C587 H602 0.961 . S
C587 H603 0.960 . S
H588 C572 0.931 . S
H589 C577 0.929 . S
H590 C578 0.960 . S
H591 C578 0.962 . S
H592 C578 0.960 . S
H593 C579 0.961 . S
H594 C579 0.961 . S
H595 C579 0.961 . S
H596 C580 0.931 . S
H597 C585 0.930 . S
H598 C586 0.956 . S
H599 C586 0.961 . S
H600 C586 0.961 . S
H601 C587 0.958 . S
H602 C587 0.961 . S
H603 C587 0.960 . S
C604 C605 1.391 . S
C604 C606 1.394 . S
C604 H620 0.931 . S
C605 C604 1.391 . S
C605 C609 1.376 . S
C606 C604 1.394 . S
C606 C607 1.369 . S
C606 C610 1.531 . S
C607 C606 1.369 . S
C607 C608 1.410 . S
C607 C615 1.503 . S
C608 C607 1.410 . S
C608 C609 1.392 . S
C608 C611 1.511 . S
C609 C605 1.376 . S
C609 C608 1.392 . S
C609 H621 0.929 . S
C610 C606 1.531 . S
C610 H622 0.960 . S
C610 H623 0.962 . S
C610 H624 0.960 . S
C611 C608 1.511 . S
C611 H625 0.961 . S
C611 H626 0.961 . S
C611 H627 0.961 . S
C612 C613 1.370 . S
C612 C614 1.363 . S
C612 H628 0.931 . S
C613 C612 1.370 . S
C613 C617 1.408 . S
C614 C612 1.363 . S
C614 C615 1.370 . S
C614 C618 1.524 . S
C615 C607 1.503 . S
C615 C614 1.370 . S
C615 C616 1.403 . S
C616 C615 1.403 . S
C616 C617 1.404 . S
C616 C619 1.539 . S
C617 C613 1.408 . S
C617 C616 1.404 . S
C617 H629 0.930 1_545 S
C618 C614 1.524 . S
C618 H630 0.956 . S
C618 H631 0.961 . S
C618 H632 0.961 . S
C619 C616 1.539 . S
C619 H633 0.958 . S
C619 H634 0.961 . S
C619 H635 0.960 . S
H620 C604 0.931 . S
H621 C609 0.929 . S
H622 C610 0.960 . S
H623 C610 0.962 . S
H624 C610 0.960 . S
H625 C611 0.961 . S
H626 C611 0.961 . S
H627 C611 0.961 . S
H628 C612 0.931 . S
H629 C617 0.930 1_565 S
H630 C618 0.956 . S
H631 C618 0.961 . S
H632 C618 0.961 . S
H633 C619 0.958 . S
H634 C619 0.961 . S
H635 C619 0.960 . S
C636 C637 1.391 . S
C636 C638 1.394 . S
C636 H652 0.931 . S
C637 C636 1.391 . S
C637 C641 1.376 . S
C638 C636 1.394 . S
C638 C639 1.369 . S
C638 C642 1.531 . S
C639 C638 1.369 . S
C639 C640 1.410 . S
C639 C647 1.503 . S
C640 C639 1.410 . S
C640 C641 1.392 . S
C640 C643 1.511 . S
C641 C637 1.376 . S
C641 C640 1.392 . S
C641 H653 0.929 1_565 S
C642 C638 1.531 . S
C642 H654 0.960 . S
C642 H655 0.962 . S
C642 H656 0.960 . S
C643 C640 1.511 . S
C643 H657 0.961 . S
C643 H658 0.961 . S
C643 H659 0.961 . S
C644 C645 1.370 . S
C644 C646 1.363 . S
C644 H660 0.931 . S
C645 C644 1.370 . S
C645 C649 1.408 . S
C646 C644 1.363 . S
C646 C647 1.370 . S
C646 C650 1.524 . S
C647 C639 1.503 . S
C647 C646 1.370 . S
C647 C648 1.403 . S
C648 C647 1.403 . S
C648 C649 1.404 . S
C648 C651 1.539 . S
C649 C645 1.408 . S
C649 C648 1.404 . S
C649 H661 0.930 . S
C650 C646 1.524 . S
C650 H662 0.956 . S
C650 H663 0.961 . S
C650 H664 0.961 . S
C651 C648 1.539 . S
C651 H665 0.958 . S
C651 H666 0.961 . S
C651 H667 0.960 . S
H652 C636 0.931 . S
H653 C641 0.929 1_545 S
H654 C642 0.960 . S
H655 C642 0.962 . S
H656 C642 0.960 . S
H657 C643 0.961 . S
H658 C643 0.961 . S
H659 C643 0.961 . S
H660 C644 0.931 . S
H661 C649 0.930 . S
H662 C650 0.956 . S
H663 C650 0.961 . S
H664 C650 0.961 . S
H665 C651 0.958 . S
H666 C651 0.961 . S
H667 C651 0.960 . S
C668 C669 1.391 . S
C668 C670 1.394 . S
C668 H684 0.931 . S
C669 C668 1.391 . S
C669 C673 1.376 . S
C670 C668 1.394 . S
C670 C671 1.369 . S
C670 C674 1.531 . S
C671 C670 1.369 . S
C671 C672 1.410 . S
C671 C679 1.503 . S
C672 C671 1.410 . S
C672 C673 1.392 . S
C672 C675 1.511 . S
C673 C669 1.376 . S
C673 C672 1.392 . S
C673 H685 0.929 . S
C674 C670 1.531 . S
C674 H686 0.960 . S
C674 H687 0.962 . S
C674 H688 0.960 . S
C675 C672 1.511 . S
C675 H689 0.961 . S
C675 H690 0.961 . S
C675 H691 0.961 . S
C676 C677 1.370 . S
C676 C678 1.363 . S
C676 H692 0.931 . S
C677 C676 1.370 . S
C677 C681 1.408 . S
C678 C676 1.363 . S
C678 C679 1.370 . S
C678 C682 1.524 . S
C679 C671 1.503 . S
C679 C678 1.370 . S
C679 C680 1.403 . S
C680 C679 1.403 . S
C680 C681 1.404 . S
C680 C683 1.539 . S
C681 C677 1.408 . S
C681 C680 1.404 . S
C681 H693 0.930 . S
C682 C678 1.524 . S
C682 H694 0.956 . S
C682 H695 0.961 . S
C682 H696 0.961 . S
C683 C680 1.539 . S
C683 H697 0.958 . S
C683 H698 0.961 . S
C683 H699 0.960 . S
H684 C668 0.931 . S
H685 C673 0.929 . S
H686 C674 0.960 . S
H687 C674 0.962 . S
H688 C674 0.960 . S
H689 C675 0.961 . S
H690 C675 0.961 . S
H691 C675 0.961 . S
H692 C676 0.931 . S
H693 C681 0.930 . S
H694 C682 0.956 . S
H695 C682 0.961 . S
H696 C682 0.961 . S
H697 C683 0.958 . S
H698 C683 0.961 . S
H699 C683 0.960 . S
C700 C701 1.391 . S
C700 C702 1.394 . S
C700 H716 0.931 . S
C701 C700 1.391 . S
C701 C705 1.376 . S
C702 C700 1.394 . S
C702 C703 1.369 . S
C702 C706 1.531 . S
C703 C702 1.369 . S
C703 C704 1.410 . S
C703 C711 1.503 . S
C704 C703 1.410 . S
C704 C705 1.392 . S
C704 C707 1.511 . S
C705 C701 1.376 . S
C705 C704 1.392 . S
C705 H717 0.929 . S
C706 C702 1.531 . S
C706 H718 0.960 . S
C706 H719 0.962 . S
C706 H720 0.960 . S
C707 C704 1.511 . S
C707 H721 0.961 . S
C707 H722 0.961 . S
C707 H723 0.961 . S
C708 C709 1.370 . S
C708 C710 1.363 . S
C708 H724 0.931 . S
C709 C708 1.370 . S
C709 C713 1.408 . S
C710 C708 1.363 . S
C710 C711 1.370 . S
C710 C714 1.524 . S
C711 C703 1.503 . S
C711 C710 1.370 . S
C711 C712 1.403 . S
C712 C711 1.403 . S
C712 C713 1.404 . S
C712 C715 1.539 . S
C713 C709 1.408 . S
C713 C712 1.404 . S
C713 H725 0.930 . S
C714 C710 1.524 . S
C714 H726 0.956 . S
C714 H727 0.961 . S
C714 H728 0.961 . S
C715 C712 1.539 . S
C715 H729 0.958 . S
C715 H730 0.961 . S
C715 H731 0.960 . S
H716 C700 0.931 . S
H717 C705 0.929 . S
H718 C706 0.960 . S
H719 C706 0.962 . S
H720 C706 0.960 . S
H721 C707 0.961 . S
H722 C707 0.961 . S
H723 C707 0.961 . S
H724 C708 0.931 . S
H725 C713 0.930 . S
H726 C714 0.956 . S
H727 C714 0.961 . S
H728 C714 0.961 . S
H729 C715 0.958 . S
H730 C715 0.961 . S
H731 C715 0.960 . S
C732 C733 1.391 . S
C732 C734 1.394 . S
C732 H748 0.931 . S
C733 C732 1.391 . S
C733 C737 1.376 . S
C734 C732 1.394 . S
C734 C735 1.369 . S
C734 C738 1.531 . S
C735 C734 1.369 . S
C735 C736 1.410 . S
C735 C743 1.503 . S
C736 C735 1.410 . S
C736 C737 1.392 . S
C736 C739 1.511 . S
C737 C733 1.376 . S
C737 C736 1.392 . S
C737 H749 0.929 . S
C738 C734 1.531 . S
C738 H750 0.960 . S
C738 H751 0.962 . S
C738 H752 0.960 . S
C739 C736 1.511 . S
C739 H753 0.961 . S
C739 H754 0.961 . S
C739 H755 0.961 . S
C740 C741 1.370 . S
C740 C742 1.363 . S
C740 H756 0.931 . S
C741 C740 1.370 . S
C741 C745 1.408 . S
C742 C740 1.363 . S
C742 C743 1.370 . S
C742 C746 1.524 . S
C743 C735 1.503 . S
C743 C742 1.370 . S
C743 C744 1.403 . S
C744 C743 1.403 . S
C744 C745 1.404 . S
C744 C747 1.539 . S
C745 C741 1.408 . S
C745 C744 1.404 . S
C745 H757 0.930 . S
C746 C742 1.524 . S
C746 H758 0.956 . S
C746 H759 0.961 . S
C746 H760 0.961 . S
C747 C744 1.539 . S
C747 H761 0.958 . S
C747 H762 0.961 . S
C747 H763 0.960 . S
H748 C732 0.931 . S
H749 C737 0.929 . S
H750 C738 0.960 . S
H751 C738 0.962 . S
H752 C738 0.960 . S
H753 C739 0.961 . S
H754 C739 0.961 . S
H755 C739 0.961 . S
H756 C740 0.931 . S
H757 C745 0.930 . S
H758 C746 0.956 . S
H759 C746 0.961 . S
H760 C746 0.961 . S
H761 C747 0.958 . S
H762 C747 0.961 . S
H763 C747 0.960 . S
C764 C765 1.391 1_455 S
C764 C766 1.394 . S
C764 H780 0.931 . S
C765 C764 1.391 1_655 S
C765 C769 1.376 . S
C766 C764 1.394 . S
C766 C767 1.369 1_455 S
C766 C770 1.531 . S
C767 C766 1.369 1_655 S
C767 C768 1.410 . S
C767 C775 1.503 1_655 S
C768 C767 1.410 . S
C768 C769 1.392 . S
C768 C771 1.511 . S
C769 C765 1.376 . S
C769 C768 1.392 . S
C769 H781 0.929 . S
C770 C766 1.531 . S
C770 H782 0.960 . S
C770 H783 0.962 . S
C770 H784 0.960 . S
C771 C768 1.511 . S
C771 H785 0.961 . S
C771 H786 0.961 . S
C771 H787 0.961 . S
C772 C773 1.370 . S
C772 C774 1.363 . S
C772 H788 0.931 . S
C773 C772 1.370 . S
C773 C777 1.408 . S
C774 C772 1.363 . S
C774 C775 1.370 . S
C774 C778 1.524 . S
C775 C767 1.503 1_455 S
C775 C774 1.370 . S
C775 C776 1.403 . S
C776 C775 1.403 . S
C776 C777 1.404 . S
C776 C779 1.539 . S
C777 C773 1.408 . S
C777 C776 1.404 . S
C777 H789 0.930 . S
C778 C774 1.524 . S
C778 H790 0.956 . S
C778 H791 0.961 1_455 S
C778 H792 0.961 . S
C779 C776 1.539 . S
C779 H793 0.958 . S
C779 H794 0.961 1_455 S
C779 H795 0.960 1_455 S
H780 C764 0.931 . S
H781 C769 0.929 . S
H782 C770 0.960 . S
H783 C770 0.962 . S
H784 C770 0.960 . S
H785 C771 0.961 . S
H786 C771 0.961 . S
H787 C771 0.961 . S
H788 C772 0.931 . S
H789 C777 0.930 . S
H790 C778 0.956 . S
H791 C778 0.961 1_655 S
H792 C778 0.961 . S
H793 C779 0.958 . S
H794 C779 0.961 1_655 S
H795 C779 0.960 1_655 S
C796 C797 1.367 1_565 S
C796 C798 1.401 . S
C796 H812 0.948 . S
C797 C796 1.367 1_545 S
C797 C801 1.376 . S
C798 C796 1.401 . S
C798 C799 1.369 . S
C798 C802 1.531 . S
C799 C798 1.369 . S
C799 C800 1.410 1_565 S
C799 C807 1.503 1_554 S
C800 C799 1.410 1_545 S
C800 C801 1.392 . S
C800 C803 1.511 . S
C801 C797 1.376 . S
C801 C800 1.392 . S
C801 H813 0.929 . S
C802 C798 1.531 . S
C802 H814 0.960 . S
C802 H815 0.962 . S
C802 H816 0.960 . S
C803 C800 1.511 . S
C803 H817 0.961 . S
C803 H818 0.961 1_554 S
C803 H819 0.961 . S
C804 C805 1.362 1_545 S
C804 C806 1.368 . S
C804 H820 0.935 . S
C805 C804 1.362 1_565 S
C805 C809 1.408 . S
C806 C804 1.368 . S
C806 C807 1.370 1_545 S
C806 C810 1.524 . S
C807 C799 1.503 1_556 S
C807 C806 1.370 1_565 S
C807 C808 1.403 . S
C808 C807 1.403 . S
C808 C809 1.404 . S
C808 C811 1.539 . S
C809 C805 1.408 . S
C809 C808 1.404 . S
C809 H821 0.930 . S
C810 C806 1.524 . S
C810 H822 0.956 . S
C810 H823 0.961 . S
C810 H824 0.961 . S
C811 C808 1.539 . S
C811 H825 0.958 1_556 S
C811 H826 0.961 . S
C811 H827 0.960 1_556 S
H812 C796 0.948 . S
H813 C801 0.929 . S
H814 C802 0.960 . S
H815 C802 0.962 . S
H816 C802 0.960 . S
H817 C803 0.961 . S
H818 C803 0.961 1_556 S
H819 C803 0.961 . S
H820 C804 0.935 . S
H821 C809 0.930 . S
H822 C810 0.956 . S
H823 C810 0.961 . S
H824 C810 0.961 . S
H825 C811 0.958 1_554 S
H826 C811 0.961 . S
H827 C811 0.960 1_554 S
C828 C829 1.391 . S
C828 C830 1.394 . S
C828 H844 0.931 . S
C829 C828 1.391 . S
C829 C833 1.376 . S
C830 C828 1.394 . S
C830 C831 1.369 . S
C830 C834 1.531 . S
C831 C830 1.369 . S
C831 C832 1.410 . S
C831 C839 1.503 . S
C832 C831 1.410 . S
C832 C833 1.392 . S
C832 C835 1.511 . S
C833 C829 1.376 . S
C833 C832 1.392 . S
C833 H845 0.929 . S
C834 C830 1.531 . S
C834 H846 0.960 . S
C834 H847 0.962 . S
C834 H848 0.960 . S
C835 C832 1.511 . S
C835 H849 0.961 . S
C835 H850 0.961 . S
C835 H851 0.961 . S
C836 C837 1.370 . S
C836 C838 1.363 . S
C836 H852 0.931 . S
C837 C836 1.370 . S
C837 C841 1.408 . S
C838 C836 1.363 . S
C838 C839 1.370 . S
C838 C842 1.524 . S
C839 C831 1.503 . S
C839 C838 1.370 . S
C839 C840 1.403 . S
C840 C839 1.403 . S
C840 C841 1.404 . S
C840 C843 1.539 . S
C841 C837 1.408 . S
C841 C840 1.404 . S
C841 H853 0.930 . S
C842 C838 1.524 . S
C842 H854 0.956 . S
C842 H855 0.961 . S
C842 H856 0.961 . S
C843 C840 1.539 . S
C843 H857 0.958 . S
C843 H858 0.961 . S
C843 H859 0.960 . S
H844 C828 0.931 . S
H845 C833 0.929 . S
H846 C834 0.960 . S
H847 C834 0.962 . S
H848 C834 0.960 . S
H849 C835 0.961 . S
H850 C835 0.961 . S
H851 C835 0.961 . S
H852 C836 0.931 . S
H853 C841 0.930 . S
H854 C842 0.956 . S
H855 C842 0.961 . S
H856 C842 0.961 . S
H857 C843 0.958 . S
H858 C843 0.961 . S
H859 C843 0.960 . S
C860 C861 1.391 . S
C860 C862 1.394 . S
C860 H876 0.931 . S
C861 C860 1.391 . S
C861 C865 1.376 1_455 S
C862 C860 1.394 . S
C862 C863 1.369 . S
C862 C866 1.531 . S
C863 C862 1.369 . S
C863 C864 1.410 1_455 S
C863 C871 1.503 1_455 S
C864 C863 1.410 1_655 S
C864 C865 1.392 . S
C864 C867 1.511 . S
C865 C861 1.376 1_655 S
C865 C864 1.392 . S
C865 H877 0.929 . S
C866 C862 1.531 . S
C866 H878 0.960 . S
C866 H879 0.962 . S
C866 H880 0.960 . S
C867 C864 1.511 . S
C867 H881 0.961 . S
C867 H882 0.961 . S
C867 H883 0.961 . S
C868 C869 1.370 . S
C868 C870 1.363 . S
C868 H884 0.931 . S
C869 C868 1.370 . S
C869 C873 1.408 . S
C870 C868 1.363 . S
C870 C871 1.370 . S
C870 C874 1.524 . S
C871 C863 1.503 1_655 S
C871 C870 1.370 . S
C871 C872 1.403 . S
C872 C871 1.403 . S
C872 C873 1.404 . S
C872 C875 1.539 1_655 S
C873 C869 1.408 . S
C873 C872 1.404 . S
C873 H885 0.930 . S
C874 C870 1.524 . S
C874 H886 0.956 1_655 S
C874 H887 0.961 . S
C874 H888 0.961 . S
C875 C872 1.539 1_455 S
C875 H889 0.958 . S
C875 H890 0.961 1_455 S
C875 H891 0.959 . S
H876 C860 0.931 . S
H877 C865 0.929 . S
H878 C866 0.960 . S
H879 C866 0.962 . S
H880 C866 0.960 . S
H881 C867 0.961 . S
H882 C867 0.961 . S
H883 C867 0.961 . S
H884 C868 0.931 . S
H885 C873 0.930 . S
H886 C874 0.956 1_455 S
H887 C874 0.961 . S
H888 C874 0.961 . S
H889 C875 0.958 . S
H890 C875 0.961 1_655 S
H891 C875 0.959 . S
C892 C893 1.391 1_545 S
C892 C894 1.394 . S
C892 H908 0.931 . S
C893 C892 1.391 1_565 S
C893 C897 1.376 . S
C894 C892 1.394 . S
C894 C895 1.384 . S
C894 C898 1.531 . S
C895 C894 1.384 . S
C895 C896 1.388 1_545 S
C895 C903 1.509 1_554 S
C896 C895 1.388 1_565 S
C896 C897 1.392 . S
C896 C899 1.511 . S
C897 C893 1.376 . S
C897 C896 1.392 . S
C897 H909 0.929 . S
C898 C894 1.531 . S
C898 H910 0.960 . S
C898 H911 0.962 . S
C898 H912 0.960 . S
C899 C896 1.511 . S
C899 H913 0.961 . S
C899 H914 0.961 1_554 S
C899 H915 0.961 . S
C900 C901 1.380 . S
C900 C902 1.357 1_545 S
C900 H916 0.928 1_545 S
C901 C900 1.380 . S
C901 C905 1.408 . S
C902 C900 1.357 1_565 S
C902 C903 1.370 1_565 S
C902 C906 1.524 . S
C903 C895 1.509 1_556 S
C903 C902 1.370 1_545 S
C903 C904 1.403 . S
C904 C903 1.403 . S
C904 C905 1.404 . S
C904 C907 1.539 . S
C905 C901 1.408 . S
C905 C904 1.404 . S
C905 H917 0.930 . S
C906 C902 1.524 . S
C906 H918 0.956 . S
C906 H919 0.961 . S
C906 H920 0.961 . S
C907 C904 1.539 . S
C907 H921 0.958 1_556 S
C907 H922 0.961 . S
C907 H923 0.960 1_556 S
H908 C892 0.931 . S
H909 C897 0.929 . S
H910 C898 0.960 . S
H911 C898 0.962 . S
H912 C898 0.960 . S
H913 C899 0.961 . S
H914 C899 0.961 1_556 S
H915 C899 0.961 . S
H916 C900 0.928 1_565 S
H917 C905 0.930 . S
H918 C906 0.956 . S
H919 C906 0.961 . S
H920 C906 0.961 . S
H921 C907 0.958 1_554 S
H922 C907 0.961 . S
H923 C907 0.960 1_554 S
C157 C143 1.488 . S
C165 C0 1.457 . S
C189 C13 1.444 . S
C197 C78 1.475 . S
C221 C26 1.451 . S
C229 C91 1.453 . S
C253 C39 1.469 . S
C261 C104 1.473 . S
C285 C117 1.464 . S
C293 C52 1.451 . S
C317 C65 1.452 . S
C325 C130 1.453 . S
C349 C44 1.088 . S
C357 C5 1.130 . S
C381 C57 1.139 . S
C389 C18 1.113 . S
C413 C70 1.149 . S
C421 C31 1.156 . S
C445 C83 1.191 . S
C453 C122 1.128 . S
C477 C96 1.131 . S
C485 C135 1.114 . S
C509 C109 1.075 . S
C517 C148 1.149 . S
C541 C112 0.570 . S
C549 C8 0.582 . S
C573 C21 0.557 . S
C581 C125 0.578 . S
C605 C138 0.634 . S
C613 C34 0.610 . S
C637 C151 0.615 . S
C645 C47 0.602 . S
C669 C86 0.608 . S
C677 C60 0.599 . S
C701 C73 0.596 . S
C709 C99 0.593 . S
C733 C127 1.554 . S
C741 C10 1.552 . S
C765 C23 1.551 . S
C773 C140 1.553 . S
C797 C153 1.531 . S
C805 C36 1.561 . S
C829 C49 1.524 . S
C837 C88 1.564 . S
C861 C62 1.551 . S
C869 C101 1.552 . S
C893 C114 1.532 . S
C901 C75 1.561 . S
