# Generated by pormake.
# Topology unh, (4)-cn, num edge types: 1
# Building blocks:
#     Node 0, Type 0, BuildingBlock: QUQFOY_clean_sbu_3, # of connection points: 4
#     Node 1, Type 0, BuildingBlock: QUQFOY_clean_sbu_3, # of connection points: 4
#     Node 2, Type 0, BuildingBlock: QUQFOY_clean_sbu_3, # of connection points: 4
#     Node 3, Type 0, BuildingBlock: QUQFOY_clean_sbu_3, # of connection points: 4
#     Node 4, Type 0, BuildingBlock: QUQFOY_clean_sbu_3, # of connection points: 4
#     Node 5, Type 0, BuildingBlock: QUQFOY_clean_sbu_3, # of connection points: 4
#     Edge 6, Type (0, 0), BuildingBlock: CIFDUS_clean_linker_0, # of connection points: 2
#     Edge 7, Type (0, 0), BuildingBlock: CIFDUS_clean_linker_0, # of connection points: 2
#     Edge 8, Type (0, 0), BuildingBlock: CIFDUS_clean_linker_0, # of connection points: 2
#     Edge 9, Type (0, 0), BuildingBlock: CIFDUS_clean_linker_0, # of connection points: 2
#     Edge 10, Type (0, 0), BuildingBlock: CIFDUS_clean_linker_0, # of connection points: 2
#     Edge 11, Type (0, 0), BuildingBlock: CIFDUS_clean_linker_0, # of connection points: 2
#     Edge 12, Type (0, 0), BuildingBlock: CIFDUS_clean_linker_0, # of connection points: 2
#     Edge 13, Type (0, 0), BuildingBlock: CIFDUS_clean_linker_0, # of connection points: 2
#     Edge 14, Type (0, 0), BuildingBlock: CIFDUS_clean_linker_0, # of connection points: 2
#     Edge 15, Type (0, 0), BuildingBlock: CIFDUS_clean_linker_0, # of connection points: 2
#     Edge 16, Type (0, 0), BuildingBlock: CIFDUS_clean_linker_0, # of connection points: 2
#     Edge 17, Type (0, 0), BuildingBlock: CIFDUS_clean_linker_0, # of connection points: 2
# Relax obj value: 0.078
# Max RMSD: 0.192
# Mean RMSD: 0.192
data_MOF--net-unh--node1-QUQFOY_clean_sbu_3--edge1-CIFDUS_clean_linker_0
_symmetry_space_group_name_H-M    P1
_symmetry_Int_Tables_number       1
_symmetry_cell_setting            triclinic
loop_
_symmetry_equiv_pos_as_xyz
'x, y, z'
_cell_length_a     38.491309
_cell_length_b     38.593312
_cell_length_c     20.736878
_cell_angle_alpha  90.218862
_cell_angle_beta   89.822941
_cell_angle_gamma 119.53447
loop_
_atom_site_label
_atom_site_type_symbol
_atom_site_fract_x
_atom_site_fract_y
_atom_site_fract_z
_atom_type_partial_charge
C0 C 0.1639 0.51286 0.09683 0.0
O1 O 0.16134 0.50026 0.0394 0.0
Cd2 Cd 0.11879 0.50694 0.96008 0.0
O3 O 0.14318 0.52865 0.11441 0.0
Cd4 Cd 0.09261 0.54369 0.07077 0.0
C5 C 0.15703 0.60819 0.9615 0.0
O6 O 0.05303 0.48395 0.00261 0.0
O7 O 0.04073 0.53274 -0.00501 0.0
O8 O 0.06328 0.517 0.17371 0.0
C9 C 0.03161 0.4975 -0.02072 0.0
O10 O 0.14986 0.57694 0.9301 0.0
C11 C 0.05435 0.54351 0.18879 0.0
O12 O 0.14317 0.60583 0.01828 0.0
O13 O 0.06409 0.57182 0.14891 0.0
C14 C 0.63926 0.16379 0.24387 0.0
O15 O 0.64406 0.15293 0.18823 0.0
Cd16 Cd 0.58913 0.10499 0.12252 0.0
O17 O 0.60455 0.14861 0.26853 0.0
Cd18 Cd 0.53551 0.09805 0.24093 0.0
C19 C 0.53287 0.15157 0.11463 0.0
O20 O 0.5432 0.04651 0.18002 0.0
O21 O 0.48595 0.04441 0.1786 0.0
O22 O 0.53617 0.07419 0.34733 0.0
C23 C 0.5067 0.02847 0.16284 0.0
O24 O 0.55284 0.13775 0.08623 0.0
C25 C 0.50315 0.0705 0.36621 0.0
O26 O 0.52499 0.14576 0.17484 0.0
O27 O 0.48507 0.08165 0.32734 0.0
C28 C 0.44513 0.64313 0.40114 0.0
O29 O 0.4595 0.64663 0.34476 0.0
Cd30 Cd 0.4547 0.59057 0.28395 0.0
O31 O 0.42769 0.60938 0.42875 0.0
Cd32 Cd 0.41006 0.53958 0.41186 0.0
C33 C 0.35194 0.53161 0.28389 0.0
O34 O 0.46974 0.55005 0.35171 0.0
O35 O 0.42046 0.48988 0.35942 0.0
O36 O 0.43485 0.54988 0.52028 0.0
C37 C 0.4554 0.51324 0.339 0.0
O38 O 0.38493 0.55135 0.254 0.0
C39 C 0.40889 0.51648 0.54263 0.0
O40 O 0.35096 0.52546 0.3446 0.0
O41 O 0.38126 0.49328 0.50443 0.0
C42 C 0.76696 0.44798 0.55979 0.0
O43 O 0.77411 0.45745 0.50071 0.0
Cd44 Cd 0.82339 0.44895 0.44008 0.0
O45 O 0.78645 0.43437 0.58966 0.0
Cd46 Cd 0.84037 0.41877 0.57116 0.0
C47 C 0.78371 0.34819 0.46166 0.0
O48 O 0.88485 0.47322 0.49775 0.0
O49 O 0.89562 0.42366 0.51006 0.0
O50 O 0.86338 0.45364 0.67194 0.0
C51 C 0.9066 0.45762 0.48585 0.0
O52 O 0.79387 0.3776 0.42389 0.0
C53 C 0.87191 0.42926 0.69858 0.0
O54 O 0.79308 0.35361 0.52137 0.0
O55 O 0.86434 0.39807 0.66667 0.0
C56 C 0.30691 0.78675 0.73853 0.0
O57 O 0.30386 0.79532 0.68051 0.0
Cd58 Cd 0.36045 0.84207 0.61679 0.0
O59 O 0.3407 0.80352 0.76646 0.0
Cd60 Cd 0.4105 0.8533 0.74066 0.0
C61 C 0.41521 0.79442 0.62379 0.0
O62 O 0.40275 0.90251 0.67409 0.0
O63 O 0.46064 0.90625 0.67704 0.0
O64 O 0.40997 0.87858 0.84684 0.0
C65 C 0.43953 0.92122 0.65874 0.0
O66 O 0.39687 0.80748 0.58927 0.0
C67 C 0.44288 0.88205 0.86562 0.0
O68 O 0.4214 0.80313 0.68364 0.0
O69 O 0.46079 0.87056 0.82673 0.0
C70 C 0.50156 0.3151 0.93199 0.0
O71 O 0.48801 0.30497 0.87512 0.0
Cd72 Cd 0.48884 0.35234 0.79743 0.0
O73 O 0.51598 0.35105 0.95029 0.0
Cd74 Cd 0.52768 0.41567 0.90924 0.0
C75 C 0.58949 0.41753 0.79092 0.0
O76 O 0.46523 0.39307 0.84715 0.0
O77 O 0.51042 0.45512 0.84047 0.0
O78 O 0.50624 0.41835 0.01702 0.0
C79 C 0.47581 0.42762 0.82541 0.0
O80 O 0.55772 0.3928 0.76176 0.0
C81 C 0.5329 0.45383 0.02946 0.0
O82 O 0.5882 0.42876 0.8484 0.0
O83 O 0.55855 0.47237 -0.01442 0.0
H84 H -0.02649 0.51324 0.94397 0.0
H85 H 0.01704 0.43104 0.90953 0.0
H86 H 0.96771 0.39899 0.82339 0.0
H87 H 0.91667 0.39911 0.7508 0.0
H88 H 0.87526 0.48305 0.78604 0.0
H89 H 0.91886 0.50921 0.87946 0.0
C90 C -0.02797 0.48808 0.91801 0.0
C91 C -0.00078 0.47489 0.93243 0.0
C92 C 0.94395 0.47014 0.86857 0.0
C93 C -0.00349 0.44187 0.89907 0.0
C94 C 0.96839 0.42363 0.84972 0.0
C95 C 0.91665 0.42254 0.77979 0.0
C96 C 0.89304 0.43936 0.76115 0.0
C97 C 0.94254 0.43812 0.83304 0.0
C98 C 0.8934 0.46983 0.799 0.0
C99 C 0.91842 0.48491 0.85237 0.0
H100 H 0.40478 0.89347 0.96547 0.0
H101 H 0.52133 0.91696 0.90303 0.0
H102 H 0.5519 0.96161 -0.00462 0.0
H103 H 0.54574 0.00064 0.08577 0.0
H104 H 0.42832 0.97717 0.14399 0.0
H105 H 0.39793 0.9257 0.06189 0.0
C106 C 0.43684 0.90785 0.9726 0.0
C107 C 0.46081 0.90241 0.92713 0.0
C108 C 0.45411 0.93385 0.02482 0.0
C109 C 0.50223 0.92078 0.93741 0.0
C110 C 0.51974 0.94652 -0.01005 0.0
C111 C 0.51351 -0.01634 0.0812 0.0
C112 C 0.48936 -0.00687 0.12023 0.0
C113 C 0.49606 0.95432 0.03281 0.0
C114 C 0.44762 0.97087 0.11391 0.0
C115 C 0.43015 0.9414 0.06695 0.0
H116 H 0.51381 0.55526 0.25019 0.0
H117 H 0.43998 0.43723 0.32714 0.0
H118 H 0.46203 0.40905 0.24178 0.0
H119 H 0.49491 0.41668 0.13828 0.0
H120 H 0.5672 0.53361 0.05708 0.0
H121 H 0.55376 0.56362 0.15157 0.0
C122 C 0.5033 0.52352 0.24893 0.0
C123 C 0.47489 0.49827 0.29429 0.0
C124 C 0.51548 0.50729 0.19864 0.0
C125 C 0.46146 0.4572 0.29221 0.0
C126 C 0.474 0.44103 0.2434 0.0
C127 C 0.50822 0.4488 0.14164 0.0
C128 C 0.53145 0.47287 0.0905 0.0
C129 C 0.49981 0.4656 0.19518 0.0
C130 C 0.54906 0.51446 0.09588 0.0
C131 C 0.54118 0.53158 0.14968 0.0
H132 H 0.92761 0.51974 0.40224 0.0
H133 H 0.96264 0.43551 0.46879 0.0
H134 H 0.01451 0.4582 0.38686 0.0
H135 H 0.04536 0.49666 0.29023 0.0
H136 H 0.01065 0.58009 0.21952 0.0
H137 H 0.96375 0.56359 0.30977 0.0
C138 C 0.94701 0.50683 0.39927 0.0
C139 C 0.94089 0.47559 0.44097 0.0
C140 C -0.02332 0.5197 0.35117 0.0
C141 C 0.96633 0.45921 0.43676 0.0
C142 C -0.00394 0.47216 0.38993 0.0
C143 C 0.02789 0.51163 0.29489 0.0
C144 C 0.03104 0.53914 0.24793 0.0
C145 C 0.00076 0.50155 0.3459 0.0
C146 C 0.00866 0.55871 0.2551 0.0
C147 C -0.01831 0.54909 0.30644 0.0
H148 H 0.54131 0.05827 0.46444 0.0
H149 H 0.42469 0.03538 0.40454 0.0
H150 H 0.39421 -0.01051 0.49526 0.0
H151 H 0.4005 0.94945 0.58324 0.0
H152 H 0.518 0.97206 0.63829 0.0
H153 H 0.54823 0.02447 0.55807 0.0
C154 C 0.50925 0.04376 0.47178 0.0
C155 C 0.48524 0.04979 0.42747 0.0
C156 C 0.49202 0.01691 0.5228 0.0
C157 C 0.44383 0.03119 0.43805 0.0
C158 C 0.42637 0.0047 0.4896 0.0
C159 C 0.43272 0.96634 0.57829 0.0
C160 C 0.45691 0.95643 0.61602 0.0
C161 C 0.45009 -0.0037 0.53104 0.0
C162 C 0.49864 -0.02134 0.60925 0.0
C163 C 0.51603 0.00871 0.5634 0.0
H164 H 0.48106 0.49841 0.80056 0.0
H165 H 0.41583 0.3744 0.74678 0.0
H166 H 0.38377 0.39025 0.65847 0.0
H167 H 0.38184 0.44104 0.58797 0.0
H168 H 0.44936 0.56501 0.64219 0.0
H169 H 0.47232 0.54744 0.73956 0.0
C170 C 0.45939 0.47475 0.77006 0.0
C171 C 0.45128 0.43544 0.77935 0.0
C172 C 0.44157 0.48415 0.71932 0.0
C173 C 0.42267 0.40496 0.74029 0.0
C174 C 0.40449 0.41405 0.68965 0.0
C175 C 0.40067 0.46401 0.62208 0.0
C176 C 0.41427 0.5043 0.60761 0.0
C177 C 0.41471 0.45376 0.67744 0.0
C178 C 0.43882 0.53383 0.65198 0.0
C179 C 0.45211 0.52384 0.70756 0.0
H180 H 0.22266 0.49485 0.07132 0.0
H181 H 0.16926 0.52726 0.22666 0.0
H182 H 0.21989 0.53076 0.30113 0.0
H183 H 0.28338 0.53096 0.31987 0.0
H184 H 0.33855 0.50279 0.16221 0.0
H185 H 0.28307 0.49064 0.09156 0.0
C186 C 0.22176 0.5022 0.12162 0.0
C187 C 0.19237 0.51112 0.14306 0.0
C188 C 0.25145 0.50497 0.16399 0.0
C189 C 0.19176 0.52061 0.20854 0.0
C190 C 0.22071 0.5226 0.25131 0.0
C191 C 0.28266 0.52128 0.27048 0.0
C192 C 0.3149 0.51776 0.2462 0.0
C193 C 0.25126 0.51569 0.2293 0.0
C194 C 0.31404 0.5058 0.18183 0.0
C195 C 0.28242 0.49899 0.14133 0.0
H196 H 0.64566 0.18062 0.37254 0.0
H197 H 0.70966 0.2206 0.19245 0.0
H198 H 0.76209 0.27967 0.24592 0.0
H199 H 0.7862 0.3231 0.34105 0.0
H200 H 0.72394 0.28301 0.52222 0.0
H201 H 0.67463 0.22047 0.4714 0.0
C202 C 0.67132 0.20206 0.34519 0.0
C203 C 0.67345 0.19649 0.27836 0.0
C204 C 0.70155 0.23593 0.37637 0.0
C205 C 0.70719 0.22419 0.24381 0.0
C206 C 0.73713 0.25807 0.27431 0.0
C207 C 0.76214 0.30039 0.36962 0.0
C208 C 0.75836 0.30776 0.43504 0.0
C209 C 0.73409 0.2647 0.34012 0.0
C210 C 0.72747 0.27795 0.4718 0.0
C211 C 0.69913 0.24236 0.44261 0.0
H212 H 0.43267 0.79135 0.49813 0.0
H213 H 0.42399 0.73578 0.68208 0.0
H214 H 0.43477 0.68495 0.62941 0.0
H215 H 0.44113 0.65345 0.52994 0.0
H216 H 0.45199 0.71047 0.34656 0.0
H217 H 0.44619 0.7639 0.40029 0.0
C218 C 0.43352 0.76831 0.52677 0.0
C219 C 0.42706 0.76698 0.59377 0.0
C220 C 0.4399 0.73942 0.49624 0.0
C221 C 0.42887 0.7374 0.63044 0.0
C222 C 0.43481 0.70824 0.6003 0.0
C223 C 0.44257 0.67777 0.50182 0.0
C224 C 0.44647 0.67778 0.43427 0.0
C225 C 0.43949 0.70849 0.53307 0.0
C226 C 0.44894 0.70977 0.39856 0.0
C227 C 0.44546 0.74022 0.42923 0.0
H228 H 0.60382 0.42689 0.66261 0.0
H229 H 0.66177 0.43854 0.84543 0.0
H230 H 0.7233 0.4519 0.7896 0.0
H231 H 0.75827 0.45401 0.68868 0.0
H232 H 0.70085 0.44476 0.50603 0.0
H233 H 0.64152 0.43717 0.56196 0.0
C234 C 0.63008 0.43278 0.6902 0.0
C235 C 0.62818 0.4312 0.75796 0.0
C236 C 0.6653 0.44068 0.65782 0.0
C237 C 0.66254 0.43956 0.79322 0.0
C238 C 0.69762 0.44698 0.76131 0.0
C239 C 0.73292 0.4508 0.66115 0.0
C240 C 0.73372 0.44943 0.59332 0.0
C241 C 0.699 0.44666 0.69363 0.0
C242 C 0.70096 0.44588 0.55824 0.0
C243 C 0.66694 0.44132 0.5902 0.0
H244 H 0.29491 0.77484 0.86806 0.0
H245 H 0.24071 0.72556 0.68393 0.0
H246 H 0.1879 0.66693 0.7375 0.0
H247 H 0.16071 0.62694 0.83553 0.0
H248 H 0.21243 0.67679 0.02042 0.0
H249 H 0.26244 0.73816 0.96785 0.0
C250 C 0.27124 0.75147 0.83978 0.0
C251 C 0.27202 0.75434 0.77202 0.0
C252 C 0.24071 0.71789 0.87099 0.0
C253 C 0.24086 0.72411 0.73608 0.0
C254 C 0.21074 0.69045 0.76666 0.0
C255 C 0.18268 0.65147 0.86432 0.0
C256 C 0.18331 0.64729 0.93157 0.0
C257 C 0.21093 0.68662 0.83387 0.0
C258 C 0.21142 0.67941 0.96855 0.0
C259 C 0.24011 0.71435 0.93847 0.0
H260 H 0.49316 0.24266 0.90227 0.0
H261 H 0.51272 0.32186 0.06249 0.0
H262 H 0.52006 0.27623 0.13517 0.0
H263 H 0.52602 0.21596 0.1518 0.0
H264 H 0.51084 0.13967 -0.01065 0.0
H265 H 0.49628 0.18156 0.91949 0.0
C266 C 0.49854 0.24973 0.95321 0.0
C267 C 0.50253 0.2857 0.97672 0.0
C268 C 0.50367 0.22383 -0.00549 0.0
C269 C 0.50978 0.29447 0.04292 0.0
C270 C 0.51396 0.26838 0.08462 0.0
C271 C 0.51887 0.20828 0.10136 0.0
C272 C 0.51957 0.17488 0.07572 0.0
C273 C 0.51169 0.23327 0.06079 0.0
C274 C 0.51074 0.16543 0.01009 0.0
C275 C 0.50243 0.18937 0.97005 0.0
loop_
_geom_bond_atom_site_label_1
_geom_bond_atom_site_label_2
_geom_bond_distance
_geom_bond_site_symmetry_2
_ccdc_geom_bond_type
C0 O1 1.306 . S
C0 O3 1.160 . S
O1 C0 1.306 . S
O1 Cd2 2.228 1_554 S
Cd2 O1 2.228 1_556 S
Cd2 O6 2.273 1_556 S
Cd2 O10 2.277 . S
O3 C0 1.160 . S
O3 Cd4 2.203 . S
Cd4 O3 2.203 . S
Cd4 O6 2.411 . S
Cd4 O7 2.333 . S
Cd4 O8 2.352 . S
Cd4 O12 2.277 . S
Cd4 O13 2.356 . S
C5 O10 1.209 1_554 S
C5 O12 1.226 . S
O6 Cd2 2.273 1_554 S
O6 Cd4 2.411 . S
O6 C9 1.320 1_554 S
O7 Cd4 2.333 . S
O7 C9 1.214 1_554 S
O8 Cd4 2.352 . S
O8 C11 1.258 . S
C9 O6 1.320 1_556 S
C9 O7 1.214 1_556 S
O10 Cd2 2.277 . S
O10 C5 1.209 1_556 S
C11 O8 1.258 . S
C11 O13 1.282 . S
O12 Cd4 2.277 . S
O12 C5 1.226 . S
O13 Cd4 2.356 . S
O13 C11 1.282 . S
C14 O15 1.306 . S
C14 O17 1.160 . S
O15 C14 1.306 . S
O15 Cd16 2.228 . S
Cd16 O15 2.228 . S
Cd16 O20 2.273 . S
Cd16 O24 2.277 . S
O17 C14 1.160 . S
O17 Cd18 2.203 . S
Cd18 O17 2.203 . S
Cd18 O20 2.411 . S
Cd18 O21 2.333 . S
Cd18 O22 2.352 . S
Cd18 O26 2.277 . S
Cd18 O27 2.356 . S
C19 O24 1.209 . S
C19 O26 1.226 . S
O20 Cd16 2.273 . S
O20 Cd18 2.411 . S
O20 C23 1.320 . S
O21 Cd18 2.333 . S
O21 C23 1.214 . S
O22 Cd18 2.352 . S
O22 C25 1.258 . S
C23 O20 1.320 . S
C23 O21 1.214 . S
O24 Cd16 2.277 . S
O24 C19 1.209 . S
C25 O22 1.258 . S
C25 O27 1.282 . S
O26 Cd18 2.277 . S
O26 C19 1.226 . S
O27 Cd18 2.356 . S
O27 C25 1.282 . S
C28 O29 1.306 . S
C28 O31 1.160 . S
O29 C28 1.306 . S
O29 Cd30 2.228 . S
Cd30 O29 2.228 . S
Cd30 O34 2.273 . S
Cd30 O38 2.277 . S
O31 C28 1.160 . S
O31 Cd32 2.203 . S
Cd32 O31 2.203 . S
Cd32 O34 2.411 . S
Cd32 O35 2.333 . S
Cd32 O36 2.352 . S
Cd32 O40 2.277 . S
Cd32 O41 2.356 . S
C33 O38 1.209 . S
C33 O40 1.226 . S
O34 Cd30 2.273 . S
O34 Cd32 2.411 . S
O34 C37 1.320 . S
O35 Cd32 2.333 . S
O35 C37 1.214 . S
O36 Cd32 2.352 . S
O36 C39 1.258 . S
C37 O34 1.320 . S
C37 O35 1.214 . S
O38 Cd30 2.277 . S
O38 C33 1.209 . S
C39 O36 1.258 . S
C39 O41 1.282 . S
O40 Cd32 2.277 . S
O40 C33 1.226 . S
O41 Cd32 2.356 . S
O41 C39 1.282 . S
C42 O43 1.306 . S
C42 O45 1.160 . S
O43 C42 1.306 . S
O43 Cd44 2.228 . S
Cd44 O43 2.228 . S
Cd44 O48 2.273 . S
Cd44 O52 2.277 . S
O45 C42 1.160 . S
O45 Cd46 2.203 . S
Cd46 O45 2.203 . S
Cd46 O48 2.411 . S
Cd46 O49 2.333 . S
Cd46 O50 2.352 . S
Cd46 O54 2.277 . S
Cd46 O55 2.356 . S
C47 O52 1.209 . S
C47 O54 1.226 . S
O48 Cd44 2.273 . S
O48 Cd46 2.411 . S
O48 C51 1.320 . S
O49 Cd46 2.333 . S
O49 C51 1.214 . S
O50 Cd46 2.352 . S
O50 C53 1.258 . S
C51 O48 1.320 . S
C51 O49 1.214 . S
O52 Cd44 2.277 . S
O52 C47 1.209 . S
C53 O50 1.258 . S
C53 O55 1.282 . S
O54 Cd46 2.277 . S
O54 C47 1.226 . S
O55 Cd46 2.356 . S
O55 C53 1.282 . S
C56 O57 1.306 . S
C56 O59 1.160 . S
O57 C56 1.306 . S
O57 Cd58 2.228 . S
Cd58 O57 2.228 . S
Cd58 O62 2.273 . S
Cd58 O66 2.277 . S
O59 C56 1.160 . S
O59 Cd60 2.203 . S
Cd60 O59 2.203 . S
Cd60 O62 2.411 . S
Cd60 O63 2.333 . S
Cd60 O64 2.352 . S
Cd60 O68 2.277 . S
Cd60 O69 2.356 . S
C61 O66 1.209 . S
C61 O68 1.226 . S
O62 Cd58 2.273 . S
O62 Cd60 2.411 . S
O62 C65 1.320 . S
O63 Cd60 2.333 . S
O63 C65 1.214 . S
O64 Cd60 2.352 . S
O64 C67 1.258 . S
C65 O62 1.320 . S
C65 O63 1.214 . S
O66 Cd58 2.277 . S
O66 C61 1.209 . S
C67 O64 1.258 . S
C67 O69 1.282 . S
O68 Cd60 2.277 . S
O68 C61 1.226 . S
O69 Cd60 2.356 . S
O69 C67 1.282 . S
C70 O71 1.306 . S
C70 O73 1.160 . S
O71 C70 1.306 . S
O71 Cd72 2.228 . S
Cd72 O71 2.228 . S
Cd72 O76 2.273 . S
Cd72 O80 2.277 . S
O73 C70 1.160 . S
O73 Cd74 2.203 . S
Cd74 O73 2.203 . S
Cd74 O76 2.411 . S
Cd74 O77 2.333 . S
Cd74 O78 2.352 1_556 S
Cd74 O82 2.277 . S
Cd74 O83 2.356 1_556 S
C75 O80 1.209 . S
C75 O82 1.226 . S
O76 Cd72 2.273 . S
O76 Cd74 2.411 . S
O76 C79 1.320 . S
O77 Cd74 2.333 . S
O77 C79 1.214 . S
O78 Cd74 2.352 1_554 S
O78 C81 1.258 . S
C79 O76 1.320 . S
C79 O77 1.214 . S
O80 Cd72 2.277 . S
O80 C75 1.209 . S
C81 O78 1.258 . S
C81 O83 1.282 . S
O82 Cd74 2.277 . S
O82 C75 1.226 . S
O83 Cd74 2.356 1_554 S
O83 C81 1.282 . S
H84 C90 0.930 . S
H85 C93 0.930 . S
H86 C94 0.930 . S
H87 C95 0.930 . S
H88 C98 0.930 . S
H89 C99 0.930 . S
C90 H84 0.930 . S
C90 C91 1.355 . S
C90 C92 1.414 . S
C91 C90 1.355 . S
C91 C93 1.419 . S
C92 C90 1.414 . S
C92 C97 1.424 . S
C92 C99 1.411 1_455 S
C93 H85 0.930 . S
C93 C91 1.419 . S
C93 C94 1.362 . S
C94 H86 0.930 . S
C94 C93 1.362 . S
C94 C97 1.409 . S
C95 H87 0.930 . S
C95 C96 1.355 . S
C95 C97 1.415 1_655 S
C96 C95 1.355 . S
C96 C98 1.419 . S
C97 C92 1.424 . S
C97 C94 1.409 . S
C97 C95 1.415 1_455 S
C98 H88 0.930 . S
C98 C96 1.419 . S
C98 C99 1.362 . S
C99 H89 0.930 . S
C99 C92 1.411 1_655 S
C99 C98 1.362 . S
H100 C106 0.930 1_545 S
H101 C109 0.930 . S
H102 C110 0.930 . S
H103 C111 0.930 . S
H104 C114 0.930 . S
H105 C115 0.930 . S
C106 H100 0.930 1_565 S
C106 C107 1.355 . S
C106 C108 1.415 1_565 S
C107 C106 1.355 . S
C107 C109 1.419 . S
C108 C106 1.415 1_545 S
C108 C113 1.425 1_546 S
C108 C115 1.409 . S
C109 H101 0.930 . S
C109 C107 1.419 . S
C109 C110 1.362 1_556 S
C110 H102 0.930 . S
C110 C109 1.362 1_554 S
C110 C113 1.409 . S
C111 H103 0.930 . S
C111 C112 1.355 . S
C111 C113 1.415 1_545 S
C112 C111 1.355 . S
C112 C114 1.419 . S
C113 C108 1.425 1_564 S
C113 C110 1.409 . S
C113 C111 1.415 1_565 S
C114 H104 0.930 . S
C114 C112 1.419 . S
C114 C115 1.362 1_554 S
C115 H105 0.930 . S
C115 C108 1.409 . S
C115 C114 1.362 1_556 S
H116 C122 0.930 . S
H117 C125 0.930 . S
H118 C126 0.930 . S
H119 C127 0.930 . S
H120 C130 0.930 . S
H121 C131 0.930 . S
C122 H116 0.930 . S
C122 C123 1.355 . S
C122 C124 1.415 . S
C123 C122 1.355 . S
C123 C125 1.419 . S
C124 C122 1.415 . S
C124 C129 1.425 . S
C124 C131 1.409 . S
C125 H117 0.930 . S
C125 C123 1.419 . S
C125 C126 1.362 . S
C126 H118 0.930 . S
C126 C125 1.362 . S
C126 C129 1.409 . S
C127 H119 0.930 . S
C127 C128 1.355 . S
C127 C129 1.415 . S
C128 C127 1.355 . S
C128 C130 1.419 . S
C129 C124 1.425 . S
C129 C126 1.409 . S
C129 C127 1.415 . S
C130 H120 0.930 . S
C130 C128 1.419 . S
C130 C131 1.362 . S
C131 H121 0.930 . S
C131 C124 1.409 . S
C131 C130 1.362 . S
H132 C138 0.930 . S
H133 C141 0.930 . S
H134 C142 0.930 . S
H135 C143 0.930 . S
H136 C146 0.927 1_655 S
H137 C147 0.930 . S
C138 H132 0.930 . S
C138 C139 1.355 . S
C138 C140 1.415 . S
C139 C138 1.355 . S
C139 C141 1.419 . S
C140 C138 1.415 . S
C140 C145 1.425 1_655 S
C140 C147 1.409 . S
C141 H133 0.930 . S
C141 C139 1.419 . S
C141 C142 1.362 1_655 S
C142 H134 0.930 . S
C142 C141 1.362 1_455 S
C142 C145 1.409 . S
C143 H135 0.930 . S
C143 C144 1.355 . S
C143 C145 1.415 . S
C144 C143 1.355 . S
C144 C146 1.419 . S
C145 C140 1.425 1_455 S
C145 C142 1.409 . S
C145 C143 1.415 . S
C146 H136 0.927 1_455 S
C146 C144 1.419 . S
C146 C147 1.362 1_455 S
C147 H137 0.930 . S
C147 C140 1.409 . S
C147 C146 1.362 1_655 S
H148 C154 0.930 . S
H149 C157 0.930 . S
H150 C158 0.930 . S
H151 C159 0.930 . S
H152 C162 0.930 . S
H153 C163 0.930 . S
C154 H148 0.930 . S
C154 C155 1.355 . S
C154 C156 1.415 1_545 S
C155 C154 1.355 . S
C155 C157 1.419 . S
C156 C154 1.415 1_565 S
C156 C161 1.410 1_565 S
C156 C163 1.409 . S
C157 H149 0.930 . S
C157 C155 1.419 . S
C157 C158 1.362 . S
C158 H150 0.930 . S
C158 C157 1.362 . S
C158 C161 1.435 . S
C159 H151 0.930 . S
C159 C160 1.355 . S
C159 C161 1.404 1_565 S
C160 C159 1.355 . S
C160 C162 1.419 . S
C161 C156 1.410 1_545 S
C161 C158 1.435 . S
C161 C159 1.404 1_545 S
C162 H152 0.930 . S
C162 C160 1.419 . S
C162 C163 1.362 . S
C163 H153 0.930 . S
C163 C156 1.409 . S
C163 C162 1.362 . S
H164 C170 0.930 . S
H165 C173 0.930 . S
H166 C174 0.930 . S
H167 C175 0.930 . S
H168 C178 0.930 . S
H169 C179 0.930 . S
C170 H164 0.930 . S
C170 C171 1.355 . S
C170 C172 1.415 . S
C171 C170 1.355 . S
C171 C173 1.419 . S
C172 C170 1.415 . S
C172 C177 1.425 . S
C172 C179 1.409 . S
C173 H165 0.930 . S
C173 C171 1.419 . S
C173 C174 1.362 . S
C174 H166 0.930 . S
C174 C173 1.362 . S
C174 C177 1.409 . S
C175 H167 0.930 . S
C175 C176 1.355 . S
C175 C177 1.415 . S
C176 C175 1.355 . S
C176 C178 1.419 . S
C177 C172 1.425 . S
C177 C174 1.409 . S
C177 C175 1.415 . S
C178 H168 0.930 . S
C178 C176 1.419 . S
C178 C179 1.362 . S
C179 H169 0.930 . S
C179 C172 1.409 . S
C179 C178 1.362 . S
H180 C186 0.930 . S
H181 C189 0.930 . S
H182 C190 0.930 . S
H183 C191 0.930 . S
H184 C194 0.930 . S
H185 C195 0.930 . S
C186 H180 0.930 . S
C186 C187 1.355 . S
C186 C188 1.415 . S
C187 C186 1.355 . S
C187 C189 1.419 . S
C188 C186 1.415 . S
C188 C193 1.425 . S
C188 C195 1.409 . S
C189 H181 0.930 . S
C189 C187 1.419 . S
C189 C190 1.362 . S
C190 H182 0.930 . S
C190 C189 1.362 . S
C190 C193 1.409 . S
C191 H183 0.930 . S
C191 C192 1.355 . S
C191 C193 1.415 . S
C192 C191 1.355 . S
C192 C194 1.419 . S
C193 C188 1.425 . S
C193 C190 1.409 . S
C193 C191 1.415 . S
C194 H184 0.930 . S
C194 C192 1.419 . S
C194 C195 1.362 . S
C195 H185 0.930 . S
C195 C188 1.409 . S
C195 C194 1.362 . S
H196 C202 0.930 . S
H197 C205 0.930 . S
H198 C206 0.930 . S
H199 C207 0.930 . S
H200 C210 0.930 . S
H201 C211 0.930 . S
C202 H196 0.930 . S
C202 C203 1.355 . S
C202 C204 1.415 . S
C203 C202 1.355 . S
C203 C205 1.419 . S
C204 C202 1.415 . S
C204 C209 1.425 . S
C204 C211 1.409 . S
C205 H197 0.930 . S
C205 C203 1.419 . S
C205 C206 1.362 . S
C206 H198 0.930 . S
C206 C205 1.362 . S
C206 C209 1.409 . S
C207 H199 0.930 . S
C207 C208 1.355 . S
C207 C209 1.415 . S
C208 C207 1.355 . S
C208 C210 1.419 . S
C209 C204 1.425 . S
C209 C206 1.409 . S
C209 C207 1.415 . S
C210 H200 0.930 . S
C210 C208 1.419 . S
C210 C211 1.362 . S
C211 H201 0.930 . S
C211 C204 1.409 . S
C211 C210 1.362 . S
H212 C218 0.930 . S
H213 C221 0.930 . S
H214 C222 0.930 . S
H215 C223 0.930 . S
H216 C226 0.930 . S
H217 C227 0.930 . S
C218 H212 0.930 . S
C218 C219 1.355 . S
C218 C220 1.415 . S
C219 C218 1.355 . S
C219 C221 1.419 . S
C220 C218 1.415 . S
C220 C225 1.425 . S
C220 C227 1.409 . S
C221 H213 0.930 . S
C221 C219 1.419 . S
C221 C222 1.362 . S
C222 H214 0.930 . S
C222 C221 1.362 . S
C222 C225 1.409 . S
C223 H215 0.930 . S
C223 C224 1.355 . S
C223 C225 1.415 . S
C224 C223 1.355 . S
C224 C226 1.419 . S
C225 C220 1.425 . S
C225 C222 1.409 . S
C225 C223 1.415 . S
C226 H216 0.930 . S
C226 C224 1.419 . S
C226 C227 1.362 . S
C227 H217 0.930 . S
C227 C220 1.409 . S
C227 C226 1.362 . S
H228 C234 0.930 . S
H229 C237 0.930 . S
H230 C238 0.930 . S
H231 C239 0.930 . S
H232 C242 0.930 . S
H233 C243 0.930 . S
C234 H228 0.930 . S
C234 C235 1.355 . S
C234 C236 1.415 . S
C235 C234 1.355 . S
C235 C237 1.419 . S
C236 C234 1.415 . S
C236 C241 1.425 . S
C236 C243 1.409 . S
C237 H229 0.930 . S
C237 C235 1.419 . S
C237 C238 1.362 . S
C238 H230 0.930 . S
C238 C237 1.362 . S
C238 C241 1.409 . S
C239 H231 0.930 . S
C239 C240 1.355 . S
C239 C241 1.415 . S
C240 C239 1.355 . S
C240 C242 1.419 . S
C241 C236 1.425 . S
C241 C238 1.409 . S
C241 C239 1.415 . S
C242 H232 0.930 . S
C242 C240 1.419 . S
C242 C243 1.362 . S
C243 H233 0.930 . S
C243 C236 1.409 . S
C243 C242 1.362 . S
H244 C250 0.930 . S
H245 C253 0.930 . S
H246 C254 0.930 . S
H247 C255 0.930 1_554 S
H248 C258 0.930 . S
H249 C259 0.930 . S
C250 H244 0.930 . S
C250 C251 1.355 . S
C250 C252 1.415 . S
C251 C250 1.355 . S
C251 C253 1.419 . S
C252 C250 1.415 . S
C252 C257 1.425 . S
C252 C259 1.409 . S
C253 H245 0.930 . S
C253 C251 1.419 . S
C253 C254 1.362 . S
C254 H246 0.930 . S
C254 C253 1.362 . S
C254 C257 1.409 . S
C255 H247 0.930 1_556 S
C255 C256 1.355 . S
C255 C257 1.415 . S
C256 C255 1.355 . S
C256 C258 1.419 . S
C257 C252 1.425 . S
C257 C254 1.409 . S
C257 C255 1.415 . S
C258 H248 0.930 . S
C258 C256 1.419 . S
C258 C259 1.362 . S
C259 H249 0.930 . S
C259 C252 1.409 . S
C259 C258 1.362 . S
H260 C266 0.930 . S
H261 C269 0.930 . S
H262 C270 0.930 . S
H263 C271 0.930 . S
H264 C274 0.930 . S
H265 C275 0.930 1_556 S
C266 H260 0.930 . S
C266 C267 1.355 1_556 S
C266 C268 1.415 1_556 S
C267 C266 1.355 1_554 S
C267 C269 1.419 . S
C268 C266 1.415 1_554 S
C268 C273 1.425 . S
C268 C275 1.409 . S
C269 H261 0.930 . S
C269 C267 1.419 . S
C269 C270 1.362 . S
C270 H262 0.930 . S
C270 C269 1.362 . S
C270 C273 1.409 . S
C271 H263 0.930 . S
C271 C272 1.355 . S
C271 C273 1.415 . S
C272 C271 1.355 . S
C272 C274 1.419 . S
C273 C268 1.425 . S
C273 C270 1.409 . S
C273 C271 1.415 . S
C274 H264 0.930 . S
C274 C272 1.419 . S
C274 C275 1.362 . S
C275 H265 0.930 1_554 S
C275 C268 1.409 . S
C275 C274 1.362 . S
C91 C9 1.336 . S
C96 C53 1.328 . S
C107 C67 1.333 . S
C112 C23 1.310 . S
C123 C37 1.302 . S
C128 C81 1.333 . S
C139 C51 1.289 . S
C144 C11 1.328 . S
C155 C25 1.333 . S
C160 C65 1.295 . S
C171 C79 1.332 . S
C176 C39 1.330 . S
C187 C0 1.299 . S
C192 C33 1.286 . S
C203 C14 1.280 . S
C208 C47 1.317 . S
C219 C61 1.279 . S
C224 C28 1.317 . S
C235 C75 1.302 . S
C240 C42 1.305 . S
C251 C56 1.317 . S
C256 C5 1.280 1_556 S
C267 C70 1.298 1_554 S
C272 C19 1.287 . S
