# Generated by pormake.
# Topology bcu-k, (6)-cn, num edge types: 1
# Building blocks:
#     Node 0, Type 0, BuildingBlock: OJICUG_clean_sbu_0, # of connection points: 6
#     Node 1, Type 0, BuildingBlock: OJICUG_clean_sbu_0, # of connection points: 6
#     Node 2, Type 0, BuildingBlock: OJICUG_clean_sbu_0, # of connection points: 6
#     Node 3, Type 0, BuildingBlock: OJICUG_clean_sbu_0, # of connection points: 6
#     Node 4, Type 0, BuildingBlock: OJICUG_clean_sbu_0, # of connection points: 6
#     Node 5, Type 0, BuildingBlock: OJICUG_clean_sbu_0, # of connection points: 6
#     Node 6, Type 0, BuildingBlock: OJICUG_clean_sbu_0, # of connection points: 6
#     Node 7, Type 0, BuildingBlock: OJICUG_clean_sbu_0, # of connection points: 6
#     Node 8, Type 0, BuildingBlock: OJICUG_clean_sbu_0, # of connection points: 6
#     Node 9, Type 0, BuildingBlock: OJICUG_clean_sbu_0, # of connection points: 6
#     Node 10, Type 0, BuildingBlock: OJICUG_clean_sbu_0, # of connection points: 6
#     Node 11, Type 0, BuildingBlock: OJICUG_clean_sbu_0, # of connection points: 6
#     Node 12, Type 0, BuildingBlock: OJICUG_clean_sbu_0, # of connection points: 6
#     Node 13, Type 0, BuildingBlock: OJICUG_clean_sbu_0, # of connection points: 6
#     Node 14, Type 0, BuildingBlock: OJICUG_clean_sbu_0, # of connection points: 6
#     Node 15, Type 0, BuildingBlock: OJICUG_clean_sbu_0, # of connection points: 6
#     Node 16, Type 0, BuildingBlock: OJICUG_clean_sbu_0, # of connection points: 6
#     Node 17, Type 0, BuildingBlock: OJICUG_clean_sbu_0, # of connection points: 6
#     Node 18, Type 0, BuildingBlock: OJICUG_clean_sbu_0, # of connection points: 6
#     Node 19, Type 0, BuildingBlock: OJICUG_clean_sbu_0, # of connection points: 6
#     Node 20, Type 0, BuildingBlock: OJICUG_clean_sbu_0, # of connection points: 6
#     Node 21, Type 0, BuildingBlock: OJICUG_clean_sbu_0, # of connection points: 6
#     Node 22, Type 0, BuildingBlock: OJICUG_clean_sbu_0, # of connection points: 6
#     Node 23, Type 0, BuildingBlock: OJICUG_clean_sbu_0, # of connection points: 6
#     Node 24, Type 0, BuildingBlock: OJICUG_clean_sbu_0, # of connection points: 6
#     Node 25, Type 0, BuildingBlock: OJICUG_clean_sbu_0, # of connection points: 6
#     Node 26, Type 0, BuildingBlock: OJICUG_clean_sbu_0, # of connection points: 6
#     Node 27, Type 0, BuildingBlock: OJICUG_clean_sbu_0, # of connection points: 6
#     Node 28, Type 0, BuildingBlock: OJICUG_clean_sbu_0, # of connection points: 6
#     Node 29, Type 0, BuildingBlock: OJICUG_clean_sbu_0, # of connection points: 6
#     Node 30, Type 0, BuildingBlock: OJICUG_clean_sbu_0, # of connection points: 6
#     Node 31, Type 0, BuildingBlock: OJICUG_clean_sbu_0, # of connection points: 6
#     Node 32, Type 0, BuildingBlock: OJICUG_clean_sbu_0, # of connection points: 6
#     Node 33, Type 0, BuildingBlock: OJICUG_clean_sbu_0, # of connection points: 6
#     Node 34, Type 0, BuildingBlock: OJICUG_clean_sbu_0, # of connection points: 6
#     Node 35, Type 0, BuildingBlock: OJICUG_clean_sbu_0, # of connection points: 6
#     Node 36, Type 0, BuildingBlock: OJICUG_clean_sbu_0, # of connection points: 6
#     Node 37, Type 0, BuildingBlock: OJICUG_clean_sbu_0, # of connection points: 6
#     Node 38, Type 0, BuildingBlock: OJICUG_clean_sbu_0, # of connection points: 6
#     Node 39, Type 0, BuildingBlock: OJICUG_clean_sbu_0, # of connection points: 6
#     Node 40, Type 0, BuildingBlock: OJICUG_clean_sbu_0, # of connection points: 6
#     Node 41, Type 0, BuildingBlock: OJICUG_clean_sbu_0, # of connection points: 6
#     Node 42, Type 0, BuildingBlock: OJICUG_clean_sbu_0, # of connection points: 6
#     Node 43, Type 0, BuildingBlock: OJICUG_clean_sbu_0, # of connection points: 6
#     Node 44, Type 0, BuildingBlock: OJICUG_clean_sbu_0, # of connection points: 6
#     Node 45, Type 0, BuildingBlock: OJICUG_clean_sbu_0, # of connection points: 6
#     Node 46, Type 0, BuildingBlock: OJICUG_clean_sbu_0, # of connection points: 6
#     Node 47, Type 0, BuildingBlock: OJICUG_clean_sbu_0, # of connection points: 6
#     Edge 48, Type (0, 0), BuildingBlock: OJICUG_clean_linker_0, # of connection points: 2
#     Edge 49, Type (0, 0), BuildingBlock: OJICUG_clean_linker_0, # of connection points: 2
#     Edge 50, Type (0, 0), BuildingBlock: OJICUG_clean_linker_0, # of connection points: 2
#     Edge 51, Type (0, 0), BuildingBlock: OJICUG_clean_linker_0, # of connection points: 2
#     Edge 52, Type (0, 0), BuildingBlock: OJICUG_clean_linker_0, # of connection points: 2
#     Edge 53, Type (0, 0), BuildingBlock: OJICUG_clean_linker_0, # of connection points: 2
#     Edge 54, Type (0, 0), BuildingBlock: OJICUG_clean_linker_0, # of connection points: 2
#     Edge 55, Type (0, 0), BuildingBlock: OJICUG_clean_linker_0, # of connection points: 2
#     Edge 56, Type (0, 0), BuildingBlock: OJICUG_clean_linker_0, # of connection points: 2
#     Edge 57, Type (0, 0), BuildingBlock: OJICUG_clean_linker_0, # of connection points: 2
#     Edge 58, Type (0, 0), BuildingBlock: OJICUG_clean_linker_0, # of connection points: 2
#     Edge 59, Type (0, 0), BuildingBlock: OJICUG_clean_linker_0, # of connection points: 2
#     Edge 60, Type (0, 0), BuildingBlock: OJICUG_clean_linker_0, # of connection points: 2
#     Edge 61, Type (0, 0), BuildingBlock: OJICUG_clean_linker_0, # of connection points: 2
#     Edge 62, Type (0, 0), BuildingBlock: OJICUG_clean_linker_0, # of connection points: 2
#     Edge 63, Type (0, 0), BuildingBlock: OJICUG_clean_linker_0, # of connection points: 2
#     Edge 64, Type (0, 0), BuildingBlock: OJICUG_clean_linker_0, # of connection points: 2
#     Edge 65, Type (0, 0), BuildingBlock: OJICUG_clean_linker_0, # of connection points: 2
#     Edge 66, Type (0, 0), BuildingBlock: OJICUG_clean_linker_0, # of connection points: 2
#     Edge 67, Type (0, 0), BuildingBlock: OJICUG_clean_linker_0, # of connection points: 2
#     Edge 68, Type (0, 0), BuildingBlock: OJICUG_clean_linker_0, # of connection points: 2
#     Edge 69, Type (0, 0), BuildingBlock: OJICUG_clean_linker_0, # of connection points: 2
#     Edge 70, Type (0, 0), BuildingBlock: OJICUG_clean_linker_0, # of connection points: 2
#     Edge 71, Type (0, 0), BuildingBlock: OJICUG_clean_linker_0, # of connection points: 2
#     Edge 72, Type (0, 0), BuildingBlock: OJICUG_clean_linker_0, # of connection points: 2
#     Edge 73, Type (0, 0), BuildingBlock: OJICUG_clean_linker_0, # of connection points: 2
#     Edge 74, Type (0, 0), BuildingBlock: OJICUG_clean_linker_0, # of connection points: 2
#     Edge 75, Type (0, 0), BuildingBlock: OJICUG_clean_linker_0, # of connection points: 2
#     Edge 76, Type (0, 0), BuildingBlock: OJICUG_clean_linker_0, # of connection points: 2
#     Edge 77, Type (0, 0), BuildingBlock: OJICUG_clean_linker_0, # of connection points: 2
#     Edge 78, Type (0, 0), BuildingBlock: OJICUG_clean_linker_0, # of connection points: 2
#     Edge 79, Type (0, 0), BuildingBlock: OJICUG_clean_linker_0, # of connection points: 2
#     Edge 80, Type (0, 0), BuildingBlock: OJICUG_clean_linker_0, # of connection points: 2
#     Edge 81, Type (0, 0), BuildingBlock: OJICUG_clean_linker_0, # of connection points: 2
#     Edge 82, Type (0, 0), BuildingBlock: OJICUG_clean_linker_0, # of connection points: 2
#     Edge 83, Type (0, 0), BuildingBlock: OJICUG_clean_linker_0, # of connection points: 2
#     Edge 84, Type (0, 0), BuildingBlock: OJICUG_clean_linker_0, # of connection points: 2
#     Edge 85, Type (0, 0), BuildingBlock: OJICUG_clean_linker_0, # of connection points: 2
#     Edge 86, Type (0, 0), BuildingBlock: OJICUG_clean_linker_0, # of connection points: 2
#     Edge 87, Type (0, 0), BuildingBlock: OJICUG_clean_linker_0, # of connection points: 2
#     Edge 88, Type (0, 0), BuildingBlock: OJICUG_clean_linker_0, # of connection points: 2
#     Edge 89, Type (0, 0), BuildingBlock: OJICUG_clean_linker_0, # of connection points: 2
#     Edge 90, Type (0, 0), BuildingBlock: OJICUG_clean_linker_0, # of connection points: 2
#     Edge 91, Type (0, 0), BuildingBlock: OJICUG_clean_linker_0, # of connection points: 2
#     Edge 92, Type (0, 0), BuildingBlock: OJICUG_clean_linker_0, # of connection points: 2
#     Edge 93, Type (0, 0), BuildingBlock: OJICUG_clean_linker_0, # of connection points: 2
#     Edge 94, Type (0, 0), BuildingBlock: OJICUG_clean_linker_0, # of connection points: 2
#     Edge 95, Type (0, 0), BuildingBlock: OJICUG_clean_linker_0, # of connection points: 2
#     Edge 96, Type (0, 0), BuildingBlock: OJICUG_clean_linker_0, # of connection points: 2
#     Edge 97, Type (0, 0), BuildingBlock: OJICUG_clean_linker_0, # of connection points: 2
#     Edge 98, Type (0, 0), BuildingBlock: OJICUG_clean_linker_0, # of connection points: 2
#     Edge 99, Type (0, 0), BuildingBlock: OJICUG_clean_linker_0, # of connection points: 2
#     Edge 100, Type (0, 0), BuildingBlock: OJICUG_clean_linker_0, # of connection points: 2
#     Edge 101, Type (0, 0), BuildingBlock: OJICUG_clean_linker_0, # of connection points: 2
#     Edge 102, Type (0, 0), BuildingBlock: OJICUG_clean_linker_0, # of connection points: 2
#     Edge 103, Type (0, 0), BuildingBlock: OJICUG_clean_linker_0, # of connection points: 2
#     Edge 104, Type (0, 0), BuildingBlock: OJICUG_clean_linker_0, # of connection points: 2
#     Edge 105, Type (0, 0), BuildingBlock: OJICUG_clean_linker_0, # of connection points: 2
#     Edge 106, Type (0, 0), BuildingBlock: OJICUG_clean_linker_0, # of connection points: 2
#     Edge 107, Type (0, 0), BuildingBlock: OJICUG_clean_linker_0, # of connection points: 2
#     Edge 108, Type (0, 0), BuildingBlock: OJICUG_clean_linker_0, # of connection points: 2
#     Edge 109, Type (0, 0), BuildingBlock: OJICUG_clean_linker_0, # of connection points: 2
#     Edge 110, Type (0, 0), BuildingBlock: OJICUG_clean_linker_0, # of connection points: 2
#     Edge 111, Type (0, 0), BuildingBlock: OJICUG_clean_linker_0, # of connection points: 2
#     Edge 112, Type (0, 0), BuildingBlock: OJICUG_clean_linker_0, # of connection points: 2
#     Edge 113, Type (0, 0), BuildingBlock: OJICUG_clean_linker_0, # of connection points: 2
#     Edge 114, Type (0, 0), BuildingBlock: OJICUG_clean_linker_0, # of connection points: 2
#     Edge 115, Type (0, 0), BuildingBlock: OJICUG_clean_linker_0, # of connection points: 2
#     Edge 116, Type (0, 0), BuildingBlock: OJICUG_clean_linker_0, # of connection points: 2
#     Edge 117, Type (0, 0), BuildingBlock: OJICUG_clean_linker_0, # of connection points: 2
#     Edge 118, Type (0, 0), BuildingBlock: OJICUG_clean_linker_0, # of connection points: 2
#     Edge 119, Type (0, 0), BuildingBlock: OJICUG_clean_linker_0, # of connection points: 2
#     Edge 120, Type (0, 0), BuildingBlock: OJICUG_clean_linker_0, # of connection points: 2
#     Edge 121, Type (0, 0), BuildingBlock: OJICUG_clean_linker_0, # of connection points: 2
#     Edge 122, Type (0, 0), BuildingBlock: OJICUG_clean_linker_0, # of connection points: 2
#     Edge 123, Type (0, 0), BuildingBlock: OJICUG_clean_linker_0, # of connection points: 2
#     Edge 124, Type (0, 0), BuildingBlock: OJICUG_clean_linker_0, # of connection points: 2
#     Edge 125, Type (0, 0), BuildingBlock: OJICUG_clean_linker_0, # of connection points: 2
#     Edge 126, Type (0, 0), BuildingBlock: OJICUG_clean_linker_0, # of connection points: 2
#     Edge 127, Type (0, 0), BuildingBlock: OJICUG_clean_linker_0, # of connection points: 2
#     Edge 128, Type (0, 0), BuildingBlock: OJICUG_clean_linker_0, # of connection points: 2
#     Edge 129, Type (0, 0), BuildingBlock: OJICUG_clean_linker_0, # of connection points: 2
#     Edge 130, Type (0, 0), BuildingBlock: OJICUG_clean_linker_0, # of connection points: 2
#     Edge 131, Type (0, 0), BuildingBlock: OJICUG_clean_linker_0, # of connection points: 2
#     Edge 132, Type (0, 0), BuildingBlock: OJICUG_clean_linker_0, # of connection points: 2
#     Edge 133, Type (0, 0), BuildingBlock: OJICUG_clean_linker_0, # of connection points: 2
#     Edge 134, Type (0, 0), BuildingBlock: OJICUG_clean_linker_0, # of connection points: 2
#     Edge 135, Type (0, 0), BuildingBlock: OJICUG_clean_linker_0, # of connection points: 2
#     Edge 136, Type (0, 0), BuildingBlock: OJICUG_clean_linker_0, # of connection points: 2
#     Edge 137, Type (0, 0), BuildingBlock: OJICUG_clean_linker_0, # of connection points: 2
#     Edge 138, Type (0, 0), BuildingBlock: OJICUG_clean_linker_0, # of connection points: 2
#     Edge 139, Type (0, 0), BuildingBlock: OJICUG_clean_linker_0, # of connection points: 2
#     Edge 140, Type (0, 0), BuildingBlock: OJICUG_clean_linker_0, # of connection points: 2
#     Edge 141, Type (0, 0), BuildingBlock: OJICUG_clean_linker_0, # of connection points: 2
#     Edge 142, Type (0, 0), BuildingBlock: OJICUG_clean_linker_0, # of connection points: 2
#     Edge 143, Type (0, 0), BuildingBlock: OJICUG_clean_linker_0, # of connection points: 2
#     Edge 144, Type (0, 0), BuildingBlock: OJICUG_clean_linker_0, # of connection points: 2
#     Edge 145, Type (0, 0), BuildingBlock: OJICUG_clean_linker_0, # of connection points: 2
#     Edge 146, Type (0, 0), BuildingBlock: OJICUG_clean_linker_0, # of connection points: 2
#     Edge 147, Type (0, 0), BuildingBlock: OJICUG_clean_linker_0, # of connection points: 2
#     Edge 148, Type (0, 0), BuildingBlock: OJICUG_clean_linker_0, # of connection points: 2
#     Edge 149, Type (0, 0), BuildingBlock: OJICUG_clean_linker_0, # of connection points: 2
#     Edge 150, Type (0, 0), BuildingBlock: OJICUG_clean_linker_0, # of connection points: 2
#     Edge 151, Type (0, 0), BuildingBlock: OJICUG_clean_linker_0, # of connection points: 2
#     Edge 152, Type (0, 0), BuildingBlock: OJICUG_clean_linker_0, # of connection points: 2
#     Edge 153, Type (0, 0), BuildingBlock: OJICUG_clean_linker_0, # of connection points: 2
#     Edge 154, Type (0, 0), BuildingBlock: OJICUG_clean_linker_0, # of connection points: 2
#     Edge 155, Type (0, 0), BuildingBlock: OJICUG_clean_linker_0, # of connection points: 2
#     Edge 156, Type (0, 0), BuildingBlock: OJICUG_clean_linker_0, # of connection points: 2
#     Edge 157, Type (0, 0), BuildingBlock: OJICUG_clean_linker_0, # of connection points: 2
#     Edge 158, Type (0, 0), BuildingBlock: OJICUG_clean_linker_0, # of connection points: 2
#     Edge 159, Type (0, 0), BuildingBlock: OJICUG_clean_linker_0, # of connection points: 2
#     Edge 160, Type (0, 0), BuildingBlock: OJICUG_clean_linker_0, # of connection points: 2
#     Edge 161, Type (0, 0), BuildingBlock: OJICUG_clean_linker_0, # of connection points: 2
#     Edge 162, Type (0, 0), BuildingBlock: OJICUG_clean_linker_0, # of connection points: 2
#     Edge 163, Type (0, 0), BuildingBlock: OJICUG_clean_linker_0, # of connection points: 2
#     Edge 164, Type (0, 0), BuildingBlock: OJICUG_clean_linker_0, # of connection points: 2
#     Edge 165, Type (0, 0), BuildingBlock: OJICUG_clean_linker_0, # of connection points: 2
#     Edge 166, Type (0, 0), BuildingBlock: OJICUG_clean_linker_0, # of connection points: 2
#     Edge 167, Type (0, 0), BuildingBlock: OJICUG_clean_linker_0, # of connection points: 2
#     Edge 168, Type (0, 0), BuildingBlock: OJICUG_clean_linker_0, # of connection points: 2
#     Edge 169, Type (0, 0), BuildingBlock: OJICUG_clean_linker_0, # of connection points: 2
#     Edge 170, Type (0, 0), BuildingBlock: OJICUG_clean_linker_0, # of connection points: 2
#     Edge 171, Type (0, 0), BuildingBlock: OJICUG_clean_linker_0, # of connection points: 2
#     Edge 172, Type (0, 0), BuildingBlock: OJICUG_clean_linker_0, # of connection points: 2
#     Edge 173, Type (0, 0), BuildingBlock: OJICUG_clean_linker_0, # of connection points: 2
#     Edge 174, Type (0, 0), BuildingBlock: OJICUG_clean_linker_0, # of connection points: 2
#     Edge 175, Type (0, 0), BuildingBlock: OJICUG_clean_linker_0, # of connection points: 2
#     Edge 176, Type (0, 0), BuildingBlock: OJICUG_clean_linker_0, # of connection points: 2
#     Edge 177, Type (0, 0), BuildingBlock: OJICUG_clean_linker_0, # of connection points: 2
#     Edge 178, Type (0, 0), BuildingBlock: OJICUG_clean_linker_0, # of connection points: 2
#     Edge 179, Type (0, 0), BuildingBlock: OJICUG_clean_linker_0, # of connection points: 2
#     Edge 180, Type (0, 0), BuildingBlock: OJICUG_clean_linker_0, # of connection points: 2
#     Edge 181, Type (0, 0), BuildingBlock: OJICUG_clean_linker_0, # of connection points: 2
#     Edge 182, Type (0, 0), BuildingBlock: OJICUG_clean_linker_0, # of connection points: 2
#     Edge 183, Type (0, 0), BuildingBlock: OJICUG_clean_linker_0, # of connection points: 2
#     Edge 184, Type (0, 0), BuildingBlock: OJICUG_clean_linker_0, # of connection points: 2
#     Edge 185, Type (0, 0), BuildingBlock: OJICUG_clean_linker_0, # of connection points: 2
#     Edge 186, Type (0, 0), BuildingBlock: OJICUG_clean_linker_0, # of connection points: 2
#     Edge 187, Type (0, 0), BuildingBlock: OJICUG_clean_linker_0, # of connection points: 2
#     Edge 188, Type (0, 0), BuildingBlock: OJICUG_clean_linker_0, # of connection points: 2
#     Edge 189, Type (0, 0), BuildingBlock: OJICUG_clean_linker_0, # of connection points: 2
#     Edge 190, Type (0, 0), BuildingBlock: OJICUG_clean_linker_0, # of connection points: 2
#     Edge 191, Type (0, 0), BuildingBlock: OJICUG_clean_linker_0, # of connection points: 2
# Relax obj value: 0.432
# Max RMSD: 0.178
# Mean RMSD: 0.178
data_MOF--net-bcu-k--node1-OJICUG_clean_sbu_0--edge1-OJICUG_clean_linker_0
_symmetry_space_group_name_H-M    P1
_symmetry_Int_Tables_number       1
_symmetry_cell_setting            triclinic
loop_
_symmetry_equiv_pos_as_xyz
'x, y, z'
_cell_length_a     44.793351
_cell_length_b     44.789634
_cell_length_c     44.790691
_cell_angle_alpha  89.999202
_cell_angle_beta   89.994262
_cell_angle_gamma 90.000918
loop_
_atom_site_label
_atom_site_type_symbol
_atom_site_fract_x
_atom_site_fract_y
_atom_site_fract_z
_atom_type_partial_charge
Sc0 Sc 0.16956 0.16961 0.33668 0.0
Sc1 Sc 0.1208 0.12079 0.37413 0.0
Sc2 Sc 0.12245 0.12234 0.2952 0.0
O3 O 0.13755 0.13752 0.33526 0.0
C4 C 0.12941 0.19215 0.2824 0.0
C5 C 0.12502 0.19049 0.38789 0.0
C6 C 0.0625 0.12549 0.33361 0.0
C7 C 0.19047 0.1252 0.38799 0.0
C8 C 0.19224 0.1294 0.2825 0.0
C9 C 0.12569 0.06244 0.33371 0.0
O10 O 0.14796 0.19647 0.30342 0.0
O11 O 0.11371 0.16494 0.39274 0.0
O12 O 0.07643 0.1251 0.30888 0.0
O13 O 0.19492 0.14601 0.36935 0.0
O14 O 0.1668 0.1181 0.27686 0.0
O15 O 0.12425 0.07556 0.35882 0.0
O16 O 0.19649 0.14803 0.30346 0.0
O17 O 0.16493 0.11388 0.39284 0.0
O18 O 0.12522 0.07634 0.30895 0.0
O19 O 0.14588 0.19495 0.36932 0.0
O20 O 0.11821 0.16666 0.27676 0.0
O21 O 0.07559 0.12404 0.35874 0.0
Sc22 Sc 0.87371 0.12229 0.29478 0.0
Sc23 Sc 0.87507 0.12078 0.37373 0.0
Sc24 Sc 0.82641 0.16951 0.33609 0.0
O25 O 0.85846 0.13746 0.33479 0.0
C26 C 0.86678 0.19209 0.28199 0.0
C27 C 0.93352 0.12548 0.3334 0.0
C28 C 0.87071 0.19046 0.38748 0.0
C29 C 0.87037 0.06241 0.33332 0.0
C30 C 0.80398 0.12931 0.28178 0.0
C31 C 0.80534 0.12511 0.38734 0.0
O32 O 0.87799 0.1666 0.27636 0.0
O33 O 0.92034 0.12404 0.35848 0.0
O34 O 0.84989 0.19487 0.36886 0.0
O35 O 0.87092 0.07629 0.30855 0.0
O36 O 0.79966 0.14794 0.30273 0.0
O37 O 0.83089 0.11386 0.39234 0.0
O38 O 0.82944 0.11801 0.27625 0.0
O39 O 0.8717 0.07555 0.35842 0.0
O40 O 0.80093 0.14586 0.36862 0.0
O41 O 0.91968 0.12508 0.30862 0.0
O42 O 0.84816 0.1964 0.30295 0.0
O43 O 0.88207 0.16493 0.39233 0.0
Sc44 Sc 0.87377 0.87353 0.29503 0.0
Sc45 Sc 0.87521 0.87514 0.37398 0.0
Sc46 Sc 0.8265 0.82636 0.33644 0.0
O47 O 0.85855 0.85841 0.33507 0.0
C48 C 0.804 0.86655 0.28216 0.0
C49 C 0.87045 0.93345 0.33348 0.0
C50 C 0.80551 0.87079 0.38771 0.0
C51 C 0.93361 0.87038 0.33359 0.0
C52 C 0.86678 0.80374 0.28229 0.0
C53 C 0.87088 0.80546 0.38778 0.0
O54 O 0.82948 0.8778 0.27656 0.0
O55 O 0.87181 0.92036 0.35861 0.0
O56 O 0.80108 0.85002 0.36903 0.0
O57 O 0.91974 0.87075 0.30882 0.0
O58 O 0.84816 0.79946 0.30326 0.0
O59 O 0.88222 0.831 0.39262 0.0
O60 O 0.87802 0.8292 0.27665 0.0
O61 O 0.92045 0.87187 0.35868 0.0
O62 O 0.85005 0.80102 0.36917 0.0
O63 O 0.871 0.91953 0.30874 0.0
O64 O 0.79969 0.84795 0.30313 0.0
O65 O 0.83105 0.88208 0.39262 0.0
Sc66 Sc 0.16962 0.82628 0.33658 0.0
Sc67 Sc 0.12092 0.87508 0.37411 0.0
Sc68 Sc 0.12248 0.87357 0.29518 0.0
O69 O 0.13762 0.85837 0.33521 0.0
C70 C 0.19225 0.86651 0.28239 0.0
C71 C 0.1906 0.87067 0.38788 0.0
C72 C 0.12575 0.93345 0.3337 0.0
C73 C 0.12517 0.80538 0.38786 0.0
C74 C 0.12941 0.80377 0.28234 0.0
C75 C 0.06258 0.87039 0.33366 0.0
O76 O 0.19651 0.84787 0.30334 0.0
O77 O 0.16507 0.88199 0.39277 0.0
O78 O 0.12526 0.91956 0.30894 0.0
O79 O 0.14599 0.80093 0.36924 0.0
O80 O 0.11821 0.82926 0.27672 0.0
O81 O 0.0757 0.87183 0.35877 0.0
O82 O 0.14798 0.79944 0.30334 0.0
O83 O 0.11387 0.83093 0.39273 0.0
O84 O 0.07648 0.8708 0.30891 0.0
O85 O 0.19502 0.84986 0.36923 0.0
O86 O 0.1668 0.87781 0.27679 0.0
O87 O 0.12434 0.92032 0.35881 0.0
Sc88 Sc 0.12188 0.87334 0.70059 0.0
Sc89 Sc 0.12042 0.87493 0.62165 0.0
Sc90 Sc 0.16913 0.82615 0.65918 0.0
O91 O 0.13709 0.8582 0.66055 0.0
C92 C 0.19164 0.86634 0.71345 0.0
C93 C 0.12516 0.93325 0.66211 0.0
C94 C 0.19012 0.87058 0.60792 0.0
C95 C 0.06202 0.87015 0.66205 0.0
C96 C 0.12886 0.80354 0.71335 0.0
C97 C 0.12474 0.80525 0.60785 0.0
O98 O 0.16618 0.87762 0.71904 0.0
O99 O 0.1238 0.92014 0.63699 0.0
O100 O 0.19455 0.8498 0.62659 0.0
O101 O 0.0759 0.87054 0.68682 0.0
O102 O 0.14746 0.79925 0.69237 0.0
O103 O 0.1134 0.83079 0.60301 0.0
O104 O 0.11764 0.82902 0.71899 0.0
O105 O 0.07517 0.87163 0.63696 0.0
O106 O 0.14557 0.80081 0.62646 0.0
O107 O 0.12464 0.91935 0.68686 0.0
O108 O 0.19595 0.84773 0.69249 0.0
O109 O 0.16458 0.88187 0.603 0.0
Sc110 Sc 0.12167 0.12208 0.70066 0.0
Sc111 Sc 0.1203 0.12057 0.62171 0.0
Sc112 Sc 0.16894 0.16934 0.65934 0.0
O113 O 0.13691 0.13727 0.66065 0.0
C114 C 0.12857 0.19188 0.71346 0.0
C115 C 0.06186 0.12522 0.66204 0.0
C116 C 0.12461 0.19026 0.60796 0.0
C117 C 0.12507 0.06221 0.66214 0.0
C118 C 0.19141 0.12914 0.71363 0.0
C119 C 0.19002 0.12497 0.60807 0.0
O120 O 0.11735 0.16639 0.71908 0.0
O121 O 0.07504 0.1238 0.63696 0.0
O122 O 0.14542 0.19469 0.62661 0.0
O123 O 0.12451 0.0761 0.6869 0.0
O124 O 0.19572 0.14776 0.69267 0.0
O125 O 0.16448 0.11368 0.6031 0.0
O126 O 0.16595 0.11785 0.71918 0.0
O127 O 0.12371 0.07534 0.63703 0.0
O128 O 0.19442 0.14572 0.62678 0.0
O129 O 0.0757 0.12483 0.68683 0.0
O130 O 0.1472 0.19619 0.69251 0.0
O131 O 0.11328 0.16472 0.60309 0.0
Sc132 Sc 0.82585 0.16914 0.65875 0.0
Sc133 Sc 0.87459 0.12031 0.62131 0.0
Sc134 Sc 0.87294 0.12188 0.70025 0.0
O135 O 0.85785 0.13705 0.66019 0.0
C136 C 0.86596 0.19168 0.71306 0.0
C137 C 0.87039 0.19001 0.60754 0.0
C138 C 0.93289 0.12506 0.66184 0.0
C139 C 0.80494 0.12473 0.60744 0.0
C140 C 0.80314 0.12891 0.7129 0.0
C141 C 0.86974 0.06197 0.66177 0.0
O142 O 0.84742 0.196 0.69204 0.0
O143 O 0.88166 0.16445 0.60267 0.0
O144 O 0.91896 0.12466 0.68658 0.0
O145 O 0.8005 0.14557 0.62605 0.0
O146 O 0.82858 0.11763 0.71856 0.0
O147 O 0.87118 0.07508 0.63665 0.0
O148 O 0.7989 0.14754 0.69194 0.0
O149 O 0.83047 0.11337 0.60263 0.0
O150 O 0.8702 0.07588 0.68651 0.0
O151 O 0.84955 0.19449 0.62614 0.0
O152 O 0.87717 0.1662 0.7187 0.0
O153 O 0.9198 0.1236 0.63671 0.0
Sc154 Sc 0.82599 0.82581 0.65909 0.0
Sc155 Sc 0.8747 0.87458 0.62154 0.0
Sc156 Sc 0.87313 0.87312 0.70048 0.0
O157 O 0.858 0.8579 0.66045 0.0
C158 C 0.80335 0.86603 0.71329 0.0
C159 C 0.80502 0.87018 0.60778 0.0
C160 C 0.86983 0.93298 0.66191 0.0
C161 C 0.87045 0.80487 0.60784 0.0
C162 C 0.86623 0.80333 0.71333 0.0
C163 C 0.93305 0.86996 0.662 0.0
O164 O 0.7991 0.84739 0.69234 0.0
O165 O 0.83056 0.88148 0.60288 0.0
O166 O 0.8703 0.91911 0.68668 0.0
O167 O 0.84962 0.80044 0.62644 0.0
O168 O 0.87743 0.82882 0.71894 0.0
O169 O 0.91993 0.87135 0.63689 0.0
O170 O 0.84765 0.79899 0.69234 0.0
O171 O 0.88177 0.83042 0.60297 0.0
O172 O 0.91914 0.8704 0.68675 0.0
O173 O 0.80059 0.84938 0.62644 0.0
O174 O 0.8288 0.87734 0.71889 0.0
O175 O 0.87128 0.91983 0.63682 0.0
Sc176 Sc 0.33679 0.16954 0.1695 0.0
Sc177 Sc 0.37425 0.12073 0.12074 0.0
Sc178 Sc 0.29532 0.12226 0.1224 0.0
O179 O 0.33537 0.13746 0.13749 0.0
C180 C 0.28261 0.12934 0.19219 0.0
C181 C 0.38809 0.12513 0.19041 0.0
C182 C 0.33384 0.06237 0.12562 0.0
C183 C 0.38803 0.19042 0.12498 0.0
C184 C 0.28251 0.19207 0.12935 0.0
C185 C 0.33371 0.12543 0.06244 0.0
O186 O 0.30356 0.14798 0.19643 0.0
O187 O 0.39295 0.11382 0.16487 0.0
O188 O 0.30908 0.07626 0.12517 0.0
O189 O 0.36944 0.19488 0.14583 0.0
O190 O 0.27686 0.16658 0.11817 0.0
O191 O 0.35884 0.12399 0.07553 0.0
O192 O 0.30354 0.19641 0.14788 0.0
O193 O 0.39286 0.16487 0.11366 0.0
O194 O 0.30898 0.12503 0.07638 0.0
O195 O 0.36945 0.14594 0.19486 0.0
O196 O 0.27699 0.11802 0.16676 0.0
O197 O 0.35894 0.0755 0.12417 0.0
Sc198 Sc 0.82642 0.33657 0.16914 0.0
Sc199 Sc 0.87513 0.37416 0.12038 0.0
Sc200 Sc 0.87367 0.29521 0.12191 0.0
O201 O 0.85847 0.33523 0.13709 0.0
C202 C 0.86671 0.28239 0.19168 0.0
C203 C 0.8708 0.38788 0.1901 0.0
C204 C 0.93353 0.33377 0.12514 0.0
C205 C 0.80543 0.38788 0.12476 0.0
C206 C 0.8039 0.28237 0.12888 0.0
C207 C 0.87035 0.3337 0.06203 0.0
O208 O 0.84806 0.30332 0.19598 0.0
O209 O 0.8821 0.39279 0.16455 0.0
O210 O 0.91965 0.309 0.12468 0.0
O211 O 0.80102 0.36923 0.14557 0.0
O212 O 0.82938 0.27675 0.11766 0.0
O213 O 0.87178 0.35882 0.07514 0.0
O214 O 0.79958 0.30334 0.14748 0.0
O215 O 0.83096 0.39276 0.11342 0.0
O216 O 0.87085 0.30895 0.07593 0.0
O217 O 0.85002 0.36922 0.19453 0.0
O218 O 0.87798 0.2768 0.16622 0.0
O219 O 0.92038 0.35887 0.12371 0.0
Sc220 Sc 0.70067 0.8736 0.12215 0.0
Sc221 Sc 0.62173 0.87517 0.12079 0.0
Sc222 Sc 0.65933 0.82642 0.16947 0.0
O223 O 0.66066 0.85846 0.13742 0.0
C224 C 0.71348 0.8038 0.1292 0.0
C225 C 0.66205 0.87034 0.06235 0.0
C226 C 0.60794 0.8055 0.12516 0.0
C227 C 0.66218 0.93352 0.12541 0.0
C228 C 0.71361 0.86665 0.19191 0.0
C229 C 0.6081 0.87086 0.19051 0.0
O230 O 0.71911 0.82928 0.11795 0.0
O231 O 0.63698 0.87185 0.07553 0.0
O232 O 0.62659 0.80106 0.14595 0.0
O233 O 0.68693 0.91961 0.12486 0.0
O234 O 0.69266 0.84802 0.19624 0.0
O235 O 0.60315 0.88214 0.16497 0.0
O236 O 0.71916 0.87793 0.16644 0.0
O237 O 0.63707 0.9204 0.12412 0.0
O238 O 0.62676 0.85007 0.19492 0.0
O239 O 0.68684 0.87073 0.07619 0.0
O240 O 0.6925 0.79951 0.14779 0.0
O241 O 0.60308 0.83104 0.11383 0.0
Sc242 Sc 0.1223 0.70058 0.12221 0.0
Sc243 Sc 0.12078 0.62163 0.12073 0.0
Sc244 Sc 0.16954 0.65919 0.16943 0.0
O245 O 0.13748 0.66055 0.1374 0.0
C246 C 0.19209 0.7134 0.12917 0.0
C247 C 0.12549 0.66203 0.06234 0.0
C248 C 0.19047 0.60787 0.12503 0.0
C249 C 0.06242 0.66206 0.12549 0.0
C250 C 0.12934 0.71344 0.19199 0.0
C251 C 0.12514 0.60791 0.19042 0.0
O252 O 0.16661 0.71901 0.11793 0.0
O253 O 0.12408 0.63694 0.07548 0.0
O254 O 0.19491 0.62652 0.14583 0.0
O255 O 0.07631 0.68682 0.12502 0.0
O256 O 0.14794 0.69246 0.19628 0.0
O257 O 0.11383 0.603 0.16488 0.0
O258 O 0.11806 0.71903 0.16653 0.0
O259 O 0.07555 0.63695 0.12409 0.0
O260 O 0.14594 0.62656 0.19484 0.0
O261 O 0.12505 0.6868 0.07622 0.0
O262 O 0.1964 0.69243 0.14777 0.0
O263 O 0.16492 0.603 0.11373 0.0
Sc264 Sc 0.33627 0.8262 0.82626 0.0
Sc265 Sc 0.37385 0.87501 0.87491 0.0
Sc266 Sc 0.29491 0.87342 0.87352 0.0
O267 O 0.33493 0.85827 0.85829 0.0
C268 C 0.282 0.86639 0.80376 0.0
C269 C 0.38753 0.87061 0.80521 0.0
C270 C 0.33338 0.93334 0.87018 0.0
C271 C 0.38764 0.80533 0.87063 0.0
C272 C 0.2821 0.80362 0.86654 0.0
C273 C 0.3335 0.87027 0.93334 0.0
O274 O 0.30296 0.84777 0.79945 0.0
O275 O 0.39246 0.88192 0.83074 0.0
O276 O 0.30864 0.91943 0.87074 0.0
O277 O 0.369 0.80087 0.84982 0.0
O278 O 0.27648 0.8291 0.87777 0.0
O279 O 0.35858 0.87176 0.92017 0.0
O280 O 0.30309 0.79931 0.84795 0.0
O281 O 0.39249 0.83088 0.88194 0.0
O282 O 0.30872 0.87063 0.9195 0.0
O283 O 0.36886 0.84983 0.8008 0.0
O284 O 0.27643 0.87768 0.82922 0.0
O285 O 0.3585 0.92023 0.87151 0.0
Sc286 Sc 0.16896 0.33637 0.82624 0.0
Sc287 Sc 0.12023 0.37399 0.87494 0.0
Sc288 Sc 0.12175 0.29505 0.87354 0.0
O289 O 0.13692 0.33505 0.8583 0.0
C290 C 0.12867 0.28217 0.80377 0.0
C291 C 0.12457 0.38765 0.80523 0.0
C292 C 0.06187 0.33355 0.87026 0.0
C293 C 0.18994 0.38772 0.87057 0.0
C294 C 0.19152 0.2822 0.86654 0.0
C295 C 0.12505 0.33363 0.93336 0.0
O296 O 0.1473 0.30311 0.79944 0.0
O297 O 0.11326 0.39257 0.83076 0.0
O298 O 0.07576 0.3088 0.87077 0.0
O299 O 0.19436 0.36904 0.84979 0.0
O300 O 0.16605 0.2766 0.87779 0.0
O301 O 0.12359 0.35872 0.9202 0.0
O302 O 0.19582 0.30315 0.84791 0.0
O303 O 0.1644 0.39262 0.88188 0.0
O304 O 0.12459 0.30886 0.9195 0.0
O305 O 0.14538 0.369 0.80082 0.0
O306 O 0.11744 0.27658 0.82925 0.0
O307 O 0.07499 0.35867 0.87163 0.0
Sc308 Sc 0.70008 0.12187 0.87295 0.0
Sc309 Sc 0.62115 0.12031 0.8746 0.0
Sc310 Sc 0.6586 0.16912 0.82583 0.0
O311 O 0.66003 0.13704 0.85785 0.0
C312 C 0.7129 0.19167 0.86594 0.0
C313 C 0.66169 0.12512 0.9329 0.0
C314 C 0.60736 0.19 0.87033 0.0
C315 C 0.66158 0.06196 0.86981 0.0
C316 C 0.71277 0.12887 0.80315 0.0
C317 C 0.60731 0.12468 0.80493 0.0
O318 O 0.71855 0.16618 0.87714 0.0
O319 O 0.63656 0.12364 0.91982 0.0
O320 O 0.62597 0.19447 0.84949 0.0
O321 O 0.68633 0.07586 0.87024 0.0
O322 O 0.69183 0.14753 0.79891 0.0
O323 O 0.60247 0.11335 0.83047 0.0
O324 O 0.71839 0.11757 0.8286 0.0
O325 O 0.63647 0.07508 0.87123 0.0
O326 O 0.62593 0.14551 0.80048 0.0
O327 O 0.68642 0.1247 0.91896 0.0
O328 O 0.69187 0.19599 0.84742 0.0
O329 O 0.60251 0.16445 0.88163 0.0
Sc330 Sc 0.82604 0.65884 0.82632 0.0
Sc331 Sc 0.87478 0.62133 0.87509 0.0
Sc332 Sc 0.87325 0.70028 0.8735 0.0
O333 O 0.85808 0.66023 0.85836 0.0
C334 C 0.86625 0.71305 0.80371 0.0
C335 C 0.87044 0.60752 0.80541 0.0
C336 C 0.93314 0.66178 0.87028 0.0
C337 C 0.80509 0.60756 0.87076 0.0
C338 C 0.80346 0.71307 0.86653 0.0
C339 C 0.87005 0.66182 0.93342 0.0
O340 O 0.84765 0.69208 0.79943 0.0
O341 O 0.88175 0.60265 0.83096 0.0
O342 O 0.91924 0.68653 0.87072 0.0
O343 O 0.80066 0.62618 0.84993 0.0
O344 O 0.82893 0.7187 0.87776 0.0
O345 O 0.87146 0.6367 0.92031 0.0
O346 O 0.79917 0.69209 0.84793 0.0
O347 O 0.83063 0.6027 0.88209 0.0
O348 O 0.87049 0.68656 0.9195 0.0
O349 O 0.84965 0.62617 0.80096 0.0
O350 O 0.8775 0.71868 0.82918 0.0
O351 O 0.92002 0.63666 0.87173 0.0
Sc352 Sc 0.12238 0.29525 0.12225 0.0
Sc353 Sc 0.12085 0.37419 0.12066 0.0
Sc354 Sc 0.1696 0.3367 0.16943 0.0
O355 O 0.13755 0.33529 0.13739 0.0
C356 C 0.12939 0.28248 0.19205 0.0
C357 C 0.06249 0.33376 0.12544 0.0
C358 C 0.12519 0.38802 0.19032 0.0
C359 C 0.12556 0.33371 0.06233 0.0
C360 C 0.19217 0.28243 0.12927 0.0
C361 C 0.19053 0.38795 0.12495 0.0
O362 O 0.11814 0.27685 0.16658 0.0
O363 O 0.07562 0.35887 0.12401 0.0
O364 O 0.14599 0.36938 0.19478 0.0
O365 O 0.12514 0.30896 0.07624 0.0
O366 O 0.19647 0.30342 0.14785 0.0
O367 O 0.16498 0.39282 0.11364 0.0
O368 O 0.1667 0.27681 0.11801 0.0
O369 O 0.12415 0.35883 0.07544 0.0
O370 O 0.19497 0.36933 0.14578 0.0
O371 O 0.07638 0.309 0.12501 0.0
O372 O 0.14799 0.30347 0.19633 0.0
O373 O 0.11388 0.39287 0.16478 0.0
Sc374 Sc 0.12196 0.70044 0.87347 0.0
Sc375 Sc 0.12049 0.62149 0.87501 0.0
Sc376 Sc 0.16922 0.65906 0.82625 0.0
O377 O 0.13717 0.66041 0.8583 0.0
C378 C 0.12893 0.71323 0.80368 0.0
C379 C 0.0621 0.66187 0.87027 0.0
C380 C 0.12484 0.60774 0.80531 0.0
C381 C 0.12525 0.66195 0.93336 0.0
C382 C 0.19174 0.71331 0.86646 0.0
C383 C 0.19019 0.6078 0.87068 0.0
O384 O 0.11766 0.71884 0.82915 0.0
O385 O 0.07525 0.63678 0.87168 0.0
O386 O 0.14564 0.62639 0.80087 0.0
O387 O 0.12479 0.6867 0.91946 0.0
O388 O 0.19606 0.69233 0.84787 0.0
O389 O 0.16465 0.6029 0.88199 0.0
O390 O 0.16626 0.71892 0.8777 0.0
O391 O 0.12382 0.63684 0.92024 0.0
O392 O 0.19462 0.62643 0.84986 0.0
O393 O 0.07598 0.68664 0.87072 0.0
O394 O 0.14757 0.69229 0.79939 0.0
O395 O 0.11353 0.60285 0.83086 0.0
Sc396 Sc 0.33604 0.16941 0.82635 0.0
Sc397 Sc 0.37371 0.12068 0.875 0.0
Sc398 Sc 0.29477 0.12218 0.87367 0.0
O399 O 0.33476 0.13736 0.85839 0.0
C400 C 0.28191 0.19196 0.86669 0.0
C401 C 0.3874 0.19038 0.87067 0.0
C402 C 0.33341 0.12538 0.93346 0.0
C403 C 0.38734 0.12506 0.80528 0.0
C404 C 0.28177 0.12916 0.80392 0.0
C405 C 0.33331 0.06231 0.87029 0.0
O406 O 0.30286 0.19627 0.84806 0.0
O407 O 0.39229 0.16485 0.882 0.0
O408 O 0.30862 0.12498 0.91963 0.0
O409 O 0.36862 0.1458 0.80087 0.0
O410 O 0.27623 0.11789 0.8294 0.0
O411 O 0.35842 0.07544 0.87161 0.0
O412 O 0.30272 0.14779 0.79958 0.0
O413 O 0.39232 0.11379 0.83082 0.0
O414 O 0.30855 0.07619 0.87088 0.0
O415 O 0.36876 0.19479 0.84985 0.0
O416 O 0.27632 0.16648 0.87794 0.0
O417 O 0.35848 0.12392 0.92027 0.0
Sc418 Sc 0.873 0.29491 0.87318 0.0
Sc419 Sc 0.87453 0.37386 0.87467 0.0
Sc420 Sc 0.82581 0.33631 0.82593 0.0
O421 O 0.85784 0.33494 0.85798 0.0
C422 C 0.86602 0.28206 0.80339 0.0
C423 C 0.93289 0.33344 0.86995 0.0
C424 C 0.87021 0.38762 0.80499 0.0
C425 C 0.86981 0.33346 0.93305 0.0
C426 C 0.80322 0.28206 0.86613 0.0
C427 C 0.80485 0.38759 0.87035 0.0
O428 O 0.87726 0.27646 0.82886 0.0
O429 O 0.91976 0.35854 0.87134 0.0
O430 O 0.84941 0.36896 0.80055 0.0
O431 O 0.87023 0.30869 0.91919 0.0
O432 O 0.79894 0.30304 0.84752 0.0
O433 O 0.83039 0.39248 0.88165 0.0
O434 O 0.82868 0.27647 0.87742 0.0
O435 O 0.87122 0.35856 0.9199 0.0
O436 O 0.80042 0.36895 0.84954 0.0
O437 O 0.91901 0.30867 0.87042 0.0
O438 O 0.84744 0.30305 0.79907 0.0
O439 O 0.88151 0.3925 0.83054 0.0
Sc440 Sc 0.70023 0.87312 0.87342 0.0
Sc441 Sc 0.6213 0.87457 0.87505 0.0
Sc442 Sc 0.65882 0.8258 0.82631 0.0
O443 O 0.6602 0.85789 0.85832 0.0
C444 C 0.71301 0.86601 0.80364 0.0
C445 C 0.66166 0.93297 0.8701 0.0
C446 C 0.60747 0.87013 0.80537 0.0
C447 C 0.6618 0.86999 0.93337 0.0
C448 C 0.71308 0.80333 0.86653 0.0
C449 C 0.6076 0.80486 0.87082 0.0
O450 O 0.71862 0.87732 0.82908 0.0
O451 O 0.63657 0.91982 0.87159 0.0
O452 O 0.62615 0.84936 0.80093 0.0
O453 O 0.68654 0.87042 0.91944 0.0
O454 O 0.69209 0.79899 0.84795 0.0
O455 O 0.60273 0.83041 0.88214 0.0
O456 O 0.71869 0.82882 0.87773 0.0
O457 O 0.63668 0.87136 0.92027 0.0
O458 O 0.62619 0.80043 0.84996 0.0
O459 O 0.68643 0.9191 0.87056 0.0
O460 O 0.69205 0.84738 0.79939 0.0
O461 O 0.60259 0.88145 0.83092 0.0
Sc462 Sc 0.82635 0.65921 0.1695 0.0
Sc463 Sc 0.87507 0.62161 0.12078 0.0
Sc464 Sc 0.87357 0.70055 0.12222 0.0
O465 O 0.85839 0.66054 0.13745 0.0
C466 C 0.80381 0.71345 0.12927 0.0
C467 C 0.80537 0.60792 0.12512 0.0
C468 C 0.87028 0.66198 0.06238 0.0
C469 C 0.87072 0.6079 0.19048 0.0
C470 C 0.86665 0.71339 0.19201 0.0
C471 C 0.93345 0.66203 0.12547 0.0
O472 O 0.7995 0.69249 0.14789 0.0
O473 O 0.83091 0.60299 0.11383 0.0
O474 O 0.87073 0.68676 0.07624 0.0
O475 O 0.84991 0.62654 0.1949 0.0
O476 O 0.87788 0.719 0.16653 0.0
O477 O 0.92031 0.63692 0.1241 0.0
O478 O 0.84803 0.69244 0.19634 0.0
O479 O 0.88205 0.60301 0.16494 0.0
O480 O 0.91956 0.68678 0.12497 0.0
O481 O 0.80094 0.62658 0.14591 0.0
O482 O 0.82927 0.71902 0.11799 0.0
O483 O 0.87173 0.63689 0.07554 0.0
Sc484 Sc 0.33671 0.82621 0.16938 0.0
Sc485 Sc 0.37423 0.875 0.12065 0.0
Sc486 Sc 0.29529 0.87351 0.12225 0.0
O487 O 0.33533 0.8583 0.13737 0.0
C488 C 0.28244 0.80372 0.12919 0.0
C489 C 0.38794 0.80529 0.12488 0.0
C490 C 0.33373 0.87033 0.06232 0.0
C491 C 0.38805 0.87056 0.19033 0.0
C492 C 0.28255 0.86646 0.19204 0.0
C493 C 0.33384 0.93338 0.12552 0.0
O494 O 0.30344 0.79938 0.14775 0.0
O495 O 0.3928 0.83084 0.11357 0.0
O496 O 0.30899 0.87074 0.07624 0.0
O497 O 0.36938 0.84978 0.19476 0.0
O498 O 0.27693 0.87777 0.16659 0.0
O499 O 0.35895 0.92025 0.12409 0.0
O500 O 0.30349 0.84781 0.19629 0.0
O501 O 0.39293 0.88188 0.16478 0.0
O502 O 0.30908 0.9195 0.12504 0.0
O503 O 0.36934 0.80085 0.14573 0.0
O504 O 0.27682 0.82921 0.118 0.0
O505 O 0.35884 0.87176 0.07542 0.0
Sc506 Sc 0.70067 0.12237 0.12167 0.0
Sc507 Sc 0.62172 0.12084 0.12034 0.0
Sc508 Sc 0.65937 0.16958 0.16899 0.0
O509 O 0.66067 0.13754 0.13694 0.0
C510 C 0.71366 0.12938 0.19142 0.0
C511 C 0.66216 0.06249 0.12509 0.0
C512 C 0.60807 0.12524 0.19004 0.0
C513 C 0.66203 0.1255 0.06187 0.0
C514 C 0.7135 0.19215 0.12863 0.0
C515 C 0.60802 0.19055 0.12465 0.0
O516 O 0.71922 0.11813 0.16594 0.0
O517 O 0.63704 0.07561 0.12375 0.0
O518 O 0.62679 0.14598 0.19445 0.0
O519 O 0.68682 0.12511 0.0757 0.0
O520 O 0.69257 0.19644 0.14729 0.0
O521 O 0.60314 0.16501 0.11332 0.0
O522 O 0.71909 0.16668 0.11736 0.0
O523 O 0.63696 0.12407 0.07507 0.0
O524 O 0.62666 0.19496 0.14546 0.0
O525 O 0.68691 0.07638 0.12451 0.0
O526 O 0.69268 0.14797 0.19577 0.0
O527 O 0.60311 0.11396 0.1645 0.0
Sc528 Sc 0.66916 0.669 0.83652 0.0
Sc529 Sc 0.62044 0.62025 0.87408 0.0
Sc530 Sc 0.62192 0.6218 0.79513 0.0
O531 O 0.63712 0.63696 0.83516 0.0
C532 C 0.62892 0.69158 0.78232 0.0
C533 C 0.62479 0.68994 0.88785 0.0
C534 C 0.56206 0.62506 0.83368 0.0
C535 C 0.69013 0.62459 0.88781 0.0
C536 C 0.6917 0.62876 0.7823 0.0
C537 C 0.62515 0.56189 0.83362 0.0
O538 O 0.64754 0.69587 0.80328 0.0
O539 O 0.6135 0.66439 0.89275 0.0
O540 O 0.57594 0.6246 0.80892 0.0
O541 O 0.69455 0.64541 0.86917 0.0
O542 O 0.66623 0.61752 0.77669 0.0
O543 O 0.62375 0.57501 0.85873 0.0
O544 O 0.69601 0.64737 0.80327 0.0
O545 O 0.6646 0.61325 0.89268 0.0
O546 O 0.62469 0.5758 0.80887 0.0
O547 O 0.64557 0.69439 0.86918 0.0
O548 O 0.61767 0.66611 0.77671 0.0
O549 O 0.5752 0.62361 0.85878 0.0
Sc550 Sc 0.3732 0.62227 0.79521 0.0
Sc551 Sc 0.37474 0.62075 0.87415 0.0
Sc552 Sc 0.32602 0.66952 0.83662 0.0
O553 O 0.35804 0.63746 0.83524 0.0
C554 C 0.36626 0.69205 0.78238 0.0
C555 C 0.4331 0.62543 0.83371 0.0
C556 C 0.37045 0.69045 0.8879 0.0
C557 C 0.36992 0.56239 0.83372 0.0
C558 C 0.30342 0.62931 0.7824 0.0
C559 C 0.30506 0.62513 0.88792 0.0
O560 O 0.3775 0.66658 0.77679 0.0
O561 O 0.41997 0.62404 0.85882 0.0
O562 O 0.34964 0.69489 0.86926 0.0
O563 O 0.37037 0.57628 0.80897 0.0
O564 O 0.29913 0.64791 0.80338 0.0
O565 O 0.3306 0.61381 0.8928 0.0
O566 O 0.32888 0.61805 0.77679 0.0
O567 O 0.37136 0.57551 0.85883 0.0
O568 O 0.30063 0.64594 0.86928 0.0
O569 O 0.4192 0.62499 0.80896 0.0
O570 O 0.34765 0.69637 0.80335 0.0
O571 O 0.38175 0.6649 0.89277 0.0
Sc572 Sc 0.37313 0.37358 0.79507 0.0
Sc573 Sc 0.37462 0.37502 0.87401 0.0
Sc574 Sc 0.32592 0.32629 0.8364 0.0
O575 O 0.35795 0.35835 0.83508 0.0
C576 C 0.30337 0.36657 0.78221 0.0
C577 C 0.36989 0.43342 0.83364 0.0
C578 C 0.3049 0.37067 0.8877 0.0
C579 C 0.433 0.37027 0.8336 0.0
C580 C 0.36619 0.3038 0.78219 0.0
C581 C 0.37027 0.30532 0.88772 0.0
O582 O 0.32883 0.37786 0.77663 0.0
O583 O 0.37131 0.42027 0.85873 0.0
O584 O 0.3005 0.34986 0.86905 0.0
O585 O 0.41912 0.37077 0.80884 0.0
O586 O 0.34758 0.29947 0.80316 0.0
O587 O 0.38157 0.33086 0.89263 0.0
O588 O 0.37741 0.32928 0.77659 0.0
O589 O 0.41987 0.37167 0.85871 0.0
O590 O 0.34949 0.30089 0.86905 0.0
O591 O 0.37035 0.41956 0.80887 0.0
O592 O 0.29908 0.34793 0.80315 0.0
O593 O 0.33044 0.38199 0.89261 0.0
Sc594 Sc 0.66909 0.3258 0.8364 0.0
Sc595 Sc 0.62034 0.37455 0.87393 0.0
Sc596 Sc 0.62188 0.37303 0.79499 0.0
O597 O 0.63705 0.35785 0.83502 0.0
C598 C 0.69166 0.36597 0.78212 0.0
C599 C 0.69002 0.37022 0.88768 0.0
C600 C 0.62515 0.43292 0.83351 0.0
C601 C 0.62467 0.30486 0.88769 0.0
C602 C 0.62884 0.30323 0.7822 0.0
C603 C 0.56198 0.36987 0.83351 0.0
O604 O 0.69596 0.34739 0.80312 0.0
O605 O 0.66447 0.38151 0.89258 0.0
O606 O 0.62471 0.41903 0.80874 0.0
O607 O 0.64549 0.30043 0.86907 0.0
O608 O 0.61758 0.3287 0.77659 0.0
O609 O 0.57511 0.37125 0.85862 0.0
O610 O 0.64746 0.29894 0.80316 0.0
O611 O 0.61334 0.3304 0.89255 0.0
O612 O 0.57587 0.37032 0.80875 0.0
O613 O 0.69447 0.34943 0.86903 0.0
O614 O 0.6662 0.37723 0.77652 0.0
O615 O 0.6237 0.41978 0.85861 0.0
Sc616 Sc 0.62222 0.3737 0.20038 0.0
Sc617 Sc 0.62075 0.37521 0.12144 0.0
Sc618 Sc 0.66944 0.32645 0.15901 0.0
O619 O 0.63741 0.35851 0.16036 0.0
C620 C 0.69199 0.36671 0.21321 0.0
C621 C 0.62548 0.43358 0.16187 0.0
C622 C 0.69045 0.37084 0.10772 0.0
C623 C 0.56236 0.37045 0.16185 0.0
C624 C 0.62918 0.30392 0.21322 0.0
C625 C 0.62507 0.30551 0.10769 0.0
O626 O 0.66652 0.37796 0.21882 0.0
O627 O 0.62407 0.42045 0.13676 0.0
O628 O 0.69485 0.35003 0.12636 0.0
O629 O 0.57624 0.37091 0.18661 0.0
O630 O 0.6478 0.29961 0.19226 0.0
O631 O 0.61378 0.33106 0.10279 0.0
O632 O 0.61794 0.3294 0.21883 0.0
O633 O 0.5755 0.37187 0.13674 0.0
O634 O 0.64585 0.30107 0.12637 0.0
O635 O 0.62501 0.41968 0.18662 0.0
O636 O 0.69629 0.34809 0.19225 0.0
O637 O 0.66492 0.38218 0.10283 0.0
Sc638 Sc 0.6223 0.62242 0.2005 0.0
Sc639 Sc 0.6208 0.62092 0.12156 0.0
Sc640 Sc 0.66954 0.66965 0.15913 0.0
O641 O 0.63749 0.6376 0.16048 0.0
C642 C 0.62928 0.69221 0.21332 0.0
C643 C 0.56242 0.62563 0.16196 0.0
C644 C 0.62516 0.69061 0.10782 0.0
C645 C 0.62555 0.56255 0.16196 0.0
C646 C 0.69207 0.62943 0.21338 0.0
C647 C 0.69051 0.62523 0.10785 0.0
O648 O 0.61803 0.66673 0.21893 0.0
O649 O 0.57556 0.62423 0.13686 0.0
O650 O 0.64598 0.69503 0.12645 0.0
O651 O 0.62509 0.57642 0.18673 0.0
O652 O 0.69638 0.64804 0.19241 0.0
O653 O 0.66496 0.61395 0.10293 0.0
O654 O 0.6666 0.61816 0.21896 0.0
O655 O 0.62414 0.57569 0.13686 0.0
O656 O 0.69495 0.64603 0.12651 0.0
O657 O 0.5763 0.62518 0.18672 0.0
O658 O 0.64789 0.69651 0.19235 0.0
O659 O 0.61383 0.66508 0.10295 0.0
Sc660 Sc 0.32633 0.66941 0.15912 0.0
Sc661 Sc 0.37507 0.62068 0.12154 0.0
Sc662 Sc 0.37357 0.62218 0.20049 0.0
O663 O 0.35838 0.63737 0.16047 0.0
C664 C 0.36661 0.69197 0.2133 0.0
C665 C 0.37071 0.69037 0.10779 0.0
C666 C 0.43345 0.62543 0.16195 0.0
C667 C 0.30537 0.62501 0.10783 0.0
C668 C 0.3038 0.62919 0.21337 0.0
C669 C 0.37032 0.5623 0.16196 0.0
O670 O 0.34799 0.69628 0.19234 0.0
O671 O 0.38203 0.66483 0.10291 0.0
O672 O 0.41956 0.62496 0.18671 0.0
O673 O 0.30094 0.6458 0.12649 0.0
O674 O 0.32927 0.61793 0.21896 0.0
O675 O 0.37174 0.57544 0.13686 0.0
O676 O 0.29949 0.6478 0.1924 0.0
O677 O 0.33091 0.6137 0.10293 0.0
O678 O 0.37077 0.57619 0.18672 0.0
O679 O 0.34991 0.6948 0.12644 0.0
O680 O 0.37785 0.6665 0.21891 0.0
O681 O 0.42031 0.62402 0.13684 0.0
Sc682 Sc 0.32629 0.32622 0.15898 0.0
Sc683 Sc 0.37504 0.37498 0.12146 0.0
Sc684 Sc 0.3735 0.37342 0.2004 0.0
O685 O 0.35833 0.35826 0.16036 0.0
C686 C 0.30371 0.36641 0.21323 0.0
C687 C 0.30537 0.37065 0.10769 0.0
C688 C 0.37026 0.43333 0.16191 0.0
C689 C 0.37071 0.30529 0.10768 0.0
C690 C 0.36651 0.30363 0.21319 0.0
C691 C 0.43339 0.37024 0.16188 0.0
O692 O 0.29941 0.34783 0.19223 0.0
O693 O 0.33091 0.38195 0.10281 0.0
O694 O 0.3707 0.41943 0.18666 0.0
O695 O 0.3499 0.30085 0.12632 0.0
O696 O 0.37777 0.3291 0.2188 0.0
O697 O 0.42027 0.37166 0.13678 0.0
O698 O 0.34789 0.29934 0.19223 0.0
O699 O 0.38203 0.33083 0.10282 0.0
O700 O 0.4195 0.37068 0.18664 0.0
O701 O 0.30092 0.34984 0.12633 0.0
O702 O 0.32918 0.37765 0.21884 0.0
O703 O 0.37169 0.42021 0.1368 0.0
Sc704 Sc 0.83628 0.66899 0.66953 0.0
Sc705 Sc 0.87388 0.62028 0.62079 0.0
Sc706 Sc 0.79494 0.6218 0.62223 0.0
O707 O 0.83495 0.63697 0.63746 0.0
C708 C 0.78208 0.62871 0.69202 0.0
C709 C 0.88757 0.62457 0.69049 0.0
C710 C 0.83344 0.5619 0.62541 0.0
C711 C 0.88762 0.68998 0.62519 0.0
C712 C 0.78206 0.69157 0.62932 0.0
C713 C 0.83352 0.62514 0.56239 0.0
O714 O 0.80304 0.64731 0.69635 0.0
O715 O 0.89245 0.61324 0.66495 0.0
O716 O 0.80869 0.5758 0.62496 0.0
O717 O 0.86892 0.69441 0.64595 0.0
O718 O 0.77648 0.66611 0.61802 0.0
O719 O 0.85861 0.6237 0.57555 0.0
O720 O 0.80302 0.69585 0.64794 0.0
O721 O 0.89254 0.66443 0.6139 0.0
O722 O 0.80875 0.62465 0.57625 0.0
O723 O 0.86895 0.6454 0.69491 0.0
O724 O 0.77647 0.61749 0.66653 0.0
O725 O 0.85855 0.57504 0.62403 0.0
Sc726 Sc 0.32602 0.8365 0.66939 0.0
Sc727 Sc 0.37475 0.874 0.6206 0.0
Sc728 Sc 0.3732 0.79506 0.62216 0.0
O729 O 0.35805 0.8351 0.63732 0.0
C730 C 0.36623 0.78229 0.69196 0.0
C731 C 0.37044 0.88779 0.69029 0.0
C732 C 0.4331 0.83353 0.62536 0.0
C733 C 0.30506 0.88776 0.62496 0.0
C734 C 0.30343 0.78226 0.62918 0.0
C735 C 0.37 0.83356 0.56225 0.0
O736 O 0.34767 0.8033 0.69627 0.0
O737 O 0.38178 0.89263 0.66475 0.0
O738 O 0.4192 0.80878 0.62495 0.0
O739 O 0.30062 0.8691 0.64576 0.0
O740 O 0.32888 0.77667 0.61788 0.0
O741 O 0.37138 0.85867 0.57538 0.0
O742 O 0.29916 0.80321 0.64782 0.0
O743 O 0.3306 0.89266 0.61366 0.0
O744 O 0.37047 0.80881 0.57615 0.0
O745 O 0.3496 0.86919 0.69473 0.0
O746 O 0.37743 0.77663 0.66648 0.0
O747 O 0.41999 0.85864 0.6239 0.0
Sc748 Sc 0.20027 0.3735 0.62209 0.0
Sc749 Sc 0.12133 0.37494 0.62055 0.0
Sc750 Sc 0.15892 0.32624 0.66931 0.0
O751 O 0.16026 0.35829 0.63726 0.0
C752 C 0.21316 0.30374 0.62907 0.0
C753 C 0.16178 0.37021 0.56219 0.0
C754 C 0.10763 0.30523 0.62493 0.0
C755 C 0.16172 0.43334 0.62531 0.0
C756 C 0.21308 0.36653 0.69187 0.0
C757 C 0.10758 0.37061 0.69025 0.0
O758 O 0.21873 0.32921 0.6178 0.0
O759 O 0.13666 0.37157 0.57531 0.0
O760 O 0.12631 0.30082 0.6457 0.0
O761 O 0.18648 0.41947 0.6249 0.0
O762 O 0.19212 0.34792 0.69618 0.0
O763 O 0.10271 0.38194 0.66471 0.0
O764 O 0.2187 0.37776 0.6664 0.0
O765 O 0.13662 0.42019 0.62383 0.0
O766 O 0.12622 0.3498 0.69468 0.0
O767 O 0.18652 0.37074 0.5761 0.0
O768 O 0.19221 0.29943 0.6477 0.0
O769 O 0.1027 0.33077 0.61363 0.0
Sc770 Sc 0.622 0.20024 0.62202 0.0
Sc771 Sc 0.62038 0.12131 0.62038 0.0
Sc772 Sc 0.66913 0.15872 0.66922 0.0
O773 O 0.63711 0.16017 0.63715 0.0
C774 C 0.69179 0.21296 0.62907 0.0
C775 C 0.62525 0.16182 0.56208 0.0
C776 C 0.69005 0.10747 0.62475 0.0
C777 C 0.56207 0.16181 0.62516 0.0
C778 C 0.62894 0.21296 0.69183 0.0
C779 C 0.62462 0.10746 0.69007 0.0
O780 O 0.66634 0.21861 0.6178 0.0
O781 O 0.6238 0.13669 0.57517 0.0
O782 O 0.69449 0.12607 0.64559 0.0
O783 O 0.57599 0.18655 0.62476 0.0
O784 O 0.64752 0.19196 0.69612 0.0
O785 O 0.61333 0.10263 0.6645 0.0
O786 O 0.61773 0.21861 0.66635 0.0
O787 O 0.57517 0.13669 0.62369 0.0
O788 O 0.64546 0.12606 0.69454 0.0
O789 O 0.62479 0.18655 0.57601 0.0
O790 O 0.69605 0.19197 0.64767 0.0
O791 O 0.66451 0.10263 0.61342 0.0
Sc792 Sc 0.83651 0.32642 0.32599 0.0
Sc793 Sc 0.87409 0.3751 0.37477 0.0
Sc794 Sc 0.79516 0.37364 0.37326 0.0
O795 O 0.83517 0.35844 0.35806 0.0
C796 C 0.78233 0.36673 0.30348 0.0
C797 C 0.88781 0.37083 0.30505 0.0
C798 C 0.83371 0.4335 0.37012 0.0
C799 C 0.88782 0.30541 0.37034 0.0
C800 C 0.78228 0.30387 0.36621 0.0
C801 C 0.83366 0.37026 0.43314 0.0
O802 O 0.80328 0.34809 0.29916 0.0
O803 O 0.8927 0.38213 0.3306 0.0
O804 O 0.80894 0.41962 0.37054 0.0
O805 O 0.86915 0.30099 0.34956 0.0
O806 O 0.77668 0.32934 0.37747 0.0
O807 O 0.85877 0.37169 0.42002 0.0
O808 O 0.80325 0.29956 0.34761 0.0
O809 O 0.89272 0.33094 0.38167 0.0
O810 O 0.80891 0.37077 0.41924 0.0
O811 O 0.86917 0.35002 0.30062 0.0
O812 O 0.77674 0.37797 0.32896 0.0
O813 O 0.8588 0.42035 0.37152 0.0
Sc814 Sc 0.66959 0.83665 0.32632 0.0
Sc815 Sc 0.62087 0.87415 0.37512 0.0
Sc816 Sc 0.62237 0.79521 0.3735 0.0
O817 O 0.63755 0.83526 0.35837 0.0
C818 C 0.62936 0.78246 0.30371 0.0
C819 C 0.62518 0.88797 0.30544 0.0
C820 C 0.5625 0.83373 0.37032 0.0
C821 C 0.69056 0.88791 0.37075 0.0
C822 C 0.69214 0.78242 0.36653 0.0
C823 C 0.62559 0.83365 0.43344 0.0
O824 O 0.64795 0.80344 0.29942 0.0
O825 O 0.61387 0.89283 0.33099 0.0
O826 O 0.57639 0.80897 0.37071 0.0
O827 O 0.69498 0.86928 0.34994 0.0
O828 O 0.66668 0.77681 0.37778 0.0
O829 O 0.62423 0.85878 0.42035 0.0
O830 O 0.69644 0.80338 0.34791 0.0
O831 O 0.66502 0.89279 0.38209 0.0
O832 O 0.6251 0.80892 0.41951 0.0
O833 O 0.64599 0.86934 0.30098 0.0
O834 O 0.61813 0.77682 0.32918 0.0
O835 O 0.57563 0.85883 0.37181 0.0
Sc836 Sc 0.20061 0.62223 0.37354 0.0
Sc837 Sc 0.12167 0.62076 0.37501 0.0
Sc838 Sc 0.15927 0.66946 0.32627 0.0
O839 O 0.1606 0.63743 0.35833 0.0
C840 C 0.2135 0.692 0.36651 0.0
C841 C 0.16204 0.62551 0.4334 0.0
C842 C 0.10797 0.69047 0.37064 0.0
C843 C 0.16208 0.56237 0.37029 0.0
C844 C 0.21348 0.62921 0.30374 0.0
C845 C 0.10796 0.62508 0.30532 0.0
O846 O 0.21906 0.66654 0.37782 0.0
O847 O 0.13695 0.62414 0.42025 0.0
O848 O 0.12666 0.6949 0.34988 0.0
O849 O 0.18684 0.57624 0.37072 0.0
O850 O 0.19249 0.64779 0.29941 0.0
O851 O 0.10308 0.61375 0.33086 0.0
O852 O 0.21909 0.61799 0.32923 0.0
O853 O 0.13698 0.57551 0.37173 0.0
O854 O 0.12659 0.6459 0.3009 0.0
O855 O 0.18681 0.625 0.41953 0.0
O856 O 0.19256 0.69629 0.34787 0.0
O857 O 0.10304 0.66493 0.38193 0.0
Sc858 Sc 0.32627 0.1591 0.32613 0.0
Sc859 Sc 0.375 0.12163 0.37494 0.0
Sc860 Sc 0.37343 0.20057 0.37336 0.0
O861 O 0.35829 0.16052 0.3582 0.0
C862 C 0.36648 0.21332 0.30355 0.0
C863 C 0.37074 0.10783 0.30526 0.0
C864 C 0.43334 0.16209 0.37019 0.0
C865 C 0.30532 0.10784 0.37059 0.0
C866 C 0.30365 0.21336 0.3663 0.0
C867 C 0.37016 0.16209 0.43327 0.0
O868 O 0.3479 0.19232 0.29925 0.0
O869 O 0.38204 0.10299 0.33081 0.0
O870 O 0.41944 0.18684 0.3706 0.0
O871 O 0.30087 0.12648 0.34977 0.0
O872 O 0.3291 0.21897 0.37758 0.0
O873 O 0.37159 0.13697 0.42015 0.0
O874 O 0.29938 0.19238 0.34769 0.0
O875 O 0.33086 0.10297 0.38189 0.0
O876 O 0.37063 0.18684 0.41937 0.0
O877 O 0.34989 0.12642 0.3008 0.0
O878 O 0.3777 0.21897 0.32903 0.0
O879 O 0.42022 0.13698 0.37164 0.0
Sc880 Sc 0.62195 0.79482 0.62226 0.0
Sc881 Sc 0.62048 0.87377 0.6208 0.0
Sc882 Sc 0.66915 0.83616 0.66955 0.0
O883 O 0.63714 0.83483 0.63748 0.0
C884 C 0.62887 0.78197 0.69205 0.0
C885 C 0.56208 0.83337 0.62543 0.0
C886 C 0.62474 0.88746 0.69049 0.0
C887 C 0.62531 0.8334 0.56241 0.0
C888 C 0.69171 0.78192 0.62933 0.0
C889 C 0.69017 0.88746 0.62517 0.0
O890 O 0.61765 0.77636 0.66656 0.0
O891 O 0.57524 0.85846 0.62403 0.0
O892 O 0.64558 0.86885 0.69492 0.0
O893 O 0.62479 0.80862 0.57627 0.0
O894 O 0.696 0.80288 0.64796 0.0
O895 O 0.66463 0.89241 0.6139 0.0
O896 O 0.66626 0.77635 0.61802 0.0
O897 O 0.6239 0.85849 0.57556 0.0
O898 O 0.6946 0.86877 0.64594 0.0
O899 O 0.57595 0.8086 0.62501 0.0
O900 O 0.64746 0.80294 0.69638 0.0
O901 O 0.61342 0.89233 0.66495 0.0
Sc902 Sc 0.62219 0.20066 0.37329 0.0
Sc903 Sc 0.62071 0.12171 0.37469 0.0
Sc904 Sc 0.6694 0.15935 0.32598 0.0
O905 O 0.63737 0.16066 0.35805 0.0
C906 C 0.62913 0.21356 0.30351 0.0
C907 C 0.56232 0.16213 0.37005 0.0
C908 C 0.62503 0.10804 0.30499 0.0
C909 C 0.62546 0.16205 0.43311 0.0
C910 C 0.69195 0.21354 0.36626 0.0
C911 C 0.69041 0.10802 0.37031 0.0
O912 O 0.61791 0.21916 0.329 0.0
O913 O 0.57546 0.13702 0.37143 0.0
O914 O 0.64584 0.12669 0.30058 0.0
O915 O 0.62497 0.18683 0.41926 0.0
O916 O 0.69623 0.19261 0.3476 0.0
O917 O 0.66487 0.10307 0.3816 0.0
O918 O 0.66649 0.21911 0.37756 0.0
O919 O 0.62407 0.13696 0.41994 0.0
O920 O 0.69483 0.12672 0.34955 0.0
O921 O 0.5762 0.18689 0.3705 0.0
O922 O 0.64772 0.19259 0.29917 0.0
O923 O 0.6137 0.10314 0.33052 0.0
Sc924 Sc 0.83666 0.66957 0.3263 0.0
Sc925 Sc 0.87417 0.62083 0.37507 0.0
Sc926 Sc 0.79524 0.62234 0.3735 0.0
O927 O 0.83527 0.63752 0.35835 0.0
C928 C 0.78246 0.69213 0.36656 0.0
C929 C 0.88794 0.69052 0.37071 0.0
C930 C 0.83371 0.62552 0.43342 0.0
C931 C 0.88794 0.62514 0.30538 0.0
C932 C 0.7824 0.6294 0.30372 0.0
C933 C 0.83374 0.56247 0.37026 0.0
O934 O 0.80342 0.69643 0.34793 0.0
O935 O 0.89281 0.66498 0.38204 0.0
O936 O 0.80897 0.62504 0.4195 0.0
O937 O 0.8693 0.64595 0.30093 0.0
O938 O 0.77679 0.61814 0.32919 0.0
O939 O 0.85884 0.5756 0.37175 0.0
O940 O 0.8034 0.64797 0.29942 0.0
O941 O 0.89282 0.61384 0.33093 0.0
O942 O 0.80898 0.57635 0.37066 0.0
O943 O 0.86931 0.69495 0.34989 0.0
O944 O 0.77685 0.66666 0.37781 0.0
O945 O 0.85883 0.62417 0.42031 0.0
Sc946 Sc 0.37367 0.79511 0.37339 0.0
Sc947 Sc 0.37516 0.87406 0.37494 0.0
Sc948 Sc 0.32644 0.83652 0.32618 0.0
O949 O 0.35848 0.83515 0.35822 0.0
C950 C 0.36669 0.78232 0.3036 0.0
C951 C 0.43354 0.83365 0.37023 0.0
C952 C 0.37088 0.8878 0.30524 0.0
C953 C 0.37034 0.83361 0.43328 0.0
C954 C 0.30389 0.78227 0.36639 0.0
C955 C 0.30548 0.88781 0.37058 0.0
O956 O 0.37794 0.7767 0.32907 0.0
O957 O 0.42039 0.85874 0.37168 0.0
O958 O 0.35004 0.8692 0.30081 0.0
O959 O 0.37086 0.80886 0.41938 0.0
O960 O 0.29959 0.80325 0.34778 0.0
O961 O 0.33102 0.89272 0.38186 0.0
O962 O 0.32936 0.77667 0.37764 0.0
O963 O 0.37174 0.85873 0.42017 0.0
O964 O 0.30104 0.86914 0.3498 0.0
O965 O 0.41966 0.80888 0.37062 0.0
O966 O 0.34808 0.80329 0.2993 0.0
O967 O 0.3822 0.89266 0.33078 0.0
Sc968 Sc 0.20048 0.37346 0.37334 0.0
Sc969 Sc 0.12155 0.37502 0.37485 0.0
Sc970 Sc 0.15907 0.32628 0.32609 0.0
O971 O 0.16045 0.35831 0.35815 0.0
C972 C 0.21332 0.36647 0.30354 0.0
C973 C 0.16202 0.43338 0.37015 0.0
C974 C 0.1078 0.37074 0.30517 0.0
C975 C 0.16194 0.37021 0.43322 0.0
C976 C 0.21329 0.30368 0.3663 0.0
C977 C 0.10776 0.30534 0.37049 0.0
O978 O 0.21895 0.37769 0.32902 0.0
O979 O 0.13691 0.42026 0.37159 0.0
O980 O 0.1264 0.34989 0.30073 0.0
O981 O 0.1867 0.3707 0.41934 0.0
O982 O 0.19234 0.29941 0.34767 0.0
O983 O 0.10286 0.33089 0.38177 0.0
O984 O 0.21888 0.32913 0.3776 0.0
O985 O 0.13684 0.37161 0.42008 0.0
O986 O 0.12644 0.30089 0.34971 0.0
O987 O 0.18677 0.41947 0.37055 0.0
O988 O 0.19231 0.34792 0.29922 0.0
O989 O 0.10296 0.38207 0.33071 0.0
Sc990 Sc 0.32602 0.15927 0.66936 0.0
Sc991 Sc 0.37468 0.12164 0.62061 0.0
Sc992 Sc 0.37328 0.20059 0.62211 0.0
O993 O 0.35805 0.16058 0.6373 0.0
C994 C 0.30352 0.21348 0.62909 0.0
C995 C 0.30499 0.10796 0.62502 0.0
C996 C 0.36997 0.16206 0.56224 0.0
C997 C 0.37037 0.10794 0.69032 0.0
C998 C 0.3663 0.21346 0.69189 0.0
C999 C 0.43311 0.162 0.62531 0.0
O1000 O 0.2992 0.19253 0.64773 0.0
O1001 O 0.33052 0.10303 0.6137 0.0
O1002 O 0.37051 0.18682 0.57613 0.0
O1003 O 0.34958 0.1266 0.69475 0.0
O1004 O 0.37755 0.21905 0.66641 0.0
O1005 O 0.41994 0.13692 0.62387 0.0
O1006 O 0.34769 0.1925 0.6962 0.0
O1007 O 0.38169 0.10304 0.66478 0.0
O1008 O 0.41925 0.18678 0.6249 0.0
O1009 O 0.30058 0.12664 0.6458 0.0
O1010 O 0.32899 0.21906 0.61783 0.0
O1011 O 0.37132 0.13695 0.57537 0.0
Sc1012 Sc 0.83636 0.32582 0.66925 0.0
Sc1013 Sc 0.87389 0.37456 0.62049 0.0
Sc1014 Sc 0.79496 0.37301 0.622 0.0
O1015 O 0.83499 0.35785 0.63719 0.0
C1016 C 0.78218 0.30322 0.62899 0.0
C1017 C 0.88767 0.30487 0.62485 0.0
C1018 C 0.83351 0.36984 0.56211 0.0
C1019 C 0.88763 0.37026 0.69018 0.0
C1020 C 0.78207 0.36597 0.69179 0.0
C1021 C 0.83344 0.43292 0.62527 0.0
O1022 O 0.80312 0.29895 0.64764 0.0
O1023 O 0.89255 0.33041 0.61353 0.0
O1024 O 0.80875 0.37031 0.57599 0.0
O1025 O 0.869 0.34945 0.69462 0.0
O1026 O 0.77646 0.3772 0.66631 0.0
O1027 O 0.85854 0.41979 0.62381 0.0
O1028 O 0.80309 0.34743 0.69611 0.0
O1029 O 0.89251 0.38156 0.66463 0.0
O1030 O 0.80868 0.41902 0.62484 0.0
O1031 O 0.86902 0.30044 0.64566 0.0
O1032 O 0.77659 0.32867 0.61769 0.0
O1033 O 0.85861 0.37122 0.57526 0.0
Sc1034 Sc 0.20027 0.62218 0.62231 0.0
Sc1035 Sc 0.12134 0.62069 0.62071 0.0
Sc1036 Sc 0.15885 0.66943 0.66949 0.0
O1037 O 0.16023 0.63738 0.63745 0.0
C1038 C 0.21306 0.62922 0.6921 0.0
C1039 C 0.16175 0.56231 0.62547 0.0
C1040 C 0.10756 0.62499 0.69041 0.0
C1041 C 0.16182 0.62545 0.56238 0.0
C1042 C 0.21308 0.69197 0.62927 0.0
C1043 C 0.10757 0.69037 0.62507 0.0
O1044 O 0.21868 0.61795 0.66664 0.0
O1045 O 0.13665 0.57545 0.62398 0.0
O1046 O 0.12617 0.64583 0.69485 0.0
O1047 O 0.18656 0.62493 0.57631 0.0
O1048 O 0.19211 0.69628 0.64788 0.0
O1049 O 0.10268 0.66483 0.61377 0.0
O1050 O 0.2187 0.66649 0.61803 0.0
O1051 O 0.13669 0.62409 0.57548 0.0
O1052 O 0.12622 0.69481 0.64587 0.0
O1053 O 0.18651 0.57619 0.62511 0.0
O1054 O 0.19207 0.64782 0.69638 0.0
O1055 O 0.10271 0.61366 0.66486 0.0
C1056 C 0.12666 0.01354 0.30637 0.0
C1057 C 0.12724 0.02945 0.33343 0.0
H1058 H 0.12578 0.97078 0.28516 0.0
C1059 C 0.12854 0.0135 0.36042 0.0
H1060 H 0.12575 0.02512 0.28516 0.0
C1061 C 0.12856 0.98239 0.36042 0.0
C1062 C 0.12727 0.96644 0.33342 0.0
H1063 H 0.12922 0.02499 0.38169 0.0
H1064 H 0.12925 0.9709 0.38168 0.0
C1065 C 0.12668 0.98236 0.30637 0.0
C1066 C 0.01351 0.12792 0.36028 0.0
C1067 C 0.02952 0.12696 0.3333 0.0
H1068 H 0.97089 0.12833 0.38148 0.0
C1069 C 0.01365 0.12669 0.30621 0.0
H1070 H 0.02496 0.12833 0.38157 0.0
C1071 C 0.98247 0.12669 0.30616 0.0
C1072 C 0.9665 0.12696 0.3332 0.0
H1073 H 0.02526 0.12606 0.28501 0.0
H1074 H 0.97092 0.12606 0.28492 0.0
C1075 C 0.98241 0.12792 0.36023 0.0
C1076 C 0.86963 0.01349 0.30604 0.0
C1077 C 0.86886 0.02944 0.33307 0.0
H1078 H 0.87071 0.97071 0.28489 0.0
C1079 C 0.8674 0.01351 0.36007 0.0
H1080 H 0.87067 0.02505 0.28482 0.0
C1081 C 0.86743 0.98241 0.36011 0.0
C1082 C 0.86891 0.96643 0.33315 0.0
H1083 H 0.86657 0.02503 0.38132 0.0
H1084 H 0.86662 0.97095 0.38139 0.0
C1085 C 0.86966 0.98231 0.30608 0.0
C1086 C 0.98252 0.86916 0.3063 0.0
C1087 C 0.96659 0.86891 0.33335 0.0
H1088 H 0.02529 0.86978 0.2851 0.0
C1089 C 0.98252 0.86797 0.36036 0.0
H1090 H 0.97096 0.86978 0.28507 0.0
C1091 C 0.01362 0.86797 0.36038 0.0
C1092 C 0.0296 0.86891 0.33338 0.0
H1093 H 0.97102 0.86757 0.38163 0.0
H1094 H 0.0251 0.86757 0.38166 0.0
C1095 C 0.0137 0.86916 0.30631 0.0
C1096 C 0.12808 0.98219 0.63542 0.0
C1097 C 0.12667 0.96623 0.6624 0.0
H1098 H 0.12883 0.02479 0.61417 0.0
C1099 C 0.12594 0.98214 0.68946 0.0
H1100 H 0.12887 0.97071 0.61416 0.0
C1101 C 0.12592 0.01332 0.68947 0.0
C1102 C 0.12662 0.02924 0.66242 0.0
H1103 H 0.12494 0.97055 0.71066 0.0
H1104 H 0.1249 0.02489 0.71067 0.0
C1105 C 0.12806 0.01329 0.63543 0.0
C1106 C 0.01297 0.12762 0.63522 0.0
C1107 C 0.02888 0.12666 0.66225 0.0
H1108 H 0.97042 0.128 0.61388 0.0
C1109 C 0.01292 0.12634 0.68929 0.0
H1110 H 0.02449 0.12807 0.61397 0.0
C1111 C 0.98174 0.12629 0.68924 0.0
C1112 C 0.96587 0.12657 0.66215 0.0
H1113 H 0.02446 0.1257 0.71052 0.0
H1114 H 0.97012 0.12562 0.71044 0.0
C1115 C 0.98187 0.12758 0.63518 0.0
C1116 C 0.86702 0.01299 0.6351 0.0
C1117 C 0.86824 0.02898 0.66207 0.0
H1118 H 0.86642 0.97038 0.61388 0.0
C1119 C 0.86876 0.01309 0.68915 0.0
H1120 H 0.86639 0.02446 0.61382 0.0
C1121 C 0.86878 0.98191 0.68918 0.0
C1122 C 0.86828 0.96596 0.66215 0.0
H1123 H 0.8696 0.0247 0.71035 0.0
H1124 H 0.86964 0.97036 0.71041 0.0
C1125 C 0.86704 0.98189 0.63513 0.0
C1126 C 0.982 0.86751 0.63529 0.0
C1127 C 0.96603 0.86853 0.66228 0.0
H1128 H 0.0246 0.8671 0.61403 0.0
C1129 C 0.98193 0.8689 0.68935 0.0
H1130 H 0.97053 0.86702 0.61401 0.0
C1131 C 0.01311 0.86895 0.68936 0.0
C1132 C 0.02904 0.86863 0.6623 0.0
H1133 H 0.97034 0.86958 0.71056 0.0
H1134 H 0.02468 0.86967 0.71058 0.0
C1135 C 0.0131 0.86756 0.6353 0.0
C1136 C 0.30628 0.12662 0.01361 0.0
C1137 C 0.33338 0.12689 0.02946 0.0
H1138 H 0.28496 0.12596 0.9709 0.0
C1139 C 0.36034 0.12784 0.01344 0.0
H1140 H 0.28509 0.12599 0.02524 0.0
C1141 C 0.36027 0.12783 0.98233 0.0
C1142 C 0.33323 0.12687 0.96645 0.0
H1143 H 0.38164 0.12826 0.02487 0.0
H1144 H 0.38152 0.12824 0.97079 0.0
C1145 C 0.30621 0.1266 0.98243 0.0
C1146 C 0.86733 0.36028 0.98195 0.0
C1147 C 0.86841 0.33325 0.96604 0.0
H1148 H 0.86696 0.38163 0.02451 0.0
C1149 C 0.86896 0.30622 0.982 0.0
H1150 H 0.86669 0.38153 0.97043 0.0
C1151 C 0.86912 0.30629 0.01318 0.0
C1152 C 0.86874 0.33337 0.02905 0.0
H1153 H 0.86971 0.28499 0.97046 0.0
H1154 H 0.86997 0.28509 0.0248 0.0
C1155 C 0.86749 0.36034 0.01305 0.0
C1156 C 0.68921 0.86894 0.98221 0.0
C1157 C 0.66213 0.8686 0.96635 0.0
H1158 H 0.71052 0.86971 0.02493 0.0
C1159 C 0.63516 0.86766 0.98237 0.0
H1160 H 0.71041 0.86956 0.97059 0.0
C1161 C 0.63522 0.86775 0.01347 0.0
C1162 C 0.66225 0.86878 0.02937 0.0
H1163 H 0.61386 0.86719 0.97093 0.0
H1164 H 0.61396 0.86735 0.025 0.0
C1165 C 0.68928 0.86903 0.0134 0.0
C1166 C 0.12797 0.63525 0.98231 0.0
C1167 C 0.1268 0.66224 0.96634 0.0
H1168 H 0.12862 0.61401 0.02492 0.0
C1169 C 0.12639 0.68931 0.98224 0.0
H1170 H 0.12851 0.61397 0.97084 0.0
C1171 C 0.12646 0.68933 0.01342 0.0
C1172 C 0.12693 0.66228 0.02935 0.0
H1173 H 0.1256 0.71051 0.97065 0.0
H1174 H 0.12571 0.71055 0.02499 0.0
C1175 C 0.12804 0.63527 0.01342 0.0
C1176 C 0.30627 0.86908 0.98229 0.0
C1177 C 0.3333 0.86881 0.96633 0.0
H1178 H 0.28513 0.86973 0.02509 0.0
C1179 C 0.36033 0.86787 0.98223 0.0
H1180 H 0.28503 0.8697 0.97075 0.0
C1181 C 0.36038 0.86789 0.01333 0.0
C1182 C 0.33341 0.86885 0.02934 0.0
H1183 H 0.38158 0.86746 0.9707 0.0
H1184 H 0.38168 0.86749 0.02478 0.0
C1185 C 0.30632 0.8691 0.01347 0.0
C1186 C 0.12785 0.3604 0.98227 0.0
C1187 C 0.12666 0.33339 0.96634 0.0
H1188 H 0.12859 0.3817 0.02484 0.0
C1189 C 0.12632 0.30634 0.98227 0.0
H1190 H 0.12834 0.38166 0.97076 0.0
C1191 C 0.12647 0.30636 0.01345 0.0
C1192 C 0.12696 0.33342 0.02934 0.0
H1193 H 0.12551 0.28512 0.97071 0.0
H1194 H 0.12576 0.28515 0.02504 0.0
C1195 C 0.128 0.36041 0.01337 0.0
C1196 C 0.68913 0.12643 0.98172 0.0
C1197 C 0.66203 0.12669 0.96587 0.0
H1198 H 0.71046 0.1259 0.02442 0.0
C1199 C 0.63507 0.12774 0.9819 0.0
H1200 H 0.71032 0.12573 0.97008 0.0
C1201 C 0.63516 0.12785 0.013 0.0
C1202 C 0.6622 0.1269 0.02888 0.0
H1203 H 0.61377 0.12815 0.97047 0.0
H1204 H 0.61391 0.12833 0.02455 0.0
C1205 C 0.68922 0.12654 0.0129 0.0
C1206 C 0.86746 0.63515 0.98239 0.0
C1207 C 0.86859 0.66213 0.9664 0.0
H1208 H 0.86697 0.61393 0.02501 0.0
C1209 C 0.86909 0.68921 0.98228 0.0
H1210 H 0.86686 0.61386 0.97093 0.0
C1211 C 0.86915 0.68925 0.01346 0.0
C1212 C 0.86872 0.66221 0.02941 0.0
H1213 H 0.86987 0.71041 0.97067 0.0
H1214 H 0.86998 0.71048 0.02501 0.0
C1215 C 0.86752 0.63519 0.01349 0.0
C1216 C 0.98242 0.30644 0.12629 0.0
C1217 C 0.9665 0.3335 0.1267 0.0
H1218 H 0.02517 0.28522 0.12563 0.0
C1219 C 0.98245 0.3605 0.12789 0.0
H1220 H 0.97084 0.28523 0.12548 0.0
C1221 C 0.01356 0.36049 0.12798 0.0
C1222 C 0.02951 0.33349 0.12688 0.0
H1223 H 0.97097 0.38177 0.12843 0.0
H1224 H 0.02504 0.38177 0.12858 0.0
C1225 C 0.0136 0.30644 0.12638 0.0
C1226 C 0.01319 0.68916 0.86924 0.0
C1227 C 0.02912 0.66212 0.86878 0.0
H1228 H 0.97042 0.71034 0.87003 0.0
C1229 C 0.01319 0.63511 0.86762 0.0
H1230 H 0.02475 0.71039 0.87003 0.0
C1231 C 0.98209 0.63508 0.86762 0.0
C1232 C 0.96612 0.66207 0.86878 0.0
H1233 H 0.02469 0.61384 0.86705 0.0
H1234 H 0.97062 0.6138 0.86705 0.0
C1235 C 0.98201 0.68914 0.86924 0.0
C1236 C 0.36003 0.01339 0.86728 0.0
C1237 C 0.33304 0.02933 0.86874 0.0
H1238 H 0.38132 0.97081 0.86644 0.0
C1239 C 0.306 0.0134 0.86946 0.0
H1240 H 0.38129 0.02489 0.8665 0.0
C1241 C 0.30602 0.98221 0.86943 0.0
C1242 C 0.33308 0.96632 0.86868 0.0
H1243 H 0.28479 0.02496 0.87049 0.0
H1244 H 0.28482 0.97062 0.87044 0.0
C1245 C 0.36005 0.98229 0.86725 0.0
C1246 C 0.98181 0.3602 0.86732 0.0
C1247 C 0.96588 0.33319 0.86852 0.0
H1248 H 0.02438 0.38151 0.86681 0.0
C1249 C 0.98181 0.30615 0.86911 0.0
H1250 H 0.97031 0.38146 0.86665 0.0
C1251 C 0.013 0.30618 0.8692 0.0
C1252 C 0.02889 0.33325 0.86871 0.0
H1253 H 0.97025 0.28492 0.86994 0.0
H1254 H 0.02459 0.28498 0.87009 0.0
C1255 C 0.01291 0.36023 0.86742 0.0
C1256 C 0.68895 0.98189 0.86896 0.0
C1257 C 0.66191 0.96595 0.86851 0.0
H1258 H 0.71014 0.02466 0.86967 0.0
C1259 C 0.6349 0.98189 0.86728 0.0
H1260 H 0.71017 0.97033 0.8698 0.0
C1261 C 0.63488 0.01299 0.8672 0.0
C1262 C 0.66187 0.02897 0.86836 0.0
H1263 H 0.61364 0.97038 0.86671 0.0
H1264 H 0.61361 0.02447 0.86658 0.0
C1265 C 0.68893 0.01307 0.86888 0.0
C1266 C 0.01349 0.63532 0.1282 0.0
C1267 C 0.02944 0.66232 0.12699 0.0
H1268 H 0.9709 0.61404 0.12879 0.0
C1269 C 0.01352 0.68937 0.12648 0.0
H1270 H 0.02498 0.61405 0.12881 0.0
C1271 C 0.98234 0.68936 0.12647 0.0
C1272 C 0.96643 0.6623 0.12697 0.0
H1273 H 0.02509 0.71059 0.12565 0.0
H1274 H 0.97075 0.71058 0.12563 0.0
C1275 C 0.98239 0.63531 0.12819 0.0
C1276 C 0.30652 0.98228 0.12654 0.0
C1277 C 0.33357 0.96637 0.12707 0.0
H1278 H 0.2853 0.02504 0.12572 0.0
C1279 C 0.36056 0.98232 0.12833 0.0
H1280 H 0.28531 0.9707 0.12567 0.0
C1281 C 0.36056 0.01343 0.12836 0.0
C1282 C 0.33357 0.02938 0.12712 0.0
H1283 H 0.38183 0.97083 0.12896 0.0
H1284 H 0.38183 0.02492 0.12901 0.0
C1285 C 0.30652 0.01346 0.12657 0.0
C1286 C 0.6895 0.0136 0.12599 0.0
C1287 C 0.66245 0.02951 0.12668 0.0
H1288 H 0.71072 0.97084 0.1251 0.0
C1289 C 0.63547 0.01355 0.12816 0.0
H1290 H 0.7107 0.02518 0.12495 0.0
C1291 C 0.63548 0.98245 0.12824 0.0
C1292 C 0.66246 0.9665 0.12685 0.0
H1293 H 0.6142 0.02504 0.12892 0.0
H1294 H 0.61422 0.97096 0.12906 0.0
C1295 C 0.68951 0.98242 0.12608 0.0
C1296 C 0.62619 0.48183 0.80622 0.0
C1297 C 0.62666 0.4659 0.83326 0.0
H1298 H 0.62538 0.52462 0.78504 0.0
C1299 C 0.62784 0.48183 0.86027 0.0
H1300 H 0.62538 0.47027 0.785 0.0
C1301 C 0.62783 0.51293 0.8603 0.0
C1302 C 0.62665 0.52891 0.83332 0.0
H1303 H 0.62842 0.47032 0.88153 0.0
H1304 H 0.62841 0.5244 0.88158 0.0
C1305 C 0.62619 0.51302 0.80625 0.0
C1306 C 0.48204 0.62795 0.86043 0.0
C1307 C 0.46608 0.62684 0.83344 0.0
H1308 H 0.52463 0.62839 0.88169 0.0
C1309 C 0.48199 0.62633 0.80638 0.0
H1310 H 0.47056 0.62856 0.8817 0.0
C1311 C 0.51317 0.62622 0.80637 0.0
C1312 C 0.52909 0.62664 0.83342 0.0
H1313 H 0.47041 0.62557 0.78516 0.0
H1314 H 0.52474 0.62539 0.78515 0.0
C1315 C 0.51314 0.62785 0.86042 0.0
C1316 C 0.36883 0.51352 0.80637 0.0
C1317 C 0.3684 0.52941 0.83344 0.0
H1318 H 0.36959 0.47077 0.78513 0.0
C1319 C 0.36727 0.51344 0.86043 0.0
H1320 H 0.3696 0.52511 0.78516 0.0
C1321 C 0.36726 0.48234 0.86041 0.0
C1322 C 0.36839 0.4664 0.8334 0.0
H1323 H 0.36672 0.52492 0.88171 0.0
H1324 H 0.36671 0.47083 0.88167 0.0
C1325 C 0.36882 0.48233 0.80635 0.0
C1326 C 0.51306 0.36901 0.80622 0.0
C1327 C 0.52899 0.36847 0.83326 0.0
H1328 H 0.4703 0.36997 0.78503 0.0
C1329 C 0.51305 0.36735 0.86027 0.0
H1330 H 0.52463 0.36978 0.785 0.0
C1331 C 0.48195 0.36746 0.86029 0.0
C1332 C 0.46598 0.3687 0.83331 0.0
H1333 H 0.52454 0.36671 0.88153 0.0
H1334 H 0.47047 0.36691 0.88157 0.0
C1335 C 0.48188 0.36912 0.80624 0.0
C1336 C 0.62822 0.48253 0.13518 0.0
C1337 C 0.627 0.46656 0.16216 0.0
H1338 H 0.62885 0.52513 0.11394 0.0
C1339 C 0.62651 0.48245 0.18923 0.0
H1340 H 0.62882 0.47105 0.1139 0.0
C1341 C 0.62653 0.51363 0.18925 0.0
C1342 C 0.62704 0.52956 0.16221 0.0
H1343 H 0.62567 0.47086 0.21043 0.0
H1344 H 0.62571 0.5252 0.21047 0.0
C1345 C 0.62824 0.51363 0.1352 0.0
C1346 C 0.51349 0.62818 0.13522 0.0
C1347 C 0.52944 0.62708 0.16223 0.0
H1348 H 0.4709 0.62864 0.11394 0.0
C1349 C 0.51352 0.62663 0.18928 0.0
H1350 H 0.52498 0.62874 0.11395 0.0
C1351 C 0.48233 0.62657 0.18927 0.0
C1352 C 0.46643 0.62697 0.16221 0.0
H1353 H 0.52509 0.62588 0.2105 0.0
H1354 H 0.47075 0.62579 0.21049 0.0
C1355 C 0.48238 0.62812 0.13522 0.0
C1356 C 0.36925 0.5134 0.18927 0.0
C1357 C 0.3688 0.52932 0.16222 0.0
H1358 H 0.37002 0.47063 0.21047 0.0
C1359 C 0.36763 0.51338 0.13522 0.0
H1360 H 0.37005 0.52497 0.21049 0.0
C1361 C 0.36761 0.48228 0.13521 0.0
C1362 C 0.36876 0.46631 0.1622 0.0
H1363 H 0.36706 0.52488 0.11395 0.0
H1364 H 0.36703 0.4708 0.11393 0.0
C1365 C 0.36923 0.48221 0.18926 0.0
C1366 C 0.51343 0.36772 0.13513 0.0
C1367 C 0.52938 0.36891 0.16212 0.0
H1368 H 0.47083 0.36707 0.11387 0.0
C1369 C 0.51348 0.36934 0.18918 0.0
H1370 H 0.52491 0.36717 0.11385 0.0
C1371 C 0.48229 0.36928 0.1892 0.0
C1372 C 0.46638 0.36879 0.16214 0.0
H1373 H 0.52505 0.37015 0.21039 0.0
H1374 H 0.47072 0.37006 0.21041 0.0
C1375 C 0.48233 0.36766 0.13514 0.0
C1376 C 0.80632 0.62638 0.48228 0.0
C1377 C 0.83339 0.62695 0.4664 0.0
H1378 H 0.78504 0.62539 0.52501 0.0
C1379 C 0.86036 0.62812 0.4824 0.0
H1380 H 0.78512 0.62557 0.47067 0.0
C1381 C 0.86031 0.62802 0.5135 0.0
C1382 C 0.8333 0.62674 0.52941 0.0
H1383 H 0.88165 0.62878 0.47094 0.0
H1384 H 0.88157 0.6286 0.52502 0.0
C1385 C 0.80627 0.62628 0.51346 0.0
C1386 C 0.36724 0.86028 0.51332 0.0
C1387 C 0.36855 0.83329 0.52927 0.0
H1388 H 0.36664 0.88157 0.47074 0.0
C1389 C 0.36925 0.80624 0.51335 0.0
H1390 H 0.36648 0.88155 0.52482 0.0
C1391 C 0.36935 0.80626 0.48217 0.0
C1392 C 0.36875 0.83332 0.46626 0.0
H1393 H 0.37017 0.78503 0.52492 0.0
H1394 H 0.37033 0.78505 0.47058 0.0
C1395 C 0.36734 0.8603 0.48222 0.0
C1396 C 0.13517 0.36737 0.48213 0.0
C1397 C 0.16218 0.36869 0.4662 0.0
H1398 H 0.11385 0.36667 0.5247 0.0
C1399 C 0.18921 0.36931 0.48215 0.0
H1400 H 0.11392 0.36666 0.47061 0.0
C1401 C 0.18917 0.36931 0.51333 0.0
C1402 C 0.16209 0.3687 0.52921 0.0
H1403 H 0.21043 0.37024 0.47059 0.0
H1404 H 0.21036 0.37024 0.52493 0.0
C1405 C 0.13513 0.36737 0.51323 0.0
C1406 C 0.62816 0.13524 0.482 0.0
C1407 C 0.62694 0.16227 0.4661 0.0
H1408 H 0.62872 0.11389 0.52456 0.0
C1409 C 0.62637 0.18929 0.48206 0.0
H1410 H 0.62882 0.11399 0.47048 0.0
C1411 C 0.62631 0.18923 0.51324 0.0
C1412 C 0.62682 0.16215 0.5291 0.0
H1413 H 0.62552 0.21053 0.47052 0.0
H1414 H 0.62543 0.21042 0.52485 0.0
C1415 C 0.6281 0.13518 0.5131 0.0
C1416 C 0.80628 0.36913 0.482 0.0
C1417 C 0.83335 0.36865 0.46611 0.0
H1418 H 0.78502 0.36983 0.52474 0.0
C1419 C 0.86033 0.36735 0.48209 0.0
H1420 H 0.78508 0.37003 0.47041 0.0
C1421 C 0.86029 0.36723 0.51319 0.0
C1422 C 0.83327 0.36842 0.52913 0.0
H1423 H 0.88161 0.36676 0.47062 0.0
H1424 H 0.88154 0.36656 0.5247 0.0
C1425 C 0.80624 0.36901 0.51319 0.0
C1426 C 0.62638 0.80622 0.48228 0.0
C1427 C 0.62705 0.83331 0.46642 0.0
H1428 H 0.62534 0.78493 0.525 0.0
C1429 C 0.62836 0.86026 0.48243 0.0
H1430 H 0.62547 0.78503 0.47066 0.0
C1431 C 0.62828 0.8602 0.51353 0.0
C1432 C 0.6269 0.83318 0.52943 0.0
H1433 H 0.6291 0.88155 0.47098 0.0
H1434 H 0.62897 0.88145 0.52506 0.0
C1435 C 0.62631 0.80616 0.51346 0.0
C1436 C 0.1352 0.62834 0.5134 0.0
C1437 C 0.16216 0.62698 0.5294 0.0
H1438 H 0.11401 0.6291 0.47078 0.0
C1439 C 0.18924 0.62633 0.51353 0.0
H1440 H 0.11391 0.62907 0.52486 0.0
C1441 C 0.18929 0.62635 0.48235 0.0
C1442 C 0.16227 0.62701 0.46639 0.0
H1443 H 0.21042 0.62538 0.52514 0.0
H1444 H 0.21052 0.6254 0.4708 0.0
C1445 C 0.13526 0.62836 0.4823 0.0
C1446 C 0.36725 0.13537 0.48219 0.0
C1447 C 0.3686 0.16236 0.46625 0.0
H1448 H 0.36648 0.11409 0.52478 0.0
C1449 C 0.36918 0.18941 0.48216 0.0
H1450 H 0.36656 0.1141 0.4707 0.0
C1451 C 0.36913 0.1894 0.51335 0.0
C1452 C 0.36849 0.16235 0.52926 0.0
H1453 H 0.37012 0.21062 0.47059 0.0
H1454 H 0.37004 0.21061 0.52493 0.0
C1455 C 0.3672 0.13536 0.5133 0.0
C1456 C 0.48197 0.80615 0.62656 0.0
C1457 C 0.46609 0.83323 0.62685 0.0
H1458 H 0.5247 0.78487 0.62592 0.0
C1459 C 0.48207 0.86021 0.62785 0.0
H1460 H 0.47036 0.78494 0.62589 0.0
C1461 C 0.51317 0.86017 0.62787 0.0
C1462 C 0.5291 0.83314 0.62689 0.0
H1463 H 0.47061 0.8815 0.62829 0.0
H1464 H 0.52469 0.88143 0.62832 0.0
C1465 C 0.51315 0.80611 0.62658 0.0
C1466 C 0.48223 0.18943 0.36905 0.0
C1467 C 0.46632 0.16237 0.36868 0.0
H1468 H 0.52499 0.21066 0.36974 0.0
C1469 C 0.48228 0.13538 0.36757 0.0
H1470 H 0.47065 0.21065 0.36981 0.0
C1471 C 0.51338 0.13538 0.36753 0.0
C1472 C 0.52933 0.16239 0.3686 0.0
H1473 H 0.4708 0.1141 0.36706 0.0
H1474 H 0.52488 0.11411 0.367 0.0
C1475 C 0.51341 0.18944 0.36901 0.0
C1476 C 0.80641 0.51358 0.36908 0.0
C1477 C 0.83347 0.52949 0.36874 0.0
H1478 H 0.78518 0.47083 0.36974 0.0
C1479 C 0.86047 0.51353 0.36766 0.0
H1480 H 0.7852 0.52516 0.3698 0.0
C1481 C 0.86046 0.48243 0.36763 0.0
C1482 C 0.83345 0.46648 0.36867 0.0
H1483 H 0.88174 0.52501 0.36719 0.0
H1484 H 0.88173 0.47093 0.36713 0.0
C1485 C 0.8064 0.4824 0.36904 0.0
C1486 C 0.48244 0.80636 0.36907 0.0
C1487 C 0.46652 0.8334 0.36876 0.0
H1488 H 0.52521 0.78516 0.36977 0.0
C1489 C 0.48245 0.86042 0.36778 0.0
H1490 H 0.47088 0.78513 0.36973 0.0
C1491 C 0.51355 0.86044 0.3678 0.0
C1492 C 0.52952 0.83345 0.36881 0.0
H1493 H 0.47095 0.88169 0.36733 0.0
H1494 H 0.52503 0.88172 0.36737 0.0
C1495 C 0.51363 0.80638 0.3691 0.0
C1496 C 0.18936 0.48227 0.36903 0.0
C1497 C 0.1623 0.46636 0.3687 0.0
H1498 H 0.2106 0.52502 0.36974 0.0
C1499 C 0.1353 0.48233 0.36772 0.0
H1500 H 0.21057 0.47068 0.36968 0.0
C1501 C 0.13532 0.51344 0.36776 0.0
C1502 C 0.16232 0.52938 0.36878 0.0
H1503 H 0.11402 0.47086 0.36726 0.0
H1504 H 0.11405 0.52494 0.36733 0.0
C1505 C 0.18937 0.51345 0.36907 0.0
C1506 C 0.482 0.13519 0.62778 0.0
C1507 C 0.46609 0.16222 0.62676 0.0
H1508 H 0.52455 0.11385 0.62821 0.0
C1509 C 0.48204 0.18925 0.62639 0.0
H1510 H 0.47048 0.11393 0.62828 0.0
C1511 C 0.51322 0.1892 0.62634 0.0
C1512 C 0.52909 0.16212 0.62667 0.0
H1513 H 0.47049 0.21049 0.6257 0.0
H1514 H 0.52483 0.2104 0.62562 0.0
C1515 C 0.5131 0.13514 0.62774 0.0
C1516 C 0.80611 0.513 0.62644 0.0
C1517 C 0.83317 0.52892 0.62686 0.0
H1518 H 0.7849 0.47024 0.62564 0.0
C1519 C 0.86017 0.51296 0.62795 0.0
H1520 H 0.7849 0.52458 0.6257 0.0
C1521 C 0.86017 0.48185 0.62791 0.0
C1522 C 0.83317 0.4659 0.62679 0.0
H1523 H 0.88144 0.52445 0.62849 0.0
H1524 H 0.88144 0.47037 0.62843 0.0
C1525 C 0.80611 0.48182 0.6264 0.0
C1526 C 0.13498 0.51338 0.62782 0.0
C1527 C 0.16199 0.52933 0.62693 0.0
H1528 H 0.1137 0.47079 0.62814 0.0
C1529 C 0.18905 0.51341 0.62667 0.0
H1530 H 0.11371 0.52487 0.62822 0.0
C1531 C 0.18904 0.48223 0.62662 0.0
C1532 C 0.16197 0.46632 0.62683 0.0
H1533 H 0.21027 0.52499 0.62608 0.0
H1534 H 0.21025 0.47065 0.626 0.0
C1535 C 0.13497 0.48228 0.62778 0.0
C1536 C 0.10939 0.21207 0.23405 0.0
C1537 C 0.12347 0.21719 0.26164 0.0
H1538 H 0.09995 0.22883 0.19036 0.0
C1539 C 0.13505 0.24575 0.26767 0.0
H1540 H 0.09996 0.19044 0.22877 0.0
C1541 C 0.13504 0.26777 0.24565 0.0
C1542 C 0.12345 0.26173 0.2171 0.0
H1543 H 0.14556 0.25068 0.28889 0.0
H1544 H 0.14555 0.28899 0.25058 0.0
C1545 C 0.10938 0.23413 0.21199 0.0
C1546 C 0.76209 0.10947 0.21126 0.0
C1547 C 0.73445 0.12343 0.21643 0.0
H1548 H 0.80581 0.10011 0.228 0.0
C1549 C 0.72838 0.13488 0.24503 0.0
H1550 H 0.76741 0.10014 0.18959 0.0
C1551 C 0.75039 0.13486 0.26705 0.0
C1552 C 0.77898 0.12339 0.26098 0.0
H1553 H 0.70712 0.1453 0.25 0.0
H1554 H 0.74542 0.14527 0.28832 0.0
C1555 C 0.78415 0.10945 0.23333 0.0
C1556 C 0.88678 0.78379 0.23395 0.0
C1557 C 0.87273 0.77868 0.26157 0.0
H1558 H 0.89614 0.76701 0.19025 0.0
C1559 C 0.86117 0.75012 0.26763 0.0
H1560 H 0.8962 0.80541 0.22864 0.0
C1561 C 0.86113 0.7281 0.24562 0.0
C1562 C 0.87266 0.73413 0.21704 0.0
H1563 H 0.85069 0.7452 0.28887 0.0
H1564 H 0.85063 0.70688 0.25057 0.0
C1565 C 0.88675 0.76172 0.2119 0.0
C1566 C 0.21222 0.88661 0.2341 0.0
C1567 C 0.21731 0.87245 0.26165 0.0
H1568 H 0.22901 0.8961 0.19043 0.0
C1569 C 0.24583 0.86077 0.26765 0.0
H1570 H 0.19062 0.89612 0.22884 0.0
C1571 C 0.26784 0.86076 0.24563 0.0
C1572 C 0.26183 0.87242 0.2171 0.0
H1573 H 0.25073 0.85019 0.28885 0.0
H1574 H 0.28903 0.85017 0.25053 0.0
C1575 C 0.23428 0.8866 0.21203 0.0
C1576 C 0.10883 0.78361 0.76168 0.0
C1577 C 0.12291 0.77849 0.73409 0.0
H1578 H 0.09942 0.76684 0.80538 0.0
C1579 C 0.13449 0.74994 0.72805 0.0
H1580 H 0.09939 0.80523 0.76698 0.0
C1581 C 0.13451 0.72792 0.75007 0.0
C1582 C 0.12294 0.73396 0.77863 0.0
H1583 H 0.145 0.74501 0.70682 0.0
H1584 H 0.14503 0.70671 0.74514 0.0
C1585 C 0.10885 0.76155 0.78375 0.0
C1586 C 0.23334 0.10924 0.7841 0.0
C1587 C 0.26098 0.12321 0.77892 0.0
H1588 H 0.18962 0.09989 0.76738 0.0
C1589 C 0.26704 0.13468 0.75033 0.0
H1590 H 0.22804 0.0999 0.80577 0.0
C1591 C 0.24501 0.13468 0.72832 0.0
C1592 C 0.21643 0.1232 0.73441 0.0
H1593 H 0.28829 0.14511 0.74535 0.0
H1594 H 0.24997 0.1451 0.70706 0.0
C1595 C 0.21127 0.10923 0.76205 0.0
C1596 C 0.86036 0.24529 0.72778 0.0
C1597 C 0.8719 0.21672 0.73383 0.0
H1598 H 0.84991 0.28856 0.74484 0.0
C1599 C 0.88594 0.21159 0.76144 0.0
H1600 H 0.84988 0.25023 0.70655 0.0
C1601 C 0.88596 0.23366 0.7835 0.0
C1602 C 0.87194 0.26128 0.77836 0.0
H1603 H 0.89533 0.18995 0.76675 0.0
H1604 H 0.89536 0.22836 0.80513 0.0
C1605 C 0.86039 0.26732 0.74979 0.0
C1606 C 0.76131 0.8861 0.78366 0.0
C1607 C 0.73375 0.87194 0.77858 0.0
H1608 H 0.80497 0.89562 0.76686 0.0
C1609 C 0.72776 0.86026 0.75006 0.0
H1610 H 0.76657 0.89561 0.80526 0.0
C1611 C 0.74978 0.86026 0.72804 0.0
C1612 C 0.7783 0.87195 0.73404 0.0
H1613 H 0.70657 0.84967 0.74515 0.0
H1614 H 0.74488 0.84968 0.70684 0.0
C1615 C 0.78337 0.88611 0.76159 0.0
C1616 C 0.23434 0.10921 0.2122 0.0
C1617 C 0.26188 0.12342 0.21726 0.0
H1618 H 0.19069 0.09968 0.229 0.0
C1619 C 0.26786 0.13516 0.24577 0.0
H1620 H 0.2291 0.09965 0.19062 0.0
C1621 C 0.24583 0.13517 0.26778 0.0
C1622 C 0.21732 0.12346 0.26178 0.0
H1623 H 0.28903 0.14577 0.25066 0.0
H1624 H 0.25071 0.1458 0.28895 0.0
C1625 C 0.21227 0.10923 0.23426 0.0
C1626 C 0.8612 0.26771 0.2453 0.0
C1627 C 0.87272 0.26166 0.21672 0.0
H1628 H 0.85074 0.25064 0.28856 0.0
C1629 C 0.88679 0.23407 0.21159 0.0
H1630 H 0.8507 0.28894 0.25024 0.0
C1631 C 0.88681 0.21201 0.23366 0.0
C1632 C 0.87277 0.21713 0.26126 0.0
H1633 H 0.89618 0.22877 0.18995 0.0
H1634 H 0.89621 0.19037 0.22835 0.0
C1635 C 0.86122 0.2457 0.26732 0.0
C1636 C 0.76203 0.88656 0.21174 0.0
C1637 C 0.7344 0.87259 0.21692 0.0
H1638 H 0.80576 0.89589 0.22845 0.0
C1639 C 0.72835 0.86107 0.2455 0.0
H1640 H 0.76733 0.89594 0.19009 0.0
C1641 C 0.75039 0.86104 0.26749 0.0
C1642 C 0.77897 0.87252 0.26141 0.0
H1643 H 0.7071 0.85064 0.25047 0.0
H1644 H 0.74544 0.85059 0.28874 0.0
C1645 C 0.78411 0.88654 0.23378 0.0
C1646 C 0.10939 0.76182 0.2119 0.0
C1647 C 0.12341 0.7342 0.21703 0.0
H1648 H 0.10002 0.80553 0.22866 0.0
C1649 C 0.13495 0.72815 0.24559 0.0
H1650 H 0.09999 0.76713 0.19026 0.0
C1651 C 0.13497 0.75016 0.26761 0.0
C1652 C 0.12345 0.77874 0.26157 0.0
H1653 H 0.14542 0.7069 0.25053 0.0
H1654 H 0.14545 0.74521 0.28884 0.0
C1655 C 0.10941 0.78388 0.23396 0.0
C1656 C 0.24524 0.86075 0.72816 0.0
C1657 C 0.21667 0.87229 0.73421 0.0
H1658 H 0.2885 0.85029 0.74522 0.0
C1659 C 0.21155 0.88634 0.76182 0.0
H1660 H 0.25018 0.85026 0.70693 0.0
C1661 C 0.23362 0.88636 0.78387 0.0
C1662 C 0.26123 0.87232 0.77873 0.0
H1663 H 0.18991 0.89574 0.76712 0.0
H1664 H 0.22832 0.89576 0.80551 0.0
C1665 C 0.26726 0.86077 0.75017 0.0
C1666 C 0.10862 0.23382 0.7839 0.0
C1667 C 0.12265 0.26143 0.77874 0.0
H1668 H 0.09922 0.19011 0.76715 0.0
C1669 C 0.13411 0.2675 0.75015 0.0
H1670 H 0.09928 0.2285 0.80556 0.0
C1671 C 0.13407 0.24549 0.72812 0.0
C1672 C 0.12258 0.21691 0.7342 0.0
H1673 H 0.14456 0.28875 0.74519 0.0
H1674 H 0.1445 0.25045 0.70687 0.0
C1675 C 0.10859 0.21176 0.76183 0.0
C1676 C 0.72751 0.13464 0.74958 0.0
C1677 C 0.73348 0.12292 0.77809 0.0
H1678 H 0.74467 0.14528 0.7064 0.0
C1679 C 0.76101 0.1087 0.78316 0.0
H1680 H 0.70634 0.14526 0.74468 0.0
C1681 C 0.78309 0.10871 0.76111 0.0
C1682 C 0.77805 0.12294 0.73358 0.0
H1683 H 0.76625 0.09915 0.80475 0.0
H1684 H 0.80467 0.09917 0.76638 0.0
C1685 C 0.74955 0.13465 0.72757 0.0
C1686 C 0.86066 0.72772 0.7501 0.0
C1687 C 0.8722 0.73379 0.77866 0.0
H1688 H 0.85018 0.74477 0.70684 0.0
C1689 C 0.88624 0.76141 0.78377 0.0
H1690 H 0.85019 0.70648 0.74517 0.0
C1691 C 0.88624 0.78346 0.7617 0.0
C1692 C 0.8722 0.7783 0.7341 0.0
H1693 H 0.89564 0.76672 0.80541 0.0
H1694 H 0.89563 0.8051 0.76699 0.0
C1695 C 0.86067 0.74973 0.72807 0.0
C1696 C 0.26778 0.24568 0.13494 0.0
C1697 C 0.26174 0.2171 0.1234 0.0
H1698 H 0.2507 0.28894 0.14539 0.0
C1699 C 0.23414 0.21197 0.10935 0.0
H1700 H 0.28901 0.25062 0.14543 0.0
C1701 C 0.21208 0.23404 0.10933 0.0
C1702 C 0.21721 0.26165 0.12335 0.0
H1703 H 0.22884 0.19033 0.09995 0.0
H1704 H 0.19045 0.22873 0.09991 0.0
C1705 C 0.24576 0.2677 0.13492 0.0
C1706 C 0.24535 0.72801 0.8609 0.0
C1707 C 0.21678 0.73406 0.87243 0.0
H1708 H 0.28862 0.74507 0.85046 0.0
C1709 C 0.21165 0.76167 0.88648 0.0
H1710 H 0.25029 0.70678 0.85042 0.0
C1711 C 0.23372 0.78372 0.88651 0.0
C1712 C 0.26134 0.77858 0.87249 0.0
H1713 H 0.19 0.76698 0.89587 0.0
H1714 H 0.22842 0.80536 0.89591 0.0
C1715 C 0.26738 0.75002 0.86094 0.0
C1716 C 0.23353 0.21184 0.88666 0.0
C1717 C 0.26114 0.21698 0.87265 0.0
H1718 H 0.1898 0.22856 0.89599 0.0
C1719 C 0.26718 0.24555 0.86109 0.0
H1720 H 0.22823 0.1902 0.89607 0.0
C1721 C 0.24514 0.26755 0.86104 0.0
C1722 C 0.21656 0.26147 0.87255 0.0
H1723 H 0.28842 0.25051 0.85063 0.0
H1724 H 0.25008 0.28878 0.85055 0.0
C1725 C 0.21144 0.23388 0.88661 0.0
C1726 C 0.72763 0.24527 0.86035 0.0
C1727 C 0.73367 0.21671 0.8719 0.0
H1728 H 0.7447 0.28855 0.84993 0.0
C1729 C 0.76125 0.21158 0.88598 0.0
H1730 H 0.70642 0.25021 0.84983 0.0
C1731 C 0.7833 0.23366 0.88604 0.0
C1732 C 0.77818 0.26128 0.87201 0.0
H1733 H 0.76654 0.18994 0.89539 0.0
H1734 H 0.80492 0.22837 0.89548 0.0
C1735 C 0.74964 0.26731 0.86041 0.0
C1736 C 0.78354 0.76143 0.88651 0.0
C1737 C 0.77842 0.73381 0.87249 0.0
H1738 H 0.76675 0.80512 0.8959 0.0
C1739 C 0.74985 0.72773 0.86097 0.0
H1740 H 0.80518 0.76675 0.89589 0.0
C1741 C 0.72781 0.74973 0.86098 0.0
C1742 C 0.73385 0.77831 0.8725 0.0
H1743 H 0.74491 0.70648 0.85051 0.0
H1744 H 0.70658 0.74476 0.85052 0.0
C1745 C 0.76146 0.78347 0.88652 0.0
C1746 C 0.78391 0.76181 0.10924 0.0
C1747 C 0.77878 0.73421 0.12331 0.0
H1748 H 0.76715 0.8055 0.09979 0.0
C1749 C 0.75021 0.72818 0.13487 0.0
H1750 H 0.80555 0.76709 0.09983 0.0
C1751 C 0.72819 0.7502 0.13484 0.0
C1752 C 0.73424 0.77876 0.12326 0.0
H1753 H 0.74526 0.70696 0.14537 0.0
H1754 H 0.70696 0.74527 0.14533 0.0
C1755 C 0.76185 0.78387 0.10921 0.0
C1756 C 0.26772 0.75011 0.13474 0.0
C1757 C 0.26167 0.77869 0.12323 0.0
H1758 H 0.25064 0.70685 0.14518 0.0
C1759 C 0.23406 0.78384 0.10921 0.0
H1760 H 0.28896 0.74515 0.1452 0.0
C1761 C 0.21199 0.76178 0.1092 0.0
C1762 C 0.21713 0.73416 0.12321 0.0
H1763 H 0.22875 0.8055 0.09984 0.0
H1764 H 0.19035 0.7671 0.09983 0.0
C1765 C 0.2457 0.72809 0.13473 0.0
C1766 C 0.76189 0.21203 0.10869 0.0
C1767 C 0.73426 0.21718 0.12269 0.0
H1768 H 0.80563 0.22875 0.0994 0.0
C1769 C 0.72822 0.24574 0.13425 0.0
H1770 H 0.76718 0.19039 0.09927 0.0
C1771 C 0.75027 0.26773 0.13433 0.0
C1772 C 0.77885 0.26165 0.12284 0.0
H1773 H 0.70698 0.25069 0.1447 0.0
H1774 H 0.74533 0.28895 0.14483 0.0
C1775 C 0.78398 0.23406 0.10876 0.0
C1776 C 0.63444 0.76724 0.74565 0.0
C1777 C 0.6229 0.7612 0.71708 0.0
H1778 H 0.64494 0.75014 0.78889 0.0
C1779 C 0.60888 0.73358 0.71193 0.0
H1780 H 0.6449 0.78848 0.75061 0.0
C1781 C 0.6089 0.7115 0.73397 0.0
C1782 C 0.62294 0.71663 0.76158 0.0
H1783 H 0.59949 0.72829 0.69029 0.0
H1784 H 0.59952 0.68986 0.72866 0.0
C1785 C 0.63446 0.7452 0.76765 0.0
C1786 C 0.24982 0.63495 0.7677 0.0
C1787 C 0.27837 0.62336 0.76166 0.0
H1788 H 0.20658 0.64544 0.75062 0.0
C1789 C 0.28347 0.60925 0.73408 0.0
H1790 H 0.2449 0.64549 0.78891 0.0
C1791 C 0.2614 0.60922 0.71203 0.0
C1792 C 0.23381 0.6233 0.71714 0.0
H1793 H 0.3051 0.59981 0.72879 0.0
H1794 H 0.26669 0.59976 0.69041 0.0
C1795 C 0.22779 0.63492 0.74569 0.0
C1796 C 0.3862 0.28393 0.73382 0.0
C1797 C 0.37219 0.27877 0.76144 0.0
H1798 H 0.39561 0.26718 0.69011 0.0
C1799 C 0.36071 0.25018 0.7675 0.0
H1800 H 0.39555 0.30558 0.72851 0.0
C1801 C 0.36075 0.22815 0.74549 0.0
C1802 C 0.37226 0.23422 0.71691 0.0
H1803 H 0.35026 0.24522 0.78875 0.0
H1804 H 0.35031 0.2069 0.75045 0.0
C1805 C 0.38624 0.26186 0.71176 0.0
C1806 C 0.76729 0.36032 0.74538 0.0
C1807 C 0.76127 0.37188 0.71681 0.0
H1808 H 0.75019 0.34983 0.78862 0.0
C1809 C 0.73366 0.38592 0.71167 0.0
H1810 H 0.78852 0.34983 0.75033 0.0
C1811 C 0.71159 0.38591 0.73373 0.0
C1812 C 0.7167 0.37188 0.76134 0.0
H1813 H 0.72837 0.39533 0.69003 0.0
H1814 H 0.68995 0.39532 0.72842 0.0
C1815 C 0.74526 0.36032 0.76739 0.0
C1816 C 0.63465 0.22827 0.2499 0.0
C1817 C 0.62316 0.23433 0.27849 0.0
H1818 H 0.64512 0.24535 0.20664 0.0
C1819 C 0.60917 0.26196 0.28365 0.0
H1820 H 0.64509 0.20702 0.24494 0.0
C1821 C 0.60919 0.28403 0.2616 0.0
C1822 C 0.62319 0.27889 0.23397 0.0
H1823 H 0.59981 0.26727 0.3053 0.0
H1824 H 0.59984 0.30569 0.26692 0.0
C1825 C 0.63467 0.2503 0.22789 0.0
C1826 C 0.74566 0.63504 0.22811 0.0
C1827 C 0.71709 0.62349 0.23415 0.0
H1828 H 0.78891 0.64552 0.24518 0.0
C1829 C 0.71196 0.60945 0.26175 0.0
H1830 H 0.7506 0.64553 0.20688 0.0
C1831 C 0.73402 0.60944 0.28381 0.0
C1832 C 0.76163 0.62348 0.27869 0.0
H1833 H 0.69032 0.60004 0.26705 0.0
H1834 H 0.72872 0.60003 0.30545 0.0
C1835 C 0.76768 0.63503 0.25013 0.0
C1836 C 0.36107 0.76761 0.25 0.0
C1837 C 0.37264 0.76157 0.27856 0.0
H1838 H 0.35054 0.75052 0.20677 0.0
C1839 C 0.3867 0.73397 0.28368 0.0
H1840 H 0.35058 0.78884 0.24507 0.0
C1841 C 0.38667 0.7119 0.26162 0.0
C1842 C 0.37259 0.71702 0.23403 0.0
H1843 H 0.39612 0.72867 0.30531 0.0
H1844 H 0.39608 0.69026 0.26692 0.0
C1845 C 0.36105 0.74558 0.22799 0.0
C1846 C 0.26171 0.38644 0.28364 0.0
C1847 C 0.2341 0.3724 0.27851 0.0
H1848 H 0.30542 0.39582 0.26689 0.0
C1849 C 0.22807 0.36083 0.24995 0.0
H1850 H 0.267 0.39586 0.30527 0.0
C1851 C 0.25011 0.36081 0.22794 0.0
C1852 C 0.27867 0.37236 0.23398 0.0
H1853 H 0.20684 0.35034 0.245 0.0
H1854 H 0.24517 0.35031 0.20671 0.0
C1855 C 0.28378 0.38642 0.26158 0.0
C1856 C 0.71161 0.60875 0.73394 0.0
C1857 C 0.71674 0.62278 0.76156 0.0
H1858 H 0.72839 0.59935 0.69024 0.0
C1859 C 0.74532 0.63427 0.76763 0.0
H1860 H 0.68996 0.59938 0.72862 0.0
C1861 C 0.76735 0.63425 0.74562 0.0
C1862 C 0.76131 0.62274 0.71705 0.0
H1863 H 0.75026 0.64474 0.78887 0.0
H1864 H 0.7886 0.64471 0.75059 0.0
C1865 C 0.73369 0.60873 0.71189 0.0
C1866 C 0.38626 0.71192 0.73401 0.0
C1867 C 0.37222 0.71707 0.76161 0.0
H1868 H 0.39565 0.72863 0.69028 0.0
C1869 C 0.36067 0.74564 0.76763 0.0
H1870 H 0.39566 0.69027 0.72873 0.0
C1871 C 0.36066 0.76764 0.74559 0.0
C1872 C 0.3722 0.76156 0.71702 0.0
H1873 H 0.35019 0.75061 0.78886 0.0
H1874 H 0.35017 0.78888 0.75051 0.0
C1875 C 0.38625 0.73395 0.71192 0.0
C1876 C 0.24978 0.36099 0.76751 0.0
C1877 C 0.27834 0.37254 0.76146 0.0
H1878 H 0.20653 0.35049 0.75043 0.0
C1879 C 0.28348 0.38658 0.73385 0.0
H1880 H 0.24483 0.35051 0.78874 0.0
C1881 C 0.26142 0.38657 0.71179 0.0
C1882 C 0.23382 0.37251 0.71692 0.0
H1883 H 0.30511 0.39598 0.72855 0.0
H1884 H 0.26673 0.39596 0.69014 0.0
C1885 C 0.22776 0.36098 0.74548 0.0
C1886 C 0.60883 0.28331 0.73386 0.0
C1887 C 0.6229 0.27819 0.76145 0.0
H1888 H 0.59943 0.26656 0.69015 0.0
C1889 C 0.6345 0.24964 0.76747 0.0
H1890 H 0.59938 0.30494 0.72858 0.0
C1891 C 0.63453 0.22764 0.74544 0.0
C1892 C 0.62296 0.23368 0.71688 0.0
H1893 H 0.645 0.24471 0.7887 0.0
H1894 H 0.64506 0.20642 0.75036 0.0
C1895 C 0.60886 0.26126 0.71178 0.0
C1896 C 0.7119 0.38673 0.26155 0.0
C1897 C 0.71703 0.37269 0.23394 0.0
H1898 H 0.72867 0.39613 0.30525 0.0
C1899 C 0.7456 0.36118 0.22787 0.0
H1900 H 0.69026 0.39612 0.26687 0.0
C1901 C 0.76763 0.36119 0.24988 0.0
C1902 C 0.76158 0.37271 0.27845 0.0
H1903 H 0.75054 0.35071 0.20663 0.0
H1904 H 0.78887 0.35072 0.24492 0.0
C1905 C 0.73397 0.38674 0.2836 0.0
C1906 C 0.60926 0.71211 0.26168 0.0
C1907 C 0.62333 0.71724 0.23408 0.0
H1908 H 0.59987 0.72884 0.30539 0.0
C1909 C 0.63491 0.7458 0.22805 0.0
H1910 H 0.59983 0.69048 0.26696 0.0
C1911 C 0.63494 0.7678 0.25009 0.0
C1912 C 0.62338 0.76174 0.27865 0.0
H1913 H 0.64541 0.75074 0.20683 0.0
H1914 H 0.64546 0.78902 0.24517 0.0
C1915 C 0.60929 0.73415 0.28376 0.0
C1916 C 0.28392 0.60923 0.26177 0.0
C1917 C 0.27877 0.62325 0.23415 0.0
H1918 H 0.26717 0.59984 0.30548 0.0
C1919 C 0.2502 0.63478 0.2281 0.0
H1920 H 0.30556 0.59984 0.26707 0.0
C1921 C 0.22819 0.63478 0.25013 0.0
C1922 C 0.23424 0.62325 0.2787 0.0
H1923 H 0.24525 0.64524 0.20687 0.0
H1924 H 0.20695 0.64525 0.24518 0.0
C1925 C 0.26186 0.60923 0.28384 0.0
C1926 C 0.38653 0.26165 0.2836 0.0
C1927 C 0.37244 0.23406 0.2785 0.0
H1928 H 0.39597 0.30533 0.26682 0.0
C1929 C 0.36086 0.22802 0.24994 0.0
H1930 H 0.39596 0.26694 0.30523 0.0
C1931 C 0.36087 0.25004 0.22792 0.0
C1932 C 0.37246 0.27859 0.23394 0.0
H1933 H 0.35034 0.2068 0.24502 0.0
H1934 H 0.35035 0.2451 0.2067 0.0
C1935 C 0.38654 0.28371 0.26153 0.0
C1936 C 0.71163 0.73356 0.60933 0.0
C1937 C 0.71674 0.76115 0.62341 0.0
H1938 H 0.72841 0.68986 0.59989 0.0
C1939 C 0.74529 0.76718 0.635 0.0
H1940 H 0.69 0.72827 0.59989 0.0
C1941 C 0.76731 0.74516 0.63499 0.0
C1942 C 0.76129 0.71661 0.6234 0.0
H1943 H 0.75022 0.7884 0.64551 0.0
H1944 H 0.78853 0.75009 0.64551 0.0
C1945 C 0.7337 0.71149 0.60932 0.0
C1946 C 0.74554 0.22825 0.36063 0.0
C1947 C 0.71698 0.2343 0.3722 0.0
H1948 H 0.78878 0.24533 0.35011 0.0
C1949 C 0.71186 0.2619 0.38625 0.0
H1950 H 0.75047 0.20702 0.35014 0.0
C1951 C 0.73392 0.28397 0.38623 0.0
C1952 C 0.76152 0.27884 0.37217 0.0
H1953 H 0.69023 0.2672 0.39567 0.0
H1954 H 0.72863 0.30561 0.39564 0.0
C1955 C 0.76756 0.25027 0.36062 0.0
C1956 C 0.76777 0.74573 0.36095 0.0
C1957 C 0.76173 0.71717 0.37253 0.0
H1958 H 0.75067 0.78896 0.35042 0.0
C1959 C 0.73414 0.71205 0.38661 0.0
H1960 H 0.78899 0.75066 0.35044 0.0
C1961 C 0.71207 0.73411 0.3866 0.0
C1962 C 0.71719 0.76169 0.3725 0.0
H1963 H 0.72885 0.69043 0.39605 0.0
H1964 H 0.69044 0.72881 0.39603 0.0
C1965 C 0.74574 0.76774 0.36094 0.0
C1966 C 0.25029 0.76758 0.36081 0.0
C1967 C 0.27885 0.76153 0.37236 0.0
H1968 H 0.20702 0.75053 0.35037 0.0
C1969 C 0.28396 0.73393 0.38643 0.0
H1970 H 0.24536 0.78881 0.3503 0.0
C1971 C 0.26188 0.71189 0.38647 0.0
C1972 C 0.23428 0.71703 0.37243 0.0
H1973 H 0.3056 0.72863 0.39584 0.0
H1974 H 0.26717 0.69026 0.3959 0.0
C1975 C 0.22825 0.74558 0.36085 0.0
C1976 C 0.22804 0.2501 0.36058 0.0
C1977 C 0.23404 0.27863 0.37223 0.0
H1978 H 0.24516 0.20688 0.35002 0.0
C1979 C 0.26161 0.28373 0.38636 0.0
H1980 H 0.20684 0.24518 0.35003 0.0
C1981 C 0.28368 0.26167 0.38635 0.0
C1982 C 0.2786 0.2341 0.37222 0.0
H1983 H 0.26688 0.30534 0.39584 0.0
H1984 H 0.30529 0.26696 0.39583 0.0
C1985 C 0.25006 0.22808 0.36058 0.0
C1986 C 0.28361 0.26183 0.60909 0.0
C1987 C 0.27848 0.23422 0.62312 0.0
H1988 H 0.26684 0.30553 0.5997 0.0
C1989 C 0.24991 0.22814 0.63463 0.0
H1990 H 0.30526 0.26715 0.59971 0.0
C1991 C 0.22788 0.25015 0.63462 0.0
C1992 C 0.23392 0.27873 0.6231 0.0
H1993 H 0.24496 0.2069 0.64509 0.0
H1994 H 0.20664 0.24519 0.64508 0.0
C1995 C 0.26154 0.28388 0.60908 0.0
C1996 C 0.76743 0.24964 0.63472 0.0
C1997 C 0.76143 0.27817 0.62305 0.0
H1998 H 0.75028 0.20645 0.64534 0.0
C1999 C 0.73387 0.28327 0.60891 0.0
H2000 H 0.78862 0.24472 0.64528 0.0
C2001 C 0.71179 0.26123 0.60894 0.0
C2002 C 0.71686 0.23367 0.62311 0.0
H2003 H 0.72862 0.30488 0.59941 0.0
H2004 H 0.69019 0.26651 0.59946 0.0
C2005 C 0.74539 0.22764 0.63475 0.0
C2006 C 0.24984 0.76757 0.63485 0.0
C2007 C 0.27838 0.76153 0.62325 0.0
H2008 H 0.2066 0.7505 0.6454 0.0
C2009 C 0.28348 0.73393 0.60917 0.0
H2010 H 0.24492 0.7888 0.64536 0.0
C2011 C 0.26141 0.71187 0.60919 0.0
C2012 C 0.23383 0.717 0.6233 0.0
H2013 H 0.3051 0.72863 0.59972 0.0
H2014 H 0.26669 0.69024 0.59976 0.0
C2015 C 0.22781 0.74556 0.63487 0.0
C2016 C 0.12318 0.23873 0.41457 0.0
C2017 C 0.10869 0.21743 0.39682 0.0
H2018 H 0.13197 0.28518 0.42117 0.0
C2019 C 0.08558 0.2267 0.3777 0.0
H2020 H 0.14144 0.23214 0.429 0.0
C2021 C 0.08107 0.2571 0.37218 0.0
C2022 C 0.09874 0.27839 0.38676 0.0
H2023 H 0.07449 0.21063 0.36339 0.0
H2024 H 0.06676 0.26367 0.35381 0.0
C2025 C 0.11771 0.26913 0.41 0.0
C2026 C 0.73859 0.08125 0.3719 0.0
C2027 C 0.71738 0.09898 0.38652 0.0
H2028 H 0.78501 0.07458 0.36295 0.0
C2029 C 0.72675 0.118 0.40968 0.0
H2030 H 0.73193 0.0669 0.3536 0.0
C2031 C 0.75717 0.12343 0.41414 0.0
C2032 C 0.77838 0.10886 0.39636 0.0
H2033 H 0.71075 0.1323 0.42088 0.0
H2034 H 0.76383 0.14172 0.42851 0.0
C2035 C 0.76902 0.08573 0.37731 0.0
C2036 C 0.87796 0.72685 0.41009 0.0
C2037 C 0.89699 0.71749 0.38693 0.0
H2038 H 0.85424 0.76391 0.42894 0.0
C2039 C 0.91473 0.73872 0.37233 0.0
H2040 H 0.86365 0.71084 0.42126 0.0
C2041 C 0.91025 0.76914 0.37776 0.0
C2042 C 0.88711 0.7785 0.39682 0.0
H2043 H 0.92908 0.73207 0.35403 0.0
H2044 H 0.92142 0.78514 0.36344 0.0
C2045 C 0.87254 0.75727 0.41457 0.0
C2046 C 0.23882 0.87235 0.41457 0.0
C2047 C 0.21757 0.88692 0.39686 0.0
H2048 H 0.28526 0.86346 0.42117 0.0
C2049 C 0.22688 0.91008 0.37781 0.0
H2050 H 0.2322 0.85404 0.42894 0.0
C2051 C 0.25729 0.91457 0.37232 0.0
C2052 C 0.27854 0.89682 0.38686 0.0
H2053 H 0.21083 0.92124 0.36353 0.0
H2054 H 0.26389 0.92893 0.354 0.0
C2055 C 0.26923 0.87779 0.41003 0.0
C2056 C 0.08082 0.73857 0.62338 0.0
C2057 C 0.09855 0.71732 0.60881 0.0
H2058 H 0.07417 0.78501 0.63222 0.0
C2059 C 0.11757 0.72664 0.58563 0.0
H2060 H 0.06647 0.73195 0.6417 0.0
C2061 C 0.12302 0.75705 0.58111 0.0
C2062 C 0.10847 0.7783 0.59885 0.0
H2063 H 0.13186 0.7106 0.57447 0.0
H2064 H 0.14132 0.76366 0.56673 0.0
C2065 C 0.08532 0.76899 0.61791 0.0
C2066 C 0.26861 0.11795 0.58569 0.0
C2067 C 0.278 0.09891 0.60882 0.0
H2068 H 0.23152 0.14166 0.56689 0.0
C2069 C 0.25681 0.08116 0.62344 0.0
H2070 H 0.28461 0.13227 0.5745 0.0
C2071 C 0.22638 0.08563 0.61805 0.0
C2072 C 0.21699 0.10877 0.59902 0.0
H2073 H 0.26348 0.0668 0.64173 0.0
H2074 H 0.2104 0.07445 0.6324 0.0
C2075 C 0.23818 0.12336 0.58124 0.0
C2076 C 0.8777 0.26864 0.58538 0.0
C2077 C 0.89669 0.27791 0.6086 0.0
H2078 H 0.85394 0.23166 0.5664 0.0
C2079 C 0.91435 0.25662 0.62318 0.0
H2080 H 0.86345 0.28471 0.5742 0.0
C2081 C 0.90983 0.22622 0.61768 0.0
C2082 C 0.88671 0.21695 0.59856 0.0
H2083 H 0.92867 0.2632 0.64153 0.0
H2084 H 0.92093 0.21016 0.632 0.0
C2085 C 0.87222 0.23824 0.58082 0.0
C2086 C 0.75678 0.87191 0.58113 0.0
C2087 C 0.77807 0.88646 0.59882 0.0
H2088 H 0.71032 0.86309 0.57457 0.0
C2089 C 0.7688 0.90963 0.61788 0.0
H2090 H 0.76336 0.8536 0.56676 0.0
C2091 C 0.7384 0.91415 0.6234 0.0
C2092 C 0.71712 0.89643 0.60888 0.0
H2093 H 0.78487 0.92078 0.63215 0.0
H2094 H 0.73183 0.92852 0.64172 0.0
C2095 C 0.72638 0.87739 0.5857 0.0
C2096 C 0.37807 0.08566 0.22662 0.0
C2097 C 0.3971 0.10886 0.21736 0.0
H2098 H 0.35426 0.06672 0.26358 0.0
C2099 C 0.41476 0.12343 0.23866 0.0
H2100 H 0.36383 0.0745 0.21055 0.0
C2101 C 0.4102 0.11794 0.26906 0.0
C2102 C 0.38705 0.09885 0.27832 0.0
H2103 H 0.42911 0.14177 0.23209 0.0
H2104 H 0.4213 0.13225 0.28512 0.0
C2105 C 0.37256 0.08112 0.25702 0.0
C2106 C 0.87781 0.4102 0.26871 0.0
C2107 C 0.89686 0.38706 0.27808 0.0
H2108 H 0.8541 0.42903 0.23163 0.0
C2109 C 0.91463 0.37249 0.25687 0.0
H2110 H 0.86348 0.42136 0.28471 0.0
C2111 C 0.91017 0.37791 0.22644 0.0
C2112 C 0.88702 0.39694 0.21707 0.0
H2113 H 0.92899 0.3542 0.26353 0.0
H2114 H 0.92135 0.36359 0.21045 0.0
C2115 C 0.87241 0.41468 0.23828 0.0
C2116 C 0.58579 0.87798 0.26914 0.0
C2117 C 0.60894 0.89702 0.27848 0.0
H2118 H 0.56696 0.85422 0.23209 0.0
C2119 C 0.62353 0.91475 0.25724 0.0
H2120 H 0.57462 0.86368 0.28516 0.0
C2121 C 0.61811 0.91024 0.22682 0.0
C2122 C 0.59907 0.88709 0.21748 0.0
H2123 H 0.64183 0.92911 0.26388 0.0
H2124 H 0.63244 0.9214 0.21081 0.0
C2125 C 0.58132 0.87253 0.23872 0.0
C2126 C 0.11801 0.58568 0.26905 0.0
C2127 C 0.09895 0.60883 0.27836 0.0
H2128 H 0.14178 0.56681 0.23203 0.0
C2129 C 0.08122 0.62339 0.25711 0.0
H2130 H 0.1323 0.57453 0.28509 0.0
C2131 C 0.08573 0.61793 0.22669 0.0
C2132 C 0.1089 0.59889 0.21738 0.0
H2133 H 0.06685 0.64169 0.26372 0.0
H2134 H 0.07457 0.63223 0.21066 0.0
C2135 C 0.12346 0.58116 0.23863 0.0
C2136 C 0.37754 0.91002 0.76891 0.0
C2137 C 0.39656 0.88684 0.77823 0.0
H2138 H 0.35384 0.92893 0.73187 0.0
C2139 C 0.41428 0.87226 0.75699 0.0
H2140 H 0.36324 0.92118 0.78494 0.0
C2141 C 0.40981 0.87773 0.72658 0.0
C2142 C 0.38669 0.89681 0.71725 0.0
H2143 H 0.42862 0.85393 0.76362 0.0
H2144 H 0.42097 0.86341 0.71056 0.0
C2145 C 0.37213 0.91455 0.73849 0.0
C2146 C 0.12296 0.41444 0.75704 0.0
C2147 C 0.10836 0.39667 0.77824 0.0
H2148 H 0.13189 0.42117 0.71063 0.0
C2149 C 0.08523 0.37763 0.76886 0.0
H2150 H 0.14124 0.4288 0.76372 0.0
C2151 C 0.08078 0.37222 0.73843 0.0
C2152 C 0.09854 0.38683 0.71723 0.0
H2153 H 0.07405 0.3633 0.78485 0.0
H2154 H 0.06643 0.35392 0.73176 0.0
C2155 C 0.11756 0.40998 0.72661 0.0
C2156 C 0.61732 0.08523 0.76868 0.0
C2157 C 0.5983 0.10842 0.77797 0.0
H2158 H 0.64112 0.06632 0.7317 0.0
C2159 C 0.58062 0.12301 0.75669 0.0
H2160 H 0.63158 0.07406 0.78474 0.0
C2161 C 0.58517 0.11754 0.72628 0.0
C2162 C 0.60831 0.09846 0.717 0.0
H2163 H 0.56627 0.14134 0.76328 0.0
H2164 H 0.57405 0.13186 0.71023 0.0
C2165 C 0.62281 0.08071 0.73828 0.0
C2166 C 0.91434 0.62289 0.73867 0.0
C2167 C 0.89657 0.60832 0.71746 0.0
H2168 H 0.92104 0.63179 0.78509 0.0
C2169 C 0.87751 0.58519 0.72682 0.0
H2170 H 0.92872 0.64117 0.73202 0.0
C2171 C 0.87208 0.58072 0.75724 0.0
C2172 C 0.88668 0.59846 0.77846 0.0
H2173 H 0.86319 0.57403 0.71081 0.0
H2174 H 0.85377 0.56638 0.76389 0.0
C2175 C 0.90986 0.61747 0.7691 0.0
C2176 C 0.22674 0.37786 0.08551 0.0
C2177 C 0.21747 0.39693 0.10866 0.0
H2178 H 0.26372 0.35403 0.06662 0.0
C2179 C 0.23875 0.41466 0.12318 0.0
H2180 H 0.21068 0.36356 0.07439 0.0
C2181 C 0.26916 0.41011 0.1177 0.0
C2182 C 0.27843 0.38692 0.09867 0.0
H2183 H 0.23217 0.42904 0.14149 0.0
H2184 H 0.28521 0.42127 0.13198 0.0
C2185 C 0.25714 0.37236 0.08097 0.0
C2186 C 0.22642 0.61792 0.9101 0.0
C2187 C 0.21715 0.59883 0.88696 0.0
H2188 H 0.26339 0.64177 0.92897 0.0
C2189 C 0.23843 0.58111 0.87244 0.0
H2190 H 0.21035 0.63222 0.92122 0.0
C2191 C 0.26884 0.58567 0.87791 0.0
C2192 C 0.2781 0.60887 0.89693 0.0
H2193 H 0.23185 0.56671 0.85414 0.0
H2194 H 0.28489 0.57451 0.86363 0.0
C2195 C 0.25682 0.62343 0.91462 0.0
C2196 C 0.41416 0.23858 0.87231 0.0
C2197 C 0.39641 0.21736 0.8869 0.0
H2198 H 0.42084 0.285 0.8634 0.0
C2199 C 0.37736 0.22671 0.91004 0.0
H2200 H 0.42853 0.23193 0.85402 0.0
C2201 C 0.37192 0.25714 0.91451 0.0
C2202 C 0.38651 0.27836 0.89675 0.0
H2203 H 0.36305 0.2107 0.92121 0.0
H2204 H 0.35361 0.26378 0.92886 0.0
C2205 C 0.40967 0.269 0.87773 0.0
C2206 C 0.75661 0.41426 0.87212 0.0
C2207 C 0.7779 0.39655 0.88665 0.0
H2208 H 0.71016 0.42085 0.86333 0.0
C2209 C 0.76865 0.37749 0.90982 0.0
H2210 H 0.76319 0.42863 0.8538 0.0
C2211 C 0.73825 0.37199 0.91437 0.0
C2212 C 0.71696 0.38653 0.89666 0.0
H2213 H 0.78471 0.36322 0.92095 0.0
H2214 H 0.73168 0.35367 0.92873 0.0
C2215 C 0.72622 0.40971 0.87762 0.0
C2216 C 0.61772 0.76855 0.91017 0.0
C2217 C 0.59861 0.77789 0.88708 0.0
H2218 H 0.64152 0.73151 0.92895 0.0
C2219 C 0.58084 0.75665 0.87254 0.0
H2220 H 0.63205 0.78458 0.9213 0.0
C2221 C 0.58536 0.72623 0.87796 0.0
C2222 C 0.60857 0.7169 0.89693 0.0
H2223 H 0.56643 0.76329 0.85428 0.0
H2224 H 0.57417 0.71022 0.86367 0.0
C2225 C 0.62318 0.73813 0.91464 0.0
C2226 C 0.73873 0.62348 0.08115 0.0
C2227 C 0.71746 0.60894 0.09887 0.0
H2228 H 0.78518 0.63228 0.07452 0.0
C2229 C 0.72673 0.58577 0.11792 0.0
H2230 H 0.73214 0.6418 0.06678 0.0
C2231 C 0.75714 0.58123 0.12339 0.0
C2232 C 0.77841 0.59894 0.10884 0.0
H2233 H 0.71068 0.57464 0.13221 0.0
H2234 H 0.76372 0.56686 0.14171 0.0
C2235 C 0.76914 0.61799 0.08567 0.0
C2236 C 0.41467 0.75708 0.12313 0.0
C2237 C 0.3969 0.77833 0.1086 0.0
H2238 H 0.42134 0.71065 0.132 0.0
C2239 C 0.3778 0.76899 0.0855 0.0
H2240 H 0.42909 0.76372 0.14139 0.0
C2241 C 0.37232 0.73858 0.08103 0.0
C2242 C 0.38694 0.71734 0.09874 0.0
H2243 H 0.36347 0.78502 0.07438 0.0
H2244 H 0.35398 0.73195 0.06672 0.0
C2245 C 0.41015 0.72667 0.11771 0.0
C2246 C 0.58123 0.23872 0.12303 0.0
C2247 C 0.599 0.21753 0.10843 0.0
H2248 H 0.57451 0.28513 0.13198 0.0
C2249 C 0.61804 0.22692 0.0853 0.0
H2250 H 0.56686 0.23204 0.14132 0.0
C2251 C 0.62345 0.25735 0.08086 0.0
C2252 C 0.60885 0.27855 0.09863 0.0
H2253 H 0.63237 0.21093 0.07412 0.0
H2254 H 0.64175 0.26402 0.06651 0.0
C2255 C 0.58569 0.26916 0.11764 0.0
C2256 C 0.90984 0.76862 0.61803 0.0
C2257 C 0.88674 0.77791 0.5989 0.0
H2258 H 0.92864 0.73163 0.6419 0.0
C2259 C 0.87224 0.75663 0.58115 0.0
H2260 H 0.92094 0.78468 0.63234 0.0
C2261 C 0.87769 0.72622 0.58572 0.0
C2262 C 0.89666 0.71694 0.60895 0.0
H2263 H 0.85398 0.76322 0.56672 0.0
H2264 H 0.86342 0.71017 0.57453 0.0
C2265 C 0.91433 0.73822 0.62354 0.0
C2266 C 0.26874 0.87771 0.5856 0.0
C2267 C 0.27809 0.89678 0.60873 0.0
H2268 H 0.2317 0.85393 0.56679 0.0
C2269 C 0.25685 0.91451 0.62331 0.0
H2270 H 0.28476 0.86341 0.57444 0.0
C2271 C 0.22643 0.90999 0.61791 0.0
C2272 C 0.21709 0.88682 0.59889 0.0
H2273 H 0.26348 0.92889 0.6416 0.0
H2274 H 0.21042 0.92115 0.63223 0.0
C2275 C 0.23832 0.87225 0.58114 0.0
C2276 C 0.08528 0.22662 0.61795 0.0
C2277 C 0.10841 0.21723 0.59891 0.0
H2278 H 0.06647 0.26372 0.64165 0.0
C2279 C 0.123 0.23843 0.58113 0.0
H2280 H 0.0741 0.21063 0.63229 0.0
C2281 C 0.1176 0.26887 0.58559 0.0
C2282 C 0.09857 0.27826 0.60874 0.0
H2283 H 0.14129 0.23176 0.56677 0.0
H2284 H 0.13192 0.28485 0.5744 0.0
C2285 C 0.08081 0.25706 0.62335 0.0
C2286 C 0.7567 0.12304 0.58077 0.0
C2287 C 0.77797 0.10847 0.59846 0.0
H2288 H 0.71025 0.13187 0.57418 0.0
C2289 C 0.76868 0.08529 0.6175 0.0
H2290 H 0.76329 0.14136 0.56641 0.0
C2291 C 0.73828 0.08076 0.62299 0.0
C2292 C 0.71701 0.0985 0.60847 0.0
H2293 H 0.78474 0.07412 0.63177 0.0
H2294 H 0.73169 0.06638 0.6413 0.0
C2295 C 0.72629 0.11756 0.58531 0.0
C2296 C 0.87237 0.23866 0.41422 0.0
C2297 C 0.88694 0.21744 0.39647 0.0
H2298 H 0.86349 0.28509 0.42091 0.0
C2299 C 0.91008 0.22678 0.37742 0.0
H2300 H 0.85408 0.23202 0.42859 0.0
C2301 C 0.91457 0.2572 0.37198 0.0
C2302 C 0.89683 0.27843 0.38657 0.0
H2303 H 0.92124 0.21077 0.3631 0.0
H2304 H 0.92892 0.26384 0.35367 0.0
C2305 C 0.8778 0.26909 0.40973 0.0
C2306 C 0.73875 0.91468 0.37237 0.0
C2307 C 0.71754 0.89693 0.38697 0.0
H2308 H 0.78516 0.92136 0.3634 0.0
C2309 C 0.72692 0.87787 0.4101 0.0
H2310 H 0.73208 0.92905 0.35409 0.0
C2311 C 0.75734 0.87243 0.41453 0.0
C2312 C 0.77855 0.88702 0.39675 0.0
H2313 H 0.71092 0.86355 0.42128 0.0
H2314 H 0.764 0.85412 0.42887 0.0
C2315 C 0.76917 0.91018 0.37775 0.0
C2316 C 0.08577 0.76912 0.37776 0.0
C2317 C 0.10889 0.77842 0.39685 0.0
H2318 H 0.06692 0.73211 0.35396 0.0
C2319 C 0.12342 0.75716 0.4146 0.0
H2320 H 0.07464 0.78516 0.36345 0.0
C2321 C 0.11796 0.72675 0.41007 0.0
C2322 C 0.09895 0.71744 0.38688 0.0
H2323 H 0.1417 0.76377 0.42899 0.0
H2324 H 0.13224 0.71071 0.42125 0.0
C2325 C 0.08125 0.7387 0.37229 0.0
C2326 C 0.22667 0.08573 0.37792 0.0
C2327 C 0.21742 0.10892 0.39697 0.0
H2328 H 0.26361 0.06679 0.35408 0.0
C2329 C 0.23874 0.12347 0.41463 0.0
H2330 H 0.21058 0.07459 0.36367 0.0
C2331 C 0.26913 0.11797 0.41006 0.0
C2332 C 0.27837 0.09889 0.38689 0.0
H2333 H 0.23218 0.1418 0.42899 0.0
H2334 H 0.2852 0.13226 0.42117 0.0
C2335 C 0.25706 0.08118 0.37239 0.0
C2336 C 0.58079 0.87179 0.75714 0.0
C2337 C 0.59846 0.88639 0.77842 0.0
H2338 H 0.57422 0.86295 0.71069 0.0
C2339 C 0.61745 0.90961 0.76914 0.0
H2340 H 0.56647 0.85344 0.76373 0.0
C2341 C 0.62293 0.91415 0.73873 0.0
C2342 C 0.60844 0.89639 0.71745 0.0
H2343 H 0.63169 0.9208 0.78519 0.0
H2344 H 0.6412 0.92857 0.73215 0.0
C2345 C 0.58532 0.87728 0.72673 0.0
C2346 C 0.11767 0.58557 0.72666 0.0
C2347 C 0.09859 0.60871 0.71737 0.0
H2348 H 0.14148 0.56669 0.76365 0.0
C2349 C 0.08087 0.62325 0.73866 0.0
H2350 H 0.13196 0.57444 0.7106 0.0
C2351 C 0.0854 0.61777 0.76906 0.0
C2352 C 0.10858 0.59874 0.77835 0.0
H2353 H 0.06648 0.64154 0.73206 0.0
H2354 H 0.07424 0.63205 0.78511 0.0
C2355 C 0.12315 0.58104 0.75707 0.0
C2356 C 0.37202 0.08117 0.7385 0.0
C2357 C 0.38661 0.09893 0.71729 0.0
H2358 H 0.36307 0.07448 0.78492 0.0
C2359 C 0.40971 0.11801 0.72667 0.0
H2360 H 0.35376 0.06678 0.73183 0.0
C2361 C 0.41414 0.12346 0.7571 0.0
C2362 C 0.39639 0.10885 0.7783 0.0
H2363 H 0.42088 0.13234 0.71067 0.0
H2364 H 0.42846 0.14179 0.76375 0.0
C2365 C 0.3774 0.08567 0.76893 0.0
C2366 C 0.87198 0.41428 0.75675 0.0
C2367 C 0.88651 0.39659 0.77805 0.0
H2368 H 0.86323 0.42086 0.71029 0.0
C2369 C 0.90971 0.37755 0.76881 0.0
H2370 H 0.85365 0.42864 0.76332 0.0
C2371 C 0.91428 0.37205 0.73842 0.0
C2372 C 0.89658 0.38657 0.71712 0.0
H2373 H 0.92084 0.36328 0.78489 0.0
H2374 H 0.92867 0.35374 0.73186 0.0
C2375 C 0.87751 0.40974 0.72636 0.0
C2376 C 0.58128 0.12362 0.23822 0.0
C2377 C 0.59902 0.10902 0.21701 0.0
H2378 H 0.57454 0.13249 0.28465 0.0
C2379 C 0.618 0.08583 0.22636 0.0
H2380 H 0.56696 0.14196 0.23157 0.0
C2381 C 0.62338 0.0813 0.25679 0.0
C2382 C 0.6088 0.09906 0.27801 0.0
H2383 H 0.63231 0.07464 0.21036 0.0
H2384 H 0.64164 0.0669 0.26344 0.0
C2385 C 0.5857 0.11815 0.26865 0.0
C2386 C 0.8724 0.5812 0.23871 0.0
C2387 C 0.88697 0.59891 0.21745 0.0
H2388 H 0.86356 0.57457 0.28515 0.0
C2389 C 0.91014 0.61795 0.22675 0.0
H2390 H 0.85408 0.56685 0.2321 0.0
C2391 C 0.91467 0.62341 0.25716 0.0
C2392 C 0.89693 0.60886 0.27842 0.0
H2393 H 0.92131 0.63223 0.21071 0.0
H2394 H 0.92905 0.64171 0.26376 0.0
C2395 C 0.87787 0.58571 0.26912 0.0
C2396 C 0.41026 0.87765 0.26897 0.0
C2397 C 0.38715 0.89676 0.27827 0.0
H2398 H 0.42908 0.85383 0.23195 0.0
C2399 C 0.37264 0.91453 0.25701 0.0
H2400 H 0.42136 0.86332 0.28501 0.0
C2401 C 0.3781 0.91 0.2266 0.0
C2402 C 0.39709 0.88679 0.21729 0.0
H2403 H 0.35438 0.92894 0.26362 0.0
H2404 H 0.36384 0.9212 0.21056 0.0
C2405 C 0.41477 0.87218 0.23855 0.0
C2406 C 0.11795 0.41018 0.26896 0.0
C2407 C 0.09886 0.38703 0.27822 0.0
H2408 H 0.14181 0.42906 0.232 0.0
C2409 C 0.08114 0.37253 0.25692 0.0
H2410 H 0.13224 0.42129 0.28503 0.0
C2411 C 0.08571 0.37802 0.22652 0.0
C2412 C 0.10891 0.39703 0.21727 0.0
H2413 H 0.06673 0.35423 0.26349 0.0
H2414 H 0.07455 0.36375 0.21046 0.0
C2415 C 0.12347 0.41472 0.23856 0.0
C2416 C 0.75692 0.58076 0.87239 0.0
C2417 C 0.77812 0.59853 0.88698 0.0
H2418 H 0.71051 0.57404 0.86347 0.0
C2419 C 0.76874 0.61756 0.91012 0.0
H2420 H 0.76359 0.5664 0.8541 0.0
C2421 C 0.73831 0.62297 0.91459 0.0
C2422 C 0.71711 0.60837 0.89683 0.0
H2423 H 0.78474 0.63189 0.9213 0.0
H2424 H 0.73165 0.64127 0.92895 0.0
C2425 C 0.72649 0.58522 0.8778 0.0
C2426 C 0.75724 0.41465 0.12316 0.0
C2427 C 0.77845 0.3969 0.10855 0.0
H2428 H 0.71083 0.42137 0.13209 0.0
C2429 C 0.76907 0.37787 0.08541 0.0
H2430 H 0.76391 0.429 0.14146 0.0
C2431 C 0.73864 0.37246 0.08094 0.0
C2432 C 0.71743 0.38705 0.09871 0.0
H2433 H 0.78506 0.36355 0.07422 0.0
H2434 H 0.73198 0.35417 0.06658 0.0
C2435 C 0.72681 0.41019 0.11775 0.0
C2436 C 0.58575 0.72686 0.11795 0.0
C2437 C 0.60889 0.71758 0.09886 0.0
H2438 H 0.56689 0.76384 0.14179 0.0
C2439 C 0.62343 0.73886 0.08114 0.0
H2440 H 0.57462 0.71079 0.13223 0.0
C2441 C 0.61796 0.76927 0.0857 0.0
C2442 C 0.59894 0.77854 0.1089 0.0
H2443 H 0.64173 0.73228 0.06675 0.0
H2444 H 0.63225 0.78532 0.07455 0.0
C2445 C 0.58124 0.75726 0.12345 0.0
C2446 C 0.22674 0.61788 0.08562 0.0
C2447 C 0.21742 0.59885 0.10878 0.0
H2448 H 0.26377 0.64163 0.06672 0.0
C2449 C 0.23867 0.58111 0.12335 0.0
H2450 H 0.21071 0.63218 0.07446 0.0
C2451 C 0.26909 0.58561 0.11788 0.0
C2452 C 0.27841 0.60876 0.09882 0.0
H2453 H 0.23205 0.56676 0.14166 0.0
H2454 H 0.28511 0.57445 0.13219 0.0
C2455 C 0.25716 0.62332 0.08109 0.0
C2456 C 0.37791 0.22664 0.08554 0.0
C2457 C 0.397 0.21737 0.10868 0.0
H2458 H 0.35408 0.26361 0.06665 0.0
C2459 C 0.41472 0.23866 0.12319 0.0
H2460 H 0.36362 0.21057 0.07443 0.0
C2461 C 0.41017 0.26907 0.1177 0.0
C2462 C 0.38698 0.27833 0.09868 0.0
H2463 H 0.42912 0.23209 0.14148 0.0
H2464 H 0.42133 0.28513 0.13197 0.0
C2465 C 0.37242 0.25704 0.081 0.0
C2466 C 0.22627 0.37773 0.90995 0.0
C2467 C 0.21691 0.39675 0.88679 0.0
H2468 H 0.26332 0.35402 0.92883 0.0
C2469 C 0.23814 0.41449 0.87219 0.0
H2470 H 0.21025 0.36342 0.92112 0.0
C2471 C 0.26857 0.41002 0.87763 0.0
C2472 C 0.27792 0.38689 0.8967 0.0
H2473 H 0.2315 0.42883 0.85388 0.0
H2474 H 0.28457 0.42118 0.86331 0.0
C2475 C 0.25669 0.37231 0.91445 0.0
C2476 C 0.61745 0.2262 0.90979 0.0
C2477 C 0.59838 0.21695 0.88663 0.0
H2478 H 0.64127 0.26316 0.92871 0.0
C2479 C 0.58067 0.23825 0.87212 0.0
H2480 H 0.63174 0.21012 0.9209 0.0
C2481 C 0.58522 0.26865 0.87762 0.0
C2482 C 0.6084 0.2779 0.89667 0.0
H2483 H 0.56629 0.23168 0.85381 0.0
H2484 H 0.57407 0.28471 0.86336 0.0
C2485 C 0.62295 0.2566 0.91435 0.0
C2486 C 0.37218 0.73866 0.91461 0.0
C2487 C 0.38673 0.7174 0.89688 0.0
H2488 H 0.36333 0.78511 0.92124 0.0
C2489 C 0.40987 0.72671 0.87782 0.0
H2490 H 0.35388 0.73205 0.92899 0.0
C2491 C 0.41438 0.75712 0.87234 0.0
C2492 C 0.39665 0.77838 0.8869 0.0
H2493 H 0.42102 0.71067 0.86352 0.0
H2494 H 0.42873 0.76372 0.85401 0.0
C2495 C 0.37763 0.76908 0.91009 0.0
loop_
_geom_bond_atom_site_label_1
_geom_bond_atom_site_label_2
_geom_bond_distance
_geom_bond_site_symmetry_2
_ccdc_geom_bond_type
Sc0 O3 2.025 . S
Sc0 O10 2.105 . S
Sc0 O13 2.105 . S
Sc0 O16 2.105 . S
Sc0 O19 2.105 . S
Sc1 O3 2.025 . S
Sc1 O11 2.105 . S
Sc1 O15 2.105 . S
Sc1 O17 2.105 . S
Sc1 O21 2.105 . S
Sc2 O3 2.025 . S
Sc2 O12 2.105 . S
Sc2 O14 2.105 . S
Sc2 O18 2.105 . S
Sc2 O20 2.105 . S
O3 Sc0 2.025 . S
O3 Sc1 2.025 . S
O3 Sc2 2.025 . S
C4 O10 1.268 . S
C4 O20 1.268 . S
C5 O11 1.268 . S
C5 O19 1.268 . S
C6 O12 1.268 . S
C6 O21 1.268 . S
C7 O13 1.268 . S
C7 O17 1.268 . S
C8 O14 1.268 . S
C8 O16 1.268 . S
C9 O15 1.268 . S
C9 O18 1.268 . S
O10 Sc0 2.105 . S
O10 C4 1.268 . S
O11 Sc1 2.105 . S
O11 C5 1.268 . S
O12 Sc2 2.105 . S
O12 C6 1.268 . S
O13 Sc0 2.105 . S
O13 C7 1.268 . S
O14 Sc2 2.105 . S
O14 C8 1.268 . S
O15 Sc1 2.105 . S
O15 C9 1.268 . S
O16 Sc0 2.105 . S
O16 C8 1.268 . S
O17 Sc1 2.105 . S
O17 C7 1.268 . S
O18 Sc2 2.105 . S
O18 C9 1.268 . S
O19 Sc0 2.105 . S
O19 C5 1.268 . S
O20 Sc2 2.105 . S
O20 C4 1.268 . S
O21 Sc1 2.105 . S
O21 C6 1.268 . S
Sc22 O25 2.025 . S
Sc22 O32 2.105 . S
Sc22 O35 2.105 . S
Sc22 O38 2.105 . S
Sc22 O41 2.105 . S
Sc23 O25 2.025 . S
Sc23 O33 2.105 . S
Sc23 O37 2.105 . S
Sc23 O39 2.105 . S
Sc23 O43 2.105 . S
Sc24 O25 2.025 . S
Sc24 O34 2.105 . S
Sc24 O36 2.105 . S
Sc24 O40 2.105 . S
Sc24 O42 2.105 . S
O25 Sc22 2.025 . S
O25 Sc23 2.025 . S
O25 Sc24 2.025 . S
C26 O32 1.268 . S
C26 O42 1.268 . S
C27 O33 1.268 . S
C27 O41 1.268 . S
C28 O34 1.268 . S
C28 O43 1.268 . S
C29 O35 1.268 . S
C29 O39 1.268 . S
C30 O36 1.268 . S
C30 O38 1.268 . S
C31 O37 1.268 . S
C31 O40 1.268 . S
O32 Sc22 2.105 . S
O32 C26 1.268 . S
O33 Sc23 2.105 . S
O33 C27 1.268 . S
O34 Sc24 2.105 . S
O34 C28 1.268 . S
O35 Sc22 2.105 . S
O35 C29 1.268 . S
O36 Sc24 2.105 . S
O36 C30 1.268 . S
O37 Sc23 2.105 . S
O37 C31 1.268 . S
O38 Sc22 2.105 . S
O38 C30 1.268 . S
O39 Sc23 2.105 . S
O39 C29 1.268 . S
O40 Sc24 2.105 . S
O40 C31 1.268 . S
O41 Sc22 2.105 . S
O41 C27 1.268 . S
O42 Sc24 2.105 . S
O42 C26 1.268 . S
O43 Sc23 2.105 . S
O43 C28 1.268 . S
Sc44 O47 2.025 . S
Sc44 O54 2.105 . S
Sc44 O57 2.105 . S
Sc44 O60 2.105 . S
Sc44 O63 2.105 . S
Sc45 O47 2.025 . S
Sc45 O55 2.105 . S
Sc45 O59 2.105 . S
Sc45 O61 2.105 . S
Sc45 O65 2.105 . S
Sc46 O47 2.025 . S
Sc46 O56 2.105 . S
Sc46 O58 2.105 . S
Sc46 O62 2.105 . S
Sc46 O64 2.105 . S
O47 Sc44 2.025 . S
O47 Sc45 2.025 . S
O47 Sc46 2.025 . S
C48 O54 1.268 . S
C48 O64 1.268 . S
C49 O55 1.268 . S
C49 O63 1.268 . S
C50 O56 1.268 . S
C50 O65 1.268 . S
C51 O57 1.268 . S
C51 O61 1.268 . S
C52 O58 1.268 . S
C52 O60 1.268 . S
C53 O59 1.268 . S
C53 O62 1.268 . S
O54 Sc44 2.105 . S
O54 C48 1.268 . S
O55 Sc45 2.105 . S
O55 C49 1.268 . S
O56 Sc46 2.105 . S
O56 C50 1.268 . S
O57 Sc44 2.105 . S
O57 C51 1.268 . S
O58 Sc46 2.105 . S
O58 C52 1.268 . S
O59 Sc45 2.105 . S
O59 C53 1.268 . S
O60 Sc44 2.105 . S
O60 C52 1.268 . S
O61 Sc45 2.105 . S
O61 C51 1.268 . S
O62 Sc46 2.105 . S
O62 C53 1.268 . S
O63 Sc44 2.105 . S
O63 C49 1.268 . S
O64 Sc46 2.105 . S
O64 C48 1.268 . S
O65 Sc45 2.105 . S
O65 C50 1.268 . S
Sc66 O69 2.025 . S
Sc66 O76 2.105 . S
Sc66 O79 2.105 . S
Sc66 O82 2.105 . S
Sc66 O85 2.105 . S
Sc67 O69 2.025 . S
Sc67 O77 2.105 . S
Sc67 O81 2.105 . S
Sc67 O83 2.105 . S
Sc67 O87 2.105 . S
Sc68 O69 2.025 . S
Sc68 O78 2.105 . S
Sc68 O80 2.105 . S
Sc68 O84 2.105 . S
Sc68 O86 2.105 . S
O69 Sc66 2.025 . S
O69 Sc67 2.025 . S
O69 Sc68 2.025 . S
C70 O76 1.268 . S
C70 O86 1.268 . S
C71 O77 1.268 . S
C71 O85 1.268 . S
C72 O78 1.268 . S
C72 O87 1.268 . S
C73 O79 1.268 . S
C73 O83 1.268 . S
C74 O80 1.268 . S
C74 O82 1.268 . S
C75 O81 1.268 . S
C75 O84 1.268 . S
O76 Sc66 2.105 . S
O76 C70 1.268 . S
O77 Sc67 2.105 . S
O77 C71 1.268 . S
O78 Sc68 2.105 . S
O78 C72 1.268 . S
O79 Sc66 2.105 . S
O79 C73 1.268 . S
O80 Sc68 2.105 . S
O80 C74 1.268 . S
O81 Sc67 2.105 . S
O81 C75 1.268 . S
O82 Sc66 2.105 . S
O82 C74 1.268 . S
O83 Sc67 2.105 . S
O83 C73 1.268 . S
O84 Sc68 2.105 . S
O84 C75 1.268 . S
O85 Sc66 2.105 . S
O85 C71 1.268 . S
O86 Sc68 2.105 . S
O86 C70 1.268 . S
O87 Sc67 2.105 . S
O87 C72 1.268 . S
Sc88 O91 2.025 . S
Sc88 O98 2.105 . S
Sc88 O101 2.105 . S
Sc88 O104 2.105 . S
Sc88 O107 2.105 . S
Sc89 O91 2.025 . S
Sc89 O99 2.105 . S
Sc89 O103 2.105 . S
Sc89 O105 2.105 . S
Sc89 O109 2.105 . S
Sc90 O91 2.025 . S
Sc90 O100 2.105 . S
Sc90 O102 2.105 . S
Sc90 O106 2.105 . S
Sc90 O108 2.105 . S
O91 Sc88 2.025 . S
O91 Sc89 2.025 . S
O91 Sc90 2.025 . S
C92 O98 1.268 . S
C92 O108 1.268 . S
C93 O99 1.268 . S
C93 O107 1.268 . S
C94 O100 1.268 . S
C94 O109 1.268 . S
C95 O101 1.268 . S
C95 O105 1.268 . S
C96 O102 1.268 . S
C96 O104 1.268 . S
C97 O103 1.268 . S
C97 O106 1.268 . S
O98 Sc88 2.105 . S
O98 C92 1.268 . S
O99 Sc89 2.105 . S
O99 C93 1.268 . S
O100 Sc90 2.105 . S
O100 C94 1.268 . S
O101 Sc88 2.105 . S
O101 C95 1.268 . S
O102 Sc90 2.105 . S
O102 C96 1.268 . S
O103 Sc89 2.105 . S
O103 C97 1.268 . S
O104 Sc88 2.105 . S
O104 C96 1.268 . S
O105 Sc89 2.105 . S
O105 C95 1.268 . S
O106 Sc90 2.105 . S
O106 C97 1.268 . S
O107 Sc88 2.105 . S
O107 C93 1.268 . S
O108 Sc90 2.105 . S
O108 C92 1.268 . S
O109 Sc89 2.105 . S
O109 C94 1.268 . S
Sc110 O113 2.025 . S
Sc110 O120 2.105 . S
Sc110 O123 2.105 . S
Sc110 O126 2.105 . S
Sc110 O129 2.105 . S
Sc111 O113 2.025 . S
Sc111 O121 2.105 . S
Sc111 O125 2.105 . S
Sc111 O127 2.105 . S
Sc111 O131 2.105 . S
Sc112 O113 2.025 . S
Sc112 O122 2.105 . S
Sc112 O124 2.105 . S
Sc112 O128 2.105 . S
Sc112 O130 2.105 . S
O113 Sc110 2.025 . S
O113 Sc111 2.025 . S
O113 Sc112 2.025 . S
C114 O120 1.268 . S
C114 O130 1.268 . S
C115 O121 1.268 . S
C115 O129 1.268 . S
C116 O122 1.268 . S
C116 O131 1.268 . S
C117 O123 1.268 . S
C117 O127 1.268 . S
C118 O124 1.268 . S
C118 O126 1.268 . S
C119 O125 1.268 . S
C119 O128 1.268 . S
O120 Sc110 2.105 . S
O120 C114 1.268 . S
O121 Sc111 2.105 . S
O121 C115 1.268 . S
O122 Sc112 2.105 . S
O122 C116 1.268 . S
O123 Sc110 2.105 . S
O123 C117 1.268 . S
O124 Sc112 2.105 . S
O124 C118 1.268 . S
O125 Sc111 2.105 . S
O125 C119 1.268 . S
O126 Sc110 2.105 . S
O126 C118 1.268 . S
O127 Sc111 2.105 . S
O127 C117 1.268 . S
O128 Sc112 2.105 . S
O128 C119 1.268 . S
O129 Sc110 2.105 . S
O129 C115 1.268 . S
O130 Sc112 2.105 . S
O130 C114 1.268 . S
O131 Sc111 2.105 . S
O131 C116 1.268 . S
Sc132 O135 2.025 . S
Sc132 O142 2.105 . S
Sc132 O145 2.105 . S
Sc132 O148 2.105 . S
Sc132 O151 2.105 . S
Sc133 O135 2.025 . S
Sc133 O143 2.105 . S
Sc133 O147 2.105 . S
Sc133 O149 2.105 . S
Sc133 O153 2.105 . S
Sc134 O135 2.025 . S
Sc134 O144 2.105 . S
Sc134 O146 2.105 . S
Sc134 O150 2.105 . S
Sc134 O152 2.105 . S
O135 Sc132 2.025 . S
O135 Sc133 2.025 . S
O135 Sc134 2.025 . S
C136 O142 1.268 . S
C136 O152 1.268 . S
C137 O143 1.268 . S
C137 O151 1.268 . S
C138 O144 1.268 . S
C138 O153 1.268 . S
C139 O145 1.268 . S
C139 O149 1.268 . S
C140 O146 1.268 . S
C140 O148 1.268 . S
C141 O147 1.268 . S
C141 O150 1.268 . S
O142 Sc132 2.105 . S
O142 C136 1.268 . S
O143 Sc133 2.105 . S
O143 C137 1.268 . S
O144 Sc134 2.105 . S
O144 C138 1.268 . S
O145 Sc132 2.105 . S
O145 C139 1.268 . S
O146 Sc134 2.105 . S
O146 C140 1.268 . S
O147 Sc133 2.105 . S
O147 C141 1.268 . S
O148 Sc132 2.105 . S
O148 C140 1.268 . S
O149 Sc133 2.105 . S
O149 C139 1.268 . S
O150 Sc134 2.105 . S
O150 C141 1.268 . S
O151 Sc132 2.105 . S
O151 C137 1.268 . S
O152 Sc134 2.105 . S
O152 C136 1.268 . S
O153 Sc133 2.105 . S
O153 C138 1.268 . S
Sc154 O157 2.025 . S
Sc154 O164 2.105 . S
Sc154 O167 2.105 . S
Sc154 O170 2.105 . S
Sc154 O173 2.105 . S
Sc155 O157 2.025 . S
Sc155 O165 2.105 . S
Sc155 O169 2.105 . S
Sc155 O171 2.105 . S
Sc155 O175 2.105 . S
Sc156 O157 2.025 . S
Sc156 O166 2.105 . S
Sc156 O168 2.105 . S
Sc156 O172 2.105 . S
Sc156 O174 2.105 . S
O157 Sc154 2.025 . S
O157 Sc155 2.025 . S
O157 Sc156 2.025 . S
C158 O164 1.268 . S
C158 O174 1.268 . S
C159 O165 1.268 . S
C159 O173 1.268 . S
C160 O166 1.268 . S
C160 O175 1.268 . S
C161 O167 1.268 . S
C161 O171 1.268 . S
C162 O168 1.268 . S
C162 O170 1.268 . S
C163 O169 1.268 . S
C163 O172 1.268 . S
O164 Sc154 2.105 . S
O164 C158 1.268 . S
O165 Sc155 2.105 . S
O165 C159 1.268 . S
O166 Sc156 2.105 . S
O166 C160 1.268 . S
O167 Sc154 2.105 . S
O167 C161 1.268 . S
O168 Sc156 2.105 . S
O168 C162 1.268 . S
O169 Sc155 2.105 . S
O169 C163 1.268 . S
O170 Sc154 2.105 . S
O170 C162 1.268 . S
O171 Sc155 2.105 . S
O171 C161 1.268 . S
O172 Sc156 2.105 . S
O172 C163 1.268 . S
O173 Sc154 2.105 . S
O173 C159 1.268 . S
O174 Sc156 2.105 . S
O174 C158 1.268 . S
O175 Sc155 2.105 . S
O175 C160 1.268 . S
Sc176 O179 2.025 . S
Sc176 O186 2.105 . S
Sc176 O189 2.105 . S
Sc176 O192 2.105 . S
Sc176 O195 2.105 . S
Sc177 O179 2.025 . S
Sc177 O187 2.105 . S
Sc177 O191 2.105 . S
Sc177 O193 2.105 . S
Sc177 O197 2.105 . S
Sc178 O179 2.025 . S
Sc178 O188 2.105 . S
Sc178 O190 2.105 . S
Sc178 O194 2.105 . S
Sc178 O196 2.105 . S
O179 Sc176 2.025 . S
O179 Sc177 2.025 . S
O179 Sc178 2.025 . S
C180 O186 1.268 . S
C180 O196 1.268 . S
C181 O187 1.268 . S
C181 O195 1.268 . S
C182 O188 1.268 . S
C182 O197 1.268 . S
C183 O189 1.268 . S
C183 O193 1.268 . S
C184 O190 1.268 . S
C184 O192 1.268 . S
C185 O191 1.268 . S
C185 O194 1.268 . S
O186 Sc176 2.105 . S
O186 C180 1.268 . S
O187 Sc177 2.105 . S
O187 C181 1.268 . S
O188 Sc178 2.105 . S
O188 C182 1.268 . S
O189 Sc176 2.105 . S
O189 C183 1.268 . S
O190 Sc178 2.105 . S
O190 C184 1.268 . S
O191 Sc177 2.105 . S
O191 C185 1.268 . S
O192 Sc176 2.105 . S
O192 C184 1.268 . S
O193 Sc177 2.105 . S
O193 C183 1.268 . S
O194 Sc178 2.105 . S
O194 C185 1.268 . S
O195 Sc176 2.105 . S
O195 C181 1.268 . S
O196 Sc178 2.105 . S
O196 C180 1.268 . S
O197 Sc177 2.105 . S
O197 C182 1.268 . S
Sc198 O201 2.025 . S
Sc198 O208 2.105 . S
Sc198 O211 2.105 . S
Sc198 O214 2.105 . S
Sc198 O217 2.105 . S
Sc199 O201 2.025 . S
Sc199 O209 2.105 . S
Sc199 O213 2.105 . S
Sc199 O215 2.105 . S
Sc199 O219 2.105 . S
Sc200 O201 2.025 . S
Sc200 O210 2.105 . S
Sc200 O212 2.105 . S
Sc200 O216 2.105 . S
Sc200 O218 2.105 . S
O201 Sc198 2.025 . S
O201 Sc199 2.025 . S
O201 Sc200 2.025 . S
C202 O208 1.268 . S
C202 O218 1.268 . S
C203 O209 1.268 . S
C203 O217 1.268 . S
C204 O210 1.268 . S
C204 O219 1.268 . S
C205 O211 1.268 . S
C205 O215 1.268 . S
C206 O212 1.268 . S
C206 O214 1.268 . S
C207 O213 1.268 . S
C207 O216 1.268 . S
O208 Sc198 2.105 . S
O208 C202 1.268 . S
O209 Sc199 2.105 . S
O209 C203 1.268 . S
O210 Sc200 2.105 . S
O210 C204 1.268 . S
O211 Sc198 2.105 . S
O211 C205 1.268 . S
O212 Sc200 2.105 . S
O212 C206 1.268 . S
O213 Sc199 2.105 . S
O213 C207 1.268 . S
O214 Sc198 2.105 . S
O214 C206 1.268 . S
O215 Sc199 2.105 . S
O215 C205 1.268 . S
O216 Sc200 2.105 . S
O216 C207 1.268 . S
O217 Sc198 2.105 . S
O217 C203 1.268 . S
O218 Sc200 2.105 . S
O218 C202 1.268 . S
O219 Sc199 2.105 . S
O219 C204 1.268 . S
Sc220 O223 2.025 . S
Sc220 O230 2.105 . S
Sc220 O233 2.105 . S
Sc220 O236 2.105 . S
Sc220 O239 2.105 . S
Sc221 O223 2.025 . S
Sc221 O231 2.105 . S
Sc221 O235 2.105 . S
Sc221 O237 2.105 . S
Sc221 O241 2.105 . S
Sc222 O223 2.025 . S
Sc222 O232 2.105 . S
Sc222 O234 2.105 . S
Sc222 O238 2.105 . S
Sc222 O240 2.105 . S
O223 Sc220 2.025 . S
O223 Sc221 2.025 . S
O223 Sc222 2.025 . S
C224 O230 1.268 . S
C224 O240 1.268 . S
C225 O231 1.268 . S
C225 O239 1.268 . S
C226 O232 1.268 . S
C226 O241 1.268 . S
C227 O233 1.268 . S
C227 O237 1.268 . S
C228 O234 1.268 . S
C228 O236 1.268 . S
C229 O235 1.268 . S
C229 O238 1.268 . S
O230 Sc220 2.105 . S
O230 C224 1.268 . S
O231 Sc221 2.105 . S
O231 C225 1.268 . S
O232 Sc222 2.105 . S
O232 C226 1.268 . S
O233 Sc220 2.105 . S
O233 C227 1.268 . S
O234 Sc222 2.105 . S
O234 C228 1.268 . S
O235 Sc221 2.105 . S
O235 C229 1.268 . S
O236 Sc220 2.105 . S
O236 C228 1.268 . S
O237 Sc221 2.105 . S
O237 C227 1.268 . S
O238 Sc222 2.105 . S
O238 C229 1.268 . S
O239 Sc220 2.105 . S
O239 C225 1.268 . S
O240 Sc222 2.105 . S
O240 C224 1.268 . S
O241 Sc221 2.105 . S
O241 C226 1.268 . S
Sc242 O245 2.025 . S
Sc242 O252 2.105 . S
Sc242 O255 2.105 . S
Sc242 O258 2.105 . S
Sc242 O261 2.105 . S
Sc243 O245 2.025 . S
Sc243 O253 2.105 . S
Sc243 O257 2.105 . S
Sc243 O259 2.105 . S
Sc243 O263 2.105 . S
Sc244 O245 2.025 . S
Sc244 O254 2.105 . S
Sc244 O256 2.105 . S
Sc244 O260 2.105 . S
Sc244 O262 2.105 . S
O245 Sc242 2.025 . S
O245 Sc243 2.025 . S
O245 Sc244 2.025 . S
C246 O252 1.268 . S
C246 O262 1.268 . S
C247 O253 1.268 . S
C247 O261 1.268 . S
C248 O254 1.268 . S
C248 O263 1.268 . S
C249 O255 1.268 . S
C249 O259 1.268 . S
C250 O256 1.268 . S
C250 O258 1.268 . S
C251 O257 1.268 . S
C251 O260 1.268 . S
O252 Sc242 2.105 . S
O252 C246 1.268 . S
O253 Sc243 2.105 . S
O253 C247 1.268 . S
O254 Sc244 2.105 . S
O254 C248 1.268 . S
O255 Sc242 2.105 . S
O255 C249 1.268 . S
O256 Sc244 2.105 . S
O256 C250 1.268 . S
O257 Sc243 2.105 . S
O257 C251 1.268 . S
O258 Sc242 2.105 . S
O258 C250 1.268 . S
O259 Sc243 2.105 . S
O259 C249 1.268 . S
O260 Sc244 2.105 . S
O260 C251 1.268 . S
O261 Sc242 2.105 . S
O261 C247 1.268 . S
O262 Sc244 2.105 . S
O262 C246 1.268 . S
O263 Sc243 2.105 . S
O263 C248 1.268 . S
Sc264 O267 2.025 . S
Sc264 O274 2.105 . S
Sc264 O277 2.105 . S
Sc264 O280 2.105 . S
Sc264 O283 2.105 . S
Sc265 O267 2.025 . S
Sc265 O275 2.105 . S
Sc265 O279 2.105 . S
Sc265 O281 2.105 . S
Sc265 O285 2.105 . S
Sc266 O267 2.025 . S
Sc266 O276 2.105 . S
Sc266 O278 2.105 . S
Sc266 O282 2.105 . S
Sc266 O284 2.105 . S
O267 Sc264 2.025 . S
O267 Sc265 2.025 . S
O267 Sc266 2.025 . S
C268 O274 1.268 . S
C268 O284 1.268 . S
C269 O275 1.268 . S
C269 O283 1.268 . S
C270 O276 1.268 . S
C270 O285 1.268 . S
C271 O277 1.268 . S
C271 O281 1.268 . S
C272 O278 1.268 . S
C272 O280 1.268 . S
C273 O279 1.268 . S
C273 O282 1.268 . S
O274 Sc264 2.105 . S
O274 C268 1.268 . S
O275 Sc265 2.105 . S
O275 C269 1.268 . S
O276 Sc266 2.105 . S
O276 C270 1.268 . S
O277 Sc264 2.105 . S
O277 C271 1.268 . S
O278 Sc266 2.105 . S
O278 C272 1.268 . S
O279 Sc265 2.105 . S
O279 C273 1.268 . S
O280 Sc264 2.105 . S
O280 C272 1.268 . S
O281 Sc265 2.105 . S
O281 C271 1.268 . S
O282 Sc266 2.105 . S
O282 C273 1.268 . S
O283 Sc264 2.105 . S
O283 C269 1.268 . S
O284 Sc266 2.105 . S
O284 C268 1.268 . S
O285 Sc265 2.105 . S
O285 C270 1.268 . S
Sc286 O289 2.025 . S
Sc286 O296 2.105 . S
Sc286 O299 2.105 . S
Sc286 O302 2.105 . S
Sc286 O305 2.105 . S
Sc287 O289 2.025 . S
Sc287 O297 2.105 . S
Sc287 O301 2.105 . S
Sc287 O303 2.105 . S
Sc287 O307 2.105 . S
Sc288 O289 2.025 . S
Sc288 O298 2.105 . S
Sc288 O300 2.105 . S
Sc288 O304 2.105 . S
Sc288 O306 2.105 . S
O289 Sc286 2.025 . S
O289 Sc287 2.025 . S
O289 Sc288 2.025 . S
C290 O296 1.268 . S
C290 O306 1.268 . S
C291 O297 1.268 . S
C291 O305 1.268 . S
C292 O298 1.268 . S
C292 O307 1.268 . S
C293 O299 1.268 . S
C293 O303 1.268 . S
C294 O300 1.268 . S
C294 O302 1.268 . S
C295 O301 1.268 . S
C295 O304 1.268 . S
O296 Sc286 2.105 . S
O296 C290 1.268 . S
O297 Sc287 2.105 . S
O297 C291 1.268 . S
O298 Sc288 2.105 . S
O298 C292 1.268 . S
O299 Sc286 2.105 . S
O299 C293 1.268 . S
O300 Sc288 2.105 . S
O300 C294 1.268 . S
O301 Sc287 2.105 . S
O301 C295 1.268 . S
O302 Sc286 2.105 . S
O302 C294 1.268 . S
O303 Sc287 2.105 . S
O303 C293 1.268 . S
O304 Sc288 2.105 . S
O304 C295 1.268 . S
O305 Sc286 2.105 . S
O305 C291 1.268 . S
O306 Sc288 2.105 . S
O306 C290 1.268 . S
O307 Sc287 2.105 . S
O307 C292 1.268 . S
Sc308 O311 2.025 . S
Sc308 O318 2.105 . S
Sc308 O321 2.105 . S
Sc308 O324 2.105 . S
Sc308 O327 2.105 . S
Sc309 O311 2.025 . S
Sc309 O319 2.105 . S
Sc309 O323 2.105 . S
Sc309 O325 2.105 . S
Sc309 O329 2.105 . S
Sc310 O311 2.025 . S
Sc310 O320 2.105 . S
Sc310 O322 2.105 . S
Sc310 O326 2.105 . S
Sc310 O328 2.105 . S
O311 Sc308 2.025 . S
O311 Sc309 2.025 . S
O311 Sc310 2.025 . S
C312 O318 1.268 . S
C312 O328 1.268 . S
C313 O319 1.268 . S
C313 O327 1.268 . S
C314 O320 1.268 . S
C314 O329 1.268 . S
C315 O321 1.268 . S
C315 O325 1.268 . S
C316 O322 1.268 . S
C316 O324 1.268 . S
C317 O323 1.268 . S
C317 O326 1.268 . S
O318 Sc308 2.105 . S
O318 C312 1.268 . S
O319 Sc309 2.105 . S
O319 C313 1.268 . S
O320 Sc310 2.105 . S
O320 C314 1.268 . S
O321 Sc308 2.105 . S
O321 C315 1.268 . S
O322 Sc310 2.105 . S
O322 C316 1.268 . S
O323 Sc309 2.105 . S
O323 C317 1.268 . S
O324 Sc308 2.105 . S
O324 C316 1.268 . S
O325 Sc309 2.105 . S
O325 C315 1.268 . S
O326 Sc310 2.105 . S
O326 C317 1.268 . S
O327 Sc308 2.105 . S
O327 C313 1.268 . S
O328 Sc310 2.105 . S
O328 C312 1.268 . S
O329 Sc309 2.105 . S
O329 C314 1.268 . S
Sc330 O333 2.025 . S
Sc330 O340 2.105 . S
Sc330 O343 2.105 . S
Sc330 O346 2.105 . S
Sc330 O349 2.105 . S
Sc331 O333 2.025 . S
Sc331 O341 2.105 . S
Sc331 O345 2.105 . S
Sc331 O347 2.105 . S
Sc331 O351 2.105 . S
Sc332 O333 2.025 . S
Sc332 O342 2.105 . S
Sc332 O344 2.105 . S
Sc332 O348 2.105 . S
Sc332 O350 2.105 . S
O333 Sc330 2.025 . S
O333 Sc331 2.025 . S
O333 Sc332 2.025 . S
C334 O340 1.268 . S
C334 O350 1.268 . S
C335 O341 1.268 . S
C335 O349 1.268 . S
C336 O342 1.268 . S
C336 O351 1.268 . S
C337 O343 1.268 . S
C337 O347 1.268 . S
C338 O344 1.268 . S
C338 O346 1.268 . S
C339 O345 1.268 . S
C339 O348 1.268 . S
O340 Sc330 2.105 . S
O340 C334 1.268 . S
O341 Sc331 2.105 . S
O341 C335 1.268 . S
O342 Sc332 2.105 . S
O342 C336 1.268 . S
O343 Sc330 2.105 . S
O343 C337 1.268 . S
O344 Sc332 2.105 . S
O344 C338 1.268 . S
O345 Sc331 2.105 . S
O345 C339 1.268 . S
O346 Sc330 2.105 . S
O346 C338 1.268 . S
O347 Sc331 2.105 . S
O347 C337 1.268 . S
O348 Sc332 2.105 . S
O348 C339 1.268 . S
O349 Sc330 2.105 . S
O349 C335 1.268 . S
O350 Sc332 2.105 . S
O350 C334 1.268 . S
O351 Sc331 2.105 . S
O351 C336 1.268 . S
Sc352 O355 2.025 . S
Sc352 O362 2.105 . S
Sc352 O365 2.105 . S
Sc352 O368 2.105 . S
Sc352 O371 2.105 . S
Sc353 O355 2.025 . S
Sc353 O363 2.105 . S
Sc353 O367 2.105 . S
Sc353 O369 2.105 . S
Sc353 O373 2.105 . S
Sc354 O355 2.025 . S
Sc354 O364 2.105 . S
Sc354 O366 2.105 . S
Sc354 O370 2.105 . S
Sc354 O372 2.105 . S
O355 Sc352 2.025 . S
O355 Sc353 2.025 . S
O355 Sc354 2.025 . S
C356 O362 1.268 . S
C356 O372 1.268 . S
C357 O363 1.268 . S
C357 O371 1.268 . S
C358 O364 1.268 . S
C358 O373 1.268 . S
C359 O365 1.268 . S
C359 O369 1.268 . S
C360 O366 1.268 . S
C360 O368 1.268 . S
C361 O367 1.268 . S
C361 O370 1.268 . S
O362 Sc352 2.105 . S
O362 C356 1.268 . S
O363 Sc353 2.105 . S
O363 C357 1.268 . S
O364 Sc354 2.105 . S
O364 C358 1.268 . S
O365 Sc352 2.105 . S
O365 C359 1.268 . S
O366 Sc354 2.105 . S
O366 C360 1.268 . S
O367 Sc353 2.105 . S
O367 C361 1.268 . S
O368 Sc352 2.105 . S
O368 C360 1.268 . S
O369 Sc353 2.105 . S
O369 C359 1.268 . S
O370 Sc354 2.105 . S
O370 C361 1.268 . S
O371 Sc352 2.105 . S
O371 C357 1.268 . S
O372 Sc354 2.105 . S
O372 C356 1.268 . S
O373 Sc353 2.105 . S
O373 C358 1.268 . S
Sc374 O377 2.025 . S
Sc374 O384 2.105 . S
Sc374 O387 2.105 . S
Sc374 O390 2.105 . S
Sc374 O393 2.105 . S
Sc375 O377 2.025 . S
Sc375 O385 2.105 . S
Sc375 O389 2.105 . S
Sc375 O391 2.105 . S
Sc375 O395 2.105 . S
Sc376 O377 2.025 . S
Sc376 O386 2.105 . S
Sc376 O388 2.105 . S
Sc376 O392 2.105 . S
Sc376 O394 2.105 . S
O377 Sc374 2.025 . S
O377 Sc375 2.025 . S
O377 Sc376 2.025 . S
C378 O384 1.268 . S
C378 O394 1.268 . S
C379 O385 1.268 . S
C379 O393 1.268 . S
C380 O386 1.268 . S
C380 O395 1.268 . S
C381 O387 1.268 . S
C381 O391 1.268 . S
C382 O388 1.268 . S
C382 O390 1.268 . S
C383 O389 1.268 . S
C383 O392 1.268 . S
O384 Sc374 2.105 . S
O384 C378 1.268 . S
O385 Sc375 2.105 . S
O385 C379 1.268 . S
O386 Sc376 2.105 . S
O386 C380 1.268 . S
O387 Sc374 2.105 . S
O387 C381 1.268 . S
O388 Sc376 2.105 . S
O388 C382 1.268 . S
O389 Sc375 2.105 . S
O389 C383 1.268 . S
O390 Sc374 2.105 . S
O390 C382 1.268 . S
O391 Sc375 2.105 . S
O391 C381 1.268 . S
O392 Sc376 2.105 . S
O392 C383 1.268 . S
O393 Sc374 2.105 . S
O393 C379 1.268 . S
O394 Sc376 2.105 . S
O394 C378 1.268 . S
O395 Sc375 2.105 . S
O395 C380 1.268 . S
Sc396 O399 2.025 . S
Sc396 O406 2.105 . S
Sc396 O409 2.105 . S
Sc396 O412 2.105 . S
Sc396 O415 2.105 . S
Sc397 O399 2.025 . S
Sc397 O407 2.105 . S
Sc397 O411 2.105 . S
Sc397 O413 2.105 . S
Sc397 O417 2.105 . S
Sc398 O399 2.025 . S
Sc398 O408 2.105 . S
Sc398 O410 2.105 . S
Sc398 O414 2.105 . S
Sc398 O416 2.105 . S
O399 Sc396 2.025 . S
O399 Sc397 2.025 . S
O399 Sc398 2.025 . S
C400 O406 1.268 . S
C400 O416 1.268 . S
C401 O407 1.268 . S
C401 O415 1.268 . S
C402 O408 1.268 . S
C402 O417 1.268 . S
C403 O409 1.268 . S
C403 O413 1.268 . S
C404 O410 1.268 . S
C404 O412 1.268 . S
C405 O411 1.268 . S
C405 O414 1.268 . S
O406 Sc396 2.105 . S
O406 C400 1.268 . S
O407 Sc397 2.105 . S
O407 C401 1.268 . S
O408 Sc398 2.105 . S
O408 C402 1.268 . S
O409 Sc396 2.105 . S
O409 C403 1.268 . S
O410 Sc398 2.105 . S
O410 C404 1.268 . S
O411 Sc397 2.105 . S
O411 C405 1.268 . S
O412 Sc396 2.105 . S
O412 C404 1.268 . S
O413 Sc397 2.105 . S
O413 C403 1.268 . S
O414 Sc398 2.105 . S
O414 C405 1.268 . S
O415 Sc396 2.105 . S
O415 C401 1.268 . S
O416 Sc398 2.105 . S
O416 C400 1.268 . S
O417 Sc397 2.105 . S
O417 C402 1.268 . S
Sc418 O421 2.025 . S
Sc418 O428 2.105 . S
Sc418 O431 2.105 . S
Sc418 O434 2.105 . S
Sc418 O437 2.105 . S
Sc419 O421 2.025 . S
Sc419 O429 2.105 . S
Sc419 O433 2.105 . S
Sc419 O435 2.105 . S
Sc419 O439 2.105 . S
Sc420 O421 2.025 . S
Sc420 O430 2.105 . S
Sc420 O432 2.105 . S
Sc420 O436 2.105 . S
Sc420 O438 2.105 . S
O421 Sc418 2.025 . S
O421 Sc419 2.025 . S
O421 Sc420 2.025 . S
C422 O428 1.268 . S
C422 O438 1.268 . S
C423 O429 1.268 . S
C423 O437 1.268 . S
C424 O430 1.268 . S
C424 O439 1.268 . S
C425 O431 1.268 . S
C425 O435 1.268 . S
C426 O432 1.268 . S
C426 O434 1.268 . S
C427 O433 1.268 . S
C427 O436 1.268 . S
O428 Sc418 2.105 . S
O428 C422 1.268 . S
O429 Sc419 2.105 . S
O429 C423 1.268 . S
O430 Sc420 2.105 . S
O430 C424 1.268 . S
O431 Sc418 2.105 . S
O431 C425 1.268 . S
O432 Sc420 2.105 . S
O432 C426 1.268 . S
O433 Sc419 2.105 . S
O433 C427 1.268 . S
O434 Sc418 2.105 . S
O434 C426 1.268 . S
O435 Sc419 2.105 . S
O435 C425 1.268 . S
O436 Sc420 2.105 . S
O436 C427 1.268 . S
O437 Sc418 2.105 . S
O437 C423 1.268 . S
O438 Sc420 2.105 . S
O438 C422 1.268 . S
O439 Sc419 2.105 . S
O439 C424 1.268 . S
Sc440 O443 2.025 . S
Sc440 O450 2.105 . S
Sc440 O453 2.105 . S
Sc440 O456 2.105 . S
Sc440 O459 2.105 . S
Sc441 O443 2.025 . S
Sc441 O451 2.105 . S
Sc441 O455 2.105 . S
Sc441 O457 2.105 . S
Sc441 O461 2.105 . S
Sc442 O443 2.025 . S
Sc442 O452 2.105 . S
Sc442 O454 2.105 . S
Sc442 O458 2.105 . S
Sc442 O460 2.105 . S
O443 Sc440 2.025 . S
O443 Sc441 2.025 . S
O443 Sc442 2.025 . S
C444 O450 1.268 . S
C444 O460 1.268 . S
C445 O451 1.268 . S
C445 O459 1.268 . S
C446 O452 1.268 . S
C446 O461 1.268 . S
C447 O453 1.268 . S
C447 O457 1.268 . S
C448 O454 1.268 . S
C448 O456 1.268 . S
C449 O455 1.268 . S
C449 O458 1.268 . S
O450 Sc440 2.105 . S
O450 C444 1.268 . S
O451 Sc441 2.105 . S
O451 C445 1.268 . S
O452 Sc442 2.105 . S
O452 C446 1.268 . S
O453 Sc440 2.105 . S
O453 C447 1.268 . S
O454 Sc442 2.105 . S
O454 C448 1.268 . S
O455 Sc441 2.105 . S
O455 C449 1.268 . S
O456 Sc440 2.105 . S
O456 C448 1.268 . S
O457 Sc441 2.105 . S
O457 C447 1.268 . S
O458 Sc442 2.105 . S
O458 C449 1.268 . S
O459 Sc440 2.105 . S
O459 C445 1.268 . S
O460 Sc442 2.105 . S
O460 C444 1.268 . S
O461 Sc441 2.105 . S
O461 C446 1.268 . S
Sc462 O465 2.025 . S
Sc462 O472 2.105 . S
Sc462 O475 2.105 . S
Sc462 O478 2.105 . S
Sc462 O481 2.105 . S
Sc463 O465 2.025 . S
Sc463 O473 2.105 . S
Sc463 O477 2.105 . S
Sc463 O479 2.105 . S
Sc463 O483 2.105 . S
Sc464 O465 2.025 . S
Sc464 O474 2.105 . S
Sc464 O476 2.105 . S
Sc464 O480 2.105 . S
Sc464 O482 2.105 . S
O465 Sc462 2.025 . S
O465 Sc463 2.025 . S
O465 Sc464 2.025 . S
C466 O472 1.268 . S
C466 O482 1.268 . S
C467 O473 1.268 . S
C467 O481 1.268 . S
C468 O474 1.268 . S
C468 O483 1.268 . S
C469 O475 1.268 . S
C469 O479 1.268 . S
C470 O476 1.268 . S
C470 O478 1.268 . S
C471 O477 1.268 . S
C471 O480 1.268 . S
O472 Sc462 2.105 . S
O472 C466 1.268 . S
O473 Sc463 2.105 . S
O473 C467 1.268 . S
O474 Sc464 2.105 . S
O474 C468 1.268 . S
O475 Sc462 2.105 . S
O475 C469 1.268 . S
O476 Sc464 2.105 . S
O476 C470 1.268 . S
O477 Sc463 2.105 . S
O477 C471 1.268 . S
O478 Sc462 2.105 . S
O478 C470 1.268 . S
O479 Sc463 2.105 . S
O479 C469 1.268 . S
O480 Sc464 2.105 . S
O480 C471 1.268 . S
O481 Sc462 2.105 . S
O481 C467 1.268 . S
O482 Sc464 2.105 . S
O482 C466 1.268 . S
O483 Sc463 2.105 . S
O483 C468 1.268 . S
Sc484 O487 2.025 . S
Sc484 O494 2.105 . S
Sc484 O497 2.105 . S
Sc484 O500 2.105 . S
Sc484 O503 2.105 . S
Sc485 O487 2.025 . S
Sc485 O495 2.105 . S
Sc485 O499 2.105 . S
Sc485 O501 2.105 . S
Sc485 O505 2.105 . S
Sc486 O487 2.025 . S
Sc486 O496 2.105 . S
Sc486 O498 2.105 . S
Sc486 O502 2.105 . S
Sc486 O504 2.105 . S
O487 Sc484 2.025 . S
O487 Sc485 2.025 . S
O487 Sc486 2.025 . S
C488 O494 1.268 . S
C488 O504 1.268 . S
C489 O495 1.268 . S
C489 O503 1.268 . S
C490 O496 1.268 . S
C490 O505 1.268 . S
C491 O497 1.268 . S
C491 O501 1.268 . S
C492 O498 1.268 . S
C492 O500 1.268 . S
C493 O499 1.268 . S
C493 O502 1.268 . S
O494 Sc484 2.105 . S
O494 C488 1.268 . S
O495 Sc485 2.105 . S
O495 C489 1.268 . S
O496 Sc486 2.105 . S
O496 C490 1.268 . S
O497 Sc484 2.105 . S
O497 C491 1.268 . S
O498 Sc486 2.105 . S
O498 C492 1.268 . S
O499 Sc485 2.105 . S
O499 C493 1.268 . S
O500 Sc484 2.105 . S
O500 C492 1.268 . S
O501 Sc485 2.105 . S
O501 C491 1.268 . S
O502 Sc486 2.105 . S
O502 C493 1.268 . S
O503 Sc484 2.105 . S
O503 C489 1.268 . S
O504 Sc486 2.105 . S
O504 C488 1.268 . S
O505 Sc485 2.105 . S
O505 C490 1.268 . S
Sc506 O509 2.025 . S
Sc506 O516 2.105 . S
Sc506 O519 2.105 . S
Sc506 O522 2.105 . S
Sc506 O525 2.105 . S
Sc507 O509 2.025 . S
Sc507 O517 2.105 . S
Sc507 O521 2.105 . S
Sc507 O523 2.105 . S
Sc507 O527 2.105 . S
Sc508 O509 2.025 . S
Sc508 O518 2.105 . S
Sc508 O520 2.105 . S
Sc508 O524 2.105 . S
Sc508 O526 2.105 . S
O509 Sc506 2.025 . S
O509 Sc507 2.025 . S
O509 Sc508 2.025 . S
C510 O516 1.268 . S
C510 O526 1.268 . S
C511 O517 1.268 . S
C511 O525 1.268 . S
C512 O518 1.268 . S
C512 O527 1.268 . S
C513 O519 1.268 . S
C513 O523 1.268 . S
C514 O520 1.268 . S
C514 O522 1.268 . S
C515 O521 1.268 . S
C515 O524 1.268 . S
O516 Sc506 2.105 . S
O516 C510 1.268 . S
O517 Sc507 2.105 . S
O517 C511 1.268 . S
O518 Sc508 2.105 . S
O518 C512 1.268 . S
O519 Sc506 2.105 . S
O519 C513 1.268 . S
O520 Sc508 2.105 . S
O520 C514 1.268 . S
O521 Sc507 2.105 . S
O521 C515 1.268 . S
O522 Sc506 2.105 . S
O522 C514 1.268 . S
O523 Sc507 2.105 . S
O523 C513 1.268 . S
O524 Sc508 2.105 . S
O524 C515 1.268 . S
O525 Sc506 2.105 . S
O525 C511 1.268 . S
O526 Sc508 2.105 . S
O526 C510 1.268 . S
O527 Sc507 2.105 . S
O527 C512 1.268 . S
Sc528 O531 2.025 . S
Sc528 O538 2.105 . S
Sc528 O541 2.105 . S
Sc528 O544 2.105 . S
Sc528 O547 2.105 . S
Sc529 O531 2.025 . S
Sc529 O539 2.105 . S
Sc529 O543 2.105 . S
Sc529 O545 2.105 . S
Sc529 O549 2.105 . S
Sc530 O531 2.025 . S
Sc530 O540 2.105 . S
Sc530 O542 2.105 . S
Sc530 O546 2.105 . S
Sc530 O548 2.105 . S
O531 Sc528 2.025 . S
O531 Sc529 2.025 . S
O531 Sc530 2.025 . S
C532 O538 1.268 . S
C532 O548 1.268 . S
C533 O539 1.268 . S
C533 O547 1.268 . S
C534 O540 1.268 . S
C534 O549 1.268 . S
C535 O541 1.268 . S
C535 O545 1.268 . S
C536 O542 1.268 . S
C536 O544 1.268 . S
C537 O543 1.268 . S
C537 O546 1.268 . S
O538 Sc528 2.105 . S
O538 C532 1.268 . S
O539 Sc529 2.105 . S
O539 C533 1.268 . S
O540 Sc530 2.105 . S
O540 C534 1.268 . S
O541 Sc528 2.105 . S
O541 C535 1.268 . S
O542 Sc530 2.105 . S
O542 C536 1.268 . S
O543 Sc529 2.105 . S
O543 C537 1.268 . S
O544 Sc528 2.105 . S
O544 C536 1.268 . S
O545 Sc529 2.105 . S
O545 C535 1.268 . S
O546 Sc530 2.105 . S
O546 C537 1.268 . S
O547 Sc528 2.105 . S
O547 C533 1.268 . S
O548 Sc530 2.105 . S
O548 C532 1.268 . S
O549 Sc529 2.105 . S
O549 C534 1.268 . S
Sc550 O553 2.025 . S
Sc550 O560 2.105 . S
Sc550 O563 2.105 . S
Sc550 O566 2.105 . S
Sc550 O569 2.105 . S
Sc551 O553 2.025 . S
Sc551 O561 2.105 . S
Sc551 O565 2.105 . S
Sc551 O567 2.105 . S
Sc551 O571 2.105 . S
Sc552 O553 2.025 . S
Sc552 O562 2.105 . S
Sc552 O564 2.105 . S
Sc552 O568 2.105 . S
Sc552 O570 2.105 . S
O553 Sc550 2.025 . S
O553 Sc551 2.025 . S
O553 Sc552 2.025 . S
C554 O560 1.268 . S
C554 O570 1.268 . S
C555 O561 1.268 . S
C555 O569 1.268 . S
C556 O562 1.268 . S
C556 O571 1.268 . S
C557 O563 1.268 . S
C557 O567 1.268 . S
C558 O564 1.268 . S
C558 O566 1.268 . S
C559 O565 1.268 . S
C559 O568 1.268 . S
O560 Sc550 2.105 . S
O560 C554 1.268 . S
O561 Sc551 2.105 . S
O561 C555 1.268 . S
O562 Sc552 2.105 . S
O562 C556 1.268 . S
O563 Sc550 2.105 . S
O563 C557 1.268 . S
O564 Sc552 2.105 . S
O564 C558 1.268 . S
O565 Sc551 2.105 . S
O565 C559 1.268 . S
O566 Sc550 2.105 . S
O566 C558 1.268 . S
O567 Sc551 2.105 . S
O567 C557 1.268 . S
O568 Sc552 2.105 . S
O568 C559 1.268 . S
O569 Sc550 2.105 . S
O569 C555 1.268 . S
O570 Sc552 2.105 . S
O570 C554 1.268 . S
O571 Sc551 2.105 . S
O571 C556 1.268 . S
Sc572 O575 2.025 . S
Sc572 O582 2.105 . S
Sc572 O585 2.105 . S
Sc572 O588 2.105 . S
Sc572 O591 2.105 . S
Sc573 O575 2.025 . S
Sc573 O583 2.105 . S
Sc573 O587 2.105 . S
Sc573 O589 2.105 . S
Sc573 O593 2.105 . S
Sc574 O575 2.025 . S
Sc574 O584 2.105 . S
Sc574 O586 2.105 . S
Sc574 O590 2.105 . S
Sc574 O592 2.105 . S
O575 Sc572 2.025 . S
O575 Sc573 2.025 . S
O575 Sc574 2.025 . S
C576 O582 1.268 . S
C576 O592 1.268 . S
C577 O583 1.268 . S
C577 O591 1.268 . S
C578 O584 1.268 . S
C578 O593 1.268 . S
C579 O585 1.268 . S
C579 O589 1.268 . S
C580 O586 1.268 . S
C580 O588 1.268 . S
C581 O587 1.268 . S
C581 O590 1.268 . S
O582 Sc572 2.105 . S
O582 C576 1.268 . S
O583 Sc573 2.105 . S
O583 C577 1.268 . S
O584 Sc574 2.105 . S
O584 C578 1.268 . S
O585 Sc572 2.105 . S
O585 C579 1.268 . S
O586 Sc574 2.105 . S
O586 C580 1.268 . S
O587 Sc573 2.105 . S
O587 C581 1.268 . S
O588 Sc572 2.105 . S
O588 C580 1.268 . S
O589 Sc573 2.105 . S
O589 C579 1.268 . S
O590 Sc574 2.105 . S
O590 C581 1.268 . S
O591 Sc572 2.105 . S
O591 C577 1.268 . S
O592 Sc574 2.105 . S
O592 C576 1.268 . S
O593 Sc573 2.105 . S
O593 C578 1.268 . S
Sc594 O597 2.025 . S
Sc594 O604 2.105 . S
Sc594 O607 2.105 . S
Sc594 O610 2.105 . S
Sc594 O613 2.105 . S
Sc595 O597 2.025 . S
Sc595 O605 2.105 . S
Sc595 O609 2.105 . S
Sc595 O611 2.105 . S
Sc595 O615 2.105 . S
Sc596 O597 2.025 . S
Sc596 O606 2.105 . S
Sc596 O608 2.105 . S
Sc596 O612 2.105 . S
Sc596 O614 2.105 . S
O597 Sc594 2.025 . S
O597 Sc595 2.025 . S
O597 Sc596 2.025 . S
C598 O604 1.268 . S
C598 O614 1.268 . S
C599 O605 1.268 . S
C599 O613 1.268 . S
C600 O606 1.268 . S
C600 O615 1.268 . S
C601 O607 1.268 . S
C601 O611 1.268 . S
C602 O608 1.268 . S
C602 O610 1.268 . S
C603 O609 1.268 . S
C603 O612 1.268 . S
O604 Sc594 2.105 . S
O604 C598 1.268 . S
O605 Sc595 2.105 . S
O605 C599 1.268 . S
O606 Sc596 2.105 . S
O606 C600 1.268 . S
O607 Sc594 2.105 . S
O607 C601 1.268 . S
O608 Sc596 2.105 . S
O608 C602 1.268 . S
O609 Sc595 2.105 . S
O609 C603 1.268 . S
O610 Sc594 2.105 . S
O610 C602 1.268 . S
O611 Sc595 2.105 . S
O611 C601 1.268 . S
O612 Sc596 2.105 . S
O612 C603 1.268 . S
O613 Sc594 2.105 . S
O613 C599 1.268 . S
O614 Sc596 2.105 . S
O614 C598 1.268 . S
O615 Sc595 2.105 . S
O615 C600 1.268 . S
Sc616 O619 2.025 . S
Sc616 O626 2.105 . S
Sc616 O629 2.105 . S
Sc616 O632 2.105 . S
Sc616 O635 2.105 . S
Sc617 O619 2.025 . S
Sc617 O627 2.105 . S
Sc617 O631 2.105 . S
Sc617 O633 2.105 . S
Sc617 O637 2.105 . S
Sc618 O619 2.025 . S
Sc618 O628 2.105 . S
Sc618 O630 2.105 . S
Sc618 O634 2.105 . S
Sc618 O636 2.105 . S
O619 Sc616 2.025 . S
O619 Sc617 2.025 . S
O619 Sc618 2.025 . S
C620 O626 1.268 . S
C620 O636 1.268 . S
C621 O627 1.268 . S
C621 O635 1.268 . S
C622 O628 1.268 . S
C622 O637 1.268 . S
C623 O629 1.268 . S
C623 O633 1.268 . S
C624 O630 1.268 . S
C624 O632 1.268 . S
C625 O631 1.268 . S
C625 O634 1.268 . S
O626 Sc616 2.105 . S
O626 C620 1.268 . S
O627 Sc617 2.105 . S
O627 C621 1.268 . S
O628 Sc618 2.105 . S
O628 C622 1.268 . S
O629 Sc616 2.105 . S
O629 C623 1.268 . S
O630 Sc618 2.105 . S
O630 C624 1.268 . S
O631 Sc617 2.105 . S
O631 C625 1.268 . S
O632 Sc616 2.105 . S
O632 C624 1.268 . S
O633 Sc617 2.105 . S
O633 C623 1.268 . S
O634 Sc618 2.105 . S
O634 C625 1.268 . S
O635 Sc616 2.105 . S
O635 C621 1.268 . S
O636 Sc618 2.105 . S
O636 C620 1.268 . S
O637 Sc617 2.105 . S
O637 C622 1.268 . S
Sc638 O641 2.025 . S
Sc638 O648 2.105 . S
Sc638 O651 2.105 . S
Sc638 O654 2.105 . S
Sc638 O657 2.105 . S
Sc639 O641 2.025 . S
Sc639 O649 2.105 . S
Sc639 O653 2.105 . S
Sc639 O655 2.105 . S
Sc639 O659 2.105 . S
Sc640 O641 2.025 . S
Sc640 O650 2.105 . S
Sc640 O652 2.105 . S
Sc640 O656 2.105 . S
Sc640 O658 2.105 . S
O641 Sc638 2.025 . S
O641 Sc639 2.025 . S
O641 Sc640 2.025 . S
C642 O648 1.268 . S
C642 O658 1.268 . S
C643 O649 1.268 . S
C643 O657 1.268 . S
C644 O650 1.268 . S
C644 O659 1.268 . S
C645 O651 1.268 . S
C645 O655 1.268 . S
C646 O652 1.268 . S
C646 O654 1.268 . S
C647 O653 1.268 . S
C647 O656 1.268 . S
O648 Sc638 2.105 . S
O648 C642 1.268 . S
O649 Sc639 2.105 . S
O649 C643 1.268 . S
O650 Sc640 2.105 . S
O650 C644 1.268 . S
O651 Sc638 2.105 . S
O651 C645 1.268 . S
O652 Sc640 2.105 . S
O652 C646 1.268 . S
O653 Sc639 2.105 . S
O653 C647 1.268 . S
O654 Sc638 2.105 . S
O654 C646 1.268 . S
O655 Sc639 2.105 . S
O655 C645 1.268 . S
O656 Sc640 2.105 . S
O656 C647 1.268 . S
O657 Sc638 2.105 . S
O657 C643 1.268 . S
O658 Sc640 2.105 . S
O658 C642 1.268 . S
O659 Sc639 2.105 . S
O659 C644 1.268 . S
Sc660 O663 2.025 . S
Sc660 O670 2.105 . S
Sc660 O673 2.105 . S
Sc660 O676 2.105 . S
Sc660 O679 2.105 . S
Sc661 O663 2.025 . S
Sc661 O671 2.105 . S
Sc661 O675 2.105 . S
Sc661 O677 2.105 . S
Sc661 O681 2.105 . S
Sc662 O663 2.025 . S
Sc662 O672 2.105 . S
Sc662 O674 2.105 . S
Sc662 O678 2.105 . S
Sc662 O680 2.105 . S
O663 Sc660 2.025 . S
O663 Sc661 2.025 . S
O663 Sc662 2.025 . S
C664 O670 1.268 . S
C664 O680 1.268 . S
C665 O671 1.268 . S
C665 O679 1.268 . S
C666 O672 1.268 . S
C666 O681 1.268 . S
C667 O673 1.268 . S
C667 O677 1.268 . S
C668 O674 1.268 . S
C668 O676 1.268 . S
C669 O675 1.268 . S
C669 O678 1.268 . S
O670 Sc660 2.105 . S
O670 C664 1.268 . S
O671 Sc661 2.105 . S
O671 C665 1.268 . S
O672 Sc662 2.105 . S
O672 C666 1.268 . S
O673 Sc660 2.105 . S
O673 C667 1.268 . S
O674 Sc662 2.105 . S
O674 C668 1.268 . S
O675 Sc661 2.105 . S
O675 C669 1.268 . S
O676 Sc660 2.105 . S
O676 C668 1.268 . S
O677 Sc661 2.105 . S
O677 C667 1.268 . S
O678 Sc662 2.105 . S
O678 C669 1.268 . S
O679 Sc660 2.105 . S
O679 C665 1.268 . S
O680 Sc662 2.105 . S
O680 C664 1.268 . S
O681 Sc661 2.105 . S
O681 C666 1.268 . S
Sc682 O685 2.025 . S
Sc682 O692 2.105 . S
Sc682 O695 2.105 . S
Sc682 O698 2.105 . S
Sc682 O701 2.105 . S
Sc683 O685 2.025 . S
Sc683 O693 2.105 . S
Sc683 O697 2.105 . S
Sc683 O699 2.105 . S
Sc683 O703 2.105 . S
Sc684 O685 2.025 . S
Sc684 O694 2.105 . S
Sc684 O696 2.105 . S
Sc684 O700 2.105 . S
Sc684 O702 2.105 . S
O685 Sc682 2.025 . S
O685 Sc683 2.025 . S
O685 Sc684 2.025 . S
C686 O692 1.268 . S
C686 O702 1.268 . S
C687 O693 1.268 . S
C687 O701 1.268 . S
C688 O694 1.268 . S
C688 O703 1.268 . S
C689 O695 1.268 . S
C689 O699 1.268 . S
C690 O696 1.268 . S
C690 O698 1.268 . S
C691 O697 1.268 . S
C691 O700 1.268 . S
O692 Sc682 2.105 . S
O692 C686 1.268 . S
O693 Sc683 2.105 . S
O693 C687 1.268 . S
O694 Sc684 2.105 . S
O694 C688 1.268 . S
O695 Sc682 2.105 . S
O695 C689 1.268 . S
O696 Sc684 2.105 . S
O696 C690 1.268 . S
O697 Sc683 2.105 . S
O697 C691 1.268 . S
O698 Sc682 2.105 . S
O698 C690 1.268 . S
O699 Sc683 2.105 . S
O699 C689 1.268 . S
O700 Sc684 2.105 . S
O700 C691 1.268 . S
O701 Sc682 2.105 . S
O701 C687 1.268 . S
O702 Sc684 2.105 . S
O702 C686 1.268 . S
O703 Sc683 2.105 . S
O703 C688 1.268 . S
Sc704 O707 2.025 . S
Sc704 O714 2.105 . S
Sc704 O717 2.105 . S
Sc704 O720 2.105 . S
Sc704 O723 2.105 . S
Sc705 O707 2.025 . S
Sc705 O715 2.105 . S
Sc705 O719 2.105 . S
Sc705 O721 2.105 . S
Sc705 O725 2.105 . S
Sc706 O707 2.025 . S
Sc706 O716 2.105 . S
Sc706 O718 2.105 . S
Sc706 O722 2.105 . S
Sc706 O724 2.105 . S
O707 Sc704 2.025 . S
O707 Sc705 2.025 . S
O707 Sc706 2.025 . S
C708 O714 1.268 . S
C708 O724 1.268 . S
C709 O715 1.268 . S
C709 O723 1.268 . S
C710 O716 1.268 . S
C710 O725 1.268 . S
C711 O717 1.268 . S
C711 O721 1.268 . S
C712 O718 1.268 . S
C712 O720 1.268 . S
C713 O719 1.268 . S
C713 O722 1.268 . S
O714 Sc704 2.105 . S
O714 C708 1.268 . S
O715 Sc705 2.105 . S
O715 C709 1.268 . S
O716 Sc706 2.105 . S
O716 C710 1.268 . S
O717 Sc704 2.105 . S
O717 C711 1.268 . S
O718 Sc706 2.105 . S
O718 C712 1.268 . S
O719 Sc705 2.105 . S
O719 C713 1.268 . S
O720 Sc704 2.105 . S
O720 C712 1.268 . S
O721 Sc705 2.105 . S
O721 C711 1.268 . S
O722 Sc706 2.105 . S
O722 C713 1.268 . S
O723 Sc704 2.105 . S
O723 C709 1.268 . S
O724 Sc706 2.105 . S
O724 C708 1.268 . S
O725 Sc705 2.105 . S
O725 C710 1.268 . S
Sc726 O729 2.025 . S
Sc726 O736 2.105 . S
Sc726 O739 2.105 . S
Sc726 O742 2.105 . S
Sc726 O745 2.105 . S
Sc727 O729 2.025 . S
Sc727 O737 2.105 . S
Sc727 O741 2.105 . S
Sc727 O743 2.105 . S
Sc727 O747 2.105 . S
Sc728 O729 2.025 . S
Sc728 O738 2.105 . S
Sc728 O740 2.105 . S
Sc728 O744 2.105 . S
Sc728 O746 2.105 . S
O729 Sc726 2.025 . S
O729 Sc727 2.025 . S
O729 Sc728 2.025 . S
C730 O736 1.268 . S
C730 O746 1.268 . S
C731 O737 1.268 . S
C731 O745 1.268 . S
C732 O738 1.268 . S
C732 O747 1.268 . S
C733 O739 1.268 . S
C733 O743 1.268 . S
C734 O740 1.268 . S
C734 O742 1.268 . S
C735 O741 1.268 . S
C735 O744 1.268 . S
O736 Sc726 2.105 . S
O736 C730 1.268 . S
O737 Sc727 2.105 . S
O737 C731 1.268 . S
O738 Sc728 2.105 . S
O738 C732 1.268 . S
O739 Sc726 2.105 . S
O739 C733 1.268 . S
O740 Sc728 2.105 . S
O740 C734 1.268 . S
O741 Sc727 2.105 . S
O741 C735 1.268 . S
O742 Sc726 2.105 . S
O742 C734 1.268 . S
O743 Sc727 2.105 . S
O743 C733 1.268 . S
O744 Sc728 2.105 . S
O744 C735 1.268 . S
O745 Sc726 2.105 . S
O745 C731 1.268 . S
O746 Sc728 2.105 . S
O746 C730 1.268 . S
O747 Sc727 2.105 . S
O747 C732 1.268 . S
Sc748 O751 2.025 . S
Sc748 O758 2.105 . S
Sc748 O761 2.105 . S
Sc748 O764 2.105 . S
Sc748 O767 2.105 . S
Sc749 O751 2.025 . S
Sc749 O759 2.105 . S
Sc749 O763 2.105 . S
Sc749 O765 2.105 . S
Sc749 O769 2.105 . S
Sc750 O751 2.025 . S
Sc750 O760 2.105 . S
Sc750 O762 2.105 . S
Sc750 O766 2.105 . S
Sc750 O768 2.105 . S
O751 Sc748 2.025 . S
O751 Sc749 2.025 . S
O751 Sc750 2.025 . S
C752 O758 1.268 . S
C752 O768 1.268 . S
C753 O759 1.268 . S
C753 O767 1.268 . S
C754 O760 1.268 . S
C754 O769 1.268 . S
C755 O761 1.268 . S
C755 O765 1.268 . S
C756 O762 1.268 . S
C756 O764 1.268 . S
C757 O763 1.268 . S
C757 O766 1.268 . S
O758 Sc748 2.105 . S
O758 C752 1.268 . S
O759 Sc749 2.105 . S
O759 C753 1.268 . S
O760 Sc750 2.105 . S
O760 C754 1.268 . S
O761 Sc748 2.105 . S
O761 C755 1.268 . S
O762 Sc750 2.105 . S
O762 C756 1.268 . S
O763 Sc749 2.105 . S
O763 C757 1.268 . S
O764 Sc748 2.105 . S
O764 C756 1.268 . S
O765 Sc749 2.105 . S
O765 C755 1.268 . S
O766 Sc750 2.105 . S
O766 C757 1.268 . S
O767 Sc748 2.105 . S
O767 C753 1.268 . S
O768 Sc750 2.105 . S
O768 C752 1.268 . S
O769 Sc749 2.105 . S
O769 C754 1.268 . S
Sc770 O773 2.025 . S
Sc770 O780 2.105 . S
Sc770 O783 2.105 . S
Sc770 O786 2.105 . S
Sc770 O789 2.105 . S
Sc771 O773 2.025 . S
Sc771 O781 2.105 . S
Sc771 O785 2.105 . S
Sc771 O787 2.105 . S
Sc771 O791 2.105 . S
Sc772 O773 2.025 . S
Sc772 O782 2.105 . S
Sc772 O784 2.105 . S
Sc772 O788 2.105 . S
Sc772 O790 2.105 . S
O773 Sc770 2.025 . S
O773 Sc771 2.025 . S
O773 Sc772 2.025 . S
C774 O780 1.268 . S
C774 O790 1.268 . S
C775 O781 1.268 . S
C775 O789 1.268 . S
C776 O782 1.268 . S
C776 O791 1.268 . S
C777 O783 1.268 . S
C777 O787 1.268 . S
C778 O784 1.268 . S
C778 O786 1.268 . S
C779 O785 1.268 . S
C779 O788 1.268 . S
O780 Sc770 2.105 . S
O780 C774 1.268 . S
O781 Sc771 2.105 . S
O781 C775 1.268 . S
O782 Sc772 2.105 . S
O782 C776 1.268 . S
O783 Sc770 2.105 . S
O783 C777 1.268 . S
O784 Sc772 2.105 . S
O784 C778 1.268 . S
O785 Sc771 2.105 . S
O785 C779 1.268 . S
O786 Sc770 2.105 . S
O786 C778 1.268 . S
O787 Sc771 2.105 . S
O787 C777 1.268 . S
O788 Sc772 2.105 . S
O788 C779 1.268 . S
O789 Sc770 2.105 . S
O789 C775 1.268 . S
O790 Sc772 2.105 . S
O790 C774 1.268 . S
O791 Sc771 2.105 . S
O791 C776 1.268 . S
Sc792 O795 2.025 . S
Sc792 O802 2.105 . S
Sc792 O805 2.105 . S
Sc792 O808 2.105 . S
Sc792 O811 2.105 . S
Sc793 O795 2.025 . S
Sc793 O803 2.105 . S
Sc793 O807 2.105 . S
Sc793 O809 2.105 . S
Sc793 O813 2.105 . S
Sc794 O795 2.025 . S
Sc794 O804 2.105 . S
Sc794 O806 2.105 . S
Sc794 O810 2.105 . S
Sc794 O812 2.105 . S
O795 Sc792 2.025 . S
O795 Sc793 2.025 . S
O795 Sc794 2.025 . S
C796 O802 1.268 . S
C796 O812 1.268 . S
C797 O803 1.268 . S
C797 O811 1.268 . S
C798 O804 1.268 . S
C798 O813 1.268 . S
C799 O805 1.268 . S
C799 O809 1.268 . S
C800 O806 1.268 . S
C800 O808 1.268 . S
C801 O807 1.268 . S
C801 O810 1.268 . S
O802 Sc792 2.105 . S
O802 C796 1.268 . S
O803 Sc793 2.105 . S
O803 C797 1.268 . S
O804 Sc794 2.105 . S
O804 C798 1.268 . S
O805 Sc792 2.105 . S
O805 C799 1.268 . S
O806 Sc794 2.105 . S
O806 C800 1.268 . S
O807 Sc793 2.105 . S
O807 C801 1.268 . S
O808 Sc792 2.105 . S
O808 C800 1.268 . S
O809 Sc793 2.105 . S
O809 C799 1.268 . S
O810 Sc794 2.105 . S
O810 C801 1.268 . S
O811 Sc792 2.105 . S
O811 C797 1.268 . S
O812 Sc794 2.105 . S
O812 C796 1.268 . S
O813 Sc793 2.105 . S
O813 C798 1.268 . S
Sc814 O817 2.025 . S
Sc814 O824 2.105 . S
Sc814 O827 2.105 . S
Sc814 O830 2.105 . S
Sc814 O833 2.105 . S
Sc815 O817 2.025 . S
Sc815 O825 2.105 . S
Sc815 O829 2.105 . S
Sc815 O831 2.105 . S
Sc815 O835 2.105 . S
Sc816 O817 2.025 . S
Sc816 O826 2.105 . S
Sc816 O828 2.105 . S
Sc816 O832 2.105 . S
Sc816 O834 2.105 . S
O817 Sc814 2.025 . S
O817 Sc815 2.025 . S
O817 Sc816 2.025 . S
C818 O824 1.268 . S
C818 O834 1.268 . S
C819 O825 1.268 . S
C819 O833 1.268 . S
C820 O826 1.268 . S
C820 O835 1.268 . S
C821 O827 1.268 . S
C821 O831 1.268 . S
C822 O828 1.268 . S
C822 O830 1.268 . S
C823 O829 1.268 . S
C823 O832 1.268 . S
O824 Sc814 2.105 . S
O824 C818 1.268 . S
O825 Sc815 2.105 . S
O825 C819 1.268 . S
O826 Sc816 2.105 . S
O826 C820 1.268 . S
O827 Sc814 2.105 . S
O827 C821 1.268 . S
O828 Sc816 2.105 . S
O828 C822 1.268 . S
O829 Sc815 2.105 . S
O829 C823 1.268 . S
O830 Sc814 2.105 . S
O830 C822 1.268 . S
O831 Sc815 2.105 . S
O831 C821 1.268 . S
O832 Sc816 2.105 . S
O832 C823 1.268 . S
O833 Sc814 2.105 . S
O833 C819 1.268 . S
O834 Sc816 2.105 . S
O834 C818 1.268 . S
O835 Sc815 2.105 . S
O835 C820 1.268 . S
Sc836 O839 2.025 . S
Sc836 O846 2.105 . S
Sc836 O849 2.105 . S
Sc836 O852 2.105 . S
Sc836 O855 2.105 . S
Sc837 O839 2.025 . S
Sc837 O847 2.105 . S
Sc837 O851 2.105 . S
Sc837 O853 2.105 . S
Sc837 O857 2.105 . S
Sc838 O839 2.025 . S
Sc838 O848 2.105 . S
Sc838 O850 2.105 . S
Sc838 O854 2.105 . S
Sc838 O856 2.105 . S
O839 Sc836 2.025 . S
O839 Sc837 2.025 . S
O839 Sc838 2.025 . S
C840 O846 1.268 . S
C840 O856 1.268 . S
C841 O847 1.268 . S
C841 O855 1.268 . S
C842 O848 1.268 . S
C842 O857 1.268 . S
C843 O849 1.268 . S
C843 O853 1.268 . S
C844 O850 1.268 . S
C844 O852 1.268 . S
C845 O851 1.268 . S
C845 O854 1.268 . S
O846 Sc836 2.105 . S
O846 C840 1.268 . S
O847 Sc837 2.105 . S
O847 C841 1.268 . S
O848 Sc838 2.105 . S
O848 C842 1.268 . S
O849 Sc836 2.105 . S
O849 C843 1.268 . S
O850 Sc838 2.105 . S
O850 C844 1.268 . S
O851 Sc837 2.105 . S
O851 C845 1.268 . S
O852 Sc836 2.105 . S
O852 C844 1.268 . S
O853 Sc837 2.105 . S
O853 C843 1.268 . S
O854 Sc838 2.105 . S
O854 C845 1.268 . S
O855 Sc836 2.105 . S
O855 C841 1.268 . S
O856 Sc838 2.105 . S
O856 C840 1.268 . S
O857 Sc837 2.105 . S
O857 C842 1.268 . S
Sc858 O861 2.025 . S
Sc858 O868 2.105 . S
Sc858 O871 2.105 . S
Sc858 O874 2.105 . S
Sc858 O877 2.105 . S
Sc859 O861 2.025 . S
Sc859 O869 2.105 . S
Sc859 O873 2.105 . S
Sc859 O875 2.105 . S
Sc859 O879 2.105 . S
Sc860 O861 2.025 . S
Sc860 O870 2.105 . S
Sc860 O872 2.105 . S
Sc860 O876 2.105 . S
Sc860 O878 2.105 . S
O861 Sc858 2.025 . S
O861 Sc859 2.025 . S
O861 Sc860 2.025 . S
C862 O868 1.268 . S
C862 O878 1.268 . S
C863 O869 1.268 . S
C863 O877 1.268 . S
C864 O870 1.268 . S
C864 O879 1.268 . S
C865 O871 1.268 . S
C865 O875 1.268 . S
C866 O872 1.268 . S
C866 O874 1.268 . S
C867 O873 1.268 . S
C867 O876 1.268 . S
O868 Sc858 2.105 . S
O868 C862 1.268 . S
O869 Sc859 2.105 . S
O869 C863 1.268 . S
O870 Sc860 2.105 . S
O870 C864 1.268 . S
O871 Sc858 2.105 . S
O871 C865 1.268 . S
O872 Sc860 2.105 . S
O872 C866 1.268 . S
O873 Sc859 2.105 . S
O873 C867 1.268 . S
O874 Sc858 2.105 . S
O874 C866 1.268 . S
O875 Sc859 2.105 . S
O875 C865 1.268 . S
O876 Sc860 2.105 . S
O876 C867 1.268 . S
O877 Sc858 2.105 . S
O877 C863 1.268 . S
O878 Sc860 2.105 . S
O878 C862 1.268 . S
O879 Sc859 2.105 . S
O879 C864 1.268 . S
Sc880 O883 2.025 . S
Sc880 O890 2.105 . S
Sc880 O893 2.105 . S
Sc880 O896 2.105 . S
Sc880 O899 2.105 . S
Sc881 O883 2.025 . S
Sc881 O891 2.105 . S
Sc881 O895 2.105 . S
Sc881 O897 2.105 . S
Sc881 O901 2.105 . S
Sc882 O883 2.025 . S
Sc882 O892 2.105 . S
Sc882 O894 2.105 . S
Sc882 O898 2.105 . S
Sc882 O900 2.105 . S
O883 Sc880 2.025 . S
O883 Sc881 2.025 . S
O883 Sc882 2.025 . S
C884 O890 1.268 . S
C884 O900 1.268 . S
C885 O891 1.268 . S
C885 O899 1.268 . S
C886 O892 1.268 . S
C886 O901 1.268 . S
C887 O893 1.268 . S
C887 O897 1.268 . S
C888 O894 1.268 . S
C888 O896 1.268 . S
C889 O895 1.268 . S
C889 O898 1.268 . S
O890 Sc880 2.105 . S
O890 C884 1.268 . S
O891 Sc881 2.105 . S
O891 C885 1.268 . S
O892 Sc882 2.105 . S
O892 C886 1.268 . S
O893 Sc880 2.105 . S
O893 C887 1.268 . S
O894 Sc882 2.105 . S
O894 C888 1.268 . S
O895 Sc881 2.105 . S
O895 C889 1.268 . S
O896 Sc880 2.105 . S
O896 C888 1.268 . S
O897 Sc881 2.105 . S
O897 C887 1.268 . S
O898 Sc882 2.105 . S
O898 C889 1.268 . S
O899 Sc880 2.105 . S
O899 C885 1.268 . S
O900 Sc882 2.105 . S
O900 C884 1.268 . S
O901 Sc881 2.105 . S
O901 C886 1.268 . S
Sc902 O905 2.025 . S
Sc902 O912 2.105 . S
Sc902 O915 2.105 . S
Sc902 O918 2.105 . S
Sc902 O921 2.105 . S
Sc903 O905 2.025 . S
Sc903 O913 2.105 . S
Sc903 O917 2.105 . S
Sc903 O919 2.105 . S
Sc903 O923 2.105 . S
Sc904 O905 2.025 . S
Sc904 O914 2.105 . S
Sc904 O916 2.105 . S
Sc904 O920 2.105 . S
Sc904 O922 2.105 . S
O905 Sc902 2.025 . S
O905 Sc903 2.025 . S
O905 Sc904 2.025 . S
C906 O912 1.268 . S
C906 O922 1.268 . S
C907 O913 1.268 . S
C907 O921 1.268 . S
C908 O914 1.268 . S
C908 O923 1.268 . S
C909 O915 1.268 . S
C909 O919 1.268 . S
C910 O916 1.268 . S
C910 O918 1.268 . S
C911 O917 1.268 . S
C911 O920 1.268 . S
O912 Sc902 2.105 . S
O912 C906 1.268 . S
O913 Sc903 2.105 . S
O913 C907 1.268 . S
O914 Sc904 2.105 . S
O914 C908 1.268 . S
O915 Sc902 2.105 . S
O915 C909 1.268 . S
O916 Sc904 2.105 . S
O916 C910 1.268 . S
O917 Sc903 2.105 . S
O917 C911 1.268 . S
O918 Sc902 2.105 . S
O918 C910 1.268 . S
O919 Sc903 2.105 . S
O919 C909 1.268 . S
O920 Sc904 2.105 . S
O920 C911 1.268 . S
O921 Sc902 2.105 . S
O921 C907 1.268 . S
O922 Sc904 2.105 . S
O922 C906 1.268 . S
O923 Sc903 2.105 . S
O923 C908 1.268 . S
Sc924 O927 2.025 . S
Sc924 O934 2.105 . S
Sc924 O937 2.105 . S
Sc924 O940 2.105 . S
Sc924 O943 2.105 . S
Sc925 O927 2.025 . S
Sc925 O935 2.105 . S
Sc925 O939 2.105 . S
Sc925 O941 2.105 . S
Sc925 O945 2.105 . S
Sc926 O927 2.025 . S
Sc926 O936 2.105 . S
Sc926 O938 2.105 . S
Sc926 O942 2.105 . S
Sc926 O944 2.105 . S
O927 Sc924 2.025 . S
O927 Sc925 2.025 . S
O927 Sc926 2.025 . S
C928 O934 1.268 . S
C928 O944 1.268 . S
C929 O935 1.268 . S
C929 O943 1.268 . S
C930 O936 1.268 . S
C930 O945 1.268 . S
C931 O937 1.268 . S
C931 O941 1.268 . S
C932 O938 1.268 . S
C932 O940 1.268 . S
C933 O939 1.268 . S
C933 O942 1.268 . S
O934 Sc924 2.105 . S
O934 C928 1.268 . S
O935 Sc925 2.105 . S
O935 C929 1.268 . S
O936 Sc926 2.105 . S
O936 C930 1.268 . S
O937 Sc924 2.105 . S
O937 C931 1.268 . S
O938 Sc926 2.105 . S
O938 C932 1.268 . S
O939 Sc925 2.105 . S
O939 C933 1.268 . S
O940 Sc924 2.105 . S
O940 C932 1.268 . S
O941 Sc925 2.105 . S
O941 C931 1.268 . S
O942 Sc926 2.105 . S
O942 C933 1.268 . S
O943 Sc924 2.105 . S
O943 C929 1.268 . S
O944 Sc926 2.105 . S
O944 C928 1.268 . S
O945 Sc925 2.105 . S
O945 C930 1.268 . S
Sc946 O949 2.025 . S
Sc946 O956 2.105 . S
Sc946 O959 2.105 . S
Sc946 O962 2.105 . S
Sc946 O965 2.105 . S
Sc947 O949 2.025 . S
Sc947 O957 2.105 . S
Sc947 O961 2.105 . S
Sc947 O963 2.105 . S
Sc947 O967 2.105 . S
Sc948 O949 2.025 . S
Sc948 O958 2.105 . S
Sc948 O960 2.105 . S
Sc948 O964 2.105 . S
Sc948 O966 2.105 . S
O949 Sc946 2.025 . S
O949 Sc947 2.025 . S
O949 Sc948 2.025 . S
C950 O956 1.268 . S
C950 O966 1.268 . S
C951 O957 1.268 . S
C951 O965 1.268 . S
C952 O958 1.268 . S
C952 O967 1.268 . S
C953 O959 1.268 . S
C953 O963 1.268 . S
C954 O960 1.268 . S
C954 O962 1.268 . S
C955 O961 1.268 . S
C955 O964 1.268 . S
O956 Sc946 2.105 . S
O956 C950 1.268 . S
O957 Sc947 2.105 . S
O957 C951 1.268 . S
O958 Sc948 2.105 . S
O958 C952 1.268 . S
O959 Sc946 2.105 . S
O959 C953 1.268 . S
O960 Sc948 2.105 . S
O960 C954 1.268 . S
O961 Sc947 2.105 . S
O961 C955 1.268 . S
O962 Sc946 2.105 . S
O962 C954 1.268 . S
O963 Sc947 2.105 . S
O963 C953 1.268 . S
O964 Sc948 2.105 . S
O964 C955 1.268 . S
O965 Sc946 2.105 . S
O965 C951 1.268 . S
O966 Sc948 2.105 . S
O966 C950 1.268 . S
O967 Sc947 2.105 . S
O967 C952 1.268 . S
Sc968 O971 2.025 . S
Sc968 O978 2.105 . S
Sc968 O981 2.105 . S
Sc968 O984 2.105 . S
Sc968 O987 2.105 . S
Sc969 O971 2.025 . S
Sc969 O979 2.105 . S
Sc969 O983 2.105 . S
Sc969 O985 2.105 . S
Sc969 O989 2.105 . S
Sc970 O971 2.025 . S
Sc970 O980 2.105 . S
Sc970 O982 2.105 . S
Sc970 O986 2.105 . S
Sc970 O988 2.105 . S
O971 Sc968 2.025 . S
O971 Sc969 2.025 . S
O971 Sc970 2.025 . S
C972 O978 1.268 . S
C972 O988 1.268 . S
C973 O979 1.268 . S
C973 O987 1.268 . S
C974 O980 1.268 . S
C974 O989 1.268 . S
C975 O981 1.268 . S
C975 O985 1.268 . S
C976 O982 1.268 . S
C976 O984 1.268 . S
C977 O983 1.268 . S
C977 O986 1.268 . S
O978 Sc968 2.105 . S
O978 C972 1.268 . S
O979 Sc969 2.105 . S
O979 C973 1.268 . S
O980 Sc970 2.105 . S
O980 C974 1.268 . S
O981 Sc968 2.105 . S
O981 C975 1.268 . S
O982 Sc970 2.105 . S
O982 C976 1.268 . S
O983 Sc969 2.105 . S
O983 C977 1.268 . S
O984 Sc968 2.105 . S
O984 C976 1.268 . S
O985 Sc969 2.105 . S
O985 C975 1.268 . S
O986 Sc970 2.105 . S
O986 C977 1.268 . S
O987 Sc968 2.105 . S
O987 C973 1.268 . S
O988 Sc970 2.105 . S
O988 C972 1.268 . S
O989 Sc969 2.105 . S
O989 C974 1.268 . S
Sc990 O993 2.025 . S
Sc990 O1000 2.105 . S
Sc990 O1003 2.105 . S
Sc990 O1006 2.105 . S
Sc990 O1009 2.105 . S
Sc991 O993 2.025 . S
Sc991 O1001 2.105 . S
Sc991 O1005 2.105 . S
Sc991 O1007 2.105 . S
Sc991 O1011 2.105 . S
Sc992 O993 2.025 . S
Sc992 O1002 2.105 . S
Sc992 O1004 2.105 . S
Sc992 O1008 2.105 . S
Sc992 O1010 2.105 . S
O993 Sc990 2.025 . S
O993 Sc991 2.025 . S
O993 Sc992 2.025 . S
C994 O1000 1.268 . S
C994 O1010 1.268 . S
C995 O1001 1.268 . S
C995 O1009 1.268 . S
C996 O1002 1.268 . S
C996 O1011 1.268 . S
C997 O1003 1.268 . S
C997 O1007 1.268 . S
C998 O1004 1.268 . S
C998 O1006 1.268 . S
C999 O1005 1.268 . S
C999 O1008 1.268 . S
O1000 Sc990 2.105 . S
O1000 C994 1.268 . S
O1001 Sc991 2.105 . S
O1001 C995 1.268 . S
O1002 Sc992 2.105 . S
O1002 C996 1.268 . S
O1003 Sc990 2.105 . S
O1003 C997 1.268 . S
O1004 Sc992 2.105 . S
O1004 C998 1.268 . S
O1005 Sc991 2.105 . S
O1005 C999 1.268 . S
O1006 Sc990 2.105 . S
O1006 C998 1.268 . S
O1007 Sc991 2.105 . S
O1007 C997 1.268 . S
O1008 Sc992 2.105 . S
O1008 C999 1.268 . S
O1009 Sc990 2.105 . S
O1009 C995 1.268 . S
O1010 Sc992 2.105 . S
O1010 C994 1.268 . S
O1011 Sc991 2.105 . S
O1011 C996 1.268 . S
Sc1012 O1015 2.025 . S
Sc1012 O1022 2.105 . S
Sc1012 O1025 2.105 . S
Sc1012 O1028 2.105 . S
Sc1012 O1031 2.105 . S
Sc1013 O1015 2.025 . S
Sc1013 O1023 2.105 . S
Sc1013 O1027 2.105 . S
Sc1013 O1029 2.105 . S
Sc1013 O1033 2.105 . S
Sc1014 O1015 2.025 . S
Sc1014 O1024 2.105 . S
Sc1014 O1026 2.105 . S
Sc1014 O1030 2.105 . S
Sc1014 O1032 2.105 . S
O1015 Sc1012 2.025 . S
O1015 Sc1013 2.025 . S
O1015 Sc1014 2.025 . S
C1016 O1022 1.268 . S
C1016 O1032 1.268 . S
C1017 O1023 1.268 . S
C1017 O1031 1.268 . S
C1018 O1024 1.268 . S
C1018 O1033 1.268 . S
C1019 O1025 1.268 . S
C1019 O1029 1.268 . S
C1020 O1026 1.268 . S
C1020 O1028 1.268 . S
C1021 O1027 1.268 . S
C1021 O1030 1.268 . S
O1022 Sc1012 2.105 . S
O1022 C1016 1.268 . S
O1023 Sc1013 2.105 . S
O1023 C1017 1.268 . S
O1024 Sc1014 2.105 . S
O1024 C1018 1.268 . S
O1025 Sc1012 2.105 . S
O1025 C1019 1.268 . S
O1026 Sc1014 2.105 . S
O1026 C1020 1.268 . S
O1027 Sc1013 2.105 . S
O1027 C1021 1.268 . S
O1028 Sc1012 2.105 . S
O1028 C1020 1.268 . S
O1029 Sc1013 2.105 . S
O1029 C1019 1.268 . S
O1030 Sc1014 2.105 . S
O1030 C1021 1.268 . S
O1031 Sc1012 2.105 . S
O1031 C1017 1.268 . S
O1032 Sc1014 2.105 . S
O1032 C1016 1.268 . S
O1033 Sc1013 2.105 . S
O1033 C1018 1.268 . S
Sc1034 O1037 2.025 . S
Sc1034 O1044 2.105 . S
Sc1034 O1047 2.105 . S
Sc1034 O1050 2.105 . S
Sc1034 O1053 2.105 . S
Sc1035 O1037 2.025 . S
Sc1035 O1045 2.105 . S
Sc1035 O1049 2.105 . S
Sc1035 O1051 2.105 . S
Sc1035 O1055 2.105 . S
Sc1036 O1037 2.025 . S
Sc1036 O1046 2.105 . S
Sc1036 O1048 2.105 . S
Sc1036 O1052 2.105 . S
Sc1036 O1054 2.105 . S
O1037 Sc1034 2.025 . S
O1037 Sc1035 2.025 . S
O1037 Sc1036 2.025 . S
C1038 O1044 1.268 . S
C1038 O1054 1.268 . S
C1039 O1045 1.268 . S
C1039 O1053 1.268 . S
C1040 O1046 1.268 . S
C1040 O1055 1.268 . S
C1041 O1047 1.268 . S
C1041 O1051 1.268 . S
C1042 O1048 1.268 . S
C1042 O1050 1.268 . S
C1043 O1049 1.268 . S
C1043 O1052 1.268 . S
O1044 Sc1034 2.105 . S
O1044 C1038 1.268 . S
O1045 Sc1035 2.105 . S
O1045 C1039 1.268 . S
O1046 Sc1036 2.105 . S
O1046 C1040 1.268 . S
O1047 Sc1034 2.105 . S
O1047 C1041 1.268 . S
O1048 Sc1036 2.105 . S
O1048 C1042 1.268 . S
O1049 Sc1035 2.105 . S
O1049 C1043 1.268 . S
O1050 Sc1034 2.105 . S
O1050 C1042 1.268 . S
O1051 Sc1035 2.105 . S
O1051 C1041 1.268 . S
O1052 Sc1036 2.105 . S
O1052 C1043 1.268 . S
O1053 Sc1034 2.105 . S
O1053 C1039 1.268 . S
O1054 Sc1036 2.105 . S
O1054 C1038 1.268 . S
O1055 Sc1035 2.105 . S
O1055 C1040 1.268 . S
C1056 C1057 1.387 . S
C1056 H1060 0.950 . S
C1056 C1065 1.390 1_545 S
C1057 C1056 1.387 . S
C1057 C1059 1.387 . S
H1058 C1065 0.950 . S
C1059 C1057 1.387 . S
C1059 C1061 1.390 1_545 S
C1059 H1063 0.950 . S
H1060 C1056 0.950 . S
C1061 C1059 1.390 1_565 S
C1061 C1062 1.387 . S
C1061 H1064 0.950 . S
C1062 C1061 1.387 . S
C1062 C1065 1.387 . S
H1063 C1059 0.950 . S
H1064 C1061 0.950 . S
C1065 C1056 1.390 1_565 S
C1065 H1058 0.950 . S
C1065 C1062 1.387 . S
C1066 C1067 1.387 . S
C1066 H1070 0.950 . S
C1066 C1075 1.390 1_455 S
C1067 C1066 1.387 . S
C1067 C1069 1.387 . S
H1068 C1075 0.950 . S
C1069 C1067 1.387 . S
C1069 C1071 1.390 1_455 S
C1069 H1073 0.950 . S
H1070 C1066 0.950 . S
C1071 C1069 1.390 1_655 S
C1071 C1072 1.387 . S
C1071 H1074 0.950 . S
C1072 C1071 1.387 . S
C1072 C1075 1.387 . S
H1073 C1069 0.950 . S
H1074 C1071 0.950 . S
C1075 C1066 1.390 1_655 S
C1075 H1068 0.950 . S
C1075 C1072 1.387 . S
C1076 C1077 1.387 . S
C1076 H1080 0.950 . S
C1076 C1085 1.390 1_545 S
C1077 C1076 1.387 . S
C1077 C1079 1.387 . S
H1078 C1085 0.950 . S
C1079 C1077 1.387 . S
C1079 C1081 1.390 1_545 S
C1079 H1083 0.950 . S
H1080 C1076 0.950 . S
C1081 C1079 1.390 1_565 S
C1081 C1082 1.387 . S
C1081 H1084 0.950 . S
C1082 C1081 1.387 . S
C1082 C1085 1.387 . S
H1083 C1079 0.950 . S
H1084 C1081 0.950 . S
C1085 C1076 1.390 1_565 S
C1085 H1078 0.950 . S
C1085 C1082 1.387 . S
C1086 C1087 1.387 . S
C1086 H1090 0.950 . S
C1086 C1095 1.390 1_655 S
C1087 C1086 1.387 . S
C1087 C1089 1.387 . S
H1088 C1095 0.950 . S
C1089 C1087 1.387 . S
C1089 C1091 1.390 1_655 S
C1089 H1093 0.950 . S
H1090 C1086 0.950 . S
C1091 C1089 1.390 1_455 S
C1091 C1092 1.387 . S
C1091 H1094 0.950 . S
C1092 C1091 1.387 . S
C1092 C1095 1.387 . S
H1093 C1089 0.950 . S
H1094 C1091 0.950 . S
C1095 C1086 1.390 1_455 S
C1095 H1088 0.950 . S
C1095 C1092 1.387 . S
C1096 C1097 1.387 . S
C1096 H1100 0.950 . S
C1096 C1105 1.390 1_565 S
C1097 C1096 1.387 . S
C1097 C1099 1.387 . S
H1098 C1105 0.950 . S
C1099 C1097 1.387 . S
C1099 C1101 1.390 1_565 S
C1099 H1103 0.950 . S
H1100 C1096 0.950 . S
C1101 C1099 1.390 1_545 S
C1101 C1102 1.387 . S
C1101 H1104 0.950 . S
C1102 C1101 1.387 . S
C1102 C1105 1.387 . S
H1103 C1099 0.950 . S
H1104 C1101 0.950 . S
C1105 C1096 1.390 1_545 S
C1105 H1098 0.950 . S
C1105 C1102 1.387 . S
C1106 C1107 1.387 . S
C1106 H1110 0.950 . S
C1106 C1115 1.390 1_455 S
C1107 C1106 1.387 . S
C1107 C1109 1.387 . S
H1108 C1115 0.950 . S
C1109 C1107 1.387 . S
C1109 C1111 1.390 1_455 S
C1109 H1113 0.950 . S
H1110 C1106 0.950 . S
C1111 C1109 1.390 1_655 S
C1111 C1112 1.387 . S
C1111 H1114 0.950 . S
C1112 C1111 1.387 . S
C1112 C1115 1.387 . S
H1113 C1109 0.950 . S
H1114 C1111 0.950 . S
C1115 C1106 1.390 1_655 S
C1115 H1108 0.950 . S
C1115 C1112 1.387 . S
C1116 C1117 1.387 . S
C1116 H1120 0.950 . S
C1116 C1125 1.390 1_545 S
C1117 C1116 1.387 . S
C1117 C1119 1.387 . S
H1118 C1125 0.950 . S
C1119 C1117 1.387 . S
C1119 C1121 1.390 1_545 S
C1119 H1123 0.950 . S
H1120 C1116 0.950 . S
C1121 C1119 1.390 1_565 S
C1121 C1122 1.387 . S
C1121 H1124 0.950 . S
C1122 C1121 1.387 . S
C1122 C1125 1.387 . S
H1123 C1119 0.950 . S
H1124 C1121 0.950 . S
C1125 C1116 1.390 1_565 S
C1125 H1118 0.950 . S
C1125 C1122 1.387 . S
C1126 C1127 1.387 . S
C1126 H1130 0.950 . S
C1126 C1135 1.390 1_655 S
C1127 C1126 1.387 . S
C1127 C1129 1.387 . S
H1128 C1135 0.950 . S
C1129 C1127 1.387 . S
C1129 C1131 1.390 1_655 S
C1129 H1133 0.950 . S
H1130 C1126 0.950 . S
C1131 C1129 1.390 1_455 S
C1131 C1132 1.387 . S
C1131 H1134 0.950 . S
C1132 C1131 1.387 . S
C1132 C1135 1.387 . S
H1133 C1129 0.950 . S
H1134 C1131 0.950 . S
C1135 C1126 1.390 1_455 S
C1135 H1128 0.950 . S
C1135 C1132 1.387 . S
C1136 C1137 1.387 . S
C1136 H1140 0.950 . S
C1136 C1145 1.390 1_554 S
C1137 C1136 1.387 . S
C1137 C1139 1.387 . S
H1138 C1145 0.950 . S
C1139 C1137 1.387 . S
C1139 C1141 1.390 1_554 S
C1139 H1143 0.950 . S
H1140 C1136 0.950 . S
C1141 C1139 1.390 1_556 S
C1141 C1142 1.387 . S
C1141 H1144 0.950 . S
C1142 C1141 1.387 . S
C1142 C1145 1.387 . S
H1143 C1139 0.950 . S
H1144 C1141 0.950 . S
C1145 C1136 1.390 1_556 S
C1145 H1138 0.950 . S
C1145 C1142 1.387 . S
C1146 C1147 1.387 . S
C1146 H1150 0.950 . S
C1146 C1155 1.390 1_556 S
C1147 C1146 1.387 . S
C1147 C1149 1.387 . S
H1148 C1155 0.950 . S
C1149 C1147 1.387 . S
C1149 C1151 1.390 1_556 S
C1149 H1153 0.950 . S
H1150 C1146 0.950 . S
C1151 C1149 1.390 1_554 S
C1151 C1152 1.387 . S
C1151 H1154 0.950 . S
C1152 C1151 1.387 . S
C1152 C1155 1.387 . S
H1153 C1149 0.950 . S
H1154 C1151 0.950 . S
C1155 C1146 1.390 1_554 S
C1155 H1148 0.950 . S
C1155 C1152 1.387 . S
C1156 C1157 1.387 . S
C1156 H1160 0.950 . S
C1156 C1165 1.390 1_556 S
C1157 C1156 1.387 . S
C1157 C1159 1.387 . S
H1158 C1165 0.950 . S
C1159 C1157 1.387 . S
C1159 C1161 1.390 1_556 S
C1159 H1163 0.950 . S
H1160 C1156 0.950 . S
C1161 C1159 1.390 1_554 S
C1161 C1162 1.387 . S
C1161 H1164 0.950 . S
C1162 C1161 1.387 . S
C1162 C1165 1.387 . S
H1163 C1159 0.950 . S
H1164 C1161 0.950 . S
C1165 C1156 1.390 1_554 S
C1165 H1158 0.950 . S
C1165 C1162 1.387 . S
C1166 C1167 1.387 . S
C1166 H1170 0.950 . S
C1166 C1175 1.390 1_556 S
C1167 C1166 1.387 . S
C1167 C1169 1.387 . S
H1168 C1175 0.950 . S
C1169 C1167 1.387 . S
C1169 C1171 1.390 1_556 S
C1169 H1173 0.950 . S
H1170 C1166 0.950 . S
C1171 C1169 1.390 1_554 S
C1171 C1172 1.387 . S
C1171 H1174 0.950 . S
C1172 C1171 1.387 . S
C1172 C1175 1.387 . S
H1173 C1169 0.950 . S
H1174 C1171 0.950 . S
C1175 C1166 1.390 1_554 S
C1175 H1168 0.950 . S
C1175 C1172 1.387 . S
C1176 C1177 1.387 . S
C1176 H1180 0.950 . S
C1176 C1185 1.390 1_556 S
C1177 C1176 1.387 . S
C1177 C1179 1.387 . S
H1178 C1185 0.950 . S
C1179 C1177 1.387 . S
C1179 C1181 1.390 1_556 S
C1179 H1183 0.950 . S
H1180 C1176 0.950 . S
C1181 C1179 1.390 1_554 S
C1181 C1182 1.387 . S
C1181 H1184 0.950 . S
C1182 C1181 1.387 . S
C1182 C1185 1.387 . S
H1183 C1179 0.950 . S
H1184 C1181 0.950 . S
C1185 C1176 1.390 1_554 S
C1185 H1178 0.950 . S
C1185 C1182 1.387 . S
C1186 C1187 1.387 . S
C1186 H1190 0.950 . S
C1186 C1195 1.390 1_556 S
C1187 C1186 1.387 . S
C1187 C1189 1.387 . S
H1188 C1195 0.950 . S
C1189 C1187 1.387 . S
C1189 C1191 1.390 1_556 S
C1189 H1193 0.950 . S
H1190 C1186 0.950 . S
C1191 C1189 1.390 1_554 S
C1191 C1192 1.387 . S
C1191 H1194 0.950 . S
C1192 C1191 1.387 . S
C1192 C1195 1.387 . S
H1193 C1189 0.950 . S
H1194 C1191 0.950 . S
C1195 C1186 1.390 1_554 S
C1195 H1188 0.950 . S
C1195 C1192 1.387 . S
C1196 C1197 1.387 . S
C1196 H1200 0.950 . S
C1196 C1205 1.390 1_556 S
C1197 C1196 1.387 . S
C1197 C1199 1.387 . S
H1198 C1205 0.950 . S
C1199 C1197 1.387 . S
C1199 C1201 1.390 1_556 S
C1199 H1203 0.950 . S
H1200 C1196 0.950 . S
C1201 C1199 1.390 1_554 S
C1201 C1202 1.387 . S
C1201 H1204 0.950 . S
C1202 C1201 1.387 . S
C1202 C1205 1.387 . S
H1203 C1199 0.950 . S
H1204 C1201 0.950 . S
C1205 C1196 1.390 1_554 S
C1205 H1198 0.950 . S
C1205 C1202 1.387 . S
C1206 C1207 1.387 . S
C1206 H1210 0.950 . S
C1206 C1215 1.390 1_556 S
C1207 C1206 1.387 . S
C1207 C1209 1.387 . S
H1208 C1215 0.950 . S
C1209 C1207 1.387 . S
C1209 C1211 1.390 1_556 S
C1209 H1213 0.950 . S
H1210 C1206 0.950 . S
C1211 C1209 1.390 1_554 S
C1211 C1212 1.387 . S
C1211 H1214 0.950 . S
C1212 C1211 1.387 . S
C1212 C1215 1.387 . S
H1213 C1209 0.950 . S
H1214 C1211 0.950 . S
C1215 C1206 1.390 1_554 S
C1215 H1208 0.950 . S
C1215 C1212 1.387 . S
C1216 C1217 1.387 . S
C1216 H1220 0.950 . S
C1216 C1225 1.390 1_655 S
C1217 C1216 1.387 . S
C1217 C1219 1.387 . S
H1218 C1225 0.950 . S
C1219 C1217 1.387 . S
C1219 C1221 1.390 1_655 S
C1219 H1223 0.950 . S
H1220 C1216 0.950 . S
C1221 C1219 1.390 1_455 S
C1221 C1222 1.387 . S
C1221 H1224 0.950 . S
C1222 C1221 1.387 . S
C1222 C1225 1.387 . S
H1223 C1219 0.950 . S
H1224 C1221 0.950 . S
C1225 C1216 1.390 1_455 S
C1225 H1218 0.950 . S
C1225 C1222 1.387 . S
C1226 C1227 1.387 . S
C1226 H1230 0.950 . S
C1226 C1235 1.390 1_455 S
C1227 C1226 1.387 . S
C1227 C1229 1.387 . S
H1228 C1235 0.950 . S
C1229 C1227 1.387 . S
C1229 C1231 1.390 1_455 S
C1229 H1233 0.950 . S
H1230 C1226 0.950 . S
C1231 C1229 1.390 1_655 S
C1231 C1232 1.387 . S
C1231 H1234 0.950 . S
C1232 C1231 1.387 . S
C1232 C1235 1.387 . S
H1233 C1229 0.950 . S
H1234 C1231 0.950 . S
C1235 C1226 1.390 1_655 S
C1235 H1228 0.950 . S
C1235 C1232 1.387 . S
C1236 C1237 1.387 . S
C1236 H1240 0.950 . S
C1236 C1245 1.390 1_545 S
C1237 C1236 1.387 . S
C1237 C1239 1.387 . S
H1238 C1245 0.950 . S
C1239 C1237 1.387 . S
C1239 C1241 1.390 1_545 S
C1239 H1243 0.950 . S
H1240 C1236 0.950 . S
C1241 C1239 1.390 1_565 S
C1241 C1242 1.387 . S
C1241 H1244 0.950 . S
C1242 C1241 1.387 . S
C1242 C1245 1.387 . S
H1243 C1239 0.950 . S
H1244 C1241 0.950 . S
C1245 C1236 1.390 1_565 S
C1245 H1238 0.950 . S
C1245 C1242 1.387 . S
C1246 C1247 1.387 . S
C1246 H1250 0.950 . S
C1246 C1255 1.390 1_655 S
C1247 C1246 1.387 . S
C1247 C1249 1.387 . S
H1248 C1255 0.950 . S
C1249 C1247 1.387 . S
C1249 C1251 1.390 1_655 S
C1249 H1253 0.950 . S
H1250 C1246 0.950 . S
C1251 C1249 1.390 1_455 S
C1251 C1252 1.387 . S
C1251 H1254 0.950 . S
C1252 C1251 1.387 . S
C1252 C1255 1.387 . S
H1253 C1249 0.950 . S
H1254 C1251 0.950 . S
C1255 C1246 1.390 1_455 S
C1255 H1248 0.950 . S
C1255 C1252 1.387 . S
C1256 C1257 1.387 . S
C1256 H1260 0.950 . S
C1256 C1265 1.390 1_565 S
C1257 C1256 1.387 . S
C1257 C1259 1.387 . S
H1258 C1265 0.950 . S
C1259 C1257 1.387 . S
C1259 C1261 1.390 1_565 S
C1259 H1263 0.950 . S
H1260 C1256 0.950 . S
C1261 C1259 1.390 1_545 S
C1261 C1262 1.387 . S
C1261 H1264 0.950 . S
C1262 C1261 1.387 . S
C1262 C1265 1.387 . S
H1263 C1259 0.950 . S
H1264 C1261 0.950 . S
C1265 C1256 1.390 1_545 S
C1265 H1258 0.950 . S
C1265 C1262 1.387 . S
C1266 C1267 1.387 . S
C1266 H1270 0.950 . S
C1266 C1275 1.390 1_455 S
C1267 C1266 1.387 . S
C1267 C1269 1.387 . S
H1268 C1275 0.950 . S
C1269 C1267 1.387 . S
C1269 C1271 1.390 1_455 S
C1269 H1273 0.950 . S
H1270 C1266 0.950 . S
C1271 C1269 1.390 1_655 S
C1271 C1272 1.387 . S
C1271 H1274 0.950 . S
C1272 C1271 1.387 . S
C1272 C1275 1.387 . S
H1273 C1269 0.950 . S
H1274 C1271 0.950 . S
C1275 C1266 1.390 1_655 S
C1275 H1268 0.950 . S
C1275 C1272 1.387 . S
C1276 C1277 1.387 . S
C1276 H1280 0.950 . S
C1276 C1285 1.390 1_565 S
C1277 C1276 1.387 . S
C1277 C1279 1.387 . S
H1278 C1285 0.950 . S
C1279 C1277 1.387 . S
C1279 C1281 1.390 1_565 S
C1279 H1283 0.950 . S
H1280 C1276 0.950 . S
C1281 C1279 1.390 1_545 S
C1281 C1282 1.387 . S
C1281 H1284 0.950 . S
C1282 C1281 1.387 . S
C1282 C1285 1.387 . S
H1283 C1279 0.950 . S
H1284 C1281 0.950 . S
C1285 C1276 1.390 1_545 S
C1285 H1278 0.950 . S
C1285 C1282 1.387 . S
C1286 C1287 1.387 . S
C1286 H1290 0.950 . S
C1286 C1295 1.390 1_545 S
C1287 C1286 1.387 . S
C1287 C1289 1.387 . S
H1288 C1295 0.950 . S
C1289 C1287 1.387 . S
C1289 C1291 1.390 1_545 S
C1289 H1293 0.950 . S
H1290 C1286 0.950 . S
C1291 C1289 1.390 1_565 S
C1291 C1292 1.387 . S
C1291 H1294 0.950 . S
C1292 C1291 1.387 . S
C1292 C1295 1.387 . S
H1293 C1289 0.950 . S
H1294 C1291 0.950 . S
C1295 C1286 1.390 1_565 S
C1295 H1288 0.950 . S
C1295 C1292 1.387 . S
C1296 C1297 1.387 . S
C1296 H1300 0.950 . S
C1296 C1305 1.390 . S
C1297 C1296 1.387 . S
C1297 C1299 1.387 . S
H1298 C1305 0.950 . S
C1299 C1297 1.387 . S
C1299 C1301 1.390 . S
C1299 H1303 0.950 . S
H1300 C1296 0.950 . S
C1301 C1299 1.390 . S
C1301 C1302 1.387 . S
C1301 H1304 0.950 . S
C1302 C1301 1.387 . S
C1302 C1305 1.387 . S
H1303 C1299 0.950 . S
H1304 C1301 0.950 . S
C1305 C1296 1.390 . S
C1305 H1298 0.950 . S
C1305 C1302 1.387 . S
C1306 C1307 1.387 . S
C1306 H1310 0.950 . S
C1306 C1315 1.390 . S
C1307 C1306 1.387 . S
C1307 C1309 1.387 . S
H1308 C1315 0.950 . S
C1309 C1307 1.387 . S
C1309 C1311 1.390 . S
C1309 H1313 0.950 . S
H1310 C1306 0.950 . S
C1311 C1309 1.390 . S
C1311 C1312 1.387 . S
C1311 H1314 0.950 . S
C1312 C1311 1.387 . S
C1312 C1315 1.387 . S
H1313 C1309 0.950 . S
H1314 C1311 0.950 . S
C1315 C1306 1.390 . S
C1315 H1308 0.950 . S
C1315 C1312 1.387 . S
C1316 C1317 1.387 . S
C1316 H1320 0.950 . S
C1316 C1325 1.390 . S
C1317 C1316 1.387 . S
C1317 C1319 1.387 . S
H1318 C1325 0.950 . S
C1319 C1317 1.387 . S
C1319 C1321 1.390 . S
C1319 H1323 0.950 . S
H1320 C1316 0.950 . S
C1321 C1319 1.390 . S
C1321 C1322 1.387 . S
C1321 H1324 0.950 . S
C1322 C1321 1.387 . S
C1322 C1325 1.387 . S
H1323 C1319 0.950 . S
H1324 C1321 0.950 . S
C1325 C1316 1.390 . S
C1325 H1318 0.950 . S
C1325 C1322 1.387 . S
C1326 C1327 1.387 . S
C1326 H1330 0.950 . S
C1326 C1335 1.390 . S
C1327 C1326 1.387 . S
C1327 C1329 1.387 . S
H1328 C1335 0.950 . S
C1329 C1327 1.387 . S
C1329 C1331 1.390 . S
C1329 H1333 0.950 . S
H1330 C1326 0.950 . S
C1331 C1329 1.390 . S
C1331 C1332 1.387 . S
C1331 H1334 0.950 . S
C1332 C1331 1.387 . S
C1332 C1335 1.387 . S
H1333 C1329 0.950 . S
H1334 C1331 0.950 . S
C1335 C1326 1.390 . S
C1335 H1328 0.950 . S
C1335 C1332 1.387 . S
C1336 C1337 1.387 . S
C1336 H1340 0.950 . S
C1336 C1345 1.390 . S
C1337 C1336 1.387 . S
C1337 C1339 1.387 . S
H1338 C1345 0.950 . S
C1339 C1337 1.387 . S
C1339 C1341 1.390 . S
C1339 H1343 0.950 . S
H1340 C1336 0.950 . S
C1341 C1339 1.390 . S
C1341 C1342 1.387 . S
C1341 H1344 0.950 . S
C1342 C1341 1.387 . S
C1342 C1345 1.387 . S
H1343 C1339 0.950 . S
H1344 C1341 0.950 . S
C1345 C1336 1.390 . S
C1345 H1338 0.950 . S
C1345 C1342 1.387 . S
C1346 C1347 1.387 . S
C1346 H1350 0.950 . S
C1346 C1355 1.390 . S
C1347 C1346 1.387 . S
C1347 C1349 1.387 . S
H1348 C1355 0.950 . S
C1349 C1347 1.387 . S
C1349 C1351 1.390 . S
C1349 H1353 0.950 . S
H1350 C1346 0.950 . S
C1351 C1349 1.390 . S
C1351 C1352 1.387 . S
C1351 H1354 0.950 . S
C1352 C1351 1.387 . S
C1352 C1355 1.387 . S
H1353 C1349 0.950 . S
H1354 C1351 0.950 . S
C1355 C1346 1.390 . S
C1355 H1348 0.950 . S
C1355 C1352 1.387 . S
C1356 C1357 1.387 . S
C1356 H1360 0.950 . S
C1356 C1365 1.390 . S
C1357 C1356 1.387 . S
C1357 C1359 1.387 . S
H1358 C1365 0.950 . S
C1359 C1357 1.387 . S
C1359 C1361 1.390 . S
C1359 H1363 0.950 . S
H1360 C1356 0.950 . S
C1361 C1359 1.390 . S
C1361 C1362 1.387 . S
C1361 H1364 0.950 . S
C1362 C1361 1.387 . S
C1362 C1365 1.387 . S
H1363 C1359 0.950 . S
H1364 C1361 0.950 . S
C1365 C1356 1.390 . S
C1365 H1358 0.950 . S
C1365 C1362 1.387 . S
C1366 C1367 1.387 . S
C1366 H1370 0.950 . S
C1366 C1375 1.390 . S
C1367 C1366 1.387 . S
C1367 C1369 1.387 . S
H1368 C1375 0.950 . S
C1369 C1367 1.387 . S
C1369 C1371 1.390 . S
C1369 H1373 0.950 . S
H1370 C1366 0.950 . S
C1371 C1369 1.390 . S
C1371 C1372 1.387 . S
C1371 H1374 0.950 . S
C1372 C1371 1.387 . S
C1372 C1375 1.387 . S
H1373 C1369 0.950 . S
H1374 C1371 0.950 . S
C1375 C1366 1.390 . S
C1375 H1368 0.950 . S
C1375 C1372 1.387 . S
C1376 C1377 1.387 . S
C1376 H1380 0.950 . S
C1376 C1385 1.390 . S
C1377 C1376 1.387 . S
C1377 C1379 1.387 . S
H1378 C1385 0.950 . S
C1379 C1377 1.387 . S
C1379 C1381 1.390 . S
C1379 H1383 0.950 . S
H1380 C1376 0.950 . S
C1381 C1379 1.390 . S
C1381 C1382 1.387 . S
C1381 H1384 0.950 . S
C1382 C1381 1.387 . S
C1382 C1385 1.387 . S
H1383 C1379 0.950 . S
H1384 C1381 0.950 . S
C1385 C1376 1.390 . S
C1385 H1378 0.950 . S
C1385 C1382 1.387 . S
C1386 C1387 1.387 . S
C1386 H1390 0.950 . S
C1386 C1395 1.390 . S
C1387 C1386 1.387 . S
C1387 C1389 1.387 . S
H1388 C1395 0.950 . S
C1389 C1387 1.387 . S
C1389 C1391 1.390 . S
C1389 H1393 0.950 . S
H1390 C1386 0.950 . S
C1391 C1389 1.390 . S
C1391 C1392 1.387 . S
C1391 H1394 0.950 . S
C1392 C1391 1.387 . S
C1392 C1395 1.387 . S
H1393 C1389 0.950 . S
H1394 C1391 0.950 . S
C1395 C1386 1.390 . S
C1395 H1388 0.950 . S
C1395 C1392 1.387 . S
C1396 C1397 1.387 . S
C1396 H1400 0.950 . S
C1396 C1405 1.390 . S
C1397 C1396 1.387 . S
C1397 C1399 1.387 . S
H1398 C1405 0.950 . S
C1399 C1397 1.387 . S
C1399 C1401 1.390 . S
C1399 H1403 0.950 . S
H1400 C1396 0.950 . S
C1401 C1399 1.390 . S
C1401 C1402 1.387 . S
C1401 H1404 0.950 . S
C1402 C1401 1.387 . S
C1402 C1405 1.387 . S
H1403 C1399 0.950 . S
H1404 C1401 0.950 . S
C1405 C1396 1.390 . S
C1405 H1398 0.950 . S
C1405 C1402 1.387 . S
C1406 C1407 1.387 . S
C1406 H1410 0.950 . S
C1406 C1415 1.390 . S
C1407 C1406 1.387 . S
C1407 C1409 1.387 . S
H1408 C1415 0.950 . S
C1409 C1407 1.387 . S
C1409 C1411 1.390 . S
C1409 H1413 0.950 . S
H1410 C1406 0.950 . S
C1411 C1409 1.390 . S
C1411 C1412 1.387 . S
C1411 H1414 0.950 . S
C1412 C1411 1.387 . S
C1412 C1415 1.387 . S
H1413 C1409 0.950 . S
H1414 C1411 0.950 . S
C1415 C1406 1.390 . S
C1415 H1408 0.950 . S
C1415 C1412 1.387 . S
C1416 C1417 1.387 . S
C1416 H1420 0.950 . S
C1416 C1425 1.390 . S
C1417 C1416 1.387 . S
C1417 C1419 1.387 . S
H1418 C1425 0.950 . S
C1419 C1417 1.387 . S
C1419 C1421 1.390 . S
C1419 H1423 0.950 . S
H1420 C1416 0.950 . S
C1421 C1419 1.390 . S
C1421 C1422 1.387 . S
C1421 H1424 0.950 . S
C1422 C1421 1.387 . S
C1422 C1425 1.387 . S
H1423 C1419 0.950 . S
H1424 C1421 0.950 . S
C1425 C1416 1.390 . S
C1425 H1418 0.950 . S
C1425 C1422 1.387 . S
C1426 C1427 1.387 . S
C1426 H1430 0.950 . S
C1426 C1435 1.390 . S
C1427 C1426 1.387 . S
C1427 C1429 1.387 . S
H1428 C1435 0.950 . S
C1429 C1427 1.387 . S
C1429 C1431 1.390 . S
C1429 H1433 0.950 . S
H1430 C1426 0.950 . S
C1431 C1429 1.390 . S
C1431 C1432 1.387 . S
C1431 H1434 0.950 . S
C1432 C1431 1.387 . S
C1432 C1435 1.387 . S
H1433 C1429 0.950 . S
H1434 C1431 0.950 . S
C1435 C1426 1.390 . S
C1435 H1428 0.950 . S
C1435 C1432 1.387 . S
C1436 C1437 1.387 . S
C1436 H1440 0.950 . S
C1436 C1445 1.390 . S
C1437 C1436 1.387 . S
C1437 C1439 1.387 . S
H1438 C1445 0.950 . S
C1439 C1437 1.387 . S
C1439 C1441 1.390 . S
C1439 H1443 0.950 . S
H1440 C1436 0.950 . S
C1441 C1439 1.390 . S
C1441 C1442 1.387 . S
C1441 H1444 0.950 . S
C1442 C1441 1.387 . S
C1442 C1445 1.387 . S
H1443 C1439 0.950 . S
H1444 C1441 0.950 . S
C1445 C1436 1.390 . S
C1445 H1438 0.950 . S
C1445 C1442 1.387 . S
C1446 C1447 1.387 . S
C1446 H1450 0.950 . S
C1446 C1455 1.390 . S
C1447 C1446 1.387 . S
C1447 C1449 1.387 . S
H1448 C1455 0.950 . S
C1449 C1447 1.387 . S
C1449 C1451 1.390 . S
C1449 H1453 0.950 . S
H1450 C1446 0.950 . S
C1451 C1449 1.390 . S
C1451 C1452 1.387 . S
C1451 H1454 0.950 . S
C1452 C1451 1.387 . S
C1452 C1455 1.387 . S
H1453 C1449 0.950 . S
H1454 C1451 0.950 . S
C1455 C1446 1.390 . S
C1455 H1448 0.950 . S
C1455 C1452 1.387 . S
C1456 C1457 1.387 . S
C1456 H1460 0.950 . S
C1456 C1465 1.390 . S
C1457 C1456 1.387 . S
C1457 C1459 1.387 . S
H1458 C1465 0.950 . S
C1459 C1457 1.387 . S
C1459 C1461 1.390 . S
C1459 H1463 0.950 . S
H1460 C1456 0.950 . S
C1461 C1459 1.390 . S
C1461 C1462 1.387 . S
C1461 H1464 0.950 . S
C1462 C1461 1.387 . S
C1462 C1465 1.387 . S
H1463 C1459 0.950 . S
H1464 C1461 0.950 . S
C1465 C1456 1.390 . S
C1465 H1458 0.950 . S
C1465 C1462 1.387 . S
C1466 C1467 1.387 . S
C1466 H1470 0.950 . S
C1466 C1475 1.390 . S
C1467 C1466 1.387 . S
C1467 C1469 1.387 . S
H1468 C1475 0.950 . S
C1469 C1467 1.387 . S
C1469 C1471 1.390 . S
C1469 H1473 0.950 . S
H1470 C1466 0.950 . S
C1471 C1469 1.390 . S
C1471 C1472 1.387 . S
C1471 H1474 0.950 . S
C1472 C1471 1.387 . S
C1472 C1475 1.387 . S
H1473 C1469 0.950 . S
H1474 C1471 0.950 . S
C1475 C1466 1.390 . S
C1475 H1468 0.950 . S
C1475 C1472 1.387 . S
C1476 C1477 1.387 . S
C1476 H1480 0.950 . S
C1476 C1485 1.390 . S
C1477 C1476 1.387 . S
C1477 C1479 1.387 . S
H1478 C1485 0.950 . S
C1479 C1477 1.387 . S
C1479 C1481 1.390 . S
C1479 H1483 0.950 . S
H1480 C1476 0.950 . S
C1481 C1479 1.390 . S
C1481 C1482 1.387 . S
C1481 H1484 0.950 . S
C1482 C1481 1.387 . S
C1482 C1485 1.387 . S
H1483 C1479 0.950 . S
H1484 C1481 0.950 . S
C1485 C1476 1.390 . S
C1485 H1478 0.950 . S
C1485 C1482 1.387 . S
C1486 C1487 1.387 . S
C1486 H1490 0.950 . S
C1486 C1495 1.390 . S
C1487 C1486 1.387 . S
C1487 C1489 1.387 . S
H1488 C1495 0.950 . S
C1489 C1487 1.387 . S
C1489 C1491 1.390 . S
C1489 H1493 0.950 . S
H1490 C1486 0.950 . S
C1491 C1489 1.390 . S
C1491 C1492 1.387 . S
C1491 H1494 0.950 . S
C1492 C1491 1.387 . S
C1492 C1495 1.387 . S
H1493 C1489 0.950 . S
H1494 C1491 0.950 . S
C1495 C1486 1.390 . S
C1495 H1488 0.950 . S
C1495 C1492 1.387 . S
C1496 C1497 1.387 . S
C1496 H1500 0.950 . S
C1496 C1505 1.390 . S
C1497 C1496 1.387 . S
C1497 C1499 1.387 . S
H1498 C1505 0.950 . S
C1499 C1497 1.387 . S
C1499 C1501 1.390 . S
C1499 H1503 0.950 . S
H1500 C1496 0.950 . S
C1501 C1499 1.390 . S
C1501 C1502 1.387 . S
C1501 H1504 0.950 . S
C1502 C1501 1.387 . S
C1502 C1505 1.387 . S
H1503 C1499 0.950 . S
H1504 C1501 0.950 . S
C1505 C1496 1.390 . S
C1505 H1498 0.950 . S
C1505 C1502 1.387 . S
C1506 C1507 1.387 . S
C1506 H1510 0.950 . S
C1506 C1515 1.390 . S
C1507 C1506 1.387 . S
C1507 C1509 1.387 . S
H1508 C1515 0.950 . S
C1509 C1507 1.387 . S
C1509 C1511 1.390 . S
C1509 H1513 0.950 . S
H1510 C1506 0.950 . S
C1511 C1509 1.390 . S
C1511 C1512 1.387 . S
C1511 H1514 0.950 . S
C1512 C1511 1.387 . S
C1512 C1515 1.387 . S
H1513 C1509 0.950 . S
H1514 C1511 0.950 . S
C1515 C1506 1.390 . S
C1515 H1508 0.950 . S
C1515 C1512 1.387 . S
C1516 C1517 1.387 . S
C1516 H1520 0.950 . S
C1516 C1525 1.390 . S
C1517 C1516 1.387 . S
C1517 C1519 1.387 . S
H1518 C1525 0.950 . S
C1519 C1517 1.387 . S
C1519 C1521 1.390 . S
C1519 H1523 0.950 . S
H1520 C1516 0.950 . S
C1521 C1519 1.390 . S
C1521 C1522 1.387 . S
C1521 H1524 0.950 . S
C1522 C1521 1.387 . S
C1522 C1525 1.387 . S
H1523 C1519 0.950 . S
H1524 C1521 0.950 . S
C1525 C1516 1.390 . S
C1525 H1518 0.950 . S
C1525 C1522 1.387 . S
C1526 C1527 1.387 . S
C1526 H1530 0.950 . S
C1526 C1535 1.390 . S
C1527 C1526 1.387 . S
C1527 C1529 1.387 . S
H1528 C1535 0.950 . S
C1529 C1527 1.387 . S
C1529 C1531 1.390 . S
C1529 H1533 0.950 . S
H1530 C1526 0.950 . S
C1531 C1529 1.390 . S
C1531 C1532 1.387 . S
C1531 H1534 0.950 . S
C1532 C1531 1.387 . S
C1532 C1535 1.387 . S
H1533 C1529 0.950 . S
H1534 C1531 0.950 . S
C1535 C1526 1.390 . S
C1535 H1528 0.950 . S
C1535 C1532 1.387 . S
C1536 C1537 1.387 . S
C1536 H1540 0.950 . S
C1536 C1545 1.390 . S
C1537 C1536 1.387 . S
C1537 C1539 1.387 . S
H1538 C1545 0.950 . S
C1539 C1537 1.387 . S
C1539 C1541 1.390 . S
C1539 H1543 0.950 . S
H1540 C1536 0.950 . S
C1541 C1539 1.390 . S
C1541 C1542 1.387 . S
C1541 H1544 0.950 . S
C1542 C1541 1.387 . S
C1542 C1545 1.387 . S
H1543 C1539 0.950 . S
H1544 C1541 0.950 . S
C1545 C1536 1.390 . S
C1545 H1538 0.950 . S
C1545 C1542 1.387 . S
C1546 C1547 1.387 . S
C1546 H1550 0.950 . S
C1546 C1555 1.390 . S
C1547 C1546 1.387 . S
C1547 C1549 1.387 . S
H1548 C1555 0.950 . S
C1549 C1547 1.387 . S
C1549 C1551 1.390 . S
C1549 H1553 0.950 . S
H1550 C1546 0.950 . S
C1551 C1549 1.390 . S
C1551 C1552 1.387 . S
C1551 H1554 0.950 . S
C1552 C1551 1.387 . S
C1552 C1555 1.387 . S
H1553 C1549 0.950 . S
H1554 C1551 0.950 . S
C1555 C1546 1.390 . S
C1555 H1548 0.950 . S
C1555 C1552 1.387 . S
C1556 C1557 1.387 . S
C1556 H1560 0.950 . S
C1556 C1565 1.390 . S
C1557 C1556 1.387 . S
C1557 C1559 1.387 . S
H1558 C1565 0.950 . S
C1559 C1557 1.387 . S
C1559 C1561 1.390 . S
C1559 H1563 0.950 . S
H1560 C1556 0.950 . S
C1561 C1559 1.390 . S
C1561 C1562 1.387 . S
C1561 H1564 0.950 . S
C1562 C1561 1.387 . S
C1562 C1565 1.387 . S
H1563 C1559 0.950 . S
H1564 C1561 0.950 . S
C1565 C1556 1.390 . S
C1565 H1558 0.950 . S
C1565 C1562 1.387 . S
C1566 C1567 1.387 . S
C1566 H1570 0.950 . S
C1566 C1575 1.390 . S
C1567 C1566 1.387 . S
C1567 C1569 1.387 . S
H1568 C1575 0.950 . S
C1569 C1567 1.387 . S
C1569 C1571 1.390 . S
C1569 H1573 0.950 . S
H1570 C1566 0.950 . S
C1571 C1569 1.390 . S
C1571 C1572 1.387 . S
C1571 H1574 0.950 . S
C1572 C1571 1.387 . S
C1572 C1575 1.387 . S
H1573 C1569 0.950 . S
H1574 C1571 0.950 . S
C1575 C1566 1.390 . S
C1575 H1568 0.950 . S
C1575 C1572 1.387 . S
C1576 C1577 1.387 . S
C1576 H1580 0.950 . S
C1576 C1585 1.390 . S
C1577 C1576 1.387 . S
C1577 C1579 1.387 . S
H1578 C1585 0.950 . S
C1579 C1577 1.387 . S
C1579 C1581 1.390 . S
C1579 H1583 0.950 . S
H1580 C1576 0.950 . S
C1581 C1579 1.390 . S
C1581 C1582 1.387 . S
C1581 H1584 0.950 . S
C1582 C1581 1.387 . S
C1582 C1585 1.387 . S
H1583 C1579 0.950 . S
H1584 C1581 0.950 . S
C1585 C1576 1.390 . S
C1585 H1578 0.950 . S
C1585 C1582 1.387 . S
C1586 C1587 1.387 . S
C1586 H1590 0.950 . S
C1586 C1595 1.390 . S
C1587 C1586 1.387 . S
C1587 C1589 1.387 . S
H1588 C1595 0.950 . S
C1589 C1587 1.387 . S
C1589 C1591 1.390 . S
C1589 H1593 0.950 . S
H1590 C1586 0.950 . S
C1591 C1589 1.390 . S
C1591 C1592 1.387 . S
C1591 H1594 0.950 . S
C1592 C1591 1.387 . S
C1592 C1595 1.387 . S
H1593 C1589 0.950 . S
H1594 C1591 0.950 . S
C1595 C1586 1.390 . S
C1595 H1588 0.950 . S
C1595 C1592 1.387 . S
C1596 C1597 1.387 . S
C1596 H1600 0.950 . S
C1596 C1605 1.390 . S
C1597 C1596 1.387 . S
C1597 C1599 1.387 . S
H1598 C1605 0.950 . S
C1599 C1597 1.387 . S
C1599 C1601 1.390 . S
C1599 H1603 0.950 . S
H1600 C1596 0.950 . S
C1601 C1599 1.390 . S
C1601 C1602 1.387 . S
C1601 H1604 0.950 . S
C1602 C1601 1.387 . S
C1602 C1605 1.387 . S
H1603 C1599 0.950 . S
H1604 C1601 0.950 . S
C1605 C1596 1.390 . S
C1605 H1598 0.950 . S
C1605 C1602 1.387 . S
C1606 C1607 1.387 . S
C1606 H1610 0.950 . S
C1606 C1615 1.390 . S
C1607 C1606 1.387 . S
C1607 C1609 1.387 . S
H1608 C1615 0.950 . S
C1609 C1607 1.387 . S
C1609 C1611 1.390 . S
C1609 H1613 0.950 . S
H1610 C1606 0.950 . S
C1611 C1609 1.390 . S
C1611 C1612 1.387 . S
C1611 H1614 0.950 . S
C1612 C1611 1.387 . S
C1612 C1615 1.387 . S
H1613 C1609 0.950 . S
H1614 C1611 0.950 . S
C1615 C1606 1.390 . S
C1615 H1608 0.950 . S
C1615 C1612 1.387 . S
C1616 C1617 1.387 . S
C1616 H1620 0.950 . S
C1616 C1625 1.390 . S
C1617 C1616 1.387 . S
C1617 C1619 1.387 . S
H1618 C1625 0.950 . S
C1619 C1617 1.387 . S
C1619 C1621 1.390 . S
C1619 H1623 0.950 . S
H1620 C1616 0.950 . S
C1621 C1619 1.390 . S
C1621 C1622 1.387 . S
C1621 H1624 0.950 . S
C1622 C1621 1.387 . S
C1622 C1625 1.387 . S
H1623 C1619 0.950 . S
H1624 C1621 0.950 . S
C1625 C1616 1.390 . S
C1625 H1618 0.950 . S
C1625 C1622 1.387 . S
C1626 C1627 1.387 . S
C1626 H1630 0.950 . S
C1626 C1635 1.390 . S
C1627 C1626 1.387 . S
C1627 C1629 1.387 . S
H1628 C1635 0.950 . S
C1629 C1627 1.387 . S
C1629 C1631 1.390 . S
C1629 H1633 0.950 . S
H1630 C1626 0.950 . S
C1631 C1629 1.390 . S
C1631 C1632 1.387 . S
C1631 H1634 0.950 . S
C1632 C1631 1.387 . S
C1632 C1635 1.387 . S
H1633 C1629 0.950 . S
H1634 C1631 0.950 . S
C1635 C1626 1.390 . S
C1635 H1628 0.950 . S
C1635 C1632 1.387 . S
C1636 C1637 1.387 . S
C1636 H1640 0.950 . S
C1636 C1645 1.390 . S
C1637 C1636 1.387 . S
C1637 C1639 1.387 . S
H1638 C1645 0.950 . S
C1639 C1637 1.387 . S
C1639 C1641 1.390 . S
C1639 H1643 0.950 . S
H1640 C1636 0.950 . S
C1641 C1639 1.390 . S
C1641 C1642 1.387 . S
C1641 H1644 0.950 . S
C1642 C1641 1.387 . S
C1642 C1645 1.387 . S
H1643 C1639 0.950 . S
H1644 C1641 0.950 . S
C1645 C1636 1.390 . S
C1645 H1638 0.950 . S
C1645 C1642 1.387 . S
C1646 C1647 1.387 . S
C1646 H1650 0.950 . S
C1646 C1655 1.390 . S
C1647 C1646 1.387 . S
C1647 C1649 1.387 . S
H1648 C1655 0.950 . S
C1649 C1647 1.387 . S
C1649 C1651 1.390 . S
C1649 H1653 0.950 . S
H1650 C1646 0.950 . S
C1651 C1649 1.390 . S
C1651 C1652 1.387 . S
C1651 H1654 0.950 . S
C1652 C1651 1.387 . S
C1652 C1655 1.387 . S
H1653 C1649 0.950 . S
H1654 C1651 0.950 . S
C1655 C1646 1.390 . S
C1655 H1648 0.950 . S
C1655 C1652 1.387 . S
C1656 C1657 1.387 . S
C1656 H1660 0.950 . S
C1656 C1665 1.390 . S
C1657 C1656 1.387 . S
C1657 C1659 1.387 . S
H1658 C1665 0.950 . S
C1659 C1657 1.387 . S
C1659 C1661 1.390 . S
C1659 H1663 0.950 . S
H1660 C1656 0.950 . S
C1661 C1659 1.390 . S
C1661 C1662 1.387 . S
C1661 H1664 0.950 . S
C1662 C1661 1.387 . S
C1662 C1665 1.387 . S
H1663 C1659 0.950 . S
H1664 C1661 0.950 . S
C1665 C1656 1.390 . S
C1665 H1658 0.950 . S
C1665 C1662 1.387 . S
C1666 C1667 1.387 . S
C1666 H1670 0.950 . S
C1666 C1675 1.390 . S
C1667 C1666 1.387 . S
C1667 C1669 1.387 . S
H1668 C1675 0.950 . S
C1669 C1667 1.387 . S
C1669 C1671 1.390 . S
C1669 H1673 0.950 . S
H1670 C1666 0.950 . S
C1671 C1669 1.390 . S
C1671 C1672 1.387 . S
C1671 H1674 0.950 . S
C1672 C1671 1.387 . S
C1672 C1675 1.387 . S
H1673 C1669 0.950 . S
H1674 C1671 0.950 . S
C1675 C1666 1.390 . S
C1675 H1668 0.950 . S
C1675 C1672 1.387 . S
C1676 C1677 1.387 . S
C1676 H1680 0.950 . S
C1676 C1685 1.390 . S
C1677 C1676 1.387 . S
C1677 C1679 1.387 . S
H1678 C1685 0.950 . S
C1679 C1677 1.387 . S
C1679 C1681 1.390 . S
C1679 H1683 0.950 . S
H1680 C1676 0.950 . S
C1681 C1679 1.390 . S
C1681 C1682 1.387 . S
C1681 H1684 0.950 . S
C1682 C1681 1.387 . S
C1682 C1685 1.387 . S
H1683 C1679 0.950 . S
H1684 C1681 0.950 . S
C1685 C1676 1.390 . S
C1685 H1678 0.950 . S
C1685 C1682 1.387 . S
C1686 C1687 1.387 . S
C1686 H1690 0.950 . S
C1686 C1695 1.390 . S
C1687 C1686 1.387 . S
C1687 C1689 1.387 . S
H1688 C1695 0.950 . S
C1689 C1687 1.387 . S
C1689 C1691 1.390 . S
C1689 H1693 0.950 . S
H1690 C1686 0.950 . S
C1691 C1689 1.390 . S
C1691 C1692 1.387 . S
C1691 H1694 0.950 . S
C1692 C1691 1.387 . S
C1692 C1695 1.387 . S
H1693 C1689 0.950 . S
H1694 C1691 0.950 . S
C1695 C1686 1.390 . S
C1695 H1688 0.950 . S
C1695 C1692 1.387 . S
C1696 C1697 1.387 . S
C1696 H1700 0.950 . S
C1696 C1705 1.390 . S
C1697 C1696 1.387 . S
C1697 C1699 1.387 . S
H1698 C1705 0.950 . S
C1699 C1697 1.387 . S
C1699 C1701 1.390 . S
C1699 H1703 0.950 . S
H1700 C1696 0.950 . S
C1701 C1699 1.390 . S
C1701 C1702 1.387 . S
C1701 H1704 0.950 . S
C1702 C1701 1.387 . S
C1702 C1705 1.387 . S
H1703 C1699 0.950 . S
H1704 C1701 0.950 . S
C1705 C1696 1.390 . S
C1705 H1698 0.950 . S
C1705 C1702 1.387 . S
C1706 C1707 1.387 . S
C1706 H1710 0.950 . S
C1706 C1715 1.390 . S
C1707 C1706 1.387 . S
C1707 C1709 1.387 . S
H1708 C1715 0.950 . S
C1709 C1707 1.387 . S
C1709 C1711 1.390 . S
C1709 H1713 0.950 . S
H1710 C1706 0.950 . S
C1711 C1709 1.390 . S
C1711 C1712 1.387 . S
C1711 H1714 0.950 . S
C1712 C1711 1.387 . S
C1712 C1715 1.387 . S
H1713 C1709 0.950 . S
H1714 C1711 0.950 . S
C1715 C1706 1.390 . S
C1715 H1708 0.950 . S
C1715 C1712 1.387 . S
C1716 C1717 1.387 . S
C1716 H1720 0.950 . S
C1716 C1725 1.390 . S
C1717 C1716 1.387 . S
C1717 C1719 1.387 . S
H1718 C1725 0.950 . S
C1719 C1717 1.387 . S
C1719 C1721 1.390 . S
C1719 H1723 0.950 . S
H1720 C1716 0.950 . S
C1721 C1719 1.390 . S
C1721 C1722 1.387 . S
C1721 H1724 0.950 . S
C1722 C1721 1.387 . S
C1722 C1725 1.387 . S
H1723 C1719 0.950 . S
H1724 C1721 0.950 . S
C1725 C1716 1.390 . S
C1725 H1718 0.950 . S
C1725 C1722 1.387 . S
C1726 C1727 1.387 . S
C1726 H1730 0.950 . S
C1726 C1735 1.390 . S
C1727 C1726 1.387 . S
C1727 C1729 1.387 . S
H1728 C1735 0.950 . S
C1729 C1727 1.387 . S
C1729 C1731 1.390 . S
C1729 H1733 0.950 . S
H1730 C1726 0.950 . S
C1731 C1729 1.390 . S
C1731 C1732 1.387 . S
C1731 H1734 0.950 . S
C1732 C1731 1.387 . S
C1732 C1735 1.387 . S
H1733 C1729 0.950 . S
H1734 C1731 0.950 . S
C1735 C1726 1.390 . S
C1735 H1728 0.950 . S
C1735 C1732 1.387 . S
C1736 C1737 1.387 . S
C1736 H1740 0.950 . S
C1736 C1745 1.390 . S
C1737 C1736 1.387 . S
C1737 C1739 1.387 . S
H1738 C1745 0.950 . S
C1739 C1737 1.387 . S
C1739 C1741 1.390 . S
C1739 H1743 0.950 . S
H1740 C1736 0.950 . S
C1741 C1739 1.390 . S
C1741 C1742 1.387 . S
C1741 H1744 0.950 . S
C1742 C1741 1.387 . S
C1742 C1745 1.387 . S
H1743 C1739 0.950 . S
H1744 C1741 0.950 . S
C1745 C1736 1.390 . S
C1745 H1738 0.950 . S
C1745 C1742 1.387 . S
C1746 C1747 1.387 . S
C1746 H1750 0.950 . S
C1746 C1755 1.390 . S
C1747 C1746 1.387 . S
C1747 C1749 1.387 . S
H1748 C1755 0.950 . S
C1749 C1747 1.387 . S
C1749 C1751 1.390 . S
C1749 H1753 0.950 . S
H1750 C1746 0.950 . S
C1751 C1749 1.390 . S
C1751 C1752 1.387 . S
C1751 H1754 0.950 . S
C1752 C1751 1.387 . S
C1752 C1755 1.387 . S
H1753 C1749 0.950 . S
H1754 C1751 0.950 . S
C1755 C1746 1.390 . S
C1755 H1748 0.950 . S
C1755 C1752 1.387 . S
C1756 C1757 1.387 . S
C1756 H1760 0.950 . S
C1756 C1765 1.390 . S
C1757 C1756 1.387 . S
C1757 C1759 1.387 . S
H1758 C1765 0.950 . S
C1759 C1757 1.387 . S
C1759 C1761 1.390 . S
C1759 H1763 0.950 . S
H1760 C1756 0.950 . S
C1761 C1759 1.390 . S
C1761 C1762 1.387 . S
C1761 H1764 0.950 . S
C1762 C1761 1.387 . S
C1762 C1765 1.387 . S
H1763 C1759 0.950 . S
H1764 C1761 0.950 . S
C1765 C1756 1.390 . S
C1765 H1758 0.950 . S
C1765 C1762 1.387 . S
C1766 C1767 1.387 . S
C1766 H1770 0.950 . S
C1766 C1775 1.390 . S
C1767 C1766 1.387 . S
C1767 C1769 1.387 . S
H1768 C1775 0.950 . S
C1769 C1767 1.387 . S
C1769 C1771 1.390 . S
C1769 H1773 0.950 . S
H1770 C1766 0.950 . S
C1771 C1769 1.390 . S
C1771 C1772 1.387 . S
C1771 H1774 0.950 . S
C1772 C1771 1.387 . S
C1772 C1775 1.387 . S
H1773 C1769 0.950 . S
H1774 C1771 0.950 . S
C1775 C1766 1.390 . S
C1775 H1768 0.950 . S
C1775 C1772 1.387 . S
C1776 C1777 1.387 . S
C1776 H1780 0.950 . S
C1776 C1785 1.390 . S
C1777 C1776 1.387 . S
C1777 C1779 1.387 . S
H1778 C1785 0.950 . S
C1779 C1777 1.387 . S
C1779 C1781 1.390 . S
C1779 H1783 0.950 . S
H1780 C1776 0.950 . S
C1781 C1779 1.390 . S
C1781 C1782 1.387 . S
C1781 H1784 0.950 . S
C1782 C1781 1.387 . S
C1782 C1785 1.387 . S
H1783 C1779 0.950 . S
H1784 C1781 0.950 . S
C1785 C1776 1.390 . S
C1785 H1778 0.950 . S
C1785 C1782 1.387 . S
C1786 C1787 1.387 . S
C1786 H1790 0.950 . S
C1786 C1795 1.390 . S
C1787 C1786 1.387 . S
C1787 C1789 1.387 . S
H1788 C1795 0.950 . S
C1789 C1787 1.387 . S
C1789 C1791 1.390 . S
C1789 H1793 0.950 . S
H1790 C1786 0.950 . S
C1791 C1789 1.390 . S
C1791 C1792 1.387 . S
C1791 H1794 0.950 . S
C1792 C1791 1.387 . S
C1792 C1795 1.387 . S
H1793 C1789 0.950 . S
H1794 C1791 0.950 . S
C1795 C1786 1.390 . S
C1795 H1788 0.950 . S
C1795 C1792 1.387 . S
C1796 C1797 1.387 . S
C1796 H1800 0.950 . S
C1796 C1805 1.390 . S
C1797 C1796 1.387 . S
C1797 C1799 1.387 . S
H1798 C1805 0.950 . S
C1799 C1797 1.387 . S
C1799 C1801 1.390 . S
C1799 H1803 0.950 . S
H1800 C1796 0.950 . S
C1801 C1799 1.390 . S
C1801 C1802 1.387 . S
C1801 H1804 0.950 . S
C1802 C1801 1.387 . S
C1802 C1805 1.387 . S
H1803 C1799 0.950 . S
H1804 C1801 0.950 . S
C1805 C1796 1.390 . S
C1805 H1798 0.950 . S
C1805 C1802 1.387 . S
C1806 C1807 1.387 . S
C1806 H1810 0.950 . S
C1806 C1815 1.390 . S
C1807 C1806 1.387 . S
C1807 C1809 1.387 . S
H1808 C1815 0.950 . S
C1809 C1807 1.387 . S
C1809 C1811 1.390 . S
C1809 H1813 0.950 . S
H1810 C1806 0.950 . S
C1811 C1809 1.390 . S
C1811 C1812 1.387 . S
C1811 H1814 0.950 . S
C1812 C1811 1.387 . S
C1812 C1815 1.387 . S
H1813 C1809 0.950 . S
H1814 C1811 0.950 . S
C1815 C1806 1.390 . S
C1815 H1808 0.950 . S
C1815 C1812 1.387 . S
C1816 C1817 1.387 . S
C1816 H1820 0.950 . S
C1816 C1825 1.390 . S
C1817 C1816 1.387 . S
C1817 C1819 1.387 . S
H1818 C1825 0.950 . S
C1819 C1817 1.387 . S
C1819 C1821 1.390 . S
C1819 H1823 0.950 . S
H1820 C1816 0.950 . S
C1821 C1819 1.390 . S
C1821 C1822 1.387 . S
C1821 H1824 0.950 . S
C1822 C1821 1.387 . S
C1822 C1825 1.387 . S
H1823 C1819 0.950 . S
H1824 C1821 0.950 . S
C1825 C1816 1.390 . S
C1825 H1818 0.950 . S
C1825 C1822 1.387 . S
C1826 C1827 1.387 . S
C1826 H1830 0.950 . S
C1826 C1835 1.390 . S
C1827 C1826 1.387 . S
C1827 C1829 1.387 . S
H1828 C1835 0.950 . S
C1829 C1827 1.387 . S
C1829 C1831 1.390 . S
C1829 H1833 0.950 . S
H1830 C1826 0.950 . S
C1831 C1829 1.390 . S
C1831 C1832 1.387 . S
C1831 H1834 0.950 . S
C1832 C1831 1.387 . S
C1832 C1835 1.387 . S
H1833 C1829 0.950 . S
H1834 C1831 0.950 . S
C1835 C1826 1.390 . S
C1835 H1828 0.950 . S
C1835 C1832 1.387 . S
C1836 C1837 1.387 . S
C1836 H1840 0.950 . S
C1836 C1845 1.390 . S
C1837 C1836 1.387 . S
C1837 C1839 1.387 . S
H1838 C1845 0.950 . S
C1839 C1837 1.387 . S
C1839 C1841 1.390 . S
C1839 H1843 0.950 . S
H1840 C1836 0.950 . S
C1841 C1839 1.390 . S
C1841 C1842 1.387 . S
C1841 H1844 0.950 . S
C1842 C1841 1.387 . S
C1842 C1845 1.387 . S
H1843 C1839 0.950 . S
H1844 C1841 0.950 . S
C1845 C1836 1.390 . S
C1845 H1838 0.950 . S
C1845 C1842 1.387 . S
C1846 C1847 1.387 . S
C1846 H1850 0.950 . S
C1846 C1855 1.390 . S
C1847 C1846 1.387 . S
C1847 C1849 1.387 . S
H1848 C1855 0.950 . S
C1849 C1847 1.387 . S
C1849 C1851 1.390 . S
C1849 H1853 0.950 . S
H1850 C1846 0.950 . S
C1851 C1849 1.390 . S
C1851 C1852 1.387 . S
C1851 H1854 0.950 . S
C1852 C1851 1.387 . S
C1852 C1855 1.387 . S
H1853 C1849 0.950 . S
H1854 C1851 0.950 . S
C1855 C1846 1.390 . S
C1855 H1848 0.950 . S
C1855 C1852 1.387 . S
C1856 C1857 1.387 . S
C1856 H1860 0.950 . S
C1856 C1865 1.390 . S
C1857 C1856 1.387 . S
C1857 C1859 1.387 . S
H1858 C1865 0.950 . S
C1859 C1857 1.387 . S
C1859 C1861 1.390 . S
C1859 H1863 0.950 . S
H1860 C1856 0.950 . S
C1861 C1859 1.390 . S
C1861 C1862 1.387 . S
C1861 H1864 0.950 . S
C1862 C1861 1.387 . S
C1862 C1865 1.387 . S
H1863 C1859 0.950 . S
H1864 C1861 0.950 . S
C1865 C1856 1.390 . S
C1865 H1858 0.950 . S
C1865 C1862 1.387 . S
C1866 C1867 1.387 . S
C1866 H1870 0.950 . S
C1866 C1875 1.390 . S
C1867 C1866 1.387 . S
C1867 C1869 1.387 . S
H1868 C1875 0.950 . S
C1869 C1867 1.387 . S
C1869 C1871 1.390 . S
C1869 H1873 0.950 . S
H1870 C1866 0.950 . S
C1871 C1869 1.390 . S
C1871 C1872 1.387 . S
C1871 H1874 0.950 . S
C1872 C1871 1.387 . S
C1872 C1875 1.387 . S
H1873 C1869 0.950 . S
H1874 C1871 0.950 . S
C1875 C1866 1.390 . S
C1875 H1868 0.950 . S
C1875 C1872 1.387 . S
C1876 C1877 1.387 . S
C1876 H1880 0.950 . S
C1876 C1885 1.390 . S
C1877 C1876 1.387 . S
C1877 C1879 1.387 . S
H1878 C1885 0.950 . S
C1879 C1877 1.387 . S
C1879 C1881 1.390 . S
C1879 H1883 0.950 . S
H1880 C1876 0.950 . S
C1881 C1879 1.390 . S
C1881 C1882 1.387 . S
C1881 H1884 0.950 . S
C1882 C1881 1.387 . S
C1882 C1885 1.387 . S
H1883 C1879 0.950 . S
H1884 C1881 0.950 . S
C1885 C1876 1.390 . S
C1885 H1878 0.950 . S
C1885 C1882 1.387 . S
C1886 C1887 1.387 . S
C1886 H1890 0.950 . S
C1886 C1895 1.390 . S
C1887 C1886 1.387 . S
C1887 C1889 1.387 . S
H1888 C1895 0.950 . S
C1889 C1887 1.387 . S
C1889 C1891 1.390 . S
C1889 H1893 0.950 . S
H1890 C1886 0.950 . S
C1891 C1889 1.390 . S
C1891 C1892 1.387 . S
C1891 H1894 0.950 . S
C1892 C1891 1.387 . S
C1892 C1895 1.387 . S
H1893 C1889 0.950 . S
H1894 C1891 0.950 . S
C1895 C1886 1.390 . S
C1895 H1888 0.950 . S
C1895 C1892 1.387 . S
C1896 C1897 1.387 . S
C1896 H1900 0.950 . S
C1896 C1905 1.390 . S
C1897 C1896 1.387 . S
C1897 C1899 1.387 . S
H1898 C1905 0.950 . S
C1899 C1897 1.387 . S
C1899 C1901 1.390 . S
C1899 H1903 0.950 . S
H1900 C1896 0.950 . S
C1901 C1899 1.390 . S
C1901 C1902 1.387 . S
C1901 H1904 0.950 . S
C1902 C1901 1.387 . S
C1902 C1905 1.387 . S
H1903 C1899 0.950 . S
H1904 C1901 0.950 . S
C1905 C1896 1.390 . S
C1905 H1898 0.950 . S
C1905 C1902 1.387 . S
C1906 C1907 1.387 . S
C1906 H1910 0.950 . S
C1906 C1915 1.390 . S
C1907 C1906 1.387 . S
C1907 C1909 1.387 . S
H1908 C1915 0.950 . S
C1909 C1907 1.387 . S
C1909 C1911 1.390 . S
C1909 H1913 0.950 . S
H1910 C1906 0.950 . S
C1911 C1909 1.390 . S
C1911 C1912 1.387 . S
C1911 H1914 0.950 . S
C1912 C1911 1.387 . S
C1912 C1915 1.387 . S
H1913 C1909 0.950 . S
H1914 C1911 0.950 . S
C1915 C1906 1.390 . S
C1915 H1908 0.950 . S
C1915 C1912 1.387 . S
C1916 C1917 1.387 . S
C1916 H1920 0.950 . S
C1916 C1925 1.390 . S
C1917 C1916 1.387 . S
C1917 C1919 1.387 . S
H1918 C1925 0.950 . S
C1919 C1917 1.387 . S
C1919 C1921 1.390 . S
C1919 H1923 0.950 . S
H1920 C1916 0.950 . S
C1921 C1919 1.390 . S
C1921 C1922 1.387 . S
C1921 H1924 0.950 . S
C1922 C1921 1.387 . S
C1922 C1925 1.387 . S
H1923 C1919 0.950 . S
H1924 C1921 0.950 . S
C1925 C1916 1.390 . S
C1925 H1918 0.950 . S
C1925 C1922 1.387 . S
C1926 C1927 1.387 . S
C1926 H1930 0.950 . S
C1926 C1935 1.390 . S
C1927 C1926 1.387 . S
C1927 C1929 1.387 . S
H1928 C1935 0.950 . S
C1929 C1927 1.387 . S
C1929 C1931 1.390 . S
C1929 H1933 0.950 . S
H1930 C1926 0.950 . S
C1931 C1929 1.390 . S
C1931 C1932 1.387 . S
C1931 H1934 0.950 . S
C1932 C1931 1.387 . S
C1932 C1935 1.387 . S
H1933 C1929 0.950 . S
H1934 C1931 0.950 . S
C1935 C1926 1.390 . S
C1935 H1928 0.950 . S
C1935 C1932 1.387 . S
C1936 C1937 1.387 . S
C1936 H1940 0.950 . S
C1936 C1945 1.390 . S
C1937 C1936 1.387 . S
C1937 C1939 1.387 . S
H1938 C1945 0.950 . S
C1939 C1937 1.387 . S
C1939 C1941 1.390 . S
C1939 H1943 0.950 . S
H1940 C1936 0.950 . S
C1941 C1939 1.390 . S
C1941 C1942 1.387 . S
C1941 H1944 0.950 . S
C1942 C1941 1.387 . S
C1942 C1945 1.387 . S
H1943 C1939 0.950 . S
H1944 C1941 0.950 . S
C1945 C1936 1.390 . S
C1945 H1938 0.950 . S
C1945 C1942 1.387 . S
C1946 C1947 1.387 . S
C1946 H1950 0.950 . S
C1946 C1955 1.390 . S
C1947 C1946 1.387 . S
C1947 C1949 1.387 . S
H1948 C1955 0.950 . S
C1949 C1947 1.387 . S
C1949 C1951 1.390 . S
C1949 H1953 0.950 . S
H1950 C1946 0.950 . S
C1951 C1949 1.390 . S
C1951 C1952 1.387 . S
C1951 H1954 0.950 . S
C1952 C1951 1.387 . S
C1952 C1955 1.387 . S
H1953 C1949 0.950 . S
H1954 C1951 0.950 . S
C1955 C1946 1.390 . S
C1955 H1948 0.950 . S
C1955 C1952 1.387 . S
C1956 C1957 1.387 . S
C1956 H1960 0.950 . S
C1956 C1965 1.390 . S
C1957 C1956 1.387 . S
C1957 C1959 1.387 . S
H1958 C1965 0.950 . S
C1959 C1957 1.387 . S
C1959 C1961 1.390 . S
C1959 H1963 0.950 . S
H1960 C1956 0.950 . S
C1961 C1959 1.390 . S
C1961 C1962 1.387 . S
C1961 H1964 0.950 . S
C1962 C1961 1.387 . S
C1962 C1965 1.387 . S
H1963 C1959 0.950 . S
H1964 C1961 0.950 . S
C1965 C1956 1.390 . S
C1965 H1958 0.950 . S
C1965 C1962 1.387 . S
C1966 C1967 1.387 . S
C1966 H1970 0.950 . S
C1966 C1975 1.390 . S
C1967 C1966 1.387 . S
C1967 C1969 1.387 . S
H1968 C1975 0.950 . S
C1969 C1967 1.387 . S
C1969 C1971 1.390 . S
C1969 H1973 0.950 . S
H1970 C1966 0.950 . S
C1971 C1969 1.390 . S
C1971 C1972 1.387 . S
C1971 H1974 0.950 . S
C1972 C1971 1.387 . S
C1972 C1975 1.387 . S
H1973 C1969 0.950 . S
H1974 C1971 0.950 . S
C1975 C1966 1.390 . S
C1975 H1968 0.950 . S
C1975 C1972 1.387 . S
C1976 C1977 1.387 . S
C1976 H1980 0.950 . S
C1976 C1985 1.390 . S
C1977 C1976 1.387 . S
C1977 C1979 1.387 . S
H1978 C1985 0.950 . S
C1979 C1977 1.387 . S
C1979 C1981 1.390 . S
C1979 H1983 0.950 . S
H1980 C1976 0.950 . S
C1981 C1979 1.390 . S
C1981 C1982 1.387 . S
C1981 H1984 0.950 . S
C1982 C1981 1.387 . S
C1982 C1985 1.387 . S
H1983 C1979 0.950 . S
H1984 C1981 0.950 . S
C1985 C1976 1.390 . S
C1985 H1978 0.950 . S
C1985 C1982 1.387 . S
C1986 C1987 1.387 . S
C1986 H1990 0.950 . S
C1986 C1995 1.390 . S
C1987 C1986 1.387 . S
C1987 C1989 1.387 . S
H1988 C1995 0.950 . S
C1989 C1987 1.387 . S
C1989 C1991 1.390 . S
C1989 H1993 0.950 . S
H1990 C1986 0.950 . S
C1991 C1989 1.390 . S
C1991 C1992 1.387 . S
C1991 H1994 0.950 . S
C1992 C1991 1.387 . S
C1992 C1995 1.387 . S
H1993 C1989 0.950 . S
H1994 C1991 0.950 . S
C1995 C1986 1.390 . S
C1995 H1988 0.950 . S
C1995 C1992 1.387 . S
C1996 C1997 1.387 . S
C1996 H2000 0.950 . S
C1996 C2005 1.390 . S
C1997 C1996 1.387 . S
C1997 C1999 1.387 . S
H1998 C2005 0.950 . S
C1999 C1997 1.387 . S
C1999 C2001 1.390 . S
C1999 H2003 0.950 . S
H2000 C1996 0.950 . S
C2001 C1999 1.390 . S
C2001 C2002 1.387 . S
C2001 H2004 0.950 . S
C2002 C2001 1.387 . S
C2002 C2005 1.387 . S
H2003 C1999 0.950 . S
H2004 C2001 0.950 . S
C2005 C1996 1.390 . S
C2005 H1998 0.950 . S
C2005 C2002 1.387 . S
C2006 C2007 1.387 . S
C2006 H2010 0.950 . S
C2006 C2015 1.390 . S
C2007 C2006 1.387 . S
C2007 C2009 1.387 . S
H2008 C2015 0.950 . S
C2009 C2007 1.387 . S
C2009 C2011 1.390 . S
C2009 H2013 0.950 . S
H2010 C2006 0.950 . S
C2011 C2009 1.390 . S
C2011 C2012 1.387 . S
C2011 H2014 0.950 . S
C2012 C2011 1.387 . S
C2012 C2015 1.387 . S
H2013 C2009 0.950 . S
H2014 C2011 0.950 . S
C2015 C2006 1.390 . S
C2015 H2008 0.950 . S
C2015 C2012 1.387 . S
C2016 C2017 1.387 . S
C2016 H2020 0.950 . S
C2016 C2025 1.390 . S
C2017 C2016 1.387 . S
C2017 C2019 1.387 . S
H2018 C2025 0.950 . S
C2019 C2017 1.387 . S
C2019 C2021 1.390 . S
C2019 H2023 0.950 . S
H2020 C2016 0.950 . S
C2021 C2019 1.390 . S
C2021 C2022 1.387 . S
C2021 H2024 0.950 . S
C2022 C2021 1.387 . S
C2022 C2025 1.387 . S
H2023 C2019 0.950 . S
H2024 C2021 0.950 . S
C2025 C2016 1.390 . S
C2025 H2018 0.950 . S
C2025 C2022 1.387 . S
C2026 C2027 1.387 . S
C2026 H2030 0.950 . S
C2026 C2035 1.390 . S
C2027 C2026 1.387 . S
C2027 C2029 1.387 . S
H2028 C2035 0.950 . S
C2029 C2027 1.387 . S
C2029 C2031 1.390 . S
C2029 H2033 0.950 . S
H2030 C2026 0.950 . S
C2031 C2029 1.390 . S
C2031 C2032 1.387 . S
C2031 H2034 0.950 . S
C2032 C2031 1.387 . S
C2032 C2035 1.387 . S
H2033 C2029 0.950 . S
H2034 C2031 0.950 . S
C2035 C2026 1.390 . S
C2035 H2028 0.950 . S
C2035 C2032 1.387 . S
C2036 C2037 1.387 . S
C2036 H2040 0.950 . S
C2036 C2045 1.390 . S
C2037 C2036 1.387 . S
C2037 C2039 1.387 . S
H2038 C2045 0.950 . S
C2039 C2037 1.387 . S
C2039 C2041 1.390 . S
C2039 H2043 0.950 . S
H2040 C2036 0.950 . S
C2041 C2039 1.390 . S
C2041 C2042 1.387 . S
C2041 H2044 0.950 . S
C2042 C2041 1.387 . S
C2042 C2045 1.387 . S
H2043 C2039 0.950 . S
H2044 C2041 0.950 . S
C2045 C2036 1.390 . S
C2045 H2038 0.950 . S
C2045 C2042 1.387 . S
C2046 C2047 1.387 . S
C2046 H2050 0.950 . S
C2046 C2055 1.390 . S
C2047 C2046 1.387 . S
C2047 C2049 1.387 . S
H2048 C2055 0.950 . S
C2049 C2047 1.387 . S
C2049 C2051 1.390 . S
C2049 H2053 0.950 . S
H2050 C2046 0.950 . S
C2051 C2049 1.390 . S
C2051 C2052 1.387 . S
C2051 H2054 0.950 . S
C2052 C2051 1.387 . S
C2052 C2055 1.387 . S
H2053 C2049 0.950 . S
H2054 C2051 0.950 . S
C2055 C2046 1.390 . S
C2055 H2048 0.950 . S
C2055 C2052 1.387 . S
C2056 C2057 1.387 . S
C2056 H2060 0.950 . S
C2056 C2065 1.390 . S
C2057 C2056 1.387 . S
C2057 C2059 1.387 . S
H2058 C2065 0.950 . S
C2059 C2057 1.387 . S
C2059 C2061 1.390 . S
C2059 H2063 0.950 . S
H2060 C2056 0.950 . S
C2061 C2059 1.390 . S
C2061 C2062 1.387 . S
C2061 H2064 0.950 . S
C2062 C2061 1.387 . S
C2062 C2065 1.387 . S
H2063 C2059 0.950 . S
H2064 C2061 0.950 . S
C2065 C2056 1.390 . S
C2065 H2058 0.950 . S
C2065 C2062 1.387 . S
C2066 C2067 1.387 . S
C2066 H2070 0.950 . S
C2066 C2075 1.390 . S
C2067 C2066 1.387 . S
C2067 C2069 1.387 . S
H2068 C2075 0.950 . S
C2069 C2067 1.387 . S
C2069 C2071 1.390 . S
C2069 H2073 0.950 . S
H2070 C2066 0.950 . S
C2071 C2069 1.390 . S
C2071 C2072 1.387 . S
C2071 H2074 0.950 . S
C2072 C2071 1.387 . S
C2072 C2075 1.387 . S
H2073 C2069 0.950 . S
H2074 C2071 0.950 . S
C2075 C2066 1.390 . S
C2075 H2068 0.950 . S
C2075 C2072 1.387 . S
C2076 C2077 1.387 . S
C2076 H2080 0.950 . S
C2076 C2085 1.390 . S
C2077 C2076 1.387 . S
C2077 C2079 1.387 . S
H2078 C2085 0.950 . S
C2079 C2077 1.387 . S
C2079 C2081 1.390 . S
C2079 H2083 0.950 . S
H2080 C2076 0.950 . S
C2081 C2079 1.390 . S
C2081 C2082 1.387 . S
C2081 H2084 0.950 . S
C2082 C2081 1.387 . S
C2082 C2085 1.387 . S
H2083 C2079 0.950 . S
H2084 C2081 0.950 . S
C2085 C2076 1.390 . S
C2085 H2078 0.950 . S
C2085 C2082 1.387 . S
C2086 C2087 1.387 . S
C2086 H2090 0.950 . S
C2086 C2095 1.390 . S
C2087 C2086 1.387 . S
C2087 C2089 1.387 . S
H2088 C2095 0.950 . S
C2089 C2087 1.387 . S
C2089 C2091 1.390 . S
C2089 H2093 0.950 . S
H2090 C2086 0.950 . S
C2091 C2089 1.390 . S
C2091 C2092 1.387 . S
C2091 H2094 0.950 . S
C2092 C2091 1.387 . S
C2092 C2095 1.387 . S
H2093 C2089 0.950 . S
H2094 C2091 0.950 . S
C2095 C2086 1.390 . S
C2095 H2088 0.950 . S
C2095 C2092 1.387 . S
C2096 C2097 1.387 . S
C2096 H2100 0.950 . S
C2096 C2105 1.390 . S
C2097 C2096 1.387 . S
C2097 C2099 1.387 . S
H2098 C2105 0.950 . S
C2099 C2097 1.387 . S
C2099 C2101 1.390 . S
C2099 H2103 0.950 . S
H2100 C2096 0.950 . S
C2101 C2099 1.390 . S
C2101 C2102 1.387 . S
C2101 H2104 0.950 . S
C2102 C2101 1.387 . S
C2102 C2105 1.387 . S
H2103 C2099 0.950 . S
H2104 C2101 0.950 . S
C2105 C2096 1.390 . S
C2105 H2098 0.950 . S
C2105 C2102 1.387 . S
C2106 C2107 1.387 . S
C2106 H2110 0.950 . S
C2106 C2115 1.390 . S
C2107 C2106 1.387 . S
C2107 C2109 1.387 . S
H2108 C2115 0.950 . S
C2109 C2107 1.387 . S
C2109 C2111 1.390 . S
C2109 H2113 0.950 . S
H2110 C2106 0.950 . S
C2111 C2109 1.390 . S
C2111 C2112 1.387 . S
C2111 H2114 0.950 . S
C2112 C2111 1.387 . S
C2112 C2115 1.387 . S
H2113 C2109 0.950 . S
H2114 C2111 0.950 . S
C2115 C2106 1.390 . S
C2115 H2108 0.950 . S
C2115 C2112 1.387 . S
C2116 C2117 1.387 . S
C2116 H2120 0.950 . S
C2116 C2125 1.390 . S
C2117 C2116 1.387 . S
C2117 C2119 1.387 . S
H2118 C2125 0.950 . S
C2119 C2117 1.387 . S
C2119 C2121 1.390 . S
C2119 H2123 0.950 . S
H2120 C2116 0.950 . S
C2121 C2119 1.390 . S
C2121 C2122 1.387 . S
C2121 H2124 0.950 . S
C2122 C2121 1.387 . S
C2122 C2125 1.387 . S
H2123 C2119 0.950 . S
H2124 C2121 0.950 . S
C2125 C2116 1.390 . S
C2125 H2118 0.950 . S
C2125 C2122 1.387 . S
C2126 C2127 1.387 . S
C2126 H2130 0.950 . S
C2126 C2135 1.390 . S
C2127 C2126 1.387 . S
C2127 C2129 1.387 . S
H2128 C2135 0.950 . S
C2129 C2127 1.387 . S
C2129 C2131 1.390 . S
C2129 H2133 0.950 . S
H2130 C2126 0.950 . S
C2131 C2129 1.390 . S
C2131 C2132 1.387 . S
C2131 H2134 0.950 . S
C2132 C2131 1.387 . S
C2132 C2135 1.387 . S
H2133 C2129 0.950 . S
H2134 C2131 0.950 . S
C2135 C2126 1.390 . S
C2135 H2128 0.950 . S
C2135 C2132 1.387 . S
C2136 C2137 1.387 . S
C2136 H2140 0.950 . S
C2136 C2145 1.390 . S
C2137 C2136 1.387 . S
C2137 C2139 1.387 . S
H2138 C2145 0.950 . S
C2139 C2137 1.387 . S
C2139 C2141 1.390 . S
C2139 H2143 0.950 . S
H2140 C2136 0.950 . S
C2141 C2139 1.390 . S
C2141 C2142 1.387 . S
C2141 H2144 0.950 . S
C2142 C2141 1.387 . S
C2142 C2145 1.387 . S
H2143 C2139 0.950 . S
H2144 C2141 0.950 . S
C2145 C2136 1.390 . S
C2145 H2138 0.950 . S
C2145 C2142 1.387 . S
C2146 C2147 1.387 . S
C2146 H2150 0.950 . S
C2146 C2155 1.390 . S
C2147 C2146 1.387 . S
C2147 C2149 1.387 . S
H2148 C2155 0.950 . S
C2149 C2147 1.387 . S
C2149 C2151 1.390 . S
C2149 H2153 0.950 . S
H2150 C2146 0.950 . S
C2151 C2149 1.390 . S
C2151 C2152 1.387 . S
C2151 H2154 0.950 . S
C2152 C2151 1.387 . S
C2152 C2155 1.387 . S
H2153 C2149 0.950 . S
H2154 C2151 0.950 . S
C2155 C2146 1.390 . S
C2155 H2148 0.950 . S
C2155 C2152 1.387 . S
C2156 C2157 1.387 . S
C2156 H2160 0.950 . S
C2156 C2165 1.390 . S
C2157 C2156 1.387 . S
C2157 C2159 1.387 . S
H2158 C2165 0.950 . S
C2159 C2157 1.387 . S
C2159 C2161 1.390 . S
C2159 H2163 0.950 . S
H2160 C2156 0.950 . S
C2161 C2159 1.390 . S
C2161 C2162 1.387 . S
C2161 H2164 0.950 . S
C2162 C2161 1.387 . S
C2162 C2165 1.387 . S
H2163 C2159 0.950 . S
H2164 C2161 0.950 . S
C2165 C2156 1.390 . S
C2165 H2158 0.950 . S
C2165 C2162 1.387 . S
C2166 C2167 1.387 . S
C2166 H2170 0.950 . S
C2166 C2175 1.390 . S
C2167 C2166 1.387 . S
C2167 C2169 1.387 . S
H2168 C2175 0.950 . S
C2169 C2167 1.387 . S
C2169 C2171 1.390 . S
C2169 H2173 0.950 . S
H2170 C2166 0.950 . S
C2171 C2169 1.390 . S
C2171 C2172 1.387 . S
C2171 H2174 0.950 . S
C2172 C2171 1.387 . S
C2172 C2175 1.387 . S
H2173 C2169 0.950 . S
H2174 C2171 0.950 . S
C2175 C2166 1.390 . S
C2175 H2168 0.950 . S
C2175 C2172 1.387 . S
C2176 C2177 1.387 . S
C2176 H2180 0.950 . S
C2176 C2185 1.390 . S
C2177 C2176 1.387 . S
C2177 C2179 1.387 . S
H2178 C2185 0.950 . S
C2179 C2177 1.387 . S
C2179 C2181 1.390 . S
C2179 H2183 0.950 . S
H2180 C2176 0.950 . S
C2181 C2179 1.390 . S
C2181 C2182 1.387 . S
C2181 H2184 0.950 . S
C2182 C2181 1.387 . S
C2182 C2185 1.387 . S
H2183 C2179 0.950 . S
H2184 C2181 0.950 . S
C2185 C2176 1.390 . S
C2185 H2178 0.950 . S
C2185 C2182 1.387 . S
C2186 C2187 1.387 . S
C2186 H2190 0.950 . S
C2186 C2195 1.390 . S
C2187 C2186 1.387 . S
C2187 C2189 1.387 . S
H2188 C2195 0.950 . S
C2189 C2187 1.387 . S
C2189 C2191 1.390 . S
C2189 H2193 0.950 . S
H2190 C2186 0.950 . S
C2191 C2189 1.390 . S
C2191 C2192 1.387 . S
C2191 H2194 0.950 . S
C2192 C2191 1.387 . S
C2192 C2195 1.387 . S
H2193 C2189 0.950 . S
H2194 C2191 0.950 . S
C2195 C2186 1.390 . S
C2195 H2188 0.950 . S
C2195 C2192 1.387 . S
C2196 C2197 1.387 . S
C2196 H2200 0.950 . S
C2196 C2205 1.390 . S
C2197 C2196 1.387 . S
C2197 C2199 1.387 . S
H2198 C2205 0.950 . S
C2199 C2197 1.387 . S
C2199 C2201 1.390 . S
C2199 H2203 0.950 . S
H2200 C2196 0.950 . S
C2201 C2199 1.390 . S
C2201 C2202 1.387 . S
C2201 H2204 0.950 . S
C2202 C2201 1.387 . S
C2202 C2205 1.387 . S
H2203 C2199 0.950 . S
H2204 C2201 0.950 . S
C2205 C2196 1.390 . S
C2205 H2198 0.950 . S
C2205 C2202 1.387 . S
C2206 C2207 1.387 . S
C2206 H2210 0.950 . S
C2206 C2215 1.390 . S
C2207 C2206 1.387 . S
C2207 C2209 1.387 . S
H2208 C2215 0.950 . S
C2209 C2207 1.387 . S
C2209 C2211 1.390 . S
C2209 H2213 0.950 . S
H2210 C2206 0.950 . S
C2211 C2209 1.390 . S
C2211 C2212 1.387 . S
C2211 H2214 0.950 . S
C2212 C2211 1.387 . S
C2212 C2215 1.387 . S
H2213 C2209 0.950 . S
H2214 C2211 0.950 . S
C2215 C2206 1.390 . S
C2215 H2208 0.950 . S
C2215 C2212 1.387 . S
C2216 C2217 1.387 . S
C2216 H2220 0.950 . S
C2216 C2225 1.390 . S
C2217 C2216 1.387 . S
C2217 C2219 1.387 . S
H2218 C2225 0.950 . S
C2219 C2217 1.387 . S
C2219 C2221 1.390 . S
C2219 H2223 0.950 . S
H2220 C2216 0.950 . S
C2221 C2219 1.390 . S
C2221 C2222 1.387 . S
C2221 H2224 0.950 . S
C2222 C2221 1.387 . S
C2222 C2225 1.387 . S
H2223 C2219 0.950 . S
H2224 C2221 0.950 . S
C2225 C2216 1.390 . S
C2225 H2218 0.950 . S
C2225 C2222 1.387 . S
C2226 C2227 1.387 . S
C2226 H2230 0.950 . S
C2226 C2235 1.390 . S
C2227 C2226 1.387 . S
C2227 C2229 1.387 . S
H2228 C2235 0.950 . S
C2229 C2227 1.387 . S
C2229 C2231 1.390 . S
C2229 H2233 0.950 . S
H2230 C2226 0.950 . S
C2231 C2229 1.390 . S
C2231 C2232 1.387 . S
C2231 H2234 0.950 . S
C2232 C2231 1.387 . S
C2232 C2235 1.387 . S
H2233 C2229 0.950 . S
H2234 C2231 0.950 . S
C2235 C2226 1.390 . S
C2235 H2228 0.950 . S
C2235 C2232 1.387 . S
C2236 C2237 1.387 . S
C2236 H2240 0.950 . S
C2236 C2245 1.390 . S
C2237 C2236 1.387 . S
C2237 C2239 1.387 . S
H2238 C2245 0.950 . S
C2239 C2237 1.387 . S
C2239 C2241 1.390 . S
C2239 H2243 0.950 . S
H2240 C2236 0.950 . S
C2241 C2239 1.390 . S
C2241 C2242 1.387 . S
C2241 H2244 0.950 . S
C2242 C2241 1.387 . S
C2242 C2245 1.387 . S
H2243 C2239 0.950 . S
H2244 C2241 0.950 . S
C2245 C2236 1.390 . S
C2245 H2238 0.950 . S
C2245 C2242 1.387 . S
C2246 C2247 1.387 . S
C2246 H2250 0.950 . S
C2246 C2255 1.390 . S
C2247 C2246 1.387 . S
C2247 C2249 1.387 . S
H2248 C2255 0.950 . S
C2249 C2247 1.387 . S
C2249 C2251 1.390 . S
C2249 H2253 0.950 . S
H2250 C2246 0.950 . S
C2251 C2249 1.390 . S
C2251 C2252 1.387 . S
C2251 H2254 0.950 . S
C2252 C2251 1.387 . S
C2252 C2255 1.387 . S
H2253 C2249 0.950 . S
H2254 C2251 0.950 . S
C2255 C2246 1.390 . S
C2255 H2248 0.950 . S
C2255 C2252 1.387 . S
C2256 C2257 1.387 . S
C2256 H2260 0.950 . S
C2256 C2265 1.390 . S
C2257 C2256 1.387 . S
C2257 C2259 1.387 . S
H2258 C2265 0.950 . S
C2259 C2257 1.387 . S
C2259 C2261 1.390 . S
C2259 H2263 0.950 . S
H2260 C2256 0.950 . S
C2261 C2259 1.390 . S
C2261 C2262 1.387 . S
C2261 H2264 0.950 . S
C2262 C2261 1.387 . S
C2262 C2265 1.387 . S
H2263 C2259 0.950 . S
H2264 C2261 0.950 . S
C2265 C2256 1.390 . S
C2265 H2258 0.950 . S
C2265 C2262 1.387 . S
C2266 C2267 1.387 . S
C2266 H2270 0.950 . S
C2266 C2275 1.390 . S
C2267 C2266 1.387 . S
C2267 C2269 1.387 . S
H2268 C2275 0.950 . S
C2269 C2267 1.387 . S
C2269 C2271 1.390 . S
C2269 H2273 0.950 . S
H2270 C2266 0.950 . S
C2271 C2269 1.390 . S
C2271 C2272 1.387 . S
C2271 H2274 0.950 . S
C2272 C2271 1.387 . S
C2272 C2275 1.387 . S
H2273 C2269 0.950 . S
H2274 C2271 0.950 . S
C2275 C2266 1.390 . S
C2275 H2268 0.950 . S
C2275 C2272 1.387 . S
C2276 C2277 1.387 . S
C2276 H2280 0.950 . S
C2276 C2285 1.390 . S
C2277 C2276 1.387 . S
C2277 C2279 1.387 . S
H2278 C2285 0.950 . S
C2279 C2277 1.387 . S
C2279 C2281 1.390 . S
C2279 H2283 0.950 . S
H2280 C2276 0.950 . S
C2281 C2279 1.390 . S
C2281 C2282 1.387 . S
C2281 H2284 0.950 . S
C2282 C2281 1.387 . S
C2282 C2285 1.387 . S
H2283 C2279 0.950 . S
H2284 C2281 0.950 . S
C2285 C2276 1.390 . S
C2285 H2278 0.950 . S
C2285 C2282 1.387 . S
C2286 C2287 1.387 . S
C2286 H2290 0.950 . S
C2286 C2295 1.390 . S
C2287 C2286 1.387 . S
C2287 C2289 1.387 . S
H2288 C2295 0.950 . S
C2289 C2287 1.387 . S
C2289 C2291 1.390 . S
C2289 H2293 0.950 . S
H2290 C2286 0.950 . S
C2291 C2289 1.390 . S
C2291 C2292 1.387 . S
C2291 H2294 0.950 . S
C2292 C2291 1.387 . S
C2292 C2295 1.387 . S
H2293 C2289 0.950 . S
H2294 C2291 0.950 . S
C2295 C2286 1.390 . S
C2295 H2288 0.950 . S
C2295 C2292 1.387 . S
C2296 C2297 1.387 . S
C2296 H2300 0.950 . S
C2296 C2305 1.390 . S
C2297 C2296 1.387 . S
C2297 C2299 1.387 . S
H2298 C2305 0.950 . S
C2299 C2297 1.387 . S
C2299 C2301 1.390 . S
C2299 H2303 0.950 . S
H2300 C2296 0.950 . S
C2301 C2299 1.390 . S
C2301 C2302 1.387 . S
C2301 H2304 0.950 . S
C2302 C2301 1.387 . S
C2302 C2305 1.387 . S
H2303 C2299 0.950 . S
H2304 C2301 0.950 . S
C2305 C2296 1.390 . S
C2305 H2298 0.950 . S
C2305 C2302 1.387 . S
C2306 C2307 1.387 . S
C2306 H2310 0.950 . S
C2306 C2315 1.390 . S
C2307 C2306 1.387 . S
C2307 C2309 1.387 . S
H2308 C2315 0.950 . S
C2309 C2307 1.387 . S
C2309 C2311 1.390 . S
C2309 H2313 0.950 . S
H2310 C2306 0.950 . S
C2311 C2309 1.390 . S
C2311 C2312 1.387 . S
C2311 H2314 0.950 . S
C2312 C2311 1.387 . S
C2312 C2315 1.387 . S
H2313 C2309 0.950 . S
H2314 C2311 0.950 . S
C2315 C2306 1.390 . S
C2315 H2308 0.950 . S
C2315 C2312 1.387 . S
C2316 C2317 1.387 . S
C2316 H2320 0.950 . S
C2316 C2325 1.390 . S
C2317 C2316 1.387 . S
C2317 C2319 1.387 . S
H2318 C2325 0.950 . S
C2319 C2317 1.387 . S
C2319 C2321 1.390 . S
C2319 H2323 0.950 . S
H2320 C2316 0.950 . S
C2321 C2319 1.390 . S
C2321 C2322 1.387 . S
C2321 H2324 0.950 . S
C2322 C2321 1.387 . S
C2322 C2325 1.387 . S
H2323 C2319 0.950 . S
H2324 C2321 0.950 . S
C2325 C2316 1.390 . S
C2325 H2318 0.950 . S
C2325 C2322 1.387 . S
C2326 C2327 1.387 . S
C2326 H2330 0.950 . S
C2326 C2335 1.390 . S
C2327 C2326 1.387 . S
C2327 C2329 1.387 . S
H2328 C2335 0.950 . S
C2329 C2327 1.387 . S
C2329 C2331 1.390 . S
C2329 H2333 0.950 . S
H2330 C2326 0.950 . S
C2331 C2329 1.390 . S
C2331 C2332 1.387 . S
C2331 H2334 0.950 . S
C2332 C2331 1.387 . S
C2332 C2335 1.387 . S
H2333 C2329 0.950 . S
H2334 C2331 0.950 . S
C2335 C2326 1.390 . S
C2335 H2328 0.950 . S
C2335 C2332 1.387 . S
C2336 C2337 1.387 . S
C2336 H2340 0.950 . S
C2336 C2345 1.390 . S
C2337 C2336 1.387 . S
C2337 C2339 1.387 . S
H2338 C2345 0.950 . S
C2339 C2337 1.387 . S
C2339 C2341 1.390 . S
C2339 H2343 0.950 . S
H2340 C2336 0.950 . S
C2341 C2339 1.390 . S
C2341 C2342 1.387 . S
C2341 H2344 0.950 . S
C2342 C2341 1.387 . S
C2342 C2345 1.387 . S
H2343 C2339 0.950 . S
H2344 C2341 0.950 . S
C2345 C2336 1.390 . S
C2345 H2338 0.950 . S
C2345 C2342 1.387 . S
C2346 C2347 1.387 . S
C2346 H2350 0.950 . S
C2346 C2355 1.390 . S
C2347 C2346 1.387 . S
C2347 C2349 1.387 . S
H2348 C2355 0.950 . S
C2349 C2347 1.387 . S
C2349 C2351 1.390 . S
C2349 H2353 0.950 . S
H2350 C2346 0.950 . S
C2351 C2349 1.390 . S
C2351 C2352 1.387 . S
C2351 H2354 0.950 . S
C2352 C2351 1.387 . S
C2352 C2355 1.387 . S
H2353 C2349 0.950 . S
H2354 C2351 0.950 . S
C2355 C2346 1.390 . S
C2355 H2348 0.950 . S
C2355 C2352 1.387 . S
C2356 C2357 1.387 . S
C2356 H2360 0.950 . S
C2356 C2365 1.390 . S
C2357 C2356 1.387 . S
C2357 C2359 1.387 . S
H2358 C2365 0.950 . S
C2359 C2357 1.387 . S
C2359 C2361 1.390 . S
C2359 H2363 0.950 . S
H2360 C2356 0.950 . S
C2361 C2359 1.390 . S
C2361 C2362 1.387 . S
C2361 H2364 0.950 . S
C2362 C2361 1.387 . S
C2362 C2365 1.387 . S
H2363 C2359 0.950 . S
H2364 C2361 0.950 . S
C2365 C2356 1.390 . S
C2365 H2358 0.950 . S
C2365 C2362 1.387 . S
C2366 C2367 1.387 . S
C2366 H2370 0.950 . S
C2366 C2375 1.390 . S
C2367 C2366 1.387 . S
C2367 C2369 1.387 . S
H2368 C2375 0.950 . S
C2369 C2367 1.387 . S
C2369 C2371 1.390 . S
C2369 H2373 0.950 . S
H2370 C2366 0.950 . S
C2371 C2369 1.390 . S
C2371 C2372 1.387 . S
C2371 H2374 0.950 . S
C2372 C2371 1.387 . S
C2372 C2375 1.387 . S
H2373 C2369 0.950 . S
H2374 C2371 0.950 . S
C2375 C2366 1.390 . S
C2375 H2368 0.950 . S
C2375 C2372 1.387 . S
C2376 C2377 1.387 . S
C2376 H2380 0.950 . S
C2376 C2385 1.390 . S
C2377 C2376 1.387 . S
C2377 C2379 1.387 . S
H2378 C2385 0.950 . S
C2379 C2377 1.387 . S
C2379 C2381 1.390 . S
C2379 H2383 0.950 . S
H2380 C2376 0.950 . S
C2381 C2379 1.390 . S
C2381 C2382 1.387 . S
C2381 H2384 0.950 . S
C2382 C2381 1.387 . S
C2382 C2385 1.387 . S
H2383 C2379 0.950 . S
H2384 C2381 0.950 . S
C2385 C2376 1.390 . S
C2385 H2378 0.950 . S
C2385 C2382 1.387 . S
C2386 C2387 1.387 . S
C2386 H2390 0.950 . S
C2386 C2395 1.390 . S
C2387 C2386 1.387 . S
C2387 C2389 1.387 . S
H2388 C2395 0.950 . S
C2389 C2387 1.387 . S
C2389 C2391 1.390 . S
C2389 H2393 0.950 . S
H2390 C2386 0.950 . S
C2391 C2389 1.390 . S
C2391 C2392 1.387 . S
C2391 H2394 0.950 . S
C2392 C2391 1.387 . S
C2392 C2395 1.387 . S
H2393 C2389 0.950 . S
H2394 C2391 0.950 . S
C2395 C2386 1.390 . S
C2395 H2388 0.950 . S
C2395 C2392 1.387 . S
C2396 C2397 1.387 . S
C2396 H2400 0.950 . S
C2396 C2405 1.390 . S
C2397 C2396 1.387 . S
C2397 C2399 1.387 . S
H2398 C2405 0.950 . S
C2399 C2397 1.387 . S
C2399 C2401 1.390 . S
C2399 H2403 0.950 . S
H2400 C2396 0.950 . S
C2401 C2399 1.390 . S
C2401 C2402 1.387 . S
C2401 H2404 0.950 . S
C2402 C2401 1.387 . S
C2402 C2405 1.387 . S
H2403 C2399 0.950 . S
H2404 C2401 0.950 . S
C2405 C2396 1.390 . S
C2405 H2398 0.950 . S
C2405 C2402 1.387 . S
C2406 C2407 1.387 . S
C2406 H2410 0.950 . S
C2406 C2415 1.390 . S
C2407 C2406 1.387 . S
C2407 C2409 1.387 . S
H2408 C2415 0.950 . S
C2409 C2407 1.387 . S
C2409 C2411 1.390 . S
C2409 H2413 0.950 . S
H2410 C2406 0.950 . S
C2411 C2409 1.390 . S
C2411 C2412 1.387 . S
C2411 H2414 0.950 . S
C2412 C2411 1.387 . S
C2412 C2415 1.387 . S
H2413 C2409 0.950 . S
H2414 C2411 0.950 . S
C2415 C2406 1.390 . S
C2415 H2408 0.950 . S
C2415 C2412 1.387 . S
C2416 C2417 1.387 . S
C2416 H2420 0.950 . S
C2416 C2425 1.390 . S
C2417 C2416 1.387 . S
C2417 C2419 1.387 . S
H2418 C2425 0.950 . S
C2419 C2417 1.387 . S
C2419 C2421 1.390 . S
C2419 H2423 0.950 . S
H2420 C2416 0.950 . S
C2421 C2419 1.390 . S
C2421 C2422 1.387 . S
C2421 H2424 0.950 . S
C2422 C2421 1.387 . S
C2422 C2425 1.387 . S
H2423 C2419 0.950 . S
H2424 C2421 0.950 . S
C2425 C2416 1.390 . S
C2425 H2418 0.950 . S
C2425 C2422 1.387 . S
C2426 C2427 1.387 . S
C2426 H2430 0.950 . S
C2426 C2435 1.390 . S
C2427 C2426 1.387 . S
C2427 C2429 1.387 . S
H2428 C2435 0.950 . S
C2429 C2427 1.387 . S
C2429 C2431 1.390 . S
C2429 H2433 0.950 . S
H2430 C2426 0.950 . S
C2431 C2429 1.390 . S
C2431 C2432 1.387 . S
C2431 H2434 0.950 . S
C2432 C2431 1.387 . S
C2432 C2435 1.387 . S
H2433 C2429 0.950 . S
H2434 C2431 0.950 . S
C2435 C2426 1.390 . S
C2435 H2428 0.950 . S
C2435 C2432 1.387 . S
C2436 C2437 1.387 . S
C2436 H2440 0.950 . S
C2436 C2445 1.390 . S
C2437 C2436 1.387 . S
C2437 C2439 1.387 . S
H2438 C2445 0.950 . S
C2439 C2437 1.387 . S
C2439 C2441 1.390 . S
C2439 H2443 0.950 . S
H2440 C2436 0.950 . S
C2441 C2439 1.390 . S
C2441 C2442 1.387 . S
C2441 H2444 0.950 . S
C2442 C2441 1.387 . S
C2442 C2445 1.387 . S
H2443 C2439 0.950 . S
H2444 C2441 0.950 . S
C2445 C2436 1.390 . S
C2445 H2438 0.950 . S
C2445 C2442 1.387 . S
C2446 C2447 1.387 . S
C2446 H2450 0.950 . S
C2446 C2455 1.390 . S
C2447 C2446 1.387 . S
C2447 C2449 1.387 . S
H2448 C2455 0.950 . S
C2449 C2447 1.387 . S
C2449 C2451 1.390 . S
C2449 H2453 0.950 . S
H2450 C2446 0.950 . S
C2451 C2449 1.390 . S
C2451 C2452 1.387 . S
C2451 H2454 0.950 . S
C2452 C2451 1.387 . S
C2452 C2455 1.387 . S
H2453 C2449 0.950 . S
H2454 C2451 0.950 . S
C2455 C2446 1.390 . S
C2455 H2448 0.950 . S
C2455 C2452 1.387 . S
C2456 C2457 1.387 . S
C2456 H2460 0.950 . S
C2456 C2465 1.390 . S
C2457 C2456 1.387 . S
C2457 C2459 1.387 . S
H2458 C2465 0.950 . S
C2459 C2457 1.387 . S
C2459 C2461 1.390 . S
C2459 H2463 0.950 . S
H2460 C2456 0.950 . S
C2461 C2459 1.390 . S
C2461 C2462 1.387 . S
C2461 H2464 0.950 . S
C2462 C2461 1.387 . S
C2462 C2465 1.387 . S
H2463 C2459 0.950 . S
H2464 C2461 0.950 . S
C2465 C2456 1.390 . S
C2465 H2458 0.950 . S
C2465 C2462 1.387 . S
C2466 C2467 1.387 . S
C2466 H2470 0.950 . S
C2466 C2475 1.390 . S
C2467 C2466 1.387 . S
C2467 C2469 1.387 . S
H2468 C2475 0.950 . S
C2469 C2467 1.387 . S
C2469 C2471 1.390 . S
C2469 H2473 0.950 . S
H2470 C2466 0.950 . S
C2471 C2469 1.390 . S
C2471 C2472 1.387 . S
C2471 H2474 0.950 . S
C2472 C2471 1.387 . S
C2472 C2475 1.387 . S
H2473 C2469 0.950 . S
H2474 C2471 0.950 . S
C2475 C2466 1.390 . S
C2475 H2468 0.950 . S
C2475 C2472 1.387 . S
C2476 C2477 1.387 . S
C2476 H2480 0.950 . S
C2476 C2485 1.390 . S
C2477 C2476 1.387 . S
C2477 C2479 1.387 . S
H2478 C2485 0.950 . S
C2479 C2477 1.387 . S
C2479 C2481 1.390 . S
C2479 H2483 0.950 . S
H2480 C2476 0.950 . S
C2481 C2479 1.390 . S
C2481 C2482 1.387 . S
C2481 H2484 0.950 . S
C2482 C2481 1.387 . S
C2482 C2485 1.387 . S
H2483 C2479 0.950 . S
H2484 C2481 0.950 . S
C2485 C2476 1.390 . S
C2485 H2478 0.950 . S
C2485 C2482 1.387 . S
C2486 C2487 1.387 . S
C2486 H2490 0.950 . S
C2486 C2495 1.390 . S
C2487 C2486 1.387 . S
C2487 C2489 1.387 . S
H2488 C2495 0.950 . S
C2489 C2487 1.387 . S
C2489 C2491 1.390 . S
C2489 H2493 0.950 . S
H2490 C2486 0.950 . S
C2491 C2489 1.390 . S
C2491 C2492 1.387 . S
C2491 H2494 0.950 . S
C2492 C2491 1.387 . S
C2492 C2495 1.387 . S
H2493 C2489 0.950 . S
H2494 C2491 0.950 . S
C2495 C2486 1.390 . S
C2495 H2488 0.950 . S
C2495 C2492 1.387 . S
C1057 C9 1.405 . S
C1062 C72 1.407 . S
C1067 C6 1.405 . S
C1072 C27 1.406 . S
C1077 C29 1.406 . S
C1082 C49 1.405 . S
C1087 C51 1.406 . S
C1092 C75 1.405 . S
C1097 C93 1.406 . S
C1102 C117 1.405 . S
C1107 C115 1.406 . S
C1112 C138 1.405 . S
C1117 C141 1.406 . S
C1122 C160 1.405 . S
C1127 C163 1.406 . S
C1132 C95 1.405 . S
C1137 C185 1.405 . S
C1142 C402 1.406 . S
C1147 C425 1.406 . S
C1152 C207 1.405 . S
C1157 C447 1.406 . S
C1162 C225 1.405 . S
C1167 C381 1.405 . S
C1172 C247 1.406 . S
C1177 C273 1.405 . S
C1182 C490 1.406 . S
C1187 C295 1.407 . S
C1192 C359 1.405 . S
C1197 C313 1.405 . S
C1202 C513 1.406 . S
C1207 C339 1.406 . S
C1212 C468 1.405 . S
C1217 C204 1.406 . S
C1222 C357 1.405 . S
C1227 C379 1.405 . S
C1232 C336 1.406 . S
C1237 C405 1.405 . S
C1242 C270 1.406 . S
C1247 C423 1.405 . S
C1252 C292 1.406 . S
C1257 C445 1.405 . S
C1262 C315 1.406 . S
C1267 C249 1.405 . S
C1272 C471 1.406 . S
C1277 C493 1.405 . S
C1282 C182 1.406 . S
C1287 C511 1.406 . S
C1292 C227 1.405 . S
C1297 C600 1.407 . S
C1302 C537 1.405 . S
C1307 C555 1.407 . S
C1312 C534 1.405 . S
C1317 C557 1.406 . S
C1322 C577 1.405 . S
C1327 C603 1.405 . S
C1332 C579 1.406 . S
C1337 C621 1.405 . S
C1342 C645 1.406 . S
C1347 C643 1.406 . S
C1352 C666 1.405 . S
C1357 C669 1.405 . S
C1362 C688 1.406 . S
C1367 C623 1.405 . S
C1372 C691 1.406 . S
C1377 C930 1.406 . S
C1382 C713 1.405 . S
C1387 C735 1.406 . S
C1392 C953 1.405 . S
C1397 C975 1.405 . S
C1402 C753 1.406 . S
C1407 C909 1.405 . S
C1412 C775 1.407 . S
C1417 C801 1.406 . S
C1422 C1018 1.405 . S
C1427 C823 1.405 . S
C1432 C887 1.406 . S
C1437 C1041 1.406 . S
C1442 C841 1.405 . S
C1447 C867 1.406 . S
C1452 C996 1.405 . S
C1457 C732 1.406 . S
C1462 C885 1.405 . S
C1467 C864 1.406 . S
C1472 C907 1.405 . S
C1477 C933 1.405 . S
C1482 C798 1.406 . S
C1487 C951 1.405 . S
C1492 C820 1.406 . S
C1497 C973 1.405 . S
C1502 C843 1.407 . S
C1507 C999 1.406 . S
C1512 C777 1.405 . S
C1517 C710 1.406 . S
C1522 C1021 1.405 . S
C1527 C1039 1.406 . S
C1532 C755 1.405 . S
C1537 C4 1.356 . S
C1542 C356 1.357 . S
C1547 C510 1.357 . S
C1552 C30 1.356 . S
C1557 C52 1.356 . S
C1562 C470 1.357 . S
C1567 C70 1.356 . S
C1572 C492 1.357 . S
C1577 C96 1.356 . S
C1582 C378 1.357 . S
C1587 C404 1.357 . S
C1592 C118 1.356 . S
C1597 C136 1.357 . S
C1602 C422 1.356 . S
C1607 C444 1.357 . S
C1612 C158 1.356 . S
C1617 C180 1.356 . S
C1622 C8 1.357 . S
C1627 C202 1.357 . S
C1632 C26 1.356 . S
C1637 C228 1.356 . S
C1642 C48 1.357 . S
C1647 C250 1.356 . S
C1652 C74 1.357 . S
C1657 C92 1.356 . S
C1662 C268 1.357 . S
C1667 C290 1.356 . S
C1672 C114 1.357 . S
C1677 C316 1.357 . S
C1682 C140 1.356 . S
C1687 C334 1.357 . S
C1692 C162 1.356 . S
C1697 C184 1.356 . S
C1702 C360 1.357 . S
C1707 C382 1.357 . S
C1712 C272 1.356 . S
C1717 C400 1.356 . S
C1722 C294 1.357 . S
C1727 C312 1.356 . S
C1732 C426 1.357 . S
C1737 C338 1.357 . S
C1742 C448 1.356 . S
C1747 C466 1.356 . S
C1752 C224 1.357 . S
C1757 C488 1.357 . S
C1762 C246 1.356 . S
C1767 C514 1.356 . S
C1772 C206 1.357 . S
C1777 C884 1.356 . S
C1782 C532 1.357 . S
C1787 C558 1.357 . S
C1792 C1038 1.356 . S
C1797 C580 1.356 . S
C1802 C998 1.357 . S
C1807 C1020 1.356 . S
C1812 C598 1.357 . S
C1817 C906 1.356 . S
C1822 C624 1.357 . S
C1827 C646 1.357 . S
C1832 C932 1.356 . S
C1837 C950 1.356 . S
C1842 C664 1.357 . S
C1847 C972 1.357 . S
C1852 C686 1.356 . S
C1857 C536 1.357 . S
C1862 C708 1.356 . S
C1867 C554 1.357 . S
C1872 C730 1.356 . S
C1877 C576 1.356 . S
C1882 C756 1.357 . S
C1887 C602 1.357 . S
C1892 C778 1.356 . S
C1897 C620 1.357 . S
C1902 C796 1.356 . S
C1907 C642 1.357 . S
C1912 C818 1.356 . S
C1917 C668 1.357 . S
C1922 C844 1.356 . S
C1927 C862 1.356 . S
C1932 C690 1.357 . S
C1937 C888 1.356 . S
C1942 C712 1.357 . S
C1947 C910 1.357 . S
C1952 C800 1.356 . S
C1957 C928 1.357 . S
C1962 C822 1.356 . S
C1967 C954 1.357 . S
C1972 C840 1.356 . S
C1977 C976 1.357 . S
C1982 C866 1.356 . S
C1987 C994 1.356 . S
C1992 C752 1.357 . S
C1997 C1016 1.357 . S
C2002 C774 1.356 . S
C2007 C734 1.356 . S
C2012 C1042 1.357 . S
C2017 C5 1.124 . S
C2022 C977 1.123 . S
C2027 C911 1.124 . S
C2032 C31 1.122 . S
C2037 C929 1.121 . S
C2042 C53 1.125 . S
C2047 C71 1.124 . S
C2052 C955 1.122 . S
C2057 C1043 1.124 . S
C2062 C97 1.122 . S
C2067 C995 1.123 . S
C2072 C119 1.124 . S
C2077 C1017 1.123 . S
C2082 C137 1.124 . S
C2087 C159 1.123 . S
C2092 C889 1.123 . S
C2097 C181 1.123 . S
C2102 C863 1.124 . S
C2107 C797 1.122 . S
C2112 C203 1.124 . S
C2117 C819 1.122 . S
C2122 C229 1.124 . S
C2127 C845 1.121 . S
C2132 C251 1.125 . S
C2137 C269 1.122 . S
C2142 C731 1.125 . S
C2147 C291 1.124 . S
C2152 C757 1.122 . S
C2157 C317 1.121 . S
C2162 C779 1.125 . S
C2167 C709 1.124 . S
C2172 C335 1.123 . S
C2177 C361 1.122 . S
C2182 C687 1.123 . S
C2187 C383 1.122 . S
C2192 C559 1.124 . S
C2197 C401 1.125 . S
C2202 C581 1.121 . S
C2207 C427 1.124 . S
C2212 C599 1.123 . S
C2217 C449 1.122 . S
C2222 C533 1.124 . S
C2227 C647 1.124 . S
C2232 C467 1.123 . S
C2237 C489 1.125 . S
C2242 C665 1.121 . S
C2247 C515 1.124 . S
C2252 C625 1.123 . S
C2257 C161 1.125 . S
C2262 C711 1.122 . S
C2267 C733 1.125 . S
C2272 C94 1.121 . S
C2277 C116 1.125 . S
C2282 C754 1.122 . S
C2287 C139 1.123 . S
C2292 C776 1.124 . S
C2297 C28 1.122 . S
C2302 C799 1.124 . S
C2307 C821 1.123 . S
C2312 C50 1.124 . S
C2317 C73 1.125 . S
C2322 C842 1.121 . S
C2327 C7 1.123 . S
C2332 C865 1.122 . S
C2337 C446 1.123 . S
C2342 C886 1.124 . S
C2347 C1040 1.124 . S
C2352 C380 1.122 . S
C2357 C997 1.121 . S
C2362 C403 1.125 . S
C2367 C424 1.123 . S
C2372 C1019 1.124 . S
C2377 C512 1.121 . S
C2382 C908 1.125 . S
C2387 C469 1.122 . S
C2392 C931 1.124 . S
C2397 C952 1.125 . S
C2402 C491 1.122 . S
C2407 C974 1.125 . S
C2412 C358 1.121 . S
C2417 C337 1.122 . S
C2422 C535 1.125 . S
C2427 C205 1.124 . S
C2432 C622 1.123 . S
C2437 C644 1.124 . S
C2442 C226 1.123 . S
C2447 C248 1.124 . S
C2452 C667 1.123 . S
C2457 C183 1.124 . S
C2462 C689 1.122 . S
C2467 C293 1.123 . S
C2472 C578 1.123 . S
C2477 C314 1.124 . S
C2482 C601 1.122 . S
C2487 C556 1.121 . S
C2492 C271 1.125 . S
