# Generated by pormake.
# Topology unm, (4)-cn, num edge types: 1
# Building blocks:
#     Node 0, Type 0, BuildingBlock: KUFVIS_clean_sbu_0, # of connection points: 4
#     Node 1, Type 0, BuildingBlock: KUFVIS_clean_sbu_0, # of connection points: 4
#     Node 2, Type 0, BuildingBlock: KUFVIS_clean_sbu_0, # of connection points: 4
#     Node 3, Type 0, BuildingBlock: KUFVIS_clean_sbu_0, # of connection points: 4
#     Node 4, Type 0, BuildingBlock: KUFVIS_clean_sbu_0, # of connection points: 4
#     Node 5, Type 0, BuildingBlock: KUFVIS_clean_sbu_0, # of connection points: 4
#     Node 6, Type 0, BuildingBlock: KUFVIS_clean_sbu_0, # of connection points: 4
#     Node 7, Type 0, BuildingBlock: KUFVIS_clean_sbu_0, # of connection points: 4
#     Edge 8, Type (0, 0), BuildingBlock: MIFKUJ_clean_linker_0, # of connection points: 2
#     Edge 9, Type (0, 0), BuildingBlock: MIFKUJ_clean_linker_0, # of connection points: 2
#     Edge 10, Type (0, 0), BuildingBlock: MIFKUJ_clean_linker_0, # of connection points: 2
#     Edge 11, Type (0, 0), BuildingBlock: MIFKUJ_clean_linker_0, # of connection points: 2
#     Edge 12, Type (0, 0), BuildingBlock: MIFKUJ_clean_linker_0, # of connection points: 2
#     Edge 13, Type (0, 0), BuildingBlock: MIFKUJ_clean_linker_0, # of connection points: 2
#     Edge 14, Type (0, 0), BuildingBlock: MIFKUJ_clean_linker_0, # of connection points: 2
#     Edge 15, Type (0, 0), BuildingBlock: MIFKUJ_clean_linker_0, # of connection points: 2
#     Edge 16, Type (0, 0), BuildingBlock: MIFKUJ_clean_linker_0, # of connection points: 2
#     Edge 17, Type (0, 0), BuildingBlock: MIFKUJ_clean_linker_0, # of connection points: 2
#     Edge 18, Type (0, 0), BuildingBlock: MIFKUJ_clean_linker_0, # of connection points: 2
#     Edge 19, Type (0, 0), BuildingBlock: MIFKUJ_clean_linker_0, # of connection points: 2
#     Edge 20, Type (0, 0), BuildingBlock: MIFKUJ_clean_linker_0, # of connection points: 2
#     Edge 21, Type (0, 0), BuildingBlock: MIFKUJ_clean_linker_0, # of connection points: 2
#     Edge 22, Type (0, 0), BuildingBlock: MIFKUJ_clean_linker_0, # of connection points: 2
#     Edge 23, Type (0, 0), BuildingBlock: MIFKUJ_clean_linker_0, # of connection points: 2
# Relax obj value: 0.144
# Max RMSD: 0.134
# Mean RMSD: 0.134
data_MOF--net-unm--node1-KUFVIS_clean_sbu_0--edge1-MIFKUJ_clean_linker_0
_symmetry_space_group_name_H-M    P1
_symmetry_Int_Tables_number       1
_symmetry_cell_setting            triclinic
loop_
_symmetry_equiv_pos_as_xyz
'x, y, z'
_cell_length_a     32.910226
_cell_length_b     32.890282
_cell_length_c     57.886902
_cell_angle_alpha  90.028921
_cell_angle_beta   89.989086
_cell_angle_gamma 90.007079
loop_
_atom_site_label
_atom_site_type_symbol
_atom_site_fract_x
_atom_site_fract_y
_atom_site_fract_z
_atom_type_partial_charge
Mn0 Mn 0.16582 0.27441 0.17251 0.0
Mn1 Mn 0.22271 0.34833 0.1482 0.0
C2 C 0.13532 0.33012 0.15569 0.0
C3 C 0.12884 0.24849 0.20364 0.0
C4 C 0.20448 0.26851 0.12441 0.0
O5 O 0.22203 0.2634 0.18644 0.0
O6 O 0.25671 0.31381 0.16879 0.0
C7 C 0.24105 0.39486 0.19076 0.0
N8 N 0.2252 0.3934 0.16904 0.0
C9 C 0.20523 0.46372 0.17103 0.0
C10 C 0.2216 0.46603 0.19335 0.0
C11 C 0.23956 0.43143 0.20326 0.0
C12 C 0.20794 0.42655 0.15932 0.0
H13 H 0.25462 0.36829 0.19853 0.0
C14 C 0.2548 0.28322 0.1825 0.0
O15 O 0.14018 0.22516 0.18668 0.0
O16 O 0.14232 0.28547 0.2035 0.0
N17 N 0.19335 0.3842 0.1282 0.0
C18 C 0.1773 0.37642 0.10694 0.0
C19 C 0.15725 0.40761 0.09494 0.0
C20 C 0.1541 0.44649 0.10482 0.0
C21 C 0.17133 0.45391 0.12657 0.0
C22 C 0.19128 0.42174 0.13764 0.0
H23 H 0.1794 0.34655 0.0993 0.0
O24 O 0.1155 0.29643 0.15818 0.0
O25 O 0.17258 0.3304 0.16318 0.0
O26 O 0.18377 0.25261 0.14074 0.0
O27 O 0.22048 0.30382 0.12541 0.0
C28 C 0.16875 0.49174 0.1379 0.0
C29 C 0.18566 0.49663 0.16012 0.0
H30 H 0.22023 0.49409 0.20312 0.0
H31 H 0.25206 0.43292 0.22053 0.0
H32 H 0.14402 0.40163 0.07816 0.0
H33 H 0.1382 0.47034 0.09563 0.0
H34 H 0.15339 0.51714 0.1298 0.0
H35 H 0.18304 0.52573 0.16877 0.0
Mn36 Mn 0.22147 0.67079 0.66966 0.0
Mn37 Mn 0.14883 0.73414 0.64967 0.0
C38 C 0.16541 0.64527 0.65083 0.0
C39 C 0.24628 0.62852 0.69895 0.0
C40 C 0.227 0.71737 0.6237 0.0
O41 O 0.23431 0.72348 0.68688 0.0
O42 O 0.18554 0.76325 0.6714 0.0
C43 C 0.10549 0.74676 0.69396 0.0
N44 N 0.10522 0.73425 0.67152 0.0
C45 C 0.03466 0.71552 0.674 0.0
C46 C 0.0342 0.72825 0.69712 0.0
C47 C 0.06976 0.74398 0.70713 0.0
C48 C 0.0711 0.71925 0.66169 0.0
H49 H 0.13273 0.75874 0.7018 0.0
C50 C 0.21605 0.75752 0.68471 0.0
O51 O 0.26997 0.64145 0.68253 0.0
O52 O 0.20954 0.6425 0.69915 0.0
N53 N 0.11064 0.71025 0.62873 0.0
C54 C 0.11593 0.69997 0.60611 0.0
C55 C 0.08309 0.68401 0.59354 0.0
C56 C 0.04517 0.67895 0.60429 0.0
C57 C 0.0402 0.69067 0.6274 0.0
C58 C 0.07386 0.70692 0.63898 0.0
H59 H 0.14505 0.70361 0.59776 0.0
O60 O 0.19838 0.62402 0.6524 0.0
O61 O 0.16565 0.68069 0.6609 0.0
O62 O 0.24329 0.69423 0.63892 0.0
O63 O 0.19211 0.73393 0.62622 0.0
C64 C 0.00322 0.6866 0.63946 0.0
C65 C 1.00047 0.69898 0.66274 0.0
H66 H 0.00674 0.72601 0.70736 0.0
H67 H 0.06966 0.75389 0.72496 0.0
H68 H 0.08696 0.67554 0.57563 0.0
H69 H 0.02005 0.6662 0.59461 0.0
H70 H 0.97676 0.67385 0.631 0.0
H71 H 0.97191 0.69558 0.67185 0.0
Mn72 Mn 0.83431 0.72472 0.17248 0.0
Mn73 Mn 0.77845 0.64467 0.15445 0.0
C74 C 0.86566 0.66729 0.15819 0.0
C75 C 0.87229 0.75714 0.20125 0.0
C76 C 0.79237 0.71966 0.12508 0.0
O77 O 0.77882 0.73678 0.18707 0.0
O78 O 0.74479 0.68242 0.17325 0.0
C79 C 0.76374 0.60707 0.20018 0.0
N80 N 0.77851 0.60436 0.17825 0.0
C81 C 0.79973 0.53518 0.18438 0.0
C82 C 0.78465 0.53721 0.20701 0.0
C83 C 0.76657 0.57331 0.21493 0.0
C84 C 0.79581 0.56971 0.17042 0.0
H85 H 0.74992 0.63477 0.20639 0.0
C86 C 0.74646 0.71553 0.1849 0.0
O87 O 0.85947 0.77701 0.18326 0.0
O88 O 0.86004 0.71996 0.20338 0.0
N89 N 0.80716 0.60537 0.13631 0.0
C90 C 0.82084 0.60862 0.11416 0.0
C91 C 0.84027 0.57528 0.10376 0.0
C92 C 0.84505 0.53886 0.11613 0.0
C93 C 0.82999 0.53598 0.13873 0.0
C94 C 0.81069 0.57013 0.14815 0.0
H95 H 0.81735 0.63657 0.10458 0.0
O96 O 0.88435 0.70189 0.15829 0.0
O97 O 0.82909 0.66696 0.16674 0.0
O98 O 0.8131 0.73975 0.13994 0.0
O99 O 0.7781 0.68416 0.12894 0.0
C100 C 0.83393 0.50077 0.1524 0.0
C101 C 0.81887 0.50039 0.17522 0.0
H102 H 0.78694 0.5113 0.21849 0.0
H103 H 0.7549 0.57513 0.23239 0.0
H104 H 0.85173 0.57772 0.08629 0.0
H105 H 0.86041 0.51336 0.10814 0.0
H106 H 0.84878 0.47392 0.1456 0.0
H107 H 0.82238 0.47325 0.18562 0.0
Mn108 Mn 0.7933 0.33968 0.67268 0.0
Mn109 Mn 0.86257 0.28392 0.6436 0.0
C110 C 0.84252 0.37116 0.65067 0.0
C111 C 0.77516 0.37756 0.70539 0.0
C112 C 0.77656 0.29717 0.62656 0.0
O113 O 0.78814 0.28363 0.68812 0.0
O114 O 0.83658 0.2504 0.66802 0.0
C115 C 0.92181 0.27223 0.6815 0.0
N116 N 0.91312 0.28576 0.65982 0.0
C117 C 0.98172 0.30928 0.65442 0.0
C118 C 0.99147 0.29533 0.67663 0.0
C119 C 0.96137 0.27675 0.69022 0.0
C120 C 0.94189 0.30356 0.64656 0.0
H121 H 0.8987 0.25821 0.69208 0.0
C122 C 0.80912 0.2517 0.68373 0.0
O123 O 0.74771 0.36439 0.69105 0.0
O124 O 0.81197 0.36519 0.7019 0.0
N125 N 0.89022 0.31304 0.61966 0.0
C126 C 0.87533 0.32673 0.59912 0.0
C127 C 0.90132 0.347 0.58371 0.0
C128 C 0.94232 0.35294 0.58956 0.0
C129 C 0.95703 0.33825 0.6107 0.0
C130 C 0.92982 0.31782 0.62524 0.0
H131 H 0.84381 0.32245 0.59455 0.0
O132 O 0.80928 0.39005 0.65592 0.0
O133 O 0.84624 0.33444 0.65868 0.0
O134 O 0.76429 0.31952 0.64325 0.0
O135 O 0.81204 0.2816 0.62542 0.0
C136 C 0.99742 0.34383 0.61813 0.0
C137 C 0.00974 0.32938 0.63998 0.0
H138 H 0.02185 0.29907 0.6835 0.0
H139 H 0.9686 0.26612 0.70742 0.0
H140 H 0.88972 0.35821 0.56743 0.0
H141 H 0.96216 0.36902 0.57776 0.0
H142 H 0.01911 0.35967 0.60731 0.0
H143 H 0.04073 0.33433 0.64562 0.0
Mn144 Mn 0.66888 0.21781 0.34266 0.0
Mn145 Mn 0.73811 0.15303 0.36491 0.0
C146 C 0.64839 0.15936 0.36133 0.0
C147 C 0.62562 0.23821 0.31268 0.0
C148 C 0.71285 0.23075 0.38887 0.0
O149 O 0.72121 0.23502 0.32612 0.0
O150 O 0.76462 0.1904 0.34262 0.0
C151 C 0.75633 0.10734 0.32205 0.0
N152 N 0.74338 0.10777 0.3444 0.0
C153 C 0.73257 0.03542 0.34401 0.0
C154 C 0.74605 0.03417 0.32104 0.0
C155 C 0.75792 0.0703 0.31001 0.0
C156 C 0.73181 0.0732 0.35517 0.0
H157 H 0.7653 0.13503 0.31345 0.0
C158 C 0.75664 0.21971 0.3288 0.0
O159 O 0.63596 0.26317 0.32908 0.0
O160 O 0.64286 0.20281 0.31282 0.0
N161 N 0.71627 0.11478 0.38649 0.0
C162 C 0.70244 0.12148 0.40835 0.0
C163 C 0.68872 0.08852 0.42163 0.0
C164 C 0.6896 0.04908 0.41235 0.0
C165 C 0.70411 0.04291 0.38984 0.0
C166 C 0.7177 0.07688 0.3775 0.0
H167 H 0.70167 0.15175 0.41556 0.0
O168 O 0.62396 0.19005 0.35937 0.0
O169 O 0.68417 0.16365 0.35214 0.0
O170 O 0.68789 0.24293 0.37345 0.0
O171 O 0.73353 0.19802 0.38728 0.0
C172 C 0.70528 0.00449 0.37909 0.0
C173 C 0.71935 1.00077 0.35617 0.0
H174 H 0.74715 0.00568 0.31166 0.0
H175 H 0.76818 0.06961 0.29225 0.0
H176 H 0.67749 0.09349 0.43897 0.0
H177 H 0.67911 0.02382 0.42268 0.0
H178 H 0.69523 0.97762 0.38821 0.0
H179 H 0.71966 0.97112 0.34801 0.0
Mn180 Mn 0.26461 0.1668 0.83656 0.0
Mn181 Mn 0.34391 0.21959 0.85818 0.0
C182 C 0.31966 0.13313 0.85194 0.0
C183 C 0.23434 0.13191 0.80595 0.0
C184 C 0.26556 0.20627 0.88458 0.0
O185 O 0.25536 0.22359 0.82296 0.0
O186 O 0.30985 0.25511 0.83837 0.0
C187 C 0.38735 0.23422 0.81415 0.0
N188 N 0.38688 0.21864 0.83595 0.0
C189 C 0.45568 0.19481 0.83214 0.0
C190 C 0.45693 0.21069 0.80967 0.0
C191 C 0.42259 0.23046 0.80064 0.0
C192 C 0.41973 0.19952 0.8448 0.0
H193 H 0.36104 0.2494 0.8071 0.0
C194 C 0.27772 0.25501 0.82587 0.0
O195 O 0.21295 0.14392 0.82357 0.0
O196 O 0.27193 0.14339 0.8053 0.0
N197 N 0.37981 0.18879 0.87743 0.0
C198 C 0.37363 0.17505 0.89936 0.0
C199 C 0.40501 0.1543 0.91083 0.0
C200 C 0.44254 0.14839 0.89976 0.0
C201 C 0.44846 0.16353 0.87738 0.0
C202 C 0.41611 0.18403 0.86683 0.0
H203 H 0.34487 0.17959 0.90798 0.0
O204 O 0.28485 0.11513 0.85018 0.0
O205 O 0.32155 0.17027 0.84432 0.0
O206 O 0.24706 0.18578 0.86901 0.0
O207 O 0.30135 0.22076 0.88216 0.0
C208 C 0.48511 0.15889 0.86506 0.0
C209 C 0.48865 0.17434 0.84242 0.0
H210 H 0.48404 0.2078 0.79919 0.0
H211 H 0.4233 0.24277 0.78331 0.0
H212 H 0.40023 0.14277 0.92812 0.0
H213 H 0.46658 0.13217 0.90861 0.0
H214 H 0.51075 0.14341 0.8728 0.0
H215 H 0.51688 0.17031 0.83308 0.0
Mn216 Mn 0.33185 0.78629 0.34049 0.0
Mn217 Mn 0.27277 0.85916 0.36382 0.0
C218 C 0.36078 0.8409 0.35971 0.0
C219 C 0.3721 0.76253 0.31001 0.0
C220 C 0.28669 0.77735 0.38656 0.0
O221 O 0.27739 0.77676 0.32408 0.0
O222 O 0.24144 0.82733 0.34076 0.0
C223 C 0.26228 0.90973 0.32193 0.0
N224 N 0.27495 0.90587 0.34422 0.0
C225 C 0.29521 0.97612 0.34567 0.0
C226 C 0.28216 0.98092 0.32277 0.0
C227 C 0.26586 0.9475 0.31081 0.0
C228 C 0.29153 0.93759 0.35571 0.0
H229 H 0.24947 0.8842 0.31273 0.0
C230 C 0.24467 0.79727 0.32681 0.0
O231 O 0.35891 0.73798 0.32595 0.0
O232 O 0.35893 0.79956 0.31077 0.0
N233 N 0.29912 0.89254 0.38639 0.0
C234 C 0.30737 0.88367 0.40892 0.0
C235 C 0.32318 0.91406 0.42341 0.0
C236 C 0.3298 0.95335 0.41471 0.0
C237 C 0.31973 0.96211 0.39172 0.0
C238 C 0.30397 0.93064 0.3781 0.0
H239 H 0.30194 0.85366 0.41581 0.0
O240 O 0.38041 0.80708 0.35725 0.0
O241 O 0.32457 0.84163 0.35083 0.0
O242 O 0.30995 0.76254 0.37099 0.0
O243 O 0.27055 0.81261 0.38522 0.0
C244 C 0.32368 1.00113 0.38198 0.0
C245 C 0.31126 0.00817 0.35902 0.0
H246 H 0.28443 0.01011 0.31421 0.0
H247 H 0.25581 0.95094 0.29312 0.0
H248 H 0.3301 0.90729 0.44127 0.0
H249 H 0.34195 0.97671 0.42595 0.0
H250 H 0.33571 0.0261 0.3921 0.0
H251 H 0.31374 0.03852 0.35193 0.0
Mn252 Mn 0.72081 0.84148 0.84036 0.0
Mn253 Mn 0.64079 0.78657 0.85912 0.0
C254 C 0.6644 0.87334 0.85585 0.0
C255 C 0.75179 0.87935 0.81098 0.0
C256 C 0.71901 0.79634 0.88658 0.0
O257 O 0.73106 0.78554 0.82547 0.0
O258 O 0.67394 0.7538 0.83735 0.0
C259 C 0.59651 0.78037 0.81471 0.0
N260 N 0.59731 0.79146 0.83738 0.0
C261 C 0.52864 0.8164 0.83541 0.0
C262 C 0.52693 0.80478 0.81212 0.0
C263 C 0.56107 0.7868 0.80172 0.0
C264 C 0.56475 0.8091 0.84751 0.0
H265 H 0.6228 0.76697 0.80657 0.0
C266 C 0.70723 0.75468 0.82586 0.0
O267 O 0.77267 0.86603 0.82849 0.0
O268 O 0.71436 0.86758 0.80965 0.0
N269 N 0.60583 0.81503 0.88006 0.0
C270 C 0.61297 0.82599 0.9024 0.0
C271 C 0.58213 0.8452 0.91514 0.0
C272 C 0.54421 0.85265 0.90486 0.0
C273 C 0.53739 0.84061 0.88195 0.0
C274 C 0.56915 0.82128 0.87016 0.0
H275 H 0.64204 0.82035 0.91043 0.0
O276 O 0.69901 0.89195 0.85516 0.0
O277 O 0.66378 0.83691 0.8473 0.0
O278 O 0.73742 0.81963 0.87231 0.0
O279 O 0.68374 0.78136 0.88279 0.0
C280 C 0.50049 0.84746 0.87026 0.0
C281 C 0.49617 0.83555 0.84697 0.0
H282 H 0.49972 0.80988 0.80201 0.0
H283 H 0.5601 0.77807 0.7837 0.0
H284 H 0.58763 0.85436 0.93283 0.0
H285 H 0.52063 0.86781 0.91467 0.0
H286 H 0.47541 0.8624 0.87892 0.0
H287 H 0.46788 0.84162 0.83806 0.0
H288 H 0.14563 0.2695 0.09226 0.0
H289 H 0.15154 0.24946 0.05176 0.0
H290 H 0.27199 0.20273 0.06499 0.0
H291 H 0.26667 0.22527 0.10534 0.0
H292 H 0.27675 0.24444 0.02966 0.0
H293 H 0.1853 0.14005 0.05006 0.0
H294 H 0.12481 0.10781 0.06724 0.0
H295 H 0.04753 0.17717 0.02235 0.0
H296 H 0.10754 0.21028 1.0051 0.0
H297 H 0.22884 0.1469 0.90985 0.0
H298 H 0.21398 0.14894 0.95134 0.0
H299 H 0.24586 0.27624 0.9529 0.0
H300 H 0.26314 0.27344 0.91185 0.0
H301 H 0.16839 0.18319 0.98131 0.0
H302 H 0.29569 0.30186 0.9998 0.0
H303 H 0.36116 0.32338 0.98302 0.0
H304 H 0.376 0.20574 0.952 0.0
H305 H 0.31086 0.18334 0.96878 0.0
C306 C 0.17286 0.2539 0.08657 0.0
C307 C 0.20546 0.2482 0.10182 0.0
C308 C 0.17624 0.2423 0.06341 0.0
C309 C 0.21204 0.22398 0.05516 0.0
C310 C 0.24403 0.21676 0.07081 0.0
C311 C 0.24093 0.22922 0.09389 0.0
C312 C 0.21754 0.21633 0.02991 0.0
C313 C 0.25307 0.23073 0.01922 0.0
C314 C 0.18725 0.19762 0.01607 0.0
C315 C 0.15097 0.17788 0.0264 0.0
C316 C 0.1554 0.14867 0.04396 0.0
C317 C 0.12119 0.1302 0.0537 0.0
C318 C 0.08235 0.1405 0.04593 0.0
C319 C 0.07764 0.16924 0.02836 0.0
C320 C 0.11175 0.18783 0.01858 0.0
C321 C 0.23175 0.17549 0.91901 0.0
C322 C 0.24726 0.21 0.90775 0.0
C323 C 0.2234 0.17662 0.94274 0.0
C324 C 0.22992 0.21245 0.95549 0.0
C325 C 0.24188 0.24785 0.94368 0.0
C326 C 0.25131 0.24642 0.92017 0.0
C327 C 0.22698 0.21235 0.98121 0.0
C328 C 0.19206 0.19654 0.99191 0.0
C329 C 0.2586 0.22811 0.99523 0.0
C330 C 0.29822 0.24107 0.98541 0.0
C331 C 0.31303 0.28052 0.9895 0.0
C332 C 0.35005 0.29289 0.97995 0.0
C333 C 0.37265 0.26598 0.96638 0.0
C334 C 0.35837 0.22659 0.96242 0.0
C335 C 0.3214 0.21405 0.97193 0.0
H336 H 0.40127 0.27562 0.95897 0.0
H337 H 0.0559 0.12616 0.05348 0.0
H338 H 0.20464 0.76859 0.58895 0.0
H339 H 0.22555 0.76587 0.54873 0.0
H340 H 0.31384 0.67353 0.56499 0.0
H341 H 0.29241 0.67519 0.60569 0.0
H342 H 0.33396 0.74702 0.52906 0.0
H343 H 0.24965 0.63118 0.54452 0.0
H344 H 0.19156 0.59627 0.56269 0.0
H345 H 0.10879 0.67463 0.52662 0.0
H346 H 0.16649 0.71062 0.5086 0.0
H347 H 0.33846 0.72214 0.40647 0.0
H348 H 0.33683 0.69823 0.44661 0.0
H349 H 0.2229 0.76031 0.4571 0.0
H350 H 0.22432 0.78424 0.41724 0.0
H351 H 0.22577 0.68649 0.48011 0.0
H352 H 0.3103 0.80666 0.46883 0.0
H353 H 0.36795 0.84344 0.45138 0.0
H354 H 0.45115 0.75661 0.4801 0.0
H355 H 0.39389 0.71876 0.49732 0.0
C356 C 0.22907 0.74812 0.58424 0.0
C357 C 0.24644 0.7217 0.60064 0.0
C358 C 0.24099 0.7467 0.56117 0.0
C359 C 0.27086 0.71923 0.55391 0.0
C360 C 0.29066 0.69492 0.57035 0.0
C361 C 0.2784 0.696 0.59358 0.0
C362 C 0.27766 0.71379 0.52881 0.0
C363 C 0.31104 0.73273 0.51832 0.0
C364 C 0.24735 0.69566 0.51488 0.0
C365 C 0.21243 0.67377 0.52533 0.0
C366 C 0.21908 0.64121 0.54061 0.0
C367 C 0.18623 0.62119 0.55086 0.0
C368 C 0.14653 0.63319 0.54579 0.0
C369 C 0.13959 0.66532 0.53049 0.0
C370 C 0.17236 0.68554 0.52025 0.0
C371 C 0.31248 0.72966 0.41714 0.0
C372 C 0.28163 0.75532 0.40872 0.0
C373 C 0.31174 0.7162 0.44011 0.0
C374 C 0.28001 0.72795 0.45493 0.0
C375 C 0.24771 0.75092 0.44601 0.0
C376 C 0.24862 0.76467 0.42321 0.0
C377 C 0.28189 0.72021 0.4802 0.0
C378 C 0.24965 0.69936 0.49076 0.0
C379 C 0.31343 0.7364 0.49415 0.0
C380 C 0.3478 0.75959 0.48411 0.0
C381 C 0.34085 0.79523 0.47128 0.0
C382 C 0.37345 0.81629 0.46144 0.0
C383 C 0.41315 0.80234 0.46459 0.0
C384 C 0.42036 0.76733 0.47763 0.0
C385 C 0.38786 0.74604 0.48742 0.0
H386 H 0.43834 0.81871 0.45697 0.0
H387 H 0.12115 0.61756 0.5537 0.0
H388 H 0.83265 0.78333 0.10394 0.0
H389 H 0.82965 0.80224 0.0629 0.0
H390 H 0.73757 0.71113 0.05152 0.0
H391 H 0.74026 0.69217 0.09203 0.0
H392 H 0.8002 0.70407 0.02106 0.0
H393 H 0.71455 0.81162 0.05204 0.0
H394 H 0.7003 0.87111 0.07669 0.0
H395 H 0.79737 0.93697 0.04418 0.0
H396 H 0.81253 0.87762 0.01953 0.0
H397 H 0.69695 0.73841 0.91787 0.0
H398 H 0.72027 0.73076 0.95748 0.0
H399 H 0.80505 0.82931 0.94794 0.0
H400 H 0.78144 0.83757 0.90797 0.0
H401 H 0.7617 0.83775 0.98805 0.0
H402 H 0.84096 0.73428 0.9532 0.0
H403 H 0.85563 0.6753 0.92826 0.0
H404 H 0.77327 0.60196 0.96792 0.0
H405 H 0.75762 0.66066 0.9929 0.0
C406 C 0.81123 0.76788 0.09277 0.0
C407 C 0.78691 0.73602 0.10133 0.0
C408 C 0.80965 0.77864 0.0693 0.0
C409 C 0.78362 0.75783 0.05409 0.0
C410 C 0.7582 0.72731 0.06285 0.0
C411 C 0.75972 0.71662 0.08613 0.0
C412 C 0.7836 0.76592 0.02881 0.0
C413 C 0.79162 0.73327 0.01385 0.0
C414 C 0.77415 0.80443 0.01935 0.0
C415 C 0.76501 0.84002 0.03417 0.0
C416 C 0.7331 0.83865 0.05031 0.0
C417 C 0.7248 0.87237 0.06424 0.0
C418 C 0.74801 0.90774 0.06207 0.0
C419 C 0.77948 0.90951 0.04589 0.0
C420 C 0.78793 0.87586 0.03193 0.0
C421 C 0.72096 0.75821 0.92398 0.0
C422 C 0.73734 0.78858 0.90963 0.0
C423 C 0.73437 0.75368 0.9467 0.0
C424 C 0.76464 0.77925 0.95568 0.0
C425 C 0.78172 0.80918 0.94135 0.0
C426 C 0.76841 0.81363 0.91846 0.0
C427 C 0.77662 0.77538 0.98037 0.0
C428 C 0.77104 0.80875 0.99522 0.0
C429 C 0.78856 0.73753 0.98979 0.0
C430 C 0.79796 0.702 0.97486 0.0
C431 C 0.82575 0.70566 0.95652 0.0
C432 C 0.83428 0.67226 0.94238 0.0
C433 C 0.81536 0.63493 0.94648 0.0
C434 C 0.78791 0.6309 0.96476 0.0
C435 C 0.77925 0.66422 0.97894 0.0
H436 H 0.822 0.6091 0.93552 0.0
H437 H 0.74152 0.93382 0.07287 0.0
H438 H 0.64972 0.24836 0.41716 0.0
H439 H 0.65363 0.26757 0.45788 0.0
H440 H 0.78385 0.28034 0.45173 0.0
H441 H 0.77995 0.25789 0.41149 0.0
H442 H 0.77269 0.2402 0.48632 0.0
H443 H 0.71161 0.36371 0.46227 0.0
H444 H 0.66233 0.40866 0.44287 0.0
H445 H 0.56616 0.3604 0.48484 0.0
H446 H 0.61478 0.31475 0.50429 0.0
H447 H 0.74929 0.35945 0.60036 0.0
H448 H 0.73071 0.35533 0.55947 0.0
H449 H 0.73093 0.22431 0.5638 0.0
H450 H 0.75234 0.2286 0.60423 0.0
H451 H 0.67856 0.32915 0.53018 0.0
H452 H 0.77388 0.18197 0.5187 0.0
H453 H 0.8316 0.14715 0.53737 0.0
H454 H 0.87447 0.2611 0.5641 0.0
H455 H 0.81715 0.29668 0.5455 0.0
C456 C 0.67897 0.25646 0.42441 0.0
C457 C 0.71451 0.25213 0.41122 0.0
C458 C 0.68125 0.26754 0.44774 0.0
C459 C 0.71905 0.27578 0.45812 0.0
C460 C 0.7543 0.27387 0.44436 0.0
C461 C 0.75211 0.26149 0.42128 0.0
C462 C 0.72246 0.28212 0.48365 0.0
C463 C 0.75212 0.25994 0.49574 0.0
C464 C 0.69622 0.30821 0.49627 0.0
C465 C 0.66681 0.33554 0.48459 0.0
C466 C 0.6799 0.36245 0.46724 0.0
C467 C 0.65209 0.3881 0.45626 0.0
C468 C 0.61113 0.38731 0.46258 0.0
C469 C 0.5979 0.36094 0.47994 0.0
C470 C 0.62558 0.33521 0.49097 0.0
C471 C 0.7439 0.32984 0.59274 0.0
C472 C 0.75204 0.29432 0.60536 0.0
C473 C 0.7335 0.32747 0.56931 0.0
C474 C 0.7306 0.2895 0.55828 0.0
C475 C 0.73422 0.254 0.57169 0.0
C476 C 0.74585 0.25638 0.59488 0.0
C477 C 0.72841 0.28695 0.53256 0.0
C478 C 0.69905 0.30966 0.52055 0.0
C479 C 0.7562 0.2629 0.51979 0.0
C480 C 0.79101 0.24187 0.53088 0.0
C481 C 0.79569 0.1996 0.52851 0.0
C482 C 0.82829 0.17974 0.53912 0.0
C483 C 0.85656 0.2019 0.552 0.0
C484 C 0.85239 0.24399 0.55424 0.0
C485 C 0.81984 0.26401 0.54369 0.0
H486 H 0.88176 0.18647 0.5602 0.0
H487 H 0.58964 0.4072 0.45406 0.0
H488 H 0.33225 0.29664 0.16815 0.0
H489 H 0.39506 0.28653 0.18957 0.0
H490 H 0.32703 0.23717 0.24679 0.0
H491 H 0.2637 0.24614 0.22493 0.0
H492 H 0.41951 0.32136 0.2264 0.0
H493 H 0.39053 0.176 0.27993 0.0
H494 H 0.35271 0.11138 0.27752 0.0
H495 H 0.35585 0.11732 0.20344 0.0
H496 H 0.39414 0.1817 0.20541 0.0
H497 H 0.56989 0.3001 0.31498 0.0
H498 H 0.50727 0.30682 0.29248 0.0
H499 H 0.54075 0.20178 0.25207 0.0
H500 H 0.60274 0.19434 0.27486 0.0
H501 H 0.46514 0.19464 0.26475 0.0
H502 H 0.54444 0.30146 0.2303 0.0
H503 H 0.58619 0.36374 0.22994 0.0
H504 H 0.48797 0.43105 0.26032 0.0
H505 H 0.4458 0.36903 0.26113 0.0
C506 C 0.33058 0.28311 0.18518 0.0
C507 C 0.29288 0.27226 0.19483 0.0
C508 C 0.36662 0.27749 0.19748 0.0
C509 C 0.36607 0.26119 0.21989 0.0
C510 C 0.32851 0.24932 0.22943 0.0
C511 C 0.29227 0.25445 0.21692 0.0
C512 C 0.40477 0.25865 0.23333 0.0
C513 C 0.42936 0.29357 0.23479 0.0
C514 C 0.41803 0.22249 0.2443 0.0
C515 C 0.39475 0.18395 0.24284 0.0
C516 C 0.38317 0.16349 0.26313 0.0
C517 C 0.36168 0.12689 0.26184 0.0
C518 C 0.35177 0.11032 0.24034 0.0
C519 C 0.36339 0.13029 0.22008 0.0
C520 C 0.38493 0.16688 0.22127 0.0
C521 C 0.5643 0.27893 0.301 0.0
C522 C 0.59142 0.24676 0.29667 0.0
C523 C 0.52838 0.28274 0.28815 0.0
C524 C 0.51912 0.25482 0.27049 0.0
C525 C 0.54693 0.22355 0.26567 0.0
C526 C 0.5826 0.21954 0.27861 0.0
C527 C 0.47996 0.25717 0.25752 0.0
C528 C 0.45517 0.22239 0.25636 0.0
C529 C 0.46682 0.29321 0.24646 0.0
C530 C 0.49212 0.33052 0.24599 0.0
C531 C 0.53186 0.32948 0.23707 0.0
C532 C 0.55558 0.36474 0.23676 0.0
C533 C 0.53978 0.4013 0.24516 0.0
C534 C 0.50019 0.4027 0.25385 0.0
C535 C 0.47636 0.36751 0.25422 0.0
H536 H 0.55819 0.42857 0.2449 0.0
H537 H 0.33517 0.08196 0.23938 0.0
H538 H 0.20552 0.76544 0.73094 0.0
H539 H 0.20902 0.82904 0.75323 0.0
H540 H 0.25469 0.89168 0.69319 0.0
H541 H 0.2498 0.82849 0.67071 0.0
H542 H 0.29158 0.91179 0.74212 0.0
H543 H 0.1652 0.89953 0.69682 0.0
H544 H 0.10432 0.8603 0.68581 0.0
H545 H 0.06588 0.85726 0.75668 0.0
H546 H 0.12709 0.8957 0.76817 0.0
H547 H 0.26195 0.11585 0.76266 0.0
H548 H 0.25606 0.05122 0.74216 0.0
H549 H 0.17302 0.00745 0.79416 0.0
H550 H 0.17787 0.07275 0.8144 0.0
H551 H 0.15526 0.97381 0.75302 0.0
H552 H 0.27173 0.99147 0.79934 0.0
H553 H 0.33225 0.02709 0.81411 0.0
H554 H 0.39085 0.01322 0.74833 0.0
H555 H 0.32997 0.97904 0.73281 0.0
C556 C 0.21762 0.79252 0.72281 0.0
C557 C 0.22801 0.79218 0.69929 0.0
C558 C 0.2194 0.82878 0.73547 0.0
C559 C 0.23217 0.86498 0.72484 0.0
C560 C 0.24511 0.86399 0.70174 0.0
C561 C 0.24242 0.82798 0.68895 0.0
C562 C 0.22732 0.90464 0.73675 0.0
C563 C 0.26192 0.92563 0.74433 0.0
C564 C 0.18841 0.92178 0.74043 0.0
C565 C 0.15089 0.90012 0.73338 0.0
C566 C 0.14391 0.89025 0.71007 0.0
C567 C 0.10935 0.86817 0.70374 0.0
C568 C 0.08129 0.85623 0.72054 0.0
C569 C 0.08767 0.86649 0.74369 0.0
C570 C 0.12229 0.88842 0.75012 0.0
C571 C 0.24123 0.09303 0.76926 0.0
C572 C 0.2206 0.09924 0.79021 0.0
C573 C 0.23816 0.05594 0.75763 0.0
C574 C 0.21514 0.02398 0.76702 0.0
C575 C 0.19127 0.0315 0.7867 0.0
C576 C 0.19389 0.06896 0.79819 0.0
C577 C 0.21972 0.98196 0.75775 0.0
C578 C 0.18505 0.96024 0.75085 0.0
C579 C 0.2586 0.96365 0.75533 0.0
C580 C 0.29593 0.98309 0.76478 0.0
C581 C 0.29728 0.99643 0.7879 0.0
C582 C 0.3316 0.01656 0.79639 0.0
C583 C 0.3653 0.02256 0.78214 0.0
C584 C 0.36467 0.0086 0.75934 0.0
C585 C 0.33018 0.98899 0.75065 0.0
H586 H 0.39197 0.03784 0.78881 0.0
H587 H 0.05457 0.83912 0.71561 0.0
H588 H 0.42696 0.70043 0.31468 0.0
H589 H 0.49182 0.69335 0.29432 0.0
H590 H 0.45987 0.79394 0.25008 0.0
H591 H 0.39582 0.80199 0.27089 0.0
H592 H 0.51907 0.67821 0.25367 0.0
H593 H 0.54158 0.85216 0.23788 0.0
H594 H 0.52177 0.91707 0.25608 0.0
H595 H 0.50741 0.85693 0.32137 0.0
H596 H 0.52788 0.79182 0.3037 0.0
H597 H 0.66906 0.70149 0.17098 0.0
H598 H 0.6066 0.7115 0.19282 0.0
H599 H 0.67501 0.76544 0.24852 0.0
H600 H 0.73807 0.75644 0.22623 0.0
H601 H 0.60303 0.80258 0.24443 0.0
H602 H 0.64735 0.66645 0.25104 0.0
H603 H 0.67252 0.6001 0.23733 0.0
H604 H 0.56158 0.5812 0.19979 0.0
H605 H 0.53605 0.64786 0.2129 0.0
C606 C 0.43338 0.72044 0.30028 0.0
C607 C 0.40632 0.75189 0.29447 0.0
C608 C 0.47063 0.71653 0.28871 0.0
C609 C 0.48141 0.74384 0.27104 0.0
C610 C 0.45295 0.77325 0.2641 0.0
C611 C 0.41605 0.77753 0.27584 0.0
C612 C 0.52272 0.74253 0.26036 0.0
C613 C 0.53732 0.70544 0.25167 0.0
C614 C 0.54751 0.77773 0.25846 0.0
C615 C 0.53592 0.81698 0.26937 0.0
C616 C 0.53443 0.85281 0.25615 0.0
C617 C 0.52307 0.88964 0.26637 0.0
C618 C 0.51326 0.89109 0.28985 0.0
C619 C 0.51493 0.85574 0.30318 0.0
C620 C 0.5264 0.81886 0.29306 0.0
C621 C 0.67085 0.71603 0.18775 0.0
C622 C 0.7086 0.72779 0.19698 0.0
C623 C 0.63507 0.72159 0.20028 0.0
C624 C 0.6361 0.73822 0.2226 0.0
C625 C 0.67344 0.75225 0.23139 0.0
C626 C 0.70945 0.74718 0.21864 0.0
C627 C 0.5984 0.73864 0.23694 0.0
C628 C 0.58467 0.77543 0.24645 0.0
C629 C 0.57507 0.70288 0.2404 0.0
C630 C 0.58989 0.66233 0.23283 0.0
C631 C 0.62839 0.64826 0.23976 0.0
C632 C 0.64274 0.6106 0.23209 0.0
C633 C 0.61869 0.58648 0.21768 0.0
C634 C 0.58019 0.59994 0.21095 0.0
C635 C 0.56575 0.63766 0.2185 0.0
H636 H 0.62985 0.55733 0.21175 0.0
H637 H 0.50447 0.91962 0.29771 0.0
H638 H 0.83903 0.17618 0.67432 0.0
H639 H 0.83107 0.11397 0.69634 0.0
H640 H 0.75768 0.17762 0.74639 0.0
H641 H 0.76485 0.24061 0.72396 0.0
H642 H 0.85455 0.09262 0.73715 0.0
H643 H 0.69046 0.10942 0.77083 0.0
H644 H 0.62593 0.14245 0.75989 0.0
H645 H 0.66067 0.13847 0.68842 0.0
H646 H 0.72512 0.10496 0.6989 0.0
H647 H 0.81136 0.93544 0.81975 0.0
H648 H 0.82355 0.99877 0.79865 0.0
H649 H 0.73658 0.96205 0.74689 0.0
H650 H 0.72324 0.89962 0.76841 0.0
H651 H 0.72041 0.03525 0.75846 0.0
H652 H 0.84405 0.96635 0.73755 0.0
H653 H 0.90823 0.92962 0.74452 0.0
H654 H 0.95392 0.03104 0.78338 0.0
H655 H 0.8898 0.06818 0.77687 0.0
C656 C 0.82103 0.17726 0.68998 0.0
C657 C 0.80255 0.21372 0.6973 0.0
C658 C 0.81667 0.14145 0.70265 0.0
C659 C 0.79378 0.14082 0.72307 0.0
C660 C 0.77516 0.17709 0.73055 0.0
C661 C 0.7793 0.21315 0.71771 0.0
C662 C 0.78975 0.10192 0.73621 0.0
C663 C 0.82517 0.08019 0.7419 0.0
C664 C 0.75153 0.08523 0.74222 0.0
C665 C 0.7128 0.10517 0.7357 0.0
C666 C 0.68427 0.11554 0.75278 0.0
C667 C 0.64772 0.13434 0.74666 0.0
C668 C 0.63928 0.1427 0.72348 0.0
C669 C 0.66732 0.13214 0.70637 0.0
C670 C 0.70388 0.1133 0.7124 0.0
C671 C 0.79571 0.94038 0.80354 0.0
C672 C 0.76648 0.91241 0.79569 0.0
C673 C 0.80256 0.97676 0.79149 0.0
C674 C 0.78096 0.98549 0.77109 0.0
C675 C 0.75339 0.95642 0.76266 0.0
C676 C 0.74609 0.92046 0.77486 0.0
C677 C 0.78521 0.02557 0.75913 0.0
C678 C 0.74982 0.04771 0.75384 0.0
C679 C 0.82343 0.04216 0.75298 0.0
C680 C 0.86197 0.01986 0.75692 0.0
C681 C 0.86767 0.98069 0.74773 0.0
C682 C 0.90406 0.95982 0.75157 0.0
C683 C 0.93509 0.97794 0.76444 0.0
C684 C 0.92984 0.01701 0.77344 0.0
C685 C 0.8935 0.038 0.76967 0.0
H686 H 0.96324 0.96174 0.76739 0.0
H687 H 0.61098 0.15727 0.71878 0.0
H688 H 0.82774 0.2526 0.34307 0.0
H689 H 0.89024 0.25967 0.32027 0.0
H690 H 0.82624 0.21926 0.25947 0.0
H691 H 0.7632 0.21358 0.28215 0.0
H692 H 0.90181 0.17301 0.27464 0.0
H693 H 0.85294 0.30659 0.25536 0.0
H694 H 0.82584 0.37489 0.26377 0.0
H695 H 0.93175 0.40237 0.30418 0.0
H696 H 0.95924 0.33396 0.29628 0.0
H697 H 0.06774 0.19422 0.19579 0.0
H698 H 0.00356 0.18954 0.21677 0.0
H699 H 0.04921 0.2734 0.26798 0.0
H700 H 0.11256 0.27981 0.24623 0.0
H701 H 0.97985 0.29785 0.25633 0.0
H702 H 0.02905 0.1661 0.27776 0.0
H703 H 0.05686 0.09721 0.27204 0.0
H704 H 0.95276 0.06477 0.23131 0.0
H705 H 0.92455 0.13367 0.23653 0.0
C706 C 0.82675 0.24677 0.32465 0.0
C707 C 0.79064 0.23341 0.3142 0.0
C708 C 0.86245 0.25049 0.3117 0.0
C709 C 0.86284 0.23987 0.28822 0.0
C710 C 0.82647 0.22773 0.27756 0.0
C711 C 0.79046 0.22497 0.29042 0.0
C712 C 0.90197 0.23837 0.2755 0.0
C713 C 0.91873 0.20025 0.27024 0.0
C714 C 0.92446 0.27389 0.27058 0.0
C715 C 0.90794 0.31498 0.27544 0.0
C716 C 0.87026 0.32703 0.26625 0.0
C717 C 0.85487 0.36581 0.27087 0.0
C718 C 0.877 0.39291 0.28456 0.0
C719 C 0.91461 0.38132 0.29361 0.0
C720 C 0.93012 0.34256 0.28905 0.0
C721 C 0.06455 0.21066 0.2119 0.0
C722 C 0.09529 0.23722 0.21943 0.0
C723 C 0.02769 0.20804 0.22393 0.0
C724 C 0.02123 0.23103 0.24412 0.0
C725 C 0.05308 0.25556 0.2524 0.0
C726 C 0.08953 0.25889 0.2401 0.0
C727 C 0.98048 0.23222 0.25555 0.0
C728 C 0.96324 0.27038 0.26062 0.0
C729 C 0.95786 0.1966 0.26064 0.0
C730 C 0.9749 0.15522 0.25734 0.0
C731 C 0.01225 0.1444 0.26742 0.0
C732 C 0.02805 0.10532 0.26429 0.0
C733 C 0.00665 0.07667 0.25126 0.0
C734 C 0.96934 0.08702 0.24136 0.0
C735 C 0.95342 0.12607 0.24441 0.0
H736 H 0.01891 0.04641 0.24888 0.0
H737 H 0.86505 0.42293 0.2881 0.0
H738 H 0.30421 0.5699 0.69207 0.0
H739 H 0.31024 0.50529 0.71292 0.0
H740 H 0.21893 0.5452 0.76137 0.0
H741 H 0.21185 0.60897 0.74018 0.0
H742 H 0.3285 0.47766 0.75396 0.0
H743 H 0.15557 0.46761 0.77535 0.0
H744 H 0.09074 0.49305 0.75961 0.0
H745 H 0.14489 0.5045 0.69249 0.0
H746 H 0.20963 0.4779 0.70757 0.0
H747 H 0.29858 0.3316 0.83877 0.0
H748 H 0.29286 0.39394 0.81638 0.0
H749 H 0.23146 0.32836 0.7621 0.0
H750 H 0.2364 0.2654 0.78485 0.0
H751 H 0.19939 0.40301 0.76709 0.0
H752 H 0.33155 0.34879 0.75748 0.0
H753 H 0.39669 0.31924 0.7701 0.0
H754 H 0.42569 0.42946 0.8063 0.0
H755 H 0.36031 0.45942 0.79427 0.0
C756 C 0.28616 0.56525 0.7075 0.0
C757 C 0.25736 0.59439 0.7144 0.0
C758 C 0.28947 0.5282 0.71935 0.0
C759 C 0.2642 0.51981 0.73836 0.0
C760 C 0.23792 0.55038 0.74637 0.0
C761 C 0.23418 0.58704 0.73437 0.0
C762 C 0.26363 0.47858 0.74912 0.0
C763 C 0.30026 0.46143 0.75681 0.0
C764 C 0.22694 0.45648 0.75218 0.0
C765 C 0.18763 0.47112 0.74269 0.0
C766 C 0.15355 0.47518 0.75717 0.0
C767 C 0.11679 0.48977 0.74835 0.0
C768 C 0.1137 0.50038 0.72504 0.0
C769 C 0.14729 0.49616 0.71049 0.0
C770 C 0.18402 0.48129 0.71917 0.0
C771 C 0.28339 0.33038 0.82218 0.0
C772 C 0.26831 0.29338 0.81349 0.0
C773 C 0.28031 0.36611 0.80934 0.0
C774 C 0.2627 0.36572 0.78728 0.0
C775 C 0.24549 0.32934 0.77901 0.0
C776 C 0.24821 0.29341 0.79204 0.0
C777 C 0.264 0.40306 0.77273 0.0
C778 C 0.22759 0.41931 0.76419 0.0
C779 C 0.301 0.42374 0.76826 0.0
C780 C 0.34086 0.40626 0.77509 0.0
C781 C 0.35171 0.36667 0.76823 0.0
C782 C 0.38867 0.34983 0.77529 0.0
C783 C 0.41528 0.37243 0.78902 0.0
C784 C 0.40503 0.41198 0.79567 0.0
C785 C 0.36802 0.42892 0.78872 0.0
H786 H 0.44387 0.35933 0.79449 0.0
H787 H 0.08529 0.51187 0.71826 0.0
H788 H 0.16679 0.7976 0.34175 0.0
H789 H 0.10487 0.79104 0.31866 0.0
H790 H 0.17709 0.77143 0.25755 0.0
H791 H 0.23962 0.77671 0.28086 0.0
H792 H 0.10017 0.8449 0.26721 0.0
H793 H 0.14207 0.70169 0.25653 0.0
H794 H 0.16621 0.63615 0.27204 0.0
H795 H 0.06465 0.63215 0.31857 0.0
H796 H 0.04031 0.69804 0.30355 0.0
H797 H 0.93394 0.80862 0.1894 0.0
H798 H 0.99818 0.81751 0.21001 0.0
H799 H 0.95112 0.74731 0.26706 0.0
H800 H 0.8878 0.73664 0.24589 0.0
H801 H 0.01958 0.71869 0.25746 0.0
H802 H 0.9734 0.85526 0.26875 0.0
H803 H 0.94758 0.92317 0.25824 0.0
H804 H 0.05292 0.9438 0.21608 0.0
H805 H 0.07913 0.87578 0.22609 0.0
C806 C 0.1695 0.7911 0.32346 0.0
C807 C 0.20799 0.78739 0.3131 0.0
C808 C 0.13413 0.78752 0.3103 0.0
C809 C 0.13644 0.78081 0.28645 0.0
C810 C 0.17475 0.77636 0.27601 0.0
C811 C 0.21035 0.77909 0.28931 0.0
C812 C 0.09847 0.78028 0.27265 0.0
C813 C 0.08277 0.81727 0.26455 0.0
C814 C 0.0752 0.74454 0.27018 0.0
C815 C 0.08973 0.70498 0.27915 0.0
C816 C 0.12519 0.68706 0.27026 0.0
C817 C 0.13883 0.6498 0.27891 0.0
C818 C 0.11706 0.63007 0.29634 0.0
C819 C 0.08154 0.64751 0.30511 0.0
C820 C 0.0678 0.68479 0.29653 0.0
C821 C 0.93686 0.79623 0.20665 0.0
C822 C 0.90576 0.7721 0.21609 0.0
C823 C 0.97375 0.80122 0.21845 0.0
C824 C 0.97986 0.78306 0.2402 0.0
C825 C 0.94758 0.76132 0.25024 0.0
C826 C 0.91114 0.75559 0.23825 0.0
C827 C 0.02064 0.78358 0.25164 0.0
C828 C 0.03685 0.74652 0.25962 0.0
C829 C 0.044 0.81955 0.25431 0.0
C830 C 0.028 0.86021 0.24797 0.0
C831 C 0.99086 0.87411 0.25705 0.0
C832 C 0.9762 0.91267 0.25123 0.0
C833 C 0.99854 0.93774 0.23645 0.0
C834 C 0.03561 0.92432 0.22749 0.0
C835 C 0.0504 0.88578 0.23324 0.0
H836 H 0.98719 0.96762 0.232 0.0
H837 H 0.12765 0.60121 0.30301 0.0
H838 H 0.83079 0.41963 0.73066 0.0
H839 H 0.82084 0.48284 0.7516 0.0
H840 H 0.69187 0.47611 0.73871 0.0
H841 H 0.70206 0.41333 0.71655 0.0
H842 H 0.71558 0.54847 0.72971 0.0
H843 H 0.73827 0.46127 0.79456 0.0
H844 H 0.7738 0.40981 0.81802 0.0
H845 H 0.87897 0.4868 0.82178 0.0
H846 H 0.84425 0.53853 0.79808 0.0
H847 H 0.65444 0.69688 0.81082 0.0
H848 H 0.66916 0.63376 0.79067 0.0
H849 H 0.79677 0.66324 0.79027 0.0
H850 H 0.78216 0.72762 0.81047 0.0
H851 H 0.77671 0.58136 0.80579 0.0
H852 H 0.75018 0.66982 0.74168 0.0
H853 H 0.71135 0.72102 0.71978 0.0
H854 H 0.60908 0.64014 0.71658 0.0
H855 H 0.6471 0.58865 0.73876 0.0
C856 C 0.8001 0.431 0.73264 0.0
C857 C 0.76716 0.41118 0.72195 0.0
C858 C 0.79443 0.46732 0.74476 0.0
C859 C 0.75552 0.48438 0.74706 0.0
C860 C 0.72226 0.46374 0.7372 0.0
C861 C 0.72802 0.4276 0.7247 0.0
C862 C 0.75008 0.52492 0.7584 0.0
C863 C 0.72848 0.55528 0.74651 0.0
C864 C 0.76785 0.53463 0.78006 0.0
C865 C 0.78877 0.50361 0.79436 0.0
C866 C 0.76908 0.4671 0.80024 0.0
C867 C 0.78906 0.43791 0.81361 0.0
C868 C 0.82865 0.44498 0.82134 0.0
C869 C 0.84832 0.48134 0.81576 0.0
C870 C 0.82848 0.51063 0.80239 0.0
C871 C 0.68573 0.69033 0.80638 0.0
C872 C 0.71716 0.7175 0.81231 0.0
C873 C 0.69403 0.65411 0.79477 0.0
C874 C 0.734 0.64378 0.78888 0.0
C875 C 0.76566 0.67069 0.79465 0.0
C876 C 0.75727 0.70752 0.80606 0.0
C877 C 0.74206 0.60433 0.77714 0.0
C878 C 0.76406 0.57431 0.78895 0.0
C879 C 0.72423 0.59472 0.75558 0.0
C880 C 0.7014 0.62549 0.74205 0.0
C881 C 0.7193 0.66306 0.73646 0.0
C882 C 0.69746 0.69212 0.72397 0.0
C883 C 0.65775 0.68387 0.71683 0.0
C884 C 0.63984 0.6465 0.72213 0.0
C885 C 0.66154 0.61734 0.73463 0.0
H886 H 0.64088 0.70641 0.70717 0.0
H887 H 0.84407 0.42234 0.83168 0.0
H888 H 0.87343 0.60236 0.18644 0.0
H889 H 0.9193 0.54435 0.18152 0.0
H890 H 0.95961 0.59333 0.11625 0.0
H891 H 0.91361 0.65145 0.12125 0.0
H892 H 0.92723 0.48515 0.14944 0.0
H893 H 0.06353 0.57534 0.11277 0.0
H894 H 0.091 0.64516 0.1132 0.0
H895 H 0.03235 0.66778 0.17823 0.0
H896 H 0.00505 0.59796 0.17834 0.0
H897 H 0.08214 0.3435 0.12073 0.0
H898 H 0.03649 0.40212 0.11637 0.0
H899 H 0.08919 0.45701 0.17712 0.0
H900 H 0.13431 0.3984 0.18156 0.0
H901 H 0.07504 0.51316 0.14324 0.0
H902 H 0.00489 0.40442 0.18192 0.0
H903 H 0.97807 0.33488 0.18646 0.0
H904 H 0.90505 0.35002 0.12559 0.0
H905 H 0.93194 0.4195 0.1205 0.0
C906 C 0.89134 0.60003 0.17079 0.0
C907 C 0.88925 0.63034 0.15383 0.0
C908 C 0.91763 0.56713 0.16804 0.0
C909 C 0.94285 0.56464 0.14854 0.0
C910 C 0.94049 0.59482 0.13145 0.0
C911 C 0.91422 0.62778 0.13425 0.0
C912 C 0.97313 0.53158 0.14684 0.0
C913 C 0.9595 0.49124 0.14784 0.0
C914 C 0.01528 0.53966 0.14515 0.0
C915 C 0.03177 0.58163 0.14537 0.0
C916 C 0.05655 0.59522 0.12716 0.0
C917 C 0.07211 0.63478 0.12732 0.0
C918 C 0.06327 0.66095 0.14568 0.0
C919 C 0.03901 0.64756 0.16396 0.0
C920 C 0.02344 0.60801 0.1639 0.0
C921 C 0.08436 0.36859 0.1328 0.0
C922 C 0.1124 0.36738 0.15102 0.0
C923 C 0.05834 0.40185 0.13036 0.0
C924 C 0.05953 0.4338 0.14644 0.0
C925 C 0.08812 0.43285 0.16441 0.0
C926 C 0.11399 0.39959 0.16685 0.0
C927 C 0.02909 0.46677 0.14574 0.0
C928 C 0.04269 0.50708 0.14433 0.0
C929 C 0.98697 0.45871 0.14764 0.0
C930 C 0.97088 0.41692 0.15063 0.0
C931 C 0.98344 0.39276 0.16936 0.0
C932 C 0.96817 0.35339 0.17207 0.0
C933 C 0.94 0.33798 0.15627 0.0
C934 C 0.92697 0.36195 0.13777 0.0
C935 C 0.94221 0.40133 0.13497 0.0
H936 H 0.92817 0.3075 0.1584 0.0
H937 H 0.07532 0.69157 0.14576 0.0
H938 H 0.91639 0.37642 0.67045 0.0
H939 H 0.97096 0.42369 0.66058 0.0
H940 H 0.89927 0.47018 0.60402 0.0
H941 H 0.8446 0.42218 0.61382 0.0
H942 H 0.01781 0.43998 0.62247 0.0
H943 H 0.91213 0.57588 0.60639 0.0
H944 H 0.84218 0.59815 0.61523 0.0
H945 H 0.84265 0.52592 0.67702 0.0
H946 H 0.91273 0.50376 0.66871 0.0
H947 H 0.15264 0.60665 0.61008 0.0
H948 H 0.09457 0.56312 0.60014 0.0
H949 H 0.03929 0.59128 0.66591 0.0
H950 H 0.09661 0.63547 0.67543 0.0
H951 H 0.98257 0.58533 0.63403 0.0
H952 H 0.10127 0.50731 0.65731 0.0
H953 H 0.17224 0.48355 0.65381 0.0
H954 H 0.14709 0.43738 0.58592 0.0
H955 H 0.07621 0.46137 0.58891 0.0
C956 C 0.913 0.3957 0.65541 0.0
C957 C 0.87715 0.39497 0.64238 0.0
C958 C 0.94401 0.42279 0.64984 0.0
C959 C 0.93911 0.45033 0.63156 0.0
C960 C 0.90358 0.44905 0.61816 0.0
C961 C 0.87254 0.42176 0.62372 0.0
C962 C 0.96952 0.48287 0.62837 0.0
C963 C 0.01009 0.47185 0.62457 0.0
C964 C 0.95936 0.52433 0.63142 0.0
C965 C 0.91737 0.53769 0.63671 0.0
C966 C 0.89727 0.56481 0.62186 0.0
C967 C 0.85763 0.57743 0.62679 0.0
C968 C 0.83791 0.5633 0.64661 0.0
C969 C 0.85787 0.53669 0.66161 0.0
C970 C 0.89753 0.52405 0.65678 0.0
C971 C 0.12744 0.60417 0.62205 0.0
C972 C 0.12823 0.62494 0.64322 0.0
C973 C 0.09448 0.5793 0.61644 0.0
C974 C 0.06279 0.57369 0.63238 0.0
C975 C 0.06322 0.59542 0.65327 0.0
C976 C 0.09584 0.62066 0.65871 0.0
C977 C 0.03112 0.54241 0.62863 0.0
C978 C 0.99023 0.55364 0.6311 0.0
C979 C 0.04113 0.50098 0.62499 0.0
C980 C 0.0837 0.48662 0.62321 0.0
C981 C 0.11104 0.49237 0.64159 0.0
C982 C 0.15118 0.47883 0.63971 0.0
C983 C 0.16417 0.4591 0.61964 0.0
C984 C 0.13702 0.45278 0.60143 0.0
C985 C 0.09688 0.46635 0.6032 0.0
H986 H 0.19524 0.44862 0.61823 0.0
H987 H 0.80722 0.57308 0.65039 0.0
H988 H 0.60183 0.13971 0.39832 0.0
H989 H 0.558 0.07968 0.40173 0.0
H990 H 0.60921 0.03122 0.3389 0.0
H991 H 0.65257 0.09132 0.33535 0.0
H992 H 0.52337 0.05091 0.33877 0.0
H993 H 0.6122 0.94912 0.38411 0.0
H994 H 0.65749 0.93372 0.41705 0.0
H995 H 0.57938 1.00134 0.46241 0.0
H996 H 0.53311 0.01601 0.42983 0.0
H997 H 0.39325 0.88203 0.32463 0.0
H998 H 0.44674 0.93244 0.32659 0.0
H999 H 0.43503 0.93544 0.40106 0.0
H1000 H 0.38838 0.87795 0.39885 0.0
H1001 H 0.5043 0.94007 0.39561 0.0
H1002 H 0.40403 0.02141 0.35208 0.0
H1003 H 0.35783 0.03769 0.31959 0.0
H1004 H 0.45439 0.01784 0.27122 0.0
H1005 H 0.50132 1.00217 0.3032 0.0
C1006 C 0.60478 0.11537 0.38581 0.0
C1007 C 0.63099 0.1195 0.36685 0.0
C1008 C 0.57998 0.08108 0.38782 0.0
C1009 C 0.58071 0.05095 0.37066 0.0
C1010 C 0.60868 0.05394 0.35246 0.0
C1011 C 0.63355 0.0881 0.35051 0.0
C1012 C 0.54702 0.0215 0.36905 0.0
C1013 C 0.519 0.0264 0.35108 0.0
C1014 C 0.54093 0.99065 0.38546 0.0
C1015 C 0.56962 0.98391 0.40464 0.0
C1016 C 0.6049 0.96079 0.40112 0.0
C1017 C 0.6305 0.95193 0.41972 0.0
C1018 C 0.62136 0.96662 0.44179 0.0
C1019 C 0.58646 0.99002 0.44531 0.0
C1020 C 0.56043 0.99841 0.42684 0.0
C1021 C 0.40168 0.89425 0.34136 0.0
C1022 C 0.38512 0.87794 0.36161 0.0
C1023 C 0.43198 0.92377 0.3425 0.0
C1024 C 0.44435 0.93984 0.36392 0.0
C1025 C 0.42638 0.92417 0.38419 0.0
C1026 C 0.39857 0.89215 0.38304 0.0
C1027 C 0.47859 0.96965 0.36548 0.0
C1028 C 0.50734 0.9648 0.38335 0.0
C1029 C 0.48466 1.0014 0.34915 0.0
C1030 C 0.45603 0.01029 0.33002 0.0
C1031 C 0.41529 0.02032 0.3345 0.0
C1032 C 0.38903 0.02948 0.31621 0.0
C1033 C 0.40305 0.02841 0.29344 0.0
C1034 C 0.44351 0.01856 0.28886 0.0
C1035 C 0.47 0.00976 0.30704 0.0
H1036 H 0.38258 0.03538 0.27935 0.0
H1037 H 0.64135 0.95992 0.45613 0.0
H1038 H 0.38407 0.12207 0.82378 0.0
H1039 H 0.44068 0.07448 0.82938 0.0
H1040 H 0.39175 0.04022 0.8957 0.0
H1041 H 0.33404 0.08656 0.88965 0.0
H1042 H 0.49344 0.07147 0.87826 0.0
H1043 H 0.37881 0.97199 0.88134 0.0
H1044 H 0.31565 0.94228 0.86584 0.0
H1045 H 0.37331 0.92419 0.8001 0.0
H1046 H 0.43634 0.9553 0.81499 0.0
H1047 H 0.64273 0.9174 0.89373 0.0
H1048 H 0.5816 0.95952 0.89818 0.0
H1049 H 0.54488 0.92786 0.82878 0.0
H1050 H 0.60439 0.88411 0.82505 0.0
H1051 H 0.48228 0.92803 0.85281 0.0
H1052 H 0.593 0.02151 0.84496 0.0
H1053 H 0.65845 0.05408 0.85434 0.0
H1054 H 0.61304 0.08732 0.92128 0.0
H1055 H 0.54746 0.05444 0.91241 0.0
C1056 C 0.3858 0.10466 0.83964 0.0
C1057 C 0.35567 0.10846 0.85662 0.0
C1058 C 0.41777 0.07738 0.84272 0.0
C1059 C 0.41984 0.05365 0.86279 0.0
C1060 C 0.3901 0.05789 0.87995 0.0
C1061 C 0.35757 0.08448 0.87661 0.0
C1062 C 0.45356 0.02477 0.86566 0.0
C1063 C 0.49107 0.03985 0.87317 0.0
C1064 C 0.45032 0.98402 0.85829 0.0
C1065 C 0.41193 0.96687 0.84913 0.0
C1066 C 0.3777 0.96264 0.86343 0.0
C1067 C 0.34199 0.94532 0.85478 0.0
C1068 C 0.34042 0.93148 0.83197 0.0
C1069 C 0.37456 0.93493 0.81776 0.0
C1070 C 0.41017 0.95266 0.82625 0.0
C1071 C 0.62111 0.91924 0.87966 0.0
C1072 C 0.62727 0.89698 0.85932 0.0
C1073 C 0.58649 0.9435 0.88208 0.0
C1074 C 0.55875 0.94729 0.86372 0.0
C1075 C 0.56552 0.92526 0.84328 0.0
C1076 C 0.59946 0.9003 0.84113 0.0
C1077 C 0.52292 0.97452 0.86539 0.0
C1078 C 0.48492 0.95931 0.8585 0.0
C1079 C 0.52605 0.01555 0.8727 0.0
C1080 C 0.56557 0.03497 0.87816 0.0
C1081 C 0.59712 0.03541 0.86177 0.0
C1082 C 0.63421 0.054 0.86697 0.0
C1083 C 0.63996 0.07261 0.88843 0.0
C1084 C 0.60859 0.07277 0.9047 0.0
C1085 C 0.57146 0.05416 0.8996 0.0
H1086 H 0.66869 0.08702 0.89242 0.0
H1087 H 0.31278 0.91802 0.82532 0.0
loop_
_geom_bond_atom_site_label_1
_geom_bond_atom_site_label_2
_geom_bond_distance
_geom_bond_site_symmetry_2
_ccdc_geom_bond_type
Mn0 O5 2.095 . S
Mn0 O15 2.162 . S
Mn0 O16 2.297 . S
Mn0 O24 2.385 . S
Mn0 O25 2.209 . S
Mn0 O26 2.094 . S
Mn1 O6 2.121 . S
Mn1 N8 2.257 . S
Mn1 N17 2.282 . S
Mn1 O25 2.215 . S
Mn1 O27 2.117 . S
C2 O24 1.234 . S
C2 O25 1.283 . S
C3 O15 1.281 . S
C3 O16 1.236 . S
C4 O26 1.240 . S
C4 O27 1.264 . S
O5 Mn0 2.095 . S
O5 C14 1.250 . S
O6 Mn1 2.121 . S
O6 C14 1.258 . S
C7 N8 1.326 . S
C7 C11 1.460 . S
C7 H13 0.929 . S
N8 Mn1 2.257 . S
N8 C7 1.326 . S
N8 C12 1.362 . S
C9 C10 1.258 . S
C9 C12 1.431 . S
C9 C29 1.449 . S
C10 C9 1.258 . S
C10 C11 1.477 . S
C10 H30 0.931 . S
C11 C7 1.460 . S
C11 C10 1.477 . S
C11 H31 0.930 . S
C12 N8 1.362 . S
C12 C9 1.431 . S
C12 C22 1.476 . S
H13 C7 0.929 . S
C14 O5 1.250 . S
C14 O6 1.258 . S
O15 Mn0 2.162 . S
O15 C3 1.281 . S
O16 Mn0 2.297 . S
O16 C3 1.236 . S
N17 Mn1 2.282 . S
N17 C18 1.328 . S
N17 C22 1.318 . S
C18 N17 1.328 . S
C18 C19 1.457 . S
C18 H23 0.929 . S
C19 C18 1.457 . S
C19 C20 1.291 . S
C19 H32 0.931 . S
C20 C19 1.291 . S
C20 C21 1.373 . S
C20 H33 0.929 . S
C21 C20 1.373 . S
C21 C22 1.396 . S
C21 C28 1.403 . S
C22 C12 1.476 . S
C22 N17 1.318 . S
C22 C21 1.396 . S
H23 C18 0.929 . S
O24 Mn0 2.385 . S
O24 C2 1.234 . S
O25 Mn0 2.209 . S
O25 Mn1 2.215 . S
O25 C2 1.283 . S
O26 Mn0 2.094 . S
O26 C4 1.240 . S
O27 Mn1 2.117 . S
O27 C4 1.264 . S
C28 C21 1.403 . S
C28 C29 1.399 . S
C28 H34 0.929 . S
C29 C9 1.449 . S
C29 C28 1.399 . S
C29 H35 0.930 . S
H30 C10 0.931 . S
H31 C11 0.930 . S
H32 C19 0.931 . S
H33 C20 0.929 . S
H34 C28 0.929 . S
H35 C29 0.930 . S
Mn36 O41 2.095 . S
Mn36 O51 2.162 . S
Mn36 O52 2.297 . S
Mn36 O60 2.385 . S
Mn36 O61 2.209 . S
Mn36 O62 2.094 . S
Mn37 O42 2.121 . S
Mn37 N44 2.257 . S
Mn37 N53 2.282 . S
Mn37 O61 2.215 . S
Mn37 O63 2.117 . S
C38 O60 1.234 . S
C38 O61 1.283 . S
C39 O51 1.281 . S
C39 O52 1.236 . S
C40 O62 1.240 . S
C40 O63 1.264 . S
O41 Mn36 2.095 . S
O41 C50 1.250 . S
O42 Mn37 2.121 . S
O42 C50 1.258 . S
C43 N44 1.326 . S
C43 C47 1.460 . S
C43 H49 0.929 . S
N44 Mn37 2.257 . S
N44 C43 1.326 . S
N44 C48 1.362 . S
C45 C46 1.258 . S
C45 C48 1.431 . S
C45 C65 1.449 . S
C46 C45 1.258 . S
C46 C47 1.477 . S
C46 H66 0.935 . S
C47 C43 1.460 . S
C47 C46 1.477 . S
C47 H67 0.930 . S
C48 N44 1.362 . S
C48 C45 1.431 . S
C48 C58 1.476 . S
H49 C43 0.929 . S
C50 O41 1.250 . S
C50 O42 1.258 . S
O51 Mn36 2.162 . S
O51 C39 1.281 . S
O52 Mn36 2.297 . S
O52 C39 1.236 . S
N53 Mn37 2.282 . S
N53 C54 1.328 . S
N53 C58 1.318 . S
C54 N53 1.328 . S
C54 C55 1.457 . S
C54 H59 0.929 . S
C55 C54 1.457 . S
C55 C56 1.291 . S
C55 H68 0.931 . S
C56 C55 1.291 . S
C56 C57 1.373 . S
C56 H69 0.929 . S
C57 C56 1.373 . S
C57 C58 1.396 . S
C57 C64 1.403 . S
C58 C48 1.476 . S
C58 N53 1.318 . S
C58 C57 1.396 . S
H59 C54 0.929 . S
O60 Mn36 2.385 . S
O60 C38 1.234 . S
O61 Mn36 2.209 . S
O61 Mn37 2.215 . S
O61 C38 1.283 . S
O62 Mn36 2.094 . S
O62 C40 1.240 . S
O63 Mn37 2.117 . S
O63 C40 1.264 . S
C64 C57 1.403 . S
C64 C65 1.399 . S
C64 H70 0.929 1_455 S
C65 C45 1.449 . S
C65 C64 1.399 . S
C65 H71 0.930 1_455 S
H66 C46 0.935 . S
H67 C47 0.930 . S
H68 C55 0.931 . S
H69 C56 0.929 . S
H70 C64 0.929 1_655 S
H71 C65 0.930 1_655 S
Mn72 O77 2.095 . S
Mn72 O87 2.162 . S
Mn72 O88 2.297 . S
Mn72 O96 2.385 . S
Mn72 O97 2.209 . S
Mn72 O98 2.094 . S
Mn73 O78 2.121 . S
Mn73 N80 2.257 . S
Mn73 N89 2.282 . S
Mn73 O97 2.215 . S
Mn73 O99 2.117 . S
C74 O96 1.234 . S
C74 O97 1.283 . S
C75 O87 1.281 . S
C75 O88 1.236 . S
C76 O98 1.240 . S
C76 O99 1.264 . S
O77 Mn72 2.095 . S
O77 C86 1.250 . S
O78 Mn73 2.121 . S
O78 C86 1.258 . S
C79 N80 1.326 . S
C79 C83 1.460 . S
C79 H85 0.929 . S
N80 Mn73 2.257 . S
N80 C79 1.326 . S
N80 C84 1.362 . S
C81 C82 1.258 . S
C81 C84 1.431 . S
C81 C101 1.449 . S
C82 C81 1.258 . S
C82 C83 1.477 . S
C82 H102 0.931 . S
C83 C79 1.460 . S
C83 C82 1.477 . S
C83 H103 0.930 . S
C84 N80 1.362 . S
C84 C81 1.431 . S
C84 C94 1.476 . S
H85 C79 0.929 . S
C86 O77 1.250 . S
C86 O78 1.258 . S
O87 Mn72 2.162 . S
O87 C75 1.281 . S
O88 Mn72 2.297 . S
O88 C75 1.236 . S
N89 Mn73 2.282 . S
N89 C90 1.328 . S
N89 C94 1.318 . S
C90 N89 1.328 . S
C90 C91 1.457 . S
C90 H95 0.929 . S
C91 C90 1.457 . S
C91 C92 1.291 . S
C91 H104 0.931 . S
C92 C91 1.291 . S
C92 C93 1.373 . S
C92 H105 0.929 . S
C93 C92 1.373 . S
C93 C94 1.396 . S
C93 C100 1.403 . S
C94 C84 1.476 . S
C94 N89 1.318 . S
C94 C93 1.396 . S
H95 C90 0.929 . S
O96 Mn72 2.385 . S
O96 C74 1.234 . S
O97 Mn72 2.209 . S
O97 Mn73 2.215 . S
O97 C74 1.283 . S
O98 Mn72 2.094 . S
O98 C76 1.240 . S
O99 Mn73 2.117 . S
O99 C76 1.264 . S
C100 C93 1.403 . S
C100 C101 1.399 . S
C100 H106 0.929 . S
C101 C81 1.449 . S
C101 C100 1.399 . S
C101 H107 0.930 . S
H102 C82 0.931 . S
H103 C83 0.930 . S
H104 C91 0.931 . S
H105 C92 0.929 . S
H106 C100 0.929 . S
H107 C101 0.930 . S
Mn108 O113 2.095 . S
Mn108 O123 2.162 . S
Mn108 O124 2.297 . S
Mn108 O132 2.385 . S
Mn108 O133 2.209 . S
Mn108 O134 2.094 . S
Mn109 O114 2.121 . S
Mn109 N116 2.257 . S
Mn109 N125 2.282 . S
Mn109 O133 2.215 . S
Mn109 O135 2.117 . S
C110 O132 1.234 . S
C110 O133 1.283 . S
C111 O123 1.281 . S
C111 O124 1.236 . S
C112 O134 1.240 . S
C112 O135 1.264 . S
O113 Mn108 2.095 . S
O113 C122 1.250 . S
O114 Mn109 2.121 . S
O114 C122 1.258 . S
C115 N116 1.326 . S
C115 C119 1.460 . S
C115 H121 0.929 . S
N116 Mn109 2.257 . S
N116 C115 1.326 . S
N116 C120 1.362 . S
C117 C118 1.258 . S
C117 C120 1.431 . S
C117 C137 1.449 . S
C118 C117 1.258 . S
C118 C119 1.477 . S
C118 H138 0.935 . S
C119 C115 1.460 . S
C119 C118 1.477 . S
C119 H139 0.930 . S
C120 N116 1.362 . S
C120 C117 1.431 . S
C120 C130 1.476 . S
H121 C115 0.929 . S
C122 O113 1.250 . S
C122 O114 1.258 . S
O123 Mn108 2.162 . S
O123 C111 1.281 . S
O124 Mn108 2.297 . S
O124 C111 1.236 . S
N125 Mn109 2.282 . S
N125 C126 1.328 . S
N125 C130 1.318 . S
C126 N125 1.328 . S
C126 C127 1.457 . S
C126 H131 0.929 . S
C127 C126 1.457 . S
C127 C128 1.291 . S
C127 H140 0.931 . S
C128 C127 1.291 . S
C128 C129 1.373 . S
C128 H141 0.929 . S
C129 C128 1.373 . S
C129 C130 1.396 . S
C129 C136 1.403 . S
C130 C120 1.476 . S
C130 N125 1.318 . S
C130 C129 1.396 . S
H131 C126 0.929 . S
O132 Mn108 2.385 . S
O132 C110 1.234 . S
O133 Mn108 2.209 . S
O133 Mn109 2.215 . S
O133 C110 1.283 . S
O134 Mn108 2.094 . S
O134 C112 1.240 . S
O135 Mn109 2.117 . S
O135 C112 1.264 . S
C136 C129 1.403 . S
C136 C137 1.399 . S
C136 H142 0.929 1_655 S
C137 C117 1.449 . S
C137 C136 1.399 . S
C137 H143 0.930 1_655 S
H138 C118 0.935 . S
H139 C119 0.930 . S
H140 C127 0.931 . S
H141 C128 0.929 . S
H142 C136 0.929 1_455 S
H143 C137 0.930 1_455 S
Mn144 O149 2.095 . S
Mn144 O159 2.162 . S
Mn144 O160 2.297 . S
Mn144 O168 2.385 . S
Mn144 O169 2.209 . S
Mn144 O170 2.094 . S
Mn145 O150 2.121 . S
Mn145 N152 2.257 . S
Mn145 N161 2.282 . S
Mn145 O169 2.215 . S
Mn145 O171 2.117 . S
C146 O168 1.234 . S
C146 O169 1.283 . S
C147 O159 1.281 . S
C147 O160 1.236 . S
C148 O170 1.240 . S
C148 O171 1.264 . S
O149 Mn144 2.095 . S
O149 C158 1.250 . S
O150 Mn145 2.121 . S
O150 C158 1.258 . S
C151 N152 1.326 . S
C151 C155 1.460 . S
C151 H157 0.929 . S
N152 Mn145 2.257 . S
N152 C151 1.326 . S
N152 C156 1.362 . S
C153 C154 1.258 . S
C153 C156 1.431 . S
C153 C173 1.449 . S
C154 C153 1.258 . S
C154 C155 1.477 . S
C154 H174 0.935 . S
C155 C151 1.460 . S
C155 C154 1.477 . S
C155 H175 0.930 . S
C156 N152 1.362 . S
C156 C153 1.431 . S
C156 C166 1.476 . S
H157 C151 0.929 . S
C158 O149 1.250 . S
C158 O150 1.258 . S
O159 Mn144 2.162 . S
O159 C147 1.281 . S
O160 Mn144 2.297 . S
O160 C147 1.236 . S
N161 Mn145 2.282 . S
N161 C162 1.328 . S
N161 C166 1.318 . S
C162 N161 1.328 . S
C162 C163 1.457 . S
C162 H167 0.929 . S
C163 C162 1.457 . S
C163 C164 1.291 . S
C163 H176 0.931 . S
C164 C163 1.291 . S
C164 C165 1.373 . S
C164 H177 0.929 . S
C165 C164 1.373 . S
C165 C166 1.396 . S
C165 C172 1.403 . S
C166 C156 1.476 . S
C166 N161 1.318 . S
C166 C165 1.396 . S
H167 C162 0.929 . S
O168 Mn144 2.385 . S
O168 C146 1.234 . S
O169 Mn144 2.209 . S
O169 Mn145 2.215 . S
O169 C146 1.283 . S
O170 Mn144 2.094 . S
O170 C148 1.240 . S
O171 Mn145 2.117 . S
O171 C148 1.264 . S
C172 C165 1.403 . S
C172 C173 1.399 . S
C172 H178 0.929 1_545 S
C173 C153 1.449 . S
C173 C172 1.399 . S
C173 H179 0.930 1_545 S
H174 C154 0.935 . S
H175 C155 0.930 . S
H176 C163 0.931 . S
H177 C164 0.929 . S
H178 C172 0.929 1_565 S
H179 C173 0.930 1_565 S
Mn180 O185 2.095 . S
Mn180 O195 2.162 . S
Mn180 O196 2.297 . S
Mn180 O204 2.385 . S
Mn180 O205 2.209 . S
Mn180 O206 2.094 . S
Mn181 O186 2.121 . S
Mn181 N188 2.257 . S
Mn181 N197 2.282 . S
Mn181 O205 2.215 . S
Mn181 O207 2.117 . S
C182 O204 1.234 . S
C182 O205 1.283 . S
C183 O195 1.281 . S
C183 O196 1.236 . S
C184 O206 1.240 . S
C184 O207 1.264 . S
O185 Mn180 2.095 . S
O185 C194 1.250 . S
O186 Mn181 2.121 . S
O186 C194 1.258 . S
C187 N188 1.326 . S
C187 C191 1.460 . S
C187 H193 0.929 . S
N188 Mn181 2.257 . S
N188 C187 1.326 . S
N188 C192 1.362 . S
C189 C190 1.258 . S
C189 C192 1.431 . S
C189 C209 1.449 . S
C190 C189 1.258 . S
C190 C191 1.477 . S
C190 H210 0.931 . S
C191 C187 1.460 . S
C191 C190 1.477 . S
C191 H211 0.930 . S
C192 N188 1.362 . S
C192 C189 1.431 . S
C192 C202 1.476 . S
H193 C187 0.929 . S
C194 O185 1.250 . S
C194 O186 1.258 . S
O195 Mn180 2.162 . S
O195 C183 1.281 . S
O196 Mn180 2.297 . S
O196 C183 1.236 . S
N197 Mn181 2.282 . S
N197 C198 1.328 . S
N197 C202 1.318 . S
C198 N197 1.328 . S
C198 C199 1.457 . S
C198 H203 0.929 . S
C199 C198 1.457 . S
C199 C200 1.291 . S
C199 H212 0.931 . S
C200 C199 1.291 . S
C200 C201 1.373 . S
C200 H213 0.929 . S
C201 C200 1.373 . S
C201 C202 1.396 . S
C201 C208 1.403 . S
C202 C192 1.476 . S
C202 N197 1.318 . S
C202 C201 1.396 . S
H203 C198 0.929 . S
O204 Mn180 2.385 . S
O204 C182 1.234 . S
O205 Mn180 2.209 . S
O205 Mn181 2.215 . S
O205 C182 1.283 . S
O206 Mn180 2.094 . S
O206 C184 1.240 . S
O207 Mn181 2.117 . S
O207 C184 1.264 . S
C208 C201 1.403 . S
C208 C209 1.399 . S
C208 H214 0.929 . S
C209 C189 1.449 . S
C209 C208 1.399 . S
C209 H215 0.930 . S
H210 C190 0.931 . S
H211 C191 0.930 . S
H212 C199 0.931 . S
H213 C200 0.929 . S
H214 C208 0.929 . S
H215 C209 0.930 . S
Mn216 O221 2.095 . S
Mn216 O231 2.162 . S
Mn216 O232 2.297 . S
Mn216 O240 2.385 . S
Mn216 O241 2.209 . S
Mn216 O242 2.094 . S
Mn217 O222 2.121 . S
Mn217 N224 2.257 . S
Mn217 N233 2.282 . S
Mn217 O241 2.215 . S
Mn217 O243 2.117 . S
C218 O240 1.234 . S
C218 O241 1.283 . S
C219 O231 1.281 . S
C219 O232 1.236 . S
C220 O242 1.240 . S
C220 O243 1.264 . S
O221 Mn216 2.095 . S
O221 C230 1.250 . S
O222 Mn217 2.121 . S
O222 C230 1.258 . S
C223 N224 1.326 . S
C223 C227 1.460 . S
C223 H229 0.929 . S
N224 Mn217 2.257 . S
N224 C223 1.326 . S
N224 C228 1.362 . S
C225 C226 1.258 . S
C225 C228 1.431 . S
C225 C245 1.449 . S
C226 C225 1.258 . S
C226 C227 1.477 . S
C226 H246 0.935 . S
C227 C223 1.460 . S
C227 C226 1.477 . S
C227 H247 0.930 . S
C228 N224 1.362 . S
C228 C225 1.431 . S
C228 C238 1.476 . S
H229 C223 0.929 . S
C230 O221 1.250 . S
C230 O222 1.258 . S
O231 Mn216 2.162 . S
O231 C219 1.281 . S
O232 Mn216 2.297 . S
O232 C219 1.236 . S
N233 Mn217 2.282 . S
N233 C234 1.328 . S
N233 C238 1.318 . S
C234 N233 1.328 . S
C234 C235 1.457 . S
C234 H239 0.929 . S
C235 C234 1.457 . S
C235 C236 1.291 . S
C235 H248 0.931 . S
C236 C235 1.291 . S
C236 C237 1.373 . S
C236 H249 0.929 . S
C237 C236 1.373 . S
C237 C238 1.396 . S
C237 C244 1.403 . S
C238 C228 1.476 . S
C238 N233 1.318 . S
C238 C237 1.396 . S
H239 C234 0.929 . S
O240 Mn216 2.385 . S
O240 C218 1.234 . S
O241 Mn216 2.209 . S
O241 Mn217 2.215 . S
O241 C218 1.283 . S
O242 Mn216 2.094 . S
O242 C220 1.240 . S
O243 Mn217 2.117 . S
O243 C220 1.264 . S
C244 C237 1.403 . S
C244 C245 1.399 . S
C244 H250 0.929 1_565 S
C245 C225 1.449 . S
C245 C244 1.399 . S
C245 H251 0.930 1_565 S
H246 C226 0.935 . S
H247 C227 0.930 . S
H248 C235 0.931 . S
H249 C236 0.929 . S
H250 C244 0.929 1_545 S
H251 C245 0.930 1_545 S
Mn252 O257 2.095 . S
Mn252 O267 2.162 . S
Mn252 O268 2.297 . S
Mn252 O276 2.385 . S
Mn252 O277 2.209 . S
Mn252 O278 2.094 . S
Mn253 O258 2.121 . S
Mn253 N260 2.257 . S
Mn253 N269 2.282 . S
Mn253 O277 2.215 . S
Mn253 O279 2.117 . S
C254 O276 1.234 . S
C254 O277 1.283 . S
C255 O267 1.281 . S
C255 O268 1.236 . S
C256 O278 1.240 . S
C256 O279 1.264 . S
O257 Mn252 2.095 . S
O257 C266 1.250 . S
O258 Mn253 2.121 . S
O258 C266 1.258 . S
C259 N260 1.326 . S
C259 C263 1.460 . S
C259 H265 0.929 . S
N260 Mn253 2.257 . S
N260 C259 1.326 . S
N260 C264 1.362 . S
C261 C262 1.258 . S
C261 C264 1.431 . S
C261 C281 1.449 . S
C262 C261 1.258 . S
C262 C263 1.477 . S
C262 H282 0.931 . S
C263 C259 1.460 . S
C263 C262 1.477 . S
C263 H283 0.930 . S
C264 N260 1.362 . S
C264 C261 1.431 . S
C264 C274 1.476 . S
H265 C259 0.929 . S
C266 O257 1.250 . S
C266 O258 1.258 . S
O267 Mn252 2.162 . S
O267 C255 1.281 . S
O268 Mn252 2.297 . S
O268 C255 1.236 . S
N269 Mn253 2.282 . S
N269 C270 1.328 . S
N269 C274 1.318 . S
C270 N269 1.328 . S
C270 C271 1.457 . S
C270 H275 0.929 . S
C271 C270 1.457 . S
C271 C272 1.291 . S
C271 H284 0.931 . S
C272 C271 1.291 . S
C272 C273 1.373 . S
C272 H285 0.929 . S
C273 C272 1.373 . S
C273 C274 1.396 . S
C273 C280 1.403 . S
C274 C264 1.476 . S
C274 N269 1.318 . S
C274 C273 1.396 . S
H275 C270 0.929 . S
O276 Mn252 2.385 . S
O276 C254 1.234 . S
O277 Mn252 2.209 . S
O277 Mn253 2.215 . S
O277 C254 1.283 . S
O278 Mn252 2.094 . S
O278 C256 1.240 . S
O279 Mn253 2.117 . S
O279 C256 1.264 . S
C280 C273 1.403 . S
C280 C281 1.399 . S
C280 H286 0.929 . S
C281 C261 1.449 . S
C281 C280 1.399 . S
C281 H287 0.930 . S
H282 C262 0.931 . S
H283 C263 0.930 . S
H284 C271 0.931 . S
H285 C272 0.929 . S
H286 C280 0.929 . S
H287 C281 0.930 . S
H288 C306 0.951 . S
H289 C308 0.951 . S
H290 C310 0.950 . S
H291 C311 0.950 . S
H292 C313 0.950 . S
H293 C316 0.950 . S
H294 C317 0.950 . S
H295 C319 0.950 . S
H296 C320 0.950 1_556 S
H297 C321 0.951 . S
H298 C323 0.951 . S
H299 C325 0.950 . S
H300 C326 0.950 . S
H301 C328 0.950 . S
H302 C331 0.950 . S
H303 C332 0.950 . S
H304 C334 0.950 . S
H305 C335 0.950 1_554 S
C306 H288 0.951 . S
C306 C307 1.366 . S
C306 C308 1.388 . S
C307 C306 1.366 . S
C307 C311 1.385 . S
C308 H289 0.951 . S
C308 C306 1.388 . S
C308 C309 1.366 . S
C309 C308 1.366 . S
C309 C310 1.414 . S
C309 C312 1.499 . S
C310 H290 0.950 . S
C310 C309 1.414 . S
C310 C311 1.374 . S
C311 H291 0.950 . S
C311 C307 1.385 . S
C311 C310 1.374 . S
C312 C309 1.499 . S
C312 C313 1.373 . S
C312 C314 1.389 . S
C313 H292 0.950 . S
C313 C312 1.373 . S
C313 C329 1.377 1_554 S
C314 C312 1.389 . S
C314 C315 1.524 . S
C314 C328 1.377 1_554 S
C315 C314 1.524 . S
C315 C316 1.397 . S
C315 C320 1.363 . S
C316 H293 0.950 . S
C316 C315 1.397 . S
C316 C317 1.334 . S
C317 H294 0.950 . S
C317 C316 1.334 . S
C317 C318 1.287 . S
C318 C317 1.287 . S
C318 C319 1.524 . S
C318 H337 0.913 . S
C319 H295 0.950 . S
C319 C318 1.524 . S
C319 C320 1.415 . S
C320 H296 0.950 1_554 S
C320 C315 1.363 . S
C320 C319 1.415 . S
C321 H297 0.951 . S
C321 C322 1.366 . S
C321 C323 1.388 . S
C322 C321 1.366 . S
C322 C326 1.385 . S
C323 H298 0.951 . S
C323 C321 1.388 . S
C323 C324 1.366 . S
C324 C323 1.366 . S
C324 C325 1.414 . S
C324 C327 1.499 . S
C325 H299 0.950 . S
C325 C324 1.414 . S
C325 C326 1.374 . S
C326 H300 0.950 . S
C326 C322 1.385 . S
C326 C325 1.374 . S
C327 C324 1.499 . S
C327 C328 1.373 . S
C327 C329 1.389 . S
C328 H301 0.950 . S
C328 C314 1.377 1_556 S
C328 C327 1.373 . S
C329 C313 1.377 1_556 S
C329 C327 1.389 . S
C329 C330 1.524 . S
C330 C329 1.524 . S
C330 C331 1.397 . S
C330 C335 1.363 . S
C331 H302 0.950 . S
C331 C330 1.397 . S
C331 C332 1.334 . S
C332 H303 0.950 . S
C332 C331 1.334 . S
C332 C333 1.287 . S
C333 C332 1.287 . S
C333 C334 1.524 . S
C333 H336 0.999 . S
C334 H304 0.950 . S
C334 C333 1.524 . S
C334 C335 1.415 . S
C335 H305 0.950 1_556 S
C335 C330 1.363 . S
C335 C334 1.415 . S
H336 C333 0.999 . S
H337 C318 0.913 . S
H338 C356 0.951 . S
H339 C358 0.951 . S
H340 C360 0.950 . S
H341 C361 0.950 . S
H342 C363 0.950 . S
H343 C366 0.950 . S
H344 C367 0.950 . S
H345 C369 0.950 . S
H346 C370 0.950 . S
H347 C371 0.951 . S
H348 C373 0.951 . S
H349 C375 0.950 . S
H350 C376 0.950 . S
H351 C378 0.950 . S
H352 C381 0.950 . S
H353 C382 0.950 . S
H354 C384 0.950 . S
H355 C385 0.950 . S
C356 H338 0.951 . S
C356 C357 1.366 . S
C356 C358 1.388 . S
C357 C356 1.366 . S
C357 C361 1.385 . S
C358 H339 0.951 . S
C358 C356 1.388 . S
C358 C359 1.366 . S
C359 C358 1.366 . S
C359 C360 1.414 . S
C359 C362 1.499 . S
C360 H340 0.950 . S
C360 C359 1.414 . S
C360 C361 1.374 . S
C361 H341 0.950 . S
C361 C357 1.385 . S
C361 C360 1.374 . S
C362 C359 1.499 . S
C362 C363 1.373 . S
C362 C364 1.389 . S
C363 H342 0.950 . S
C363 C362 1.373 . S
C363 C379 1.377 . S
C364 C362 1.389 . S
C364 C365 1.524 . S
C364 C378 1.377 . S
C365 C364 1.524 . S
C365 C366 1.397 . S
C365 C370 1.363 . S
C366 H343 0.950 . S
C366 C365 1.397 . S
C366 C367 1.334 . S
C367 H344 0.950 . S
C367 C366 1.334 . S
C367 C368 1.287 . S
C368 C367 1.287 . S
C368 C369 1.524 . S
C368 H387 0.913 . S
C369 H345 0.950 . S
C369 C368 1.524 . S
C369 C370 1.415 . S
C370 H346 0.950 . S
C370 C365 1.363 . S
C370 C369 1.415 . S
C371 H347 0.951 . S
C371 C372 1.366 . S
C371 C373 1.388 . S
C372 C371 1.366 . S
C372 C376 1.385 . S
C373 H348 0.951 . S
C373 C371 1.388 . S
C373 C374 1.366 . S
C374 C373 1.366 . S
C374 C375 1.414 . S
C374 C377 1.499 . S
C375 H349 0.950 . S
C375 C374 1.414 . S
C375 C376 1.374 . S
C376 H350 0.950 . S
C376 C372 1.385 . S
C376 C375 1.374 . S
C377 C374 1.499 . S
C377 C378 1.373 . S
C377 C379 1.389 . S
C378 H351 0.950 . S
C378 C364 1.377 . S
C378 C377 1.373 . S
C379 C363 1.377 . S
C379 C377 1.389 . S
C379 C380 1.524 . S
C380 C379 1.524 . S
C380 C381 1.397 . S
C380 C385 1.363 . S
C381 H352 0.950 . S
C381 C380 1.397 . S
C381 C382 1.334 . S
C382 H353 0.950 . S
C382 C381 1.334 . S
C382 C383 1.287 . S
C383 C382 1.287 . S
C383 C384 1.524 . S
C383 H386 0.999 . S
C384 H354 0.950 . S
C384 C383 1.524 . S
C384 C385 1.415 . S
C385 H355 0.950 . S
C385 C380 1.363 . S
C385 C384 1.415 . S
H386 C383 0.999 . S
H387 C368 0.913 . S
H388 C406 0.951 . S
H389 C408 0.951 . S
H390 C410 0.950 . S
H391 C411 0.950 . S
H392 C413 0.950 . S
H393 C416 0.950 . S
H394 C417 0.950 . S
H395 C419 0.950 . S
H396 C420 0.950 . S
H397 C421 0.951 . S
H398 C423 0.951 . S
H399 C425 0.950 . S
H400 C426 0.950 . S
H401 C428 0.950 . S
H402 C431 0.950 . S
H403 C432 0.950 . S
H404 C434 0.950 . S
H405 C435 0.950 . S
C406 H388 0.951 . S
C406 C407 1.366 . S
C406 C408 1.388 . S
C407 C406 1.366 . S
C407 C411 1.385 . S
C408 H389 0.951 . S
C408 C406 1.388 . S
C408 C409 1.366 . S
C409 C408 1.366 . S
C409 C410 1.414 . S
C409 C412 1.499 . S
C410 H390 0.950 . S
C410 C409 1.414 . S
C410 C411 1.374 . S
C411 H391 0.950 . S
C411 C407 1.385 . S
C411 C410 1.374 . S
C412 C409 1.499 . S
C412 C413 1.373 . S
C412 C414 1.389 . S
C413 H392 0.950 . S
C413 C412 1.373 . S
C413 C429 1.377 1_554 S
C414 C412 1.389 . S
C414 C415 1.524 . S
C414 C428 1.377 1_554 S
C415 C414 1.524 . S
C415 C416 1.397 . S
C415 C420 1.363 . S
C416 H393 0.950 . S
C416 C415 1.397 . S
C416 C417 1.334 . S
C417 H394 0.950 . S
C417 C416 1.334 . S
C417 C418 1.287 . S
C418 C417 1.287 . S
C418 C419 1.524 . S
C418 H437 0.913 . S
C419 H395 0.950 . S
C419 C418 1.524 . S
C419 C420 1.415 . S
C420 H396 0.950 . S
C420 C415 1.363 . S
C420 C419 1.415 . S
C421 H397 0.951 . S
C421 C422 1.366 . S
C421 C423 1.388 . S
C422 C421 1.366 . S
C422 C426 1.385 . S
C423 H398 0.951 . S
C423 C421 1.388 . S
C423 C424 1.366 . S
C424 C423 1.366 . S
C424 C425 1.414 . S
C424 C427 1.499 . S
C425 H399 0.950 . S
C425 C424 1.414 . S
C425 C426 1.374 . S
C426 H400 0.950 . S
C426 C422 1.385 . S
C426 C425 1.374 . S
C427 C424 1.499 . S
C427 C428 1.373 . S
C427 C429 1.389 . S
C428 H401 0.950 . S
C428 C414 1.377 1_556 S
C428 C427 1.373 . S
C429 C413 1.377 1_556 S
C429 C427 1.389 . S
C429 C430 1.524 . S
C430 C429 1.524 . S
C430 C431 1.397 . S
C430 C435 1.363 . S
C431 H402 0.950 . S
C431 C430 1.397 . S
C431 C432 1.334 . S
C432 H403 0.950 . S
C432 C431 1.334 . S
C432 C433 1.287 . S
C433 C432 1.287 . S
C433 C434 1.524 . S
C433 H436 0.999 . S
C434 H404 0.950 . S
C434 C433 1.524 . S
C434 C435 1.415 . S
C435 H405 0.950 . S
C435 C430 1.363 . S
C435 C434 1.415 . S
H436 C433 0.999 . S
H437 C418 0.913 . S
H438 C456 0.951 . S
H439 C458 0.951 . S
H440 C460 0.950 . S
H441 C461 0.950 . S
H442 C463 0.950 . S
H443 C466 0.950 . S
H444 C467 0.950 . S
H445 C469 0.950 . S
H446 C470 0.950 . S
H447 C471 0.951 . S
H448 C473 0.951 . S
H449 C475 0.950 . S
H450 C476 0.950 . S
H451 C478 0.950 . S
H452 C481 0.950 . S
H453 C482 0.950 . S
H454 C484 0.950 . S
H455 C485 0.950 . S
C456 H438 0.951 . S
C456 C457 1.366 . S
C456 C458 1.388 . S
C457 C456 1.366 . S
C457 C461 1.385 . S
C458 H439 0.951 . S
C458 C456 1.388 . S
C458 C459 1.366 . S
C459 C458 1.366 . S
C459 C460 1.414 . S
C459 C462 1.499 . S
C460 H440 0.950 . S
C460 C459 1.414 . S
C460 C461 1.374 . S
C461 H441 0.950 . S
C461 C457 1.385 . S
C461 C460 1.374 . S
C462 C459 1.499 . S
C462 C463 1.373 . S
C462 C464 1.389 . S
C463 H442 0.950 . S
C463 C462 1.373 . S
C463 C479 1.377 . S
C464 C462 1.389 . S
C464 C465 1.524 . S
C464 C478 1.377 . S
C465 C464 1.524 . S
C465 C466 1.397 . S
C465 C470 1.363 . S
C466 H443 0.950 . S
C466 C465 1.397 . S
C466 C467 1.334 . S
C467 H444 0.950 . S
C467 C466 1.334 . S
C467 C468 1.287 . S
C468 C467 1.287 . S
C468 C469 1.524 . S
C468 H487 0.913 . S
C469 H445 0.950 . S
C469 C468 1.524 . S
C469 C470 1.415 . S
C470 H446 0.950 . S
C470 C465 1.363 . S
C470 C469 1.415 . S
C471 H447 0.951 . S
C471 C472 1.366 . S
C471 C473 1.388 . S
C472 C471 1.366 . S
C472 C476 1.385 . S
C473 H448 0.951 . S
C473 C471 1.388 . S
C473 C474 1.366 . S
C474 C473 1.366 . S
C474 C475 1.414 . S
C474 C477 1.499 . S
C475 H449 0.950 . S
C475 C474 1.414 . S
C475 C476 1.374 . S
C476 H450 0.950 . S
C476 C472 1.385 . S
C476 C475 1.374 . S
C477 C474 1.499 . S
C477 C478 1.373 . S
C477 C479 1.389 . S
C478 H451 0.950 . S
C478 C464 1.377 . S
C478 C477 1.373 . S
C479 C463 1.377 . S
C479 C477 1.389 . S
C479 C480 1.524 . S
C480 C479 1.524 . S
C480 C481 1.397 . S
C480 C485 1.363 . S
C481 H452 0.950 . S
C481 C480 1.397 . S
C481 C482 1.334 . S
C482 H453 0.950 . S
C482 C481 1.334 . S
C482 C483 1.287 . S
C483 C482 1.287 . S
C483 C484 1.524 . S
C483 H486 0.999 . S
C484 H454 0.950 . S
C484 C483 1.524 . S
C484 C485 1.415 . S
C485 H455 0.950 . S
C485 C480 1.363 . S
C485 C484 1.415 . S
H486 C483 0.999 . S
H487 C468 0.913 . S
H488 C506 0.951 . S
H489 C508 0.951 . S
H490 C510 0.950 . S
H491 C511 0.950 . S
H492 C513 0.950 . S
H493 C516 0.950 . S
H494 C517 0.950 . S
H495 C519 0.950 . S
H496 C520 0.950 . S
H497 C521 0.951 . S
H498 C523 0.951 . S
H499 C525 0.950 . S
H500 C526 0.950 . S
H501 C528 0.950 . S
H502 C531 0.950 . S
H503 C532 0.950 . S
H504 C534 0.950 . S
H505 C535 0.950 . S
C506 H488 0.951 . S
C506 C507 1.366 . S
C506 C508 1.388 . S
C507 C506 1.366 . S
C507 C511 1.385 . S
C508 H489 0.951 . S
C508 C506 1.388 . S
C508 C509 1.366 . S
C509 C508 1.366 . S
C509 C510 1.414 . S
C509 C512 1.499 . S
C510 H490 0.950 . S
C510 C509 1.414 . S
C510 C511 1.374 . S
C511 H491 0.950 . S
C511 C507 1.385 . S
C511 C510 1.374 . S
C512 C509 1.499 . S
C512 C513 1.373 . S
C512 C514 1.389 . S
C513 H492 0.950 . S
C513 C512 1.373 . S
C513 C529 1.377 . S
C514 C512 1.389 . S
C514 C515 1.524 . S
C514 C528 1.377 . S
C515 C514 1.524 . S
C515 C516 1.397 . S
C515 C520 1.363 . S
C516 H493 0.950 . S
C516 C515 1.397 . S
C516 C517 1.334 . S
C517 H494 0.950 . S
C517 C516 1.334 . S
C517 C518 1.287 . S
C518 C517 1.287 . S
C518 C519 1.524 . S
C518 H537 0.913 . S
C519 H495 0.950 . S
C519 C518 1.524 . S
C519 C520 1.415 . S
C520 H496 0.950 . S
C520 C515 1.363 . S
C520 C519 1.415 . S
C521 H497 0.951 . S
C521 C522 1.366 . S
C521 C523 1.388 . S
C522 C521 1.366 . S
C522 C526 1.385 . S
C523 H498 0.951 . S
C523 C521 1.388 . S
C523 C524 1.366 . S
C524 C523 1.366 . S
C524 C525 1.414 . S
C524 C527 1.499 . S
C525 H499 0.950 . S
C525 C524 1.414 . S
C525 C526 1.374 . S
C526 H500 0.950 . S
C526 C522 1.385 . S
C526 C525 1.374 . S
C527 C524 1.499 . S
C527 C528 1.373 . S
C527 C529 1.389 . S
C528 H501 0.950 . S
C528 C514 1.377 . S
C528 C527 1.373 . S
C529 C513 1.377 . S
C529 C527 1.389 . S
C529 C530 1.524 . S
C530 C529 1.524 . S
C530 C531 1.397 . S
C530 C535 1.363 . S
C531 H502 0.950 . S
C531 C530 1.397 . S
C531 C532 1.334 . S
C532 H503 0.950 . S
C532 C531 1.334 . S
C532 C533 1.287 . S
C533 C532 1.287 . S
C533 C534 1.524 . S
C533 H536 0.999 . S
C534 H504 0.950 . S
C534 C533 1.524 . S
C534 C535 1.415 . S
C535 H505 0.950 . S
C535 C530 1.363 . S
C535 C534 1.415 . S
H536 C533 0.999 . S
H537 C518 0.913 . S
H538 C556 0.951 . S
H539 C558 0.951 . S
H540 C560 0.950 . S
H541 C561 0.950 . S
H542 C563 0.950 . S
H543 C566 0.950 . S
H544 C567 0.950 . S
H545 C569 0.950 . S
H546 C570 0.950 . S
H547 C571 0.951 . S
H548 C573 0.951 . S
H549 C575 0.950 . S
H550 C576 0.950 . S
H551 C578 0.950 . S
H552 C581 0.950 . S
H553 C582 0.950 . S
H554 C584 0.950 . S
H555 C585 0.950 . S
C556 H538 0.951 . S
C556 C557 1.366 . S
C556 C558 1.388 . S
C557 C556 1.366 . S
C557 C561 1.385 . S
C558 H539 0.951 . S
C558 C556 1.388 . S
C558 C559 1.366 . S
C559 C558 1.366 . S
C559 C560 1.414 . S
C559 C562 1.499 . S
C560 H540 0.950 . S
C560 C559 1.414 . S
C560 C561 1.374 . S
C561 H541 0.950 . S
C561 C557 1.385 . S
C561 C560 1.374 . S
C562 C559 1.499 . S
C562 C563 1.373 . S
C562 C564 1.389 . S
C563 H542 0.950 . S
C563 C562 1.373 . S
C563 C579 1.377 . S
C564 C562 1.389 . S
C564 C565 1.524 . S
C564 C578 1.377 . S
C565 C564 1.524 . S
C565 C566 1.397 . S
C565 C570 1.363 . S
C566 H543 0.950 . S
C566 C565 1.397 . S
C566 C567 1.334 . S
C567 H544 0.950 . S
C567 C566 1.334 . S
C567 C568 1.287 . S
C568 C567 1.287 . S
C568 C569 1.524 . S
C568 H587 0.913 . S
C569 H545 0.950 . S
C569 C568 1.524 . S
C569 C570 1.415 . S
C570 H546 0.950 . S
C570 C565 1.363 . S
C570 C569 1.415 . S
C571 H547 0.951 . S
C571 C572 1.366 . S
C571 C573 1.388 1_545 S
C572 C571 1.366 . S
C572 C576 1.385 1_545 S
C573 H548 0.951 . S
C573 C571 1.388 1_565 S
C573 C574 1.366 . S
C574 C573 1.366 . S
C574 C575 1.414 . S
C574 C577 1.499 . S
C575 H549 0.950 . S
C575 C574 1.414 . S
C575 C576 1.374 . S
C576 H550 0.950 . S
C576 C572 1.385 1_565 S
C576 C575 1.374 . S
C577 C574 1.499 . S
C577 C578 1.373 . S
C577 C579 1.389 . S
C578 H551 0.950 . S
C578 C564 1.377 . S
C578 C577 1.373 . S
C579 C563 1.377 . S
C579 C577 1.389 . S
C579 C580 1.524 . S
C580 C579 1.524 . S
C580 C581 1.397 . S
C580 C585 1.363 . S
C581 H552 0.950 . S
C581 C580 1.397 . S
C581 C582 1.334 . S
C582 H553 0.950 . S
C582 C581 1.334 . S
C582 C583 1.287 . S
C583 C582 1.287 . S
C583 C584 1.524 . S
C583 H586 0.999 . S
C584 H554 0.950 . S
C584 C583 1.524 . S
C584 C585 1.415 . S
C585 H555 0.950 . S
C585 C580 1.363 . S
C585 C584 1.415 . S
H586 C583 0.999 . S
H587 C568 0.913 . S
H588 C606 0.951 . S
H589 C608 0.951 . S
H590 C610 0.950 . S
H591 C611 0.950 . S
H592 C613 0.950 . S
H593 C616 0.950 . S
H594 C617 0.950 . S
H595 C619 0.950 . S
H596 C620 0.950 . S
H597 C621 0.951 . S
H598 C623 0.951 . S
H599 C625 0.950 . S
H600 C626 0.950 . S
H601 C628 0.950 . S
H602 C631 0.950 . S
H603 C632 0.950 . S
H604 C634 0.950 . S
H605 C635 0.950 . S
C606 H588 0.951 . S
C606 C607 1.366 . S
C606 C608 1.388 . S
C607 C606 1.366 . S
C607 C611 1.385 . S
C608 H589 0.951 . S
C608 C606 1.388 . S
C608 C609 1.366 . S
C609 C608 1.366 . S
C609 C610 1.414 . S
C609 C612 1.499 . S
C610 H590 0.950 . S
C610 C609 1.414 . S
C610 C611 1.374 . S
C611 H591 0.950 . S
C611 C607 1.385 . S
C611 C610 1.374 . S
C612 C609 1.499 . S
C612 C613 1.373 . S
C612 C614 1.389 . S
C613 H592 0.950 . S
C613 C612 1.373 . S
C613 C629 1.377 . S
C614 C612 1.389 . S
C614 C615 1.524 . S
C614 C628 1.377 . S
C615 C614 1.524 . S
C615 C616 1.397 . S
C615 C620 1.363 . S
C616 H593 0.950 . S
C616 C615 1.397 . S
C616 C617 1.334 . S
C617 H594 0.950 . S
C617 C616 1.334 . S
C617 C618 1.287 . S
C618 C617 1.287 . S
C618 C619 1.524 . S
C618 H637 0.913 . S
C619 H595 0.950 . S
C619 C618 1.524 . S
C619 C620 1.415 . S
C620 H596 0.950 . S
C620 C615 1.363 . S
C620 C619 1.415 . S
C621 H597 0.951 . S
C621 C622 1.366 . S
C621 C623 1.388 . S
C622 C621 1.366 . S
C622 C626 1.385 . S
C623 H598 0.951 . S
C623 C621 1.388 . S
C623 C624 1.366 . S
C624 C623 1.366 . S
C624 C625 1.414 . S
C624 C627 1.499 . S
C625 H599 0.950 . S
C625 C624 1.414 . S
C625 C626 1.374 . S
C626 H600 0.950 . S
C626 C622 1.385 . S
C626 C625 1.374 . S
C627 C624 1.499 . S
C627 C628 1.373 . S
C627 C629 1.389 . S
C628 H601 0.950 . S
C628 C614 1.377 . S
C628 C627 1.373 . S
C629 C613 1.377 . S
C629 C627 1.389 . S
C629 C630 1.524 . S
C630 C629 1.524 . S
C630 C631 1.397 . S
C630 C635 1.363 . S
C631 H602 0.950 . S
C631 C630 1.397 . S
C631 C632 1.334 . S
C632 H603 0.950 . S
C632 C631 1.334 . S
C632 C633 1.287 . S
C633 C632 1.287 . S
C633 C634 1.524 . S
C633 H636 0.999 . S
C634 H604 0.950 . S
C634 C633 1.524 . S
C634 C635 1.415 . S
C635 H605 0.950 . S
C635 C630 1.363 . S
C635 C634 1.415 . S
H636 C633 0.999 . S
H637 C618 0.913 . S
H638 C656 0.951 . S
H639 C658 0.951 . S
H640 C660 0.950 . S
H641 C661 0.950 . S
H642 C663 0.950 . S
H643 C666 0.950 . S
H644 C667 0.950 . S
H645 C669 0.950 . S
H646 C670 0.950 . S
H647 C671 0.951 . S
H648 C673 0.951 . S
H649 C675 0.950 . S
H650 C676 0.950 . S
H651 C678 0.950 . S
H652 C681 0.950 . S
H653 C682 0.950 . S
H654 C684 0.950 . S
H655 C685 0.950 . S
C656 H638 0.951 . S
C656 C657 1.366 . S
C656 C658 1.388 . S
C657 C656 1.366 . S
C657 C661 1.385 . S
C658 H639 0.951 . S
C658 C656 1.388 . S
C658 C659 1.366 . S
C659 C658 1.366 . S
C659 C660 1.414 . S
C659 C662 1.499 . S
C660 H640 0.950 . S
C660 C659 1.414 . S
C660 C661 1.374 . S
C661 H641 0.950 . S
C661 C657 1.385 . S
C661 C660 1.374 . S
C662 C659 1.499 . S
C662 C663 1.373 . S
C662 C664 1.389 . S
C663 H642 0.950 . S
C663 C662 1.373 . S
C663 C679 1.377 . S
C664 C662 1.389 . S
C664 C665 1.524 . S
C664 C678 1.377 . S
C665 C664 1.524 . S
C665 C666 1.397 . S
C665 C670 1.363 . S
C666 H643 0.950 . S
C666 C665 1.397 . S
C666 C667 1.334 . S
C667 H644 0.950 . S
C667 C666 1.334 . S
C667 C668 1.287 . S
C668 C667 1.287 . S
C668 C669 1.524 . S
C668 H687 0.913 . S
C669 H645 0.950 . S
C669 C668 1.524 . S
C669 C670 1.415 . S
C670 H646 0.950 . S
C670 C665 1.363 . S
C670 C669 1.415 . S
C671 H647 0.951 . S
C671 C672 1.366 1_545 S
C671 C673 1.388 . S
C672 C671 1.366 1_565 S
C672 C676 1.385 . S
C673 H648 0.951 . S
C673 C671 1.388 . S
C673 C674 1.366 . S
C674 C673 1.366 . S
C674 C675 1.414 . S
C674 C677 1.499 . S
C675 H649 0.950 . S
C675 C674 1.414 . S
C675 C676 1.374 1_545 S
C676 H650 0.950 . S
C676 C672 1.385 . S
C676 C675 1.374 1_565 S
C677 C674 1.499 . S
C677 C678 1.373 . S
C677 C679 1.389 . S
C678 H651 0.950 . S
C678 C664 1.377 . S
C678 C677 1.373 . S
C679 C663 1.377 . S
C679 C677 1.389 . S
C679 C680 1.524 . S
C680 C679 1.524 . S
C680 C681 1.397 . S
C680 C685 1.363 . S
C681 H652 0.950 . S
C681 C680 1.397 . S
C681 C682 1.334 . S
C682 H653 0.950 . S
C682 C681 1.334 . S
C682 C683 1.287 . S
C683 C682 1.287 . S
C683 C684 1.524 . S
C683 H686 0.999 . S
C684 H654 0.950 . S
C684 C683 1.524 . S
C684 C685 1.415 . S
C685 H655 0.950 . S
C685 C680 1.363 . S
C685 C684 1.415 . S
H686 C683 0.999 . S
H687 C668 0.913 . S
H688 C706 0.951 . S
H689 C708 0.951 . S
H690 C710 0.950 . S
H691 C711 0.950 . S
H692 C713 0.950 . S
H693 C716 0.950 . S
H694 C717 0.950 . S
H695 C719 0.950 . S
H696 C720 0.950 . S
H697 C721 0.951 . S
H698 C723 0.951 . S
H699 C725 0.950 . S
H700 C726 0.950 . S
H701 C728 0.950 . S
H702 C731 0.950 . S
H703 C732 0.950 . S
H704 C734 0.950 . S
H705 C735 0.950 . S
C706 H688 0.951 . S
C706 C707 1.366 . S
C706 C708 1.388 . S
C707 C706 1.366 . S
C707 C711 1.385 . S
C708 H689 0.951 . S
C708 C706 1.388 . S
C708 C709 1.366 . S
C709 C708 1.366 . S
C709 C710 1.414 . S
C709 C712 1.499 . S
C710 H690 0.950 . S
C710 C709 1.414 . S
C710 C711 1.374 . S
C711 H691 0.950 . S
C711 C707 1.385 . S
C711 C710 1.374 . S
C712 C709 1.499 . S
C712 C713 1.373 . S
C712 C714 1.389 . S
C713 H692 0.950 . S
C713 C712 1.373 . S
C713 C729 1.377 . S
C714 C712 1.389 . S
C714 C715 1.524 . S
C714 C728 1.377 . S
C715 C714 1.524 . S
C715 C716 1.397 . S
C715 C720 1.363 . S
C716 H693 0.950 . S
C716 C715 1.397 . S
C716 C717 1.334 . S
C717 H694 0.950 . S
C717 C716 1.334 . S
C717 C718 1.287 . S
C718 C717 1.287 . S
C718 C719 1.524 . S
C718 H737 0.913 . S
C719 H695 0.950 . S
C719 C718 1.524 . S
C719 C720 1.415 . S
C720 H696 0.950 . S
C720 C715 1.363 . S
C720 C719 1.415 . S
C721 H697 0.951 . S
C721 C722 1.366 1_655 S
C721 C723 1.388 . S
C722 C721 1.366 1_455 S
C722 C726 1.385 . S
C723 H698 0.951 . S
C723 C721 1.388 . S
C723 C724 1.366 . S
C724 C723 1.366 . S
C724 C725 1.414 . S
C724 C727 1.499 . S
C725 H699 0.950 . S
C725 C724 1.414 . S
C725 C726 1.374 1_655 S
C726 H700 0.950 . S
C726 C722 1.385 . S
C726 C725 1.374 1_455 S
C727 C724 1.499 . S
C727 C728 1.373 . S
C727 C729 1.389 . S
C728 H701 0.950 . S
C728 C714 1.377 . S
C728 C727 1.373 . S
C729 C713 1.377 . S
C729 C727 1.389 . S
C729 C730 1.524 . S
C730 C729 1.524 . S
C730 C731 1.397 . S
C730 C735 1.363 . S
C731 H702 0.950 . S
C731 C730 1.397 . S
C731 C732 1.334 . S
C732 H703 0.950 . S
C732 C731 1.334 . S
C732 C733 1.287 . S
C733 C732 1.287 . S
C733 C734 1.524 . S
C733 H736 0.999 . S
C734 H704 0.950 . S
C734 C733 1.524 . S
C734 C735 1.415 . S
C735 H705 0.950 . S
C735 C730 1.363 . S
C735 C734 1.415 . S
H736 C733 0.999 . S
H737 C718 0.913 . S
H738 C756 0.951 . S
H739 C758 0.951 . S
H740 C760 0.950 . S
H741 C761 0.950 . S
H742 C763 0.950 . S
H743 C766 0.950 . S
H744 C767 0.950 . S
H745 C769 0.950 . S
H746 C770 0.950 . S
H747 C771 0.951 . S
H748 C773 0.951 . S
H749 C775 0.950 . S
H750 C776 0.950 . S
H751 C778 0.950 . S
H752 C781 0.950 . S
H753 C782 0.950 . S
H754 C784 0.950 . S
H755 C785 0.950 . S
C756 H738 0.951 . S
C756 C757 1.366 . S
C756 C758 1.388 . S
C757 C756 1.366 . S
C757 C761 1.385 . S
C758 H739 0.951 . S
C758 C756 1.388 . S
C758 C759 1.366 . S
C759 C758 1.366 . S
C759 C760 1.414 . S
C759 C762 1.499 . S
C760 H740 0.950 . S
C760 C759 1.414 . S
C760 C761 1.374 . S
C761 H741 0.950 . S
C761 C757 1.385 . S
C761 C760 1.374 . S
C762 C759 1.499 . S
C762 C763 1.373 . S
C762 C764 1.389 . S
C763 H742 0.950 . S
C763 C762 1.373 . S
C763 C779 1.377 . S
C764 C762 1.389 . S
C764 C765 1.524 . S
C764 C778 1.377 . S
C765 C764 1.524 . S
C765 C766 1.397 . S
C765 C770 1.363 . S
C766 H743 0.950 . S
C766 C765 1.397 . S
C766 C767 1.334 . S
C767 H744 0.950 . S
C767 C766 1.334 . S
C767 C768 1.287 . S
C768 C767 1.287 . S
C768 C769 1.524 . S
C768 H787 0.913 . S
C769 H745 0.950 . S
C769 C768 1.524 . S
C769 C770 1.415 . S
C770 H746 0.950 . S
C770 C765 1.363 . S
C770 C769 1.415 . S
C771 H747 0.951 . S
C771 C772 1.366 . S
C771 C773 1.388 . S
C772 C771 1.366 . S
C772 C776 1.385 . S
C773 H748 0.951 . S
C773 C771 1.388 . S
C773 C774 1.366 . S
C774 C773 1.366 . S
C774 C775 1.414 . S
C774 C777 1.499 . S
C775 H749 0.950 . S
C775 C774 1.414 . S
C775 C776 1.374 . S
C776 H750 0.950 . S
C776 C772 1.385 . S
C776 C775 1.374 . S
C777 C774 1.499 . S
C777 C778 1.373 . S
C777 C779 1.389 . S
C778 H751 0.950 . S
C778 C764 1.377 . S
C778 C777 1.373 . S
C779 C763 1.377 . S
C779 C777 1.389 . S
C779 C780 1.524 . S
C780 C779 1.524 . S
C780 C781 1.397 . S
C780 C785 1.363 . S
C781 H752 0.950 . S
C781 C780 1.397 . S
C781 C782 1.334 . S
C782 H753 0.950 . S
C782 C781 1.334 . S
C782 C783 1.287 . S
C783 C782 1.287 . S
C783 C784 1.524 . S
C783 H786 0.999 . S
C784 H754 0.950 . S
C784 C783 1.524 . S
C784 C785 1.415 . S
C785 H755 0.950 . S
C785 C780 1.363 . S
C785 C784 1.415 . S
H786 C783 0.999 . S
H787 C768 0.913 . S
H788 C806 0.951 . S
H789 C808 0.951 . S
H790 C810 0.950 . S
H791 C811 0.950 . S
H792 C813 0.950 . S
H793 C816 0.950 . S
H794 C817 0.950 . S
H795 C819 0.950 . S
H796 C820 0.950 . S
H797 C821 0.951 . S
H798 C823 0.951 . S
H799 C825 0.950 . S
H800 C826 0.950 . S
H801 C828 0.950 . S
H802 C831 0.950 . S
H803 C832 0.950 . S
H804 C834 0.950 . S
H805 C835 0.950 . S
C806 H788 0.951 . S
C806 C807 1.366 . S
C806 C808 1.388 . S
C807 C806 1.366 . S
C807 C811 1.385 . S
C808 H789 0.951 . S
C808 C806 1.388 . S
C808 C809 1.366 . S
C809 C808 1.366 . S
C809 C810 1.414 . S
C809 C812 1.499 . S
C810 H790 0.950 . S
C810 C809 1.414 . S
C810 C811 1.374 . S
C811 H791 0.950 . S
C811 C807 1.385 . S
C811 C810 1.374 . S
C812 C809 1.499 . S
C812 C813 1.373 . S
C812 C814 1.389 . S
C813 H792 0.950 . S
C813 C812 1.373 . S
C813 C829 1.377 . S
C814 C812 1.389 . S
C814 C815 1.524 . S
C814 C828 1.377 . S
C815 C814 1.524 . S
C815 C816 1.397 . S
C815 C820 1.363 . S
C816 H793 0.950 . S
C816 C815 1.397 . S
C816 C817 1.334 . S
C817 H794 0.950 . S
C817 C816 1.334 . S
C817 C818 1.287 . S
C818 C817 1.287 . S
C818 C819 1.524 . S
C818 H837 0.913 . S
C819 H795 0.950 . S
C819 C818 1.524 . S
C819 C820 1.415 . S
C820 H796 0.950 . S
C820 C815 1.363 . S
C820 C819 1.415 . S
C821 H797 0.951 . S
C821 C822 1.366 1_455 S
C821 C823 1.388 . S
C822 C821 1.366 1_655 S
C822 C826 1.385 . S
C823 H798 0.951 . S
C823 C821 1.388 . S
C823 C824 1.366 . S
C824 C823 1.366 . S
C824 C825 1.414 . S
C824 C827 1.499 . S
C825 H799 0.950 . S
C825 C824 1.414 . S
C825 C826 1.374 1_455 S
C826 H800 0.950 . S
C826 C822 1.385 . S
C826 C825 1.374 1_655 S
C827 C824 1.499 . S
C827 C828 1.373 . S
C827 C829 1.389 . S
C828 H801 0.950 . S
C828 C814 1.377 . S
C828 C827 1.373 . S
C829 C813 1.377 . S
C829 C827 1.389 . S
C829 C830 1.524 . S
C830 C829 1.524 . S
C830 C831 1.397 . S
C830 C835 1.363 . S
C831 H802 0.950 . S
C831 C830 1.397 . S
C831 C832 1.334 . S
C832 H803 0.950 . S
C832 C831 1.334 . S
C832 C833 1.287 . S
C833 C832 1.287 . S
C833 C834 1.524 . S
C833 H836 0.999 . S
C834 H804 0.950 . S
C834 C833 1.524 . S
C834 C835 1.415 . S
C835 H805 0.950 . S
C835 C830 1.363 . S
C835 C834 1.415 . S
H836 C833 0.999 . S
H837 C818 0.913 . S
H838 C856 0.951 . S
H839 C858 0.951 . S
H840 C860 0.950 . S
H841 C861 0.950 . S
H842 C863 0.950 . S
H843 C866 0.950 . S
H844 C867 0.950 . S
H845 C869 0.950 . S
H846 C870 0.950 . S
H847 C871 0.951 . S
H848 C873 0.951 . S
H849 C875 0.950 . S
H850 C876 0.950 . S
H851 C878 0.950 . S
H852 C881 0.950 . S
H853 C882 0.950 . S
H854 C884 0.950 . S
H855 C885 0.950 . S
C856 H838 0.951 . S
C856 C857 1.366 . S
C856 C858 1.388 . S
C857 C856 1.366 . S
C857 C861 1.385 . S
C858 H839 0.951 . S
C858 C856 1.388 . S
C858 C859 1.366 . S
C859 C858 1.366 . S
C859 C860 1.414 . S
C859 C862 1.499 . S
C860 H840 0.950 . S
C860 C859 1.414 . S
C860 C861 1.374 . S
C861 H841 0.950 . S
C861 C857 1.385 . S
C861 C860 1.374 . S
C862 C859 1.499 . S
C862 C863 1.373 . S
C862 C864 1.389 . S
C863 H842 0.950 . S
C863 C862 1.373 . S
C863 C879 1.377 . S
C864 C862 1.389 . S
C864 C865 1.524 . S
C864 C878 1.377 . S
C865 C864 1.524 . S
C865 C866 1.397 . S
C865 C870 1.363 . S
C866 H843 0.950 . S
C866 C865 1.397 . S
C866 C867 1.334 . S
C867 H844 0.950 . S
C867 C866 1.334 . S
C867 C868 1.287 . S
C868 C867 1.287 . S
C868 C869 1.524 . S
C868 H887 0.913 . S
C869 H845 0.950 . S
C869 C868 1.524 . S
C869 C870 1.415 . S
C870 H846 0.950 . S
C870 C865 1.363 . S
C870 C869 1.415 . S
C871 H847 0.951 . S
C871 C872 1.366 . S
C871 C873 1.388 . S
C872 C871 1.366 . S
C872 C876 1.385 . S
C873 H848 0.951 . S
C873 C871 1.388 . S
C873 C874 1.366 . S
C874 C873 1.366 . S
C874 C875 1.414 . S
C874 C877 1.499 . S
C875 H849 0.950 . S
C875 C874 1.414 . S
C875 C876 1.374 . S
C876 H850 0.950 . S
C876 C872 1.385 . S
C876 C875 1.374 . S
C877 C874 1.499 . S
C877 C878 1.373 . S
C877 C879 1.389 . S
C878 H851 0.950 . S
C878 C864 1.377 . S
C878 C877 1.373 . S
C879 C863 1.377 . S
C879 C877 1.389 . S
C879 C880 1.524 . S
C880 C879 1.524 . S
C880 C881 1.397 . S
C880 C885 1.363 . S
C881 H852 0.950 . S
C881 C880 1.397 . S
C881 C882 1.334 . S
C882 H853 0.950 . S
C882 C881 1.334 . S
C882 C883 1.287 . S
C883 C882 1.287 . S
C883 C884 1.524 . S
C883 H886 0.999 . S
C884 H854 0.950 . S
C884 C883 1.524 . S
C884 C885 1.415 . S
C885 H855 0.950 . S
C885 C880 1.363 . S
C885 C884 1.415 . S
H886 C883 0.999 . S
H887 C868 0.913 . S
H888 C906 0.951 . S
H889 C908 0.951 . S
H890 C910 0.950 . S
H891 C911 0.950 . S
H892 C913 0.950 . S
H893 C916 0.950 . S
H894 C917 0.950 . S
H895 C919 0.950 . S
H896 C920 0.950 . S
H897 C921 0.951 . S
H898 C923 0.951 . S
H899 C925 0.950 . S
H900 C926 0.950 . S
H901 C928 0.950 . S
H902 C931 0.950 . S
H903 C932 0.950 . S
H904 C934 0.950 . S
H905 C935 0.950 . S
C906 H888 0.951 . S
C906 C907 1.366 . S
C906 C908 1.388 . S
C907 C906 1.366 . S
C907 C911 1.385 . S
C908 H889 0.951 . S
C908 C906 1.388 . S
C908 C909 1.366 . S
C909 C908 1.366 . S
C909 C910 1.414 . S
C909 C912 1.499 . S
C910 H890 0.950 . S
C910 C909 1.414 . S
C910 C911 1.374 . S
C911 H891 0.950 . S
C911 C907 1.385 . S
C911 C910 1.374 . S
C912 C909 1.499 . S
C912 C913 1.373 . S
C912 C914 1.389 1_655 S
C913 H892 0.950 . S
C913 C912 1.373 . S
C913 C929 1.377 . S
C914 C912 1.389 1_455 S
C914 C915 1.524 . S
C914 C928 1.377 . S
C915 C914 1.524 . S
C915 C916 1.397 . S
C915 C920 1.363 . S
C916 H893 0.950 . S
C916 C915 1.397 . S
C916 C917 1.334 . S
C917 H894 0.950 . S
C917 C916 1.334 . S
C917 C918 1.287 . S
C918 C917 1.287 . S
C918 C919 1.524 . S
C918 H937 0.913 . S
C919 H895 0.950 . S
C919 C918 1.524 . S
C919 C920 1.415 . S
C920 H896 0.950 . S
C920 C915 1.363 . S
C920 C919 1.415 . S
C921 H897 0.951 . S
C921 C922 1.366 . S
C921 C923 1.388 . S
C922 C921 1.366 . S
C922 C926 1.385 . S
C923 H898 0.951 . S
C923 C921 1.388 . S
C923 C924 1.366 . S
C924 C923 1.366 . S
C924 C925 1.414 . S
C924 C927 1.499 . S
C925 H899 0.950 . S
C925 C924 1.414 . S
C925 C926 1.374 . S
C926 H900 0.950 . S
C926 C922 1.385 . S
C926 C925 1.374 . S
C927 C924 1.499 . S
C927 C928 1.373 . S
C927 C929 1.389 1_455 S
C928 H901 0.950 . S
C928 C914 1.377 . S
C928 C927 1.373 . S
C929 C913 1.377 . S
C929 C927 1.389 1_655 S
C929 C930 1.524 . S
C930 C929 1.524 . S
C930 C931 1.397 . S
C930 C935 1.363 . S
C931 H902 0.950 . S
C931 C930 1.397 . S
C931 C932 1.334 . S
C932 H903 0.950 . S
C932 C931 1.334 . S
C932 C933 1.287 . S
C933 C932 1.287 . S
C933 C934 1.524 . S
C933 H936 0.999 . S
C934 H904 0.950 . S
C934 C933 1.524 . S
C934 C935 1.415 . S
C935 H905 0.950 . S
C935 C930 1.363 . S
C935 C934 1.415 . S
H936 C933 0.999 . S
H937 C918 0.913 . S
H938 C956 0.951 . S
H939 C958 0.951 . S
H940 C960 0.950 . S
H941 C961 0.950 . S
H942 C963 0.950 . S
H943 C966 0.950 . S
H944 C967 0.950 . S
H945 C969 0.950 . S
H946 C970 0.950 . S
H947 C971 0.951 . S
H948 C973 0.951 . S
H949 C975 0.950 . S
H950 C976 0.950 . S
H951 C978 0.950 . S
H952 C981 0.950 . S
H953 C982 0.950 . S
H954 C984 0.950 . S
H955 C985 0.950 . S
C956 H938 0.951 . S
C956 C957 1.366 . S
C956 C958 1.388 . S
C957 C956 1.366 . S
C957 C961 1.385 . S
C958 H939 0.951 . S
C958 C956 1.388 . S
C958 C959 1.366 . S
C959 C958 1.366 . S
C959 C960 1.414 . S
C959 C962 1.499 . S
C960 H940 0.950 . S
C960 C959 1.414 . S
C960 C961 1.374 . S
C961 H941 0.950 . S
C961 C957 1.385 . S
C961 C960 1.374 . S
C962 C959 1.499 . S
C962 C963 1.373 . S
C962 C964 1.389 . S
C963 H942 0.950 . S
C963 C962 1.373 . S
C963 C979 1.377 1_655 S
C964 C962 1.389 . S
C964 C965 1.524 . S
C964 C978 1.377 1_655 S
C965 C964 1.524 . S
C965 C966 1.397 . S
C965 C970 1.363 . S
C966 H943 0.950 . S
C966 C965 1.397 . S
C966 C967 1.334 . S
C967 H944 0.950 . S
C967 C966 1.334 . S
C967 C968 1.287 . S
C968 C967 1.287 . S
C968 C969 1.524 . S
C968 H987 0.913 . S
C969 H945 0.950 . S
C969 C968 1.524 . S
C969 C970 1.415 . S
C970 H946 0.950 . S
C970 C965 1.363 . S
C970 C969 1.415 . S
C971 H947 0.951 . S
C971 C972 1.366 . S
C971 C973 1.388 . S
C972 C971 1.366 . S
C972 C976 1.385 . S
C973 H948 0.951 . S
C973 C971 1.388 . S
C973 C974 1.366 . S
C974 C973 1.366 . S
C974 C975 1.414 . S
C974 C977 1.499 . S
C975 H949 0.950 . S
C975 C974 1.414 . S
C975 C976 1.374 . S
C976 H950 0.950 . S
C976 C972 1.385 . S
C976 C975 1.374 . S
C977 C974 1.499 . S
C977 C978 1.373 . S
C977 C979 1.389 . S
C978 H951 0.950 . S
C978 C964 1.377 1_455 S
C978 C977 1.373 . S
C979 C963 1.377 1_455 S
C979 C977 1.389 . S
C979 C980 1.524 . S
C980 C979 1.524 . S
C980 C981 1.397 . S
C980 C985 1.363 . S
C981 H952 0.950 . S
C981 C980 1.397 . S
C981 C982 1.334 . S
C982 H953 0.950 . S
C982 C981 1.334 . S
C982 C983 1.287 . S
C983 C982 1.287 . S
C983 C984 1.524 . S
C983 H986 0.999 . S
C984 H954 0.950 . S
C984 C983 1.524 . S
C984 C985 1.415 . S
C985 H955 0.950 . S
C985 C980 1.363 . S
C985 C984 1.415 . S
H986 C983 0.999 . S
H987 C968 0.913 . S
H988 C1006 0.951 . S
H989 C1008 0.951 . S
H990 C1010 0.950 . S
H991 C1011 0.950 . S
H992 C1013 0.950 . S
H993 C1016 0.950 . S
H994 C1017 0.950 . S
H995 C1019 0.950 . S
H996 C1020 0.950 . S
H997 C1021 0.951 . S
H998 C1023 0.951 . S
H999 C1025 0.950 . S
H1000 C1026 0.950 . S
H1001 C1028 0.950 . S
H1002 C1031 0.950 . S
H1003 C1032 0.950 . S
H1004 C1034 0.950 . S
H1005 C1035 0.950 . S
C1006 H988 0.951 . S
C1006 C1007 1.366 . S
C1006 C1008 1.388 . S
C1007 C1006 1.366 . S
C1007 C1011 1.385 . S
C1008 H989 0.951 . S
C1008 C1006 1.388 . S
C1008 C1009 1.366 . S
C1009 C1008 1.366 . S
C1009 C1010 1.414 . S
C1009 C1012 1.499 . S
C1010 H990 0.950 . S
C1010 C1009 1.414 . S
C1010 C1011 1.374 . S
C1011 H991 0.950 . S
C1011 C1007 1.385 . S
C1011 C1010 1.374 . S
C1012 C1009 1.499 . S
C1012 C1013 1.373 . S
C1012 C1014 1.389 . S
C1013 H992 0.950 . S
C1013 C1012 1.373 . S
C1013 C1029 1.377 1_545 S
C1014 C1012 1.389 . S
C1014 C1015 1.524 . S
C1014 C1028 1.377 1_545 S
C1015 C1014 1.524 . S
C1015 C1016 1.397 . S
C1015 C1020 1.363 . S
C1016 H993 0.950 . S
C1016 C1015 1.397 . S
C1016 C1017 1.334 . S
C1017 H994 0.950 . S
C1017 C1016 1.334 . S
C1017 C1018 1.287 . S
C1018 C1017 1.287 . S
C1018 C1019 1.524 . S
C1018 H1037 0.913 . S
C1019 H995 0.950 . S
C1019 C1018 1.524 . S
C1019 C1020 1.415 . S
C1020 H996 0.950 . S
C1020 C1015 1.363 . S
C1020 C1019 1.415 . S
C1021 H997 0.951 . S
C1021 C1022 1.366 . S
C1021 C1023 1.388 . S
C1022 C1021 1.366 . S
C1022 C1026 1.385 . S
C1023 H998 0.951 . S
C1023 C1021 1.388 . S
C1023 C1024 1.366 . S
C1024 C1023 1.366 . S
C1024 C1025 1.414 . S
C1024 C1027 1.499 . S
C1025 H999 0.950 . S
C1025 C1024 1.414 . S
C1025 C1026 1.374 . S
C1026 H1000 0.950 . S
C1026 C1022 1.385 . S
C1026 C1025 1.374 . S
C1027 C1024 1.499 . S
C1027 C1028 1.373 . S
C1027 C1029 1.389 . S
C1028 H1001 0.950 . S
C1028 C1014 1.377 1_565 S
C1028 C1027 1.373 . S
C1029 C1013 1.377 1_565 S
C1029 C1027 1.389 . S
C1029 C1030 1.524 . S
C1030 C1029 1.524 . S
C1030 C1031 1.397 . S
C1030 C1035 1.363 . S
C1031 H1002 0.950 . S
C1031 C1030 1.397 . S
C1031 C1032 1.334 . S
C1032 H1003 0.950 . S
C1032 C1031 1.334 . S
C1032 C1033 1.287 . S
C1033 C1032 1.287 . S
C1033 C1034 1.524 . S
C1033 H1036 0.999 . S
C1034 H1004 0.950 . S
C1034 C1033 1.524 . S
C1034 C1035 1.415 . S
C1035 H1005 0.950 . S
C1035 C1030 1.363 . S
C1035 C1034 1.415 . S
H1036 C1033 0.999 . S
H1037 C1018 0.913 . S
H1038 C1056 0.951 . S
H1039 C1058 0.951 . S
H1040 C1060 0.950 . S
H1041 C1061 0.950 . S
H1042 C1063 0.950 . S
H1043 C1066 0.950 . S
H1044 C1067 0.950 . S
H1045 C1069 0.950 . S
H1046 C1070 0.950 . S
H1047 C1071 0.951 . S
H1048 C1073 0.951 . S
H1049 C1075 0.950 . S
H1050 C1076 0.950 . S
H1051 C1078 0.950 . S
H1052 C1081 0.950 . S
H1053 C1082 0.950 . S
H1054 C1084 0.950 . S
H1055 C1085 0.950 . S
C1056 H1038 0.951 . S
C1056 C1057 1.366 . S
C1056 C1058 1.388 . S
C1057 C1056 1.366 . S
C1057 C1061 1.385 . S
C1058 H1039 0.951 . S
C1058 C1056 1.388 . S
C1058 C1059 1.366 . S
C1059 C1058 1.366 . S
C1059 C1060 1.414 . S
C1059 C1062 1.499 . S
C1060 H1040 0.950 . S
C1060 C1059 1.414 . S
C1060 C1061 1.374 . S
C1061 H1041 0.950 . S
C1061 C1057 1.385 . S
C1061 C1060 1.374 . S
C1062 C1059 1.499 . S
C1062 C1063 1.373 . S
C1062 C1064 1.389 1_545 S
C1063 H1042 0.950 . S
C1063 C1062 1.373 . S
C1063 C1079 1.377 . S
C1064 C1062 1.389 1_565 S
C1064 C1065 1.524 . S
C1064 C1078 1.377 . S
C1065 C1064 1.524 . S
C1065 C1066 1.397 . S
C1065 C1070 1.363 . S
C1066 H1043 0.950 . S
C1066 C1065 1.397 . S
C1066 C1067 1.334 . S
C1067 H1044 0.950 . S
C1067 C1066 1.334 . S
C1067 C1068 1.287 . S
C1068 C1067 1.287 . S
C1068 C1069 1.524 . S
C1068 H1087 0.913 . S
C1069 H1045 0.950 . S
C1069 C1068 1.524 . S
C1069 C1070 1.415 . S
C1070 H1046 0.950 . S
C1070 C1065 1.363 . S
C1070 C1069 1.415 . S
C1071 H1047 0.951 . S
C1071 C1072 1.366 . S
C1071 C1073 1.388 . S
C1072 C1071 1.366 . S
C1072 C1076 1.385 . S
C1073 H1048 0.951 . S
C1073 C1071 1.388 . S
C1073 C1074 1.366 . S
C1074 C1073 1.366 . S
C1074 C1075 1.414 . S
C1074 C1077 1.499 . S
C1075 H1049 0.950 . S
C1075 C1074 1.414 . S
C1075 C1076 1.374 . S
C1076 H1050 0.950 . S
C1076 C1072 1.385 . S
C1076 C1075 1.374 . S
C1077 C1074 1.499 . S
C1077 C1078 1.373 . S
C1077 C1079 1.389 1_565 S
C1078 H1051 0.950 . S
C1078 C1064 1.377 . S
C1078 C1077 1.373 . S
C1079 C1063 1.377 . S
C1079 C1077 1.389 1_545 S
C1079 C1080 1.524 . S
C1080 C1079 1.524 . S
C1080 C1081 1.397 . S
C1080 C1085 1.363 . S
C1081 H1052 0.950 . S
C1081 C1080 1.397 . S
C1081 C1082 1.334 . S
C1082 H1053 0.950 . S
C1082 C1081 1.334 . S
C1082 C1083 1.287 . S
C1083 C1082 1.287 . S
C1083 C1084 1.524 . S
C1083 H1086 0.999 . S
C1084 H1054 0.950 . S
C1084 C1083 1.524 . S
C1084 C1085 1.415 . S
C1085 H1055 0.950 . S
C1085 C1080 1.363 . S
C1085 C1084 1.415 . S
H1086 C1083 0.999 . S
H1087 C1068 0.913 . S
C307 C4 1.314 . S
C322 C184 1.315 . S
C357 C40 1.315 . S
C372 C220 1.314 . S
C407 C76 1.314 . S
C422 C256 1.315 . S
C457 C148 1.314 . S
C472 C112 1.315 . S
C507 C14 1.596 . S
C522 C147 1.658 . S
C557 C50 1.597 . S
C572 C183 1.658 . S
C607 C219 1.658 . S
C622 C86 1.597 . S
C657 C122 1.596 . S
C672 C255 1.658 . S
C707 C158 1.596 . S
C722 C3 1.658 . S
C757 C39 1.658 . S
C772 C194 1.597 . S
C807 C230 1.597 . S
C822 C75 1.658 . S
C857 C111 1.658 . S
C872 C266 1.597 . S
C907 C74 0.294 . S
C922 C2 0.294 . S
C957 C110 0.294 . S
C972 C38 0.293 . S
C1007 C146 0.291 . S
C1022 C218 0.291 . S
C1057 C182 0.294 . S
C1072 C254 0.294 . S
