# Generated by pormake.
# Topology wke, (5)-cn, num edge types: 1
# Building blocks:
#     Node 0, Type 0, BuildingBlock: XOMCOT_clean_sbu_1, # of connection points: 5
#     Node 1, Type 0, BuildingBlock: XOMCOT_clean_sbu_1, # of connection points: 5
#     Node 2, Type 0, BuildingBlock: XOMCOT_clean_sbu_1, # of connection points: 5
#     Node 3, Type 0, BuildingBlock: XOMCOT_clean_sbu_1, # of connection points: 5
#     Node 4, Type 0, BuildingBlock: XOMCOT_clean_sbu_1, # of connection points: 5
#     Node 5, Type 0, BuildingBlock: XOMCOT_clean_sbu_1, # of connection points: 5
#     Node 6, Type 0, BuildingBlock: XOMCOT_clean_sbu_1, # of connection points: 5
#     Node 7, Type 0, BuildingBlock: XOMCOT_clean_sbu_1, # of connection points: 5
#     Node 8, Type 0, BuildingBlock: XOMCOT_clean_sbu_1, # of connection points: 5
#     Node 9, Type 0, BuildingBlock: XOMCOT_clean_sbu_1, # of connection points: 5
#     Node 10, Type 0, BuildingBlock: XOMCOT_clean_sbu_1, # of connection points: 5
#     Node 11, Type 0, BuildingBlock: XOMCOT_clean_sbu_1, # of connection points: 5
#     Edge 12, Type (0, 0), BuildingBlock: TEMPAE_clean_linker_10, # of connection points: 2
#     Edge 13, Type (0, 0), BuildingBlock: TEMPAE_clean_linker_10, # of connection points: 2
#     Edge 14, Type (0, 0), BuildingBlock: TEMPAE_clean_linker_10, # of connection points: 2
#     Edge 15, Type (0, 0), BuildingBlock: TEMPAE_clean_linker_10, # of connection points: 2
#     Edge 16, Type (0, 0), BuildingBlock: TEMPAE_clean_linker_10, # of connection points: 2
#     Edge 17, Type (0, 0), BuildingBlock: TEMPAE_clean_linker_10, # of connection points: 2
#     Edge 18, Type (0, 0), BuildingBlock: TEMPAE_clean_linker_10, # of connection points: 2
#     Edge 19, Type (0, 0), BuildingBlock: TEMPAE_clean_linker_10, # of connection points: 2
#     Edge 20, Type (0, 0), BuildingBlock: TEMPAE_clean_linker_10, # of connection points: 2
#     Edge 21, Type (0, 0), BuildingBlock: TEMPAE_clean_linker_10, # of connection points: 2
#     Edge 22, Type (0, 0), BuildingBlock: TEMPAE_clean_linker_10, # of connection points: 2
#     Edge 23, Type (0, 0), BuildingBlock: TEMPAE_clean_linker_10, # of connection points: 2
#     Edge 24, Type (0, 0), BuildingBlock: TEMPAE_clean_linker_10, # of connection points: 2
#     Edge 25, Type (0, 0), BuildingBlock: TEMPAE_clean_linker_10, # of connection points: 2
#     Edge 26, Type (0, 0), BuildingBlock: TEMPAE_clean_linker_10, # of connection points: 2
#     Edge 27, Type (0, 0), BuildingBlock: TEMPAE_clean_linker_10, # of connection points: 2
#     Edge 28, Type (0, 0), BuildingBlock: TEMPAE_clean_linker_10, # of connection points: 2
#     Edge 29, Type (0, 0), BuildingBlock: TEMPAE_clean_linker_10, # of connection points: 2
#     Edge 30, Type (0, 0), BuildingBlock: TEMPAE_clean_linker_10, # of connection points: 2
#     Edge 31, Type (0, 0), BuildingBlock: TEMPAE_clean_linker_10, # of connection points: 2
#     Edge 32, Type (0, 0), BuildingBlock: TEMPAE_clean_linker_10, # of connection points: 2
#     Edge 33, Type (0, 0), BuildingBlock: TEMPAE_clean_linker_10, # of connection points: 2
#     Edge 34, Type (0, 0), BuildingBlock: TEMPAE_clean_linker_10, # of connection points: 2
#     Edge 35, Type (0, 0), BuildingBlock: TEMPAE_clean_linker_10, # of connection points: 2
#     Edge 36, Type (0, 0), BuildingBlock: TEMPAE_clean_linker_10, # of connection points: 2
#     Edge 37, Type (0, 0), BuildingBlock: TEMPAE_clean_linker_10, # of connection points: 2
#     Edge 38, Type (0, 0), BuildingBlock: TEMPAE_clean_linker_10, # of connection points: 2
#     Edge 39, Type (0, 0), BuildingBlock: TEMPAE_clean_linker_10, # of connection points: 2
#     Edge 40, Type (0, 0), BuildingBlock: TEMPAE_clean_linker_10, # of connection points: 2
#     Edge 41, Type (0, 0), BuildingBlock: TEMPAE_clean_linker_10, # of connection points: 2
# Relax obj value: 0.162
# Max RMSD: 0.151
# Mean RMSD: 0.151
data_MOF--net-wke--node1-XOMCOT_clean_sbu_1--edge1-TEMPAE_clean_linker_10
_symmetry_space_group_name_H-M    P1
_symmetry_Int_Tables_number       1
_symmetry_cell_setting            triclinic
loop_
_symmetry_equiv_pos_as_xyz
'x, y, z'
_cell_length_a     71.957659
_cell_length_b     71.965096
_cell_length_c     17.671538
_cell_angle_alpha  89.984924
_cell_angle_beta   89.920997
_cell_angle_gamma 119.99423
loop_
_atom_site_label
_atom_site_type_symbol
_atom_site_fract_x
_atom_site_fract_y
_atom_site_fract_z
_atom_type_partial_charge
C0 C 0.14093 0.45156 0.39349 0.0
C1 C 0.1436 0.45432 0.47069 0.0
N2 N 0.12703 0.43735 0.50478 0.0
N3 N 0.1228 0.43296 0.37912 0.0
C4 C 0.11476 0.42462 0.44794 0.0
H5 H 0.15143 0.46247 0.35045 0.0
Co6 Co 0.11214 0.42225 0.28365 0.0
C7 C 0.06536 0.39331 0.3085 0.0
O8 O 0.0618 0.40075 0.24551 0.0
N9 N 0.10179 0.41107 0.18587 0.0
C10 C 0.08949 0.38707 0.09242 0.0
C11 C 0.09139 0.38988 0.16945 0.0
C12 C 0.10638 0.42076 0.11721 0.0
N13 N 0.09903 0.40654 0.05958 0.0
O14 O 0.12488 0.40412 0.28966 0.0
H15 H 0.0864 0.37721 0.21092 0.0
H16 H 0.11637 0.43779 0.10854 0.0
O17 O 0.08475 0.39997 0.32938 0.0
C18 C 0.14193 0.41269 0.24929 0.0
O19 O 0.14711 0.43068 0.21368 0.0
N20 N 0.10234 0.44219 0.27668 0.0
C21 C 0.09544 0.47716 0.26726 0.0
C22 C 0.0834 0.46014 0.31741 0.0
C23 C 0.08743 0.44304 0.32253 0.0
C24 C 0.1151 0.45931 0.23181 0.0
C25 C 0.11161 0.47663 0.22469 0.0
H26 H 0.07917 0.4311 0.36576 0.0
H27 H 0.12884 0.46006 0.2041 0.0
H28 H 0.10031 0.40936 0.45659 0.0
H29 H 0.15652 0.46792 0.49937 0.0
H30 H 0.08228 0.37187 0.0629 0.0
H31 H 0.07126 0.46022 0.35347 0.0
H32 H 0.12217 0.48997 0.18864 0.0
C33 C 0.69105 0.13867 0.90547 0.0
C34 C 0.69085 0.14124 0.98276 0.0
N35 N 0.69202 0.12506 0.0166 0.0
N36 N 0.69237 0.121 0.89081 0.0
C37 C 0.69307 0.11315 0.95957 0.0
H38 H 0.69009 0.14889 0.86259 0.0
Co39 Co 0.69278 0.11041 0.7953 0.0
C40 C 0.67657 0.06393 0.82212 0.0
O41 O 0.66545 0.05961 0.75918 0.0
N42 N 0.69396 0.10013 0.69754 0.0
C43 C 0.70617 0.08825 0.60415 0.0
C44 C 0.70519 0.09016 0.6812 0.0
C45 C 0.68869 0.10446 0.62877 0.0
N46 N 0.69583 0.09733 0.5712 0.0
O47 O 0.72374 0.12404 0.80089 0.0
H48 H 0.71313 0.0855 0.72271 0.0
H49 H 0.68131 0.11413 0.6199 0.0
O50 O 0.68869 0.08354 0.84172 0.0
C51 C 0.73169 0.14111 0.7608 0.0
O52 O 0.71839 0.14581 0.72625 0.0
N53 N 0.66283 0.09963 0.78854 0.0
C54 C 0.62042 0.091 0.77773 0.0
C55 C 0.62596 0.07977 0.82944 0.0
C56 C 0.64736 0.08457 0.83487 0.0
C57 C 0.65787 0.11173 0.74263 0.0
C58 C 0.63676 0.10729 0.73448 0.0
H59 H 0.65146 0.0768 0.87862 0.0
H60 H 0.67055 0.12566 0.71472 0.0
H61 H 0.69457 0.0991 0.96812 0.0
H62 H 0.68953 0.15379 0.01166 0.0
H63 H 0.71447 0.08133 0.5747 0.0
H64 H 0.61395 0.06767 0.86622 0.0
H65 H 0.63341 0.1172 0.69717 0.0
C66 C 0.55572 0.68666 0.40954 0.0
C67 C 0.55269 0.68559 0.48668 0.0
N68 N 0.57051 0.6878 0.52012 0.0
N69 N 0.57532 0.68949 0.3944 0.0
C70 C 0.58399 0.69023 0.46286 0.0
H71 H 0.54437 0.68549 0.36708 0.0
Co72 Co 0.58684 0.69212 0.29837 0.0
C73 C 0.61946 0.67828 0.31565 0.0
O74 O 0.61444 0.66944 0.2482 0.0
N75 N 0.59854 0.69546 0.20074 0.0
C76 C 0.62216 0.70978 0.10673 0.0
C77 C 0.61942 0.70879 0.18379 0.0
C78 C 0.58885 0.68885 0.13265 0.0
N79 N 0.60289 0.69728 0.07455 0.0
O80 O 0.60341 0.72293 0.31131 0.0
H81 H 0.63183 0.71773 0.22503 0.0
H82 H 0.57172 0.67909 0.12512 0.0
O83 O 0.61 0.68807 0.34115 0.0
C84 C 0.59246 0.73052 0.28129 0.0
O85 O 0.57389 0.71684 0.25101 0.0
N86 N 0.56829 0.66232 0.28427 0.0
C87 C 0.5336 0.62019 0.26802 0.0
C88 C 0.55269 0.62433 0.30474 0.0
C89 C 0.56939 0.64547 0.31501 0.0
C90 C 0.54992 0.65871 0.24943 0.0
C91 C 0.53248 0.63803 0.24126 0.0
H92 H 0.58259 0.64798 0.35043 0.0
H93 H 0.54845 0.67222 0.23057 0.0
H94 H 0.60007 0.69298 0.4709 0.0
H95 H 0.5384 0.68318 0.51574 0.0
H96 H 0.63714 0.71931 0.07675 0.0
H97 H 0.55477 0.61154 0.32734 0.0
H98 H 0.51803 0.63642 0.21645 0.0
C99 C 0.87576 0.55257 0.91838 0.0
C100 C 0.87392 0.55018 0.99581 0.0
N101 N 0.88824 0.56898 0.02756 0.0
N102 N 0.89112 0.57278 0.90157 0.0
C103 C 0.89835 0.58241 0.96924 0.0
H104 H 0.86657 0.54033 0.87689 0.0
Co105 Co 0.89991 0.58417 0.8051 0.0
C106 C 0.94675 0.6145 0.82205 0.0
O107 O 0.95002 0.60825 0.75594 0.0
N108 N 0.90841 0.59602 0.70734 0.0
C109 C 0.91906 0.62059 0.61574 0.0
C110 C 0.91701 0.61719 0.69253 0.0
C111 C 0.90513 0.58689 0.63802 0.0
N112 N 0.91156 0.60147 0.58156 0.0
O113 O 0.88692 0.60182 0.81918 0.0
H114 H 0.92104 0.62942 0.7351 0.0
H115 H 0.89714 0.56986 0.6279 0.0
O116 O 0.92755 0.60655 0.84715 0.0
C117 C 0.86674 0.59057 0.80801 0.0
O118 O 0.85843 0.57006 0.79301 0.0
N119 N 0.91021 0.56486 0.79025 0.0
C120 C 0.91676 0.52976 0.77483 0.0
C121 C 0.93001 0.5471 0.82199 0.0
C122 C 0.92619 0.56428 0.83022 0.0
C123 C 0.89665 0.54769 0.74717 0.0
C124 C 0.89996 0.53035 0.73687 0.0
H125 H 0.93531 0.57633 0.87208 0.0
H126 H 0.88251 0.54699 0.72316 0.0
H127 H 0.9106 0.59905 0.97588 0.0
H128 H 0.86316 0.53567 0.02632 0.0
H129 H 0.92526 0.63588 0.58728 0.0
H130 H 0.94255 0.54692 0.85528 0.0
H131 H 0.88904 0.51727 0.70077 0.0
C132 C 0.32847 0.87278 0.37692 0.0
C133 C 0.32794 0.86967 0.45412 0.0
N134 N 0.32037 0.88142 0.4874 0.0
N135 N 0.32164 0.88674 0.36162 0.0
C136 C 0.31642 0.89137 0.42999 0.0
H137 H 0.33422 0.86595 0.33478 0.0
Co138 Co 0.32137 0.89835 0.26644 0.0
C139 C 0.33966 0.94412 0.31142 0.0
O140 O 0.35411 0.94992 0.25757 0.0
N141 N 0.31977 0.90916 0.1692 0.0
C142 C 0.3161 0.92726 0.07319 0.0
C143 C 0.31783 0.92635 0.15049 0.0
C144 C 0.31749 0.89909 0.10195 0.0
N145 N 0.31601 0.91012 0.04253 0.0
O146 O 0.29046 0.88416 0.27224 0.0
H147 H 0.31684 0.93726 0.18987 0.0
H148 H 0.31727 0.88401 0.09649 0.0
O149 O 0.32507 0.9244 0.31865 0.0
C150 C 0.28337 0.86536 0.24499 0.0
O151 O 0.29754 0.86022 0.2212 0.0
N152 N 0.35205 0.91043 0.25895 0.0
C153 C 0.39548 0.9209 0.25263 0.0
C154 C 0.38651 0.92379 0.31939 0.0
C155 C 0.36503 0.91881 0.32095 0.0
C156 C 0.36058 0.90763 0.19386 0.0
C157 C 0.38218 0.91356 0.18857 0.0
H158 H 0.35856 0.92067 0.37369 0.0
H159 H 0.35075 0.89984 0.14575 0.0
H160 H 0.31068 0.90256 0.43803 0.0
H161 H 0.333 0.85976 0.48354 0.0
H162 H 0.31446 0.93932 0.04209 0.0
H163 H 0.39551 0.92896 0.37153 0.0
H164 H 0.38797 0.91158 0.13443 0.0
C165 C 0.46097 0.32768 0.91153 0.0
C166 C 0.46326 0.32803 0.9889 0.0
N167 N 0.44374 0.32037 0.02046 0.0
N168 N 0.44013 0.32014 0.89462 0.0
C169 C 0.42997 0.31553 0.96219 0.0
H170 H 0.47374 0.3331 0.87025 0.0
Co171 Co 0.42889 0.31859 0.79837 0.0
C172 C 0.40069 0.33737 0.82295 0.0
O173 O 0.40855 0.34872 0.7608 0.0
N174 N 0.41721 0.31626 0.70063 0.0
C175 C 0.39312 0.30715 0.60796 0.0
C176 C 0.39615 0.30824 0.68497 0.0
C177 C 0.42637 0.31863 0.63162 0.0
N178 N 0.41217 0.31363 0.57469 0.0
O179 O 0.41067 0.28796 0.80908 0.0
H180 H 0.38353 0.30279 0.72686 0.0
H181 H 0.44289 0.32316 0.62226 0.0
O182 O 0.4069 0.32424 0.8434 0.0
C183 C 0.42188 0.27895 0.7982 0.0
O184 O 0.44257 0.29112 0.78599 0.0
N185 N 0.4488 0.34835 0.78609 0.0
C186 C 0.48421 0.38998 0.77376 0.0
C187 C 0.46768 0.38535 0.82577 0.0
C188 C 0.4504 0.36435 0.83239 0.0
C189 C 0.46527 0.35247 0.73814 0.0
C190 C 0.48273 0.37313 0.72945 0.0
H191 H 0.43906 0.36085 0.87775 0.0
H192 H 0.46575 0.3394 0.71034 0.0
H193 H 0.41294 0.30946 0.96882 0.0
H194 H 0.47812 0.33364 0.01966 0.0
H195 H 0.37799 0.30118 0.57868 0.0
H196 H 0.46862 0.39758 0.86387 0.0
H197 H 0.49529 0.37569 0.68987 0.0
C198 C 0.56284 0.8695 0.14046 0.0
C199 C 0.56024 0.86632 0.06332 0.0
N200 N 0.57554 0.8841 0.0286 0.0
N201 N 0.57975 0.88913 0.15408 0.0
C202 C 0.58719 0.89757 0.08478 0.0
H203 H 0.55306 0.85825 0.18395 0.0
Co204 Co 0.59011 0.90068 0.24941 0.0
C205 C 0.61697 0.94725 0.21712 0.0
O206 O 0.60818 0.95096 0.27622 0.0
N207 N 0.60104 0.91183 0.3474 0.0
C208 C 0.62454 0.92733 0.4415 0.0
C209 C 0.62188 0.92549 0.36428 0.0
C210 C 0.59168 0.90489 0.41612 0.0
N211 N 0.60545 0.91432 0.47406 0.0
O212 O 0.60871 0.88849 0.24671 0.0
H213 H 0.63471 0.93288 0.32323 0.0
H214 H 0.57564 0.89171 0.42455 0.0
O215 O 0.61205 0.92791 0.20163 0.0
C216 C 0.59956 0.8711 0.28509 0.0
O217 O 0.58103 0.86562 0.31714 0.0
N218 N 0.5697 0.91016 0.25304 0.0
C219 C 0.5348 0.91761 0.25855 0.0
C220 C 0.55038 0.92655 0.20083 0.0
C221 C 0.56756 0.92257 0.1989 0.0
C222 C 0.55389 0.90011 0.30552 0.0
C223 C 0.53711 0.90442 0.31192 0.0
H224 H 0.57858 0.92876 0.15178 0.0
H225 H 0.55342 0.88764 0.3402 0.0
H226 H 0.60106 0.91321 0.07511 0.0
H227 H 0.5479 0.85218 0.03504 0.0
H228 H 0.63951 0.937 0.47116 0.0
H229 H 0.54903 0.93589 0.15543 0.0
H230 H 0.52583 0.89682 0.35771 0.0
C231 C 0.68665 0.55291 0.59251 0.0
C232 C 0.68627 0.55062 0.5151 0.0
N233 N 0.69137 0.56961 0.48333 0.0
N234 N 0.692 0.57326 0.60929 0.0
C235 C 0.69486 0.58306 0.54165 0.0
H236 H 0.68314 0.54053 0.63402 0.0
Co237 Co 0.6946 0.58459 0.70566 0.0
C238 C 0.6784 0.61508 0.68862 0.0
O239 O 0.66845 0.60839 0.75389 0.0
N240 N 0.69798 0.5964 0.80336 0.0
C241 C 0.71216 0.62098 0.89463 0.0
C242 C 0.71063 0.61757 0.81788 0.0
C243 C 0.69227 0.58728 0.8728 0.0
N244 N 0.70058 0.60188 0.92902 0.0
O245 O 0.72529 0.60192 0.6921 0.0
H246 H 0.71881 0.62978 0.77514 0.0
H247 H 0.68327 0.57026 0.88318 0.0
O248 O 0.68982 0.60731 0.66361 0.0
C249 C 0.7341 0.59054 0.70273 0.0
O250 O 0.72178 0.56997 0.71681 0.0
N251 N 0.66484 0.56559 0.71995 0.0
C252 C 0.62271 0.53149 0.73601 0.0
C253 C 0.62743 0.54859 0.68666 0.0
C254 C 0.64866 0.56527 0.67827 0.0
C255 C 0.66063 0.54842 0.76427 0.0
C256 C 0.63971 0.53154 0.77479 0.0
H257 H 0.65205 0.57723 0.63541 0.0
H258 H 0.67376 0.54726 0.78877 0.0
H259 H 0.6997 0.59982 0.53509 0.0
H260 H 0.68219 0.53602 0.48462 0.0
H261 H 0.7214 0.63626 0.92294 0.0
H262 H 0.61491 0.54882 0.65346 0.0
H263 H 0.63702 0.51812 0.81014 0.0
C264 C 0.13989 0.68445 0.11496 0.0
C265 C 0.1421 0.68424 0.03758 0.0
N266 N 0.1292 0.69055 0.00544 0.0
N267 N 0.12537 0.69051 0.13128 0.0
C268 C 0.11941 0.69445 0.06338 0.0
H269 H 0.14776 0.67976 0.15662 0.0
Co270 Co 0.11461 0.69063 0.22692 0.0
C271 C 0.0678 0.67137 0.19849 0.0
O272 O 0.06411 0.65956 0.25951 0.0
N273 N 0.1041 0.6915 0.32502 0.0
C274 C 0.08831 0.6993 0.41893 0.0
C275 C 0.09058 0.69888 0.34174 0.0
C276 C 0.11074 0.68875 0.39376 0.0
N277 N 0.10112 0.69302 0.45137 0.0
O278 O 0.12681 0.72135 0.21976 0.0
H279 H 0.08342 0.70451 0.30056 0.0
H280 H 0.12313 0.68472 0.40248 0.0
O281 O 0.08719 0.685 0.1801 0.0
C282 C 0.14443 0.72999 0.25663 0.0
O283 O 0.15012 0.71729 0.29007 0.0
N284 N 0.10514 0.66086 0.23505 0.0
C285 C 0.09921 0.61929 0.24293 0.0
C286 C 0.08767 0.62429 0.19076 0.0
C287 C 0.0913 0.6453 0.1863 0.0
C288 C 0.11722 0.65642 0.28307 0.0
C289 C 0.11416 0.63575 0.28943 0.0
H290 H 0.08378 0.64915 0.14093 0.0
H291 H 0.1304 0.66925 0.31303 0.0
H292 H 0.10744 0.69922 0.05618 0.0
H293 H 0.15217 0.67953 0.00721 0.0
H294 H 0.07891 0.70489 0.44896 0.0
H295 H 0.07675 0.61238 0.15107 0.0
H296 H 0.12391 0.63288 0.32909 0.0
C297 C 0.4634 0.13638 0.57772 0.0
C298 C 0.46574 0.13821 0.50025 0.0
N299 N 0.44636 0.12567 0.4686 0.0
N300 N 0.44265 0.12272 0.5948 0.0
C301 C 0.43266 0.11661 0.52719 0.0
H302 H 0.47603 0.14451 0.61893 0.0
Co303 Co 0.43057 0.11458 0.69102 0.0
C304 C 0.39632 0.06811 0.67242 0.0
O305 O 0.39765 0.06356 0.74349 0.0
N306 N 0.41814 0.10683 0.78833 0.0
C307 C 0.39414 0.09933 0.88027 0.0
C308 C 0.39744 0.10078 0.80338 0.0
C309 C 0.4271 0.10913 0.85758 0.0
N310 N 0.41285 0.10462 0.91424 0.0
O311 O 0.41383 0.12841 0.67322 0.0
H312 H 0.38554 0.09811 0.76094 0.0
H313 H 0.44393 0.11516 0.86741 0.0
O314 O 0.40809 0.08727 0.64786 0.0
C315 C 0.42541 0.14869 0.68126 0.0
O316 O 0.44601 0.15686 0.6942 0.0
N317 N 0.44887 0.10335 0.71002 0.0
C318 C 0.48318 0.09578 0.73044 0.0
C319 C 0.465 0.08147 0.68845 0.0
C320 C 0.44811 0.08568 0.67807 0.0
C321 C 0.46656 0.11754 0.74957 0.0
C322 C 0.48356 0.11385 0.76208 0.0
H323 H 0.43518 0.07532 0.64093 0.0
H324 H 0.46776 0.13229 0.76975 0.0
H325 H 0.41556 0.10601 0.52093 0.0
H326 H 0.4806 0.14777 0.46968 0.0
H327 H 0.37924 0.09511 0.90896 0.0
H328 H 0.46424 0.06769 0.66074 0.0
H329 H 0.4971 0.12539 0.79506 0.0
C330 C 0.32669 0.457 0.10401 0.0
C331 C 0.32789 0.46006 0.02689 0.0
N332 N 0.32572 0.44225 0.99345 0.0
N333 N 0.3238 0.43737 0.11916 0.0
C334 C 0.32317 0.42874 0.05069 0.0
H335 H 0.32782 0.46834 0.14644 0.0
Co336 Co 0.32101 0.4258 0.21526 0.0
C337 C 0.3345 0.39284 0.19782 0.0
O338 O 0.34303 0.39753 0.26577 0.0
N339 N 0.31754 0.41408 0.31284 0.0
C340 C 0.30312 0.39049 0.40683 0.0
C341 C 0.30404 0.39324 0.32979 0.0
C342 C 0.32433 0.42374 0.38091 0.0
N343 N 0.31584 0.40971 0.43903 0.0
O344 O 0.29018 0.40939 0.20228 0.0
H345 H 0.29497 0.38087 0.28857 0.0
H346 H 0.33429 0.44084 0.38841 0.0
O347 O 0.32499 0.40258 0.1723 0.0
C348 C 0.28291 0.42083 0.23067 0.0
O349 O 0.29685 0.43955 0.25937 0.0
N350 N 0.35081 0.44424 0.22964 0.0
C351 C 0.39288 0.47899 0.24598 0.0
C352 C 0.38884 0.45981 0.21016 0.0
C353 C 0.36772 0.44304 0.19993 0.0
C354 C 0.35434 0.46266 0.26383 0.0
C355 C 0.37499 0.48014 0.27197 0.0
H356 H 0.36529 0.42971 0.16536 0.0
H357 H 0.3408 0.46415 0.28219 0.0
H358 H 0.32042 0.41267 0.04258 0.0
H359 H 0.33037 0.47437 0.99783 0.0
H360 H 0.29351 0.37553 0.43677 0.0
H361 H 0.40171 0.45772 0.18828 0.0
H362 H 0.37653 0.49464 0.29613 0.0
C363 C 0.87346 0.32446 0.60418 0.0
C364 C 0.87124 0.32482 0.52682 0.0
N365 N 0.88602 0.32117 0.49387 0.0
N366 N 0.88954 0.32059 0.61974 0.0
C367 C 0.89677 0.31852 0.55149 0.0
H368 H 0.86412 0.32707 0.64646 0.0
Co369 Co 0.8992 0.31898 0.71556 0.0
C370 C 0.94553 0.3342 0.69269 0.0
O371 O 0.94946 0.34475 0.75684 0.0
N372 N 0.90851 0.31654 0.81326 0.0
C373 C 0.91911 0.30282 0.90557 0.0
C374 C 0.91727 0.30415 0.82867 0.0
C375 C 0.90485 0.32223 0.88238 0.0
N376 N 0.91125 0.3142 0.93924 0.0
O377 O 0.88465 0.28805 0.70714 0.0
H378 H 0.92126 0.29581 0.78652 0.0
H379 H 0.89633 0.33078 0.89206 0.0
O380 O 0.92607 0.32257 0.67066 0.0
C381 C 0.86628 0.28124 0.73797 0.0
O382 O 0.86196 0.29563 0.76559 0.0
N383 N 0.91081 0.34899 0.72514 0.0
C384 C 0.92003 0.39158 0.73699 0.0
C385 C 0.93143 0.38597 0.68619 0.0
C386 C 0.9263 0.36449 0.68007 0.0
C387 C 0.89868 0.35407 0.77056 0.0
C388 C 0.90338 0.37524 0.77911 0.0
H389 H 0.93409 0.36036 0.63646 0.0
H390 H 0.88449 0.34144 0.79743 0.0
H391 H 0.90954 0.3149 0.54387 0.0
H392 H 0.85993 0.32795 0.49724 0.0
H393 H 0.9252 0.2937 0.93447 0.0
H394 H 0.94385 0.39797 0.65032 0.0
H395 H 0.89333 0.37863 0.81562 0.0
C396 C 0.02833 0.38211 0.35404 0.0
C397 C 0.04721 0.38106 0.36174 0.0
C398 C 0.01169 0.37265 0.40752 0.0
C399 C 0.01364 0.36134 0.46975 0.0
C400 C 0.0323 0.35949 0.47637 0.0
C401 C 0.04899 0.36962 0.42288 0.0
C402 C 0.99268 0.37603 0.39967 0.0
C403 C 0.03497 0.34751 0.5416 0.0
C404 C 0.98272 0.35943 0.64719 0.0
C405 C 0.96357 0.33977 0.6393 0.0
C406 C 0.99927 0.36638 0.59347 0.0
C407 C 0.99695 0.35313 0.5308 0.0
C408 C 0.978 0.33286 0.52397 0.0
C409 C 0.9614 0.32654 0.57769 0.0
C410 C 0.01857 0.38856 0.60162 0.0
C411 C 0.97503 0.31814 0.45862 0.0
H412 H 0.02687 0.39119 0.30777 0.0
H413 H 0.06353 0.36877 0.42937 0.0
H414 H 0.97744 0.36114 0.41262 0.0
H415 H 0.99433 0.3884 0.44087 0.0
H416 H 0.99156 0.38153 0.34198 0.0
H417 H 0.04909 0.34532 0.53401 0.0
H418 H 0.03707 0.3565 0.59489 0.0
H419 H 0.02037 0.33151 0.54814 0.0
H420 H 0.98445 0.36998 0.69377 0.0
H421 H 0.94665 0.31136 0.57112 0.0
H422 H 0.01666 0.39971 0.56331 0.0
H423 H 0.03357 0.38884 0.58523 0.0
H424 H 0.02032 0.39471 0.66037 0.0
H425 H 0.9741 0.3256 0.40487 0.0
H426 H 0.96022 0.30226 0.46451 0.0
H427 H 0.98905 0.3157 0.45426 0.0
C428 C 0.65315 0.02607 0.8658 0.0
C429 C 0.67149 0.04625 0.87679 0.0
C430 C 0.64629 0.00986 0.92082 0.0
C431 C 0.65824 0.01363 0.98828 0.0
C432 C 0.67737 0.03359 0.99822 0.0
C433 C 0.68368 0.04972 0.94269 0.0
C434 C 0.62553 0.98911 0.90847 0.0
C435 C 0.69071 0.03816 0.06888 0.0
C436 C 0.6262 0.98273 0.16134 0.0
C437 C 0.6292 0.9649 0.1621 0.0
C438 C 0.63592 0.99885 0.10622 0.0
C439 C 0.64947 0.99748 0.05101 0.0
C440 C 0.65324 0.97993 0.05305 0.0
C441 C 0.64279 0.96366 0.10785 0.0
C442 C 0.63057 0.01665 0.10473 0.0
C443 C 0.66788 0.97806 0.99621 0.0
H444 H 0.64351 0.02317 0.81542 0.0
H445 H 0.69792 0.06519 0.95161 0.0
H446 H 0.62781 0.97518 0.91869 0.0
H447 H 0.61331 0.98799 0.94949 0.0
H448 H 0.61915 0.98788 0.85034 0.0
H449 H 0.70583 0.05387 0.06606 0.0
H450 H 0.68136 0.03821 0.11878 0.0
H451 H 0.69471 0.02531 0.07806 0.0
H452 H 0.61546 0.9837 0.20217 0.0
H453 H 0.64519 0.94994 0.10803 0.0
H454 H 0.61904 0.01358 0.05821 0.0
H455 H 0.64503 0.0324 0.09349 0.0
H456 H 0.62319 0.0177 0.15865 0.0
H457 H 0.66039 0.97473 0.93933 0.0
H458 H 0.67122 0.965 0.01089 0.0
H459 H 0.68332 0.99341 0.99244 0.0
C460 C 0.65236 0.62612 0.64501 0.0
C461 C 0.67255 0.62776 0.63772 0.0
C462 C 0.64536 0.6361 0.5932 0.0
C463 C 0.65912 0.64862 0.53359 0.0
C464 C 0.67991 0.65109 0.52777 0.0
C465 C 0.68623 0.6403 0.5791 0.0
C466 C 0.62274 0.63216 0.59985 0.0
C467 C 0.69523 0.66462 0.46604 0.0
C468 C 0.6319 0.65303 0.35572 0.0
C469 C 0.63165 0.67218 0.36805 0.0
C470 C 0.64116 0.64545 0.40833 0.0
C471 C 0.651 0.65758 0.47425 0.0
C472 C 0.65162 0.67741 0.48553 0.0
C473 C 0.64161 0.6843 0.43292 0.0
C474 C 0.6392 0.62379 0.39531 0.0
C475 C 0.66234 0.69104 0.5542 0.0
H476 H 0.64153 0.61616 0.68939 0.0
H477 H 0.70184 0.64162 0.5732 0.0
H478 H 0.62246 0.64736 0.5946 0.0
H479 H 0.61291 0.62155 0.55295 0.0
H480 H 0.61507 0.62439 0.65435 0.0
H481 H 0.7116 0.6671 0.47474 0.0
H482 H 0.68922 0.65671 0.41047 0.0
H483 H 0.69623 0.68051 0.46337 0.0
H484 H 0.62393 0.64335 0.30643 0.0
H485 H 0.64146 0.69909 0.4428 0.0
H486 H 0.62745 0.61206 0.4361 0.0
H487 H 0.65472 0.62447 0.40533 0.0
H488 H 0.63372 0.61773 0.33707 0.0
H489 H 0.65306 0.68279 0.60577 0.0
H490 H 0.66356 0.70702 0.55054 0.0
H491 H 0.67868 0.69331 0.56104 0.0
C492 C 0.03166 0.64541 0.14724 0.0
C493 C 0.04988 0.66597 0.14507 0.0
C494 C 0.01512 0.63904 0.09401 0.0
C495 C 0.01644 0.65375 0.03807 0.0
C496 C 0.03444 0.67482 0.03716 0.0
C497 C 0.05114 0.68057 0.08989 0.0
C498 C 0.99661 0.61622 0.0959 0.0
C499 C 0.03621 0.69117 0.97984 0.0
C500 C 0.98505 0.62824 0.85817 0.0
C501 C 0.9653 0.62701 0.87325 0.0
C502 C 1.00207 0.63758 0.91008 0.0
C503 C 0.99954 0.64642 0.97828 0.0
C504 C 0.98003 0.64626 0.99207 0.0
C505 C 0.96306 0.63634 0.93984 0.0
C506 C 0.02231 0.63686 0.89374 0.0
C507 C 0.97693 0.65611 0.06293 0.0
H508 H 0.03064 0.63391 0.18904 0.0
H509 H 0.06515 0.69649 0.088 0.0
H510 H 0.98113 0.61603 0.09951 0.0
H511 H 0.99638 0.60792 0.04269 0.0
H512 H 0.99764 0.60695 0.1444 0.0
H513 H 0.04977 0.70748 0.99235 0.0
H514 H 0.03866 0.68646 0.92258 0.0
H515 H 0.02111 0.6918 0.97833 0.0
H516 H 0.98695 0.62099 0.80715 0.0
H517 H 0.94792 0.63561 0.95169 0.0
H518 H 0.02423 0.62665 0.93655 0.0
H519 H 0.03657 0.65313 0.89791 0.0
H520 H 0.02215 0.63032 0.83663 0.0
H521 H 0.97794 0.64755 0.11356 0.0
H522 H 0.96121 0.65554 0.06377 0.0
H523 H 0.98995 0.67307 0.06769 0.0
C524 C 0.36625 0.03118 0.64201 0.0
C525 C 0.38436 0.05025 0.61827 0.0
C526 C 0.35611 0.0133 0.59365 0.0
C527 C 0.36472 0.01425 0.52064 0.0
C528 C 0.3828 0.03363 0.49598 0.0
C529 C 0.39217 0.05147 0.54459 0.0
C530 C 0.33662 0.99315 0.62165 0.0
C531 C 0.39292 0.03518 0.4196 0.0
C532 C 0.3578 0.96337 0.42886 0.0
C533 C 0.34313 0.95985 0.37106 0.0
C534 C 0.36436 0.98055 0.47953 0.0
C535 C 0.35601 0.99461 0.4722 0.0
C536 C 0.3405 0.99059 0.4155 0.0
C537 C 0.33436 0.97331 0.36506 0.0
C538 C 0.38104 0.98425 0.5385 0.0
C539 C 0.33099 1.00498 0.40642 0.0
H540 H 0.36012 0.03017 0.69886 0.0
H541 H 0.40636 0.06604 0.52626 0.0
H542 H 0.32366 0.98712 0.57867 0.0
H543 H 0.34077 0.98041 0.63087 0.0
H544 H 0.33037 0.99581 0.67563 0.0
H545 H 0.40694 0.05135 0.40882 0.0
H546 H 0.39833 0.02322 0.41589 0.0
H547 H 0.38095 0.03138 0.37413 0.0
H548 H 0.36482 0.95314 0.43268 0.0
H549 H 0.32323 0.97072 0.31953 0.0
H550 H 0.37514 0.98513 0.59566 0.0
H551 H 0.39582 0.99984 0.52773 0.0
H552 H 0.38529 0.97139 0.53861 0.0
H553 H 0.32509 0.00727 0.46173 0.0
H554 H 0.31752 0.99841 0.3653 0.0
H555 H 0.34354 0.02102 0.38637 0.0
C556 C 0.39085 0.36357 0.87438 0.0
C557 C 0.38788 0.34276 0.87505 0.0
C558 C 0.3803 0.36984 0.92656 0.0
C559 C 0.36585 0.35475 0.97959 0.0
C560 C 0.36213 0.33344 0.97868 0.0
C561 C 0.37351 0.3278 0.92735 0.0
C562 C 0.38541 0.39292 0.92705 0.0
C563 C 0.34637 0.3167 0.03263 0.0
C564 C 0.35855 0.37848 0.16181 0.0
C565 C 0.34062 0.38062 0.14533 0.0
C566 C 0.36651 0.36952 0.10933 0.0
C567 C 0.35597 0.36191 0.03904 0.0
C568 C 0.33719 0.36299 0.02354 0.0
C569 C 0.3299 0.37259 0.07642 0.0
C570 C 0.38692 0.36933 0.12758 0.0
C571 C 0.32512 0.35448 0.95028 0.0
H572 H 0.40215 0.37531 0.83481 0.0
H573 H 0.37111 0.31168 0.92792 0.0
H574 H 0.37048 0.39377 0.92287 0.0
H575 H 0.39322 0.40055 0.98137 0.0
H576 H 0.39626 0.4024 0.87991 0.0
H577 H 0.34331 0.30036 0.01855 0.0
H578 H 0.35268 0.32058 0.09119 0.0
H579 H 0.33091 0.31662 0.03178 0.0
H580 H 0.36708 0.38477 0.21456 0.0
H581 H 0.31597 0.37406 0.06341 0.0
H582 H 0.39966 0.37967 0.08671 0.0
H583 H 0.38439 0.35288 0.12196 0.0
H584 H 0.39277 0.37517 0.18573 0.0
H585 H 0.33532 0.36394 0.90196 0.0
H586 H 0.31003 0.35515 0.94894 0.0
H587 H 0.32118 0.33761 0.94182 0.0
C588 C 0.07664 0.57895 0.24079 0.0
C589 C 0.09691 0.59752 0.24536 0.0
C590 C 0.07443 0.5584 0.24394 0.0
C591 C 0.09293 0.55635 0.25166 0.0
C592 C 0.11342 0.57503 0.25572 0.0
C593 C 0.11515 0.59532 0.25232 0.0
C594 C 0.05232 0.53887 0.23937 0.0
C595 C 0.13357 0.5736 0.26349 0.0
C596 C 0.09003 0.5056 0.32894 0.0
C597 C 0.09246 0.49619 0.2629 0.0
C598 C 0.08933 0.52477 0.32589 0.0
C599 C 0.09108 0.53477 0.25511 0.0
C600 C 0.09269 0.5249 0.18803 0.0
C601 C 0.09338 0.50577 0.19275 0.0
C602 C 0.08766 0.53479 0.39874 0.0
C603 C 0.09446 0.53495 0.1114 0.0
H604 H 0.06246 0.5805 0.23586 0.0
H605 H 0.13092 0.60953 0.25422 0.0
H606 H 0.05148 0.5287 0.19086 0.0
H607 H 0.04898 0.52904 0.29134 0.0
H608 H 0.03958 0.54316 0.2327 0.0
H609 H 0.14827 0.58965 0.26654 0.0
H610 H 0.13265 0.56448 0.31532 0.0
H611 H 0.13511 0.56479 0.21462 0.0
H612 H 0.08954 0.49845 0.38344 0.0
H613 H 0.09495 0.49844 0.14139 0.0
H614 H 0.07453 0.53859 0.395 0.0
H615 H 0.10279 0.55012 0.40841 0.0
H616 H 0.08467 0.52417 0.44837 0.0
H617 H 0.08125 0.53849 0.10352 0.0
H618 H 0.09396 0.52447 0.06439 0.0
H619 H 0.10977 0.55042 0.10769 0.0
C620 C 0.52306 0.11066 0.7356 0.0
C621 C 0.50223 0.09279 0.7377 0.0
C622 C 0.54123 0.10843 0.74375 0.0
C623 C 0.5387 0.08775 0.7528 0.0
C624 C 0.5178 0.06956 0.75383 0.0
C625 C 0.49981 0.07229 0.74663 0.0
C626 C 0.5632 0.12829 0.74248 0.0
C627 C 0.51445 0.04722 0.76247 0.0
C628 C 0.58874 0.08534 0.70125 0.0
C629 C 0.59816 0.08718 0.77232 0.0
C630 C 0.56877 0.08425 0.69438 0.0
C631 C 0.55811 0.08541 0.76011 0.0
C632 C 0.56716 0.08642 0.83225 0.0
C633 C 0.58702 0.08715 0.83752 0.0
C634 C 0.55955 0.08281 0.61648 0.0
C635 C 0.55648 0.08796 0.90366 0.0
H636 H 0.52525 0.12653 0.7267 0.0
H637 H 0.48384 0.05837 0.74889 0.0
H638 H 0.57205 0.12917 0.79498 0.0
H639 H 0.57265 0.12752 0.69416 0.0
H640 H 0.5624 0.14326 0.73743 0.0
H641 H 0.49721 0.03471 0.76101 0.0
H642 H 0.52295 0.04396 0.71651 0.0
H643 H 0.52139 0.04588 0.81682 0.0
H644 H 0.59724 0.08517 0.65078 0.0
H645 H 0.59434 0.08877 0.89251 0.0
H646 H 0.56004 0.09809 0.6028 0.0
H647 H 0.5425 0.06988 0.61473 0.0
H648 H 0.56857 0.07966 0.57203 0.0
H649 H 0.55686 0.10357 0.90474 0.0
H650 H 0.56451 0.0867 0.95546 0.0
H651 H 0.53938 0.07514 0.90503 0.0
C652 C 0.49872 0.59296 0.20607 0.0
C653 C 0.51459 0.59783 0.26139 0.0
C654 C 0.47967 0.57302 0.20449 0.0
C655 C 0.47686 0.55674 0.2559 0.0
C656 C 0.49336 0.56079 0.30805 0.0
C657 C 0.51163 0.58138 0.31181 0.0
C658 C 0.46222 0.56969 0.14943 0.0
C659 C 0.4916 0.54352 0.36108 0.0
C660 C 0.41994 0.51401 0.30747 0.0
C661 C 0.4152 0.49807 0.25251 0.0
C662 C 0.4398 0.53314 0.30881 0.0
C663 C 0.45614 0.53597 0.25758 0.0
C664 C 0.45222 0.51941 0.20582 0.0
C665 C 0.4317 0.50104 0.20228 0.0
C666 C 0.44299 0.55064 0.36344 0.0
C667 C 0.46956 0.5212 0.15301 0.0
H668 H 0.50083 0.6048 0.16409 0.0
H669 H 0.52324 0.58446 0.35578 0.0
H670 H 0.45924 0.5567 0.10913 0.0
H671 H 0.447 0.56467 0.18043 0.0
H672 H 0.46635 0.58443 0.11654 0.0
H673 H 0.50733 0.54775 0.38659 0.0
H674 H 0.48027 0.54117 0.40757 0.0
H675 H 0.48529 0.528 0.33088 0.0
H676 H 0.40805 0.51188 0.34932 0.0
H677 H 0.4287 0.48935 0.15864 0.0
H678 H 0.44796 0.5658 0.33212 0.0
H679 H 0.45596 0.55375 0.40396 0.0
H680 H 0.42821 0.54649 0.3961 0.0
H681 H 0.47182 0.53238 0.10615 0.0
H682 H 0.46546 0.50544 0.12798 0.0
H683 H 0.4851 0.5277 0.18322 0.0
C684 C 0.90126 0.48985 0.76652 0.0
C685 C 0.91939 0.51049 0.76907 0.0
C686 C 0.90326 0.4715 0.76029 0.0
C687 C 0.92392 0.47367 0.75758 0.0
C688 C 0.94233 0.49439 0.76094 0.0
C689 C 0.93986 0.51256 0.76644 0.0
C690 C 0.88319 0.44972 0.75691 0.0
C691 C 0.96462 0.49735 0.75878 0.0
C692 C 0.92456 0.42298 0.81289 0.0
C693 C 0.92399 0.4139 0.74208 0.0
C694 C 0.92568 0.44298 0.81878 0.0
C695 C 0.92601 0.4541 0.75221 0.0
C696 C 0.92634 0.44543 0.68054 0.0
C697 C 0.92542 0.42548 0.67634 0.0
C698 C 0.92558 0.45175 0.89629 0.0
C699 C 0.92651 0.45668 0.60822 0.0
H700 H 0.88538 0.48796 0.77039 0.0
H701 H 0.95396 0.5284 0.76782 0.0
H702 H 0.88325 0.44119 0.70467 0.0
H703 H 0.88275 0.4398 0.8057 0.0
H704 H 0.86833 0.45081 0.7577 0.0
H705 H 0.97729 0.5145 0.76264 0.0
H706 H 0.9667 0.48846 0.80626 0.0
H707 H 0.96694 0.4906 0.70553 0.0
H708 H 0.92368 0.41418 0.86386 0.0
H709 H 0.92477 0.41845 0.62146 0.0
H710 H 0.9102 0.45153 0.90521 0.0
H711 H 0.93867 0.46867 0.90091 0.0
H712 H 0.92748 0.44227 0.94218 0.0
H713 H 0.91109 0.45656 0.60255 0.0
H714 H 0.92873 0.4489 0.55744 0.0
H715 H 0.93949 0.4737 0.60958 0.0
C716 C 0.51621 0.93878 0.22683 0.0
C717 C 0.5156 0.92073 0.26045 0.0
C718 C 0.49788 0.94105 0.22447 0.0
C719 C 0.47868 0.9255 0.25983 0.0
C720 C 0.47816 0.90783 0.29685 0.0
C721 C 0.49627 0.90533 0.29471 0.0
C722 C 0.49884 0.95966 0.18157 0.0
C723 C 0.45823 0.89115 0.33733 0.0
C724 C 0.43347 0.93694 0.30395 0.0
C725 C 0.41775 0.92386 0.25084 0.0
C726 C 0.45351 0.93796 0.30707 0.0
C727 C 0.45854 0.92653 0.25339 0.0
C728 C 0.44342 0.91441 0.19689 0.0
C729 C 0.42313 0.91269 0.19771 0.0
C730 C 0.46888 0.95041 0.37012 0.0
C731 C 0.44834 0.90254 0.13678 0.0
H732 H 0.53092 0.95115 0.20145 0.0
H733 H 0.49484 0.89086 0.31878 0.0
H734 H 0.48743 0.95349 0.13343 0.0
H735 H 0.49384 0.96885 0.21847 0.0
H736 H 0.51514 0.97077 0.15912 0.0
H737 H 0.46138 0.88022 0.37249 0.0
H738 H 0.45169 0.89899 0.37437 0.0
H739 H 0.44566 0.88133 0.29539 0.0
H740 H 0.43013 0.94618 0.34436 0.0
H741 H 0.41139 0.90192 0.15748 0.0
H742 H 0.48491 0.96192 0.34694 0.0
H743 H 0.47094 0.93916 0.40745 0.0
H744 H 0.46312 0.95937 0.40503 0.0
H745 H 0.46453 0.91302 0.11236 0.0
H746 H 0.43641 0.89679 0.09016 0.0
H747 H 0.44829 0.88844 0.16231 0.0
C748 C 0.50198 0.43035 0.77343 0.0
C749 C 0.50366 0.41176 0.76948 0.0
C750 C 0.52031 0.4509 0.76886 0.0
C751 C 0.54081 0.45291 0.75997 0.0
C752 C 0.54261 0.43422 0.75639 0.0
C753 C 0.52408 0.41395 0.76158 0.0
C754 C 0.51776 0.47045 0.77326 0.0
C755 C 0.56414 0.4356 0.74715 0.0
C756 C 0.58825 0.50319 0.67798 0.0
C757 C 0.60061 0.51276 0.74279 0.0
C758 C 0.56834 0.48413 0.68301 0.0
C759 C 0.56053 0.47446 0.75461 0.0
C760 C 0.57251 0.48457 0.82054 0.0
C761 C 0.59242 0.50353 0.8138 0.0
C762 C 0.55614 0.47381 0.6113 0.0
C763 C 0.56469 0.47493 0.89801 0.0
H764 H 0.48628 0.42885 0.77908 0.0
H765 H 0.52567 0.39975 0.76031 0.0
H766 H 0.52741 0.48085 0.82082 0.0
H767 H 0.52391 0.48004 0.72061 0.0
H768 H 0.50077 0.46619 0.78138 0.0
H769 H 0.56276 0.41954 0.74425 0.0
H770 H 0.5721 0.44457 0.69473 0.0
H771 H 0.57474 0.44456 0.79527 0.0
H772 H 0.59456 0.51009 0.62285 0.0
H773 H 0.6018 0.51099 0.86417 0.0
H774 H 0.53925 0.47007 0.61649 0.0
H775 H 0.55584 0.45842 0.60186 0.0
H776 H 0.56346 0.4842 0.56091 0.0
H777 H 0.54796 0.47136 0.90703 0.0
H778 H 0.57492 0.4857 0.944 0.0
H779 H 0.56464 0.45952 0.90233 0.0
C780 C 0.14014 0.44169 0.63642 0.0
C781 C 0.12304 0.43357 0.58494 0.0
C782 C 0.13647 0.43777 0.71443 0.0
C783 C 0.11517 0.42552 0.7417 0.0
C784 C 0.09783 0.41743 0.69014 0.0
C785 C 0.10197 0.42156 0.61247 0.0
C786 C 0.15541 0.44646 0.76755 0.0
C787 C 0.07489 0.40442 0.71703 0.0
C788 C 0.10557 0.39731 0.9315 0.0
C789 C 0.10287 0.41125 0.97987 0.0
C790 C 0.10969 0.40183 0.85406 0.0
C791 C 0.11103 0.4207 0.82399 0.0
C792 C 0.10826 0.43482 0.87241 0.0
C793 C 0.10431 0.42996 0.94985 0.0
C794 C 0.11269 0.38644 0.80442 0.0
C795 C 0.10939 0.45499 0.84235 0.0
H796 H 0.15645 0.45076 0.61553 0.0
H797 H 0.08864 0.41555 0.5733 0.0
H798 H 0.15396 0.45675 0.81115 0.0
H799 H 0.1556 0.43302 0.79759 0.0
H800 H 0.17094 0.456 0.7375 0.0
H801 H 0.06333 0.39833 0.66936 0.0
H802 H 0.07271 0.39052 0.75115 0.0
H803 H 0.07095 0.41442 0.75406 0.0
H804 H 0.10484 0.38301 0.95449 0.0
H805 H 0.10206 0.44067 0.98688 0.0
H806 H 0.12868 0.39491 0.7768 0.0
H807 H 0.10048 0.38029 0.75879 0.0
H808 H 0.11134 0.37257 0.83671 0.0
H809 H 0.12523 0.46538 0.81543 0.0
H810 H 0.10693 0.46431 0.88746 0.0
H811 H 0.097 0.45084 0.79811 0.0
C812 C 0.71152 0.10405 0.44278 0.0
C813 C 0.69478 0.10098 0.49141 0.0
C814 C 0.71095 0.10808 0.36533 0.0
C815 C 0.69313 0.10892 0.3355 0.0
C816 C 0.67612 0.10571 0.38416 0.0
C817 C 0.6772 0.10188 0.46158 0.0
C818 C 0.72951 0.1116 0.3155 0.0
C819 C 0.65674 0.10625 0.35437 0.0
C820 C 0.70046 0.13806 0.14848 0.0
C821 C 0.6919 0.12103 0.09668 0.0
C822 C 0.70085 0.13436 0.22639 0.0
C823 C 0.69232 0.11308 0.25328 0.0
C824 C 0.68341 0.09579 0.2014 0.0
C825 C 0.68337 0.09998 0.1238 0.0
C826 C 0.71068 0.15324 0.27983 0.0
C827 C 0.67403 0.07287 0.22784 0.0
H828 H 0.72531 0.10373 0.4656 0.0
H829 H 0.66414 0.09932 0.49877 0.0
H830 H 0.72373 0.09949 0.26954 0.0
H831 H 0.73671 0.12763 0.28832 0.0
H832 H 0.74221 0.11054 0.34756 0.0
H833 H 0.64482 0.10335 0.39954 0.0
H834 H 0.66177 0.12206 0.32797 0.0
H835 H 0.64881 0.0939 0.30977 0.0
H836 H 0.70728 0.15436 0.12788 0.0
H837 H 0.67642 0.08669 0.08435 0.0
H838 H 0.72448 0.15377 0.30976 0.0
H839 H 0.69879 0.15143 0.32351 0.0
H840 H 0.71633 0.16876 0.25008 0.0
H841 H 0.68667 0.07067 0.25515 0.0
H842 H 0.667 0.06124 0.18065 0.0
H843 H 0.66137 0.06908 0.27082 0.0
C844 C 0.58862 0.68136 0.62727 0.0
C845 C 0.57453 0.68799 0.60016 0.0
C846 C 0.59304 0.68192 0.70487 0.0
C847 C 0.58312 0.6893 0.75666 0.0
C848 C 0.56872 0.69579 0.72978 0.0
C849 C 0.56458 0.69503 0.65193 0.0
C850 C 0.60841 0.67476 0.73139 0.0
C851 C 0.55799 0.70395 0.78314 0.0
C852 C 0.58088 0.67605 0.96611 0.0
C853 C 0.59807 0.69504 0.99477 0.0
C854 C 0.57596 0.67381 0.88853 0.0
C855 C 0.58844 0.69105 0.83864 0.0
C856 C 0.60584 0.71023 0.86726 0.0
C857 C 0.61045 0.71197 0.94485 0.0
C858 C 0.55738 0.65306 0.85999 0.0
C859 C 0.61943 0.72904 0.81602 0.0
H860 H 0.5961 0.67556 0.58781 0.0
H861 H 0.55391 0.70044 0.63142 0.0
H862 H 0.62195 0.68794 0.76258 0.0
H863 H 0.60011 0.66107 0.77116 0.0
H864 H 0.61503 0.6698 0.68377 0.0
H865 H 0.54671 0.70777 0.75347 0.0
H866 H 0.54902 0.69181 0.82757 0.0
H867 H 0.57033 0.71864 0.81211 0.0
H868 H 0.57141 0.66286 1.00432 0.0
H869 H 0.62354 0.72681 0.96672 0.0
H870 H 0.56302 0.64607 0.81578 0.0
H871 H 0.54523 0.65616 0.83344 0.0
H872 H 0.54951 0.64105 0.9059 0.0
H873 H 0.62661 0.72406 0.77038 0.0
H874 H 0.63256 0.74272 0.84706 0.0
H875 H 0.60926 0.73465 0.78847 0.0
C876 C 0.90484 0.60996 0.45275 0.0
C877 C 0.90923 0.59724 0.50143 0.0
C878 C 0.90187 0.60563 0.37492 0.0
C879 C 0.90352 0.58827 0.34491 0.0
C880 C 0.90828 0.57557 0.39358 0.0
C881 C 0.91095 0.58014 0.47135 0.0
C882 C 0.89656 0.61938 0.32503 0.0
C883 C 0.91043 0.5571 0.36353 0.0
C884 C 0.87527 0.56384 0.15932 0.0
C885 C 0.89213 0.57372 0.10707 0.0
C886 C 0.87876 0.56843 0.23688 0.0
C887 C 0.89969 0.58308 0.2629 0.0
C888 C 0.91684 0.59294 0.21048 0.0
C889 C 0.91282 0.58825 0.13311 0.0
C890 C 0.86001 0.55778 0.29088 0.0
C891 C 0.93943 0.60846 0.23608 0.0
H892 H 0.90321 0.623 0.47587 0.0
H893 H 0.91459 0.57045 0.50871 0.0
H894 H 0.90857 0.62662 0.27891 0.0
H895 H 0.88069 0.60931 0.29807 0.0
H896 H 0.89617 0.63247 0.35702 0.0
H897 H 0.91488 0.54923 0.40845 0.0
H898 H 0.89506 0.54491 0.33782 0.0
H899 H 0.92281 0.56283 0.31836 0.0
H900 H 0.85923 0.5528 0.13926 0.0
H901 H 0.92595 0.5957 0.09299 0.0
H902 H 0.85799 0.57016 0.32119 0.0
H903 H 0.86313 0.54851 0.33419 0.0
H904 H 0.84476 0.54677 0.26153 0.0
H905 H 0.94 0.62274 0.26223 0.0
H906 H 0.95112 0.61387 0.18863 0.0
H907 H 0.94451 0.60086 0.27984 0.0
C908 C 0.33391 0.88471 0.61812 0.0
C909 C 0.31871 0.88434 0.56759 0.0
C910 C 0.33307 0.88845 0.69587 0.0
C911 C 0.31638 0.89153 0.72435 0.0
C912 C 0.30073 0.89075 0.67376 0.0
C913 C 0.30221 0.8874 0.59599 0.0
C914 C 0.35035 0.8896 0.74731 0.0
C915 C 0.28247 0.89357 0.70173 0.0
C916 C 0.30541 0.88404 0.93711 0.0
C917 C 0.31558 0.90532 0.96283 0.0
C918 C 0.30519 0.8793 0.85963 0.0
C919 C 0.31573 0.89623 0.80658 0.0
C920 C 0.32606 0.91774 0.83236 0.0
C921 C 0.3257 0.922 0.90987 0.0
C922 C 0.29365 0.85617 0.8345 0.0
C923 C 0.33781 0.9363 0.7782 0.0
H924 H 0.34687 0.88268 0.5964 0.0
H925 H 0.29033 0.88694 0.5573 0.0
H926 H 0.35908 0.90566 0.77422 0.0
H927 H 0.34306 0.8776 0.79341 0.0
H928 H 0.36212 0.88666 0.71655 0.0
H929 H 0.27101 0.89145 0.65591 0.0
H930 H 0.2736 0.88183 0.7474 0.0
H931 H 0.28886 0.90983 0.72622 0.0
H932 H 0.29738 0.8711 0.97757 0.0
H933 H 0.33385 0.93847 0.92941 0.0
H934 H 0.30519 0.85218 0.80785 0.0
H935 H 0.28145 0.8536 0.79115 0.0
H936 H 0.28557 0.8449 0.88225 0.0
H937 H 0.35073 0.93492 0.74893 0.0
H938 H 0.34508 0.95208 0.80723 0.0
H939 H 0.32667 0.93587 0.73405 0.0
C940 C 0.40691 0.32205 0.44425 0.0
C941 C 0.41628 0.31415 0.49484 0.0
C942 C 0.41109 0.32307 0.36626 0.0
C943 C 0.42452 0.31547 0.33819 0.0
C944 C 0.43368 0.30707 0.38907 0.0
C945 C 0.42967 0.30677 0.46697 0.0
C946 C 0.40145 0.33263 0.31412 0.0
C947 C 0.44766 0.29834 0.36121 0.0
C948 C 0.42036 0.30139 0.12904 0.0
C949 C 0.43884 0.31908 0.09987 0.0
C950 C 0.41558 0.29985 0.2067 0.0
C951 C 0.42936 0.31671 0.25579 0.0
C952 C 0.44787 0.3348 0.22618 0.0
C953 C 0.45251 0.33563 0.1487 0.0
C954 C 0.39597 0.2801 0.23634 0.0
C955 C 0.46266 0.35336 0.27623 0.0
H956 H 0.39671 0.32789 0.46617 0.0
H957 H 0.43667 0.30042 0.50619 0.0
H958 H 0.41441 0.3466 0.28361 0.0
H959 H 0.39132 0.32071 0.2708 0.0
H960 H 0.3915 0.33797 0.34506 0.0
H961 H 0.45275 0.2915 0.40775 0.0
H962 H 0.43889 0.28567 0.31829 0.0
H963 H 0.46221 0.31128 0.33329 0.0
H964 H 0.4099 0.28855 0.09116 0.0
H965 H 0.46664 0.34944 0.12579 0.0
H966 H 0.38488 0.28465 0.26328 0.0
H967 H 0.40071 0.27231 0.28049 0.0
H968 H 0.38717 0.26823 0.19098 0.0
H969 H 0.45348 0.3599 0.3053 0.0
H970 H 0.47601 0.36651 0.24392 0.0
H971 H 0.4696 0.34777 0.32071 0.0
C972 C 0.58024 0.90354 0.58185 0.0
C973 C 0.60083 0.90992 0.55374 0.0
C974 C 0.5754 0.89907 0.65906 0.0
C975 C 0.59151 0.90093 0.70952 0.0
C976 C 0.61233 0.90742 0.68163 0.0
C977 C 0.61675 0.91186 0.60416 0.0
C978 C 0.55317 0.89274 0.68692 0.0
C979 C 0.62996 0.90968 0.73371 0.0
C980 C 0.58659 0.90888 0.91984 0.0
C981 C 0.5789 0.88811 0.94841 0.0
C982 C 0.59026 0.91318 0.84209 0.0
C983 C 0.58668 0.8964 0.79173 0.0
C984 C 0.57879 0.87536 0.8202 0.0
C985 C 0.57483 0.87143 0.89814 0.0
C986 C 0.59836 0.93582 0.81463 0.0
C987 C 0.57486 0.85706 0.76845 0.0
H988 H 0.56797 0.90236 0.54351 0.0
H989 H 0.63261 0.91654 0.58291 0.0
H990 H 0.54591 0.87694 0.71577 0.0
H991 H 0.55413 0.90462 0.72911 0.0
H992 H 0.54237 0.89177 0.64031 0.0
H993 H 0.64513 0.91432 0.70288 0.0
H994 H 0.63317 0.92204 0.77724 0.0
H995 H 0.62484 0.89433 0.76382 0.0
H996 H 0.58953 0.92178 0.95835 0.0
H997 H 0.56906 0.85541 0.92012 0.0
H998 H 0.5915 0.93611 0.75876 0.0
H999 H 0.61607 0.94405 0.80851 0.0
H1000 H 0.59438 0.94507 0.85531 0.0
H1001 H 0.56329 0.8552 0.72352 0.0
H1002 H 0.56846 0.8416 0.7993 0.0
H1003 H 0.59005 0.86063 0.74001 0.0
C1004 C 0.69896 0.56407 0.35174 0.0
C1005 C 0.69254 0.57447 0.4038 0.0
C1006 C 0.70021 0.56865 0.27411 0.0
C1007 C 0.6947 0.58387 0.24784 0.0
C1008 C 0.68818 0.59441 0.30012 0.0
C1009 C 0.68721 0.5896 0.37751 0.0
C1010 C 0.70759 0.55735 0.22026 0.0
C1011 C 0.68193 0.61055 0.27432 0.0
C1012 C 0.71637 0.61001 0.0568 0.0
C1013 C 0.69892 0.59767 0.00911 0.0
C1014 C 0.7152 0.60574 0.13465 0.0
C1015 C 0.69599 0.58887 0.16567 0.0
C1016 C 0.6782 0.57654 0.11796 0.0
C1017 C 0.67994 0.58099 0.04009 0.0
C1018 C 0.73458 0.6191 0.18358 0.0
C1019 C 0.65735 0.55863 0.14914 0.0
H1020 H 0.70335 0.55257 0.37196 0.0
H1021 H 0.68191 0.59743 0.41741 0.0
H1022 H 0.69496 0.54825 0.17758 0.0
H1023 H 0.72208 0.56931 0.18918 0.0
H1024 H 0.71142 0.54605 0.24986 0.0
H1025 H 0.67948 0.61897 0.32259 0.0
H1026 H 0.69442 0.6227 0.23656 0.0
H1027 H 0.66682 0.60223 0.24135 0.0
H1028 H 0.73115 0.62273 0.03285 0.0
H1029 H 0.66636 0.5716 1.00336 0.0
H1030 H 0.73981 0.60864 0.21123 0.0
H1031 H 0.73039 0.62697 0.2292 0.0
H1032 H 0.74827 0.63169 0.1507 0.0
H1033 H 0.66008 0.54621 0.17554 0.0
H1034 H 0.64487 0.55091 0.10475 0.0
H1035 H 0.65118 0.56492 0.19401 0.0
C1036 C 0.12613 0.70143 0.5579 0.0
C1037 C 0.10511 0.69276 0.53102 0.0
C1038 C 0.13027 0.70166 0.63566 0.0
C1039 C 0.11291 0.69246 0.68752 0.0
C1040 C 0.0916 0.68347 0.66041 0.0
C1041 C 0.08799 0.68402 0.5825 0.0
C1042 C 0.15322 0.71191 0.66236 0.0
C1043 C 0.07262 0.67299 0.71353 0.0
C1044 C 0.12345 0.67483 0.87789 0.0
C1045 C 0.12524 0.69114 0.9259 0.0
C1046 C 0.11909 0.67488 0.80048 0.0
C1047 C 0.11704 0.69197 0.76997 0.0
C1048 C 0.11906 0.70861 0.8182 0.0
C1049 C 0.12284 0.70783 0.89585 0.0
C1050 C 0.11648 0.65654 0.75149 0.0
C1051 C 0.11747 0.72736 0.78765 0.0
H1052 H 0.13934 0.70844 0.518 0.0
H1053 H 0.07175 0.67722 0.56136 0.0
H1054 H 0.15646 0.72461 0.70448 0.0
H1055 H 0.15598 0.69977 0.69091 0.0
H1056 H 0.1649 0.71912 0.61511 0.0
H1057 H 0.05707 0.6664 0.68324 0.0
H1058 H 0.07287 0.65976 0.74494 0.0
H1059 H 0.07358 0.68478 0.75605 0.0
H1060 H 0.12499 0.66176 0.90144 0.0
H1061 H 0.12435 0.72048 0.93305 0.0
H1062 H 0.12884 0.66264 0.70627 0.0
H1063 H 0.10058 0.64886 0.72333 0.0
H1064 H 0.11787 0.64414 0.78443 0.0
H1065 H 0.12962 0.73555 0.74247 0.0
H1066 H 0.11995 0.73925 0.83229 0.0
H1067 H 0.10147 0.72161 0.7618 0.0
C1068 C 0.43237 0.10229 0.02521 0.0
C1069 C 0.41724 0.10697 0.99428 0.0
C1070 C 0.43699 0.10478 0.103 0.0
C1071 C 0.42647 0.11246 0.15072 0.0
C1072 C 0.41118 0.1172 0.11973 0.0
C1073 C 0.40665 0.11427 0.042 0.0
C1074 C 0.45312 0.0992 0.13414 0.0
C1075 C 0.39971 0.12554 0.16863 0.0
C1076 C 0.42448 0.10275 0.36292 0.0
C1077 C 0.44133 0.12238 0.38901 0.0
C1078 C 0.41949 0.09924 0.28558 0.0
C1079 C 0.43163 0.11581 0.23294 0.0
C1080 C 0.44858 0.13571 0.25894 0.0
C1081 C 0.45328 0.13872 0.33658 0.0
C1082 C 0.40146 0.07767 0.26029 0.0
C1083 C 0.46164 0.15391 0.20478 0.0
H1084 H 0.4404 0.09644 0.98854 0.0
H1085 H 0.39515 0.11816 0.01816 0.0
H1086 H 0.46667 0.11356 0.16052 0.0
H1087 H 0.44554 0.08683 0.17901 0.0
H1088 H 0.45961 0.09306 0.08974 0.0
H1089 H 0.38832 0.12854 0.13574 0.0
H1090 H 0.39069 0.11382 0.21419 0.0
H1091 H 0.41157 0.14072 0.19636 0.0
H1092 H 0.41538 0.08997 0.40296 0.0
H1093 H 0.46611 0.15401 0.35646 0.0
H1094 H 0.4083 0.06881 0.23098 0.0
H1095 H 0.39083 0.07958 0.21954 0.0
H1096 H 0.39157 0.06781 0.30861 0.0
H1097 H 0.4695 0.1488 0.16211 0.0
H1098 H 0.4742 0.16842 0.23411 0.0
H1099 H 0.45095 0.15826 0.17372 0.0
C1100 C 0.33245 0.42429 0.88641 0.0
C1101 C 0.32565 0.43826 0.91343 0.0
C1102 C 0.33201 0.41992 0.80879 0.0
C1103 C 0.32446 0.42964 0.75696 0.0
C1104 C 0.31782 0.44395 0.78376 0.0
C1105 C 0.31853 0.44811 0.86159 0.0
C1106 C 0.33932 0.40464 0.78242 0.0
C1107 C 0.30952 0.45452 0.73037 0.0
C1108 C 0.33731 0.43175 0.54711 0.0
C1109 C 0.31827 0.41452 0.51886 0.0
C1110 C 0.3397 0.4367 0.62469 0.0
C1111 C 0.3226 0.42419 0.67505 0.0
C1112 C 0.3034 0.40672 0.64691 0.0
C1113 C 0.30149 0.40209 0.56928 0.0
C1114 C 0.36048 0.45536 0.65272 0.0
C1115 C 0.28473 0.39309 0.69864 0.0
H1116 H 0.33826 0.41686 0.92596 0.0
H1117 H 0.31301 0.4587 0.88207 0.0
H1118 H 0.32554 0.39006 0.7581 0.0
H1119 H 0.35155 0.41218 0.73708 0.0
H1120 H 0.34623 0.39969 0.82913 0.0
H1121 H 0.30566 0.4658 0.75994 0.0
H1122 H 0.32159 0.46346 0.68569 0.0
H1123 H 0.29481 0.4421 0.70173 0.0
H1124 H 0.35041 0.44125 0.50858 0.0
H1125 H 0.28661 0.38897 0.54782 0.0
H1126 H 0.36755 0.44983 0.69695 0.0
H1127 H 0.35736 0.46752 0.67912 0.0
H1128 H 0.37242 0.46317 0.60656 0.0
H1129 H 0.28989 0.38609 0.74431 0.0
H1130 H 0.27107 0.37982 0.66801 0.0
H1131 H 0.27902 0.40319 0.72612 0.0
C1132 C 0.91056 0.32677 0.38734 0.0
C1133 C 0.88988 0.32058 0.41401 0.0
C1134 C 0.91453 0.32613 0.30985 0.0
C1135 C 0.89742 0.31916 0.25766 0.0
C1136 C 0.87652 0.31292 0.28416 0.0
C1137 C 0.87302 0.31378 0.36197 0.0
C1138 C 0.9371 0.33313 0.28389 0.0
C1139 C 0.8578 0.30509 0.23039 0.0
C1140 C 0.90964 0.33427 0.04986 0.0
C1141 C 0.90816 0.31561 0.01917 0.0
C1142 C 0.90642 0.33576 0.12754 0.0
C1143 C 0.90129 0.31804 0.17542 0.0
C1144 C 0.89973 0.29915 0.14467 0.0
C1145 C 0.90331 0.29821 0.06703 0.0
C1146 C 0.90852 0.35628 0.15839 0.0
C1147 C 0.89415 0.27986 0.19373 0.0
H1148 H 0.92374 0.33241 0.42703 0.0
H1149 H 0.85698 0.30874 0.38228 0.0
H1150 H 0.93723 0.32092 0.24596 0.0
H1151 H 0.94347 0.34826 0.25111 0.0
H1152 H 0.94804 0.33584 0.33206 0.0
H1153 H 0.84257 0.30092 0.26 0.0
H1154 H 0.86104 0.3176 0.18742 0.0
H1155 H 0.85565 0.29071 0.19964 0.0
H1156 H 0.91359 0.3478 0.01308 0.0
H1157 H 0.90184 0.28366 0.04338 0.0
H1158 H 0.921 0.36287 0.20308 0.0
H1159 H 0.89319 0.353 0.18495 0.0
H1160 H 0.91285 0.36867 0.1138 0.0
H1161 H 0.90622 0.28433 0.23936 0.0
H1162 H 0.89346 0.26635 0.16098 0.0
H1163 H 0.87836 0.27424 0.22136 0.0
C1164 C 0.16242 0.39616 0.30589 0.0
C1165 C 0.15672 0.40402 0.24282 0.0
C1166 C 0.18066 0.39364 0.3036 0.0
C1167 C 0.19332 0.39906 0.23673 0.0
C1168 C 0.18616 0.40479 0.17088 0.0
C1169 C 0.16806 0.40729 0.17491 0.0
C1170 C 0.18751 0.3872 0.37485 0.0
C1171 C 0.19889 0.41061 0.09812 0.0
C1172 C 0.25392 0.42931 0.25589 0.0
C1173 C 0.25969 0.4142 0.23284 0.0
C1174 C 0.23246 0.42427 0.25926 0.0
C1175 C 0.21597 0.40342 0.23951 0.0
C1176 C 0.22151 0.38783 0.21746 0.0
C1177 C 0.24336 0.39343 0.21396 0.0
C1178 C 0.22751 0.44159 0.28228 0.0
C1179 C 0.20441 0.36537 0.19674 0.0
H1180 H 0.15373 0.39366 0.35857 0.0
H1181 H 0.16354 0.41314 0.12569 0.0
H1182 H 0.19376 0.37624 0.36182 0.0
H1183 H 0.20064 0.40172 0.40215 0.0
H1184 H 0.17406 0.37923 0.41591 0.0
H1185 H 0.18943 0.4111 0.04931 0.0
H1186 H 0.21339 0.42669 0.10415 0.0
H1187 H 0.20436 0.39902 0.08546 0.0
H1188 H 0.2663 0.44543 0.27063 0.0
H1189 H 0.24763 0.38159 0.19666 0.0
H1190 H 0.21626 0.43609 0.33098 0.0
H1191 H 0.21958 0.44502 0.23483 0.0
H1192 H 0.24214 0.45678 0.2983 0.0
H1193 H 0.19211 0.35847 0.24212 0.0
H1194 H 0.21113 0.35461 0.1873 0.0
H1195 H 0.19614 0.36577 0.14437 0.0
C1196 C 0.82947 0.2527 0.77422 0.0
C1197 C 0.84954 0.25812 0.7432 0.0
C1198 C 0.8127 0.2314 0.77809 0.0
C1199 C 0.81589 0.21472 0.75085 0.0
C1200 C 0.83633 0.21986 0.7218 0.0
C1201 C 0.85292 0.24154 0.71786 0.0
C1202 C 0.79121 0.2269 0.80889 0.0
C1203 C 0.84049 0.20253 0.69319 0.0
C1204 C 0.76934 0.16071 0.81329 0.0
C1205 C 0.75507 0.15631 0.75309 0.0
C1206 C 0.79027 0.17871 0.81072 0.0
C1207 C 0.79695 0.19246 0.74654 0.0
C1208 C 0.78321 0.18673 0.68301 0.0
C1209 C 0.76251 0.16882 0.68722 0.0
C1210 C 0.80451 0.18399 0.87921 0.0
C1211 C 0.7895 0.20069 0.61315 0.0
H1212 H 0.82657 0.26524 0.79443 0.0
H1213 H 0.8684 0.24551 0.69437 0.0
H1214 H 0.77893 0.22003 0.76359 0.0
H1215 H 0.78595 0.21492 0.85523 0.0
H1216 H 0.79164 0.24156 0.83095 0.0
H1217 H 0.85784 0.20864 0.68308 0.0
H1218 H 0.8344 0.18905 0.73417 0.0
H1219 H 0.83177 0.19601 0.63924 0.0
H1220 H 0.76371 0.15108 0.8643 0.0
H1221 H 0.75164 0.16528 0.63995 0.0
H1222 H 0.80409 0.19694 0.91193 0.0
H1223 H 0.8214 0.18992 0.86212 0.0
H1224 H 0.79915 0.16986 0.91692 0.0
H1225 H 0.78902 0.21554 0.62597 0.0
H1226 H 0.77851 0.19245 0.56497 0.0
H1227 H 0.8061 0.20554 0.59549 0.0
C1228 C 0.61886 0.85285 0.23133 0.0
C1229 C 0.60785 0.85596 0.29101 0.0
C1230 C 0.62176 0.83483 0.23052 0.0
C1231 C 0.6134 0.81967 0.29057 0.0
C1232 C 0.60422 0.82405 0.35414 0.0
C1233 C 0.60158 0.84207 0.3535 0.0
C1234 C 0.6321 0.83107 0.16245 0.0
C1235 C 0.5951 0.80854 0.41966 0.0
C1236 C 0.58571 0.7602 0.24706 0.0
C1237 C 0.59942 0.75382 0.27983 0.0
C1238 C 0.59065 0.78165 0.24747 0.0
C1239 C 0.60999 0.7975 0.28093 0.0
C1240 C 0.62445 0.79144 0.31135 0.0
C1241 C 0.61894 0.76961 0.31092 0.0
C1242 C 0.57457 0.78715 0.21479 0.0
C1243 C 0.64539 0.80786 0.34635 0.0
H1244 H 0.6238 0.86355 0.18295 0.0
H1245 H 0.59337 0.84459 0.40044 0.0
H1246 H 0.64254 0.82453 0.1797 0.0
H1247 H 0.61945 0.8191 0.12482 0.0
H1248 H 0.64179 0.84606 0.12954 0.0
H1249 H 0.59131 0.81565 0.46896 0.0
H1250 H 0.5801 0.79403 0.40146 0.0
H1251 H 0.60648 0.80329 0.43803 0.0
H1252 H 0.57066 0.74829 0.22223 0.0
H1253 H 0.62973 0.76491 0.33579 0.0
H1254 H 0.58238 0.80007 0.17196 0.0
H1255 H 0.56833 0.79319 0.26032 0.0
H1256 H 0.56075 0.77312 0.18774 0.0
H1257 H 0.65344 0.82248 0.31058 0.0
H1258 H 0.65647 0.80147 0.35455 0.0
H1259 H 0.64226 0.81272 0.40233 0.0
C1260 C 0.83256 0.58855 0.84369 0.0
C1261 C 0.85234 0.59968 0.80643 0.0
C1262 C 0.81585 0.59266 0.82775 0.0
C1263 C 0.81878 0.60796 0.77156 0.0
C1264 C 0.83933 0.62046 0.73797 0.0
C1265 C 0.85597 0.61623 0.7561 0.0
C1266 C 0.79443 0.57917 0.86627 0.0
C1267 C 0.84324 0.63696 0.67808 0.0
C1268 C 0.76629 0.58842 0.66804 0.0
C1269 C 0.7576 0.59956 0.7049 0.0
C1270 C 0.7871 0.59256 0.68415 0.0
C1271 C 0.79943 0.60791 0.74014 0.0
C1272 C 0.79134 0.62039 0.77343 0.0
C1273 C 0.77047 0.61613 0.75508 0.0
C1274 C 0.79508 0.57909 0.64594 0.0
C1275 C 0.80388 0.63692 0.83314 0.0
H1276 H 0.82974 0.5757 0.88242 0.0
H1277 H 0.87118 0.62463 0.72635 0.0
H1278 H 0.78787 0.58937 0.88608 0.0
H1279 H 0.78283 0.56744 0.82527 0.0
H1280 H 0.79559 0.57017 0.91541 0.0
H1281 H 0.86065 0.64824 0.66943 0.0
H1282 H 0.83633 0.62869 0.62368 0.0
H1283 H 0.83527 0.64625 0.69313 0.0
H1284 H 0.75629 0.57555 0.62938 0.0
H1285 H 0.76364 0.62455 0.78451 0.0
H1286 H 0.79502 0.56743 0.68719 0.0
H1287 H 0.81182 0.58932 0.62593 0.0
H1288 H 0.78492 0.57001 0.59698 0.0
H1289 H 0.80254 0.62869 0.88766 0.0
H1290 H 0.79772 0.64818 0.84157 0.0
H1291 H 0.82115 0.64625 0.81807 0.0
C1292 C 0.25423 0.82893 0.20827 0.0
C1293 C 0.26016 0.84885 0.24161 0.0
C1294 C 0.23296 0.81202 0.20915 0.0
C1295 C 0.21684 0.81495 0.24356 0.0
C1296 C 0.22239 0.83536 0.2738 0.0
C1297 C 0.24405 0.85208 0.27293 0.0
C1298 C 0.22801 0.7906 0.17656 0.0
C1299 C 0.20565 0.83931 0.30961 0.0
C1300 C 0.16178 0.76715 0.19959 0.0
C1301 C 0.15945 0.7535 0.25996 0.0
C1302 C 0.17946 0.78827 0.19659 0.0
C1303 C 0.19505 0.79573 0.25515 0.0
C1304 C 0.19149 0.7826 0.31936 0.0
C1305 C 0.1738 0.76173 0.32087 0.0
C1306 C 0.18235 0.8019 0.12794 0.0
C1307 C 0.20749 0.78973 0.38341 0.0
H1308 H 0.2664 0.82622 0.18298 0.0
H1309 H 0.2484 0.86743 0.29828 0.0
H1310 H 0.22265 0.77846 0.22245 0.0
H1311 H 0.21476 0.78497 0.13494 0.0
H1312 H 0.24213 0.7913 0.14814 0.0
H1313 H 0.21149 0.85672 0.31649 0.0
H1314 H 0.19077 0.83203 0.27519 0.0
H1315 H 0.20141 0.83169 0.36632 0.0
H1316 H 0.15071 0.76092 0.15244 0.0
H1317 H 0.17188 0.75137 0.36839 0.0
H1318 H 0.19432 0.80149 0.08941 0.0
H1319 H 0.18849 0.81887 0.14432 0.0
H1320 H 0.16709 0.79601 0.0963 0.0
H1321 H 0.22221 0.78986 0.36377 0.0
H1322 H 0.20105 0.77892 0.43328 0.0
H1323 H 0.2122 0.80626 0.40147 0.0
C1324 C 0.39763 0.24341 0.73795 0.0
C1325 C 0.41263 0.25546 0.79398 0.0
C1326 C 0.39402 0.22289 0.7176 0.0
C1327 C 0.40559 0.21432 0.7546 0.0
C1328 C 0.41912 0.22569 0.81621 0.0
C1329 C 0.42265 0.24618 0.83441 0.0
C1330 C 0.37938 0.21136 0.65199 0.0
C1331 C 0.43153 0.21716 0.85841 0.0
C1332 C 0.39852 0.15843 0.7294 0.0
C1333 C 0.41644 0.16324 0.68438 0.0
C1334 C 0.39363 0.17456 0.74873 0.0
C1335 C 0.40687 0.19581 0.72169 0.0
C1336 C 0.42377 0.20008 0.67071 0.0
C1337 C 0.42845 0.18383 0.65343 0.0
C1338 C 0.37543 0.16923 0.80291 0.0
C1339 C 0.43813 0.2223 0.63916 0.0
H1340 H 0.39014 0.25072 0.70574 0.0
H1341 H 0.43436 0.25558 0.87743 0.0
H1342 H 0.38919 0.21376 0.60055 0.0
H1343 H 0.36983 0.19385 0.66289 0.0
H1344 H 0.36827 0.21753 0.64025 0.0
H1345 H 0.43889 0.22634 0.91106 0.0
H1346 H 0.42095 0.20003 0.87338 0.0
H1347 H 0.44454 0.21823 0.82159 0.0
H1348 H 0.38935 0.14258 0.7542 0.0
H1349 H 0.4423 0.18755 0.61853 0.0
H1350 H 0.36644 0.17739 0.78614 0.0
H1351 H 0.38204 0.17498 0.86031 0.0
H1352 H 0.36411 0.15167 0.80605 0.0
H1353 H 0.4284 0.22907 0.61642 0.0
H1354 H 0.44877 0.22237 0.59342 0.0
H1355 H 0.44834 0.23307 0.68509 0.0
loop_
_geom_bond_atom_site_label_1
_geom_bond_atom_site_label_2
_geom_bond_distance
_geom_bond_site_symmetry_2
_ccdc_geom_bond_type
C0 C1 1.351 . S
C0 N3 1.368 . S
C0 H5 0.931 . S
C1 C0 1.351 . S
C1 N2 1.373 . S
C1 H29 0.930 . S
N2 C1 1.373 . S
N2 C4 1.340 . S
N3 C0 1.368 . S
N3 C4 1.321 . S
N3 Co6 2.135 . S
C4 N2 1.340 . S
C4 N3 1.321 . S
C4 H28 0.930 . S
H5 C0 0.931 . S
Co6 N3 2.135 . S
Co6 N9 2.121 . S
Co6 O14 2.055 . S
Co6 O17 2.039 . S
Co6 N20 2.140 . S
C7 O8 1.227 . S
C7 O17 1.265 . S
O8 C7 1.227 . S
N9 Co6 2.121 . S
N9 C11 1.375 . S
N9 C12 1.313 . S
C10 C11 1.338 . S
C10 N13 1.377 . S
C10 H30 0.930 . S
C11 N9 1.375 . S
C11 C10 1.338 . S
C11 H15 0.931 . S
C12 N9 1.313 . S
C12 N13 1.344 . S
C12 H16 0.930 . S
N13 C10 1.377 . S
N13 C12 1.344 . S
O14 Co6 2.055 . S
O14 C18 1.253 . S
H15 C11 0.931 . S
H16 C12 0.930 . S
O17 Co6 2.039 . S
O17 C7 1.265 . S
C18 O14 1.253 . S
C18 O19 1.227 . S
O19 C18 1.227 . S
N20 Co6 2.140 . S
N20 C23 1.346 . S
N20 C24 1.345 . S
C21 C22 1.387 . S
C21 C25 1.391 . S
C22 C21 1.387 . S
C22 C23 1.369 . S
C22 H31 0.929 . S
C23 N20 1.346 . S
C23 C22 1.369 . S
C23 H26 0.928 . S
C24 N20 1.345 . S
C24 C25 1.371 . S
C24 H27 0.931 . S
C25 C21 1.391 . S
C25 C24 1.371 . S
C25 H32 0.930 . S
H26 C23 0.928 . S
H27 C24 0.931 . S
H28 C4 0.930 . S
H29 C1 0.930 . S
H30 C10 0.930 . S
H31 C22 0.929 . S
H32 C25 0.930 . S
C33 C34 1.351 1_556 S
C33 N36 1.368 . S
C33 H38 0.931 . S
C34 C33 1.351 1_554 S
C34 N35 1.373 . S
C34 H62 0.930 . S
N35 C34 1.373 . S
N35 C37 1.340 . S
N36 C33 1.368 . S
N36 C37 1.321 1_556 S
N36 Co39 2.135 . S
C37 N35 1.340 . S
C37 N36 1.321 1_554 S
C37 H61 0.930 . S
H38 C33 0.931 . S
Co39 N36 2.135 . S
Co39 N42 2.121 . S
Co39 O47 2.055 . S
Co39 O50 2.039 . S
Co39 N53 2.140 . S
C40 O41 1.227 . S
C40 O50 1.265 . S
O41 C40 1.227 . S
N42 Co39 2.121 . S
N42 C44 1.375 . S
N42 C45 1.313 . S
C43 C44 1.338 . S
C43 N46 1.377 . S
C43 H63 0.930 . S
C44 N42 1.375 . S
C44 C43 1.338 . S
C44 H48 0.931 . S
C45 N42 1.313 . S
C45 N46 1.344 . S
C45 H49 0.930 . S
N46 C43 1.377 . S
N46 C45 1.344 . S
O47 Co39 2.055 . S
O47 C51 1.253 . S
H48 C44 0.931 . S
H49 C45 0.930 . S
O50 Co39 2.039 . S
O50 C40 1.265 . S
C51 O47 1.253 . S
C51 O52 1.227 . S
O52 C51 1.227 . S
N53 Co39 2.140 . S
N53 C56 1.346 . S
N53 C57 1.345 . S
C54 C55 1.387 . S
C54 C58 1.391 . S
C55 C54 1.387 . S
C55 C56 1.369 . S
C55 H64 0.929 . S
C56 N53 1.346 . S
C56 C55 1.369 . S
C56 H59 0.928 . S
C57 N53 1.345 . S
C57 C58 1.371 . S
C57 H60 0.931 . S
C58 C54 1.391 . S
C58 C57 1.371 . S
C58 H65 0.930 . S
H59 C56 0.928 . S
H60 C57 0.931 . S
H61 C37 0.930 . S
H62 C34 0.930 . S
H63 C43 0.930 . S
H64 C55 0.929 . S
H65 C58 0.930 . S
C66 C67 1.351 . S
C66 N69 1.368 . S
C66 H71 0.931 . S
C67 C66 1.351 . S
C67 N68 1.373 . S
C67 H95 0.930 . S
N68 C67 1.373 . S
N68 C70 1.340 . S
N69 C66 1.368 . S
N69 C70 1.321 . S
N69 Co72 2.135 . S
C70 N68 1.340 . S
C70 N69 1.321 . S
C70 H94 0.930 . S
H71 C66 0.931 . S
Co72 N69 2.135 . S
Co72 N75 2.121 . S
Co72 O80 2.055 . S
Co72 O83 2.039 . S
Co72 N86 2.140 . S
C73 O74 1.227 . S
C73 O83 1.265 . S
O74 C73 1.227 . S
N75 Co72 2.121 . S
N75 C77 1.375 . S
N75 C78 1.313 . S
C76 C77 1.338 . S
C76 N79 1.377 . S
C76 H96 0.930 . S
C77 N75 1.375 . S
C77 C76 1.338 . S
C77 H81 0.931 . S
C78 N75 1.313 . S
C78 N79 1.344 . S
C78 H82 0.930 . S
N79 C76 1.377 . S
N79 C78 1.344 . S
O80 Co72 2.055 . S
O80 C84 1.253 . S
H81 C77 0.931 . S
H82 C78 0.930 . S
O83 Co72 2.039 . S
O83 C73 1.265 . S
C84 O80 1.253 . S
C84 O85 1.227 . S
O85 C84 1.227 . S
N86 Co72 2.140 . S
N86 C89 1.346 . S
N86 C90 1.345 . S
C87 C88 1.387 . S
C87 C91 1.391 . S
C88 C87 1.387 . S
C88 C89 1.369 . S
C88 H97 0.929 . S
C89 N86 1.346 . S
C89 C88 1.369 . S
C89 H92 0.928 . S
C90 N86 1.345 . S
C90 C91 1.371 . S
C90 H93 0.931 . S
C91 C87 1.391 . S
C91 C90 1.371 . S
C91 H98 0.930 . S
H92 C89 0.928 . S
H93 C90 0.931 . S
H94 C70 0.930 . S
H95 C67 0.930 . S
H96 C76 0.930 . S
H97 C88 0.929 . S
H98 C91 0.930 . S
C99 C100 1.351 1_556 S
C99 N102 1.368 . S
C99 H104 0.931 . S
C100 C99 1.351 1_554 S
C100 N101 1.373 . S
C100 H128 0.930 . S
N101 C100 1.373 . S
N101 C103 1.340 . S
N102 C99 1.368 . S
N102 C103 1.321 1_556 S
N102 Co105 2.135 . S
C103 N101 1.340 . S
C103 N102 1.321 1_554 S
C103 H127 0.930 . S
H104 C99 0.931 . S
Co105 N102 2.135 . S
Co105 N108 2.121 . S
Co105 O113 2.055 . S
Co105 O116 2.039 . S
Co105 N119 2.140 . S
C106 O107 1.227 . S
C106 O116 1.265 . S
O107 C106 1.227 . S
N108 Co105 2.121 . S
N108 C110 1.375 . S
N108 C111 1.313 . S
C109 C110 1.338 . S
C109 N112 1.377 . S
C109 H129 0.930 . S
C110 N108 1.375 . S
C110 C109 1.338 . S
C110 H114 0.931 . S
C111 N108 1.313 . S
C111 N112 1.344 . S
C111 H115 0.930 . S
N112 C109 1.377 . S
N112 C111 1.344 . S
O113 Co105 2.055 . S
O113 C117 1.253 . S
H114 C110 0.931 . S
H115 C111 0.930 . S
O116 Co105 2.039 . S
O116 C106 1.265 . S
C117 O113 1.253 . S
C117 O118 1.227 . S
O118 C117 1.227 . S
N119 Co105 2.140 . S
N119 C122 1.346 . S
N119 C123 1.345 . S
C120 C121 1.387 . S
C120 C124 1.391 . S
C121 C120 1.387 . S
C121 C122 1.369 . S
C121 H130 0.929 . S
C122 N119 1.346 . S
C122 C121 1.369 . S
C122 H125 0.928 . S
C123 N119 1.345 . S
C123 C124 1.371 . S
C123 H126 0.931 . S
C124 C120 1.391 . S
C124 C123 1.371 . S
C124 H131 0.930 . S
H125 C122 0.928 . S
H126 C123 0.931 . S
H127 C103 0.930 . S
H128 C100 0.930 . S
H129 C109 0.930 . S
H130 C121 0.929 . S
H131 C124 0.930 . S
C132 C133 1.351 . S
C132 N135 1.368 . S
C132 H137 0.931 . S
C133 C132 1.351 . S
C133 N134 1.373 . S
C133 H161 0.930 . S
N134 C133 1.373 . S
N134 C136 1.340 . S
N135 C132 1.368 . S
N135 C136 1.321 . S
N135 Co138 2.135 . S
C136 N134 1.340 . S
C136 N135 1.321 . S
C136 H160 0.930 . S
H137 C132 0.931 . S
Co138 N135 2.135 . S
Co138 N141 2.121 . S
Co138 O146 2.055 . S
Co138 O149 2.039 . S
Co138 N152 2.140 . S
C139 O140 1.227 . S
C139 O149 1.265 . S
O140 C139 1.227 . S
N141 Co138 2.121 . S
N141 C143 1.375 . S
N141 C144 1.313 . S
C142 C143 1.338 . S
C142 N145 1.377 . S
C142 H162 0.930 . S
C143 N141 1.375 . S
C143 C142 1.338 . S
C143 H147 0.931 . S
C144 N141 1.313 . S
C144 N145 1.344 . S
C144 H148 0.930 . S
N145 C142 1.377 . S
N145 C144 1.344 . S
O146 Co138 2.055 . S
O146 C150 1.253 . S
H147 C143 0.931 . S
H148 C144 0.930 . S
O149 Co138 2.039 . S
O149 C139 1.265 . S
C150 O146 1.253 . S
C150 O151 1.227 . S
O151 C150 1.227 . S
N152 Co138 2.140 . S
N152 C155 1.346 . S
N152 C156 1.345 . S
C153 C154 1.387 . S
C153 C157 1.391 . S
C154 C153 1.387 . S
C154 C155 1.369 . S
C154 H163 0.929 . S
C155 N152 1.346 . S
C155 C154 1.369 . S
C155 H158 0.928 . S
C156 N152 1.345 . S
C156 C157 1.371 . S
C156 H159 0.931 . S
C157 C153 1.391 . S
C157 C156 1.371 . S
C157 H164 0.930 . S
H158 C155 0.928 . S
H159 C156 0.931 . S
H160 C136 0.930 . S
H161 C133 0.930 . S
H162 C142 0.930 . S
H163 C154 0.929 . S
H164 C157 0.930 . S
C165 C166 1.351 1_556 S
C165 N168 1.368 . S
C165 H170 0.931 . S
C166 C165 1.351 1_554 S
C166 N167 1.373 . S
C166 H194 0.930 . S
N167 C166 1.373 . S
N167 C169 1.340 . S
N168 C165 1.368 . S
N168 C169 1.321 1_556 S
N168 Co171 2.135 . S
C169 N167 1.340 . S
C169 N168 1.321 1_554 S
C169 H193 0.930 . S
H170 C165 0.931 . S
Co171 N168 2.135 . S
Co171 N174 2.121 . S
Co171 O179 2.055 . S
Co171 O182 2.039 . S
Co171 N185 2.140 . S
C172 O173 1.227 . S
C172 O182 1.265 . S
O173 C172 1.227 . S
N174 Co171 2.121 . S
N174 C176 1.375 . S
N174 C177 1.313 . S
C175 C176 1.338 . S
C175 N178 1.377 . S
C175 H195 0.930 . S
C176 N174 1.375 . S
C176 C175 1.338 . S
C176 H180 0.931 . S
C177 N174 1.313 . S
C177 N178 1.344 . S
C177 H181 0.930 . S
N178 C175 1.377 . S
N178 C177 1.344 . S
O179 Co171 2.055 . S
O179 C183 1.253 . S
H180 C176 0.931 . S
H181 C177 0.930 . S
O182 Co171 2.039 . S
O182 C172 1.265 . S
C183 O179 1.253 . S
C183 O184 1.227 . S
O184 C183 1.227 . S
N185 Co171 2.140 . S
N185 C188 1.346 . S
N185 C189 1.345 . S
C186 C187 1.387 . S
C186 C190 1.391 . S
C187 C186 1.387 . S
C187 C188 1.369 . S
C187 H196 0.929 . S
C188 N185 1.346 . S
C188 C187 1.369 . S
C188 H191 0.928 . S
C189 N185 1.345 . S
C189 C190 1.371 . S
C189 H192 0.931 . S
C190 C186 1.391 . S
C190 C189 1.371 . S
C190 H197 0.930 . S
H191 C188 0.928 . S
H192 C189 0.931 . S
H193 C169 0.930 . S
H194 C166 0.930 . S
H195 C175 0.930 . S
H196 C187 0.929 . S
H197 C190 0.930 . S
C198 C199 1.351 1_554 S
C198 N201 1.368 . S
C198 H203 0.931 . S
C199 C198 1.351 1_556 S
C199 N200 1.373 . S
C199 H227 0.930 . S
N200 C199 1.373 . S
N200 C202 1.340 . S
N201 C198 1.368 . S
N201 C202 1.321 1_554 S
N201 Co204 2.135 . S
C202 N200 1.340 . S
C202 N201 1.321 1_556 S
C202 H226 0.930 . S
H203 C198 0.931 . S
Co204 N201 2.135 . S
Co204 N207 2.121 . S
Co204 O212 2.055 . S
Co204 O215 2.039 . S
Co204 N218 2.140 . S
C205 O206 1.227 . S
C205 O215 1.265 . S
O206 C205 1.227 . S
N207 Co204 2.121 . S
N207 C209 1.375 . S
N207 C210 1.313 . S
C208 C209 1.338 . S
C208 N211 1.377 . S
C208 H228 0.930 . S
C209 N207 1.375 . S
C209 C208 1.338 . S
C209 H213 0.931 . S
C210 N207 1.313 . S
C210 N211 1.344 . S
C210 H214 0.930 . S
N211 C208 1.377 . S
N211 C210 1.344 . S
O212 Co204 2.055 . S
O212 C216 1.253 . S
H213 C209 0.931 . S
H214 C210 0.930 . S
O215 Co204 2.039 . S
O215 C205 1.265 . S
C216 O212 1.253 . S
C216 O217 1.227 . S
O217 C216 1.227 . S
N218 Co204 2.140 . S
N218 C221 1.346 . S
N218 C222 1.345 . S
C219 C220 1.387 . S
C219 C223 1.391 . S
C220 C219 1.387 . S
C220 C221 1.369 . S
C220 H229 0.929 . S
C221 N218 1.346 . S
C221 C220 1.369 . S
C221 H224 0.928 . S
C222 N218 1.345 . S
C222 C223 1.371 . S
C222 H225 0.931 . S
C223 C219 1.391 . S
C223 C222 1.371 . S
C223 H230 0.930 . S
H224 C221 0.928 . S
H225 C222 0.931 . S
H226 C202 0.930 . S
H227 C199 0.930 . S
H228 C208 0.930 . S
H229 C220 0.929 . S
H230 C223 0.930 . S
C231 C232 1.351 . S
C231 N234 1.368 . S
C231 H236 0.931 . S
C232 C231 1.351 . S
C232 N233 1.373 . S
C232 H260 0.930 . S
N233 C232 1.373 . S
N233 C235 1.340 . S
N234 C231 1.368 . S
N234 C235 1.321 . S
N234 Co237 2.135 . S
C235 N233 1.340 . S
C235 N234 1.321 . S
C235 H259 0.930 . S
H236 C231 0.931 . S
Co237 N234 2.135 . S
Co237 N240 2.121 . S
Co237 O245 2.055 . S
Co237 O248 2.039 . S
Co237 N251 2.140 . S
C238 O239 1.227 . S
C238 O248 1.265 . S
O239 C238 1.227 . S
N240 Co237 2.121 . S
N240 C242 1.375 . S
N240 C243 1.313 . S
C241 C242 1.338 . S
C241 N244 1.377 . S
C241 H261 0.930 . S
C242 N240 1.375 . S
C242 C241 1.338 . S
C242 H246 0.931 . S
C243 N240 1.313 . S
C243 N244 1.344 . S
C243 H247 0.930 . S
N244 C241 1.377 . S
N244 C243 1.344 . S
O245 Co237 2.055 . S
O245 C249 1.253 . S
H246 C242 0.931 . S
H247 C243 0.930 . S
O248 Co237 2.039 . S
O248 C238 1.265 . S
C249 O245 1.253 . S
C249 O250 1.227 . S
O250 C249 1.227 . S
N251 Co237 2.140 . S
N251 C254 1.346 . S
N251 C255 1.345 . S
C252 C253 1.387 . S
C252 C256 1.391 . S
C253 C252 1.387 . S
C253 C254 1.369 . S
C253 H262 0.929 . S
C254 N251 1.346 . S
C254 C253 1.369 . S
C254 H257 0.928 . S
C255 N251 1.345 . S
C255 C256 1.371 . S
C255 H258 0.931 . S
C256 C252 1.391 . S
C256 C255 1.371 . S
C256 H263 0.930 . S
H257 C254 0.928 . S
H258 C255 0.931 . S
H259 C235 0.930 . S
H260 C232 0.930 . S
H261 C241 0.930 . S
H262 C253 0.929 . S
H263 C256 0.930 . S
C264 C265 1.351 1_554 S
C264 N267 1.368 . S
C264 H269 0.931 . S
C265 C264 1.351 1_556 S
C265 N266 1.373 . S
C265 H293 0.930 . S
N266 C265 1.373 . S
N266 C268 1.340 . S
N267 C264 1.368 . S
N267 C268 1.321 1_554 S
N267 Co270 2.135 . S
C268 N266 1.340 . S
C268 N267 1.321 1_556 S
C268 H292 0.930 . S
H269 C264 0.931 . S
Co270 N267 2.135 . S
Co270 N273 2.121 . S
Co270 O278 2.055 . S
Co270 O281 2.039 . S
Co270 N284 2.140 . S
C271 O272 1.227 . S
C271 O281 1.265 . S
O272 C271 1.227 . S
N273 Co270 2.121 . S
N273 C275 1.375 . S
N273 C276 1.313 . S
C274 C275 1.338 . S
C274 N277 1.377 . S
C274 H294 0.930 . S
C275 N273 1.375 . S
C275 C274 1.338 . S
C275 H279 0.931 . S
C276 N273 1.313 . S
C276 N277 1.344 . S
C276 H280 0.930 . S
N277 C274 1.377 . S
N277 C276 1.344 . S
O278 Co270 2.055 . S
O278 C282 1.253 . S
H279 C275 0.931 . S
H280 C276 0.930 . S
O281 Co270 2.039 . S
O281 C271 1.265 . S
C282 O278 1.253 . S
C282 O283 1.227 . S
O283 C282 1.227 . S
N284 Co270 2.140 . S
N284 C287 1.346 . S
N284 C288 1.345 . S
C285 C286 1.387 . S
C285 C289 1.391 . S
C286 C285 1.387 . S
C286 C287 1.369 . S
C286 H295 0.929 . S
C287 N284 1.346 . S
C287 C286 1.369 . S
C287 H290 0.928 . S
C288 N284 1.345 . S
C288 C289 1.371 . S
C288 H291 0.931 . S
C289 C285 1.391 . S
C289 C288 1.371 . S
C289 H296 0.930 . S
H290 C287 0.928 . S
H291 C288 0.931 . S
H292 C268 0.930 . S
H293 C265 0.930 . S
H294 C274 0.930 . S
H295 C286 0.929 . S
H296 C289 0.930 . S
C297 C298 1.351 . S
C297 N300 1.368 . S
C297 H302 0.931 . S
C298 C297 1.351 . S
C298 N299 1.373 . S
C298 H326 0.930 . S
N299 C298 1.373 . S
N299 C301 1.340 . S
N300 C297 1.368 . S
N300 C301 1.321 . S
N300 Co303 2.135 . S
C301 N299 1.340 . S
C301 N300 1.321 . S
C301 H325 0.930 . S
H302 C297 0.931 . S
Co303 N300 2.135 . S
Co303 N306 2.121 . S
Co303 O311 2.055 . S
Co303 O314 2.039 . S
Co303 N317 2.140 . S
C304 O305 1.227 . S
C304 O314 1.265 . S
O305 C304 1.227 . S
N306 Co303 2.121 . S
N306 C308 1.375 . S
N306 C309 1.313 . S
C307 C308 1.338 . S
C307 N310 1.377 . S
C307 H327 0.930 . S
C308 N306 1.375 . S
C308 C307 1.338 . S
C308 H312 0.931 . S
C309 N306 1.313 . S
C309 N310 1.344 . S
C309 H313 0.930 . S
N310 C307 1.377 . S
N310 C309 1.344 . S
O311 Co303 2.055 . S
O311 C315 1.253 . S
H312 C308 0.931 . S
H313 C309 0.930 . S
O314 Co303 2.039 . S
O314 C304 1.265 . S
C315 O311 1.253 . S
C315 O316 1.227 . S
O316 C315 1.227 . S
N317 Co303 2.140 . S
N317 C320 1.346 . S
N317 C321 1.345 . S
C318 C319 1.387 . S
C318 C322 1.391 . S
C319 C318 1.387 . S
C319 C320 1.369 . S
C319 H328 0.929 . S
C320 N317 1.346 . S
C320 C319 1.369 . S
C320 H323 0.928 . S
C321 N317 1.345 . S
C321 C322 1.371 . S
C321 H324 0.931 . S
C322 C318 1.391 . S
C322 C321 1.371 . S
C322 H329 0.930 . S
H323 C320 0.928 . S
H324 C321 0.931 . S
H325 C301 0.930 . S
H326 C298 0.930 . S
H327 C307 0.930 . S
H328 C319 0.929 . S
H329 C322 0.930 . S
C330 C331 1.351 1_554 S
C330 N333 1.368 . S
C330 H335 0.931 . S
C331 C330 1.351 1_556 S
C331 N332 1.373 . S
C331 H359 0.930 . S
N332 C331 1.373 . S
N332 C334 1.340 . S
N333 C330 1.368 . S
N333 C334 1.321 1_554 S
N333 Co336 2.135 . S
C334 N332 1.340 . S
C334 N333 1.321 1_556 S
C334 H358 0.930 . S
H335 C330 0.931 . S
Co336 N333 2.135 . S
Co336 N339 2.121 . S
Co336 O344 2.055 . S
Co336 O347 2.039 . S
Co336 N350 2.140 . S
C337 O338 1.227 . S
C337 O347 1.265 . S
O338 C337 1.227 . S
N339 Co336 2.121 . S
N339 C341 1.375 . S
N339 C342 1.313 . S
C340 C341 1.338 . S
C340 N343 1.377 . S
C340 H360 0.930 . S
C341 N339 1.375 . S
C341 C340 1.338 . S
C341 H345 0.931 . S
C342 N339 1.313 . S
C342 N343 1.344 . S
C342 H346 0.930 . S
N343 C340 1.377 . S
N343 C342 1.344 . S
O344 Co336 2.055 . S
O344 C348 1.253 . S
H345 C341 0.931 . S
H346 C342 0.930 . S
O347 Co336 2.039 . S
O347 C337 1.265 . S
C348 O344 1.253 . S
C348 O349 1.227 . S
O349 C348 1.227 . S
N350 Co336 2.140 . S
N350 C353 1.346 . S
N350 C354 1.345 . S
C351 C352 1.387 . S
C351 C355 1.391 . S
C352 C351 1.387 . S
C352 C353 1.369 . S
C352 H361 0.929 . S
C353 N350 1.346 . S
C353 C352 1.369 . S
C353 H356 0.928 . S
C354 N350 1.345 . S
C354 C355 1.371 . S
C354 H357 0.931 . S
C355 C351 1.391 . S
C355 C354 1.371 . S
C355 H362 0.930 . S
H356 C353 0.928 . S
H357 C354 0.931 . S
H358 C334 0.930 . S
H359 C331 0.930 . S
H360 C340 0.930 . S
H361 C352 0.929 . S
H362 C355 0.930 . S
C363 C364 1.351 . S
C363 N366 1.368 . S
C363 H368 0.931 . S
C364 C363 1.351 . S
C364 N365 1.373 . S
C364 H392 0.930 . S
N365 C364 1.373 . S
N365 C367 1.340 . S
N366 C363 1.368 . S
N366 C367 1.321 . S
N366 Co369 2.135 . S
C367 N365 1.340 . S
C367 N366 1.321 . S
C367 H391 0.930 . S
H368 C363 0.931 . S
Co369 N366 2.135 . S
Co369 N372 2.121 . S
Co369 O377 2.055 . S
Co369 O380 2.039 . S
Co369 N383 2.140 . S
C370 O371 1.227 . S
C370 O380 1.265 . S
O371 C370 1.227 . S
N372 Co369 2.121 . S
N372 C374 1.375 . S
N372 C375 1.313 . S
C373 C374 1.338 . S
C373 N376 1.377 . S
C373 H393 0.930 . S
C374 N372 1.375 . S
C374 C373 1.338 . S
C374 H378 0.931 . S
C375 N372 1.313 . S
C375 N376 1.344 . S
C375 H379 0.930 . S
N376 C373 1.377 . S
N376 C375 1.344 . S
O377 Co369 2.055 . S
O377 C381 1.253 . S
H378 C374 0.931 . S
H379 C375 0.930 . S
O380 Co369 2.039 . S
O380 C370 1.265 . S
C381 O377 1.253 . S
C381 O382 1.227 . S
O382 C381 1.227 . S
N383 Co369 2.140 . S
N383 C386 1.346 . S
N383 C387 1.345 . S
C384 C385 1.387 . S
C384 C388 1.391 . S
C385 C384 1.387 . S
C385 C386 1.369 . S
C385 H394 0.929 . S
C386 N383 1.346 . S
C386 C385 1.369 . S
C386 H389 0.928 . S
C387 N383 1.345 . S
C387 C388 1.371 . S
C387 H390 0.931 . S
C388 C384 1.391 . S
C388 C387 1.371 . S
C388 H395 0.930 . S
H389 C386 0.928 . S
H390 C387 0.931 . S
H391 C367 0.930 . S
H392 C364 0.930 . S
H393 C373 0.930 . S
H394 C385 0.929 . S
H395 C388 0.930 . S
C396 C397 1.391 . S
C396 C398 1.394 . S
C396 H412 0.931 . S
C397 C396 1.391 . S
C397 C401 1.376 . S
C398 C396 1.394 . S
C398 C399 1.369 . S
C398 C402 1.531 1_455 S
C399 C398 1.369 . S
C399 C400 1.410 . S
C399 C407 1.503 1_455 S
C400 C399 1.410 . S
C400 C401 1.392 . S
C400 C403 1.511 . S
C401 C397 1.376 . S
C401 C400 1.392 . S
C401 H413 0.929 . S
C402 C398 1.531 1_655 S
C402 H414 0.960 . S
C402 H415 0.962 . S
C402 H416 0.960 . S
C403 C400 1.511 . S
C403 H417 0.961 . S
C403 H418 0.961 . S
C403 H419 0.961 . S
C404 C405 1.370 . S
C404 C406 1.363 . S
C404 H420 0.931 . S
C405 C404 1.370 . S
C405 C409 1.408 . S
C406 C404 1.363 . S
C406 C407 1.370 . S
C406 C410 1.524 1_655 S
C407 C399 1.503 1_655 S
C407 C406 1.370 . S
C407 C408 1.403 . S
C408 C407 1.403 . S
C408 C409 1.404 . S
C408 C411 1.539 . S
C409 C405 1.408 . S
C409 C408 1.404 . S
C409 H421 0.930 . S
C410 C406 1.524 1_455 S
C410 H422 0.956 . S
C410 H423 0.961 . S
C410 H424 0.961 . S
C411 C408 1.539 . S
C411 H425 0.958 . S
C411 H426 0.961 . S
C411 H427 0.960 . S
H412 C396 0.931 . S
H413 C401 0.929 . S
H414 C402 0.960 . S
H415 C402 0.962 . S
H416 C402 0.960 . S
H417 C403 0.961 . S
H418 C403 0.961 . S
H419 C403 0.961 . S
H420 C404 0.931 . S
H421 C409 0.930 . S
H422 C410 0.956 . S
H423 C410 0.961 . S
H424 C410 0.961 . S
H425 C411 0.958 . S
H426 C411 0.961 . S
H427 C411 0.960 . S
C428 C429 1.391 . S
C428 C430 1.394 . S
C428 H444 0.931 . S
C429 C428 1.391 . S
C429 C433 1.376 . S
C430 C428 1.394 . S
C430 C431 1.369 . S
C430 C434 1.531 1_545 S
C431 C430 1.369 . S
C431 C432 1.410 . S
C431 C439 1.503 1_546 S
C432 C431 1.410 . S
C432 C433 1.392 . S
C432 C435 1.511 1_556 S
C433 C429 1.376 . S
C433 C432 1.392 . S
C433 H445 0.929 . S
C434 C430 1.531 1_565 S
C434 H446 0.960 . S
C434 H447 0.962 . S
C434 H448 0.960 . S
C435 C432 1.511 1_554 S
C435 H449 0.961 . S
C435 H450 0.961 . S
C435 H451 0.961 . S
C436 C437 1.370 . S
C436 C438 1.363 . S
C436 H452 0.931 . S
C437 C436 1.370 . S
C437 C441 1.408 . S
C438 C436 1.363 . S
C438 C439 1.370 . S
C438 C442 1.524 1_565 S
C439 C431 1.503 1_564 S
C439 C438 1.370 . S
C439 C440 1.402 1_554 S
C440 C439 1.402 1_556 S
C440 C441 1.403 1_556 S
C440 C443 1.540 . S
C441 C437 1.408 . S
C441 C440 1.403 1_554 S
C441 H453 0.930 . S
C442 C438 1.524 1_545 S
C442 H454 0.956 . S
C442 H455 0.961 . S
C442 H456 0.961 . S
C443 C440 1.540 . S
C443 H457 0.958 . S
C443 H458 0.961 . S
C443 H459 0.960 . S
H444 C428 0.931 . S
H445 C433 0.929 . S
H446 C434 0.960 . S
H447 C434 0.962 . S
H448 C434 0.960 . S
H449 C435 0.961 . S
H450 C435 0.961 . S
H451 C435 0.961 . S
H452 C436 0.931 . S
H453 C441 0.930 . S
H454 C442 0.956 . S
H455 C442 0.961 . S
H456 C442 0.961 . S
H457 C443 0.958 . S
H458 C443 0.961 . S
H459 C443 0.960 . S
C460 C461 1.391 . S
C460 C462 1.394 . S
C460 H476 0.931 . S
C461 C460 1.391 . S
C461 C465 1.376 . S
C462 C460 1.394 . S
C462 C463 1.369 . S
C462 C466 1.531 . S
C463 C462 1.369 . S
C463 C464 1.410 . S
C463 C471 1.503 . S
C464 C463 1.410 . S
C464 C465 1.392 . S
C464 C467 1.511 . S
C465 C461 1.376 . S
C465 C464 1.392 . S
C465 H477 0.929 . S
C466 C462 1.531 . S
C466 H478 0.960 . S
C466 H479 0.962 . S
C466 H480 0.960 . S
C467 C464 1.511 . S
C467 H481 0.961 . S
C467 H482 0.961 . S
C467 H483 0.961 . S
C468 C469 1.370 . S
C468 C470 1.363 . S
C468 H484 0.931 . S
C469 C468 1.370 . S
C469 C473 1.408 . S
C470 C468 1.363 . S
C470 C471 1.370 . S
C470 C474 1.524 . S
C471 C463 1.503 . S
C471 C470 1.370 . S
C471 C472 1.403 . S
C472 C471 1.403 . S
C472 C473 1.404 . S
C472 C475 1.539 . S
C473 C469 1.408 . S
C473 C472 1.404 . S
C473 H485 0.930 . S
C474 C470 1.524 . S
C474 H486 0.956 . S
C474 H487 0.961 . S
C474 H488 0.961 . S
C475 C472 1.539 . S
C475 H489 0.958 . S
C475 H490 0.961 . S
C475 H491 0.960 . S
H476 C460 0.931 . S
H477 C465 0.929 . S
H478 C466 0.960 . S
H479 C466 0.962 . S
H480 C466 0.960 . S
H481 C467 0.961 . S
H482 C467 0.961 . S
H483 C467 0.961 . S
H484 C468 0.931 . S
H485 C473 0.930 . S
H486 C474 0.956 . S
H487 C474 0.961 . S
H488 C474 0.961 . S
H489 C475 0.958 . S
H490 C475 0.961 . S
H491 C475 0.960 . S
C492 C493 1.391 . S
C492 C494 1.394 . S
C492 H508 0.931 . S
C493 C492 1.391 . S
C493 C497 1.376 . S
C494 C492 1.394 . S
C494 C495 1.369 . S
C494 C498 1.531 1_455 S
C495 C494 1.369 . S
C495 C496 1.410 . S
C495 C503 1.503 1_454 S
C496 C495 1.410 . S
C496 C497 1.392 . S
C496 C499 1.511 1_554 S
C497 C493 1.376 . S
C497 C496 1.392 . S
C497 H509 0.929 . S
C498 C494 1.531 1_655 S
C498 H510 0.960 . S
C498 H511 0.962 . S
C498 H512 0.960 . S
C499 C496 1.511 1_556 S
C499 H513 0.961 . S
C499 H514 0.961 . S
C499 H515 0.961 . S
C500 C501 1.370 . S
C500 C502 1.363 . S
C500 H516 0.931 . S
C501 C500 1.370 . S
C501 C505 1.408 . S
C502 C500 1.363 . S
C502 C503 1.370 . S
C502 C506 1.524 1_655 S
C503 C495 1.503 1_656 S
C503 C502 1.370 . S
C503 C504 1.402 . S
C504 C503 1.402 . S
C504 C505 1.404 . S
C504 C507 1.540 1_556 S
C505 C501 1.408 . S
C505 C504 1.404 . S
C505 H517 0.930 . S
C506 C502 1.524 1_455 S
C506 H518 0.956 . S
C506 H519 0.961 . S
C506 H520 0.961 . S
C507 C504 1.540 1_554 S
C507 H521 0.958 . S
C507 H522 0.961 . S
C507 H523 0.960 . S
H508 C492 0.931 . S
H509 C497 0.929 . S
H510 C498 0.960 . S
H511 C498 0.962 . S
H512 C498 0.960 . S
H513 C499 0.961 . S
H514 C499 0.961 . S
H515 C499 0.961 . S
H516 C500 0.931 . S
H517 C505 0.930 . S
H518 C506 0.956 . S
H519 C506 0.961 . S
H520 C506 0.961 . S
H521 C507 0.958 . S
H522 C507 0.961 . S
H523 C507 0.960 . S
C524 C525 1.391 . S
C524 C526 1.394 . S
C524 H540 0.931 . S
C525 C524 1.391 . S
C525 C529 1.376 . S
C526 C524 1.394 . S
C526 C527 1.369 . S
C526 C530 1.531 1_545 S
C527 C526 1.369 . S
C527 C528 1.410 . S
C527 C535 1.503 1_545 S
C528 C527 1.410 . S
C528 C529 1.392 . S
C528 C531 1.511 . S
C529 C525 1.376 . S
C529 C528 1.392 . S
C529 H541 0.929 . S
C530 C526 1.531 1_565 S
C530 H542 0.960 . S
C530 H543 0.962 . S
C530 H544 0.960 1_565 S
C531 C528 1.511 . S
C531 H545 0.961 . S
C531 H546 0.961 . S
C531 H547 0.961 . S
C532 C533 1.370 . S
C532 C534 1.363 . S
C532 H548 0.931 . S
C533 C532 1.370 . S
C533 C537 1.408 . S
C534 C532 1.363 . S
C534 C535 1.370 . S
C534 C538 1.524 . S
C535 C527 1.503 1_565 S
C535 C534 1.370 . S
C535 C536 1.403 . S
C536 C535 1.403 . S
C536 C537 1.404 . S
C536 C539 1.539 1_565 S
C537 C533 1.408 . S
C537 C536 1.404 . S
C537 H549 0.930 . S
C538 C534 1.524 . S
C538 H550 0.956 . S
C538 H551 0.961 . S
C538 H552 0.961 . S
C539 C536 1.539 1_545 S
C539 H553 0.958 . S
C539 H554 0.961 . S
C539 H555 0.960 . S
H540 C524 0.931 . S
H541 C529 0.929 . S
H542 C530 0.960 . S
H543 C530 0.962 . S
H544 C530 0.960 1_545 S
H545 C531 0.961 . S
H546 C531 0.961 . S
H547 C531 0.961 . S
H548 C532 0.931 . S
H549 C537 0.930 . S
H550 C538 0.956 . S
H551 C538 0.961 . S
H552 C538 0.961 . S
H553 C539 0.958 . S
H554 C539 0.961 . S
H555 C539 0.960 . S
C556 C557 1.391 . S
C556 C558 1.394 . S
C556 H572 0.931 . S
C557 C556 1.391 . S
C557 C561 1.376 . S
C558 C556 1.394 . S
C558 C559 1.369 . S
C558 C562 1.531 . S
C559 C558 1.369 . S
C559 C560 1.410 1_556 S
C559 C567 1.503 1_556 S
C560 C559 1.410 1_554 S
C560 C561 1.392 1_554 S
C560 C563 1.511 . S
C561 C557 1.376 . S
C561 C560 1.392 1_556 S
C561 H573 0.929 . S
C562 C558 1.531 . S
C562 H574 0.960 . S
C562 H575 0.962 . S
C562 H576 0.960 . S
C563 C560 1.511 . S
C563 H577 0.961 . S
C563 H578 0.961 . S
C563 H579 0.961 . S
C564 C565 1.370 . S
C564 C566 1.363 . S
C564 H580 0.931 . S
C565 C564 1.370 . S
C565 C569 1.408 . S
C566 C564 1.363 . S
C566 C567 1.370 . S
C566 C570 1.524 . S
C567 C559 1.503 1_554 S
C567 C566 1.370 . S
C567 C568 1.403 . S
C568 C567 1.403 . S
C568 C569 1.404 . S
C568 C571 1.539 1_554 S
C569 C565 1.408 . S
C569 C568 1.404 . S
C569 H581 0.930 . S
C570 C566 1.524 . S
C570 H582 0.956 1_554 S
C570 H583 0.961 . S
C570 H584 0.961 . S
C571 C568 1.539 1_556 S
C571 H585 0.958 . S
C571 H586 0.961 1_556 S
C571 H587 0.960 . S
H572 C556 0.931 . S
H573 C561 0.929 . S
H574 C562 0.960 . S
H575 C562 0.962 . S
H576 C562 0.960 . S
H577 C563 0.961 . S
H578 C563 0.961 . S
H579 C563 0.961 . S
H580 C564 0.931 . S
H581 C569 0.930 . S
H582 C570 0.956 1_556 S
H583 C570 0.961 . S
H584 C570 0.961 . S
H585 C571 0.958 . S
H586 C571 0.961 1_554 S
H587 C571 0.960 . S
C588 C589 1.391 . S
C588 C590 1.394 . S
C588 H604 0.931 . S
C589 C588 1.391 . S
C589 C593 1.376 . S
C590 C588 1.394 . S
C590 C591 1.369 . S
C590 C594 1.531 . S
C591 C590 1.369 . S
C591 C592 1.410 . S
C591 C599 1.503 . S
C592 C591 1.410 . S
C592 C593 1.392 . S
C592 C595 1.511 . S
C593 C589 1.376 . S
C593 C592 1.392 . S
C593 H605 0.929 . S
C594 C590 1.531 . S
C594 H606 0.960 . S
C594 H607 0.962 . S
C594 H608 0.960 . S
C595 C592 1.511 . S
C595 H609 0.961 . S
C595 H610 0.961 . S
C595 H611 0.961 . S
C596 C597 1.370 . S
C596 C598 1.363 . S
C596 H612 0.931 . S
C597 C596 1.370 . S
C597 C601 1.408 . S
C598 C596 1.363 . S
C598 C599 1.370 . S
C598 C602 1.524 . S
C599 C591 1.503 . S
C599 C598 1.370 . S
C599 C600 1.403 . S
C600 C599 1.403 . S
C600 C601 1.404 . S
C600 C603 1.539 . S
C601 C597 1.408 . S
C601 C600 1.404 . S
C601 H613 0.930 . S
C602 C598 1.524 . S
C602 H614 0.956 . S
C602 H615 0.961 . S
C602 H616 0.961 . S
C603 C600 1.539 . S
C603 H617 0.958 . S
C603 H618 0.961 . S
C603 H619 0.960 . S
H604 C588 0.931 . S
H605 C593 0.929 . S
H606 C594 0.960 . S
H607 C594 0.962 . S
H608 C594 0.960 . S
H609 C595 0.961 . S
H610 C595 0.961 . S
H611 C595 0.961 . S
H612 C596 0.931 . S
H613 C601 0.930 . S
H614 C602 0.956 . S
H615 C602 0.961 . S
H616 C602 0.961 . S
H617 C603 0.958 . S
H618 C603 0.961 . S
H619 C603 0.960 . S
C620 C621 1.391 . S
C620 C622 1.394 . S
C620 H636 0.931 . S
C621 C620 1.391 . S
C621 C625 1.376 . S
C622 C620 1.394 . S
C622 C623 1.369 . S
C622 C626 1.531 . S
C623 C622 1.369 . S
C623 C624 1.410 . S
C623 C631 1.503 . S
C624 C623 1.410 . S
C624 C625 1.392 . S
C624 C627 1.511 . S
C625 C621 1.376 . S
C625 C624 1.392 . S
C625 H637 0.929 . S
C626 C622 1.531 . S
C626 H638 0.960 . S
C626 H639 0.962 . S
C626 H640 0.960 . S
C627 C624 1.511 . S
C627 H641 0.961 . S
C627 H642 0.961 . S
C627 H643 0.961 . S
C628 C629 1.370 . S
C628 C630 1.363 . S
C628 H644 0.931 . S
C629 C628 1.370 . S
C629 C633 1.408 . S
C630 C628 1.363 . S
C630 C631 1.370 . S
C630 C634 1.524 . S
C631 C623 1.503 . S
C631 C630 1.370 . S
C631 C632 1.403 . S
C632 C631 1.403 . S
C632 C633 1.404 . S
C632 C635 1.539 . S
C633 C629 1.408 . S
C633 C632 1.404 . S
C633 H645 0.930 . S
C634 C630 1.524 . S
C634 H646 0.956 . S
C634 H647 0.961 . S
C634 H648 0.961 . S
C635 C632 1.539 . S
C635 H649 0.958 . S
C635 H650 0.961 . S
C635 H651 0.960 . S
H636 C620 0.931 . S
H637 C625 0.929 . S
H638 C626 0.960 . S
H639 C626 0.962 . S
H640 C626 0.960 . S
H641 C627 0.961 . S
H642 C627 0.961 . S
H643 C627 0.961 . S
H644 C628 0.931 . S
H645 C633 0.930 . S
H646 C634 0.956 . S
H647 C634 0.961 . S
H648 C634 0.961 . S
H649 C635 0.958 . S
H650 C635 0.961 . S
H651 C635 0.960 . S
C652 C653 1.391 . S
C652 C654 1.394 . S
C652 H668 0.931 . S
C653 C652 1.391 . S
C653 C657 1.376 . S
C654 C652 1.394 . S
C654 C655 1.369 . S
C654 C658 1.531 . S
C655 C654 1.369 . S
C655 C656 1.410 . S
C655 C663 1.503 . S
C656 C655 1.410 . S
C656 C657 1.392 . S
C656 C659 1.511 . S
C657 C653 1.376 . S
C657 C656 1.392 . S
C657 H669 0.929 . S
C658 C654 1.531 . S
C658 H670 0.960 . S
C658 H671 0.962 . S
C658 H672 0.960 . S
C659 C656 1.511 . S
C659 H673 0.961 . S
C659 H674 0.961 . S
C659 H675 0.961 . S
C660 C661 1.370 . S
C660 C662 1.363 . S
C660 H676 0.931 . S
C661 C660 1.370 . S
C661 C665 1.408 . S
C662 C660 1.363 . S
C662 C663 1.370 . S
C662 C666 1.524 . S
C663 C655 1.503 . S
C663 C662 1.370 . S
C663 C664 1.403 . S
C664 C663 1.403 . S
C664 C665 1.404 . S
C664 C667 1.539 . S
C665 C661 1.408 . S
C665 C664 1.404 . S
C665 H677 0.930 . S
C666 C662 1.524 . S
C666 H678 0.956 . S
C666 H679 0.961 . S
C666 H680 0.961 . S
C667 C664 1.539 . S
C667 H681 0.958 . S
C667 H682 0.961 . S
C667 H683 0.960 . S
H668 C652 0.931 . S
H669 C657 0.929 . S
H670 C658 0.960 . S
H671 C658 0.962 . S
H672 C658 0.960 . S
H673 C659 0.961 . S
H674 C659 0.961 . S
H675 C659 0.961 . S
H676 C660 0.931 . S
H677 C665 0.930 . S
H678 C666 0.956 . S
H679 C666 0.961 . S
H680 C666 0.961 . S
H681 C667 0.958 . S
H682 C667 0.961 . S
H683 C667 0.960 . S
C684 C685 1.391 . S
C684 C686 1.394 . S
C684 H700 0.931 . S
C685 C684 1.391 . S
C685 C689 1.376 . S
C686 C684 1.394 . S
C686 C687 1.369 . S
C686 C690 1.531 . S
C687 C686 1.369 . S
C687 C688 1.410 . S
C687 C695 1.503 . S
C688 C687 1.410 . S
C688 C689 1.392 . S
C688 C691 1.511 . S
C689 C685 1.376 . S
C689 C688 1.392 . S
C689 H701 0.929 . S
C690 C686 1.531 . S
C690 H702 0.960 . S
C690 H703 0.962 . S
C690 H704 0.960 . S
C691 C688 1.511 . S
C691 H705 0.961 . S
C691 H706 0.961 . S
C691 H707 0.961 . S
C692 C693 1.370 . S
C692 C694 1.363 . S
C692 H708 0.931 . S
C693 C692 1.370 . S
C693 C697 1.408 . S
C694 C692 1.363 . S
C694 C695 1.370 . S
C694 C698 1.524 . S
C695 C687 1.503 . S
C695 C694 1.370 . S
C695 C696 1.403 . S
C696 C695 1.403 . S
C696 C697 1.404 . S
C696 C699 1.539 . S
C697 C693 1.408 . S
C697 C696 1.404 . S
C697 H709 0.930 . S
C698 C694 1.524 . S
C698 H710 0.956 . S
C698 H711 0.961 . S
C698 H712 0.961 . S
C699 C696 1.539 . S
C699 H713 0.958 . S
C699 H714 0.961 . S
C699 H715 0.960 . S
H700 C684 0.931 . S
H701 C689 0.929 . S
H702 C690 0.960 . S
H703 C690 0.962 . S
H704 C690 0.960 . S
H705 C691 0.961 . S
H706 C691 0.961 . S
H707 C691 0.961 . S
H708 C692 0.931 . S
H709 C697 0.930 . S
H710 C698 0.956 . S
H711 C698 0.961 . S
H712 C698 0.961 . S
H713 C699 0.958 . S
H714 C699 0.961 . S
H715 C699 0.960 . S
C716 C717 1.391 . S
C716 C718 1.394 . S
C716 H732 0.931 . S
C717 C716 1.391 . S
C717 C721 1.376 . S
C718 C716 1.394 . S
C718 C719 1.369 . S
C718 C722 1.531 . S
C719 C718 1.369 . S
C719 C720 1.410 . S
C719 C727 1.503 . S
C720 C719 1.410 . S
C720 C721 1.392 . S
C720 C723 1.511 . S
C721 C717 1.376 . S
C721 C720 1.392 . S
C721 H733 0.929 . S
C722 C718 1.531 . S
C722 H734 0.960 . S
C722 H735 0.962 . S
C722 H736 0.960 . S
C723 C720 1.511 . S
C723 H737 0.961 . S
C723 H738 0.961 . S
C723 H739 0.961 . S
C724 C725 1.370 . S
C724 C726 1.363 . S
C724 H740 0.931 . S
C725 C724 1.370 . S
C725 C729 1.408 . S
C726 C724 1.363 . S
C726 C727 1.370 . S
C726 C730 1.524 . S
C727 C719 1.503 . S
C727 C726 1.370 . S
C727 C728 1.403 . S
C728 C727 1.403 . S
C728 C729 1.404 . S
C728 C731 1.539 . S
C729 C725 1.408 . S
C729 C728 1.404 . S
C729 H741 0.930 . S
C730 C726 1.524 . S
C730 H742 0.956 . S
C730 H743 0.961 . S
C730 H744 0.961 . S
C731 C728 1.539 . S
C731 H745 0.958 . S
C731 H746 0.961 . S
C731 H747 0.960 . S
H732 C716 0.931 . S
H733 C721 0.929 . S
H734 C722 0.960 . S
H735 C722 0.962 . S
H736 C722 0.960 . S
H737 C723 0.961 . S
H738 C723 0.961 . S
H739 C723 0.961 . S
H740 C724 0.931 . S
H741 C729 0.930 . S
H742 C730 0.956 . S
H743 C730 0.961 . S
H744 C730 0.961 . S
H745 C731 0.958 . S
H746 C731 0.961 . S
H747 C731 0.960 . S
C748 C749 1.391 . S
C748 C750 1.394 . S
C748 H764 0.931 . S
C749 C748 1.391 . S
C749 C753 1.376 . S
C750 C748 1.394 . S
C750 C751 1.369 . S
C750 C754 1.531 . S
C751 C750 1.369 . S
C751 C752 1.410 . S
C751 C759 1.503 . S
C752 C751 1.410 . S
C752 C753 1.392 . S
C752 C755 1.511 . S
C753 C749 1.376 . S
C753 C752 1.392 . S
C753 H765 0.929 . S
C754 C750 1.531 . S
C754 H766 0.960 . S
C754 H767 0.962 . S
C754 H768 0.960 . S
C755 C752 1.511 . S
C755 H769 0.961 . S
C755 H770 0.961 . S
C755 H771 0.961 . S
C756 C757 1.370 . S
C756 C758 1.363 . S
C756 H772 0.931 . S
C757 C756 1.370 . S
C757 C761 1.408 . S
C758 C756 1.363 . S
C758 C759 1.370 . S
C758 C762 1.524 . S
C759 C751 1.503 . S
C759 C758 1.370 . S
C759 C760 1.403 . S
C760 C759 1.403 . S
C760 C761 1.404 . S
C760 C763 1.539 . S
C761 C757 1.408 . S
C761 C760 1.404 . S
C761 H773 0.930 . S
C762 C758 1.524 . S
C762 H774 0.956 . S
C762 H775 0.961 . S
C762 H776 0.961 . S
C763 C760 1.539 . S
C763 H777 0.958 . S
C763 H778 0.961 . S
C763 H779 0.960 . S
H764 C748 0.931 . S
H765 C753 0.929 . S
H766 C754 0.960 . S
H767 C754 0.962 . S
H768 C754 0.960 . S
H769 C755 0.961 . S
H770 C755 0.961 . S
H771 C755 0.961 . S
H772 C756 0.931 . S
H773 C761 0.930 . S
H774 C762 0.956 . S
H775 C762 0.961 . S
H776 C762 0.961 . S
H777 C763 0.958 . S
H778 C763 0.961 . S
H779 C763 0.960 . S
C780 C781 1.391 . S
C780 C782 1.394 . S
C780 H796 0.931 . S
C781 C780 1.391 . S
C781 C785 1.376 . S
C782 C780 1.394 . S
C782 C783 1.369 . S
C782 C786 1.531 . S
C783 C782 1.369 . S
C783 C784 1.410 . S
C783 C791 1.503 . S
C784 C783 1.410 . S
C784 C785 1.392 . S
C784 C787 1.511 . S
C785 C781 1.376 . S
C785 C784 1.392 . S
C785 H797 0.929 . S
C786 C782 1.531 . S
C786 H798 0.960 . S
C786 H799 0.962 . S
C786 H800 0.960 . S
C787 C784 1.511 . S
C787 H801 0.961 . S
C787 H802 0.961 . S
C787 H803 0.961 . S
C788 C789 1.370 1_556 S
C788 C790 1.363 . S
C788 H804 0.931 . S
C789 C788 1.370 1_554 S
C789 C793 1.408 . S
C790 C788 1.363 . S
C790 C791 1.370 . S
C790 C794 1.524 . S
C791 C783 1.503 . S
C791 C790 1.370 . S
C791 C792 1.403 . S
C792 C791 1.403 . S
C792 C793 1.404 1_556 S
C792 C795 1.539 . S
C793 C789 1.408 . S
C793 C792 1.404 1_554 S
C793 H805 0.930 . S
C794 C790 1.524 . S
C794 H806 0.956 . S
C794 H807 0.961 . S
C794 H808 0.961 . S
C795 C792 1.539 . S
C795 H809 0.958 . S
C795 H810 0.961 . S
C795 H811 0.960 . S
H796 C780 0.931 . S
H797 C785 0.929 . S
H798 C786 0.960 . S
H799 C786 0.962 . S
H800 C786 0.960 . S
H801 C787 0.961 . S
H802 C787 0.961 . S
H803 C787 0.961 . S
H804 C788 0.931 . S
H805 C793 0.930 . S
H806 C794 0.956 . S
H807 C794 0.961 . S
H808 C794 0.961 . S
H809 C795 0.958 . S
H810 C795 0.961 . S
H811 C795 0.960 . S
C812 C813 1.391 . S
C812 C814 1.394 . S
C812 H828 0.931 . S
C813 C812 1.391 . S
C813 C817 1.376 . S
C814 C812 1.394 . S
C814 C815 1.369 . S
C814 C818 1.531 . S
C815 C814 1.369 . S
C815 C816 1.410 . S
C815 C823 1.503 . S
C816 C815 1.410 . S
C816 C817 1.392 . S
C816 C819 1.511 . S
C817 C813 1.376 . S
C817 C816 1.392 . S
C817 H829 0.929 . S
C818 C814 1.531 . S
C818 H830 0.960 . S
C818 H831 0.962 . S
C818 H832 0.960 . S
C819 C816 1.511 . S
C819 H833 0.961 . S
C819 H834 0.961 . S
C819 H835 0.961 . S
C820 C821 1.370 . S
C820 C822 1.363 . S
C820 H836 0.931 . S
C821 C820 1.370 . S
C821 C825 1.408 . S
C822 C820 1.363 . S
C822 C823 1.370 . S
C822 C826 1.524 . S
C823 C815 1.503 . S
C823 C822 1.370 . S
C823 C824 1.403 . S
C824 C823 1.403 . S
C824 C825 1.404 . S
C824 C827 1.539 . S
C825 C821 1.408 . S
C825 C824 1.404 . S
C825 H837 0.930 . S
C826 C822 1.524 . S
C826 H838 0.956 . S
C826 H839 0.961 . S
C826 H840 0.961 . S
C827 C824 1.539 . S
C827 H841 0.958 . S
C827 H842 0.961 . S
C827 H843 0.960 . S
H828 C812 0.931 . S
H829 C817 0.929 . S
H830 C818 0.960 . S
H831 C818 0.962 . S
H832 C818 0.960 . S
H833 C819 0.961 . S
H834 C819 0.961 . S
H835 C819 0.961 . S
H836 C820 0.931 . S
H837 C825 0.930 . S
H838 C826 0.956 . S
H839 C826 0.961 . S
H840 C826 0.961 . S
H841 C827 0.958 . S
H842 C827 0.961 . S
H843 C827 0.960 . S
C844 C845 1.391 . S
C844 C846 1.394 . S
C844 H860 0.931 . S
C845 C844 1.391 . S
C845 C849 1.376 . S
C846 C844 1.394 . S
C846 C847 1.369 . S
C846 C850 1.531 . S
C847 C846 1.369 . S
C847 C848 1.410 . S
C847 C855 1.503 . S
C848 C847 1.410 . S
C848 C849 1.392 . S
C848 C851 1.511 . S
C849 C845 1.376 . S
C849 C848 1.392 . S
C849 H861 0.929 . S
C850 C846 1.531 . S
C850 H862 0.960 . S
C850 H863 0.962 . S
C850 H864 0.960 . S
C851 C848 1.511 . S
C851 H865 0.961 . S
C851 H866 0.961 . S
C851 H867 0.961 . S
C852 C853 1.370 1_556 S
C852 C854 1.363 . S
C852 H868 0.931 1_556 S
C853 C852 1.370 1_554 S
C853 C857 1.408 1_554 S
C854 C852 1.363 . S
C854 C855 1.370 . S
C854 C858 1.524 . S
C855 C847 1.503 . S
C855 C854 1.370 . S
C855 C856 1.403 . S
C856 C855 1.403 . S
C856 C857 1.404 . S
C856 C859 1.539 . S
C857 C853 1.408 1_556 S
C857 C856 1.404 . S
C857 H869 0.930 1_556 S
C858 C854 1.524 . S
C858 H870 0.956 . S
C858 H871 0.961 . S
C858 H872 0.961 . S
C859 C856 1.539 . S
C859 H873 0.958 . S
C859 H874 0.961 . S
C859 H875 0.960 . S
H860 C844 0.931 . S
H861 C849 0.929 . S
H862 C850 0.960 . S
H863 C850 0.962 . S
H864 C850 0.960 . S
H865 C851 0.961 . S
H866 C851 0.961 . S
H867 C851 0.961 . S
H868 C852 0.931 1_554 S
H869 C857 0.930 1_554 S
H870 C858 0.956 . S
H871 C858 0.961 . S
H872 C858 0.961 . S
H873 C859 0.958 . S
H874 C859 0.961 . S
H875 C859 0.960 . S
C876 C877 1.391 . S
C876 C878 1.394 . S
C876 H892 0.931 . S
C877 C876 1.391 . S
C877 C881 1.376 . S
C878 C876 1.394 . S
C878 C879 1.369 . S
C878 C882 1.531 . S
C879 C878 1.369 . S
C879 C880 1.410 . S
C879 C887 1.503 . S
C880 C879 1.410 . S
C880 C881 1.392 . S
C880 C883 1.511 . S
C881 C877 1.376 . S
C881 C880 1.392 . S
C881 H893 0.929 . S
C882 C878 1.531 . S
C882 H894 0.960 . S
C882 H895 0.962 . S
C882 H896 0.960 . S
C883 C880 1.511 . S
C883 H897 0.961 . S
C883 H898 0.961 . S
C883 H899 0.961 . S
C884 C885 1.370 . S
C884 C886 1.363 . S
C884 H900 0.931 . S
C885 C884 1.370 . S
C885 C889 1.408 . S
C886 C884 1.363 . S
C886 C887 1.370 . S
C886 C890 1.524 . S
C887 C879 1.503 . S
C887 C886 1.370 . S
C887 C888 1.403 . S
C888 C887 1.403 . S
C888 C889 1.404 . S
C888 C891 1.539 . S
C889 C885 1.408 . S
C889 C888 1.404 . S
C889 H901 0.930 . S
C890 C886 1.524 . S
C890 H902 0.956 . S
C890 H903 0.961 . S
C890 H904 0.961 . S
C891 C888 1.539 . S
C891 H905 0.958 . S
C891 H906 0.961 . S
C891 H907 0.960 . S
H892 C876 0.931 . S
H893 C881 0.929 . S
H894 C882 0.960 . S
H895 C882 0.962 . S
H896 C882 0.960 . S
H897 C883 0.961 . S
H898 C883 0.961 . S
H899 C883 0.961 . S
H900 C884 0.931 . S
H901 C889 0.930 . S
H902 C890 0.956 . S
H903 C890 0.961 . S
H904 C890 0.961 . S
H905 C891 0.958 . S
H906 C891 0.961 . S
H907 C891 0.960 . S
C908 C909 1.391 . S
C908 C910 1.394 . S
C908 H924 0.931 . S
C909 C908 1.391 . S
C909 C913 1.376 . S
C910 C908 1.394 . S
C910 C911 1.369 . S
C910 C914 1.531 . S
C911 C910 1.369 . S
C911 C912 1.410 . S
C911 C919 1.503 . S
C912 C911 1.410 . S
C912 C913 1.392 . S
C912 C915 1.511 . S
C913 C909 1.376 . S
C913 C912 1.392 . S
C913 H925 0.929 . S
C914 C910 1.531 . S
C914 H926 0.960 . S
C914 H927 0.962 . S
C914 H928 0.960 . S
C915 C912 1.511 . S
C915 H929 0.961 . S
C915 H930 0.961 . S
C915 H931 0.961 . S
C916 C917 1.370 1_556 S
C916 C918 1.363 . S
C916 H932 0.931 1_556 S
C917 C916 1.370 1_554 S
C917 C921 1.408 1_554 S
C918 C916 1.363 . S
C918 C919 1.370 . S
C918 C922 1.524 . S
C919 C911 1.503 . S
C919 C918 1.370 . S
C919 C920 1.403 . S
C920 C919 1.403 . S
C920 C921 1.404 . S
C920 C923 1.539 . S
C921 C917 1.408 1_556 S
C921 C920 1.404 . S
C921 H933 0.930 1_556 S
C922 C918 1.524 . S
C922 H934 0.956 . S
C922 H935 0.961 . S
C922 H936 0.961 . S
C923 C920 1.539 . S
C923 H937 0.958 . S
C923 H938 0.961 . S
C923 H939 0.960 . S
H924 C908 0.931 . S
H925 C913 0.929 . S
H926 C914 0.960 . S
H927 C914 0.962 . S
H928 C914 0.960 . S
H929 C915 0.961 . S
H930 C915 0.961 . S
H931 C915 0.961 . S
H932 C916 0.931 1_554 S
H933 C921 0.930 1_554 S
H934 C922 0.956 . S
H935 C922 0.961 . S
H936 C922 0.961 . S
H937 C923 0.958 . S
H938 C923 0.961 . S
H939 C923 0.960 . S
C940 C941 1.391 . S
C940 C942 1.394 . S
C940 H956 0.931 . S
C941 C940 1.391 . S
C941 C945 1.376 . S
C942 C940 1.394 . S
C942 C943 1.369 . S
C942 C946 1.531 . S
C943 C942 1.369 . S
C943 C944 1.410 . S
C943 C951 1.503 . S
C944 C943 1.410 . S
C944 C945 1.392 . S
C944 C947 1.511 . S
C945 C941 1.376 . S
C945 C944 1.392 . S
C945 H957 0.929 . S
C946 C942 1.531 . S
C946 H958 0.960 . S
C946 H959 0.962 . S
C946 H960 0.960 . S
C947 C944 1.511 . S
C947 H961 0.961 . S
C947 H962 0.961 . S
C947 H963 0.961 . S
C948 C949 1.370 . S
C948 C950 1.363 . S
C948 H964 0.931 . S
C949 C948 1.370 . S
C949 C953 1.408 . S
C950 C948 1.363 . S
C950 C951 1.370 . S
C950 C954 1.524 . S
C951 C943 1.503 . S
C951 C950 1.370 . S
C951 C952 1.403 . S
C952 C951 1.403 . S
C952 C953 1.404 . S
C952 C955 1.539 . S
C953 C949 1.408 . S
C953 C952 1.404 . S
C953 H965 0.930 . S
C954 C950 1.524 . S
C954 H966 0.956 . S
C954 H967 0.961 . S
C954 H968 0.961 . S
C955 C952 1.539 . S
C955 H969 0.958 . S
C955 H970 0.961 . S
C955 H971 0.960 . S
H956 C940 0.931 . S
H957 C945 0.929 . S
H958 C946 0.960 . S
H959 C946 0.962 . S
H960 C946 0.960 . S
H961 C947 0.961 . S
H962 C947 0.961 . S
H963 C947 0.961 . S
H964 C948 0.931 . S
H965 C953 0.930 . S
H966 C954 0.956 . S
H967 C954 0.961 . S
H968 C954 0.961 . S
H969 C955 0.958 . S
H970 C955 0.961 . S
H971 C955 0.960 . S
C972 C973 1.391 . S
C972 C974 1.394 . S
C972 H988 0.931 . S
C973 C972 1.391 . S
C973 C977 1.376 . S
C974 C972 1.394 . S
C974 C975 1.369 . S
C974 C978 1.531 . S
C975 C974 1.369 . S
C975 C976 1.410 . S
C975 C983 1.503 . S
C976 C975 1.410 . S
C976 C977 1.392 . S
C976 C979 1.511 . S
C977 C973 1.376 . S
C977 C976 1.392 . S
C977 H989 0.929 . S
C978 C974 1.531 . S
C978 H990 0.960 . S
C978 H991 0.962 . S
C978 H992 0.960 . S
C979 C976 1.511 . S
C979 H993 0.961 . S
C979 H994 0.961 . S
C979 H995 0.961 . S
C980 C981 1.370 . S
C980 C982 1.363 . S
C980 H996 0.931 . S
C981 C980 1.370 . S
C981 C985 1.408 . S
C982 C980 1.363 . S
C982 C983 1.370 . S
C982 C986 1.524 . S
C983 C975 1.503 . S
C983 C982 1.370 . S
C983 C984 1.403 . S
C984 C983 1.403 . S
C984 C985 1.404 . S
C984 C987 1.539 . S
C985 C981 1.408 . S
C985 C984 1.404 . S
C985 H997 0.930 . S
C986 C982 1.524 . S
C986 H998 0.956 . S
C986 H999 0.961 . S
C986 H1000 0.961 . S
C987 C984 1.539 . S
C987 H1001 0.958 . S
C987 H1002 0.961 . S
C987 H1003 0.960 . S
H988 C972 0.931 . S
H989 C977 0.929 . S
H990 C978 0.960 . S
H991 C978 0.962 . S
H992 C978 0.960 . S
H993 C979 0.961 . S
H994 C979 0.961 . S
H995 C979 0.961 . S
H996 C980 0.931 . S
H997 C985 0.930 . S
H998 C986 0.956 . S
H999 C986 0.961 . S
H1000 C986 0.961 . S
H1001 C987 0.958 . S
H1002 C987 0.961 . S
H1003 C987 0.960 . S
C1004 C1005 1.391 . S
C1004 C1006 1.394 . S
C1004 H1020 0.931 . S
C1005 C1004 1.391 . S
C1005 C1009 1.376 . S
C1006 C1004 1.394 . S
C1006 C1007 1.369 . S
C1006 C1010 1.531 . S
C1007 C1006 1.369 . S
C1007 C1008 1.410 . S
C1007 C1015 1.503 . S
C1008 C1007 1.410 . S
C1008 C1009 1.392 . S
C1008 C1011 1.511 . S
C1009 C1005 1.376 . S
C1009 C1008 1.392 . S
C1009 H1021 0.929 . S
C1010 C1006 1.531 . S
C1010 H1022 0.960 . S
C1010 H1023 0.962 . S
C1010 H1024 0.960 . S
C1011 C1008 1.511 . S
C1011 H1025 0.961 . S
C1011 H1026 0.961 . S
C1011 H1027 0.961 . S
C1012 C1013 1.370 1_554 S
C1012 C1014 1.363 . S
C1012 H1028 0.931 . S
C1013 C1012 1.370 1_556 S
C1013 C1017 1.408 . S
C1014 C1012 1.363 . S
C1014 C1015 1.370 . S
C1014 C1018 1.524 . S
C1015 C1007 1.503 . S
C1015 C1014 1.370 . S
C1015 C1016 1.403 . S
C1016 C1015 1.403 . S
C1016 C1017 1.404 1_554 S
C1016 C1019 1.539 . S
C1017 C1013 1.408 . S
C1017 C1016 1.404 1_556 S
C1017 H1029 0.930 . S
C1018 C1014 1.524 . S
C1018 H1030 0.956 . S
C1018 H1031 0.961 . S
C1018 H1032 0.961 . S
C1019 C1016 1.539 . S
C1019 H1033 0.958 . S
C1019 H1034 0.961 . S
C1019 H1035 0.960 . S
H1020 C1004 0.931 . S
H1021 C1009 0.929 . S
H1022 C1010 0.960 . S
H1023 C1010 0.962 . S
H1024 C1010 0.960 . S
H1025 C1011 0.961 . S
H1026 C1011 0.961 . S
H1027 C1011 0.961 . S
H1028 C1012 0.931 . S
H1029 C1017 0.930 . S
H1030 C1018 0.956 . S
H1031 C1018 0.961 . S
H1032 C1018 0.961 . S
H1033 C1019 0.958 . S
H1034 C1019 0.961 . S
H1035 C1019 0.960 . S
C1036 C1037 1.391 . S
C1036 C1038 1.394 . S
C1036 H1052 0.931 . S
C1037 C1036 1.391 . S
C1037 C1041 1.376 . S
C1038 C1036 1.394 . S
C1038 C1039 1.369 . S
C1038 C1042 1.531 . S
C1039 C1038 1.369 . S
C1039 C1040 1.410 . S
C1039 C1047 1.503 . S
C1040 C1039 1.410 . S
C1040 C1041 1.392 . S
C1040 C1043 1.511 . S
C1041 C1037 1.376 . S
C1041 C1040 1.392 . S
C1041 H1053 0.929 . S
C1042 C1038 1.531 . S
C1042 H1054 0.960 . S
C1042 H1055 0.962 . S
C1042 H1056 0.960 . S
C1043 C1040 1.511 . S
C1043 H1057 0.961 . S
C1043 H1058 0.961 . S
C1043 H1059 0.961 . S
C1044 C1045 1.370 . S
C1044 C1046 1.363 . S
C1044 H1060 0.931 . S
C1045 C1044 1.370 . S
C1045 C1049 1.408 . S
C1046 C1044 1.363 . S
C1046 C1047 1.370 . S
C1046 C1050 1.524 . S
C1047 C1039 1.503 . S
C1047 C1046 1.370 . S
C1047 C1048 1.403 . S
C1048 C1047 1.403 . S
C1048 C1049 1.404 . S
C1048 C1051 1.539 . S
C1049 C1045 1.408 . S
C1049 C1048 1.404 . S
C1049 H1061 0.930 . S
C1050 C1046 1.524 . S
C1050 H1062 0.956 . S
C1050 H1063 0.961 . S
C1050 H1064 0.961 . S
C1051 C1048 1.539 . S
C1051 H1065 0.958 . S
C1051 H1066 0.961 . S
C1051 H1067 0.960 . S
H1052 C1036 0.931 . S
H1053 C1041 0.929 . S
H1054 C1042 0.960 . S
H1055 C1042 0.962 . S
H1056 C1042 0.960 . S
H1057 C1043 0.961 . S
H1058 C1043 0.961 . S
H1059 C1043 0.961 . S
H1060 C1044 0.931 . S
H1061 C1049 0.930 . S
H1062 C1050 0.956 . S
H1063 C1050 0.961 . S
H1064 C1050 0.961 . S
H1065 C1051 0.958 . S
H1066 C1051 0.961 . S
H1067 C1051 0.960 . S
C1068 C1069 1.391 1_554 S
C1068 C1070 1.394 . S
C1068 H1084 0.931 1_554 S
C1069 C1068 1.391 1_556 S
C1069 C1073 1.376 1_556 S
C1070 C1068 1.394 . S
C1070 C1071 1.369 . S
C1070 C1074 1.531 . S
C1071 C1070 1.369 . S
C1071 C1072 1.410 . S
C1071 C1079 1.503 . S
C1072 C1071 1.410 . S
C1072 C1073 1.392 . S
C1072 C1075 1.511 . S
C1073 C1069 1.376 1_554 S
C1073 C1072 1.392 . S
C1073 H1085 0.929 1_554 S
C1074 C1070 1.531 . S
C1074 H1086 0.960 . S
C1074 H1087 0.962 . S
C1074 H1088 0.960 . S
C1075 C1072 1.511 . S
C1075 H1089 0.961 . S
C1075 H1090 0.961 . S
C1075 H1091 0.961 . S
C1076 C1077 1.370 . S
C1076 C1078 1.363 . S
C1076 H1092 0.931 . S
C1077 C1076 1.370 . S
C1077 C1081 1.408 . S
C1078 C1076 1.363 . S
C1078 C1079 1.370 . S
C1078 C1082 1.524 . S
C1079 C1071 1.503 . S
C1079 C1078 1.370 . S
C1079 C1080 1.403 . S
C1080 C1079 1.403 . S
C1080 C1081 1.404 . S
C1080 C1083 1.539 . S
C1081 C1077 1.408 . S
C1081 C1080 1.404 . S
C1081 H1093 0.930 . S
C1082 C1078 1.524 . S
C1082 H1094 0.956 . S
C1082 H1095 0.961 . S
C1082 H1096 0.961 . S
C1083 C1080 1.539 . S
C1083 H1097 0.958 . S
C1083 H1098 0.961 . S
C1083 H1099 0.960 . S
H1084 C1068 0.931 1_556 S
H1085 C1073 0.929 1_556 S
H1086 C1074 0.960 . S
H1087 C1074 0.962 . S
H1088 C1074 0.960 . S
H1089 C1075 0.961 . S
H1090 C1075 0.961 . S
H1091 C1075 0.961 . S
H1092 C1076 0.931 . S
H1093 C1081 0.930 . S
H1094 C1082 0.956 . S
H1095 C1082 0.961 . S
H1096 C1082 0.961 . S
H1097 C1083 0.958 . S
H1098 C1083 0.961 . S
H1099 C1083 0.960 . S
C1100 C1101 1.391 . S
C1100 C1102 1.394 . S
C1100 H1116 0.931 . S
C1101 C1100 1.391 . S
C1101 C1105 1.376 . S
C1102 C1100 1.394 . S
C1102 C1103 1.369 . S
C1102 C1106 1.531 . S
C1103 C1102 1.369 . S
C1103 C1104 1.410 . S
C1103 C1111 1.503 . S
C1104 C1103 1.410 . S
C1104 C1105 1.392 . S
C1104 C1107 1.511 . S
C1105 C1101 1.376 . S
C1105 C1104 1.392 . S
C1105 H1117 0.929 . S
C1106 C1102 1.531 . S
C1106 H1118 0.960 . S
C1106 H1119 0.962 . S
C1106 H1120 0.960 . S
C1107 C1104 1.511 . S
C1107 H1121 0.961 . S
C1107 H1122 0.961 . S
C1107 H1123 0.961 . S
C1108 C1109 1.370 . S
C1108 C1110 1.363 . S
C1108 H1124 0.931 . S
C1109 C1108 1.370 . S
C1109 C1113 1.408 . S
C1110 C1108 1.363 . S
C1110 C1111 1.370 . S
C1110 C1114 1.524 . S
C1111 C1103 1.503 . S
C1111 C1110 1.370 . S
C1111 C1112 1.403 . S
C1112 C1111 1.403 . S
C1112 C1113 1.404 . S
C1112 C1115 1.539 . S
C1113 C1109 1.408 . S
C1113 C1112 1.404 . S
C1113 H1125 0.930 . S
C1114 C1110 1.524 . S
C1114 H1126 0.956 . S
C1114 H1127 0.961 . S
C1114 H1128 0.961 . S
C1115 C1112 1.539 . S
C1115 H1129 0.958 . S
C1115 H1130 0.961 . S
C1115 H1131 0.960 . S
H1116 C1100 0.931 . S
H1117 C1105 0.929 . S
H1118 C1106 0.960 . S
H1119 C1106 0.962 . S
H1120 C1106 0.960 . S
H1121 C1107 0.961 . S
H1122 C1107 0.961 . S
H1123 C1107 0.961 . S
H1124 C1108 0.931 . S
H1125 C1113 0.930 . S
H1126 C1114 0.956 . S
H1127 C1114 0.961 . S
H1128 C1114 0.961 . S
H1129 C1115 0.958 . S
H1130 C1115 0.961 . S
H1131 C1115 0.960 . S
C1132 C1133 1.391 . S
C1132 C1134 1.394 . S
C1132 H1148 0.931 . S
C1133 C1132 1.391 . S
C1133 C1137 1.376 . S
C1134 C1132 1.394 . S
C1134 C1135 1.369 . S
C1134 C1138 1.531 . S
C1135 C1134 1.369 . S
C1135 C1136 1.410 . S
C1135 C1143 1.503 . S
C1136 C1135 1.410 . S
C1136 C1137 1.392 . S
C1136 C1139 1.511 . S
C1137 C1133 1.376 . S
C1137 C1136 1.392 . S
C1137 H1149 0.929 . S
C1138 C1134 1.531 . S
C1138 H1150 0.960 . S
C1138 H1151 0.962 . S
C1138 H1152 0.960 . S
C1139 C1136 1.511 . S
C1139 H1153 0.961 . S
C1139 H1154 0.961 . S
C1139 H1155 0.961 . S
C1140 C1141 1.370 1_554 S
C1140 C1142 1.363 . S
C1140 H1156 0.931 1_554 S
C1141 C1140 1.370 1_556 S
C1141 C1145 1.408 1_556 S
C1142 C1140 1.363 . S
C1142 C1143 1.370 . S
C1142 C1146 1.524 . S
C1143 C1135 1.503 . S
C1143 C1142 1.370 . S
C1143 C1144 1.403 . S
C1144 C1143 1.403 . S
C1144 C1145 1.404 . S
C1144 C1147 1.539 . S
C1145 C1141 1.408 1_554 S
C1145 C1144 1.404 . S
C1145 H1157 0.930 1_554 S
C1146 C1142 1.524 . S
C1146 H1158 0.956 . S
C1146 H1159 0.961 . S
C1146 H1160 0.961 . S
C1147 C1144 1.539 . S
C1147 H1161 0.958 . S
C1147 H1162 0.961 . S
C1147 H1163 0.960 . S
H1148 C1132 0.931 . S
H1149 C1137 0.929 . S
H1150 C1138 0.960 . S
H1151 C1138 0.962 . S
H1152 C1138 0.960 . S
H1153 C1139 0.961 . S
H1154 C1139 0.961 . S
H1155 C1139 0.961 . S
H1156 C1140 0.931 1_556 S
H1157 C1145 0.930 1_556 S
H1158 C1146 0.956 . S
H1159 C1146 0.961 . S
H1160 C1146 0.961 . S
H1161 C1147 0.958 . S
H1162 C1147 0.961 . S
H1163 C1147 0.960 . S
C1164 C1165 1.391 . S
C1164 C1166 1.394 . S
C1164 H1180 0.931 . S
C1165 C1164 1.391 . S
C1165 C1169 1.376 . S
C1166 C1164 1.394 . S
C1166 C1167 1.369 . S
C1166 C1170 1.531 . S
C1167 C1166 1.369 . S
C1167 C1168 1.410 . S
C1167 C1175 1.503 . S
C1168 C1167 1.410 . S
C1168 C1169 1.392 . S
C1168 C1171 1.511 . S
C1169 C1165 1.376 . S
C1169 C1168 1.392 . S
C1169 H1181 0.929 . S
C1170 C1166 1.531 . S
C1170 H1182 0.960 . S
C1170 H1183 0.962 . S
C1170 H1184 0.960 . S
C1171 C1168 1.511 . S
C1171 H1185 0.961 . S
C1171 H1186 0.961 . S
C1171 H1187 0.961 . S
C1172 C1173 1.370 . S
C1172 C1174 1.363 . S
C1172 H1188 0.931 . S
C1173 C1172 1.370 . S
C1173 C1177 1.408 . S
C1174 C1172 1.363 . S
C1174 C1175 1.370 . S
C1174 C1178 1.524 . S
C1175 C1167 1.503 . S
C1175 C1174 1.370 . S
C1175 C1176 1.403 . S
C1176 C1175 1.403 . S
C1176 C1177 1.404 . S
C1176 C1179 1.539 . S
C1177 C1173 1.408 . S
C1177 C1176 1.404 . S
C1177 H1189 0.930 . S
C1178 C1174 1.524 . S
C1178 H1190 0.956 . S
C1178 H1191 0.961 . S
C1178 H1192 0.961 . S
C1179 C1176 1.539 . S
C1179 H1193 0.958 . S
C1179 H1194 0.961 . S
C1179 H1195 0.960 . S
H1180 C1164 0.931 . S
H1181 C1169 0.929 . S
H1182 C1170 0.960 . S
H1183 C1170 0.962 . S
H1184 C1170 0.960 . S
H1185 C1171 0.961 . S
H1186 C1171 0.961 . S
H1187 C1171 0.961 . S
H1188 C1172 0.931 . S
H1189 C1177 0.930 . S
H1190 C1178 0.956 . S
H1191 C1178 0.961 . S
H1192 C1178 0.961 . S
H1193 C1179 0.958 . S
H1194 C1179 0.961 . S
H1195 C1179 0.960 . S
C1196 C1197 1.391 . S
C1196 C1198 1.394 . S
C1196 H1212 0.931 . S
C1197 C1196 1.391 . S
C1197 C1201 1.376 . S
C1198 C1196 1.394 . S
C1198 C1199 1.369 . S
C1198 C1202 1.531 . S
C1199 C1198 1.369 . S
C1199 C1200 1.410 . S
C1199 C1207 1.503 . S
C1200 C1199 1.410 . S
C1200 C1201 1.392 . S
C1200 C1203 1.511 . S
C1201 C1197 1.376 . S
C1201 C1200 1.392 . S
C1201 H1213 0.929 . S
C1202 C1198 1.531 . S
C1202 H1214 0.960 . S
C1202 H1215 0.962 . S
C1202 H1216 0.960 . S
C1203 C1200 1.511 . S
C1203 H1217 0.961 . S
C1203 H1218 0.961 . S
C1203 H1219 0.961 . S
C1204 C1205 1.370 . S
C1204 C1206 1.363 . S
C1204 H1220 0.931 . S
C1205 C1204 1.370 . S
C1205 C1209 1.408 . S
C1206 C1204 1.363 . S
C1206 C1207 1.370 . S
C1206 C1210 1.524 . S
C1207 C1199 1.503 . S
C1207 C1206 1.370 . S
C1207 C1208 1.403 . S
C1208 C1207 1.403 . S
C1208 C1209 1.404 . S
C1208 C1211 1.539 . S
C1209 C1205 1.408 . S
C1209 C1208 1.404 . S
C1209 H1221 0.930 . S
C1210 C1206 1.524 . S
C1210 H1222 0.956 . S
C1210 H1223 0.961 . S
C1210 H1224 0.961 . S
C1211 C1208 1.539 . S
C1211 H1225 0.958 . S
C1211 H1226 0.961 . S
C1211 H1227 0.960 . S
H1212 C1196 0.931 . S
H1213 C1201 0.929 . S
H1214 C1202 0.960 . S
H1215 C1202 0.962 . S
H1216 C1202 0.960 . S
H1217 C1203 0.961 . S
H1218 C1203 0.961 . S
H1219 C1203 0.961 . S
H1220 C1204 0.931 . S
H1221 C1209 0.930 . S
H1222 C1210 0.956 . S
H1223 C1210 0.961 . S
H1224 C1210 0.961 . S
H1225 C1211 0.958 . S
H1226 C1211 0.961 . S
H1227 C1211 0.960 . S
C1228 C1229 1.391 . S
C1228 C1230 1.394 . S
C1228 H1244 0.931 . S
C1229 C1228 1.391 . S
C1229 C1233 1.376 . S
C1230 C1228 1.394 . S
C1230 C1231 1.369 . S
C1230 C1234 1.531 . S
C1231 C1230 1.369 . S
C1231 C1232 1.410 . S
C1231 C1239 1.503 . S
C1232 C1231 1.410 . S
C1232 C1233 1.392 . S
C1232 C1235 1.511 . S
C1233 C1229 1.376 . S
C1233 C1232 1.392 . S
C1233 H1245 0.929 . S
C1234 C1230 1.531 . S
C1234 H1246 0.960 . S
C1234 H1247 0.962 . S
C1234 H1248 0.960 . S
C1235 C1232 1.511 . S
C1235 H1249 0.961 . S
C1235 H1250 0.961 . S
C1235 H1251 0.961 . S
C1236 C1237 1.370 . S
C1236 C1238 1.363 . S
C1236 H1252 0.931 . S
C1237 C1236 1.370 . S
C1237 C1241 1.408 . S
C1238 C1236 1.363 . S
C1238 C1239 1.370 . S
C1238 C1242 1.524 . S
C1239 C1231 1.503 . S
C1239 C1238 1.370 . S
C1239 C1240 1.403 . S
C1240 C1239 1.403 . S
C1240 C1241 1.404 . S
C1240 C1243 1.539 . S
C1241 C1237 1.408 . S
C1241 C1240 1.404 . S
C1241 H1253 0.930 . S
C1242 C1238 1.524 . S
C1242 H1254 0.956 . S
C1242 H1255 0.961 . S
C1242 H1256 0.961 . S
C1243 C1240 1.539 . S
C1243 H1257 0.958 . S
C1243 H1258 0.961 . S
C1243 H1259 0.960 . S
H1244 C1228 0.931 . S
H1245 C1233 0.929 . S
H1246 C1234 0.960 . S
H1247 C1234 0.962 . S
H1248 C1234 0.960 . S
H1249 C1235 0.961 . S
H1250 C1235 0.961 . S
H1251 C1235 0.961 . S
H1252 C1236 0.931 . S
H1253 C1241 0.930 . S
H1254 C1242 0.956 . S
H1255 C1242 0.961 . S
H1256 C1242 0.961 . S
H1257 C1243 0.958 . S
H1258 C1243 0.961 . S
H1259 C1243 0.960 . S
C1260 C1261 1.391 . S
C1260 C1262 1.394 . S
C1260 H1276 0.931 . S
C1261 C1260 1.391 . S
C1261 C1265 1.376 . S
C1262 C1260 1.394 . S
C1262 C1263 1.369 . S
C1262 C1266 1.531 . S
C1263 C1262 1.369 . S
C1263 C1264 1.410 . S
C1263 C1271 1.503 . S
C1264 C1263 1.410 . S
C1264 C1265 1.392 . S
C1264 C1267 1.511 . S
C1265 C1261 1.376 . S
C1265 C1264 1.392 . S
C1265 H1277 0.929 . S
C1266 C1262 1.531 . S
C1266 H1278 0.960 . S
C1266 H1279 0.962 . S
C1266 H1280 0.960 . S
C1267 C1264 1.511 . S
C1267 H1281 0.961 . S
C1267 H1282 0.961 . S
C1267 H1283 0.961 . S
C1268 C1269 1.370 . S
C1268 C1270 1.363 . S
C1268 H1284 0.931 . S
C1269 C1268 1.370 . S
C1269 C1273 1.408 . S
C1270 C1268 1.363 . S
C1270 C1271 1.370 . S
C1270 C1274 1.524 . S
C1271 C1263 1.503 . S
C1271 C1270 1.370 . S
C1271 C1272 1.403 . S
C1272 C1271 1.403 . S
C1272 C1273 1.404 . S
C1272 C1275 1.539 . S
C1273 C1269 1.408 . S
C1273 C1272 1.404 . S
C1273 H1285 0.930 . S
C1274 C1270 1.524 . S
C1274 H1286 0.956 . S
C1274 H1287 0.961 . S
C1274 H1288 0.961 . S
C1275 C1272 1.539 . S
C1275 H1289 0.958 . S
C1275 H1290 0.961 . S
C1275 H1291 0.960 . S
H1276 C1260 0.931 . S
H1277 C1265 0.929 . S
H1278 C1266 0.960 . S
H1279 C1266 0.962 . S
H1280 C1266 0.960 . S
H1281 C1267 0.961 . S
H1282 C1267 0.961 . S
H1283 C1267 0.961 . S
H1284 C1268 0.931 . S
H1285 C1273 0.930 . S
H1286 C1274 0.956 . S
H1287 C1274 0.961 . S
H1288 C1274 0.961 . S
H1289 C1275 0.958 . S
H1290 C1275 0.961 . S
H1291 C1275 0.960 . S
C1292 C1293 1.391 . S
C1292 C1294 1.394 . S
C1292 H1308 0.931 . S
C1293 C1292 1.391 . S
C1293 C1297 1.376 . S
C1294 C1292 1.394 . S
C1294 C1295 1.369 . S
C1294 C1298 1.531 . S
C1295 C1294 1.369 . S
C1295 C1296 1.410 . S
C1295 C1303 1.503 . S
C1296 C1295 1.410 . S
C1296 C1297 1.392 . S
C1296 C1299 1.511 . S
C1297 C1293 1.376 . S
C1297 C1296 1.392 . S
C1297 H1309 0.929 . S
C1298 C1294 1.531 . S
C1298 H1310 0.960 . S
C1298 H1311 0.962 . S
C1298 H1312 0.960 . S
C1299 C1296 1.511 . S
C1299 H1313 0.961 . S
C1299 H1314 0.961 . S
C1299 H1315 0.961 . S
C1300 C1301 1.370 . S
C1300 C1302 1.363 . S
C1300 H1316 0.931 . S
C1301 C1300 1.370 . S
C1301 C1305 1.408 . S
C1302 C1300 1.363 . S
C1302 C1303 1.370 . S
C1302 C1306 1.524 . S
C1303 C1295 1.503 . S
C1303 C1302 1.370 . S
C1303 C1304 1.403 . S
C1304 C1303 1.403 . S
C1304 C1305 1.404 . S
C1304 C1307 1.539 . S
C1305 C1301 1.408 . S
C1305 C1304 1.404 . S
C1305 H1317 0.930 . S
C1306 C1302 1.524 . S
C1306 H1318 0.956 . S
C1306 H1319 0.961 . S
C1306 H1320 0.961 . S
C1307 C1304 1.539 . S
C1307 H1321 0.958 . S
C1307 H1322 0.961 . S
C1307 H1323 0.960 . S
H1308 C1292 0.931 . S
H1309 C1297 0.929 . S
H1310 C1298 0.960 . S
H1311 C1298 0.962 . S
H1312 C1298 0.960 . S
H1313 C1299 0.961 . S
H1314 C1299 0.961 . S
H1315 C1299 0.961 . S
H1316 C1300 0.931 . S
H1317 C1305 0.930 . S
H1318 C1306 0.956 . S
H1319 C1306 0.961 . S
H1320 C1306 0.961 . S
H1321 C1307 0.958 . S
H1322 C1307 0.961 . S
H1323 C1307 0.960 . S
C1324 C1325 1.391 . S
C1324 C1326 1.394 . S
C1324 H1340 0.931 . S
C1325 C1324 1.391 . S
C1325 C1329 1.376 . S
C1326 C1324 1.394 . S
C1326 C1327 1.369 . S
C1326 C1330 1.531 . S
C1327 C1326 1.369 . S
C1327 C1328 1.410 . S
C1327 C1335 1.503 . S
C1328 C1327 1.410 . S
C1328 C1329 1.392 . S
C1328 C1331 1.511 . S
C1329 C1325 1.376 . S
C1329 C1328 1.392 . S
C1329 H1341 0.929 . S
C1330 C1326 1.531 . S
C1330 H1342 0.960 . S
C1330 H1343 0.962 . S
C1330 H1344 0.960 . S
C1331 C1328 1.511 . S
C1331 H1345 0.961 . S
C1331 H1346 0.961 . S
C1331 H1347 0.961 . S
C1332 C1333 1.370 . S
C1332 C1334 1.363 . S
C1332 H1348 0.931 . S
C1333 C1332 1.370 . S
C1333 C1337 1.408 . S
C1334 C1332 1.363 . S
C1334 C1335 1.370 . S
C1334 C1338 1.524 . S
C1335 C1327 1.503 . S
C1335 C1334 1.370 . S
C1335 C1336 1.403 . S
C1336 C1335 1.403 . S
C1336 C1337 1.404 . S
C1336 C1339 1.539 . S
C1337 C1333 1.408 . S
C1337 C1336 1.404 . S
C1337 H1349 0.930 . S
C1338 C1334 1.524 . S
C1338 H1350 0.956 . S
C1338 H1351 0.961 . S
C1338 H1352 0.961 . S
C1339 C1336 1.539 . S
C1339 H1353 0.958 . S
C1339 H1354 0.961 . S
C1339 H1355 0.960 . S
H1340 C1324 0.931 . S
H1341 C1329 0.929 . S
H1342 C1330 0.960 . S
H1343 C1330 0.962 . S
H1344 C1330 0.960 . S
H1345 C1331 0.961 . S
H1346 C1331 0.961 . S
H1347 C1331 0.961 . S
H1348 C1332 0.931 . S
H1349 C1337 0.930 . S
H1350 C1338 0.956 . S
H1351 C1338 0.961 . S
H1352 C1338 0.961 . S
H1353 C1339 0.958 . S
H1354 C1339 0.961 . S
H1355 C1339 0.960 . S
C397 C7 1.279 . S
C405 C370 1.243 . S
C429 C40 1.279 . S
C437 C205 1.245 . S
C461 C238 1.256 . S
C469 C73 1.227 . S
C493 C271 1.279 . S
C501 C106 1.245 . S
C525 C304 1.236 . S
C533 C139 1.258 . S
C557 C172 1.275 . S
C565 C337 1.252 . S
C589 C285 1.629 . S
C597 C21 1.622 . S
C621 C318 1.615 . S
C629 C54 1.627 . S
C653 C87 1.608 . S
C661 C351 1.623 . S
C685 C120 1.612 . S
C693 C384 1.627 . S
C717 C219 1.629 . S
C725 C153 1.623 . S
C749 C186 1.630 . S
C757 C252 1.622 . S
C781 N2 1.289 . S
C789 N13 1.261 . S
C813 N46 1.243 . S
C821 N35 1.281 . S
C845 N68 1.253 . S
C853 N79 1.278 . S
C877 N112 1.267 . S
C885 N101 1.272 . S
C909 N134 1.278 . S
C917 N145 1.269 . S
C941 N178 1.244 . S
C949 N167 1.279 . S
C973 N211 1.295 . S
C981 N200 1.258 . S
C1005 N233 1.289 . S
C1013 N244 1.261 . S
C1037 N277 1.285 . S
C1045 N266 1.264 . S
C1069 N310 1.273 . S
C1077 N299 1.266 . S
C1101 N332 1.245 . S
C1109 N343 1.281 . S
C1133 N365 1.238 . S
C1141 N376 1.282 . S
C1165 C18 1.296 . S
C1173 C348 1.292 . S
C1197 C381 1.291 . S
C1205 C51 1.288 . S
C1229 C216 1.292 . S
C1237 C84 1.292 . S
C1261 C117 1.294 . S
C1269 C249 1.290 . S
C1293 C150 1.289 . S
C1301 C282 1.287 . S
C1325 C183 1.274 . S
C1333 C315 1.285 . S
