# Generated by pormake.
# Topology sxb, (6)-cn, num edge types: 1
# Building blocks:
#     Node 0, Type 0, BuildingBlock: MIFKUJ_clean_sbu_0, # of connection points: 6
#     Node 1, Type 0, BuildingBlock: MIFKUJ_clean_sbu_0, # of connection points: 6
#     Node 2, Type 0, BuildingBlock: MIFKUJ_clean_sbu_0, # of connection points: 6
#     Node 3, Type 0, BuildingBlock: MIFKUJ_clean_sbu_0, # of connection points: 6
#     Edge 4, Type (0, 0), BuildingBlock: TEMPAE_clean_linker_10, # of connection points: 2
#     Edge 5, Type (0, 0), BuildingBlock: TEMPAE_clean_linker_10, # of connection points: 2
#     Edge 6, Type (0, 0), BuildingBlock: TEMPAE_clean_linker_10, # of connection points: 2
#     Edge 7, Type (0, 0), BuildingBlock: TEMPAE_clean_linker_10, # of connection points: 2
#     Edge 8, Type (0, 0), BuildingBlock: TEMPAE_clean_linker_10, # of connection points: 2
#     Edge 9, Type (0, 0), BuildingBlock: TEMPAE_clean_linker_10, # of connection points: 2
#     Edge 10, Type (0, 0), BuildingBlock: TEMPAE_clean_linker_10, # of connection points: 2
#     Edge 11, Type (0, 0), BuildingBlock: TEMPAE_clean_linker_10, # of connection points: 2
#     Edge 12, Type (0, 0), BuildingBlock: TEMPAE_clean_linker_10, # of connection points: 2
#     Edge 13, Type (0, 0), BuildingBlock: TEMPAE_clean_linker_10, # of connection points: 2
#     Edge 14, Type (0, 0), BuildingBlock: TEMPAE_clean_linker_10, # of connection points: 2
#     Edge 15, Type (0, 0), BuildingBlock: TEMPAE_clean_linker_10, # of connection points: 2
# Relax obj value: 0.019
# Max RMSD: 0.063
# Mean RMSD: 0.050
data_MOF--net-sxb--node1-MIFKUJ_clean_sbu_0--edge1-TEMPAE_clean_linker_10
_symmetry_space_group_name_H-M    P1
_symmetry_Int_Tables_number       1
_symmetry_cell_setting            triclinic
loop_
_symmetry_equiv_pos_as_xyz
'x, y, z'
_cell_length_a     18.184998
_cell_length_b     32.148741
_cell_length_c     28.635444
_cell_angle_alpha  96.330738
_cell_angle_beta   97.018428
_cell_angle_gamma 87.345898
loop_
_atom_site_label
_atom_site_type_symbol
_atom_site_fract_x
_atom_site_fract_y
_atom_site_fract_z
_atom_type_partial_charge
Zn0 Zn 0.07689 0.9855 -0.00518 0.0
Zn1 Zn 0.90761 0.98551 0.98748 0.0
C2 C 0.13091 0.90745 0.02488 0.0
O3 O 0.16862 0.93365 0.05625 0.0
C4 C 0.84009 0.06494 0.96954 0.0
O5 O 0.79509 0.03947 0.94198 0.0
O6 O 0.18275 -0.0016 0.00129 0.0
O7 O 0.03411 0.00186 0.9317 0.0
O8 O 0.93543 0.96338 0.92385 0.0
C9 C 0.21936 0.00082 0.96685 0.0
O10 O 0.18551 -0.00064 0.92353 0.0
O11 O 0.08189 0.92193 -0.00537 0.0
C12 C 0.77244 0.98503 0.02217 0.0
O13 O 0.80939 0.00968 0.05575 0.0
O14 O 0.80536 0.96795 0.98807 0.0
O15 O 0.96034 0.96501 0.04676 0.0
O16 O 0.04089 0.01411 0.05371 0.0
O17 O 0.89788 0.04972 -0.00762 0.0
C18 C 0.98353 0.98162 0.90575 0.0
C19 C 0.002 0.99078 0.07287 0.0
Zn20 Zn 0.05753 0.04117 0.48501 0.0
Zn21 Zn 0.89513 0.95557 0.48175 0.0
C22 C 0.20693 0.01058 0.50248 0.0
O23 O 0.19712 0.0276 0.5452 0.0
C24 C 0.74219 0.95447 0.45169 0.0
O25 O 0.76553 0.91897 0.43015 0.0
O26 O 0.06924 0.10087 0.47531 0.0
O27 O 0.9669 0.01622 0.44809 0.0
O28 O 0.93379 0.95378 0.41868 0.0
C29 C 0.11525 0.108 0.44743 0.0
O30 O 0.14393 0.07664 0.42144 0.0
O31 O 0.15247 0.00978 0.46999 0.0
C32 C 0.84451 0.8942 0.53025 0.0
O33 O 0.81183 0.92785 0.54983 0.0
O34 O 0.89045 0.89811 0.50111 0.0
O35 O 0.96169 0.99108 0.53012 0.0
O36 O 0.04628 0.03754 0.5537 0.0
O37 O 0.78967 0.97874 0.47547 0.0
C38 C 0.96871 0.98637 0.41547 0.0
C39 C 0.00093 0.01182 0.56359 0.0
Zn40 Zn 0.59426 0.44643 -0.00212 0.0
Zn41 Zn 0.40463 0.5334 0.00163 0.0
C42 C 0.65742 0.36729 0.01268 0.0
O43 O 0.68003 0.39067 0.05193 0.0
C44 C 0.34665 0.61199 0.9861 0.0
O45 O 0.31695 0.58652 0.95043 0.0
O46 O 0.69093 0.4733 0.00255 0.0
O47 O 0.52306 0.4771 0.95046 0.0
O48 O 0.427 0.52037 0.93479 0.0
C49 C 0.72472 0.47584 0.96681 0.0
O50 O 0.69425 0.46106 0.92463 0.0
O51 O 0.61494 0.38408 0.98064 0.0
C52 C 0.26493 0.53155 0.0344 0.0
O53 O 0.29175 0.56346 0.06298 0.0
O54 O 0.30543 0.51134 0.00605 0.0
O55 O 0.48209 0.49943 0.03572 0.0
O56 O 0.56435 0.45547 0.06417 0.0
O57 O 0.3953 0.59693 0.0163 0.0
C58 C 0.47917 0.49601 0.92082 0.0
C59 C 0.51241 0.48222 0.07101 0.0
Zn60 Zn 0.56542 0.53642 0.49543 0.0
Zn61 Zn 0.39908 0.4617 0.48233 0.0
C62 C 0.7107 0.49784 0.5007 0.0
O63 O 0.70081 0.49933 0.54553 0.0
C64 C 0.24815 0.46902 0.44726 0.0
O65 O 0.27234 0.44033 0.41589 0.0
O66 O 0.59395 0.59561 0.50975 0.0
O67 O 0.47965 0.53699 0.44404 0.0
O68 O 0.44273 0.47239 0.42438 0.0
C69 C 0.61688 0.61284 0.47669 0.0
O70 O 0.61659 0.59179 0.43463 0.0
O71 O 0.65729 0.50872 0.47111 0.0
C72 C 0.35371 0.38635 0.50934 0.0
O73 O 0.33836 0.41183 0.54623 0.0
O74 O 0.3845 0.40047 0.47715 0.0
O75 O 0.45389 0.47613 0.54648 0.0
O76 O 0.54953 0.51773 0.55789 0.0
O77 O 0.29467 0.48625 0.47964 0.0
C78 C 0.46739 0.50577 0.41346 0.0
C79 C 0.50538 0.49474 0.57358 0.0
C80 C 0.33163 0.6812 0.03536 0.0
C81 C 0.31738 0.65594 -0.00769 0.0
C82 C 0.29926 0.72181 0.04171 0.0
C83 C 0.25222 0.73766 0.00398 0.0
C84 C 0.23814 0.71234 0.96043 0.0
C85 C 0.27055 0.67188 0.95523 0.0
C86 C 0.31494 0.7477 0.08886 0.0
C87 C 0.1891 0.72805 0.91911 0.0
C88 C 0.11812 0.83052 0.02749 0.0
C89 C 0.15884 0.86376 0.0178 0.0
C90 C 0.14822 0.78925 0.0239 0.0
C91 C 0.21984 0.78125 0.00926 0.0
C92 C 0.26019 0.81493 -0.00143 0.0
C93 C 0.22956 0.85582 0.0036 0.0
C94 C 0.10396 0.75432 0.03636 0.0
C95 C 0.33567 0.80782 0.98162 0.0
H96 H 0.36698 0.66898 0.06435 0.0
H97 H 0.25899 0.65264 0.92181 0.0
H98 H 0.34295 0.77666 0.08428 0.0
H99 H 0.26212 0.75744 0.10326 0.0
H100 H 0.35053 0.7304 0.11514 0.0
H101 H 0.18342 0.70437 0.88767 0.0
H102 H 0.13305 0.73674 0.92928 0.0
H103 H 0.21222 0.75668 0.90902 0.0
H104 H 0.0637 0.83695 0.03896 0.0
H105 H 0.26084 0.88176 -0.00382 0.0
H106 H 0.13611 0.73827 0.06506 0.0
H107 H 0.09339 0.7306 0.00533 0.0
H108 H 0.04993 0.76582 0.04807 0.0
H109 H 0.37455 0.79324 0.00855 0.0
H110 H 0.3594 0.83735 0.97433 0.0
H111 H 0.33178 0.78581 0.94878 0.0
C112 C 0.71723 0.30349 0.04568 0.0
C113 C 0.68356 0.32274 0.00639 0.0
C114 C 0.74456 0.26185 0.04096 0.0
C115 C 0.73927 0.23882 -0.00432 0.0
C116 C 0.70567 0.25808 0.95578 0.0
C117 C 0.67766 0.2997 0.96164 0.0
C118 C 0.77851 0.24239 0.0846 0.0
C119 C 0.6997 0.23476 0.90682 0.0
C120 C 0.86634 0.14164 0.97852 0.0
C121 C 0.81692 0.1095 0.97844 0.0
C122 C 0.84176 0.18397 0.9836 0.0
C123 C 0.76673 0.19419 0.99035 0.0
C124 C 0.71757 0.16163 -0.00793 0.0
C125 C 0.74296 0.11976 0.98527 0.0
C126 C 0.89556 0.2177 0.98073 0.0
C127 C 0.63802 0.17095 0.00101 0.0
H128 H 0.72186 0.32095 0.08047 0.0
H129 H 0.65227 0.3144 0.93108 0.0
H130 H 0.74813 0.21409 0.08862 0.0
H131 H 0.83683 0.23221 0.08098 0.0
H132 H 0.77754 0.26435 0.11733 0.0
H133 H 0.67448 0.25455 0.87924 0.0
H134 H 0.75552 0.22338 0.89822 0.0
H135 H 0.66553 0.20686 0.90552 0.0
H136 H 0.92343 0.13364 0.97301 0.0
H137 H 0.70493 0.09483 0.98578 0.0
H138 H 0.89994 0.23946 0.01374 0.0
H139 H 0.87482 0.23641 0.95121 0.0
H140 H 0.95179 0.20464 0.97506 0.0
H141 H 0.63592 0.19214 0.03417 0.0
H142 H 0.60821 0.14211 0.00393 0.0
H143 H 0.60814 0.1873 0.97181 0.0
C144 C 0.10882 0.18577 0.45769 0.0
C145 C 0.15107 0.14837 0.45442 0.0
C146 C 0.1435 0.22432 0.46754 0.0
C147 C 0.22188 0.22493 0.4761 0.0
C148 C 0.26454 0.187 0.47392 0.0
C149 C 0.22852 0.1491 0.46216 0.0
C150 C 0.09648 0.2643 0.46841 0.0
C151 C 0.348 0.18642 0.48463 0.0
C152 C 0.31575 0.32275 0.4561 0.0
C153 C 0.32567 0.34366 0.50189 0.0
C154 C 0.28214 0.28398 0.44732 0.0
C155 C 0.25943 0.26535 0.48545 0.0
C156 C 0.27167 0.28556 0.53208 0.0
C157 C 0.304 0.32485 0.53969 0.0
C158 C 0.26901 0.26353 0.39706 0.0
C159 C 0.24984 0.26597 0.57372 0.0
H160 H 0.04883 0.1848 0.45207 0.0
H161 H 0.26084 0.11986 0.46074 0.0
H162 H 0.10588 0.2824 0.50377 0.0
H163 H 0.11273 0.28421 0.44232 0.0
H164 H 0.03637 0.25831 0.46014 0.0
H165 H 0.3725 0.15408 0.48386 0.0
H166 H 0.37237 0.20297 0.4585 0.0
H167 H 0.36426 0.20328 0.52008 0.0
H168 H 0.33188 0.33737 0.42671 0.0
H169 H 0.31194 0.34094 0.57517 0.0
H170 H 0.20883 0.25897 0.38686 0.0
H171 H 0.29709 0.23214 0.3942 0.0
H172 H 0.28955 0.2824 0.37139 0.0
H173 H 0.18875 0.26348 0.57026 0.0
H174 H 0.268 0.2844 0.608 0.0
H175 H 0.27432 0.23374 0.57435 0.0
C176 C 0.85747 0.81698 0.53064 0.0
C177 C 0.81232 0.85335 0.53031 0.0
C178 C 0.82601 0.77747 0.52448 0.0
C179 C 0.74791 0.77469 0.51604 0.0
C180 C 0.70221 0.81152 0.51611 0.0
C181 C 0.7351 0.85052 0.52409 0.0
C182 C 0.87623 0.73877 0.52582 0.0
C183 C 0.61887 0.8098 0.50559 0.0
C184 C 0.67088 0.67469 0.44963 0.0
C185 C 0.64835 0.65477 0.48639 0.0
C186 C 0.70329 0.71389 0.45878 0.0
C187 C 0.71389 0.73327 0.50583 0.0
C188 C 0.69118 0.71337 0.54304 0.0
C189 C 0.65829 0.6744 0.53283 0.0
C190 C 0.72611 0.73457 0.41814 0.0
C191 C 0.70214 0.73311 0.59366 0.0
H192 H 0.91724 0.8195 0.53522 0.0
H193 H 0.7004 0.87884 0.52283 0.0
H194 H 0.85925 0.71831 0.55111 0.0
H195 H 0.87132 0.72053 0.49044 0.0
H196 H 0.9353 0.74648 0.53628 0.0
H197 H 0.59131 0.84139 0.50897 0.0
H198 H 0.60394 0.79495 0.469 0.0
H199 H 0.59653 0.79028 0.52985 0.0
H200 H 0.6633 0.65965 0.41366 0.0
H201 H 0.64126 0.65908 0.56144 0.0
H202 H 0.78666 0.73946 0.42366 0.0
H203 H 0.69801 0.76586 0.41663 0.0
H204 H 0.71249 0.7157 0.38351 0.0
H205 H 0.76173 0.73909 0.60451 0.0
H206 H 0.68268 0.71309 0.61861 0.0
H207 H 0.67164 0.76378 0.59683 0.0
C208 C 0.33438 0.97614 0.01199 0.0
C209 C 0.3003 -0.00156 0.97538 0.0
C210 C 0.41139 0.97212 0.02048 0.0
C211 C 0.455 0.99186 -0.0076 0.0
C212 C 0.42098 0.01458 0.95541 0.0
C213 C 0.34348 0.01709 0.94684 0.0
C214 C 0.44595 0.94664 0.0593 0.0
C215 C 0.46641 0.03642 0.92529 0.0
C216 C 0.65165 0.01565 0.04342 0.0
C217 C 0.69141 0.98406 0.01853 0.0
C218 C 0.57429 0.01855 0.03525 0.0
C219 C 0.5364 0.98877 0.00196 0.0
C220 C 0.57607 0.95594 0.97796 0.0
C221 C 0.65342 0.95409 0.98642 0.0
C222 C 0.53329 0.05411 0.06116 0.0
C223 C 0.53696 0.92332 0.94274 0.0
H224 H 0.30073 0.96103 0.03349 0.0
H225 H 0.31668 0.03418 0.91849 0.0
H226 H 0.48329 0.92154 0.0447 0.0
H227 H 0.4802 0.96689 0.08663 0.0
H228 H 0.40375 0.93197 0.0766 0.0
H229 H 0.43123 0.05312 0.89829 0.0
H230 H 0.50239 0.05938 0.94805 0.0
H231 H 0.50334 0.01334 0.907 0.0
H232 H 0.68101 0.03912 0.06791 0.0
H233 H 0.68427 0.92959 0.96723 0.0
H234 H 0.49274 0.04153 0.08149 0.0
H235 H 0.50157 0.07347 0.03533 0.0
H236 H 0.57124 0.07462 0.08595 0.0
H237 H 0.49586 0.90755 0.95974 0.0
H238 H 0.57609 0.89918 0.9281 0.0
H239 H 0.50604 0.93855 0.91299 0.0
C240 C 0.33695 0.98723 0.52753 0.0
C241 C 0.28264 -0.00191 0.49144 0.0
C242 C 0.41088 0.97917 0.51902 0.0
C243 C 0.43131 0.98307 0.47358 0.0
C244 C 0.37652 0.99363 0.43683 0.0
C245 C 0.30255 0.00054 0.44606 0.0
C246 C 0.46734 0.9671 0.55888 0.0
C247 C 0.39644 -0.00121 0.38818 0.0
C248 C 0.63485 0.0028 0.46951 0.0
C249 C 0.66194 0.96282 0.45388 0.0
C250 C 0.55938 0.01015 0.47471 0.0
C251 C 0.51024 0.9765 0.46486 0.0
C252 C 0.53722 0.93618 0.44856 0.0
C253 C 0.61259 0.92991 0.4429 0.0
C254 C 0.53253 0.05372 0.49161 0.0
C255 C 0.48698 0.89933 0.43857 0.0
H256 H 0.32166 0.98527 0.56263 0.0
H257 H 0.26087 0.00946 0.41821 0.0
H258 H 0.49659 0.93724 0.54785 0.0
H259 H 0.50969 0.99138 0.56755 0.0
H260 H 0.44173 0.96341 0.59141 0.0
H261 H 0.34724 0.00678 0.36337 0.0
H262 H 0.43695 0.02395 0.39069 0.0
H263 H 0.42338 0.96953 0.37313 0.0
H264 H 0.67276 0.02833 0.47798 0.0
H265 H 0.63327 0.89878 0.43132 0.0
H266 H 0.51272 0.05373 0.52675 0.0
H267 H 0.48496 0.06394 0.46693 0.0
H268 H 0.5767 0.07695 0.49467 0.0
H269 H 0.4652 0.89322 0.47163 0.0
H270 H 0.51601 0.87037 0.42436 0.0
H271 H 0.43863 0.90645 0.41279 0.0
C272 C 0.84452 0.48786 0.9366 0.0
C273 C 0.80089 0.49112 0.97402 0.0
C274 C 0.91965 0.49774 0.94475 0.0
C275 C 0.95139 0.51086 -0.00861 0.0
C276 C 0.90668 0.51621 0.02878 0.0
C277 C 0.83187 0.50644 0.0196 0.0
C278 C 0.96566 0.4924 0.90389 0.0
C279 C 0.93864 0.53019 0.07898 0.0
C280 C 0.15568 0.48668 0.02396 0.0
C281 C 0.18493 0.52633 0.0261 0.0
C282 C 0.07931 0.48126 0.01289 0.0
C283 C 0.03229 0.51614 0.002 0.0
C284 C 0.06222 0.55613 0.00316 0.0
C285 C 0.13835 0.56087 0.01607 0.0
C286 C 0.04887 0.43838 0.01315 0.0
C287 C 0.01414 0.59367 0.99019 0.0
H288 H 0.82072 0.47633 0.90124 0.0
H289 H 0.79824 0.50951 0.04862 0.0
H290 H -0.00054 0.52029 0.90408 0.0
H291 H 0.00455 0.46503 0.90755 0.0
H292 H 0.93086 0.48735 0.86919 0.0
H293 H 0.89533 0.53526 0.10342 0.0
H294 H 0.97948 0.50612 0.09197 0.0
H295 H 0.96848 0.55968 0.08035 0.0
H296 H 0.1925 0.46009 0.03138 0.0
H297 H 0.16198 0.59134 0.01671 0.0
H298 H 0.02048 0.42765 0.97764 0.0
H299 H 0.00702 0.43983 0.03849 0.0
H300 H 0.09285 0.41475 0.02314 0.0
H301 H 0.98412 0.58693 0.9542 0.0
H302 H 0.04684 0.62215 0.99099 0.0
H303 H 0.97178 0.60036 0.01502 0.0
C304 C 0.14026 0.50898 0.47933 0.0
C305 C 0.1674 0.47629 0.44883 0.0
C306 C 0.0643 0.51341 0.48436 0.0
C307 C 0.01455 0.48405 0.45884 0.0
C308 C 0.04136 0.45173 0.42699 0.0
C309 C 0.11732 0.44845 0.4221 0.0
C310 C 0.03765 0.54878 0.51802 0.0
C311 C 0.99035 0.41953 0.39955 0.0
C312 C 0.83978 0.4682 0.5142 0.0
C313 C 0.78628 0.49072 0.48673 0.0
C314 C 0.91385 0.46497 0.50471 0.0
C315 C 0.93532 0.48562 0.46755 0.0
C316 C 0.88131 0.50799 0.43928 0.0
C317 C 0.80717 0.50986 0.44885 0.0
C318 C 0.96941 0.44002 0.53501 0.0
C319 C 0.90228 0.5311 0.39997 0.0
H320 H 0.17857 0.53072 0.49991 0.0
H321 H 0.13776 0.42299 0.39854 0.0
H322 H 0.99035 0.56629 0.5001 0.0
H323 H 0.01757 0.53591 0.54837 0.0
H324 H 0.08207 0.57102 0.53193 0.0
H325 H 0.01922 0.39765 0.37443 0.0
H326 H 0.96717 0.40104 0.42449 0.0
H327 H 0.94297 0.43515 0.3794 0.0
H328 H 0.82377 0.45339 0.54348 0.0
H329 H 0.76618 0.52783 0.42794 0.0
H330 H 0.01216 0.46095 0.5546 0.0
H331 H -0.00171 0.41592 0.51236 0.0
H332 H 0.94308 0.42421 0.561 0.0
H333 H 0.94256 0.55541 0.41479 0.0
H334 H 0.85349 0.54645 0.38072 0.0
H335 H 0.92987 0.50923 0.37428 0.0
C336 C 0.03624 0.96178 0.34675 0.0
C337 C -0.00553 0.993 0.37052 0.0
C338 C 0.04854 0.96444 0.2998 0.0
C339 C 0.015 -0.002 0.27587 0.0
C340 C 0.97567 0.03059 0.30064 0.0
C341 C 0.96723 0.02808 0.34817 0.0
C342 C 0.09329 0.93001 0.27496 0.0
C343 C 0.9368 0.06609 0.27598 0.0
C344 C 0.06181 0.01499 0.15401 0.0
C345 C 0.00588 0.99288 0.12479 0.0
C346 C 0.06612 0.01669 0.20343 0.0
C347 C 0.01271 -0.00377 0.22382 0.0
C348 C 0.95579 0.97418 0.19446 0.0
C349 C 0.95339 0.97254 0.14528 0.0
C350 C 0.12793 0.04008 0.23379 0.0
C351 C 0.89701 0.95251 0.21496 0.0
H352 H 0.05729 0.93476 0.36442 0.0
H353 H 0.93408 0.05189 0.3667 0.0
H354 H 0.05562 0.90981 0.2497 0.0
H355 H 0.13252 0.9434 0.25431 0.0
H356 H 0.12512 0.91012 0.30026 0.0
H357 H 0.91521 0.09102 0.3013 0.0
H358 H 0.97468 0.08022 0.25508 0.0
H359 H 0.88947 0.05375 0.25088 0.0
H360 H 0.10269 0.03064 0.13828 0.0
H361 H 0.90981 0.9556 0.12286 0.0
H362 H 0.16109 0.01855 0.25653 0.0
H363 H 0.10459 0.06549 0.25765 0.0
H364 H 0.16542 0.05402 0.21234 0.0
H365 H 0.92313 0.92777 0.23622 0.0
H366 H 0.85522 0.9379 0.18716 0.0
H367 H 0.86796 0.97528 0.23902 0.0
C368 C 0.04292 0.96704 0.83234 0.0
C369 C 0.98028 0.9804 0.85441 0.0
C370 C 0.04336 0.96904 0.78381 0.0
C371 C 0.98042 0.98614 0.75747 0.0
C372 C 0.91632 -0.00115 0.7796 0.0
C373 C 0.91668 -0.00477 0.82797 0.0
C374 C 0.11185 0.95403 0.76108 0.0
C375 C 0.84885 0.018 0.75276 0.0
C376 C 0.01865 0.03626 0.64975 0.0
C377 C -0.00549 0.0057 0.61309 0.0
C378 C 0.0131 0.03053 0.69696 0.0
C379 C 0.98363 0.99312 0.70756 0.0
C380 C 0.95947 0.96209 0.67066 0.0
C381 C 0.96512 0.96884 0.62379 0.0
C382 C 0.03901 0.06441 0.73551 0.0
C383 C 0.92901 0.9215 0.68071 0.0
H384 H 0.09165 0.95518 0.85316 0.0
H385 H 0.86863 0.0058 0.84561 0.0
H386 H 0.09675 0.93198 0.72908 0.0
H387 H 0.13823 0.981 0.74958 0.0
H388 H 0.15324 0.93814 0.7856 0.0
H389 H 0.80234 0.02435 0.77463 0.0
H390 H 0.8635 0.04793 0.74082 0.0
H391 H 0.82964 -0.00301 0.72066 0.0
H392 H 0.04143 0.06479 0.64152 0.0
H393 H 0.9481 0.94479 0.59553 0.0
H394 H 0.08556 0.05208 0.75945 0.0
H395 H -0.0065 0.07439 0.75722 0.0
H396 H 0.05783 0.09229 0.72114 0.0
H397 H 0.9718 0.90425 0.70284 0.0
H398 H 0.91128 0.90097 0.64782 0.0
H399 H 0.88084 0.92795 0.70104 0.0
C400 C 0.53049 0.51468 0.34371 0.0
C401 C 0.46472 0.5111 0.36327 0.0
C402 C 0.52981 0.51415 0.29466 0.0
C403 C 0.46141 0.51092 0.26506 0.0
C404 C 0.39437 0.50984 0.28525 0.0
C405 C 0.39697 0.50929 0.33429 0.0
C406 C 0.60261 0.51451 0.27437 0.0
C407 C 0.32043 0.5071 0.25493 0.0
C408 C 0.47047 0.53019 0.13756 0.0
C409 C 0.48552 0.48946 0.11754 0.0
C410 C 0.45928 0.5378 0.18548 0.0
C411 C 0.46147 0.50368 0.21304 0.0
C412 C 0.47068 0.46224 0.19163 0.0
C413 C 0.48369 0.45571 0.14422 0.0
C414 C 0.45006 0.58238 0.20725 0.0
C415 C 0.47138 0.4249 0.21945 0.0
H416 H 0.5827 0.51575 0.36655 0.0
H417 H 0.34625 0.50664 0.34998 0.0
H418 H 0.61282 0.48383 0.25393 0.0
H419 H 0.60054 0.53884 0.24959 0.0
H420 H 0.6501 0.52039 0.30231 0.0
H421 H 0.27327 0.51194 0.27645 0.0
H422 H 0.31534 0.53074 0.22917 0.0
H423 H 0.31614 0.47581 0.23437 0.0
H424 H 0.47227 0.55621 0.11668 0.0
H425 H 0.49463 0.42417 0.1283 0.0
H426 H 0.50102 0.59129 0.23101 0.0
H427 H 0.40338 0.58545 0.22911 0.0
H428 H 0.44008 0.60475 0.18004 0.0
H429 H 0.52157 0.42513 0.24574 0.0
H430 H 0.47141 0.39477 0.19636 0.0
H431 H 0.42242 0.42645 0.23926 0.0
C432 C 0.57221 0.50702 0.65567 0.0
C433 C 0.51226 0.4903 0.62486 0.0
C434 C 0.57611 0.50521 0.70468 0.0
C435 C 0.51852 0.48645 0.72314 0.0
C436 C 0.45954 0.46808 0.69209 0.0
C437 C 0.45718 0.4702 0.6434 0.0
C438 C 0.64003 0.52497 0.73681 0.0
C439 C 0.39682 0.44798 0.71044 0.0
C440 C 0.53392 0.46021 0.85017 0.0
C441 C 0.4928 0.49372 0.87086 0.0
C442 C 0.54502 0.4579 0.80224 0.0
C443 C 0.51483 0.49007 0.77487 0.0
C444 C 0.4755 0.52462 0.79614 0.0
C445 C 0.46455 0.52586 0.84374 0.0
C446 C 0.58695 0.42052 0.78055 0.0
C447 C 0.44317 0.55983 0.7683 0.0
H448 H 0.61542 0.52225 0.64163 0.0
H449 H 0.41065 0.45718 0.62003 0.0
H450 H 0.61974 0.55356 0.75739 0.0
H451 H 0.66419 0.50325 0.76257 0.0
H452 H 0.68445 0.5338 0.71673 0.0
H453 H 0.35889 0.43173 0.68148 0.0
H454 H 0.41895 0.42505 0.7353 0.0
H455 H 0.3641 0.47233 0.73031 0.0
H456 H 0.55584 0.43534 0.87111 0.0
H457 H 0.43372 0.55222 0.85976 0.0
H458 H 0.63132 0.43091 0.76156 0.0
H459 H 0.54872 0.4017 0.75414 0.0
H460 H 0.61227 0.40009 0.80747 0.0
H461 H 0.48665 0.57274 0.75056 0.0
H462 H 0.41839 0.58573 0.79095 0.0
H463 H 0.39952 0.5477 0.74025 0.0
loop_
_geom_bond_atom_site_label_1
_geom_bond_atom_site_label_2
_geom_bond_distance
_geom_bond_site_symmetry_2
_ccdc_geom_bond_type
Zn0 O6 1.969 1_565 S
Zn0 O7 1.965 1_564 S
Zn0 O11 2.024 1_554 S
Zn0 O16 1.969 . S
Zn1 O8 1.969 . S
Zn1 O14 1.969 1_545 S
Zn1 O15 1.965 1_546 S
Zn1 O17 2.024 1_556 S
C2 O3 1.229 . S
C2 O11 1.058 1_554 S
O3 C2 1.229 . S
C4 O5 1.229 . S
C4 O17 1.058 1_556 S
O5 C4 1.229 . S
O6 Zn0 1.969 1_545 S
O6 C9 1.267 1_544 S
O7 Zn0 1.965 1_546 S
O7 C18 1.260 1_455 S
O8 Zn1 1.969 . S
O8 C18 1.258 . S
C9 O6 1.267 1_566 S
C9 O10 1.228 . S
O10 C9 1.228 . S
O11 Zn0 2.024 1_556 S
O11 C2 1.058 1_556 S
C12 O13 1.228 . S
C12 O14 1.267 1_544 S
O13 C12 1.228 . S
O14 Zn1 1.969 1_565 S
O14 C12 1.267 1_566 S
O15 Zn1 1.965 1_564 S
O15 C19 1.260 1_655 S
O16 Zn0 1.969 . S
O16 C19 1.258 . S
O17 Zn1 2.024 1_554 S
O17 C4 1.058 1_554 S
C18 O7 1.260 1_655 S
C18 O8 1.258 . S
C19 O15 1.260 1_455 S
C19 O16 1.258 . S
Zn20 O26 1.969 . S
Zn20 O27 1.965 . S
Zn20 O31 2.024 1_545 S
Zn20 O36 1.969 . S
Zn21 O28 1.969 . S
Zn21 O34 1.969 . S
Zn21 O35 1.965 . S
Zn21 O37 2.024 1_565 S
C22 O23 1.229 . S
C22 O31 1.058 1_545 S
O23 C22 1.229 . S
C24 O25 1.229 . S
C24 O37 1.058 1_565 S
O25 C24 1.229 . S
O26 Zn20 1.969 . S
O26 C29 1.267 . S
O27 Zn20 1.965 . S
O27 C38 1.260 1_455 S
O28 Zn21 1.969 . S
O28 C38 1.258 1_565 S
C29 O26 1.267 . S
C29 O30 1.228 . S
O30 C29 1.228 . S
O31 Zn20 2.024 1_565 S
O31 C22 1.058 1_565 S
C32 O33 1.228 . S
C32 O34 1.267 . S
O33 C32 1.228 . S
O34 Zn21 1.969 . S
O34 C32 1.267 . S
O35 Zn21 1.965 . S
O35 C39 1.260 1_655 S
O36 Zn20 1.969 . S
O36 C39 1.258 1_545 S
O37 Zn21 2.024 1_545 S
O37 C24 1.058 1_545 S
C38 O27 1.260 1_655 S
C38 O28 1.258 1_545 S
C39 O35 1.260 1_455 S
C39 O36 1.258 1_565 S
Zn40 O46 1.969 . S
Zn40 O47 1.965 1_554 S
Zn40 O51 2.024 1_554 S
Zn40 O56 1.969 . S
Zn41 O48 1.969 . S
Zn41 O54 1.969 . S
Zn41 O55 1.965 1_556 S
Zn41 O57 2.024 1_556 S
C42 O43 1.229 . S
C42 O51 1.058 1_554 S
O43 C42 1.229 . S
C44 O45 1.229 . S
C44 O57 1.058 1_556 S
O45 C44 1.229 . S
O46 Zn40 1.969 . S
O46 C49 1.267 1_554 S
O47 Zn40 1.965 1_556 S
O47 C58 1.260 . S
O48 Zn41 1.969 . S
O48 C58 1.258 . S
C49 O46 1.267 1_556 S
C49 O50 1.228 . S
O50 C49 1.228 . S
O51 Zn40 2.024 1_556 S
O51 C42 1.058 1_556 S
C52 O53 1.228 . S
C52 O54 1.267 1_554 S
O53 C52 1.228 . S
O54 Zn41 1.969 . S
O54 C52 1.267 1_556 S
O55 Zn41 1.965 1_554 S
O55 C59 1.260 . S
O56 Zn40 1.969 . S
O56 C59 1.258 . S
O57 Zn41 2.024 1_554 S
O57 C44 1.058 1_554 S
C58 O47 1.260 . S
C58 O48 1.258 . S
C59 O55 1.260 . S
C59 O56 1.258 . S
Zn60 O66 1.969 . S
Zn60 O67 1.965 . S
Zn60 O71 2.024 . S
Zn60 O76 1.969 . S
Zn61 O68 1.969 . S
Zn61 O74 1.969 . S
Zn61 O75 1.965 . S
Zn61 O77 2.024 . S
C62 O63 1.229 . S
C62 O71 1.058 . S
O63 C62 1.229 . S
C64 O65 1.229 . S
C64 O77 1.058 . S
O65 C64 1.229 . S
O66 Zn60 1.969 . S
O66 C69 1.267 . S
O67 Zn60 1.965 . S
O67 C78 1.260 . S
O68 Zn61 1.969 . S
O68 C78 1.258 . S
C69 O66 1.267 . S
C69 O70 1.228 . S
O70 C69 1.228 . S
O71 Zn60 2.024 . S
O71 C62 1.058 . S
C72 O73 1.228 . S
C72 O74 1.267 . S
O73 C72 1.228 . S
O74 Zn61 1.969 . S
O74 C72 1.267 . S
O75 Zn61 1.965 . S
O75 C79 1.260 . S
O76 Zn60 1.969 . S
O76 C79 1.258 . S
O77 Zn61 2.024 . S
O77 C64 1.058 . S
C78 O67 1.260 . S
C78 O68 1.258 . S
C79 O75 1.260 . S
C79 O76 1.258 . S
C80 C81 1.393 . S
C80 C82 1.394 . S
C80 H96 0.931 . S
C81 C80 1.393 . S
C81 C85 1.373 1_554 S
C82 C80 1.394 . S
C82 C83 1.369 1_554 S
C82 C86 1.531 . S
C83 C82 1.369 1_556 S
C83 C84 1.410 . S
C83 C91 1.503 . S
C84 C83 1.410 . S
C84 C85 1.392 . S
C84 C87 1.511 . S
C85 C81 1.373 1_556 S
C85 C84 1.392 . S
C85 H97 0.929 . S
C86 C82 1.531 . S
C86 H98 0.960 . S
C86 H99 0.962 . S
C86 H100 0.960 . S
C87 C84 1.511 . S
C87 H101 0.961 . S
C87 H102 0.961 . S
C87 H103 0.961 . S
C88 C89 1.370 1_554 S
C88 C90 1.363 . S
C88 H104 0.931 . S
C89 C88 1.370 1_556 S
C89 C93 1.408 . S
C90 C88 1.363 . S
C90 C91 1.370 1_554 S
C90 C94 1.524 . S
C91 C83 1.503 . S
C91 C90 1.370 1_556 S
C91 C92 1.403 . S
C92 C91 1.403 . S
C92 C93 1.404 . S
C92 C95 1.539 . S
C93 C89 1.408 . S
C93 C92 1.404 . S
C93 H105 0.930 . S
C94 C90 1.524 . S
C94 H106 0.956 . S
C94 H107 0.961 . S
C94 H108 0.961 . S
C95 C92 1.539 . S
C95 H109 0.958 . S
C95 H110 0.961 . S
C95 H111 0.960 . S
H96 C80 0.931 . S
H97 C85 0.929 . S
H98 C86 0.960 . S
H99 C86 0.962 . S
H100 C86 0.960 . S
H101 C87 0.961 . S
H102 C87 0.961 . S
H103 C87 0.961 . S
H104 C88 0.931 . S
H105 C93 0.930 . S
H106 C94 0.956 . S
H107 C94 0.961 . S
H108 C94 0.961 . S
H109 C95 0.958 . S
H110 C95 0.961 . S
H111 C95 0.960 . S
C112 C113 1.378 1_554 S
C112 C114 1.394 . S
C112 H128 0.931 . S
C113 C112 1.378 1_556 S
C113 C117 1.387 . S
C114 C112 1.394 . S
C114 C115 1.369 . S
C114 C118 1.531 . S
C115 C114 1.369 . S
C115 C116 1.410 1_554 S
C115 C123 1.503 . S
C116 C115 1.410 1_556 S
C116 C117 1.392 . S
C116 C119 1.511 . S
C117 C113 1.387 . S
C117 C116 1.392 . S
C117 H129 0.929 . S
C118 C114 1.531 . S
C118 H130 0.960 . S
C118 H131 0.962 . S
C118 H132 0.960 . S
C119 C116 1.511 . S
C119 H133 0.961 . S
C119 H134 0.961 . S
C119 H135 0.961 . S
C120 C121 1.370 1_556 S
C120 C122 1.363 . S
C120 H136 0.931 . S
C121 C120 1.370 1_554 S
C121 C125 1.408 . S
C122 C120 1.363 . S
C122 C123 1.370 1_556 S
C122 C126 1.524 . S
C123 C115 1.503 . S
C123 C122 1.370 1_554 S
C123 C124 1.403 . S
C124 C123 1.403 . S
C124 C125 1.404 . S
C124 C127 1.539 . S
C125 C121 1.408 . S
C125 C124 1.404 . S
C125 H137 0.930 . S
C126 C122 1.524 . S
C126 H138 0.956 1_556 S
C126 H139 0.961 . S
C126 H140 0.961 . S
C127 C124 1.539 . S
C127 H141 0.958 . S
C127 H142 0.961 . S
C127 H143 0.960 . S
H128 C112 0.931 . S
H129 C117 0.929 . S
H130 C118 0.960 . S
H131 C118 0.962 . S
H132 C118 0.960 . S
H133 C119 0.961 . S
H134 C119 0.961 . S
H135 C119 0.961 . S
H136 C120 0.931 . S
H137 C125 0.930 . S
H138 C126 0.956 1_554 S
H139 C126 0.961 . S
H140 C126 0.961 . S
H141 C127 0.958 . S
H142 C127 0.961 . S
H143 C127 0.960 . S
C144 C145 1.391 . S
C144 C146 1.394 . S
C144 H160 0.931 . S
C145 C144 1.391 . S
C145 C149 1.376 . S
C146 C144 1.394 . S
C146 C147 1.369 . S
C146 C150 1.531 . S
C147 C146 1.369 . S
C147 C148 1.410 . S
C147 C155 1.503 . S
C148 C147 1.410 . S
C148 C149 1.392 . S
C148 C151 1.511 . S
C149 C145 1.376 . S
C149 C148 1.392 . S
C149 H161 0.929 . S
C150 C146 1.531 . S
C150 H162 0.960 . S
C150 H163 0.962 . S
C150 H164 0.960 . S
C151 C148 1.511 . S
C151 H165 0.961 . S
C151 H166 0.961 . S
C151 H167 0.961 . S
C152 C153 1.370 . S
C152 C154 1.363 . S
C152 H168 0.931 . S
C153 C152 1.370 . S
C153 C157 1.408 . S
C154 C152 1.363 . S
C154 C155 1.370 . S
C154 C158 1.524 . S
C155 C147 1.503 . S
C155 C154 1.370 . S
C155 C156 1.403 . S
C156 C155 1.403 . S
C156 C157 1.404 . S
C156 C159 1.539 . S
C157 C153 1.408 . S
C157 C156 1.404 . S
C157 H169 0.930 . S
C158 C154 1.524 . S
C158 H170 0.956 . S
C158 H171 0.961 . S
C158 H172 0.961 . S
C159 C156 1.539 . S
C159 H173 0.958 . S
C159 H174 0.961 . S
C159 H175 0.960 . S
H160 C144 0.931 . S
H161 C149 0.929 . S
H162 C150 0.960 . S
H163 C150 0.962 . S
H164 C150 0.960 . S
H165 C151 0.961 . S
H166 C151 0.961 . S
H167 C151 0.961 . S
H168 C152 0.931 . S
H169 C157 0.930 . S
H170 C158 0.956 . S
H171 C158 0.961 . S
H172 C158 0.961 . S
H173 C159 0.958 . S
H174 C159 0.961 . S
H175 C159 0.960 . S
C176 C177 1.391 . S
C176 C178 1.394 . S
C176 H192 0.931 . S
C177 C176 1.391 . S
C177 C181 1.376 . S
C178 C176 1.394 . S
C178 C179 1.369 . S
C178 C182 1.531 . S
C179 C178 1.369 . S
C179 C180 1.410 . S
C179 C187 1.503 . S
C180 C179 1.410 . S
C180 C181 1.392 . S
C180 C183 1.511 . S
C181 C177 1.376 . S
C181 C180 1.392 . S
C181 H193 0.929 . S
C182 C178 1.531 . S
C182 H194 0.960 . S
C182 H195 0.962 . S
C182 H196 0.960 . S
C183 C180 1.511 . S
C183 H197 0.961 . S
C183 H198 0.961 . S
C183 H199 0.961 . S
C184 C185 1.370 . S
C184 C186 1.363 . S
C184 H200 0.931 . S
C185 C184 1.370 . S
C185 C189 1.408 . S
C186 C184 1.363 . S
C186 C187 1.370 . S
C186 C190 1.524 . S
C187 C179 1.503 . S
C187 C186 1.370 . S
C187 C188 1.403 . S
C188 C187 1.403 . S
C188 C189 1.404 . S
C188 C191 1.539 . S
C189 C185 1.408 . S
C189 C188 1.404 . S
C189 H201 0.930 . S
C190 C186 1.524 . S
C190 H202 0.956 . S
C190 H203 0.961 . S
C190 H204 0.961 . S
C191 C188 1.539 . S
C191 H205 0.958 . S
C191 H206 0.961 . S
C191 H207 0.960 . S
H192 C176 0.931 . S
H193 C181 0.929 . S
H194 C182 0.960 . S
H195 C182 0.962 . S
H196 C182 0.960 . S
H197 C183 0.961 . S
H198 C183 0.961 . S
H199 C183 0.961 . S
H200 C184 0.931 . S
H201 C189 0.930 . S
H202 C190 0.956 . S
H203 C190 0.961 . S
H204 C190 0.961 . S
H205 C191 0.958 . S
H206 C191 0.961 . S
H207 C191 0.960 . S
C208 C209 1.391 1_564 S
C208 C210 1.394 . S
C208 H224 0.931 . S
C209 C208 1.391 1_546 S
C209 C213 1.376 . S
C210 C208 1.394 . S
C210 C211 1.369 1_554 S
C210 C214 1.531 . S
C211 C210 1.369 1_556 S
C211 C212 1.410 1_565 S
C211 C219 1.503 . S
C212 C211 1.410 1_545 S
C212 C213 1.392 . S
C212 C215 1.511 . S
C213 C209 1.376 . S
C213 C212 1.392 . S
C213 H225 0.929 . S
C214 C210 1.531 . S
C214 H226 0.960 . S
C214 H227 0.962 . S
C214 H228 0.960 . S
C215 C212 1.511 . S
C215 H229 0.961 . S
C215 H230 0.961 . S
C215 H231 0.961 . S
C216 C217 1.370 1_545 S
C216 C218 1.363 . S
C216 H232 0.931 . S
C217 C216 1.370 1_565 S
C217 C221 1.408 1_554 S
C218 C216 1.363 . S
C218 C219 1.370 1_544 S
C218 C222 1.524 . S
C219 C211 1.503 . S
C219 C218 1.370 1_566 S
C219 C220 1.403 . S
C220 C219 1.403 . S
C220 C221 1.404 . S
C220 C223 1.539 . S
C221 C217 1.408 1_556 S
C221 C220 1.404 . S
C221 H233 0.930 . S
C222 C218 1.524 . S
C222 H234 0.956 . S
C222 H235 0.961 . S
C222 H236 0.961 . S
C223 C220 1.539 . S
C223 H237 0.958 . S
C223 H238 0.961 . S
C223 H239 0.960 . S
H224 C208 0.931 . S
H225 C213 0.929 . S
H226 C214 0.960 . S
H227 C214 0.962 . S
H228 C214 0.960 . S
H229 C215 0.961 . S
H230 C215 0.961 . S
H231 C215 0.961 . S
H232 C216 0.931 . S
H233 C221 0.930 . S
H234 C222 0.956 . S
H235 C222 0.961 . S
H236 C222 0.961 . S
H237 C223 0.958 . S
H238 C223 0.961 . S
H239 C223 0.960 . S
C240 C241 1.391 . S
C240 C242 1.394 . S
C240 H256 0.931 . S
C241 C240 1.391 . S
C241 C245 1.376 . S
C242 C240 1.394 . S
C242 C243 1.369 . S
C242 C246 1.531 . S
C243 C242 1.369 . S
C243 C244 1.410 . S
C243 C251 1.503 . S
C244 C243 1.410 . S
C244 C245 1.392 . S
C244 C247 1.511 . S
C245 C241 1.376 . S
C245 C244 1.392 . S
C245 H257 0.929 . S
C246 C242 1.531 . S
C246 H258 0.960 . S
C246 H259 0.962 1_565 S
C246 H260 0.960 . S
C247 C244 1.511 . S
C247 H261 0.961 1_565 S
C247 H262 0.961 1_565 S
C247 H263 0.961 . S
C248 C249 1.370 . S
C248 C250 1.363 . S
C248 H264 0.931 . S
C249 C248 1.370 . S
C249 C253 1.408 1_545 S
C250 C248 1.363 . S
C250 C251 1.370 1_545 S
C250 C254 1.524 . S
C251 C243 1.503 . S
C251 C250 1.370 1_565 S
C251 C252 1.403 . S
C252 C251 1.403 . S
C252 C253 1.404 . S
C252 C255 1.539 . S
C253 C249 1.408 1_565 S
C253 C252 1.404 . S
C253 H265 0.930 . S
C254 C250 1.524 . S
C254 H266 0.956 . S
C254 H267 0.961 . S
C254 H268 0.961 . S
C255 C252 1.539 . S
C255 H269 0.958 . S
C255 H270 0.961 . S
C255 H271 0.960 . S
H256 C240 0.931 . S
H257 C245 0.929 . S
H258 C246 0.960 . S
H259 C246 0.962 1_545 S
H260 C246 0.960 . S
H261 C247 0.961 1_545 S
H262 C247 0.961 1_545 S
H263 C247 0.961 . S
H264 C248 0.931 . S
H265 C253 0.930 . S
H266 C254 0.956 . S
H267 C254 0.961 . S
H268 C254 0.961 . S
H269 C255 0.958 . S
H270 C255 0.961 . S
H271 C255 0.960 . S
C272 C273 1.391 . S
C272 C274 1.394 . S
C272 H288 0.931 . S
C273 C272 1.391 . S
C273 C277 1.376 1_556 S
C274 C272 1.394 . S
C274 C275 1.369 . S
C274 C278 1.531 . S
C275 C274 1.369 . S
C275 C276 1.410 1_556 S
C275 C283 1.503 1_655 S
C276 C275 1.410 1_554 S
C276 C277 1.392 . S
C276 C279 1.511 . S
C277 C273 1.376 1_554 S
C277 C276 1.392 . S
C277 H289 0.929 . S
C278 C274 1.531 . S
C278 H290 0.960 . S
C278 H291 0.962 . S
C278 H292 0.960 . S
C279 C276 1.511 . S
C279 H293 0.961 . S
C279 H294 0.961 1_655 S
C279 H295 0.961 . S
C280 C281 1.370 . S
C280 C282 1.363 . S
C280 H296 0.931 . S
C281 C280 1.370 . S
C281 C285 1.408 1_554 S
C282 C280 1.363 . S
C282 C283 1.370 1_554 S
C282 C286 1.524 . S
C283 C275 1.503 1_455 S
C283 C282 1.370 1_556 S
C283 C284 1.403 . S
C284 C283 1.403 . S
C284 C285 1.404 . S
C284 C287 1.539 . S
C285 C281 1.408 1_556 S
C285 C284 1.404 . S
C285 H297 0.930 . S
C286 C282 1.524 . S
C286 H298 0.956 1_554 S
C286 H299 0.956 1_455 S
C286 H300 0.961 . S
C287 C284 1.539 . S
C287 H301 0.958 . S
C287 H302 0.961 . S
C287 H303 0.960 . S
H288 C272 0.931 . S
H289 C277 0.929 . S
H290 C278 0.960 . S
H291 C278 0.962 . S
H292 C278 0.960 . S
H293 C279 0.961 . S
H294 C279 0.961 1_455 S
H295 C279 0.961 . S
H296 C280 0.931 . S
H297 C285 0.930 . S
H298 C286 0.956 1_556 S
H299 C286 0.956 1_655 S
H300 C286 0.961 . S
H301 C287 0.958 . S
H302 C287 0.961 . S
H303 C287 0.960 . S
C304 C305 1.391 . S
C304 C306 1.394 . S
C304 H320 0.931 . S
C305 C304 1.391 . S
C305 C309 1.376 . S
C306 C304 1.394 . S
C306 C307 1.369 . S
C306 C310 1.531 . S
C307 C306 1.369 . S
C307 C308 1.410 . S
C307 C315 1.503 1_455 S
C308 C307 1.410 . S
C308 C309 1.392 . S
C308 C311 1.511 . S
C309 C305 1.376 . S
C309 C308 1.392 . S
C309 H321 0.929 . S
C310 C306 1.531 . S
C310 H322 0.960 1_455 S
C310 H323 0.962 . S
C310 H324 0.960 . S
C311 C308 1.511 . S
C311 H325 0.961 . S
C311 H326 0.961 1_455 S
C311 H327 0.961 . S
C312 C313 1.370 . S
C312 C314 1.363 . S
C312 H328 0.931 . S
C313 C312 1.370 . S
C313 C317 1.408 . S
C314 C312 1.363 . S
C314 C315 1.370 . S
C314 C318 1.524 . S
C315 C307 1.503 1_655 S
C315 C314 1.370 . S
C315 C316 1.403 . S
C316 C315 1.403 . S
C316 C317 1.404 . S
C316 C319 1.539 . S
C317 C313 1.408 . S
C317 C316 1.404 . S
C317 H329 0.930 . S
C318 C314 1.524 . S
C318 H330 0.956 1_655 S
C318 H331 0.961 1_655 S
C318 H332 0.961 . S
C319 C316 1.539 . S
C319 H333 0.958 . S
C319 H334 0.961 . S
C319 H335 0.960 . S
H320 C304 0.931 . S
H321 C309 0.929 . S
H322 C310 0.960 1_655 S
H323 C310 0.962 . S
H324 C310 0.960 . S
H325 C311 0.961 . S
H326 C311 0.961 1_655 S
H327 C311 0.961 . S
H328 C312 0.931 . S
H329 C317 0.930 . S
H330 C318 0.956 1_455 S
H331 C318 0.961 1_455 S
H332 C318 0.961 . S
H333 C319 0.958 . S
H334 C319 0.961 . S
H335 C319 0.960 . S
C336 C337 1.398 1_455 S
C336 C338 1.394 . S
C336 H352 0.931 . S
C337 C336 1.398 1_655 S
C337 C341 1.369 1_565 S
C338 C336 1.394 . S
C338 C339 1.369 1_455 S
C338 C342 1.531 . S
C339 C338 1.369 1_655 S
C339 C340 1.410 1_565 S
C339 C347 1.503 . S
C340 C339 1.410 1_545 S
C340 C341 1.392 . S
C340 C343 1.511 . S
C341 C337 1.369 1_545 S
C341 C340 1.392 . S
C341 H353 0.929 . S
C342 C338 1.531 . S
C342 H354 0.960 . S
C342 H355 0.962 . S
C342 H356 0.960 . S
C343 C340 1.511 . S
C343 H357 0.961 . S
C343 H358 0.961 . S
C343 H359 0.961 . S
C344 C345 1.373 1_455 S
C344 C346 1.363 . S
C344 H360 0.931 . S
C345 C344 1.373 1_655 S
C345 C349 1.405 1_545 S
C346 C344 1.363 . S
C346 C347 1.370 1_445 S
C346 C350 1.524 . S
C347 C339 1.503 . S
C347 C346 1.370 1_665 S
C347 C348 1.403 . S
C348 C347 1.403 . S
C348 C349 1.404 . S
C348 C351 1.539 . S
C349 C345 1.405 1_565 S
C349 C348 1.404 . S
C349 H361 0.930 . S
C350 C346 1.524 . S
C350 H362 0.956 . S
C350 H363 0.961 . S
C350 H364 0.961 . S
C351 C348 1.539 . S
C351 H365 0.958 . S
C351 H366 0.961 . S
C351 H367 0.960 . S
H352 C336 0.931 . S
H353 C341 0.929 . S
H354 C342 0.960 . S
H355 C342 0.962 . S
H356 C342 0.960 . S
H357 C343 0.961 . S
H358 C343 0.961 . S
H359 C343 0.961 . S
H360 C344 0.931 . S
H361 C349 0.930 . S
H362 C350 0.956 . S
H363 C350 0.961 . S
H364 C350 0.961 . S
H365 C351 0.958 . S
H366 C351 0.961 . S
H367 C351 0.960 . S
C368 C369 1.391 . S
C368 C370 1.394 . S
C368 H384 0.931 . S
C369 C368 1.391 . S
C369 C373 1.376 1_465 S
C370 C368 1.394 . S
C370 C371 1.369 1_455 S
C370 C374 1.531 . S
C371 C370 1.369 1_655 S
C371 C372 1.410 1_565 S
C371 C379 1.504 1_655 S
C372 C371 1.410 1_545 S
C372 C373 1.392 . S
C372 C375 1.511 . S
C373 C369 1.376 1_645 S
C373 C372 1.392 . S
C373 H385 0.929 . S
C374 C370 1.531 . S
C374 H386 0.960 . S
C374 H387 0.962 . S
C374 H388 0.960 . S
C375 C372 1.511 . S
C375 H389 0.961 . S
C375 H390 0.961 . S
C375 H391 0.961 . S
C376 C377 1.370 1_545 S
C376 C378 1.363 . S
C376 H392 0.931 . S
C377 C376 1.370 1_565 S
C377 C381 1.408 1_455 S
C378 C376 1.363 . S
C378 C379 1.370 1_545 S
C378 C382 1.524 . S
C379 C371 1.504 1_455 S
C379 C378 1.370 1_565 S
C379 C380 1.403 1_455 S
C380 C379 1.403 1_655 S
C380 C381 1.404 . S
C380 C383 1.539 . S
C381 C377 1.408 1_655 S
C381 C380 1.404 . S
C381 H393 0.930 . S
C382 C378 1.524 . S
C382 H394 0.956 . S
C382 H395 0.961 . S
C382 H396 0.961 . S
C383 C380 1.539 . S
C383 H397 0.958 . S
C383 H398 0.961 . S
C383 H399 0.960 . S
H384 C368 0.931 . S
H385 C373 0.929 . S
H386 C374 0.960 . S
H387 C374 0.962 . S
H388 C374 0.960 . S
H389 C375 0.961 . S
H390 C375 0.961 . S
H391 C375 0.961 . S
H392 C376 0.931 . S
H393 C381 0.930 . S
H394 C382 0.956 . S
H395 C382 0.961 . S
H396 C382 0.961 . S
H397 C383 0.958 . S
H398 C383 0.961 . S
H399 C383 0.960 . S
C400 C401 1.391 . S
C400 C402 1.394 . S
C400 H416 0.931 . S
C401 C400 1.391 . S
C401 C405 1.376 . S
C402 C400 1.394 . S
C402 C403 1.369 . S
C402 C406 1.531 . S
C403 C402 1.369 . S
C403 C404 1.410 . S
C403 C411 1.503 . S
C404 C403 1.410 . S
C404 C405 1.392 . S
C404 C407 1.511 . S
C405 C401 1.376 . S
C405 C404 1.392 . S
C405 H417 0.929 . S
C406 C402 1.531 . S
C406 H418 0.960 . S
C406 H419 0.962 . S
C406 H420 0.960 . S
C407 C404 1.511 . S
C407 H421 0.961 . S
C407 H422 0.961 . S
C407 H423 0.961 . S
C408 C409 1.370 . S
C408 C410 1.363 . S
C408 H424 0.931 . S
C409 C408 1.370 . S
C409 C413 1.408 . S
C410 C408 1.363 . S
C410 C411 1.370 . S
C410 C414 1.524 . S
C411 C403 1.503 . S
C411 C410 1.370 . S
C411 C412 1.403 . S
C412 C411 1.403 . S
C412 C413 1.404 . S
C412 C415 1.539 . S
C413 C409 1.408 . S
C413 C412 1.404 . S
C413 H425 0.930 . S
C414 C410 1.524 . S
C414 H426 0.956 . S
C414 H427 0.961 . S
C414 H428 0.961 . S
C415 C412 1.539 . S
C415 H429 0.958 . S
C415 H430 0.961 . S
C415 H431 0.960 . S
H416 C400 0.931 . S
H417 C405 0.929 . S
H418 C406 0.960 . S
H419 C406 0.962 . S
H420 C406 0.960 . S
H421 C407 0.961 . S
H422 C407 0.961 . S
H423 C407 0.961 . S
H424 C408 0.931 . S
H425 C413 0.930 . S
H426 C414 0.956 . S
H427 C414 0.961 . S
H428 C414 0.961 . S
H429 C415 0.958 . S
H430 C415 0.961 . S
H431 C415 0.960 . S
C432 C433 1.391 . S
C432 C434 1.394 . S
C432 H448 0.931 . S
C433 C432 1.391 . S
C433 C437 1.376 . S
C434 C432 1.394 . S
C434 C435 1.369 . S
C434 C438 1.531 . S
C435 C434 1.369 . S
C435 C436 1.410 . S
C435 C443 1.503 . S
C436 C435 1.410 . S
C436 C437 1.392 . S
C436 C439 1.511 . S
C437 C433 1.376 . S
C437 C436 1.392 . S
C437 H449 0.929 . S
C438 C434 1.531 . S
C438 H450 0.960 . S
C438 H451 0.962 . S
C438 H452 0.960 . S
C439 C436 1.511 . S
C439 H453 0.961 . S
C439 H454 0.961 . S
C439 H455 0.961 . S
C440 C441 1.370 . S
C440 C442 1.363 . S
C440 H456 0.931 . S
C441 C440 1.370 . S
C441 C445 1.408 . S
C442 C440 1.363 . S
C442 C443 1.370 . S
C442 C446 1.524 . S
C443 C435 1.503 . S
C443 C442 1.370 . S
C443 C444 1.403 . S
C444 C443 1.403 . S
C444 C445 1.404 . S
C444 C447 1.539 . S
C445 C441 1.408 . S
C445 C444 1.404 . S
C445 H457 0.930 . S
C446 C442 1.524 . S
C446 H458 0.956 . S
C446 H459 0.961 . S
C446 H460 0.961 . S
C447 C444 1.539 . S
C447 H461 0.958 . S
C447 H462 0.961 . S
C447 H463 0.960 . S
H448 C432 0.931 . S
H449 C437 0.929 . S
H450 C438 0.960 . S
H451 C438 0.962 . S
H452 C438 0.960 . S
H453 C439 0.961 . S
H454 C439 0.961 . S
H455 C439 0.961 . S
H456 C440 0.931 . S
H457 C445 0.930 . S
H458 C446 0.956 . S
H459 C446 0.961 . S
H460 C446 0.961 . S
H461 C447 0.958 . S
H462 C447 0.961 . S
H463 C447 0.960 . S
C81 C44 1.575 1_554 S
C89 C2 1.538 1_556 S
C113 C42 1.579 1_556 S
C121 C4 1.534 1_554 S
C145 C29 1.326 . S
C153 C72 1.312 . S
C177 C32 1.295 . S
C185 C69 1.326 . S
C209 C9 1.002 1_545 S
C217 C12 1.049 1_565 S
C241 C22 1.539 1_565 S
C249 C24 1.486 1_545 S
C273 C49 1.073 . S
C281 C52 1.021 . S
C305 C64 1.527 . S
C313 C62 1.493 . S
C337 C38 1.474 1_565 S
C345 C19 1.475 1_645 S
C369 C18 1.484 1_465 S
C377 C39 1.494 . S
C401 C78 1.481 . S
C409 C59 1.471 . S
C433 C79 1.488 . S
C441 C58 1.472 . S
