# Generated by pormake.
# Topology bsn, (6)-cn, num edge types: 1
# Building blocks:
#     Node 0, Type 0, BuildingBlock: FUNLAD_clean_sbu_0, # of connection points: 6
#     Node 1, Type 0, BuildingBlock: FUNLAD_clean_sbu_0, # of connection points: 6
#     Node 2, Type 0, BuildingBlock: FUNLAD_clean_sbu_0, # of connection points: 6
#     Node 3, Type 0, BuildingBlock: FUNLAD_clean_sbu_0, # of connection points: 6
#     Edge 4, Type (0, 0), BuildingBlock: FUNLAD_clean_linker_1, # of connection points: 2
#     Edge 5, Type (0, 0), BuildingBlock: FUNLAD_clean_linker_1, # of connection points: 2
#     Edge 6, Type (0, 0), BuildingBlock: FUNLAD_clean_linker_1, # of connection points: 2
#     Edge 7, Type (0, 0), BuildingBlock: FUNLAD_clean_linker_1, # of connection points: 2
#     Edge 8, Type (0, 0), BuildingBlock: FUNLAD_clean_linker_1, # of connection points: 2
#     Edge 9, Type (0, 0), BuildingBlock: FUNLAD_clean_linker_1, # of connection points: 2
#     Edge 10, Type (0, 0), BuildingBlock: FUNLAD_clean_linker_1, # of connection points: 2
#     Edge 11, Type (0, 0), BuildingBlock: FUNLAD_clean_linker_1, # of connection points: 2
#     Edge 12, Type (0, 0), BuildingBlock: FUNLAD_clean_linker_1, # of connection points: 2
#     Edge 13, Type (0, 0), BuildingBlock: FUNLAD_clean_linker_1, # of connection points: 2
#     Edge 14, Type (0, 0), BuildingBlock: FUNLAD_clean_linker_1, # of connection points: 2
#     Edge 15, Type (0, 0), BuildingBlock: FUNLAD_clean_linker_1, # of connection points: 2
# Relax obj value: 0.454
# Max RMSD: 0.270
# Mean RMSD: 0.270
data_MOF--net-bsn--node1-FUNLAD_clean_sbu_0--edge1-FUNLAD_clean_linker_1
_symmetry_space_group_name_H-M    P1
_symmetry_Int_Tables_number       1
_symmetry_cell_setting            triclinic
loop_
_symmetry_equiv_pos_as_xyz
'x, y, z'
_cell_length_a     29.323969
_cell_length_b     29.318785
_cell_length_c     21.978886
_cell_angle_alpha  91.501377
_cell_angle_beta   92.133957
_cell_angle_gamma 95.91179
loop_
_atom_site_label
_atom_site_type_symbol
_atom_site_fract_x
_atom_site_fract_y
_atom_site_fract_z
_atom_type_partial_charge
C0 C 0.14044 0.27872 0.34702 0.0
N1 N 0.0389 0.27964 0.21571 0.0
C2 C 0.0653 0.31478 0.19109 0.0
C3 C 0.06546 0.31925 0.12822 0.0
C4 C 0.03861 0.28708 0.09033 0.0
C5 C 1.01064 0.25178 0.11694 0.0
C6 C 1.01145 0.24865 0.18019 0.0
Zn7 Zn 0.04248 0.27371 0.30729 0.0
C8 C 0.04422 0.17744 0.34984 0.0
N9 N 0.05381 0.26396 0.49842 0.0
C10 C 0.08665 0.28984 0.53312 0.0
C11 C 1.02299 0.23289 0.52368 0.0
C12 C 1.02437 0.2269 0.58629 0.0
C13 C 0.05715 0.25373 0.62337 0.0
C14 C 0.08898 0.28529 0.59618 0.0
Zn15 Zn 0.04989 0.27024 0.40685 0.0
O16 O 0.11186 0.27975 0.30295 0.0
C17 C 0.04778 0.36596 0.37578 0.0
O18 O 0.12562 0.27453 0.40076 0.0
H19 H 0.99715 0.2128 0.49518 0.0
H20 H 0.08684 0.33903 0.22024 0.0
H21 H 0.11095 0.31411 0.51187 0.0
O22 O 0.0432 0.34909 0.3214 0.0
O23 O 0.05261 0.3394 0.41926 0.0
H24 H 0.99039 0.22131 0.20093 0.0
O25 O 0.97333 0.26586 0.40666 0.0
O26 O 0.97362 0.26781 0.3073 0.0
O27 O 0.04755 0.20122 0.39867 0.0
O28 O 0.0408 0.19764 0.29928 0.0
C29 C 0.95134 0.26548 0.35523 0.0
H30 H 0.08721 0.34706 0.10932 0.0
H31 H 0.98824 0.22696 0.08965 0.0
H32 H 0.99941 0.20217 0.60571 0.0
H33 H 0.1156 0.30593 0.62292 0.0
C34 C 0.12813 0.78425 0.62055 0.0
N35 N 0.03644 0.7753 0.46452 0.0
C36 C 0.07069 0.80322 0.44052 0.0
C37 C 0.07465 0.80495 0.37782 0.0
C38 C 0.04276 0.77822 0.33946 0.0
C39 C 1.00809 0.74899 0.36525 0.0
C40 C 1.00555 0.74812 0.42847 0.0
Zn41 Zn 0.03259 0.77674 0.55605 0.0
C42 C 0.02978 0.68551 0.60318 0.0
N43 N 0.02996 0.78633 0.74711 0.0
C44 C 0.05538 0.81924 0.78207 0.0
C45 C 0.99945 0.75473 0.77195 0.0
C46 C 0.99345 0.75547 0.83437 0.0
C47 C 1.01954 0.78853 0.87173 0.0
C48 C 0.0507 0.82106 0.845 0.0
Zn49 Zn 0.03448 0.78393 0.65563 0.0
O50 O 0.10891 0.78036 0.56721 0.0
C51 C 0.03683 0.8745 0.59651 0.0
O52 O 0.10343 0.78722 0.66592 0.0
H53 H 0.97948 0.729 0.7432 0.0
H54 H 0.09473 0.8247 0.47006 0.0
H55 H 0.07911 0.84421 0.76106 0.0
O56 O 0.03493 0.84599 0.55241 0.0
O57 O 0.03846 0.85979 0.65068 0.0
H58 H 0.97891 0.72593 0.44878 0.0
O59 O 0.96524 0.78114 0.64984 0.0
O60 O 0.95641 0.77218 0.55108 0.0
O61 O 0.03106 0.70732 0.65452 0.0
O62 O 0.02972 0.70787 0.555 0.0
C63 C 0.9389 0.77629 0.60306 0.0
H64 H 0.10189 0.82769 0.35942 0.0
H65 H 0.9835 0.7268 0.33726 0.0
H66 H 0.96901 0.72999 0.85337 0.0
H67 H 0.07077 0.84796 0.87181 0.0
C68 C 0.63941 0.76978 0.85446 0.0
N69 N 0.54493 0.7678 0.71526 0.0
C70 C 0.57414 0.80079 0.69086 0.0
C71 C 0.57904 0.80171 0.62829 0.0
C72 C 0.55353 0.76859 0.59034 0.0
C73 C 0.52342 0.73484 0.61668 0.0
C74 C 0.51958 0.73522 0.67973 0.0
Zn75 Zn 0.54284 0.76692 0.80676 0.0
C76 C 0.53913 0.67374 0.85965 0.0
N77 N 0.54594 0.76912 -0.00218 0.0
C78 C 0.5783 0.79507 0.03314 0.0
C79 C 0.51113 0.74244 0.02259 0.0
C80 C 0.50772 0.74131 0.08542 0.0
C81 C 0.54076 0.76729 0.12297 0.0
C82 C 0.57639 0.79469 0.09639 0.0
Zn83 Zn 0.5474 0.76996 0.9063 0.0
O84 O 0.61216 0.76948 0.80879 0.0
C85 C 0.55135 0.86332 0.86544 0.0
O86 O 0.62324 0.77066 0.9076 0.0
H87 H 0.48588 0.72198 -0.00645 0.0
H88 H 0.59426 0.82609 0.7201 0.0
H89 H 0.60533 0.81634 0.0122 0.0
O90 O 0.54605 0.84339 0.81283 0.0
O91 O 0.55392 0.83911 0.91171 0.0
H92 H 0.49683 0.70919 0.7004 0.0
O93 O 0.47114 0.76993 0.89903 0.0
O94 O 0.4739 0.76382 0.79991 0.0
O95 O 0.54145 0.7005 0.90569 0.0
O96 O 0.53881 0.69082 0.80676 0.0
C97 C 0.45053 0.76687 0.84654 0.0
H98 H 0.60269 0.82812 0.60971 0.0
H99 H 0.50364 0.70787 0.58976 0.0
H100 H 0.47974 0.71998 0.10454 0.0
H101 H 0.60193 0.81621 0.12382 0.0
C102 C 0.62955 0.27539 0.12473 0.0
N103 N 0.54066 0.26876 0.9662 0.0
C104 C 0.57612 0.29489 0.942 0.0
C105 C 0.58045 0.29556 0.87921 0.0
C106 C 0.54763 0.26969 0.84116 0.0
C107 C 0.51173 0.24235 0.86725 0.0
C108 C 0.5089 0.24244 0.93039 0.0
Zn109 Zn 0.53579 0.26995 0.05755 0.0
C110 C 0.53107 0.17661 0.10146 0.0
N111 N 0.5294 0.27401 0.24815 0.0
C112 C 0.55358 0.30801 0.28269 0.0
C113 C 0.50058 0.24115 0.27348 0.0
C114 C 0.49544 0.24147 0.33614 0.0
C115 C 0.52042 0.27564 0.37309 0.0
C116 C 0.54951 0.30963 0.34566 0.0
Zn117 Zn 0.53455 0.27267 0.15683 0.0
O118 O 0.61167 0.27038 0.07069 0.0
C119 C 0.53827 0.36569 0.10082 0.0
O120 O 0.60365 0.27941 0.16862 0.0
H121 H 0.4814 0.21468 0.24498 0.0
H122 H 0.6009 0.31562 0.97143 0.0
H123 H 0.57594 0.33399 0.26132 0.0
O124 O 0.54161 0.33918 0.05555 0.0
O125 O 0.53461 0.34859 0.15354 0.0
H126 H 0.48135 0.22156 0.95085 0.0
O127 O 0.46522 0.26569 0.1496 0.0
O128 O 0.45993 0.26935 0.05056 0.0
O129 O 0.53486 0.19674 0.15399 0.0
O130 O 0.52941 0.2006 0.05483 0.0
C131 C 0.4405 0.26601 0.10156 0.0
H132 H 0.60866 0.31682 0.86049 0.0
H133 H 0.4864 0.22085 0.83947 0.0
H134 H 0.47248 0.21491 0.35563 0.0
H135 H 0.56855 0.33751 0.37185 0.0
H136 H 0.04155 0.43928 0.35457 0.0
C137 C 0.04511 0.4153 0.39085 0.0
H138 H 0.04942 0.40545 0.48595 0.0
H139 H 0.11083 0.60235 0.58815 0.0
H140 H 0.18134 0.56685 0.60159 0.0
H141 H 0.18889 0.49042 0.55601 0.0
H142 H 0.12599 0.4491 0.49618 0.0
C143 C 0.04516 0.42962 0.45001 0.0
C144 C 0.04146 0.47768 0.47166 0.0
C145 C 0.07834 0.50134 0.50731 0.0
C146 C 0.07389 0.5454 0.53407 0.0
C147 C 0.11193 0.56865 0.56754 0.0
C148 C 0.15275 0.5487 0.57551 0.0
C149 C 0.15699 0.50564 0.5499 0.0
C150 C 0.12047 0.48218 0.51594 0.0
H151 H 0.03122 0.61424 0.63709 0.0
C152 C 0.03008 0.63491 0.59689 0.0
H153 H 0.02827 0.63634 0.50051 0.0
H154 H 0.96192 0.43976 0.4125 0.0
H155 H 0.89096 0.47469 0.40071 0.0
H156 H 0.8837 0.55143 0.44568 0.0
H157 H 0.94739 0.59348 0.50349 0.0
C158 C 0.03057 0.61535 0.54032 0.0
C159 C 0.03234 0.56568 0.52562 0.0
C160 C 0.99505 0.54144 0.49143 0.0
C161 C 0.99944 0.49737 0.46475 0.0
C162 C 0.96102 0.47368 0.43254 0.0
C163 C 0.91989 0.49326 0.42565 0.0
C164 C 0.9158 0.53647 0.45096 0.0
C165 C 0.95274 0.56036 0.48368 0.0
H166 H 0.71491 0.78461 0.87563 0.0
C167 C 0.68895 0.77014 0.84208 0.0
H168 H 0.67364 0.74162 0.75344 0.0
H169 H 0.82446 0.83371 0.59814 0.0
H170 H 0.75952 0.87387 0.56721 0.0
H171 H 0.6881 0.86558 0.62354 0.0
H172 H 0.68126 0.81742 0.71134 0.0
C173 C 0.70051 0.75634 0.78574 0.0
C174 C 0.74632 0.76622 0.75881 0.0
C175 C 0.74993 0.79451 0.70716 0.0
C176 C 0.79115 0.79937 0.67448 0.0
C177 C 0.79389 0.82853 0.62415 0.0
C178 C 0.75687 0.85183 0.60595 0.0
C179 C 0.71663 0.84711 0.63761 0.0
C180 C 0.71306 0.81904 0.68773 0.0
H181 H 0.8643 0.75704 0.57909 0.0
C182 C 0.88881 0.7735 0.61313 0.0
H183 H 0.90041 0.80403 0.70138 0.0
H184 H 0.75045 0.70745 0.85306 0.0
H185 H 0.81547 0.66741 0.88387 0.0
H186 H 0.88709 0.6763 0.82794 0.0
H187 H 0.89386 0.72482 0.7404 0.0
C188 C 0.87506 0.78756 0.66827 0.0
C189 C 0.82887 0.77601 0.69336 0.0
C190 C 0.82515 0.74747 0.7447 0.0
C191 C 0.7839 0.7425 0.77732 0.0
C192 C 0.78111 0.713 0.8273 0.0
C193 C 0.81816 0.68969 0.84538 0.0
C194 C 0.85849 0.69472 0.81393 0.0
C195 C 0.86205 0.723 0.76402 0.0
H196 H 0.54434 0.44077 0.12579 0.0
C197 C 0.53785 0.41535 0.08884 0.0
H198 H 0.52396 0.40195 -0.00548 0.0
H199 H 0.47022 0.61254 -0.01447 0.0
H200 H 0.41239 0.59123 0.05851 0.0
H201 H 0.40943 0.51657 0.10816 0.0
H202 H 0.46464 0.46305 0.08582 0.0
C203 C 0.53061 0.42813 0.03062 0.0
C204 C 0.53568 0.47601 0.00853 0.0
C205 C 0.50298 0.50681 0.02192 0.0
C206 C 0.50442 0.54973 -0.00736 0.0
C207 C 0.47115 0.57976 0.00681 0.0
C208 C 0.43753 0.56784 0.04834 0.0
C209 C 0.43587 0.5258 0.07629 0.0
C210 C 0.46793 0.49542 0.06318 0.0
H211 H 0.52895 0.59884 0.83349 0.0
C212 C 0.53698 0.62373 0.87078 0.0
H213 H 0.55177 0.63545 0.96531 0.0
H214 H 0.60377 0.42525 0.9724 0.0
H215 H 0.66139 0.44649 0.8992 0.0
H216 H 0.66415 0.52104 0.84928 0.0
H217 H 0.60893 0.57452 0.87164 0.0
C218 C 0.54407 0.60994 0.92859 0.0
C219 C 0.53823 0.56177 0.94949 0.0
C220 C 0.5708 0.53088 0.93589 0.0
C221 C 0.5694 0.48799 0.96522 0.0
C222 C 0.60273 0.45799 0.95104 0.0
C223 C 0.63624 0.46987 0.90937 0.0
C224 C 0.6378 0.51184 0.88129 0.0
C225 C 0.60574 0.54221 0.89445 0.0
H226 H 0.87984 0.26424 0.38831 0.0
C227 C 0.90057 0.26407 0.34839 0.0
H228 H 0.90198 0.26283 0.25202 0.0
H229 H 0.70674 0.19214 0.16145 0.0
H230 H 0.74316 0.12201 0.15177 0.0
H231 H 0.82007 0.11635 0.19855 0.0
H232 H 0.86075 0.18079 0.25609 0.0
C233 C 0.88091 0.2643 0.29154 0.0
C234 C 0.83113 0.26499 0.27601 0.0
C235 C 0.80769 0.22728 0.24199 0.0
C236 C 0.76353 0.23076 0.21428 0.0
C237 C 0.74067 0.19192 0.18229 0.0
C238 C 0.76113 0.15128 0.17658 0.0
C239 C 0.80442 0.14809 0.20291 0.0
C240 C 0.82751 0.18543 0.23545 0.0
H241 H 0.70289 0.27098 0.10269 0.0
C242 C 0.67932 0.27407 0.13918 0.0
H243 H 0.67068 0.27858 0.23436 0.0
H244 H 0.86629 0.34411 0.33758 0.0
H245 H 0.8296 0.414 0.34838 0.0
H246 H 0.753 0.42002 0.30094 0.0
H247 H 0.71284 0.35627 0.24176 0.0
C248 C 0.69451 0.27476 0.1983 0.0
C249 C 0.74296 0.2723 0.21998 0.0
C250 C 0.76595 0.30967 0.25521 0.0
C251 C 0.81007 0.30611 0.28303 0.0
C252 C 0.8326 0.34459 0.31614 0.0
C253 C 0.81194 0.38504 0.32264 0.0
C254 C 0.7688 0.38842 0.29597 0.0
C255 C 0.74601 0.35141 0.26241 0.0
H256 H 0.36896 0.27914 0.07339 0.0
C257 C 0.39031 0.26609 0.10897 0.0
H258 H 0.3953 0.24208 0.19869 0.0
H259 H 0.25843 0.34868 0.33404 0.0
H260 H 0.32919 0.39652 0.36044 0.0
H261 H 0.40027 0.38551 0.30781 0.0
H262 H 0.40089 0.327 0.22787 0.0
C263 C 0.37316 0.255 0.16378 0.0
C264 C 0.32834 0.26674 0.18611 0.0
C265 C 0.32844 0.30085 0.23332 0.0
C266 C 0.28753 0.30693 0.26425 0.0
C267 C 0.28861 0.34207 0.30986 0.0
C268 C 0.329 0.36988 0.32535 0.0
C269 C 0.36902 0.36368 0.29573 0.0
C270 C 0.36894 0.32976 0.25015 0.0
H271 H 0.21418 0.26858 0.36594 0.0
C272 C 0.18956 0.27894 0.33224 0.0
H273 H 0.17676 0.29784 0.24138 0.0
H274 H 0.31614 0.19885 0.09787 0.0
H275 H 0.24525 0.15127 0.07054 0.0
H276 H 0.17436 0.16123 0.12417 0.0
H277 H 0.1739 0.21845 0.20572 0.0
C278 C 0.20205 0.28784 0.27452 0.0
C279 C 0.24654 0.27857 0.2484 0.0
C280 C 0.2463 0.24495 0.20043 0.0
C281 C 0.28718 0.23908 0.16933 0.0
C282 C 0.28601 0.20477 0.12264 0.0
C283 C 0.24556 0.17725 0.10652 0.0
C284 C 0.20564 0.18289 0.13668 0.0
C285 C 0.20582 0.21612 0.18321 0.0
H286 H 0.37888 0.77147 0.87607 0.0
C287 C 0.40032 0.76878 0.83718 0.0
H288 H 0.40374 0.76515 0.74108 0.0
H289 H 0.20514 0.70068 0.65246 0.0
H290 H 0.23962 0.6295 0.64227 0.0
H291 H 0.31684 0.6222 0.6868 0.0
H292 H 0.35993 0.68612 0.74245 0.0
C293 C 0.38206 0.76877 0.77959 0.0
C294 C 0.33278 0.77147 0.76258 0.0
C295 C 0.30799 0.73401 0.72956 0.0
C296 C 0.26357 0.73838 0.70322 0.0
C297 C 0.23928 0.69978 0.67231 0.0
C298 C 0.2586 0.65852 0.66632 0.0
C299 C 0.3021 0.65442 0.69137 0.0
C300 C 0.32657 0.6915 0.72286 0.0
H301 H 0.20054 0.77971 0.59438 0.0
C302 C 0.1782 0.78295 0.63222 0.0
H303 H 0.17268 0.7878 0.72796 0.0
H304 H 0.37146 0.85094 0.82036 0.0
H305 H 0.33703 0.92218 0.83076 0.0
H306 H 0.25982 0.92955 0.78608 0.0
H307 H 0.21682 0.86578 0.73004 0.0
C308 C 0.19521 0.78364 0.69048 0.0
C309 C 0.24411 0.78051 0.70932 0.0
C310 C 0.26878 0.81787 0.74272 0.0
C311 C 0.31318 0.81348 0.76909 0.0
C312 C 0.33739 0.85196 0.80032 0.0
C313 C 0.31806 0.8932 0.8065 0.0
C314 C 0.27459 0.89735 0.78137 0.0
C315 C 0.25017 0.86035 0.74962 0.0
H316 H 0.5368 0.93395 0.84051 0.0
C317 C 0.55038 0.91346 0.87602 0.0
H318 H 0.57462 0.91061 0.96753 0.0
H319 H 0.58745 0.13504 0.96822 0.0
H320 H 0.64264 0.13211 0.88922 0.0
H321 H 0.65648 0.05837 0.84035 0.0
H322 H 0.61484 0.98711 0.86982 0.0
C323 C 0.56138 0.93187 0.93255 0.0
C324 C 0.54934 0.97729 0.95527 0.0
C325 C 0.57389 1.01858 0.93747 0.0
C326 C 0.56601 0.06109 0.96603 0.0
C327 C 0.59148 0.10182 0.94766 0.0
C328 C 0.62352 0.10063 0.90259 0.0
C329 C 0.63133 0.05911 0.87509 0.0
C330 C 0.60708 1.01844 0.89234 0.0
H331 H 0.54579 0.1062 0.12728 0.0
C332 C 0.53231 0.12646 0.09145 0.0
H333 H 0.50821 0.12882 -0.00018 0.0
H334 H 0.49563 0.90459 -0.00029 0.0
H335 H 0.44044 0.90753 0.07872 0.0
H336 H 0.42662 0.98127 0.12761 0.0
H337 H 0.46828 0.05253 0.09815 0.0
C338 C 0.52148 0.10777 0.03502 0.0
C339 C 0.53373 0.06234 0.01264 0.0
C340 C 0.50921 1.02105 0.03048 0.0
C341 C 0.51708 0.97853 0.00192 0.0
C342 C 0.49161 0.93781 0.02028 0.0
C343 C 0.45956 0.939 0.06536 0.0
C344 C 0.45177 0.98052 0.09286 0.0
C345 C 0.47603 1.02119 0.07562 0.0
H346 H 0.05312 0.95011 0.61394 0.0
C347 C 0.03819 0.92374 0.5814 0.0
H348 H 1.0089 0.90732 0.49325 0.0
H349 H 0.9977 0.13026 0.48287 0.0
H350 H 0.9513 0.12378 0.57188 0.0
H351 H 0.94085 0.05116 0.6263 0.0
H352 H 0.97702 0.98487 0.5924 0.0
C353 C 1.02417 0.93454 0.52446 0.0
C354 C 0.03344 0.98022 0.49628 0.0
C355 C 1.01183 1.01855 0.51659 0.0
C356 C 1.0176 0.06038 0.48481 0.0
C357 C 0.99525 0.09803 0.5059 0.0
C358 C 0.96819 0.09464 0.55663 0.0
C359 C 0.96228 0.05375 0.58723 0.0
C360 C 0.9835 1.01597 0.56744 0.0
H361 H 1.02358 0.10411 0.32137 0.0
C362 C 0.04202 0.12687 0.35578 0.0
H363 H 0.07645 0.1343 0.44214 0.0
H364 H 0.07888 0.91314 0.44329 0.0
H365 H 0.12271 0.91928 0.35212 0.0
H366 H 0.1321 0.99175 0.29726 0.0
H367 H 0.09725 0.05853 0.33312 0.0
C368 C 0.05799 0.11049 0.40878 0.0
C369 C 0.04472 0.06397 0.43248 0.0
C370 C 0.06503 0.02525 0.41094 0.0
C371 C 0.05945 0.9834 0.44277 0.0
C372 C 0.08104 0.94552 0.42057 0.0
C373 C 0.10665 0.94865 0.36844 0.0
C374 C 0.11199 0.98947 0.33759 0.0
C375 C 0.09177 0.02753 0.35863 0.0
H376 H 0.05433 0.3245 0.00654 0.0
C377 C 0.04117 0.29141 0.02365 0.0
H378 H 1.02209 0.22146 -0.0007 0.0
H379 H 1.00463 0.33183 0.73885 0.0
H380 H 0.94018 0.36441 0.78298 0.0
H381 H 0.92023 0.34942 0.8892 0.0
H382 H 0.96479 0.302 0.95197 0.0
C383 C 0.03173 0.25585 -0.01608 0.0
C384 C 0.04079 0.26166 0.91858 0.0
C385 C 1.01389 0.28896 0.88245 0.0
C386 C 1.02486 0.29691 0.82102 0.0
C387 C 0.99771 0.32454 0.78582 0.0
C388 C 0.96058 0.34343 0.81055 0.0
C389 C 0.9494 0.33505 0.87037 0.0
C390 C 0.97549 0.30803 0.90605 0.0
H391 H 0.0401 0.21614 0.70662 0.0
C392 C 0.0565 0.24816 0.68995 0.0
H393 H 0.08376 0.31598 0.71551 0.0
H394 H 0.099 0.2074 0.97572 0.0
H395 H 0.16279 0.17408 0.93102 0.0
H396 H 0.18137 0.18745 0.82394 0.0
H397 H 0.13628 0.23442 0.761 0.0
C398 C 0.07076 0.28223 0.73028 0.0
C399 C 0.06187 0.27655 0.79563 0.0
C400 C 0.08852 0.24896 0.83153 0.0
C401 C 0.07787 0.24137 0.89317 0.0
C402 C 0.10536 0.2141 0.92844 0.0
C403 C 0.14215 0.19481 0.90339 0.0
C404 C 0.15259 0.20232 0.8431 0.0
C405 C 0.1263 0.22916 0.80741 0.0
H406 H 0.98205 0.76876 0.95365 0.0
C407 C 1.01328 0.78742 0.93802 0.0
H408 H 0.07795 0.82215 0.96693 0.0
H409 H 1.0014 0.86014 0.22992 0.0
H410 H 1.00353 0.93651 0.18918 0.0
H411 H 1.02132 0.94975 0.08179 0.0
H412 H 0.03739 0.88673 0.0146 0.0
C413 C 0.04568 0.80416 0.97966 0.0
C414 C 0.03837 0.79685 0.04504 0.0
C415 C 0.02929 0.83411 0.08338 0.0
C416 C 1.01904 0.82649 0.14509 0.0
C417 C 1.00971 0.86414 0.18266 0.0
C418 C 1.01068 0.9081 0.15982 0.0
C419 C 1.02068 0.91555 0.09935 0.0
C420 C 0.02982 0.8791 0.06129 0.0
H421 H 0.08048 0.79381 0.25635 0.0
C422 C 0.04702 0.78179 0.27311 0.0
H423 H 0.97665 0.76448 0.24767 0.0
H424 H 0.05938 0.71886 -0.01501 0.0
H425 H 0.05745 0.64272 0.026 0.0
H426 H 0.03694 0.62914 0.13237 0.0
H427 H 1.01852 0.69183 0.19843 0.0
C428 C 1.01117 0.77441 0.23328 0.0
C429 C 1.01824 0.78172 0.16799 0.0
C430 C 0.0276 0.74452 0.12983 0.0
C431 C 0.03837 0.75218 0.06834 0.0
C432 C 0.04956 0.71477 0.03165 0.0
C433 C 0.04892 0.67091 0.05474 0.0
C434 C 0.03746 0.66329 0.11465 0.0
C435 C 0.02701 0.69955 0.15205 0.0
H436 H 0.50221 0.75689 0.20646 0.0
C437 C 0.53627 0.76576 0.18937 0.0
H438 H 0.60724 0.77743 0.21406 0.0
H439 H 0.50211 0.82671 0.4662 0.0
H440 H 0.49148 0.89832 0.41728 0.0
H441 H 0.51507 0.91109 0.31193 0.0
H442 H 0.54916 0.85213 0.25483 0.0
C443 C 0.57229 0.77197 0.22905 0.0
C444 C 0.56465 0.76709 0.29464 0.0
C445 C 0.54594 0.80239 0.3276 0.0
C446 C 0.5335 0.79549 0.38861 0.0
C447 C 0.51333 0.83062 0.42012 0.0
C448 C 0.5068 0.8718 0.39247 0.0
C449 C 0.51998 0.87894 0.33312 0.0
C450 C 0.53931 0.84476 0.3008 0.0
H451 H 0.5892 0.79295 0.50897 0.0
C452 C 0.56017 0.77049 0.52412 0.0
H453 H 0.50187 0.72543 0.49321 0.0
H454 H 0.60093 0.69332 0.24369 0.0
H455 H 0.61277 0.62208 0.2931 0.0
H456 H 0.59208 0.61044 0.39983 0.0
H457 H 0.5592 0.66987 0.45766 0.0
C458 C 0.53169 0.74804 0.48172 0.0
C459 C 0.54105 0.7538 0.41668 0.0
C460 C 0.56014 0.71869 0.38388 0.0
C461 C 0.57219 0.72545 0.32264 0.0
C462 C 0.59116 0.6899 0.29048 0.0
C463 C 0.59819 0.6489 0.31831 0.0
C464 C 0.58655 0.64235 0.3784 0.0
C465 C 0.56775 0.67673 0.41108 0.0
H466 H 0.48592 0.2528 0.45614 0.0
C467 C 0.51512 0.27429 0.43963 0.0
H468 H 0.57641 0.31608 0.46733 0.0
H469 H 0.48657 0.34603 0.72584 0.0
H470 H 0.47056 0.41715 0.67917 0.0
H471 H 0.4858 0.43019 0.57098 0.0
H472 H 0.51736 0.37221 0.50887 0.0
C473 C 0.54589 0.29525 0.48057 0.0
C474 C 0.53946 0.28863 0.54618 0.0
C475 C 0.52108 0.32285 0.5815 0.0
C476 C 0.51215 0.31525 0.6436 0.0
C477 C 0.49388 0.35 0.67825 0.0
C478 C 0.48453 0.39096 0.65204 0.0
C479 C 0.49312 0.3983 0.59113 0.0
C480 C 0.51117 0.36476 0.55601 0.0
H481 H 0.58591 0.28064 0.75733 0.0
C482 C 0.55193 0.27194 0.77469 0.0
H483 H 0.48074 0.26222 0.75135 0.0
H484 H 0.57763 0.21739 0.49132 0.0
H485 H 0.59273 0.14588 0.5375 0.0
H486 H 0.57476 0.13158 0.64458 0.0
H487 H 0.54189 0.18887 0.70616 0.0
C488 C 0.5155 0.26713 0.73555 0.0
C489 C 0.522 0.27362 0.66992 0.0
C490 C 0.54028 0.23931 0.63452 0.0
C491 C 0.54957 0.24708 0.57259 0.0
C492 C 0.56899 0.21284 0.53836 0.0
C493 C 0.57799 0.17171 0.56436 0.0
C494 C 0.56797 0.16371 0.62467 0.0
C495 C 0.54931 0.19697 0.65958 0.0
loop_
_geom_bond_atom_site_label_1
_geom_bond_atom_site_label_2
_geom_bond_distance
_geom_bond_site_symmetry_2
_ccdc_geom_bond_type
C0 O16 1.251 . S
C0 O18 1.254 . S
N1 C2 1.333 . S
N1 C6 1.307 1_455 S
N1 Zn7 2.020 . S
C2 N1 1.333 . S
C2 C3 1.379 . S
C2 H20 0.952 . S
C3 C2 1.379 . S
C3 C4 1.390 . S
C3 H30 0.949 . S
C4 C3 1.390 . S
C4 C5 1.357 1_455 S
C5 C4 1.357 1_655 S
C5 C6 1.370 . S
C5 H31 0.950 . S
C6 N1 1.307 1_655 S
C6 C5 1.370 . S
C6 H24 0.948 . S
Zn7 N1 2.020 . S
Zn7 O16 2.039 . S
Zn7 O22 2.034 . S
Zn7 O26 2.025 1_455 S
Zn7 O28 2.024 . S
C8 O27 1.246 . S
C8 O28 1.249 . S
N9 C10 1.307 . S
N9 C11 1.333 1_455 S
N9 Zn15 2.020 . S
C10 N9 1.307 . S
C10 C14 1.370 . S
C10 H21 0.948 . S
C11 N9 1.333 1_655 S
C11 C12 1.379 . S
C11 H19 0.952 . S
C12 C11 1.379 . S
C12 C13 1.390 1_655 S
C12 H32 0.949 . S
C13 C12 1.390 1_455 S
C13 C14 1.357 . S
C14 C10 1.370 . S
C14 C13 1.357 . S
C14 H33 0.950 . S
Zn15 N9 2.020 . S
Zn15 O18 2.025 . S
Zn15 O23 2.024 . S
Zn15 O25 2.039 1_455 S
Zn15 O27 2.034 . S
O16 C0 1.251 . S
O16 Zn7 2.039 . S
C17 O22 1.246 . S
C17 O23 1.249 . S
O18 C0 1.254 . S
O18 Zn15 2.025 . S
H19 C11 0.952 . S
H20 C2 0.952 . S
H21 C10 0.948 . S
O22 Zn7 2.034 . S
O22 C17 1.246 . S
O23 Zn15 2.024 . S
O23 C17 1.249 . S
H24 C6 0.948 . S
O25 Zn15 2.039 1_655 S
O25 C29 1.251 . S
O26 Zn7 2.025 1_655 S
O26 C29 1.254 . S
O27 C8 1.246 . S
O27 Zn15 2.034 . S
O28 Zn7 2.024 . S
O28 C8 1.249 . S
C29 O25 1.251 . S
C29 O26 1.254 . S
H30 C3 0.949 . S
H31 C5 0.950 . S
H32 C12 0.949 . S
H33 C14 0.950 . S
C34 O50 1.251 . S
C34 O52 1.254 . S
N35 C36 1.333 . S
N35 C40 1.307 1_455 S
N35 Zn41 2.020 . S
C36 N35 1.333 . S
C36 C37 1.379 . S
C36 H54 0.952 . S
C37 C36 1.379 . S
C37 C38 1.390 . S
C37 H64 0.949 . S
C38 C37 1.390 . S
C38 C39 1.357 1_455 S
C39 C38 1.357 1_655 S
C39 C40 1.370 . S
C39 H65 0.950 . S
C40 N35 1.307 1_655 S
C40 C39 1.370 . S
C40 H58 0.948 . S
Zn41 N35 2.020 . S
Zn41 O50 2.039 . S
Zn41 O56 2.034 . S
Zn41 O60 2.025 1_455 S
Zn41 O62 2.024 . S
C42 O61 1.246 . S
C42 O62 1.249 . S
N43 C44 1.307 . S
N43 C45 1.333 1_455 S
N43 Zn49 2.020 . S
C44 N43 1.307 . S
C44 C48 1.370 . S
C44 H55 0.948 . S
C45 N43 1.333 1_655 S
C45 C46 1.379 . S
C45 H53 0.952 . S
C46 C45 1.379 . S
C46 C47 1.390 1_655 S
C46 H66 0.949 . S
C47 C46 1.390 1_455 S
C47 C48 1.357 . S
C48 C44 1.370 . S
C48 C47 1.357 . S
C48 H67 0.950 . S
Zn49 N43 2.020 . S
Zn49 O52 2.025 . S
Zn49 O57 2.024 . S
Zn49 O59 2.039 1_455 S
Zn49 O61 2.034 . S
O50 C34 1.251 . S
O50 Zn41 2.039 . S
C51 O56 1.246 . S
C51 O57 1.249 . S
O52 C34 1.254 . S
O52 Zn49 2.025 . S
H53 C45 0.952 . S
H54 C36 0.952 . S
H55 C44 0.948 . S
O56 Zn41 2.034 . S
O56 C51 1.246 . S
O57 Zn49 2.024 . S
O57 C51 1.249 . S
H58 C40 0.948 . S
O59 Zn49 2.039 1_655 S
O59 C63 1.251 . S
O60 Zn41 2.025 1_655 S
O60 C63 1.254 . S
O61 C42 1.246 . S
O61 Zn49 2.034 . S
O62 Zn41 2.024 . S
O62 C42 1.249 . S
C63 O59 1.251 . S
C63 O60 1.254 . S
H64 C37 0.949 . S
H65 C39 0.950 . S
H66 C46 0.949 . S
H67 C48 0.950 . S
C68 O84 1.251 . S
C68 O86 1.254 . S
N69 C70 1.333 . S
N69 C74 1.307 . S
N69 Zn75 2.020 . S
C70 N69 1.333 . S
C70 C71 1.379 . S
C70 H88 0.952 . S
C71 C70 1.379 . S
C71 C72 1.390 . S
C71 H98 0.949 . S
C72 C71 1.390 . S
C72 C73 1.357 . S
C73 C72 1.357 . S
C73 C74 1.370 . S
C73 H99 0.950 . S
C74 N69 1.307 . S
C74 C73 1.370 . S
C74 H92 0.948 . S
Zn75 N69 2.020 . S
Zn75 O84 2.039 . S
Zn75 O90 2.034 . S
Zn75 O94 2.025 . S
Zn75 O96 2.024 . S
C76 O95 1.246 . S
C76 O96 1.249 . S
N77 C78 1.307 . S
N77 C79 1.333 . S
N77 Zn83 2.020 1_554 S
C78 N77 1.307 . S
C78 C82 1.370 . S
C78 H89 0.948 . S
C79 N77 1.333 . S
C79 C80 1.379 . S
C79 H87 0.952 . S
C80 C79 1.379 . S
C80 C81 1.390 . S
C80 H100 0.949 . S
C81 C80 1.390 . S
C81 C82 1.357 . S
C82 C78 1.370 . S
C82 C81 1.357 . S
C82 H101 0.950 . S
Zn83 N77 2.020 1_556 S
Zn83 O86 2.025 . S
Zn83 O91 2.024 . S
Zn83 O93 2.039 . S
Zn83 O95 2.034 . S
O84 C68 1.251 . S
O84 Zn75 2.039 . S
C85 O90 1.246 . S
C85 O91 1.249 . S
O86 C68 1.254 . S
O86 Zn83 2.025 . S
H87 C79 0.952 . S
H88 C70 0.952 . S
H89 C78 0.948 . S
O90 Zn75 2.034 . S
O90 C85 1.246 . S
O91 Zn83 2.024 . S
O91 C85 1.249 . S
H92 C74 0.948 . S
O93 Zn83 2.039 . S
O93 C97 1.251 . S
O94 Zn75 2.025 . S
O94 C97 1.254 . S
O95 C76 1.246 . S
O95 Zn83 2.034 . S
O96 Zn75 2.024 . S
O96 C76 1.249 . S
C97 O93 1.251 . S
C97 O94 1.254 . S
H98 C71 0.949 . S
H99 C73 0.950 . S
H100 C80 0.949 . S
H101 C82 0.950 . S
C102 O118 1.251 . S
C102 O120 1.254 . S
N103 C104 1.333 . S
N103 C108 1.307 . S
N103 Zn109 2.020 1_556 S
C104 N103 1.333 . S
C104 C105 1.379 . S
C104 H122 0.952 . S
C105 C104 1.379 . S
C105 C106 1.390 . S
C105 H132 0.949 . S
C106 C105 1.390 . S
C106 C107 1.357 . S
C107 C106 1.357 . S
C107 C108 1.370 . S
C107 H133 0.950 . S
C108 N103 1.307 . S
C108 C107 1.370 . S
C108 H126 0.948 . S
Zn109 N103 2.020 1_554 S
Zn109 O118 2.039 . S
Zn109 O124 2.034 . S
Zn109 O128 2.025 . S
Zn109 O130 2.024 . S
C110 O129 1.246 . S
C110 O130 1.249 . S
N111 C112 1.307 . S
N111 C113 1.333 . S
N111 Zn117 2.020 . S
C112 N111 1.307 . S
C112 C116 1.370 . S
C112 H123 0.948 . S
C113 N111 1.333 . S
C113 C114 1.379 . S
C113 H121 0.952 . S
C114 C113 1.379 . S
C114 C115 1.390 . S
C114 H134 0.949 . S
C115 C114 1.390 . S
C115 C116 1.357 . S
C116 C112 1.370 . S
C116 C115 1.357 . S
C116 H135 0.950 . S
Zn117 N111 2.020 . S
Zn117 O120 2.025 . S
Zn117 O125 2.024 . S
Zn117 O127 2.039 . S
Zn117 O129 2.034 . S
O118 C102 1.251 . S
O118 Zn109 2.039 . S
C119 O124 1.246 . S
C119 O125 1.249 . S
O120 C102 1.254 . S
O120 Zn117 2.025 . S
H121 C113 0.952 . S
H122 C104 0.952 . S
H123 C112 0.948 . S
O124 Zn109 2.034 . S
O124 C119 1.246 . S
O125 Zn117 2.024 . S
O125 C119 1.249 . S
H126 C108 0.948 . S
O127 Zn117 2.039 . S
O127 C131 1.251 . S
O128 Zn109 2.025 . S
O128 C131 1.254 . S
O129 C110 1.246 . S
O129 Zn117 2.034 . S
O130 Zn109 2.024 . S
O130 C110 1.249 . S
C131 O127 1.251 . S
C131 O128 1.254 . S
H132 C105 0.949 . S
H133 C107 0.950 . S
H134 C114 0.949 . S
H135 C116 0.950 . S
H136 C137 0.951 . S
C137 H136 0.951 . S
C137 C143 1.275 . S
H138 C143 0.938 1_655 S
H139 C147 0.949 . S
H140 C148 0.950 . S
H141 C149 0.951 . S
H142 C150 0.951 . S
C143 C137 1.275 . S
C143 H138 0.938 1_455 S
C143 C144 1.479 . S
C144 C143 1.479 . S
C144 C145 1.397 . S
C144 C161 1.394 1_455 S
C145 C144 1.397 . S
C145 C146 1.438 . S
C145 C150 1.429 . S
C146 C145 1.438 . S
C146 C147 1.428 . S
C146 C159 1.394 . S
C147 H139 0.949 . S
C147 C146 1.428 . S
C147 C148 1.345 . S
C148 H140 0.950 . S
C148 C147 1.345 . S
C148 C149 1.424 . S
C149 H141 0.951 . S
C149 C148 1.424 . S
C149 C150 1.347 . S
C150 H142 0.951 . S
C150 C145 1.429 . S
C150 C149 1.347 . S
H151 C152 0.951 1_655 S
C152 H151 0.951 1_455 S
C152 C158 1.265 . S
H153 C158 0.950 . S
H154 C162 0.949 . S
H155 C163 0.950 . S
H156 C164 0.951 . S
H157 C165 0.951 . S
C158 C152 1.265 . S
C158 H153 0.950 . S
C158 C159 1.478 . S
C159 C146 1.394 . S
C159 C158 1.478 . S
C159 C160 1.397 . S
C160 C159 1.397 . S
C160 C161 1.438 1_455 S
C160 C165 1.429 1_455 S
C161 C144 1.394 1_655 S
C161 C160 1.438 1_655 S
C161 C162 1.428 . S
C162 H154 0.949 . S
C162 C161 1.428 . S
C162 C163 1.345 . S
C163 H155 0.950 . S
C163 C162 1.345 . S
C163 C164 1.424 . S
C164 H156 0.951 . S
C164 C163 1.424 . S
C164 C165 1.347 . S
C165 H157 0.951 . S
C165 C160 1.429 1_655 S
C165 C164 1.347 . S
H166 C167 0.951 . S
C167 H166 0.951 . S
C167 C173 1.265 . S
H168 C173 0.950 . S
H169 C177 0.949 . S
H170 C178 0.950 . S
H171 C179 0.951 . S
H172 C180 0.951 . S
C173 C167 1.265 . S
C173 H168 0.950 . S
C173 C174 1.478 . S
C174 C173 1.478 . S
C174 C175 1.397 . S
C174 C191 1.394 . S
C175 C174 1.397 . S
C175 C176 1.438 . S
C175 C180 1.429 . S
C176 C175 1.438 . S
C176 C177 1.428 . S
C176 C189 1.394 . S
C177 H169 0.949 . S
C177 C176 1.428 . S
C177 C178 1.345 . S
C178 H170 0.950 . S
C178 C177 1.345 . S
C178 C179 1.424 . S
C179 H171 0.951 . S
C179 C178 1.424 . S
C179 C180 1.347 . S
C180 H172 0.951 . S
C180 C175 1.429 . S
C180 C179 1.347 . S
H181 C182 0.951 . S
C182 H181 0.951 . S
C182 C188 1.265 . S
H183 C188 0.950 . S
H184 C192 0.949 . S
H185 C193 0.950 . S
H186 C194 0.951 . S
H187 C195 0.951 . S
C188 C182 1.265 . S
C188 H183 0.950 . S
C188 C189 1.478 . S
C189 C176 1.394 . S
C189 C188 1.478 . S
C189 C190 1.397 . S
C190 C189 1.397 . S
C190 C191 1.438 . S
C190 C195 1.429 . S
C191 C174 1.394 . S
C191 C190 1.438 . S
C191 C192 1.428 . S
C192 H184 0.949 . S
C192 C191 1.428 . S
C192 C193 1.345 . S
C193 H185 0.950 . S
C193 C192 1.345 . S
C193 C194 1.424 . S
C194 H186 0.951 . S
C194 C193 1.424 . S
C194 C195 1.347 . S
C195 H187 0.951 . S
C195 C190 1.429 . S
C195 C194 1.347 . S
H196 C197 0.951 . S
C197 H196 0.951 . S
C197 C203 1.265 . S
H198 C203 0.950 . S
H199 C207 0.949 . S
H200 C208 0.950 . S
H201 C209 0.951 . S
H202 C210 0.951 . S
C203 C197 1.265 . S
C203 H198 0.950 . S
C203 C204 1.478 . S
C204 C203 1.478 . S
C204 C205 1.397 . S
C204 C221 1.394 1_554 S
C205 C204 1.397 . S
C205 C206 1.438 . S
C205 C210 1.429 . S
C206 C205 1.438 . S
C206 C207 1.428 . S
C206 C219 1.394 1_554 S
C207 H199 0.949 . S
C207 C206 1.428 . S
C207 C208 1.345 . S
C208 H200 0.950 . S
C208 C207 1.345 . S
C208 C209 1.424 . S
C209 H201 0.951 . S
C209 C208 1.424 . S
C209 C210 1.347 . S
C210 H202 0.951 . S
C210 C205 1.429 . S
C210 C209 1.347 . S
H211 C212 0.951 . S
C212 H211 0.951 . S
C212 C218 1.265 . S
H213 C218 0.950 . S
H214 C222 0.949 . S
H215 C223 0.950 . S
H216 C224 0.951 . S
H217 C225 0.951 . S
C218 C212 1.265 . S
C218 H213 0.950 . S
C218 C219 1.478 . S
C219 C206 1.394 1_556 S
C219 C218 1.478 . S
C219 C220 1.397 . S
C220 C219 1.397 . S
C220 C221 1.438 . S
C220 C225 1.429 . S
C221 C204 1.394 1_556 S
C221 C220 1.438 . S
C221 C222 1.428 . S
C222 H214 0.949 . S
C222 C221 1.428 . S
C222 C223 1.345 . S
C223 H215 0.950 . S
C223 C222 1.345 . S
C223 C224 1.424 . S
C224 H216 0.951 . S
C224 C223 1.424 . S
C224 C225 1.347 . S
C225 H217 0.951 . S
C225 C220 1.429 . S
C225 C224 1.347 . S
H226 C227 0.951 . S
C227 H226 0.951 . S
C227 C233 1.265 . S
H228 C233 0.950 . S
H229 C237 0.949 . S
H230 C238 0.950 . S
H231 C239 0.951 . S
H232 C240 0.951 . S
C233 C227 1.265 . S
C233 H228 0.950 . S
C233 C234 1.478 . S
C234 C233 1.478 . S
C234 C235 1.397 . S
C234 C251 1.394 . S
C235 C234 1.397 . S
C235 C236 1.438 . S
C235 C240 1.429 . S
C236 C235 1.438 . S
C236 C237 1.428 . S
C236 C249 1.394 . S
C237 H229 0.949 . S
C237 C236 1.428 . S
C237 C238 1.345 . S
C238 H230 0.950 . S
C238 C237 1.345 . S
C238 C239 1.424 . S
C239 H231 0.951 . S
C239 C238 1.424 . S
C239 C240 1.347 . S
C240 H232 0.951 . S
C240 C235 1.429 . S
C240 C239 1.347 . S
H241 C242 0.951 . S
C242 H241 0.951 . S
C242 C248 1.265 . S
H243 C248 0.950 . S
H244 C252 0.949 . S
H245 C253 0.950 . S
H246 C254 0.951 . S
H247 C255 0.951 . S
C248 C242 1.265 . S
C248 H243 0.950 . S
C248 C249 1.478 . S
C249 C236 1.394 . S
C249 C248 1.478 . S
C249 C250 1.397 . S
C250 C249 1.397 . S
C250 C251 1.438 . S
C250 C255 1.429 . S
C251 C234 1.394 . S
C251 C250 1.438 . S
C251 C252 1.428 . S
C252 H244 0.949 . S
C252 C251 1.428 . S
C252 C253 1.345 . S
C253 H245 0.950 . S
C253 C252 1.345 . S
C253 C254 1.424 . S
C254 H246 0.951 . S
C254 C253 1.424 . S
C254 C255 1.347 . S
C255 H247 0.951 . S
C255 C250 1.429 . S
C255 C254 1.347 . S
H256 C257 0.951 . S
C257 H256 0.951 . S
C257 C263 1.265 . S
H258 C263 0.950 . S
H259 C267 0.949 . S
H260 C268 0.950 . S
H261 C269 0.951 . S
H262 C270 0.951 . S
C263 C257 1.265 . S
C263 H258 0.950 . S
C263 C264 1.478 . S
C264 C263 1.478 . S
C264 C265 1.397 . S
C264 C281 1.394 . S
C265 C264 1.397 . S
C265 C266 1.438 . S
C265 C270 1.429 . S
C266 C265 1.438 . S
C266 C267 1.428 . S
C266 C279 1.394 . S
C267 H259 0.949 . S
C267 C266 1.428 . S
C267 C268 1.345 . S
C268 H260 0.950 . S
C268 C267 1.345 . S
C268 C269 1.424 . S
C269 H261 0.951 . S
C269 C268 1.424 . S
C269 C270 1.347 . S
C270 H262 0.951 . S
C270 C265 1.429 . S
C270 C269 1.347 . S
H271 C272 0.951 . S
C272 H271 0.951 . S
C272 C278 1.265 . S
H273 C278 0.950 . S
H274 C282 0.949 . S
H275 C283 0.950 . S
H276 C284 0.951 . S
H277 C285 0.951 . S
C278 C272 1.265 . S
C278 H273 0.950 . S
C278 C279 1.478 . S
C279 C266 1.394 . S
C279 C278 1.478 . S
C279 C280 1.397 . S
C280 C279 1.397 . S
C280 C281 1.438 . S
C280 C285 1.429 . S
C281 C264 1.394 . S
C281 C280 1.438 . S
C281 C282 1.428 . S
C282 H274 0.949 . S
C282 C281 1.428 . S
C282 C283 1.345 . S
C283 H275 0.950 . S
C283 C282 1.345 . S
C283 C284 1.424 . S
C284 H276 0.951 . S
C284 C283 1.424 . S
C284 C285 1.347 . S
C285 H277 0.951 . S
C285 C280 1.429 . S
C285 C284 1.347 . S
H286 C287 0.951 . S
C287 H286 0.951 . S
C287 C293 1.265 . S
H288 C293 0.950 . S
H289 C297 0.949 . S
H290 C298 0.950 . S
H291 C299 0.951 . S
H292 C300 0.951 . S
C293 C287 1.265 . S
C293 H288 0.950 . S
C293 C294 1.478 . S
C294 C293 1.478 . S
C294 C295 1.397 . S
C294 C311 1.394 . S
C295 C294 1.397 . S
C295 C296 1.438 . S
C295 C300 1.429 . S
C296 C295 1.438 . S
C296 C297 1.428 . S
C296 C309 1.394 . S
C297 H289 0.949 . S
C297 C296 1.428 . S
C297 C298 1.345 . S
C298 H290 0.950 . S
C298 C297 1.345 . S
C298 C299 1.424 . S
C299 H291 0.951 . S
C299 C298 1.424 . S
C299 C300 1.347 . S
C300 H292 0.951 . S
C300 C295 1.429 . S
C300 C299 1.347 . S
H301 C302 0.951 . S
C302 H301 0.951 . S
C302 C308 1.265 . S
H303 C308 0.950 . S
H304 C312 0.949 . S
H305 C313 0.950 . S
H306 C314 0.951 . S
H307 C315 0.951 . S
C308 C302 1.265 . S
C308 H303 0.950 . S
C308 C309 1.478 . S
C309 C296 1.394 . S
C309 C308 1.478 . S
C309 C310 1.397 . S
C310 C309 1.397 . S
C310 C311 1.438 . S
C310 C315 1.429 . S
C311 C294 1.394 . S
C311 C310 1.438 . S
C311 C312 1.428 . S
C312 H304 0.949 . S
C312 C311 1.428 . S
C312 C313 1.345 . S
C313 H305 0.950 . S
C313 C312 1.345 . S
C313 C314 1.424 . S
C314 H306 0.951 . S
C314 C313 1.424 . S
C314 C315 1.347 . S
C315 H307 0.951 . S
C315 C310 1.429 . S
C315 C314 1.347 . S
H316 C317 0.951 . S
C317 H316 0.951 . S
C317 C323 1.265 . S
H318 C323 0.950 . S
H319 C327 0.949 . S
H320 C328 0.950 . S
H321 C329 0.951 . S
H322 C330 0.951 1_565 S
C323 C317 1.265 . S
C323 H318 0.950 . S
C323 C324 1.478 . S
C324 C323 1.478 . S
C324 C325 1.397 1_565 S
C324 C341 1.394 1_556 S
C325 C324 1.397 1_545 S
C325 C326 1.438 . S
C325 C330 1.429 . S
C326 C325 1.438 . S
C326 C327 1.428 . S
C326 C339 1.394 1_556 S
C327 H319 0.949 . S
C327 C326 1.428 . S
C327 C328 1.345 . S
C328 H320 0.950 . S
C328 C327 1.345 . S
C328 C329 1.424 . S
C329 H321 0.951 . S
C329 C328 1.424 . S
C329 C330 1.347 . S
C330 H322 0.951 1_545 S
C330 C325 1.429 . S
C330 C329 1.347 . S
H331 C332 0.951 . S
C332 H331 0.951 . S
C332 C338 1.265 . S
H333 C338 0.950 . S
H334 C342 0.949 . S
H335 C343 0.950 . S
H336 C344 0.951 . S
H337 C345 0.951 1_545 S
C338 C332 1.265 . S
C338 H333 0.950 . S
C338 C339 1.478 . S
C339 C326 1.394 1_554 S
C339 C338 1.478 . S
C339 C340 1.397 1_545 S
C340 C339 1.397 1_565 S
C340 C341 1.438 . S
C340 C345 1.429 . S
C341 C324 1.394 1_554 S
C341 C340 1.438 . S
C341 C342 1.428 . S
C342 H334 0.949 . S
C342 C341 1.428 . S
C342 C343 1.345 . S
C343 H335 0.950 . S
C343 C342 1.345 . S
C343 C344 1.424 . S
C344 H336 0.951 . S
C344 C343 1.424 . S
C344 C345 1.347 . S
C345 H337 0.951 1_565 S
C345 C340 1.429 . S
C345 C344 1.347 . S
H346 C347 0.951 . S
C347 H346 0.951 . S
C347 C353 1.265 1_455 S
H348 C353 0.950 . S
H349 C357 0.949 . S
H350 C358 0.950 . S
H351 C359 0.951 . S
H352 C360 0.951 1_565 S
C353 C347 1.265 1_655 S
C353 H348 0.950 . S
C353 C354 1.478 1_655 S
C354 C353 1.478 1_455 S
C354 C355 1.397 1_465 S
C354 C371 1.394 . S
C355 C354 1.397 1_645 S
C355 C356 1.438 1_655 S
C355 C360 1.429 . S
C356 C355 1.438 1_455 S
C356 C357 1.428 1_455 S
C356 C369 1.394 . S
C357 H349 0.949 . S
C357 C356 1.428 1_655 S
C357 C358 1.345 . S
C358 H350 0.950 . S
C358 C357 1.345 . S
C358 C359 1.424 . S
C359 H351 0.951 . S
C359 C358 1.424 . S
C359 C360 1.347 . S
C360 H352 0.951 1_545 S
C360 C355 1.429 . S
C360 C359 1.347 . S
H361 C362 0.951 1_655 S
C362 H361 0.951 1_455 S
C362 C368 1.265 . S
H363 C368 0.950 . S
H364 C372 0.949 . S
H365 C373 0.950 . S
H366 C374 0.951 . S
H367 C375 0.951 1_545 S
C368 C362 1.265 . S
C368 H363 0.950 . S
C368 C369 1.478 . S
C369 C356 1.394 . S
C369 C368 1.478 . S
C369 C370 1.397 1_545 S
C370 C369 1.397 1_565 S
C370 C371 1.438 . S
C370 C375 1.429 . S
C371 C354 1.394 . S
C371 C370 1.438 . S
C371 C372 1.428 . S
C372 H364 0.949 . S
C372 C371 1.428 . S
C372 C373 1.345 . S
C373 H365 0.950 . S
C373 C372 1.345 . S
C373 C374 1.424 . S
C374 H366 0.951 . S
C374 C373 1.424 . S
C374 C375 1.347 . S
C375 H367 0.951 1_565 S
C375 C370 1.429 . S
C375 C374 1.347 . S
H376 C377 0.951 . S
C377 H376 0.951 . S
C377 C383 1.265 1_455 S
H378 C383 0.950 . S
H379 C387 0.949 . S
H380 C388 0.950 . S
H381 C389 0.951 . S
H382 C390 0.951 . S
C383 C377 1.265 1_655 S
C383 H378 0.950 . S
C383 C384 1.478 1_654 S
C384 C383 1.478 1_456 S
C384 C385 1.394 1_455 S
C384 C401 1.394 . S
C385 C384 1.394 1_655 S
C385 C386 1.434 1_655 S
C385 C390 1.435 . S
C386 C385 1.434 1_455 S
C386 C387 1.428 . S
C386 C399 1.394 . S
C387 H379 0.949 . S
C387 C386 1.428 . S
C387 C388 1.345 1_455 S
C388 H380 0.950 . S
C388 C387 1.345 1_655 S
C388 C389 1.424 . S
C389 H381 0.951 . S
C389 C388 1.424 . S
C389 C390 1.347 . S
C390 H382 0.951 . S
C390 C385 1.435 . S
C390 C389 1.347 . S
H391 C392 0.951 1_655 S
C392 H391 0.951 1_455 S
C392 C398 1.265 . S
H393 C398 0.950 . S
H394 C402 0.949 . S
H395 C403 0.950 . S
H396 C404 0.951 . S
H397 C405 0.951 . S
C398 C392 1.265 . S
C398 H393 0.950 . S
C398 C399 1.478 . S
C399 C386 1.394 . S
C399 C398 1.478 . S
C399 C400 1.397 . S
C400 C399 1.397 . S
C400 C401 1.438 . S
C400 C405 1.429 . S
C401 C384 1.394 . S
C401 C400 1.438 . S
C401 C402 1.428 . S
C402 H394 0.949 . S
C402 C401 1.428 . S
C402 C403 1.345 . S
C403 H395 0.950 . S
C403 C402 1.345 . S
C403 C404 1.424 . S
C404 H396 0.951 . S
C404 C403 1.424 . S
C404 C405 1.347 . S
C405 H397 0.951 . S
C405 C400 1.429 . S
C405 C404 1.347 . S
H406 C407 0.951 1_655 S
C407 H406 0.951 1_455 S
C407 C413 1.265 . S
H408 C413 0.950 . S
H409 C417 0.949 . S
H410 C418 0.950 . S
H411 C419 0.951 . S
H412 C420 0.951 . S
C413 C407 1.265 . S
C413 H408 0.950 . S
C413 C414 1.478 1_556 S
C414 C413 1.478 1_554 S
C414 C415 1.397 . S
C414 C431 1.388 1_455 S
C415 C414 1.397 . S
C415 C416 1.438 . S
C415 C420 1.429 . S
C416 C415 1.438 . S
C416 C417 1.428 . S
C416 C429 1.394 . S
C417 H409 0.949 . S
C417 C416 1.428 . S
C417 C418 1.345 . S
C418 H410 0.950 . S
C418 C417 1.345 . S
C418 C419 1.424 . S
C419 H411 0.951 . S
C419 C418 1.424 . S
C419 C420 1.347 . S
C420 H412 0.951 . S
C420 C415 1.429 . S
C420 C419 1.347 . S
H421 C422 0.951 . S
C422 H421 0.951 . S
C422 C428 1.265 1_455 S
H423 C428 0.950 . S
H424 C432 0.949 . S
H425 C433 0.950 . S
H426 C434 0.951 . S
H427 C435 0.951 . S
C428 C422 1.265 1_655 S
C428 H423 0.950 . S
C428 C429 1.478 1_655 S
C429 C416 1.394 . S
C429 C428 1.478 1_455 S
C429 C430 1.397 1_455 S
C430 C429 1.397 1_655 S
C430 C431 1.442 . S
C430 C435 1.429 . S
C431 C414 1.388 1_655 S
C431 C430 1.442 . S
C431 C432 1.430 . S
C432 H424 0.949 . S
C432 C431 1.430 . S
C432 C433 1.345 . S
C433 H425 0.950 . S
C433 C432 1.345 . S
C433 C434 1.424 . S
C434 H426 0.951 . S
C434 C433 1.424 . S
C434 C435 1.347 . S
C435 H427 0.951 . S
C435 C430 1.429 . S
C435 C434 1.347 . S
H436 C437 0.951 . S
C437 H436 0.951 . S
C437 C443 1.265 . S
H438 C443 0.950 . S
H439 C447 0.949 . S
H440 C448 0.950 . S
H441 C449 0.951 . S
H442 C450 0.951 . S
C443 C437 1.265 . S
C443 H438 0.950 . S
C443 C444 1.478 . S
C444 C443 1.478 . S
C444 C445 1.397 . S
C444 C461 1.394 . S
C445 C444 1.397 . S
C445 C446 1.438 . S
C445 C450 1.429 . S
C446 C445 1.438 . S
C446 C447 1.428 . S
C446 C459 1.394 . S
C447 H439 0.949 . S
C447 C446 1.428 . S
C447 C448 1.345 . S
C448 H440 0.950 . S
C448 C447 1.345 . S
C448 C449 1.424 . S
C449 H441 0.951 . S
C449 C448 1.424 . S
C449 C450 1.347 . S
C450 H442 0.951 . S
C450 C445 1.429 . S
C450 C449 1.347 . S
H451 C452 0.951 . S
C452 H451 0.951 . S
C452 C458 1.265 . S
H453 C458 0.950 . S
H454 C462 0.949 . S
H455 C463 0.950 . S
H456 C464 0.951 . S
H457 C465 0.951 . S
C458 C452 1.265 . S
C458 H453 0.950 . S
C458 C459 1.478 . S
C459 C446 1.394 . S
C459 C458 1.478 . S
C459 C460 1.397 . S
C460 C459 1.397 . S
C460 C461 1.438 . S
C460 C465 1.429 . S
C461 C444 1.394 . S
C461 C460 1.438 . S
C461 C462 1.428 . S
C462 H454 0.949 . S
C462 C461 1.428 . S
C462 C463 1.345 . S
C463 H455 0.950 . S
C463 C462 1.345 . S
C463 C464 1.424 . S
C464 H456 0.951 . S
C464 C463 1.424 . S
C464 C465 1.347 . S
C465 H457 0.951 . S
C465 C460 1.429 . S
C465 C464 1.347 . S
H466 C467 0.951 . S
C467 H466 0.951 . S
C467 C473 1.265 . S
H468 C473 0.950 . S
H469 C477 0.949 . S
H470 C478 0.950 . S
H471 C479 0.951 . S
H472 C480 0.951 . S
C473 C467 1.265 . S
C473 H468 0.950 . S
C473 C474 1.478 . S
C474 C473 1.478 . S
C474 C475 1.397 . S
C474 C491 1.394 . S
C475 C474 1.397 . S
C475 C476 1.438 . S
C475 C480 1.429 . S
C476 C475 1.438 . S
C476 C477 1.428 . S
C476 C489 1.394 . S
C477 H469 0.949 . S
C477 C476 1.428 . S
C477 C478 1.345 . S
C478 H470 0.950 . S
C478 C477 1.345 . S
C478 C479 1.424 . S
C479 H471 0.951 . S
C479 C478 1.424 . S
C479 C480 1.347 . S
C480 H472 0.951 . S
C480 C475 1.429 . S
C480 C479 1.347 . S
H481 C482 0.951 . S
C482 H481 0.951 . S
C482 C488 1.265 . S
H483 C488 0.950 . S
H484 C492 0.949 . S
H485 C493 0.950 . S
H486 C494 0.951 . S
H487 C495 0.951 . S
C488 C482 1.265 . S
C488 H483 0.950 . S
C488 C489 1.478 . S
C489 C476 1.394 . S
C489 C488 1.478 . S
C489 C490 1.397 . S
C490 C489 1.397 . S
C490 C491 1.438 . S
C490 C495 1.429 . S
C491 C474 1.394 . S
C491 C490 1.438 . S
C491 C492 1.428 . S
C492 H484 0.949 . S
C492 C491 1.428 . S
C492 C493 1.345 . S
C493 H485 0.950 . S
C493 C492 1.345 . S
C493 C494 1.424 . S
C494 H486 0.951 . S
C494 C493 1.424 . S
C494 C495 1.347 . S
C495 H487 0.951 . S
C495 C490 1.429 . S
C495 C494 1.347 . S
C137 C17 1.985 . S
C152 C42 1.985 . S
C167 C68 2.137 . S
C182 C63 2.137 . S
C197 C119 2.022 . S
C212 C76 2.022 . S
C227 C29 1.944 . S
C242 C102 1.944 . S
C257 C131 2.138 . S
C272 C0 2.138 . S
C287 C97 1.944 . S
C302 C34 1.944 . S
C317 C85 1.970 . S
C332 C110 1.970 . S
C347 C51 2.037 . S
C362 C8 2.037 . S
C377 C4 0.623 . S
C392 C13 0.623 . S
C407 C47 0.623 . S
C422 C38 0.623 . S
C437 C81 0.623 . S
C452 C72 0.623 . S
C467 C115 0.623 . S
C482 C106 0.623 . S
