# Generated by pormake.
# Topology crs, (6)-cn, num edge types: 1
# Building blocks:
#     Node 0, Type 0, BuildingBlock: PAMTUU_clean_sbu_0, # of connection points: 6
#     Node 1, Type 0, BuildingBlock: PAMTUU_clean_sbu_0, # of connection points: 6
#     Node 2, Type 0, BuildingBlock: PAMTUU_clean_sbu_0, # of connection points: 6
#     Node 3, Type 0, BuildingBlock: PAMTUU_clean_sbu_0, # of connection points: 6
#     Node 4, Type 0, BuildingBlock: PAMTUU_clean_sbu_0, # of connection points: 6
#     Node 5, Type 0, BuildingBlock: PAMTUU_clean_sbu_0, # of connection points: 6
#     Node 6, Type 0, BuildingBlock: PAMTUU_clean_sbu_0, # of connection points: 6
#     Node 7, Type 0, BuildingBlock: PAMTUU_clean_sbu_0, # of connection points: 6
#     Node 8, Type 0, BuildingBlock: PAMTUU_clean_sbu_0, # of connection points: 6
#     Node 9, Type 0, BuildingBlock: PAMTUU_clean_sbu_0, # of connection points: 6
#     Node 10, Type 0, BuildingBlock: PAMTUU_clean_sbu_0, # of connection points: 6
#     Node 11, Type 0, BuildingBlock: PAMTUU_clean_sbu_0, # of connection points: 6
#     Node 12, Type 0, BuildingBlock: PAMTUU_clean_sbu_0, # of connection points: 6
#     Node 13, Type 0, BuildingBlock: PAMTUU_clean_sbu_0, # of connection points: 6
#     Node 14, Type 0, BuildingBlock: PAMTUU_clean_sbu_0, # of connection points: 6
#     Node 15, Type 0, BuildingBlock: PAMTUU_clean_sbu_0, # of connection points: 6
#     Edge 16, Type (0, 0), BuildingBlock: AJUNOK_clean_linker_0, # of connection points: 2
#     Edge 17, Type (0, 0), BuildingBlock: AJUNOK_clean_linker_0, # of connection points: 2
#     Edge 18, Type (0, 0), BuildingBlock: AJUNOK_clean_linker_0, # of connection points: 2
#     Edge 19, Type (0, 0), BuildingBlock: AJUNOK_clean_linker_0, # of connection points: 2
#     Edge 20, Type (0, 0), BuildingBlock: AJUNOK_clean_linker_0, # of connection points: 2
#     Edge 21, Type (0, 0), BuildingBlock: AJUNOK_clean_linker_0, # of connection points: 2
#     Edge 22, Type (0, 0), BuildingBlock: AJUNOK_clean_linker_0, # of connection points: 2
#     Edge 23, Type (0, 0), BuildingBlock: AJUNOK_clean_linker_0, # of connection points: 2
#     Edge 24, Type (0, 0), BuildingBlock: AJUNOK_clean_linker_0, # of connection points: 2
#     Edge 25, Type (0, 0), BuildingBlock: AJUNOK_clean_linker_0, # of connection points: 2
#     Edge 26, Type (0, 0), BuildingBlock: AJUNOK_clean_linker_0, # of connection points: 2
#     Edge 27, Type (0, 0), BuildingBlock: AJUNOK_clean_linker_0, # of connection points: 2
#     Edge 28, Type (0, 0), BuildingBlock: AJUNOK_clean_linker_0, # of connection points: 2
#     Edge 29, Type (0, 0), BuildingBlock: AJUNOK_clean_linker_0, # of connection points: 2
#     Edge 30, Type (0, 0), BuildingBlock: AJUNOK_clean_linker_0, # of connection points: 2
#     Edge 31, Type (0, 0), BuildingBlock: AJUNOK_clean_linker_0, # of connection points: 2
#     Edge 32, Type (0, 0), BuildingBlock: AJUNOK_clean_linker_0, # of connection points: 2
#     Edge 33, Type (0, 0), BuildingBlock: AJUNOK_clean_linker_0, # of connection points: 2
#     Edge 34, Type (0, 0), BuildingBlock: AJUNOK_clean_linker_0, # of connection points: 2
#     Edge 35, Type (0, 0), BuildingBlock: AJUNOK_clean_linker_0, # of connection points: 2
#     Edge 36, Type (0, 0), BuildingBlock: AJUNOK_clean_linker_0, # of connection points: 2
#     Edge 37, Type (0, 0), BuildingBlock: AJUNOK_clean_linker_0, # of connection points: 2
#     Edge 38, Type (0, 0), BuildingBlock: AJUNOK_clean_linker_0, # of connection points: 2
#     Edge 39, Type (0, 0), BuildingBlock: AJUNOK_clean_linker_0, # of connection points: 2
#     Edge 40, Type (0, 0), BuildingBlock: AJUNOK_clean_linker_0, # of connection points: 2
#     Edge 41, Type (0, 0), BuildingBlock: AJUNOK_clean_linker_0, # of connection points: 2
#     Edge 42, Type (0, 0), BuildingBlock: AJUNOK_clean_linker_0, # of connection points: 2
#     Edge 43, Type (0, 0), BuildingBlock: AJUNOK_clean_linker_0, # of connection points: 2
#     Edge 44, Type (0, 0), BuildingBlock: AJUNOK_clean_linker_0, # of connection points: 2
#     Edge 45, Type (0, 0), BuildingBlock: AJUNOK_clean_linker_0, # of connection points: 2
#     Edge 46, Type (0, 0), BuildingBlock: AJUNOK_clean_linker_0, # of connection points: 2
#     Edge 47, Type (0, 0), BuildingBlock: AJUNOK_clean_linker_0, # of connection points: 2
#     Edge 48, Type (0, 0), BuildingBlock: AJUNOK_clean_linker_0, # of connection points: 2
#     Edge 49, Type (0, 0), BuildingBlock: AJUNOK_clean_linker_0, # of connection points: 2
#     Edge 50, Type (0, 0), BuildingBlock: AJUNOK_clean_linker_0, # of connection points: 2
#     Edge 51, Type (0, 0), BuildingBlock: AJUNOK_clean_linker_0, # of connection points: 2
#     Edge 52, Type (0, 0), BuildingBlock: AJUNOK_clean_linker_0, # of connection points: 2
#     Edge 53, Type (0, 0), BuildingBlock: AJUNOK_clean_linker_0, # of connection points: 2
#     Edge 54, Type (0, 0), BuildingBlock: AJUNOK_clean_linker_0, # of connection points: 2
#     Edge 55, Type (0, 0), BuildingBlock: AJUNOK_clean_linker_0, # of connection points: 2
#     Edge 56, Type (0, 0), BuildingBlock: AJUNOK_clean_linker_0, # of connection points: 2
#     Edge 57, Type (0, 0), BuildingBlock: AJUNOK_clean_linker_0, # of connection points: 2
#     Edge 58, Type (0, 0), BuildingBlock: AJUNOK_clean_linker_0, # of connection points: 2
#     Edge 59, Type (0, 0), BuildingBlock: AJUNOK_clean_linker_0, # of connection points: 2
#     Edge 60, Type (0, 0), BuildingBlock: AJUNOK_clean_linker_0, # of connection points: 2
#     Edge 61, Type (0, 0), BuildingBlock: AJUNOK_clean_linker_0, # of connection points: 2
#     Edge 62, Type (0, 0), BuildingBlock: AJUNOK_clean_linker_0, # of connection points: 2
#     Edge 63, Type (0, 0), BuildingBlock: AJUNOK_clean_linker_0, # of connection points: 2
# Relax obj value: 0.485
# Max RMSD: 0.379
# Mean RMSD: 0.290
data_MOF--net-crs--node1-PAMTUU_clean_sbu_0--edge1-AJUNOK_clean_linker_0
_symmetry_space_group_name_H-M    P1
_symmetry_Int_Tables_number       1
_symmetry_cell_setting            triclinic
loop_
_symmetry_equiv_pos_as_xyz
'x, y, z'
_cell_length_a     43.883789
_cell_length_b     44.889223
_cell_length_c     33.936062
_cell_angle_alpha  69.395748
_cell_angle_beta   69.670565
_cell_angle_gamma 60.461482
loop_
_atom_site_label
_atom_site_type_symbol
_atom_site_fract_x
_atom_site_fract_y
_atom_site_fract_z
_atom_type_partial_charge
Tb0 Tb 0.01425 0.02784 0.98154 0.0
Tb1 Tb 0.97826 0.99299 0.07862 0.0
C2 C 0.93925 0.02675 1.00118 0.0
C3 C 0.0682 0.07175 0.90529 0.0
C4 C 0.10556 0.10895 0.90146 0.0
C5 C 0.08796 0.11832 0.86843 0.0
C6 C 0.06927 0.09985 0.87042 0.0
C7 C 0.08686 0.06164 0.93743 0.0
C8 C 0.10551 0.07996 0.93542 0.0
C9 C 0.04405 0.05595 0.9116 0.0
O10 O 0.00316 0.06031 1.02353 0.0
O11 O 0.95845 0.04869 0.07629 0.0
O12 O 0.02338 0.99488 0.08758 0.0
O13 O 0.05657 0.99575 1.01824 0.0
O14 O 0.93451 0.99899 0.13113 0.0
O15 O 0.98177 0.9497 0.13118 0.0
O16 O 0.01074 0.95101 0.04303 0.0
O17 O 0.01358 0.98279 0.97299 0.0
O18 O 0.95834 0.04506 0.98065 0.0
O19 O 0.94567 1.0029 0.03666 0.0
C20 C 0.97699 0.0676 0.05721 0.0
O21 O 0.05639 0.02204 0.92695 0.0
O22 O 0.01134 0.07247 0.93173 0.0
C23 C 0.053 0.99345 0.0592 0.0
C24 C 0.92575 0.94743 0.15357 0.0
C25 C 0.88926 0.91001 0.15505 0.0
C26 C 0.91423 0.8953 0.18127 0.0
C27 C 0.93233 0.91396 0.18058 0.0
C28 C 0.90051 0.96212 0.12774 0.0
C29 C 0.88254 0.94361 0.12847 0.0
C30 C 0.94782 0.96541 0.14827 0.0
C31 C 0.01531 0.95368 1.00165 0.0
H32 H 0.08801 0.14038 0.84166 0.0
H33 H 0.05467 0.10822 0.84563 0.0
H34 H 0.08588 0.0404 0.96505 0.0
H35 H 0.11859 0.0724 0.96146 0.0
H36 H 0.92 0.86929 0.20186 0.0
H37 H 0.95209 0.90193 0.2002 0.0
H38 H 0.8953 0.98757 0.10585 0.0
H39 H 0.86419 0.9552 0.10707 0.0
Tb40 Tb 0.98144 0.25314 0.24629 0.0
Tb41 Tb 0.01071 0.27089 0.30896 0.0
C42 C 0.94535 0.32882 0.26712 0.0
C43 C 0.95986 0.21865 0.1759 0.0
C44 C 0.96516 0.17023 0.13617 0.0
C45 C 0.93422 0.20181 0.13893 0.0
C46 C 0.93163 0.22577 0.15862 0.0
C47 C 0.99127 0.18755 0.17238 0.0
C48 C 0.99399 0.16356 0.15232 0.0
C49 C 0.95396 0.24261 0.20091 0.0
O50 O 0.03407 0.25135 0.20884 0.0
O51 O 0.0368 0.28617 0.2419 0.0
O52 O 0.0492 0.21794 0.30043 0.0
O53 O 0.02094 0.20142 0.27141 0.0
O54 O 0.03078 0.30287 0.31376 0.0
O55 O 0.02902 0.25825 0.36517 0.0
O56 O 0.96931 0.25444 0.35474 0.0
O57 O 0.94144 0.25647 0.307 0.0
O58 O 0.95695 0.31042 0.23785 0.0
O59 O 0.95957 0.31591 0.30111 0.0
C60 C 0.04889 0.2703 0.20997 0.0
O61 O 0.95156 0.23008 0.24222 0.0
O62 O 0.9721 0.26162 0.18542 0.0
C63 C 0.04725 0.19407 0.28857 0.0
C64 C 0.02843 0.30544 0.38283 0.0
C65 C 0.01659 0.35237 0.42974 0.0
C66 C 0.0506 0.32486 0.42104 0.0
C67 C 0.05644 0.30166 0.39777 0.0
C68 C 0.99386 0.33146 0.39361 0.0
C69 C 0.98793 0.35464 0.41721 0.0
C70 C 0.03731 0.28488 0.35178 0.0
C71 C 0.94261 0.25351 0.34651 0.0
H72 H 0.91191 0.20787 0.12606 0.0
H73 H 0.90711 0.24959 0.16127 0.0
H74 H 0.0132 0.1815 0.18594 0.0
H75 H 0.01818 0.13939 0.15046 0.0
H76 H 0.07321 0.32246 0.43011 0.0
H77 H 0.08333 0.28178 0.38956 0.0
H78 H 0.9719 0.33472 0.38234 0.0
H79 H 0.96122 0.37508 0.42432 0.0
Tb80 Tb 0.75281 0.27217 0.56103 0.0
Tb81 Tb 0.73468 0.25291 0.49056 0.0
C82 C 0.75433 0.19589 0.57753 0.0
C83 C 0.78418 0.30395 0.6206 0.0
C84 C 0.82291 0.33615 0.62638 0.0
C85 C 0.79748 0.3286 0.66211 0.0
C86 C 0.77827 0.31259 0.6592 0.0
C87 C 0.80948 0.31137 0.58476 0.0
C88 C 0.82894 0.32717 0.58771 0.0
C89 C 0.76343 0.28755 0.61825 0.0
O90 O 0.80495 0.25484 0.51607 0.0
O91 O 0.78872 0.25017 0.46165 0.0
O92 O 0.72161 0.30976 0.46846 0.0
O93 O 0.75374 0.31478 0.50444 0.0
O94 O 0.74959 0.22244 0.44649 0.0
O95 O 0.6986 0.26803 0.45252 0.0
O96 O 0.69013 0.25462 0.54639 0.0
O97 O 0.69453 0.29028 0.57602 0.0
O98 O 0.75274 0.22033 0.59209 0.0
O99 O 0.75169 0.20203 0.53751 0.0
C100 C 0.81242 0.25042 0.47681 0.0
O101 O 0.73727 0.30813 0.59801 0.0
O102 O 0.78191 0.25713 0.60765 0.0
C103 C 0.73687 0.32715 0.47289 0.0
C104 C 0.70126 0.22134 0.4325 0.0
C105 C 0.66689 0.18564 0.4244 0.0
C106 C 0.69783 0.18702 0.3941 0.0
C107 C 0.71483 0.20477 0.39812 0.0
C108 C 0.67062 0.21968 0.46324 0.0
C109 C 0.65341 0.20213 0.45904 0.0
C110 C 0.71891 0.24105 0.43468 0.0
C111 C 0.67696 0.27409 0.57466 0.0
H112 H 0.7922 0.33543 0.69216 0.0
H113 H 0.75867 0.30708 0.68705 0.0
H114 H 0.81416 0.30489 0.55468 0.0
H115 H 0.84887 0.33208 0.55993 0.0
H116 H 0.70888 0.17434 0.36727 0.0
H117 H 0.73847 0.20581 0.37415 0.0
H118 H 0.6597 0.23232 0.49009 0.0
H119 H 0.62921 0.20206 0.48239 0.0
Tb120 Tb 0.75242 0.02488 0.80743 0.0
Tb121 Tb 0.73635 0.99823 0.74191 0.0
C122 C 0.67617 0.06103 0.78445 0.0
C123 C 0.78631 0.04401 0.88028 0.0
C124 C 0.83583 0.03694 0.92141 0.0
C125 C 0.80141 0.06464 0.9249 0.0
C126 C 0.77683 0.06809 0.9045 0.0
C127 C 0.82043 0.01593 0.87724 0.0
C128 C 0.84509 0.01242 0.89768 0.0
C129 C 0.76169 0.05116 0.8547 0.0
O130 O 0.75412 0.9731 0.8448 0.0
O131 O 0.7222 0.96876 0.80777 0.0
O132 O 0.78961 0.95992 0.75239 0.0
O133 O 0.8059 0.98677 0.78299 0.0
O134 O 0.70287 0.98261 0.73089 0.0
O135 O 0.75368 0.978 0.68667 0.0
O136 O 0.75308 0.03969 0.69743 0.0
O137 O 0.74869 0.06571 0.74767 0.0
O138 O 0.69416 0.04856 0.81495 0.0
O139 O 0.69 0.04793 0.74994 0.0
C140 C 0.73687 0.95732 0.84136 0.0
O141 O 0.77458 0.05452 0.81337 0.0
O142 O 0.74264 0.0331 0.86901 0.0
C143 C 0.81368 0.96109 0.7657 0.0
C144 C 0.70923 0.9798 0.65984 0.0
C145 C 0.67245 0.98312 0.60415 0.0
C146 C 0.7054 0.95463 0.61007 0.0
C147 C 0.72368 0.95305 0.63766 0.0
C148 C 0.67759 1.00962 0.65158 0.0
C149 C 0.65937 0.01133 0.62362 0.0
C150 C 0.72492 0.97301 0.6956 0.0
C151 C 0.75301 0.06569 0.7073 0.0
H152 H 0.79364 0.08371 0.9432 0.0
H153 H 0.75067 0.09013 0.90671 0.0
H154 H 0.82825 0.99743 0.85812 0.0
H155 H 0.87166 0.99111 0.89401 0.0
H156 H 0.71594 0.93269 0.59525 0.0
H157 H 0.74804 0.92983 0.64375 0.0
H158 H 0.666 0.03052 0.66849 0.0
H159 H 0.63386 0.03348 0.61958 0.0
Tb160 Tb 0.48084 0.75292 0.24644 0.0
Tb161 Tb 0.51086 0.76976 0.30858 0.0
C162 C 0.44541 0.82963 0.26573 0.0
C163 C 0.46485 0.71514 0.17579 0.0
C164 C 0.47451 0.66736 0.13198 0.0
C165 C 0.44988 0.70261 0.12272 0.0
C166 C 0.44496 0.72628 0.14469 0.0
C167 C 0.49118 0.68046 0.18306 0.0
C168 C 0.49588 0.6567 0.16135 0.0
C169 C 0.4544 0.73857 0.20397 0.0
O170 O 0.52237 0.76911 0.20059 0.0
O171 O 0.55064 0.76754 0.24761 0.0
O172 O 0.5362 0.71254 0.31569 0.0
O173 O 0.53206 0.70794 0.2528 0.0
O174 O 0.53966 0.79264 0.31557 0.0
O175 O 0.51962 0.75935 0.37035 0.0
O176 O 0.45768 0.77292 0.34487 0.0
O177 O 0.4565 0.73619 0.31379 0.0
O178 O 0.44289 0.80603 0.2541 0.0
O179 O 0.47184 0.82181 0.28303 0.0
C180 C 0.54922 0.7702 0.20829 0.0
O181 O 0.45707 0.72343 0.24389 0.0
O182 O 0.46499 0.76371 0.18897 0.0
C183 C 0.54718 0.69467 0.28603 0.0
C184 C 0.5265 0.80403 0.38357 0.0
C185 C 0.51789 0.85284 0.42513 0.0
C186 C 0.54184 0.81745 0.43558 0.0
C187 C 0.5462 0.79326 0.41478 0.0
C188 C 0.50083 0.83887 0.37511 0.0
C189 C 0.49656 0.86311 0.39578 0.0
C190 C 0.53616 0.77969 0.35697 0.0
C191 C 0.4435 0.75314 0.34477 0.0
H192 H 0.43321 0.71139 0.10008 0.0
H193 H 0.42447 0.75291 0.13878 0.0
H194 H 0.50698 0.67135 0.2068 0.0
H195 H 0.5155 0.62976 0.16838 0.0
H196 H 0.55854 0.80892 0.45809 0.0
H197 H 0.56617 0.76646 0.42165 0.0
H198 H 0.48524 0.84764 0.35125 0.0
H199 H 0.47747 0.89017 0.38775 0.0
Tb200 Tb 0.25736 0.772 0.56291 0.0
Tb201 Tb 0.23735 0.75537 0.49145 0.0
C202 C 0.25505 0.6978 0.57759 0.0
C203 C 0.29557 0.79827 0.62185 0.0
C204 C 0.33284 0.83051 0.63133 0.0
C205 C 0.34087 0.79499 0.65067 0.0
C206 C 0.32229 0.77905 0.64605 0.0
C207 C 0.28779 0.83373 0.60195 0.0
C208 C 0.3062 0.84978 0.6069 0.0
C209 C 0.27583 0.78077 0.61899 0.0
O210 O 0.30159 0.7703 0.50681 0.0
O211 O 0.29574 0.73649 0.47569 0.0
O212 O 0.2371 0.80763 0.46197 0.0
O213 O 0.24189 0.82325 0.51648 0.0
O214 O 0.25327 0.72293 0.44974 0.0
O215 O 0.205 0.77144 0.44796 0.0
O216 O 0.18655 0.7696 0.53925 0.0
O217 O 0.2027 0.77654 0.59206 0.0
O218 O 0.26912 0.71547 0.58386 0.0
O219 O 0.23866 0.71034 0.54552 0.0
C220 C 0.31407 0.75158 0.47789 0.0
O221 O 0.24487 0.80066 0.60792 0.0
O222 O 0.29485 0.75423 0.60031 0.0
C223 C 0.23799 0.83066 0.47672 0.0
C224 C 0.20642 0.72481 0.42973 0.0
C225 C 0.1756 0.68613 0.42139 0.0
C226 C 0.18939 0.70646 0.38471 0.0
C227 C 0.20482 0.7256 0.38889 0.0
C228 C 0.19186 0.70531 0.4666 0.0
C229 C 0.1765 0.68604 0.46245 0.0
C230 C 0.22503 0.74298 0.433 0.0
C231 C 0.17925 0.77485 0.57802 0.0
H232 H 0.36101 0.77978 0.67008 0.0
H233 H 0.32855 0.75171 0.66176 0.0
H234 H 0.26739 0.84908 0.58293 0.0
H235 H 0.29972 0.87721 0.59158 0.0
H236 H 0.18896 0.70688 0.35279 0.0
H237 H 0.21607 0.74053 0.36019 0.0
H238 H 0.19284 0.70464 0.49839 0.0
H239 H 0.16542 0.67104 0.49122 0.0
Tb240 Tb 0.25602 0.52511 0.80766 0.0
Tb241 Tb 0.23797 0.49955 0.7428 0.0
C242 C 0.17943 0.56304 0.78481 0.0
C243 C 0.28806 0.54182 0.8856 0.0
C244 C 0.33132 0.54001 0.93181 0.0
C245 C 0.29386 0.55585 0.94481 0.0
C246 C 0.27239 0.55683 0.92172 0.0
C247 C 0.32553 0.52416 0.87411 0.0
C248 C 0.347 0.52339 0.89699 0.0
C249 C 0.26516 0.5495 0.85719 0.0
O250 O 0.25796 0.47295 0.84379 0.0
O251 O 0.22331 0.47076 0.80875 0.0
O252 O 0.29234 0.46195 0.74964 0.0
O253 O 0.30893 0.48567 0.78447 0.0
O254 O 0.20475 0.48275 0.73338 0.0
O255 O 0.25368 0.48109 0.68663 0.0
O256 O 0.25198 0.54255 0.69863 0.0
O257 O 0.25488 0.56563 0.74726 0.0
O258 O 0.19772 0.54978 0.81513 0.0
O259 O 0.19236 0.54971 0.7506 0.0
C260 C 0.23929 0.45821 0.84133 0.0
O261 O 0.27954 0.55243 0.81613 0.0
O262 O 0.2445 0.53325 0.86985 0.0
C263 C 0.31647 0.46176 0.76432 0.0
C264 C 0.20741 0.48439 0.66229 0.0
C265 C 0.16318 0.49752 0.60947 0.0
C266 C 0.18995 0.4637 0.62035 0.0
C267 C 0.21187 0.45722 0.6466 0.0
C268 C 0.18283 0.51882 0.64866 0.0
C269 C 0.16097 0.5254 0.62204 0.0
C270 C 0.22546 0.475 0.69673 0.0
C271 C 0.25486 0.56724 0.70767 0.0
H272 H 0.28124 0.56897 0.97141 0.0
H273 H 0.24352 0.57081 0.93082 0.0
H274 H 0.33821 0.51235 0.84636 0.0
H275 H 0.37589 0.51071 0.88674 0.0
H276 H 0.1922 0.44174 0.61126 0.0
H277 H 0.23084 0.4305 0.65684 0.0
H278 H 0.1793 0.54012 0.66035 0.0
H279 H 0.141 0.55186 0.61329 0.0
Tb280 Tb 0.01405 0.53184 0.47693 0.0
Tb281 Tb 0.97985 0.49398 0.57255 0.0
C282 C 0.93704 0.53479 0.49785 0.0
C283 C 0.06942 0.5745 0.4063 0.0
C284 C 0.11072 0.60638 0.40621 0.0
C285 C 0.10312 0.60948 0.36751 0.0
C286 C 0.08248 0.59361 0.36758 0.0
C287 C 0.0775 0.57096 0.44468 0.0
C288 C 0.09769 0.58693 0.44473 0.0
C289 C 0.04525 0.56002 0.40864 0.0
O290 O 0.00115 0.56417 0.52002 0.0
O291 O 0.96021 0.54836 0.57624 0.0
O292 O 0.02337 0.49846 0.58182 0.0
O293 O 0.05641 0.49757 0.51311 0.0
O294 O 0.93595 0.493 0.62327 0.0
O295 O 0.98883 0.45042 0.62478 0.0
O296 O 0.01277 0.45495 0.53267 0.0
O297 O 0.00882 0.49044 0.46546 0.0
O298 O 0.95766 0.55151 0.47724 0.0
O299 O 0.94408 0.50893 0.53171 0.0
C300 C 0.97647 0.56934 0.55549 0.0
O301 O 0.05691 0.52606 0.42308 0.0
O302 O 0.01219 0.57661 0.42781 0.0
C303 C 0.053 0.49672 0.55343 0.0
C304 C 0.94 0.43621 0.64441 0.0
C305 C 0.90377 0.40021 0.64201 0.0
C306 C 0.89474 0.41358 0.67825 0.0
C307 C 0.91268 0.43176 0.67931 0.0
C308 C 0.95009 0.42126 0.60927 0.0
C309 C 0.93222 0.40332 0.60813 0.0
C310 C 0.95446 0.4605 0.64097 0.0
C311 C 0.01219 0.46027 0.49222 0.0
H312 H 0.11278 0.62449 0.33742 0.0
H313 H 0.0762 0.59676 0.33778 0.0
H314 H 0.06731 0.55662 0.47498 0.0
H315 H 0.10207 0.58497 0.47523 0.0
H316 H 0.87281 0.41136 0.70471 0.0
H317 H 0.90426 0.44353 0.70638 0.0
H318 H 0.97082 0.42469 0.58177 0.0
H319 H 0.9399 0.39279 0.58016 0.0
Tb320 Tb 0.25367 0.2735 0.06063 0.0
Tb321 Tb 0.23377 0.25586 0.99025 0.0
C322 C 0.25412 0.19779 0.07659 0.0
C323 C 0.28773 0.30362 0.11885 0.0
C324 C 0.3294 0.33334 0.12312 0.0
C325 C 0.30303 0.32774 0.15892 0.0
C326 C 0.28234 0.31296 0.15676 0.0
C327 C 0.31408 0.30897 0.08304 0.0
C328 C 0.33498 0.32354 0.08524 0.0
C329 C 0.26563 0.28836 0.11722 0.0
O330 O 0.30562 0.25514 1.01565 0.0
O331 O 0.28754 0.25374 0.96063 0.0
O332 O 0.21876 0.31287 0.97163 0.0
O333 O 0.25427 0.31652 1.0038 0.0
O334 O 0.24867 0.22736 0.94415 0.0
O335 O 0.19676 0.27141 0.95305 0.0
O336 O 0.1899 0.25631 0.04643 0.0
O337 O 0.19535 0.2901 0.07816 0.0
O338 O 0.25441 0.22116 0.09134 0.0
O339 O 0.25024 0.2049 0.03688 0.0
C340 C 0.31217 0.2522 0.9759 0.0
O341 O 0.23961 0.30955 0.09685 0.0
O342 O 0.28298 0.25774 0.10725 0.0
C343 C 0.23553 0.32964 0.97391 0.0
C344 C 0.2009 0.22635 0.92868 0.0
C345 C 0.16932 0.18922 0.91806 0.0
C346 C 0.17101 0.21912 0.88691 0.0
C347 C 0.18671 0.23755 0.89222 0.0
C348 C 0.19915 0.1966 0.96004 0.0
C349 C 0.18359 0.17801 0.95464 0.0
C350 C 0.21774 0.24591 0.93288 0.0
C351 C 0.17742 0.27454 0.07592 0.0
H352 H 0.29813 0.33521 0.18838 0.0
H353 H 0.262 0.30897 0.18463 0.0
H354 H 0.31846 0.30184 0.05353 0.0
H355 H 0.3556 0.32695 0.05747 0.0
H356 H 0.16061 0.22796 0.85819 0.0
H357 H 0.18798 0.26046 0.86771 0.0
H358 H 0.2099 0.18776 0.98844 0.0
H359 H 0.18243 0.15507 0.97915 0.0
Tb360 Tb 0.25819 0.02742 0.30581 0.0
Tb361 Tb 0.23963 0.99962 0.24406 0.0
C362 C 0.17886 0.06338 0.28672 0.0
C363 C 0.28965 0.04841 0.38063 0.0
C364 C 0.32979 0.04431 0.43271 0.0
C365 C 0.2971 0.07349 0.42744 0.0
C366 C 0.27719 0.0755 0.40154 0.0
C367 C 0.32127 0.01826 0.38775 0.0
C368 C 0.34118 0.01618 0.41382 0.0
C369 C 0.27154 0.05464 0.34764 0.0
O370 O 0.24445 0.98474 0.35241 0.0
O371 O 0.2407 0.96055 0.30563 0.0
O372 O 0.29796 0.9764 0.23572 0.0
O373 O 0.30391 0.97704 0.29944 0.0
O374 O 0.21517 0.97263 0.23636 0.0
O375 O 0.25334 0.98803 0.18365 0.0
O376 O 0.23597 0.05174 0.20621 0.0
O377 O 0.27058 0.05633 0.23893 0.0
O378 O 0.20306 0.06348 0.30099 0.0
O379 O 0.18659 0.03954 0.26631 0.0
C380 C 0.24092 0.95978 0.34478 0.0
O381 O 0.29191 0.04535 0.31158 0.0
O382 O 0.24336 0.04814 0.35996 0.0
C383 C 0.31655 0.96329 0.26568 0.0
C384 C 0.21017 0.98047 0.16641 0.0
C385 C 0.16327 0.99132 0.11857 0.0
C386 C 0.19005 0.95768 0.13016 0.0
C387 C 0.21329 0.95233 0.15393 0.0
C388 C 0.18488 0.0145 0.15292 0.0
C389 C 0.16168 0.01993 0.12882 0.0
C390 C 0.23178 0.9728 0.19618 0.0
C391 C 0.25412 0.06759 0.20706 0.0
H392 H 0.28753 0.09518 0.44229 0.0
H393 H 0.25281 0.09896 0.39629 0.0
H394 H 0.33129 0.99712 0.37174 0.0
H395 H 0.36634 0.99339 0.41753 0.0
H396 H 0.19178 0.93517 0.1229 0.0
H397 H 0.23277 0.9259 0.16413 0.0
H398 H 0.18234 0.03652 0.16219 0.0
H399 H 0.14167 0.04625 0.11954 0.0
Tb400 Tb 0.48133 0.25406 0.7458 0.0
Tb401 Tb 0.51168 0.26978 0.80843 0.0
C402 C 0.44705 0.32965 0.76618 0.0
C403 C 0.46569 0.21626 0.67518 0.0
C404 C 0.47578 0.16664 0.63372 0.0
C405 C 0.45811 0.20277 0.61685 0.0
C406 C 0.45309 0.22735 0.63746 0.0
C407 C 0.48429 0.18017 0.69145 0.0
C408 C 0.48917 0.15555 0.67095 0.0
C409 C 0.45599 0.24247 0.69915 0.0
O410 O 0.53432 0.25119 0.70902 0.0
O411 O 0.53646 0.28671 0.74124 0.0
O412 O 0.55011 0.21715 0.79907 0.0
O413 O 0.51894 0.20192 0.77306 0.0
O414 O 0.53903 0.29565 0.81169 0.0
O415 O 0.52386 0.26025 0.86801 0.0
O416 O 0.47082 0.25194 0.85335 0.0
O417 O 0.44011 0.25994 0.80515 0.0
O418 O 0.45755 0.31128 0.73719 0.0
O419 O 0.46168 0.31635 0.79991 0.0
C420 C 0.54882 0.27057 0.70954 0.0
O421 O 0.45094 0.23197 0.74094 0.0
O422 O 0.47346 0.26209 0.68425 0.0
C423 C 0.54672 0.19383 0.78796 0.0
C424 C 0.52795 0.30762 0.87875 0.0
C425 C 0.51873 0.35598 0.92165 0.0
C426 C 0.53837 0.31978 0.93608 0.0
C427 C 0.543 0.29582 0.91471 0.0
C428 C 0.50704 0.34361 0.86536 0.0
C429 C 0.50276 0.36758 0.88637 0.0
C430 C 0.53799 0.28271 0.85272 0.0
C431 C 0.44251 0.25416 0.84496 0.0
H432 H 0.44713 0.21198 0.58851 0.0
H433 H 0.43838 0.25505 0.62466 0.0
H434 H 0.49413 0.17098 0.72066 0.0
H435 H 0.50306 0.12783 0.68441 0.0
H436 H 0.5508 0.31007 0.9633 0.0
H437 H 0.55939 0.26815 0.92536 0.0
H438 H 0.49528 0.35339 0.83754 0.0
H439 H 0.48818 0.39532 0.87375 0.0
Tb440 Tb 0.98151 0.75304 0.7472 0.0
Tb441 Tb 0.01055 0.7705 0.81021 0.0
C442 C 0.94526 0.82985 0.7675 0.0
C443 C 0.9594 0.71777 0.67793 0.0
C444 C 0.96462 0.67129 0.63528 0.0
C445 C 0.93321 0.70217 0.64022 0.0
C446 C 0.93066 0.72519 0.66137 0.0
C447 C 0.99139 0.68761 0.67172 0.0
C448 C 0.99406 0.6646 0.65022 0.0
C449 C 0.95312 0.73935 0.70634 0.0
O450 O 0.02376 0.76849 0.70172 0.0
O451 O 0.0501 0.76966 0.74906 0.0
O452 O 0.03741 0.71336 0.81587 0.0
O453 O 0.03305 0.70853 0.7531 0.0
O454 O 0.03852 0.79371 0.81841 0.0
O455 O 0.0182 0.76029 0.87262 0.0
O456 O 0.9573 0.77292 0.84547 0.0
O457 O 0.9587 0.73479 0.81452 0.0
O458 O 0.94315 0.806 0.75578 0.0
O459 O 0.9719 0.82239 0.78411 0.0
C460 C 0.04964 0.77107 0.70975 0.0
O461 O 0.9586 0.72261 0.74502 0.0
O462 O 0.96412 0.76425 0.69066 0.0
C463 C 0.04845 0.69555 0.78608 0.0
C464 C 0.02418 0.80524 0.88706 0.0
C465 C 0.01623 0.85147 0.93247 0.0
C466 C 0.03351 0.81497 0.94731 0.0
C467 C 0.03752 0.79207 0.9247 0.0
C468 C 0.00513 0.84166 0.87354 0.0
C469 C 0.0013 0.86456 0.89598 0.0
C470 C 0.0343 0.78098 0.85988 0.0
C471 C 0.9442 0.75232 0.84508 0.0
H472 H 0.91042 0.70823 0.62829 0.0
H473 H 0.90568 0.74823 0.66618 0.0
H474 H 0.01372 0.6813 0.68472 0.0
H475 H 0.0186 0.64096 0.64663 0.0
H476 H 0.04559 0.80421 0.97504 0.0
H477 H 0.05249 0.76408 0.93552 0.0
H478 H 0.99454 0.85249 0.84462 0.0
H479 H 0.98766 0.8926 0.88404 0.0
Tb480 Tb 0.75397 0.5241 0.3067 0.0
Tb481 Tb 0.73592 0.49844 0.24215 0.0
C482 C 0.67741 0.56155 0.28498 0.0
C483 C 0.78842 0.54047 0.38166 0.0
C484 C 0.83529 0.53773 0.42314 0.0
C485 C 0.79809 0.55414 0.43813 0.0
C486 C 0.77481 0.55565 0.41733 0.0
C487 C 0.82561 0.52202 0.36838 0.0
C488 C 0.84892 0.52073 0.389 0.0
C489 C 0.76375 0.54853 0.3555 0.0
O490 O 0.75708 0.47185 0.3424 0.0
O491 O 0.72318 0.46781 0.308 0.0
O492 O 0.79022 0.46064 0.24915 0.0
O493 O 0.80697 0.48515 0.28269 0.0
O494 O 0.70131 0.48389 0.2317 0.0
O495 O 0.7521 0.47854 0.18698 0.0
O496 O 0.75156 0.54061 0.19749 0.0
O497 O 0.75207 0.56459 0.24681 0.0
O498 O 0.69565 0.54778 0.31541 0.0
O499 O 0.69054 0.54872 0.25034 0.0
C500 C 0.73918 0.45617 0.34046 0.0
O501 O 0.77624 0.553 0.314 0.0
O502 O 0.7442 0.53105 0.36903 0.0
C503 C 0.81446 0.46082 0.26324 0.0
C504 C 0.70648 0.48259 0.16034 0.0
C505 C 0.6691 0.4884 0.10364 0.0
C506 C 0.70249 0.46007 0.10785 0.0
C507 C 0.72106 0.45723 0.13597 0.0
C508 C 0.67436 0.51233 0.15383 0.0
C509 C 0.65581 0.51527 0.12542 0.0
C510 C 0.7228 0.47445 0.19608 0.0
C511 C 0.75391 0.56551 0.20688 0.0
H512 H 0.78708 0.56722 0.46459 0.0
H513 H 0.74617 0.57009 0.42785 0.0
H514 H 0.83664 0.50998 0.34099 0.0
H515 H 0.87759 0.50728 0.37759 0.0
H516 H 0.71319 0.43915 0.09123 0.0
H517 H 0.74582 0.4341 0.14064 0.0
H518 H 0.66269 0.53219 0.17237 0.0
H519 H 0.62995 0.53725 0.12274 0.0
Tb520 Tb 0.75644 0.76986 0.05902 0.0
Tb521 Tb 0.73673 0.75095 0.9892 0.0
C522 C 0.7556 0.69493 0.07554 0.0
C523 C 0.7917 0.79835 0.11925 0.0
C524 C 0.8242 0.83386 0.13165 0.0
C525 C 0.82859 0.80019 0.15673 0.0
C526 C 0.8123 0.78264 0.15067 0.0
C527 C 0.78813 0.83158 0.09317 0.0
C528 C 0.80423 0.84927 0.09945 0.0
C529 C 0.77353 0.77982 0.11539 0.0
O530 O 0.80044 0.76849 1.00319 0.0
O531 O 0.79502 0.73491 0.97096 0.0
O532 O 0.73494 0.8036 0.95866 0.0
O533 O 0.7409 0.82044 1.01127 0.0
O534 O 0.75122 0.71625 0.95096 0.0
O535 O 0.70551 0.76682 0.9445 0.0
O536 O 0.68556 0.76682 0.03628 0.0
O537 O 0.70235 0.77332 0.0888 0.0
O538 O 0.77052 0.71292 0.07921 0.0
O539 O 0.73808 0.70685 0.04474 0.0
C540 C 0.81306 0.7501 0.9739 0.0
O541 O 0.74269 0.79903 0.10393 0.0
O542 O 0.79365 0.75363 0.09624 0.0
C543 C 0.73583 0.82724 0.97222 0.0
C544 C 0.70268 0.72071 0.92965 0.0
C545 C 0.66515 0.69019 0.91696 0.0
C546 C 0.65701 0.72596 0.89959 0.0
C547 C 0.67574 0.74105 0.90576 0.0
C548 C 0.71041 0.68501 0.9477 0.0
C549 C 0.69185 0.66986 0.94122 0.0
C550 C 0.72369 0.73681 0.93289 0.0
C551 C 0.67855 0.77209 0.07498 0.0
H552 H 0.8439 0.78784 0.18169 0.0
H553 H 0.81538 0.75695 0.17096 0.0
H554 H 0.77263 0.84397 0.0684 0.0
H555 H 0.80104 0.87501 0.07926 0.0
H556 H 0.6368 0.74201 0.88033 0.0
H557 H 0.66959 0.76853 0.89118 0.0
H558 H 0.73108 0.66863 0.96624 0.0
H559 H 0.69841 0.64222 0.95503 0.0
Tb560 Tb 0.51143 0.03235 0.47639 0.0
Tb561 Tb 0.48655 0.98968 0.57397 0.0
C562 C 0.43565 0.03232 0.50904 0.0
C563 C 0.55707 0.08248 0.39596 0.0
C564 C 0.59618 0.1155 0.39904 0.0
C565 C 0.56527 0.13528 0.38173 0.0
C566 C 0.54579 0.11886 0.38028 0.0
C567 C 0.5894 0.06249 0.41044 0.0
C568 C 0.60884 0.07886 0.41176 0.0
C569 C 0.53196 0.0669 0.40527 0.0
O570 O 0.51004 0.058 0.52034 0.0
O571 O 0.46994 0.04328 0.57835 0.0
O572 O 0.53699 0.98636 0.57482 0.0
O573 O 0.56016 0.99928 0.50169 0.0
O574 O 0.44735 0.99177 0.63124 0.0
O575 O 0.49477 0.94362 0.62299 0.0
O576 O 0.51402 0.95195 0.53253 0.0
O577 O 0.5077 0.98949 0.46633 0.0
O578 O 0.45333 0.05196 0.48964 0.0
O579 O 0.44777 1.00357 0.53796 0.0
C580 C 0.48732 0.06312 0.55695 0.0
O581 O 0.54531 0.03261 0.41488 0.0
O582 O 0.50183 0.08068 0.43189 0.0
C583 C 0.56349 0.98798 0.54207 0.0
C584 C 0.43956 0.93965 0.65241 0.0
C585 C 0.40339 0.90198 0.65377 0.0
C586 C 0.43237 0.8854 0.67434 0.0
C587 C 0.45037 0.90413 0.67362 0.0
C588 C 0.40961 0.95646 0.63342 0.0
C589 C 0.39168 0.93784 0.63423 0.0
C590 C 0.46209 0.95774 0.64485 0.0
C591 C 0.51397 0.95823 0.4916 0.0
H592 H 0.5551 0.16361 0.37161 0.0
H593 H 0.52076 0.13481 0.36946 0.0
H594 H 0.59874 0.0344 0.42306 0.0
H595 H 0.63307 0.063 0.42434 0.0
H596 H 0.44155 0.85782 0.69013 0.0
H597 H 0.47352 0.8906 0.68817 0.0
H598 H 0.40078 0.98372 0.61632 0.0
H599 H 0.36958 0.95117 0.61789 0.0
Tb600 Tb 0.51036 0.53629 0.97113 0.0
Tb601 Tb 0.48702 0.49108 0.06754 0.0
C602 C 0.43465 0.53629 1.00372 0.0
C603 C 0.55686 0.58575 0.88961 0.0
C604 C 0.59522 0.62129 0.88786 0.0
C605 C 0.56631 0.63876 0.86706 0.0
C606 C 0.54721 0.62107 0.86798 0.0
C607 C 0.58712 0.5678 0.90813 0.0
C608 C 0.6062 0.5854 0.9071 0.0
C609 C 0.53197 0.56982 0.8996 0.0
O610 O 0.504 0.56438 1.01585 0.0
O611 O 0.46919 0.54342 0.07636 0.0
O612 O 0.53433 0.4925 0.07075 0.0
O613 O 0.55852 0.50471 0.99792 0.0
O614 O 0.44638 0.48695 0.12178 0.0
O615 O 0.49979 0.44497 0.11609 0.0
O616 O 0.51989 0.45523 1.02413 0.0
O617 O 0.50522 0.49384 0.96141 0.0
O618 O 0.45252 0.55567 0.98332 0.0
O619 O 0.44747 0.50675 0.03145 0.0
C620 C 0.48345 0.5659 0.05454 0.0
O621 O 0.54548 0.53554 0.91045 0.0
O622 O 0.5016 0.58405 0.92557 0.0
C623 C 0.56095 0.49463 0.03856 0.0
C624 C 0.45111 0.4302 0.13807 0.0
C625 C 0.41372 0.39544 0.13512 0.0
C626 C 0.40618 0.40716 0.17225 0.0
C627 C 0.42469 0.42466 0.1736 0.0
C628 C 0.45959 0.41716 0.10176 0.0
C629 C 0.44121 0.39977 0.10039 0.0
C630 C 0.46611 0.45383 0.13549 0.0
C631 C 0.51555 0.46189 0.98518 0.0
H632 H 0.55772 0.66636 0.85149 0.0
H633 H 0.52377 0.63544 0.85387 0.0
H634 H 0.59494 0.54066 0.92553 0.0
H635 H 0.6283 0.57142 0.92352 0.0
H636 H 0.385 0.40409 0.19939 0.0
H637 H 0.41743 0.43505 0.20156 0.0
H638 H 0.47952 0.42154 0.07367 0.0
H639 H 0.4479 0.39048 0.0717 0.0
C640 C -0.00181 0.10814 0.06308 0.0
C641 C 0.97186 0.0951 0.07682 0.0
C642 C 0.99601 0.13206 0.0827 0.0
C643 C 0.96719 0.14436 0.11649 0.0
H644 H 0.02124 0.09932 0.03744 0.0
H645 H 0.01694 0.14121 0.0711 0.0
S646 S 0.89136 0.11863 0.16521 0.0
N647 N 0.91609 0.09639 0.12693 0.0
N648 N 0.91195 0.14163 0.16348 0.0
C649 C 0.94055 0.13186 0.1305 0.0
C650 C 0.9429 0.10718 0.11079 0.0
C651 C 0.85667 0.24035 0.40612 0.0
C652 C 0.84775 0.24831 0.4465 0.0
C653 C 0.8875 0.2414 0.37496 0.0
C654 C 0.9114 0.25038 0.38226 0.0
H655 H 0.83933 0.23373 0.39791 0.0
H656 H 0.89235 0.23539 0.3445 0.0
S657 S 0.90118 0.27341 0.48259 0.0
N658 N 0.86617 0.26524 0.49205 0.0
N659 N 0.92394 0.2671 0.43372 0.0
C660 C 0.90339 0.25769 0.42283 0.0
C661 C 0.87176 0.25669 0.45474 0.0
C662 C 0.74882 0.10603 0.6316 0.0
C663 C 0.75611 0.09734 0.6727 0.0
C664 C 0.74918 0.1371 0.60062 0.0
C665 C 0.75698 0.16111 0.609 0.0
H666 H 0.74183 0.08916 0.6236 0.0
H667 H 0.74242 0.14273 0.57021 0.0
S668 S 0.78153 0.1492 0.7099 0.0
N669 N 0.77385 0.11477 0.71837 0.0
N670 N 0.77466 0.17201 0.66122 0.0
C671 C 0.76551 0.15198 0.64945 0.0
C672 C 0.76505 0.12059 0.68083 0.0
C673 C 0.89439 0.06068 0.95386 0.0
C674 C 0.91254 0.02941 0.98146 0.0
C675 C 0.86933 0.06304 0.9348 0.0
C676 C 0.8621 0.03402 0.94213 0.0
H677 H 0.89936 0.08353 0.9472 0.0
H678 H 0.85583 0.08761 0.91373 0.0
S679 S 0.90332 0.94573 1.01047 0.0
N680 N 0.92209 0.9684 1.01424 0.0
N681 N 0.87502 0.97317 0.97851 0.0
C682 C 0.88025 1.00256 0.96931 0.0
C683 C 0.90544 1.00018 0.98899 0.0
C684 C 0.11723 0.97948 0.05239 0.0
C685 C 0.08098 0.9942 0.07307 0.0
C686 C 0.1438 0.97966 0.06623 0.0
C687 C 0.13485 0.99529 0.10052 0.0
H688 H 0.12521 0.967 0.0261 0.0
H689 H 0.17158 0.96709 0.0504 0.0
S690 S 0.04332 0.04058 0.16241 0.0
N691 N 0.03726 0.02711 0.12751 0.0
N692 N 0.08703 0.02734 0.15334 0.0
C693 C 0.09854 0.01138 0.12018 0.0
C694 C 0.07164 0.01084 0.10652 0.0
C695 C 0.02665 0.3974 0.49807 0.0
C696 C 0.01208 0.43303 0.47711 0.0
C697 C 0.0271 0.37148 0.48344 0.0
C698 C 0.01239 0.3803 0.44783 0.0
H699 H 0.03844 0.38937 0.52542 0.0
H700 H 0.03935 0.34428 0.49989 0.0
S701 S 0.96836 0.47014 0.38384 0.0
N702 N 0.98055 0.47592 0.42044 0.0
N703 N 0.98171 0.42738 0.39299 0.0
C704 C -0.00334 0.41595 0.42755 0.0
C705 C 0.99647 0.44223 0.44214 0.0
C706 C 0.62466 0.257 0.60798 0.0
C707 C 0.64266 0.27602 0.60742 0.0
C708 C 0.59424 0.25595 0.64034 0.0
C709 C 0.5801 0.27385 0.67398 0.0
H710 H 0.63449 0.24214 0.58359 0.0
H711 H 0.58207 0.24042 0.63922 0.0
S712 S 0.61626 0.32849 0.68724 0.0
N713 N 0.64309 0.31398 0.6435 0.0
N714 N 0.58645 0.31204 0.70374 0.0
C715 C 0.59742 0.29353 0.67338 0.0
C716 C 0.6284 0.29461 0.6404 0.0
C717 C 0.7472 0.91382 0.91396 0.0
C718 C 0.73434 0.9253 0.87584 0.0
C719 C 0.74653 0.88313 0.94547 0.0
C720 C 0.7333 0.86189 0.9405 0.0
H721 H 0.75832 0.92849 0.91945 0.0
H722 H 0.7574 0.87551 0.97346 0.0
S723 S 0.69515 0.88035 0.84769 0.0
N724 N 0.70687 0.91269 0.83624 0.0
N725 N 0.70581 0.85582 0.89439 0.0
C726 C 0.71982 0.87341 0.9029 0.0
C727 C 0.72028 0.9047 0.87105 0.0
C728 C 0.12512 0.25735 0.10854 0.0
C729 C 0.14319 0.27607 0.10869 0.0
C730 C 0.09458 0.25615 0.14062 0.0
C731 C 0.08037 0.2736 0.1747 0.0
H732 H 0.13496 0.24285 0.08376 0.0
H733 H 0.08235 0.24089 0.13891 0.0
S734 S 0.11678 0.32722 0.18999 0.0
N735 N 0.14367 0.31317 0.14601 0.0
N736 N 0.08687 0.31098 0.20571 0.0
C737 C 0.09783 0.29293 0.17486 0.0
C738 C 0.12893 0.29414 0.14218 0.0
C739 C 0.71958 0.40577 0.37412 0.0
C740 C 0.73762 0.42412 0.3755 0.0
C741 C 0.71894 0.37514 0.40567 0.0
C742 C 0.73625 0.36103 0.44056 0.0
H743 H 0.70601 0.41491 0.3481 0.0
H744 H 0.70495 0.36222 0.40231 0.0
S745 S 0.78738 0.39869 0.46 0.0
N746 N 0.77323 0.4253 0.41574 0.0
N747 N 0.77202 0.36863 0.47414 0.0
C748 C 0.75415 0.37931 0.44252 0.0
C749 C 0.75484 0.41042 0.41042 0.0
C750 C 0.61051 1.00732 0.53209 0.0
C751 C 0.59633 0.98217 0.55201 0.0
C752 C 0.63635 1.00687 0.54798 0.0
C753 C 0.64915 0.98091 0.58366 0.0
H754 H 0.59992 0.02875 0.50595 0.0
H755 H 0.64558 0.02746 0.53317 0.0
S756 S 0.6225 0.90781 0.64485 0.0
N757 N 0.59827 0.92973 0.60755 0.0
N758 N 0.64726 0.92847 0.6369 0.0
C759 C 0.63658 0.95459 0.60224 0.0
C760 C 0.61002 0.95535 0.58653 0.0
C761 C 0.03123 0.92458 0.9423 0.0
C762 C 0.01867 0.92468 0.98652 0.0
C763 C 0.03037 0.90075 0.92545 0.0
C764 C 0.01695 0.87592 0.95203 0.0
H765 H 0.04133 0.94351 0.92018 0.0
H766 H 0.04027 0.90184 0.89117 0.0
S767 S 0.98007 0.86526 0.06984 0.0
N768 N 0.99203 0.8977 0.05666 0.0
N769 N 0.99063 0.85273 1.02473 0.0
C770 C 0.00487 0.87513 0.99642 0.0
C771 C 0.0057 0.89951 1.01372 0.0
C772 C 0.15701 0.11388 0.91017 0.0
C773 C 0.12219 0.13034 0.90243 0.0
C774 C 0.17215 0.13316 0.915 0.0
C775 C 0.15298 0.16954 0.9122 0.0
H776 H 0.17254 0.08584 0.91282 0.0
H777 H 0.19904 0.11954 0.92092 0.0
S778 S 0.06023 0.22465 0.89492 0.0
N779 N 0.0685 0.18482 0.89381 0.0
N780 N 0.09712 0.22113 0.9026 0.0
C781 C 0.11822 0.18634 0.90436 0.0
C782 C 0.10278 0.16671 0.89951 0.0
C783 C 0.62325 0.60935 0.25518 0.0
C784 C 0.64234 0.59361 0.28847 0.0
C785 C 0.59216 0.64124 0.25541 0.0
C786 C 0.57852 0.65916 0.2889 0.0
H787 H 0.63278 0.5974 0.22799 0.0
H788 H 0.57923 0.65226 0.22839 0.0
S789 S 0.61705 0.62845 0.38528 0.0
N790 N 0.64406 0.598 0.3571 0.0
N791 N 0.58603 0.65758 0.35746 0.0
C792 C 0.5967 0.64321 0.3231 0.0
C793 C 0.62838 0.61065 0.32291 0.0
C794 C 0.33155 0.87821 0.65424 0.0
C795 C 0.35153 0.8477 0.6377 0.0
C796 C 0.3486 0.89504 0.66053 0.0
C797 C 0.3862 0.88198 0.65039 0.0
H798 H 0.30253 0.88904 0.66251 0.0
H799 H 0.33224 0.91858 0.67319 0.0
S800 S 0.45044 0.80418 0.60357 0.0
N801 N 0.41067 0.80569 0.60998 0.0
N802 N 0.44282 0.83762 0.6213 0.0
C803 C 0.40648 0.85152 0.63375 0.0
C804 C 0.3891 0.83431 0.6275 0.0
C805 C 0.09433 0.64269 0.75473 0.0
C806 C 0.08009 0.66025 0.7887 0.0
C807 C 0.12558 0.61095 0.75445 0.0
C808 C 0.14425 0.595 0.78817 0.0
H809 H 0.08174 0.6539 0.72739 0.0
H810 H 0.13557 0.59929 0.72691 0.0
S811 S 0.11734 0.62883 0.88628 0.0
N812 N 0.0866 0.65809 0.85812 0.0
N813 N 0.14493 0.59877 0.85768 0.0
C814 C 0.12974 0.61169 0.82302 0.0
C815 C 0.09789 0.6441 0.82326 0.0
C816 C 0.859 0.34037 0.66554 0.0
C817 C 0.84318 0.35312 0.62983 0.0
C818 C 0.87823 0.35601 0.66969 0.0
C819 C 0.88243 0.38472 0.63809 0.0
H820 H 0.85689 0.31786 0.69021 0.0
H821 H 0.89039 0.34524 0.69734 0.0
S822 S 0.84385 0.4299 0.54039 0.0
N823 N 0.83114 0.39757 0.56377 0.0
N824 N 0.86779 0.42661 0.57128 0.0
C825 C 0.86633 0.39809 0.6026 0.0
C826 C 0.84661 0.38233 0.5985 0.0
C827 C 0.3733 0.91784 0.29242 0.0
C828 C 0.3517 0.93129 0.26211 0.0
C829 C 0.40454 0.88591 0.2922 0.0
C830 C 0.41532 0.86572 0.26203 0.0
H831 H 0.36563 0.93165 0.31727 0.0
H832 H 0.41948 0.87629 0.317 0.0
S833 S 0.37029 0.89004 0.17356 0.0
N834 N 0.34524 0.92237 0.19919 0.0
N835 N 0.40317 0.86275 0.19925 0.0
C836 C 0.39475 0.87942 0.23066 0.0
C837 C 0.36325 0.91201 0.23056 0.0
C838 C 0.37238 0.41728 0.79306 0.0
C839 C 0.35253 0.43109 0.76092 0.0
C840 C 0.40348 0.38521 0.79372 0.0
C841 C 0.41633 0.36561 0.76207 0.0
H842 H 0.36296 0.43047 0.81907 0.0
H843 H 0.4169 0.37526 0.82009 0.0
S844 S 0.37636 0.39264 0.66785 0.0
N845 N 0.34978 0.42414 0.69455 0.0
N846 N 0.40778 0.36456 0.69549 0.0
C847 C 0.39766 0.38023 0.7285 0.0
C848 C 0.36596 0.41267 0.72803 0.0
C849 C 0.13523 0.78497 0.64906 0.0
C850 C 0.14418 0.77659 0.60892 0.0
C851 C 0.10453 0.7838 0.68053 0.0
C852 C 0.0808 0.77425 0.67382 0.0
H853 H 0.15244 0.79204 0.6568 0.0
H854 H 0.09966 0.79015 0.71076 0.0
S855 S 0.09128 0.74981 0.57438 0.0
N856 N 0.12605 0.75848 0.56434 0.0
N857 N 0.06857 0.75645 0.62313 0.0
C858 C 0.08892 0.76643 0.63351 0.0
C859 C 0.12039 0.76754 0.60133 0.0
C860 C 0.23056 0.90418 0.37304 0.0
C861 C 0.2384 0.92842 0.38069 0.0
C862 C 0.22968 0.87371 0.40435 0.0
C863 C 0.23659 0.86528 0.44556 0.0
H864 H 0.22527 0.90848 0.34214 0.0
H865 H 0.22385 0.85633 0.39565 0.0
S866 S 0.25862 0.91949 0.48316 0.0
N867 N 0.2531 0.94146 0.43371 0.0
N868 N 0.25153 0.88456 0.49209 0.0
C869 C 0.24404 0.88946 0.45408 0.0
C870 C 0.24491 0.92071 0.422 0.0
C871 C 0.99437 0.63487 0.58008 0.0
C872 C 0.96639 0.64589 0.61511 0.0
C873 C -0.00343 0.61102 0.56039 0.0
C874 C 0.97113 0.59675 0.57532 0.0
H875 H 0.01466 0.6449 0.56764 0.0
H876 H 0.01902 0.60316 0.53379 0.0
S877 S 0.89302 0.61679 0.6671 0.0
N878 N 0.91287 0.64076 0.66449 0.0
N879 N 0.91708 0.59558 0.62776 0.0
C880 C 0.94299 0.60759 0.6105 0.0
C881 C 0.94059 0.63223 0.63028 0.0
C882 C 0.36707 0.76753 0.44552 0.0
C883 C 0.34859 0.74918 0.4455 0.0
C884 C 0.39783 0.76811 0.41359 0.0
C885 C 0.41186 0.75032 0.37989 0.0
H886 H 0.35735 0.78226 0.47002 0.0
H887 H 0.41038 0.78314 0.41514 0.0
S888 S 0.37444 0.69739 0.36514 0.0
N889 N 0.34753 0.712 0.40878 0.0
N890 N 0.40485 0.71303 0.34932 0.0
C891 C 0.39406 0.73129 0.3799 0.0
C892 C 0.3627 0.73073 0.41241 0.0
C893 C 0.2685 0.12099 0.17682 0.0
C894 C 0.25563 0.09949 0.17183 0.0
C895 C 0.26851 0.15191 0.14579 0.0
C896 C 0.25612 0.16306 0.10748 0.0
H897 H 0.2781 0.11432 0.20555 0.0
H898 H 0.27819 0.1674 0.1522 0.0
S899 S 0.22009 0.1163 0.07749 0.0
N900 N 0.23037 0.09193 0.12447 0.0
N901 N 0.23085 0.14924 0.06651 0.0
C902 C 0.24379 0.14149 0.10159 0.0
C903 C 0.24339 0.11013 0.13349 0.0
C904 C 0.86599 0.76609 0.94394 0.0
C905 C 0.84785 0.74797 0.9423 0.0
C906 C 0.89719 0.76679 0.91314 0.0
C907 C 0.9121 0.74932 0.87903 0.0
H908 H 0.8557 0.78051 0.96891 0.0
H909 H 0.90943 0.78162 0.91593 0.0
S910 S 0.87581 0.69729 0.85998 0.0
N911 N 0.84797 0.71152 0.90351 0.0
N912 N 0.9062 0.7127 0.84613 0.0
C913 C 0.89463 0.73056 0.87737 0.0
C914 C 0.86276 0.72992 0.90872 0.0
C915 C 0.26789 0.6215 0.67874 0.0
C916 C 0.2565 0.59923 0.67265 0.0
C917 C 0.26817 0.65238 0.64773 0.0
C918 C 0.25665 0.66322 0.60887 0.0
H919 H 0.27663 0.61514 0.70801 0.0
H920 H 0.27694 0.66828 0.65486 0.0
S921 S 0.22374 0.61486 0.57655 0.0
N922 N 0.23336 0.59073 0.62388 0.0
N923 N 0.23348 0.64834 0.56641 0.0
C924 C 0.24532 0.64111 0.6022 0.0
C925 C 0.24538 0.60941 0.63366 0.0
C926 C 0.36693 0.01522 0.48821 0.0
C927 C 0.35328 0.04407 0.45531 0.0
C928 C 0.392 0.0128 0.50707 0.0
C929 C 0.40483 0.03892 0.49328 0.0
H930 H 0.3587 0.99401 0.49884 0.0
H931 H 0.40241 0.98942 0.53146 0.0
S932 S 0.37569 0.12082 0.40942 0.0
N933 N 0.35286 0.10011 0.4108 0.0
N934 N 0.40015 0.09564 0.44616 0.0
C935 C 0.39023 0.06865 0.46148 0.0
C936 C 0.36444 0.07119 0.4425 0.0
C937 C 0.87675 0.8374 0.13965 0.0
C938 C 0.84 0.85305 0.13965 0.0
C939 C 0.89234 0.85556 0.14616 0.0
C940 C 0.87164 0.88986 0.15306 0.0
H941 H 0.89368 0.81129 0.13358 0.0
H942 H 0.92096 0.84306 0.14448 0.0
S943 S 0.77348 0.94061 0.16121 0.0
N944 N 0.78283 0.90349 0.15045 0.0
N945 N 0.81202 0.93754 0.16319 0.0
C946 C 0.83461 0.90521 0.15476 0.0
C947 C 0.81883 0.88682 0.14789 0.0
C948 C 0.64113 0.17466 0.37864 0.0
C949 C 0.64844 0.16767 0.41901 0.0
C950 C 0.62405 0.15782 0.37241 0.0
C951 C 0.61401 0.13317 0.40624 0.0
H952 H 0.64843 0.19351 0.35171 0.0
H953 H 0.619 0.16383 0.34082 0.0
S954 S 0.62611 0.10626 0.51843 0.0
N955 N 0.64398 0.1347 0.49342 0.0
N956 N 0.61137 0.1034 0.48188 0.0
C957 C 0.62084 0.12615 0.44687 0.0
C958 C 0.63811 0.14337 0.45325 0.0
C959 C 0.87028 0.41685 0.29241 0.0
C960 C 0.85046 0.43004 0.26037 0.0
C961 C 0.90137 0.38478 0.29365 0.0
C962 C 0.91429 0.36455 0.26267 0.0
H963 H 0.86085 0.43058 0.31789 0.0
H964 H 0.91481 0.37539 0.31987 0.0
S965 S 0.87416 0.38951 0.16927 0.0
N966 N 0.84761 0.42162 0.19503 0.0
N967 N 0.90563 0.36203 0.19702 0.0
C968 C 0.89556 0.37844 0.22929 0.0
C969 C 0.86385 0.41089 0.22825 0.0
C970 C 0.11922 0.66116 0.38743 0.0
C971 C 0.1299 0.62532 0.40743 0.0
C972 C 0.13437 0.68059 0.39182 0.0
C973 C 0.16054 0.66489 0.41656 0.0
H974 H 0.0982 0.67456 0.36939 0.0
H975 H 0.12494 0.70831 0.37661 0.0
S976 S 0.20022 0.57119 0.47195 0.0
N977 N 0.17018 0.5743 0.45016 0.0
N978 N 0.19829 0.61108 0.45888 0.0
C979 C 0.17217 0.62891 0.43575 0.0
C980 C 0.15696 0.60905 0.43103 0.0
C981 C 0.63118 0.11327 0.81689 0.0
C982 C 0.64078 0.09262 0.7877 0.0
C983 C 0.60026 0.1452 0.81759 0.0
C984 C 0.577 0.15788 0.78962 0.0
H985 H 0.64837 0.10542 0.83853 0.0
H986 H 0.59489 0.16039 0.83987 0.0
S987 S 0.5884 0.1132 0.70844 0.0
N988 N 0.62332 0.08681 0.73105 0.0
N989 N 0.5652 0.14642 0.73276 0.0
C990 C 0.58544 0.13692 0.76134 0.0
C991 C 0.61726 0.10452 0.76024 0.0
C992 C 0.74615 0.60734 0.13289 0.0
C993 C 0.75691 0.5971 0.17211 0.0
C994 C 0.7463 0.63837 0.10183 0.0
C995 C 0.75771 0.66067 0.10792 0.0
H996 H 0.73658 0.59175 0.1265 0.0
H997 H 0.737 0.64505 0.07287 0.0
S998 S 0.79026 0.64527 0.2041 0.0
N999 N 0.78048 0.61185 0.21422 0.0
N1000 N 0.78103 0.66909 0.15657 0.0
C1001 C 0.76935 0.65021 0.14657 0.0
C1002 C 0.76887 0.6189 0.17829 0.0
C1003 C 0.88218 0.52821 0.50457 0.0
C1004 C 0.90834 0.5407 0.47888 0.0
C1005 C 0.85818 0.52791 0.48645 0.0
C1006 C 0.85976 0.5397 0.44194 0.0
H1007 H 0.8808 0.51766 0.53887 0.0
H1008 H 0.83897 0.51741 0.5072 0.0
S1009 S 0.92129 0.57706 0.36074 0.0
N1010 N 0.93296 0.56686 0.4067 0.0
N1011 N 0.88774 0.56616 0.3728 0.0
C1012 C 0.88483 0.55336 0.41603 0.0
C1013 C 0.90906 0.55402 0.43448 0.0
C1014 C 0.14327 0.48704 0.5565 0.0
C1015 C 0.13457 0.5019 0.5914 0.0
C1016 C 0.11674 0.48588 0.54373 0.0
C1017 C 0.08079 0.49883 0.56608 0.0
H1018 H 0.1709 0.47555 0.53959 0.0
H1019 H 0.1246 0.47388 0.51703 0.0
S1020 S 0.04366 0.54307 0.65736 0.0
N1021 N 0.08715 0.53172 0.64636 0.0
N1022 N 0.03747 0.52962 0.62256 0.0
C1023 C 0.07161 0.51497 0.59996 0.0
C1024 C 0.09845 0.51653 0.61253 0.0
C1025 C 0.60536 0.78067 0.17875 0.0
C1026 C 0.58025 0.77302 0.17197 0.0
C1027 C 0.63597 0.78141 0.14688 0.0
C1028 C 0.6435 0.7744 0.10624 0.0
H1029 H 0.60166 0.78585 0.20934 0.0
H1030 H 0.65426 0.78699 0.15474 0.0
S1031 S 0.58631 0.75331 0.07111 0.0
N1032 N 0.56493 0.75883 0.12057 0.0
N1033 N 0.62234 0.76002 0.06097 0.0
C1034 C 0.61827 0.76737 0.09853 0.0
C1035 C 0.58684 0.76673 0.13115 0.0
C1036 C 0.63188 0.51445 0.04814 0.0
C1037 C 0.64569 0.48713 0.08239 0.0
C1038 C 0.60625 0.51529 0.03146 0.0
C1039 C 0.59322 0.48925 0.04931 0.0
H1040 H 0.64017 0.53572 0.03507 0.0
H1041 H 0.59496 0.53752 1.00637 0.0
S1042 S 0.62174 0.41176 0.1382 0.0
N1043 N 0.64564 0.4328 0.13226 0.0
N1044 N 0.59689 0.43492 0.10161 0.0
C1045 C 0.60766 0.46134 0.08256 0.0
C1046 C 0.63409 0.46013 0.09895 0.0
C1047 C 0.38697 0.35206 0.16412 0.0
C1048 C 0.39202 0.38006 0.13166 0.0
C1049 C 0.36681 0.33695 0.16101 0.0
C1050 C 0.35088 0.34949 0.12546 0.0
H1051 H 0.3991 0.34148 0.19178 0.0
H1052 H 0.36395 0.31507 0.18641 0.0
S1053 S 0.35359 0.42431 0.03378 0.0
N1054 N 0.37812 0.4209 0.06399 0.0
N1055 N 0.33972 0.39287 0.0585 0.0
C1056 C 0.35524 0.37788 0.09317 0.0
C1057 C 0.37591 0.3931 0.09621 0.0
C1058 C 0.0887 0.13753 0.26227 0.0
C1059 C 0.07774 0.15817 0.29209 0.0
C1060 C 0.12042 0.1059 0.26187 0.0
C1061 C 0.14238 0.09355 0.29138 0.0
H1062 H 0.0736 0.14667 0.23777 0.0
H1063 H 0.12858 0.09194 0.23701 0.0
S1064 S 0.12255 0.13485 0.38037 0.0
N1065 N 0.08951 0.16168 0.3548 0.0
N1066 N 0.14822 0.10276 0.35444 0.0
C1067 C 0.13037 0.11291 0.32296 0.0
C1068 C 0.09838 0.145 0.3232 0.0
C1069 C 0.25273 0.38154 0.94242 0.0
C1070 C 0.23436 0.36351 0.94105 0.0
C1071 C 0.25374 0.41201 0.91085 0.0
C1072 C 0.23648 0.42635 0.87587 0.0
H1073 H 0.26696 0.37184 0.96796 0.0
H1074 H 0.26863 0.42421 0.91377 0.0
S1075 S 0.18436 0.38972 0.85662 0.0
N1076 N 0.19818 0.36305 0.90105 0.0
N1077 N 0.20006 0.41953 0.84248 0.0
C1078 C 0.21774 0.40875 0.8743 0.0
C1079 C 0.21669 0.37774 0.90647 0.0
C1080 C 0.35437 0.24518 0.90339 0.0
C1081 C 0.34747 0.24978 0.9452 0.0
C1082 C 0.38522 0.24596 0.87213 0.0
C1083 C 0.41123 0.25126 0.88071 0.0
H1084 H 0.33541 0.24148 0.89414 0.0
H1085 H 0.38842 0.24266 0.8406 0.0
S1086 S 0.40708 0.26414 0.98515 0.0
N1087 N 0.37021 0.25929 0.99355 0.0
N1088 N 0.42807 0.26064 0.93497 0.0
C1089 C 0.40528 0.2551 0.92266 0.0
C1090 C 0.37359 0.2544 0.9547 0.0
C1091 C 0.40315 0.55741 0.94424 0.0
C1092 C 0.40376 0.54321 0.98823 0.0
C1093 C 0.37898 0.55695 0.92656 0.0
C1094 C 0.35423 0.54281 0.95233 0.0
H1095 H 0.42285 0.56702 0.92276 0.0
H1096 H 0.38023 0.56697 0.89222 0.0
S1097 S 0.34238 0.50582 0.07005 0.0
N1098 N 0.37584 0.51692 0.05775 0.0
N1099 N 0.32987 0.51673 1.02444 0.0
C1100 C 0.35303 0.53053 0.99677 0.0
C1101 C 0.37797 0.53054 1.01473 0.0
C1102 C 0.66679 0.64396 0.8907 0.0
C1103 C 0.64664 0.67378 0.90862 0.0
C1104 C 0.64992 0.62768 0.88288 0.0
C1105 C 0.61235 0.64069 0.89275 0.0
H1106 H 0.69581 0.6332 0.8826 0.0
H1107 H 0.66637 0.60461 0.8693 0.0
S1108 S 0.54772 0.71666 0.94287 0.0
N1109 N 0.5874 0.71496 0.93745 0.0
N1110 N 0.55557 0.68416 0.92314 0.0
C1111 C 0.59191 0.67047 0.91076 0.0
C1112 C 0.6091 0.68707 0.91862 0.0
C1113 C 0.89073 0.87565 0.73814 0.0
C1114 C 0.91459 0.86572 0.76422 0.0
C1115 C 0.85935 0.90708 0.73764 0.0
C1116 C 0.84992 0.93044 0.76326 0.0
H1117 H 0.89584 0.85859 0.71839 0.0
H1118 H 0.84188 0.91262 0.7175 0.0
S1119 S 0.90386 0.91806 0.83604 0.0
N1120 N 0.92721 0.88287 0.81525 0.0
N1121 N 0.86821 0.9419 0.81434 0.0
C1122 C 0.87419 0.92166 0.7883 0.0
C1123 C 0.90642 0.88942 0.78878 0.0
C1124 C 0.46677 0.1145 0.63835 0.0
C1125 C 0.47898 0.14058 0.61345 0.0
C1126 C 0.4687 0.09007 0.6197 0.0
C1127 C 0.48331 0.09059 0.57553 0.0
H1128 H 0.45531 0.11318 0.67247 0.0
H1129 H 0.45921 0.07032 0.64025 0.0
S1130 S 0.5193 0.15375 0.49647 0.0
N1131 N 0.50632 0.1655 0.54265 0.0
N1132 N 0.51003 0.11989 0.5073 0.0
C1133 C 0.4956 0.11671 0.55028 0.0
C1134 C 0.4934 0.14162 0.5693 0.0
C1135 C 0.54811 0.3783 0.94921 0.0
C1136 C 0.51684 0.3818 0.94134 0.0
C1137 C 0.54755 0.40402 0.96424 0.0
C1138 C 0.5159 0.43428 0.97108 0.0
H1139 H 0.57341 0.35604 0.94257 0.0
H1140 H 0.57217 0.40071 0.96938 0.0
S1141 S 0.42609 0.45396 0.961 0.0
N1142 N 0.45263 0.41617 0.94635 0.0
N1143 N 0.4521 0.46508 0.97267 0.0
C1144 C 0.48433 0.43758 0.9648 0.0
C1145 C 0.48467 0.4112 0.95037 0.0
C1146 C 0.51264 0.8755 0.4863 0.0
C1147 C 0.51753 0.87945 0.44184 0.0
C1148 C 0.51248 0.90057 0.50221 0.0
C1149 C 0.51749 0.93033 0.47416 0.0
H1150 H 0.5083 0.8532 0.50895 0.0
H1151 H 0.50761 0.89694 0.53677 0.0
S1152 S 0.53525 0.95047 0.3545 0.0
N1153 N 0.53006 0.91376 0.36989 0.0
N1154 N 0.52998 0.96072 0.39933 0.0
C1155 C 0.52353 0.93384 0.42948 0.0
C1156 C 0.52348 0.90847 0.41345 0.0
C1157 C 0.48414 0.62249 0.04948 0.0
C1158 C 0.47894 0.59228 0.07523 0.0
C1159 C 0.4825 0.64679 0.068 0.0
C1160 C 0.47627 0.64142 0.1129 0.0
H1161 H 0.48962 0.62741 1.01466 0.0
H1162 H 0.48667 0.66966 0.04706 0.0
S1163 S 0.46055 0.56707 0.19478 0.0
N1164 N 0.46688 0.55874 0.14819 0.0
N1165 N 0.46402 0.6044 0.18282 0.0
C1166 C 0.47082 0.61156 0.13907 0.0
C1167 C 0.47203 0.58702 0.12029 0.0
loop_
_geom_bond_atom_site_label_1
_geom_bond_atom_site_label_2
_geom_bond_distance
_geom_bond_site_symmetry_2
_ccdc_geom_bond_type
Tb0 C9 2.764 . S
Tb0 O10 2.325 1_456 S
Tb0 O13 2.303 1_546 S
Tb0 O17 2.322 1_545 S
Tb0 O18 2.349 1_455 S
Tb0 O21 2.415 . S
Tb0 O22 2.399 . S
Tb1 O11 2.322 1_565 S
Tb1 O12 2.349 1_655 S
Tb1 O14 2.415 . S
Tb1 O15 2.399 . S
Tb1 O16 2.325 1_654 S
Tb1 O19 2.303 1_564 S
Tb1 C30 2.764 . S
C2 O18 1.261 . S
C2 O19 1.257 . S
C3 C6 1.358 . S
C3 C7 1.332 . S
C3 C9 1.504 . S
C4 C5 1.373 . S
C4 C8 1.308 . S
C5 C4 1.373 . S
C5 C6 1.429 . S
C5 H32 0.932 . S
C6 C3 1.358 . S
C6 C5 1.429 . S
C6 H33 0.930 . S
C7 C3 1.332 . S
C7 C8 1.394 . S
C7 H34 0.932 . S
C8 C4 1.308 . S
C8 C7 1.394 . S
C8 H35 0.929 . S
C9 Tb0 2.764 . S
C9 C3 1.504 . S
C9 O21 1.239 . S
C9 O22 1.263 . S
O10 Tb0 2.325 1_654 S
O10 C20 1.236 . S
O11 Tb1 2.322 1_545 S
O11 C20 1.257 . S
O12 Tb1 2.349 1_455 S
O12 C23 1.261 . S
O13 Tb0 2.303 1_564 S
O13 C23 1.257 . S
O14 Tb1 2.415 . S
O14 C30 1.239 . S
O15 Tb1 2.399 . S
O15 C30 1.263 . S
O16 Tb1 2.325 1_456 S
O16 C31 1.236 . S
O17 Tb0 2.322 1_565 S
O17 C31 1.257 . S
O18 Tb0 2.349 1_655 S
O18 C2 1.261 . S
O19 Tb1 2.303 1_546 S
O19 C2 1.257 . S
C20 O10 1.236 . S
C20 O11 1.257 . S
O21 Tb0 2.415 . S
O21 C9 1.239 . S
O22 Tb0 2.399 . S
O22 C9 1.263 . S
C23 O12 1.261 . S
C23 O13 1.257 . S
C24 C27 1.358 . S
C24 C28 1.332 . S
C24 C30 1.504 . S
C25 C26 1.373 . S
C25 C29 1.308 . S
C26 C25 1.373 . S
C26 C27 1.429 . S
C26 H36 0.932 . S
C27 C24 1.358 . S
C27 C26 1.429 . S
C27 H37 0.930 . S
C28 C24 1.332 . S
C28 C29 1.394 . S
C28 H38 0.932 . S
C29 C25 1.308 . S
C29 C28 1.394 . S
C29 H39 0.929 . S
C30 Tb1 2.764 . S
C30 O14 1.239 . S
C30 O15 1.263 . S
C30 C24 1.504 . S
C31 O16 1.236 . S
C31 O17 1.257 . S
H32 C5 0.932 . S
H33 C6 0.930 . S
H34 C7 0.932 . S
H35 C8 0.929 . S
H36 C26 0.932 . S
H37 C27 0.930 . S
H38 C28 0.932 . S
H39 C29 0.929 . S
Tb40 C49 2.764 . S
Tb40 O50 2.325 1_655 S
Tb40 O53 2.303 1_655 S
Tb40 O57 2.322 . S
Tb40 O58 2.349 . S
Tb40 O61 2.415 1_655 S
Tb40 O62 2.399 . S
Tb41 O51 2.322 . S
Tb41 O52 2.349 . S
Tb41 O54 2.415 1_455 S
Tb41 O55 2.399 . S
Tb41 O56 2.325 1_455 S
Tb41 O59 2.303 1_455 S
Tb41 C70 2.764 . S
C42 O58 1.261 . S
C42 O59 1.257 . S
C43 C46 1.358 1_455 S
C43 C47 1.332 . S
C43 C49 1.504 1_455 S
C44 C45 1.373 1_455 S
C44 C48 1.308 . S
C45 C44 1.373 1_655 S
C45 C46 1.429 . S
C45 H72 0.932 . S
C46 C43 1.358 1_655 S
C46 C45 1.429 . S
C46 H73 0.930 . S
C47 C43 1.332 . S
C47 C48 1.394 . S
C47 H74 0.932 . S
C48 C44 1.308 . S
C48 C47 1.394 . S
C48 H75 0.929 . S
C49 Tb40 2.764 . S
C49 C43 1.504 1_655 S
C49 O61 1.239 1_655 S
C49 O62 1.263 . S
O50 Tb40 2.325 1_455 S
O50 C60 1.236 . S
O51 Tb41 2.322 . S
O51 C60 1.257 . S
O52 Tb41 2.349 . S
O52 C63 1.261 . S
O53 Tb40 2.303 1_455 S
O53 C63 1.257 . S
O54 Tb41 2.415 1_655 S
O54 C70 1.239 1_655 S
O55 Tb41 2.399 . S
O55 C70 1.263 . S
O56 Tb41 2.325 1_655 S
O56 C71 1.236 . S
O57 Tb40 2.322 . S
O57 C71 1.257 . S
O58 Tb40 2.349 . S
O58 C42 1.261 . S
O59 Tb41 2.303 1_655 S
O59 C42 1.257 . S
C60 O50 1.236 . S
C60 O51 1.257 . S
O61 Tb40 2.415 1_455 S
O61 C49 1.239 1_455 S
O62 Tb40 2.399 . S
O62 C49 1.263 . S
C63 O52 1.261 . S
C63 O53 1.257 . S
C64 C67 1.358 1_655 S
C64 C68 1.332 . S
C64 C70 1.504 1_655 S
C65 C66 1.373 1_655 S
C65 C69 1.308 . S
C66 C65 1.373 1_455 S
C66 C67 1.429 . S
C66 H76 0.932 . S
C67 C64 1.358 1_455 S
C67 C66 1.429 . S
C67 H77 0.930 . S
C68 C64 1.332 . S
C68 C69 1.394 . S
C68 H78 0.932 . S
C69 C65 1.308 . S
C69 C68 1.394 . S
C69 H79 0.929 . S
C70 Tb41 2.764 . S
C70 O54 1.239 1_455 S
C70 O55 1.263 . S
C70 C64 1.504 1_455 S
C71 O56 1.236 . S
C71 O57 1.257 . S
H72 C45 0.932 . S
H73 C46 0.930 . S
H74 C47 0.932 . S
H75 C48 0.929 . S
H76 C66 0.932 . S
H77 C67 0.930 . S
H78 C68 0.932 . S
H79 C69 0.929 . S
Tb80 C89 2.764 . S
Tb80 O90 2.325 . S
Tb80 O93 2.303 . S
Tb80 O97 2.322 . S
Tb80 O98 2.349 . S
Tb80 O101 2.415 . S
Tb80 O102 2.399 . S
Tb81 O91 2.322 . S
Tb81 O92 2.349 . S
Tb81 O94 2.415 . S
Tb81 O95 2.399 . S
Tb81 O96 2.325 . S
Tb81 O99 2.303 . S
Tb81 C110 2.764 . S
C82 O98 1.261 . S
C82 O99 1.257 . S
C83 C86 1.358 . S
C83 C87 1.332 . S
C83 C89 1.504 . S
C84 C85 1.373 . S
C84 C88 1.308 . S
C85 C84 1.373 . S
C85 C86 1.429 . S
C85 H112 0.932 . S
C86 C83 1.358 . S
C86 C85 1.429 . S
C86 H113 0.930 . S
C87 C83 1.332 . S
C87 C88 1.394 . S
C87 H114 0.932 . S
C88 C84 1.308 . S
C88 C87 1.394 . S
C88 H115 0.929 . S
C89 Tb80 2.764 . S
C89 C83 1.504 . S
C89 O101 1.239 . S
C89 O102 1.263 . S
O90 Tb80 2.325 . S
O90 C100 1.236 . S
O91 Tb81 2.322 . S
O91 C100 1.257 . S
O92 Tb81 2.349 . S
O92 C103 1.261 . S
O93 Tb80 2.303 . S
O93 C103 1.257 . S
O94 Tb81 2.415 . S
O94 C110 1.239 . S
O95 Tb81 2.399 . S
O95 C110 1.263 . S
O96 Tb81 2.325 . S
O96 C111 1.236 . S
O97 Tb80 2.322 . S
O97 C111 1.257 . S
O98 Tb80 2.349 . S
O98 C82 1.261 . S
O99 Tb81 2.303 . S
O99 C82 1.257 . S
C100 O90 1.236 . S
C100 O91 1.257 . S
O101 Tb80 2.415 . S
O101 C89 1.239 . S
O102 Tb80 2.399 . S
O102 C89 1.263 . S
C103 O92 1.261 . S
C103 O93 1.257 . S
C104 C107 1.358 . S
C104 C108 1.332 . S
C104 C110 1.504 . S
C105 C106 1.373 . S
C105 C109 1.308 . S
C106 C105 1.373 . S
C106 C107 1.429 . S
C106 H116 0.932 . S
C107 C104 1.358 . S
C107 C106 1.429 . S
C107 H117 0.930 . S
C108 C104 1.332 . S
C108 C109 1.394 . S
C108 H118 0.932 . S
C109 C105 1.308 . S
C109 C108 1.394 . S
C109 H119 0.929 . S
C110 Tb81 2.764 . S
C110 O94 1.239 . S
C110 O95 1.263 . S
C110 C104 1.504 . S
C111 O96 1.236 . S
C111 O97 1.257 . S
H112 C85 0.932 . S
H113 C86 0.930 . S
H114 C87 0.932 . S
H115 C88 0.929 . S
H116 C106 0.932 . S
H117 C107 0.930 . S
H118 C108 0.932 . S
H119 C109 0.929 . S
Tb120 C129 2.764 . S
Tb120 O130 2.325 1_545 S
Tb120 O133 2.303 1_545 S
Tb120 O137 2.322 . S
Tb120 O138 2.349 . S
Tb120 O141 2.415 1_545 S
Tb120 O142 2.399 . S
Tb121 O131 2.322 . S
Tb121 O132 2.349 . S
Tb121 O134 2.415 1_565 S
Tb121 O135 2.399 . S
Tb121 O136 2.325 1_565 S
Tb121 O139 2.303 1_565 S
Tb121 C150 2.764 . S
C122 O138 1.261 . S
C122 O139 1.257 . S
C123 C126 1.358 1_565 S
C123 C127 1.332 . S
C123 C129 1.504 1_565 S
C124 C125 1.373 1_565 S
C124 C128 1.308 . S
C125 C124 1.373 1_545 S
C125 C126 1.429 . S
C125 H152 0.932 . S
C126 C123 1.358 1_545 S
C126 C125 1.429 . S
C126 H153 0.930 . S
C127 C123 1.332 . S
C127 C128 1.394 . S
C127 H154 0.932 . S
C128 C124 1.308 . S
C128 C127 1.394 . S
C128 H155 0.929 . S
C129 Tb120 2.764 . S
C129 C123 1.504 1_545 S
C129 O141 1.239 1_545 S
C129 O142 1.263 . S
O130 Tb120 2.325 1_565 S
O130 C140 1.236 . S
O131 Tb121 2.322 . S
O131 C140 1.257 . S
O132 Tb121 2.349 . S
O132 C143 1.261 . S
O133 Tb120 2.303 1_565 S
O133 C143 1.257 . S
O134 Tb121 2.415 1_545 S
O134 C150 1.239 1_545 S
O135 Tb121 2.399 . S
O135 C150 1.263 . S
O136 Tb121 2.325 1_545 S
O136 C151 1.236 . S
O137 Tb120 2.322 . S
O137 C151 1.257 . S
O138 Tb120 2.349 . S
O138 C122 1.261 . S
O139 Tb121 2.303 1_545 S
O139 C122 1.257 . S
C140 O130 1.236 . S
C140 O131 1.257 . S
O141 Tb120 2.415 1_565 S
O141 C129 1.239 1_565 S
O142 Tb120 2.399 . S
O142 C129 1.263 . S
C143 O132 1.261 . S
C143 O133 1.257 . S
C144 C147 1.358 1_545 S
C144 C148 1.332 . S
C144 C150 1.504 1_545 S
C145 C146 1.373 1_545 S
C145 C149 1.308 . S
C146 C145 1.373 1_565 S
C146 C147 1.429 . S
C146 H156 0.932 . S
C147 C144 1.358 1_565 S
C147 C146 1.429 . S
C147 H157 0.930 . S
C148 C144 1.332 . S
C148 C149 1.394 . S
C148 H158 0.932 . S
C149 C145 1.308 . S
C149 C148 1.394 . S
C149 H159 0.929 . S
C150 Tb121 2.764 . S
C150 O134 1.239 1_565 S
C150 O135 1.263 . S
C150 C144 1.504 1_565 S
C151 O136 1.236 . S
C151 O137 1.257 . S
H152 C125 0.932 . S
H153 C126 0.930 . S
H154 C127 0.932 . S
H155 C128 0.929 . S
H156 C146 0.932 . S
H157 C147 0.930 . S
H158 C148 0.932 . S
H159 C149 0.929 . S
Tb160 C169 2.764 . S
Tb160 O170 2.325 . S
Tb160 O173 2.303 . S
Tb160 O177 2.322 . S
Tb160 O178 2.349 . S
Tb160 O181 2.415 . S
Tb160 O182 2.399 . S
Tb161 O171 2.322 . S
Tb161 O172 2.349 . S
Tb161 O174 2.415 . S
Tb161 O175 2.399 . S
Tb161 O176 2.325 . S
Tb161 O179 2.303 . S
Tb161 C190 2.764 . S
C162 O178 1.261 . S
C162 O179 1.257 . S
C163 C166 1.358 . S
C163 C167 1.332 . S
C163 C169 1.504 . S
C164 C165 1.373 . S
C164 C168 1.308 . S
C165 C164 1.373 . S
C165 C166 1.429 . S
C165 H192 0.932 . S
C166 C163 1.358 . S
C166 C165 1.429 . S
C166 H193 0.930 . S
C167 C163 1.332 . S
C167 C168 1.394 . S
C167 H194 0.932 . S
C168 C164 1.308 . S
C168 C167 1.394 . S
C168 H195 0.929 . S
C169 Tb160 2.764 . S
C169 C163 1.504 . S
C169 O181 1.239 . S
C169 O182 1.263 . S
O170 Tb160 2.325 . S
O170 C180 1.236 . S
O171 Tb161 2.322 . S
O171 C180 1.257 . S
O172 Tb161 2.349 . S
O172 C183 1.261 . S
O173 Tb160 2.303 . S
O173 C183 1.257 . S
O174 Tb161 2.415 . S
O174 C190 1.239 . S
O175 Tb161 2.399 . S
O175 C190 1.263 . S
O176 Tb161 2.325 . S
O176 C191 1.236 . S
O177 Tb160 2.322 . S
O177 C191 1.257 . S
O178 Tb160 2.349 . S
O178 C162 1.261 . S
O179 Tb161 2.303 . S
O179 C162 1.257 . S
C180 O170 1.236 . S
C180 O171 1.257 . S
O181 Tb160 2.415 . S
O181 C169 1.239 . S
O182 Tb160 2.399 . S
O182 C169 1.263 . S
C183 O172 1.261 . S
C183 O173 1.257 . S
C184 C187 1.358 . S
C184 C188 1.332 . S
C184 C190 1.504 . S
C185 C186 1.373 . S
C185 C189 1.308 . S
C186 C185 1.373 . S
C186 C187 1.429 . S
C186 H196 0.932 . S
C187 C184 1.358 . S
C187 C186 1.429 . S
C187 H197 0.930 . S
C188 C184 1.332 . S
C188 C189 1.394 . S
C188 H198 0.932 . S
C189 C185 1.308 . S
C189 C188 1.394 . S
C189 H199 0.929 . S
C190 Tb161 2.764 . S
C190 O174 1.239 . S
C190 O175 1.263 . S
C190 C184 1.504 . S
C191 O176 1.236 . S
C191 O177 1.257 . S
H192 C165 0.932 . S
H193 C166 0.930 . S
H194 C167 0.932 . S
H195 C168 0.929 . S
H196 C186 0.932 . S
H197 C187 0.930 . S
H198 C188 0.932 . S
H199 C189 0.929 . S
Tb200 C209 2.764 . S
Tb200 O210 2.325 . S
Tb200 O213 2.303 . S
Tb200 O217 2.322 . S
Tb200 O218 2.349 . S
Tb200 O221 2.415 . S
Tb200 O222 2.399 . S
Tb201 O211 2.322 . S
Tb201 O212 2.349 . S
Tb201 O214 2.415 . S
Tb201 O215 2.399 . S
Tb201 O216 2.325 . S
Tb201 O219 2.303 . S
Tb201 C230 2.764 . S
C202 O218 1.261 . S
C202 O219 1.257 . S
C203 C206 1.358 . S
C203 C207 1.332 . S
C203 C209 1.504 . S
C204 C205 1.373 . S
C204 C208 1.308 . S
C205 C204 1.373 . S
C205 C206 1.429 . S
C205 H232 0.932 . S
C206 C203 1.358 . S
C206 C205 1.429 . S
C206 H233 0.930 . S
C207 C203 1.332 . S
C207 C208 1.394 . S
C207 H234 0.932 . S
C208 C204 1.308 . S
C208 C207 1.394 . S
C208 H235 0.929 . S
C209 Tb200 2.764 . S
C209 C203 1.504 . S
C209 O221 1.239 . S
C209 O222 1.263 . S
O210 Tb200 2.325 . S
O210 C220 1.236 . S
O211 Tb201 2.322 . S
O211 C220 1.257 . S
O212 Tb201 2.349 . S
O212 C223 1.261 . S
O213 Tb200 2.303 . S
O213 C223 1.257 . S
O214 Tb201 2.415 . S
O214 C230 1.239 . S
O215 Tb201 2.399 . S
O215 C230 1.263 . S
O216 Tb201 2.325 . S
O216 C231 1.236 . S
O217 Tb200 2.322 . S
O217 C231 1.257 . S
O218 Tb200 2.349 . S
O218 C202 1.261 . S
O219 Tb201 2.303 . S
O219 C202 1.257 . S
C220 O210 1.236 . S
C220 O211 1.257 . S
O221 Tb200 2.415 . S
O221 C209 1.239 . S
O222 Tb200 2.399 . S
O222 C209 1.263 . S
C223 O212 1.261 . S
C223 O213 1.257 . S
C224 C227 1.358 . S
C224 C228 1.332 . S
C224 C230 1.504 . S
C225 C226 1.373 . S
C225 C229 1.308 . S
C226 C225 1.373 . S
C226 C227 1.429 . S
C226 H236 0.932 . S
C227 C224 1.358 . S
C227 C226 1.429 . S
C227 H237 0.930 . S
C228 C224 1.332 . S
C228 C229 1.394 . S
C228 H238 0.932 . S
C229 C225 1.308 . S
C229 C228 1.394 . S
C229 H239 0.929 . S
C230 Tb201 2.764 . S
C230 O214 1.239 . S
C230 O215 1.263 . S
C230 C224 1.504 . S
C231 O216 1.236 . S
C231 O217 1.257 . S
H232 C205 0.932 . S
H233 C206 0.930 . S
H234 C207 0.932 . S
H235 C208 0.929 . S
H236 C226 0.932 . S
H237 C227 0.930 . S
H238 C228 0.932 . S
H239 C229 0.929 . S
Tb240 C249 2.764 . S
Tb240 O250 2.325 . S
Tb240 O253 2.303 . S
Tb240 O257 2.322 . S
Tb240 O258 2.349 . S
Tb240 O261 2.415 . S
Tb240 O262 2.399 . S
Tb241 O251 2.322 . S
Tb241 O252 2.349 . S
Tb241 O254 2.415 . S
Tb241 O255 2.399 . S
Tb241 O256 2.325 . S
Tb241 O259 2.303 . S
Tb241 C270 2.764 . S
C242 O258 1.261 . S
C242 O259 1.257 . S
C243 C246 1.358 . S
C243 C247 1.332 . S
C243 C249 1.504 . S
C244 C245 1.373 . S
C244 C248 1.308 . S
C245 C244 1.373 . S
C245 C246 1.429 . S
C245 H272 0.932 . S
C246 C243 1.358 . S
C246 C245 1.429 . S
C246 H273 0.930 . S
C247 C243 1.332 . S
C247 C248 1.394 . S
C247 H274 0.932 . S
C248 C244 1.308 . S
C248 C247 1.394 . S
C248 H275 0.929 . S
C249 Tb240 2.764 . S
C249 C243 1.504 . S
C249 O261 1.239 . S
C249 O262 1.263 . S
O250 Tb240 2.325 . S
O250 C260 1.236 . S
O251 Tb241 2.322 . S
O251 C260 1.257 . S
O252 Tb241 2.349 . S
O252 C263 1.261 . S
O253 Tb240 2.303 . S
O253 C263 1.257 . S
O254 Tb241 2.415 . S
O254 C270 1.239 . S
O255 Tb241 2.399 . S
O255 C270 1.263 . S
O256 Tb241 2.325 . S
O256 C271 1.236 . S
O257 Tb240 2.322 . S
O257 C271 1.257 . S
O258 Tb240 2.349 . S
O258 C242 1.261 . S
O259 Tb241 2.303 . S
O259 C242 1.257 . S
C260 O250 1.236 . S
C260 O251 1.257 . S
O261 Tb240 2.415 . S
O261 C249 1.239 . S
O262 Tb240 2.399 . S
O262 C249 1.263 . S
C263 O252 1.261 . S
C263 O253 1.257 . S
C264 C267 1.358 . S
C264 C268 1.332 . S
C264 C270 1.504 . S
C265 C266 1.373 . S
C265 C269 1.308 . S
C266 C265 1.373 . S
C266 C267 1.429 . S
C266 H276 0.932 . S
C267 C264 1.358 . S
C267 C266 1.429 . S
C267 H277 0.930 . S
C268 C264 1.332 . S
C268 C269 1.394 . S
C268 H278 0.932 . S
C269 C265 1.308 . S
C269 C268 1.394 . S
C269 H279 0.929 . S
C270 Tb241 2.764 . S
C270 O254 1.239 . S
C270 O255 1.263 . S
C270 C264 1.504 . S
C271 O256 1.236 . S
C271 O257 1.257 . S
H272 C245 0.932 . S
H273 C246 0.930 . S
H274 C247 0.932 . S
H275 C248 0.929 . S
H276 C266 0.932 . S
H277 C267 0.930 . S
H278 C268 0.932 . S
H279 C269 0.929 . S
Tb280 C289 2.764 . S
Tb280 O290 2.325 1_455 S
Tb280 O293 2.303 . S
Tb280 O297 2.322 . S
Tb280 O298 2.349 1_455 S
Tb280 O301 2.415 . S
Tb280 O302 2.399 . S
Tb281 O291 2.322 . S
Tb281 O292 2.349 1_655 S
Tb281 O294 2.415 . S
Tb281 O295 2.399 . S
Tb281 O296 2.325 1_655 S
Tb281 O299 2.303 . S
Tb281 C310 2.764 . S
C282 O298 1.261 . S
C282 O299 1.257 . S
C283 C286 1.358 . S
C283 C287 1.332 . S
C283 C289 1.504 . S
C284 C285 1.373 . S
C284 C288 1.308 . S
C285 C284 1.373 . S
C285 C286 1.429 . S
C285 H312 0.932 . S
C286 C283 1.358 . S
C286 C285 1.429 . S
C286 H313 0.930 . S
C287 C283 1.332 . S
C287 C288 1.394 . S
C287 H314 0.932 . S
C288 C284 1.308 . S
C288 C287 1.394 . S
C288 H315 0.929 . S
C289 Tb280 2.764 . S
C289 C283 1.504 . S
C289 O301 1.239 . S
C289 O302 1.263 . S
O290 Tb280 2.325 1_655 S
O290 C300 1.236 . S
O291 Tb281 2.322 . S
O291 C300 1.257 . S
O292 Tb281 2.349 1_455 S
O292 C303 1.261 . S
O293 Tb280 2.303 . S
O293 C303 1.257 . S
O294 Tb281 2.415 . S
O294 C310 1.239 . S
O295 Tb281 2.399 . S
O295 C310 1.263 . S
O296 Tb281 2.325 1_455 S
O296 C311 1.236 . S
O297 Tb280 2.322 . S
O297 C311 1.257 . S
O298 Tb280 2.349 1_655 S
O298 C282 1.261 . S
O299 Tb281 2.303 . S
O299 C282 1.257 . S
C300 O290 1.236 . S
C300 O291 1.257 . S
O301 Tb280 2.415 . S
O301 C289 1.239 . S
O302 Tb280 2.399 . S
O302 C289 1.263 . S
C303 O292 1.261 . S
C303 O293 1.257 . S
C304 C307 1.358 . S
C304 C308 1.332 . S
C304 C310 1.504 . S
C305 C306 1.373 . S
C305 C309 1.308 . S
C306 C305 1.373 . S
C306 C307 1.429 . S
C306 H316 0.932 . S
C307 C304 1.358 . S
C307 C306 1.429 . S
C307 H317 0.930 . S
C308 C304 1.332 . S
C308 C309 1.394 . S
C308 H318 0.932 . S
C309 C305 1.308 . S
C309 C308 1.394 . S
C309 H319 0.929 . S
C310 Tb281 2.764 . S
C310 O294 1.239 . S
C310 O295 1.263 . S
C310 C304 1.504 . S
C311 O296 1.236 . S
C311 O297 1.257 . S
H312 C285 0.932 . S
H313 C286 0.930 . S
H314 C287 0.932 . S
H315 C288 0.929 . S
H316 C306 0.932 . S
H317 C307 0.930 . S
H318 C308 0.932 . S
H319 C309 0.929 . S
Tb320 C329 2.764 . S
Tb320 O330 2.325 1_554 S
Tb320 O333 2.303 1_554 S
Tb320 O337 2.322 . S
Tb320 O338 2.349 . S
Tb320 O341 2.415 . S
Tb320 O342 2.399 . S
Tb321 O331 2.322 . S
Tb321 O332 2.349 . S
Tb321 O334 2.415 . S
Tb321 O335 2.399 . S
Tb321 O336 2.325 1_556 S
Tb321 O339 2.303 1_556 S
Tb321 C350 2.764 . S
C322 O338 1.261 . S
C322 O339 1.257 . S
C323 C326 1.358 . S
C323 C327 1.332 . S
C323 C329 1.504 . S
C324 C325 1.373 . S
C324 C328 1.308 . S
C325 C324 1.373 . S
C325 C326 1.429 . S
C325 H352 0.932 . S
C326 C323 1.358 . S
C326 C325 1.429 . S
C326 H353 0.930 . S
C327 C323 1.332 . S
C327 C328 1.394 . S
C327 H354 0.932 1_554 S
C328 C324 1.308 . S
C328 C327 1.394 . S
C328 H355 0.929 1_554 S
C329 Tb320 2.764 . S
C329 C323 1.504 . S
C329 O341 1.239 . S
C329 O342 1.263 . S
O330 Tb320 2.325 1_556 S
O330 C340 1.236 . S
O331 Tb321 2.322 . S
O331 C340 1.257 . S
O332 Tb321 2.349 . S
O332 C343 1.261 . S
O333 Tb320 2.303 1_556 S
O333 C343 1.257 . S
O334 Tb321 2.415 . S
O334 C350 1.239 . S
O335 Tb321 2.399 . S
O335 C350 1.263 . S
O336 Tb321 2.325 1_554 S
O336 C351 1.236 . S
O337 Tb320 2.322 . S
O337 C351 1.257 . S
O338 Tb320 2.349 . S
O338 C322 1.261 . S
O339 Tb321 2.303 1_554 S
O339 C322 1.257 . S
C340 O330 1.236 . S
C340 O331 1.257 . S
O341 Tb320 2.415 . S
O341 C329 1.239 . S
O342 Tb320 2.399 . S
O342 C329 1.263 . S
C343 O332 1.261 . S
C343 O333 1.257 . S
C344 C347 1.358 . S
C344 C348 1.332 . S
C344 C350 1.504 . S
C345 C346 1.373 . S
C345 C349 1.308 . S
C346 C345 1.373 . S
C346 C347 1.429 . S
C346 H356 0.932 . S
C347 C344 1.358 . S
C347 C346 1.429 . S
C347 H357 0.930 . S
C348 C344 1.332 . S
C348 C349 1.394 . S
C348 H358 0.932 1_556 S
C349 C345 1.308 . S
C349 C348 1.394 . S
C349 H359 0.929 1_556 S
C350 Tb321 2.764 . S
C350 O334 1.239 . S
C350 O335 1.263 . S
C350 C344 1.504 . S
C351 O336 1.236 . S
C351 O337 1.257 . S
H352 C325 0.932 . S
H353 C326 0.930 . S
H354 C327 0.932 1_556 S
H355 C328 0.929 1_556 S
H356 C346 0.932 . S
H357 C347 0.930 . S
H358 C348 0.932 1_554 S
H359 C349 0.929 1_554 S
Tb360 C369 2.764 . S
Tb360 O370 2.325 1_545 S
Tb360 O373 2.303 1_545 S
Tb360 O377 2.322 . S
Tb360 O378 2.349 . S
Tb360 O381 2.415 1_545 S
Tb360 O382 2.399 . S
Tb361 O371 2.322 . S
Tb361 O372 2.349 . S
Tb361 O374 2.415 1_565 S
Tb361 O375 2.399 . S
Tb361 O376 2.325 1_565 S
Tb361 O379 2.303 1_565 S
Tb361 C390 2.764 . S
C362 O378 1.261 . S
C362 O379 1.257 . S
C363 C366 1.358 1_565 S
C363 C367 1.332 . S
C363 C369 1.504 1_565 S
C364 C365 1.373 1_565 S
C364 C368 1.308 . S
C365 C364 1.373 1_545 S
C365 C366 1.429 . S
C365 H392 0.932 . S
C366 C363 1.358 1_545 S
C366 C365 1.429 . S
C366 H393 0.930 . S
C367 C363 1.332 . S
C367 C368 1.394 . S
C367 H394 0.932 . S
C368 C364 1.308 . S
C368 C367 1.394 . S
C368 H395 0.929 . S
C369 Tb360 2.764 . S
C369 C363 1.504 1_545 S
C369 O381 1.239 1_545 S
C369 O382 1.263 . S
O370 Tb360 2.325 1_565 S
O370 C380 1.236 . S
O371 Tb361 2.322 . S
O371 C380 1.257 . S
O372 Tb361 2.349 . S
O372 C383 1.261 . S
O373 Tb360 2.303 1_565 S
O373 C383 1.257 . S
O374 Tb361 2.415 1_545 S
O374 C390 1.239 1_545 S
O375 Tb361 2.399 . S
O375 C390 1.262 . S
O376 Tb361 2.325 1_545 S
O376 C391 1.236 . S
O377 Tb360 2.322 . S
O377 C391 1.257 . S
O378 Tb360 2.349 . S
O378 C362 1.261 . S
O379 Tb361 2.303 1_545 S
O379 C362 1.257 . S
C380 O370 1.236 . S
C380 O371 1.257 . S
O381 Tb360 2.415 1_565 S
O381 C369 1.239 1_565 S
O382 Tb360 2.399 . S
O382 C369 1.263 . S
C383 O372 1.261 . S
C383 O373 1.257 . S
C384 C387 1.358 1_545 S
C384 C388 1.332 . S
C384 C390 1.504 1_545 S
C385 C386 1.373 1_545 S
C385 C389 1.308 . S
C386 C385 1.373 1_565 S
C386 C387 1.429 . S
C386 H396 0.932 . S
C387 C384 1.358 1_565 S
C387 C386 1.429 . S
C387 H397 0.930 . S
C388 C384 1.332 . S
C388 C389 1.394 . S
C388 H398 0.932 . S
C389 C385 1.308 . S
C389 C388 1.394 . S
C389 H399 0.929 . S
C390 Tb361 2.764 . S
C390 O374 1.239 1_565 S
C390 O375 1.262 . S
C390 C384 1.504 1_565 S
C391 O376 1.236 . S
C391 O377 1.257 . S
H392 C365 0.932 . S
H393 C366 0.930 . S
H394 C367 0.932 . S
H395 C368 0.929 . S
H396 C386 0.932 . S
H397 C387 0.930 . S
H398 C388 0.932 . S
H399 C389 0.929 . S
Tb400 C409 2.764 . S
Tb400 O410 2.325 . S
Tb400 O413 2.303 . S
Tb400 O417 2.322 . S
Tb400 O418 2.349 . S
Tb400 O421 2.415 . S
Tb400 O422 2.399 . S
Tb401 O411 2.322 . S
Tb401 O412 2.349 . S
Tb401 O414 2.415 . S
Tb401 O415 2.399 . S
Tb401 O416 2.325 . S
Tb401 O419 2.303 . S
Tb401 C430 2.764 . S
C402 O418 1.261 . S
C402 O419 1.257 . S
C403 C406 1.358 . S
C403 C407 1.332 . S
C403 C409 1.504 . S
C404 C405 1.373 . S
C404 C408 1.308 . S
C405 C404 1.373 . S
C405 C406 1.429 . S
C405 H432 0.932 . S
C406 C403 1.358 . S
C406 C405 1.429 . S
C406 H433 0.930 . S
C407 C403 1.332 . S
C407 C408 1.394 . S
C407 H434 0.932 . S
C408 C404 1.308 . S
C408 C407 1.394 . S
C408 H435 0.929 . S
C409 Tb400 2.764 . S
C409 C403 1.504 . S
C409 O421 1.239 . S
C409 O422 1.263 . S
O410 Tb400 2.325 . S
O410 C420 1.236 . S
O411 Tb401 2.322 . S
O411 C420 1.257 . S
O412 Tb401 2.349 . S
O412 C423 1.261 . S
O413 Tb400 2.303 . S
O413 C423 1.257 . S
O414 Tb401 2.415 . S
O414 C430 1.239 . S
O415 Tb401 2.399 . S
O415 C430 1.263 . S
O416 Tb401 2.325 . S
O416 C431 1.236 . S
O417 Tb400 2.322 . S
O417 C431 1.257 . S
O418 Tb400 2.349 . S
O418 C402 1.261 . S
O419 Tb401 2.303 . S
O419 C402 1.257 . S
C420 O410 1.236 . S
C420 O411 1.257 . S
O421 Tb400 2.415 . S
O421 C409 1.239 . S
O422 Tb400 2.399 . S
O422 C409 1.263 . S
C423 O412 1.261 . S
C423 O413 1.257 . S
C424 C427 1.358 . S
C424 C428 1.332 . S
C424 C430 1.504 . S
C425 C426 1.373 . S
C425 C429 1.308 . S
C426 C425 1.373 . S
C426 C427 1.429 . S
C426 H436 0.932 . S
C427 C424 1.358 . S
C427 C426 1.429 . S
C427 H437 0.930 . S
C428 C424 1.332 . S
C428 C429 1.394 . S
C428 H438 0.932 . S
C429 C425 1.308 . S
C429 C428 1.394 . S
C429 H439 0.929 . S
C430 Tb401 2.764 . S
C430 O414 1.239 . S
C430 O415 1.263 . S
C430 C424 1.504 . S
C431 O416 1.236 . S
C431 O417 1.257 . S
H432 C405 0.932 . S
H433 C406 0.930 . S
H434 C407 0.932 . S
H435 C408 0.929 . S
H436 C426 0.932 . S
H437 C427 0.930 . S
H438 C428 0.932 . S
H439 C429 0.929 . S
Tb440 C449 2.764 . S
Tb440 O450 2.325 1_655 S
Tb440 O453 2.303 1_655 S
Tb440 O457 2.322 . S
Tb440 O458 2.349 . S
Tb440 O461 2.415 1_655 S
Tb440 O462 2.399 . S
Tb441 O451 2.322 . S
Tb441 O452 2.349 . S
Tb441 O454 2.415 1_455 S
Tb441 O455 2.399 . S
Tb441 O456 2.325 1_455 S
Tb441 O459 2.303 1_455 S
Tb441 C470 2.764 . S
C442 O458 1.261 . S
C442 O459 1.257 . S
C443 C446 1.358 1_455 S
C443 C447 1.332 . S
C443 C449 1.504 1_455 S
C444 C445 1.373 1_455 S
C444 C448 1.308 . S
C445 C444 1.373 1_655 S
C445 C446 1.429 . S
C445 H472 0.932 . S
C446 C443 1.358 1_655 S
C446 C445 1.429 . S
C446 H473 0.930 . S
C447 C443 1.332 . S
C447 C448 1.394 . S
C447 H474 0.932 . S
C448 C444 1.308 . S
C448 C447 1.394 . S
C448 H475 0.929 . S
C449 Tb440 2.764 . S
C449 C443 1.504 1_655 S
C449 O461 1.239 1_655 S
C449 O462 1.263 . S
O450 Tb440 2.325 1_455 S
O450 C460 1.236 . S
O451 Tb441 2.322 . S
O451 C460 1.257 . S
O452 Tb441 2.349 . S
O452 C463 1.261 . S
O453 Tb440 2.303 1_455 S
O453 C463 1.257 . S
O454 Tb441 2.415 1_655 S
O454 C470 1.239 1_655 S
O455 Tb441 2.399 . S
O455 C470 1.263 . S
O456 Tb441 2.325 1_655 S
O456 C471 1.236 . S
O457 Tb440 2.322 . S
O457 C471 1.257 . S
O458 Tb440 2.349 . S
O458 C442 1.261 . S
O459 Tb441 2.303 1_655 S
O459 C442 1.257 . S
C460 O450 1.236 . S
C460 O451 1.257 . S
O461 Tb440 2.415 1_455 S
O461 C449 1.239 1_455 S
O462 Tb440 2.399 . S
O462 C449 1.263 . S
C463 O452 1.261 . S
C463 O453 1.257 . S
C464 C467 1.358 1_655 S
C464 C468 1.332 . S
C464 C470 1.504 1_655 S
C465 C466 1.373 1_655 S
C465 C469 1.308 . S
C466 C465 1.373 1_455 S
C466 C467 1.429 . S
C466 H476 0.932 . S
C467 C464 1.358 1_455 S
C467 C466 1.429 . S
C467 H477 0.930 . S
C468 C464 1.332 . S
C468 C469 1.394 . S
C468 H478 0.932 . S
C469 C465 1.308 . S
C469 C468 1.394 . S
C469 H479 0.929 . S
C470 Tb441 2.764 . S
C470 O454 1.239 1_455 S
C470 O455 1.263 . S
C470 C464 1.504 1_455 S
C471 O456 1.236 . S
C471 O457 1.257 . S
H472 C445 0.932 . S
H473 C446 0.930 . S
H474 C447 0.932 . S
H475 C448 0.929 . S
H476 C466 0.932 . S
H477 C467 0.930 . S
H478 C468 0.932 . S
H479 C469 0.929 . S
Tb480 C489 2.764 . S
Tb480 O490 2.325 . S
Tb480 O493 2.303 . S
Tb480 O497 2.322 . S
Tb480 O498 2.349 . S
Tb480 O501 2.415 . S
Tb480 O502 2.399 . S
Tb481 O491 2.322 . S
Tb481 O492 2.349 . S
Tb481 O494 2.415 . S
Tb481 O495 2.399 . S
Tb481 O496 2.325 . S
Tb481 O499 2.303 . S
Tb481 C510 2.764 . S
C482 O498 1.261 . S
C482 O499 1.257 . S
C483 C486 1.358 . S
C483 C487 1.332 . S
C483 C489 1.504 . S
C484 C485 1.373 . S
C484 C488 1.308 . S
C485 C484 1.373 . S
C485 C486 1.429 . S
C485 H512 0.932 . S
C486 C483 1.358 . S
C486 C485 1.429 . S
C486 H513 0.930 . S
C487 C483 1.332 . S
C487 C488 1.394 . S
C487 H514 0.932 . S
C488 C484 1.308 . S
C488 C487 1.394 . S
C488 H515 0.929 . S
C489 Tb480 2.764 . S
C489 C483 1.504 . S
C489 O501 1.239 . S
C489 O502 1.263 . S
O490 Tb480 2.325 . S
O490 C500 1.236 . S
O491 Tb481 2.322 . S
O491 C500 1.257 . S
O492 Tb481 2.349 . S
O492 C503 1.261 . S
O493 Tb480 2.303 . S
O493 C503 1.257 . S
O494 Tb481 2.415 . S
O494 C510 1.239 . S
O495 Tb481 2.399 . S
O495 C510 1.263 . S
O496 Tb481 2.325 . S
O496 C511 1.236 . S
O497 Tb480 2.322 . S
O497 C511 1.257 . S
O498 Tb480 2.349 . S
O498 C482 1.261 . S
O499 Tb481 2.303 . S
O499 C482 1.257 . S
C500 O490 1.236 . S
C500 O491 1.257 . S
O501 Tb480 2.415 . S
O501 C489 1.239 . S
O502 Tb480 2.399 . S
O502 C489 1.263 . S
C503 O492 1.261 . S
C503 O493 1.257 . S
C504 C507 1.358 . S
C504 C508 1.332 . S
C504 C510 1.504 . S
C505 C506 1.373 . S
C505 C509 1.308 . S
C506 C505 1.373 . S
C506 C507 1.429 . S
C506 H516 0.932 . S
C507 C504 1.358 . S
C507 C506 1.429 . S
C507 H517 0.930 . S
C508 C504 1.332 . S
C508 C509 1.394 . S
C508 H518 0.932 . S
C509 C505 1.308 . S
C509 C508 1.394 . S
C509 H519 0.929 . S
C510 Tb481 2.764 . S
C510 O494 1.239 . S
C510 O495 1.263 . S
C510 C504 1.504 . S
C511 O496 1.236 . S
C511 O497 1.257 . S
H512 C485 0.932 . S
H513 C486 0.930 . S
H514 C487 0.932 . S
H515 C488 0.929 . S
H516 C506 0.932 . S
H517 C507 0.930 . S
H518 C508 0.932 . S
H519 C509 0.929 . S
Tb520 C529 2.764 . S
Tb520 O530 2.325 1_554 S
Tb520 O533 2.303 1_554 S
Tb520 O537 2.322 . S
Tb520 O538 2.349 . S
Tb520 O541 2.415 . S
Tb520 O542 2.399 . S
Tb521 O531 2.322 . S
Tb521 O532 2.349 . S
Tb521 O534 2.415 . S
Tb521 O535 2.399 . S
Tb521 O536 2.325 1_556 S
Tb521 O539 2.303 1_556 S
Tb521 C550 2.764 . S
C522 O538 1.261 . S
C522 O539 1.257 . S
C523 C526 1.358 . S
C523 C527 1.332 . S
C523 C529 1.504 . S
C524 C525 1.373 . S
C524 C528 1.308 . S
C525 C524 1.373 . S
C525 C526 1.429 . S
C525 H552 0.932 . S
C526 C523 1.358 . S
C526 C525 1.429 . S
C526 H553 0.930 . S
C527 C523 1.332 . S
C527 C528 1.394 . S
C527 H554 0.932 1_554 S
C528 C524 1.308 . S
C528 C527 1.394 . S
C528 H555 0.929 1_554 S
C529 Tb520 2.764 . S
C529 C523 1.504 . S
C529 O541 1.239 . S
C529 O542 1.263 . S
O530 Tb520 2.325 1_556 S
O530 C540 1.236 . S
O531 Tb521 2.322 . S
O531 C540 1.257 . S
O532 Tb521 2.349 . S
O532 C543 1.261 . S
O533 Tb520 2.303 1_556 S
O533 C543 1.257 . S
O534 Tb521 2.415 . S
O534 C550 1.239 . S
O535 Tb521 2.399 . S
O535 C550 1.263 . S
O536 Tb521 2.325 1_554 S
O536 C551 1.236 . S
O537 Tb520 2.322 . S
O537 C551 1.257 . S
O538 Tb520 2.349 . S
O538 C522 1.261 . S
O539 Tb521 2.303 1_554 S
O539 C522 1.257 . S
C540 O530 1.236 . S
C540 O531 1.257 . S
O541 Tb520 2.415 . S
O541 C529 1.239 . S
O542 Tb520 2.399 . S
O542 C529 1.263 . S
C543 O532 1.261 . S
C543 O533 1.257 . S
C544 C547 1.358 . S
C544 C548 1.332 . S
C544 C550 1.504 . S
C545 C546 1.373 . S
C545 C549 1.308 . S
C546 C545 1.373 . S
C546 C547 1.429 . S
C546 H556 0.932 . S
C547 C544 1.358 . S
C547 C546 1.429 . S
C547 H557 0.930 . S
C548 C544 1.332 . S
C548 C549 1.394 . S
C548 H558 0.932 1_556 S
C549 C545 1.308 . S
C549 C548 1.394 . S
C549 H559 0.929 1_556 S
C550 Tb521 2.764 . S
C550 O534 1.239 . S
C550 O535 1.263 . S
C550 C544 1.504 . S
C551 O536 1.236 . S
C551 O537 1.257 . S
H552 C525 0.932 . S
H553 C526 0.930 . S
H554 C527 0.932 1_556 S
H555 C528 0.929 1_556 S
H556 C546 0.932 . S
H557 C547 0.930 . S
H558 C548 0.932 1_554 S
H559 C549 0.929 1_554 S
Tb560 C569 2.764 . S
Tb560 O570 2.325 . S
Tb560 O573 2.303 1_545 S
Tb560 O577 2.322 1_545 S
Tb560 O578 2.349 . S
Tb560 O581 2.415 . S
Tb560 O582 2.399 . S
Tb561 O571 2.322 1_565 S
Tb561 O572 2.349 . S
Tb561 O574 2.415 . S
Tb561 O575 2.399 . S
Tb561 O576 2.325 . S
Tb561 O579 2.303 1_565 S
Tb561 C590 2.764 . S
C562 O578 1.261 . S
C562 O579 1.257 . S
C563 C566 1.358 . S
C563 C567 1.332 . S
C563 C569 1.504 . S
C564 C565 1.373 . S
C564 C568 1.308 . S
C565 C564 1.373 . S
C565 C566 1.429 . S
C565 H592 0.932 . S
C566 C563 1.358 . S
C566 C565 1.429 . S
C566 H593 0.930 . S
C567 C563 1.332 . S
C567 C568 1.394 . S
C567 H594 0.932 . S
C568 C564 1.308 . S
C568 C567 1.394 . S
C568 H595 0.929 . S
C569 Tb560 2.764 . S
C569 C563 1.504 . S
C569 O581 1.239 . S
C569 O582 1.263 . S
O570 Tb560 2.325 . S
O570 C580 1.236 . S
O571 Tb561 2.322 1_545 S
O571 C580 1.257 . S
O572 Tb561 2.349 . S
O572 C583 1.261 . S
O573 Tb560 2.303 1_565 S
O573 C583 1.257 . S
O574 Tb561 2.415 . S
O574 C590 1.239 . S
O575 Tb561 2.399 . S
O575 C590 1.263 . S
O576 Tb561 2.325 . S
O576 C591 1.236 . S
O577 Tb560 2.322 1_565 S
O577 C591 1.257 . S
O578 Tb560 2.349 . S
O578 C562 1.261 . S
O579 Tb561 2.303 1_545 S
O579 C562 1.257 . S
C580 O570 1.236 . S
C580 O571 1.257 . S
O581 Tb560 2.415 . S
O581 C569 1.239 . S
O582 Tb560 2.399 . S
O582 C569 1.263 . S
C583 O572 1.261 . S
C583 O573 1.257 . S
C584 C587 1.358 . S
C584 C588 1.332 . S
C584 C590 1.504 . S
C585 C586 1.373 . S
C585 C589 1.308 . S
C586 C585 1.373 . S
C586 C587 1.429 . S
C586 H596 0.932 . S
C587 C584 1.358 . S
C587 C586 1.429 . S
C587 H597 0.930 . S
C588 C584 1.332 . S
C588 C589 1.394 . S
C588 H598 0.932 . S
C589 C585 1.308 . S
C589 C588 1.394 . S
C589 H599 0.929 . S
C590 Tb561 2.764 . S
C590 O574 1.239 . S
C590 O575 1.263 . S
C590 C584 1.504 . S
C591 O576 1.236 . S
C591 O577 1.257 . S
H592 C565 0.932 . S
H593 C566 0.930 . S
H594 C567 0.932 . S
H595 C568 0.929 . S
H596 C586 0.932 . S
H597 C587 0.930 . S
H598 C588 0.932 . S
H599 C589 0.929 . S
Tb600 C609 2.764 . S
Tb600 O610 2.325 1_556 S
Tb600 O613 2.303 1_556 S
Tb600 O617 2.322 . S
Tb600 O618 2.349 . S
Tb600 O621 2.415 . S
Tb600 O622 2.399 . S
Tb601 O611 2.322 . S
Tb601 O612 2.349 . S
Tb601 O614 2.415 . S
Tb601 O615 2.399 . S
Tb601 O616 2.325 1_554 S
Tb601 O619 2.303 1_554 S
Tb601 C630 2.764 . S
C602 O618 1.261 . S
C602 O619 1.257 . S
C603 C606 1.358 . S
C603 C607 1.332 . S
C603 C609 1.504 . S
C604 C605 1.373 . S
C604 C608 1.308 . S
C605 C604 1.373 . S
C605 C606 1.429 . S
C605 H632 0.932 . S
C606 C603 1.358 . S
C606 C605 1.429 . S
C606 H633 0.930 . S
C607 C603 1.332 . S
C607 C608 1.394 . S
C607 H634 0.932 . S
C608 C604 1.308 . S
C608 C607 1.394 . S
C608 H635 0.929 . S
C609 Tb600 2.764 . S
C609 C603 1.504 . S
C609 O621 1.239 . S
C609 O622 1.263 . S
O610 Tb600 2.325 1_554 S
O610 C620 1.236 . S
O611 Tb601 2.322 . S
O611 C620 1.257 . S
O612 Tb601 2.349 . S
O612 C623 1.261 . S
O613 Tb600 2.303 1_554 S
O613 C623 1.257 . S
O614 Tb601 2.415 . S
O614 C630 1.239 . S
O615 Tb601 2.399 . S
O615 C630 1.263 . S
O616 Tb601 2.325 1_556 S
O616 C631 1.236 . S
O617 Tb600 2.322 . S
O617 C631 1.257 . S
O618 Tb600 2.349 . S
O618 C602 1.261 . S
O619 Tb601 2.303 1_556 S
O619 C602 1.257 . S
C620 O610 1.236 . S
C620 O611 1.257 . S
O621 Tb600 2.415 . S
O621 C609 1.239 . S
O622 Tb600 2.399 . S
O622 C609 1.263 . S
C623 O612 1.261 . S
C623 O613 1.257 . S
C624 C627 1.358 . S
C624 C628 1.332 . S
C624 C630 1.504 . S
C625 C626 1.373 . S
C625 C629 1.308 . S
C626 C625 1.373 . S
C626 C627 1.429 . S
C626 H636 0.932 . S
C627 C624 1.358 . S
C627 C626 1.429 . S
C627 H637 0.930 . S
C628 C624 1.332 . S
C628 C629 1.394 . S
C628 H638 0.932 . S
C629 C625 1.308 . S
C629 C628 1.394 . S
C629 H639 0.929 . S
C630 Tb601 2.764 . S
C630 O614 1.239 . S
C630 O615 1.263 . S
C630 C624 1.504 . S
C631 O616 1.236 . S
C631 O617 1.257 . S
H632 C605 0.932 . S
H633 C606 0.930 . S
H634 C607 0.932 . S
H635 C608 0.929 . S
H636 C626 0.932 . S
H637 C627 0.930 . S
H638 C628 0.932 . S
H639 C629 0.929 . S
C640 C641 1.369 1_455 S
C640 C642 1.419 . S
C640 H644 0.930 . S
C641 C640 1.369 1_655 S
C641 C650 1.429 . S
C642 C640 1.419 . S
C642 C643 1.363 . S
C642 H645 0.929 . S
C643 C642 1.363 . S
C643 C649 1.428 1_455 S
H644 C640 0.930 . S
H645 C642 0.929 . S
S646 N647 1.613 . S
S646 N648 1.610 . S
N647 S646 1.613 . S
N647 C650 1.350 . S
N648 S646 1.610 . S
N648 C649 1.351 . S
C649 C643 1.428 1_655 S
C649 N648 1.351 . S
C649 C650 1.434 . S
C650 C641 1.429 . S
C650 N647 1.350 . S
C650 C649 1.434 . S
C651 C652 1.369 . S
C651 C653 1.419 . S
C651 H655 0.930 . S
C652 C651 1.369 . S
C652 C661 1.429 . S
C653 C651 1.419 . S
C653 C654 1.363 . S
C653 H656 0.929 . S
C654 C653 1.363 . S
C654 C660 1.428 . S
H655 C651 0.930 . S
H656 C653 0.929 . S
S657 N658 1.613 . S
S657 N659 1.610 . S
N658 S657 1.613 . S
N658 C661 1.350 . S
N659 S657 1.610 . S
N659 C660 1.351 . S
C660 C654 1.428 . S
C660 N659 1.351 . S
C660 C661 1.434 . S
C661 C652 1.429 . S
C661 N658 1.350 . S
C661 C660 1.434 . S
C662 C663 1.369 . S
C662 C664 1.419 . S
C662 H666 0.930 . S
C663 C662 1.369 . S
C663 C672 1.429 . S
C664 C662 1.419 . S
C664 C665 1.363 . S
C664 H667 0.929 . S
C665 C664 1.363 . S
C665 C671 1.428 . S
H666 C662 0.930 . S
H667 C664 0.929 . S
S668 N669 1.613 . S
S668 N670 1.610 . S
N669 S668 1.613 . S
N669 C672 1.350 . S
N670 S668 1.610 . S
N670 C671 1.351 . S
C671 C665 1.428 . S
C671 N670 1.351 . S
C671 C672 1.434 . S
C672 C663 1.429 . S
C672 N669 1.350 . S
C672 C671 1.434 . S
C673 C674 1.369 . S
C673 C675 1.419 . S
C673 H677 0.930 . S
C674 C673 1.369 . S
C674 C683 1.429 1_545 S
C675 C673 1.419 . S
C675 C676 1.363 1_545 S
C675 H678 0.929 . S
C676 C675 1.363 1_565 S
C676 C682 1.428 . S
H677 C673 0.930 . S
H678 C675 0.929 . S
S679 N680 1.613 1_554 S
S679 N681 1.627 . S
N680 S679 1.613 1_556 S
N680 C683 1.350 . S
N681 S679 1.627 . S
N681 C682 1.337 1_554 S
C682 C676 1.428 . S
C682 N681 1.337 1_556 S
C682 C683 1.434 . S
C683 C674 1.429 1_565 S
C683 N680 1.350 . S
C683 C682 1.434 . S
C684 C685 1.369 . S
C684 C686 1.419 . S
C684 H688 0.930 . S
C685 C684 1.369 . S
C685 C694 1.429 1_565 S
C686 C684 1.419 . S
C686 C687 1.363 1_565 S
C686 H689 0.929 . S
C687 C686 1.363 1_545 S
C687 C693 1.428 . S
H688 C684 0.930 . S
H689 C686 0.929 . S
S690 N691 1.613 . S
S690 N692 1.610 . S
N691 S690 1.613 . S
N691 C694 1.350 . S
N692 S690 1.610 . S
N692 C693 1.351 . S
C693 C687 1.428 . S
C693 N692 1.351 . S
C693 C694 1.434 . S
C694 C685 1.429 1_545 S
C694 N691 1.350 . S
C694 C693 1.434 . S
C695 C696 1.369 . S
C695 C697 1.419 . S
C695 H699 0.930 . S
C696 C695 1.369 . S
C696 C705 1.429 1_455 S
C697 C695 1.419 . S
C697 C698 1.363 1_455 S
C697 H700 0.929 . S
C698 C697 1.363 1_655 S
C698 C704 1.428 . S
H699 C695 0.930 . S
H700 C697 0.929 . S
S701 N702 1.613 . S
S701 N703 1.610 . S
N702 S701 1.613 . S
N702 C705 1.350 . S
N703 S701 1.610 . S
N703 C704 1.351 . S
C704 C698 1.428 . S
C704 N703 1.351 . S
C704 C705 1.434 . S
C705 C696 1.429 1_655 S
C705 N702 1.350 . S
C705 C704 1.434 . S
C706 C707 1.369 . S
C706 C708 1.419 . S
C706 H710 0.930 . S
C707 C706 1.369 . S
C707 C716 1.429 . S
C708 C706 1.419 . S
C708 C709 1.363 . S
C708 H711 0.929 . S
C709 C708 1.363 . S
C709 C715 1.428 . S
H710 C706 0.930 . S
H711 C708 0.929 . S
S712 N713 1.613 . S
S712 N714 1.610 . S
N713 S712 1.613 . S
N713 C716 1.350 . S
N714 S712 1.610 . S
N714 C715 1.351 . S
C715 C709 1.428 . S
C715 N714 1.351 . S
C715 C716 1.434 . S
C716 C707 1.429 . S
C716 N713 1.350 . S
C716 C715 1.434 . S
C717 C718 1.369 . S
C717 C719 1.419 . S
C717 H721 0.930 . S
C718 C717 1.369 . S
C718 C727 1.429 . S
C719 C717 1.419 . S
C719 C720 1.363 . S
C719 H722 0.929 . S
C720 C719 1.363 . S
C720 C726 1.428 . S
H721 C717 0.930 . S
H722 C719 0.929 . S
S723 N724 1.613 . S
S723 N725 1.610 . S
N724 S723 1.613 . S
N724 C727 1.350 . S
N725 S723 1.610 . S
N725 C726 1.351 . S
C726 C720 1.428 . S
C726 N725 1.351 . S
C726 C727 1.434 . S
C727 C718 1.429 . S
C727 N724 1.350 . S
C727 C726 1.434 . S
C728 C729 1.369 . S
C728 C730 1.419 . S
C728 H732 0.930 . S
C729 C728 1.369 . S
C729 C738 1.429 . S
C730 C728 1.419 . S
C730 C731 1.363 . S
C730 H733 0.929 . S
C731 C730 1.363 . S
C731 C737 1.428 . S
H732 C728 0.930 . S
H733 C730 0.929 . S
S734 N735 1.613 . S
S734 N736 1.610 . S
N735 S734 1.613 . S
N735 C738 1.350 . S
N736 S734 1.610 . S
N736 C737 1.351 . S
C737 C731 1.428 . S
C737 N736 1.351 . S
C737 C738 1.434 . S
C738 C729 1.429 . S
C738 N735 1.350 . S
C738 C737 1.434 . S
C739 C740 1.369 . S
C739 C741 1.419 . S
C739 H743 0.930 . S
C740 C739 1.369 . S
C740 C749 1.429 . S
C741 C739 1.419 . S
C741 C742 1.363 . S
C741 H744 0.929 . S
C742 C741 1.363 . S
C742 C748 1.428 . S
H743 C739 0.930 . S
H744 C741 0.929 . S
S745 N746 1.613 . S
S745 N747 1.610 . S
N746 S745 1.613 . S
N746 C749 1.350 . S
N747 S745 1.610 . S
N747 C748 1.351 . S
C748 C742 1.428 . S
C748 N747 1.351 . S
C748 C749 1.434 . S
C749 C740 1.429 . S
C749 N746 1.350 . S
C749 C748 1.434 . S
C750 C751 1.369 1_545 S
C750 C752 1.419 . S
C750 H754 0.930 . S
C751 C750 1.369 1_565 S
C751 C760 1.429 . S
C752 C750 1.419 . S
C752 C753 1.363 . S
C752 H755 0.929 . S
C753 C752 1.363 . S
C753 C759 1.428 1_545 S
H754 C750 0.930 . S
H755 C752 0.929 . S
S756 N757 1.613 . S
S756 N758 1.610 . S
N757 S756 1.613 . S
N757 C760 1.350 . S
N758 S756 1.610 . S
N758 C759 1.351 . S
C759 C753 1.428 1_565 S
C759 N758 1.351 . S
C759 C760 1.434 . S
C760 C751 1.429 . S
C760 N757 1.350 . S
C760 C759 1.434 . S
C761 C762 1.369 1_655 S
C761 C763 1.419 . S
C761 H765 0.930 . S
C762 C761 1.369 1_455 S
C762 C771 1.429 . S
C763 C761 1.419 . S
C763 C764 1.363 . S
C763 H766 0.929 . S
C764 C763 1.363 . S
C764 C770 1.428 1_655 S
H765 C761 0.930 . S
H766 C763 0.929 . S
S767 N768 1.613 . S
S767 N769 1.610 . S
N768 S767 1.613 . S
N768 C771 1.350 . S
N769 S767 1.610 . S
N769 C770 1.351 . S
C770 C764 1.428 1_455 S
C770 N769 1.351 . S
C770 C771 1.434 . S
C771 C762 1.429 . S
C771 N768 1.350 . S
C771 C770 1.434 . S
C772 C773 1.369 . S
C772 C774 1.419 . S
C772 H776 0.930 . S
C773 C772 1.369 . S
C773 C782 1.429 . S
C774 C772 1.419 . S
C774 C775 1.363 . S
C774 H777 0.929 . S
C775 C774 1.363 . S
C775 C781 1.428 . S
H776 C772 0.930 . S
H777 C774 0.929 . S
S778 N779 1.613 . S
S778 N780 1.610 . S
N779 S778 1.613 . S
N779 C782 1.350 . S
N780 S778 1.610 . S
N780 C781 1.351 . S
C781 C775 1.428 . S
C781 N780 1.351 . S
C781 C782 1.434 . S
C782 C773 1.429 . S
C782 N779 1.350 . S
C782 C781 1.434 . S
C783 C784 1.369 . S
C783 C785 1.419 . S
C783 H787 0.930 . S
C784 C783 1.369 . S
C784 C793 1.429 . S
C785 C783 1.419 . S
C785 C786 1.363 . S
C785 H788 0.929 . S
C786 C785 1.363 . S
C786 C792 1.428 . S
H787 C783 0.930 . S
H788 C785 0.929 . S
S789 N790 1.613 . S
S789 N791 1.610 . S
N790 S789 1.613 . S
N790 C793 1.350 . S
N791 S789 1.610 . S
N791 C792 1.351 . S
C792 C786 1.428 . S
C792 N791 1.351 . S
C792 C793 1.434 . S
C793 C784 1.429 . S
C793 N790 1.350 . S
C793 C792 1.434 . S
C794 C795 1.369 . S
C794 C796 1.419 . S
C794 H798 0.930 . S
C795 C794 1.369 . S
C795 C804 1.429 . S
C796 C794 1.419 . S
C796 C797 1.363 . S
C796 H799 0.929 . S
C797 C796 1.363 . S
C797 C803 1.428 . S
H798 C794 0.930 . S
H799 C796 0.929 . S
S800 N801 1.613 . S
S800 N802 1.610 . S
N801 S800 1.613 . S
N801 C804 1.350 . S
N802 S800 1.610 . S
N802 C803 1.351 . S
C803 C797 1.428 . S
C803 N802 1.351 . S
C803 C804 1.434 . S
C804 C795 1.429 . S
C804 N801 1.350 . S
C804 C803 1.434 . S
C805 C806 1.369 . S
C805 C807 1.419 . S
C805 H809 0.930 . S
C806 C805 1.369 . S
C806 C815 1.429 . S
C807 C805 1.419 . S
C807 C808 1.363 . S
C807 H810 0.929 . S
C808 C807 1.363 . S
C808 C814 1.428 . S
H809 C805 0.930 . S
H810 C807 0.929 . S
S811 N812 1.613 . S
S811 N813 1.610 . S
N812 S811 1.613 . S
N812 C815 1.350 . S
N813 S811 1.610 . S
N813 C814 1.351 . S
C814 C808 1.428 . S
C814 N813 1.351 . S
C814 C815 1.434 . S
C815 C806 1.429 . S
C815 N812 1.350 . S
C815 C814 1.434 . S
C816 C817 1.369 . S
C816 C818 1.419 . S
C816 H820 0.930 . S
C817 C816 1.369 . S
C817 C826 1.429 . S
C818 C816 1.419 . S
C818 C819 1.363 . S
C818 H821 0.929 . S
C819 C818 1.363 . S
C819 C825 1.428 . S
H820 C816 0.930 . S
H821 C818 0.929 . S
S822 N823 1.613 . S
S822 N824 1.610 . S
N823 S822 1.613 . S
N823 C826 1.350 . S
N824 S822 1.610 . S
N824 C825 1.351 . S
C825 C819 1.428 . S
C825 N824 1.351 . S
C825 C826 1.434 . S
C826 C817 1.429 . S
C826 N823 1.350 . S
C826 C825 1.434 . S
C827 C828 1.369 . S
C827 C829 1.419 . S
C827 H831 0.930 . S
C828 C827 1.369 . S
C828 C837 1.429 . S
C829 C827 1.419 . S
C829 C830 1.363 . S
C829 H832 0.929 . S
C830 C829 1.363 . S
C830 C836 1.428 . S
H831 C827 0.930 . S
H832 C829 0.929 . S
S833 N834 1.613 . S
S833 N835 1.610 . S
N834 S833 1.613 . S
N834 C837 1.350 . S
N835 S833 1.610 . S
N835 C836 1.351 . S
C836 C830 1.428 . S
C836 N835 1.351 . S
C836 C837 1.434 . S
C837 C828 1.429 . S
C837 N834 1.350 . S
C837 C836 1.434 . S
C838 C839 1.369 . S
C838 C840 1.419 . S
C838 H842 0.930 . S
C839 C838 1.369 . S
C839 C848 1.429 . S
C840 C838 1.419 . S
C840 C841 1.363 . S
C840 H843 0.929 . S
C841 C840 1.363 . S
C841 C847 1.428 . S
H842 C838 0.930 . S
H843 C840 0.929 . S
S844 N845 1.613 . S
S844 N846 1.610 . S
N845 S844 1.613 . S
N845 C848 1.350 . S
N846 S844 1.610 . S
N846 C847 1.351 . S
C847 C841 1.428 . S
C847 N846 1.351 . S
C847 C848 1.434 . S
C848 C839 1.429 . S
C848 N845 1.350 . S
C848 C847 1.434 . S
C849 C850 1.369 . S
C849 C851 1.419 . S
C849 H853 0.930 . S
C850 C849 1.369 . S
C850 C859 1.429 . S
C851 C849 1.419 . S
C851 C852 1.363 . S
C851 H854 0.929 . S
C852 C851 1.363 . S
C852 C858 1.428 . S
H853 C849 0.930 . S
H854 C851 0.929 . S
S855 N856 1.613 . S
S855 N857 1.610 . S
N856 S855 1.613 . S
N856 C859 1.350 . S
N857 S855 1.610 . S
N857 C858 1.351 . S
C858 C852 1.428 . S
C858 N857 1.351 . S
C858 C859 1.434 . S
C859 C850 1.429 . S
C859 N856 1.350 . S
C859 C858 1.434 . S
C860 C861 1.369 . S
C860 C862 1.419 . S
C860 H864 0.930 . S
C861 C860 1.369 . S
C861 C870 1.429 . S
C862 C860 1.419 . S
C862 C863 1.363 . S
C862 H865 0.929 . S
C863 C862 1.363 . S
C863 C869 1.428 . S
H864 C860 0.930 . S
H865 C862 0.929 . S
S866 N867 1.613 . S
S866 N868 1.610 . S
N867 S866 1.613 . S
N867 C870 1.350 . S
N868 S866 1.610 . S
N868 C869 1.351 . S
C869 C863 1.428 . S
C869 N868 1.351 . S
C869 C870 1.434 . S
C870 C861 1.429 . S
C870 N867 1.350 . S
C870 C869 1.434 . S
C871 C872 1.369 . S
C871 C873 1.419 . S
C871 H875 0.930 . S
C872 C871 1.369 . S
C872 C881 1.429 1_455 S
C873 C871 1.419 . S
C873 C874 1.363 1_455 S
C873 H876 0.929 . S
C874 C873 1.363 1_655 S
C874 C880 1.428 . S
H875 C871 0.930 . S
H876 C873 0.929 . S
S877 N878 1.613 . S
S877 N879 1.610 . S
N878 S877 1.613 . S
N878 C881 1.350 . S
N879 S877 1.610 . S
N879 C880 1.351 . S
C880 C874 1.428 . S
C880 N879 1.351 . S
C880 C881 1.434 . S
C881 C872 1.429 1_655 S
C881 N878 1.350 . S
C881 C880 1.434 . S
C882 C883 1.369 . S
C882 C884 1.419 . S
C882 H886 0.930 . S
C883 C882 1.369 . S
C883 C892 1.429 . S
C884 C882 1.419 . S
C884 C885 1.363 . S
C884 H887 0.929 . S
C885 C884 1.363 . S
C885 C891 1.428 . S
H886 C882 0.930 . S
H887 C884 0.929 . S
S888 N889 1.613 . S
S888 N890 1.610 . S
N889 S888 1.613 . S
N889 C892 1.350 . S
N890 S888 1.610 . S
N890 C891 1.351 . S
C891 C885 1.428 . S
C891 N890 1.351 . S
C891 C892 1.434 . S
C892 C883 1.429 . S
C892 N889 1.350 . S
C892 C891 1.434 . S
C893 C894 1.369 . S
C893 C895 1.419 . S
C893 H897 0.930 . S
C894 C893 1.369 . S
C894 C903 1.429 . S
C895 C893 1.419 . S
C895 C896 1.363 . S
C895 H898 0.929 . S
C896 C895 1.363 . S
C896 C902 1.428 . S
H897 C893 0.930 . S
H898 C895 0.929 . S
S899 N900 1.613 . S
S899 N901 1.610 . S
N900 S899 1.613 . S
N900 C903 1.350 . S
N901 S899 1.610 . S
N901 C902 1.351 . S
C902 C896 1.428 . S
C902 N901 1.351 . S
C902 C903 1.434 . S
C903 C894 1.429 . S
C903 N900 1.350 . S
C903 C902 1.434 . S
C904 C905 1.369 . S
C904 C906 1.419 . S
C904 H908 0.930 . S
C905 C904 1.369 . S
C905 C914 1.429 . S
C906 C904 1.419 . S
C906 C907 1.363 . S
C906 H909 0.929 . S
C907 C906 1.363 . S
C907 C913 1.428 . S
H908 C904 0.930 . S
H909 C906 0.929 . S
S910 N911 1.613 . S
S910 N912 1.610 . S
N911 S910 1.613 . S
N911 C914 1.350 . S
N912 S910 1.610 . S
N912 C913 1.351 . S
C913 C907 1.428 . S
C913 N912 1.351 . S
C913 C914 1.434 . S
C914 C905 1.429 . S
C914 N911 1.350 . S
C914 C913 1.434 . S
C915 C916 1.369 . S
C915 C917 1.419 . S
C915 H919 0.930 . S
C916 C915 1.369 . S
C916 C925 1.429 . S
C917 C915 1.419 . S
C917 C918 1.363 . S
C917 H920 0.929 . S
C918 C917 1.363 . S
C918 C924 1.428 . S
H919 C915 0.930 . S
H920 C917 0.929 . S
S921 N922 1.613 . S
S921 N923 1.610 . S
N922 S921 1.613 . S
N922 C925 1.350 . S
N923 S921 1.610 . S
N923 C924 1.351 . S
C924 C918 1.428 . S
C924 N923 1.351 . S
C924 C925 1.434 . S
C925 C916 1.429 . S
C925 N922 1.350 . S
C925 C924 1.434 . S
C926 C927 1.369 . S
C926 C928 1.419 . S
C926 H930 0.930 . S
C927 C926 1.369 . S
C927 C936 1.429 1_565 S
C928 C926 1.419 . S
C928 C929 1.363 1_565 S
C928 H931 0.929 . S
C929 C928 1.363 1_545 S
C929 C935 1.428 . S
H930 C926 0.930 . S
H931 C928 0.929 . S
S932 N933 1.613 . S
S932 N934 1.610 . S
N933 S932 1.613 . S
N933 C936 1.350 . S
N934 S932 1.610 . S
N934 C935 1.351 . S
C935 C929 1.428 . S
C935 N934 1.351 . S
C935 C936 1.434 . S
C936 C927 1.429 1_545 S
C936 N933 1.350 . S
C936 C935 1.434 . S
C937 C938 1.369 . S
C937 C939 1.419 . S
C937 H941 0.930 . S
C938 C937 1.369 . S
C938 C947 1.429 . S
C939 C937 1.419 . S
C939 C940 1.363 . S
C939 H942 0.929 . S
C940 C939 1.363 . S
C940 C946 1.428 . S
H941 C937 0.930 . S
H942 C939 0.929 . S
S943 N944 1.613 . S
S943 N945 1.610 . S
N944 S943 1.613 . S
N944 C947 1.350 . S
N945 S943 1.610 . S
N945 C946 1.351 . S
C946 C940 1.428 . S
C946 N945 1.351 . S
C946 C947 1.434 . S
C947 C938 1.429 . S
C947 N944 1.350 . S
C947 C946 1.434 . S
C948 C949 1.369 . S
C948 C950 1.419 . S
C948 H952 0.930 . S
C949 C948 1.369 . S
C949 C958 1.429 . S
C950 C948 1.419 . S
C950 C951 1.363 . S
C950 H953 0.929 . S
C951 C950 1.363 . S
C951 C957 1.428 . S
H952 C948 0.930 . S
H953 C950 0.929 . S
S954 N955 1.613 . S
S954 N956 1.610 . S
N955 S954 1.613 . S
N955 C958 1.350 . S
N956 S954 1.610 . S
N956 C957 1.351 . S
C957 C951 1.428 . S
C957 N956 1.351 . S
C957 C958 1.434 . S
C958 C949 1.429 . S
C958 N955 1.350 . S
C958 C957 1.434 . S
C959 C960 1.369 . S
C959 C961 1.419 . S
C959 H963 0.930 . S
C960 C959 1.369 . S
C960 C969 1.429 . S
C961 C959 1.419 . S
C961 C962 1.363 . S
C961 H964 0.929 . S
C962 C961 1.363 . S
C962 C968 1.428 . S
H963 C959 0.930 . S
H964 C961 0.929 . S
S965 N966 1.613 . S
S965 N967 1.610 . S
N966 S965 1.613 . S
N966 C969 1.350 . S
N967 S965 1.610 . S
N967 C968 1.351 . S
C968 C962 1.428 . S
C968 N967 1.351 . S
C968 C969 1.434 . S
C969 C960 1.429 . S
C969 N966 1.350 . S
C969 C968 1.434 . S
C970 C971 1.369 . S
C970 C972 1.419 . S
C970 H974 0.930 . S
C971 C970 1.369 . S
C971 C980 1.429 . S
C972 C970 1.419 . S
C972 C973 1.363 . S
C972 H975 0.929 . S
C973 C972 1.363 . S
C973 C979 1.428 . S
H974 C970 0.930 . S
H975 C972 0.929 . S
S976 N977 1.613 . S
S976 N978 1.610 . S
N977 S976 1.613 . S
N977 C980 1.350 . S
N978 S976 1.610 . S
N978 C979 1.351 . S
C979 C973 1.428 . S
C979 N978 1.351 . S
C979 C980 1.434 . S
C980 C971 1.429 . S
C980 N977 1.350 . S
C980 C979 1.434 . S
C981 C982 1.369 . S
C981 C983 1.419 . S
C981 H985 0.930 . S
C982 C981 1.369 . S
C982 C991 1.429 . S
C983 C981 1.419 . S
C983 C984 1.363 . S
C983 H986 0.929 . S
C984 C983 1.363 . S
C984 C990 1.428 . S
H985 C981 0.930 . S
H986 C983 0.929 . S
S987 N988 1.613 . S
S987 N989 1.610 . S
N988 S987 1.613 . S
N988 C991 1.350 . S
N989 S987 1.610 . S
N989 C990 1.351 . S
C990 C984 1.428 . S
C990 N989 1.351 . S
C990 C991 1.434 . S
C991 C982 1.429 . S
C991 N988 1.350 . S
C991 C990 1.434 . S
C992 C993 1.369 . S
C992 C994 1.419 . S
C992 H996 0.930 . S
C993 C992 1.369 . S
C993 C1002 1.429 . S
C994 C992 1.419 . S
C994 C995 1.363 . S
C994 H997 0.929 . S
C995 C994 1.363 . S
C995 C1001 1.428 . S
H996 C992 0.930 . S
H997 C994 0.929 . S
S998 N999 1.613 . S
S998 N1000 1.610 . S
N999 S998 1.613 . S
N999 C1002 1.350 . S
N1000 S998 1.610 . S
N1000 C1001 1.351 . S
C1001 C995 1.428 . S
C1001 N1000 1.351 . S
C1001 C1002 1.434 . S
C1002 C993 1.429 . S
C1002 N999 1.350 . S
C1002 C1001 1.434 . S
C1003 C1004 1.369 . S
C1003 C1005 1.419 . S
C1003 H1007 0.930 . S
C1004 C1003 1.369 . S
C1004 C1013 1.429 . S
C1005 C1003 1.419 . S
C1005 C1006 1.363 . S
C1005 H1008 0.929 . S
C1006 C1005 1.363 . S
C1006 C1012 1.428 . S
H1007 C1003 0.930 . S
H1008 C1005 0.929 . S
S1009 N1010 1.613 . S
S1009 N1011 1.610 . S
N1010 S1009 1.613 . S
N1010 C1013 1.350 . S
N1011 S1009 1.610 . S
N1011 C1012 1.351 . S
C1012 C1006 1.428 . S
C1012 N1011 1.351 . S
C1012 C1013 1.434 . S
C1013 C1004 1.429 . S
C1013 N1010 1.350 . S
C1013 C1012 1.434 . S
C1014 C1015 1.369 . S
C1014 C1016 1.419 . S
C1014 H1018 0.930 . S
C1015 C1014 1.369 . S
C1015 C1024 1.429 . S
C1016 C1014 1.419 . S
C1016 C1017 1.363 . S
C1016 H1019 0.929 . S
C1017 C1016 1.363 . S
C1017 C1023 1.428 . S
H1018 C1014 0.930 . S
H1019 C1016 0.929 . S
S1020 N1021 1.613 . S
S1020 N1022 1.610 . S
N1021 S1020 1.613 . S
N1021 C1024 1.350 . S
N1022 S1020 1.610 . S
N1022 C1023 1.351 . S
C1023 C1017 1.428 . S
C1023 N1022 1.351 . S
C1023 C1024 1.434 . S
C1024 C1015 1.429 . S
C1024 N1021 1.350 . S
C1024 C1023 1.434 . S
C1025 C1026 1.369 . S
C1025 C1027 1.419 . S
C1025 H1029 0.930 . S
C1026 C1025 1.369 . S
C1026 C1035 1.429 . S
C1027 C1025 1.419 . S
C1027 C1028 1.363 . S
C1027 H1030 0.929 . S
C1028 C1027 1.363 . S
C1028 C1034 1.428 . S
H1029 C1025 0.930 . S
H1030 C1027 0.929 . S
S1031 N1032 1.613 . S
S1031 N1033 1.610 . S
N1032 S1031 1.613 . S
N1032 C1035 1.350 . S
N1033 S1031 1.610 . S
N1033 C1034 1.351 . S
C1034 C1028 1.428 . S
C1034 N1033 1.351 . S
C1034 C1035 1.434 . S
C1035 C1026 1.429 . S
C1035 N1032 1.350 . S
C1035 C1034 1.434 . S
C1036 C1037 1.369 . S
C1036 C1038 1.419 . S
C1036 H1040 0.930 . S
C1037 C1036 1.369 . S
C1037 C1046 1.429 . S
C1038 C1036 1.419 . S
C1038 C1039 1.363 . S
C1038 H1041 0.929 . S
C1039 C1038 1.363 . S
C1039 C1045 1.428 . S
H1040 C1036 0.930 . S
H1041 C1038 0.929 . S
S1042 N1043 1.613 . S
S1042 N1044 1.610 . S
N1043 S1042 1.613 . S
N1043 C1046 1.350 . S
N1044 S1042 1.610 . S
N1044 C1045 1.351 . S
C1045 C1039 1.428 . S
C1045 N1044 1.351 . S
C1045 C1046 1.434 . S
C1046 C1037 1.429 . S
C1046 N1043 1.350 . S
C1046 C1045 1.434 . S
C1047 C1048 1.369 . S
C1047 C1049 1.419 . S
C1047 H1051 0.930 . S
C1048 C1047 1.369 . S
C1048 C1057 1.429 . S
C1049 C1047 1.419 . S
C1049 C1050 1.363 . S
C1049 H1052 0.929 . S
C1050 C1049 1.363 . S
C1050 C1056 1.428 . S
H1051 C1047 0.930 . S
H1052 C1049 0.929 . S
S1053 N1054 1.613 . S
S1053 N1055 1.610 . S
N1054 S1053 1.613 . S
N1054 C1057 1.350 . S
N1055 S1053 1.610 . S
N1055 C1056 1.351 . S
C1056 C1050 1.428 . S
C1056 N1055 1.351 . S
C1056 C1057 1.434 . S
C1057 C1048 1.429 . S
C1057 N1054 1.350 . S
C1057 C1056 1.434 . S
C1058 C1059 1.369 . S
C1058 C1060 1.419 . S
C1058 H1062 0.930 . S
C1059 C1058 1.369 . S
C1059 C1068 1.429 . S
C1060 C1058 1.419 . S
C1060 C1061 1.363 . S
C1060 H1063 0.929 . S
C1061 C1060 1.363 . S
C1061 C1067 1.428 . S
H1062 C1058 0.930 . S
H1063 C1060 0.929 . S
S1064 N1065 1.613 . S
S1064 N1066 1.610 . S
N1065 S1064 1.613 . S
N1065 C1068 1.350 . S
N1066 S1064 1.610 . S
N1066 C1067 1.351 . S
C1067 C1061 1.428 . S
C1067 N1066 1.351 . S
C1067 C1068 1.434 . S
C1068 C1059 1.429 . S
C1068 N1065 1.350 . S
C1068 C1067 1.434 . S
C1069 C1070 1.369 . S
C1069 C1071 1.419 . S
C1069 H1073 0.930 . S
C1070 C1069 1.369 . S
C1070 C1079 1.429 . S
C1071 C1069 1.419 . S
C1071 C1072 1.363 . S
C1071 H1074 0.929 . S
C1072 C1071 1.363 . S
C1072 C1078 1.428 . S
H1073 C1069 0.930 . S
H1074 C1071 0.929 . S
S1075 N1076 1.613 . S
S1075 N1077 1.610 . S
N1076 S1075 1.613 . S
N1076 C1079 1.350 . S
N1077 S1075 1.610 . S
N1077 C1078 1.351 . S
C1078 C1072 1.428 . S
C1078 N1077 1.351 . S
C1078 C1079 1.434 . S
C1079 C1070 1.429 . S
C1079 N1076 1.350 . S
C1079 C1078 1.434 . S
C1080 C1081 1.369 . S
C1080 C1082 1.419 . S
C1080 H1084 0.930 . S
C1081 C1080 1.369 . S
C1081 C1090 1.429 . S
C1082 C1080 1.419 . S
C1082 C1083 1.363 . S
C1082 H1085 0.929 . S
C1083 C1082 1.363 . S
C1083 C1089 1.428 . S
H1084 C1080 0.930 . S
H1085 C1082 0.929 . S
S1086 N1087 1.613 . S
S1086 N1088 1.610 . S
N1087 S1086 1.613 . S
N1087 C1090 1.350 . S
N1088 S1086 1.610 . S
N1088 C1089 1.351 . S
C1089 C1083 1.428 . S
C1089 N1088 1.351 . S
C1089 C1090 1.434 . S
C1090 C1081 1.429 . S
C1090 N1087 1.350 . S
C1090 C1089 1.434 . S
C1091 C1092 1.369 . S
C1091 C1093 1.419 . S
C1091 H1095 0.930 . S
C1092 C1091 1.369 . S
C1092 C1101 1.429 . S
C1093 C1091 1.419 . S
C1093 C1094 1.363 . S
C1093 H1096 0.929 . S
C1094 C1093 1.363 . S
C1094 C1100 1.428 . S
H1095 C1091 0.930 . S
H1096 C1093 0.929 . S
S1097 N1098 1.613 . S
S1097 N1099 1.610 . S
N1098 S1097 1.613 . S
N1098 C1101 1.350 . S
N1099 S1097 1.610 . S
N1099 C1100 1.351 . S
C1100 C1094 1.428 . S
C1100 N1099 1.351 . S
C1100 C1101 1.434 . S
C1101 C1092 1.429 . S
C1101 N1098 1.350 . S
C1101 C1100 1.434 . S
C1102 C1103 1.369 . S
C1102 C1104 1.419 . S
C1102 H1106 0.930 . S
C1103 C1102 1.369 . S
C1103 C1112 1.429 . S
C1104 C1102 1.419 . S
C1104 C1105 1.363 . S
C1104 H1107 0.929 . S
C1105 C1104 1.363 . S
C1105 C1111 1.428 . S
H1106 C1102 0.930 . S
H1107 C1104 0.929 . S
S1108 N1109 1.613 . S
S1108 N1110 1.610 . S
N1109 S1108 1.613 . S
N1109 C1112 1.350 . S
N1110 S1108 1.610 . S
N1110 C1111 1.351 . S
C1111 C1105 1.428 . S
C1111 N1110 1.351 . S
C1111 C1112 1.434 . S
C1112 C1103 1.429 . S
C1112 N1109 1.350 . S
C1112 C1111 1.434 . S
C1113 C1114 1.369 . S
C1113 C1115 1.419 . S
C1113 H1117 0.930 . S
C1114 C1113 1.369 . S
C1114 C1123 1.429 . S
C1115 C1113 1.419 . S
C1115 C1116 1.363 . S
C1115 H1118 0.929 . S
C1116 C1115 1.363 . S
C1116 C1122 1.428 . S
H1117 C1113 0.930 . S
H1118 C1115 0.929 . S
S1119 N1120 1.613 . S
S1119 N1121 1.610 . S
N1120 S1119 1.613 . S
N1120 C1123 1.350 . S
N1121 S1119 1.610 . S
N1121 C1122 1.351 . S
C1122 C1116 1.428 . S
C1122 N1121 1.351 . S
C1122 C1123 1.434 . S
C1123 C1114 1.429 . S
C1123 N1120 1.350 . S
C1123 C1122 1.434 . S
C1124 C1125 1.369 . S
C1124 C1126 1.419 . S
C1124 H1128 0.930 . S
C1125 C1124 1.369 . S
C1125 C1134 1.429 . S
C1126 C1124 1.419 . S
C1126 C1127 1.363 . S
C1126 H1129 0.929 . S
C1127 C1126 1.363 . S
C1127 C1133 1.428 . S
H1128 C1124 0.930 . S
H1129 C1126 0.929 . S
S1130 N1131 1.613 . S
S1130 N1132 1.610 . S
N1131 S1130 1.613 . S
N1131 C1134 1.350 . S
N1132 S1130 1.610 . S
N1132 C1133 1.351 . S
C1133 C1127 1.428 . S
C1133 N1132 1.351 . S
C1133 C1134 1.434 . S
C1134 C1125 1.429 . S
C1134 N1131 1.350 . S
C1134 C1133 1.434 . S
C1135 C1136 1.369 . S
C1135 C1137 1.419 . S
C1135 H1139 0.930 . S
C1136 C1135 1.369 . S
C1136 C1145 1.429 . S
C1137 C1135 1.419 . S
C1137 C1138 1.363 . S
C1137 H1140 0.929 . S
C1138 C1137 1.363 . S
C1138 C1144 1.428 . S
H1139 C1135 0.930 . S
H1140 C1137 0.929 . S
S1141 N1142 1.613 . S
S1141 N1143 1.610 . S
N1142 S1141 1.613 . S
N1142 C1145 1.350 . S
N1143 S1141 1.610 . S
N1143 C1144 1.351 . S
C1144 C1138 1.428 . S
C1144 N1143 1.351 . S
C1144 C1145 1.434 . S
C1145 C1136 1.429 . S
C1145 N1142 1.350 . S
C1145 C1144 1.434 . S
C1146 C1147 1.369 . S
C1146 C1148 1.419 . S
C1146 H1150 0.930 . S
C1147 C1146 1.369 . S
C1147 C1156 1.429 . S
C1148 C1146 1.419 . S
C1148 C1149 1.363 . S
C1148 H1151 0.929 . S
C1149 C1148 1.363 . S
C1149 C1155 1.428 . S
H1150 C1146 0.930 . S
H1151 C1148 0.929 . S
S1152 N1153 1.613 . S
S1152 N1154 1.610 . S
N1153 S1152 1.613 . S
N1153 C1156 1.350 . S
N1154 S1152 1.610 . S
N1154 C1155 1.351 . S
C1155 C1149 1.428 . S
C1155 N1154 1.351 . S
C1155 C1156 1.434 . S
C1156 C1147 1.429 . S
C1156 N1153 1.350 . S
C1156 C1155 1.434 . S
C1157 C1158 1.369 . S
C1157 C1159 1.419 . S
C1157 H1161 0.930 . S
C1158 C1157 1.369 . S
C1158 C1167 1.429 . S
C1159 C1157 1.419 . S
C1159 C1160 1.363 . S
C1159 H1162 0.929 . S
C1160 C1159 1.363 . S
C1160 C1166 1.428 . S
H1161 C1157 0.930 . S
H1162 C1159 0.929 . S
S1163 N1164 1.613 . S
S1163 N1165 1.610 . S
N1164 S1163 1.613 . S
N1164 C1167 1.350 . S
N1165 S1163 1.610 . S
N1165 C1166 1.351 . S
C1166 C1160 1.428 . S
C1166 N1165 1.351 . S
C1166 C1167 1.434 . S
C1167 C1158 1.429 . S
C1167 N1164 1.350 . S
C1167 C1166 1.434 . S
C641 C20 1.502 . S
C643 C44 1.477 . S
C652 C100 2.072 . S
C654 C71 2.039 . S
C663 C151 2.309 . S
C665 C82 2.366 . S
C674 C2 1.711 . S
C676 C124 1.649 . S
C685 C23 1.712 . S
C687 C385 1.647 . S
C696 C311 1.492 . S
C698 C65 1.481 . S
C707 C111 2.071 . S
C709 C420 2.039 . S
C718 C140 2.311 . S
C720 C543 2.367 . S
C729 C351 2.073 . S
C731 C60 2.037 . S
C740 C500 2.314 . S
C742 C103 2.367 . S
C751 C583 1.721 . S
C753 C145 1.643 . S
C762 C31 1.502 . S
C764 C465 1.477 . S
C773 C4 0.745 . S
C775 C345 0.505 . S
C784 C482 1.875 . S
C786 C183 1.885 . S
C795 C204 0.502 . S
C797 C585 0.745 . S
C806 C463 1.885 . S
C808 C242 1.877 . S
C817 C84 0.511 . S
C819 C305 0.732 . S
C828 C383 1.877 . S
C830 C162 1.886 . S
C839 C263 1.877 . S
C841 C402 1.885 . S
C850 C231 2.072 . S
C852 C460 2.040 . S
C861 C380 2.314 . S
C863 C223 2.366 . S
C872 C444 1.472 . S
C874 C300 1.503 . S
C883 C220 2.073 . S
C885 C191 2.037 . S
C894 C391 2.314 . S
C896 C322 2.367 . S
C905 C540 2.074 . S
C907 C471 2.037 . S
C916 C271 2.314 . S
C918 C202 2.365 . S
C927 C364 1.641 . S
C929 C562 1.720 . S
C938 C524 0.512 . S
C940 C25 0.732 . S
C949 C105 0.511 . S
C951 C564 0.731 . S
C960 C503 1.878 . S
C962 C42 1.887 . S
C971 C284 0.734 . S
C973 C225 0.502 . S
C982 C122 1.876 . S
C984 C423 1.885 . S
C993 C511 2.310 . S
C995 C522 2.367 . S
C1004 C282 1.721 . S
C1006 C484 1.642 . S
C1015 C265 1.645 . S
C1017 C303 1.714 . S
C1026 C180 2.039 . S
C1028 C551 2.073 . S
C1037 C505 1.646 . S
C1039 C623 1.719 . S
C1048 C625 0.739 . S
C1050 C324 0.500 . S
C1059 C63 1.885 . S
C1061 C362 1.877 . S
C1070 C343 2.366 . S
C1072 C260 2.309 . S
C1081 C340 2.072 . S
C1083 C431 2.039 . S
C1092 C602 1.720 . S
C1094 C244 1.645 . S
C1103 C545 0.519 . S
C1105 C604 0.731 . S
C1114 C442 1.887 . S
C1116 C143 1.879 . S
C1125 C404 1.484 . S
C1127 C580 1.495 . S
C1136 C425 1.479 . S
C1138 C631 1.495 . S
C1147 C185 1.479 . S
C1149 C591 1.500 . S
C1158 C620 1.496 . S
C1160 C164 1.479 . S
