# Generated by pormake.
# Topology sxc, (6)-cn, num edge types: 1
# Building blocks:
#     Node 0, Type 0, BuildingBlock: BETFAJ_clean_sbu_0, # of connection points: 6
#     Node 1, Type 0, BuildingBlock: BETFAJ_clean_sbu_0, # of connection points: 6
#     Node 2, Type 0, BuildingBlock: BETFAJ_clean_sbu_0, # of connection points: 6
#     Edge 3, Type (0, 0), BuildingBlock: CIFDUS_clean_linker_0, # of connection points: 2
#     Edge 4, Type (0, 0), BuildingBlock: CIFDUS_clean_linker_0, # of connection points: 2
#     Edge 5, Type (0, 0), BuildingBlock: CIFDUS_clean_linker_0, # of connection points: 2
#     Edge 6, Type (0, 0), BuildingBlock: CIFDUS_clean_linker_0, # of connection points: 2
#     Edge 7, Type (0, 0), BuildingBlock: CIFDUS_clean_linker_0, # of connection points: 2
#     Edge 8, Type (0, 0), BuildingBlock: CIFDUS_clean_linker_0, # of connection points: 2
#     Edge 9, Type (0, 0), BuildingBlock: CIFDUS_clean_linker_0, # of connection points: 2
#     Edge 10, Type (0, 0), BuildingBlock: CIFDUS_clean_linker_0, # of connection points: 2
#     Edge 11, Type (0, 0), BuildingBlock: CIFDUS_clean_linker_0, # of connection points: 2
# Relax obj value: 0.393
# Max RMSD: 0.175
# Mean RMSD: 0.095
data_MOF--net-sxc--node1-BETFAJ_clean_sbu_0--edge1-CIFDUS_clean_linker_0
_symmetry_space_group_name_H-M    P1
_symmetry_Int_Tables_number       1
_symmetry_cell_setting            triclinic
loop_
_symmetry_equiv_pos_as_xyz
'x, y, z'
_cell_length_a     13.757149
_cell_length_b     14.138161
_cell_length_c     38.897341
_cell_angle_alpha  93.712166
_cell_angle_beta   91.86186
_cell_angle_gamma 83.208946
loop_
_atom_site_label
_atom_site_type_symbol
_atom_site_fract_x
_atom_site_fract_y
_atom_site_fract_z
_atom_type_partial_charge
Sm0 Sm 0.18216 0.21251 0.98187 0.0
Sm1 Sm 0.98259 0.25882 0.99162 0.0
C2 C 0.36655 0.21664 0.96579 0.0
C3 C 0.42679 0.29556 0.97318 0.0
C4 C 0.46554 0.33819 0.94591 0.0
C5 C 0.50025 0.42716 0.95142 0.0
C6 C 0.49674 0.47477 0.98434 0.0
C7 C 0.46513 0.4284 0.01206 0.0
C8 C 0.43024 0.33991 0.00656 0.0
C9 C 0.1367 0.21931 0.05088 0.0
C10 C 0.09223 0.4452 0.98922 0.0
C11 C 0.79929 0.25397 0.00882 0.0
C12 C 0.73885 1.17528 0.00128 0.0
C13 C 0.70004 1.13231 0.02846 0.0
C14 C 0.66499 1.04354 0.02276 0.0
C15 C 0.66827 0.99645 0.98975 0.0
C16 C 0.70008 1.04313 0.96214 0.0
C17 C 0.7353 1.13143 0.96783 0.0
C18 C 1.0241 0.25676 0.92253 0.0
C19 C 1.07274 1.02608 0.98381 0.0
O20 O 0.29361 0.23479 0.94394 0.0
O21 O 0.34129 1.17388 0.99232 0.0
O22 O 0.10467 0.28161 0.03014 0.0
O23 O 0.19209 1.15035 0.03535 0.0
O24 O 0.16282 0.37968 0.97781 0.0
O25 O 1.01276 0.41661 0.00128 0.0
O26 O 0.87337 0.23469 0.03011 0.0
O27 O 0.82302 0.29819 0.98241 0.0
O28 O 1.05997 1.19302 0.94242 0.0
O29 O 0.96722 0.32226 0.93918 0.0
O30 O 1.00196 1.0915 0.99511 0.0
O31 O 0.15253 1.05473 0.97207 0.0
H32 H 0.46295 0.3057 0.91994 0.0
H33 H 0.52399 0.46118 0.9295 0.0
H34 H 0.46353 0.46239 0.03784 0.0
H35 H 0.40062 0.30922 0.02818 0.0
H36 H 0.7028 1.16437 0.05449 0.0
H37 H 0.64116 1.00924 0.04459 0.0
H38 H 0.70157 1.00953 0.9363 0.0
H39 H 0.76507 1.16236 0.94629 0.0
Sm40 Sm 0.10008 0.31394 0.32017 0.0
Sm41 Sm 0.14119 1.12127 0.32262 0.0
C42 C 1.02229 0.4936 0.31973 0.0
C43 C 0.97465 0.54847 0.34919 0.0
C44 C 0.96509 0.64811 0.35113 0.0
C45 C 0.94278 0.69886 0.38247 0.0
C46 C 0.93122 0.65045 0.41246 0.0
C47 C 0.9318 0.55091 0.40949 0.0
C48 C 0.95328 0.50033 0.37807 0.0
C49 C 0.13722 0.26216 0.38769 0.0
C50 C 0.91403 1.19341 0.32199 0.0
C51 C 0.22367 0.95333 0.3417 0.0
C52 C 0.25662 0.92592 0.37631 0.0
C53 C 0.26168 0.99654 0.40324 0.0
C54 C 0.26853 0.97182 0.43754 0.0
C55 C 0.27027 0.87599 0.44531 0.0
C56 C 0.27843 0.80496 0.41786 0.0
C57 C 0.27044 0.82992 0.38366 0.0
C58 C 0.10326 1.16276 0.25421 0.0
C59 C 0.32304 0.24468 0.31691 0.0
O60 O 0.97726 0.42313 0.30651 0.0
O61 O 0.11601 0.469 0.32434 0.0
O62 O 0.0827 0.22309 0.36599 0.0
O63 O 0.17654 0.32844 0.374 0.0
O64 O 0.94693 0.26525 0.30804 0.0
O65 O 0.97774 1.12837 0.33552 0.0
O66 O 0.12917 0.9738 0.33754 0.0
O67 O 0.27234 1.01521 0.32856 0.0
O68 O 0.15264 0.21097 0.27538 0.0
O69 O 0.07695 1.09017 0.26864 0.0
O70 O 0.29054 1.17914 0.33454 0.0
O71 O 0.25812 0.30429 0.30124 0.0
H72 H 0.98195 0.68629 0.32922 0.0
H73 H 0.94474 0.77539 0.38389 0.0
H74 H 0.92392 0.5117 0.43207 0.0
H75 H 0.9606 0.42304 0.37703 0.0
H76 H 0.25272 1.07115 0.39779 0.0
H77 H 0.2621 1.0279 0.45792 0.0
H78 H 0.2791 0.73021 0.42255 0.0
H79 H 0.26743 0.77453 0.36319 0.0
Sm80 Sm 0.12071 1.09058 0.65271 0.0
Sm81 Sm 1.06967 0.29364 0.65085 0.0
C82 C 0.12139 0.90688 0.66203 0.0
C83 C 1.04182 0.84687 0.65534 0.0
C84 C 1.02944 0.77432 0.67713 0.0
C85 C 0.94434 0.72865 0.67435 0.0
C86 C 0.87016 0.75565 0.64988 0.0
C87 C 0.88542 0.82517 0.62703 0.0
C88 C 0.9701 0.87062 0.62984 0.0
C89 C 0.11436 1.15316 0.58671 0.0
C90 C 0.88693 1.17885 0.64957 0.0
C91 C 1.06849 0.47641 0.63963 0.0
C92 C 0.14774 0.53738 0.64505 0.0
C93 C 0.1586 0.60811 0.62227 0.0
C94 C 0.24319 0.65469 0.62406 0.0
C95 C 0.31832 0.63029 0.64848 0.0
C96 C 0.30454 0.56276 0.67228 0.0
C97 C 0.22043 0.51647 0.67048 0.0
C98 C 1.07082 0.23346 0.71703 0.0
C99 C 0.30339 1.20487 0.65469 0.0
O100 O 0.10509 0.97325 0.6868 0.0
O101 O 0.15764 0.93835 0.63492 0.0
O102 O 1.0507 1.17819 0.6092 0.0
O103 O 0.18492 1.09459 0.59873 0.0
O104 O 0.95259 1.11014 0.65992 0.0
O105 O 0.91466 0.25754 0.63884 0.0
O106 O 0.08403 0.40827 0.61544 0.0
O107 O 1.0339 0.44692 0.66743 0.0
O108 O 0.13629 1.20556 0.69521 0.0
O109 O 1.00378 0.29423 0.70412 0.0
O110 O 0.23797 0.27362 0.64424 0.0
O111 O 0.27547 1.12612 0.66525 0.0
H112 H 0.08369 0.75564 0.69713 0.0
H113 H 0.93466 0.67556 0.69241 0.0
H114 H 0.83061 0.8464 0.60753 0.0
H115 H 0.97757 0.92722 0.61295 0.0
H116 H 0.10355 0.62464 0.60232 0.0
H117 H 0.2518 0.70629 0.60531 0.0
H118 H 0.36021 0.54358 0.69176 0.0
H119 H 0.21417 0.46137 0.68813 0.0
H120 H 0.9568 0.60544 0.00336 0.0
H121 H 0.25307 0.52574 0.9702 0.0
H122 H 0.2732 0.69338 0.96486 0.0
H123 H 0.2082 0.86582 0.96965 0.0
H124 H 0.91191 0.9455 0.00281 0.0
H125 H 0.89183 0.77787 0.00817 0.0
C126 C 1.0261 0.62439 0.99512 0.0
C127 C 0.10315 0.55078 0.98729 0.0
C128 C 1.03771 0.7226 0.992 0.0
C129 C 0.19188 0.57893 0.97647 0.0
C130 C 0.20372 0.6757 0.97338 0.0
C131 C 0.13889 0.84687 0.97789 0.0
C132 C 1.06182 0.92048 0.98571 0.0
C133 C 0.12728 0.74866 0.981 0.0
C134 C 0.9731 0.89232 0.99653 0.0
C135 C 0.96128 0.79555 0.99963 0.0
H136 H 0.47245 1.12117 0.3422 0.0
H137 H 0.41752 0.37816 0.28712 0.0
H138 H 0.594 0.38441 0.28359 0.0
H139 H 0.76465 0.31713 0.2962 0.0
H140 H 0.81896 1.05906 0.35075 0.0
H141 H 0.64267 1.05308 0.35425 0.0
C142 C 0.49881 1.17883 0.32945 0.0
C143 C 0.43093 0.24938 0.31503 0.0
C144 C 0.60078 1.18163 0.32731 0.0
C145 C 0.46734 0.32298 0.2985 0.0
C146 C 0.56857 0.32653 0.29645 0.0
C147 C 0.73818 0.25927 0.30879 0.0
C148 C 0.80596 1.18847 0.32315 0.0
C149 C 0.63611 0.25622 0.31073 0.0
C150 C 0.76934 1.11442 0.33938 0.0
C151 C 0.66817 1.11104 0.34145 0.0
H152 H 0.68895 0.8527 0.64254 0.0
H153 H 0.83664 0.5707 0.65685 0.0
H154 H 0.67867 0.50799 0.65803 0.0
H155 H 0.49932 0.5335 0.65484 0.0
H156 H 0.35126 0.81498 0.64023 0.0
H157 H 0.50933 0.87788 0.63877 0.0
C158 C 0.6867 0.77732 0.64555 0.0
C159 C 0.77457 0.71646 0.64957 0.0
C160 C 0.59578 0.74189 0.64613 0.0
C161 C 0.77019 0.61922 0.65403 0.0
C162 C 0.67993 0.5833 0.65457 0.0
C163 C 0.50157 0.60874 0.6516 0.0
C164 C 0.41365 0.66954 0.6478 0.0
C165 C 0.5924 0.6441 0.65078 0.0
C166 C 0.41784 0.76662 0.643 0.0
C167 C 0.50812 0.80259 0.64228 0.0
H168 H 0.73131 0.30938 0.63506 0.0
H169 H 0.80499 1.02383 0.66861 0.0
H170 H 0.63165 1.00774 0.67406 0.0
H171 H 0.45898 1.07399 0.66912 0.0
H172 H 0.38552 0.35945 0.63544 0.0
H173 H 0.55883 0.3752 0.62985 0.0
C174 C 0.70959 0.24336 0.64337 0.0
C175 C 0.78135 1.16806 0.65138 0.0
C176 C 0.60965 0.23433 0.64647 0.0
C177 C 0.75157 1.08312 0.66224 0.0
C178 C 0.65233 1.0737 0.66538 0.0
C179 C 0.48075 1.13998 0.6608 0.0
C180 C 0.40902 0.2154 0.65284 0.0
C181 C 0.58072 1.14889 0.65764 0.0
C182 C 0.43887 0.30017 0.64186 0.0
C183 C 0.53809 0.30944 0.63866 0.0
H184 H 0.51889 0.91559 0.01613 0.0
H185 H 0.7718 0.85121 0.95227 0.0
H186 H 0.74225 0.68436 0.94522 0.0
H187 H 0.64571 0.55578 0.95774 0.0
H188 H 0.39269 0.6202 0.02155 0.0
H189 H 0.4221 0.7871 0.02852 0.0
C190 C 0.56759 0.86492 0.00076 0.0
C191 C 0.64696 0.89599 0.98461 0.0
C192 C 0.55063 0.76877 0.99698 0.0
C193 C 0.709 0.82961 0.96448 0.0
C194 C 0.69269 0.73393 0.96064 0.0
C195 C 0.59694 0.60647 0.97307 0.0
C196 C 0.51767 0.57538 0.98928 0.0
C197 C 0.61379 0.70266 0.97679 0.0
C198 C 0.45548 0.64181 0.00932 0.0
C199 C 0.47169 0.73752 0.01312 0.0
H200 H 1.05836 0.59046 0.46307 0.0
H201 H 0.84328 0.82466 0.43826 0.0
H202 H 0.9395 0.93638 0.4704 0.0
H203 H 0.1102 0.96536 0.47801 0.0
H204 H 0.33439 0.73042 0.48889 0.0
H205 H 0.21075 0.62251 0.49376 0.0
C206 C 1.02939 0.66515 0.46647 0.0
C207 C 0.94728 0.70049 0.44657 0.0
C208 C 0.08959 0.72947 0.48229 0.0
C209 C 0.9087 0.79664 0.45222 0.0
C210 C 0.96445 0.86071 0.47034 0.0
C211 C 0.13199 0.89136 0.48338 0.0
C212 C 0.22976 0.85214 0.47828 0.0
C213 C 1.06005 0.82863 0.48139 0.0
C214 C 0.25817 0.76024 0.48962 0.0
C215 C 0.1871 0.69778 0.49144 0.0
H216 H 0.08627 0.31379 0.21215 0.0
H217 H 0.1397 1.00676 0.21069 0.0
H218 H 0.15567 0.99773 0.14834 0.0
H219 H 0.15527 1.0757 0.0939 0.0
H220 H 0.0883 0.38091 0.09299 0.0
H221 H 0.07599 0.39228 0.15607 0.0
C222 C 0.10161 0.24519 0.19806 0.0
C223 C 0.1125 1.16109 0.21615 0.0
C224 C 0.10786 0.24014 0.16167 0.0
C225 C 0.13092 1.07255 0.1975 0.0
C226 C 0.14019 1.06723 0.16177 0.0
C227 C 0.13784 1.14476 0.10751 0.0
C228 C 0.12354 0.22738 0.08882 0.0
C229 C 0.12882 1.15034 0.14356 0.0
C230 C 0.09965 0.3162 0.10678 0.0
C231 C 0.09295 0.32268 0.14288 0.0
H232 H 1.0003 0.20645 0.42924 0.0
H233 H 0.29652 0.27716 0.42931 0.0
H234 H 0.31729 0.2462 0.49045 0.0
H235 H 0.25108 1.19929 0.54426 0.0
H236 H 0.94899 1.14821 0.54638 0.0
H237 H 0.93017 1.17074 0.48436 0.0
C238 C 1.06928 0.21483 0.44273 0.0
C239 C 0.14714 0.24332 0.42479 0.0
C240 C 0.0794 1.20056 0.47835 0.0
C241 C 0.23561 0.25547 0.44263 0.0
C242 C 0.24753 0.23769 0.47757 0.0
C243 C 0.18113 1.19356 0.53106 0.0
C244 C 0.10161 1.17186 0.54969 0.0
C245 C 0.16996 0.21036 0.49574 0.0
C246 C 1.01102 1.16542 0.53252 0.0
C247 C 1.00042 1.17798 0.49706 0.0
H248 H 0.93429 0.29344 0.76389 0.0
H249 H 0.22239 1.13885 0.75481 0.0
H250 H 0.23278 1.12549 0.81769 0.0
H251 H 0.16114 1.16669 0.87631 0.0
H252 H 0.87398 0.32658 0.88225 0.0
H253 H 0.86215 0.32818 0.82 0.0
C254 C 0.99946 0.25635 0.77553 0.0
C255 C 0.07767 0.21785 0.75463 0.0
C256 C 1.00509 0.25 0.81145 0.0
C257 C 0.1611 1.16942 0.77029 0.0
C258 C 0.16704 1.16197 0.80629 0.0
C259 C 0.09579 1.20072 0.86382 0.0
C260 C 1.01871 0.24676 0.88415 0.0
C261 C 0.08975 1.20311 0.82733 0.0
C262 C 0.93481 0.29124 0.8675 0.0
C263 C 0.92773 0.29227 0.83175 0.0
loop_
_geom_bond_atom_site_label_1
_geom_bond_atom_site_label_2
_geom_bond_distance
_geom_bond_site_symmetry_2
_ccdc_geom_bond_type
Sm0 C2 2.846 . S
Sm0 O20 2.543 1_554 S
Sm0 O21 2.450 . S
Sm0 O22 2.681 1_455 S
Sm0 O23 2.464 . S
Sm0 O24 2.396 . S
Sm0 O28 2.386 1_554 S
Sm0 O31 2.408 1_545 S
Sm1 C11 2.851 . S
Sm1 O22 2.386 1_566 S
Sm1 O25 2.408 1_565 S
Sm1 O26 2.543 1_556 S
Sm1 O27 2.450 . S
Sm1 O28 2.681 1_665 S
Sm1 O29 2.464 . S
Sm1 O30 2.396 . S
C2 Sm0 2.846 . S
C2 C3 1.507 . S
C2 O20 1.261 1_554 S
C2 O21 1.242 . S
C3 C2 1.507 . S
C3 C4 1.350 1_554 S
C3 C8 1.389 . S
C4 C3 1.350 1_556 S
C4 C5 1.385 . S
C4 H32 0.930 . S
C5 C4 1.385 . S
C5 C6 1.416 . S
C5 H33 0.929 . S
C6 C5 1.416 . S
C6 C7 1.311 1_556 S
C7 C6 1.311 1_554 S
C7 C8 1.398 . S
C7 H34 0.930 . S
C8 C3 1.389 . S
C8 C7 1.398 . S
C8 H35 0.929 . S
C9 O22 1.271 1_455 S
C9 O23 1.251 . S
C10 O24 1.252 1_655 S
C10 O25 1.272 1_554 S
C11 Sm1 2.851 . S
C11 C12 1.502 1_556 S
C11 O26 1.240 1_556 S
C11 O27 1.266 . S
C12 C11 1.502 1_554 S
C12 C13 1.363 . S
C12 C17 1.378 1_554 S
C13 C12 1.363 . S
C13 C14 1.385 . S
C13 H36 0.930 . S
C14 C13 1.385 . S
C14 C15 1.395 . S
C14 H37 0.929 . S
C15 C14 1.395 . S
C15 C16 1.335 1_554 S
C16 C15 1.335 1_556 S
C16 C17 1.398 . S
C16 H38 0.930 . S
C17 C12 1.378 1_556 S
C17 C16 1.398 . S
C17 H39 0.929 . S
C18 O28 1.271 1_655 S
C18 O29 1.251 1_545 S
C19 O30 1.252 1_455 S
C19 O31 1.272 1_556 S
O20 Sm0 2.543 1_556 S
O20 C2 1.261 1_556 S
O21 Sm0 2.450 . S
O21 C2 1.242 . S
O22 Sm0 2.681 1_655 S
O22 Sm1 2.386 1_544 S
O22 C9 1.271 1_655 S
O23 Sm0 2.464 . S
O23 C9 1.251 . S
O24 Sm0 2.396 . S
O24 C10 1.252 1_455 S
O25 Sm1 2.408 1_545 S
O25 C10 1.272 1_556 S
O26 Sm1 2.543 1_554 S
O26 C11 1.240 1_554 S
O27 Sm1 2.450 . S
O27 C11 1.266 . S
O28 Sm0 2.386 1_556 S
O28 Sm1 2.681 1_445 S
O28 C18 1.271 1_455 S
O29 Sm1 2.464 . S
O29 C18 1.251 1_565 S
O30 Sm1 2.396 . S
O30 C19 1.252 1_655 S
O31 Sm0 2.408 1_565 S
O31 C19 1.272 1_554 S
H32 C4 0.930 . S
H33 C5 0.929 . S
H34 C7 0.930 . S
H35 C8 0.929 . S
H36 C13 0.930 . S
H37 C14 0.929 . S
H38 C16 0.930 . S
H39 C17 0.929 . S
Sm40 C42 2.846 . S
Sm40 O60 2.543 . S
Sm40 O61 2.450 . S
Sm40 O62 2.681 . S
Sm40 O63 2.464 . S
Sm40 O64 2.396 1_455 S
Sm40 O68 2.386 . S
Sm40 O71 2.408 . S
Sm41 C51 2.846 1_655 S
Sm41 O62 2.386 1_665 S
Sm41 O65 2.408 . S
Sm41 O66 2.543 1_655 S
Sm41 O67 2.450 1_655 S
Sm41 O68 2.681 1_665 S
Sm41 O69 2.464 . S
Sm41 O70 2.396 1_655 S
C42 Sm40 2.846 . S
C42 C43 1.506 1_455 S
C42 O60 1.261 . S
C42 O61 1.242 . S
C43 C42 1.506 1_655 S
C43 C44 1.358 . S
C43 C48 1.382 . S
C44 C43 1.358 . S
C44 C45 1.385 . S
C44 H72 0.930 . S
C45 C44 1.385 . S
C45 C46 1.395 . S
C45 H73 0.929 . S
C46 C45 1.395 . S
C46 C47 1.335 . S
C47 C46 1.335 . S
C47 C48 1.398 . S
C47 H74 0.930 . S
C48 C43 1.382 . S
C48 C47 1.398 . S
C48 H75 0.929 1_655 S
C49 O62 1.271 . S
C49 O63 1.251 . S
C50 O64 1.252 . S
C50 O65 1.272 1_545 S
C51 Sm41 2.846 1_455 S
C51 C52 1.506 . S
C51 O66 1.261 . S
C51 O67 1.242 . S
C52 C51 1.506 . S
C52 C53 1.358 . S
C52 C57 1.382 . S
C53 C52 1.358 . S
C53 C54 1.385 . S
C53 H76 0.930 . S
C54 C53 1.385 . S
C54 C55 1.395 . S
C54 H77 0.929 . S
C55 C54 1.395 . S
C55 C56 1.335 . S
C56 C55 1.335 . S
C56 C57 1.398 . S
C56 H78 0.930 . S
C57 C52 1.382 . S
C57 C56 1.398 . S
C57 H79 0.929 . S
C58 O68 1.271 . S
C58 O69 1.251 1_445 S
C59 O70 1.252 . S
C59 O71 1.272 1_565 S
O60 Sm40 2.543 . S
O60 C42 1.261 . S
O61 Sm40 2.450 . S
O61 C42 1.242 . S
O62 Sm40 2.681 . S
O62 Sm41 2.386 1_445 S
O62 C49 1.271 . S
O63 Sm40 2.464 . S
O63 C49 1.251 . S
O64 Sm40 2.396 1_655 S
O64 C50 1.252 . S
O65 Sm41 2.408 . S
O65 C50 1.272 1_565 S
O66 Sm41 2.543 1_455 S
O66 C51 1.261 . S
O67 Sm41 2.450 1_455 S
O67 C51 1.242 . S
O68 Sm40 2.386 . S
O68 Sm41 2.681 1_445 S
O68 C58 1.271 . S
O69 Sm41 2.464 . S
O69 C58 1.251 1_665 S
O70 Sm41 2.396 1_455 S
O70 C59 1.252 . S
O71 Sm40 2.408 . S
O71 C59 1.272 1_545 S
H72 C44 0.930 . S
H73 C45 0.929 . S
H74 C47 0.930 . S
H75 C48 0.929 1_455 S
H76 C53 0.930 . S
H77 C54 0.929 . S
H78 C56 0.930 . S
H79 C57 0.929 . S
Sm80 C82 2.846 1_455 S
Sm80 O100 2.543 1_455 S
Sm80 O101 2.450 1_455 S
Sm80 O102 2.681 1_565 S
Sm80 O103 2.464 . S
Sm80 O104 2.396 1_455 S
Sm80 O108 2.386 . S
Sm80 O111 2.408 . S
Sm81 C91 2.846 . S
Sm81 O102 2.386 . S
Sm81 O105 2.408 1_455 S
Sm81 O106 2.543 . S
Sm81 O107 2.450 . S
Sm81 O108 2.681 1_545 S
Sm81 O109 2.464 . S
Sm81 O110 2.396 . S
C82 Sm80 2.846 1_655 S
C82 C83 1.506 . S
C82 O100 1.261 . S
C82 O101 1.242 . S
C83 C82 1.506 . S
C83 C84 1.358 . S
C83 C88 1.382 . S
C84 C83 1.358 . S
C84 C85 1.385 . S
C84 H112 0.930 . S
C85 C84 1.385 . S
C85 C86 1.395 . S
C85 H113 0.929 . S
C86 C85 1.395 . S
C86 C87 1.335 . S
C87 C86 1.335 . S
C87 C88 1.398 . S
C87 H114 0.930 . S
C88 C83 1.382 . S
C88 C87 1.398 . S
C88 H115 0.929 . S
C89 O102 1.271 1_565 S
C89 O103 1.251 . S
C90 O104 1.252 1_545 S
C90 O105 1.272 . S
C91 Sm81 2.846 . S
C91 C92 1.506 . S
C91 O106 1.261 . S
C91 O107 1.242 . S
C92 C91 1.506 . S
C92 C93 1.358 . S
C92 C97 1.382 . S
C93 C92 1.358 . S
C93 C94 1.385 . S
C93 H116 0.930 . S
C94 C93 1.385 . S
C94 C95 1.395 . S
C94 H117 0.929 . S
C95 C94 1.395 . S
C95 C96 1.335 . S
C96 C95 1.335 . S
C96 C97 1.398 . S
C96 H118 0.930 . S
C97 C92 1.382 . S
C97 C96 1.398 . S
C97 H119 0.929 . S
C98 O108 1.271 1_545 S
C98 O109 1.251 . S
C99 O110 1.252 . S
C99 O111 1.272 1_545 S
O100 Sm80 2.543 1_655 S
O100 C82 1.261 . S
O101 Sm80 2.450 1_655 S
O101 C82 1.242 . S
O102 Sm80 2.681 1_545 S
O102 Sm81 2.386 . S
O102 C89 1.271 1_545 S
O103 Sm80 2.464 . S
O103 C89 1.251 . S
O104 Sm80 2.396 1_655 S
O104 C90 1.252 1_565 S
O105 Sm81 2.408 1_655 S
O105 C90 1.272 . S
O106 Sm81 2.543 . S
O106 C91 1.261 . S
O107 Sm81 2.450 . S
O107 C91 1.242 . S
O108 Sm80 2.386 . S
O108 Sm81 2.681 1_565 S
O108 C98 1.271 1_565 S
O109 Sm81 2.464 . S
O109 C98 1.251 . S
O110 Sm81 2.396 . S
O110 C99 1.252 . S
O111 Sm80 2.408 . S
O111 C99 1.272 1_565 S
H112 C84 0.930 . S
H113 C85 0.929 . S
H114 C87 0.930 . S
H115 C88 0.929 . S
H116 C93 0.930 . S
H117 C94 0.929 . S
H118 C96 0.930 . S
H119 C97 0.929 . S
H120 C126 0.930 . S
H121 C129 0.930 . S
H122 C130 0.930 . S
H123 C131 0.930 . S
H124 C134 0.930 . S
H125 C135 0.930 . S
C126 H120 0.930 . S
C126 C127 1.355 1_554 S
C126 C128 1.415 . S
C127 C126 1.355 1_556 S
C127 C129 1.419 1_655 S
C128 C126 1.415 . S
C128 C133 1.425 1_654 S
C128 C135 1.409 . S
C129 H121 0.930 . S
C129 C127 1.419 1_455 S
C129 C130 1.362 . S
C130 H122 0.930 . S
C130 C129 1.362 . S
C130 C133 1.409 . S
C131 H123 0.930 . S
C131 C132 1.355 1_556 S
C131 C133 1.415 . S
C132 C131 1.355 1_554 S
C132 C134 1.419 1_455 S
C133 C128 1.425 1_456 S
C133 C130 1.409 . S
C133 C131 1.415 . S
C134 H124 0.930 . S
C134 C132 1.419 1_655 S
C134 C135 1.362 . S
C135 H125 0.930 . S
C135 C128 1.409 . S
C135 C134 1.362 . S
H136 C142 0.930 . S
H137 C145 0.930 . S
H138 C146 0.930 . S
H139 C147 0.930 . S
H140 C150 0.930 . S
H141 C151 0.930 . S
C142 H136 0.930 . S
C142 C143 1.355 1_565 S
C142 C144 1.415 . S
C143 C142 1.355 1_545 S
C143 C145 1.419 . S
C144 C142 1.415 . S
C144 C149 1.425 1_565 S
C144 C151 1.409 . S
C145 H137 0.930 . S
C145 C143 1.419 . S
C145 C146 1.362 . S
C146 H138 0.930 . S
C146 C145 1.362 . S
C146 C149 1.409 . S
C147 H139 0.930 . S
C147 C148 1.355 . S
C147 C149 1.415 . S
C148 C147 1.355 . S
C148 C150 1.419 1_545 S
C149 C144 1.425 1_545 S
C149 C146 1.409 . S
C149 C147 1.415 . S
C150 H140 0.930 . S
C150 C148 1.419 1_565 S
C150 C151 1.362 . S
C151 H141 0.930 . S
C151 C144 1.409 . S
C151 C150 1.362 . S
H152 C158 0.930 . S
H153 C161 0.930 . S
H154 C162 0.930 . S
H155 C163 0.930 . S
H156 C166 0.930 . S
H157 C167 0.930 . S
C158 H152 0.930 . S
C158 C159 1.355 . S
C158 C160 1.415 . S
C159 C158 1.355 . S
C159 C161 1.419 . S
C160 C158 1.415 . S
C160 C165 1.425 . S
C160 C167 1.409 . S
C161 H153 0.930 . S
C161 C159 1.419 . S
C161 C162 1.362 . S
C162 H154 0.930 . S
C162 C161 1.362 . S
C162 C165 1.409 . S
C163 H155 0.930 . S
C163 C164 1.355 . S
C163 C165 1.415 . S
C164 C163 1.355 . S
C164 C166 1.419 . S
C165 C160 1.425 . S
C165 C162 1.409 . S
C165 C163 1.415 . S
C166 H156 0.930 . S
C166 C164 1.419 . S
C166 C167 1.362 . S
C167 H157 0.930 . S
C167 C160 1.409 . S
C167 C166 1.362 . S
H168 C174 0.930 . S
H169 C177 0.930 . S
H170 C178 0.930 . S
H171 C179 0.930 . S
H172 C182 0.930 . S
H173 C183 0.930 . S
C174 H168 0.930 . S
C174 C175 1.355 1_545 S
C174 C176 1.415 . S
C175 C174 1.355 1_565 S
C175 C177 1.419 . S
C176 C174 1.415 . S
C176 C181 1.425 1_545 S
C176 C183 1.409 . S
C177 H169 0.930 . S
C177 C175 1.419 . S
C177 C178 1.362 . S
C178 H170 0.930 . S
C178 C177 1.362 . S
C178 C181 1.409 . S
C179 H171 0.930 . S
C179 C180 1.355 1_565 S
C179 C181 1.415 . S
C180 C179 1.355 1_545 S
C180 C182 1.419 . S
C181 C176 1.425 1_565 S
C181 C178 1.409 . S
C181 C179 1.415 . S
C182 H172 0.930 . S
C182 C180 1.419 . S
C182 C183 1.362 . S
C183 H173 0.930 . S
C183 C176 1.409 . S
C183 C182 1.362 . S
H184 C190 0.930 . S
H185 C193 0.930 . S
H186 C194 0.930 . S
H187 C195 0.930 . S
H188 C198 0.930 . S
H189 C199 0.930 . S
C190 H184 0.930 . S
C190 C191 1.370 . S
C190 C192 1.415 . S
C191 C190 1.370 . S
C191 C193 1.403 1_554 S
C192 C190 1.415 . S
C192 C197 1.425 1_554 S
C192 C199 1.409 . S
C193 H185 0.930 . S
C193 C191 1.403 1_556 S
C193 C194 1.362 . S
C194 H186 0.930 . S
C194 C193 1.362 . S
C194 C197 1.409 . S
C195 H187 0.930 . S
C195 C196 1.357 . S
C195 C197 1.415 . S
C196 C195 1.357 . S
C196 C198 1.416 1_556 S
C197 C192 1.425 1_556 S
C197 C194 1.409 . S
C197 C195 1.415 . S
C198 H188 0.930 . S
C198 C196 1.416 1_554 S
C198 C199 1.362 . S
C199 H189 0.930 . S
C199 C192 1.409 . S
C199 C198 1.362 . S
H200 C206 0.930 . S
H201 C209 0.930 . S
H202 C210 0.930 . S
H203 C211 0.930 . S
H204 C214 0.930 . S
H205 C215 0.930 . S
C206 H200 0.930 . S
C206 C207 1.355 . S
C206 C208 1.415 1_655 S
C207 C206 1.355 . S
C207 C209 1.419 . S
C208 C206 1.415 1_455 S
C208 C213 1.425 . S
C208 C215 1.409 . S
C209 H201 0.930 . S
C209 C207 1.419 . S
C209 C210 1.362 . S
C210 H202 0.930 . S
C210 C209 1.362 . S
C210 C213 1.409 1_655 S
C211 H203 0.930 . S
C211 C212 1.355 . S
C211 C213 1.415 . S
C212 C211 1.355 . S
C212 C214 1.419 . S
C213 C208 1.425 . S
C213 C210 1.409 1_455 S
C213 C211 1.415 . S
C214 H204 0.930 . S
C214 C212 1.419 . S
C214 C215 1.362 . S
C215 H205 0.930 . S
C215 C208 1.409 . S
C215 C214 1.362 . S
H216 C222 0.930 . S
H217 C225 0.930 . S
H218 C226 0.930 . S
H219 C227 0.930 . S
H220 C230 0.930 . S
H221 C231 0.930 . S
C222 H216 0.930 . S
C222 C223 1.355 . S
C222 C224 1.415 . S
C223 C222 1.355 . S
C223 C225 1.419 1_545 S
C224 C222 1.415 . S
C224 C229 1.425 1_545 S
C224 C231 1.409 . S
C225 H217 0.930 . S
C225 C223 1.419 1_565 S
C225 C226 1.362 . S
C226 H218 0.930 . S
C226 C225 1.362 . S
C226 C229 1.409 . S
C227 H219 0.930 . S
C227 C228 1.355 1_565 S
C227 C229 1.415 . S
C228 C227 1.355 1_545 S
C228 C230 1.419 . S
C229 C224 1.425 1_565 S
C229 C226 1.409 . S
C229 C227 1.415 . S
C230 H220 0.930 . S
C230 C228 1.419 . S
C230 C231 1.362 . S
C231 H221 0.930 . S
C231 C224 1.409 . S
C231 C230 1.362 . S
H232 C238 0.930 1_655 S
H233 C241 0.930 . S
H234 C242 0.930 . S
H235 C243 0.930 . S
H236 C246 0.930 . S
H237 C247 0.930 1_655 S
C238 H232 0.930 1_455 S
C238 C239 1.355 1_565 S
C238 C240 1.415 . S
C239 C238 1.355 1_545 S
C239 C241 1.419 . S
C240 C238 1.415 . S
C240 C245 1.425 1_565 S
C240 C247 1.409 . S
C241 H233 0.930 . S
C241 C239 1.419 . S
C241 C242 1.362 . S
C242 H234 0.930 . S
C242 C241 1.362 . S
C242 C245 1.409 . S
C243 H235 0.930 . S
C243 C244 1.355 1_545 S
C243 C245 1.415 . S
C244 C243 1.355 1_565 S
C244 C246 1.419 . S
C245 C240 1.425 1_545 S
C245 C242 1.409 . S
C245 C243 1.415 . S
C246 H236 0.930 . S
C246 C244 1.419 . S
C246 C247 1.362 . S
C247 H237 0.930 1_455 S
C247 C240 1.409 . S
C247 C246 1.362 . S
H248 C254 0.930 . S
H249 C257 0.930 . S
H250 C258 0.930 . S
H251 C259 0.930 . S
H252 C262 0.930 . S
H253 C263 0.930 . S
C254 H248 0.930 . S
C254 C255 1.355 1_655 S
C254 C256 1.415 . S
C255 C254 1.355 1_455 S
C255 C257 1.419 1_545 S
C256 C254 1.415 . S
C256 C261 1.425 1_655 S
C256 C263 1.409 . S
C257 H249 0.930 . S
C257 C255 1.419 1_565 S
C257 C258 1.362 . S
C258 H250 0.930 . S
C258 C257 1.362 . S
C258 C261 1.409 1_565 S
C259 H251 0.930 . S
C259 C260 1.355 1_465 S
C259 C261 1.415 1_565 S
C260 C259 1.355 1_645 S
C260 C262 1.419 . S
C261 C256 1.425 1_455 S
C261 C258 1.409 1_545 S
C261 C259 1.415 1_545 S
C262 H252 0.930 . S
C262 C260 1.419 . S
C262 C263 1.362 . S
C263 H253 0.930 . S
C263 C256 1.409 . S
C263 C262 1.362 . S
C127 C10 4.891 1_556 S
C132 C19 4.891 1_554 S
C143 C59 3.053 1_545 S
C148 C50 3.053 . S
C159 C86 0.546 . S
C164 C95 0.546 . S
C175 C90 2.994 1_565 S
C180 C99 2.994 . S
C191 C15 0.677 . S
C196 C6 0.680 . S
C207 C46 0.895 . S
C212 C55 0.895 . S
C223 C58 1.418 . S
C228 C9 1.427 . S
C239 C49 1.434 . S
C244 C89 1.434 . S
C255 C98 1.451 . S
C260 C18 1.436 . S
