# Generated by pormake.
# Topology sow, (4)-cn, num edge types: 1
# Building blocks:
#     Node 0, Type 0, BuildingBlock: QUQFOY_clean_sbu_1, # of connection points: 4
#     Node 1, Type 0, BuildingBlock: QUQFOY_clean_sbu_1, # of connection points: 4
#     Node 2, Type 0, BuildingBlock: QUQFOY_clean_sbu_1, # of connection points: 4
#     Node 3, Type 0, BuildingBlock: QUQFOY_clean_sbu_1, # of connection points: 4
#     Node 4, Type 0, BuildingBlock: QUQFOY_clean_sbu_1, # of connection points: 4
#     Node 5, Type 0, BuildingBlock: QUQFOY_clean_sbu_1, # of connection points: 4
#     Node 6, Type 0, BuildingBlock: QUQFOY_clean_sbu_1, # of connection points: 4
#     Node 7, Type 0, BuildingBlock: QUQFOY_clean_sbu_1, # of connection points: 4
#     Edge 8, Type (0, 0), BuildingBlock: FUNLAD_clean_linker_1, # of connection points: 2
#     Edge 9, Type (0, 0), BuildingBlock: FUNLAD_clean_linker_1, # of connection points: 2
#     Edge 10, Type (0, 0), BuildingBlock: FUNLAD_clean_linker_1, # of connection points: 2
#     Edge 11, Type (0, 0), BuildingBlock: FUNLAD_clean_linker_1, # of connection points: 2
#     Edge 12, Type (0, 0), BuildingBlock: FUNLAD_clean_linker_1, # of connection points: 2
#     Edge 13, Type (0, 0), BuildingBlock: FUNLAD_clean_linker_1, # of connection points: 2
#     Edge 14, Type (0, 0), BuildingBlock: FUNLAD_clean_linker_1, # of connection points: 2
#     Edge 15, Type (0, 0), BuildingBlock: FUNLAD_clean_linker_1, # of connection points: 2
#     Edge 16, Type (0, 0), BuildingBlock: FUNLAD_clean_linker_1, # of connection points: 2
#     Edge 17, Type (0, 0), BuildingBlock: FUNLAD_clean_linker_1, # of connection points: 2
#     Edge 18, Type (0, 0), BuildingBlock: FUNLAD_clean_linker_1, # of connection points: 2
#     Edge 19, Type (0, 0), BuildingBlock: FUNLAD_clean_linker_1, # of connection points: 2
#     Edge 20, Type (0, 0), BuildingBlock: FUNLAD_clean_linker_1, # of connection points: 2
#     Edge 21, Type (0, 0), BuildingBlock: FUNLAD_clean_linker_1, # of connection points: 2
#     Edge 22, Type (0, 0), BuildingBlock: FUNLAD_clean_linker_1, # of connection points: 2
#     Edge 23, Type (0, 0), BuildingBlock: FUNLAD_clean_linker_1, # of connection points: 2
# Relax obj value: 0.074
# Max RMSD: 0.123
# Mean RMSD: 0.123
data_MOF--net-sow--node1-QUQFOY_clean_sbu_1--edge1-FUNLAD_clean_linker_1
_symmetry_space_group_name_H-M    P1
_symmetry_Int_Tables_number       1
_symmetry_cell_setting            triclinic
loop_
_symmetry_equiv_pos_as_xyz
'x, y, z'
_cell_length_a     36.626321
_cell_length_b     38.320255
_cell_length_c     24.675499
_cell_angle_alpha  90.060862
_cell_angle_beta   90.061927
_cell_angle_gamma 90.043385
loop_
_atom_site_label
_atom_site_type_symbol
_atom_site_fract_x
_atom_site_fract_y
_atom_site_fract_z
_atom_type_partial_charge
O0 O 0.19567 0.22259 0.07616 0.0
Cd1 Cd 0.15196 0.23961 0.03157 0.0
Cd2 Cd 0.12016 0.17935 0.07404 0.0
O3 O 0.16978 0.17689 0.11525 0.0
O4 O 0.17294 0.27461 0.98063 0.0
O5 O 0.14679 0.22549 0.95339 0.0
C6 C 0.16392 0.25395 0.94156 0.0
C7 C 0.09112 0.12912 0.04035 0.0
C8 C 0.19683 0.19751 0.10964 0.0
C9 C 0.08678 0.24973 0.10142 0.0
O10 O 0.08468 0.21664 0.1022 0.0
O11 O 0.11239 0.26503 0.07625 0.0
O12 O 0.09334 0.13512 0.09162 0.0
O13 O 0.10692 0.15078 0.0079 0.0
O14 O 0.32278 0.30316 0.58684 0.0
Cd15 Cd 0.36159 0.28574 0.5327 0.0
Cd16 Cd 0.39296 0.35209 0.57039 0.0
O17 O 0.34334 0.35542 0.6103 0.0
O18 O 0.33801 0.2427 0.50307 0.0
O19 O 0.35227 0.2879 0.45183 0.0
C20 C 0.33816 0.25714 0.45611 0.0
C21 C 0.4216 0.4022 0.53514 0.0
C22 C 0.31946 0.33138 0.61358 0.0
C23 C 0.43122 0.28285 0.59574 0.0
O24 O 0.4285 0.31571 0.60162 0.0
O25 O 0.40867 0.266 0.56669 0.0
O26 O 0.41923 0.39697 0.58655 0.0
O27 O 0.4064 0.37972 0.50332 0.0
O28 O 0.68425 0.31697 0.93118 0.0
Cd29 Cd 0.64388 0.30246 0.98423 0.0
Cd30 Cd 0.61319 0.366 0.94799 0.0
O31 O 0.66112 0.36704 0.90257 0.0
O32 O 0.66571 0.26495 0.03007 0.0
O33 O 0.64607 0.3152 0.06337 0.0
C34 C 0.66106 0.28514 0.07132 0.0
C35 C 0.5873 0.41734 0.98362 0.0
C36 C 0.68584 0.34369 0.90077 0.0
C37 C 0.57416 0.29752 0.92323 0.0
O38 O 0.57479 0.33061 0.92161 0.0
O39 O 0.59911 0.28042 0.94713 0.0
O40 O 0.58779 0.4113 0.93229 0.0
O41 O 0.60317 0.39509 0.015 0.0
O42 O 0.8123 0.2237 0.42877 0.0
Cd43 Cd 0.85164 0.23984 0.48244 0.0
Cd44 Cd 0.88573 0.17751 0.44745 0.0
O45 O 0.83773 0.17419 0.40216 0.0
O46 O 0.82769 0.2748 0.53077 0.0
O47 O 0.85105 0.22508 0.56062 0.0
C48 C 0.83402 0.25389 0.57062 0.0
C49 C 0.91377 0.1264 0.48055 0.0
C50 C 0.81207 0.19652 0.39918 0.0
C51 C 0.92144 0.24815 0.42333 0.0
O52 O 0.92239 0.21498 0.42196 0.0
O53 O 0.8952 0.26414 0.44586 0.0
O54 O 0.91288 0.13341 0.42957 0.0
O55 O 0.89752 0.14771 0.51307 0.0
O56 O 0.81777 0.81624 0.92118 0.0
Cd57 Cd 0.8576 0.80238 0.97551 0.0
Cd58 Cd 0.88746 0.86629 0.94074 0.0
O59 O 0.83998 0.86703 0.89411 0.0
O60 O 0.83531 0.76576 0.02249 0.0
O61 O 0.85482 0.81667 0.05381 0.0
C62 C 0.83957 0.78683 0.0628 0.0
C63 C 0.91279 0.91764 0.9772 0.0
C64 C 0.81584 0.84315 0.89123 0.0
C65 C 0.92801 0.79838 0.91709 0.0
O66 O 0.92659 0.83145 0.91535 0.0
O67 O 0.90316 0.78072 0.9402 0.0
O68 O 0.91264 0.91178 0.92582 0.0
O69 O 0.89673 0.89525 0.00813 0.0
O70 O 0.69044 0.71913 0.42079 0.0
Cd71 Cd 0.65067 0.73348 0.47478 0.0
Cd72 Cd 0.61921 0.67045 0.43774 0.0
O73 O 0.66678 0.6694 0.39149 0.0
O74 O 0.67357 0.76978 0.522 0.0
O75 O 0.65292 0.71934 0.55322 0.0
C76 C 0.66873 0.74892 0.56232 0.0
C77 C 0.59351 0.61888 0.47287 0.0
C78 C 0.69165 0.69263 0.38981 0.0
C79 C 0.58054 0.73949 0.41533 0.0
O80 O 0.58086 0.70639 0.41306 0.0
O81 O 0.60588 0.75627 0.439 0.0
O82 O 0.59338 0.62535 0.42169 0.0
O83 O 0.60977 0.64089 0.50435 0.0
O84 O 0.3216 0.73674 0.07412 0.0
Cd85 Cd 0.36571 0.74516 0.02397 0.0
Cd86 Cd 0.38825 0.68466 0.07768 0.0
O87 O 0.33713 0.68703 0.11348 0.0
O88 O 0.34711 0.78058 0.97155 0.0
O89 O 0.36418 0.72748 0.94706 0.0
C90 C 0.35065 0.75743 0.93401 0.0
C91 C 0.41439 0.63318 0.04407 0.0
C92 C 0.31482 0.71217 0.10712 0.0
C93 C 0.43072 0.75207 0.09533 0.0
O94 O 0.42508 0.72027 0.10732 0.0
O95 O 0.41129 0.7673 0.05987 0.0
O96 O 0.41118 0.63856 0.09544 0.0
O97 O 0.40098 0.65621 0.01147 0.0
O98 O 0.1854 0.81093 0.5851 0.0
Cd99 Cd 0.14588 0.79531 0.53064 0.0
Cd100 Cd 0.1159 0.86076 0.57174 0.0
O101 O 0.16603 0.86313 0.6107 0.0
O102 O 0.16891 0.75309 0.49767 0.0
O103 O 0.15429 0.79971 0.4498 0.0
C104 C 0.16835 0.76884 0.45173 0.0
C105 C 0.0878 0.91125 0.53689 0.0
C106 C 0.18948 0.83868 0.6128 0.0
C107 C 0.07687 0.79164 0.59477 0.0
O108 O 0.08017 0.82431 0.60253 0.0
O109 O 0.09883 0.77525 0.56422 0.0
O110 O 0.09058 0.90604 0.58829 0.0
O111 O 0.10227 0.88848 0.50486 0.0
H112 H 0.29172 0.35568 0.68366 0.0
C113 C 0.29062 0.33396 0.65532 0.0
H114 H 0.26708 0.28502 0.63735 0.0
H115 H 0.24635 0.24328 0.88104 0.0
H116 H 0.29811 0.20768 0.85558 0.0
H117 H 0.3278 0.21509 0.76668 0.0
H118 H 0.30611 0.25838 0.70303 0.0
C119 C 0.26733 0.30741 0.66442 0.0
C120 C 0.24855 0.30324 0.71749 0.0
C121 C 0.26107 0.27718 0.75386 0.0
C122 C 0.24362 0.27256 0.8048 0.0
C123 C 0.2578 0.24735 0.84119 0.0
C124 C 0.28773 0.22683 0.82726 0.0
C125 C 0.30448 0.23103 0.77727 0.0
C126 C 0.29156 0.25593 0.74097 0.0
H127 H 0.17011 0.24155 0.85454 0.0
C128 C 0.1755 0.26116 0.88538 0.0
H129 H 0.20081 0.30951 0.90309 0.0
H130 H 0.21716 0.35474 0.65668 0.0
H131 H 0.16577 0.39111 0.68271 0.0
H132 H 0.13562 0.38326 0.77124 0.0
H133 H 0.15654 0.33888 0.83427 0.0
C134 C 0.19559 0.28945 0.8729 0.0
C135 C 0.21318 0.29357 0.81891 0.0
C136 C 0.2009 0.31982 0.78279 0.0
C137 C 0.21849 0.32457 0.73188 0.0
C138 C 0.20513 0.35044 0.69613 0.0
C139 C 0.17559 0.37138 0.7105 0.0
C140 C 0.1586 0.36695 0.76035 0.0
C141 C 0.17091 0.34145 0.79618 0.0
H142 H 0.25172 0.21219 0.13735 0.0
C143 C 0.22769 0.19698 0.14802 0.0
H144 H 0.19798 0.17444 0.2121 0.0
H145 H 0.3612 0.2098 0.32283 0.0
H146 H 0.38417 0.1614 0.26916 0.0
H147 H 0.34437 0.13114 0.20341 0.0
H148 H 0.28132 0.14919 0.19073 0.0
C149 C 0.22325 0.18701 0.19975 0.0
C150 C 0.24669 0.20264 0.24279 0.0
C151 C 0.28323 0.1915 0.25023 0.0
C152 C 0.30598 0.20857 0.28889 0.0
C153 C 0.34258 0.19735 0.29474 0.0
C154 C 0.35613 0.1697 0.26406 0.0
C155 C 0.33373 0.1527 0.22696 0.0
C156 C 0.29768 0.16337 0.21994 0.0
H157 H 0.31085 0.21259 0.41689 0.0
C158 C 0.32108 0.23886 0.40998 0.0
H159 H 0.32341 0.28097 0.355 0.0
H160 H 0.17773 0.23056 0.23894 0.0
H161 H 0.15462 0.27819 0.29352 0.0
H162 H 0.19387 0.30727 0.36117 0.0
H163 H 0.25659 0.28894 0.37442 0.0
C164 C 0.31514 0.2541 0.36188 0.0
C165 C 0.292 0.23654 0.32032 0.0
C166 C 0.25536 0.24748 0.31318 0.0
C167 C 0.23264 0.23047 0.27454 0.0
C168 C 0.1962 0.24223 0.268 0.0
C169 C 0.18254 0.26963 0.29905 0.0
C170 C 0.20464 0.28602 0.3371 0.0
C171 C 0.24062 0.27521 0.34425 0.0
H172 H 0.78584 0.17075 0.32882 0.0
C173 C 0.78506 0.19369 0.35474 0.0
H174 H 0.76369 0.2445 0.36541 0.0
H175 H 0.75513 0.24052 0.101 0.0
H176 H 0.82111 0.23742 0.10411 0.0
H177 H 0.8534 0.22908 0.19086 0.0
H178 H 0.81998 0.2234 0.2747 0.0
C179 C 0.7646 0.22133 0.34004 0.0
C180 C 0.74527 0.22335 0.28694 0.0
C181 C 0.76547 0.22698 0.23811 0.0
C182 C 0.7469 0.23258 0.18816 0.0
C183 C 0.76773 0.23619 0.14009 0.0
C184 C 0.80569 0.23459 0.14125 0.0
C185 C 0.82385 0.22984 0.19006 0.0
C186 C 0.80419 0.22631 0.23801 0.0
H187 H 0.67253 0.294 0.15826 0.0
C188 C 0.67409 0.27492 0.12573 0.0
H189 H 0.69218 0.22483 0.10225 0.0
H190 H 0.69851 0.21681 0.37251 0.0
H191 H 0.63233 0.22008 0.36928 0.0
H192 H 0.6002 0.22962 0.28263 0.0
H193 H 0.634 0.23618 0.19872 0.0
C194 C 0.68958 0.24364 0.13501 0.0
C195 C 0.7083 0.23562 0.18721 0.0
C196 C 0.6881 0.23136 0.23576 0.0
C197 C 0.70663 0.22543 0.28567 0.0
C198 C 0.68581 0.22151 0.33358 0.0
C199 C 0.64782 0.2232 0.33227 0.0
C200 C 0.62973 0.2286 0.28348 0.0
C201 C 0.64948 0.23253 0.23564 0.0
H202 H 0.71061 0.36495 0.82605 0.0
C203 C 0.71311 0.34464 0.85655 0.0
H204 H 0.73779 0.2968 0.87758 0.0
H205 H 0.75147 0.24274 0.63875 0.0
H206 H 0.70304 0.20628 0.67386 0.0
H207 H 0.67696 0.21717 0.76437 0.0
H208 H 0.69873 0.26495 0.81983 0.0
C209 C 0.73624 0.31785 0.84817 0.0
C210 C 0.75315 0.31137 0.79417 0.0
C211 C 0.7406 0.28276 0.76258 0.0
C212 C 0.75618 0.276 0.71081 0.0
C213 C 0.74171 0.24836 0.67913 0.0
C214 C 0.71363 0.22733 0.69862 0.0
C215 C 0.69896 0.23345 0.74956 0.0
C216 C 0.71189 0.26096 0.7811 0.0
H217 H 0.82571 0.24286 0.65769 0.0
C218 C 0.82079 0.26184 0.62582 0.0
H219 H 0.79677 0.31024 0.60549 0.0
H220 H 0.78458 0.36721 0.8452 0.0
H221 H 0.83309 0.40391 0.80998 0.0
H222 H 0.8601 0.39227 0.72022 0.0
H223 H 0.8389 0.34379 0.66518 0.0
C224 C 0.80116 0.2907 0.63671 0.0
C225 C 0.78499 0.29732 0.69122 0.0
C226 C 0.79735 0.32603 0.72266 0.0
C227 C 0.78154 0.33297 0.77429 0.0
C228 C 0.79514 0.36121 0.80535 0.0
C229 C 0.82309 0.38237 0.78573 0.0
C230 C 0.83831 0.3758 0.73519 0.0
C231 C 0.82581 0.34794 0.70394 0.0
H232 H 0.82849 0.79717 0.14939 0.0
C233 C 0.82578 0.7779 0.11728 0.0
H234 H 0.80592 0.72794 0.09574 0.0
H235 H 0.79211 0.67217 0.33628 0.0
H236 H 0.84407 0.63859 0.3045 0.0
H237 H 0.87224 0.65113 0.21584 0.0
H238 H 0.84874 0.69738 0.15844 0.0
C239 C 0.8081 0.74775 0.12712 0.0
C240 C 0.79095 0.74024 0.18062 0.0
C241 C 0.80472 0.71283 0.21341 0.0
C242 C 0.78834 0.70543 0.26446 0.0
C243 C 0.8032 0.67852 0.29689 0.0
C244 C 0.83309 0.65914 0.27921 0.0
C245 C 0.84896 0.66621 0.22929 0.0
C246 C 0.83514 0.69277 0.19668 0.0
H247 H 0.71661 0.6712 0.31523 0.0
C248 C 0.71874 0.69181 0.34537 0.0
H249 H 0.74229 0.74047 0.36525 0.0
H250 H 0.75431 0.79131 0.12466 0.0
H251 H 0.70228 0.82446 0.15621 0.0
H252 H 0.67524 0.81299 0.2459 0.0
H253 H 0.69963 0.76782 0.30407 0.0
C254 C 0.74126 0.71901 0.33645 0.0
C255 C 0.75808 0.72531 0.28243 0.0
C256 C 0.74391 0.75236 0.24925 0.0
C257 C 0.76003 0.75953 0.19803 0.0
C258 C 0.74411 0.78554 0.16474 0.0
C259 C 0.71398 0.80464 0.18217 0.0
C260 C 0.69875 0.79817 0.23264 0.0
C261 C 0.71319 0.77221 0.26575 0.0
H262 H 0.67914 0.73868 0.64914 0.0
C263 C 0.68241 0.75778 0.61698 0.0
H264 H 0.70328 0.80734 0.59552 0.0
H265 H 0.71623 0.86404 0.83582 0.0
H266 H 0.66517 0.89831 0.80265 0.0
H267 H 0.63752 0.88581 0.7135 0.0
H268 H 0.66062 0.83888 0.65701 0.0
C269 C 0.70055 0.78768 0.62697 0.0
C270 C 0.71743 0.79518 0.68077 0.0
C271 C 0.70392 0.82299 0.71302 0.0
C272 C 0.72005 0.8304 0.76432 0.0
C273 C 0.70538 0.85769 0.79624 0.0
C274 C 0.676 0.87747 0.77777 0.0
C275 C 0.66041 0.87042 0.72757 0.0
C276 C 0.674 0.84346 0.69549 0.0
H277 H 0.79089 0.86455 0.81662 0.0
C278 C 0.78885 0.84385 0.84655 0.0
H279 H 0.76549 0.7951 0.86602 0.0
H280 H 0.75349 0.74317 0.62606 0.0
H281 H 0.80478 0.70944 0.65883 0.0
H282 H 0.83153 0.7211 0.74879 0.0
H283 H 0.80753 0.76695 0.80604 0.0
C284 C 0.7665 0.81655 0.83727 0.0
C285 C 0.74985 0.81017 0.78305 0.0
C286 C 0.76378 0.78271 0.75039 0.0
C287 C 0.74787 0.77549 0.69896 0.0
C288 C 0.76355 0.74903 0.66624 0.0
C289 C 0.79325 0.72959 0.68438 0.0
C290 C 0.80831 0.73615 0.735 0.0
C291 C 0.79409 0.76252 0.76758 0.0
H292 H 0.33855 0.74296 0.84909 0.0
C293 C 0.3369 0.76394 0.87866 0.0
H294 H 0.31789 0.815 0.89481 0.0
H295 H 0.29349 0.85782 0.64981 0.0
H296 H 0.34794 0.8915 0.67065 0.0
H297 H 0.38093 0.88282 0.75682 0.0
H298 H 0.35978 0.84032 0.82266 0.0
C299 C 0.31928 0.79364 0.86589 0.0
C300 C 0.29985 0.79815 0.81328 0.0
C301 C 0.31237 0.82328 0.77543 0.0
C302 C 0.29322 0.82847 0.72583 0.0
C303 C 0.30674 0.85321 0.68834 0.0
C304 C 0.33801 0.87262 0.69973 0.0
C305 C 0.3566 0.86772 0.74826 0.0
C306 C 0.34412 0.84331 0.78575 0.0
H307 H 0.21916 0.86214 0.68202 0.0
C308 C 0.21891 0.8403 0.65387 0.0
H309 H 0.24015 0.79045 0.63571 0.0
H310 H 0.26549 0.75097 0.87981 0.0
H311 H 0.21088 0.71795 0.85927 0.0
H312 H 0.17882 0.72566 0.77218 0.0
H313 H 0.20098 0.76678 0.70547 0.0
C314 C 0.24133 0.81301 0.66239 0.0
C315 C 0.26146 0.80865 0.71437 0.0
C316 C 0.2487 0.78376 0.75246 0.0
C317 C 0.26761 0.7788 0.80224 0.0
C318 C 0.25307 0.75503 0.84058 0.0
C319 C 0.22149 0.73605 0.82952 0.0
C320 C 0.2034 0.74043 0.78055 0.0
C321 C 0.21658 0.76406 0.74247 0.0
H322 H 0.2626 0.73568 0.13133 0.0
C323 C 0.2829 0.71634 0.14289 0.0
H324 H 0.30375 0.68614 0.20743 0.0
H325 H 0.24241 0.8106 0.35741 0.0
H326 H 0.30184 0.83496 0.33651 0.0
H327 H 0.342 0.80683 0.26922 0.0
H328 H 0.32318 0.7541 0.22286 0.0
C329 C 0.28232 0.70357 0.1935 0.0
C330 C 0.25805 0.71968 0.23488 0.0
C331 C 0.26961 0.75043 0.26205 0.0
C332 C 0.24641 0.76665 0.30076 0.0
C333 C 0.25878 0.79726 0.32738 0.0
C334 C 0.29289 0.81152 0.31586 0.0
C335 C 0.31552 0.79568 0.27805 0.0
C336 C 0.30426 0.76545 0.25151 0.0
H337 H 0.19672 0.72607 0.4098 0.0
C338 C 0.18512 0.75194 0.40417 0.0
H339 H 0.17905 0.79435 0.35047 0.0
H340 H 0.22812 0.66105 0.19043 0.0
H341 H 0.16819 0.63688 0.21023 0.0
H342 H 0.12741 0.66547 0.27626 0.0
H343 H 0.14625 0.71826 0.3231 0.0
C344 C 0.18895 0.76788 0.35612 0.0
C345 C 0.21187 0.75186 0.31283 0.0
C346 C 0.20018 0.72128 0.28527 0.0
C347 C 0.22344 0.70507 0.24648 0.0
C348 C 0.21133 0.67444 0.21993 0.0
C349 C 0.17706 0.66033 0.23093 0.0
C350 C 0.15412 0.6764 0.26818 0.0
C351 C 0.16535 0.70657 0.29504 0.0
H352 H 0.07838 0.28717 0.16711 0.0
C353 C 0.06418 0.26924 0.14022 0.0
H354 H 0.01719 0.2399 0.12487 0.0
H355 H 0.98104 0.18912 0.35565 0.0
H356 H 0.99276 0.1359 0.30692 0.0
H357 H 0.01782 0.13718 0.21428 0.0
H358 H 0.03029 0.19173 0.1697 0.0
C359 C 0.03071 0.25758 0.15295 0.0
C360 C 0.0177 0.25785 0.21019 0.0
C361 C 0.01225 0.22537 0.23682 0.0
C362 C 0.99972 0.22461 0.29129 0.0
C363 C 0.99211 0.1917 0.31533 0.0
C364 C 0.99849 0.16067 0.28762 0.0
C365 C 0.01245 0.16139 0.23548 0.0
C366 C 0.01928 0.19316 0.21021 0.0
H367 H 0.93404 0.28665 0.36087 0.0
C368 C 0.94636 0.26736 0.38744 0.0
H369 H 0.99144 0.23576 0.40421 0.0
H370 H 0.02179 0.32437 0.17019 0.0
H371 H 0.01542 0.37806 0.22165 0.0
H372 H 1.00171 0.37655 0.31951 0.0
H373 H 0.99319 0.32135 0.36612 0.0
C374 C 0.97967 0.25465 0.37642 0.0
C375 C 0.99464 0.25631 0.32029 0.0
C376 C 1.00176 0.28869 0.29449 0.0
C377 C 0.01196 0.2895 0.23882 0.0
C378 C 0.01588 0.32224 0.21299 0.0
C379 C 0.01203 0.35324 0.24197 0.0
C380 C 0.00415 0.3524 0.29701 0.0
C381 C 0.99905 0.32057 0.32319 0.0
H382 H 0.45953 0.23523 0.6248 0.0
C383 C 0.45801 0.26345 0.62872 0.0
H384 H 0.47523 0.30787 0.67258 0.0
H385 H 0.49696 0.21859 0.88573 0.0
H386 H 0.43125 0.20846 0.883 0.0
H387 H 0.39559 0.22252 0.80097 0.0
H388 H 0.42518 0.24625 0.72116 0.0
C389 C 0.47666 0.27968 0.66824 0.0
C390 C 0.49818 0.26096 0.70996 0.0
C391 C 0.48029 0.24644 0.75564 0.0
C392 C 0.5006 0.23901 0.80333 0.0
C393 C 0.48235 0.22514 0.84894 0.0
C394 C 0.44484 0.21913 0.84778 0.0
C395 C 0.42477 0.227 0.80154 0.0
C396 C 0.44211 0.24063 0.75595 0.0
H397 H 0.52331 0.29474 0.8772 0.0
C398 C 0.54735 0.27976 0.8886 0.0
H399 H 0.58214 0.23826 0.86666 0.0
H400 H 0.54098 0.28157 0.62561 0.0
H401 H 0.60678 0.29048 0.62783 0.0
H402 H 0.64191 0.27928 0.71125 0.0
H403 H 0.61188 0.25826 0.79261 0.0
C404 C 0.55662 0.25178 0.85874 0.0
C405 C 0.53833 0.24684 0.80545 0.0
C406 C 0.55686 0.25731 0.75769 0.0
C407 C 0.53662 0.26439 0.70983 0.0
C408 C 0.55526 0.27626 0.66315 0.0
C409 C 0.59292 0.28134 0.66385 0.0
C410 C 0.61273 0.27489 0.71083 0.0
C411 C 0.59509 0.26299 0.75732 0.0
H412 H 0.04774 0.74373 0.6208 0.0
C413 C 0.04986 0.77178 0.62666 0.0
H414 H 0.03337 0.81522 0.67331 0.0
H415 H 0.89356 0.76195 0.78329 0.0
H416 H 0.86514 0.78508 0.70201 0.0
H417 H 0.90199 0.79907 0.62135 0.0
H418 H 0.96784 0.79066 0.62185 0.0
C419 C 0.03134 0.78722 0.66698 0.0
C420 C 0.00895 0.76766 0.7067 0.0
C421 C 0.97053 0.77098 0.7049 0.0
C422 C 0.94932 0.76239 0.75118 0.0
C423 C 0.91108 0.76783 0.74926 0.0
C424 C 0.89436 0.78096 0.70278 0.0
C425 C 0.91513 0.78895 0.65737 0.0
C426 C 0.95281 0.78413 0.65822 0.0
H427 H 0.98007 0.79667 0.87435 0.0
C428 C 0.95586 0.78133 0.88361 0.0
H429 H 0.92178 0.74028 0.8574 0.0
H430 H 0.08168 0.75282 0.7203 0.0
H431 H 0.10974 0.72697 0.79987 0.0
H432 H 0.07248 0.7106 0.87918 0.0
H433 H 0.00671 0.72044 0.87942 0.0
C434 C 0.94744 0.75404 0.8517 0.0
C435 C 0.96688 0.75064 0.79908 0.0
C436 C 0.00468 0.7431 0.79832 0.0
C437 C 0.02593 0.75194 0.7522 0.0
C438 C 0.0641 0.74621 0.75391 0.0
C439 C 0.08055 0.73138 0.79936 0.0
C440 C 0.05958 0.7222 0.84406 0.0
C441 C 0.02204 0.72805 0.84383 0.0
H442 H 0.46236 0.79955 0.11751 0.0
C443 C 0.458 0.77213 0.12667 0.0
H444 H 0.47064 0.73002 0.17857 0.0
H445 H 0.61532 0.77381 0.2816 0.0
H446 H 0.64119 0.74914 0.19946 0.0
H447 H 0.60262 0.73814 0.11926 0.0
H448 H 0.53757 0.75122 0.12104 0.0
C449 C 0.47495 0.75741 0.16919 0.0
C450 C 0.4992 0.77668 0.20688 0.0
C451 C 0.53724 0.7707 0.20432 0.0
C452 C 0.55946 0.7775 0.25034 0.0
C453 C 0.59714 0.76936 0.24772 0.0
C454 C 0.61238 0.7553 0.20078 0.0
C455 C 0.59063 0.74901 0.15563 0.0
C456 C 0.55343 0.75649 0.15719 0.0
H457 H 0.52862 0.74331 0.37213 0.0
C458 C 0.55342 0.75768 0.38188 0.0
H459 H 0.58909 0.79778 0.35688 0.0
H460 H 0.42843 0.79771 0.22081 0.0
H461 H 0.40314 0.82548 0.30116 0.0
H462 H 0.44199 0.83793 0.3806 0.0
H463 H 0.50661 0.82261 0.38022 0.0
C464 C 0.56286 0.78507 0.35093 0.0
C465 C 0.54327 0.79012 0.29873 0.0
C466 C 0.50623 0.80051 0.29864 0.0
C467 C 0.48401 0.79362 0.25264 0.0
C468 C 0.44656 0.80254 0.25463 0.0
C469 C 0.43174 0.81848 0.30041 0.0
C470 C 0.45364 0.82551 0.3452 0.0
C471 C 0.4905 0.81655 0.34461 0.0
H472 H 0.06949 0.09468 0.97567 0.0
C473 C 0.06947 0.09944 0.0191 0.0
H474 H 0.04819 0.08422 0.09505 0.0
H475 H 0.9214 0.02047 0.93028 0.0
H476 H 0.90824 0.08082 0.90819 0.0
H477 H 0.94714 0.1284 0.94298 0.0
H478 H 0.99959 0.11598 0.99954 0.0
C479 C 0.04805 0.07991 0.05152 0.0
C480 C 0.02417 0.05134 0.03021 0.0
C481 C 0.9932 0.05912 0.99772 0.0
C482 C 0.97031 0.03168 0.97845 0.0
C483 C 0.93973 0.04023 0.94589 0.0
C484 C 0.93177 0.07478 0.93305 0.0
C485 C 0.95369 0.10157 0.95259 0.0
C486 C 0.98394 0.09402 0.98476 0.0
H487 H 0.93149 0.95222 0.04377 0.0
C488 C 0.93284 0.94778 1.00032 0.0
H489 H 0.95594 0.96387 0.926 0.0
H490 H 0.08039 0.02743 0.09299 0.0
H491 H 0.09335 0.96712 0.1155 0.0
H492 H 0.05438 0.91954 0.08089 0.0
H493 H 1.00208 0.93192 0.02405 0.0
C494 C 0.95478 0.9679 0.96956 0.0
C495 C 0.97782 0.99653 0.99255 0.0
C496 C 0.00862 0.98877 0.02543 0.0
C497 C 0.03153 1.01622 0.04468 0.0
C498 C 0.06204 1.00768 0.07739 0.0
C499 C 0.06989 0.97315 0.09049 0.0
C500 C 0.04792 0.94636 0.07105 0.0
C501 C 0.01777 0.95389 0.03868 0.0
H502 H 0.57568 0.58327 0.53848 0.0
C503 C 0.57389 0.58827 0.49521 0.0
H504 H 0.55059 0.57272 0.42065 0.0
H505 H 0.51181 0.41852 0.48917 0.0
H506 H 0.56321 0.40839 0.42966 0.0
H507 H 0.59992 0.45751 0.39508 0.0
H508 H 0.58563 0.51711 0.42038 0.0
C509 C 0.55212 0.56814 0.46405 0.0
C510 C 0.53006 0.53859 0.4863 0.0
C511 C 0.53814 0.50388 0.47024 0.0
C512 C 0.51643 0.47555 0.48932 0.0
C513 C 0.52642 0.44113 0.47453 0.0
C514 C 0.55612 0.43489 0.44068 0.0
C515 C 0.57682 0.46253 0.42127 0.0
C516 C 0.5682 0.49664 0.43595 0.0
H517 H 0.44191 0.43668 0.46969 0.0
C518 C 0.44244 0.43217 0.51316 0.0
H519 H 0.46374 0.44838 0.58865 0.0
H520 H 0.50471 0.60203 0.52149 0.0
H521 H 0.45333 0.61219 0.58101 0.0
H522 H 0.41634 0.56312 0.6151 0.0
H523 H 0.43036 0.50356 0.5894 0.0
C524 C 0.46349 0.45251 0.54508 0.0
C525 C 0.48598 0.48199 0.52351 0.0
C526 C 0.47798 0.51671 0.53971 0.0
C527 C 0.49975 0.54503 0.52073 0.0
C528 C 0.48995 0.57944 0.53584 0.0
C529 C 0.46029 0.5857 0.56975 0.0
C530 C 0.43944 0.55808 0.5889 0.0
C531 C 0.44791 0.52398 0.57398 0.0
H532 H 0.43484 0.59816 0.97942 0.0
C533 C 0.43474 0.60268 0.02291 0.0
H534 H 0.45504 0.58649 0.09897 0.0
H535 H 0.49786 0.43323 0.03056 0.0
H536 H 0.44573 0.42232 0.08832 0.0
H537 H 0.40796 0.47091 0.12219 0.0
H538 H 0.42196 0.53073 0.09805 0.0
C539 C 0.45525 0.5823 0.0554 0.0
C540 C 0.4783 0.5531 0.03422 0.0
C541 C 0.4703 0.51823 0.04953 0.0
C542 C 0.49251 0.49019 0.03067 0.0
C543 C 0.48274 0.45561 0.04486 0.0
C544 C 0.45266 0.44893 0.07776 0.0
C545 C 0.43137 0.47628 0.09678 0.0
C546 C 0.43983 0.51053 0.08276 0.0
H547 H 0.56869 0.45242 0.04953 0.0
C548 C 0.56733 0.44768 1.00614 0.0
H549 H 0.54454 0.46349 0.93142 0.0
H550 H 0.50435 0.61699 1.00213 0.0
H551 H 0.55648 0.62786 0.94439 0.0
H552 H 0.59389 0.57922 0.90984 0.0
H553 H 0.57955 0.51936 0.93343 0.0
C554 C 0.54568 0.46782 0.97492 0.0
C555 C 0.52322 0.49707 0.99724 0.0
C556 C 0.53133 0.53193 0.98215 0.0
C557 C 0.50922 0.55999 1.00116 0.0
C558 C 0.51925 0.59458 0.98743 0.0
C559 C 0.54937 0.60125 0.95461 0.0
C560 C 0.57046 0.57387 0.93522 0.0
C561 C 0.56181 0.5396 0.94892 0.0
H562 H 0.06593 0.94489 0.47147 0.0
C563 C 0.06726 0.94149 0.51514 0.0
H564 H 0.04876 0.95933 0.59125 0.0
H565 H 0.01522 0.09949 0.44087 0.0
H566 H 0.08074 0.10346 0.42909 0.0
H567 H 0.12137 0.05695 0.46261 0.0
H568 H 0.09672 1.00603 0.50776 0.0
C569 C 0.04879 0.96354 0.5477 0.0
C570 C 0.02451 0.99169 0.52611 0.0
C571 C 0.03937 0.02145 0.5 0.0
C572 C 0.01588 0.04855 0.48124 0.0
C573 C 0.03161 0.07802 0.45561 0.0
C574 C 0.06924 0.08074 0.44875 0.0
C575 C 0.09212 0.05453 0.46759 0.0
C576 C 0.07755 0.02529 0.49317 0.0
H577 H 0.93476 0.09145 0.54491 0.0
C578 C 0.93418 0.09584 0.50141 0.0
H579 H 0.95393 0.07978 0.42506 0.0
H580 H 0.98692 0.93838 0.57434 0.0
H581 H 0.92134 0.93414 0.58554 0.0
H582 H 0.88065 0.98047 0.55153 0.0
H583 H 0.90528 0.03145 0.50655 0.0
C584 C 0.95334 0.07463 0.46836 0.0
C585 C 0.97755 0.04621 0.48925 0.0
C586 C 0.96268 1.01633 0.51505 0.0
C587 C 0.98618 0.98928 0.53392 0.0
C588 C 0.97048 0.95977 0.55947 0.0
C589 C 0.93283 0.95691 0.56598 0.0
C590 C 0.90992 0.98301 0.54688 0.0
C591 C 0.92448 1.01231 0.52145 0.0
loop_
_geom_bond_atom_site_label_1
_geom_bond_atom_site_label_2
_geom_bond_distance
_geom_bond_site_symmetry_2
_ccdc_geom_bond_type
O0 Cd1 2.223 . S
O0 C8 1.315 . S
Cd1 O0 2.223 . S
Cd1 O4 2.297 1_554 S
Cd1 O5 2.439 1_554 S
Cd1 O11 2.240 . S
Cd2 O3 2.240 . S
Cd2 O10 2.223 . S
Cd2 O12 2.297 . S
Cd2 O13 2.439 . S
O3 Cd2 2.240 . S
O3 C8 1.279 . S
O4 Cd1 2.297 1_556 S
O4 C6 1.247 . S
O5 Cd1 2.439 1_556 S
O5 C6 1.208 . S
C6 O4 1.247 . S
C6 O5 1.208 . S
C7 O12 1.247 . S
C7 O13 1.208 . S
C8 O0 1.315 . S
C8 O3 1.279 . S
C9 O10 1.315 . S
C9 O11 1.279 . S
O10 Cd2 2.223 . S
O10 C9 1.315 . S
O11 Cd1 2.240 . S
O11 C9 1.279 . S
O12 Cd2 2.297 . S
O12 C7 1.247 . S
O13 Cd2 2.439 . S
O13 C7 1.208 . S
O14 Cd15 2.223 . S
O14 C22 1.315 . S
Cd15 O14 2.223 . S
Cd15 O18 2.297 . S
Cd15 O19 2.439 . S
Cd15 O25 2.240 . S
Cd16 O17 2.240 . S
Cd16 O24 2.223 . S
Cd16 O26 2.297 . S
Cd16 O27 2.439 . S
O17 Cd16 2.240 . S
O17 C22 1.279 . S
O18 Cd15 2.297 . S
O18 C20 1.247 . S
O19 Cd15 2.439 . S
O19 C20 1.208 . S
C20 O18 1.247 . S
C20 O19 1.208 . S
C21 O26 1.247 . S
C21 O27 1.208 . S
C22 O14 1.315 . S
C22 O17 1.279 . S
C23 O24 1.315 . S
C23 O25 1.279 . S
O24 Cd16 2.223 . S
O24 C23 1.315 . S
O25 Cd15 2.240 . S
O25 C23 1.279 . S
O26 Cd16 2.297 . S
O26 C21 1.247 . S
O27 Cd16 2.439 . S
O27 C21 1.208 . S
O28 Cd29 2.223 . S
O28 C36 1.315 . S
Cd29 O28 2.223 . S
Cd29 O32 2.297 1_556 S
Cd29 O33 2.439 1_556 S
Cd29 O39 2.240 . S
Cd30 O31 2.240 . S
Cd30 O38 2.223 . S
Cd30 O40 2.297 . S
Cd30 O41 2.439 . S
O31 Cd30 2.240 . S
O31 C36 1.279 . S
O32 Cd29 2.297 1_554 S
O32 C34 1.247 . S
O33 Cd29 2.439 1_554 S
O33 C34 1.208 . S
C34 O32 1.247 . S
C34 O33 1.208 . S
C35 O40 1.247 . S
C35 O41 1.208 . S
C36 O28 1.315 . S
C36 O31 1.279 . S
C37 O38 1.315 . S
C37 O39 1.279 . S
O38 Cd30 2.223 . S
O38 C37 1.315 . S
O39 Cd29 2.240 . S
O39 C37 1.279 . S
O40 Cd30 2.297 . S
O40 C35 1.247 . S
O41 Cd30 2.439 . S
O41 C35 1.208 . S
O42 Cd43 2.223 . S
O42 C50 1.315 . S
Cd43 O42 2.223 . S
Cd43 O46 2.297 . S
Cd43 O47 2.439 . S
Cd43 O53 2.240 . S
Cd44 O45 2.240 . S
Cd44 O52 2.223 . S
Cd44 O54 2.297 . S
Cd44 O55 2.439 . S
O45 Cd44 2.240 . S
O45 C50 1.279 . S
O46 Cd43 2.297 . S
O46 C48 1.247 . S
O47 Cd43 2.439 . S
O47 C48 1.208 . S
C48 O46 1.247 . S
C48 O47 1.208 . S
C49 O54 1.247 . S
C49 O55 1.208 . S
C50 O42 1.315 . S
C50 O45 1.279 . S
C51 O52 1.315 . S
C51 O53 1.279 . S
O52 Cd44 2.223 . S
O52 C51 1.315 . S
O53 Cd43 2.240 . S
O53 C51 1.279 . S
O54 Cd44 2.297 . S
O54 C49 1.247 . S
O55 Cd44 2.439 . S
O55 C49 1.208 . S
O56 Cd57 2.223 . S
O56 C64 1.315 . S
Cd57 O56 2.223 . S
Cd57 O60 2.297 1_556 S
Cd57 O61 2.439 1_556 S
Cd57 O67 2.240 . S
Cd58 O59 2.240 . S
Cd58 O66 2.223 . S
Cd58 O68 2.297 . S
Cd58 O69 2.439 . S
O59 Cd58 2.240 . S
O59 C64 1.279 . S
O60 Cd57 2.297 1_554 S
O60 C62 1.247 . S
O61 Cd57 2.439 1_554 S
O61 C62 1.208 . S
C62 O60 1.247 . S
C62 O61 1.208 . S
C63 O68 1.247 . S
C63 O69 1.208 . S
C64 O56 1.315 . S
C64 O59 1.279 . S
C65 O66 1.315 . S
C65 O67 1.279 . S
O66 Cd58 2.223 . S
O66 C65 1.315 . S
O67 Cd57 2.240 . S
O67 C65 1.279 . S
O68 Cd58 2.297 . S
O68 C63 1.247 . S
O69 Cd58 2.439 . S
O69 C63 1.208 . S
O70 Cd71 2.223 . S
O70 C78 1.315 . S
Cd71 O70 2.223 . S
Cd71 O74 2.297 . S
Cd71 O75 2.439 . S
Cd71 O81 2.240 . S
Cd72 O73 2.240 . S
Cd72 O80 2.223 . S
Cd72 O82 2.297 . S
Cd72 O83 2.439 . S
O73 Cd72 2.240 . S
O73 C78 1.279 . S
O74 Cd71 2.297 . S
O74 C76 1.247 . S
O75 Cd71 2.439 . S
O75 C76 1.208 . S
C76 O74 1.247 . S
C76 O75 1.208 . S
C77 O82 1.247 . S
C77 O83 1.208 . S
C78 O70 1.315 . S
C78 O73 1.279 . S
C79 O80 1.315 . S
C79 O81 1.279 . S
O80 Cd72 2.223 . S
O80 C79 1.315 . S
O81 Cd71 2.240 . S
O81 C79 1.279 . S
O82 Cd72 2.297 . S
O82 C77 1.247 . S
O83 Cd72 2.439 . S
O83 C77 1.208 . S
O84 Cd85 2.223 . S
O84 C92 1.315 . S
Cd85 O84 2.223 . S
Cd85 O88 2.297 1_554 S
Cd85 O89 2.439 1_554 S
Cd85 O95 2.240 . S
Cd86 O87 2.240 . S
Cd86 O94 2.223 . S
Cd86 O96 2.297 . S
Cd86 O97 2.439 . S
O87 Cd86 2.240 . S
O87 C92 1.279 . S
O88 Cd85 2.297 1_556 S
O88 C90 1.247 . S
O89 Cd85 2.439 1_556 S
O89 C90 1.208 . S
C90 O88 1.247 . S
C90 O89 1.208 . S
C91 O96 1.247 . S
C91 O97 1.208 . S
C92 O84 1.315 . S
C92 O87 1.279 . S
C93 O94 1.315 . S
C93 O95 1.279 . S
O94 Cd86 2.223 . S
O94 C93 1.315 . S
O95 Cd85 2.240 . S
O95 C93 1.279 . S
O96 Cd86 2.297 . S
O96 C91 1.247 . S
O97 Cd86 2.439 . S
O97 C91 1.208 . S
O98 Cd99 2.223 . S
O98 C106 1.315 . S
Cd99 O98 2.223 . S
Cd99 O102 2.297 . S
Cd99 O103 2.439 . S
Cd99 O109 2.240 . S
Cd100 O101 2.240 . S
Cd100 O108 2.223 . S
Cd100 O110 2.297 . S
Cd100 O111 2.439 . S
O101 Cd100 2.240 . S
O101 C106 1.279 . S
O102 Cd99 2.297 . S
O102 C104 1.247 . S
O103 Cd99 2.439 . S
O103 C104 1.208 . S
C104 O102 1.247 . S
C104 O103 1.208 . S
C105 O110 1.247 . S
C105 O111 1.208 . S
C106 O98 1.315 . S
C106 O101 1.279 . S
C107 O108 1.315 . S
C107 O109 1.279 . S
O108 Cd100 2.223 . S
O108 C107 1.315 . S
O109 Cd99 2.240 . S
O109 C107 1.279 . S
O110 Cd100 2.297 . S
O110 C105 1.247 . S
O111 Cd100 2.439 . S
O111 C105 1.208 . S
H112 C113 0.951 . S
C113 H112 0.951 . S
C113 C119 1.265 . S
H114 C119 0.950 . S
H115 C123 0.949 . S
H116 C124 0.950 . S
H117 C125 0.951 . S
H118 C126 0.951 . S
C119 C113 1.265 . S
C119 H114 0.950 . S
C119 C120 1.478 . S
C120 C119 1.478 . S
C120 C121 1.397 . S
C120 C137 1.394 . S
C121 C120 1.397 . S
C121 C122 1.438 . S
C121 C126 1.429 . S
C122 C121 1.438 . S
C122 C123 1.428 . S
C122 C135 1.394 . S
C123 H115 0.949 . S
C123 C122 1.428 . S
C123 C124 1.345 . S
C124 H116 0.950 . S
C124 C123 1.345 . S
C124 C125 1.424 . S
C125 H117 0.951 . S
C125 C124 1.424 . S
C125 C126 1.347 . S
C126 H118 0.951 . S
C126 C121 1.429 . S
C126 C125 1.347 . S
H127 C128 0.951 . S
C128 H127 0.951 . S
C128 C134 1.265 . S
H129 C134 0.950 . S
H130 C138 0.949 . S
H131 C139 0.950 . S
H132 C140 0.951 . S
H133 C141 0.951 . S
C134 C128 1.265 . S
C134 H129 0.950 . S
C134 C135 1.478 . S
C135 C122 1.394 . S
C135 C134 1.478 . S
C135 C136 1.397 . S
C136 C135 1.397 . S
C136 C137 1.438 . S
C136 C141 1.429 . S
C137 C120 1.394 . S
C137 C136 1.438 . S
C137 C138 1.428 . S
C138 H130 0.949 . S
C138 C137 1.428 . S
C138 C139 1.345 . S
C139 H131 0.950 . S
C139 C138 1.345 . S
C139 C140 1.424 . S
C140 H132 0.951 . S
C140 C139 1.424 . S
C140 C141 1.347 . S
C141 H133 0.951 . S
C141 C136 1.429 . S
C141 C140 1.347 . S
H142 C143 0.951 . S
C143 H142 0.951 . S
C143 C149 1.265 . S
H144 C149 0.950 . S
H145 C153 0.949 . S
H146 C154 0.950 . S
H147 C155 0.951 . S
H148 C156 0.951 . S
C149 C143 1.265 . S
C149 H144 0.950 . S
C149 C150 1.478 . S
C150 C149 1.478 . S
C150 C151 1.397 . S
C150 C167 1.394 . S
C151 C150 1.397 . S
C151 C152 1.438 . S
C151 C156 1.429 . S
C152 C151 1.438 . S
C152 C153 1.428 . S
C152 C165 1.394 . S
C153 H145 0.949 . S
C153 C152 1.428 . S
C153 C154 1.345 . S
C154 H146 0.950 . S
C154 C153 1.345 . S
C154 C155 1.424 . S
C155 H147 0.951 . S
C155 C154 1.424 . S
C155 C156 1.347 . S
C156 H148 0.951 . S
C156 C151 1.429 . S
C156 C155 1.347 . S
H157 C158 0.951 . S
C158 H157 0.951 . S
C158 C164 1.265 . S
H159 C164 0.950 . S
H160 C168 0.949 . S
H161 C169 0.950 . S
H162 C170 0.951 . S
H163 C171 0.951 . S
C164 C158 1.265 . S
C164 H159 0.950 . S
C164 C165 1.478 . S
C165 C152 1.394 . S
C165 C164 1.478 . S
C165 C166 1.397 . S
C166 C165 1.397 . S
C166 C167 1.438 . S
C166 C171 1.429 . S
C167 C150 1.394 . S
C167 C166 1.438 . S
C167 C168 1.428 . S
C168 H160 0.949 . S
C168 C167 1.428 . S
C168 C169 1.345 . S
C169 H161 0.950 . S
C169 C168 1.345 . S
C169 C170 1.424 . S
C170 H162 0.951 . S
C170 C169 1.424 . S
C170 C171 1.347 . S
C171 H163 0.951 . S
C171 C166 1.429 . S
C171 C170 1.347 . S
H172 C173 0.951 . S
C173 H172 0.951 . S
C173 C179 1.265 . S
H174 C179 0.950 . S
H175 C183 0.949 . S
H176 C184 0.950 . S
H177 C185 0.951 . S
H178 C186 0.951 . S
C179 C173 1.265 . S
C179 H174 0.950 . S
C179 C180 1.478 . S
C180 C179 1.478 . S
C180 C181 1.397 . S
C180 C197 1.394 . S
C181 C180 1.397 . S
C181 C182 1.438 . S
C181 C186 1.429 . S
C182 C181 1.438 . S
C182 C183 1.428 . S
C182 C195 1.394 . S
C183 H175 0.949 . S
C183 C182 1.428 . S
C183 C184 1.345 . S
C184 H176 0.950 . S
C184 C183 1.345 . S
C184 C185 1.424 . S
C185 H177 0.951 . S
C185 C184 1.424 . S
C185 C186 1.347 . S
C186 H178 0.951 . S
C186 C181 1.429 . S
C186 C185 1.347 . S
H187 C188 0.951 . S
C188 H187 0.951 . S
C188 C194 1.265 . S
H189 C194 0.950 . S
H190 C198 0.949 . S
H191 C199 0.950 . S
H192 C200 0.951 . S
H193 C201 0.951 . S
C194 C188 1.265 . S
C194 H189 0.950 . S
C194 C195 1.478 . S
C195 C182 1.394 . S
C195 C194 1.478 . S
C195 C196 1.397 . S
C196 C195 1.397 . S
C196 C197 1.438 . S
C196 C201 1.429 . S
C197 C180 1.394 . S
C197 C196 1.438 . S
C197 C198 1.428 . S
C198 H190 0.949 . S
C198 C197 1.428 . S
C198 C199 1.345 . S
C199 H191 0.950 . S
C199 C198 1.345 . S
C199 C200 1.424 . S
C200 H192 0.951 . S
C200 C199 1.424 . S
C200 C201 1.347 . S
C201 H193 0.951 . S
C201 C196 1.429 . S
C201 C200 1.347 . S
H202 C203 0.951 . S
C203 H202 0.951 . S
C203 C209 1.265 . S
H204 C209 0.950 . S
H205 C213 0.949 . S
H206 C214 0.950 . S
H207 C215 0.951 . S
H208 C216 0.951 . S
C209 C203 1.265 . S
C209 H204 0.950 . S
C209 C210 1.478 . S
C210 C209 1.478 . S
C210 C211 1.397 . S
C210 C227 1.394 . S
C211 C210 1.397 . S
C211 C212 1.438 . S
C211 C216 1.429 . S
C212 C211 1.438 . S
C212 C213 1.428 . S
C212 C225 1.394 . S
C213 H205 0.949 . S
C213 C212 1.428 . S
C213 C214 1.345 . S
C214 H206 0.950 . S
C214 C213 1.345 . S
C214 C215 1.424 . S
C215 H207 0.951 . S
C215 C214 1.424 . S
C215 C216 1.347 . S
C216 H208 0.951 . S
C216 C211 1.429 . S
C216 C215 1.347 . S
H217 C218 0.951 . S
C218 H217 0.951 . S
C218 C224 1.265 . S
H219 C224 0.950 . S
H220 C228 0.949 . S
H221 C229 0.950 . S
H222 C230 0.951 . S
H223 C231 0.951 . S
C224 C218 1.265 . S
C224 H219 0.950 . S
C224 C225 1.478 . S
C225 C212 1.394 . S
C225 C224 1.478 . S
C225 C226 1.397 . S
C226 C225 1.397 . S
C226 C227 1.438 . S
C226 C231 1.429 . S
C227 C210 1.394 . S
C227 C226 1.438 . S
C227 C228 1.428 . S
C228 H220 0.949 . S
C228 C227 1.428 . S
C228 C229 1.345 . S
C229 H221 0.950 . S
C229 C228 1.345 . S
C229 C230 1.424 . S
C230 H222 0.951 . S
C230 C229 1.424 . S
C230 C231 1.347 . S
C231 H223 0.951 . S
C231 C226 1.429 . S
C231 C230 1.347 . S
H232 C233 0.951 . S
C233 H232 0.951 . S
C233 C239 1.265 . S
H234 C239 0.950 . S
H235 C243 0.949 . S
H236 C244 0.950 . S
H237 C245 0.951 . S
H238 C246 0.951 . S
C239 C233 1.265 . S
C239 H234 0.950 . S
C239 C240 1.478 . S
C240 C239 1.478 . S
C240 C241 1.397 . S
C240 C257 1.394 . S
C241 C240 1.397 . S
C241 C242 1.438 . S
C241 C246 1.429 . S
C242 C241 1.438 . S
C242 C243 1.428 . S
C242 C255 1.394 . S
C243 H235 0.949 . S
C243 C242 1.428 . S
C243 C244 1.345 . S
C244 H236 0.950 . S
C244 C243 1.345 . S
C244 C245 1.424 . S
C245 H237 0.951 . S
C245 C244 1.424 . S
C245 C246 1.347 . S
C246 H238 0.951 . S
C246 C241 1.429 . S
C246 C245 1.347 . S
H247 C248 0.951 . S
C248 H247 0.951 . S
C248 C254 1.265 . S
H249 C254 0.950 . S
H250 C258 0.949 . S
H251 C259 0.950 . S
H252 C260 0.951 . S
H253 C261 0.951 . S
C254 C248 1.265 . S
C254 H249 0.950 . S
C254 C255 1.478 . S
C255 C242 1.394 . S
C255 C254 1.478 . S
C255 C256 1.397 . S
C256 C255 1.397 . S
C256 C257 1.438 . S
C256 C261 1.429 . S
C257 C240 1.394 . S
C257 C256 1.438 . S
C257 C258 1.428 . S
C258 H250 0.949 . S
C258 C257 1.428 . S
C258 C259 1.345 . S
C259 H251 0.950 . S
C259 C258 1.345 . S
C259 C260 1.424 . S
C260 H252 0.951 . S
C260 C259 1.424 . S
C260 C261 1.347 . S
C261 H253 0.951 . S
C261 C256 1.429 . S
C261 C260 1.347 . S
H262 C263 0.951 . S
C263 H262 0.951 . S
C263 C269 1.265 . S
H264 C269 0.950 . S
H265 C273 0.949 . S
H266 C274 0.950 . S
H267 C275 0.951 . S
H268 C276 0.951 . S
C269 C263 1.265 . S
C269 H264 0.950 . S
C269 C270 1.478 . S
C270 C269 1.478 . S
C270 C271 1.397 . S
C270 C287 1.394 . S
C271 C270 1.397 . S
C271 C272 1.438 . S
C271 C276 1.429 . S
C272 C271 1.438 . S
C272 C273 1.428 . S
C272 C285 1.394 . S
C273 H265 0.949 . S
C273 C272 1.428 . S
C273 C274 1.345 . S
C274 H266 0.950 . S
C274 C273 1.345 . S
C274 C275 1.424 . S
C275 H267 0.951 . S
C275 C274 1.424 . S
C275 C276 1.347 . S
C276 H268 0.951 . S
C276 C271 1.429 . S
C276 C275 1.347 . S
H277 C278 0.951 . S
C278 H277 0.951 . S
C278 C284 1.265 . S
H279 C284 0.950 . S
H280 C288 0.949 . S
H281 C289 0.950 . S
H282 C290 0.951 . S
H283 C291 0.951 . S
C284 C278 1.265 . S
C284 H279 0.950 . S
C284 C285 1.478 . S
C285 C272 1.394 . S
C285 C284 1.478 . S
C285 C286 1.397 . S
C286 C285 1.397 . S
C286 C287 1.438 . S
C286 C291 1.429 . S
C287 C270 1.394 . S
C287 C286 1.438 . S
C287 C288 1.428 . S
C288 H280 0.949 . S
C288 C287 1.428 . S
C288 C289 1.345 . S
C289 H281 0.950 . S
C289 C288 1.345 . S
C289 C290 1.424 . S
C290 H282 0.951 . S
C290 C289 1.424 . S
C290 C291 1.347 . S
C291 H283 0.951 . S
C291 C286 1.429 . S
C291 C290 1.347 . S
H292 C293 0.951 . S
C293 H292 0.951 . S
C293 C299 1.265 . S
H294 C299 0.950 . S
H295 C303 0.949 . S
H296 C304 0.950 . S
H297 C305 0.951 . S
H298 C306 0.951 . S
C299 C293 1.265 . S
C299 H294 0.950 . S
C299 C300 1.478 . S
C300 C299 1.478 . S
C300 C301 1.397 . S
C300 C317 1.394 . S
C301 C300 1.397 . S
C301 C302 1.438 . S
C301 C306 1.429 . S
C302 C301 1.438 . S
C302 C303 1.428 . S
C302 C315 1.394 . S
C303 H295 0.949 . S
C303 C302 1.428 . S
C303 C304 1.345 . S
C304 H296 0.950 . S
C304 C303 1.345 . S
C304 C305 1.424 . S
C305 H297 0.951 . S
C305 C304 1.424 . S
C305 C306 1.347 . S
C306 H298 0.951 . S
C306 C301 1.429 . S
C306 C305 1.347 . S
H307 C308 0.951 . S
C308 H307 0.951 . S
C308 C314 1.265 . S
H309 C314 0.950 . S
H310 C318 0.949 . S
H311 C319 0.950 . S
H312 C320 0.951 . S
H313 C321 0.951 . S
C314 C308 1.265 . S
C314 H309 0.950 . S
C314 C315 1.478 . S
C315 C302 1.394 . S
C315 C314 1.478 . S
C315 C316 1.397 . S
C316 C315 1.397 . S
C316 C317 1.438 . S
C316 C321 1.429 . S
C317 C300 1.394 . S
C317 C316 1.438 . S
C317 C318 1.428 . S
C318 H310 0.949 . S
C318 C317 1.428 . S
C318 C319 1.345 . S
C319 H311 0.950 . S
C319 C318 1.345 . S
C319 C320 1.424 . S
C320 H312 0.951 . S
C320 C319 1.424 . S
C320 C321 1.347 . S
C321 H313 0.951 . S
C321 C316 1.429 . S
C321 C320 1.347 . S
H322 C323 0.951 . S
C323 H322 0.951 . S
C323 C329 1.265 . S
H324 C329 0.950 . S
H325 C333 0.949 . S
H326 C334 0.950 . S
H327 C335 0.951 . S
H328 C336 0.951 . S
C329 C323 1.265 . S
C329 H324 0.950 . S
C329 C330 1.478 . S
C330 C329 1.478 . S
C330 C331 1.397 . S
C330 C347 1.394 . S
C331 C330 1.397 . S
C331 C332 1.438 . S
C331 C336 1.429 . S
C332 C331 1.438 . S
C332 C333 1.428 . S
C332 C345 1.394 . S
C333 H325 0.949 . S
C333 C332 1.428 . S
C333 C334 1.345 . S
C334 H326 0.950 . S
C334 C333 1.345 . S
C334 C335 1.424 . S
C335 H327 0.951 . S
C335 C334 1.424 . S
C335 C336 1.347 . S
C336 H328 0.951 . S
C336 C331 1.429 . S
C336 C335 1.347 . S
H337 C338 0.951 . S
C338 H337 0.951 . S
C338 C344 1.265 . S
H339 C344 0.950 . S
H340 C348 0.949 . S
H341 C349 0.950 . S
H342 C350 0.951 . S
H343 C351 0.951 . S
C344 C338 1.265 . S
C344 H339 0.950 . S
C344 C345 1.478 . S
C345 C332 1.394 . S
C345 C344 1.478 . S
C345 C346 1.397 . S
C346 C345 1.397 . S
C346 C347 1.438 . S
C346 C351 1.429 . S
C347 C330 1.394 . S
C347 C346 1.438 . S
C347 C348 1.428 . S
C348 H340 0.949 . S
C348 C347 1.428 . S
C348 C349 1.345 . S
C349 H341 0.950 . S
C349 C348 1.345 . S
C349 C350 1.424 . S
C350 H342 0.951 . S
C350 C349 1.424 . S
C350 C351 1.347 . S
C351 H343 0.951 . S
C351 C346 1.429 . S
C351 C350 1.347 . S
H352 C353 0.951 . S
C353 H352 0.951 . S
C353 C359 1.265 . S
H354 C359 0.950 . S
H355 C363 0.949 . S
H356 C364 0.950 . S
H357 C365 0.951 . S
H358 C366 0.951 1_455 S
C359 C353 1.265 . S
C359 H354 0.950 . S
C359 C360 1.478 . S
C360 C359 1.478 . S
C360 C361 1.397 1_455 S
C360 C377 1.394 . S
C361 C360 1.397 1_655 S
C361 C362 1.438 . S
C361 C366 1.429 . S
C362 C361 1.438 . S
C362 C363 1.428 . S
C362 C375 1.394 . S
C363 H355 0.949 . S
C363 C362 1.428 . S
C363 C364 1.345 . S
C364 H356 0.950 . S
C364 C363 1.345 . S
C364 C365 1.424 . S
C365 H357 0.951 . S
C365 C364 1.424 . S
C365 C366 1.347 . S
C366 H358 0.951 1_655 S
C366 C361 1.429 . S
C366 C365 1.347 . S
H367 C368 0.951 . S
C368 H367 0.951 . S
C368 C374 1.265 . S
H369 C374 0.950 . S
H370 C378 0.949 . S
H371 C379 0.950 . S
H372 C380 0.951 . S
H373 C381 0.951 1_655 S
C374 C368 1.265 . S
C374 H369 0.950 . S
C374 C375 1.478 . S
C375 C362 1.394 . S
C375 C374 1.478 . S
C375 C376 1.397 1_655 S
C376 C375 1.397 1_455 S
C376 C377 1.438 . S
C376 C381 1.429 . S
C377 C360 1.394 . S
C377 C376 1.438 . S
C377 C378 1.428 . S
C378 H370 0.949 . S
C378 C377 1.428 . S
C378 C379 1.345 . S
C379 H371 0.950 . S
C379 C378 1.345 . S
C379 C380 1.424 . S
C380 H372 0.951 . S
C380 C379 1.424 . S
C380 C381 1.347 . S
C381 H373 0.951 1_455 S
C381 C376 1.429 . S
C381 C380 1.347 . S
H382 C383 0.951 . S
C383 H382 0.951 . S
C383 C389 1.265 . S
H384 C389 0.950 . S
H385 C393 0.949 . S
H386 C394 0.950 . S
H387 C395 0.951 . S
H388 C396 0.951 . S
C389 C383 1.265 . S
C389 H384 0.950 . S
C389 C390 1.478 . S
C390 C389 1.478 . S
C390 C391 1.397 . S
C390 C407 1.394 . S
C391 C390 1.397 . S
C391 C392 1.438 . S
C391 C396 1.429 . S
C392 C391 1.438 . S
C392 C393 1.428 . S
C392 C405 1.394 . S
C393 H385 0.949 . S
C393 C392 1.428 . S
C393 C394 1.345 . S
C394 H386 0.950 . S
C394 C393 1.345 . S
C394 C395 1.424 . S
C395 H387 0.951 . S
C395 C394 1.424 . S
C395 C396 1.347 . S
C396 H388 0.951 . S
C396 C391 1.429 . S
C396 C395 1.347 . S
H397 C398 0.951 . S
C398 H397 0.951 . S
C398 C404 1.265 . S
H399 C404 0.950 . S
H400 C408 0.949 . S
H401 C409 0.950 . S
H402 C410 0.951 . S
H403 C411 0.951 . S
C404 C398 1.265 . S
C404 H399 0.950 . S
C404 C405 1.478 . S
C405 C392 1.394 . S
C405 C404 1.478 . S
C405 C406 1.397 . S
C406 C405 1.397 . S
C406 C407 1.438 . S
C406 C411 1.429 . S
C407 C390 1.394 . S
C407 C406 1.438 . S
C407 C408 1.428 . S
C408 H400 0.949 . S
C408 C407 1.428 . S
C408 C409 1.345 . S
C409 H401 0.950 . S
C409 C408 1.345 . S
C409 C410 1.424 . S
C410 H402 0.951 . S
C410 C409 1.424 . S
C410 C411 1.347 . S
C411 H403 0.951 . S
C411 C406 1.429 . S
C411 C410 1.347 . S
H412 C413 0.951 . S
C413 H412 0.951 . S
C413 C419 1.265 . S
H414 C419 0.950 . S
H415 C423 0.949 . S
H416 C424 0.950 . S
H417 C425 0.951 . S
H418 C426 0.951 . S
C419 C413 1.265 . S
C419 H414 0.950 . S
C419 C420 1.478 . S
C420 C419 1.478 . S
C420 C421 1.397 . S
C420 C437 1.394 . S
C421 C420 1.397 . S
C421 C422 1.438 1_455 S
C421 C426 1.429 . S
C422 C421 1.438 1_655 S
C422 C423 1.428 . S
C422 C435 1.394 . S
C423 H415 0.949 . S
C423 C422 1.428 . S
C423 C424 1.345 . S
C424 H416 0.950 . S
C424 C423 1.345 . S
C424 C425 1.424 1_655 S
C425 H417 0.951 . S
C425 C424 1.424 1_455 S
C425 C426 1.347 . S
C426 H418 0.951 . S
C426 C421 1.429 . S
C426 C425 1.347 . S
H427 C428 0.951 . S
C428 H427 0.951 . S
C428 C434 1.265 . S
H429 C434 0.950 . S
H430 C438 0.949 . S
H431 C439 0.950 . S
H432 C440 0.951 . S
H433 C441 0.951 . S
C434 C428 1.265 . S
C434 H429 0.950 . S
C434 C435 1.478 . S
C435 C422 1.394 . S
C435 C434 1.478 . S
C435 C436 1.397 . S
C436 C435 1.397 . S
C436 C437 1.438 1_655 S
C436 C441 1.429 . S
C437 C420 1.394 . S
C437 C436 1.438 1_455 S
C437 C438 1.428 . S
C438 H430 0.949 . S
C438 C437 1.428 . S
C438 C439 1.345 . S
C439 H431 0.950 . S
C439 C438 1.345 . S
C439 C440 1.424 1_455 S
C440 H432 0.951 . S
C440 C439 1.424 1_655 S
C440 C441 1.347 . S
C441 H433 0.951 . S
C441 C436 1.429 . S
C441 C440 1.347 . S
H442 C443 0.951 . S
C443 H442 0.951 . S
C443 C449 1.265 . S
H444 C449 0.950 . S
H445 C453 0.949 . S
H446 C454 0.950 . S
H447 C455 0.951 . S
H448 C456 0.951 . S
C449 C443 1.265 . S
C449 H444 0.950 . S
C449 C450 1.478 . S
C450 C449 1.478 . S
C450 C451 1.397 . S
C450 C467 1.394 . S
C451 C450 1.397 . S
C451 C452 1.438 . S
C451 C456 1.429 . S
C452 C451 1.438 . S
C452 C453 1.428 . S
C452 C465 1.394 . S
C453 H445 0.949 . S
C453 C452 1.428 . S
C453 C454 1.345 . S
C454 H446 0.950 . S
C454 C453 1.345 . S
C454 C455 1.424 . S
C455 H447 0.951 . S
C455 C454 1.424 . S
C455 C456 1.347 . S
C456 H448 0.951 . S
C456 C451 1.429 . S
C456 C455 1.347 . S
H457 C458 0.951 . S
C458 H457 0.951 . S
C458 C464 1.265 . S
H459 C464 0.950 . S
H460 C468 0.949 . S
H461 C469 0.950 . S
H462 C470 0.951 . S
H463 C471 0.951 . S
C464 C458 1.265 . S
C464 H459 0.950 . S
C464 C465 1.478 . S
C465 C452 1.394 . S
C465 C464 1.478 . S
C465 C466 1.397 . S
C466 C465 1.397 . S
C466 C467 1.438 . S
C466 C471 1.429 . S
C467 C450 1.394 . S
C467 C466 1.438 . S
C467 C468 1.428 . S
C468 H460 0.949 . S
C468 C467 1.428 . S
C468 C469 1.345 . S
C469 H461 0.950 . S
C469 C468 1.345 . S
C469 C470 1.424 . S
C470 H462 0.951 . S
C470 C469 1.424 . S
C470 C471 1.347 . S
C471 H463 0.951 . S
C471 C466 1.429 . S
C471 C470 1.347 . S
H472 C473 0.951 1_556 S
C473 H472 0.951 1_554 S
C473 C479 1.265 . S
H474 C479 0.950 . S
H475 C483 0.949 . S
H476 C484 0.950 . S
H477 C485 0.951 . S
H478 C486 0.951 . S
C479 C473 1.265 . S
C479 H474 0.950 . S
C479 C480 1.478 . S
C480 C479 1.478 . S
C480 C481 1.397 1_454 S
C480 C497 1.394 . S
C481 C480 1.397 1_656 S
C481 C482 1.438 1_545 S
C481 C486 1.429 . S
C482 C481 1.438 1_565 S
C482 C483 1.428 . S
C482 C495 1.394 . S
C483 H475 0.949 . S
C483 C482 1.428 . S
C483 C484 1.345 1_565 S
C484 H476 0.950 . S
C484 C483 1.345 1_545 S
C484 C485 1.424 . S
C485 H477 0.951 . S
C485 C484 1.424 . S
C485 C486 1.347 . S
C486 H478 0.951 . S
C486 C481 1.429 . S
C486 C485 1.347 . S
H487 C488 0.951 1_554 S
C488 H487 0.951 1_556 S
C488 C494 1.265 . S
H489 C494 0.950 . S
H490 C498 0.949 . S
H491 C499 0.950 . S
H492 C500 0.951 . S
H493 C501 0.951 . S
C494 C488 1.265 . S
C494 H489 0.950 . S
C494 C495 1.478 . S
C495 C482 1.394 . S
C495 C494 1.478 . S
C495 C496 1.397 1_656 S
C496 C495 1.397 1_454 S
C496 C497 1.438 1_565 S
C496 C501 1.429 . S
C497 C480 1.394 . S
C497 C496 1.438 1_545 S
C497 C498 1.428 . S
C498 H490 0.949 . S
C498 C497 1.428 . S
C498 C499 1.345 1_545 S
C499 H491 0.950 . S
C499 C498 1.345 1_565 S
C499 C500 1.424 . S
C500 H492 0.951 . S
C500 C499 1.424 . S
C500 C501 1.347 . S
C501 H493 0.951 . S
C501 C496 1.429 . S
C501 C500 1.347 . S
H502 C503 0.951 . S
C503 H502 0.951 . S
C503 C509 1.265 . S
H504 C509 0.950 . S
H505 C513 0.949 . S
H506 C514 0.950 . S
H507 C515 0.951 . S
H508 C516 0.951 . S
C509 C503 1.265 . S
C509 H504 0.950 . S
C509 C510 1.478 . S
C510 C509 1.478 . S
C510 C511 1.397 . S
C510 C527 1.394 . S
C511 C510 1.397 . S
C511 C512 1.438 . S
C511 C516 1.429 . S
C512 C511 1.438 . S
C512 C513 1.428 . S
C512 C525 1.394 . S
C513 H505 0.949 . S
C513 C512 1.428 . S
C513 C514 1.345 . S
C514 H506 0.950 . S
C514 C513 1.345 . S
C514 C515 1.424 . S
C515 H507 0.951 . S
C515 C514 1.424 . S
C515 C516 1.347 . S
C516 H508 0.951 . S
C516 C511 1.429 . S
C516 C515 1.347 . S
H517 C518 0.951 . S
C518 H517 0.951 . S
C518 C524 1.265 . S
H519 C524 0.950 . S
H520 C528 0.949 . S
H521 C529 0.950 . S
H522 C530 0.951 . S
H523 C531 0.951 . S
C524 C518 1.265 . S
C524 H519 0.950 . S
C524 C525 1.478 . S
C525 C512 1.394 . S
C525 C524 1.478 . S
C525 C526 1.397 . S
C526 C525 1.397 . S
C526 C527 1.438 . S
C526 C531 1.429 . S
C527 C510 1.394 . S
C527 C526 1.438 . S
C527 C528 1.428 . S
C528 H520 0.949 . S
C528 C527 1.428 . S
C528 C529 1.345 . S
C529 H521 0.950 . S
C529 C528 1.345 . S
C529 C530 1.424 . S
C530 H522 0.951 . S
C530 C529 1.424 . S
C530 C531 1.347 . S
C531 H523 0.951 . S
C531 C526 1.429 . S
C531 C530 1.347 . S
H532 C533 0.951 . S
C533 H532 0.951 . S
C533 C539 1.265 . S
H534 C539 0.950 . S
H535 C543 0.949 . S
H536 C544 0.950 . S
H537 C545 0.951 . S
H538 C546 0.951 . S
C539 C533 1.265 . S
C539 H534 0.950 . S
C539 C540 1.478 . S
C540 C539 1.478 . S
C540 C541 1.397 . S
C540 C557 1.394 1_554 S
C541 C540 1.397 . S
C541 C542 1.438 . S
C541 C546 1.429 . S
C542 C541 1.438 . S
C542 C543 1.428 . S
C542 C555 1.394 1_554 S
C543 H535 0.949 . S
C543 C542 1.428 . S
C543 C544 1.345 . S
C544 H536 0.950 . S
C544 C543 1.345 . S
C544 C545 1.424 . S
C545 H537 0.951 . S
C545 C544 1.424 . S
C545 C546 1.347 . S
C546 H538 0.951 . S
C546 C541 1.429 . S
C546 C545 1.347 . S
H547 C548 0.951 . S
C548 H547 0.951 . S
C548 C554 1.265 . S
H549 C554 0.950 . S
H550 C558 0.949 . S
H551 C559 0.950 . S
H552 C560 0.951 . S
H553 C561 0.951 . S
C554 C548 1.265 . S
C554 H549 0.950 . S
C554 C555 1.478 . S
C555 C542 1.394 1_556 S
C555 C554 1.478 . S
C555 C556 1.397 . S
C556 C555 1.397 . S
C556 C557 1.438 . S
C556 C561 1.429 . S
C557 C540 1.394 1_556 S
C557 C556 1.438 . S
C557 C558 1.428 . S
C558 H550 0.949 . S
C558 C557 1.428 . S
C558 C559 1.345 . S
C559 H551 0.950 . S
C559 C558 1.345 . S
C559 C560 1.424 . S
C560 H552 0.951 . S
C560 C559 1.424 . S
C560 C561 1.347 . S
C561 H553 0.951 . S
C561 C556 1.429 . S
C561 C560 1.347 . S
H562 C563 0.951 . S
C563 H562 0.951 . S
C563 C569 1.265 . S
H564 C569 0.950 . S
H565 C573 0.949 . S
H566 C574 0.950 . S
H567 C575 0.951 1_565 S
H568 C576 0.951 . S
C569 C563 1.265 . S
C569 H564 0.950 . S
C569 C570 1.478 . S
C570 C569 1.478 . S
C570 C571 1.397 . S
C570 C587 1.394 . S
C571 C570 1.397 . S
C571 C572 1.438 1_465 S
C571 C576 1.429 . S
C572 C571 1.438 1_645 S
C572 C573 1.428 . S
C572 C585 1.394 . S
C573 H565 0.949 . S
C573 C572 1.428 . S
C573 C574 1.345 1_655 S
C574 H566 0.950 . S
C574 C573 1.345 1_455 S
C574 C575 1.424 . S
C575 H567 0.951 1_545 S
C575 C574 1.424 . S
C575 C576 1.347 1_545 S
C576 H568 0.951 . S
C576 C571 1.429 . S
C576 C575 1.347 1_565 S
H577 C578 0.951 . S
C578 H577 0.951 . S
C578 C584 1.265 . S
H579 C584 0.950 . S
H580 C588 0.949 . S
H581 C589 0.950 . S
H582 C590 0.951 1_545 S
H583 C591 0.951 . S
C584 C578 1.265 . S
C584 H579 0.950 . S
C584 C585 1.478 . S
C585 C572 1.394 . S
C585 C584 1.478 . S
C585 C586 1.397 . S
C586 C585 1.397 . S
C586 C587 1.438 1_645 S
C586 C591 1.429 . S
C587 C570 1.394 . S
C587 C586 1.438 1_465 S
C587 C588 1.428 . S
C588 H580 0.949 . S
C588 C587 1.428 . S
C588 C589 1.345 1_455 S
C589 H581 0.950 . S
C589 C588 1.345 1_655 S
C589 C590 1.424 . S
C590 H582 0.951 1_565 S
C590 C589 1.424 . S
C590 C591 1.347 1_565 S
C591 H583 0.951 . S
C591 C586 1.429 . S
C591 C590 1.347 1_545 S
C113 C22 1.629 . S
C128 C6 1.637 . S
C143 C8 1.604 . S
C158 C20 1.616 . S
C173 C50 1.626 . S
C188 C34 1.629 . S
C203 C36 1.622 . S
C218 C48 1.632 . S
C233 C62 1.636 . S
C248 C78 1.627 . S
C263 C76 1.638 . S
C278 C64 1.630 . S
C293 C90 1.635 . S
C308 C106 1.625 . S
C323 C92 1.624 . S
C338 C104 1.628 . S
C353 C9 0.505 . S
C368 C51 0.479 . S
C383 C23 0.639 . S
C398 C37 0.619 . S
C413 C107 0.677 . S
C428 C65 0.560 . S
C443 C93 0.634 . S
C458 C79 0.624 . S
C473 C7 1.520 . S
C488 C63 1.520 . S
C503 C77 1.500 . S
C518 C21 1.500 . S
C533 C91 1.496 . S
C548 C35 1.496 . S
C563 C105 1.490 . S
C578 C49 1.490 . S
