# Generated by pormake.
# Topology une, (4)-cn, num edge types: 1
# Building blocks:
#     Node 0, Type 0, BuildingBlock: KUFVIS_clean_sbu_0, # of connection points: 4
#     Node 1, Type 0, BuildingBlock: KUFVIS_clean_sbu_0, # of connection points: 4
#     Node 2, Type 0, BuildingBlock: KUFVIS_clean_sbu_0, # of connection points: 4
#     Node 3, Type 0, BuildingBlock: KUFVIS_clean_sbu_0, # of connection points: 4
#     Node 4, Type 0, BuildingBlock: KUFVIS_clean_sbu_0, # of connection points: 4
#     Node 5, Type 0, BuildingBlock: KUFVIS_clean_sbu_0, # of connection points: 4
#     Node 6, Type 0, BuildingBlock: KUFVIS_clean_sbu_0, # of connection points: 4
#     Node 7, Type 0, BuildingBlock: KUFVIS_clean_sbu_0, # of connection points: 4
#     Node 8, Type 0, BuildingBlock: KUFVIS_clean_sbu_0, # of connection points: 4
#     Node 9, Type 0, BuildingBlock: KUFVIS_clean_sbu_0, # of connection points: 4
#     Node 10, Type 0, BuildingBlock: KUFVIS_clean_sbu_0, # of connection points: 4
#     Node 11, Type 0, BuildingBlock: KUFVIS_clean_sbu_0, # of connection points: 4
#     Node 12, Type 0, BuildingBlock: KUFVIS_clean_sbu_0, # of connection points: 4
#     Node 13, Type 0, BuildingBlock: KUFVIS_clean_sbu_0, # of connection points: 4
#     Node 14, Type 0, BuildingBlock: KUFVIS_clean_sbu_0, # of connection points: 4
#     Node 15, Type 0, BuildingBlock: KUFVIS_clean_sbu_0, # of connection points: 4
#     Node 16, Type 0, BuildingBlock: KUFVIS_clean_sbu_0, # of connection points: 4
#     Node 17, Type 0, BuildingBlock: KUFVIS_clean_sbu_0, # of connection points: 4
#     Edge 18, Type (0, 0), None
#     Edge 19, Type (0, 0), None
#     Edge 20, Type (0, 0), None
#     Edge 21, Type (0, 0), None
#     Edge 22, Type (0, 0), None
#     Edge 23, Type (0, 0), None
#     Edge 24, Type (0, 0), None
#     Edge 25, Type (0, 0), None
#     Edge 26, Type (0, 0), None
#     Edge 27, Type (0, 0), None
#     Edge 28, Type (0, 0), None
#     Edge 29, Type (0, 0), None
#     Edge 30, Type (0, 0), None
#     Edge 31, Type (0, 0), None
#     Edge 32, Type (0, 0), None
#     Edge 33, Type (0, 0), None
#     Edge 34, Type (0, 0), None
#     Edge 35, Type (0, 0), None
#     Edge 36, Type (0, 0), None
#     Edge 37, Type (0, 0), None
#     Edge 38, Type (0, 0), None
#     Edge 39, Type (0, 0), None
#     Edge 40, Type (0, 0), None
#     Edge 41, Type (0, 0), None
#     Edge 42, Type (0, 0), None
#     Edge 43, Type (0, 0), None
#     Edge 44, Type (0, 0), None
#     Edge 45, Type (0, 0), None
#     Edge 46, Type (0, 0), None
#     Edge 47, Type (0, 0), None
#     Edge 48, Type (0, 0), None
#     Edge 49, Type (0, 0), None
#     Edge 50, Type (0, 0), None
#     Edge 51, Type (0, 0), None
#     Edge 52, Type (0, 0), None
#     Edge 53, Type (0, 0), None
# Relax obj value: 0.245
# Max RMSD: 0.171
# Mean RMSD: 0.156
data_MOF--net-une--node1-KUFVIS_clean_sbu_0--edge1-none
_symmetry_space_group_name_H-M    P1
_symmetry_Int_Tables_number       1
_symmetry_cell_setting            triclinic
loop_
_symmetry_equiv_pos_as_xyz
'x, y, z'
_cell_length_a     18.151201
_cell_length_b     17.997678
_cell_length_c     26.028991
_cell_angle_alpha  90.817229
_cell_angle_beta   88.008779
_cell_angle_gamma 120.95798
loop_
_atom_site_label
_atom_site_type_symbol
_atom_site_fract_x
_atom_site_fract_y
_atom_site_fract_z
_atom_type_partial_charge
Mn0 Mn 0.35663 0.11031 0.02627 0.0
Mn1 Mn 0.33569 0.0877 0.89715 0.0
C2 C 0.32562 0.20387 0.97356 0.0
C3 C 0.30026 0.14045 0.11038 0.0
C4 C 0.21655 0.94614 -0.0219 0.0
O5 O 0.4176 0.04154 -0.00204 0.0
O6 O 0.4289 0.06408 0.91248 0.0
C7 C 0.49637 0.25181 0.86867 0.0
N8 N 0.41198 0.19421 0.862 0.0
C9 C 0.40768 0.27979 0.79404 0.0
C10 C 0.49753 0.32706 0.79227 0.0
C11 C 0.54138 0.31958 0.83325 0.0
C12 C 0.36726 0.21434 0.83074 0.0
H13 H 0.52626 0.24826 0.90212 0.0
C14 C 0.44273 0.03185 0.95182 0.0
O15 O 0.33594 0.09367 0.10807 0.0
O16 O 0.29886 0.16903 0.06619 0.0
N17 N 0.24724 0.1068 0.87439 0.0
C18 C 0.16156 0.06273 0.88561 0.0
C19 C 0.10562 0.0709 0.85343 0.0
C20 C 0.13959 0.12756 0.81125 0.0
C21 C 0.22803 0.18071 0.8048 0.0
C22 C 0.27985 0.16624 0.83625 0.0
H23 H 0.13701 0.02354 0.91901 0.0
O24 O 0.31076 0.1927 0.02209 0.0
O25 O 0.358 0.15917 0.95667 0.0
O26 O 0.23842 -0.0017 0.01622 0.0
O27 O 0.25073 0.97421 0.93294 0.0
C28 C 0.26666 0.24734 0.76817 0.0
C29 C 0.35676 0.29551 0.76176 0.0
H30 H 0.5325 0.37401 0.76224 0.0
H31 H 0.60834 0.36706 0.83793 0.0
H32 H 0.03709 0.03331 0.86074 0.0
H33 H 0.09891 0.13093 0.78348 0.0
H34 H 0.22716 0.2623 0.74548 0.0
H35 H 0.38622 0.34525 0.73249 0.0
Mn36 Mn 0.89639 0.27491 0.04034 0.0
Mn37 Mn 0.90002 0.30955 0.9129 0.0
C38 C 0.81356 0.15917 -0.01467 0.0
C39 C 0.82237 0.21817 0.1269 0.0
C40 C 0.04944 0.31886 0.96389 0.0
O41 O 0.94077 0.41473 0.03196 0.0
O42 O 0.91346 0.41369 0.94776 0.0
C43 C 0.72293 0.26537 0.92672 0.0
N44 N 0.78556 0.26817 0.89522 0.0
C45 C 0.68299 0.1624 0.83894 0.0
C46 C 0.61737 0.16004 0.86955 0.0
C47 C 0.63739 0.20733 0.91569 0.0
C48 C 0.76641 0.2147 0.85455 0.0
H49 H 0.73904 0.3014 0.9623 0.0
C50 C 0.94276 0.45523 -0.01069 0.0
O51 O 0.9023 0.24904 0.11693 0.0
O52 O 0.78686 0.23452 0.08962 0.0
N53 N 0.89335 0.22165 0.86865 0.0
C54 C 0.95297 0.19929 0.85794 0.0
C55 C 0.9454 0.14911 0.81452 0.0
C56 C 0.8793 0.12624 0.78065 0.0
C57 C 0.81591 0.14501 0.79443 0.0
C58 C 0.82811 0.19768 0.83725 0.0
H59 H -0.00252 0.20825 0.88572 0.0
O60 O 0.84406 0.14993 0.02699 0.0
O61 O 0.84098 0.23867 0.97418 0.0
O62 O 0.01167 0.29179 0.008 0.0
O63 O 0.01899 0.34384 0.92922 0.0
C64 C 0.73533 0.10132 0.77312 0.0
C65 C 0.66808 0.1042 0.79891 0.0
H66 H 0.55196 0.11829 0.85876 0.0
H67 H 0.58809 0.19767 0.94377 0.0
H68 H -0.01327 0.12391 0.80884 0.0
H69 H 0.87285 0.08628 0.7476 0.0
H70 H 0.72123 0.05328 0.74369 0.0
H71 H 0.60608 0.05109 0.79443 0.0
Mn72 Mn 0.6705 0.66482 0.04927 0.0
Mn73 Mn 0.66238 0.6457 0.91901 0.0
C74 C 0.79958 0.69494 -0.00767 0.0
C75 C 0.77397 0.6829 0.11939 0.0
C76 C 0.68228 0.79511 0.97316 0.0
O77 O 0.53902 0.57057 0.02999 0.0
O78 O 0.55084 0.62429 0.95199 0.0
C79 C 0.51895 0.47294 0.89504 0.0
N80 N 0.6013 0.53759 0.88606 0.0
C81 C 0.57498 0.53479 0.79583 0.0
C82 C 0.48742 0.48468 0.80632 0.0
C83 C 0.45986 0.44768 0.85523 0.0
C84 C 0.62829 0.56756 0.83736 0.0
H85 H 0.49841 0.44441 0.93287 0.0
C86 C 0.50309 0.57364 -0.01188 0.0
O87 O 0.78522 0.74487 0.08941 0.0
O88 O 0.71048 0.60926 0.10403 0.0
N89 N 0.75499 0.65608 0.87419 0.0
C90 C 0.80902 0.62525 0.87991 0.0
C91 C 0.85938 0.62566 0.83747 0.0
C92 C 0.83376 0.63105 0.78809 0.0
C93 C 0.75327 0.6231 0.78407 0.0
C94 C 0.71326 0.62858 0.82995 0.0
H95 H 0.80349 0.5877 0.91318 0.0
O96 O 0.79991 0.74123 0.02971 0.0
O97 O 0.72118 0.63405 -0.01778 0.0
O98 O 0.65076 0.75611 0.01538 0.0
O99 O 0.71819 0.76791 0.94091 0.0
C100 C 0.7021 0.58504 0.74119 0.0
C101 C 0.61254 0.54567 0.74655 0.0
H102 H 0.44232 0.46714 0.77607 0.0
H103 H 0.39338 0.39883 0.86133 0.0
H104 H 0.90982 0.61162 0.84241 0.0
H105 H 0.86776 0.62581 0.75476 0.0
H106 H 0.72849 0.5762 0.70589 0.0
H107 H 0.57338 0.51061 0.71467 0.0
Mn108 Mn 0.61851 0.93075 0.89977 0.0
Mn109 Mn 0.58278 0.9331 0.02505 0.0
C110 C 0.66762 0.86434 0.9556 0.0
C111 C 0.6106 0.85313 0.82172 0.0
C112 C 0.72892 0.08476 0.97218 0.0
O113 O 0.52223 0.96821 0.9025 0.0
O114 O 0.519 0.97421 -0.0122 0.0
C115 C 0.41066 0.78335 0.00963 0.0
N116 N 0.48327 0.82513 0.03748 0.0
C117 C 0.43694 0.70372 0.09144 0.0
C118 C 0.35875 0.66038 0.06644 0.0
C119 C 0.34623 0.69945 0.0241 0.0
C120 C 0.49955 0.78433 0.07388 0.0
H121 H 0.40233 0.81399 -0.02321 0.0
C122 C 0.49721 0.98849 0.94545 0.0
O123 O 0.6488 0.93681 0.82368 0.0
O124 O 0.55746 0.81453 0.86014 0.0
N125 N 0.64038 0.8991 0.06932 0.0
C126 C 0.72185 0.94624 0.0866 0.0
C127 C 0.74809 0.91195 0.12506 0.0
C128 C 0.68935 0.83047 0.14598 0.0
C129 C 0.60463 0.78646 0.12934 0.0
C130 C 0.58218 0.82401 0.09144 0.0
H131 H 0.76537 0.01037 0.07238 0.0
O132 O 0.69897 0.89242 0.91142 0.0
O133 O 0.60338 0.87508 0.96759 0.0
O134 O 0.70905 0.05569 0.92625 0.0
O135 O 0.68625 0.04229 0.01178 0.0
C136 C 0.5406 0.70813 0.15011 0.0
C137 C 0.45574 0.66933 0.13264 0.0
H138 H 0.3095 0.59621 0.0787 0.0
H139 H 0.28732 0.66555 0.00321 0.0
H140 H 0.81241 0.94897 0.13941 0.0
H141 H 0.70911 0.80356 0.17579 0.0
H142 H 0.5584 0.67965 0.17914 0.0
H143 H 0.40275 0.61592 0.1511 0.0
Mn144 Mn 0.00631 0.69154 0.93117 0.0
Mn145 Mn -0.01548 0.86652 0.91816 0.0
C146 C 0.88428 0.70096 0.97401 0.0
C147 C -0.01789 0.55475 -0.01939 0.0
C148 C 0.12659 0.87046 -0.02252 0.0
O149 O 0.09015 0.77049 0.86533 0.0
O150 O 0.04661 0.86528 0.85715 0.0
C151 C 0.88766 0.8331 0.82516 0.0
N152 N 0.89498 0.84926 0.87667 0.0
C153 C 0.85129 0.95149 0.86908 0.0
C154 C 0.83191 0.92823 0.81751 0.0
C155 C 0.8508 0.86855 0.79514 0.0
C156 C 0.87513 0.90452 0.89852 0.0
H157 H 0.91479 0.79826 0.80675 0.0
C158 C 0.09242 0.83579 0.84164 0.0
O159 O 0.04105 0.59756 0.94537 0.0
O160 O 0.93971 0.59371 -0.0107 0.0
N161 N 0.92812 0.88383 0.97333 0.0
C162 C 0.94745 0.89556 0.02382 0.0
C163 C 0.92522 0.94742 0.05277 0.0
C164 C 0.90667 0.00319 0.02657 0.0
C165 C 0.8907 0.9906 0.9739 0.0
C166 C 0.89213 0.92238 0.95022 0.0
H167 H -0.02187 0.86463 0.04128 0.0
O168 O 0.90708 0.64769 -0.01096 0.0
O169 O 0.93312 0.7463 0.93562 0.0
O170 O 0.10495 0.78961 -0.02364 0.0
O171 O 0.08078 0.8966 0.95951 0.0
C172 C 0.88036 0.04603 0.94267 0.0
C173 C 0.85007 0.02076 0.89282 0.0
H174 H 0.80579 0.95767 0.79423 0.0
H175 H 0.84218 0.85441 0.75448 0.0
H176 H 0.93134 0.9512 0.09393 0.0
H177 H 0.90525 0.05487 0.04726 0.0
H178 H 0.90468 0.11097 0.95453 0.0
H179 H 0.82121 0.05128 0.87395 0.0
Mn180 Mn 0.26369 0.37754 0.89212 0.0
Mn181 Mn 0.25921 0.36259 0.02062 0.0
C182 C 0.1283 0.31544 0.94897 0.0
C183 C 0.16284 0.36853 0.82267 0.0
C184 C 0.32754 0.2811 0.95182 0.0
O185 O 0.37965 0.4811 0.93119 0.0
O186 O 0.35165 0.48535 0.01545 0.0
C187 C 0.16636 0.44672 0.05531 0.0
N188 N 0.1837 0.38314 0.06016 0.0
C189 C 0.07983 0.31301 0.12849 0.0
C190 C 0.06268 0.37992 0.12583 0.0
C191 C 0.09987 0.44138 0.08567 0.0
C192 C 0.13491 0.31357 0.09069 0.0
H193 H 0.19709 0.49465 0.02505 0.0
C194 C 0.40539 0.51334 -0.02266 0.0
O195 O 0.16059 0.3029 0.84374 0.0
O196 O 0.21627 0.43995 0.84628 0.0
N197 N 0.17388 0.24232 0.03313 0.0
C198 C 0.15203 0.16649 0.00908 0.0
C199 C 0.1166 0.09077 0.03893 0.0
C200 C 0.09126 0.09227 0.0905 0.0
C201 C 0.09 0.16524 0.10812 0.0
C202 C 0.135 0.2401 0.07832 0.0
H203 H 0.16701 0.16444 0.96906 0.0
O204 O 0.13412 0.28425 0.90641 0.0
O205 O 0.20223 0.37393 0.96025 0.0
O206 O 0.28483 0.27774 0.91366 0.0
O207 O 0.3426 0.33861 -0.01541 0.0
C208 C 0.04378 0.16672 0.1523 0.0
C209 C 0.03648 0.24026 0.1617 0.0
H210 H 0.01229 0.37691 0.14992 0.0
H211 H 0.07414 0.47988 0.07484 0.0
H212 H 0.11046 0.03257 0.02251 0.0
H213 H 0.06713 0.0355 0.11464 0.0
H214 H 0.00832 0.10989 0.1766 0.0
H215 H -0.00627 0.23797 0.19242 0.0
Mn216 Mn 0.03049 0.4284 0.35896 0.0
Mn217 Mn 0.0106 0.40922 0.22981 0.0
C218 C -0.01504 0.51159 0.30856 0.0
C219 C -0.02088 0.46039 0.44553 0.0
C220 C 0.89793 0.25894 0.30669 0.0
O221 O 0.10221 0.372 0.33081 0.0
O222 O 0.0993 0.37995 0.24454 0.0
C223 C 0.17588 0.57094 0.20275 0.0
N224 N 0.09088 0.51632 0.19647 0.0
C225 C 0.09305 0.60025 0.12557 0.0
C226 C 0.18257 0.63919 0.12219 0.0
C227 C 0.2249 0.6306 0.16379 0.0
C228 C 0.04937 0.53718 0.16346 0.0
H229 H 0.20285 0.57377 0.23871 0.0
C230 C 0.12011 0.35564 0.28447 0.0
O231 O 0.02465 0.42363 0.44165 0.0
O232 O -0.03978 0.47329 0.40105 0.0
N233 N 0.92649 0.43404 0.20739 0.0
C234 C 0.84553 0.4065 0.22563 0.0
C235 C 0.79703 0.43525 0.20087 0.0
C236 C 0.82954 0.48382 0.15522 0.0
C237 C 0.91487 0.51812 0.14086 0.0
C238 C -0.03785 0.49354 0.16913 0.0
H239 H 0.82065 0.36669 0.25985 0.0
O240 O -0.03531 0.49143 0.35597 0.0
O241 O 0.02861 0.47838 0.29062 0.0
O242 O 0.92131 0.30658 0.34742 0.0
O243 O 0.92386 0.29284 0.26161 0.0
C244 C 0.95638 0.5818 0.10248 0.0
C245 C 0.04526 0.61943 0.09269 0.0
H246 H 0.21874 0.6825 0.0909 0.0
H247 H 0.29369 0.6719 0.1669 0.0
H248 H 0.73559 0.42097 0.21694 0.0
H249 H 0.79335 0.50351 0.13345 0.0
H250 H 0.92077 0.60438 0.08208 0.0
H251 H 0.07716 0.66788 0.06272 0.0
Mn252 Mn 0.56285 0.60702 0.37594 0.0
Mn253 Mn 0.56326 0.61464 0.24735 0.0
C254 C 0.47893 0.47944 0.32843 0.0
C255 C 0.47917 0.56229 0.46104 0.0
C256 C 0.7164 0.63867 0.30164 0.0
O257 O 0.60831 0.74369 0.35733 0.0
O258 O 0.57733 0.72562 0.27301 0.0
C259 C 0.3852 0.57107 0.25747 0.0
N260 N 0.44824 0.56855 0.22987 0.0
C261 C 0.34993 0.46433 0.1713 0.0
C262 C 0.28317 0.46717 0.19769 0.0
C263 C 0.30081 0.51462 0.24402 0.0
C264 C 0.43001 0.51021 0.1922 0.0
H265 H 0.39953 0.6097 0.29199 0.0
C266 C 0.60932 0.77548 0.31166 0.0
O267 O 0.55839 0.58669 0.45469 0.0
O268 O 0.45087 0.57895 0.42034 0.0
N269 N 0.5556 0.51823 0.21092 0.0
C270 C 0.61818 0.49983 0.20068 0.0
C271 C 0.61851 0.45924 0.15428 0.0
C272 C 0.55351 0.43478 0.1194 0.0
C273 C 0.48639 0.44755 0.13293 0.0
C274 C 0.49166 0.49227 0.17822 0.0
H275 H 0.66302 0.51023 0.22915 0.0
O276 O 0.50788 0.47964 0.37255 0.0
O277 O 0.5069 0.55614 0.31154 0.0
O278 O 0.67914 0.61785 0.3466 0.0
O279 O 0.68297 0.65444 0.26428 0.0
C280 C 0.41219 0.41409 0.1048 0.0
C281 C 0.34203 0.41721 0.12642 0.0
H282 H 0.2189 0.43007 0.18399 0.0
H283 H 0.25132 0.50685 0.27092 0.0
H284 H 0.66419 0.44025 0.14645 0.0
H285 H 0.55252 0.40037 0.08467 0.0
H286 H 0.40432 0.37543 0.07105 0.0
H287 H 0.28222 0.3752 0.11143 0.0
Mn288 Mn 0.35093 0.99251 0.37791 0.0
Mn289 Mn 0.33834 0.96743 0.25069 0.0
C290 C 0.48082 0.02696 0.31892 0.0
C291 C 0.46081 0.02238 0.44441 0.0
C292 C 0.3536 0.11779 0.30189 0.0
O293 O 0.21981 0.89245 0.36215 0.0
O294 O 0.22492 0.93905 0.28337 0.0
C295 C 0.21017 0.78433 0.24405 0.0
N296 N 0.29016 0.84978 0.2301 0.0
C297 C 0.25234 0.83087 0.14173 0.0
C298 C 0.16659 0.78505 0.15768 0.0
C299 C 0.14657 0.75079 0.20719 0.0
C300 C 0.3138 0.86134 0.17976 0.0
H301 H 0.19414 0.76319 0.28364 0.0
C302 C 0.18028 0.89211 0.32127 0.0
O303 O 0.46275 0.07918 0.41404 0.0
O304 O 0.40009 0.94441 0.43246 0.0
N305 N 0.43083 0.98818 0.20451 0.0
C306 C 0.50495 0.06245 0.19396 0.0
C307 C 0.55036 0.07039 0.14737 0.0
C308 C 0.50837 0.01312 0.10769 0.0
C309 C 0.42484 0.9447 0.11673 0.0
C310 C 0.39424 0.9279 0.16775 0.0
H311 H 0.52507 0.11352 0.22089 0.0
O312 O 0.48056 0.07581 0.35445 0.0
O313 O 0.40311 0.96391 0.31185 0.0
O314 O 0.32395 0.07804 0.34414 0.0
O315 O 0.3847 0.09059 0.26663 0.0
C316 C 0.3665 0.9013 0.07759 0.0
C317 C 0.2788 0.8501 0.08999 0.0
H318 H 0.1164 0.76993 0.13121 0.0
H319 H 0.08195 0.70159 0.2166 0.0
H320 H 0.61382 0.12305 0.13888 0.0
H321 H 0.53901 0.0282 0.07026 0.0
H322 H 0.38587 0.91196 0.03791 0.0
H323 H 0.23267 0.82411 0.0597 0.0
Mn324 Mn 0.29106 0.25539 0.23551 0.0
Mn325 Mn 0.24567 0.24437 0.35755 0.0
C326 C 0.342 0.18953 0.2885 0.0
C327 C 0.28365 0.18197 0.15634 0.0
C328 C 0.39595 0.40097 0.31502 0.0
O329 O 0.19163 0.28565 0.23543 0.0
O330 O 0.19719 0.29964 0.31951 0.0
C331 C 0.07869 0.10467 0.32266 0.0
N332 N 0.14083 0.13937 0.35828 0.0
C333 C 0.05322 0.03709 0.42121 0.0
C334 C -0.01307 -0.00176 0.38614 0.0
C335 C 0.00024 0.03041 0.33582 0.0
C336 C 0.13338 0.09983 0.40246 0.0
H337 H 0.08868 0.13451 0.2854 0.0
C338 C 0.17314 0.31211 0.2778 0.0
O339 O 0.3228 0.26509 0.16024 0.0
O340 O 0.23159 0.14099 0.19441 0.0
N341 N 0.28038 0.19699 0.40943 0.0
C342 C 0.35009 0.24624 0.43867 0.0
C343 C 0.34391 0.23603 0.49201 0.0
C344 C 0.26395 0.17992 0.51552 0.0
C345 C 0.19344 0.12937 0.48536 0.0
C346 C 0.20507 0.13603 0.43204 0.0
H347 H 0.40653 0.30115 0.42295 0.0
O348 O 0.37802 0.22544 0.24601 0.0
O349 O 0.2741 0.19334 0.30034 0.0
O350 O 0.37365 0.3787 0.26811 0.0
O351 O 0.35598 0.35113 0.35319 0.0
C352 C 0.10947 0.08221 0.50606 0.0
C353 C 0.04136 0.02769 0.47457 0.0
H354 H 0.92477 0.94687 0.39785 0.0
H355 H 0.94892 0.00163 0.30875 0.0
H356 H 0.39873 0.27781 0.51488 0.0
H357 H 0.25538 0.17923 0.55656 0.0
H358 H 0.09611 0.09034 0.54554 0.0
H359 H -0.02048 0.98581 0.49213 0.0
Mn360 Mn 0.67636 0.01327 0.25174 0.0
Mn361 Mn 0.70677 0.20972 0.28015 0.0
C362 C 0.56477 0.03133 0.30047 0.0
C363 C 0.64948 0.87314 0.29698 0.0
C364 C 0.8193 0.16844 0.31178 0.0
O365 O 0.73988 0.08629 0.18315 0.0
O366 O 0.77824 0.21689 0.21609 0.0
C367 C 0.65221 0.25828 0.18727 0.0
N368 N 0.65065 0.24863 0.23928 0.0
C369 C 0.55742 0.30186 0.25117 0.0
C370 C 0.5415 0.29218 0.19859 0.0
C371 C 0.59138 0.27255 0.16574 0.0
C372 C 0.6038 0.26875 0.2706 0.0
H373 H 0.69781 0.254 0.16228 0.0
C374 C 0.77692 0.16998 0.17802 0.0
O375 O 0.69522 0.90655 0.25509 0.0
O376 O 0.62123 0.92195 0.31371 0.0
N377 N 0.64457 0.21652 0.33804 0.0
C378 C 0.65009 0.20331 0.38912 0.0
C379 C 0.61196 0.23156 0.42599 0.0
C380 C 0.56749 0.27131 0.41013 0.0
C381 C 0.56456 0.2846 0.35759 0.0
C382 C 0.60388 0.25604 0.32265 0.0
H383 H 0.68517 0.17407 0.40226 0.0
O384 O 0.58226 0.97238 0.31133 0.0
O385 O 0.62085 0.08684 0.2678 0.0
O386 O 0.80229 0.10235 0.28398 0.0
O387 O 0.75583 0.16929 0.32735 0.0
C388 C 0.52857 0.32976 0.3384 0.0
C389 C 0.52821 0.34146 0.28517 0.0
H390 H 0.49448 0.30425 0.18278 0.0
H391 H 0.5859 0.27263 0.12447 0.0
H392 H 0.61821 0.22438 0.46646 0.0
H393 H 0.53901 0.29428 0.43862 0.0
H394 H 0.50009 0.35297 0.36469 0.0
H395 H 0.50311 0.3773 0.26909 0.0
Mn396 Mn 0.9338 0.69842 0.232 0.0
Mn397 Mn 0.92927 0.68732 0.36094 0.0
C398 C 0.79673 0.6362 0.28764 0.0
C399 C 0.8344 0.69413 0.16324 0.0
C400 C -0.01192 0.59287 0.29285 0.0
O401 O 0.05487 0.79758 0.26668 0.0
O402 O 0.02959 0.80618 0.35097 0.0
C403 C 0.84596 0.78516 0.38169 0.0
N404 N 0.86049 0.72231 0.3959 0.0
C405 C 0.74513 0.66393 0.45855 0.0
C406 C 0.72823 0.72804 0.44442 0.0
C407 C 0.77637 0.78656 0.40439 0.0
C408 C 0.8055 0.65819 0.42822 0.0
H409 H 0.88151 0.8267 0.34934 0.0
C410 C 0.08245 0.82986 0.31242 0.0
O411 O 0.82639 0.62801 0.18701 0.0
O412 O 0.89403 0.76603 0.18364 0.0
N413 N 0.83838 0.57292 0.37906 0.0
C414 C 0.81568 0.49332 0.36082 0.0
C415 C 0.77374 0.42241 0.39432 0.0
C416 C 0.74166 0.4318 0.44242 0.0
C417 C 0.74645 0.50994 0.45372 0.0
C418 C 0.79951 0.58031 0.42183 0.0
H419 H 0.83252 0.48438 0.32233 0.0
O420 O 0.80272 0.60708 0.24404 0.0
O421 O 0.87152 0.69466 0.29941 0.0
O422 O 0.94896 0.59572 0.25427 0.0
O423 O 0.00264 0.64558 0.3293 0.0
C424 C 0.69939 0.521 0.4939 0.0
C425 C 0.69695 0.59797 0.49547 0.0
H426 H 0.67191 0.72564 0.45937 0.0
H427 H 0.7577 0.82891 0.38861 0.0
H428 H 0.76927 0.36259 0.3832 0.0
H429 H 0.71093 0.37893 0.46961 0.0
H430 H 0.65907 0.46857 0.52037 0.0
H431 H 0.65331 0.60265 0.52261 0.0
Mn432 Mn 0.68799 0.77562 0.69219 0.0
Mn433 Mn 0.65761 0.74211 0.56393 0.0
C434 C 0.65391 0.86511 0.63932 0.0
C435 C 0.6288 0.80867 0.77691 0.0
C436 C 0.55682 0.60636 0.64766 0.0
O437 O 0.7518 0.71023 0.6616 0.0
O438 O 0.7605 0.73176 0.575 0.0
C439 C 0.79648 0.89647 0.50736 0.0
N440 N 0.71244 0.84063 0.51869 0.0
C441 C 0.67165 0.89964 0.45011 0.0
C442 C 0.75723 0.95157 0.43522 0.0
C443 C 0.81955 0.95338 0.46591 0.0
C444 C 0.65152 0.84375 0.49177 0.0
H445 H 0.84473 0.89544 0.52805 0.0
C446 C 0.77811 0.70289 0.61506 0.0
O447 O 0.66374 0.76115 0.77538 0.0
O448 O 0.62967 0.83548 0.73198 0.0
N449 N 0.55708 0.7468 0.552 0.0
C450 C 0.48915 0.72554 0.58444 0.0
C451 C 0.43034 0.74977 0.57166 0.0
C452 C 0.4338 0.7833 0.52285 0.0
C453 C 0.50442 0.80517 0.49047 0.0
C454 C 0.56872 0.79316 0.50923 0.0
H455 H 0.48555 0.69998 0.62211 0.0
O456 O 0.63874 0.8523 0.68747 0.0
O457 O 0.6893 0.82353 0.62112 0.0
O458 O 0.57071 0.66231 0.68271 0.0
O459 O 0.59211 0.63133 0.6033 0.0
C460 C 0.5211 0.85411 0.44564 0.0
C461 C 0.60602 0.90453 0.42688 0.0
H462 H 0.77617 -0.00611 0.40201 0.0
H463 H 0.8848 0.00151 0.4583 0.0
H464 H 0.38725 0.74882 0.60083 0.0
H465 H 0.38859 0.80271 0.51323 0.0
H466 H 0.47172 0.8618 0.42924 0.0
H467 H 0.62188 0.9553 0.39969 0.0
Mn468 Mn 0.22643 0.95132 0.71126 0.0
Mn469 Mn 0.23224 0.98769 0.58486 0.0
C470 C 0.14557 0.8333 0.65455 0.0
C471 C 0.14584 0.88503 0.79334 0.0
C472 C 0.37389 0.97801 0.63262 0.0
O473 O 0.27035 0.09194 0.7063 0.0
O474 O 0.27974 0.0957 0.62085 0.0
C475 C 0.08912 0.00389 0.62097 0.0
N476 N 0.12441 0.97791 0.58272 0.0
C477 C -0.014 0.87347 0.55267 0.0
C478 C 0.94866 0.90029 0.59151 0.0
C479 C 0.00029 0.96587 0.62549 0.0
C480 C 0.07451 0.91085 0.55212 0.0
H481 H 0.12803 0.05063 0.64924 0.0
C482 C 0.29206 0.13541 0.66246 0.0
O483 O 0.22673 0.91637 0.78681 0.0
O484 O 0.11589 0.9104 0.75724 0.0
N485 N 0.19343 0.89781 0.53696 0.0
C486 C 0.24331 0.87996 0.50511 0.0
C487 C 0.20498 0.8201 0.4653 0.0
C488 C 0.11651 0.7815 0.45853 0.0
C489 C 0.07032 0.8102 0.48841 0.0
C490 C 0.11358 0.87416 0.5245 0.0
H491 H 0.31073 0.90829 0.5119 0.0
O492 O 0.17111 0.82522 0.69804 0.0
O493 O 0.17131 0.91295 0.64425 0.0
O494 O 0.34373 0.97088 0.67904 0.0
O495 O 0.33813 0.9865 0.59354 0.0
C496 C -0.01723 0.77606 0.4851 0.0
C497 C 0.94036 0.80893 0.51597 0.0
H498 H 0.88064 0.87018 0.59795 0.0
H499 H -0.02844 0.98512 0.65601 0.0
H500 H 0.24294 0.80292 0.44052 0.0
H501 H 0.08548 0.73227 0.42941 0.0
H502 H 0.94893 0.7197 0.46208 0.0
H503 H 0.8728 0.78164 0.51248 0.0
Mn504 Mn 0.00361 0.3409 0.70494 0.0
Mn505 Mn -0.00387 0.30874 0.57603 0.0
C506 C 0.13311 0.36851 0.65071 0.0
C507 C 0.10439 0.35827 0.77729 0.0
C508 C 0.01564 0.46639 0.62246 0.0
O509 O 0.87122 0.24482 0.68585 0.0
O510 O 0.88079 0.28345 0.60434 0.0
C511 C 0.86581 0.12691 0.57145 0.0
N512 N 0.94809 0.18939 0.55903 0.0
C513 C 0.91986 0.16034 0.46958 0.0
C514 C 0.83263 0.12079 0.48215 0.0
C515 C 0.80564 0.09334 0.53259 0.0
C516 C -0.02282 0.19516 0.50981 0.0
H517 H 0.8455 0.1091 0.61112 0.0
C518 C 0.83397 0.24024 0.64279 0.0
O519 O 0.11576 0.42074 0.7477 0.0
O520 O 0.04266 0.28535 0.76021 0.0
N521 N 0.09137 0.32488 0.53362 0.0
C522 C 0.16356 0.40004 0.52225 0.0
C523 C 0.21091 0.41016 0.47647 0.0
C524 C 0.17539 0.34655 0.43895 0.0
C525 C 0.0939 0.2741 0.44834 0.0
C526 C 0.05884 0.26115 0.49862 0.0
H527 H 0.18016 0.44989 0.54821 0.0
O528 O 0.13412 0.41737 0.68676 0.0
O529 O 0.05526 0.30801 0.64127 0.0
O530 O -0.01268 0.43067 0.66617 0.0
O531 O 0.04247 0.43407 0.58765 0.0
C532 C 0.04008 0.22406 0.40866 0.0
C533 C 0.95173 0.17136 0.41876 0.0
H534 H 0.78582 0.10455 0.4529 0.0
H535 H 0.73886 0.04807 0.54068 0.0
H536 H 0.26997 0.46948 0.4674 0.0
H537 H 0.20757 0.35958 0.40188 0.0
H538 H 0.06288 0.23254 0.36947 0.0
H539 H 0.90897 0.1404 0.38733 0.0
Mn540 Mn -0.03574 0.61983 0.55163 0.0
Mn541 Mn 0.91496 0.59202 0.67975 0.0
C542 C 0.01005 0.54261 0.60845 0.0
C543 C -0.02948 0.51108 0.49017 0.0
C544 C 0.06612 0.75552 0.63667 0.0
O545 O 0.86589 0.65205 0.56557 0.0
O546 O 0.85149 0.64025 0.65013 0.0
C547 C 0.73946 0.4468 0.66279 0.0
N548 N 0.81478 0.48215 0.68777 0.0
C549 C 0.7514 0.38186 0.75651 0.0
C550 C 0.67261 0.34273 0.73223 0.0
C551 C 0.66673 0.3738 0.68425 0.0
C552 C 0.82323 0.44584 0.72993 0.0
H553 H 0.73471 0.47642 0.62819 0.0
C554 C 0.83512 0.66289 0.60875 0.0
O555 O 0.03679 0.57289 0.51273 0.0
O556 O 0.90086 0.51066 0.50365 0.0
N557 N -0.03159 0.55123 0.72304 0.0
C558 C 0.04666 0.60189 0.74382 0.0
C559 C 0.06283 0.58274 0.79259 0.0
C560 C -0.00377 0.51506 0.8212 0.0
C561 C 0.91469 0.46759 0.8004 0.0
C562 C 0.90426 0.48431 0.74987 0.0
H563 H 0.09314 0.66111 0.72541 0.0
O564 O 0.05131 0.58319 0.5677 0.0
O565 O 0.94283 0.5482 0.6164 0.0
O566 O 0.05359 0.73371 0.58929 0.0
O567 O 0.01876 0.70573 0.67311 0.0
C568 C 0.84096 0.41499 0.83045 0.0
C569 C 0.76005 0.36827 0.80807 0.0
H570 H 0.61627 0.29058 0.75093 0.0
H571 H 0.60566 0.34497 0.66562 0.0
H572 H 0.1238 0.62478 0.80998 0.0
H573 H 0.00692 0.50375 0.86021 0.0
H574 H 0.84549 0.41585 0.87137 0.0
H575 H 0.70421 0.32696 0.8317 0.0
Mn576 Mn 0.34533 0.3659 0.59835 0.0
Mn577 Mn 0.33749 0.55247 0.60202 0.0
C578 C 0.21529 0.37036 0.63329 0.0
C579 C 0.3249 0.23243 0.65016 0.0
C580 C 0.47198 0.52571 0.64619 0.0
O581 O 0.4241 0.45266 0.53355 0.0
O582 O 0.38581 0.55538 0.53109 0.0
C583 C 0.2551 0.60831 0.53131 0.0
N584 N 0.25856 0.58297 0.57989 0.0
C585 C 0.22863 0.68652 0.61638 0.0
C586 C 0.2207 0.71052 0.56735 0.0
C587 C 0.22916 0.66777 0.52432 0.0
C588 C 0.23893 0.61595 0.62161 0.0
H589 H 0.27812 0.58844 0.49842 0.0
C590 C 0.42632 0.51982 0.51144 0.0
O591 O 0.38023 0.2724 0.61287 0.0
O592 O 0.27958 0.26857 0.65695 0.0
N593 N 0.29633 0.55233 0.66976 0.0
C594 C 0.31856 0.53148 0.71457 0.0
C595 C 0.30213 0.56053 0.76106 0.0
C596 C 0.26364 0.61083 0.761 0.0
C597 C 0.24942 0.63713 0.71393 0.0
C598 C 0.25632 0.59707 0.66933 0.0
H599 H 0.35056 0.49503 0.71494 0.0
O600 O 0.23817 0.31798 0.65015 0.0
O601 O 0.27154 0.42492 0.60093 0.0
O602 O 0.45259 0.44744 0.6462 0.0
O603 O 0.41748 0.53617 0.62835 0.0
C604 C 0.24938 0.7141 0.70802 0.0
C605 C 0.24691 0.74153 0.65829 0.0
H606 H 0.20704 0.76099 0.56363 0.0
H607 H 0.22411 0.68579 0.48592 0.0
H608 H 0.32681 0.55144 0.796 0.0
H609 H 0.25599 0.63783 0.79676 0.0
H610 H 0.25899 0.75608 0.74048 0.0
H611 H 0.26948 0.8083 0.65095 0.0
Mn612 Mn 0.57592 0.03048 0.56758 0.0
Mn613 Mn 0.59203 0.03386 0.69144 0.0
C614 C 0.45056 0.97071 0.62031 0.0
C615 C 0.52591 0.04758 0.48699 0.0
C616 C 0.6528 0.94214 0.62091 0.0
O617 O 0.70467 0.14143 0.58828 0.0
O618 O 0.6851 0.15399 0.67388 0.0
C619 C 0.50913 0.13209 0.71882 0.0
N620 N 0.52205 0.06639 0.72876 0.0
C621 C 0.4115 0.00703 0.79477 0.0
C622 C 0.39415 0.07194 0.78404 0.0
C623 C 0.44215 0.13403 0.74526 0.0
C624 C 0.46903 0.00169 0.7615 0.0
H625 H 0.54472 0.17712 0.68784 0.0
C626 C 0.73535 0.17692 0.63377 0.0
O627 O 0.57507 0.01572 0.49015 0.0
O628 O 0.52674 0.09162 0.52731 0.0
N629 N 0.50726 0.91926 0.71381 0.0
C630 C 0.48508 0.83972 0.69617 0.0
C631 C 0.44808 0.76983 0.73068 0.0
C632 C 0.42157 0.7811 0.78008 0.0
C633 C 0.421 0.85696 0.79029 0.0
C634 C 0.46759 0.92588 0.75627 0.0
H635 H 0.50132 0.83167 0.65786 0.0
O636 O 0.45115 0.93769 0.57617 0.0
O637 O 0.52601 0.03054 0.6337 0.0
O638 O 0.60623 0.937 0.58467 0.0
O639 O 0.6674 -0.00292 0.65609 0.0
C640 C 0.37346 0.86626 0.83078 0.0
C641 C 0.3665 0.94065 0.83199 0.0
H642 H 0.33806 0.06786 0.80167 0.0
H643 H 0.42523 0.17977 0.73303 0.0
H644 H 0.44265 0.70927 0.71953 0.0
H645 H 0.39759 0.73024 0.80861 0.0
H646 H 0.33647 0.8142 0.85812 0.0
H647 H 0.32197 0.94309 0.85943 0.0
loop_
_geom_bond_atom_site_label_1
_geom_bond_atom_site_label_2
_geom_bond_distance
_geom_bond_site_symmetry_2
_ccdc_geom_bond_type
Mn0 O5 2.095 1_545 S
Mn0 O15 2.162 . S
Mn0 O16 2.297 . S
Mn0 O24 2.385 . S
Mn0 O25 2.209 1_554 S
Mn0 O26 2.094 1_545 S
Mn1 O6 2.121 . S
Mn1 N8 2.257 . S
Mn1 N17 2.282 . S
Mn1 O25 2.215 . S
Mn1 O27 2.117 1_545 S
C2 O24 1.234 . S
C2 O25 1.283 1_554 S
C3 O15 1.281 . S
C3 O16 1.236 . S
C4 O26 1.240 . S
C4 O27 1.264 1_554 S
O5 Mn0 2.095 1_565 S
O5 C14 1.250 1_565 S
O6 Mn1 2.121 . S
O6 C14 1.258 1_556 S
C7 N8 1.326 . S
C7 C11 1.460 . S
C7 H13 0.929 . S
N8 Mn1 2.257 . S
N8 C7 1.326 . S
N8 C12 1.362 . S
C9 C10 1.258 . S
C9 C12 1.431 . S
C9 C29 1.449 . S
C10 C9 1.258 . S
C10 C11 1.477 . S
C10 H30 0.931 . S
C11 C7 1.460 . S
C11 C10 1.477 . S
C11 H31 0.930 . S
C12 N8 1.362 . S
C12 C9 1.431 . S
C12 C22 1.476 . S
H13 C7 0.929 . S
C14 O5 1.250 1_545 S
C14 O6 1.258 1_554 S
O15 Mn0 2.162 . S
O15 C3 1.281 . S
O16 Mn0 2.297 . S
O16 C3 1.236 . S
N17 Mn1 2.282 . S
N17 C18 1.328 . S
N17 C22 1.318 . S
C18 N17 1.328 . S
C18 C19 1.457 . S
C18 H23 0.929 1_545 S
C19 C18 1.457 . S
C19 C20 1.291 . S
C19 H32 0.931 . S
C20 C19 1.291 . S
C20 C21 1.373 . S
C20 H33 0.929 . S
C21 C20 1.373 . S
C21 C22 1.396 . S
C21 C28 1.403 . S
C22 C12 1.476 . S
C22 N17 1.318 . S
C22 C21 1.396 . S
H23 C18 0.929 1_565 S
O24 Mn0 2.385 . S
O24 C2 1.234 . S
O25 Mn0 2.209 1_556 S
O25 Mn1 2.215 . S
O25 C2 1.283 1_556 S
O26 Mn0 2.094 1_565 S
O26 C4 1.240 . S
O27 Mn1 2.117 1_565 S
O27 C4 1.264 1_556 S
C28 C21 1.403 . S
C28 C29 1.399 . S
C28 H34 0.929 . S
C29 C9 1.449 . S
C29 C28 1.399 . S
C29 H35 0.930 . S
H30 C10 0.931 . S
H31 C11 0.930 . S
H32 C19 0.931 . S
H33 C20 0.929 . S
H34 C28 0.929 . S
H35 C29 0.930 . S
Mn36 O41 2.095 . S
Mn36 O51 2.162 . S
Mn36 O52 2.297 . S
Mn36 O60 2.385 . S
Mn36 O61 2.208 1_554 S
Mn36 O62 2.094 1_655 S
Mn37 O42 2.121 . S
Mn37 N44 2.257 . S
Mn37 N53 2.282 . S
Mn37 O61 2.215 . S
Mn37 O63 2.117 1_655 S
C38 O60 1.234 . S
C38 O61 1.283 1_554 S
C39 O51 1.281 . S
C39 O52 1.236 . S
C40 O62 1.240 . S
C40 O63 1.264 1_554 S
O41 Mn36 2.095 . S
O41 C50 1.250 . S
O42 Mn37 2.121 . S
O42 C50 1.258 1_556 S
C43 N44 1.326 . S
C43 C47 1.460 . S
C43 H49 0.929 . S
N44 Mn37 2.257 . S
N44 C43 1.326 . S
N44 C48 1.362 . S
C45 C46 1.258 . S
C45 C48 1.431 . S
C45 C65 1.449 . S
C46 C45 1.258 . S
C46 C47 1.477 . S
C46 H66 0.931 . S
C47 C43 1.460 . S
C47 C46 1.477 . S
C47 H67 0.930 . S
C48 N44 1.362 . S
C48 C45 1.431 . S
C48 C58 1.476 . S
H49 C43 0.929 . S
C50 O41 1.250 . S
C50 O42 1.258 1_554 S
O51 Mn36 2.162 . S
O51 C39 1.281 . S
O52 Mn36 2.297 . S
O52 C39 1.236 . S
N53 Mn37 2.282 . S
N53 C54 1.328 . S
N53 C58 1.318 . S
C54 N53 1.328 . S
C54 C55 1.457 . S
C54 H59 0.929 1_655 S
C55 C54 1.457 . S
C55 C56 1.291 . S
C55 H68 0.931 . S
C56 C55 1.291 . S
C56 C57 1.373 . S
C56 H69 0.929 . S
C57 C56 1.373 . S
C57 C58 1.396 . S
C57 C64 1.403 . S
C58 C48 1.476 . S
C58 N53 1.318 . S
C58 C57 1.396 . S
H59 C54 0.929 1_455 S
O60 Mn36 2.385 . S
O60 C38 1.234 . S
O61 Mn36 2.208 1_556 S
O61 Mn37 2.215 . S
O61 C38 1.283 1_556 S
O62 Mn36 2.094 1_455 S
O62 C40 1.240 . S
O63 Mn37 2.117 1_455 S
O63 C40 1.264 1_556 S
C64 C57 1.403 . S
C64 C65 1.399 . S
C64 H70 0.929 . S
C65 C45 1.449 . S
C65 C64 1.399 . S
C65 H71 0.930 . S
H66 C46 0.931 . S
H67 C47 0.930 . S
H68 C55 0.931 . S
H69 C56 0.929 . S
H70 C64 0.929 . S
H71 C65 0.930 . S
Mn72 O77 2.095 . S
Mn72 O87 2.162 . S
Mn72 O88 2.297 . S
Mn72 O96 2.385 . S
Mn72 O97 2.209 1_554 S
Mn72 O98 2.094 . S
Mn73 O78 2.121 . S
Mn73 N80 2.257 . S
Mn73 N89 2.282 . S
Mn73 O97 2.215 . S
Mn73 O99 2.117 . S
C74 O96 1.235 . S
C74 O97 1.283 1_554 S
C75 O87 1.281 . S
C75 O88 1.236 . S
C76 O98 1.240 . S
C76 O99 1.264 1_554 S
O77 Mn72 2.095 . S
O77 C86 1.250 . S
O78 Mn73 2.121 . S
O78 C86 1.258 1_556 S
C79 N80 1.326 . S
C79 C83 1.460 . S
C79 H85 0.929 . S
N80 Mn73 2.257 . S
N80 C79 1.326 . S
N80 C84 1.362 . S
C81 C82 1.258 . S
C81 C84 1.431 . S
C81 C101 1.449 . S
C82 C81 1.258 . S
C82 C83 1.477 . S
C82 H102 0.931 . S
C83 C79 1.460 . S
C83 C82 1.477 . S
C83 H103 0.930 . S
C84 N80 1.362 . S
C84 C81 1.431 . S
C84 C94 1.476 . S
H85 C79 0.929 . S
C86 O77 1.250 . S
C86 O78 1.258 1_554 S
O87 Mn72 2.162 . S
O87 C75 1.281 . S
O88 Mn72 2.297 . S
O88 C75 1.236 . S
N89 Mn73 2.282 . S
N89 C90 1.328 . S
N89 C94 1.318 . S
C90 N89 1.328 . S
C90 C91 1.457 . S
C90 H95 0.929 . S
C91 C90 1.457 . S
C91 C92 1.291 . S
C91 H104 0.931 . S
C92 C91 1.291 . S
C92 C93 1.373 . S
C92 H105 0.929 1_655 S
C93 C92 1.373 . S
C93 C94 1.396 . S
C93 C100 1.403 . S
C94 C84 1.476 . S
C94 N89 1.318 . S
C94 C93 1.396 . S
H95 C90 0.929 . S
O96 Mn72 2.385 . S
O96 C74 1.235 . S
O97 Mn72 2.209 1_556 S
O97 Mn73 2.215 . S
O97 C74 1.283 1_556 S
O98 Mn72 2.094 . S
O98 C76 1.240 . S
O99 Mn73 2.117 . S
O99 C76 1.264 1_556 S
C100 C93 1.403 . S
C100 C101 1.399 . S
C100 H106 0.929 . S
C101 C81 1.449 . S
C101 C100 1.399 . S
C101 H107 0.930 . S
H102 C82 0.931 . S
H103 C83 0.930 . S
H104 C91 0.931 . S
H105 C92 0.929 1_455 S
H106 C100 0.929 . S
H107 C101 0.930 . S
Mn108 O113 2.095 1_565 S
Mn108 O123 2.162 . S
Mn108 O124 2.297 . S
Mn108 O132 2.385 . S
Mn108 O133 2.209 1_556 S
Mn108 O134 2.094 1_565 S
Mn109 O114 2.121 . S
Mn109 N116 2.257 . S
Mn109 N125 2.282 . S
Mn109 O133 2.215 . S
Mn109 O135 2.117 1_565 S
C110 O132 1.234 . S
C110 O133 1.283 1_556 S
C111 O123 1.281 . S
C111 O124 1.236 . S
C112 O134 1.240 . S
C112 O135 1.264 1_556 S
O113 Mn108 2.095 1_545 S
O113 C122 1.250 1_545 S
O114 Mn109 2.121 . S
O114 C122 1.258 1_554 S
C115 N116 1.326 . S
C115 C119 1.460 . S
C115 H121 0.929 . S
N116 Mn109 2.257 . S
N116 C115 1.326 . S
N116 C120 1.362 . S
C117 C118 1.258 . S
C117 C120 1.431 . S
C117 C137 1.449 . S
C118 C117 1.258 . S
C118 C119 1.477 . S
C118 H138 0.931 . S
C119 C115 1.460 . S
C119 C118 1.477 . S
C119 H139 0.930 . S
C120 N116 1.362 . S
C120 C117 1.431 . S
C120 C130 1.476 . S
H121 C115 0.929 . S
C122 O113 1.250 1_565 S
C122 O114 1.258 1_556 S
O123 Mn108 2.162 . S
O123 C111 1.281 . S
O124 Mn108 2.297 . S
O124 C111 1.236 . S
N125 Mn109 2.282 . S
N125 C126 1.328 . S
N125 C130 1.318 . S
C126 N125 1.328 . S
C126 C127 1.457 . S
C126 H131 0.929 1_565 S
C127 C126 1.457 . S
C127 C128 1.291 . S
C127 H140 0.931 . S
C128 C127 1.291 . S
C128 C129 1.373 . S
C128 H141 0.929 . S
C129 C128 1.373 . S
C129 C130 1.396 . S
C129 C136 1.403 . S
C130 C120 1.476 . S
C130 N125 1.318 . S
C130 C129 1.396 . S
H131 C126 0.929 1_545 S
O132 Mn108 2.385 . S
O132 C110 1.234 . S
O133 Mn108 2.209 1_554 S
O133 Mn109 2.215 . S
O133 C110 1.283 1_554 S
O134 Mn108 2.094 1_545 S
O134 C112 1.240 . S
O135 Mn109 2.117 1_545 S
O135 C112 1.264 1_554 S
C136 C129 1.403 . S
C136 C137 1.399 . S
C136 H142 0.929 . S
C137 C117 1.449 . S
C137 C136 1.399 . S
C137 H143 0.930 . S
H138 C118 0.931 . S
H139 C119 0.930 . S
H140 C127 0.931 . S
H141 C128 0.929 . S
H142 C136 0.929 . S
H143 C137 0.930 . S
Mn144 O149 2.095 . S
Mn144 O159 2.162 . S
Mn144 O160 2.297 1_455 S
Mn144 O168 2.385 1_456 S
Mn144 O169 2.209 1_455 S
Mn144 O170 2.094 1_556 S
Mn145 O150 2.121 1_655 S
Mn145 N152 2.257 . S
Mn145 N161 2.282 . S
Mn145 O169 2.215 . S
Mn145 O171 2.117 1_655 S
C146 O168 1.234 1_556 S
C146 O169 1.283 . S
C147 O159 1.281 1_655 S
C147 O160 1.236 . S
C148 O170 1.240 . S
C148 O171 1.264 1_554 S
O149 Mn144 2.095 . S
O149 C158 1.250 . S
O150 Mn145 2.121 1_455 S
O150 C158 1.258 . S
C151 N152 1.326 . S
C151 C155 1.460 . S
C151 H157 0.929 . S
N152 Mn145 2.257 . S
N152 C151 1.326 . S
N152 C156 1.362 . S
C153 C154 1.258 . S
C153 C156 1.431 . S
C153 C173 1.449 . S
C154 C153 1.258 . S
C154 C155 1.477 . S
C154 H174 0.931 . S
C155 C151 1.460 . S
C155 C154 1.477 . S
C155 H175 0.930 . S
C156 N152 1.362 . S
C156 C153 1.431 . S
C156 C166 1.476 . S
H157 C151 0.929 . S
C158 O149 1.250 . S
C158 O150 1.258 . S
O159 Mn144 2.162 . S
O159 C147 1.281 1_455 S
O160 Mn144 2.297 1_655 S
O160 C147 1.236 . S
N161 Mn145 2.282 . S
N161 C162 1.328 1_556 S
N161 C166 1.318 . S
C162 N161 1.328 1_554 S
C162 C163 1.457 . S
C162 H167 0.929 . S
C163 C162 1.457 . S
C163 C164 1.291 . S
C163 H176 0.931 . S
C164 C163 1.291 . S
C164 C165 1.373 1_554 S
C164 H177 0.929 . S
C165 C164 1.373 1_556 S
C165 C166 1.396 . S
C165 C172 1.403 . S
C166 C156 1.476 . S
C166 N161 1.318 . S
C166 C165 1.396 . S
H167 C162 0.929 . S
O168 Mn144 2.385 1_654 S
O168 C146 1.234 1_554 S
O169 Mn144 2.209 1_655 S
O169 Mn145 2.215 . S
O169 C146 1.283 . S
O170 Mn144 2.094 1_554 S
O170 C148 1.240 . S
O171 Mn145 2.117 1_455 S
O171 C148 1.264 1_556 S
C172 C165 1.403 . S
C172 C173 1.399 . S
C172 H178 0.929 . S
C173 C153 1.449 . S
C173 C172 1.399 . S
C173 H179 0.930 . S
H174 C154 0.931 . S
H175 C155 0.930 . S
H176 C163 0.931 . S
H177 C164 0.929 . S
H178 C172 0.929 . S
H179 C173 0.930 . S
Mn180 O185 2.095 . S
Mn180 O195 2.162 . S
Mn180 O196 2.297 . S
Mn180 O204 2.385 . S
Mn180 O205 2.209 1_556 S
Mn180 O206 2.094 . S
Mn181 O186 2.121 . S
Mn181 N188 2.257 . S
Mn181 N197 2.282 . S
Mn181 O205 2.215 . S
Mn181 O207 2.117 . S
C182 O204 1.234 . S
C182 O205 1.283 1_556 S
C183 O195 1.281 . S
C183 O196 1.236 . S
C184 O206 1.240 . S
C184 O207 1.264 1_556 S
O185 Mn180 2.095 . S
O185 C194 1.250 . S
O186 Mn181 2.121 . S
O186 C194 1.258 1_554 S
C187 N188 1.326 . S
C187 C191 1.460 . S
C187 H193 0.929 . S
N188 Mn181 2.257 . S
N188 C187 1.326 . S
N188 C192 1.362 . S
C189 C190 1.258 . S
C189 C192 1.431 . S
C189 C209 1.449 . S
C190 C189 1.258 . S
C190 C191 1.477 . S
C190 H210 0.931 . S
C191 C187 1.460 . S
C191 C190 1.477 . S
C191 H211 0.930 . S
C192 N188 1.362 . S
C192 C189 1.431 . S
C192 C202 1.476 . S
H193 C187 0.929 . S
C194 O185 1.250 . S
C194 O186 1.258 1_556 S
O195 Mn180 2.162 . S
O195 C183 1.281 . S
O196 Mn180 2.297 . S
O196 C183 1.236 . S
N197 Mn181 2.282 . S
N197 C198 1.328 . S
N197 C202 1.318 . S
C198 N197 1.328 . S
C198 C199 1.457 . S
C198 H203 0.929 . S
C199 C198 1.457 . S
C199 C200 1.291 . S
C199 H212 0.931 . S
C200 C199 1.291 . S
C200 C201 1.373 . S
C200 H213 0.929 1_455 S
C201 C200 1.373 . S
C201 C202 1.396 . S
C201 C208 1.403 . S
C202 C192 1.476 . S
C202 N197 1.318 . S
C202 C201 1.396 . S
H203 C198 0.929 . S
O204 Mn180 2.385 . S
O204 C182 1.234 . S
O205 Mn180 2.209 1_554 S
O205 Mn181 2.215 . S
O205 C182 1.283 1_554 S
O206 Mn180 2.094 . S
O206 C184 1.240 . S
O207 Mn181 2.117 . S
O207 C184 1.264 1_554 S
C208 C201 1.403 . S
C208 C209 1.399 . S
C208 H214 0.929 . S
C209 C189 1.449 . S
C209 C208 1.399 . S
C209 H215 0.930 . S
H210 C190 0.931 . S
H211 C191 0.930 . S
H212 C199 0.931 . S
H213 C200 0.929 1_655 S
H214 C208 0.929 . S
H215 C209 0.930 . S
Mn216 O221 2.095 1_655 S
Mn216 O231 2.162 . S
Mn216 O232 2.297 1_655 S
Mn216 O240 2.385 . S
Mn216 O241 2.209 1_655 S
Mn216 O242 2.094 . S
Mn217 O222 2.121 . S
Mn217 N224 2.257 . S
Mn217 N233 2.282 1_455 S
Mn217 O241 2.215 . S
Mn217 O243 2.117 1_455 S
C218 O240 1.234 . S
C218 O241 1.283 1_655 S
C219 O231 1.281 1_455 S
C219 O232 1.236 . S
C220 O242 1.240 . S
C220 O243 1.264 . S
O221 Mn216 2.095 1_455 S
O221 C230 1.250 . S
O222 Mn217 2.121 . S
O222 C230 1.258 . S
C223 N224 1.326 . S
C223 C227 1.460 . S
C223 H229 0.929 . S
N224 Mn217 2.257 . S
N224 C223 1.326 . S
N224 C228 1.362 . S
C225 C226 1.258 . S
C225 C228 1.431 . S
C225 C245 1.449 . S
C226 C225 1.258 . S
C226 C227 1.477 . S
C226 H246 0.931 . S
C227 C223 1.460 . S
C227 C226 1.477 . S
C227 H247 0.930 . S
C228 N224 1.362 . S
C228 C225 1.431 . S
C228 C238 1.476 1_455 S
H229 C223 0.929 . S
C230 O221 1.250 . S
C230 O222 1.258 . S
O231 Mn216 2.162 . S
O231 C219 1.281 1_655 S
O232 Mn216 2.297 1_455 S
O232 C219 1.236 . S
N233 Mn217 2.282 1_655 S
N233 C234 1.328 . S
N233 C238 1.318 . S
C234 N233 1.328 . S
C234 C235 1.457 . S
C234 H239 0.929 . S
C235 C234 1.457 . S
C235 C236 1.291 . S
C235 H248 0.931 . S
C236 C235 1.291 . S
C236 C237 1.373 . S
C236 H249 0.929 . S
C237 C236 1.373 . S
C237 C238 1.396 . S
C237 C244 1.403 . S
C238 C228 1.476 1_655 S
C238 N233 1.318 . S
C238 C237 1.396 . S
H239 C234 0.929 . S
O240 Mn216 2.385 . S
O240 C218 1.234 . S
O241 Mn216 2.209 1_455 S
O241 Mn217 2.215 . S
O241 C218 1.283 1_455 S
O242 Mn216 2.094 . S
O242 C220 1.240 . S
O243 Mn217 2.117 1_655 S
O243 C220 1.264 . S
C244 C237 1.403 . S
C244 C245 1.399 1_655 S
C244 H250 0.929 . S
C245 C225 1.449 . S
C245 C244 1.399 1_455 S
C245 H251 0.930 . S
H246 C226 0.931 . S
H247 C227 0.930 . S
H248 C235 0.931 . S
H249 C236 0.929 . S
H250 C244 0.929 . S
H251 C245 0.930 . S
Mn252 O257 2.095 . S
Mn252 O267 2.162 . S
Mn252 O268 2.297 . S
Mn252 O276 2.385 . S
Mn252 O277 2.209 . S
Mn252 O278 2.094 . S
Mn253 O258 2.121 . S
Mn253 N260 2.257 . S
Mn253 N269 2.282 . S
Mn253 O277 2.215 . S
Mn253 O279 2.117 . S
C254 O276 1.234 . S
C254 O277 1.283 . S
C255 O267 1.281 . S
C255 O268 1.236 . S
C256 O278 1.240 . S
C256 O279 1.264 . S
O257 Mn252 2.095 . S
O257 C266 1.250 . S
O258 Mn253 2.121 . S
O258 C266 1.258 . S
C259 N260 1.326 . S
C259 C263 1.460 . S
C259 H265 0.929 . S
N260 Mn253 2.257 . S
N260 C259 1.326 . S
N260 C264 1.362 . S
C261 C262 1.258 . S
C261 C264 1.431 . S
C261 C281 1.449 . S
C262 C261 1.258 . S
C262 C263 1.477 . S
C262 H282 0.931 . S
C263 C259 1.460 . S
C263 C262 1.477 . S
C263 H283 0.930 . S
C264 N260 1.362 . S
C264 C261 1.431 . S
C264 C274 1.476 . S
H265 C259 0.929 . S
C266 O257 1.250 . S
C266 O258 1.258 . S
O267 Mn252 2.162 . S
O267 C255 1.281 . S
O268 Mn252 2.297 . S
O268 C255 1.236 . S
N269 Mn253 2.282 . S
N269 C270 1.328 . S
N269 C274 1.318 . S
C270 N269 1.328 . S
C270 C271 1.457 . S
C270 H275 0.929 . S
C271 C270 1.457 . S
C271 C272 1.291 . S
C271 H284 0.931 . S
C272 C271 1.291 . S
C272 C273 1.373 . S
C272 H285 0.929 . S
C273 C272 1.373 . S
C273 C274 1.396 . S
C273 C280 1.403 . S
C274 C264 1.476 . S
C274 N269 1.318 . S
C274 C273 1.396 . S
H275 C270 0.929 . S
O276 Mn252 2.385 . S
O276 C254 1.234 . S
O277 Mn252 2.209 . S
O277 Mn253 2.215 . S
O277 C254 1.283 . S
O278 Mn252 2.094 . S
O278 C256 1.240 . S
O279 Mn253 2.117 . S
O279 C256 1.264 . S
C280 C273 1.403 . S
C280 C281 1.399 . S
C280 H286 0.929 . S
C281 C261 1.449 . S
C281 C280 1.399 . S
C281 H287 0.930 . S
H282 C262 0.931 . S
H283 C263 0.930 . S
H284 C271 0.931 . S
H285 C272 0.929 . S
H286 C280 0.929 . S
H287 C281 0.930 . S
Mn288 O293 2.095 1_545 S
Mn288 O303 2.162 . S
Mn288 O304 2.297 1_545 S
Mn288 O312 2.385 . S
Mn288 O313 2.209 1_545 S
Mn288 O314 2.094 . S
Mn289 O294 2.121 . S
Mn289 N296 2.257 . S
Mn289 N305 2.282 1_565 S
Mn289 O313 2.215 . S
Mn289 O315 2.117 1_565 S
C290 O312 1.234 . S
C290 O313 1.283 1_545 S
C291 O303 1.281 1_565 S
C291 O304 1.236 . S
C292 O314 1.240 . S
C292 O315 1.264 . S
O293 Mn288 2.095 1_565 S
O293 C302 1.250 . S
O294 Mn289 2.121 . S
O294 C302 1.258 . S
C295 N296 1.326 . S
C295 C299 1.460 . S
C295 H301 0.929 . S
N296 Mn289 2.257 . S
N296 C295 1.326 . S
N296 C300 1.362 . S
C297 C298 1.258 . S
C297 C300 1.431 . S
C297 C317 1.449 . S
C298 C297 1.258 . S
C298 C299 1.477 . S
C298 H318 0.931 . S
C299 C295 1.460 . S
C299 C298 1.477 . S
C299 H319 0.930 . S
C300 N296 1.362 . S
C300 C297 1.431 . S
C300 C310 1.476 1_565 S
H301 C295 0.929 . S
C302 O293 1.250 . S
C302 O294 1.258 . S
O303 Mn288 2.162 . S
O303 C291 1.281 1_545 S
O304 Mn288 2.297 1_565 S
O304 C291 1.236 . S
N305 Mn289 2.282 1_545 S
N305 C306 1.328 . S
N305 C310 1.318 . S
C306 N305 1.328 . S
C306 C307 1.457 . S
C306 H311 0.929 . S
C307 C306 1.457 . S
C307 C308 1.291 . S
C307 H320 0.931 . S
C308 C307 1.291 . S
C308 C309 1.373 . S
C308 H321 0.929 . S
C309 C308 1.373 . S
C309 C310 1.396 . S
C309 C316 1.403 . S
C310 C300 1.476 1_545 S
C310 N305 1.318 . S
C310 C309 1.396 . S
H311 C306 0.929 . S
O312 Mn288 2.385 . S
O312 C290 1.234 . S
O313 Mn288 2.209 1_565 S
O313 Mn289 2.215 . S
O313 C290 1.283 1_565 S
O314 Mn288 2.094 . S
O314 C292 1.240 . S
O315 Mn289 2.117 1_545 S
O315 C292 1.264 . S
C316 C309 1.403 . S
C316 C317 1.399 1_545 S
C316 H322 0.929 . S
C317 C297 1.449 . S
C317 C316 1.399 1_565 S
C317 H323 0.930 . S
H318 C298 0.931 . S
H319 C299 0.930 . S
H320 C307 0.931 . S
H321 C308 0.929 . S
H322 C316 0.929 . S
H323 C317 0.930 . S
Mn324 O329 2.095 . S
Mn324 O339 2.162 . S
Mn324 O340 2.297 . S
Mn324 O348 2.385 . S
Mn324 O349 2.209 . S
Mn324 O350 2.094 . S
Mn325 O330 2.121 . S
Mn325 N332 2.257 . S
Mn325 N341 2.282 . S
Mn325 O349 2.215 . S
Mn325 O351 2.117 . S
C326 O348 1.234 . S
C326 O349 1.283 . S
C327 O339 1.281 . S
C327 O340 1.236 . S
C328 O350 1.240 . S
C328 O351 1.264 . S
O329 Mn324 2.095 . S
O329 C338 1.250 . S
O330 Mn325 2.121 . S
O330 C338 1.258 . S
C331 N332 1.326 . S
C331 C335 1.460 . S
C331 H337 0.929 . S
N332 Mn325 2.257 . S
N332 C331 1.326 . S
N332 C336 1.362 . S
C333 C334 1.258 . S
C333 C336 1.431 . S
C333 C353 1.449 . S
C334 C333 1.258 . S
C334 C335 1.477 . S
C334 H354 0.931 . S
C335 C331 1.460 . S
C335 C334 1.477 . S
C335 H355 0.930 . S
C336 N332 1.362 . S
C336 C333 1.431 . S
C336 C346 1.476 . S
H337 C331 0.929 . S
C338 O329 1.250 . S
C338 O330 1.258 . S
O339 Mn324 2.162 . S
O339 C327 1.281 . S
O340 Mn324 2.297 . S
O340 C327 1.236 . S
N341 Mn325 2.282 . S
N341 C342 1.328 . S
N341 C346 1.318 . S
C342 N341 1.328 . S
C342 C343 1.457 . S
C342 H347 0.929 . S
C343 C342 1.457 . S
C343 C344 1.291 . S
C343 H356 0.931 . S
C344 C343 1.291 . S
C344 C345 1.373 . S
C344 H357 0.929 . S
C345 C344 1.373 . S
C345 C346 1.396 . S
C345 C352 1.403 . S
C346 C336 1.476 . S
C346 N341 1.318 . S
C346 C345 1.396 . S
H347 C342 0.929 . S
O348 Mn324 2.385 . S
O348 C326 1.234 . S
O349 Mn324 2.209 . S
O349 Mn325 2.215 . S
O349 C326 1.283 . S
O350 Mn324 2.094 . S
O350 C328 1.240 . S
O351 Mn325 2.117 . S
O351 C328 1.264 . S
C352 C345 1.403 . S
C352 C353 1.399 . S
C352 H358 0.929 . S
C353 C333 1.449 . S
C353 C352 1.399 . S
C353 H359 0.930 . S
H354 C334 0.931 . S
H355 C335 0.930 . S
H356 C343 0.931 . S
H357 C344 0.929 . S
H358 C352 0.929 . S
H359 C353 0.930 . S
Mn360 O365 2.095 . S
Mn360 O375 2.162 1_545 S
Mn360 O376 2.297 1_545 S
Mn360 O384 2.385 1_545 S
Mn360 O385 2.209 . S
Mn360 O386 2.094 . S
Mn361 O366 2.121 . S
Mn361 N368 2.257 . S
Mn361 N377 2.282 . S
Mn361 O385 2.215 . S
Mn361 O387 2.117 . S
C362 O384 1.234 1_545 S
C362 O385 1.283 . S
C363 O375 1.281 . S
C363 O376 1.236 . S
C364 O386 1.240 . S
C364 O387 1.264 . S
O365 Mn360 2.095 . S
O365 C374 1.250 . S
O366 Mn361 2.121 . S
O366 C374 1.258 . S
C367 N368 1.326 . S
C367 C371 1.460 . S
C367 H373 0.929 . S
N368 Mn361 2.257 . S
N368 C367 1.326 . S
N368 C372 1.362 . S
C369 C370 1.258 . S
C369 C372 1.431 . S
C369 C389 1.449 . S
C370 C369 1.258 . S
C370 C371 1.477 . S
C370 H390 0.931 . S
C371 C367 1.460 . S
C371 C370 1.477 . S
C371 H391 0.930 . S
C372 N368 1.362 . S
C372 C369 1.431 . S
C372 C382 1.476 . S
H373 C367 0.929 . S
C374 O365 1.250 . S
C374 O366 1.258 . S
O375 Mn360 2.162 1_565 S
O375 C363 1.281 . S
O376 Mn360 2.297 1_565 S
O376 C363 1.236 . S
N377 Mn361 2.282 . S
N377 C378 1.328 . S
N377 C382 1.318 . S
C378 N377 1.328 . S
C378 C379 1.457 . S
C378 H383 0.929 . S
C379 C378 1.457 . S
C379 C380 1.291 . S
C379 H392 0.931 . S
C380 C379 1.291 . S
C380 C381 1.373 . S
C380 H393 0.929 . S
C381 C380 1.373 . S
C381 C382 1.396 . S
C381 C388 1.403 . S
C382 C372 1.476 . S
C382 N377 1.318 . S
C382 C381 1.396 . S
H383 C378 0.929 . S
O384 Mn360 2.385 1_565 S
O384 C362 1.234 1_565 S
O385 Mn360 2.209 . S
O385 Mn361 2.215 . S
O385 C362 1.283 . S
O386 Mn360 2.094 . S
O386 C364 1.240 . S
O387 Mn361 2.117 . S
O387 C364 1.264 . S
C388 C381 1.403 . S
C388 C389 1.399 . S
C388 H394 0.929 . S
C389 C369 1.449 . S
C389 C388 1.399 . S
C389 H395 0.930 . S
H390 C370 0.931 . S
H391 C371 0.930 . S
H392 C379 0.931 . S
H393 C380 0.929 . S
H394 C388 0.929 . S
H395 C389 0.930 . S
Mn396 O401 2.095 1_655 S
Mn396 O411 2.162 . S
Mn396 O412 2.297 . S
Mn396 O420 2.385 . S
Mn396 O421 2.209 . S
Mn396 O422 2.094 . S
Mn397 O402 2.121 1_655 S
Mn397 N404 2.257 . S
Mn397 N413 2.282 . S
Mn397 O421 2.215 . S
Mn397 O423 2.117 . S
C398 O420 1.234 . S
C398 O421 1.283 . S
C399 O411 1.281 . S
C399 O412 1.236 . S
C400 O422 1.240 . S
C400 O423 1.264 . S
O401 Mn396 2.095 1_455 S
O401 C410 1.250 . S
O402 Mn397 2.121 1_455 S
O402 C410 1.258 . S
C403 N404 1.326 1_455 S
C403 C407 1.460 1_455 S
C403 H409 0.929 . S
N404 Mn397 2.257 . S
N404 C403 1.326 1_655 S
N404 C408 1.362 . S
C405 C406 1.258 . S
C405 C408 1.431 . S
C405 C425 1.449 . S
C406 C405 1.258 . S
C406 C407 1.477 . S
C406 H426 0.931 . S
C407 C403 1.460 1_655 S
C407 C406 1.477 . S
C407 H427 0.930 1_655 S
C408 N404 1.362 . S
C408 C405 1.431 . S
C408 C418 1.476 . S
H409 C403 0.929 . S
C410 O401 1.250 . S
C410 O402 1.258 . S
O411 Mn396 2.162 . S
O411 C399 1.281 . S
O412 Mn396 2.297 . S
O412 C399 1.236 . S
N413 Mn397 2.282 . S
N413 C414 1.328 . S
N413 C418 1.318 . S
C414 N413 1.328 . S
C414 C415 1.457 . S
C414 H419 0.929 . S
C415 C414 1.457 . S
C415 C416 1.291 . S
C415 H428 0.931 . S
C416 C415 1.291 . S
C416 C417 1.373 . S
C416 H429 0.929 . S
C417 C416 1.373 . S
C417 C418 1.396 . S
C417 C424 1.403 . S
C418 C408 1.476 . S
C418 N413 1.318 . S
C418 C417 1.396 . S
H419 C414 0.929 . S
O420 Mn396 2.385 . S
O420 C398 1.234 . S
O421 Mn396 2.209 . S
O421 Mn397 2.215 . S
O421 C398 1.283 . S
O422 Mn396 2.094 . S
O422 C400 1.240 . S
O423 Mn397 2.117 . S
O423 C400 1.264 . S
C424 C417 1.403 . S
C424 C425 1.399 . S
C424 H430 0.929 . S
C425 C405 1.449 . S
C425 C424 1.399 . S
C425 H431 0.930 . S
H426 C406 0.931 . S
H427 C407 0.930 1_455 S
H428 C415 0.931 . S
H429 C416 0.929 . S
H430 C424 0.929 . S
H431 C425 0.930 . S
Mn432 O437 2.095 . S
Mn432 O447 2.162 . S
Mn432 O448 2.297 . S
Mn432 O456 2.385 . S
Mn432 O457 2.209 . S
Mn432 O458 2.094 . S
Mn433 O438 2.121 . S
Mn433 N440 2.257 . S
Mn433 N449 2.282 . S
Mn433 O457 2.215 . S
Mn433 O459 2.117 . S
C434 O456 1.234 . S
C434 O457 1.283 . S
C435 O447 1.281 . S
C435 O448 1.236 . S
C436 O458 1.240 . S
C436 O459 1.264 . S
O437 Mn432 2.095 . S
O437 C446 1.250 . S
O438 Mn433 2.121 . S
O438 C446 1.258 . S
C439 N440 1.326 . S
C439 C443 1.460 . S
C439 H445 0.929 . S
N440 Mn433 2.257 . S
N440 C439 1.326 . S
N440 C444 1.362 . S
C441 C442 1.258 . S
C441 C444 1.431 . S
C441 C461 1.449 . S
C442 C441 1.258 . S
C442 C443 1.477 . S
C442 H462 0.931 . S
C443 C439 1.460 . S
C443 C442 1.477 . S
C443 H463 0.930 . S
C444 N440 1.362 . S
C444 C441 1.431 . S
C444 C454 1.476 . S
H445 C439 0.929 . S
C446 O437 1.250 . S
C446 O438 1.258 . S
O447 Mn432 2.162 . S
O447 C435 1.281 . S
O448 Mn432 2.297 . S
O448 C435 1.236 . S
N449 Mn433 2.282 . S
N449 C450 1.328 . S
N449 C454 1.318 . S
C450 N449 1.328 . S
C450 C451 1.457 . S
C450 H455 0.929 . S
C451 C450 1.457 . S
C451 C452 1.291 . S
C451 H464 0.931 . S
C452 C451 1.291 . S
C452 C453 1.373 . S
C452 H465 0.929 . S
C453 C452 1.373 . S
C453 C454 1.396 . S
C453 C460 1.403 . S
C454 C444 1.476 . S
C454 N449 1.318 . S
C454 C453 1.396 . S
H455 C450 0.929 . S
O456 Mn432 2.385 . S
O456 C434 1.234 . S
O457 Mn432 2.209 . S
O457 Mn433 2.215 . S
O457 C434 1.283 . S
O458 Mn432 2.094 . S
O458 C436 1.240 . S
O459 Mn433 2.117 . S
O459 C436 1.264 . S
C460 C453 1.403 . S
C460 C461 1.399 . S
C460 H466 0.929 . S
C461 C441 1.449 . S
C461 C460 1.399 . S
C461 H467 0.930 . S
H462 C442 0.931 . S
H463 C443 0.930 . S
H464 C451 0.931 . S
H465 C452 0.929 . S
H466 C460 0.929 . S
H467 C461 0.930 . S
Mn468 O473 2.095 1_565 S
Mn468 O483 2.162 . S
Mn468 O484 2.297 . S
Mn468 O492 2.385 . S
Mn468 O493 2.209 . S
Mn468 O494 2.094 . S
Mn469 O474 2.121 1_565 S
Mn469 N476 2.257 . S
Mn469 N485 2.282 . S
Mn469 O493 2.215 . S
Mn469 O495 2.117 . S
C470 O492 1.234 . S
C470 O493 1.283 . S
C471 O483 1.281 . S
C471 O484 1.236 . S
C472 O494 1.240 . S
C472 O495 1.264 . S
O473 Mn468 2.095 1_545 S
O473 C482 1.250 . S
O474 Mn469 2.121 1_545 S
O474 C482 1.258 . S
C475 N476 1.320 1_545 S
C475 C479 1.461 1_545 S
C475 H481 0.934 . S
N476 Mn469 2.257 . S
N476 C475 1.320 1_565 S
N476 C480 1.362 . S
C477 C478 1.258 . S
C477 C480 1.431 . S
C477 C497 1.449 . S
C478 C477 1.258 . S
C478 C479 1.477 . S
C478 H498 0.931 . S
C479 C475 1.461 1_565 S
C479 C478 1.477 . S
C479 H499 0.930 1_565 S
C480 N476 1.362 . S
C480 C477 1.431 . S
C480 C490 1.476 . S
H481 C475 0.934 . S
C482 O473 1.250 . S
C482 O474 1.258 . S
O483 Mn468 2.162 . S
O483 C471 1.281 . S
O484 Mn468 2.297 . S
O484 C471 1.236 . S
N485 Mn469 2.282 . S
N485 C486 1.328 . S
N485 C490 1.318 . S
C486 N485 1.328 . S
C486 C487 1.457 . S
C486 H491 0.929 . S
C487 C486 1.457 . S
C487 C488 1.291 . S
C487 H500 0.931 . S
C488 C487 1.291 . S
C488 C489 1.373 . S
C488 H501 0.929 . S
C489 C488 1.373 . S
C489 C490 1.396 . S
C489 C496 1.403 . S
C490 C480 1.476 . S
C490 N485 1.318 . S
C490 C489 1.396 . S
H491 C486 0.929 . S
O492 Mn468 2.385 . S
O492 C470 1.234 . S
O493 Mn468 2.209 . S
O493 Mn469 2.215 . S
O493 C470 1.283 . S
O494 Mn468 2.094 . S
O494 C472 1.240 . S
O495 Mn469 2.117 . S
O495 C472 1.264 . S
C496 C489 1.403 . S
C496 C497 1.399 . S
C496 H502 0.929 . S
C497 C477 1.449 . S
C497 C496 1.399 . S
C497 H503 0.930 . S
H498 C478 0.931 . S
H499 C479 0.930 1_545 S
H500 C487 0.931 . S
H501 C488 0.929 . S
H502 C496 0.929 . S
H503 C497 0.930 . S
Mn504 O509 2.095 1_455 S
Mn504 O519 2.162 . S
Mn504 O520 2.297 . S
Mn504 O528 2.385 . S
Mn504 O529 2.209 . S
Mn504 O530 2.094 . S
Mn505 O510 2.121 1_455 S
Mn505 N512 2.257 . S
Mn505 N521 2.282 . S
Mn505 O529 2.215 . S
Mn505 O531 2.117 . S
C506 O528 1.234 . S
C506 O529 1.283 . S
C507 O519 1.281 . S
C507 O520 1.236 . S
C508 O530 1.240 . S
C508 O531 1.264 . S
O509 Mn504 2.095 1_655 S
O509 C518 1.250 . S
O510 Mn505 2.121 1_655 S
O510 C518 1.258 . S
C511 N512 1.326 1_655 S
C511 C515 1.460 1_655 S
C511 H517 0.929 . S
N512 Mn505 2.257 . S
N512 C511 1.326 1_455 S
N512 C516 1.362 . S
C513 C514 1.258 . S
C513 C516 1.431 . S
C513 C533 1.449 . S
C514 C513 1.258 . S
C514 C515 1.477 . S
C514 H534 0.931 . S
C515 C511 1.460 1_455 S
C515 C514 1.477 . S
C515 H535 0.930 1_455 S
C516 N512 1.362 . S
C516 C513 1.431 . S
C516 C526 1.476 . S
H517 C511 0.929 . S
C518 O509 1.250 . S
C518 O510 1.258 . S
O519 Mn504 2.162 . S
O519 C507 1.281 . S
O520 Mn504 2.297 . S
O520 C507 1.236 . S
N521 Mn505 2.282 . S
N521 C522 1.328 . S
N521 C526 1.318 . S
C522 N521 1.328 . S
C522 C523 1.457 . S
C522 H527 0.929 . S
C523 C522 1.457 . S
C523 C524 1.291 . S
C523 H536 0.931 . S
C524 C523 1.291 . S
C524 C525 1.373 . S
C524 H537 0.929 . S
C525 C524 1.373 . S
C525 C526 1.396 . S
C525 C532 1.403 . S
C526 C516 1.476 . S
C526 N521 1.318 . S
C526 C525 1.396 . S
H527 C522 0.929 . S
O528 Mn504 2.385 . S
O528 C506 1.234 . S
O529 Mn504 2.209 . S
O529 Mn505 2.215 . S
O529 C506 1.283 . S
O530 Mn504 2.094 . S
O530 C508 1.240 . S
O531 Mn505 2.117 . S
O531 C508 1.264 . S
C532 C525 1.403 . S
C532 C533 1.399 . S
C532 H538 0.929 . S
C533 C513 1.449 . S
C533 C532 1.399 . S
C533 H539 0.930 . S
H534 C514 0.931 . S
H535 C515 0.930 1_655 S
H536 C523 0.931 . S
H537 C524 0.929 . S
H538 C532 0.929 . S
H539 C533 0.930 . S
Mn540 O545 2.095 1_455 S
Mn540 O555 2.162 . S
Mn540 O556 2.297 1_455 S
Mn540 O564 2.385 . S
Mn540 O565 2.209 1_455 S
Mn540 O566 2.094 . S
Mn541 O546 2.121 . S
Mn541 N548 2.257 . S
Mn541 N557 2.282 1_655 S
Mn541 O565 2.215 . S
Mn541 O567 2.117 1_655 S
C542 O564 1.234 . S
C542 O565 1.283 1_455 S
C543 O555 1.281 1_655 S
C543 O556 1.236 . S
C544 O566 1.240 . S
C544 O567 1.264 . S
O545 Mn540 2.095 1_655 S
O545 C554 1.250 . S
O546 Mn541 2.121 . S
O546 C554 1.258 . S
C547 N548 1.326 . S
C547 C551 1.460 . S
C547 H553 0.929 . S
N548 Mn541 2.257 . S
N548 C547 1.326 . S
N548 C552 1.362 . S
C549 C550 1.258 . S
C549 C552 1.431 . S
C549 C569 1.449 . S
C550 C549 1.258 . S
C550 C551 1.477 . S
C550 H570 0.931 . S
C551 C547 1.460 . S
C551 C550 1.477 . S
C551 H571 0.930 . S
C552 N548 1.362 . S
C552 C549 1.431 . S
C552 C562 1.476 1_655 S
H553 C547 0.929 . S
C554 O545 1.250 . S
C554 O546 1.258 . S
O555 Mn540 2.162 . S
O555 C543 1.281 1_455 S
O556 Mn540 2.297 1_655 S
O556 C543 1.236 . S
N557 Mn541 2.282 1_455 S
N557 C558 1.328 . S
N557 C562 1.318 . S
C558 N557 1.328 . S
C558 C559 1.457 . S
C558 H563 0.929 . S
C559 C558 1.457 . S
C559 C560 1.291 . S
C559 H572 0.931 . S
C560 C559 1.291 . S
C560 C561 1.373 . S
C560 H573 0.929 . S
C561 C560 1.373 . S
C561 C562 1.396 . S
C561 C568 1.403 . S
C562 C552 1.476 1_455 S
C562 N557 1.318 . S
C562 C561 1.396 . S
H563 C558 0.929 . S
O564 Mn540 2.385 . S
O564 C542 1.234 . S
O565 Mn540 2.209 1_655 S
O565 Mn541 2.215 . S
O565 C542 1.283 1_655 S
O566 Mn540 2.094 . S
O566 C544 1.240 . S
O567 Mn541 2.117 1_455 S
O567 C544 1.264 . S
C568 C561 1.403 . S
C568 C569 1.399 1_455 S
C568 H574 0.929 . S
C569 C549 1.449 . S
C569 C568 1.399 1_655 S
C569 H575 0.930 . S
H570 C550 0.931 . S
H571 C551 0.930 . S
H572 C559 0.931 . S
H573 C560 0.929 . S
H574 C568 0.929 . S
H575 C569 0.930 . S
Mn576 O581 2.095 . S
Mn576 O591 2.162 . S
Mn576 O592 2.297 . S
Mn576 O600 2.385 . S
Mn576 O601 2.209 . S
Mn576 O602 2.094 . S
Mn577 O582 2.121 . S
Mn577 N584 2.257 . S
Mn577 N593 2.282 . S
Mn577 O601 2.215 . S
Mn577 O603 2.117 . S
C578 O600 1.234 . S
C578 O601 1.283 . S
C579 O591 1.281 . S
C579 O592 1.236 . S
C580 O602 1.240 . S
C580 O603 1.264 . S
O581 Mn576 2.095 . S
O581 C590 1.250 . S
O582 Mn577 2.121 . S
O582 C590 1.258 . S
C583 N584 1.326 . S
C583 C587 1.460 . S
C583 H589 0.929 . S
N584 Mn577 2.257 . S
N584 C583 1.326 . S
N584 C588 1.362 . S
C585 C586 1.258 . S
C585 C588 1.431 . S
C585 C605 1.449 . S
C586 C585 1.258 . S
C586 C587 1.477 . S
C586 H606 0.931 . S
C587 C583 1.460 . S
C587 C586 1.477 . S
C587 H607 0.930 . S
C588 N584 1.362 . S
C588 C585 1.431 . S
C588 C598 1.476 . S
H589 C583 0.929 . S
C590 O581 1.250 . S
C590 O582 1.258 . S
O591 Mn576 2.162 . S
O591 C579 1.281 . S
O592 Mn576 2.297 . S
O592 C579 1.236 . S
N593 Mn577 2.282 . S
N593 C594 1.328 . S
N593 C598 1.318 . S
C594 N593 1.328 . S
C594 C595 1.457 . S
C594 H599 0.929 . S
C595 C594 1.457 . S
C595 C596 1.291 . S
C595 H608 0.931 . S
C596 C595 1.291 . S
C596 C597 1.373 . S
C596 H609 0.929 . S
C597 C596 1.373 . S
C597 C598 1.396 . S
C597 C604 1.403 . S
C598 C588 1.476 . S
C598 N593 1.318 . S
C598 C597 1.396 . S
H599 C594 0.929 . S
O600 Mn576 2.385 . S
O600 C578 1.234 . S
O601 Mn576 2.209 . S
O601 Mn577 2.215 . S
O601 C578 1.283 . S
O602 Mn576 2.094 . S
O602 C580 1.240 . S
O603 Mn577 2.117 . S
O603 C580 1.264 . S
C604 C597 1.403 . S
C604 C605 1.399 . S
C604 H610 0.929 1_455 S
C605 C585 1.449 . S
C605 C604 1.399 . S
C605 H611 0.930 1_455 S
H606 C586 0.931 . S
H607 C587 0.930 . S
H608 C595 0.931 . S
H609 C596 0.929 . S
H610 C604 0.929 1_655 S
H611 C605 0.930 1_655 S
Mn612 O617 2.095 1_565 S
Mn612 O627 2.162 . S
Mn612 O628 2.297 1_565 S
Mn612 O636 2.385 . S
Mn612 O637 2.209 1_565 S
Mn612 O638 2.094 . S
Mn613 O618 2.121 . S
Mn613 N620 2.257 . S
Mn613 N629 2.282 1_545 S
Mn613 O637 2.215 . S
Mn613 O639 2.117 1_545 S
C614 O636 1.234 . S
C614 O637 1.283 1_565 S
C615 O627 1.281 1_545 S
C615 O628 1.236 . S
C616 O638 1.240 . S
C616 O639 1.264 . S
O617 Mn612 2.095 1_545 S
O617 C626 1.250 . S
O618 Mn613 2.121 . S
O618 C626 1.258 . S
C619 N620 1.326 . S
C619 C623 1.460 . S
C619 H625 0.929 . S
N620 Mn613 2.257 . S
N620 C619 1.326 . S
N620 C624 1.362 . S
C621 C622 1.258 . S
C621 C624 1.431 . S
C621 C641 1.449 . S
C622 C621 1.258 . S
C622 C623 1.477 . S
C622 H642 0.931 . S
C623 C619 1.460 . S
C623 C622 1.477 . S
C623 H643 0.930 . S
C624 N620 1.362 . S
C624 C621 1.431 . S
C624 C634 1.476 1_545 S
H625 C619 0.929 . S
C626 O617 1.250 . S
C626 O618 1.258 . S
O627 Mn612 2.162 . S
O627 C615 1.281 1_565 S
O628 Mn612 2.297 1_545 S
O628 C615 1.236 . S
N629 Mn613 2.282 1_565 S
N629 C630 1.328 . S
N629 C634 1.318 . S
C630 N629 1.328 . S
C630 C631 1.457 . S
C630 H635 0.929 . S
C631 C630 1.457 . S
C631 C632 1.291 . S
C631 H644 0.931 . S
C632 C631 1.291 . S
C632 C633 1.373 . S
C632 H645 0.929 . S
C633 C632 1.373 . S
C633 C634 1.396 . S
C633 C640 1.403 . S
C634 C624 1.476 1_565 S
C634 N629 1.318 . S
C634 C633 1.396 . S
H635 C630 0.929 . S
O636 Mn612 2.385 . S
O636 C614 1.234 . S
O637 Mn612 2.209 1_545 S
O637 Mn613 2.215 . S
O637 C614 1.283 1_545 S
O638 Mn612 2.094 . S
O638 C616 1.240 . S
O639 Mn613 2.117 1_565 S
O639 C616 1.264 . S
C640 C633 1.403 . S
C640 C641 1.399 1_565 S
C640 H646 0.929 . S
C641 C621 1.449 . S
C641 C640 1.399 1_545 S
C641 H647 0.930 . S
H642 C622 0.931 . S
H643 C623 0.930 . S
H644 C631 0.931 . S
H645 C632 0.929 . S
H646 C640 0.929 . S
H647 C641 0.930 . S
C14 C122 1.614 1_544 S
C50 C147 2.028 1_554 S
C194 C86 1.804 1_556 S
C230 C338 1.612 . S
C266 C363 2.023 . S
C410 C302 1.793 . S
C554 C446 1.611 . S
C579 C482 2.023 . S
C626 C518 1.793 . S
C3 C327 2.416 . S
C39 C374 2.110 . S
C399 C75 2.565 . S
C111 C435 2.417 . S
C158 C471 2.111 . S
C183 C507 2.565 . S
C219 C543 2.447 1_455 S
C255 C590 2.111 . S
C615 C291 2.567 1_545 S
C4 C148 0.719 . S
C40 C182 0.660 1_554 S
C76 C110 0.685 1_554 S
C112 C38 0.495 1_556 S
C74 C146 0.673 1_554 S
C184 C2 0.642 1_556 S
C220 C364 0.738 . S
C398 C256 0.663 . S
C326 C292 0.710 . S
C254 C328 0.495 . S
C362 C290 0.659 . S
C400 C218 0.624 . S
C580 C436 0.719 . S
C614 C472 0.656 . S
C508 C542 0.668 . S
C470 C544 0.513 . S
C506 C578 0.679 . S
C434 C616 0.658 . S
