# Generated by pormake.
# Topology tsi, (8)-cn, num edge types: 1
# Building blocks:
#     Node 0, Type 0, BuildingBlock: TAGTUT_clean_sbu_3, # of connection points: 8
#     Node 1, Type 0, BuildingBlock: TAGTUT_clean_sbu_3, # of connection points: 8
#     Node 2, Type 0, BuildingBlock: TAGTUT_clean_sbu_3, # of connection points: 8
#     Node 3, Type 0, BuildingBlock: TAGTUT_clean_sbu_3, # of connection points: 8
#     Edge 4, Type (0, 0), BuildingBlock: XUDNAN_clean_linker_2, # of connection points: 2
#     Edge 5, Type (0, 0), BuildingBlock: XUDNAN_clean_linker_2, # of connection points: 2
#     Edge 6, Type (0, 0), BuildingBlock: XUDNAN_clean_linker_2, # of connection points: 2
#     Edge 7, Type (0, 0), BuildingBlock: XUDNAN_clean_linker_2, # of connection points: 2
#     Edge 8, Type (0, 0), BuildingBlock: XUDNAN_clean_linker_2, # of connection points: 2
#     Edge 9, Type (0, 0), BuildingBlock: XUDNAN_clean_linker_2, # of connection points: 2
#     Edge 10, Type (0, 0), BuildingBlock: XUDNAN_clean_linker_2, # of connection points: 2
#     Edge 11, Type (0, 0), BuildingBlock: XUDNAN_clean_linker_2, # of connection points: 2
#     Edge 12, Type (0, 0), BuildingBlock: XUDNAN_clean_linker_2, # of connection points: 2
#     Edge 13, Type (0, 0), BuildingBlock: XUDNAN_clean_linker_2, # of connection points: 2
#     Edge 14, Type (0, 0), BuildingBlock: XUDNAN_clean_linker_2, # of connection points: 2
#     Edge 15, Type (0, 0), BuildingBlock: XUDNAN_clean_linker_2, # of connection points: 2
#     Edge 16, Type (0, 0), BuildingBlock: XUDNAN_clean_linker_2, # of connection points: 2
#     Edge 17, Type (0, 0), BuildingBlock: XUDNAN_clean_linker_2, # of connection points: 2
#     Edge 18, Type (0, 0), BuildingBlock: XUDNAN_clean_linker_2, # of connection points: 2
#     Edge 19, Type (0, 0), BuildingBlock: XUDNAN_clean_linker_2, # of connection points: 2
# Relax obj value: 0.146
# Max RMSD: 0.223
# Mean RMSD: 0.223
data_MOF--net-tsi--node1-TAGTUT_clean_sbu_3--edge1-XUDNAN_clean_linker_2
_symmetry_space_group_name_H-M    P1
_symmetry_Int_Tables_number       1
_symmetry_cell_setting            triclinic
loop_
_symmetry_equiv_pos_as_xyz
'x, y, z'
_cell_length_a     15.817348
_cell_length_b     15.859017
_cell_length_c     66.948057
_cell_angle_alpha  90.284054
_cell_angle_beta   90.137148
_cell_angle_gamma 89.588119
loop_
_atom_site_label
_atom_site_type_symbol
_atom_site_fract_x
_atom_site_fract_y
_atom_site_fract_z
_atom_type_partial_charge
C0 C 0.19853 0.20364 0.35698 0.0
C1 C 0.0305 0.16098 0.28762 0.0
C2 C 0.83187 0.27695 0.31976 0.0
Mg3 Mg 0.11975 0.22968 0.40098 0.0
Mg4 Mg 0.94957 0.12385 0.41329 0.0
O5 O -0.00274 0.20116 0.39601 0.0
Mg6 Mg 0.00127 0.17468 0.3669 0.0
O7 O 0.01478 0.15671 0.33745 0.0
Mg8 Mg 0.04212 0.27615 0.32956 0.0
Mg9 Mg 0.92157 0.11216 0.32428 0.0
C10 C 0.80634 0.13604 0.37995 0.0
O11 O 0.98994 0.02888 0.36985 0.0
O12 O 0.07543 0.27728 0.43202 0.0
O13 O 0.91147 0.00118 0.34233 0.0
O14 O 0.15104 0.1024 0.41556 0.0
O15 O 0.9557 0.20663 0.43881 0.0
O16 O 0.03714 0.02192 0.41758 0.0
O17 O 0.00879 0.31502 0.36171 0.0
O18 O 0.08738 0.35795 0.3873 0.0
C19 C 0.0432 0.37412 0.37178 0.0
C20 C 0.0114 0.26218 0.44323 0.0
O21 O 0.85544 0.17155 0.36726 0.0
O22 O 0.06452 0.22084 0.29782 0.0
O23 O 0.83224 0.1076 0.39686 0.0
O24 O 0.90544 0.30979 0.31938 0.0
O25 O 0.97354 0.1123 0.29459 0.0
O26 O 0.82132 0.20096 0.32511 0.0
O27 O 0.14262 0.17727 0.36909 0.0
O28 O 0.17791 0.24089 0.34066 0.0
C29 C 0.11599 0.03331 0.42049 0.0
C30 C 0.94598 0.97848 0.35885 0.0
C31 C 0.18507 0.80485 0.63017 0.0
C32 C 0.0217 0.86331 0.69802 0.0
C33 C 0.81716 0.7418 0.66788 0.0
Mg34 Mg 0.10763 0.76767 0.58554 0.0
Mg35 Mg 0.92562 0.85518 0.57048 0.0
O36 O 0.98675 0.80236 0.59044 0.0
Mg37 Mg 0.98955 0.83536 0.61899 0.0
O38 O -0.00022 0.85729 0.64841 0.0
Mg39 Mg 0.02553 0.73875 0.65734 0.0
Mg40 Mg 0.90846 0.90629 0.66177 0.0
C41 C 0.78947 0.86395 0.60515 0.0
O42 O 0.97728 0.98079 0.61497 0.0
O43 O 0.06164 0.70249 0.55635 0.0
O44 O 0.89705 0.01226 0.64207 0.0
O45 O 0.13192 0.88604 0.56661 0.0
O46 O 0.93072 0.75224 0.5497 0.0
O47 O 0.0088 0.9498 0.55946 0.0
O48 O 0.9944 0.69504 0.62571 0.0
O49 O 0.07978 0.64671 0.602 0.0
C50 C 0.03247 0.63403 0.61703 0.0
C51 C 0.99266 0.70193 0.54616 0.0
O52 O 0.84421 0.84134 0.61837 0.0
O53 O 0.04998 0.79899 0.68828 0.0
O54 O 0.80852 0.87804 0.58683 0.0
O55 O 0.88998 0.70663 0.66741 0.0
O56 O 0.96601 0.91409 0.69093 0.0
O57 O 0.80764 0.8192 0.66359 0.0
O58 O 0.1343 0.8318 0.61664 0.0
O59 O 0.15801 0.77155 0.64634 0.0
C60 C 0.08859 0.94108 0.55704 0.0
C61 C 0.93178 0.03242 0.62546 0.0
C62 C 0.5499 0.87236 0.8737 0.0
C63 C 0.51854 0.75956 0.9439 0.0
C64 C 0.61236 0.52564 0.92168 0.0
Mg65 Mg 0.54341 0.77633 0.83028 0.0
Mg66 Mg 0.41744 0.6117 0.82417 0.0
O67 O 0.50748 0.65972 0.83809 0.0
Mg68 Mg 0.49721 0.67629 0.86743 0.0
O69 O 0.49856 0.69856 0.89682 0.0
Mg70 Mg 0.62298 0.71956 0.90135 0.0
Mg71 Mg 0.44946 0.62388 0.91446 0.0
C72 C 0.44416 0.47748 0.85848 0.0
O73 O 0.35074 0.67517 0.86863 0.0
O74 O 0.56393 0.71991 0.79842 0.0
O75 O 0.33197 0.60993 0.89826 0.0
O76 O 0.41135 0.81298 0.81955 0.0
O77 O 0.47906 0.60632 0.79566 0.0
O78 O 0.32001 0.70708 0.82223 0.0
O79 O 0.63899 0.67062 0.86917 0.0
O80 O 0.67715 0.73513 0.84121 0.0
C81 C 0.69609 0.69505 0.8572 0.0
C82 C 0.53376 0.65703 0.78853 0.0
O83 O 0.48276 0.53174 0.86956 0.0
O84 O 0.58382 0.76953 0.93274 0.0
O85 O 0.40935 0.49677 0.84173 0.0
O86 O 0.65066 0.59138 0.91575 0.0
O87 O 0.45923 0.70788 0.93952 0.0
O88 O 0.53242 0.51933 0.91986 0.0
O89 O 0.50901 0.82017 0.8627 0.0
O90 O 0.59574 0.84655 0.88816 0.0
C91 C 0.33664 0.78379 0.81818 0.0
C92 C 0.30362 0.63817 0.88156 0.0
C93 C 0.70691 0.3014 0.13162 0.0
C94 C 0.53704 0.36218 0.19911 0.0
C95 C 0.33864 0.23639 0.16891 0.0
Mg96 Mg 0.63053 0.26238 0.08682 0.0
Mg97 Mg 0.44965 0.35236 0.07188 0.0
O98 O 0.50887 0.29545 0.09157 0.0
Mg99 Mg 0.51145 0.32994 0.12005 0.0
O100 O 0.52057 0.35352 0.14939 0.0
Mg101 Mg 0.54677 0.23564 0.15877 0.0
Mg102 Mg 0.4273 0.40227 0.16207 0.0
C103 C 0.31162 0.35798 0.10611 0.0
O104 O 0.49881 0.47526 0.11554 0.0
O105 O 0.58494 0.19755 0.05749 0.0
O106 O 0.41569 0.50727 0.14208 0.0
O107 O 0.65446 0.38073 0.06781 0.0
O108 O 0.45659 0.25262 0.0503 0.0
O109 O 0.53294 0.45 0.06257 0.0
O110 O 0.51771 0.18994 0.1271 0.0
O111 O 0.60318 0.14139 0.10341 0.0
C112 C 0.55613 0.12884 0.1185 0.0
C113 C 0.51697 0.20024 0.04692 0.0
O114 O 0.36609 0.33519 0.11937 0.0
O115 O 0.56533 0.29617 0.18999 0.0
O116 O 0.33124 0.37307 0.08787 0.0
O117 O 0.41225 0.20316 0.16859 0.0
O118 O 0.48496 0.41434 0.19112 0.0
O119 O 0.32673 0.3132 0.1643 0.0
O120 O 0.65612 0.32694 0.11792 0.0
O121 O 0.6798 0.26959 0.14797 0.0
C122 C 0.61157 0.4384 0.05904 0.0
C123 C 0.45211 0.52711 0.12565 0.0
H124 H 0.12362 0.36842 0.46195 0.0
H125 H 0.86406 0.28075 0.46393 0.0
H126 H 0.83239 0.3841 0.49042 0.0
H127 H 0.1436 0.40491 0.51598 0.0
H128 H 0.20806 0.49715 0.51285 0.0
H129 H 0.21164 0.4136 0.49453 0.0
H130 H 0.17389 0.52112 0.46668 0.0
H131 H 0.17031 0.60439 0.48503 0.0
H132 H 0.08002 0.58545 0.4692 0.0
H133 H 0.8243 0.50484 0.51389 0.0
H134 H 0.8455 0.62415 0.53705 0.0
H135 H 0.11196 0.62896 0.52176 0.0
C136 C 0.06044 0.37021 0.46814 0.0
C137 C -0.00373 0.31668 0.46081 0.0
C138 C 0.91442 0.3208 0.46934 0.0
C139 C 0.89558 0.37961 0.48432 0.0
C140 C 0.95954 0.43292 0.49081 0.0
C141 C 0.04074 0.42782 0.48333 0.0
C142 C 0.09766 0.49261 0.49308 0.0
C143 C 0.16948 0.44947 0.50481 0.0
C144 C 0.13247 0.55455 0.47757 0.0
C145 C 0.03521 0.53564 0.50695 0.0
C146 C 0.95574 0.50069 0.50518 0.0
C147 C 0.88642 0.5321 0.51565 0.0
C148 C 0.89895 0.6002 0.52862 0.0
C149 C 0.98038 0.6351 0.5312 0.0
C150 C 0.04931 0.60257 0.52018 0.0
H151 H 0.52955 0.77325 0.7591 0.0
H152 H 0.59427 0.51294 0.77142 0.0
H153 H 0.64544 0.49502 0.73669 0.0
H154 H 0.46516 0.73426 0.70482 0.0
H155 H 0.50779 0.83406 0.69712 0.0
H156 H 0.46243 0.82332 0.72162 0.0
H157 H 0.60005 0.87552 0.73827 0.0
H158 H 0.64507 0.88979 0.714 0.0
H159 H 0.69897 0.82462 0.73206 0.0
H160 H 0.71727 0.51568 0.70406 0.0
H161 H 0.80414 0.57354 0.67689 0.0
H162 H 0.67754 0.81535 0.68388 0.0
C163 C 0.5532 0.71223 0.75426 0.0
C164 C 0.55957 0.6447 0.76773 0.0
C165 C 0.58966 0.56529 0.76113 0.0
C166 C 0.6179 0.55444 0.74144 0.0
C167 C 0.6123 0.62283 0.72847 0.0
C168 C 0.57907 0.69979 0.73452 0.0
C169 C 0.58753 0.76554 0.7184 0.0
C170 C 0.50053 0.7907 0.70999 0.0
C171 C 0.63585 0.84332 0.72615 0.0
C172 C 0.63798 0.71595 0.70313 0.0
C173 C 0.64984 0.63307 0.70893 0.0
C174 C 0.70625 0.5795 0.69898 0.0
C175 C 0.7554 0.61287 0.68354 0.0
C176 C 0.74761 0.69893 0.6783 0.0
C177 C 0.68392 0.74893 0.68729 0.0
H178 H 0.54257 0.40096 0.94387 0.0
H179 H 0.77545 0.53888 0.93578 0.0
H180 H 0.81258 0.51471 0.97098 0.0
H181 H 0.48473 0.49742 0.98295 0.0
H182 H 0.43793 0.41301 -0.00305 0.0
H183 H 0.44402 0.40552 0.97029 0.0
H184 H 0.52796 0.26456 0.9721 0.0
H185 H 0.5167 0.26859 -0.00114 0.0
H186 H 0.62011 0.25728 0.9879 0.0
H187 H 0.80496 0.51028 0.009 0.0
H188 H 0.75992 0.50836 0.04469 0.0
H189 H 0.52452 0.39165 0.02691 0.0
C190 C 0.60384 0.42161 0.94913 0.0
C191 C 0.65468 0.47384 0.93721 0.0
C192 C 0.73461 0.49946 0.94467 0.0
C193 C 0.75615 0.48648 0.96478 0.0
C194 C 0.69817 0.44588 0.977 0.0
C195 C 0.62474 0.41114 0.96925 0.0
C196 C 0.56535 0.3846 0.98568 0.0
C197 C 0.47798 0.42779 0.98384 0.0
C198 C 0.55712 0.28803 0.98616 0.0
C199 C 0.61316 0.41659 0.00366 0.0
C200 C 0.69101 0.44882 -0.00136 0.0
C201 C 0.74437 0.4843 0.01309 0.0
C202 C 0.71794 0.48459 0.0332 0.0
C203 C 0.63741 0.45341 0.03831 0.0
C204 C 0.5851 0.4191 0.02329 0.0
H205 H 0.70109 0.19923 0.30171 0.0
H206 H 0.81235 0.44541 0.31091 0.0
H207 H 0.7224 0.5028 0.28384 0.0
H208 H 0.72162 0.19988 0.25336 0.0
H209 H 0.62654 0.14385 0.24689 0.0
H210 H 0.67436 0.1284 0.2709 0.0
H211 H 0.53505 0.17039 0.28831 0.0
H212 H 0.48522 0.18603 0.26443 0.0
H213 H 0.48475 0.26996 0.28269 0.0
H214 H 0.64404 0.52503 0.25143 0.0
H215 H 0.58836 0.50892 0.21693 0.0
H216 H 0.54184 0.24451 0.22794 0.0
C217 C 0.70355 0.26626 0.2988 0.0
C218 C 0.76276 0.31822 0.30859 0.0
C219 C 0.76627 0.4049 0.30379 0.0
C220 C 0.71532 0.43793 0.28845 0.0
C221 C 0.66162 0.3833 0.27813 0.0
C222 C 0.65495 0.29924 0.28331 0.0
C223 C 0.60674 0.24935 0.2678 0.0
C224 C 0.66058 0.17619 0.25924 0.0
C225 C 0.52292 0.21717 0.27633 0.0
C226 C 0.5917 0.31704 0.25246 0.0
C227 C 0.62095 0.39461 0.25889 0.0
C228 C 0.61949 0.46499 0.24644 0.0
C229 C 0.58833 0.45531 0.2269 0.0
C230 C 0.562 0.37533 0.21998 0.0
C231 C 0.56221 0.30613 0.233 0.0
H232 H 0.3612 0.13879 0.20109 0.0
H233 H 0.1669 0.24632 0.16312 0.0
H234 H 0.05863 0.2096 0.18818 0.0
H235 H 0.22861 0.97515 0.22834 0.0
H236 H 0.28225 -0.00021 0.2514 0.0
H237 H 0.33803 0.00616 0.22801 0.0
H238 H 0.37791 0.16053 0.23632 0.0
H239 H 0.32107 0.15559 0.25943 0.0
H240 H 0.29529 0.23633 0.24152 0.0
H241 H 0.97723 0.18632 0.2197 0.0
H242 H 0.93169 0.18723 0.25512 0.0
H243 H 0.18411 0.11383 0.27351 0.0
C244 C 0.29524 0.14997 0.19752 0.0
C245 C 0.27174 0.19336 0.18003 0.0
C246 C 0.18553 0.21152 0.17631 0.0
C247 C 0.12383 0.19076 0.19046 0.0
C248 C 0.14994 0.15302 0.20827 0.0
C249 C 0.2339 0.13276 0.2118 0.0
C250 C 0.24928 0.1102 0.23345 0.0
C251 C 0.27609 0.01728 0.23541 0.0
C252 C 0.31466 0.16921 0.24323 0.0
C253 C 0.16191 0.12495 0.24181 0.0
C254 C 0.10468 0.14644 0.22697 0.0
C255 C 0.02113 0.16812 0.23136 0.0
C256 C -0.00408 0.16883 0.25143 0.0
C257 C 0.05489 0.15055 0.26671 0.0
C258 C 0.13827 0.1274 0.26189 0.0
H259 H 0.1852 0.85263 0.70922 0.0
H260 H 0.9341 0.90697 0.73173 0.0
H261 H 0.99141 0.91472 0.76625 0.0
H262 H 0.24952 0.71982 0.74568 0.0
H263 H 0.35741 0.75514 0.74698 0.0
H264 H 0.29853 0.767 0.72421 0.0
H265 H 0.32847 0.92734 0.72439 0.0
H266 H 0.38742 0.91681 0.74735 0.0
H267 H 0.30013 0.99017 0.7459 0.0
H268 H 0.07364 0.89 0.79853 0.0
H269 H 0.1753 0.84389 0.82488 0.0
H270 H 0.37073 0.81663 0.78034 0.0
C271 C 0.1428 0.8681 0.72141 0.0
C272 C 0.05568 0.87897 0.71806 0.0
C273 C 0.00141 0.89906 0.73418 0.0
C274 C 0.03339 0.90367 0.75375 0.0
C275 C 0.11986 0.89055 0.75666 0.0
C276 C 0.17394 0.87494 0.74081 0.0
C277 C 0.263 0.85739 0.74777 0.0
C278 C 0.29383 0.76967 0.74075 0.0
C279 C 0.3233 0.9271 0.74094 0.0
C280 C 0.2499 0.86057 0.77006 0.0
C281 C 0.16732 0.88051 0.77506 0.0
C282 C 0.13892 0.87665 0.7948 0.0
C283 C 0.19619 0.8499 0.80962 0.0
C284 C 0.27971 0.82769 0.80446 0.0
C285 C 0.30736 0.83581 0.78463 0.0
H286 H 0.63589 0.86129 0.96257 0.0
H287 H 0.37186 0.78721 0.96417 0.0
H288 H 0.34452 0.89275 0.99035 0.0
H289 H 0.6555 0.89724 0.01655 0.0
H290 H 0.72461 0.98622 0.01367 0.0
H291 H 0.72481 0.90292 -0.00474 0.0
H292 H 0.69386 0.01274 0.96753 0.0
H293 H 0.69281 0.09606 0.98591 0.0
H294 H 0.60274 0.08109 0.96978 0.0
H295 H 0.34136 0.0131 0.01365 0.0
H296 H 0.36711 0.13012 0.03711 0.0
H297 H 0.63462 0.12205 0.02276 0.0
C298 C 0.57261 0.8666 0.96861 0.0
C299 C 0.50603 0.81603 0.96126 0.0
C300 C 0.4241 0.8248 0.96958 0.0
C301 C 0.40766 0.88495 0.98439 0.0
C302 C 0.474 0.93503 0.99094 0.0
C303 C 0.5552 0.92566 0.98368 0.0
C304 C 0.61489 0.98744 -0.00635 0.0
C305 C 0.68403 0.94065 0.00549 0.0
C306 C 0.65332 0.04789 0.9783 0.0
C307 C 0.55405 0.03333 0.00744 0.0
C308 C 0.47296 0.00263 0.00535 0.0
C309 C 0.4047 0.03709 0.01566 0.0
C310 C 0.4199 0.10387 0.02882 0.0
C311 C 0.50286 0.13448 0.03177 0.0
C312 C 0.5708 0.09894 0.0209 0.0
H313 H 0.04942 0.90252 0.44122 0.0
H314 H 0.27513 0.05429 0.43644 0.0
H315 H 0.30599 0.02999 0.47196 0.0
H316 H 0.97749 -0.00633 0.47956 0.0
H317 H 0.93245 0.90625 0.49284 0.0
H318 H 0.94506 0.89997 0.46629 0.0
H319 H 0.0363 0.76394 0.46902 0.0
H320 H 0.0189 0.76637 0.49562 0.0
H321 H 0.12504 0.7615 0.48595 0.0
H322 H 0.28989 0.02386 0.50977 0.0
H323 H 0.23642 0.01901 0.54478 0.0
H324 H 0.01286 0.8892 0.52383 0.0
C325 C 0.10814 0.92633 0.44729 0.0
C326 C 0.15818 0.98242 0.4362 0.0
C327 C 0.23485 0.01194 0.44469 0.0
C328 C 0.25276 -0.0011 0.46499 0.0
C329 C 0.19462 0.95437 0.47636 0.0
C330 C 0.12514 0.91589 0.46762 0.0
C331 C 0.06365 0.88548 0.48321 0.0
C332 C 0.97453 0.92372 0.48028 0.0
C333 C 0.06086 0.78857 0.48346 0.0
C334 C 0.10535 0.9195 0.50182 0.0
C335 C 0.18232 0.95615 0.49787 0.0
C336 C 0.23003 -0.00563 0.51302 0.0
C337 C 0.1988 0.99294 0.53273 0.0
C338 C 0.11904 0.95726 0.53672 0.0
C339 C 0.07255 0.92009 0.52103 0.0
H340 H 0.05732 0.87749 0.37997 0.0
H341 H 0.81651 0.87672 0.34866 0.0
H342 H 0.81517 0.72207 0.34944 0.0
H343 H 0.14772 0.70921 0.3556 0.0
H344 H 0.19953 0.66157 0.37678 0.0
H345 H 0.17789 0.77314 0.37676 0.0
H346 H 0.09452 0.76097 0.40985 0.0
H347 H 0.11791 0.64957 0.41033 0.0
H348 H 0.00985 0.68594 0.41166 0.0
H349 H 0.84993 0.57155 0.34803 0.0
H350 H 0.90541 0.42702 0.35078 0.0
H351 H 0.12075 0.51982 0.38458 0.0
C352 C 0.00302 0.84465 0.37397 0.0
C353 C 0.93747 0.88884 0.36407 0.0
C354 C 0.86787 0.84391 0.35611 0.0
C355 C 0.86643 0.75606 0.35647 0.0
C356 C 0.93432 0.714 0.36515 0.0
C357 C 0.00017 0.75624 0.37433 0.0
C358 C 0.06657 0.69453 0.38186 0.0
C359 C 0.15302 0.71062 0.37216 0.0
C360 C 0.07254 0.69794 0.40478 0.0
C361 C 0.02908 0.61186 0.37469 0.0
C362 C 0.95294 0.62506 0.36504 0.0
C363 C 0.90858 0.55986 0.35593 0.0
C364 C 0.94132 0.47807 0.35733 0.0
C365 C 0.01737 0.46208 0.36791 0.0
C366 C 0.06222 0.53015 0.37651 0.0
H367 H 0.28969 0.80144 0.59734 0.0
H368 H 0.28356 0.85393 0.66101 0.0
H369 H 0.43512 0.8878 0.6605 0.0
H370 H 0.48848 0.69576 0.59848 0.0
H371 H 0.52379 0.73457 0.57467 0.0
H372 H 0.41251 0.72315 0.57942 0.0
H373 H 0.38796 0.88041 0.57062 0.0
H374 H 0.49939 0.89236 0.56591 0.0
H375 H 0.44697 0.96049 0.58368 0.0
H376 H 0.58537 0.91487 0.65358 0.0
H377 H 0.732 0.91784 0.64121 0.0
H378 H 0.64662 0.8346 0.58283 0.0
C379 C 0.3204 0.82118 0.61104 0.0
C380 C 0.27534 0.82561 0.62918 0.0
C381 C 0.31736 0.84996 0.64698 0.0
C382 C 0.40314 0.87 0.64682 0.0
C383 C 0.44618 0.86453 0.62878 0.0
C384 C 0.40691 0.83973 0.61125 0.0
C385 C 0.47021 0.83185 0.59436 0.0
C386 C 0.47396 0.74093 0.58627 0.0
C387 C 0.44991 0.89506 0.57766 0.0
C388 C 0.55099 0.85503 0.60528 0.0
C389 C 0.53503 0.8752 0.62501 0.0
C390 C 0.599 0.89814 0.63822 0.0
C391 C 0.68211 0.89821 0.6312 0.0
C392 C 0.70069 0.87314 0.6114 0.0
C393 C 0.63405 0.85354 0.5981 0.0
H394 H 0.43472 0.33664 0.83445 0.0
H395 H 0.45662 0.41677 0.8963 0.0
H396 H 0.4762 0.269 0.90654 0.0
H397 H 0.32338 0.13417 0.8447 0.0
H398 H 0.37918 0.07856 0.82517 0.0
H399 H 0.35729 0.18978 0.82274 0.0
H400 H 0.51675 0.21741 0.81738 0.0
H401 H 0.53927 0.10659 0.81997 0.0
H402 H 0.59191 0.18193 0.83586 0.0
H403 H 0.50763 0.11908 0.90982 0.0
H404 H 0.54408 0.96974 0.90681 0.0
H405 H 0.49998 0.97918 0.84271 0.0
C406 C 0.44148 0.32272 0.8502 0.0
C407 C 0.44471 0.38822 0.86466 0.0
C408 C 0.45521 0.36777 0.88503 0.0
C409 C 0.46568 0.28398 0.89097 0.0
C410 C 0.4648 0.22126 0.87634 0.0
C411 C 0.45215 0.23899 0.85639 0.0
C412 C 0.45943 0.15942 0.84369 0.0
C413 C 0.37477 0.1393 0.83347 0.0
C414 C 0.53112 0.16682 0.82832 0.0
C415 C 0.48078 0.0948 0.85961 0.0
C416 C 0.48277 0.13252 0.87829 0.0
C417 C 0.50538 0.08851 0.89534 0.0
C418 C 0.52683 0.00359 0.89336 0.0
C419 C 0.52567 0.96263 0.87444 0.0
C420 C 0.50107 0.00868 0.85734 0.0
H421 H 0.169 0.32446 0.08403 0.0
H422 H 0.25394 0.41591 0.14175 0.0
H423 H 0.10713 0.41537 0.15403 0.0
H424 H 0.96893 0.44956 0.08373 0.0
H425 H 0.91061 0.36725 0.07132 0.0
H426 H 0.02211 0.37888 0.06665 0.0
H427 H 0.04723 0.22321 0.07675 0.0
H428 H 0.93609 0.21124 0.0816 0.0
H429 H 0.01228 0.18772 0.10089 0.0
H430 H 0.95695 0.38922 0.16118 0.0
H431 H 0.80538 0.35525 0.162 0.0
H432 H 0.81175 0.29271 0.09883 0.0
C433 C 0.15623 0.34564 0.09913 0.0
C434 C 0.22276 0.36731 0.11228 0.0
C435 C 0.20405 0.39519 0.13186 0.0
C436 C 0.12085 0.39639 0.13883 0.0
C437 C 0.05697 0.37132 0.12582 0.0
C438 C 0.07304 0.34818 0.10626 0.0
C439 C 0.99227 0.32281 0.09559 0.0
C440 C 0.97231 0.38325 0.0783 0.0
C441 C -0.00269 0.23078 0.08828 0.0
C442 C 0.92897 0.33307 0.11241 0.0
C443 C 0.96814 0.36084 0.1297 0.0
C444 C 0.92503 0.36913 0.14767 0.0
C445 C 0.83924 0.34906 0.14801 0.0
C446 C 0.79724 0.32193 0.13045 0.0
C447 C 0.84241 0.31459 0.11236 0.0
H448 H 0.04973 0.1328 0.6073 0.0
H449 H 0.79708 0.13367 0.63245 0.0
H450 H 0.79669 0.28868 0.63312 0.0
H451 H 0.12994 0.29355 0.6354 0.0
H452 H 0.19107 0.34375 0.6162 0.0
H453 H 0.16878 0.23284 0.61446 0.0
H454 H 0.10004 0.25296 0.57963 0.0
H455 H 0.12489 0.36359 0.58091 0.0
H456 H 0.01756 0.33085 0.57649 0.0
H457 H 0.83231 0.43909 0.63687 0.0
H458 H 0.88904 0.58318 0.63589 0.0
H459 H 0.11635 0.48815 0.60693 0.0
C460 C 0.99309 0.16586 0.61209 0.0
C461 C 0.92363 0.12166 0.61991 0.0
C462 C 0.85111 0.16673 0.62649 0.0
C463 C 0.85035 0.25467 0.62701 0.0
C464 C 0.92203 0.29654 0.62057 0.0
C465 C 0.99099 0.25422 0.61258 0.0
C466 C 0.06087 0.31518 0.60741 0.0
C467 C 0.14246 0.29508 0.61907 0.0
C468 C 0.07674 0.31569 0.58476 0.0
C469 C 0.02131 0.39738 0.61445 0.0
C470 C 0.94149 0.38489 0.62212 0.0
C471 C 0.89404 0.45025 0.63051 0.0
C472 C 0.92737 0.53167 0.63016 0.0
C473 C 0.00695 0.54685 0.62128 0.0
C474 C 0.05516 0.4784 0.61374 0.0
H475 H 0.84265 0.76156 0.84158 0.0
H476 H 0.74874 0.57416 0.88299 0.0
H477 H 0.89417 0.53279 0.89131 0.0
H478 H 0.01823 0.63692 0.82415 0.0
H479 H 0.09543 0.71872 0.82301 0.0
H480 H 0.98541 0.74345 0.81868 0.0
H481 H 0.97729 0.85317 0.84616 0.0
H482 H 0.08782 0.8408 0.85199 0.0
H483 H 0.01032 0.82775 0.87122 0.0
H484 H 0.04633 0.51456 0.8963 0.0
H485 H 0.20029 0.52576 0.89941 0.0
H486 H 0.2006 0.72562 0.85521 0.0
C487 C 0.85288 0.71147 0.85227 0.0
C488 C 0.78434 0.67165 0.86175 0.0
C489 C 0.80018 0.60659 0.87575 0.0
C490 C 0.88261 0.58187 0.88045 0.0
C491 C 0.94869 0.62254 0.87097 0.0
C492 C 0.93521 0.68603 0.85726 0.0
C493 C 0.01826 0.72184 0.8501 0.0
C494 C 0.02995 0.70446 0.82766 0.0
C495 C 0.02375 0.81645 0.85512 0.0
C496 C 0.08018 0.67034 0.86244 0.0
C497 C 0.03817 0.61249 0.87407 0.0
C498 C 0.08024 0.55931 0.88723 0.0
C499 C 0.16776 0.56654 0.88893 0.0
C500 C 0.21251 0.62702 0.87764 0.0
C501 C 0.16821 0.67843 0.8639 0.0
H502 H 0.57304 0.62732 0.10851 0.0
H503 H 0.31689 0.62889 0.1316 0.0
H504 H 0.31738 0.7839 0.13258 0.0
H505 H 0.6501 0.78712 0.13754 0.0
H506 H 0.71425 0.83745 0.11892 0.0
H507 H 0.69164 0.72668 0.11685 0.0
H508 H 0.62809 0.74793 0.08152 0.0
H509 H 0.65335 0.85838 0.08314 0.0
H510 H 0.54653 0.82633 0.07781 0.0
H511 H 0.3534 0.93409 0.13691 0.0
H512 H 0.41069 0.07805 0.13646 0.0
H513 H 0.64129 0.98276 0.10906 0.0
C514 C 0.51592 0.66056 0.11289 0.0
C515 C 0.44505 0.61646 0.12005 0.0
C516 C 0.37192 0.66181 0.12612 0.0
C517 C 0.37169 0.74977 0.12684 0.0
C518 C 0.44456 0.79144 0.1211 0.0
C519 C 0.51433 0.74896 0.11356 0.0
C520 C 0.58525 0.80974 0.10905 0.0
C521 C 0.66499 0.78896 0.12133 0.0
C522 C 0.6044 0.81066 0.08654 0.0
C523 C 0.54514 0.89204 0.11587 0.0
C524 C 0.46429 0.8797 0.12293 0.0
C525 C 0.416 0.94513 0.13103 0.0
C526 C 0.44963 0.02648 0.13099 0.0
C527 C 0.53031 0.0416 0.12267 0.0
C528 C 0.57928 0.97305 0.11545 0.0
H529 H 0.70302 0.24681 0.35959 0.0
H530 H 0.70554 0.00733 0.39074 0.0
H531 H 0.55105 -0.00227 0.38692 0.0
H532 H 0.51339 0.32268 0.38251 0.0
H533 H 0.47454 0.37672 0.36068 0.0
H534 H 0.58659 0.36258 0.36432 0.0
H535 H 0.59576 0.29361 0.33002 0.0
H536 H 0.48363 0.30048 0.32584 0.0
H537 H 0.53656 0.19947 0.32443 0.0
H538 H 0.39853 0.01865 0.38281 0.0
H539 H 0.25233 0.06393 0.3762 0.0
H540 H 0.34383 0.28921 0.3469 0.0
C541 C 0.67097 0.19162 0.36517 0.0
C542 C 0.71581 0.12751 0.37539 0.0
C543 C 0.672 0.05706 0.38292 0.0
C544 C 0.58443 0.05101 0.38081 0.0
C545 C 0.54162 0.11617 0.37122 0.0
C546 C 0.58292 0.18504 0.36342 0.0
C547 C 0.5202 0.24823 0.35484 0.0
C548 C 0.52392 0.33253 0.36628 0.0
C549 C 0.53484 0.26105 0.33242 0.0
C550 C 0.43773 0.20316 0.35876 0.0
C551 C 0.452 0.12769 0.36848 0.0
C552 C 0.38637 0.07698 0.37496 0.0
C553 C 0.30359 0.10361 0.37124 0.0
C554 C 0.28705 0.17979 0.36093 0.0
C555 C 0.355 0.23013 0.35454 0.0
loop_
_geom_bond_atom_site_label_1
_geom_bond_atom_site_label_2
_geom_bond_distance
_geom_bond_site_symmetry_2
_ccdc_geom_bond_type
C0 O27 1.312 . S
C0 O28 1.208 . S
C1 O22 1.331 . S
C1 O25 1.244 . S
C2 O24 1.264 . S
C2 O26 1.273 . S
Mg3 O5 1.936 1_455 S
Mg3 O12 2.081 1_455 S
Mg3 O14 2.023 . S
Mg3 O18 2.031 . S
Mg3 O27 2.291 . S
Mg4 O5 1.963 . S
Mg4 O15 1.942 . S
Mg4 O16 1.955 . S
Mg4 O23 1.986 . S
O5 Mg3 1.936 1_655 S
O5 Mg4 1.963 . S
O5 Mg6 1.915 . S
Mg6 O5 1.915 . S
Mg6 O7 1.915 1_655 S
Mg6 O11 2.013 . S
Mg6 O17 2.114 1_655 S
Mg6 O21 2.013 . S
Mg6 O27 2.114 1_655 S
O7 Mg6 1.915 1_455 S
O7 Mg8 1.936 . S
O7 Mg9 1.963 1_455 S
Mg8 O7 1.936 . S
Mg8 O17 2.291 . S
Mg8 O22 2.081 . S
Mg8 O24 2.023 1_455 S
Mg8 O28 2.031 . S
Mg9 O7 1.963 1_655 S
Mg9 O13 1.986 . S
Mg9 O25 1.942 1_655 S
Mg9 O26 1.955 . S
C10 O21 1.191 . S
C10 O23 1.307 . S
O11 Mg6 2.013 . S
O11 C30 1.191 . S
O12 Mg3 2.081 1_655 S
O12 C20 1.331 . S
O13 Mg9 1.986 . S
O13 C30 1.307 . S
O14 Mg3 2.023 . S
O14 C29 1.264 . S
O15 Mg4 1.942 . S
O15 C20 1.244 . S
O16 Mg4 1.955 . S
O16 C29 1.273 1_655 S
O17 Mg6 2.114 1_455 S
O17 Mg8 2.291 . S
O17 C19 1.312 . S
O18 Mg3 2.031 . S
O18 C19 1.208 . S
C19 O17 1.312 . S
C19 O18 1.208 . S
C20 O12 1.331 . S
C20 O15 1.244 . S
O21 Mg6 2.013 . S
O21 C10 1.191 . S
O22 C1 1.331 . S
O22 Mg8 2.081 . S
O23 Mg4 1.986 . S
O23 C10 1.307 . S
O24 C2 1.264 . S
O24 Mg8 2.023 1_655 S
O25 C1 1.244 . S
O25 Mg9 1.942 1_455 S
O26 C2 1.273 . S
O26 Mg9 1.955 . S
O27 C0 1.312 . S
O27 Mg3 2.291 . S
O27 Mg6 2.114 1_455 S
O28 C0 1.208 . S
O28 Mg8 2.031 . S
C29 O14 1.264 . S
C29 O16 1.273 1_455 S
C30 O11 1.191 . S
C30 O13 1.307 . S
C31 O58 1.312 . S
C31 O59 1.208 . S
C32 O53 1.331 . S
C32 O56 1.244 . S
C33 O55 1.264 . S
C33 O57 1.273 . S
Mg34 O36 1.936 1_455 S
Mg34 O43 2.081 1_455 S
Mg34 O45 2.023 . S
Mg34 O49 2.031 . S
Mg34 O58 2.291 . S
Mg35 O36 1.963 . S
Mg35 O46 1.942 . S
Mg35 O47 1.955 . S
Mg35 O54 1.986 . S
O36 Mg34 1.936 1_655 S
O36 Mg35 1.963 . S
O36 Mg37 1.915 . S
Mg37 O36 1.915 . S
Mg37 O38 1.915 1_655 S
Mg37 O42 2.013 . S
Mg37 O48 2.114 1_655 S
Mg37 O52 2.013 . S
Mg37 O58 2.114 1_655 S
O38 Mg37 1.915 1_455 S
O38 Mg39 1.936 . S
O38 Mg40 1.963 1_455 S
Mg39 O38 1.936 . S
Mg39 O48 2.291 . S
Mg39 O53 2.081 . S
Mg39 O55 2.023 1_455 S
Mg39 O59 2.031 . S
Mg40 O38 1.963 1_655 S
Mg40 O44 1.986 . S
Mg40 O56 1.942 1_655 S
Mg40 O57 1.955 . S
C41 O52 1.191 . S
C41 O54 1.307 . S
O42 Mg37 2.013 . S
O42 C61 1.191 . S
O43 Mg34 2.081 1_655 S
O43 C51 1.331 . S
O44 Mg40 1.986 . S
O44 C61 1.307 . S
O45 Mg34 2.023 . S
O45 C60 1.264 . S
O46 Mg35 1.942 . S
O46 C51 1.244 . S
O47 Mg35 1.955 . S
O47 C60 1.273 1_655 S
O48 Mg37 2.114 1_455 S
O48 Mg39 2.291 . S
O48 C50 1.312 . S
O49 Mg34 2.031 . S
O49 C50 1.208 . S
C50 O48 1.312 . S
C50 O49 1.208 . S
C51 O43 1.331 . S
C51 O46 1.244 . S
O52 Mg37 2.013 . S
O52 C41 1.191 . S
O53 C32 1.331 . S
O53 Mg39 2.081 . S
O54 Mg35 1.986 . S
O54 C41 1.307 . S
O55 C33 1.264 . S
O55 Mg39 2.023 1_655 S
O56 C32 1.244 . S
O56 Mg40 1.942 1_455 S
O57 C33 1.273 . S
O57 Mg40 1.955 . S
O58 C31 1.312 . S
O58 Mg34 2.291 . S
O58 Mg37 2.114 1_455 S
O59 C31 1.208 . S
O59 Mg39 2.031 . S
C60 O45 1.264 . S
C60 O47 1.273 1_455 S
C61 O42 1.191 . S
C61 O44 1.307 . S
C62 O89 1.312 . S
C62 O90 1.208 . S
C63 O84 1.331 . S
C63 O87 1.244 . S
C64 O86 1.264 . S
C64 O88 1.273 . S
Mg65 O67 1.936 . S
Mg65 O74 2.081 . S
Mg65 O76 2.023 . S
Mg65 O80 2.031 . S
Mg65 O89 2.291 . S
Mg66 O67 1.963 . S
Mg66 O77 1.942 . S
Mg66 O78 1.955 . S
Mg66 O85 1.986 . S
O67 Mg65 1.936 . S
O67 Mg66 1.963 . S
O67 Mg68 1.915 . S
Mg68 O67 1.915 . S
Mg68 O69 1.915 . S
Mg68 O73 2.013 . S
Mg68 O79 2.114 . S
Mg68 O83 2.013 . S
Mg68 O89 2.114 . S
O69 Mg68 1.915 . S
O69 Mg70 1.936 . S
O69 Mg71 1.963 . S
Mg70 O69 1.936 . S
Mg70 O79 2.291 . S
Mg70 O84 2.081 . S
Mg70 O86 2.023 . S
Mg70 O90 2.031 . S
Mg71 O69 1.963 . S
Mg71 O75 1.986 . S
Mg71 O87 1.942 . S
Mg71 O88 1.955 . S
C72 O83 1.191 . S
C72 O85 1.307 . S
O73 Mg68 2.013 . S
O73 C92 1.191 . S
O74 Mg65 2.081 . S
O74 C82 1.331 . S
O75 Mg71 1.986 . S
O75 C92 1.307 . S
O76 Mg65 2.023 . S
O76 C91 1.264 . S
O77 Mg66 1.942 . S
O77 C82 1.244 . S
O78 Mg66 1.955 . S
O78 C91 1.273 . S
O79 Mg68 2.114 . S
O79 Mg70 2.291 . S
O79 C81 1.312 . S
O80 Mg65 2.031 . S
O80 C81 1.208 . S
C81 O79 1.312 . S
C81 O80 1.208 . S
C82 O74 1.331 . S
C82 O77 1.244 . S
O83 Mg68 2.013 . S
O83 C72 1.191 . S
O84 C63 1.331 . S
O84 Mg70 2.081 . S
O85 Mg66 1.986 . S
O85 C72 1.307 . S
O86 C64 1.264 . S
O86 Mg70 2.023 . S
O87 C63 1.244 . S
O87 Mg71 1.942 . S
O88 C64 1.273 . S
O88 Mg71 1.955 . S
O89 C62 1.312 . S
O89 Mg65 2.291 . S
O89 Mg68 2.114 . S
O90 C62 1.208 . S
O90 Mg70 2.031 . S
C91 O76 1.264 . S
C91 O78 1.273 . S
C92 O73 1.191 . S
C92 O75 1.307 . S
C93 O120 1.312 . S
C93 O121 1.208 . S
C94 O115 1.331 . S
C94 O118 1.244 . S
C95 O117 1.264 . S
C95 O119 1.273 . S
Mg96 O98 1.936 . S
Mg96 O105 2.081 . S
Mg96 O107 2.023 . S
Mg96 O111 2.031 . S
Mg96 O120 2.291 . S
Mg97 O98 1.963 . S
Mg97 O108 1.942 . S
Mg97 O109 1.955 . S
Mg97 O116 1.986 . S
O98 Mg96 1.936 . S
O98 Mg97 1.963 . S
O98 Mg99 1.915 . S
Mg99 O98 1.915 . S
Mg99 O100 1.915 . S
Mg99 O104 2.013 . S
Mg99 O110 2.114 . S
Mg99 O114 2.013 . S
Mg99 O120 2.114 . S
O100 Mg99 1.915 . S
O100 Mg101 1.936 . S
O100 Mg102 1.963 . S
Mg101 O100 1.936 . S
Mg101 O110 2.291 . S
Mg101 O115 2.081 . S
Mg101 O117 2.023 . S
Mg101 O121 2.031 . S
Mg102 O100 1.963 . S
Mg102 O106 1.986 . S
Mg102 O118 1.942 . S
Mg102 O119 1.955 . S
C103 O114 1.191 . S
C103 O116 1.307 . S
O104 Mg99 2.013 . S
O104 C123 1.191 . S
O105 Mg96 2.081 . S
O105 C113 1.331 . S
O106 Mg102 1.986 . S
O106 C123 1.307 . S
O107 Mg96 2.023 . S
O107 C122 1.264 . S
O108 Mg97 1.942 . S
O108 C113 1.244 . S
O109 Mg97 1.955 . S
O109 C122 1.273 . S
O110 Mg99 2.114 . S
O110 Mg101 2.291 . S
O110 C112 1.312 . S
O111 Mg96 2.031 . S
O111 C112 1.208 . S
C112 O110 1.312 . S
C112 O111 1.208 . S
C113 O105 1.331 . S
C113 O108 1.244 . S
O114 Mg99 2.013 . S
O114 C103 1.191 . S
O115 C94 1.331 . S
O115 Mg101 2.081 . S
O116 Mg97 1.986 . S
O116 C103 1.307 . S
O117 C95 1.264 . S
O117 Mg101 2.023 . S
O118 C94 1.244 . S
O118 Mg102 1.942 . S
O119 C95 1.273 . S
O119 Mg102 1.955 . S
O120 C93 1.312 . S
O120 Mg96 2.291 . S
O120 Mg99 2.114 . S
O121 C93 1.208 . S
O121 Mg101 2.031 . S
C122 O107 1.264 . S
C122 O109 1.273 . S
C123 O104 1.191 . S
C123 O106 1.307 . S
H124 C136 0.930 . S
H125 C138 0.930 . S
H126 C139 0.930 . S
H127 C143 0.959 . S
H128 C143 0.959 . S
H129 C143 0.961 . S
H130 C144 0.960 . S
H131 C144 0.961 . S
H132 C144 0.959 . S
H133 C147 0.929 . S
H134 C148 0.931 . S
H135 C150 0.930 . S
C136 H124 0.930 . S
C136 C137 1.399 . S
C136 C141 1.399 . S
C137 C136 1.399 . S
C137 C138 1.376 . S
C138 H125 0.930 . S
C138 C137 1.376 . S
C138 C139 1.388 . S
C139 H126 0.930 . S
C139 C138 1.388 . S
C139 C140 1.390 . S
C140 C139 1.390 . S
C140 C141 1.394 . S
C140 C146 1.465 . S
C141 C136 1.399 . S
C141 C140 1.394 . S
C141 C142 1.516 . S
C142 C141 1.516 . S
C142 C143 1.502 . S
C142 C144 1.561 . S
C142 C145 1.526 . S
C143 H127 0.959 . S
C143 H128 0.959 . S
C143 H129 0.961 . S
C143 C142 1.502 . S
C144 H130 0.960 . S
C144 H131 0.961 . S
C144 H132 0.959 . S
C144 C142 1.561 . S
C145 C142 1.526 . S
C145 C146 1.396 . S
C145 C150 1.390 . S
C146 C140 1.465 . S
C146 C145 1.396 . S
C146 C147 1.399 . S
C147 H133 0.929 . S
C147 C146 1.399 . S
C147 C148 1.385 . S
C148 H134 0.931 . S
C148 C147 1.385 . S
C148 C149 1.389 . S
C149 C148 1.389 . S
C149 C150 1.387 . S
C150 H135 0.930 . S
C150 C145 1.390 . S
C150 C149 1.387 . S
H151 C163 0.930 . S
H152 C165 0.930 . S
H153 C166 0.930 . S
H154 C170 0.959 . S
H155 C170 0.959 . S
H156 C170 0.961 . S
H157 C171 0.960 . S
H158 C171 0.961 . S
H159 C171 0.959 . S
H160 C174 0.929 . S
H161 C175 0.931 . S
H162 C177 0.930 . S
C163 H151 0.930 . S
C163 C164 1.399 . S
C163 C168 1.399 . S
C164 C163 1.399 . S
C164 C165 1.376 . S
C165 H152 0.930 . S
C165 C164 1.376 . S
C165 C166 1.388 . S
C166 H153 0.930 . S
C166 C165 1.388 . S
C166 C167 1.390 . S
C167 C166 1.390 . S
C167 C168 1.394 . S
C167 C173 1.465 . S
C168 C163 1.399 . S
C168 C167 1.394 . S
C168 C169 1.516 . S
C169 C168 1.516 . S
C169 C170 1.502 . S
C169 C171 1.561 . S
C169 C172 1.526 . S
C170 H154 0.959 . S
C170 H155 0.959 . S
C170 H156 0.961 . S
C170 C169 1.502 . S
C171 H157 0.960 . S
C171 H158 0.961 . S
C171 H159 0.959 . S
C171 C169 1.561 . S
C172 C169 1.526 . S
C172 C173 1.396 . S
C172 C177 1.390 . S
C173 C167 1.465 . S
C173 C172 1.396 . S
C173 C174 1.399 . S
C174 H160 0.929 . S
C174 C173 1.399 . S
C174 C175 1.385 . S
C175 H161 0.931 . S
C175 C174 1.385 . S
C175 C176 1.389 . S
C176 C175 1.389 . S
C176 C177 1.387 . S
C177 H162 0.930 . S
C177 C172 1.390 . S
C177 C176 1.387 . S
H178 C190 0.930 . S
H179 C192 0.930 . S
H180 C193 0.930 . S
H181 C197 0.959 . S
H182 C197 0.959 . S
H183 C197 0.961 . S
H184 C198 0.960 . S
H185 C198 0.961 1_554 S
H186 C198 0.959 1_554 S
H187 C201 0.929 . S
H188 C202 0.931 . S
H189 C204 0.930 . S
C190 H178 0.930 . S
C190 C191 1.399 . S
C190 C195 1.399 . S
C191 C190 1.399 . S
C191 C192 1.376 . S
C192 H179 0.930 . S
C192 C191 1.376 . S
C192 C193 1.388 . S
C193 H180 0.930 . S
C193 C192 1.388 . S
C193 C194 1.390 . S
C194 C193 1.390 . S
C194 C195 1.394 . S
C194 C200 1.465 1_556 S
C195 C190 1.399 . S
C195 C194 1.394 . S
C195 C196 1.516 . S
C196 C195 1.516 . S
C196 C197 1.502 . S
C196 C198 1.561 . S
C196 C199 1.526 1_556 S
C197 H181 0.959 . S
C197 H182 0.959 . S
C197 H183 0.961 . S
C197 C196 1.502 . S
C198 H184 0.960 . S
C198 H185 0.961 1_556 S
C198 H186 0.959 1_556 S
C198 C196 1.561 . S
C199 C196 1.526 1_554 S
C199 C200 1.396 . S
C199 C204 1.390 . S
C200 C194 1.465 1_554 S
C200 C199 1.396 . S
C200 C201 1.399 . S
C201 H187 0.929 . S
C201 C200 1.399 . S
C201 C202 1.385 . S
C202 H188 0.931 . S
C202 C201 1.385 . S
C202 C203 1.389 . S
C203 C202 1.389 . S
C203 C204 1.387 . S
C204 H189 0.930 . S
C204 C199 1.390 . S
C204 C203 1.387 . S
H205 C217 0.930 . S
H206 C219 0.930 . S
H207 C220 0.930 . S
H208 C224 0.959 . S
H209 C224 0.959 . S
H210 C224 0.961 . S
H211 C225 0.960 . S
H212 C225 0.961 . S
H213 C225 0.959 . S
H214 C228 0.929 . S
H215 C229 0.931 . S
H216 C231 0.930 . S
C217 H205 0.930 . S
C217 C218 1.399 . S
C217 C222 1.399 . S
C218 C217 1.399 . S
C218 C219 1.376 . S
C219 H206 0.930 . S
C219 C218 1.376 . S
C219 C220 1.388 . S
C220 H207 0.930 . S
C220 C219 1.388 . S
C220 C221 1.390 . S
C221 C220 1.390 . S
C221 C222 1.394 . S
C221 C227 1.465 . S
C222 C217 1.399 . S
C222 C221 1.394 . S
C222 C223 1.516 . S
C223 C222 1.516 . S
C223 C224 1.502 . S
C223 C225 1.561 . S
C223 C226 1.526 . S
C224 H208 0.959 . S
C224 H209 0.959 . S
C224 H210 0.961 . S
C224 C223 1.502 . S
C225 H211 0.960 . S
C225 H212 0.961 . S
C225 H213 0.959 . S
C225 C223 1.561 . S
C226 C223 1.526 . S
C226 C227 1.396 . S
C226 C231 1.390 . S
C227 C221 1.465 . S
C227 C226 1.396 . S
C227 C228 1.399 . S
C228 H214 0.929 . S
C228 C227 1.399 . S
C228 C229 1.385 . S
C229 H215 0.931 . S
C229 C228 1.385 . S
C229 C230 1.389 . S
C230 C229 1.389 . S
C230 C231 1.387 . S
C231 H216 0.930 . S
C231 C226 1.390 . S
C231 C230 1.387 . S
H232 C244 0.930 . S
H233 C246 0.930 . S
H234 C247 0.930 . S
H235 C251 0.959 1_545 S
H236 C251 0.959 . S
H237 C251 0.961 . S
H238 C252 0.960 . S
H239 C252 0.961 . S
H240 C252 0.959 1_545 S
H241 C255 0.929 . S
H242 C256 0.931 . S
H243 C258 0.930 . S
C244 H232 0.930 . S
C244 C245 1.399 . S
C244 C249 1.399 . S
C245 C244 1.399 . S
C245 C246 1.376 . S
C246 H233 0.930 . S
C246 C245 1.376 . S
C246 C247 1.388 . S
C247 H234 0.930 . S
C247 C246 1.388 . S
C247 C248 1.390 . S
C248 C247 1.390 . S
C248 C249 1.394 . S
C248 C254 1.465 . S
C249 C244 1.399 . S
C249 C248 1.394 . S
C249 C250 1.516 . S
C250 C249 1.516 . S
C250 C251 1.502 1_545 S
C250 C252 1.561 1_545 S
C250 C253 1.526 . S
C251 H235 0.959 1_565 S
C251 H236 0.959 . S
C251 H237 0.961 . S
C251 C250 1.502 1_565 S
C252 H238 0.960 . S
C252 H239 0.961 . S
C252 H240 0.959 1_565 S
C252 C250 1.561 1_565 S
C253 C250 1.526 . S
C253 C254 1.396 . S
C253 C258 1.390 . S
C254 C248 1.465 . S
C254 C253 1.396 . S
C254 C255 1.399 . S
C255 H241 0.929 . S
C255 C254 1.399 . S
C255 C256 1.385 . S
C256 H242 0.931 . S
C256 C255 1.385 . S
C256 C257 1.389 . S
C257 C256 1.389 . S
C257 C258 1.387 . S
C258 H243 0.930 . S
C258 C253 1.390 . S
C258 C257 1.387 . S
H259 C271 0.930 . S
H260 C273 0.930 . S
H261 C274 0.930 . S
H262 C278 0.959 . S
H263 C278 0.959 1_545 S
H264 C278 0.961 1_545 S
H265 C279 0.960 . S
H266 C279 0.961 . S
H267 C279 0.959 . S
H268 C282 0.929 . S
H269 C283 0.931 . S
H270 C285 0.930 . S
C271 H259 0.930 . S
C271 C272 1.399 . S
C271 C276 1.399 . S
C272 C271 1.399 . S
C272 C273 1.376 . S
C273 H260 0.930 . S
C273 C272 1.376 . S
C273 C274 1.388 . S
C274 H261 0.930 . S
C274 C273 1.388 . S
C274 C275 1.390 . S
C275 C274 1.390 . S
C275 C276 1.394 . S
C275 C281 1.465 . S
C276 C271 1.399 . S
C276 C275 1.394 . S
C276 C277 1.516 . S
C277 C276 1.516 . S
C277 C278 1.502 . S
C277 C279 1.561 1_565 S
C277 C280 1.526 . S
C278 H262 0.959 . S
C278 H263 0.959 1_565 S
C278 H264 0.961 1_565 S
C278 C277 1.502 . S
C279 H265 0.960 . S
C279 H266 0.961 . S
C279 H267 0.959 . S
C279 C277 1.561 1_545 S
C280 C277 1.526 . S
C280 C281 1.396 . S
C280 C285 1.390 . S
C281 C275 1.465 . S
C281 C280 1.396 . S
C281 C282 1.399 . S
C282 H268 0.929 . S
C282 C281 1.399 . S
C282 C283 1.385 . S
C283 H269 0.931 . S
C283 C282 1.385 . S
C283 C284 1.389 . S
C284 C283 1.389 . S
C284 C285 1.387 . S
C285 H270 0.930 . S
C285 C280 1.390 . S
C285 C284 1.387 . S
H286 C298 0.930 . S
H287 C300 0.930 . S
H288 C301 0.930 . S
H289 C305 0.959 . S
H290 C305 0.959 . S
H291 C305 0.961 . S
H292 C306 0.960 . S
H293 C306 0.961 . S
H294 C306 0.959 . S
H295 C309 0.929 . S
H296 C310 0.931 . S
H297 C312 0.928 1_565 S
C298 H286 0.930 . S
C298 C299 1.399 . S
C298 C303 1.399 . S
C299 C298 1.399 . S
C299 C300 1.376 . S
C300 H287 0.930 . S
C300 C299 1.376 . S
C300 C301 1.388 1_565 S
C301 H288 0.930 . S
C301 C300 1.388 1_545 S
C301 C302 1.390 . S
C302 C301 1.390 . S
C302 C303 1.394 1_545 S
C302 C308 1.465 1_556 S
C303 C298 1.399 . S
C303 C302 1.394 1_565 S
C303 C304 1.516 1_556 S
C304 C303 1.516 1_554 S
C304 C305 1.502 . S
C304 C306 1.561 . S
C304 C307 1.526 1_565 S
C305 H289 0.959 . S
C305 H290 0.959 . S
C305 H291 0.961 . S
C305 C304 1.502 . S
C306 H292 0.960 . S
C306 H293 0.961 . S
C306 H294 0.959 . S
C306 C304 1.561 . S
C307 C304 1.526 1_545 S
C307 C308 1.396 . S
C307 C312 1.390 . S
C308 C302 1.465 1_554 S
C308 C307 1.396 . S
C308 C309 1.399 . S
C309 H295 0.929 . S
C309 C308 1.399 . S
C309 C310 1.385 . S
C310 H296 0.931 . S
C310 C309 1.385 . S
C310 C311 1.389 . S
C311 C310 1.389 . S
C311 C312 1.387 . S
C312 H297 0.928 1_545 S
C312 C307 1.390 . S
C312 C311 1.387 . S
H313 C325 0.930 1_565 S
H314 C327 0.930 . S
H315 C328 0.930 . S
H316 C332 0.959 . S
H317 C332 0.959 . S
H318 C332 0.961 . S
H319 C333 0.960 . S
H320 C333 0.961 . S
H321 C333 0.959 . S
H322 C336 0.929 . S
H323 C337 0.931 1_545 S
H324 C339 0.930 . S
C325 H313 0.930 1_545 S
C325 C326 1.399 . S
C325 C330 1.399 1_545 S
C326 C325 1.399 . S
C326 C327 1.376 . S
C327 H314 0.930 . S
C327 C326 1.376 . S
C327 C328 1.388 . S
C328 H315 0.930 . S
C328 C327 1.388 . S
C328 C329 1.390 . S
C329 C328 1.390 . S
C329 C330 1.394 1_545 S
C329 C335 1.465 . S
C330 C325 1.399 1_565 S
C330 C329 1.394 1_565 S
C330 C331 1.516 . S
C331 C330 1.516 . S
C331 C332 1.502 1_455 S
C331 C333 1.561 . S
C331 C334 1.526 . S
C332 H316 0.959 . S
C332 H317 0.959 . S
C332 H318 0.961 . S
C332 C331 1.502 1_655 S
C333 H319 0.960 . S
C333 H320 0.961 . S
C333 H321 0.959 . S
C333 C331 1.561 . S
C334 C331 1.526 . S
C334 C335 1.396 1_565 S
C334 C339 1.390 . S
C335 C329 1.465 . S
C335 C334 1.396 1_545 S
C335 C336 1.399 . S
C336 H322 0.929 . S
C336 C335 1.399 . S
C336 C337 1.385 1_545 S
C337 H323 0.931 1_565 S
C337 C336 1.385 1_565 S
C337 C338 1.389 . S
C338 C337 1.389 . S
C338 C339 1.387 . S
C339 H324 0.930 . S
C339 C334 1.390 . S
C339 C338 1.387 . S
H340 C352 0.930 . S
H341 C354 0.930 . S
H342 C355 0.930 . S
H343 C359 0.959 . S
H344 C359 0.959 . S
H345 C359 0.961 . S
H346 C360 0.960 . S
H347 C360 0.961 . S
H348 C360 0.959 . S
H349 C363 0.929 . S
H350 C364 0.931 . S
H351 C366 0.930 . S
C352 H340 0.930 . S
C352 C353 1.399 1_455 S
C352 C357 1.399 . S
C353 C352 1.399 1_655 S
C353 C354 1.376 . S
C354 H341 0.930 . S
C354 C353 1.376 . S
C354 C355 1.388 . S
C355 H342 0.930 . S
C355 C354 1.388 . S
C355 C356 1.390 . S
C356 C355 1.390 . S
C356 C357 1.394 1_655 S
C356 C362 1.465 . S
C357 C352 1.399 . S
C357 C356 1.394 1_455 S
C357 C358 1.516 . S
C358 C357 1.516 . S
C358 C359 1.502 . S
C358 C360 1.561 1_455 S
C358 C361 1.526 . S
C359 H343 0.959 . S
C359 H344 0.959 . S
C359 H345 0.961 . S
C359 C358 1.502 . S
C360 H346 0.960 . S
C360 H347 0.961 . S
C360 H348 0.959 . S
C360 C358 1.561 1_655 S
C361 C358 1.526 . S
C361 C362 1.396 1_455 S
C361 C366 1.390 . S
C362 C356 1.465 . S
C362 C361 1.396 1_655 S
C362 C363 1.399 . S
C363 H349 0.929 . S
C363 C362 1.399 . S
C363 C364 1.385 . S
C364 H350 0.931 . S
C364 C363 1.385 . S
C364 C365 1.389 . S
C365 C364 1.389 . S
C365 C366 1.387 1_655 S
C366 H351 0.930 . S
C366 C361 1.390 . S
C366 C365 1.387 1_455 S
H367 C379 0.930 . S
H368 C381 0.930 . S
H369 C382 0.930 . S
H370 C386 0.959 . S
H371 C386 0.959 . S
H372 C386 0.961 . S
H373 C387 0.960 . S
H374 C387 0.961 . S
H375 C387 0.959 . S
H376 C390 0.929 . S
H377 C391 0.931 . S
H378 C393 0.930 . S
C379 H367 0.930 . S
C379 C380 1.399 . S
C379 C384 1.399 . S
C380 C379 1.399 . S
C380 C381 1.376 . S
C381 H368 0.930 . S
C381 C380 1.376 . S
C381 C382 1.388 . S
C382 H369 0.930 . S
C382 C381 1.388 . S
C382 C383 1.390 . S
C383 C382 1.390 . S
C383 C384 1.394 . S
C383 C389 1.465 . S
C384 C379 1.399 . S
C384 C383 1.394 . S
C384 C385 1.516 . S
C385 C384 1.516 . S
C385 C386 1.502 . S
C385 C387 1.561 . S
C385 C388 1.526 . S
C386 H370 0.959 . S
C386 H371 0.959 . S
C386 H372 0.961 . S
C386 C385 1.502 . S
C387 H373 0.960 . S
C387 H374 0.961 . S
C387 H375 0.959 . S
C387 C385 1.561 . S
C388 C385 1.526 . S
C388 C389 1.396 . S
C388 C393 1.390 . S
C389 C383 1.465 . S
C389 C388 1.396 . S
C389 C390 1.399 . S
C390 H376 0.929 . S
C390 C389 1.399 . S
C390 C391 1.385 . S
C391 H377 0.931 . S
C391 C390 1.385 . S
C391 C392 1.389 . S
C392 C391 1.389 . S
C392 C393 1.387 . S
C393 H378 0.930 . S
C393 C388 1.390 . S
C393 C392 1.387 . S
H394 C406 0.930 . S
H395 C408 0.930 . S
H396 C409 0.930 . S
H397 C413 0.959 . S
H398 C413 0.959 . S
H399 C413 0.961 . S
H400 C414 0.960 . S
H401 C414 0.961 . S
H402 C414 0.959 . S
H403 C417 0.929 . S
H404 C418 0.931 . S
H405 C420 0.930 . S
C406 H394 0.930 . S
C406 C407 1.399 . S
C406 C411 1.399 . S
C407 C406 1.399 . S
C407 C408 1.376 . S
C408 H395 0.930 . S
C408 C407 1.376 . S
C408 C409 1.388 . S
C409 H396 0.930 . S
C409 C408 1.388 . S
C409 C410 1.390 . S
C410 C409 1.390 . S
C410 C411 1.394 . S
C410 C416 1.465 . S
C411 C406 1.399 . S
C411 C410 1.394 . S
C411 C412 1.516 . S
C412 C411 1.516 . S
C412 C413 1.502 . S
C412 C414 1.561 . S
C412 C415 1.526 . S
C413 H397 0.959 . S
C413 H398 0.959 . S
C413 H399 0.961 . S
C413 C412 1.502 . S
C414 H400 0.960 . S
C414 H401 0.961 . S
C414 H402 0.959 . S
C414 C412 1.561 . S
C415 C412 1.526 . S
C415 C416 1.396 . S
C415 C420 1.390 . S
C416 C410 1.465 . S
C416 C415 1.396 . S
C416 C417 1.399 . S
C417 H403 0.929 . S
C417 C416 1.399 . S
C417 C418 1.385 . S
C418 H404 0.931 . S
C418 C417 1.385 . S
C418 C419 1.389 . S
C419 C418 1.389 . S
C419 C420 1.387 . S
C420 H405 0.930 . S
C420 C415 1.390 . S
C420 C419 1.387 . S
H421 C433 0.930 . S
H422 C435 0.930 . S
H423 C436 0.930 . S
H424 C440 0.959 . S
H425 C440 0.959 . S
H426 C440 0.961 1_455 S
H427 C441 0.960 1_455 S
H428 C441 0.961 . S
H429 C441 0.959 . S
H430 C444 0.929 . S
H431 C445 0.931 . S
H432 C447 0.930 . S
C433 H421 0.930 . S
C433 C434 1.399 . S
C433 C438 1.399 . S
C434 C433 1.399 . S
C434 C435 1.376 . S
C435 H422 0.930 . S
C435 C434 1.376 . S
C435 C436 1.388 . S
C436 H423 0.930 . S
C436 C435 1.388 . S
C436 C437 1.390 . S
C437 C436 1.390 . S
C437 C438 1.394 . S
C437 C443 1.465 1_455 S
C438 C433 1.399 . S
C438 C437 1.394 . S
C438 C439 1.516 1_455 S
C439 C438 1.516 1_655 S
C439 C440 1.502 . S
C439 C441 1.561 . S
C439 C442 1.526 . S
C440 H424 0.959 . S
C440 H425 0.959 . S
C440 H426 0.961 1_655 S
C440 C439 1.502 . S
C441 H427 0.960 1_655 S
C441 H428 0.961 . S
C441 H429 0.959 . S
C441 C439 1.561 . S
C442 C439 1.526 . S
C442 C443 1.396 . S
C442 C447 1.390 . S
C443 C437 1.465 1_655 S
C443 C442 1.396 . S
C443 C444 1.399 . S
C444 H430 0.929 . S
C444 C443 1.399 . S
C444 C445 1.385 . S
C445 H431 0.931 . S
C445 C444 1.385 . S
C445 C446 1.389 . S
C446 C445 1.389 . S
C446 C447 1.387 . S
C447 H432 0.930 . S
C447 C442 1.390 . S
C447 C446 1.387 . S
H448 C460 0.930 . S
H449 C462 0.930 . S
H450 C463 0.930 . S
H451 C467 0.959 . S
H452 C467 0.959 . S
H453 C467 0.961 . S
H454 C468 0.960 . S
H455 C468 0.961 . S
H456 C468 0.959 . S
H457 C471 0.929 . S
H458 C472 0.931 . S
H459 C474 0.930 . S
C460 H448 0.930 . S
C460 C461 1.399 1_455 S
C460 C465 1.399 . S
C461 C460 1.399 1_655 S
C461 C462 1.376 . S
C462 H449 0.930 . S
C462 C461 1.376 . S
C462 C463 1.388 . S
C463 H450 0.930 . S
C463 C462 1.388 . S
C463 C464 1.390 . S
C464 C463 1.390 . S
C464 C465 1.394 1_655 S
C464 C470 1.465 . S
C465 C460 1.399 . S
C465 C464 1.394 1_455 S
C465 C466 1.516 . S
C466 C465 1.516 . S
C466 C467 1.502 . S
C466 C468 1.561 1_455 S
C466 C469 1.526 . S
C467 H451 0.959 . S
C467 H452 0.959 . S
C467 H453 0.961 . S
C467 C466 1.502 . S
C468 H454 0.960 . S
C468 H455 0.961 . S
C468 H456 0.959 . S
C468 C466 1.561 1_655 S
C469 C466 1.526 . S
C469 C470 1.396 1_455 S
C469 C474 1.390 . S
C470 C464 1.465 . S
C470 C469 1.396 1_655 S
C470 C471 1.399 . S
C471 H457 0.929 . S
C471 C470 1.399 . S
C471 C472 1.385 . S
C472 H458 0.931 . S
C472 C471 1.385 . S
C472 C473 1.389 . S
C473 C472 1.389 . S
C473 C474 1.387 1_655 S
C474 H459 0.930 . S
C474 C469 1.390 . S
C474 C473 1.387 1_455 S
H475 C487 0.930 . S
H476 C489 0.930 . S
H477 C490 0.930 . S
H478 C494 0.959 1_455 S
H479 C494 0.959 1_455 S
H480 C494 0.961 . S
H481 C495 0.960 . S
H482 C495 0.961 1_455 S
H483 C495 0.959 1_455 S
H484 C498 0.929 . S
H485 C499 0.931 . S
H486 C501 0.930 . S
C487 H475 0.930 . S
C487 C488 1.399 . S
C487 C492 1.399 . S
C488 C487 1.399 . S
C488 C489 1.376 . S
C489 H476 0.930 . S
C489 C488 1.376 . S
C489 C490 1.388 . S
C490 H477 0.930 . S
C490 C489 1.388 . S
C490 C491 1.390 . S
C491 C490 1.390 . S
C491 C492 1.394 . S
C491 C497 1.465 1_655 S
C492 C487 1.399 . S
C492 C491 1.394 . S
C492 C493 1.516 . S
C493 C492 1.516 . S
C493 C494 1.502 . S
C493 C495 1.561 . S
C493 C496 1.526 1_655 S
C494 H478 0.959 1_655 S
C494 H479 0.959 1_655 S
C494 H480 0.961 . S
C494 C493 1.502 . S
C495 H481 0.960 . S
C495 H482 0.961 1_655 S
C495 H483 0.959 1_655 S
C495 C493 1.561 . S
C496 C493 1.526 1_455 S
C496 C497 1.396 . S
C496 C501 1.390 . S
C497 C491 1.465 1_455 S
C497 C496 1.396 . S
C497 C498 1.399 . S
C498 H484 0.929 . S
C498 C497 1.399 . S
C498 C499 1.385 . S
C499 H485 0.931 . S
C499 C498 1.385 . S
C499 C500 1.389 . S
C500 C499 1.389 . S
C500 C501 1.387 . S
C501 H486 0.930 . S
C501 C496 1.390 . S
C501 C500 1.387 . S
H502 C514 0.930 . S
H503 C516 0.930 . S
H504 C517 0.930 . S
H505 C521 0.959 . S
H506 C521 0.959 . S
H507 C521 0.961 . S
H508 C522 0.960 . S
H509 C522 0.961 . S
H510 C522 0.959 . S
H511 C525 0.929 . S
H512 C526 0.931 . S
H513 C528 0.930 . S
C514 H502 0.930 . S
C514 C515 1.399 . S
C514 C519 1.399 . S
C515 C514 1.399 . S
C515 C516 1.376 . S
C516 H503 0.930 . S
C516 C515 1.376 . S
C516 C517 1.388 . S
C517 H504 0.930 . S
C517 C516 1.388 . S
C517 C518 1.390 . S
C518 C517 1.390 . S
C518 C519 1.394 . S
C518 C524 1.465 . S
C519 C514 1.399 . S
C519 C518 1.394 . S
C519 C520 1.516 . S
C520 C519 1.516 . S
C520 C521 1.502 . S
C520 C522 1.561 . S
C520 C523 1.526 . S
C521 H505 0.959 . S
C521 H506 0.959 . S
C521 H507 0.961 . S
C521 C520 1.502 . S
C522 H508 0.960 . S
C522 H509 0.961 . S
C522 H510 0.959 . S
C522 C520 1.561 . S
C523 C520 1.526 . S
C523 C524 1.396 . S
C523 C528 1.390 . S
C524 C518 1.465 . S
C524 C523 1.396 . S
C524 C525 1.399 . S
C525 H511 0.929 . S
C525 C524 1.399 . S
C525 C526 1.385 . S
C526 H512 0.931 . S
C526 C525 1.385 . S
C526 C527 1.389 . S
C527 C526 1.389 . S
C527 C528 1.387 . S
C528 H513 0.930 . S
C528 C523 1.390 . S
C528 C527 1.387 . S
H529 C541 0.930 . S
H530 C543 0.930 . S
H531 C544 0.930 . S
H532 C548 0.959 . S
H533 C548 0.959 . S
H534 C548 0.961 . S
H535 C549 0.960 . S
H536 C549 0.961 . S
H537 C549 0.959 . S
H538 C552 0.929 . S
H539 C553 0.931 . S
H540 C555 0.930 . S
C541 H529 0.930 . S
C541 C542 1.399 . S
C541 C546 1.399 . S
C542 C541 1.399 . S
C542 C543 1.376 . S
C543 H530 0.930 . S
C543 C542 1.376 . S
C543 C544 1.388 . S
C544 H531 0.930 . S
C544 C543 1.388 . S
C544 C545 1.390 . S
C545 C544 1.390 . S
C545 C546 1.394 . S
C545 C551 1.465 . S
C546 C541 1.399 . S
C546 C545 1.394 . S
C546 C547 1.516 . S
C547 C546 1.516 . S
C547 C548 1.502 . S
C547 C549 1.561 . S
C547 C550 1.526 . S
C548 H532 0.959 . S
C548 H533 0.959 . S
C548 H534 0.961 . S
C548 C547 1.502 . S
C549 H535 0.960 . S
C549 H536 0.961 . S
C549 H537 0.959 . S
C549 C547 1.561 . S
C550 C547 1.526 . S
C550 C551 1.396 . S
C550 C555 1.390 . S
C551 C545 1.465 . S
C551 C550 1.396 . S
C551 C552 1.399 . S
C552 H538 0.929 . S
C552 C551 1.399 . S
C552 C553 1.385 . S
C553 H539 0.931 . S
C553 C552 1.385 . S
C553 C554 1.389 . S
C554 C553 1.389 . S
C554 C555 1.387 . S
C555 H540 0.930 . S
C555 C550 1.390 . S
C555 C554 1.387 . S
C137 C20 1.231 . S
C149 C51 1.200 . S
C164 C82 1.411 . S
C176 C33 1.390 . S
C191 C64 1.423 . S
C203 C122 1.461 . S
C218 C2 1.308 . S
C230 C94 1.342 . S
C245 C95 1.306 . S
C257 C1 1.329 . S
C272 C32 1.307 . S
C284 C91 1.336 . S
C299 C63 1.232 . S
C311 C113 1.201 . S
C326 C29 1.490 . S
C338 C60 1.515 . S
C353 C30 1.469 1_565 S
C365 C19 1.515 1_655 S
C380 C31 1.488 . S
C392 C41 1.511 . S
C407 C72 1.527 . S
C419 C62 1.449 1_545 S
C434 C103 1.528 . S
C446 C93 1.455 . S
C461 C61 1.468 1_545 S
C473 C50 1.512 1_655 S
C488 C81 1.502 . S
C500 C92 1.474 . S
C515 C123 1.497 . S
C527 C112 1.501 1_565 S
C542 C10 1.505 . S
C554 C0 1.495 . S
