# Generated by pormake.
# Topology zfw, (5)-cn, num edge types: 1
# Building blocks:
#     Node 0, Type 0, BuildingBlock: XOMCOT_clean_sbu_0, # of connection points: 5
#     Node 1, Type 0, BuildingBlock: XOMCOT_clean_sbu_0, # of connection points: 5
#     Node 2, Type 0, BuildingBlock: XOMCOT_clean_sbu_0, # of connection points: 5
#     Node 3, Type 0, BuildingBlock: XOMCOT_clean_sbu_0, # of connection points: 5
#     Node 4, Type 0, BuildingBlock: XOMCOT_clean_sbu_0, # of connection points: 5
#     Node 5, Type 0, BuildingBlock: XOMCOT_clean_sbu_0, # of connection points: 5
#     Node 6, Type 0, BuildingBlock: XOMCOT_clean_sbu_0, # of connection points: 5
#     Node 7, Type 0, BuildingBlock: XOMCOT_clean_sbu_0, # of connection points: 5
#     Node 8, Type 0, BuildingBlock: XOMCOT_clean_sbu_0, # of connection points: 5
#     Node 9, Type 0, BuildingBlock: XOMCOT_clean_sbu_0, # of connection points: 5
#     Node 10, Type 0, BuildingBlock: XOMCOT_clean_sbu_0, # of connection points: 5
#     Node 11, Type 0, BuildingBlock: XOMCOT_clean_sbu_0, # of connection points: 5
#     Node 12, Type 0, BuildingBlock: XOMCOT_clean_sbu_0, # of connection points: 5
#     Node 13, Type 0, BuildingBlock: XOMCOT_clean_sbu_0, # of connection points: 5
#     Node 14, Type 0, BuildingBlock: XOMCOT_clean_sbu_0, # of connection points: 5
#     Node 15, Type 0, BuildingBlock: XOMCOT_clean_sbu_0, # of connection points: 5
#     Edge 16, Type (0, 0), BuildingBlock: CIFDUS_clean_linker_0, # of connection points: 2
#     Edge 17, Type (0, 0), BuildingBlock: CIFDUS_clean_linker_0, # of connection points: 2
#     Edge 18, Type (0, 0), BuildingBlock: CIFDUS_clean_linker_0, # of connection points: 2
#     Edge 19, Type (0, 0), BuildingBlock: CIFDUS_clean_linker_0, # of connection points: 2
#     Edge 20, Type (0, 0), BuildingBlock: CIFDUS_clean_linker_0, # of connection points: 2
#     Edge 21, Type (0, 0), BuildingBlock: CIFDUS_clean_linker_0, # of connection points: 2
#     Edge 22, Type (0, 0), BuildingBlock: CIFDUS_clean_linker_0, # of connection points: 2
#     Edge 23, Type (0, 0), BuildingBlock: CIFDUS_clean_linker_0, # of connection points: 2
#     Edge 24, Type (0, 0), BuildingBlock: CIFDUS_clean_linker_0, # of connection points: 2
#     Edge 25, Type (0, 0), BuildingBlock: CIFDUS_clean_linker_0, # of connection points: 2
#     Edge 26, Type (0, 0), BuildingBlock: CIFDUS_clean_linker_0, # of connection points: 2
#     Edge 27, Type (0, 0), BuildingBlock: CIFDUS_clean_linker_0, # of connection points: 2
#     Edge 28, Type (0, 0), BuildingBlock: CIFDUS_clean_linker_0, # of connection points: 2
#     Edge 29, Type (0, 0), BuildingBlock: CIFDUS_clean_linker_0, # of connection points: 2
#     Edge 30, Type (0, 0), BuildingBlock: CIFDUS_clean_linker_0, # of connection points: 2
#     Edge 31, Type (0, 0), BuildingBlock: CIFDUS_clean_linker_0, # of connection points: 2
#     Edge 32, Type (0, 0), BuildingBlock: CIFDUS_clean_linker_0, # of connection points: 2
#     Edge 33, Type (0, 0), BuildingBlock: CIFDUS_clean_linker_0, # of connection points: 2
#     Edge 34, Type (0, 0), BuildingBlock: CIFDUS_clean_linker_0, # of connection points: 2
#     Edge 35, Type (0, 0), BuildingBlock: CIFDUS_clean_linker_0, # of connection points: 2
#     Edge 36, Type (0, 0), BuildingBlock: CIFDUS_clean_linker_0, # of connection points: 2
#     Edge 37, Type (0, 0), BuildingBlock: CIFDUS_clean_linker_0, # of connection points: 2
#     Edge 38, Type (0, 0), BuildingBlock: CIFDUS_clean_linker_0, # of connection points: 2
#     Edge 39, Type (0, 0), BuildingBlock: CIFDUS_clean_linker_0, # of connection points: 2
#     Edge 40, Type (0, 0), BuildingBlock: CIFDUS_clean_linker_0, # of connection points: 2
#     Edge 41, Type (0, 0), BuildingBlock: CIFDUS_clean_linker_0, # of connection points: 2
#     Edge 42, Type (0, 0), BuildingBlock: CIFDUS_clean_linker_0, # of connection points: 2
#     Edge 43, Type (0, 0), BuildingBlock: CIFDUS_clean_linker_0, # of connection points: 2
#     Edge 44, Type (0, 0), BuildingBlock: CIFDUS_clean_linker_0, # of connection points: 2
#     Edge 45, Type (0, 0), BuildingBlock: CIFDUS_clean_linker_0, # of connection points: 2
#     Edge 46, Type (0, 0), BuildingBlock: CIFDUS_clean_linker_0, # of connection points: 2
#     Edge 47, Type (0, 0), BuildingBlock: CIFDUS_clean_linker_0, # of connection points: 2
#     Edge 48, Type (0, 0), BuildingBlock: CIFDUS_clean_linker_0, # of connection points: 2
#     Edge 49, Type (0, 0), BuildingBlock: CIFDUS_clean_linker_0, # of connection points: 2
#     Edge 50, Type (0, 0), BuildingBlock: CIFDUS_clean_linker_0, # of connection points: 2
#     Edge 51, Type (0, 0), BuildingBlock: CIFDUS_clean_linker_0, # of connection points: 2
#     Edge 52, Type (0, 0), BuildingBlock: CIFDUS_clean_linker_0, # of connection points: 2
#     Edge 53, Type (0, 0), BuildingBlock: CIFDUS_clean_linker_0, # of connection points: 2
#     Edge 54, Type (0, 0), BuildingBlock: CIFDUS_clean_linker_0, # of connection points: 2
#     Edge 55, Type (0, 0), BuildingBlock: CIFDUS_clean_linker_0, # of connection points: 2
# Relax obj value: 0.257
# Max RMSD: 0.219
# Mean RMSD: 0.203
data_MOF--net-zfw--node1-XOMCOT_clean_sbu_0--edge1-CIFDUS_clean_linker_0
_symmetry_space_group_name_H-M    P1
_symmetry_Int_Tables_number       1
_symmetry_cell_setting            triclinic
loop_
_symmetry_equiv_pos_as_xyz
'x, y, z'
_cell_length_a     60.870828
_cell_length_b     60.252187
_cell_length_c     15.287186
_cell_angle_alpha  90.071697
_cell_angle_beta   89.926432
_cell_angle_gamma 89.9478
loop_
_atom_site_label
_atom_site_type_symbol
_atom_site_fract_x
_atom_site_fract_y
_atom_site_fract_z
_atom_type_partial_charge
Co0 Co 0.09536 0.08987 0.31959 0.0
C1 C 0.10595 0.08231 0.50797 0.0
C2 C 0.09223 0.05324 0.44899 0.0
C3 C 0.09459 0.04948 0.53722 0.0
N4 N 0.099 0.07401 0.43035 0.0
N5 N 0.10291 0.06791 0.57468 0.0
H6 H 0.11175 0.09911 0.51667 0.0
H7 H 0.08492 0.04179 0.40345 0.0
C8 C 0.07739 0.04737 0.23405 0.0
O9 O 0.05822 0.04915 0.27272 0.0
N10 N 0.09253 0.10503 0.20868 0.0
C11 C 0.08353 0.12499 0.19178 0.0
C12 C 0.08427 0.12853 0.10259 0.0
C13 C 0.09906 0.09701 0.13054 0.0
N14 N 0.09396 0.11082 0.06409 0.0
C15 C 0.05832 0.10085 0.4236 0.0
C16 C 0.02654 0.10142 0.29546 0.0
C17 C 0.02107 0.10939 0.3795 0.0
C18 C 0.03742 0.10859 0.44373 0.0
C19 C 0.048 0.09376 0.27776 0.0
N20 N 0.0637 0.09337 0.34194 0.0
H21 H 0.07065 0.10282 0.47309 0.0
H22 H 0.05213 0.08893 0.2116 0.0
H23 H 0.0764 0.13587 0.24048 0.0
H24 H 0.10746 0.08132 0.1227 0.0
O25 O 0.10384 0.11746 0.37289 0.0
O26 O 0.12717 0.09369 0.31205 0.0
O27 O 0.09308 0.06066 0.25294 0.0
C28 C 0.1239 0.11268 0.35109 0.0
H29 H 0.0891 0.03482 0.57172 0.0
H30 H 0.07754 0.14276 0.06882 0.0
H31 H 0.01464 0.10175 0.24295 0.0
H32 H 0.03478 0.11547 0.50833 0.0
Co33 Co 0.23424 0.78548 0.50848 0.0
C34 C 0.24065 0.78826 0.70017 0.0
C35 C 0.27145 0.79067 0.63372 0.0
C36 C 0.27512 0.79257 0.72256 0.0
N37 N 0.24981 0.78721 0.61976 0.0
N38 N 0.25566 0.79085 0.76402 0.0
H39 H 0.22321 0.78865 0.71229 0.0
H40 H 0.28376 0.79247 0.5833 0.0
C41 C 0.27672 0.76266 0.45478 0.0
O42 O 0.27504 0.74916 0.52193 0.0
N43 N 0.21902 0.78437 0.39818 0.0
C44 C 0.19797 0.77873 0.38366 0.0
C45 C 0.19442 0.77851 0.29458 0.0
C46 C 0.22793 0.7877 0.31859 0.0
N47 N 0.21335 0.78404 0.25368 0.0
C48 C 0.21328 0.74983 0.59856 0.0
C49 C 0.22267 0.7161 0.48246 0.0
C50 C 0.2096 0.7113 0.5562 0.0
C51 C 0.20499 0.72871 0.61403 0.0
C52 C 0.23062 0.73778 0.46909 0.0
N53 N 0.22652 0.75427 0.52863 0.0
H54 H 0.20765 0.76286 0.64066 0.0
H55 H 0.23947 0.74138 0.4095 0.0
H56 H 0.18621 0.77453 0.4341 0.0
H57 H 0.24498 0.79193 0.30843 0.0
O58 O 0.20871 0.79851 0.5625 0.0
O59 O 0.23536 0.81787 0.50042 0.0
O60 O 0.26247 0.77798 0.44354 0.0
C61 C 0.21675 0.81778 0.54297 0.0
H62 H 0.29085 0.79518 0.75388 0.0
H63 H 0.1791 0.77432 0.2628 0.0
H64 H 0.22634 0.70341 0.43443 0.0
H65 H 0.19393 0.72652 0.66885 0.0
Co66 Co 0.5513 0.90447 0.69891 0.0
C67 C 0.55863 0.91038 0.88464 0.0
C68 C 0.54113 0.93834 0.83312 0.0
C69 C 0.54252 0.94062 0.92276 0.0
N70 N 0.55125 0.91932 0.8099 0.0
N71 N 0.55364 0.92301 0.95427 0.0
H72 H 0.56594 0.89407 0.88911 0.0
H73 H 0.53231 0.94918 0.78938 0.0
C74 C 0.54605 0.94795 0.60928 0.0
O75 O 0.52497 0.94586 0.62555 0.0
N76 N 0.55122 0.88956 0.58756 0.0
C77 C 0.56062 0.87017 0.56388 0.0
C78 C 0.55811 0.86749 0.47494 0.0
C79 C 0.54249 0.8979 0.51398 0.0
N80 N 0.5467 0.88499 0.44429 0.0
C81 C 0.58658 0.87609 0.75023 0.0
C82 C 0.62101 0.90529 0.72706 0.0
C83 C 0.62517 0.88437 0.76376 0.0
C84 C 0.60765 0.86972 0.77435 0.0
C85 C 0.59933 0.91129 0.70507 0.0
N86 N 0.58233 0.89669 0.71673 0.0
H87 H 0.57363 0.86423 0.76043 0.0
H88 H 0.59644 0.92781 0.6806 0.0
H89 H 0.56922 0.85896 0.60677 0.0
H90 H 0.53416 0.91369 0.51024 0.0
O91 O 0.53834 0.87862 0.75251 0.0
O92 O 0.519 0.9059 0.69534 0.0
O93 O 0.55942 0.93311 0.6368 0.0
C94 C 0.51925 0.88673 0.73447 0.0
H95 H 0.5352 0.95365 0.96196 0.0
H96 H 0.56476 0.85415 0.43544 0.0
H97 H 0.63425 0.91704 0.71757 0.0
H98 H 0.61022 0.85326 0.801 0.0
Co99 Co 0.41386 0.23981 0.99883 0.0
C100 C 0.40729 0.23933 0.1911 0.0
C101 C 0.37954 0.2259 0.12367 0.0
C102 C 0.37579 0.22427 0.21243 0.0
N103 N 0.39905 0.23598 0.11029 0.0
N104 N 0.3934 0.23263 0.25427 0.0
H105 H 0.42337 0.2458 0.20469 0.0
H106 H 0.369 0.21957 0.07252 0.0
C107 C 0.36776 0.25684 0.96084 0.0
O108 O 0.36746 0.26761 0.03564 0.0
N109 N 0.42838 0.24297 0.88777 0.0
C110 C 0.44851 0.25127 0.87163 0.0
C111 C 0.45203 0.25092 0.78244 0.0
C112 C 0.41998 0.2376 0.80921 0.0
N113 N 0.43398 0.24243 0.74358 0.0
C114 C 0.43575 0.27564 0.08354 0.0
C115 C 0.4186 0.31039 0.98852 0.0
C116 C 0.43428 0.31494 0.0537 0.0
C117 C 0.44273 0.2971 0.10116 0.0
C118 C 0.41161 0.28836 0.97404 0.0
N119 N 0.41978 0.27126 0.02323 0.0
H120 H 0.44444 0.26251 0.11588 0.0
H121 H 0.40049 0.2851 0.92066 0.0
H122 H 0.45969 0.25737 0.92103 0.0
H123 H 0.40401 0.23009 0.80031 0.0
O124 O 0.44036 0.22778 0.04813 0.0
O125 O 0.4146 0.20744 0.98593 0.0
O126 O 0.38484 0.24588 0.93797 0.0
C127 C 0.4335 0.20824 0.02595 0.0
H128 H 0.36166 0.21679 0.24371 0.0
H129 H 0.4665 0.25691 0.74873 0.0
H130 H 0.4122 0.3236 0.9479 0.0
H131 H 0.45579 0.29947 0.14837 0.0
Co132 Co 0.09856 0.92359 0.75076 0.0
C133 C 0.1082 0.93172 0.56212 0.0
C134 C 0.09515 0.96094 0.62241 0.0
C135 C 0.09751 0.96482 0.53415 0.0
N136 N 0.10121 0.93987 0.64006 0.0
N137 N 0.10538 0.94627 0.49579 0.0
H138 H 0.11391 0.91491 0.55306 0.0
H139 H 0.08886 0.97278 0.66885 0.0
C140 C 0.07418 0.9634 0.82538 0.0
O141 O 0.05763 0.95973 0.77232 0.0
N142 N 0.09724 0.90809 0.86151 0.0
C143 C 0.09111 0.88706 0.87822 0.0
C144 C 0.09225 0.88362 0.96742 0.0
C145 C 0.10263 0.91687 0.9397 0.0
N146 N 0.09942 0.90248 0.00616 0.0
C147 C 0.06157 0.91132 0.64399 0.0
C148 C 0.03196 0.90336 0.77669 0.0
C149 C 0.02627 0.89705 0.69083 0.0
C150 C 0.0411 0.90247 0.62405 0.0
C151 C 0.0524 0.91343 0.79344 0.0
N152 N 0.06738 0.91672 0.72767 0.0
H153 H 0.073 0.91246 0.59105 0.0
H154 H 0.05643 0.91776 0.86013 0.0
H155 H 0.08567 0.87528 0.82939 0.0
H156 H 0.10894 0.93351 0.94736 0.0
O157 O 0.11039 0.89727 0.69738 0.0
O158 O 0.13051 0.92349 0.76052 0.0
O159 O 0.09186 0.95204 0.81798 0.0
C160 C 0.12966 0.90437 0.72037 0.0
H161 H 0.09262 0.97982 0.50057 0.0
H162 H 0.08757 0.86854 0.00086 0.0
H163 H 0.02128 0.89973 0.8314 0.0
H164 H 0.03751 0.89905 0.55609 0.0
Co165 Co 0.40646 0.77896 0.97508 0.0
C166 C 0.39582 0.79043 0.79375 0.0
C167 C 0.37627 0.7632 0.83788 0.0
C168 C 0.37458 0.76456 0.74834 0.0
N169 N 0.39033 0.77897 0.86593 0.0
N170 N 0.38743 0.78138 0.7209 0.0
H171 H 0.40748 0.80382 0.79234 0.0
H172 H 0.37003 0.74977 0.87708 0.0
C173 C 0.36477 0.75972 0.06302 0.0
O174 O 0.36801 0.73958 0.03318 0.0
N175 N 0.42177 0.77949 0.08415 0.0
C176 C 0.44091 0.76991 0.10752 0.0
C177 C 0.44195 0.76978 0.19788 0.0
C178 C 0.41219 0.78608 0.15839 0.0
N179 N 0.42359 0.77963 0.22854 0.0
C180 C 0.42121 0.74071 0.88449 0.0
C181 C 0.42213 0.71139 0.02284 0.0
C182 C 0.43198 0.70499 0.94325 0.0
C183 C 0.43085 0.71992 0.87319 0.0
C184 C 0.41268 0.73257 0.0316 0.0
N185 N 0.4123 0.74706 0.96273 0.0
H186 H 0.42234 0.75239 0.83116 0.0
H187 H 0.40669 0.73768 0.09514 0.0
H188 H 0.45208 0.76167 0.06296 0.0
H189 H 0.39614 0.79378 0.16175 0.0
O190 O 0.43294 0.78861 0.91753 0.0
O191 O 0.4081 0.81141 0.97346 0.0
O192 O 0.37749 0.77573 0.04135 0.0
C193 C 0.42699 0.80889 0.93406 0.0
H194 H 0.36682 0.75239 0.70642 0.0
H195 H 0.45403 0.76127 0.23753 0.0
H196 H 0.4225 0.70054 0.07918 0.0
H197 H 0.43878 0.71637 0.81131 0.0
Co198 Co 0.55119 0.09365 0.18916 0.0
C199 C 0.53933 0.08735 0.00109 0.0
C200 C 0.55127 0.05724 0.05815 0.0
C201 C 0.54828 0.05382 0.97001 0.0
N202 N 0.54596 0.0784 0.07799 0.0
N203 N 0.54108 0.07287 0.93379 0.0
H204 H 0.53476 0.10456 0.99313 0.0
H205 H 0.55809 0.04527 0.10268 0.0
C206 C 0.56473 0.04891 0.27317 0.0
O207 O 0.58437 0.04873 0.23776 0.0
N208 N 0.5556 0.10829 0.30038 0.0
C209 C 0.56653 0.12721 0.31754 0.0
C210 C 0.56599 0.13088 0.40669 0.0
C211 C 0.54815 0.10104 0.37829 0.0
N212 N 0.55447 0.11432 0.44492 0.0
C213 C 0.58839 0.10213 0.08455 0.0
C214 C 0.62065 0.09975 0.21037 0.0
C215 C 0.62615 0.10851 0.12754 0.0
C216 C 0.6095 0.1091 0.06443 0.0
C217 C 0.59888 0.09301 0.22834 0.0
N218 N 0.58292 0.09431 0.16545 0.0
H219 H 0.57601 0.10525 0.03621 0.0
H220 H 0.5947 0.08791 0.29407 0.0
H221 H 0.57475 0.13729 0.26902 0.0
H222 H 0.53818 0.08633 0.38571 0.0
O223 O 0.54506 0.12198 0.13725 0.0
O224 O 0.51983 0.10036 0.19771 0.0
O225 O 0.55091 0.06421 0.25424 0.0
C226 C 0.52468 0.11906 0.15934 0.0
H227 H 0.55268 0.03891 0.93451 0.0
H228 H 0.57403 0.14438 0.44058 0.0
H229 H 0.63273 0.09885 0.26209 0.0
H230 H 0.612 0.11662 0.00099 0.0
Co231 Co 0.22843 0.23435 0.54946 0.0
C232 C 0.23737 0.24178 0.36242 0.0
C233 C 0.25942 0.21784 0.41716 0.0
C234 C 0.26269 0.2185 0.32793 0.0
N235 N 0.24357 0.23255 0.43859 0.0
N236 N 0.24878 0.23364 0.29421 0.0
H237 H 0.22353 0.25271 0.35482 0.0
H238 H 0.26724 0.20661 0.46267 0.0
C239 C 0.27521 0.24916 0.58812 0.0
O240 O 0.27774 0.25589 0.50711 0.0
N241 N 0.21362 0.23541 0.65997 0.0
C242 C 0.196 0.24739 0.68518 0.0
C243 C 0.19392 0.24559 0.7748 0.0
C244 C 0.22164 0.22615 0.73306 0.0
N245 N 0.21007 0.23218 0.80405 0.0
C246 C 0.20231 0.26954 0.48067 0.0
C247 C 0.2254 0.30544 0.544 0.0
C248 C 0.20712 0.30919 0.4898 0.0
C249 C 0.19544 0.29081 0.45971 0.0
C250 C 0.23201 0.2835 0.56301 0.0
N251 N 0.22087 0.26573 0.52885 0.0
H252 H 0.19257 0.25611 0.4555 0.0
H253 H 0.24577 0.2811 0.60615 0.0
H254 H 0.18603 0.25757 0.64272 0.0
H255 H 0.23667 0.21653 0.73503 0.0
O256 O 0.20301 0.22118 0.49587 0.0
O257 O 0.22941 0.20176 0.55754 0.0
O258 O 0.25676 0.24147 0.61427 0.0
C259 C 0.21084 0.20186 0.5152 0.0
H260 H 0.27363 0.20798 0.29044 0.0
H261 H 0.18211 0.25417 0.81566 0.0
H262 H 0.23453 0.31925 0.571 0.0
H263 H 0.1807 0.29278 0.42084 0.0
Co264 Co 0.91558 0.28177 0.51701 0.0
C265 C 0.90864 0.28238 0.32489 0.0
C266 C 0.87993 0.29312 0.39384 0.0
C267 C 0.87605 0.29497 0.3052 0.0
N268 N 0.90024 0.28472 0.40615 0.0
N269 N 0.89423 0.28828 0.26212 0.0
H270 H 0.92518 0.27722 0.31113 0.0
H271 H 0.86894 0.29831 0.44561 0.0
C272 C 0.87126 0.26128 0.56089 0.0
O273 O 0.8718 0.24977 0.48783 0.0
N274 N 0.9304 0.27945 0.62754 0.0
C275 C 0.95052 0.27123 0.64439 0.0
C276 C 0.95385 0.27188 0.73368 0.0
C277 C 0.92185 0.28509 0.70568 0.0
N278 N 0.93572 0.28049 0.77194 0.0
C279 C 0.93919 0.24755 0.42944 0.0
C280 C 0.92253 0.21085 0.51373 0.0
C281 C 0.93759 0.20773 0.44473 0.0
C282 C 0.9462 0.2266 0.40457 0.0
C283 C 0.91575 0.23256 0.53676 0.0
N284 N 0.92321 0.25064 0.49117 0.0
H285 H 0.94744 0.26128 0.39936 0.0
H286 H 0.90494 0.23468 0.59214 0.0
H287 H 0.96176 0.26487 0.59556 0.0
H288 H 0.90575 0.29244 0.71373 0.0
O289 O 0.94123 0.29503 0.46607 0.0
O290 O 0.9149 0.31432 0.52942 0.0
O291 O 0.88711 0.27428 0.58012 0.0
C292 C 0.93358 0.31429 0.48742 0.0
H293 H 0.86134 0.30155 0.27509 0.0
H294 H 0.96824 0.26588 0.76782 0.0
H295 H 0.91614 0.19677 0.54952 0.0
H296 H 0.95896 0.22535 0.35533 0.0
Co297 Co 0.74236 0.73016 0.96089 0.0
C298 C 0.74692 0.72269 0.7724 0.0
C299 C 0.77869 0.72706 0.82894 0.0
C300 C 0.78125 0.72257 0.74088 0.0
N301 N 0.75699 0.72781 0.84812 0.0
N302 N 0.76113 0.71957 0.70667 0.0
H303 H 0.72934 0.72148 0.76419 0.0
H304 H 0.79196 0.72877 0.8751 0.0
C305 C 0.78476 0.75209 0.0179 0.0
O306 O 0.78223 0.76725 0.95701 0.0
N307 N 0.72831 0.73125 0.07291 0.0
C308 C 0.70866 0.73975 0.0965 0.0
C309 C 0.70749 0.73975 0.18692 0.0
C310 C 0.7384 0.72562 0.14741 0.0
N311 N 0.72634 0.73096 0.21745 0.0
C312 C 0.72676 0.76815 0.86746 0.0
C313 C 0.72864 0.7982 0.00362 0.0
C314 C 0.71799 0.8044 0.92585 0.0
C315 C 0.71782 0.78923 0.85657 0.0
C316 C 0.73788 0.7769 0.01127 0.0
N317 N 0.73649 0.76191 0.94403 0.0
H318 H 0.72416 0.75641 0.81583 0.0
H319 H 0.74505 0.77208 0.07306 0.0
H320 H 0.69678 0.74675 0.05174 0.0
H321 H 0.75482 0.71881 0.15108 0.0
O322 O 0.71546 0.71944 0.9108 0.0
O323 O 0.74135 0.69773 0.96581 0.0
O324 O 0.77144 0.73574 0.02239 0.0
C325 C 0.72232 0.69947 0.92692 0.0
H326 H 0.79657 0.72114 0.7053 0.0
H327 H 0.69462 0.74693 0.22687 0.0
H328 H 0.72903 0.80934 0.05922 0.0
H329 H 0.7092 0.79289 0.79632 0.0
Co330 Co 0.73638 0.27719 0.02147 0.0
C331 C 0.74357 0.28841 0.20976 0.0
C332 C 0.77229 0.27399 0.15187 0.0
C333 C 0.77594 0.27664 0.23999 0.0
N334 N 0.75183 0.28107 0.13258 0.0
N335 N 0.75776 0.2854 0.27673 0.0
H336 H 0.72698 0.29443 0.21805 0.0
H337 H 0.78353 0.2662 0.10696 0.0
C338 C 0.77898 0.25919 0.93722 0.0
O339 O 0.77675 0.23948 0.97227 0.0
N340 N 0.72162 0.27404 0.91033 0.0
C341 C 0.70195 0.2648 0.89334 0.0
C342 C 0.69838 0.26565 0.80425 0.0
C343 C 0.72947 0.2808 0.83239 0.0
N344 N 0.71578 0.27566 0.76592 0.0
C345 C 0.72488 0.24031 0.12565 0.0
C346 C 0.7256 0.20738 0.00064 0.0
C347 C 0.71704 0.20226 0.08418 0.0
C348 C 0.71701 0.21936 0.14648 0.0
C349 C 0.73294 0.22907 0.98166 0.0
N350 N 0.73294 0.24527 0.04464 0.0
H351 H 0.72253 0.25307 0.17383 0.0
H352 H 0.73795 0.23293 0.91551 0.0
H353 H 0.69124 0.25751 0.94195 0.0
H354 H 0.7449 0.28944 0.82484 0.0
O355 O 0.70889 0.2857 0.07368 0.0
O356 O 0.73229 0.30938 0.01378 0.0
O357 O 0.76567 0.27498 0.95633 0.0
C358 C 0.71342 0.30599 0.05216 0.0
H359 H 0.79033 0.27098 0.27505 0.0
H360 H 0.68432 0.25882 0.77046 0.0
H361 H 0.72606 0.19507 0.94915 0.0
H362 H 0.70955 0.21736 0.21017 0.0
Co363 Co 0.91087 0.73473 0.51076 0.0
C364 C 0.90252 0.72638 0.69995 0.0
C365 C 0.87527 0.74285 0.63987 0.0
C366 C 0.87134 0.74134 0.72835 0.0
N367 N 0.89499 0.7337 0.62183 0.0
N368 N 0.88862 0.7312 0.76637 0.0
H369 H 0.9184 0.71874 0.70899 0.0
H370 H 0.86483 0.75121 0.59357 0.0
C371 C 0.86977 0.7524 0.419 0.0
O372 O 0.87295 0.77253 0.44914 0.0
N373 N 0.92617 0.73482 0.39951 0.0
C374 C 0.94676 0.74175 0.38218 0.0
C375 C 0.95023 0.74041 0.29313 0.0
C376 C 0.91767 0.72882 0.32163 0.0
N377 N 0.93182 0.73242 0.25512 0.0
C378 C 0.92093 0.77482 0.6023 0.0
C379 C 0.92817 0.80109 0.4576 0.0
C380 C 0.93586 0.80833 0.53936 0.0
C381 C 0.93107 0.79539 0.61264 0.0
C382 C 0.91759 0.78048 0.45021 0.0
N383 N 0.91481 0.76706 0.52171 0.0
H384 H 0.92024 0.76436 0.6591 0.0
H385 H 0.913 0.77476 0.38575 0.0
H386 H 0.95809 0.7482 0.43035 0.0
H387 H 0.90135 0.7221 0.31368 0.0
O388 O 0.93794 0.72714 0.56717 0.0
O389 O 0.91442 0.70246 0.51412 0.0
O390 O 0.88193 0.73626 0.44403 0.0
C391 C 0.93332 0.70651 0.55127 0.0
H392 H 0.85744 0.7485 0.76242 0.0
H393 H 0.96485 0.74581 0.25895 0.0
H394 H 0.93144 0.81064 0.39906 0.0
H395 H 0.93708 0.80001 0.6768 0.0
Co396 Co 0.59818 0.59971 0.72766 0.0
C397 C 0.59776 0.5919 0.91936 0.0
C398 C 0.61593 0.56686 0.8511 0.0
C399 C 0.61795 0.56314 0.93977 0.0
N400 N 0.60292 0.5847 0.8383 0.0
N401 N 0.60661 0.57907 0.98234 0.0
H402 H 0.58839 0.60662 0.93312 0.0
H403 H 0.62403 0.55766 0.79951 0.0
C404 C 0.58291 0.55233 0.69105 0.0
O405 O 0.5759 0.54986 0.77173 0.0
N406 N 0.59412 0.61436 0.61722 0.0
C407 C 0.58435 0.63396 0.60104 0.0
C408 C 0.58417 0.63729 0.51179 0.0
C409 C 0.59994 0.60615 0.53863 0.0
N410 N 0.59392 0.61971 0.47266 0.0
C411 C 0.56376 0.62349 0.81286 0.0
C412 C 0.52813 0.60333 0.73524 0.0
C413 C 0.52443 0.62068 0.79525 0.0
C414 C 0.54273 0.6307 0.83359 0.0
C415 C 0.54978 0.59633 0.71675 0.0
N416 N 0.56737 0.60608 0.75724 0.0
H417 H 0.57719 0.63262 0.84097 0.0
H418 H 0.55221 0.58375 0.6675 0.0
H419 H 0.57753 0.64487 0.6503 0.0
H420 H 0.60846 0.59053 0.53029 0.0
O421 O 0.61105 0.62633 0.77513 0.0
O422 O 0.63002 0.59989 0.70886 0.0
O423 O 0.59117 0.57074 0.66604 0.0
C424 C 0.6299 0.61902 0.74861 0.0
H425 H 0.62783 0.5504 0.97045 0.0
H426 H 0.5769 0.65131 0.47846 0.0
H427 H 0.5145 0.59546 0.70201 0.0
H428 H 0.54096 0.64484 0.87692 0.0
Co429 Co 0.05142 0.42416 0.29032 0.0
C430 C 0.04301 0.43209 0.47977 0.0
C431 C 0.05777 0.46048 0.41979 0.0
C432 C 0.05605 0.46433 0.50825 0.0
N433 N 0.04986 0.44008 0.40164 0.0
N434 N 0.04699 0.44634 0.54622 0.0
H435 H 0.03628 0.41568 0.48872 0.0
H436 H 0.06524 0.47162 0.37361 0.0
C437 C 0.06978 0.46612 0.20282 0.0
O438 O 0.08923 0.4636 0.2383 0.0
N439 N 0.05225 0.40875 0.17931 0.0
C440 C 0.05994 0.38824 0.16216 0.0
C441 C 0.05881 0.38466 0.07313 0.0
C442 C 0.04609 0.41713 0.10145 0.0
N443 N 0.05022 0.40294 0.03501 0.0
C444 C 0.09004 0.41226 0.38414 0.0
C445 C 0.11868 0.40999 0.2445 0.0
C446 C 0.12547 0.40138 0.32567 0.0
C447 C 0.11092 0.40329 0.39631 0.0
C448 C 0.09744 0.41881 0.23493 0.0
N449 N 0.08321 0.41977 0.30434 0.0
H450 H 0.07878 0.41125 0.4382 0.0
H451 H 0.09218 0.42399 0.17059 0.0
H452 H 0.06665 0.37704 0.2105 0.0
H453 H 0.03885 0.43339 0.09363 0.0
O454 O 0.04285 0.39684 0.3455 0.0
O455 O 0.01944 0.42129 0.29008 0.0
O456 O 0.0538 0.45334 0.22355 0.0
C457 C 0.02266 0.40216 0.3279 0.0
H458 H 0.06226 0.47877 0.54229 0.0
H459 H 0.06472 0.37008 0.03908 0.0
H460 H 0.12927 0.40906 0.18769 0.0
H461 H 0.11479 0.39627 0.45958 0.0
Co462 Co 0.59831 0.41979 0.2429 0.0
C463 C 0.60067 0.42634 0.05099 0.0
C464 C 0.60898 0.4562 0.11857 0.0
C465 C 0.61108 0.45986 0.0298 0.0
N466 N 0.60165 0.43533 0.13184 0.0
N467 N 0.60567 0.441 0.98754 0.0
H468 H 0.59813 0.40896 0.0382 0.0
H469 H 0.61329 0.46783 0.16958 0.0
C470 C 0.58089 0.46549 0.29262 0.0
O471 O 0.5691 0.46627 0.22077 0.0
N472 N 0.59565 0.40455 0.35305 0.0
C473 C 0.5871 0.38433 0.36791 0.0
C474 C 0.58624 0.38098 0.45708 0.0
C475 C 0.60013 0.41309 0.43249 0.0
N476 N 0.59429 0.39919 0.4977 0.0
C477 C 0.56134 0.40116 0.15464 0.0
C478 C 0.52888 0.41482 0.2685 0.0
C479 C 0.5231 0.40119 0.19731 0.0
C480 C 0.53978 0.3946 0.13999 0.0
C481 C 0.5509 0.4214 0.28004 0.0
N482 N 0.56686 0.41492 0.22216 0.0
H483 H 0.57371 0.39363 0.11453 0.0
H484 H 0.55518 0.43074 0.33789 0.0
H485 H 0.58124 0.37316 0.31767 0.0
H486 H 0.60674 0.42953 0.44218 0.0
O487 O 0.60905 0.39295 0.18936 0.0
O488 O 0.63036 0.41806 0.25144 0.0
O489 O 0.59318 0.44875 0.3082 0.0
C490 C 0.62876 0.39926 0.20938 0.0
H491 H 0.61649 0.47508 0.99912 0.0
H492 H 0.57979 0.36637 0.48909 0.0
H493 H 0.51666 0.41981 0.31616 0.0
H494 H 0.53654 0.38307 0.08711 0.0
Co495 Co 0.05008 0.59596 0.74771 0.0
C496 C 0.04586 0.58956 0.55625 0.0
C497 C 0.04605 0.55821 0.62133 0.0
C498 C 0.04394 0.55456 0.53253 0.0
N499 N 0.04804 0.58024 0.63611 0.0
N500 N 0.04407 0.57439 0.49194 0.0
H501 H 0.04461 0.60719 0.54486 0.0
H502 H 0.0455 0.54552 0.67097 0.0
C503 C 0.07188 0.55313 0.80581 0.0
O504 O 0.08633 0.55492 0.74231 0.0
N505 N 0.0514 0.6113 0.85831 0.0
C506 C 0.0572 0.63251 0.87302 0.0
C507 C 0.05725 0.63615 0.96207 0.0
C508 C 0.04782 0.6024 0.93781 0.0
N509 N 0.05146 0.61711 0.00287 0.0
C510 C 0.08632 0.61453 0.65514 0.0
C511 C 0.11835 0.60839 0.78002 0.0
C512 C 0.12364 0.62051 0.70405 0.0
C513 C 0.10715 0.62325 0.6413 0.0
C514 C 0.09699 0.59988 0.79149 0.0
N515 N 0.08126 0.60268 0.72846 0.0
H516 H 0.07389 0.61898 0.60897 0.0
H517 H 0.09291 0.59182 0.85248 0.0
H518 H 0.06157 0.64433 0.82272 0.0
H519 H 0.04333 0.58525 0.94775 0.0
O520 O 0.03854 0.62229 0.69436 0.0
O521 O 0.01794 0.59618 0.75418 0.0
O522 O 0.05629 0.56725 0.8126 0.0
C523 C 0.01902 0.61512 0.71297 0.0
H524 H 0.04249 0.5386 0.50055 0.0
H525 H 0.06147 0.65161 0.99383 0.0
H526 H 0.13036 0.60603 0.83136 0.0
H527 H 0.1097 0.63342 0.58384 0.0
H528 H 0.17797 0.19989 0.39887 0.0
H529 H 0.21702 0.15829 0.56734 0.0
H530 H 0.19484 0.12589 0.52472 0.0
H531 H 0.16218 0.11012 0.44633 0.0
H532 H 0.12329 0.15343 0.28402 0.0
H533 H 0.14771 0.18439 0.31648 0.0
C534 C 0.18176 0.18374 0.42637 0.0
C535 C 0.19896 0.18157 0.48709 0.0
C536 C 0.16895 0.16546 0.40213 0.0
C537 C 0.20379 0.16043 0.52079 0.0
C538 C 0.19108 0.14193 0.49645 0.0
C539 C 0.15947 0.12626 0.41692 0.0
C540 C 0.14114 0.12958 0.36226 0.0
C541 C 0.17336 0.1443 0.43799 0.0
C542 C 0.13739 0.15058 0.3258 0.0
C543 C 0.15127 0.16828 0.34466 0.0
H544 H 0.19153 0.82221 0.68583 0.0
H545 H 0.21593 0.85893 0.46453 0.0
H546 H 0.19262 0.8907 0.50537 0.0
H547 H 0.16223 0.90634 0.59699 0.0
H548 H 0.13856 0.86861 0.81697 0.0
H549 H 0.16481 0.83902 0.78475 0.0
C550 C 0.19191 0.83726 0.6469 0.0
C551 C 0.20516 0.83816 0.5716 0.0
C552 C 0.1786 0.85528 0.67093 0.0
C553 C 0.20581 0.85786 0.52267 0.0
C554 C 0.19242 0.87596 0.5459 0.0
C555 C 0.16339 0.8919 0.63902 0.0
C556 C 0.14879 0.88965 0.70999 0.0
C557 C 0.17837 0.87469 0.61897 0.0
C558 C 0.14991 0.87071 0.76291 0.0
C559 C 0.16477 0.85375 0.74407 0.0
H560 H 0.48477 0.89382 0.84738 0.0
H561 H 0.51099 0.84795 0.65748 0.0
H562 H 0.48381 0.8202 0.69964 0.0
H563 H 0.45542 0.80758 0.79975 0.0
H564 H 0.42828 0.85231 0.9917 0.0
H565 H 0.45291 0.88192 0.9401 0.0
C566 C 0.484 0.87797 0.81385 0.0
C567 C 0.49961 0.87292 0.74869 0.0
C568 C 0.46852 0.86178 0.84012 0.0
C569 C 0.49892 0.85218 0.70703 0.0
C570 C 0.48353 0.83627 0.73162 0.0
C571 C 0.45475 0.82385 0.83011 0.0
C572 C 0.44028 0.82767 0.9003 0.0
C573 C 0.46873 0.84065 0.79972 0.0
C574 C 0.43937 0.84894 0.93785 0.0
C575 C 0.45347 0.86584 0.90834 0.0
H576 H 0.48164 0.11647 0.10363 0.0
H577 H 0.5324 0.16234 0.18125 0.0
H578 H 0.50853 0.19362 0.14838 0.0
H579 H 0.47421 0.20815 0.09324 0.0
H580 H 0.42303 0.16377 0.00753 0.0
H581 H 0.44605 0.13172 0.04694 0.0
C582 C 0.48724 0.13334 0.11414 0.0
C583 C 0.5087 0.13715 0.14512 0.0
C584 C 0.47349 0.15147 0.09267 0.0
C585 C 0.51598 0.15904 0.15727 0.0
C586 C 0.50235 0.17694 0.13839 0.0
C587 C 0.46795 0.19149 0.0831 0.0
C588 C 0.44691 0.18839 0.04738 0.0
C589 C 0.48124 0.17337 0.10513 0.0
C590 C 0.43921 0.16663 0.03461 0.0
C591 C 0.45236 0.14832 0.05742 0.0
H592 H 0.93744 0.8416 0.66247 0.0
H593 H 0.97142 0.81568 0.43635 0.0
H594 H 1.00194 0.84087 0.46294 0.0
H595 H 0.02049 0.867 0.5577 0.0
H596 H 0.98623 0.89583 0.77834 0.0
H597 H 0.95473 0.87191 0.74855 0.0
C598 C 0.95138 0.84177 0.61826 0.0
C599 C 0.95207 0.82675 0.54731 0.0
C600 C 0.96907 0.85634 0.63417 0.0
C601 C 0.97023 0.82723 0.49052 0.0
C602 C 0.98786 0.84146 0.50635 0.0
C603 C 1.00601 0.86889 0.5982 0.0
C604 C 1.0061 0.88357 0.67046 0.0
C605 C 0.98765 0.85571 0.57897 0.0
C606 C 0.98712 0.88458 0.72323 0.0
C607 C 0.9689 0.87101 0.7057 0.0
H608 H 0.94995 0.17211 0.5463 0.0
H609 H 0.94466 0.19345 0.27787 0.0
H610 H 0.96827 0.16304 0.23105 0.0
H611 H 0.99554 0.13474 0.26969 0.0
H612 H 0.99817 0.11059 0.53534 0.0
H613 H 0.97044 0.13754 0.57901 0.0
C614 C 0.95335 0.16969 0.4773 0.0
C615 C 0.94615 0.18559 0.41628 0.0
C616 C 0.96692 0.15193 0.4502 0.0
C617 C 0.95057 0.18192 0.32684 0.0
C618 C 0.96411 0.1645 0.29978 0.0
C619 C 0.98964 0.13472 0.33658 0.0
C620 C 0.99986 0.12114 0.39952 0.0
C621 C 0.97324 0.15003 0.3614 0.0
C622 C 0.99151 0.12148 0.48575 0.0
C623 C 0.97546 0.13685 0.51102 0.0
H624 H 0.65493 0.1292 0.24169 0.0
H625 H 0.64732 0.11269 0.96812 0.0
H626 H 0.67529 0.13961 0.92955 0.0
H627 H 0.69783 0.17169 0.9717 0.0
H628 H 0.71162 0.18224 0.24615 0.0
H629 H 0.68553 0.15357 0.28487 0.0
C630 C 0.65969 0.13082 0.17372 0.0
C631 C 0.64774 0.11968 0.10796 0.0
C632 C 0.6767 0.14569 0.15145 0.0
C633 C 0.65497 0.12196 0.02052 0.0
C634 C 0.67125 0.13727 0.99799 0.0
C635 C 0.69581 0.16752 0.04007 0.0
C636 C 0.70589 0.18055 0.10548 0.0
C637 C 0.68155 0.14998 0.06269 0.0
C638 C 0.70307 0.17392 0.19352 0.0
C639 C 0.68829 0.15715 0.21627 0.0
H640 H 0.63792 0.8695 0.92256 0.0
H641 H 0.66191 0.88157 0.66175 0.0
H642 H 0.69534 0.86036 0.69413 0.0
H643 H 0.71453 0.83343 0.789 0.0
H644 H 0.68945 0.8205 0.04809 0.0
H645 H 0.66007 0.84742 0.02511 0.0
C646 C 0.65078 0.86795 0.8737 0.0
C647 C 0.64746 0.87687 0.78969 0.0
C648 C 0.66967 0.8554 0.89237 0.0
C649 C 0.66419 0.8749 0.7269 0.0
C650 C 0.68318 0.8626 0.74523 0.0
C651 C 0.70289 0.83687 0.84107 0.0
C652 C 0.70407 0.82472 0.9198 0.0
C653 C 0.68565 0.85201 0.82656 0.0
C654 C 0.68906 0.82963 0.9871 0.0
C655 C 0.67207 0.84487 0.97362 0.0
H656 H 0.69336 0.69928 0.79482 0.0
H657 H 0.72227 0.65644 0.98874 0.0
H658 H 0.69771 0.62613 0.94314 0.0
H659 H 0.66531 0.61324 0.85631 0.0
H660 H 0.63688 0.65735 0.66578 0.0
H661 H 0.6642 0.68567 0.70052 0.0
C662 C 0.69442 0.68327 0.82698 0.0
C663 C 0.70934 0.68019 0.89606 0.0
C664 C 0.68039 0.66613 0.80037 0.0
C665 C 0.71081 0.65923 0.93574 0.0
C666 C 0.69675 0.64195 0.90971 0.0
C667 C 0.66563 0.62883 0.82093 0.0
C668 C 0.64941 0.63323 0.75767 0.0
C669 C 0.68114 0.64534 0.8431 0.0
C670 C 0.64946 0.65362 0.71371 0.0
C671 C 0.66493 0.66985 0.7341 0.0
H672 H 0.6278 0.36157 0.11484 0.0
H673 H 0.67292 0.40608 0.24304 0.0
H674 H 0.70385 0.38223 0.19916 0.0
H675 H 0.71777 0.34725 0.12904 0.0
H676 H 0.67116 0.30301 0.00798 0.0
H677 H 0.64121 0.32833 0.04315 0.0
C678 C 0.64438 0.36618 0.13333 0.0
C679 C 0.64798 0.38554 0.18276 0.0
C680 C 0.66189 0.35241 0.10845 0.0
C681 C 0.66965 0.39122 0.20536 0.0
C682 C 0.68734 0.37758 0.18013 0.0
C683 C 0.70109 0.34349 0.10924 0.0
C684 C 0.69662 0.32339 0.06541 0.0
C685 C 0.68366 0.35798 0.13208 0.0
C686 C 0.67493 0.3184 0.04154 0.0
C687 C 0.65779 0.33282 0.0619 0.0
H688 H 0.98446 0.40526 0.425 0.0
H689 H 0.02253 0.36141 0.26094 0.0
H690 H 0.9974 0.33099 0.29174 0.0
H691 H 0.96661 0.31608 0.37192 0.0
H692 H 0.92828 0.35791 0.54294 0.0
H693 H 0.95133 0.38994 0.50278 0.0
C694 C 0.98688 0.38912 0.39508 0.0
C695 C 1.0052 0.3855 0.3403 0.0
C696 C 0.97253 0.37134 0.41516 0.0
C697 C 0.0085 0.3645 0.303 0.0
C698 C 0.99419 0.3471 0.3208 0.0
C699 C 0.96315 0.33219 0.40069 0.0
C700 C 0.94589 0.33452 0.46127 0.0
C701 C 0.97648 0.3502 0.37807 0.0
C702 C 0.94153 0.35563 0.49644 0.0
C703 C 0.95475 0.37392 0.47353 0.0
H704 H 0.92927 0.66542 0.63046 0.0
H705 H 0.97559 0.70998 0.50905 0.0
H706 H 1.00573 0.68518 0.54525 0.0
H707 H 0.01939 0.65239 0.61731 0.0
H708 H 0.97487 0.60738 0.74617 0.0
H709 H 0.94359 0.6307 0.70154 0.0
C710 C 0.94595 0.66939 0.61106 0.0
C711 C 0.95027 0.68946 0.56696 0.0
C712 C 0.96352 0.65516 0.63433 0.0
C713 C 0.97193 0.69466 0.54318 0.0
C714 C 0.98918 0.68052 0.56398 0.0
C715 C 1.00287 0.64753 0.63587 0.0
C716 C 0.99952 0.62823 0.68565 0.0
C717 C 0.98523 0.66098 0.61076 0.0
C718 C 0.97793 0.62222 0.70817 0.0
C719 C 0.96006 0.63556 0.68258 0.0
H720 H 0.44348 0.33558 0.20793 0.0
H721 H 0.44861 0.34405 0.92859 0.0
H722 H 0.47403 0.37499 0.95 0.0
H723 H 0.4997 0.39485 0.04689 0.0
H724 H 0.49671 0.384 0.32559 0.0
H725 H 0.46538 0.35922 0.30591 0.0
C726 C 0.44981 0.34452 0.15175 0.0
C727 C 0.44439 0.33726 0.06667 0.0
C728 C 0.46507 0.36174 0.16455 0.0
C729 C 0.45242 0.34926 0.99468 0.0
C730 C 0.46718 0.36681 0.00695 0.0
C731 C 0.49194 0.38737 0.10352 0.0
C732 C 0.50085 0.39105 0.18756 0.0
C733 C 0.4744 0.37247 0.09139 0.0
C734 C 0.49026 0.38158 0.26027 0.0
C735 C 0.47245 0.36718 0.24892 0.0
H736 H 0.43802 0.678 0.79953 0.0
H737 H 0.45793 0.68584 0.06909 0.0
H738 H 0.48563 0.65717 0.04998 0.0
H739 H 0.50793 0.63408 0.95228 0.0
H740 H 0.49104 0.62913 0.67904 0.0
H741 H 0.45848 0.65215 0.70431 0.0
C742 C 0.44833 0.67343 0.8544 0.0
C743 C 0.44589 0.68452 0.93545 0.0
C744 C 0.46501 0.65749 0.84207 0.0
C745 C 0.45908 0.67769 0.00611 0.0
C746 C 0.4752 0.66139 0.99501 0.0
C747 C 0.497 0.63783 0.89828 0.0
C748 C 0.5022 0.63016 0.81351 0.0
C749 C 0.47886 0.65182 0.91257 0.0
C750 C 0.48751 0.63472 0.74493 0.0
C751 C 0.46899 0.64812 0.75923 0.0
H752 H 0.20044 0.6903 0.71106 0.0
H753 H 0.1936 0.68252 0.43146 0.0
H754 H 0.16965 0.65065 0.4542 0.0
H755 H 0.14639 0.62863 0.55233 0.0
H756 H 0.14898 0.6404 0.83095 0.0
H757 H 0.17897 0.6666 0.8096 0.0
C758 C 0.19375 0.68168 0.65479 0.0
C759 C 0.19861 0.6893 0.5695 0.0
C760 C 0.17902 0.66404 0.66825 0.0
C761 C 0.19036 0.67722 0.49785 0.0
C762 C 0.1764 0.65905 0.51082 0.0
C763 C 0.15347 0.63687 0.6087 0.0
C764 C 0.14492 0.63272 0.69313 0.0
C765 C 0.16993 0.65291 0.59562 0.0
C766 C 0.15506 0.64303 0.76521 0.0
C767 C 0.17211 0.6583 0.75295 0.0
H768 H 0.19444 0.32383 0.33015 0.0
H769 H 0.20056 0.34494 0.59851 0.0
H770 H 0.17851 0.37804 0.56678 0.0
H771 H 0.15284 0.39758 0.4684 0.0
H772 H 0.14401 0.37348 0.20435 0.0
H773 H 0.17209 0.34547 0.22818 0.0
C774 C 0.19124 0.33588 0.38143 0.0
C775 C 0.19883 0.33174 0.46696 0.0
C776 C 0.17785 0.35431 0.36351 0.0
C777 C 0.19495 0.34771 0.53221 0.0
C778 C 0.18213 0.36652 0.5142 0.0
C779 C 0.15712 0.38631 0.41571 0.0
C780 C 0.14586 0.38761 0.33496 0.0
C781 C 0.17271 0.36946 0.431 0.0
C782 C 0.15229 0.37321 0.26697 0.0
C783 C 0.16825 0.35691 0.28083 0.0
H784 H 0.04633 0.03033 0.1258 0.0
H785 H 0.11571 0.02762 0.1808 0.0
H786 H 0.12105 1.00153 0.05951 0.0
H787 H 0.10591 0.97954 0.93656 0.0
H788 H 0.03672 0.98438 0.87774 0.0
H789 H 0.03152 0.0096 0.00065 0.0
C790 C 0.0626 0.02386 0.11181 0.0
C791 C 0.08054 0.0307 0.16319 0.0
C792 C 0.06564 0.00937 0.04039 0.0
C793 C 0.10159 0.02255 0.1427 0.0
C794 C 0.10466 0.00766 0.07311 0.0
C795 C 0.08972 0.9862 0.9503 0.0
C796 C 0.07175 0.97998 0.89737 0.0
C797 C 0.08681 1.001 0.02116 0.0
C798 C 0.05091 0.98888 0.91654 0.0
C799 C 0.04786 1.00327 0.98734 0.0
H800 H 0.35015 0.73114 0.18743 0.0
H801 H 0.34063 0.79746 0.08911 0.0
H802 H 0.31247 0.80427 0.20074 0.0
H803 H 0.2906 0.79134 0.3272 0.0
H804 H 0.30232 0.72587 0.4315 0.0
H805 H 0.32967 0.71891 0.31778 0.0
C806 C 0.34176 0.74702 0.18999 0.0
C807 C 0.34724 0.76365 0.1291 0.0
C808 C 0.32612 0.75106 0.25622 0.0
C809 C 0.33663 0.78434 0.13479 0.0
C810 C 0.32056 0.78825 0.19877 0.0
C811 C 0.29917 0.77556 0.32523 0.0
C812 C 0.29427 0.75913 0.38801 0.0
C813 C 0.31519 0.77174 0.26007 0.0
C814 C 0.30573 0.73887 0.38456 0.0
C815 C 0.32135 0.73481 0.31914 0.0
H816 H 0.59006 0.01529 0.34164 0.0
H817 H 0.52462 0.04299 0.34981 0.0
H818 H 0.51356 0.01502 0.45581 0.0
H819 H 0.52199 0.98238 0.54497 0.0
H820 H 0.58722 0.95434 0.53922 0.0
H821 H 0.59876 0.98276 0.43448 0.0
C822 C 0.57335 0.01517 0.36627 0.0
C823 C 0.5582 0.03126 0.33666 0.0
C824 C 0.56702 0.99898 0.42822 0.0
C825 C 0.53667 0.03086 0.37046 0.0
C826 C 0.5303 0.01484 0.4315 0.0
C827 C 0.53879 0.98247 0.5213 0.0
C828 C 0.55367 0.96613 0.55031 0.0
C829 C 0.54529 0.9988 0.46071 0.0
C830 C 0.57538 0.96669 0.5186 0.0
C831 C 0.58198 0.98292 0.45826 0.0
H832 H 0.36532 0.24339 0.79094 0.0
H833 H 0.3258 0.27058 -0.00042 0.0
H834 H 0.29346 0.27004 0.90446 0.0
H835 H 0.27628 0.26177 0.76031 0.0
H836 H 0.31686 0.23666 0.55104 0.0
H837 H 0.3485 0.23544 0.64958 0.0
C838 C 0.34967 0.24921 0.8159 0.0
C839 C 0.34811 0.25701 0.90258 0.0
C840 C 0.3312 0.24912 0.76055 0.0
C841 C 0.3276 0.26459 0.93313 0.0
C842 C 0.30904 0.26424 0.87873 0.0
C843 C 0.29215 0.25628 0.73621 0.0
C844 C 0.29428 0.24944 0.64837 0.0
C845 C 0.31063 0.25658 0.79209 0.0
C846 C 0.31489 0.24233 0.6179 0.0
C847 C 0.33302 0.24174 0.67387 0.0
H848 H 0.79395 0.23091 0.81235 0.0
H849 H 0.80407 0.29648 0.91741 0.0
H850 H 0.83385 0.30283 0.81208 0.0
H851 H 0.85708 0.28962 0.68935 0.0
H852 H 0.84449 0.22521 0.57662 0.0
H853 H 0.81563 0.21859 0.68471 0.0
C854 C 0.80277 0.24654 0.81235 0.0
C855 C 0.79702 0.2631 0.87339 0.0
C856 C 0.81936 0.25033 0.74965 0.0
C857 C 0.80824 0.28346 0.87135 0.0
C858 C 0.82527 0.28708 0.8111 0.0
C859 C 0.84799 0.27415 0.68837 0.0
C860 C 0.85307 0.25789 0.6249 0.0
C861 C 0.83099 0.27063 0.74979 0.0
C862 C 0.84093 0.23805 0.62423 0.0
C863 C 0.82445 0.23421 0.68636 0.0
H864 H 0.79818 0.72218 0.14226 0.0
H865 H 0.81029 0.78852 0.04743 0.0
H866 H 0.83679 0.79461 0.16438 0.0
H867 H 0.85625 0.78152 0.29527 0.0
H868 H 0.84613 0.71462 0.38618 0.0
H869 H 0.81907 0.70842 0.26999 0.0
C870 C 0.80669 0.73793 0.14685 0.0
C871 C 0.80211 0.75487 0.08577 0.0
C872 C 0.82216 0.74132 0.21428 0.0
C873 C 0.81345 0.77513 0.0929 0.0
C874 C 0.82858 0.77869 0.1602 0.0
C875 C 0.84799 0.76563 0.29008 0.0
C876 C 0.85294 0.74867 0.35019 0.0
C877 C 0.83295 0.762 0.22165 0.0
C878 C 0.8425 0.728 0.34116 0.0
C879 C 0.82706 0.72444 0.27459 0.0
H880 H 0.57775 0.55445 0.51426 0.0
H881 H 0.58561 0.508 0.72637 0.0
H882 H 0.58618 0.4771 0.62212 0.0
H883 H 0.58501 0.46331 0.46997 0.0
H884 H 0.57443 0.5095 0.25892 0.0
H885 H 0.574 0.54039 0.36326 0.0
C886 C 0.57951 0.53754 0.53762 0.0
C887 C 0.58176 0.53355 0.62802 0.0
C888 C 0.57933 0.51981 0.47735 0.0
C889 C 0.58375 0.51153 0.6573 0.0
C890 C 0.58417 0.49386 0.59762 0.0
C891 C 0.58274 0.48015 0.44678 0.0
C892 C 0.58004 0.48411 0.35653 0.0
C893 C 0.5821 0.4978 0.50741 0.0
C894 C 0.57658 0.50599 0.32786 0.0
C895 C 0.57643 0.52367 0.38749 0.0
H896 H 0.04158 0.53906 0.92617 0.0
H897 H 0.10812 0.5278 0.83879 0.0
H898 H 0.11352 0.50072 0.95543 0.0
H899 H 0.09964 0.48047 0.08388 0.0
H900 H 0.03247 0.48965 0.16594 0.0
H901 H 0.02707 0.51736 0.05062 0.0
C902 C 0.05724 0.53062 0.93239 0.0
C903 C 0.07444 0.53558 0.87359 0.0
C904 C 0.06018 0.51478 0.99928 0.0
C905 C 0.09455 0.52432 0.88256 0.0
C906 C 0.0977 0.50886 0.94965 0.0
C907 C 0.08386 0.48867 0.07687 0.0
C908 C 0.06657 0.48327 0.13428 0.0
C909 C 0.08071 0.50407 0.00876 0.0
C910 C 0.04607 0.49362 0.12298 0.0
C911 C 0.04298 0.50943 0.05693 0.0
H912 H 0.09989 0.07101 0.98435 0.0
H913 H 0.09466 0.14131 0.93319 0.0
H914 H 0.09788 0.13427 0.77663 0.0
H915 H 0.10064 0.10813 0.65419 0.0
H916 H 0.10743 0.03802 0.70592 0.0
H917 H 0.10536 0.04517 0.8628 0.0
C918 C 0.09984 0.08493 0.93962 0.0
C919 C 0.09695 0.10673 0.97149 0.0
C920 C 0.10193 0.0808 0.84949 0.0
C921 C 0.09652 0.12435 0.91118 0.0
C922 C 0.0985 0.12035 0.82138 0.0
C923 C 0.10216 0.0944 0.69936 0.0
C924 C 0.1041 0.0725 0.66749 0.0
C925 C 0.10103 0.09862 0.78975 0.0
C926 C 0.10562 0.05499 0.72805 0.0
C927 C 0.10451 0.05907 0.81798 0.0
H928 H 0.24712 0.80437 0.16981 0.0
H929 H 0.18984 0.76349 0.12621 0.0
H930 H 0.19803 0.76222 0.97068 0.0
H931 H 0.22187 0.77158 0.84777 0.0
H932 H 0.27951 0.81179 0.88963 0.0
H933 H 0.27123 0.81359 0.0462 0.0
C934 C 0.23647 0.795 0.12684 0.0
C935 C 0.21782 0.78405 0.16074 0.0
C936 C 0.24149 0.79397 0.03718 0.0
C937 C 0.2041 0.77237 0.10274 0.0
C938 C 0.20887 0.77146 0.01352 0.0
C939 C 0.2325 0.78101 0.89075 0.0
C940 C 0.25118 0.79172 0.85666 0.0
C941 C 0.22754 0.78211 0.98018 0.0
C942 C 0.2651 0.80331 0.91403 0.0
C943 C 0.26028 0.80446 0.00348 0.0
H944 H 0.52431 0.92796 0.08362 0.0
H945 H 0.58858 0.90219 0.02266 0.0
H946 H 0.59155 0.88642 0.16949 0.0
H947 H 0.57568 0.87991 0.31451 0.0
H948 H 0.51156 0.90583 0.37653 0.0
H949 H 0.50845 0.92152 0.22936 0.0
C950 C 0.53908 0.91924 0.10336 0.0
C951 C 0.55627 0.9163 0.04338 0.0
C952 C 0.54048 0.90997 0.1871 0.0
C953 C 0.57519 0.90458 0.06844 0.0
C954 C 0.57683 0.89551 0.1519 0.0
C955 C 0.56089 0.88861 0.29493 0.0
C956 C 0.54377 0.89157 0.35517 0.0
C957 C 0.55947 0.89789 0.21134 0.0
C958 C 0.52486 0.90335 0.33043 0.0
C959 C 0.52315 0.91239 0.24681 0.0
H960 H 0.43203 0.2278 0.33739 0.0
H961 H 0.36318 0.24084 0.3791 0.0
H962 H 0.36981 0.24564 0.5354 0.0
H963 H 0.39511 0.2457 0.66087 0.0
H964 H 0.46409 0.23322 0.61865 0.0
H965 H 0.45748 0.22847 0.46194 0.0
C966 C 0.41847 0.23163 0.38092 0.0
C967 C 0.39712 0.23395 0.34698 0.0
C968 C 0.4224 0.23418 0.47077 0.0
C969 C 0.37967 0.23864 0.40408 0.0
C970 C 0.38347 0.24136 0.49347 0.0
C971 C 0.40865 0.24172 0.61749 0.0
C972 C 0.43006 0.2397 0.65133 0.0
C973 C 0.40473 0.23907 0.52764 0.0
C974 C 0.44752 0.23501 0.59403 0.0
C975 C 0.44372 0.23218 0.5046 0.0
H976 H 0.10531 0.90593 0.41593 0.0
H977 H 0.1081 0.97633 0.36361 0.0
H978 H 0.10646 0.96894 0.20706 0.0
H979 H 0.10263 0.94275 0.08588 0.0
H980 H 0.10195 0.87225 0.13801 0.0
H981 H 0.10441 0.87964 0.29421 0.0
C982 C 0.10603 0.91975 0.37093 0.0
C983 C 0.1067 0.94174 0.40279 0.0
C984 C 0.10526 0.9154 0.28062 0.0
C985 C 0.10723 0.95926 0.34193 0.0
C986 C 0.10638 0.95505 0.25203 0.0
C987 C 0.10339 0.92886 0.13058 0.0
C988 C 0.10198 0.90688 0.09885 0.0
C989 C 0.10513 0.93319 0.22069 0.0
C990 C 0.10264 0.88933 0.15953 0.0
C991 C 0.10418 0.89354 0.24927 0.0
H992 H 0.36764 0.77233 0.5688 0.0
H993 H 0.42889 0.79475 0.68042 0.0
H994 H 0.44562 0.79587 0.53716 0.0
H995 H 0.44341 0.78954 0.37879 0.0
H996 H 0.38294 0.7657 0.26752 0.0
H997 H 0.36555 0.76545 0.41124 0.0
C998 C 0.3846 0.7775 0.56148 0.0
C999 C 0.39671 0.78376 0.63513 0.0
C1000 C 0.39444 0.77752 0.47888 0.0
C1001 C 0.41878 0.79048 0.62491 0.0
C1002 C 0.42859 0.79081 0.54288 0.0
C1003 C 0.42654 0.78415 0.38696 0.0
C1004 C 0.41435 0.77788 0.31394 0.0
C1005 C 0.41665 0.78419 0.46953 0.0
C1006 C 0.39243 0.77093 0.32369 0.0
C1007 C 0.38251 0.77077 0.40552 0.0
H1008 H 0.54356 0.07564 0.52455 0.0
H1009 H 0.55721 0.14478 0.57597 0.0
H1010 H 0.55317 0.13825 0.73245 0.0
H1011 H 0.54755 0.1126 0.85502 0.0
H1012 H 0.5326 0.04384 0.80289 0.0
H1013 H 0.53507 0.05072 0.64588 0.0
C1014 C 0.54529 0.08946 0.56927 0.0
C1015 C 0.55084 0.11071 0.53746 0.0
C1016 C 0.54274 0.08566 0.65938 0.0
C1017 C 0.55333 0.12818 0.59786 0.0
C1018 C 0.55088 0.1245 0.68765 0.0
C1019 C 0.54435 0.09919 0.80962 0.0
C1020 C 0.53999 0.07766 0.84126 0.0
C1021 C 0.54581 0.10325 0.71923 0.0
C1022 C 0.53627 0.06048 0.78068 0.0
C1023 C 0.53764 0.06441 0.69078 0.0
H1024 H 0.21158 0.26259 0.9312 0.0
H1025 H 0.2248 0.19398 0.87254 0.0
H1026 H 0.23978 0.18846 0.01968 0.0
H1027 H 0.24857 0.2033 0.16534 0.0
H1028 H 0.23603 0.27222 0.22235 0.0
H1029 H 0.22151 0.27772 0.07497 0.0
C1030 C 0.21743 0.2464 0.95152 0.0
C1031 C 0.21684 0.2286 0.89253 0.0
C1032 C 0.22641 0.24357 0.03504 0.0
C1033 C 0.22501 0.20779 0.91791 0.0
C1034 C 0.23364 0.2047 0.00149 0.0
C1035 C 0.24307 0.21958 0.14472 0.0
C1036 C 0.24334 0.23734 0.20414 0.0
C1037 C 0.23453 0.22252 0.06044 0.0
C1038 C 0.23583 0.25832 0.1774 0.0
C1039 C 0.22747 0.26144 0.09351 0.0
H1040 H 0.93323 0.29224 0.17921 0.0
H1041 H 0.86378 0.28375 0.13407 0.0
H1042 H 0.87045 0.28127 0.97657 0.0
H1043 H 0.89625 0.27971 0.85286 0.0
H1044 H 0.96574 0.28744 0.89935 0.0
H1045 H 0.95884 0.29131 0.05602 0.0
C1046 C 0.91953 0.28961 0.13532 0.0
C1047 C 0.89802 0.28795 0.16887 0.0
C1048 C 0.92353 0.28785 0.0452 0.0
C1049 C 0.88046 0.28522 0.11021 0.0
C1050 C 0.88429 0.28364 0.02016 0.0
C1051 C 0.90988 0.28252 0.897 0.0
C1052 C 0.93152 0.28326 0.8642 0.0
C1053 C 0.90578 0.28473 0.98704 0.0
C1054 C 0.94898 0.28652 0.92283 0.0
C1055 C 0.94503 0.28886 0.01238 0.0
H1056 H 0.77845 0.73937 0.56658 0.0
H1057 H 0.7291 0.6927 0.64927 0.0
H1058 H 0.71278 0.6929 0.50328 0.0
H1059 H 0.71139 0.70822 0.35396 0.0
H1060 H 0.76106 0.75428 0.27058 0.0
H1061 H 0.77847 0.75285 0.4149 0.0
C1062 C 0.7645 0.72886 0.55151 0.0
C1063 C 0.75488 0.71613 0.61764 0.0
C1064 C 0.75499 0.72946 0.46826 0.0
C1065 C 0.73661 0.70272 0.59862 0.0
C1066 C 0.72721 0.70296 0.5157 0.0
C1067 C 0.72581 0.7181 0.36871 0.0
C1068 C 0.73478 0.7317 0.30415 0.0
C1069 C 0.73591 0.71673 0.45073 0.0
C1070 C 0.75384 0.74406 0.32126 0.0
C1071 C 0.76383 0.74308 0.40298 0.0
H1072 H 0.75494 0.28268 0.6859 0.0
H1073 H 0.68545 0.27601 0.63543 0.0
H1074 H 0.69222 0.27952 0.47889 0.0
H1075 H 0.718 0.28273 0.35609 0.0
H1076 H 0.78724 0.29093 0.40741 0.0
H1077 H 0.78028 0.28887 0.56437 0.0
C1078 C 0.74113 0.28239 0.64136 0.0
C1079 C 0.71966 0.27895 0.6734 0.0
C1080 C 0.7451 0.28466 0.55129 0.0
C1081 C 0.70218 0.27825 0.6133 0.0
C1082 C 0.70602 0.28041 0.5235 0.0
C1083 C 0.73156 0.28457 0.40129 0.0
C1084 C 0.75317 0.28686 0.36938 0.0
C1085 C 0.72744 0.2834 0.49169 0.0
C1086 C 0.77049 0.28883 0.42975 0.0
C1087 C 0.76652 0.28771 0.51966 0.0
H1088 H 0.89197 0.73242 0.1763 0.0
H1089 H 0.96157 0.72769 0.1241 0.0
H1090 H 0.95423 0.72618 0.96742 0.0
H1091 H 0.92829 0.72778 0.84576 0.0
H1092 H 0.8586 0.73087 0.89793 0.0
H1093 H 0.86585 0.73131 0.05478 0.0
C1094 C 0.90559 0.73063 0.1312 0.0
C1095 C 0.92736 0.73022 0.16266 0.0
C1096 C 0.90125 0.72958 0.04108 0.0
C1097 C 0.94469 0.72836 0.10217 0.0
C1098 C 0.9405 0.72738 0.01241 0.0
C1099 C 0.91458 0.72808 0.89087 0.0
C1100 C 0.89288 0.72938 0.85917 0.0
C1101 C 0.91885 0.72817 0.98112 0.0
C1102 C 0.87548 0.73019 0.91985 0.0
C1103 C 0.8796 0.73034 0.00978 0.0
H1104 H 0.59914 0.58003 0.39157 0.0
H1105 H 0.59482 0.65054 0.34379 0.0
H1106 H 0.59847 0.64404 0.18714 0.0
H1107 H 0.60301 0.61852 0.06401 0.0
H1108 H 0.6079 0.54811 0.11046 0.0
H1109 H 0.60488 0.5545 0.26813 0.0
C1110 C 0.59929 0.59405 0.34734 0.0
C1111 C 0.59663 0.61579 0.38005 0.0
C1112 C 0.60164 0.59022 0.25714 0.0
C1113 C 0.59649 0.63363 0.32084 0.0
C1114 C 0.59872 0.62995 0.23111 0.0
C1115 C 0.60313 0.60452 0.10841 0.0
C1116 C 0.60542 0.58283 0.07537 0.0
C1117 C 0.60119 0.60832 0.19859 0.0
C1118 C 0.60622 0.56496 0.13423 0.0
C1119 C 0.60433 0.56861 0.2243 0.0
H1120 H 0.04821 0.44311 0.95595 0.0
H1121 H 0.04708 0.37263 0.90412 0.0
H1122 H 0.04527 0.37992 0.74744 0.0
H1123 H 0.04559 0.40614 0.62563 0.0
H1124 H 0.04498 0.47663 0.67766 0.0
H1125 H 0.04575 0.46936 0.83447 0.0
C1126 C 0.04715 0.42927 0.91096 0.0
C1127 C 0.04786 0.40729 0.94254 0.0
C1128 C 0.0459 0.43356 0.82086 0.0
C1129 C 0.04691 0.38969 0.88213 0.0
C1130 C 0.04575 0.39385 0.79236 0.0
C1131 C 0.04516 0.42 0.67072 0.0
C1132 C 0.04534 0.44196 0.63899 0.0
C1133 C 0.04544 0.41571 0.76098 0.0
C1134 C 0.04518 0.45957 0.69961 0.0
C1135 C 0.04553 0.45543 0.78951 0.0
H1136 H 0.61842 0.43051 0.58192 0.0
H1137 H 0.5703 0.37891 0.62451 0.0
H1138 H 0.56958 0.38762 0.77965 0.0
H1139 H 0.58179 0.41023 0.90271 0.0
H1140 H 0.62963 0.46202 0.86209 0.0
H1141 H 0.63043 0.45351 0.70566 0.0
C1142 C 0.60761 0.42122 0.62457 0.0
C1143 C 0.59449 0.40396 0.59048 0.0
C1144 C 0.60698 0.42654 0.71409 0.0
C1145 C 0.58089 0.392 0.6481 0.0
C1146 C 0.58029 0.39711 0.73713 0.0
C1147 C 0.59265 0.4195 0.8601 0.0
C1148 C 0.60582 0.43659 0.89467 0.0
C1149 C 0.59323 0.41434 0.77071 0.0
C1150 C 0.61925 0.44885 0.83754 0.0
C1151 C 0.61983 0.44388 0.74809 0.0
H1152 H 0.06203 0.60928 0.40967 0.0
H1153 H 0.0246 0.54958 0.36545 0.0
H1154 H 0.02311 0.55786 0.20873 0.0
H1155 H 0.03195 0.58244 0.08588 0.0
H1156 H 0.07041 0.64162 0.13183 0.0
H1157 H 0.0711 0.63356 0.28732 0.0
C1158 C 0.05326 0.59821 0.36611 0.0
C1159 C 0.04323 0.57896 0.39946 0.0
C1160 C 0.05242 0.60311 0.27663 0.0
C1161 C 0.03251 0.56446 0.34148 0.0
C1162 C 0.03156 0.56927 0.25201 0.0
C1163 C 0.04068 0.59355 0.12923 0.0
C1164 C 0.05112 0.61268 0.09587 0.0
C1165 C 0.04144 0.58859 0.21894 0.0
C1166 C 0.06195 0.62696 0.15462 0.0
C1167 C 0.06253 0.62227 0.24393 0.0
loop_
_geom_bond_atom_site_label_1
_geom_bond_atom_site_label_2
_geom_bond_distance
_geom_bond_site_symmetry_2
_ccdc_geom_bond_type
Co0 N4 2.148 . S
Co0 N10 2.128 . S
Co0 N20 2.194 . S
Co0 O25 2.351 . S
Co0 O26 2.155 . S
Co0 O27 2.096 . S
C1 N4 1.301 . S
C1 N5 1.328 . S
C1 H6 0.930 . S
C2 C3 1.333 . S
C2 N4 1.317 . S
C2 H7 0.930 . S
C3 C2 1.333 . S
C3 N5 1.350 . S
C3 H29 0.931 . S
N4 Co0 2.148 . S
N4 C1 1.301 . S
N4 C2 1.317 . S
N5 C1 1.328 . S
N5 C3 1.350 . S
H6 C1 0.930 . S
H7 C2 0.930 . S
C8 O9 1.224 . S
C8 O27 1.247 . S
O9 C8 1.224 . S
N10 Co0 2.128 . S
N10 C11 1.355 . S
N10 C13 1.311 . S
C11 N10 1.355 . S
C11 C12 1.363 . S
C11 H23 0.929 . S
C12 C11 1.363 . S
C12 N14 1.375 . S
C12 H30 0.936 . S
C13 N10 1.311 . S
C13 N14 1.347 . S
C13 H24 0.929 . S
N14 C12 1.375 . S
N14 C13 1.347 . S
C15 C18 1.365 . S
C15 N20 1.328 . S
C15 H21 0.929 . S
C16 C17 1.362 . S
C16 C19 1.378 . S
C16 H31 0.929 . S
C17 C16 1.362 . S
C17 C18 1.366 . S
C18 C15 1.365 . S
C18 C17 1.366 . S
C18 H32 0.930 . S
C19 C16 1.378 . S
C19 N20 1.315 . S
C19 H22 0.930 . S
N20 Co0 2.194 . S
N20 C15 1.328 . S
N20 C19 1.315 . S
H21 C15 0.929 . S
H22 C19 0.930 . S
H23 C11 0.929 . S
H24 C13 0.929 . S
O25 Co0 2.351 . S
O25 C28 1.244 . S
O26 Co0 2.155 . S
O26 C28 1.240 . S
O27 Co0 2.096 . S
O27 C8 1.247 . S
C28 O25 1.244 . S
C28 O26 1.240 . S
H29 C3 0.931 . S
H30 C12 0.936 . S
H31 C16 0.929 . S
H32 C18 0.930 . S
Co33 N37 2.148 . S
Co33 N43 2.128 . S
Co33 N53 2.194 . S
Co33 O58 2.351 . S
Co33 O59 2.155 . S
Co33 O60 2.096 . S
C34 N37 1.301 . S
C34 N38 1.328 . S
C34 H39 0.930 . S
C35 C36 1.333 . S
C35 N37 1.317 . S
C35 H40 0.930 . S
C36 C35 1.333 . S
C36 N38 1.350 . S
C36 H62 0.931 . S
N37 Co33 2.148 . S
N37 C34 1.301 . S
N37 C35 1.317 . S
N38 C34 1.328 . S
N38 C36 1.350 . S
H39 C34 0.930 . S
H40 C35 0.930 . S
C41 O42 1.224 . S
C41 O60 1.247 . S
O42 C41 1.224 . S
N43 Co33 2.128 . S
N43 C44 1.355 . S
N43 C46 1.311 . S
C44 N43 1.355 . S
C44 C45 1.363 . S
C44 H56 0.929 . S
C45 C44 1.363 . S
C45 N47 1.375 . S
C45 H63 0.931 . S
C46 N43 1.311 . S
C46 N47 1.347 . S
C46 H57 0.929 . S
N47 C45 1.375 . S
N47 C46 1.347 . S
C48 C51 1.365 . S
C48 N53 1.328 . S
C48 H54 0.929 . S
C49 C50 1.362 . S
C49 C52 1.378 . S
C49 H64 0.929 . S
C50 C49 1.362 . S
C50 C51 1.366 . S
C51 C48 1.365 . S
C51 C50 1.366 . S
C51 H65 0.930 . S
C52 C49 1.378 . S
C52 N53 1.315 . S
C52 H55 0.930 . S
N53 Co33 2.194 . S
N53 C48 1.328 . S
N53 C52 1.315 . S
H54 C48 0.929 . S
H55 C52 0.930 . S
H56 C44 0.929 . S
H57 C46 0.929 . S
O58 Co33 2.351 . S
O58 C61 1.244 . S
O59 Co33 2.155 . S
O59 C61 1.240 . S
O60 Co33 2.096 . S
O60 C41 1.247 . S
C61 O58 1.244 . S
C61 O59 1.240 . S
H62 C36 0.931 . S
H63 C45 0.931 . S
H64 C49 0.929 . S
H65 C51 0.930 . S
Co66 N70 2.148 . S
Co66 N76 2.128 . S
Co66 N86 2.194 . S
Co66 O91 2.351 . S
Co66 O92 2.155 . S
Co66 O93 2.096 . S
C67 N70 1.301 1_554 S
C67 N71 1.328 . S
C67 H72 0.930 . S
C68 C69 1.333 1_556 S
C68 N70 1.317 . S
C68 H73 0.930 . S
C69 C68 1.333 1_554 S
C69 N71 1.350 . S
C69 H95 0.931 . S
N70 Co66 2.148 . S
N70 C67 1.301 1_556 S
N70 C68 1.317 . S
N71 C67 1.328 . S
N71 C69 1.350 . S
H72 C67 0.930 . S
H73 C68 0.930 . S
C74 O75 1.224 . S
C74 O93 1.247 . S
O75 C74 1.224 . S
N76 Co66 2.128 . S
N76 C77 1.355 . S
N76 C79 1.311 . S
C77 N76 1.355 . S
C77 C78 1.363 . S
C77 H89 0.929 . S
C78 C77 1.363 . S
C78 N80 1.375 . S
C78 H96 0.931 . S
C79 N76 1.311 . S
C79 N80 1.347 . S
C79 H90 0.929 . S
N80 C78 1.375 . S
N80 C79 1.347 . S
C81 C84 1.365 . S
C81 N86 1.328 . S
C81 H87 0.929 . S
C82 C83 1.362 . S
C82 C85 1.378 . S
C82 H97 0.929 . S
C83 C82 1.362 . S
C83 C84 1.366 . S
C84 C81 1.365 . S
C84 C83 1.366 . S
C84 H98 0.930 . S
C85 C82 1.378 . S
C85 N86 1.315 . S
C85 H88 0.930 . S
N86 Co66 2.194 . S
N86 C81 1.328 . S
N86 C85 1.315 . S
H87 C81 0.929 . S
H88 C85 0.930 . S
H89 C77 0.929 . S
H90 C79 0.929 . S
O91 Co66 2.351 . S
O91 C94 1.244 . S
O92 Co66 2.155 . S
O92 C94 1.240 . S
O93 Co66 2.096 . S
O93 C74 1.247 . S
C94 O91 1.244 . S
C94 O92 1.240 . S
H95 C69 0.931 . S
H96 C78 0.931 . S
H97 C82 0.929 . S
H98 C84 0.930 . S
Co99 N103 2.148 1_556 S
Co99 N109 2.128 . S
Co99 N119 2.194 1_556 S
Co99 O124 2.351 1_556 S
Co99 O125 2.155 1_556 S
Co99 O126 2.096 . S
C100 N103 1.301 . S
C100 N104 1.328 . S
C100 H105 0.930 . S
C101 C102 1.333 . S
C101 N103 1.317 . S
C101 H106 0.930 . S
C102 C101 1.333 . S
C102 N104 1.350 . S
C102 H128 0.931 . S
N103 Co99 2.148 1_554 S
N103 C100 1.301 . S
N103 C101 1.317 . S
N104 C100 1.328 . S
N104 C102 1.350 . S
H105 C100 0.930 . S
H106 C101 0.930 . S
C107 O108 1.224 . S
C107 O126 1.247 . S
O108 C107 1.224 . S
N109 Co99 2.128 . S
N109 C110 1.355 . S
N109 C112 1.311 . S
C110 N109 1.355 . S
C110 C111 1.363 . S
C110 H122 0.929 . S
C111 C110 1.363 . S
C111 N113 1.375 . S
C111 H129 0.931 . S
C112 N109 1.311 . S
C112 N113 1.347 . S
C112 H123 0.929 . S
N113 C111 1.375 . S
N113 C112 1.347 . S
C114 C117 1.365 . S
C114 N119 1.328 . S
C114 H120 0.929 . S
C115 C116 1.362 . S
C115 C118 1.377 1_554 S
C115 H130 0.929 1_554 S
C116 C115 1.362 . S
C116 C117 1.366 . S
C117 C114 1.365 . S
C117 C116 1.366 . S
C117 H131 0.930 . S
C118 C115 1.377 1_556 S
C118 N119 1.314 1_556 S
C118 H121 0.932 . S
N119 Co99 2.194 1_554 S
N119 C114 1.328 . S
N119 C118 1.314 1_554 S
H120 C114 0.929 . S
H121 C118 0.932 . S
H122 C110 0.929 . S
H123 C112 0.929 . S
O124 Co99 2.351 1_554 S
O124 C127 1.244 . S
O125 Co99 2.155 1_554 S
O125 C127 1.240 . S
O126 Co99 2.096 . S
O126 C107 1.247 . S
C127 O124 1.244 . S
C127 O125 1.240 . S
H128 C102 0.931 . S
H129 C111 0.931 . S
H130 C115 0.929 1_556 S
H131 C117 0.930 . S
Co132 N136 2.148 . S
Co132 N142 2.128 . S
Co132 N152 2.194 . S
Co132 O157 2.351 . S
Co132 O158 2.155 . S
Co132 O159 2.096 . S
C133 N136 1.301 . S
C133 N137 1.328 . S
C133 H138 0.930 . S
C134 C135 1.333 . S
C134 N136 1.317 . S
C134 H139 0.930 . S
C135 C134 1.333 . S
C135 N137 1.350 . S
C135 H161 0.931 . S
N136 Co132 2.148 . S
N136 C133 1.301 . S
N136 C134 1.317 . S
N137 C133 1.328 . S
N137 C135 1.350 . S
H138 C133 0.930 . S
H139 C134 0.930 . S
C140 O141 1.224 . S
C140 O159 1.247 . S
O141 C140 1.224 . S
N142 Co132 2.128 . S
N142 C143 1.355 . S
N142 C145 1.311 . S
C143 N142 1.355 . S
C143 C144 1.363 . S
C143 H155 0.929 . S
C144 C143 1.363 . S
C144 N146 1.375 . S
C144 H162 0.936 . S
C145 N142 1.311 . S
C145 N146 1.347 . S
C145 H156 0.929 . S
N146 C144 1.375 . S
N146 C145 1.347 . S
C147 C150 1.365 . S
C147 N152 1.328 . S
C147 H153 0.929 . S
C148 C149 1.362 . S
C148 C151 1.378 . S
C148 H163 0.929 . S
C149 C148 1.362 . S
C149 C150 1.366 . S
C150 C147 1.365 . S
C150 C149 1.366 . S
C150 H164 0.930 . S
C151 C148 1.378 . S
C151 N152 1.315 . S
C151 H154 0.930 . S
N152 Co132 2.194 . S
N152 C147 1.328 . S
N152 C151 1.315 . S
H153 C147 0.929 . S
H154 C151 0.930 . S
H155 C143 0.929 . S
H156 C145 0.929 . S
O157 Co132 2.351 . S
O157 C160 1.244 . S
O158 Co132 2.155 . S
O158 C160 1.240 . S
O159 Co132 2.096 . S
O159 C140 1.247 . S
C160 O157 1.244 . S
C160 O158 1.240 . S
H161 C135 0.931 . S
H162 C144 0.936 . S
H163 C148 0.929 . S
H164 C150 0.930 . S
Co165 N169 2.148 1_554 S
Co165 N175 2.128 . S
Co165 N185 2.194 1_554 S
Co165 O190 2.351 1_554 S
Co165 O191 2.155 1_554 S
Co165 O192 2.096 . S
C166 N169 1.301 . S
C166 N170 1.328 . S
C166 H171 0.930 . S
C167 C168 1.333 . S
C167 N169 1.317 . S
C167 H172 0.930 . S
C168 C167 1.333 . S
C168 N170 1.350 . S
C168 H194 0.931 . S
N169 Co165 2.148 1_556 S
N169 C166 1.301 . S
N169 C167 1.317 . S
N170 C166 1.328 . S
N170 C168 1.350 . S
H171 C166 0.930 . S
H172 C167 0.930 . S
C173 O174 1.224 . S
C173 O192 1.247 . S
O174 C173 1.224 . S
N175 Co165 2.128 . S
N175 C176 1.355 . S
N175 C178 1.311 . S
C176 N175 1.355 . S
C176 C177 1.363 . S
C176 H188 0.929 . S
C177 C176 1.363 . S
C177 N179 1.375 . S
C177 H195 0.931 . S
C178 N175 1.311 . S
C178 N179 1.347 . S
C178 H189 0.929 . S
N179 C177 1.375 . S
N179 C178 1.347 . S
C180 C183 1.365 . S
C180 N185 1.328 . S
C180 H186 0.929 . S
C181 C182 1.362 . S
C181 C184 1.377 1_556 S
C181 H196 0.929 1_556 S
C182 C181 1.362 . S
C182 C183 1.366 . S
C183 C180 1.365 . S
C183 C182 1.366 . S
C183 H197 0.930 . S
C184 C181 1.377 1_554 S
C184 N185 1.314 1_554 S
C184 H187 0.932 . S
N185 Co165 2.194 1_556 S
N185 C180 1.328 . S
N185 C184 1.314 1_556 S
H186 C180 0.929 . S
H187 C184 0.932 . S
H188 C176 0.929 . S
H189 C178 0.929 . S
O190 Co165 2.351 1_556 S
O190 C193 1.244 . S
O191 Co165 2.155 1_556 S
O191 C193 1.240 . S
O192 Co165 2.096 . S
O192 C173 1.247 . S
C193 O190 1.244 . S
C193 O191 1.240 . S
H194 C168 0.931 . S
H195 C177 0.931 . S
H196 C181 0.929 1_554 S
H197 C183 0.930 . S
Co198 N202 2.148 . S
Co198 N208 2.128 . S
Co198 N218 2.194 . S
Co198 O223 2.351 . S
Co198 O224 2.155 . S
Co198 O225 2.096 . S
C199 N202 1.301 1_556 S
C199 N203 1.328 . S
C199 H204 0.930 . S
C200 C201 1.333 1_554 S
C200 N202 1.317 . S
C200 H205 0.930 . S
C201 C200 1.333 1_556 S
C201 N203 1.350 . S
C201 H227 0.931 . S
N202 Co198 2.148 . S
N202 C199 1.301 1_554 S
N202 C200 1.317 . S
N203 C199 1.328 . S
N203 C201 1.350 . S
H204 C199 0.930 . S
H205 C200 0.930 . S
C206 O207 1.224 . S
C206 O225 1.247 . S
O207 C206 1.224 . S
N208 Co198 2.128 . S
N208 C209 1.355 . S
N208 C211 1.311 . S
C209 N208 1.355 . S
C209 C210 1.363 . S
C209 H221 0.929 . S
C210 C209 1.363 . S
C210 N212 1.375 . S
C210 H228 0.931 . S
C211 N208 1.311 . S
C211 N212 1.347 . S
C211 H222 0.929 . S
N212 C210 1.375 . S
N212 C211 1.347 . S
C213 C216 1.365 . S
C213 N218 1.328 . S
C213 H219 0.929 . S
C214 C215 1.362 . S
C214 C217 1.378 . S
C214 H229 0.929 . S
C215 C214 1.362 . S
C215 C216 1.366 . S
C216 C213 1.365 . S
C216 C215 1.366 . S
C216 H230 0.930 . S
C217 C214 1.378 . S
C217 N218 1.315 . S
C217 H220 0.930 . S
N218 Co198 2.194 . S
N218 C213 1.328 . S
N218 C217 1.315 . S
H219 C213 0.929 . S
H220 C217 0.930 . S
H221 C209 0.929 . S
H222 C211 0.929 . S
O223 Co198 2.351 . S
O223 C226 1.244 . S
O224 Co198 2.155 . S
O224 C226 1.240 . S
O225 Co198 2.096 . S
O225 C206 1.247 . S
C226 O223 1.244 . S
C226 O224 1.240 . S
H227 C201 0.931 . S
H228 C210 0.931 . S
H229 C214 0.929 . S
H230 C216 0.930 . S
Co231 N235 2.148 . S
Co231 N241 2.128 . S
Co231 N251 2.194 . S
Co231 O256 2.351 . S
Co231 O257 2.155 . S
Co231 O258 2.096 . S
C232 N235 1.301 . S
C232 N236 1.328 . S
C232 H237 0.930 . S
C233 C234 1.333 . S
C233 N235 1.317 . S
C233 H238 0.930 . S
C234 C233 1.333 . S
C234 N236 1.350 . S
C234 H260 0.931 . S
N235 Co231 2.148 . S
N235 C232 1.301 . S
N235 C233 1.317 . S
N236 C232 1.328 . S
N236 C234 1.350 . S
H237 C232 0.930 . S
H238 C233 0.930 . S
C239 O240 1.224 . S
C239 O258 1.247 . S
O240 C239 1.224 . S
N241 Co231 2.128 . S
N241 C242 1.355 . S
N241 C244 1.311 . S
C242 N241 1.355 . S
C242 C243 1.363 . S
C242 H254 0.929 . S
C243 C242 1.363 . S
C243 N245 1.375 . S
C243 H261 0.931 . S
C244 N241 1.311 . S
C244 N245 1.347 . S
C244 H255 0.929 . S
N245 C243 1.375 . S
N245 C244 1.347 . S
C246 C249 1.365 . S
C246 N251 1.328 . S
C246 H252 0.929 . S
C247 C248 1.362 . S
C247 C250 1.378 . S
C247 H262 0.929 . S
C248 C247 1.362 . S
C248 C249 1.366 . S
C249 C246 1.365 . S
C249 C248 1.366 . S
C249 H263 0.930 . S
C250 C247 1.378 . S
C250 N251 1.315 . S
C250 H253 0.930 . S
N251 Co231 2.194 . S
N251 C246 1.328 . S
N251 C250 1.315 . S
H252 C246 0.929 . S
H253 C250 0.930 . S
H254 C242 0.929 . S
H255 C244 0.929 . S
O256 Co231 2.351 . S
O256 C259 1.244 . S
O257 Co231 2.155 . S
O257 C259 1.240 . S
O258 Co231 2.096 . S
O258 C239 1.247 . S
C259 O256 1.244 . S
C259 O257 1.240 . S
H260 C234 0.931 . S
H261 C243 0.931 . S
H262 C247 0.929 . S
H263 C249 0.930 . S
Co264 N268 2.148 . S
Co264 N274 2.128 . S
Co264 N284 2.194 . S
Co264 O289 2.351 . S
Co264 O290 2.155 . S
Co264 O291 2.096 . S
C265 N268 1.301 . S
C265 N269 1.328 . S
C265 H270 0.930 . S
C266 C267 1.333 . S
C266 N268 1.317 . S
C266 H271 0.930 . S
C267 C266 1.333 . S
C267 N269 1.350 . S
C267 H293 0.931 . S
N268 Co264 2.148 . S
N268 C265 1.301 . S
N268 C266 1.317 . S
N269 C265 1.328 . S
N269 C267 1.350 . S
H270 C265 0.930 . S
H271 C266 0.930 . S
C272 O273 1.224 . S
C272 O291 1.247 . S
O273 C272 1.224 . S
N274 Co264 2.128 . S
N274 C275 1.355 . S
N274 C277 1.311 . S
C275 N274 1.355 . S
C275 C276 1.363 . S
C275 H287 0.929 . S
C276 C275 1.363 . S
C276 N278 1.375 . S
C276 H294 0.931 . S
C277 N274 1.311 . S
C277 N278 1.347 . S
C277 H288 0.929 . S
N278 C276 1.375 . S
N278 C277 1.347 . S
C279 C282 1.365 . S
C279 N284 1.328 . S
C279 H285 0.929 . S
C280 C281 1.362 . S
C280 C283 1.378 . S
C280 H295 0.929 . S
C281 C280 1.362 . S
C281 C282 1.366 . S
C282 C279 1.365 . S
C282 C281 1.366 . S
C282 H296 0.930 . S
C283 C280 1.378 . S
C283 N284 1.315 . S
C283 H286 0.930 . S
N284 Co264 2.194 . S
N284 C279 1.328 . S
N284 C283 1.315 . S
H285 C279 0.929 . S
H286 C283 0.930 . S
H287 C275 0.929 . S
H288 C277 0.929 . S
O289 Co264 2.351 . S
O289 C292 1.244 . S
O290 Co264 2.155 . S
O290 C292 1.240 . S
O291 Co264 2.096 . S
O291 C272 1.247 . S
C292 O289 1.244 . S
C292 O290 1.240 . S
H293 C267 0.931 . S
H294 C276 0.931 . S
H295 C280 0.929 . S
H296 C282 0.930 . S
Co297 N301 2.148 1_554 S
Co297 N307 2.128 . S
Co297 N317 2.194 1_554 S
Co297 O322 2.351 1_554 S
Co297 O323 2.155 1_554 S
Co297 O324 2.096 . S
C298 N301 1.301 . S
C298 N302 1.328 . S
C298 H303 0.930 . S
C299 C300 1.333 . S
C299 N301 1.317 . S
C299 H304 0.930 . S
C300 C299 1.333 . S
C300 N302 1.350 . S
C300 H326 0.931 . S
N301 Co297 2.148 1_556 S
N301 C298 1.301 . S
N301 C299 1.317 . S
N302 C298 1.328 . S
N302 C300 1.350 . S
H303 C298 0.930 . S
H304 C299 0.930 . S
C305 O306 1.224 . S
C305 O324 1.247 . S
O306 C305 1.224 . S
N307 Co297 2.128 . S
N307 C308 1.355 . S
N307 C310 1.311 . S
C308 N307 1.355 . S
C308 C309 1.363 . S
C308 H320 0.929 . S
C309 C308 1.363 . S
C309 N311 1.375 . S
C309 H327 0.931 . S
C310 N307 1.311 . S
C310 N311 1.347 . S
C310 H321 0.929 . S
N311 C309 1.375 . S
N311 C310 1.347 . S
C312 C315 1.365 . S
C312 N317 1.328 . S
C312 H318 0.929 . S
C313 C314 1.362 . S
C313 C316 1.377 1_556 S
C313 H328 0.929 1_556 S
C314 C313 1.362 . S
C314 C315 1.366 . S
C315 C312 1.365 . S
C315 C314 1.366 . S
C315 H329 0.930 . S
C316 C313 1.377 1_554 S
C316 N317 1.314 1_554 S
C316 H319 0.932 . S
N317 Co297 2.194 1_556 S
N317 C312 1.328 . S
N317 C316 1.314 1_556 S
H318 C312 0.929 . S
H319 C316 0.932 . S
H320 C308 0.929 . S
H321 C310 0.929 . S
O322 Co297 2.351 1_556 S
O322 C325 1.244 . S
O323 Co297 2.155 1_556 S
O323 C325 1.240 . S
O324 Co297 2.096 . S
O324 C305 1.247 . S
C325 O322 1.244 . S
C325 O323 1.240 . S
H326 C300 0.931 . S
H327 C309 0.931 . S
H328 C313 0.929 1_554 S
H329 C315 0.930 . S
Co330 N334 2.148 1_556 S
Co330 N340 2.128 . S
Co330 N350 2.194 1_556 S
Co330 O355 2.351 1_556 S
Co330 O356 2.155 1_556 S
Co330 O357 2.096 . S
C331 N334 1.301 . S
C331 N335 1.328 . S
C331 H336 0.930 . S
C332 C333 1.333 . S
C332 N334 1.317 . S
C332 H337 0.930 . S
C333 C332 1.333 . S
C333 N335 1.350 . S
C333 H359 0.931 . S
N334 Co330 2.148 1_554 S
N334 C331 1.301 . S
N334 C332 1.317 . S
N335 C331 1.328 . S
N335 C333 1.350 . S
H336 C331 0.930 . S
H337 C332 0.930 . S
C338 O339 1.224 . S
C338 O357 1.247 . S
O339 C338 1.224 . S
N340 Co330 2.128 . S
N340 C341 1.355 . S
N340 C343 1.311 . S
C341 N340 1.355 . S
C341 C342 1.363 . S
C341 H353 0.929 . S
C342 C341 1.363 . S
C342 N344 1.375 . S
C342 H360 0.931 . S
C343 N340 1.311 . S
C343 N344 1.347 . S
C343 H354 0.929 . S
N344 C342 1.375 . S
N344 C343 1.347 . S
C345 C348 1.365 . S
C345 N350 1.328 . S
C345 H351 0.929 . S
C346 C347 1.362 . S
C346 C349 1.377 1_554 S
C346 H361 0.929 1_554 S
C347 C346 1.362 . S
C347 C348 1.366 . S
C348 C345 1.365 . S
C348 C347 1.366 . S
C348 H362 0.930 . S
C349 C346 1.377 1_556 S
C349 N350 1.314 1_556 S
C349 H352 0.932 . S
N350 Co330 2.194 1_554 S
N350 C345 1.328 . S
N350 C349 1.314 1_554 S
H351 C345 0.929 . S
H352 C349 0.932 . S
H353 C341 0.929 . S
H354 C343 0.929 . S
O355 Co330 2.351 1_554 S
O355 C358 1.244 . S
O356 Co330 2.155 1_554 S
O356 C358 1.240 . S
O357 Co330 2.096 . S
O357 C338 1.247 . S
C358 O355 1.244 . S
C358 O356 1.240 . S
H359 C333 0.931 . S
H360 C342 0.931 . S
H361 C346 0.929 1_556 S
H362 C348 0.930 . S
Co363 N367 2.148 . S
Co363 N373 2.128 . S
Co363 N383 2.194 . S
Co363 O388 2.351 . S
Co363 O389 2.155 . S
Co363 O390 2.096 . S
C364 N367 1.301 . S
C364 N368 1.328 . S
C364 H369 0.930 . S
C365 C366 1.333 . S
C365 N367 1.317 . S
C365 H370 0.930 . S
C366 C365 1.333 . S
C366 N368 1.350 . S
C366 H392 0.931 . S
N367 Co363 2.148 . S
N367 C364 1.301 . S
N367 C365 1.317 . S
N368 C364 1.328 . S
N368 C366 1.350 . S
H369 C364 0.930 . S
H370 C365 0.930 . S
C371 O372 1.224 . S
C371 O390 1.247 . S
O372 C371 1.224 . S
N373 Co363 2.128 . S
N373 C374 1.355 . S
N373 C376 1.311 . S
C374 N373 1.355 . S
C374 C375 1.363 . S
C374 H386 0.929 . S
C375 C374 1.363 . S
C375 N377 1.375 . S
C375 H393 0.931 . S
C376 N373 1.311 . S
C376 N377 1.347 . S
C376 H387 0.929 . S
N377 C375 1.375 . S
N377 C376 1.347 . S
C378 C381 1.365 . S
C378 N383 1.328 . S
C378 H384 0.929 . S
C379 C380 1.362 . S
C379 C382 1.378 . S
C379 H394 0.929 . S
C380 C379 1.362 . S
C380 C381 1.366 . S
C381 C378 1.365 . S
C381 C380 1.366 . S
C381 H395 0.930 . S
C382 C379 1.378 . S
C382 N383 1.315 . S
C382 H385 0.930 . S
N383 Co363 2.194 . S
N383 C378 1.328 . S
N383 C382 1.315 . S
H384 C378 0.929 . S
H385 C382 0.930 . S
H386 C374 0.929 . S
H387 C376 0.929 . S
O388 Co363 2.351 . S
O388 C391 1.244 . S
O389 Co363 2.155 . S
O389 C391 1.240 . S
O390 Co363 2.096 . S
O390 C371 1.247 . S
C391 O388 1.244 . S
C391 O389 1.240 . S
H392 C366 0.931 . S
H393 C375 0.931 . S
H394 C379 0.929 . S
H395 C381 0.930 . S
Co396 N400 2.148 . S
Co396 N406 2.128 . S
Co396 N416 2.194 . S
Co396 O421 2.351 . S
Co396 O422 2.155 . S
Co396 O423 2.096 . S
C397 N400 1.301 1_554 S
C397 N401 1.328 . S
C397 H402 0.930 . S
C398 C399 1.333 1_556 S
C398 N400 1.317 . S
C398 H403 0.930 . S
C399 C398 1.333 1_554 S
C399 N401 1.350 . S
C399 H425 0.931 . S
N400 Co396 2.148 . S
N400 C397 1.301 1_556 S
N400 C398 1.317 . S
N401 C397 1.328 . S
N401 C399 1.350 . S
H402 C397 0.930 . S
H403 C398 0.930 . S
C404 O405 1.224 . S
C404 O423 1.247 . S
O405 C404 1.224 . S
N406 Co396 2.128 . S
N406 C407 1.355 . S
N406 C409 1.311 . S
C407 N406 1.355 . S
C407 C408 1.363 . S
C407 H419 0.929 . S
C408 C407 1.363 . S
C408 N410 1.375 . S
C408 H426 0.931 . S
C409 N406 1.311 . S
C409 N410 1.347 . S
C409 H420 0.929 . S
N410 C408 1.375 . S
N410 C409 1.347 . S
C411 C414 1.365 . S
C411 N416 1.328 . S
C411 H417 0.929 . S
C412 C413 1.362 . S
C412 C415 1.378 . S
C412 H427 0.929 . S
C413 C412 1.362 . S
C413 C414 1.366 . S
C414 C411 1.365 . S
C414 C413 1.366 . S
C414 H428 0.930 . S
C415 C412 1.378 . S
C415 N416 1.315 . S
C415 H418 0.930 . S
N416 Co396 2.194 . S
N416 C411 1.328 . S
N416 C415 1.315 . S
H417 C411 0.929 . S
H418 C415 0.930 . S
H419 C407 0.929 . S
H420 C409 0.929 . S
O421 Co396 2.351 . S
O421 C424 1.244 . S
O422 Co396 2.155 . S
O422 C424 1.240 . S
O423 Co396 2.096 . S
O423 C404 1.247 . S
C424 O421 1.244 . S
C424 O422 1.240 . S
H425 C399 0.931 . S
H426 C408 0.931 . S
H427 C412 0.929 . S
H428 C414 0.930 . S
Co429 N433 2.148 . S
Co429 N439 2.128 . S
Co429 N449 2.194 . S
Co429 O454 2.351 . S
Co429 O455 2.155 . S
Co429 O456 2.096 . S
C430 N433 1.301 . S
C430 N434 1.328 . S
C430 H435 0.930 . S
C431 C432 1.333 . S
C431 N433 1.317 . S
C431 H436 0.930 . S
C432 C431 1.333 . S
C432 N434 1.350 . S
C432 H458 0.931 . S
N433 Co429 2.148 . S
N433 C430 1.301 . S
N433 C431 1.317 . S
N434 C430 1.328 . S
N434 C432 1.350 . S
H435 C430 0.930 . S
H436 C431 0.930 . S
C437 O438 1.224 . S
C437 O456 1.247 . S
O438 C437 1.224 . S
N439 Co429 2.128 . S
N439 C440 1.355 . S
N439 C442 1.311 . S
C440 N439 1.355 . S
C440 C441 1.363 . S
C440 H452 0.929 . S
C441 C440 1.363 . S
C441 N443 1.375 . S
C441 H459 0.936 . S
C442 N439 1.311 . S
C442 N443 1.347 . S
C442 H453 0.929 . S
N443 C441 1.375 . S
N443 C442 1.347 . S
C444 C447 1.365 . S
C444 N449 1.328 . S
C444 H450 0.929 . S
C445 C446 1.362 . S
C445 C448 1.378 . S
C445 H460 0.929 . S
C446 C445 1.362 . S
C446 C447 1.366 . S
C447 C444 1.365 . S
C447 C446 1.366 . S
C447 H461 0.930 . S
C448 C445 1.378 . S
C448 N449 1.315 . S
C448 H451 0.930 . S
N449 Co429 2.194 . S
N449 C444 1.328 . S
N449 C448 1.315 . S
H450 C444 0.929 . S
H451 C448 0.930 . S
H452 C440 0.929 . S
H453 C442 0.929 . S
O454 Co429 2.351 . S
O454 C457 1.244 . S
O455 Co429 2.155 . S
O455 C457 1.240 . S
O456 Co429 2.096 . S
O456 C437 1.247 . S
C457 O454 1.244 . S
C457 O455 1.240 . S
H458 C432 0.931 . S
H459 C441 0.936 . S
H460 C445 0.929 . S
H461 C447 0.930 . S
Co462 N466 2.148 . S
Co462 N472 2.128 . S
Co462 N482 2.194 . S
Co462 O487 2.351 . S
Co462 O488 2.155 . S
Co462 O489 2.096 . S
C463 N466 1.301 1_556 S
C463 N467 1.328 . S
C463 H468 0.930 . S
C464 C465 1.333 1_554 S
C464 N466 1.317 . S
C464 H469 0.930 . S
C465 C464 1.333 1_556 S
C465 N467 1.350 . S
C465 H491 0.931 . S
N466 Co462 2.148 . S
N466 C463 1.301 1_554 S
N466 C464 1.317 . S
N467 C463 1.328 . S
N467 C465 1.350 . S
H468 C463 0.930 . S
H469 C464 0.930 . S
C470 O471 1.224 . S
C470 O489 1.247 . S
O471 C470 1.224 . S
N472 Co462 2.128 . S
N472 C473 1.355 . S
N472 C475 1.311 . S
C473 N472 1.355 . S
C473 C474 1.363 . S
C473 H485 0.929 . S
C474 C473 1.363 . S
C474 N476 1.375 . S
C474 H492 0.931 . S
C475 N472 1.311 . S
C475 N476 1.347 . S
C475 H486 0.929 . S
N476 C474 1.375 . S
N476 C475 1.347 . S
C477 C480 1.365 . S
C477 N482 1.328 . S
C477 H483 0.929 . S
C478 C479 1.362 . S
C478 C481 1.378 . S
C478 H493 0.929 . S
C479 C478 1.362 . S
C479 C480 1.366 . S
C480 C477 1.365 . S
C480 C479 1.366 . S
C480 H494 0.930 . S
C481 C478 1.378 . S
C481 N482 1.315 . S
C481 H484 0.930 . S
N482 Co462 2.194 . S
N482 C477 1.328 . S
N482 C481 1.315 . S
H483 C477 0.929 . S
H484 C481 0.930 . S
H485 C473 0.929 . S
H486 C475 0.929 . S
O487 Co462 2.351 . S
O487 C490 1.244 . S
O488 Co462 2.155 . S
O488 C490 1.240 . S
O489 Co462 2.096 . S
O489 C470 1.247 . S
C490 O487 1.244 . S
C490 O488 1.240 . S
H491 C465 0.931 . S
H492 C474 0.931 . S
H493 C478 0.929 . S
H494 C480 0.930 . S
Co495 N499 2.148 . S
Co495 N505 2.128 . S
Co495 N515 2.194 . S
Co495 O520 2.351 . S
Co495 O521 2.155 . S
Co495 O522 2.096 . S
C496 N499 1.301 . S
C496 N500 1.328 . S
C496 H501 0.930 . S
C497 C498 1.333 . S
C497 N499 1.317 . S
C497 H502 0.930 . S
C498 C497 1.333 . S
C498 N500 1.350 . S
C498 H524 0.931 . S
N499 Co495 2.148 . S
N499 C496 1.301 . S
N499 C497 1.317 . S
N500 C496 1.328 . S
N500 C498 1.350 . S
H501 C496 0.930 . S
H502 C497 0.930 . S
C503 O504 1.224 . S
C503 O522 1.247 . S
O504 C503 1.224 . S
N505 Co495 2.128 . S
N505 C506 1.355 . S
N505 C508 1.311 . S
C506 N505 1.355 . S
C506 C507 1.363 . S
C506 H518 0.929 . S
C507 C506 1.363 . S
C507 N509 1.375 . S
C507 H525 0.936 . S
C508 N505 1.311 . S
C508 N509 1.347 . S
C508 H519 0.929 . S
N509 C507 1.375 . S
N509 C508 1.347 . S
C510 C513 1.365 . S
C510 N515 1.328 . S
C510 H516 0.929 . S
C511 C512 1.362 . S
C511 C514 1.378 . S
C511 H526 0.929 . S
C512 C511 1.362 . S
C512 C513 1.366 . S
C513 C510 1.365 . S
C513 C512 1.366 . S
C513 H527 0.930 . S
C514 C511 1.378 . S
C514 N515 1.315 . S
C514 H517 0.930 . S
N515 Co495 2.194 . S
N515 C510 1.328 . S
N515 C514 1.315 . S
H516 C510 0.929 . S
H517 C514 0.930 . S
H518 C506 0.929 . S
H519 C508 0.929 . S
O520 Co495 2.351 . S
O520 C523 1.244 . S
O521 Co495 2.155 . S
O521 C523 1.240 . S
O522 Co495 2.096 . S
O522 C503 1.247 . S
C523 O520 1.244 . S
C523 O521 1.240 . S
H524 C498 0.931 . S
H525 C507 0.936 . S
H526 C511 0.929 . S
H527 C513 0.930 . S
H528 C534 0.930 . S
H529 C537 0.930 . S
H530 C538 0.930 . S
H531 C539 0.930 . S
H532 C542 0.930 . S
H533 C543 0.930 . S
C534 H528 0.930 . S
C534 C535 1.355 . S
C534 C536 1.415 . S
C535 C534 1.355 . S
C535 C537 1.419 . S
C536 C534 1.415 . S
C536 C541 1.425 . S
C536 C543 1.409 . S
C537 H529 0.930 . S
C537 C535 1.419 . S
C537 C538 1.362 . S
C538 H530 0.930 . S
C538 C537 1.362 . S
C538 C541 1.409 . S
C539 H531 0.930 . S
C539 C540 1.355 . S
C539 C541 1.415 . S
C540 C539 1.355 . S
C540 C542 1.419 . S
C541 C536 1.425 . S
C541 C538 1.409 . S
C541 C539 1.415 . S
C542 H532 0.930 . S
C542 C540 1.419 . S
C542 C543 1.362 . S
C543 H533 0.930 . S
C543 C536 1.409 . S
C543 C542 1.362 . S
H544 C550 0.930 . S
H545 C553 0.930 . S
H546 C554 0.930 . S
H547 C555 0.930 . S
H548 C558 0.930 . S
H549 C559 0.930 . S
C550 H544 0.930 . S
C550 C551 1.355 . S
C550 C552 1.415 . S
C551 C550 1.355 . S
C551 C553 1.419 . S
C552 C550 1.415 . S
C552 C557 1.425 . S
C552 C559 1.409 . S
C553 H545 0.930 . S
C553 C551 1.419 . S
C553 C554 1.362 . S
C554 H546 0.930 . S
C554 C553 1.362 . S
C554 C557 1.409 . S
C555 H547 0.930 . S
C555 C556 1.355 . S
C555 C557 1.415 . S
C556 C555 1.355 . S
C556 C558 1.419 . S
C557 C552 1.425 . S
C557 C554 1.409 . S
C557 C555 1.415 . S
C558 H548 0.930 . S
C558 C556 1.419 . S
C558 C559 1.362 . S
C559 H549 0.930 . S
C559 C552 1.409 . S
C559 C558 1.362 . S
H560 C566 0.930 . S
H561 C569 0.930 . S
H562 C570 0.930 . S
H563 C571 0.930 . S
H564 C574 0.930 1_554 S
H565 C575 0.930 1_554 S
C566 H560 0.930 . S
C566 C567 1.355 . S
C566 C568 1.415 . S
C567 C566 1.355 . S
C567 C569 1.419 . S
C568 C566 1.415 . S
C568 C573 1.425 . S
C568 C575 1.409 . S
C569 H561 0.930 . S
C569 C567 1.419 . S
C569 C570 1.362 . S
C570 H562 0.930 . S
C570 C569 1.362 . S
C570 C573 1.409 . S
C571 H563 0.930 . S
C571 C572 1.355 . S
C571 C573 1.415 . S
C572 C571 1.355 . S
C572 C574 1.419 . S
C573 C568 1.425 . S
C573 C570 1.409 . S
C573 C571 1.415 . S
C574 H564 0.930 1_556 S
C574 C572 1.419 . S
C574 C575 1.362 . S
C575 H565 0.930 1_556 S
C575 C568 1.409 . S
C575 C574 1.362 . S
H576 C582 0.930 . S
H577 C585 0.930 . S
H578 C586 0.930 . S
H579 C587 0.930 . S
H580 C590 0.930 . S
H581 C591 0.930 . S
C582 H576 0.930 . S
C582 C583 1.355 . S
C582 C584 1.415 . S
C583 C582 1.355 . S
C583 C585 1.419 . S
C584 C582 1.415 . S
C584 C589 1.425 . S
C584 C591 1.409 . S
C585 H577 0.930 . S
C585 C583 1.419 . S
C585 C586 1.362 . S
C586 H578 0.930 . S
C586 C585 1.362 . S
C586 C589 1.409 . S
C587 H579 0.930 . S
C587 C588 1.355 . S
C587 C589 1.415 . S
C588 C587 1.355 . S
C588 C590 1.419 . S
C589 C584 1.425 . S
C589 C586 1.409 . S
C589 C587 1.415 . S
C590 H580 0.930 . S
C590 C588 1.419 . S
C590 C591 1.362 . S
C591 H581 0.930 . S
C591 C584 1.409 . S
C591 C590 1.362 . S
H592 C598 0.930 . S
H593 C601 0.930 . S
H594 C602 0.967 . S
H595 C603 0.930 . S
H596 C606 0.930 . S
H597 C607 0.930 . S
C598 H592 0.930 . S
C598 C599 1.355 . S
C598 C600 1.415 . S
C599 C598 1.355 . S
C599 C601 1.419 . S
C600 C598 1.415 . S
C600 C605 1.425 . S
C600 C607 1.409 . S
C601 H593 0.930 . S
C601 C599 1.419 . S
C601 C602 1.362 . S
C602 H594 0.967 . S
C602 C601 1.362 . S
C602 C605 1.409 . S
C603 H595 0.930 . S
C603 C604 1.360 . S
C603 C605 1.415 1_455 S
C604 C603 1.360 . S
C604 C606 1.376 1_455 S
C605 C600 1.425 . S
C605 C602 1.409 . S
C605 C603 1.415 1_655 S
C606 H596 0.930 . S
C606 C604 1.376 1_655 S
C606 C607 1.362 . S
C607 H597 0.930 . S
C607 C600 1.409 . S
C607 C606 1.362 . S
H608 C614 0.930 . S
H609 C617 0.930 . S
H610 C618 0.930 . S
H611 C619 0.930 . S
H612 C622 0.930 . S
H613 C623 0.930 1_455 S
C614 H608 0.930 . S
C614 C615 1.355 . S
C614 C616 1.415 . S
C615 C614 1.355 . S
C615 C617 1.419 . S
C616 C614 1.415 . S
C616 C621 1.425 . S
C616 C623 1.409 . S
C617 H609 0.930 . S
C617 C615 1.419 . S
C617 C618 1.362 . S
C618 H610 0.930 . S
C618 C617 1.362 . S
C618 C621 1.409 . S
C619 H611 0.930 . S
C619 C620 1.355 1_655 S
C619 C621 1.415 . S
C620 C619 1.355 1_455 S
C620 C622 1.419 . S
C621 C616 1.425 . S
C621 C618 1.409 . S
C621 C619 1.415 . S
C622 H612 0.930 . S
C622 C620 1.419 . S
C622 C623 1.362 1_455 S
C623 H613 0.930 1_655 S
C623 C616 1.409 . S
C623 C622 1.362 1_655 S
H624 C630 0.930 . S
H625 C633 0.930 . S
H626 C634 0.930 1_556 S
H627 C635 0.930 1_556 S
H628 C638 0.930 . S
H629 C639 0.930 . S
C630 H624 0.930 . S
C630 C631 1.355 . S
C630 C632 1.415 . S
C631 C630 1.355 . S
C631 C633 1.419 . S
C632 C630 1.415 . S
C632 C637 1.425 . S
C632 C639 1.409 . S
C633 H625 0.930 . S
C633 C631 1.419 . S
C633 C634 1.362 . S
C634 H626 0.930 1_554 S
C634 C633 1.362 . S
C634 C637 1.409 . S
C635 H627 0.930 1_554 S
C635 C636 1.355 . S
C635 C637 1.415 . S
C636 C635 1.355 . S
C636 C638 1.419 . S
C637 C632 1.425 . S
C637 C634 1.409 . S
C637 C635 1.415 . S
C638 H628 0.930 . S
C638 C636 1.419 . S
C638 C639 1.362 . S
C639 H629 0.930 . S
C639 C632 1.409 . S
C639 C638 1.362 . S
H640 C646 0.930 . S
H641 C649 0.930 . S
H642 C650 0.930 . S
H643 C651 0.930 . S
H644 C654 0.930 . S
H645 C655 0.930 . S
C646 H640 0.930 . S
C646 C647 1.355 . S
C646 C648 1.415 . S
C647 C646 1.355 . S
C647 C649 1.419 . S
C648 C646 1.415 . S
C648 C653 1.425 . S
C648 C655 1.409 1_556 S
C649 H641 0.930 . S
C649 C647 1.419 . S
C649 C650 1.362 . S
C650 H642 0.930 . S
C650 C649 1.362 . S
C650 C653 1.409 . S
C651 H643 0.930 . S
C651 C652 1.355 . S
C651 C653 1.415 . S
C652 C651 1.355 . S
C652 C654 1.419 1_556 S
C653 C648 1.425 . S
C653 C650 1.409 . S
C653 C651 1.415 . S
C654 H644 0.930 . S
C654 C652 1.419 1_554 S
C654 C655 1.362 . S
C655 H645 0.930 . S
C655 C648 1.409 1_554 S
C655 C654 1.362 . S
H656 C662 0.930 1_554 S
H657 C665 0.930 . S
H658 C666 0.930 . S
H659 C667 0.930 . S
H660 C670 0.930 1_554 S
H661 C671 0.930 . S
C662 H656 0.930 1_556 S
C662 C663 1.355 . S
C662 C664 1.415 . S
C663 C662 1.355 . S
C663 C665 1.419 . S
C664 C662 1.415 . S
C664 C669 1.425 . S
C664 C671 1.409 1_556 S
C665 H657 0.930 . S
C665 C663 1.419 . S
C665 C666 1.362 . S
C666 H658 0.930 . S
C666 C665 1.362 . S
C666 C669 1.409 . S
C667 H659 0.930 . S
C667 C668 1.355 . S
C667 C669 1.415 . S
C668 C667 1.355 . S
C668 C670 1.419 . S
C669 C664 1.425 . S
C669 C666 1.409 . S
C669 C667 1.415 . S
C670 H660 0.930 1_556 S
C670 C668 1.419 . S
C670 C671 1.362 1_556 S
C671 H661 0.930 . S
C671 C664 1.409 1_554 S
C671 C670 1.362 1_554 S
H672 C678 0.930 . S
H673 C681 0.930 . S
H674 C682 0.930 . S
H675 C683 0.930 . S
H676 C686 0.930 . S
H677 C687 0.930 . S
C678 H672 0.930 . S
C678 C679 1.355 . S
C678 C680 1.415 . S
C679 C678 1.355 . S
C679 C681 1.419 . S
C680 C678 1.415 . S
C680 C685 1.425 . S
C680 C687 1.409 . S
C681 H673 0.930 . S
C681 C679 1.419 . S
C681 C682 1.362 . S
C682 H674 0.930 . S
C682 C681 1.362 . S
C682 C685 1.409 . S
C683 H675 0.930 . S
C683 C684 1.355 . S
C683 C685 1.415 . S
C684 C683 1.355 . S
C684 C686 1.419 . S
C685 C680 1.425 . S
C685 C682 1.409 . S
C685 C683 1.415 . S
C686 H676 0.930 . S
C686 C684 1.419 . S
C686 C687 1.362 . S
C687 H677 0.930 . S
C687 C680 1.409 . S
C687 C686 1.362 . S
H688 C694 0.930 . S
H689 C697 0.930 1_455 S
H690 C698 0.930 . S
H691 C699 0.930 . S
H692 C702 0.930 . S
H693 C703 0.930 . S
C694 H688 0.930 . S
C694 C695 1.355 . S
C694 C696 1.415 . S
C695 C694 1.355 . S
C695 C697 1.419 . S
C696 C694 1.415 . S
C696 C701 1.425 . S
C696 C703 1.409 . S
C697 H689 0.930 1_655 S
C697 C695 1.419 . S
C697 C698 1.362 . S
C698 H690 0.930 . S
C698 C697 1.362 . S
C698 C701 1.409 . S
C699 H691 0.930 . S
C699 C700 1.355 . S
C699 C701 1.415 . S
C700 C699 1.355 . S
C700 C702 1.419 . S
C701 C696 1.425 . S
C701 C698 1.409 . S
C701 C699 1.415 . S
C702 H692 0.930 . S
C702 C700 1.419 . S
C702 C703 1.362 . S
C703 H693 0.930 . S
C703 C696 1.409 . S
C703 C702 1.362 . S
H704 C710 0.930 . S
H705 C713 0.930 . S
H706 C714 0.930 . S
H707 C715 0.930 1_455 S
H708 C718 0.930 . S
H709 C719 0.930 . S
C710 H704 0.930 . S
C710 C711 1.355 . S
C710 C712 1.415 . S
C711 C710 1.355 . S
C711 C713 1.419 . S
C712 C710 1.415 . S
C712 C717 1.425 . S
C712 C719 1.409 . S
C713 H705 0.930 . S
C713 C711 1.419 . S
C713 C714 1.362 . S
C714 H706 0.930 . S
C714 C713 1.362 . S
C714 C717 1.409 . S
C715 H707 0.930 1_655 S
C715 C716 1.355 . S
C715 C717 1.415 . S
C716 C715 1.355 . S
C716 C718 1.419 . S
C717 C712 1.425 . S
C717 C714 1.409 . S
C717 C715 1.415 . S
C718 H708 0.930 . S
C718 C716 1.419 . S
C718 C719 1.362 . S
C719 H709 0.930 . S
C719 C712 1.409 . S
C719 C718 1.362 . S
H720 C726 0.930 . S
H721 C729 0.930 . S
H722 C730 0.930 . S
H723 C731 0.930 . S
H724 C734 0.930 . S
H725 C735 0.930 . S
C726 H720 0.930 . S
C726 C727 1.355 . S
C726 C728 1.415 . S
C727 C726 1.355 . S
C727 C729 1.419 1_554 S
C728 C726 1.415 . S
C728 C733 1.425 . S
C728 C735 1.409 . S
C729 H721 0.930 . S
C729 C727 1.419 1_556 S
C729 C730 1.362 . S
C730 H722 0.930 . S
C730 C729 1.362 . S
C730 C733 1.409 1_556 S
C731 H723 0.930 . S
C731 C732 1.355 . S
C731 C733 1.415 . S
C732 C731 1.355 . S
C732 C734 1.419 . S
C733 C728 1.425 . S
C733 C730 1.409 1_554 S
C733 C731 1.415 . S
C734 H724 0.930 . S
C734 C732 1.419 . S
C734 C735 1.362 . S
C735 H725 0.930 . S
C735 C728 1.409 . S
C735 C734 1.362 . S
H736 C742 0.930 . S
H737 C745 0.930 1_554 S
H738 C746 0.930 . S
H739 C747 0.930 . S
H740 C750 0.930 . S
H741 C751 0.930 . S
C742 H736 0.930 . S
C742 C743 1.355 . S
C742 C744 1.415 . S
C743 C742 1.355 . S
C743 C745 1.419 . S
C744 C742 1.415 . S
C744 C749 1.425 . S
C744 C751 1.409 . S
C745 H737 0.930 1_556 S
C745 C743 1.419 . S
C745 C746 1.362 . S
C746 H738 0.930 . S
C746 C745 1.362 . S
C746 C749 1.409 . S
C747 H739 0.930 . S
C747 C748 1.355 . S
C747 C749 1.415 . S
C748 C747 1.355 . S
C748 C750 1.419 . S
C749 C744 1.425 . S
C749 C746 1.409 . S
C749 C747 1.415 . S
C750 H740 0.930 . S
C750 C748 1.419 . S
C750 C751 1.362 . S
C751 H741 0.930 . S
C751 C744 1.409 . S
C751 C750 1.362 . S
H752 C758 0.930 . S
H753 C761 0.930 . S
H754 C762 0.930 . S
H755 C763 0.930 . S
H756 C766 0.930 . S
H757 C767 0.930 . S
C758 H752 0.930 . S
C758 C759 1.355 . S
C758 C760 1.415 . S
C759 C758 1.355 . S
C759 C761 1.419 . S
C760 C758 1.415 . S
C760 C765 1.425 . S
C760 C767 1.409 . S
C761 H753 0.930 . S
C761 C759 1.419 . S
C761 C762 1.362 . S
C762 H754 0.930 . S
C762 C761 1.362 . S
C762 C765 1.409 . S
C763 H755 0.930 . S
C763 C764 1.355 . S
C763 C765 1.415 . S
C764 C763 1.355 . S
C764 C766 1.419 . S
C765 C760 1.425 . S
C765 C762 1.409 . S
C765 C763 1.415 . S
C766 H756 0.930 . S
C766 C764 1.419 . S
C766 C767 1.362 . S
C767 H757 0.930 . S
C767 C760 1.409 . S
C767 C766 1.362 . S
H768 C774 0.930 . S
H769 C777 0.930 . S
H770 C778 0.930 . S
H771 C779 0.930 . S
H772 C782 0.930 . S
H773 C783 0.930 . S
C774 H768 0.930 . S
C774 C775 1.355 . S
C774 C776 1.415 . S
C775 C774 1.355 . S
C775 C777 1.419 . S
C776 C774 1.415 . S
C776 C781 1.425 . S
C776 C783 1.409 . S
C777 H769 0.930 . S
C777 C775 1.419 . S
C777 C778 1.362 . S
C778 H770 0.930 . S
C778 C777 1.362 . S
C778 C781 1.409 . S
C779 H771 0.930 . S
C779 C780 1.355 . S
C779 C781 1.415 . S
C780 C779 1.355 . S
C780 C782 1.419 . S
C781 C776 1.425 . S
C781 C778 1.409 . S
C781 C779 1.415 . S
C782 H772 0.930 . S
C782 C780 1.419 . S
C782 C783 1.362 . S
C783 H773 0.930 . S
C783 C776 1.409 . S
C783 C782 1.362 . S
H784 C790 0.930 1_565 S
H785 C793 0.930 . S
H786 C794 0.930 1_556 S
H787 C795 0.930 1_545 S
H788 C798 0.930 . S
H789 C799 0.930 1_554 S
C790 H784 0.930 1_545 S
C790 C791 1.355 . S
C790 C792 1.415 1_545 S
C791 C790 1.355 . S
C791 C793 1.419 . S
C792 C790 1.415 1_565 S
C792 C797 1.425 1_564 S
C792 C799 1.409 1_554 S
C793 H785 0.930 . S
C793 C791 1.419 . S
C793 C794 1.362 . S
C794 H786 0.930 1_554 S
C794 C793 1.362 . S
C794 C797 1.409 1_554 S
C795 H787 0.930 1_565 S
C795 C796 1.355 . S
C795 C797 1.415 1_565 S
C796 C795 1.355 . S
C796 C798 1.419 . S
C797 C792 1.425 1_546 S
C797 C794 1.409 1_556 S
C797 C795 1.415 1_545 S
C798 H788 0.930 . S
C798 C796 1.419 . S
C798 C799 1.362 . S
C799 H789 0.930 1_556 S
C799 C792 1.409 1_556 S
C799 C798 1.362 . S
H800 C806 0.930 . S
H801 C809 0.930 . S
H802 C810 0.930 . S
H803 C811 0.930 . S
H804 C814 0.930 . S
H805 C815 0.930 . S
C806 H800 0.930 . S
C806 C807 1.355 . S
C806 C808 1.415 . S
C807 C806 1.355 . S
C807 C809 1.419 . S
C808 C806 1.415 . S
C808 C813 1.425 . S
C808 C815 1.409 . S
C809 H801 0.930 . S
C809 C807 1.419 . S
C809 C810 1.362 . S
C810 H802 0.930 . S
C810 C809 1.362 . S
C810 C813 1.409 . S
C811 H803 0.930 . S
C811 C812 1.355 . S
C811 C813 1.415 . S
C812 C811 1.355 . S
C812 C814 1.419 . S
C813 C808 1.425 . S
C813 C810 1.409 . S
C813 C811 1.415 . S
C814 H804 0.930 . S
C814 C812 1.419 . S
C814 C815 1.362 . S
C815 H805 0.930 . S
C815 C808 1.409 . S
C815 C814 1.362 . S
H816 C822 0.930 . S
H817 C825 0.930 . S
H818 C826 0.930 . S
H819 C827 0.930 . S
H820 C830 0.930 . S
H821 C831 0.930 . S
C822 H816 0.930 . S
C822 C823 1.355 1_565 S
C822 C824 1.415 . S
C823 C822 1.355 1_545 S
C823 C825 1.419 . S
C824 C822 1.415 . S
C824 C829 1.425 1_565 S
C824 C831 1.409 . S
C825 H817 0.930 . S
C825 C823 1.419 . S
C825 C826 1.362 . S
C826 H818 0.930 . S
C826 C825 1.362 . S
C826 C829 1.409 . S
C827 H819 0.930 . S
C827 C828 1.355 1_545 S
C827 C829 1.415 . S
C828 C827 1.355 1_565 S
C828 C830 1.419 . S
C829 C824 1.425 1_545 S
C829 C826 1.409 . S
C829 C827 1.415 . S
C830 H820 0.930 . S
C830 C828 1.419 . S
C830 C831 1.362 . S
C831 H821 0.930 . S
C831 C824 1.409 . S
C831 C830 1.362 . S
H832 C838 0.930 . S
H833 C841 0.930 . S
H834 C842 0.930 . S
H835 C843 0.930 . S
H836 C846 0.930 . S
H837 C847 0.930 . S
C838 H832 0.930 . S
C838 C839 1.355 . S
C838 C840 1.415 . S
C839 C838 1.355 . S
C839 C841 1.419 . S
C840 C838 1.415 . S
C840 C845 1.425 . S
C840 C847 1.409 . S
C841 H833 0.930 . S
C841 C839 1.419 . S
C841 C842 1.362 . S
C842 H834 0.930 . S
C842 C841 1.362 . S
C842 C845 1.409 . S
C843 H835 0.930 . S
C843 C844 1.355 . S
C843 C845 1.415 . S
C844 C843 1.355 . S
C844 C846 1.419 . S
C845 C840 1.425 . S
C845 C842 1.409 . S
C845 C843 1.415 . S
C846 H836 0.930 . S
C846 C844 1.419 . S
C846 C847 1.362 . S
C847 H837 0.930 . S
C847 C840 1.409 . S
C847 C846 1.362 . S
H848 C854 0.930 . S
H849 C857 0.930 . S
H850 C858 0.930 . S
H851 C859 0.930 . S
H852 C862 0.930 . S
H853 C863 0.930 . S
C854 H848 0.930 . S
C854 C855 1.355 . S
C854 C856 1.415 . S
C855 C854 1.355 . S
C855 C857 1.419 . S
C856 C854 1.415 . S
C856 C861 1.425 . S
C856 C863 1.409 . S
C857 H849 0.930 . S
C857 C855 1.419 . S
C857 C858 1.362 . S
C858 H850 0.930 . S
C858 C857 1.362 . S
C858 C861 1.409 . S
C859 H851 0.930 . S
C859 C860 1.355 . S
C859 C861 1.415 . S
C860 C859 1.355 . S
C860 C862 1.419 . S
C861 C856 1.425 . S
C861 C858 1.409 . S
C861 C859 1.415 . S
C862 H852 0.930 . S
C862 C860 1.419 . S
C862 C863 1.362 . S
C863 H853 0.930 . S
C863 C856 1.409 . S
C863 C862 1.362 . S
H864 C870 0.930 . S
H865 C873 0.930 . S
H866 C874 0.930 . S
H867 C875 0.930 . S
H868 C878 0.930 . S
H869 C879 0.930 . S
C870 H864 0.930 . S
C870 C871 1.355 . S
C870 C872 1.415 . S
C871 C870 1.355 . S
C871 C873 1.419 . S
C872 C870 1.415 . S
C872 C877 1.425 . S
C872 C879 1.409 . S
C873 H865 0.930 . S
C873 C871 1.419 . S
C873 C874 1.362 . S
C874 H866 0.930 . S
C874 C873 1.362 . S
C874 C877 1.409 . S
C875 H867 0.930 . S
C875 C876 1.355 . S
C875 C877 1.415 . S
C876 C875 1.355 . S
C876 C878 1.419 . S
C877 C872 1.425 . S
C877 C874 1.409 . S
C877 C875 1.415 . S
C878 H868 0.930 . S
C878 C876 1.419 . S
C878 C879 1.362 . S
C879 H869 0.930 . S
C879 C872 1.409 . S
C879 C878 1.362 . S
H880 C886 0.930 . S
H881 C889 0.930 . S
H882 C890 0.930 . S
H883 C891 0.930 . S
H884 C894 0.930 . S
H885 C895 0.930 . S
C886 H880 0.930 . S
C886 C887 1.355 . S
C886 C888 1.415 . S
C887 C886 1.355 . S
C887 C889 1.419 . S
C888 C886 1.415 . S
C888 C893 1.425 . S
C888 C895 1.409 . S
C889 H881 0.930 . S
C889 C887 1.419 . S
C889 C890 1.362 . S
C890 H882 0.930 . S
C890 C889 1.362 . S
C890 C893 1.409 . S
C891 H883 0.930 . S
C891 C892 1.355 . S
C891 C893 1.415 . S
C892 C891 1.355 . S
C892 C894 1.419 . S
C893 C888 1.425 . S
C893 C890 1.409 . S
C893 C891 1.415 . S
C894 H884 0.930 . S
C894 C892 1.419 . S
C894 C895 1.362 . S
C895 H885 0.930 . S
C895 C888 1.409 . S
C895 C894 1.362 . S
H896 C902 0.930 . S
H897 C905 0.930 . S
H898 C906 0.930 . S
H899 C907 0.930 . S
H900 C910 0.930 . S
H901 C911 0.930 . S
C902 H896 0.930 . S
C902 C903 1.355 . S
C902 C904 1.411 1_556 S
C903 C902 1.355 . S
C903 C905 1.419 . S
C904 C902 1.411 1_554 S
C904 C909 1.425 1_554 S
C904 C911 1.413 . S
C905 H897 0.930 . S
C905 C903 1.419 . S
C905 C906 1.362 . S
C906 H898 0.930 . S
C906 C905 1.362 . S
C906 C909 1.413 . S
C907 H899 0.930 . S
C907 C908 1.355 . S
C907 C909 1.411 1_554 S
C908 C907 1.355 . S
C908 C910 1.419 . S
C909 C904 1.425 1_556 S
C909 C906 1.413 . S
C909 C907 1.411 1_556 S
C910 H900 0.930 . S
C910 C908 1.419 . S
C910 C911 1.362 . S
C911 H901 0.930 . S
C911 C904 1.413 . S
C911 C910 1.362 . S
H912 C918 0.930 . S
H913 C921 0.930 . S
H914 C922 0.930 . S
H915 C923 0.930 . S
H916 C926 0.930 . S
H917 C927 0.930 . S
C918 H912 0.930 . S
C918 C919 1.355 . S
C918 C920 1.415 . S
C919 C918 1.355 . S
C919 C921 1.419 . S
C920 C918 1.415 . S
C920 C925 1.425 . S
C920 C927 1.409 . S
C921 H913 0.930 . S
C921 C919 1.419 . S
C921 C922 1.362 . S
C922 H914 0.930 . S
C922 C921 1.362 . S
C922 C925 1.409 . S
C923 H915 0.930 . S
C923 C924 1.355 . S
C923 C925 1.415 . S
C924 C923 1.355 . S
C924 C926 1.419 . S
C925 C920 1.425 . S
C925 C922 1.409 . S
C925 C923 1.415 . S
C926 H916 0.930 . S
C926 C924 1.419 . S
C926 C927 1.362 . S
C927 H917 0.930 . S
C927 C920 1.409 . S
C927 C926 1.362 . S
H928 C934 0.930 . S
H929 C937 0.930 . S
H930 C938 0.930 . S
H931 C939 0.930 . S
H932 C942 0.930 . S
H933 C943 0.930 . S
C934 H928 0.930 . S
C934 C935 1.355 . S
C934 C936 1.415 . S
C935 C934 1.355 . S
C935 C937 1.419 . S
C936 C934 1.415 . S
C936 C941 1.425 . S
C936 C943 1.409 . S
C937 H929 0.930 . S
C937 C935 1.419 . S
C937 C938 1.362 . S
C938 H930 0.930 . S
C938 C937 1.362 . S
C938 C941 1.409 . S
C939 H931 0.930 . S
C939 C940 1.355 . S
C939 C941 1.415 1_556 S
C940 C939 1.355 . S
C940 C942 1.419 . S
C941 C936 1.425 . S
C941 C938 1.409 . S
C941 C939 1.415 1_554 S
C942 H932 0.930 . S
C942 C940 1.419 . S
C942 C943 1.362 1_556 S
C943 H933 0.930 . S
C943 C936 1.409 . S
C943 C942 1.362 1_554 S
H944 C950 0.930 . S
H945 C953 0.930 . S
H946 C954 0.930 . S
H947 C955 0.930 . S
H948 C958 0.930 . S
H949 C959 0.930 . S
C950 H944 0.930 . S
C950 C951 1.355 . S
C950 C952 1.415 . S
C951 C950 1.355 . S
C951 C953 1.419 . S
C952 C950 1.415 . S
C952 C957 1.425 . S
C952 C959 1.409 . S
C953 H945 0.930 . S
C953 C951 1.419 . S
C953 C954 1.362 . S
C954 H946 0.930 . S
C954 C953 1.362 . S
C954 C957 1.409 . S
C955 H947 0.930 . S
C955 C956 1.355 . S
C955 C957 1.415 . S
C956 C955 1.355 . S
C956 C958 1.419 . S
C957 C952 1.425 . S
C957 C954 1.409 . S
C957 C955 1.415 . S
C958 H948 0.930 . S
C958 C956 1.419 . S
C958 C959 1.362 . S
C959 H949 0.930 . S
C959 C952 1.409 . S
C959 C958 1.362 . S
H960 C966 0.930 . S
H961 C969 0.930 . S
H962 C970 0.930 . S
H963 C971 0.930 . S
H964 C974 0.930 . S
H965 C975 0.930 . S
C966 H960 0.930 . S
C966 C967 1.355 . S
C966 C968 1.415 . S
C967 C966 1.355 . S
C967 C969 1.419 . S
C968 C966 1.415 . S
C968 C973 1.425 . S
C968 C975 1.409 . S
C969 H961 0.930 . S
C969 C967 1.419 . S
C969 C970 1.362 . S
C970 H962 0.930 . S
C970 C969 1.362 . S
C970 C973 1.409 . S
C971 H963 0.930 . S
C971 C972 1.355 . S
C971 C973 1.415 . S
C972 C971 1.355 . S
C972 C974 1.419 . S
C973 C968 1.425 . S
C973 C970 1.409 . S
C973 C971 1.415 . S
C974 H964 0.930 . S
C974 C972 1.419 . S
C974 C975 1.362 . S
C975 H965 0.930 . S
C975 C968 1.409 . S
C975 C974 1.362 . S
H976 C982 0.930 . S
H977 C985 0.930 . S
H978 C986 0.930 . S
H979 C987 0.930 . S
H980 C990 0.930 . S
H981 C991 0.930 . S
C982 H976 0.930 . S
C982 C983 1.355 . S
C982 C984 1.415 . S
C983 C982 1.355 . S
C983 C985 1.419 . S
C984 C982 1.415 . S
C984 C989 1.425 . S
C984 C991 1.409 . S
C985 H977 0.930 . S
C985 C983 1.419 . S
C985 C986 1.362 . S
C986 H978 0.930 . S
C986 C985 1.362 . S
C986 C989 1.409 . S
C987 H979 0.930 . S
C987 C988 1.355 . S
C987 C989 1.415 . S
C988 C987 1.355 . S
C988 C990 1.419 . S
C989 C984 1.425 . S
C989 C986 1.409 . S
C989 C987 1.415 . S
C990 H980 0.930 . S
C990 C988 1.419 . S
C990 C991 1.362 . S
C991 H981 0.930 . S
C991 C984 1.409 . S
C991 C990 1.362 . S
H992 C998 0.930 . S
H993 C1001 0.930 . S
H994 C1002 0.930 . S
H995 C1003 0.930 . S
H996 C1006 0.930 . S
H997 C1007 0.930 . S
C998 H992 0.930 . S
C998 C999 1.355 . S
C998 C1000 1.415 . S
C999 C998 1.355 . S
C999 C1001 1.419 . S
C1000 C998 1.415 . S
C1000 C1005 1.425 . S
C1000 C1007 1.409 . S
C1001 H993 0.930 . S
C1001 C999 1.419 . S
C1001 C1002 1.362 . S
C1002 H994 0.930 . S
C1002 C1001 1.362 . S
C1002 C1005 1.409 . S
C1003 H995 0.930 . S
C1003 C1004 1.355 . S
C1003 C1005 1.415 . S
C1004 C1003 1.355 . S
C1004 C1006 1.419 . S
C1005 C1000 1.425 . S
C1005 C1002 1.409 . S
C1005 C1003 1.415 . S
C1006 H996 0.930 . S
C1006 C1004 1.419 . S
C1006 C1007 1.362 . S
C1007 H997 0.930 . S
C1007 C1000 1.409 . S
C1007 C1006 1.362 . S
H1008 C1014 0.930 . S
H1009 C1017 0.930 . S
H1010 C1018 0.930 . S
H1011 C1019 0.930 . S
H1012 C1022 0.930 . S
H1013 C1023 0.930 . S
C1014 H1008 0.930 . S
C1014 C1015 1.355 . S
C1014 C1016 1.415 . S
C1015 C1014 1.355 . S
C1015 C1017 1.419 . S
C1016 C1014 1.415 . S
C1016 C1021 1.425 . S
C1016 C1023 1.409 . S
C1017 H1009 0.930 . S
C1017 C1015 1.419 . S
C1017 C1018 1.362 . S
C1018 H1010 0.930 . S
C1018 C1017 1.362 . S
C1018 C1021 1.409 . S
C1019 H1011 0.930 . S
C1019 C1020 1.355 . S
C1019 C1021 1.415 . S
C1020 C1019 1.355 . S
C1020 C1022 1.419 . S
C1021 C1016 1.425 . S
C1021 C1018 1.409 . S
C1021 C1019 1.415 . S
C1022 H1012 0.930 . S
C1022 C1020 1.419 . S
C1022 C1023 1.362 . S
C1023 H1013 0.930 . S
C1023 C1016 1.409 . S
C1023 C1022 1.362 . S
H1024 C1030 0.930 . S
H1025 C1033 0.930 . S
H1026 C1034 0.930 . S
H1027 C1035 0.930 . S
H1028 C1038 0.930 . S
H1029 C1039 0.930 . S
C1030 H1024 0.930 . S
C1030 C1031 1.355 . S
C1030 C1032 1.415 . S
C1031 C1030 1.355 . S
C1031 C1033 1.419 . S
C1032 C1030 1.415 . S
C1032 C1037 1.425 . S
C1032 C1039 1.409 1_556 S
C1033 H1025 0.930 . S
C1033 C1031 1.419 . S
C1033 C1034 1.362 . S
C1034 H1026 0.930 . S
C1034 C1033 1.362 . S
C1034 C1037 1.409 . S
C1035 H1027 0.930 . S
C1035 C1036 1.355 . S
C1035 C1037 1.415 1_554 S
C1036 C1035 1.355 . S
C1036 C1038 1.419 . S
C1037 C1032 1.425 . S
C1037 C1034 1.409 . S
C1037 C1035 1.415 1_556 S
C1038 H1028 0.930 . S
C1038 C1036 1.419 . S
C1038 C1039 1.362 . S
C1039 H1029 0.930 . S
C1039 C1032 1.409 1_554 S
C1039 C1038 1.362 . S
H1040 C1046 0.930 . S
H1041 C1049 0.930 . S
H1042 C1050 0.930 . S
H1043 C1051 0.930 . S
H1044 C1054 0.930 . S
H1045 C1055 0.930 . S
C1046 H1040 0.930 . S
C1046 C1047 1.355 . S
C1046 C1048 1.415 1_554 S
C1047 C1046 1.355 . S
C1047 C1049 1.419 . S
C1048 C1046 1.415 1_556 S
C1048 C1053 1.425 . S
C1048 C1055 1.409 . S
C1049 H1041 0.930 . S
C1049 C1047 1.419 . S
C1049 C1050 1.362 1_554 S
C1050 H1042 0.930 . S
C1050 C1049 1.362 1_556 S
C1050 C1053 1.409 . S
C1051 H1043 0.930 . S
C1051 C1052 1.355 . S
C1051 C1053 1.415 . S
C1052 C1051 1.355 . S
C1052 C1054 1.419 . S
C1053 C1048 1.425 . S
C1053 C1050 1.409 . S
C1053 C1051 1.415 . S
C1054 H1044 0.930 . S
C1054 C1052 1.419 . S
C1054 C1055 1.362 . S
C1055 H1045 0.930 . S
C1055 C1048 1.409 . S
C1055 C1054 1.362 . S
H1056 C1062 0.930 . S
H1057 C1065 0.930 . S
H1058 C1066 0.930 . S
H1059 C1067 0.930 . S
H1060 C1070 0.930 . S
H1061 C1071 0.930 . S
C1062 H1056 0.930 . S
C1062 C1063 1.355 . S
C1062 C1064 1.415 . S
C1063 C1062 1.355 . S
C1063 C1065 1.419 . S
C1064 C1062 1.415 . S
C1064 C1069 1.425 . S
C1064 C1071 1.409 . S
C1065 H1057 0.930 . S
C1065 C1063 1.419 . S
C1065 C1066 1.362 . S
C1066 H1058 0.930 . S
C1066 C1065 1.362 . S
C1066 C1069 1.409 . S
C1067 H1059 0.930 . S
C1067 C1068 1.355 . S
C1067 C1069 1.415 . S
C1068 C1067 1.355 . S
C1068 C1070 1.419 . S
C1069 C1064 1.425 . S
C1069 C1066 1.409 . S
C1069 C1067 1.415 . S
C1070 H1060 0.930 . S
C1070 C1068 1.419 . S
C1070 C1071 1.362 . S
C1071 H1061 0.930 . S
C1071 C1064 1.409 . S
C1071 C1070 1.362 . S
H1072 C1078 0.930 . S
H1073 C1081 0.930 . S
H1074 C1082 0.930 . S
H1075 C1083 0.930 . S
H1076 C1086 0.930 . S
H1077 C1087 0.930 . S
C1078 H1072 0.930 . S
C1078 C1079 1.355 . S
C1078 C1080 1.415 . S
C1079 C1078 1.355 . S
C1079 C1081 1.419 . S
C1080 C1078 1.415 . S
C1080 C1085 1.425 . S
C1080 C1087 1.409 . S
C1081 H1073 0.930 . S
C1081 C1079 1.419 . S
C1081 C1082 1.362 . S
C1082 H1074 0.930 . S
C1082 C1081 1.362 . S
C1082 C1085 1.409 . S
C1083 H1075 0.930 . S
C1083 C1084 1.355 . S
C1083 C1085 1.415 . S
C1084 C1083 1.355 . S
C1084 C1086 1.419 . S
C1085 C1080 1.425 . S
C1085 C1082 1.409 . S
C1085 C1083 1.415 . S
C1086 H1076 0.930 . S
C1086 C1084 1.419 . S
C1086 C1087 1.362 . S
C1087 H1077 0.930 . S
C1087 C1080 1.409 . S
C1087 C1086 1.362 . S
H1088 C1094 0.930 . S
H1089 C1097 0.930 . S
H1090 C1098 0.930 . S
H1091 C1099 0.930 . S
H1092 C1102 0.930 . S
H1093 C1103 0.930 . S
C1094 H1088 0.930 . S
C1094 C1095 1.355 . S
C1094 C1096 1.415 . S
C1095 C1094 1.355 . S
C1095 C1097 1.419 . S
C1096 C1094 1.415 . S
C1096 C1101 1.425 . S
C1096 C1103 1.409 . S
C1097 H1089 0.930 . S
C1097 C1095 1.419 . S
C1097 C1098 1.362 . S
C1098 H1090 0.930 . S
C1098 C1097 1.362 . S
C1098 C1101 1.409 . S
C1099 H1091 0.930 . S
C1099 C1100 1.355 . S
C1099 C1101 1.415 1_556 S
C1100 C1099 1.355 . S
C1100 C1102 1.419 . S
C1101 C1096 1.425 . S
C1101 C1098 1.409 . S
C1101 C1099 1.415 1_554 S
C1102 H1092 0.930 . S
C1102 C1100 1.419 . S
C1102 C1103 1.362 1_556 S
C1103 H1093 0.930 . S
C1103 C1096 1.409 . S
C1103 C1102 1.362 1_554 S
H1104 C1110 0.930 . S
H1105 C1113 0.930 . S
H1106 C1114 0.930 . S
H1107 C1115 0.930 . S
H1108 C1118 0.930 . S
H1109 C1119 0.930 . S
C1110 H1104 0.930 . S
C1110 C1111 1.355 . S
C1110 C1112 1.415 . S
C1111 C1110 1.355 . S
C1111 C1113 1.419 . S
C1112 C1110 1.415 . S
C1112 C1117 1.425 . S
C1112 C1119 1.409 . S
C1113 H1105 0.930 . S
C1113 C1111 1.419 . S
C1113 C1114 1.362 . S
C1114 H1106 0.930 . S
C1114 C1113 1.362 . S
C1114 C1117 1.409 . S
C1115 H1107 0.930 . S
C1115 C1116 1.355 . S
C1115 C1117 1.415 . S
C1116 C1115 1.355 . S
C1116 C1118 1.419 . S
C1117 C1112 1.425 . S
C1117 C1114 1.409 . S
C1117 C1115 1.415 . S
C1118 H1108 0.930 . S
C1118 C1116 1.419 . S
C1118 C1119 1.362 . S
C1119 H1109 0.930 . S
C1119 C1112 1.409 . S
C1119 C1118 1.362 . S
H1120 C1126 0.930 . S
H1121 C1129 0.930 . S
H1122 C1130 0.930 . S
H1123 C1131 0.930 . S
H1124 C1134 0.930 . S
H1125 C1135 0.930 . S
C1126 H1120 0.930 . S
C1126 C1127 1.355 . S
C1126 C1128 1.415 . S
C1127 C1126 1.355 . S
C1127 C1129 1.419 . S
C1128 C1126 1.415 . S
C1128 C1133 1.425 . S
C1128 C1135 1.409 . S
C1129 H1121 0.930 . S
C1129 C1127 1.419 . S
C1129 C1130 1.362 . S
C1130 H1122 0.930 . S
C1130 C1129 1.362 . S
C1130 C1133 1.409 . S
C1131 H1123 0.930 . S
C1131 C1132 1.355 . S
C1131 C1133 1.415 . S
C1132 C1131 1.355 . S
C1132 C1134 1.419 . S
C1133 C1128 1.425 . S
C1133 C1130 1.409 . S
C1133 C1131 1.415 . S
C1134 H1124 0.930 . S
C1134 C1132 1.419 . S
C1134 C1135 1.362 . S
C1135 H1125 0.930 . S
C1135 C1128 1.409 . S
C1135 C1134 1.362 . S
H1136 C1142 0.930 . S
H1137 C1145 0.930 . S
H1138 C1146 0.930 . S
H1139 C1147 0.930 . S
H1140 C1150 0.930 . S
H1141 C1151 0.930 . S
C1142 H1136 0.930 . S
C1142 C1143 1.355 . S
C1142 C1144 1.415 . S
C1143 C1142 1.355 . S
C1143 C1145 1.419 . S
C1144 C1142 1.415 . S
C1144 C1149 1.425 . S
C1144 C1151 1.409 . S
C1145 H1137 0.930 . S
C1145 C1143 1.419 . S
C1145 C1146 1.362 . S
C1146 H1138 0.930 . S
C1146 C1145 1.362 . S
C1146 C1149 1.409 . S
C1147 H1139 0.930 . S
C1147 C1148 1.355 . S
C1147 C1149 1.415 . S
C1148 C1147 1.355 . S
C1148 C1150 1.419 . S
C1149 C1144 1.425 . S
C1149 C1146 1.409 . S
C1149 C1147 1.415 . S
C1150 H1140 0.930 . S
C1150 C1148 1.419 . S
C1150 C1151 1.362 . S
C1151 H1141 0.930 . S
C1151 C1144 1.409 . S
C1151 C1150 1.362 . S
H1152 C1158 0.930 . S
H1153 C1161 0.930 . S
H1154 C1162 0.930 . S
H1155 C1163 0.930 . S
H1156 C1166 0.930 . S
H1157 C1167 0.930 . S
C1158 H1152 0.930 . S
C1158 C1159 1.355 . S
C1158 C1160 1.415 . S
C1159 C1158 1.355 . S
C1159 C1161 1.419 . S
C1160 C1158 1.415 . S
C1160 C1165 1.425 . S
C1160 C1167 1.409 . S
C1161 H1153 0.930 . S
C1161 C1159 1.419 . S
C1161 C1162 1.362 . S
C1162 H1154 0.930 . S
C1162 C1161 1.362 . S
C1162 C1165 1.409 . S
C1163 H1155 0.930 . S
C1163 C1164 1.355 . S
C1163 C1165 1.415 . S
C1164 C1163 1.355 . S
C1164 C1166 1.419 . S
C1165 C1160 1.425 . S
C1165 C1162 1.409 . S
C1165 C1163 1.415 . S
C1166 H1156 0.930 . S
C1166 C1164 1.419 . S
C1166 C1167 1.362 . S
C1167 H1157 0.930 . S
C1167 C1160 1.409 . S
C1167 C1166 1.362 . S
C535 C259 1.546 . S
C540 C28 1.517 . S
C551 C61 1.545 . S
C556 C160 1.517 . S
C567 C94 1.565 . S
C572 C193 1.600 . S
C583 C226 1.577 . S
C588 C127 1.601 . S
C599 C380 1.586 . S
C604 C149 1.653 . S
C615 C281 1.581 . S
C620 C17 1.572 . S
C631 C215 1.608 . S
C636 C347 1.618 . S
C647 C83 1.651 . S
C652 C314 1.629 . S
C663 C325 1.596 . S
C668 C424 1.585 . S
C679 C490 1.600 . S
C684 C358 1.572 . S
C695 C457 1.518 1_655 S
C700 C292 1.543 . S
C711 C391 1.518 . S
C716 C523 1.552 1_655 S
C727 C116 1.648 . S
C732 C479 1.642 . S
C743 C182 1.634 . S
C748 C413 1.651 . S
C759 C50 1.611 . S
C764 C512 1.585 . S
C775 C248 1.603 . S
C780 C446 1.607 . S
C791 C8 1.375 . S
C796 C140 1.371 . S
C807 C173 1.392 . S
C812 C41 1.385 . S
C823 C206 1.558 . S
C828 C74 1.556 . S
C839 C107 1.434 . S
C844 C239 1.434 . S
C855 C338 1.445 . S
C860 C272 1.443 . S
C871 C305 1.434 . S
C876 C371 1.434 . S
C887 C404 1.648 . S
C892 C470 1.648 . S
C903 C503 1.422 . S
C908 C437 1.425 . S
C919 N14 1.042 1_556 S
C924 N5 1.038 . S
C935 N47 1.022 . S
C940 N38 1.027 . S
C951 N71 1.067 . S
C956 N80 1.069 . S
C967 N104 1.032 . S
C972 N113 1.031 . S
C983 N137 1.034 . S
C988 N146 1.030 1_554 S
C999 N170 1.037 . S
C1004 N179 1.042 . S
C1015 N212 1.074 . S
C1020 N203 1.078 . S
C1031 N245 1.027 . S
C1036 N236 1.022 . S
C1047 N269 1.021 . S
C1052 N278 1.017 . S
C1063 N302 1.039 . S
C1068 N311 1.044 . S
C1079 N344 1.036 . S
C1084 N335 1.041 . S
C1095 N377 1.028 . S
C1100 N368 1.033 . S
C1111 N410 1.068 . S
C1116 N401 1.065 . S
C1127 N443 1.043 1_556 S
C1132 N434 1.043 . S
C1143 N476 1.074 . S
C1148 N467 1.079 . S
C1159 N500 1.040 . S
C1164 N509 1.035 1_554 S
