# Generated by pormake.
# Topology vby, (6)-cn, num edge types: 1
# Building blocks:
#     Node 0, Type 0, BuildingBlock: KUMJIN_clean_sbu_0, # of connection points: 6
#     Node 1, Type 0, BuildingBlock: KUMJIN_clean_sbu_0, # of connection points: 6
#     Node 2, Type 0, BuildingBlock: KUMJIN_clean_sbu_0, # of connection points: 6
#     Node 3, Type 0, BuildingBlock: KUMJIN_clean_sbu_0, # of connection points: 6
#     Node 4, Type 0, BuildingBlock: KUMJIN_clean_sbu_0, # of connection points: 6
#     Node 5, Type 0, BuildingBlock: KUMJIN_clean_sbu_0, # of connection points: 6
#     Node 6, Type 0, BuildingBlock: KUMJIN_clean_sbu_0, # of connection points: 6
#     Node 7, Type 0, BuildingBlock: KUMJIN_clean_sbu_0, # of connection points: 6
#     Edge 8, Type (0, 0), BuildingBlock: AJUNOK_clean_linker_0, # of connection points: 2
#     Edge 9, Type (0, 0), BuildingBlock: AJUNOK_clean_linker_0, # of connection points: 2
#     Edge 10, Type (0, 0), BuildingBlock: AJUNOK_clean_linker_0, # of connection points: 2
#     Edge 11, Type (0, 0), BuildingBlock: AJUNOK_clean_linker_0, # of connection points: 2
#     Edge 12, Type (0, 0), BuildingBlock: AJUNOK_clean_linker_0, # of connection points: 2
#     Edge 13, Type (0, 0), BuildingBlock: AJUNOK_clean_linker_0, # of connection points: 2
#     Edge 14, Type (0, 0), BuildingBlock: AJUNOK_clean_linker_0, # of connection points: 2
#     Edge 15, Type (0, 0), BuildingBlock: AJUNOK_clean_linker_0, # of connection points: 2
#     Edge 16, Type (0, 0), BuildingBlock: AJUNOK_clean_linker_0, # of connection points: 2
#     Edge 17, Type (0, 0), BuildingBlock: AJUNOK_clean_linker_0, # of connection points: 2
#     Edge 18, Type (0, 0), BuildingBlock: AJUNOK_clean_linker_0, # of connection points: 2
#     Edge 19, Type (0, 0), BuildingBlock: AJUNOK_clean_linker_0, # of connection points: 2
#     Edge 20, Type (0, 0), BuildingBlock: AJUNOK_clean_linker_0, # of connection points: 2
#     Edge 21, Type (0, 0), BuildingBlock: AJUNOK_clean_linker_0, # of connection points: 2
#     Edge 22, Type (0, 0), BuildingBlock: AJUNOK_clean_linker_0, # of connection points: 2
#     Edge 23, Type (0, 0), BuildingBlock: AJUNOK_clean_linker_0, # of connection points: 2
#     Edge 24, Type (0, 0), BuildingBlock: AJUNOK_clean_linker_0, # of connection points: 2
#     Edge 25, Type (0, 0), BuildingBlock: AJUNOK_clean_linker_0, # of connection points: 2
#     Edge 26, Type (0, 0), BuildingBlock: AJUNOK_clean_linker_0, # of connection points: 2
#     Edge 27, Type (0, 0), BuildingBlock: AJUNOK_clean_linker_0, # of connection points: 2
#     Edge 28, Type (0, 0), BuildingBlock: AJUNOK_clean_linker_0, # of connection points: 2
#     Edge 29, Type (0, 0), BuildingBlock: AJUNOK_clean_linker_0, # of connection points: 2
#     Edge 30, Type (0, 0), BuildingBlock: AJUNOK_clean_linker_0, # of connection points: 2
#     Edge 31, Type (0, 0), BuildingBlock: AJUNOK_clean_linker_0, # of connection points: 2
# Relax obj value: 0.107
# Max RMSD: 0.199
# Mean RMSD: 0.199
data_MOF--net-vby--node1-KUMJIN_clean_sbu_0--edge1-AJUNOK_clean_linker_0
_symmetry_space_group_name_H-M    P1
_symmetry_Int_Tables_number       1
_symmetry_cell_setting            triclinic
loop_
_symmetry_equiv_pos_as_xyz
'x, y, z'
_cell_length_a     10.875969
_cell_length_b     83.408969
_cell_length_c     22.321845
_cell_angle_alpha  114.52946
_cell_angle_beta   89.94582
_cell_angle_gamma 90.372437
loop_
_atom_site_label
_atom_site_type_symbol
_atom_site_fract_x
_atom_site_fract_y
_atom_site_fract_z
_atom_type_partial_charge
Eu0 Eu 0.11502 0.4068 0.02998 0.0
C1 C 0.8877 0.33741 0.86969 0.0
C2 C 0.70772 0.33827 0.93489 0.0
C3 C 0.69832 0.32278 0.8158 0.0
C4 C 0.83063 0.34324 0.93031 0.0
C5 C 0.82318 0.32663 0.8119 0.0
C6 C 0.64073 0.32856 0.87725 0.0
C7 C 1.01448 0.32179 0.75228 0.0
N8 N 1.00954 0.34073 0.868 0.0
C9 C 0.07472 0.33216 0.81111 0.0
C10 C 0.88757 0.31928 0.75242 0.0
Eu11 Eu 0.10431 0.35972 0.96929 0.0
N12 N 0.89823 0.35249 0.98513 0.0
C13 C 0.8514 0.35582 0.04602 0.0
C14 C 0.65719 0.34265 -0.00271 0.0
C15 C 0.7303 0.35112 0.05303 0.0
H16 H 0.17343 0.33382 0.81092 0.0
H17 H 0.69327 0.35415 0.10152 0.0
H18 H 0.54561 0.32495 0.87982 0.0
H19 H 0.06615 0.31562 0.70705 0.0
H20 H 0.90599 0.36223 0.08974 0.0
H21 H 0.47152 0.40622 0.85555 0.0
H22 H 0.56323 0.33909 0.00288 0.0
H23 H 0.11688 0.43037 0.19753 0.0
H24 H 0.26789 0.40051 0.88943 0.0
H25 H 0.26588 0.44499 0.28556 0.0
H26 H 0.64689 0.31475 0.77186 0.0
H27 H 0.63333 0.42009 0.9387 0.0
H28 H 0.69716 0.43338 0.0575 0.0
H29 H 0.84125 0.31101 0.70696 0.0
H30 H 0.64345 0.44295 0.17361 0.0
N31 N 0.31202 0.41064 0.99158 0.0
C32 C 0.33682 0.40638 0.92666 0.0
C33 C 0.54329 0.41777 0.95429 0.0
C34 C 0.51668 0.42268 0.02086 0.0
C35 C 0.45239 0.40982 0.90712 0.0
C36 C 0.39793 0.41914 0.03849 0.0
H37 H 0.48392 0.44721 0.25912 0.0
N38 N 0.25078 0.42178 0.12041 0.0
C39 C 0.2967 0.43885 0.23508 0.0
C40 C 0.36749 0.42445 0.1044 0.0
C41 C 0.21277 0.43008 0.1846 0.0
C42 C 0.41932 0.44019 0.21985 0.0
C43 C 0.4553 0.4335 0.15389 0.0
O44 O 0.04538 0.43382 0.08241 0.0
O45 O 0.98101 0.38359 0.9876 0.0
O46 O 0.1147 0.36613 0.87993 0.0
O47 O 0.05778 0.39553 0.92246 0.0
O48 O 0.91495 0.40636 0.06204 0.0
O49 O 0.11043 0.42489 0.98247 0.0
O50 O 0.20031 0.33434 0.93118 0.0
O51 O 0.2391 0.38293 0.01364 0.0
O52 O 0.07123 0.40194 0.11956 0.0
O53 O 0.11135 0.37203 0.0808 0.0
O54 O 0.29883 0.36091 0.93302 0.0
O55 O 0.13052 0.34497 0.02986 0.0
C56 C 0.88373 0.39045 0.0222 0.0
C57 C 0.98252 0.44979 0.02013 0.0
C58 C 0.94465 0.47841 0.01739 0.0
C59 C 1.01921 0.46724 0.03484 0.0
C60 C 0.83166 0.4718 0.98577 0.0
C61 C 0.87106 0.4434 0.98749 0.0
C62 C 0.79501 0.45448 0.9715 0.0
C63 C 0.07806 0.38024 0.87247 0.0
C64 C 0.06789 0.43808 0.03351 0.0
C65 C 0.57471 0.43627 0.13625 0.0
C66 C 0.60512 0.43093 0.06999 0.0
C67 C 0.33367 0.37614 0.97637 0.0
C68 C 0.13655 0.3139 0.97404 0.0
C69 C 0.20405 0.30307 -0.00331 0.0
C70 C 0.15731 0.2864 0.98853 0.0
C71 C 0.0433 0.28075 0.95685 0.0
C72 C 1.02306 0.30784 0.9429 0.0
C73 C 0.97687 0.29141 0.93441 0.0
C74 C 0.08572 0.38748 0.12864 0.0
C75 C 0.18315 0.33154 0.98374 0.0
H76 H 0.10695 0.47202 0.05888 0.0
H77 H 0.77316 0.47983 0.97021 0.0
H78 H 0.84427 0.42979 0.97361 0.0
H79 H 0.7086 0.44952 0.94647 0.0
H80 H 0.29177 0.30765 0.02101 0.0
H81 H 1.00629 0.26789 0.94838 0.0
H82 H 0.97013 0.31577 0.92487 0.0
H83 H 0.88936 0.28688 0.90994 0.0
Eu84 Eu 0.97597 0.65929 0.06484 0.0
C85 C 0.7897 0.58904 0.85597 0.0
C86 C 0.5875 0.58536 0.89475 0.0
C87 C 0.63208 0.57209 0.77753 0.0
C88 C 0.70773 0.5925 0.90743 0.0
C89 C 0.75351 0.57843 0.79063 0.0
C90 C 0.54921 0.57557 0.82947 0.0
C91 C 0.96216 0.58017 0.75618 0.0
N92 N 0.90658 0.59536 0.87005 0.0
C93 C 0.99384 0.59065 0.82167 0.0
C94 C 0.84132 0.57412 0.74054 0.0
Eu95 Eu 0.95348 0.61227 0.98259 0.0
N96 N 0.74768 0.60186 0.97008 0.0
C97 C 0.67617 0.60313 0.02224 0.0
C98 C 0.51084 0.5877 0.94813 0.0
C99 C 0.55624 0.59634 0.01215 0.0
H100 H 0.08746 0.59528 0.83361 0.0
H101 H 0.49879 0.59786 0.05377 0.0
H102 H 0.45682 0.57018 0.81878 0.0
H103 H 1.03087 0.57675 0.71783 0.0
H104 H 0.71021 0.60979 0.07201 0.0
H105 H 0.43461 0.67645 0.00851 0.0
H106 H 0.41789 0.58247 0.94047 0.0
H107 H 0.83154 0.67501 0.21197 0.0
H108 H 0.22365 0.66457 0.98403 0.0
H109 H 0.8862 0.68885 0.32987 0.0
H110 H 0.60225 0.56411 0.72755 0.0
H111 H 0.50944 0.68983 0.12361 0.0
H112 H 0.46491 0.69921 0.24404 0.0
H113 H 0.81712 0.56595 0.68984 0.0
H114 H 0.31656 0.7021 0.33136 0.0
N115 N 0.17906 0.67089 0.08407 0.0
C116 C 0.2544 0.67047 0.0345 0.0
C117 C 0.41626 0.68474 0.11321 0.0
C118 C 0.33655 0.68594 0.16411 0.0
C119 C 0.3743 0.67721 0.04819 0.0
C120 C 0.21637 0.67903 0.14779 0.0
H121 H 0.1017 0.69748 0.36359 0.0
N122 N 1.01482 0.67554 0.17921 0.0
C123 C 0.95618 0.6868 0.29295 0.0
C124 C 0.13192 0.68131 0.19692 0.0
C125 C 0.92551 0.679 0.22606 0.0
C126 C 0.07788 0.69173 0.3118 0.0
C127 C 0.16668 0.68961 0.26372 0.0
O128 O 0.86667 0.68341 0.09579 0.0
O129 O 0.83667 0.63699 0.01312 0.0
O130 O 0.91402 0.62313 0.90716 0.0
O131 O 1.02497 0.64905 0.95577 0.0
O132 O 0.77643 0.65722 0.09636 0.0
O133 O 0.98433 0.67608 0.01104 0.0
O134 O 0.06623 0.58851 0.95042 0.0
O135 O 0.0918 0.63449 0.03376 0.0
O136 O 1.02772 0.64823 0.1381 0.0
O137 O 0.92519 0.62145 0.09342 0.0
O138 O 0.15541 0.61392 0.95254 0.0
O139 O 0.92669 0.59311 0.02491 0.0
C140 C 0.74116 0.64254 0.05008 0.0
C141 C 0.9504 0.70662 0.07257 0.0
C142 C 0.93123 0.73546 0.06822 0.0
C143 C 0.89094 0.71783 0.04873 0.0
C144 C 1.031 0.74166 0.11198 0.0
C145 C 0.04877 0.7133 0.11672 0.0
C146 C 0.08898 0.73065 0.13604 0.0
C147 C 0.97183 0.63667 0.90371 0.0
C148 C 0.91064 0.68801 0.05084 0.0
C149 C 0.28803 0.6957 0.28027 0.0
C150 C 0.37247 0.69404 0.23057 0.0
C151 C 0.18905 0.62884 -0.00175 0.0
C152 C 0.08668 0.5736 0.02077 0.0
C153 C 0.0453 0.55732 0.01821 0.0
C154 C 0.11442 0.54807 0.04675 0.0
C155 C 0.22651 0.55538 0.07772 0.0
C156 C 0.19777 0.58082 0.05263 0.0
C157 C 0.2673 0.57169 0.08093 0.0
C158 C 0.98031 0.63429 0.143 0.0
C159 C 1.01168 0.58254 0.98919 0.0
H160 H 0.81424 0.71283 0.0149 0.0
H161 H 0.06251 0.75518 0.12877 0.0
H162 H 0.09433 0.70516 0.13658 0.0
H163 H 0.16496 0.73563 0.17026 0.0
H164 H 0.95994 0.55169 0.9929 0.0
H165 H 0.2818 0.54858 0.1001 0.0
H166 H 0.23069 0.59339 0.05534 0.0
H167 H 0.35321 0.57726 0.10539 0.0
Eu168 Eu 0.1087 0.61249 0.48601 0.0
C169 C 0.98286 0.68617 0.70229 0.0
C170 C 0.7694 0.69162 0.68698 0.0
C171 C 0.86006 0.70468 0.79647 0.0
C172 C 0.882 0.68326 0.66148 0.0
C173 C 0.97379 0.69714 0.77008 0.0
C174 C 0.75808 0.70196 0.75493 0.0
C175 C 0.1926 0.69382 0.77934 0.0
N176 N 0.09191 0.67898 0.67473 0.0
C177 C 0.19731 0.68318 0.71171 0.0
C178 C 0.08014 0.70067 0.80884 0.0
Eu179 Eu 0.09232 0.6607 0.55952 0.0
N180 N 0.89675 0.67338 0.596 0.0
C181 C 0.80547 0.67244 0.55277 0.0
C182 C 0.67305 0.68985 0.64309 0.0
C183 C 0.69192 0.68046 0.57556 0.0
H184 H 0.28452 0.67786 0.68946 0.0
H185 H 0.61895 0.67929 0.54103 0.0
H186 H 0.67188 0.70831 0.77555 0.0
H187 H 0.27576 0.69674 0.80866 0.0
H188 H 0.8197 0.66529 0.5005 0.0
H189 H 0.48129 0.61279 0.65044 0.0
H190 H 0.58502 0.69604 0.66065 0.0
H191 H 0.08795 0.59074 0.32018 0.0
H192 H 0.27682 0.62007 0.62272 0.0
H193 H 0.22421 0.57417 0.22644 0.0
H194 H 0.85095 0.71305 0.84853 0.0
H195 H 0.62968 0.59714 0.56227 0.0
H196 H 0.67845 0.58269 0.44175 0.0
H197 H 0.07697 0.70901 0.86116 0.0
H198 H 0.61078 0.57297 0.32702 0.0
N199 N 0.30739 0.60837 0.51915 0.0
C200 C 0.33977 0.61309 0.58343 0.0
C201 C 0.5393 0.60001 0.54941 0.0
C202 C 0.50519 0.59493 0.48358 0.0
C203 C 0.45577 0.60891 0.59943 0.0
C204 C 0.38615 0.59914 0.46952 0.0
H205 H 0.44242 0.56977 0.24635 0.0
N206 N 0.23073 0.59708 0.39177 0.0
C207 C 0.26063 0.57977 0.27606 0.0
C208 C 0.34775 0.59367 0.40437 0.0
C209 C 0.18412 0.58926 0.32914 0.0
C210 C 0.38365 0.57731 0.28757 0.0
C211 C 0.42784 0.58386 0.35232 0.0
O212 O 1.01087 0.58723 0.4352 0.0
O213 O 0.97489 0.63538 0.53011 0.0
O214 O 0.07483 0.6526 0.64443 0.0
O215 O 0.06113 0.6218 0.59482 0.0
O216 O 0.90864 0.61314 0.45328 0.0
O217 O 0.12485 0.59158 0.51997 0.0
O218 O 0.21615 0.6819 0.56297 0.0
O219 O 0.22296 0.63743 0.51906 0.0
O220 O 0.12771 0.62201 0.40509 0.0
O221 O 1.02625 0.64871 0.45284 0.0
O222 O 0.30397 0.66129 0.56826 0.0
O223 O 0.04652 0.67766 0.50914 0.0
C224 C 0.87684 0.62871 0.49545 0.0
C225 C 0.97339 0.56942 0.49466 0.0
C226 C 0.93949 0.54175 0.50704 0.0
C227 C 1.00968 0.55214 0.48289 0.0
C228 C 0.83068 0.54894 0.54176 0.0
C229 C 0.86583 0.57629 0.53016 0.0
C230 C 0.79438 0.56602 0.55309 0.0
C231 C 0.05895 0.63717 0.64685 0.0
C232 C 0.05451 0.58048 0.47419 0.0
C233 C 0.54784 0.58032 0.36641 0.0
C234 C 0.58624 0.58579 0.43179 0.0
C235 C 0.3298 0.64493 0.53567 0.0
C236 C 0.12437 0.70706 0.55883 0.0
C237 C 0.17306 0.71758 0.52833 0.0
C238 C 0.16043 0.73616 0.55844 0.0
C239 C 0.09778 0.74393 0.61869 0.0
C240 C 0.06187 0.7153 0.61874 0.0
C241 C 0.04846 0.73355 0.64831 0.0
C242 C 0.06858 0.63523 0.40075 0.0
C243 C 0.14349 0.68771 0.5302 0.0
H244 H 0.09296 0.54687 0.45521 0.0
H245 H 0.77481 0.54149 0.56155 0.0
H246 H 0.83849 0.58964 0.54068 0.0
H247 H 0.71146 0.57141 0.58078 0.0
H248 H 0.22276 0.7114 0.48234 0.0
H249 H 0.08618 0.75809 0.64272 0.0
H250 H 1.02447 0.70766 0.64318 0.0
H251 H 1.00022 0.73969 0.6947 0.0
Eu252 Eu 0.99209 0.35755 0.45154 0.0
C253 C 0.87498 0.42729 0.68727 0.0
C254 C 0.6608 0.43406 0.67865 0.0
C255 C 0.7583 0.44426 0.7862 0.0
C256 C 0.77135 0.42579 0.64891 0.0
C257 C 0.86935 0.4365 0.75636 0.0
C258 C 0.65438 0.44307 0.74749 0.0
C259 C 0.08448 0.42999 0.76132 0.0
N260 N 0.98135 0.41969 0.65692 0.0
C261 C 0.08606 0.4211 0.69262 0.0
C262 C 0.97569 0.4377 0.79337 0.0
Eu263 Eu 0.97427 0.40515 0.54052 0.0
N264 N 0.77991 0.41692 0.58244 0.0
C265 C 0.68621 0.41744 0.54272 0.0
C266 C 0.56119 0.43354 0.63817 0.0
C267 C 0.57483 0.4255 0.56985 0.0
H268 H 0.17021 0.41503 0.66838 0.0
H269 H 0.4996 0.42545 0.53805 0.0
H270 H 0.57008 0.44942 0.77121 0.0
H271 H 0.16709 0.43085 0.78952 0.0
H272 H 0.69694 0.41145 0.48979 0.0
H273 H 0.45484 0.33902 0.49106 0.0
H274 H 0.47476 0.43974 0.65909 0.0
H275 H 0.83697 0.34651 0.30729 0.0
H276 H 0.25072 0.35261 0.52235 0.0
H277 H 0.87241 0.33047 0.18872 0.0
H278 H 0.75226 0.45147 0.83906 0.0
H279 H 0.50967 0.32339 0.37337 0.0
H280 H 0.44647 0.3127 0.25477 0.0
H281 H 0.97489 0.44459 0.84659 0.0
H282 H 0.28777 0.3102 0.17275 0.0
N283 N 0.19026 0.34494 0.42396 0.0
C284 C 0.2729 0.3457 0.471 0.0
C285 C 0.41963 0.32928 0.38694 0.0
C286 C 0.33308 0.32802 0.33882 0.0
C287 C 0.38895 0.33805 0.45337 0.0
C288 C 0.21746 0.33604 0.35919 0.0
H289 H 0.0739 0.31673 0.1477 0.0
N290 N 1.01741 0.34224 0.33503 0.0
C291 C 0.94516 0.33149 0.22321 0.0
C292 C 0.12815 0.33456 0.31322 0.0
C293 C 0.92541 0.34058 0.29096 0.0
C294 C 0.05902 0.32378 0.20023 0.0
C295 C 0.15209 0.32517 0.24533 0.0
O296 O 0.86056 0.33588 0.4307 0.0
O297 O 0.856 0.38019 0.50477 0.0
O298 O 0.93376 0.39244 0.61073 0.0
O299 O 0.04726 0.3671 0.55934 0.0
O300 O 0.79398 0.36026 0.42094 0.0
O301 O 1.01272 0.33863 0.49581 0.0
O302 O 0.05625 0.43131 0.56899 0.0
O303 O 0.10631 0.38245 0.49726 0.0
O304 O 0.05704 0.3699 0.38509 0.0
O305 O 0.94259 0.39534 0.42945 0.0
O306 O 0.18726 0.40613 0.54868 0.0
O307 O 0.91782 0.42199 0.4922 0.0
C308 C 0.7603 0.37488 0.4675 0.0
C309 C 0.93558 0.30972 0.43436 0.0
C310 C 0.89005 0.28036 0.42978 0.0
C311 C 0.87505 0.29886 0.45969 0.0
C312 C 0.96728 0.27298 0.3746 0.0
C313 C 1.01116 0.30195 0.37896 0.0
C314 C 1.02704 0.28372 0.34943 0.0
C315 C 0.9943 0.37895 0.61238 0.0
C316 C 0.91832 0.32904 0.46543 0.0
C317 C 0.26769 0.31743 0.22466 0.0
C318 C 0.35803 0.31886 0.27134 0.0
C319 C 0.21296 0.38978 0.51456 0.0
C320 C 0.05602 0.44403 0.4915 0.0
C321 C 1.0205 0.46121 0.50141 0.0
C322 C 0.08405 0.47042 0.47008 0.0
C323 C 0.18211 0.46198 0.42783 0.0
C324 C 0.15366 0.43591 0.44896 0.0
C325 C 0.21621 0.44487 0.41734 0.0
C326 C 1.00971 0.38393 0.38128 0.0
C327 C 0.99175 0.43491 0.52678 0.0
H328 H 0.81737 0.30482 0.50287 0.0
H329 H 0.98015 0.25885 0.35033 0.0
H330 H 0.05758 0.30995 0.35836 0.0
H331 H 0.08555 0.27787 0.30661 0.0
H332 H 0.94507 0.46752 0.53442 0.0
H333 H 0.23182 0.4686 0.40244 0.0
H334 H 0.18172 0.4227 0.44053 0.0
H335 H 0.29188 0.43854 0.38474 0.0
Eu336 Eu 0.61203 0.90668 0.04188 0.0
C337 C 0.42422 0.83186 0.86042 0.0
C338 C 0.22296 0.83056 0.90491 0.0
C339 C 0.26639 0.81231 0.78984 0.0
C340 C 0.34293 0.83775 0.9128 0.0
C341 C 0.388 0.81863 0.79898 0.0
C342 C 0.18386 0.81831 0.84268 0.0
C343 C 0.59722 0.81791 0.76141 0.0
N344 N 0.54176 0.83801 0.87106 0.0
C345 C 0.62905 0.83094 0.82321 0.0
C346 C 0.47606 0.81177 0.74911 0.0
Eu347 Eu 0.59169 0.85904 0.97858 0.0
N348 N 0.38528 0.84902 0.97296 0.0
C349 C 0.31577 0.8524 0.0279 0.0
C350 C 0.1481 0.83515 0.96049 0.0
C351 C 0.19565 0.84583 0.0224 0.0
H352 H 0.72316 0.83555 0.83271 0.0
H353 H 0.13985 0.84904 0.06599 0.0
H354 H 0.09156 0.81286 0.83556 0.0
H355 H 0.66627 0.81255 0.72343 0.0
H356 H 0.35078 0.86059 0.07623 0.0
H357 H 0.98674 0.9044 0.87467 0.0
H358 H 0.05533 0.82998 0.95645 0.0
H359 H 0.59492 0.93183 0.20732 0.0
H360 H 0.78235 0.89769 0.90424 0.0
H361 H 0.73328 0.94863 0.29901 0.0
H362 H 0.23639 0.80236 0.74269 0.0
H363 H 0.1373 0.92052 0.96132 0.0
H364 H 0.18846 0.93586 0.08177 0.0
H365 H 0.45183 0.80159 0.70132 0.0
H366 H 0.12223 0.9468 0.19675 0.0
N367 N 0.81286 0.91044 0.00791 0.0
C368 C 0.84499 0.90512 0.94319 0.0
C369 C 0.04648 0.91801 0.97519 0.0
C370 C 1.01303 0.92375 0.04134 0.0
C371 C 0.96165 0.90886 0.92599 0.0
C372 C 0.89316 0.91994 0.05656 0.0
H373 H 0.9536 0.95158 0.27826 0.0
N374 N 0.73758 0.92318 0.13514 0.0
C375 C 0.7698 0.94202 0.24977 0.0
C376 C 0.85559 0.92608 0.12179 0.0
C377 C 0.69205 0.93217 0.19752 0.0
C378 C 0.89378 0.94372 0.23773 0.0
C379 C 0.9373 0.93622 0.173 0.0
O380 O 0.53078 0.93308 0.08946 0.0
O381 O 0.47632 0.88374 0.00086 0.0
O382 O 0.55608 0.86498 0.88913 0.0
O383 O 0.57366 0.89561 0.93236 0.0
O384 O 0.40827 0.9068 0.07095 0.0
O385 O 0.61967 0.92497 0.99498 0.0
O386 O 0.71174 0.83624 0.95848 0.0
O387 O 0.72883 0.88215 0.02435 0.0
O388 O 0.58576 0.90142 0.13187 0.0
O389 O 0.56033 0.87095 0.08867 0.0
O390 O 0.78943 0.86021 0.94507 0.0
O391 O 0.58406 0.84395 0.03889 0.0
C392 C 0.37704 0.89074 0.033 0.0
C393 C 0.48533 0.94916 0.02488 0.0
C394 C 0.45855 0.97636 0.00927 0.0
C395 C 0.53096 0.96546 0.02926 0.0
C396 C 0.33821 0.97083 0.98674 0.0
C397 C 0.3672 0.94365 3e-05 0.0
C398 C 0.29333 0.95456 0.98187 0.0
C399 C 0.55655 0.88007 0.88271 0.0
C400 C 0.56572 0.93775 0.04305 0.0
C401 C 0.0581 0.93925 0.15799 0.0
C402 C 0.09565 0.93311 0.09238 0.0
C403 C 0.82494 0.87532 0.98868 0.0
C404 C 0.63188 0.81352 0.98614 0.0
C405 C 0.7043 0.80266 0.00664 0.0
C406 C 0.66933 0.7849 0.98999 0.0
C407 C 0.56242 0.77825 0.95218 0.0
C408 C 0.5252 0.80641 0.94932 0.0
C409 C 0.49111 0.78894 0.93217 0.0
C410 C 0.56416 0.88667 0.13809 0.0
C411 C 0.66484 0.8323 0.00444 0.0
H412 H 0.62302 0.96962 0.04812 0.0
H413 H 0.27994 0.97885 0.97101 0.0
H414 H 0.33335 0.93089 0.99443 0.0
H415 H 0.20157 0.95031 0.96301 0.0
H416 H 0.78556 0.8081 0.03641 0.0
H417 H 0.53388 0.76469 0.93787 0.0
H418 H 0.46716 0.81436 0.93422 0.0
H419 H 0.4085 0.78369 0.90348 0.0
Eu420 Eu 0.49323 0.16066 0.05744 0.0
C421 C 0.2355 0.09405 0.91163 0.0
C422 C 0.0808 0.09657 0.99364 0.0
C423 C 1.03153 0.08122 0.87744 0.0
C424 C 0.20031 0.10017 0.97728 0.0
C425 C 0.15194 0.08406 0.86123 0.0
C426 C 0.99613 0.08745 0.9434 0.0
C427 C 0.31618 0.07836 0.7826 0.0
N428 N 0.35277 0.09692 0.897 0.0
C429 C 0.39585 0.08813 0.83403 0.0
C430 C 0.19291 0.07665 0.79601 0.0
Eu431 Eu 0.48116 0.11319 0.98889 0.0
N432 N 0.28288 0.10934 0.02524 0.0
C433 C 0.25422 0.11426 0.09014 0.0
C434 C 0.05008 0.10215 0.0601 0.0
C435 C 0.13767 0.1108 0.10847 0.0
H436 H 0.49241 0.08859 0.82312 0.0
H437 H 0.11517 0.11496 0.15997 0.0
H438 H 0.90352 0.08488 0.95491 0.0
H439 H 0.35065 0.07187 0.73288 0.0
H440 H 0.3206 0.12084 0.12816 0.0
H441 H 0.92905 0.17131 0.95671 0.0
H442 H 0.95945 0.09979 0.07472 0.0
H443 H 0.38853 0.18426 0.21163 0.0
H444 H 0.71478 0.16142 0.95311 0.0
H445 H 0.47157 0.20237 0.32266 0.0
H446 H 0.96587 0.07383 0.8393 0.0
H447 H 1.03731 0.18567 0.06344 0.0
H448 H 1.02813 0.19811 0.18681 0.0
H449 H 0.13156 0.06892 0.75606 0.0
H450 H 0.90319 0.2064 0.28705 0.0
N451 N 0.70104 0.16955 0.05686 0.0
C452 C 0.75999 0.16766 0.0002 0.0
C453 C 0.9428 0.18134 0.06224 0.0
C454 C 0.87937 0.18434 0.12045 0.0
C455 C 0.8819 0.17331 0.00195 0.0
C456 C 0.75635 0.17843 0.11614 0.0
H457 H 0.69493 0.20841 0.33813 0.0
N458 N 0.56416 0.17926 0.16544 0.0
C459 C 0.53303 0.19699 0.28093 0.0
C460 C 0.68579 0.18329 0.17237 0.0
C461 C 0.4864 0.18681 0.21803 0.0
C462 C 0.65921 0.20029 0.28949 0.0
C463 C 0.73684 0.19386 0.23462 0.0
O464 O 0.38539 0.18504 0.0913 0.0
O465 O 0.35933 0.13748 0.00833 0.0
O466 O 0.50271 0.11897 0.89957 0.0
O467 O 0.50956 0.14962 0.94644 0.0
O468 O 0.2949 0.15911 0.08852 0.0
O469 O 0.48522 0.17665 0.00065 0.0
O470 O 0.56872 0.0872 0.9403 0.0
O471 O 0.61541 0.13631 0.03292 0.0
O472 O 0.49081 0.15297 0.1434 0.0
O473 O 0.54027 0.12326 0.09574 0.0
O474 O 0.67911 0.11413 0.95496 0.0
O475 O 0.47045 0.09399 0.03151 0.0
C476 C 0.26214 0.14403 0.04365 0.0
C477 C 0.45965 0.20738 0.06051 0.0
C478 C 0.43095 0.23629 0.05805 0.0
C479 C 0.38851 0.21898 0.04341 0.0
C480 C 0.54491 0.24175 0.0899 0.0
C481 C 0.57235 0.21332 0.09282 0.0
C482 C 0.6146 0.23036 0.10734 0.0
C483 C 0.51129 0.13419 0.89532 0.0
C484 C 0.41821 0.18903 0.04311 0.0
C485 C 0.86201 0.19848 0.2396 0.0
C486 C 0.93313 0.19377 0.18254 0.0
C487 C 0.71138 0.12982 -0.0035 0.0
C488 C 0.61224 0.07086 0.00435 0.0
C489 C 0.57096 0.05411 -0.00274 0.0
C490 C 0.64356 0.04363 0.01913 0.0
C491 C 0.75852 0.05021 0.04799 0.0
C492 C 0.72537 0.07732 0.0348 0.0
C493 C 0.79872 0.06694 0.05589 0.0
C494 C 0.52551 0.13837 0.14738 0.0
C495 C 0.53084 0.08183 0.98443 0.0
H496 H 0.3017 0.21447 0.01794 0.0
H497 H 0.57951 0.25494 0.102 0.0
H498 H 0.62822 0.20478 0.10655 0.0
H499 H 0.70198 0.23475 0.13216 0.0
H500 H 0.48182 0.04929 0.97517 0.0
H501 H 0.81564 0.04263 0.06634 0.0
H502 H 0.75557 0.09045 0.04285 0.0
H503 H 0.88611 0.07199 0.07957 0.0
Eu504 Eu 0.61385 0.11347 0.48231 0.0
C505 C 0.50856 0.18878 0.70517 0.0
C506 C 0.29614 0.19636 0.69783 0.0
C507 C 0.40466 0.20974 0.80246 0.0
C508 C 0.40277 0.18679 0.66847 0.0
C509 C 0.51046 0.20012 0.77281 0.0
C510 C 0.29758 0.20782 0.76508 0.0
C511 C 0.71898 0.19088 0.7774 0.0
N512 N 0.60842 0.17909 0.67498 0.0
C513 C 0.7129 0.17991 0.71007 0.0
C514 C 0.61765 0.20113 0.80886 0.0
Eu515 Eu 0.59348 0.16189 0.55964 0.0
N516 N 0.40552 0.17591 0.60343 0.0
C517 C 0.30671 0.17458 0.56412 0.0
C518 C 0.19219 0.19438 0.65836 0.0
C519 C 0.19786 0.18353 0.59105 0.0
H520 H 0.79136 0.17193 0.68668 0.0
H521 H 0.11883 0.18216 0.55981 0.0
H522 H 0.2166 0.21529 0.78856 0.0
H523 H 0.80185 0.19141 0.80499 0.0
H524 H 0.31221 0.16661 0.51172 0.0
H525 H 0.08575 0.09655 0.51204 0.0
H526 H 0.10814 0.20141 0.67905 0.0
H527 H 0.43977 0.10093 0.34613 0.0
H528 H 0.88078 0.10982 0.54867 0.0
H529 H 0.46181 0.08364 0.22585 0.0
H530 H 0.40427 0.21853 0.85437 0.0
H531 H 0.13086 0.08102 0.39299 0.0
H532 H 0.05483 0.06956 0.27605 0.0
H533 H 0.62256 0.20958 0.86104 0.0
H534 H 0.88438 0.06559 0.19853 0.0
N535 N 0.81411 0.10254 0.45147 0.0
C536 C 0.9005 0.10315 0.49661 0.0
C537 C 1.04122 0.08685 0.40881 0.0
C538 C 0.94894 0.08522 0.36284 0.0
C539 C 1.0161 0.09558 0.47605 0.0
C540 C 0.83398 0.09308 0.38608 0.0
H541 H 0.66241 0.07056 0.17956 0.0
N542 N 0.62682 0.09793 0.36668 0.0
C543 C 0.53992 0.0855 0.25813 0.0
C544 C 0.73735 0.09056 0.34242 0.0
C545 C 0.52765 0.09526 0.32608 0.0
C546 C 0.6535 0.07813 0.23214 0.0
C547 C 0.75388 0.08052 0.27436 0.0
O548 O 0.52733 0.0876 0.45276 0.0
O549 O 0.48134 0.13642 0.519 0.0
O550 O 0.53657 0.15183 0.63505 0.0
O551 O 0.63803 0.12495 0.59438 0.0
O552 O 0.40165 0.1124 0.47092 0.0
O553 O 0.65715 0.09688 0.53392 0.0
O554 O 0.71286 0.18291 0.5577 0.0
O555 O 0.72541 0.13861 0.52412 0.0
O556 O 0.65984 0.12516 0.40951 0.0
O557 O 0.53038 0.14885 0.45359 0.0
O558 O 0.80556 0.16263 0.56887 0.0
O559 O 0.53934 0.1778 0.50661 0.0
C560 C 0.37517 0.12885 0.50211 0.0
C561 C 0.51616 0.07438 0.52841 0.0
C562 C 0.47949 0.04695 0.54157 0.0
C563 C 0.54598 0.0567 0.51346 0.0
C564 C 0.38332 0.05535 0.58543 0.0
C565 C 0.42 0.08244 0.57213 0.0
C566 C 0.35401 0.07293 0.60045 0.0
C567 C 0.57683 0.13772 0.64161 0.0
C568 C 0.58542 0.08398 0.49675 0.0
C569 C 0.86957 0.07322 0.25074 0.0
C570 C 0.96681 0.07555 0.29487 0.0
C571 C 0.83169 0.14618 0.53902 0.0
C572 C 0.61736 0.20714 0.54789 0.0
C573 C 0.66901 0.21666 0.5143 0.0
C574 C 0.65193 0.23509 0.53815 0.0
C575 C 0.58397 0.24375 0.59626 0.0
C576 C 0.54995 0.21621 0.60552 0.0
C577 C 0.5332 0.23436 0.62942 0.0
C578 C 0.59695 0.13799 0.40425 0.0
C579 C 0.63666 0.18791 0.52388 0.0
H580 H 0.62174 0.05062 0.48037 0.0
H581 H 0.32975 0.04825 0.60761 0.0
H582 H 0.3959 0.09601 0.58407 0.0
H583 H 0.27941 0.07918 0.63403 0.0
H584 H 0.72192 0.20978 0.46986 0.0
H585 H 0.57204 0.25791 0.61691 0.0
H586 H 0.51128 0.20935 0.63258 0.0
H587 H 0.48165 0.2412 0.6743 0.0
Eu588 Eu 0.45353 0.86067 0.46936 0.0
C589 C 0.28527 0.9313 0.68288 0.0
C590 C 0.07724 0.93421 0.65009 0.0
C591 C 0.13353 0.94739 0.76596 0.0
C592 C 0.1973 0.92743 0.63402 0.0
C593 C 0.25522 0.94176 0.74919 0.0
C594 C 0.04473 0.94366 0.71645 0.0
C595 C 0.47099 0.94253 0.77618 0.0
N596 N 0.40263 0.92605 0.66494 0.0
C597 C 0.49638 0.93237 0.70968 0.0
C598 C 0.34954 0.94698 0.79618 0.0
Eu599 Eu 0.43795 0.90859 0.55148 0.0
N600 N 0.23171 0.91833 0.57036 0.0
C601 C 0.15535 0.91735 0.52038 0.0
C602 C 0.99514 0.93194 0.59888 0.0
C603 C 1.03534 0.92383 0.53374 0.0
H604 H 0.59048 0.92903 0.69397 0.0
H605 H 0.97382 0.92248 0.4938 0.0
H606 H 0.95239 0.94869 0.7298 0.0
H607 H 0.54503 0.94701 0.81184 0.0
H608 H 0.18592 0.91108 0.46984 0.0
H609 H 0.90763 0.84367 0.52867 0.0
H610 H 0.90211 0.93692 0.60912 0.0
H611 H 0.31345 0.84716 0.32136 0.0
H612 H 0.70019 0.85647 0.55193 0.0
H613 H 0.36274 0.83037 0.20401 0.0
H614 H 0.10836 0.95524 0.81676 0.0
H615 H 0.97823 0.82812 0.41354 0.0
H616 H 0.93085 0.8168 0.29271 0.0
H617 H 0.33019 0.95506 0.84745 0.0
H618 H 0.78248 0.81302 0.20455 0.0
N619 N 0.65387 0.84862 0.45103 0.0
C620 C 0.72934 0.84968 0.50142 0.0
C621 C 0.88681 0.8337 0.42342 0.0
C622 C 0.80706 0.83198 0.37191 0.0
C623 C 0.8472 0.84243 0.48846 0.0
C624 C 0.68928 0.83959 0.3875 0.0
H625 H 0.57046 0.81791 0.17103 0.0
N626 N 0.49216 0.84455 0.35502 0.0
C627 C 0.43199 0.83227 0.24118 0.0
C628 C 0.60583 0.83741 0.33792 0.0
C629 C 0.40433 0.84177 0.30788 0.0
C630 C 0.5494 0.82527 0.22275 0.0
C631 C 0.63774 0.82765 0.27133 0.0
O632 O 0.32296 0.83874 0.44399 0.0
O633 O 0.31861 0.88354 0.52147 0.0
O634 O 0.43228 0.89904 0.63258 0.0
O635 O 0.49549 0.8698 0.57795 0.0
O636 O 0.25776 0.86349 0.43645 0.0
O637 O 0.4661 0.84189 0.51471 0.0
O638 O 0.53824 0.93354 0.58029 0.0
O639 O 0.5679 0.88553 0.51129 0.0
O640 O 0.52314 0.87208 0.40054 0.0
O641 O 0.41025 0.89766 0.44004 0.0
O642 O 0.64986 0.90903 0.56446 0.0
O643 O 0.40515 0.92579 0.50123 0.0
C644 C 0.22311 0.87793 0.48385 0.0
C645 C 0.39541 0.81278 0.45053 0.0
C646 C 0.36051 0.7835 0.44868 0.0
C647 C 0.346 0.80199 0.47951 0.0
C648 C 0.42766 0.77608 0.38975 0.0
C649 C 0.46113 0.80496 0.39145 0.0
C650 C 0.47771 0.78676 0.36154 0.0
C651 C 0.4698 0.88393 0.63188 0.0
C652 C 0.37528 0.83205 0.48088 0.0
C653 C 0.75603 0.82047 0.25544 0.0
C654 C 0.84053 0.82264 0.30563 0.0
C655 C 0.67477 0.89263 0.53056 0.0
C656 C 0.55587 0.94687 0.50492 0.0
C657 C 0.5273 0.96437 0.51658 0.0
C658 C 0.5954 0.97345 0.48641 0.0
C659 C 0.69379 0.9647 0.44498 0.0
C660 C 0.65312 0.93834 0.46281 0.0
C661 C 0.72188 0.94728 0.43318 0.0
C662 C 0.4776 0.88579 0.39363 0.0
C663 C 0.48269 0.93788 0.53749 0.0
H664 H 0.29422 0.80789 0.52492 0.0
H665 H 0.44169 0.76197 0.36556 0.0
H666 H 0.49879 0.81287 0.36803 0.0
H667 H 0.52887 0.78089 0.316 0.0
H668 H 0.4512 0.97087 0.54873 0.0
H669 H 0.7501 0.97139 0.4223 0.0
H670 H 0.67601 0.92487 0.45322 0.0
H671 H 0.79771 0.94071 0.40111 0.0
C672 C 0.52941 0.38715 0.05199 0.0
C673 C 0.47389 0.38024 0.98876 0.0
C674 C 0.65981 0.38999 0.06138 0.0
C675 C 0.74513 0.38554 0.00841 0.0
H676 H 0.47162 0.3905 0.09495 0.0
H677 H 0.6946 0.39571 0.11137 0.0
S678 S 0.65073 0.36759 0.83262 0.0
N679 N 0.51943 0.36908 0.87186 0.0
N680 N 0.75876 0.37474 0.88984 0.0
C681 C 0.69081 0.3787 0.94514 0.0
C682 C 0.5583 0.37577 0.93543 0.0
C683 C 0.4155 0.62988 0.96186 0.0
C684 C 0.32857 0.63335 0.01374 0.0
C685 C 0.54622 0.63247 0.9724 0.0
C686 C 0.60068 0.63846 0.03581 0.0
H687 H 0.38185 0.62505 0.91175 0.0
H688 H 0.60501 0.62977 0.93018 0.0
S689 S 0.42074 0.64753 0.18879 0.0
N690 N 0.3135 0.64173 0.13113 0.0
N691 N 0.55279 0.6469 0.15121 0.0
C692 C 0.51496 0.64171 0.08792 0.0
C693 C 0.38221 0.63899 0.07703 0.0
C694 C 0.65429 0.62908 0.45433 0.0
C695 C 0.73818 0.6336 0.50805 0.0
C696 C 0.52385 0.63188 0.46246 0.0
C697 C 0.46632 0.63884 0.52509 0.0
H698 H 0.69021 0.62333 0.40465 0.0
H699 H 0.46769 0.62871 0.41894 0.0
S700 S 0.63858 0.65229 0.68309 0.0
N701 N 0.74792 0.64484 0.62696 0.0
N702 N 0.50877 0.65058 0.6424 0.0
C703 C 0.54925 0.64349 0.57919 0.0
C704 C 0.68182 0.64052 0.57083 0.0
C705 C 0.56379 0.38403 0.54374 0.0
C706 C 0.62019 0.37874 0.48106 0.0
C707 C 0.43313 0.38665 0.55321 0.0
C708 C 0.3483 0.38339 0.50061 0.0
H709 H 0.62123 0.38652 0.58631 0.0
H710 H 0.39807 0.39154 0.60302 0.0
S711 S 0.44449 0.36906 0.3263 0.0
N712 N 0.57554 0.37011 0.36518 0.0
N713 N 0.3361 0.37485 0.38312 0.0
C714 C 0.40349 0.37783 0.43788 0.0
C715 C 0.53615 0.37537 0.42821 0.0
C716 C 1.02167 0.88756 0.06421 0.0
C717 C 0.96587 0.87956 0.00107 0.0
C718 C 0.15228 0.89066 0.07317 0.0
C719 C 0.23807 0.88548 0.02004 0.0
H720 H 0.96389 0.89163 0.10746 0.0
H721 H 0.18679 0.89727 0.12304 0.0
S722 S 0.14329 0.86414 0.84427 0.0
N723 N 1.01215 0.86634 0.88416 0.0
N724 N 0.25129 0.87237 0.9011 0.0
C725 C 0.18354 0.87734 0.9569 0.0
C726 C 0.05086 0.87418 0.94768 0.0
C727 C 1.03654 0.14411 0.08198 0.0
C728 C 0.12243 0.1397 0.02919 0.0
C729 C 0.9061 0.1413 0.07245 0.0
C730 C 0.8508 0.13451 0.00923 0.0
H731 H 0.07101 0.14962 0.13203 0.0
H732 H 0.84826 0.14443 0.11528 0.0
S733 S 1.02749 0.12294 0.85365 0.0
N734 N 0.13587 0.12959 0.9108 0.0
N735 N 0.89611 0.12429 0.89268 0.0
C736 C 0.93521 0.13046 0.95611 0.0
C737 C 0.06797 0.13324 0.96592 0.0
C738 C 0.15855 0.13175 0.45921 0.0
C739 C 0.23954 0.13514 0.51338 0.0
C740 C 1.02785 0.1345 0.46643 0.0
C741 C 0.9675 0.14004 0.52816 0.0
H742 H 0.19681 0.12682 0.41007 0.0
H743 H 0.97361 0.13226 0.42298 0.0
S744 S 0.13051 0.14945 0.68562 0.0
N745 N 0.24295 0.1435 0.631 0.0
N746 N 1.00295 0.14868 0.6445 0.0
C747 C 0.04712 0.14328 0.58235 0.0
C748 C 0.1799 0.14061 0.57505 0.0
C749 C 0.86627 0.88001 0.45509 0.0
C750 C 0.81019 0.88608 0.51797 0.0
C751 C 0.99685 0.87751 0.44572 0.0
C752 C 0.08241 0.88129 0.49842 0.0
H753 H 0.80911 0.87763 0.41249 0.0
H754 H 1.03178 0.87288 0.39596 0.0
S755 S 0.98554 0.89602 0.673 0.0
N756 N 0.85461 0.89503 0.63402 0.0
N757 N 0.09431 0.88996 0.61625 0.0
C758 C 1.02705 0.8868 0.56127 0.0
C759 C 0.89411 0.88942 0.5709 0.0
C760 C 0.14925 0.51597 0.01879 0.0
C761 C 0.07086 0.53065 0.04275 0.0
C762 C 0.10838 0.49925 0.01177 0.0
C763 C 0.9876 0.49653 0.02877 0.0
H764 H 0.2421 0.51731 0.0038 0.0
H765 H 0.17116 0.48827 0.99132 0.0
S766 S 0.75062 0.53112 0.10085 0.0
N767 N 0.86966 0.54166 0.08789 0.0
N768 N 0.79331 0.51038 0.07558 0.0
C769 C 0.90957 0.51125 0.05471 0.0
C770 C 0.95103 0.52824 0.0615 0.0
C771 C 0.92647 0.49268 0.47183 0.0
C772 C 0.04878 0.48875 0.48099 0.0
C773 C 0.89251 0.50971 0.4796 0.0
C774 C 0.97918 0.52361 0.49733 0.0
H775 H 0.85672 0.48243 0.45742 0.0
H776 H 0.79747 0.51194 0.47096 0.0
S777 S 0.30955 0.52055 0.53317 0.0
N778 N 0.25563 0.50038 0.51211 0.0
N779 N 0.19187 0.53233 0.528 0.0
C780 C 0.10147 0.51988 0.50784 0.0
C781 C 0.13611 0.50252 0.49944 0.0
C782 C 0.43662 1.00879 0.03748 0.0
C783 C 0.50794 0.99336 0.01111 0.0
C784 C 0.48039 0.02488 0.03913 0.0
C785 C 0.59747 0.02624 0.01459 0.0
H786 H 0.34661 1.00849 0.05783 0.0
H787 H 0.42288 0.03643 0.06088 0.0
S788 S 0.8161 0.9895 0.93475 0.0
N789 N 0.69855 0.98032 0.95583 0.0
N790 N 0.78105 0.01053 0.95969 0.0
C791 C 0.66898 0.01088 0.98716 0.0
C792 C 0.62426 0.99448 0.98524 0.0
C793 C 0.51907 0.02238 0.57695 0.0
C794 C 0.5101 0.02814 0.52598 0.0
C795 C 0.54597 1.00476 0.56377 0.0
C796 C 0.56526 0.99208 0.49902 0.0
H797 H 0.50647 0.03164 0.62771 0.0
H798 H 0.5534 1.00109 0.60483 0.0
S799 S 0.54212 0.99987 0.34728 0.0
N800 N 0.51612 0.01937 0.40766 0.0
N801 N 0.56675 0.98636 0.383 0.0
C802 C 0.55507 0.99758 0.44749 0.0
C803 C 0.5276 0.01554 0.46091 0.0
C804 C 0.35064 0.27022 0.99083 0.0
C805 C 0.22762 0.27441 0.01028 0.0
C806 C 0.41485 0.25773 0.00569 0.0
C807 C 0.35861 0.24888 0.04045 0.0
H808 H 0.39679 0.27633 0.96254 0.0
H809 H 0.50912 0.25483 0.98921 0.0
S810 S 0.04246 0.2564 0.10843 0.0
N811 N 0.055 0.26961 0.07039 0.0
N812 N 0.17535 0.24609 0.09766 0.0
C813 C 0.2366 0.25321 0.06135 0.0
C814 C 0.17139 0.26599 0.04656 0.0
C815 C 0.67754 0.76262 0.03871 0.0
C816 C 0.74038 0.773 0.01197 0.0
C817 C 0.73926 0.75026 0.05515 0.0
C818 C 0.86675 0.74779 0.04601 0.0
H819 H 0.5793 0.76409 0.04709 0.0
H820 H 0.68702 0.74279 0.07633 0.0
S821 S 0.07375 0.77079 0.97437 0.0
N822 N 0.93714 0.77938 0.97475 0.0
N823 N 0.05348 0.75631 0.00636 0.0
C824 C 0.93093 0.75801 0.01917 0.0
C825 C 0.86787 0.77058 0.00217 0.0
C826 C 0.28787 0.76233 0.5669 0.0
C827 C 0.21282 0.74779 0.52874 0.0
C828 C 0.33325 0.77407 0.54142 0.0
C829 C 0.30559 0.77169 0.47673 0.0
H830 H 0.31209 0.76462 0.61688 0.0
H831 H 0.39207 0.78489 0.57213 0.0
S832 S 0.10163 0.73712 0.35936 0.0
N833 N 0.10482 0.73272 0.42502 0.0
N834 N 0.19161 0.7545 0.37675 0.0
C835 C 0.22881 0.75745 0.43859 0.0
C836 C 0.18223 0.74557 0.46461 0.0
C837 C 0.89227 0.25537 0.46538 0.0
C838 C 0.8263 0.26859 0.45553 0.0
C839 C 0.83456 0.24415 0.48971 0.0
C840 C 0.70849 0.24567 0.50514 0.0
H841 H 0.99005 0.25393 0.45549 0.0
H842 H 0.88995 0.23459 0.49847 0.0
S843 S 0.49113 0.27657 0.48039 0.0
N844 N 0.62574 0.28147 0.45781 0.0
N845 N 0.51735 0.26043 0.50326 0.0
C846 C 0.64063 0.2584 0.49322 0.0
C847 C 0.69942 0.26984 0.46864 0.0
C848 C 0.12875 0.37533 0.21096 0.0
C849 C 0.07016 0.38809 0.1955 0.0
C850 C 0.10958 0.37443 0.2713 0.0
C851 C 1.02978 0.38611 0.31907 0.0
H852 H 0.18992 0.36582 0.17595 0.0
H853 H 0.15775 0.36429 0.27991 0.0
S854 S 0.85481 0.42227 0.30327 0.0
N855 N 0.93015 0.41295 0.23305 0.0
N856 N 0.89346 0.41122 0.34694 0.0
C857 C 0.97209 0.39922 0.30489 0.0
C858 C 0.99242 0.40021 0.24309 0.0
C859 C 0.10376 0.62609 0.21981 0.0
C860 C 0.99476 0.63292 0.20625 0.0
C861 C 0.12609 0.62659 0.28258 0.0
C862 C 1.04117 0.63428 0.33421 0.0
H863 H 0.17306 0.62059 0.18196 0.0
H864 H 0.21195 0.62137 0.29121 0.0
S865 S 0.73709 0.65263 0.32138 0.0
N866 N 0.79751 0.64637 0.24723 0.0
N867 N 0.84014 0.64785 0.36571 0.0
C868 C 0.9305 0.64078 0.32045 0.0
C869 C 0.90708 0.63995 0.25627 0.0
C870 C 0.08379 0.64733 0.82861 0.0
C871 C 0.98776 0.63721 0.83829 0.0
C872 C 0.10555 0.64737 0.76667 0.0
C873 C 1.03331 0.63712 0.7118 0.0
H874 H 0.14433 0.65508 0.86886 0.0
H875 H 0.18144 0.65514 0.76135 0.0
S876 S 0.76013 0.61036 0.71179 0.0
N877 N 0.81077 0.61834 0.7885 0.0
N878 N 0.85647 0.6177 0.67159 0.0
C879 C 0.93547 0.62728 0.72076 0.0
C880 C 0.91137 0.62753 0.78412 0.0
C881 C 0.94312 0.38898 0.73215 0.0
C882 C 1.01296 0.37813 0.67723 0.0
C883 C 0.9647 0.38952 0.7949 0.0
C884 C 0.05572 0.37902 0.80526 0.0
H885 H 0.87155 0.39727 0.72697 0.0
H886 H 0.90907 0.39821 0.8356 0.0
S887 S 0.26475 0.34834 0.67893 0.0
N888 N 0.17709 0.35648 0.63812 0.0
N889 N 0.2174 0.35765 0.75599 0.0
C890 C 0.12495 0.36791 0.75096 0.0
C891 C 0.10343 0.36739 0.687 0.0
C892 C 0.59881 0.87489 0.22182 0.0
C893 C 0.5438 0.88752 0.20456 0.0
C894 C 0.57904 0.87487 0.2836 0.0
C895 C 0.5 0.88711 0.3301 0.0
H896 H 0.65878 0.865 0.18746 0.0
H897 H 0.62646 0.86506 0.29455 0.0
S898 S 0.33382 0.92308 0.30804 0.0
N899 N 0.40938 0.91289 0.23833 0.0
N900 N 0.36815 0.91256 0.35424 0.0
C901 C 0.44522 0.90001 0.31353 0.0
C902 C 0.46784 0.90024 0.25076 0.0
C903 C 0.47063 0.1482 0.26557 0.0
C904 C 0.5493 0.13882 0.21294 0.0
C905 C 0.4879 0.14802 0.32746 0.0
C906 C 0.58557 0.13865 0.33914 0.0
H907 H 0.39312 0.15532 0.25839 0.0
H908 H 0.42258 0.15504 0.36599 0.0
S909 S 0.82884 0.11443 0.21943 0.0
N910 N 0.73435 0.12127 0.17723 0.0
N911 N 0.77057 0.12155 0.29433 0.0
C912 C 0.66855 0.12996 0.28748 0.0
C913 C 0.6494 0.12988 0.22414 0.0
C914 C 0.59521 0.12206 0.78 0.0
C915 C 0.52199 0.13435 0.82958 0.0
C916 C 0.61229 0.12317 0.71928 0.0
C917 C 0.55599 0.13653 0.70585 0.0
H918 H 0.64222 0.11182 0.78882 0.0
H919 H 0.67128 0.11359 0.68306 0.0
S920 S 0.34203 0.17046 0.81796 0.0
N921 N 0.38473 0.15922 0.85995 0.0
N922 N 0.41435 0.16131 0.74683 0.0
C923 C 0.47851 0.14842 0.75474 0.0
C924 C 0.46217 0.14733 0.81628 0.0
C925 C 0.55442 0.89592 0.74599 0.0
C926 C 0.48869 0.88272 0.69524 0.0
C927 C 0.57566 0.89481 0.80595 0.0
C928 C 0.534 0.88026 0.81728 0.0
H929 H 0.59292 0.90696 0.7389 0.0
H930 H 0.62655 0.90546 0.84341 0.0
S931 S 0.35391 0.84233 0.69932 0.0
N932 N 0.37966 0.85484 0.65957 0.0
N933 N 0.42096 0.8525 0.77191 0.0
C934 C 0.46873 0.86687 0.76633 0.0
C935 C 0.4461 0.86813 0.70538 0.0
loop_
_geom_bond_atom_site_label_1
_geom_bond_atom_site_label_2
_geom_bond_distance
_geom_bond_site_symmetry_2
_ccdc_geom_bond_type
Eu0 N31 2.657 . S
Eu0 N38 2.609 . S
Eu0 O44 2.558 . S
Eu0 O45 2.612 1_455 S
Eu0 O47 2.339 1_554 S
Eu0 O48 2.563 1_455 S
Eu0 O49 2.419 . S
Eu0 O51 2.380 . S
Eu0 O52 2.432 . S
Eu0 C64 2.848 . S
C1 C4 1.429 . S
C1 C5 1.411 . S
C1 N8 1.377 . S
C2 C4 1.420 . S
C2 C6 1.423 . S
C2 C14 1.392 1_556 S
C3 C5 1.420 . S
C3 C6 1.351 . S
C3 H26 0.931 . S
C4 C1 1.429 . S
C4 C2 1.420 . S
C4 N12 1.362 1_556 S
C5 C1 1.411 . S
C5 C3 1.420 . S
C5 C10 1.395 . S
C6 C2 1.423 . S
C6 C3 1.351 . S
C6 H18 0.930 . S
C7 C9 1.400 . S
C7 C10 1.386 . S
C7 H19 0.930 . S
N8 C1 1.377 . S
N8 C9 1.321 . S
N8 Eu11 2.609 1_655 S
C9 C7 1.400 . S
C9 N8 1.321 . S
C9 H16 0.930 1_655 S
C10 C5 1.395 . S
C10 C7 1.386 . S
C10 H29 0.930 . S
Eu11 N8 2.609 1_455 S
Eu11 N12 2.657 1_456 S
Eu11 O45 2.380 1_456 S
Eu11 O46 2.432 . S
Eu11 O50 2.558 . S
Eu11 O51 2.612 1_556 S
Eu11 O53 2.339 1_556 S
Eu11 O54 2.563 . S
Eu11 O55 2.419 1_556 S
Eu11 C75 2.848 . S
N12 C4 1.362 1_554 S
N12 Eu11 2.657 1_654 S
N12 C13 1.334 . S
C13 N12 1.334 . S
C13 C15 1.413 . S
C13 H20 0.929 . S
C14 C2 1.392 1_554 S
C14 C15 1.367 . S
C14 H22 0.930 . S
C15 C13 1.413 . S
C15 C14 1.367 . S
C15 H17 0.930 . S
H16 C9 0.930 1_455 S
H17 C15 0.930 . S
H18 C6 0.930 . S
H19 C7 0.930 . S
H20 C13 0.929 . S
H21 C35 0.930 . S
H22 C14 0.930 . S
H23 C41 0.930 . S
H24 C32 0.929 . S
H25 C39 0.930 . S
H26 C3 0.931 . S
H27 C33 0.930 . S
H28 C66 0.930 . S
H29 C10 0.930 . S
H30 C65 0.931 . S
N31 Eu0 2.657 . S
N31 C32 1.334 1_554 S
N31 C36 1.362 . S
C32 H24 0.929 . S
C32 N31 1.334 1_556 S
C32 C35 1.413 . S
C33 H27 0.930 . S
C33 C34 1.392 1_556 S
C33 C35 1.367 . S
C34 C33 1.392 1_554 S
C34 C36 1.420 . S
C34 C66 1.423 . S
C35 H21 0.930 . S
C35 C32 1.413 . S
C35 C33 1.367 . S
C36 N31 1.362 . S
C36 C34 1.420 . S
C36 C40 1.429 . S
H37 C42 0.930 . S
N38 Eu0 2.609 . S
N38 C40 1.377 . S
N38 C41 1.321 . S
C39 H25 0.930 . S
C39 C41 1.400 . S
C39 C42 1.386 . S
C40 C36 1.429 . S
C40 N38 1.377 . S
C40 C43 1.411 . S
C41 H23 0.930 . S
C41 N38 1.321 . S
C41 C39 1.400 . S
C42 H37 0.930 . S
C42 C39 1.386 . S
C42 C43 1.395 . S
C43 C40 1.411 . S
C43 C42 1.395 . S
C43 C65 1.420 . S
O44 Eu0 2.558 . S
O44 C64 1.257 . S
O45 Eu0 2.612 1_655 S
O45 Eu11 2.380 1_654 S
O45 C56 1.276 . S
O46 Eu11 2.432 . S
O46 C63 1.264 . S
O47 Eu0 2.339 1_556 S
O47 C63 1.254 . S
O48 Eu0 2.563 1_655 S
O48 C56 1.235 . S
O49 Eu0 2.419 . S
O49 C64 1.249 . S
O50 Eu11 2.558 . S
O50 C75 1.257 . S
O51 Eu0 2.380 . S
O51 Eu11 2.612 1_554 S
O51 C67 1.276 . S
O52 Eu0 2.432 . S
O52 C74 1.264 . S
O53 Eu11 2.339 1_554 S
O53 C74 1.254 . S
O54 Eu11 2.563 . S
O54 C67 1.235 1_556 S
O55 Eu11 2.419 1_554 S
O55 C75 1.249 1_554 S
C56 O45 1.276 . S
C56 O48 1.235 . S
C57 C59 1.393 . S
C57 C61 1.395 . S
C57 C64 1.492 1_655 S
C58 C59 1.392 . S
C58 C60 1.386 . S
C59 C57 1.393 . S
C59 C58 1.392 . S
C59 H76 0.922 1_554 S
C60 C58 1.386 . S
C60 C62 1.395 . S
C60 H77 0.930 . S
C61 C57 1.395 . S
C61 C62 1.379 . S
C61 H78 0.930 . S
C62 C60 1.395 . S
C62 C61 1.379 . S
C62 H79 0.930 . S
C63 O46 1.264 . S
C63 O47 1.254 . S
C64 Eu0 2.848 . S
C64 O44 1.257 . S
C64 O49 1.249 . S
C64 C57 1.492 1_455 S
C65 H30 0.931 . S
C65 C43 1.420 . S
C65 C66 1.351 . S
C66 H28 0.930 . S
C66 C34 1.423 . S
C66 C65 1.351 . S
C67 O51 1.276 . S
C67 O54 1.235 1_554 S
C68 C69 1.393 . S
C68 C72 1.395 . S
C68 C75 1.492 . S
C69 C68 1.393 . S
C69 C70 1.392 . S
C69 H80 0.930 1_556 S
C70 C69 1.392 . S
C70 C71 1.386 . S
C71 C70 1.386 . S
C71 C73 1.395 . S
C71 H81 0.930 . S
C72 C68 1.395 . S
C72 C73 1.379 . S
C72 H82 0.930 . S
C73 C71 1.395 . S
C73 C72 1.379 . S
C73 H83 0.930 . S
C74 O52 1.264 . S
C74 O53 1.254 . S
C75 Eu11 2.848 . S
C75 O50 1.257 . S
C75 O55 1.249 1_556 S
C75 C68 1.492 . S
H76 C59 0.922 1_556 S
H77 C60 0.930 . S
H78 C61 0.930 . S
H79 C62 0.930 . S
H80 C69 0.930 1_554 S
H81 C71 0.930 . S
H82 C72 0.930 . S
H83 C73 0.930 . S
Eu84 N115 2.657 1_655 S
Eu84 N122 2.609 1_655 S
Eu84 O128 2.558 . S
Eu84 O129 2.612 . S
Eu84 O131 2.339 1_554 S
Eu84 O132 2.563 . S
Eu84 O133 2.419 . S
Eu84 O135 2.380 1_655 S
Eu84 O136 2.432 . S
Eu84 C148 2.848 . S
C85 C88 1.429 . S
C85 C89 1.411 . S
C85 N92 1.377 . S
C86 C88 1.420 . S
C86 C90 1.423 . S
C86 C98 1.392 1_556 S
C87 C89 1.420 . S
C87 C90 1.351 . S
C87 H110 0.931 . S
C88 C85 1.429 . S
C88 C86 1.420 . S
C88 N96 1.362 1_556 S
C89 C85 1.411 . S
C89 C87 1.420 . S
C89 C94 1.395 . S
C90 C86 1.423 . S
C90 C87 1.351 . S
C90 H102 0.930 . S
C91 C93 1.400 . S
C91 C94 1.386 . S
C91 H103 0.930 . S
N92 C85 1.377 . S
N92 C93 1.321 . S
N92 Eu95 2.609 . S
C93 C91 1.400 . S
C93 N92 1.321 . S
C93 H100 0.930 . S
C94 C89 1.395 . S
C94 C91 1.386 . S
C94 H113 0.930 . S
Eu95 N92 2.609 . S
Eu95 N96 2.657 1_556 S
Eu95 O129 2.380 1_556 S
Eu95 O130 2.432 . S
Eu95 O134 2.558 . S
Eu95 O135 2.612 1_656 S
Eu95 O137 2.339 1_556 S
Eu95 O138 2.563 1_655 S
Eu95 O139 2.419 1_556 S
Eu95 C159 2.848 . S
N96 C88 1.362 1_554 S
N96 Eu95 2.657 1_554 S
N96 C97 1.334 . S
C97 N96 1.334 . S
C97 C99 1.413 . S
C97 H104 0.929 . S
C98 C86 1.392 1_554 S
C98 C99 1.367 . S
C98 H106 0.930 . S
C99 C97 1.413 . S
C99 C98 1.367 . S
C99 H101 0.930 . S
H100 C93 0.930 . S
H101 C99 0.930 . S
H102 C90 0.930 . S
H103 C91 0.930 . S
H104 C97 0.929 . S
H105 C119 0.930 . S
H106 C98 0.930 . S
H107 C125 0.930 1_655 S
H108 C116 0.929 . S
H109 C123 0.930 . S
H110 C87 0.931 . S
H111 C117 0.930 . S
H112 C150 0.930 . S
H113 C94 0.930 . S
H114 C149 0.931 . S
N115 Eu84 2.657 1_455 S
N115 C116 1.334 1_554 S
N115 C120 1.362 . S
C116 H108 0.929 . S
C116 N115 1.334 1_556 S
C116 C119 1.413 . S
C117 H111 0.930 . S
C117 C118 1.392 1_556 S
C117 C119 1.367 . S
C118 C117 1.392 1_554 S
C118 C120 1.420 . S
C118 C150 1.423 . S
C119 H105 0.930 . S
C119 C116 1.413 . S
C119 C117 1.367 . S
C120 N115 1.362 . S
C120 C118 1.420 . S
C120 C124 1.429 . S
H121 C126 0.930 . S
N122 Eu84 2.609 1_455 S
N122 C124 1.377 . S
N122 C125 1.321 . S
C123 H109 0.930 . S
C123 C125 1.400 . S
C123 C126 1.386 . S
C124 C120 1.429 . S
C124 N122 1.377 . S
C124 C127 1.411 . S
C125 H107 0.930 1_455 S
C125 N122 1.321 . S
C125 C123 1.400 . S
C126 H121 0.930 . S
C126 C123 1.386 . S
C126 C127 1.395 . S
C127 C124 1.411 . S
C127 C126 1.395 . S
C127 C149 1.420 . S
O128 Eu84 2.558 . S
O128 C148 1.257 . S
O129 Eu84 2.612 . S
O129 Eu95 2.380 1_554 S
O129 C140 1.276 . S
O130 Eu95 2.432 . S
O130 C147 1.264 . S
O131 Eu84 2.339 1_556 S
O131 C147 1.254 . S
O132 Eu84 2.563 . S
O132 C140 1.235 . S
O133 Eu84 2.419 . S
O133 C148 1.249 . S
O134 Eu95 2.558 . S
O134 C159 1.257 . S
O135 Eu84 2.380 1_455 S
O135 Eu95 2.612 1_454 S
O135 C151 1.276 . S
O136 Eu84 2.432 . S
O136 C158 1.264 . S
O137 Eu95 2.339 1_554 S
O137 C158 1.254 . S
O138 Eu95 2.563 1_455 S
O138 C151 1.235 1_556 S
O139 Eu95 2.419 1_554 S
O139 C159 1.249 1_554 S
C140 O129 1.276 . S
C140 O132 1.235 . S
C141 C143 1.393 . S
C141 C145 1.395 . S
C141 C148 1.492 . S
C142 C143 1.392 . S
C142 C144 1.386 . S
C143 C141 1.393 . S
C143 C142 1.392 . S
C143 H160 0.930 . S
C144 C142 1.386 . S
C144 C146 1.395 . S
C144 H161 0.930 . S
C145 C141 1.395 . S
C145 C146 1.379 . S
C145 H162 0.930 . S
C146 C144 1.395 . S
C146 C145 1.379 . S
C146 H163 0.930 . S
C147 O130 1.264 . S
C147 O131 1.254 . S
C148 Eu84 2.848 . S
C148 O128 1.257 . S
C148 O133 1.249 . S
C148 C141 1.492 . S
C149 H114 0.931 . S
C149 C127 1.420 . S
C149 C150 1.351 . S
C150 H112 0.930 . S
C150 C118 1.423 . S
C150 C149 1.351 . S
C151 O135 1.276 . S
C151 O138 1.235 1_554 S
C152 C153 1.393 . S
C152 C156 1.395 . S
C152 C159 1.492 1_455 S
C153 C152 1.393 . S
C153 C154 1.392 . S
C153 H164 0.930 1_556 S
C154 C153 1.392 . S
C154 C155 1.386 . S
C155 C154 1.386 . S
C155 C157 1.395 . S
C155 H165 0.930 . S
C156 C152 1.395 . S
C156 C157 1.379 . S
C156 H166 0.930 . S
C157 C155 1.395 . S
C157 C156 1.379 . S
C157 H167 0.930 . S
C158 O136 1.264 . S
C158 O137 1.254 . S
C159 Eu95 2.848 . S
C159 O134 1.257 . S
C159 O139 1.249 1_556 S
C159 C152 1.492 1_655 S
H160 C143 0.930 . S
H161 C144 0.930 . S
H162 C145 0.930 . S
H163 C146 0.930 . S
H164 C153 0.930 1_554 S
H165 C155 0.930 . S
H166 C156 0.930 . S
H167 C157 0.930 . S
Eu168 N199 2.657 . S
Eu168 N206 2.609 . S
Eu168 O212 2.558 . S
Eu168 O213 2.612 1_455 S
Eu168 O215 2.339 . S
Eu168 O216 2.563 1_455 S
Eu168 O217 2.419 . S
Eu168 O219 2.380 . S
Eu168 O220 2.432 . S
Eu168 C232 2.848 . S
C169 C172 1.429 . S
C169 C173 1.411 . S
C169 N176 1.377 . S
C170 C172 1.420 . S
C170 C174 1.423 . S
C170 C182 1.392 . S
C171 C173 1.420 . S
C171 C174 1.351 . S
C171 H194 0.931 . S
C172 C169 1.429 . S
C172 C170 1.420 . S
C172 N180 1.362 . S
C173 C169 1.411 . S
C173 C171 1.420 . S
C173 C178 1.395 . S
C174 C170 1.423 . S
C174 C171 1.351 . S
C174 H186 0.930 . S
C175 C177 1.400 . S
C175 C178 1.386 . S
C175 H187 0.930 . S
N176 C169 1.377 . S
N176 C177 1.321 . S
N176 Eu179 2.609 1_655 S
C177 C175 1.400 . S
C177 N176 1.321 . S
C177 H184 0.930 1_655 S
C178 C173 1.395 . S
C178 C175 1.386 . S
C178 H197 0.930 . S
Eu179 N176 2.609 1_455 S
Eu179 N180 2.657 1_455 S
Eu179 O213 2.380 1_455 S
Eu179 O214 2.432 . S
Eu179 O218 2.558 . S
Eu179 O219 2.612 . S
Eu179 O221 2.339 . S
Eu179 O222 2.563 . S
Eu179 O223 2.419 . S
Eu179 C243 2.848 . S
N180 C172 1.362 . S
N180 Eu179 2.657 1_655 S
N180 C181 1.334 . S
C181 N180 1.334 . S
C181 C183 1.413 . S
C181 H188 0.929 . S
C182 C170 1.392 . S
C182 C183 1.367 . S
C182 H190 0.930 . S
C183 C181 1.413 . S
C183 C182 1.367 . S
C183 H185 0.930 . S
H184 C177 0.930 1_455 S
H185 C183 0.930 . S
H186 C174 0.930 . S
H187 C175 0.930 . S
H188 C181 0.929 . S
H189 C203 0.930 . S
H190 C182 0.930 . S
H191 C209 0.930 . S
H192 C200 0.929 . S
H193 C207 0.930 . S
H194 C171 0.931 . S
H195 C201 0.930 . S
H196 C234 0.930 . S
H197 C178 0.930 . S
H198 C233 0.931 . S
N199 Eu168 2.657 . S
N199 C200 1.334 . S
N199 C204 1.362 . S
C200 H192 0.929 . S
C200 N199 1.334 . S
C200 C203 1.413 . S
C201 H195 0.930 . S
C201 C202 1.392 . S
C201 C203 1.367 . S
C202 C201 1.392 . S
C202 C204 1.420 . S
C202 C234 1.423 . S
C203 H189 0.930 . S
C203 C200 1.413 . S
C203 C201 1.367 . S
C204 N199 1.362 . S
C204 C202 1.420 . S
C204 C208 1.429 . S
H205 C210 0.930 . S
N206 Eu168 2.609 . S
N206 C208 1.377 . S
N206 C209 1.321 . S
C207 H193 0.930 . S
C207 C209 1.400 . S
C207 C210 1.386 . S
C208 C204 1.429 . S
C208 N206 1.377 . S
C208 C211 1.411 . S
C209 H191 0.930 . S
C209 N206 1.321 . S
C209 C207 1.400 . S
C210 H205 0.930 . S
C210 C207 1.386 . S
C210 C211 1.395 . S
C211 C208 1.411 . S
C211 C210 1.395 . S
C211 C233 1.420 . S
O212 Eu168 2.558 . S
O212 C232 1.257 . S
O213 Eu168 2.612 1_655 S
O213 Eu179 2.380 1_655 S
O213 C224 1.276 . S
O214 Eu179 2.432 . S
O214 C231 1.264 . S
O215 Eu168 2.339 . S
O215 C231 1.254 . S
O216 Eu168 2.563 1_655 S
O216 C224 1.235 . S
O217 Eu168 2.419 . S
O217 C232 1.249 . S
O218 Eu179 2.558 . S
O218 C243 1.257 . S
O219 Eu168 2.380 . S
O219 Eu179 2.612 . S
O219 C235 1.276 . S
O220 Eu168 2.432 . S
O220 C242 1.264 . S
O221 Eu179 2.339 . S
O221 C242 1.254 . S
O222 Eu179 2.563 . S
O222 C235 1.235 . S
O223 Eu179 2.419 . S
O223 C243 1.249 . S
C224 O213 1.276 . S
C224 O216 1.235 . S
C225 C227 1.393 . S
C225 C229 1.395 . S
C225 C232 1.492 1_655 S
C226 C227 1.392 . S
C226 C228 1.386 . S
C227 C225 1.393 . S
C227 C226 1.392 . S
C227 H244 0.930 . S
C228 C226 1.386 . S
C228 C230 1.395 . S
C228 H245 0.930 . S
C229 C225 1.395 . S
C229 C230 1.379 . S
C229 H246 0.930 . S
C230 C228 1.395 . S
C230 C229 1.379 . S
C230 H247 0.930 . S
C231 O214 1.264 . S
C231 O215 1.254 . S
C232 Eu168 2.848 . S
C232 O212 1.257 . S
C232 O217 1.249 . S
C232 C225 1.492 1_455 S
C233 H198 0.931 . S
C233 C211 1.420 . S
C233 C234 1.351 . S
C234 H196 0.930 . S
C234 C202 1.423 . S
C234 C233 1.351 . S
C235 O219 1.276 . S
C235 O222 1.235 . S
C236 C237 1.393 . S
C236 C240 1.395 . S
C236 C243 1.492 . S
C237 C236 1.393 . S
C237 C238 1.392 . S
C237 H248 0.930 . S
C238 C237 1.392 . S
C238 C239 1.386 . S
C239 C238 1.386 . S
C239 C241 1.395 . S
C239 H249 0.930 . S
C240 C236 1.395 . S
C240 C241 1.379 . S
C240 H250 0.930 . S
C241 C239 1.395 . S
C241 C240 1.379 . S
C241 H251 0.930 . S
C242 O220 1.264 . S
C242 O221 1.254 . S
C243 Eu179 2.848 . S
C243 O218 1.257 . S
C243 O223 1.249 . S
C243 C236 1.492 . S
H244 C227 0.930 . S
H245 C228 0.930 . S
H246 C229 0.930 . S
H247 C230 0.930 . S
H248 C237 0.930 . S
H249 C239 0.930 . S
H250 C240 0.930 . S
H251 C241 0.930 . S
Eu252 N283 2.657 1_655 S
Eu252 N290 2.609 1_655 S
Eu252 O296 2.558 . S
Eu252 O297 2.612 . S
Eu252 O299 2.339 . S
Eu252 O300 2.563 . S
Eu252 O301 2.419 . S
Eu252 O303 2.380 1_655 S
Eu252 O304 2.432 . S
Eu252 C316 2.848 . S
C253 C256 1.429 . S
C253 C257 1.411 . S
C253 N260 1.377 . S
C254 C256 1.420 . S
C254 C258 1.423 . S
C254 C266 1.392 . S
C255 C257 1.420 . S
C255 C258 1.351 . S
C255 H278 0.931 . S
C256 C253 1.429 . S
C256 C254 1.420 . S
C256 N264 1.362 . S
C257 C253 1.411 . S
C257 C255 1.420 . S
C257 C262 1.395 . S
C258 C254 1.423 . S
C258 C255 1.351 . S
C258 H270 0.930 . S
C259 C261 1.400 . S
C259 C262 1.386 . S
C259 H271 0.930 . S
N260 C253 1.377 . S
N260 C261 1.321 . S
N260 Eu263 2.609 . S
C261 C259 1.400 . S
C261 N260 1.321 . S
C261 H268 0.930 . S
C262 C257 1.395 . S
C262 C259 1.386 . S
C262 H281 0.930 . S
Eu263 N260 2.609 . S
Eu263 N264 2.657 . S
Eu263 O297 2.380 . S
Eu263 O298 2.432 . S
Eu263 O302 2.558 . S
Eu263 O303 2.612 1_655 S
Eu263 O305 2.339 . S
Eu263 O306 2.563 1_655 S
Eu263 O307 2.419 . S
Eu263 C327 2.848 . S
N264 C256 1.362 . S
N264 Eu263 2.657 . S
N264 C265 1.334 . S
C265 N264 1.334 . S
C265 C267 1.413 . S
C265 H272 0.929 . S
C266 C254 1.392 . S
C266 C267 1.367 . S
C266 H274 0.930 . S
C267 C265 1.413 . S
C267 C266 1.367 . S
C267 H269 0.930 . S
H268 C261 0.930 . S
H269 C267 0.930 . S
H270 C258 0.930 . S
H271 C259 0.930 . S
H272 C265 0.929 . S
H273 C287 0.930 . S
H274 C266 0.930 . S
H275 C293 0.930 1_655 S
H276 C284 0.929 . S
H277 C291 0.930 . S
H278 C255 0.931 . S
H279 C285 0.930 . S
H280 C318 0.930 . S
H281 C262 0.930 . S
H282 C317 0.931 . S
N283 Eu252 2.657 1_455 S
N283 C284 1.334 . S
N283 C288 1.362 . S
C284 H276 0.929 . S
C284 N283 1.334 . S
C284 C287 1.413 . S
C285 H279 0.930 . S
C285 C286 1.392 . S
C285 C287 1.367 . S
C286 C285 1.392 . S
C286 C288 1.420 . S
C286 C318 1.423 . S
C287 H273 0.930 . S
C287 C284 1.413 . S
C287 C285 1.367 . S
C288 N283 1.362 . S
C288 C286 1.420 . S
C288 C292 1.429 . S
H289 C294 0.930 . S
N290 Eu252 2.609 1_455 S
N290 C292 1.377 . S
N290 C293 1.321 . S
C291 H277 0.930 . S
C291 C293 1.400 . S
C291 C294 1.386 . S
C292 C288 1.429 . S
C292 N290 1.377 . S
C292 C295 1.411 . S
C293 H275 0.930 1_455 S
C293 N290 1.321 . S
C293 C291 1.400 . S
C294 H289 0.930 . S
C294 C291 1.386 . S
C294 C295 1.395 . S
C295 C292 1.411 . S
C295 C294 1.395 . S
C295 C317 1.420 . S
O296 Eu252 2.558 . S
O296 C316 1.257 . S
O297 Eu252 2.612 . S
O297 Eu263 2.380 . S
O297 C308 1.276 . S
O298 Eu263 2.432 . S
O298 C315 1.264 . S
O299 Eu252 2.339 . S
O299 C315 1.254 . S
O300 Eu252 2.563 . S
O300 C308 1.235 . S
O301 Eu252 2.419 . S
O301 C316 1.249 . S
O302 Eu263 2.558 . S
O302 C327 1.257 . S
O303 Eu252 2.380 1_455 S
O303 Eu263 2.612 1_455 S
O303 C319 1.276 . S
O304 Eu252 2.432 . S
O304 C326 1.264 . S
O305 Eu263 2.339 . S
O305 C326 1.254 . S
O306 Eu263 2.563 1_455 S
O306 C319 1.235 . S
O307 Eu263 2.419 . S
O307 C327 1.249 . S
C308 O297 1.276 . S
C308 O300 1.235 . S
C309 C311 1.393 . S
C309 C313 1.395 . S
C309 C316 1.492 . S
C310 C311 1.392 . S
C310 C312 1.386 . S
C311 C309 1.393 . S
C311 C310 1.392 . S
C311 H328 0.930 . S
C312 C310 1.386 . S
C312 C314 1.395 . S
C312 H329 0.930 . S
C313 C309 1.395 . S
C313 C314 1.379 . S
C313 H330 0.930 . S
C314 C312 1.395 . S
C314 C313 1.379 . S
C314 H331 0.930 . S
C315 O298 1.264 . S
C315 O299 1.254 . S
C316 Eu252 2.848 . S
C316 O296 1.257 . S
C316 O301 1.249 . S
C316 C309 1.492 . S
C317 H282 0.931 . S
C317 C295 1.420 . S
C317 C318 1.351 . S
C318 H280 0.930 . S
C318 C286 1.423 . S
C318 C317 1.351 . S
C319 O303 1.276 . S
C319 O306 1.235 . S
C320 C321 1.393 . S
C320 C324 1.395 . S
C320 C327 1.492 1_455 S
C321 C320 1.393 . S
C321 C322 1.392 . S
C321 H332 0.930 . S
C322 C321 1.392 . S
C322 C323 1.386 . S
C323 C322 1.386 . S
C323 C325 1.395 . S
C323 H333 0.930 . S
C324 C320 1.395 . S
C324 C325 1.379 . S
C324 H334 0.930 . S
C325 C323 1.395 . S
C325 C324 1.379 . S
C325 H335 0.930 . S
C326 O304 1.264 . S
C326 O305 1.254 . S
C327 Eu263 2.848 . S
C327 O302 1.257 . S
C327 O307 1.249 . S
C327 C320 1.492 1_655 S
H328 C311 0.930 . S
H329 C312 0.930 . S
H330 C313 0.930 . S
H331 C314 0.930 . S
H332 C321 0.930 . S
H333 C323 0.930 . S
H334 C324 0.930 . S
H335 C325 0.930 . S
Eu336 N367 2.657 . S
Eu336 N374 2.609 . S
Eu336 O380 2.558 . S
Eu336 O381 2.612 . S
Eu336 O383 2.339 1_554 S
Eu336 O384 2.563 . S
Eu336 O385 2.419 . S
Eu336 O387 2.380 . S
Eu336 O388 2.432 . S
Eu336 C400 2.848 . S
C337 C340 1.429 . S
C337 C341 1.411 . S
C337 N344 1.377 . S
C338 C340 1.420 . S
C338 C342 1.423 . S
C338 C350 1.392 1_556 S
C339 C341 1.420 . S
C339 C342 1.351 . S
C339 H362 0.931 . S
C340 C337 1.429 . S
C340 C338 1.420 . S
C340 N348 1.362 1_556 S
C341 C337 1.411 . S
C341 C339 1.420 . S
C341 C346 1.395 . S
C342 C338 1.423 . S
C342 C339 1.351 . S
C342 H354 0.930 . S
C343 C345 1.400 . S
C343 C346 1.386 . S
C343 H355 0.930 . S
N344 C337 1.377 . S
N344 C345 1.321 . S
N344 Eu347 2.609 . S
C345 C343 1.400 . S
C345 N344 1.321 . S
C345 H352 0.930 . S
C346 C341 1.395 . S
C346 C343 1.386 . S
C346 H365 0.930 . S
Eu347 N344 2.609 . S
Eu347 N348 2.657 1_556 S
Eu347 O381 2.380 1_556 S
Eu347 O382 2.432 . S
Eu347 O386 2.558 . S
Eu347 O387 2.612 1_556 S
Eu347 O389 2.339 1_556 S
Eu347 O390 2.563 . S
Eu347 O391 2.419 1_556 S
Eu347 C411 2.848 . S
N348 C340 1.362 1_554 S
N348 Eu347 2.657 1_554 S
N348 C349 1.334 . S
C349 N348 1.334 . S
C349 C351 1.413 . S
C349 H356 0.929 . S
C350 C338 1.392 1_554 S
C350 C351 1.367 . S
C350 H358 0.930 . S
C351 C349 1.413 . S
C351 C350 1.367 . S
C351 H353 0.930 . S
H352 C345 0.930 . S
H353 C351 0.930 . S
H354 C342 0.930 . S
H355 C343 0.930 . S
H356 C349 0.929 . S
H357 C371 0.930 . S
H358 C350 0.930 . S
H359 C377 0.930 . S
H360 C368 0.929 . S
H361 C375 0.930 . S
H362 C339 0.931 . S
H363 C369 0.930 . S
H364 C402 0.930 . S
H365 C346 0.930 . S
H366 C401 0.931 . S
N367 Eu336 2.657 . S
N367 C368 1.334 1_554 S
N367 C372 1.362 . S
C368 H360 0.929 . S
C368 N367 1.334 1_556 S
C368 C371 1.413 . S
C369 H363 0.930 . S
C369 C370 1.392 1_456 S
C369 C371 1.367 1_455 S
C370 C369 1.392 1_654 S
C370 C372 1.420 . S
C370 C402 1.423 1_655 S
C371 H357 0.930 . S
C371 C368 1.413 . S
C371 C369 1.367 1_655 S
C372 N367 1.362 . S
C372 C370 1.420 . S
C372 C376 1.429 . S
H373 C378 0.930 . S
N374 Eu336 2.609 . S
N374 C376 1.377 . S
N374 C377 1.321 . S
C375 H361 0.930 . S
C375 C377 1.400 . S
C375 C378 1.386 . S
C376 C372 1.429 . S
C376 N374 1.377 . S
C376 C379 1.411 . S
C377 H359 0.930 . S
C377 N374 1.321 . S
C377 C375 1.400 . S
C378 H373 0.930 . S
C378 C375 1.386 . S
C378 C379 1.395 . S
C379 C376 1.411 . S
C379 C378 1.395 . S
C379 C401 1.420 1_655 S
O380 Eu336 2.558 . S
O380 C400 1.257 . S
O381 Eu336 2.612 . S
O381 Eu347 2.380 1_554 S
O381 C392 1.276 . S
O382 Eu347 2.432 . S
O382 C399 1.264 . S
O383 Eu336 2.339 1_556 S
O383 C399 1.254 . S
O384 Eu336 2.563 . S
O384 C392 1.235 . S
O385 Eu336 2.419 . S
O385 C400 1.249 . S
O386 Eu347 2.558 . S
O386 C411 1.257 . S
O387 Eu336 2.380 . S
O387 Eu347 2.612 1_554 S
O387 C403 1.276 . S
O388 Eu336 2.432 . S
O388 C410 1.264 . S
O389 Eu347 2.339 1_554 S
O389 C410 1.254 . S
O390 Eu347 2.563 . S
O390 C403 1.235 1_556 S
O391 Eu347 2.419 1_554 S
O391 C411 1.249 1_554 S
C392 O381 1.276 . S
C392 O384 1.235 . S
C393 C395 1.393 . S
C393 C397 1.395 . S
C393 C400 1.492 . S
C394 C395 1.392 . S
C394 C396 1.386 . S
C395 C393 1.393 . S
C395 C394 1.392 . S
C395 H412 0.921 1_554 S
C396 C394 1.386 . S
C396 C398 1.395 . S
C396 H413 0.930 . S
C397 C393 1.395 . S
C397 C398 1.379 . S
C397 H414 0.930 . S
C398 C396 1.395 . S
C398 C397 1.379 . S
C398 H415 0.930 . S
C399 O382 1.264 . S
C399 O383 1.254 . S
C400 Eu336 2.848 . S
C400 O380 1.257 . S
C400 O385 1.249 . S
C400 C393 1.492 . S
C401 H366 0.931 . S
C401 C379 1.420 1_455 S
C401 C402 1.351 . S
C402 H364 0.930 . S
C402 C370 1.423 1_455 S
C402 C401 1.351 . S
C403 O387 1.276 . S
C403 O390 1.235 1_554 S
C404 C405 1.393 . S
C404 C408 1.395 . S
C404 C411 1.492 . S
C405 C404 1.393 . S
C405 C406 1.392 . S
C405 H416 0.930 1_556 S
C406 C405 1.392 . S
C406 C407 1.386 . S
C407 C406 1.386 . S
C407 C409 1.395 . S
C407 H417 0.930 . S
C408 C404 1.395 . S
C408 C409 1.379 . S
C408 H418 0.930 . S
C409 C407 1.395 . S
C409 C408 1.379 . S
C409 H419 0.930 . S
C410 O388 1.264 . S
C410 O389 1.254 . S
C411 Eu347 2.848 . S
C411 O386 1.257 . S
C411 O391 1.249 1_556 S
C411 C404 1.492 . S
H412 C395 0.921 1_556 S
H413 C396 0.930 . S
H414 C397 0.930 . S
H415 C398 0.930 . S
H416 C405 0.930 1_554 S
H417 C407 0.930 . S
H418 C408 0.930 . S
H419 C409 0.930 . S
Eu420 N451 2.657 . S
Eu420 N458 2.609 . S
Eu420 O464 2.558 . S
Eu420 O465 2.612 . S
Eu420 O467 2.339 1_554 S
Eu420 O468 2.563 . S
Eu420 O469 2.419 . S
Eu420 O471 2.380 . S
Eu420 O472 2.432 . S
Eu420 C484 2.848 . S
C421 C424 1.429 . S
C421 C425 1.411 . S
C421 N428 1.377 . S
C422 C424 1.420 . S
C422 C426 1.423 1_455 S
C422 C434 1.392 1_456 S
C423 C425 1.420 1_655 S
C423 C426 1.351 . S
C423 H446 0.931 . S
C424 C421 1.429 . S
C424 C422 1.420 . S
C424 N432 1.362 1_556 S
C425 C421 1.411 . S
C425 C423 1.420 1_455 S
C425 C430 1.395 . S
C426 C422 1.423 1_655 S
C426 C423 1.351 . S
C426 H438 0.930 . S
C427 C429 1.400 . S
C427 C430 1.386 . S
C427 H439 0.930 . S
N428 C421 1.377 . S
N428 C429 1.321 . S
N428 Eu431 2.609 . S
C429 C427 1.400 . S
C429 N428 1.321 . S
C429 H436 0.930 . S
C430 C425 1.395 . S
C430 C427 1.386 . S
C430 H449 0.930 . S
Eu431 N428 2.609 . S
Eu431 N432 2.657 1_556 S
Eu431 O465 2.380 1_556 S
Eu431 O466 2.432 . S
Eu431 O470 2.558 . S
Eu431 O471 2.612 1_556 S
Eu431 O473 2.339 1_556 S
Eu431 O474 2.563 . S
Eu431 O475 2.419 1_556 S
Eu431 C495 2.848 . S
N432 C424 1.362 1_554 S
N432 Eu431 2.657 1_554 S
N432 C433 1.334 . S
C433 N432 1.334 . S
C433 C435 1.413 . S
C433 H440 0.929 . S
C434 C422 1.392 1_654 S
C434 C435 1.367 1_655 S
C434 H442 0.930 . S
C435 C433 1.413 . S
C435 C434 1.367 1_455 S
C435 H437 0.930 . S
H436 C429 0.930 . S
H437 C435 0.930 . S
H438 C426 0.930 . S
H439 C427 0.930 . S
H440 C433 0.929 . S
H441 C455 0.930 . S
H442 C434 0.930 . S
H443 C461 0.930 . S
H444 C452 0.929 . S
H445 C459 0.930 . S
H446 C423 0.931 . S
H447 C453 0.930 . S
H448 C486 0.930 . S
H449 C430 0.930 . S
H450 C485 0.931 . S
N451 Eu420 2.657 . S
N451 C452 1.334 1_554 S
N451 C456 1.362 . S
C452 H444 0.929 . S
C452 N451 1.334 1_556 S
C452 C455 1.413 . S
C453 H447 0.930 . S
C453 C454 1.392 1_556 S
C453 C455 1.367 . S
C454 C453 1.392 1_554 S
C454 C456 1.420 . S
C454 C486 1.423 . S
C455 H441 0.930 . S
C455 C452 1.413 . S
C455 C453 1.367 . S
C456 N451 1.362 . S
C456 C454 1.420 . S
C456 C460 1.429 . S
H457 C462 0.930 . S
N458 Eu420 2.609 . S
N458 C460 1.377 . S
N458 C461 1.321 . S
C459 H445 0.930 . S
C459 C461 1.400 . S
C459 C462 1.386 . S
C460 C456 1.429 . S
C460 N458 1.377 . S
C460 C463 1.411 . S
C461 H443 0.930 . S
C461 N458 1.321 . S
C461 C459 1.400 . S
C462 H457 0.930 . S
C462 C459 1.386 . S
C462 C463 1.395 . S
C463 C460 1.411 . S
C463 C462 1.395 . S
C463 C485 1.420 . S
O464 Eu420 2.558 . S
O464 C484 1.257 . S
O465 Eu420 2.612 . S
O465 Eu431 2.380 1_554 S
O465 C476 1.276 . S
O466 Eu431 2.432 . S
O466 C483 1.264 . S
O467 Eu420 2.339 1_556 S
O467 C483 1.254 . S
O468 Eu420 2.563 . S
O468 C476 1.235 . S
O469 Eu420 2.419 . S
O469 C484 1.249 . S
O470 Eu431 2.558 . S
O470 C495 1.257 . S
O471 Eu420 2.380 . S
O471 Eu431 2.612 1_554 S
O471 C487 1.276 . S
O472 Eu420 2.432 . S
O472 C494 1.264 . S
O473 Eu431 2.339 1_554 S
O473 C494 1.254 . S
O474 Eu431 2.563 . S
O474 C487 1.235 1_556 S
O475 Eu431 2.419 1_554 S
O475 C495 1.249 1_554 S
C476 O465 1.276 . S
C476 O468 1.235 . S
C477 C479 1.393 . S
C477 C481 1.395 . S
C477 C484 1.492 . S
C478 C479 1.392 . S
C478 C480 1.386 . S
C479 C477 1.393 . S
C479 C478 1.392 . S
C479 H496 0.930 . S
C480 C478 1.386 . S
C480 C482 1.395 . S
C480 H497 0.930 . S
C481 C477 1.395 . S
C481 C482 1.379 . S
C481 H498 0.930 . S
C482 C480 1.395 . S
C482 C481 1.379 . S
C482 H499 0.930 . S
C483 O466 1.264 . S
C483 O467 1.254 . S
C484 Eu420 2.848 . S
C484 O464 1.257 . S
C484 O469 1.249 . S
C484 C477 1.492 . S
C485 H450 0.931 . S
C485 C463 1.420 . S
C485 C486 1.351 . S
C486 H448 0.930 . S
C486 C454 1.423 . S
C486 C485 1.351 . S
C487 O471 1.276 . S
C487 O474 1.235 1_554 S
C488 C489 1.393 . S
C488 C492 1.395 . S
C488 C495 1.492 . S
C489 C488 1.393 . S
C489 C490 1.392 . S
C489 H500 0.930 1_556 S
C490 C489 1.392 . S
C490 C491 1.386 . S
C491 C490 1.386 . S
C491 C493 1.395 . S
C491 H501 0.930 . S
C492 C488 1.395 . S
C492 C493 1.379 . S
C492 H502 0.930 . S
C493 C491 1.395 . S
C493 C492 1.379 . S
C493 H503 0.930 . S
C494 O472 1.264 . S
C494 O473 1.254 . S
C495 Eu431 2.848 . S
C495 O470 1.257 . S
C495 O475 1.249 1_556 S
C495 C488 1.492 . S
H496 C479 0.930 . S
H497 C480 0.930 . S
H498 C481 0.930 . S
H499 C482 0.930 . S
H500 C489 0.930 1_554 S
H501 C491 0.930 . S
H502 C492 0.930 . S
H503 C493 0.930 . S
Eu504 N535 2.657 . S
Eu504 N542 2.609 . S
Eu504 O548 2.558 . S
Eu504 O549 2.612 . S
Eu504 O551 2.339 . S
Eu504 O552 2.563 . S
Eu504 O553 2.419 . S
Eu504 O555 2.380 . S
Eu504 O556 2.432 . S
Eu504 C568 2.848 . S
C505 C508 1.429 . S
C505 C509 1.411 . S
C505 N512 1.377 . S
C506 C508 1.420 . S
C506 C510 1.423 . S
C506 C518 1.392 . S
C507 C509 1.420 . S
C507 C510 1.351 . S
C507 H530 0.931 . S
C508 C505 1.429 . S
C508 C506 1.420 . S
C508 N516 1.362 . S
C509 C505 1.411 . S
C509 C507 1.420 . S
C509 C514 1.395 . S
C510 C506 1.423 . S
C510 C507 1.351 . S
C510 H522 0.930 . S
C511 C513 1.400 . S
C511 C514 1.386 . S
C511 H523 0.930 . S
N512 C505 1.377 . S
N512 C513 1.321 . S
N512 Eu515 2.609 . S
C513 C511 1.400 . S
C513 N512 1.321 . S
C513 H520 0.930 . S
C514 C509 1.395 . S
C514 C511 1.386 . S
C514 H533 0.930 . S
Eu515 N512 2.609 . S
Eu515 N516 2.657 . S
Eu515 O549 2.380 . S
Eu515 O550 2.432 . S
Eu515 O554 2.558 . S
Eu515 O555 2.612 . S
Eu515 O557 2.339 . S
Eu515 O558 2.563 . S
Eu515 O559 2.419 . S
Eu515 C579 2.848 . S
N516 C508 1.362 . S
N516 Eu515 2.657 . S
N516 C517 1.334 . S
C517 N516 1.334 . S
C517 C519 1.413 . S
C517 H524 0.929 . S
C518 C506 1.392 . S
C518 C519 1.367 . S
C518 H526 0.930 . S
C519 C517 1.413 . S
C519 C518 1.367 . S
C519 H521 0.930 . S
H520 C513 0.930 . S
H521 C519 0.930 . S
H522 C510 0.930 . S
H523 C511 0.930 . S
H524 C517 0.929 . S
H525 C539 0.930 . S
H526 C518 0.930 . S
H527 C545 0.930 . S
H528 C536 0.929 . S
H529 C543 0.930 . S
H530 C507 0.931 . S
H531 C537 0.930 . S
H532 C570 0.930 . S
H533 C514 0.930 . S
H534 C569 0.931 . S
N535 Eu504 2.657 . S
N535 C536 1.334 . S
N535 C540 1.362 . S
C536 H528 0.929 . S
C536 N535 1.334 . S
C536 C539 1.413 . S
C537 H531 0.930 . S
C537 C538 1.392 1_455 S
C537 C539 1.367 1_455 S
C538 C537 1.392 1_655 S
C538 C540 1.420 . S
C538 C570 1.423 1_655 S
C539 H525 0.930 . S
C539 C536 1.413 . S
C539 C537 1.367 1_655 S
C540 N535 1.362 . S
C540 C538 1.420 . S
C540 C544 1.429 . S
H541 C546 0.930 . S
N542 Eu504 2.609 . S
N542 C544 1.377 . S
N542 C545 1.321 . S
C543 H529 0.930 . S
C543 C545 1.400 . S
C543 C546 1.386 . S
C544 C540 1.429 . S
C544 N542 1.377 . S
C544 C547 1.411 . S
C545 H527 0.930 . S
C545 N542 1.321 . S
C545 C543 1.400 . S
C546 H541 0.930 . S
C546 C543 1.386 . S
C546 C547 1.395 . S
C547 C544 1.411 . S
C547 C546 1.395 . S
C547 C569 1.420 1_655 S
O548 Eu504 2.558 . S
O548 C568 1.257 . S
O549 Eu504 2.612 . S
O549 Eu515 2.380 . S
O549 C560 1.276 . S
O550 Eu515 2.432 . S
O550 C567 1.264 . S
O551 Eu504 2.339 . S
O551 C567 1.254 . S
O552 Eu504 2.563 . S
O552 C560 1.235 . S
O553 Eu504 2.419 . S
O553 C568 1.249 . S
O554 Eu515 2.558 . S
O554 C579 1.257 . S
O555 Eu504 2.380 . S
O555 Eu515 2.612 . S
O555 C571 1.276 . S
O556 Eu504 2.432 . S
O556 C578 1.264 . S
O557 Eu515 2.339 . S
O557 C578 1.254 . S
O558 Eu515 2.563 . S
O558 C571 1.235 . S
O559 Eu515 2.419 . S
O559 C579 1.249 . S
C560 O549 1.276 . S
C560 O552 1.235 . S
C561 C563 1.393 . S
C561 C565 1.395 . S
C561 C568 1.492 . S
C562 C563 1.392 . S
C562 C564 1.386 . S
C563 C561 1.393 . S
C563 C562 1.392 . S
C563 H580 0.930 . S
C564 C562 1.386 . S
C564 C566 1.395 . S
C564 H581 0.930 . S
C565 C561 1.395 . S
C565 C566 1.379 . S
C565 H582 0.930 . S
C566 C564 1.395 . S
C566 C565 1.379 . S
C566 H583 0.930 . S
C567 O550 1.264 . S
C567 O551 1.254 . S
C568 Eu504 2.848 . S
C568 O548 1.257 . S
C568 O553 1.249 . S
C568 C561 1.492 . S
C569 H534 0.931 . S
C569 C547 1.420 1_455 S
C569 C570 1.351 . S
C570 H532 0.930 . S
C570 C538 1.423 1_455 S
C570 C569 1.351 . S
C571 O555 1.276 . S
C571 O558 1.235 . S
C572 C573 1.393 . S
C572 C576 1.395 . S
C572 C579 1.492 . S
C573 C572 1.393 . S
C573 C574 1.392 . S
C573 H584 0.930 . S
C574 C573 1.392 . S
C574 C575 1.386 . S
C575 C574 1.386 . S
C575 C577 1.395 . S
C575 H585 0.930 . S
C576 C572 1.395 . S
C576 C577 1.379 . S
C576 H586 0.930 . S
C577 C575 1.395 . S
C577 C576 1.379 . S
C577 H587 0.930 . S
C578 O556 1.264 . S
C578 O557 1.254 . S
C579 Eu515 2.848 . S
C579 O554 1.257 . S
C579 O559 1.249 . S
C579 C572 1.492 . S
H580 C563 0.930 . S
H581 C564 0.930 . S
H582 C565 0.930 . S
H583 C566 0.930 . S
H584 C573 0.930 . S
H585 C575 0.930 . S
H586 C576 0.930 . S
H587 C577 0.930 . S
Eu588 N619 2.657 . S
Eu588 N626 2.609 . S
Eu588 O632 2.558 . S
Eu588 O633 2.612 . S
Eu588 O635 2.339 . S
Eu588 O636 2.563 . S
Eu588 O637 2.419 . S
Eu588 O639 2.380 . S
Eu588 O640 2.432 . S
Eu588 C652 2.848 . S
C589 C592 1.429 . S
C589 C593 1.411 . S
C589 N596 1.377 . S
C590 C592 1.420 . S
C590 C594 1.423 1_455 S
C590 C602 1.392 1_455 S
C591 C593 1.420 1_655 S
C591 C594 1.351 . S
C591 H614 0.931 . S
C592 C589 1.429 . S
C592 C590 1.420 . S
C592 N600 1.362 . S
C593 C589 1.411 . S
C593 C591 1.420 1_455 S
C593 C598 1.395 . S
C594 C590 1.423 1_655 S
C594 C591 1.351 . S
C594 H606 0.930 . S
C595 C597 1.400 . S
C595 C598 1.386 . S
C595 H607 0.930 . S
N596 C589 1.377 . S
N596 C597 1.321 . S
N596 Eu599 2.609 . S
C597 C595 1.400 . S
C597 N596 1.321 . S
C597 H604 0.930 . S
C598 C593 1.395 . S
C598 C595 1.386 . S
C598 H617 0.930 . S
Eu599 N596 2.609 . S
Eu599 N600 2.657 . S
Eu599 O633 2.380 . S
Eu599 O634 2.432 . S
Eu599 O638 2.558 . S
Eu599 O639 2.612 . S
Eu599 O641 2.339 . S
Eu599 O642 2.563 . S
Eu599 O643 2.419 . S
Eu599 C663 2.848 . S
N600 C592 1.362 . S
N600 Eu599 2.657 . S
N600 C601 1.334 . S
C601 N600 1.334 . S
C601 C603 1.413 . S
C601 H608 0.929 . S
C602 C590 1.392 1_655 S
C602 C603 1.367 1_655 S
C602 H610 0.930 . S
C603 C601 1.413 . S
C603 C602 1.367 1_455 S
C603 H605 0.930 . S
H604 C597 0.930 . S
H605 C603 0.930 . S
H606 C594 0.930 . S
H607 C595 0.930 . S
H608 C601 0.929 . S
H609 C623 0.930 . S
H610 C602 0.930 . S
H611 C629 0.930 . S
H612 C620 0.929 . S
H613 C627 0.930 . S
H614 C591 0.931 . S
H615 C621 0.930 . S
H616 C654 0.930 . S
H617 C598 0.930 . S
H618 C653 0.931 . S
N619 Eu588 2.657 . S
N619 C620 1.334 . S
N619 C624 1.362 . S
C620 H612 0.929 . S
C620 N619 1.334 . S
C620 C623 1.413 . S
C621 H615 0.930 . S
C621 C622 1.392 . S
C621 C623 1.367 . S
C622 C621 1.392 . S
C622 C624 1.420 . S
C622 C654 1.423 . S
C623 H609 0.930 . S
C623 C620 1.413 . S
C623 C621 1.367 . S
C624 N619 1.362 . S
C624 C622 1.420 . S
C624 C628 1.429 . S
H625 C630 0.930 . S
N626 Eu588 2.609 . S
N626 C628 1.377 . S
N626 C629 1.321 . S
C627 H613 0.930 . S
C627 C629 1.400 . S
C627 C630 1.386 . S
C628 C624 1.429 . S
C628 N626 1.377 . S
C628 C631 1.411 . S
C629 H611 0.930 . S
C629 N626 1.321 . S
C629 C627 1.400 . S
C630 H625 0.930 . S
C630 C627 1.386 . S
C630 C631 1.395 . S
C631 C628 1.411 . S
C631 C630 1.395 . S
C631 C653 1.420 . S
O632 Eu588 2.558 . S
O632 C652 1.257 . S
O633 Eu588 2.612 . S
O633 Eu599 2.380 . S
O633 C644 1.276 . S
O634 Eu599 2.432 . S
O634 C651 1.264 . S
O635 Eu588 2.339 . S
O635 C651 1.254 . S
O636 Eu588 2.563 . S
O636 C644 1.235 . S
O637 Eu588 2.419 . S
O637 C652 1.249 . S
O638 Eu599 2.558 . S
O638 C663 1.257 . S
O639 Eu588 2.380 . S
O639 Eu599 2.612 . S
O639 C655 1.276 . S
O640 Eu588 2.432 . S
O640 C662 1.264 . S
O641 Eu599 2.339 . S
O641 C662 1.254 . S
O642 Eu599 2.563 . S
O642 C655 1.235 . S
O643 Eu599 2.419 . S
O643 C663 1.249 . S
C644 O633 1.276 . S
C644 O636 1.235 . S
C645 C647 1.393 . S
C645 C649 1.395 . S
C645 C652 1.492 . S
C646 C647 1.392 . S
C646 C648 1.386 . S
C647 C645 1.393 . S
C647 C646 1.392 . S
C647 H664 0.930 . S
C648 C646 1.386 . S
C648 C650 1.395 . S
C648 H665 0.930 . S
C649 C645 1.395 . S
C649 C650 1.379 . S
C649 H666 0.930 . S
C650 C648 1.395 . S
C650 C649 1.379 . S
C650 H667 0.930 . S
C651 O634 1.264 . S
C651 O635 1.254 . S
C652 Eu588 2.848 . S
C652 O632 1.257 . S
C652 O637 1.249 . S
C652 C645 1.492 . S
C653 H618 0.931 . S
C653 C631 1.420 . S
C653 C654 1.351 . S
C654 H616 0.930 . S
C654 C622 1.423 . S
C654 C653 1.351 . S
C655 O639 1.276 . S
C655 O642 1.235 . S
C656 C657 1.393 . S
C656 C660 1.395 . S
C656 C663 1.492 . S
C657 C656 1.393 . S
C657 C658 1.392 . S
C657 H668 0.930 . S
C658 C657 1.392 . S
C658 C659 1.386 . S
C659 C658 1.386 . S
C659 C661 1.395 . S
C659 H669 0.930 . S
C660 C656 1.395 . S
C660 C661 1.379 . S
C660 H670 0.930 . S
C661 C659 1.395 . S
C661 C660 1.379 . S
C661 H671 0.930 . S
C662 O640 1.264 . S
C662 O641 1.254 . S
C663 Eu599 2.848 . S
C663 O638 1.257 . S
C663 O643 1.249 . S
C663 C656 1.492 . S
H664 C647 0.930 . S
H665 C648 0.930 . S
H666 C649 0.930 . S
H667 C650 0.930 . S
H668 C657 0.930 . S
H669 C659 0.930 . S
H670 C660 0.930 . S
H671 C661 0.930 . S
C672 C673 1.369 . S
C672 C674 1.419 . S
C672 H676 0.930 . S
C673 C672 1.369 . S
C673 C682 1.429 . S
C674 C672 1.419 . S
C674 C675 1.363 . S
C674 H677 0.929 . S
C675 C674 1.363 . S
C675 C681 1.428 1_554 S
H676 C672 0.930 . S
H677 C674 0.929 . S
S678 N679 1.613 . S
S678 N680 1.610 . S
N679 S678 1.613 . S
N679 C682 1.350 1_556 S
N680 S678 1.610 . S
N680 C681 1.351 . S
C681 C675 1.428 1_556 S
C681 N680 1.351 . S
C681 C682 1.434 1_556 S
C682 C673 1.429 . S
C682 N679 1.350 1_554 S
C682 C681 1.434 1_554 S
C683 C684 1.369 1_556 S
C683 C685 1.419 . S
C683 H687 0.930 . S
C684 C683 1.369 1_554 S
C684 C693 1.429 . S
C685 C683 1.419 . S
C685 C686 1.363 1_556 S
C685 H688 0.929 . S
C686 C685 1.363 1_554 S
C686 C692 1.428 . S
H687 C683 0.930 . S
H688 C685 0.929 . S
S689 N690 1.613 . S
S689 N691 1.610 . S
N690 S689 1.613 . S
N690 C693 1.350 . S
N691 S689 1.610 . S
N691 C692 1.351 . S
C692 C686 1.428 . S
C692 N691 1.351 . S
C692 C693 1.434 . S
C693 C684 1.429 . S
C693 N690 1.350 . S
C693 C692 1.434 . S
C694 C695 1.369 . S
C694 C696 1.419 . S
C694 H698 0.930 . S
C695 C694 1.369 . S
C695 C704 1.429 . S
C696 C694 1.419 . S
C696 C697 1.363 . S
C696 H699 0.929 . S
C697 C696 1.363 . S
C697 C703 1.428 . S
H698 C694 0.930 . S
H699 C696 0.929 . S
S700 N701 1.613 . S
S700 N702 1.610 . S
N701 S700 1.613 . S
N701 C704 1.350 . S
N702 S700 1.610 . S
N702 C703 1.351 . S
C703 C697 1.428 . S
C703 N702 1.351 . S
C703 C704 1.434 . S
C704 C695 1.429 . S
C704 N701 1.350 . S
C704 C703 1.434 . S
C705 C706 1.369 . S
C705 C707 1.419 . S
C705 H709 0.930 . S
C706 C705 1.369 . S
C706 C715 1.429 . S
C707 C705 1.419 . S
C707 C708 1.363 . S
C707 H710 0.929 . S
C708 C707 1.363 . S
C708 C714 1.428 . S
H709 C705 0.930 . S
H710 C707 0.929 . S
S711 N712 1.613 . S
S711 N713 1.610 . S
N712 S711 1.613 . S
N712 C715 1.350 . S
N713 S711 1.610 . S
N713 C714 1.351 . S
C714 C708 1.428 . S
C714 N713 1.351 . S
C714 C715 1.434 . S
C715 C706 1.429 . S
C715 N712 1.350 . S
C715 C714 1.434 . S
C716 C717 1.369 1_455 S
C716 C718 1.419 . S
C716 H720 0.930 1_455 S
C717 C716 1.369 1_655 S
C717 C726 1.429 1_554 S
C718 C716 1.419 . S
C718 C719 1.363 . S
C718 H721 0.929 . S
C719 C718 1.363 . S
C719 C725 1.428 1_554 S
H720 C716 0.930 1_655 S
H721 C718 0.929 . S
S722 N723 1.613 1_455 S
S722 N724 1.610 . S
N723 S722 1.613 1_655 S
N723 C726 1.350 . S
N724 S722 1.610 . S
N724 C725 1.351 . S
C725 C719 1.428 1_556 S
C725 N724 1.351 . S
C725 C726 1.434 1_455 S
C726 C717 1.429 1_556 S
C726 N723 1.350 . S
C726 C725 1.434 1_655 S
C727 C728 1.369 1_655 S
C727 C729 1.419 . S
C727 H731 0.927 1_655 S
C728 C727 1.369 1_455 S
C728 C737 1.429 1_554 S
C729 C727 1.419 . S
C729 C730 1.363 . S
C729 H732 0.929 . S
C730 C729 1.363 . S
C730 C736 1.428 . S
H731 C727 0.927 1_455 S
H732 C729 0.929 . S
S733 N734 1.613 1_655 S
S733 N735 1.610 . S
N734 S733 1.613 1_455 S
N734 C737 1.350 . S
N735 S733 1.610 . S
N735 C736 1.351 1_556 S
C736 C730 1.428 . S
C736 N735 1.351 1_554 S
C736 C737 1.434 1_654 S
C737 C728 1.429 1_556 S
C737 N734 1.350 . S
C737 C736 1.434 1_456 S
C738 C739 1.369 . S
C738 C740 1.419 . S
C738 H742 0.930 . S
C739 C738 1.369 . S
C739 C748 1.429 . S
C740 C738 1.419 . S
C740 C741 1.363 1_455 S
C740 H743 0.929 . S
C741 C740 1.363 1_655 S
C741 C747 1.428 . S
H742 C738 0.930 . S
H743 C740 0.929 . S
S744 N745 1.613 1_655 S
S744 N746 1.610 . S
N745 S744 1.613 1_455 S
N745 C748 1.350 . S
N746 S744 1.610 . S
N746 C747 1.351 . S
C747 C741 1.428 . S
C747 N746 1.351 . S
C747 C748 1.434 1_655 S
C748 C739 1.429 . S
C748 N745 1.350 . S
C748 C747 1.434 1_455 S
C749 C750 1.369 . S
C749 C751 1.419 . S
C749 H753 0.930 . S
C750 C749 1.369 . S
C750 C759 1.429 . S
C751 C749 1.419 . S
C751 C752 1.363 1_655 S
C751 H754 0.929 1_655 S
C752 C751 1.363 1_455 S
C752 C758 1.428 . S
H753 C749 0.930 . S
H754 C751 0.929 1_455 S
S755 N756 1.613 . S
S755 N757 1.610 1_655 S
N756 S755 1.613 . S
N756 C759 1.350 . S
N757 S755 1.610 1_455 S
N757 C758 1.351 . S
C758 C752 1.428 . S
C758 N757 1.351 . S
C758 C759 1.434 1_455 S
C759 C750 1.429 . S
C759 N756 1.350 . S
C759 C758 1.434 1_655 S
C760 C761 1.369 1_556 S
C760 C762 1.419 1_455 S
C760 H764 0.930 . S
C761 C760 1.369 1_554 S
C761 C770 1.429 . S
C762 C760 1.419 1_655 S
C762 C763 1.363 1_556 S
C762 H765 0.929 . S
C763 C762 1.363 1_554 S
C763 C769 1.428 . S
H764 C760 0.930 . S
H765 C762 0.929 . S
S766 N767 1.613 1_655 S
S766 N768 1.610 . S
N767 S766 1.613 1_455 S
N767 C770 1.350 . S
N768 S766 1.610 . S
N768 C769 1.351 . S
C769 C763 1.428 . S
C769 N768 1.351 . S
C769 C770 1.434 1_655 S
C770 C761 1.429 . S
C770 N767 1.350 . S
C770 C769 1.434 1_455 S
C771 C772 1.369 . S
C771 C773 1.419 1_455 S
C771 H775 0.930 . S
C772 C771 1.369 . S
C772 C781 1.429 . S
C773 C771 1.419 1_655 S
C773 C774 1.363 . S
C773 H776 0.929 . S
C774 C773 1.363 . S
C774 C780 1.428 . S
H775 C771 0.930 . S
H776 C773 0.929 . S
S777 N778 1.613 . S
S777 N779 1.610 1_455 S
N778 S777 1.613 . S
N778 C781 1.350 . S
N779 S777 1.610 1_655 S
N779 C780 1.351 . S
C780 C774 1.428 . S
C780 N779 1.351 . S
C780 C781 1.434 1_655 S
C781 C772 1.429 . S
C781 N778 1.350 . S
C781 C780 1.434 1_455 S
C782 C783 1.399 . S
C782 C784 1.364 1_565 S
C782 H786 0.933 . S
C783 C782 1.399 . S
C783 C792 1.429 1_554 S
C784 C782 1.364 1_545 S
C784 C785 1.363 . S
C784 H787 0.929 . S
C785 C784 1.363 . S
C785 C791 1.434 1_554 S
H786 C782 0.933 . S
H787 C784 0.929 . S
S788 N789 1.613 . S
S788 N790 1.610 . S
N789 S788 1.613 . S
N789 C792 1.350 . S
N790 S788 1.610 . S
N790 C791 1.356 1_565 S
C791 C785 1.434 1_556 S
C791 N790 1.356 1_545 S
C791 C792 1.421 1_545 S
C792 C783 1.429 1_556 S
C792 N789 1.350 . S
C792 C791 1.421 1_565 S
C793 C794 1.369 . S
C793 C795 1.419 1_545 S
C793 H797 0.930 . S
C794 C793 1.369 . S
C794 C803 1.429 . S
C795 C793 1.419 1_565 S
C795 C796 1.363 . S
C795 H798 0.929 . S
C796 C795 1.363 . S
C796 C802 1.428 . S
H797 C793 0.930 . S
H798 C795 0.929 . S
S799 N800 1.613 . S
S799 N801 1.610 1_545 S
N800 S799 1.613 . S
N800 C803 1.350 . S
N801 S799 1.610 1_565 S
N801 C802 1.351 . S
C802 C796 1.428 . S
C802 N801 1.351 . S
C802 C803 1.434 1_565 S
C803 C794 1.429 . S
C803 N800 1.350 . S
C803 C802 1.434 1_545 S
C804 C805 1.369 1_556 S
C804 C806 1.419 . S
C804 H808 0.930 . S
C805 C804 1.369 1_554 S
C805 C814 1.429 . S
C806 C804 1.419 . S
C806 C807 1.363 1_556 S
C806 H809 0.929 . S
C807 C806 1.363 1_554 S
C807 C813 1.428 . S
H808 C804 0.930 . S
H809 C806 0.929 . S
S810 N811 1.613 . S
S810 N812 1.610 . S
N811 S810 1.613 . S
N811 C814 1.350 . S
N812 S810 1.610 . S
N812 C813 1.351 . S
C813 C807 1.428 . S
C813 N812 1.351 . S
C813 C814 1.434 . S
C814 C805 1.429 . S
C814 N811 1.350 . S
C814 C813 1.434 . S
C815 C816 1.369 1_556 S
C815 C817 1.420 1_556 S
C815 H819 0.930 . S
C816 C815 1.369 1_554 S
C816 C825 1.429 . S
C817 C815 1.420 1_554 S
C817 C818 1.362 . S
C817 H820 0.929 1_554 S
C818 C817 1.362 . S
C818 C824 1.428 . S
H819 C815 0.930 . S
H820 C817 0.929 1_556 S
S821 N822 1.613 1_455 S
S821 N823 1.610 1_455 S
N822 S821 1.613 1_655 S
N822 C825 1.350 . S
N823 S821 1.610 1_655 S
N823 C824 1.351 . S
C824 C818 1.428 . S
C824 N823 1.351 . S
C824 C825 1.434 . S
C825 C816 1.429 . S
C825 N822 1.350 . S
C825 C824 1.434 . S
C826 C827 1.369 . S
C826 C828 1.419 . S
C826 H830 0.930 . S
C827 C826 1.369 . S
C827 C836 1.429 . S
C828 C826 1.419 . S
C828 C829 1.363 . S
C828 H831 0.929 . S
C829 C828 1.363 . S
C829 C835 1.428 . S
H830 C826 0.930 . S
H831 C828 0.929 . S
S832 N833 1.613 1_655 S
S832 N834 1.610 1_655 S
N833 S832 1.613 1_455 S
N833 C836 1.350 . S
N834 S832 1.610 1_455 S
N834 C835 1.351 . S
C835 C829 1.428 . S
C835 N834 1.351 . S
C835 C836 1.434 . S
C836 C827 1.429 . S
C836 N833 1.350 . S
C836 C835 1.434 . S
C837 C838 1.369 . S
C837 C839 1.419 . S
C837 H841 0.930 . S
C838 C837 1.369 . S
C838 C847 1.429 . S
C839 C837 1.419 . S
C839 C840 1.363 . S
C839 H842 0.929 . S
C840 C839 1.363 . S
C840 C846 1.428 . S
H841 C837 0.930 . S
H842 C839 0.929 . S
S843 N844 1.613 . S
S843 N845 1.610 . S
N844 S843 1.613 . S
N844 C847 1.350 . S
N845 S843 1.610 . S
N845 C846 1.351 . S
C846 C840 1.428 . S
C846 N845 1.351 . S
C846 C847 1.434 . S
C847 C838 1.429 . S
C847 N844 1.350 . S
C847 C846 1.434 . S
C848 C849 1.369 . S
C848 C850 1.419 . S
C848 H852 0.930 . S
C849 C848 1.369 . S
C849 C858 1.429 1_455 S
C850 C848 1.419 . S
C850 C851 1.363 1_455 S
C850 H853 0.929 . S
C851 C850 1.363 1_655 S
C851 C857 1.428 . S
H852 C848 0.930 . S
H853 C850 0.929 . S
S854 N855 1.613 . S
S854 N856 1.610 . S
N855 S854 1.613 . S
N855 C858 1.350 . S
N856 S854 1.610 . S
N856 C857 1.351 . S
C857 C851 1.428 . S
C857 N856 1.351 . S
C857 C858 1.434 . S
C858 C849 1.429 1_655 S
C858 N855 1.350 . S
C858 C857 1.434 . S
C859 C860 1.369 1_455 S
C859 C861 1.419 . S
C859 H863 0.930 . S
C860 C859 1.369 1_655 S
C860 C869 1.429 . S
C861 C859 1.419 . S
C861 C862 1.363 . S
C861 H864 0.929 . S
C862 C861 1.363 . S
C862 C868 1.428 1_455 S
H863 C859 0.930 . S
H864 C861 0.929 . S
S865 N866 1.613 . S
S865 N867 1.610 . S
N866 S865 1.613 . S
N866 C869 1.350 . S
N867 S865 1.610 . S
N867 C868 1.351 . S
C868 C862 1.428 1_655 S
C868 N867 1.351 . S
C868 C869 1.434 . S
C869 C860 1.429 . S
C869 N866 1.350 . S
C869 C868 1.434 . S
C870 C871 1.369 . S
C870 C872 1.419 1_655 S
C870 H874 0.930 . S
C871 C870 1.369 . S
C871 C880 1.429 . S
C872 C870 1.419 1_455 S
C872 C873 1.363 . S
C872 H875 0.929 . S
C873 C872 1.363 . S
C873 C879 1.428 1_455 S
H874 C870 0.930 . S
H875 C872 0.929 . S
S876 N877 1.613 . S
S876 N878 1.610 . S
N877 S876 1.613 . S
N877 C880 1.350 . S
N878 S876 1.610 . S
N878 C879 1.351 . S
C879 C873 1.428 1_655 S
C879 N878 1.351 . S
C879 C880 1.434 . S
C880 C871 1.429 . S
C880 N877 1.350 . S
C880 C879 1.434 . S
C881 C882 1.369 . S
C881 C883 1.419 . S
C881 H885 0.930 . S
C882 C881 1.369 . S
C882 C891 1.429 . S
C883 C881 1.419 . S
C883 C884 1.363 1_655 S
C883 H886 0.929 . S
C884 C883 1.363 1_455 S
C884 C890 1.428 1_455 S
H885 C881 0.930 . S
H886 C883 0.929 . S
S887 N888 1.613 . S
S887 N889 1.610 1_655 S
N888 S887 1.613 . S
N888 C891 1.350 . S
N889 S887 1.610 1_455 S
N889 C890 1.351 1_455 S
C890 C884 1.428 1_655 S
C890 N889 1.351 1_655 S
C890 C891 1.434 . S
C891 C882 1.429 . S
C891 N888 1.350 . S
C891 C890 1.434 . S
C892 C893 1.369 . S
C892 C894 1.419 . S
C892 H896 0.930 . S
C893 C892 1.369 . S
C893 C902 1.429 . S
C894 C892 1.419 . S
C894 C895 1.363 . S
C894 H897 0.929 . S
C895 C894 1.363 . S
C895 C901 1.428 . S
H896 C892 0.930 . S
H897 C894 0.929 . S
S898 N899 1.613 . S
S898 N900 1.610 . S
N899 S898 1.613 . S
N899 C902 1.350 . S
N900 S898 1.610 . S
N900 C901 1.351 . S
C901 C895 1.428 . S
C901 N900 1.351 . S
C901 C902 1.434 . S
C902 C893 1.429 . S
C902 N899 1.350 . S
C902 C901 1.434 . S
C903 C904 1.369 . S
C903 C905 1.419 . S
C903 H907 0.930 . S
C904 C903 1.369 . S
C904 C913 1.429 . S
C905 C903 1.419 . S
C905 C906 1.363 . S
C905 H908 0.929 . S
C906 C905 1.363 . S
C906 C912 1.428 . S
H907 C903 0.930 . S
H908 C905 0.929 . S
S909 N910 1.613 . S
S909 N911 1.610 . S
N910 S909 1.613 . S
N910 C913 1.350 . S
N911 S909 1.610 . S
N911 C912 1.351 . S
C912 C906 1.428 . S
C912 N911 1.351 . S
C912 C913 1.434 . S
C913 C904 1.429 . S
C913 N910 1.350 . S
C913 C912 1.434 . S
C914 C915 1.369 . S
C914 C916 1.419 . S
C914 H918 0.930 . S
C915 C914 1.369 . S
C915 C924 1.429 . S
C916 C914 1.419 . S
C916 C917 1.363 . S
C916 H919 0.929 . S
C917 C916 1.363 . S
C917 C923 1.428 . S
H918 C914 0.930 . S
H919 C916 0.929 . S
S920 N921 1.613 . S
S920 N922 1.610 . S
N921 S920 1.613 . S
N921 C924 1.350 . S
N922 S920 1.610 . S
N922 C923 1.351 . S
C923 C917 1.428 . S
C923 N922 1.351 . S
C923 C924 1.434 . S
C924 C915 1.429 . S
C924 N921 1.350 . S
C924 C923 1.434 . S
C925 C926 1.369 . S
C925 C927 1.419 . S
C925 H929 0.930 . S
C926 C925 1.369 . S
C926 C935 1.429 . S
C927 C925 1.419 . S
C927 C928 1.363 . S
C927 H930 0.929 . S
C928 C927 1.363 . S
C928 C934 1.428 . S
H929 C925 0.930 . S
H930 C927 0.929 . S
S931 N932 1.613 . S
S931 N933 1.610 . S
N932 S931 1.613 . S
N932 C935 1.350 . S
N933 S931 1.610 . S
N933 C934 1.351 . S
C934 C928 1.428 . S
C934 N933 1.351 . S
C934 C935 1.434 . S
C935 C926 1.429 . S
C935 N932 1.350 . S
C935 C934 1.434 . S
C673 C67 2.091 . S
C675 C56 2.094 . S
C684 C151 2.095 . S
C686 C140 2.090 . S
C695 C224 2.095 . S
C697 C235 2.090 . S
C706 C308 2.090 . S
C708 C319 2.095 . S
C717 C403 2.090 . S
C719 C392 2.095 . S
C728 C476 2.095 . S
C730 C487 2.091 . S
C739 C560 2.093 . S
C741 C571 2.092 . S
C750 C655 2.091 . S
C752 C644 2.094 . S
C761 C154 1.965 1_554 S
C763 C58 1.956 . S
C772 C322 1.954 . S
C774 C226 1.963 . S
C783 C394 1.964 . S
C785 C490 1.957 1_554 S
C794 C562 1.953 . S
C796 C658 1.965 . S
C805 C70 1.451 1_554 S
C807 C478 1.438 . S
C816 C406 1.448 1_554 S
C818 C142 1.440 . S
C827 C238 1.446 . S
C829 C646 1.442 . S
C838 C310 1.452 . S
C840 C574 1.437 . S
C849 C74 1.488 . S
C851 C326 1.612 . S
C860 C158 1.610 . S
C862 C242 1.489 . S
C871 C147 1.492 . S
C873 C231 1.613 . S
C882 C315 1.496 . S
C884 C63 1.611 . S
C893 C410 1.487 . S
C895 C662 1.610 . S
C904 C494 1.612 . S
C906 C578 1.493 . S
C915 C483 1.498 . S
C917 C567 1.612 . S
C926 C651 1.500 . S
C928 C399 1.612 . S
