# Generated by pormake.
# Topology vba, (4)-cn, num edge types: 1
# Building blocks:
#     Node 0, Type 0, BuildingBlock: KOZSID_clean_sbu_0, # of connection points: 4
#     Node 1, Type 0, BuildingBlock: KOZSID_clean_sbu_0, # of connection points: 4
#     Node 2, Type 0, BuildingBlock: KOZSID_clean_sbu_0, # of connection points: 4
#     Node 3, Type 0, BuildingBlock: KOZSID_clean_sbu_0, # of connection points: 4
#     Node 4, Type 0, BuildingBlock: KOZSID_clean_sbu_0, # of connection points: 4
#     Node 5, Type 0, BuildingBlock: KOZSID_clean_sbu_0, # of connection points: 4
#     Node 6, Type 0, BuildingBlock: KOZSID_clean_sbu_0, # of connection points: 4
#     Node 7, Type 0, BuildingBlock: KOZSID_clean_sbu_0, # of connection points: 4
#     Node 8, Type 0, BuildingBlock: KOZSID_clean_sbu_0, # of connection points: 4
#     Node 9, Type 0, BuildingBlock: KOZSID_clean_sbu_0, # of connection points: 4
#     Node 10, Type 0, BuildingBlock: KOZSID_clean_sbu_0, # of connection points: 4
#     Node 11, Type 0, BuildingBlock: KOZSID_clean_sbu_0, # of connection points: 4
#     Node 12, Type 0, BuildingBlock: KOZSID_clean_sbu_0, # of connection points: 4
#     Node 13, Type 0, BuildingBlock: KOZSID_clean_sbu_0, # of connection points: 4
#     Node 14, Type 0, BuildingBlock: KOZSID_clean_sbu_0, # of connection points: 4
#     Node 15, Type 0, BuildingBlock: KOZSID_clean_sbu_0, # of connection points: 4
#     Node 16, Type 0, BuildingBlock: KOZSID_clean_sbu_0, # of connection points: 4
#     Node 17, Type 0, BuildingBlock: KOZSID_clean_sbu_0, # of connection points: 4
#     Node 18, Type 0, BuildingBlock: KOZSID_clean_sbu_0, # of connection points: 4
#     Node 19, Type 0, BuildingBlock: KOZSID_clean_sbu_0, # of connection points: 4
#     Node 20, Type 0, BuildingBlock: KOZSID_clean_sbu_0, # of connection points: 4
#     Node 21, Type 0, BuildingBlock: KOZSID_clean_sbu_0, # of connection points: 4
#     Node 22, Type 0, BuildingBlock: KOZSID_clean_sbu_0, # of connection points: 4
#     Node 23, Type 0, BuildingBlock: KOZSID_clean_sbu_0, # of connection points: 4
#     Node 24, Type 0, BuildingBlock: KOZSID_clean_sbu_0, # of connection points: 4
#     Node 25, Type 0, BuildingBlock: KOZSID_clean_sbu_0, # of connection points: 4
#     Node 26, Type 0, BuildingBlock: KOZSID_clean_sbu_0, # of connection points: 4
#     Node 27, Type 0, BuildingBlock: KOZSID_clean_sbu_0, # of connection points: 4
#     Node 28, Type 0, BuildingBlock: KOZSID_clean_sbu_0, # of connection points: 4
#     Node 29, Type 0, BuildingBlock: KOZSID_clean_sbu_0, # of connection points: 4
#     Node 30, Type 0, BuildingBlock: KOZSID_clean_sbu_0, # of connection points: 4
#     Node 31, Type 0, BuildingBlock: KOZSID_clean_sbu_0, # of connection points: 4
#     Edge 32, Type (0, 0), BuildingBlock: KIFKEQ_clean_linker_1, # of connection points: 2
#     Edge 33, Type (0, 0), BuildingBlock: KIFKEQ_clean_linker_1, # of connection points: 2
#     Edge 34, Type (0, 0), BuildingBlock: KIFKEQ_clean_linker_1, # of connection points: 2
#     Edge 35, Type (0, 0), BuildingBlock: KIFKEQ_clean_linker_1, # of connection points: 2
#     Edge 36, Type (0, 0), BuildingBlock: KIFKEQ_clean_linker_1, # of connection points: 2
#     Edge 37, Type (0, 0), BuildingBlock: KIFKEQ_clean_linker_1, # of connection points: 2
#     Edge 38, Type (0, 0), BuildingBlock: KIFKEQ_clean_linker_1, # of connection points: 2
#     Edge 39, Type (0, 0), BuildingBlock: KIFKEQ_clean_linker_1, # of connection points: 2
#     Edge 40, Type (0, 0), BuildingBlock: KIFKEQ_clean_linker_1, # of connection points: 2
#     Edge 41, Type (0, 0), BuildingBlock: KIFKEQ_clean_linker_1, # of connection points: 2
#     Edge 42, Type (0, 0), BuildingBlock: KIFKEQ_clean_linker_1, # of connection points: 2
#     Edge 43, Type (0, 0), BuildingBlock: KIFKEQ_clean_linker_1, # of connection points: 2
#     Edge 44, Type (0, 0), BuildingBlock: KIFKEQ_clean_linker_1, # of connection points: 2
#     Edge 45, Type (0, 0), BuildingBlock: KIFKEQ_clean_linker_1, # of connection points: 2
#     Edge 46, Type (0, 0), BuildingBlock: KIFKEQ_clean_linker_1, # of connection points: 2
#     Edge 47, Type (0, 0), BuildingBlock: KIFKEQ_clean_linker_1, # of connection points: 2
#     Edge 48, Type (0, 0), BuildingBlock: KIFKEQ_clean_linker_1, # of connection points: 2
#     Edge 49, Type (0, 0), BuildingBlock: KIFKEQ_clean_linker_1, # of connection points: 2
#     Edge 50, Type (0, 0), BuildingBlock: KIFKEQ_clean_linker_1, # of connection points: 2
#     Edge 51, Type (0, 0), BuildingBlock: KIFKEQ_clean_linker_1, # of connection points: 2
#     Edge 52, Type (0, 0), BuildingBlock: KIFKEQ_clean_linker_1, # of connection points: 2
#     Edge 53, Type (0, 0), BuildingBlock: KIFKEQ_clean_linker_1, # of connection points: 2
#     Edge 54, Type (0, 0), BuildingBlock: KIFKEQ_clean_linker_1, # of connection points: 2
#     Edge 55, Type (0, 0), BuildingBlock: KIFKEQ_clean_linker_1, # of connection points: 2
#     Edge 56, Type (0, 0), BuildingBlock: KIFKEQ_clean_linker_1, # of connection points: 2
#     Edge 57, Type (0, 0), BuildingBlock: KIFKEQ_clean_linker_1, # of connection points: 2
#     Edge 58, Type (0, 0), BuildingBlock: KIFKEQ_clean_linker_1, # of connection points: 2
#     Edge 59, Type (0, 0), BuildingBlock: KIFKEQ_clean_linker_1, # of connection points: 2
#     Edge 60, Type (0, 0), BuildingBlock: KIFKEQ_clean_linker_1, # of connection points: 2
#     Edge 61, Type (0, 0), BuildingBlock: KIFKEQ_clean_linker_1, # of connection points: 2
#     Edge 62, Type (0, 0), BuildingBlock: KIFKEQ_clean_linker_1, # of connection points: 2
#     Edge 63, Type (0, 0), BuildingBlock: KIFKEQ_clean_linker_1, # of connection points: 2
#     Edge 64, Type (0, 0), BuildingBlock: KIFKEQ_clean_linker_1, # of connection points: 2
#     Edge 65, Type (0, 0), BuildingBlock: KIFKEQ_clean_linker_1, # of connection points: 2
#     Edge 66, Type (0, 0), BuildingBlock: KIFKEQ_clean_linker_1, # of connection points: 2
#     Edge 67, Type (0, 0), BuildingBlock: KIFKEQ_clean_linker_1, # of connection points: 2
#     Edge 68, Type (0, 0), BuildingBlock: KIFKEQ_clean_linker_1, # of connection points: 2
#     Edge 69, Type (0, 0), BuildingBlock: KIFKEQ_clean_linker_1, # of connection points: 2
#     Edge 70, Type (0, 0), BuildingBlock: KIFKEQ_clean_linker_1, # of connection points: 2
#     Edge 71, Type (0, 0), BuildingBlock: KIFKEQ_clean_linker_1, # of connection points: 2
#     Edge 72, Type (0, 0), BuildingBlock: KIFKEQ_clean_linker_1, # of connection points: 2
#     Edge 73, Type (0, 0), BuildingBlock: KIFKEQ_clean_linker_1, # of connection points: 2
#     Edge 74, Type (0, 0), BuildingBlock: KIFKEQ_clean_linker_1, # of connection points: 2
#     Edge 75, Type (0, 0), BuildingBlock: KIFKEQ_clean_linker_1, # of connection points: 2
#     Edge 76, Type (0, 0), BuildingBlock: KIFKEQ_clean_linker_1, # of connection points: 2
#     Edge 77, Type (0, 0), BuildingBlock: KIFKEQ_clean_linker_1, # of connection points: 2
#     Edge 78, Type (0, 0), BuildingBlock: KIFKEQ_clean_linker_1, # of connection points: 2
#     Edge 79, Type (0, 0), BuildingBlock: KIFKEQ_clean_linker_1, # of connection points: 2
#     Edge 80, Type (0, 0), BuildingBlock: KIFKEQ_clean_linker_1, # of connection points: 2
#     Edge 81, Type (0, 0), BuildingBlock: KIFKEQ_clean_linker_1, # of connection points: 2
#     Edge 82, Type (0, 0), BuildingBlock: KIFKEQ_clean_linker_1, # of connection points: 2
#     Edge 83, Type (0, 0), BuildingBlock: KIFKEQ_clean_linker_1, # of connection points: 2
#     Edge 84, Type (0, 0), BuildingBlock: KIFKEQ_clean_linker_1, # of connection points: 2
#     Edge 85, Type (0, 0), BuildingBlock: KIFKEQ_clean_linker_1, # of connection points: 2
#     Edge 86, Type (0, 0), BuildingBlock: KIFKEQ_clean_linker_1, # of connection points: 2
#     Edge 87, Type (0, 0), BuildingBlock: KIFKEQ_clean_linker_1, # of connection points: 2
#     Edge 88, Type (0, 0), BuildingBlock: KIFKEQ_clean_linker_1, # of connection points: 2
#     Edge 89, Type (0, 0), BuildingBlock: KIFKEQ_clean_linker_1, # of connection points: 2
#     Edge 90, Type (0, 0), BuildingBlock: KIFKEQ_clean_linker_1, # of connection points: 2
#     Edge 91, Type (0, 0), BuildingBlock: KIFKEQ_clean_linker_1, # of connection points: 2
#     Edge 92, Type (0, 0), BuildingBlock: KIFKEQ_clean_linker_1, # of connection points: 2
#     Edge 93, Type (0, 0), BuildingBlock: KIFKEQ_clean_linker_1, # of connection points: 2
#     Edge 94, Type (0, 0), BuildingBlock: KIFKEQ_clean_linker_1, # of connection points: 2
#     Edge 95, Type (0, 0), BuildingBlock: KIFKEQ_clean_linker_1, # of connection points: 2
# Relax obj value: 0.009
# Max RMSD: 0.110
# Mean RMSD: 0.110
data_MOF--net-vba--node1-KOZSID_clean_sbu_0--edge1-KIFKEQ_clean_linker_1
_symmetry_space_group_name_H-M    P1
_symmetry_Int_Tables_number       1
_symmetry_cell_setting            triclinic
loop_
_symmetry_equiv_pos_as_xyz
'x, y, z'
_cell_length_a     30.310445
_cell_length_b     128.71124
_cell_length_c     59.732786
_cell_angle_alpha  89.916757
_cell_angle_beta   89.982985
_cell_angle_gamma 90.007992
loop_
_atom_site_label
_atom_site_type_symbol
_atom_site_fract_x
_atom_site_fract_y
_atom_site_fract_z
_atom_type_partial_charge
C0 C 0.22349 0.06452 0.04499 0.0
C1 C 0.18893 0.05748 0.04647 0.0
C2 C 0.1854 0.05286 0.02588 0.0
C3 C 0.21807 0.05726 0.01306 0.0
N4 N 0.24205 0.06431 0.02433 0.0
Co5 Co 0.29244 0.07239 0.01221 0.0
N6 N 0.27351 0.06994 0.98081 0.0
C7 C 0.24432 0.06268 0.97412 0.0
C8 C 0.23728 0.06272 0.95145 0.0
C9 C 0.26431 0.07035 0.94326 0.0
C10 C 0.28682 0.0745 0.96145 0.0
N11 N 0.34322 0.08045 1.00018 0.0
C12 C 0.35171 0.0839 0.97907 0.0
C13 C 0.39264 0.08872 0.97807 0.0
C14 C 0.41052 0.08813 0.99913 0.0
C15 C 0.37972 0.08297 0.01183 0.0
N16 N 0.31028 0.07479 0.04383 0.0
C17 C 0.3503 0.07796 0.05071 0.0
C18 C 0.35173 0.0798 0.07335 0.0
C19 C 0.31005 0.07766 0.08113 0.0
C20 C 0.28536 0.0745 0.0628 0.0
N21 N 0.32929 0.05965 0.011 0.0
C22 C 0.38864 0.04256 0.00913 0.0
C23 C 0.36104 0.04421 0.02785 0.0
C24 C 0.33182 0.05278 0.02847 0.0
C25 C 0.38488 0.04968 0.99142 0.0
C26 C 0.35512 0.05795 0.99256 0.0
N27 N 0.257 0.08521 0.01311 0.0
C28 C 0.25293 0.1036 0.02072 0.0
C29 C 0.20996 0.10412 0.01216 0.0
C30 C 0.19058 0.09483 0.00462 0.0
C31 C 0.21467 0.08549 0.00516 0.0
C32 C 0.27561 0.09414 0.02113 0.0
H33 H 0.1993 0.07852 0.99885 0.0
H34 H 0.3086 0.09413 0.02776 0.0
H35 H 0.31164 0.05391 0.04318 0.0
H36 H 0.35407 0.06311 0.97846 0.0
C37 C 0.22098 0.05672 0.98975 0.0
C38 C 0.23893 0.07097 0.0637 0.0
C39 C 0.32497 0.08151 0.95913 0.0
C40 C 0.38161 0.08137 0.03505 0.0
H41 H 0.16819 0.05593 0.06085 0.0
H42 H 0.16041 0.04738 0.02058 0.0
H43 H 0.21487 0.05786 0.94201 0.0
H44 H 0.26823 0.07237 0.92577 0.0
H45 H 0.40847 0.09205 0.96349 0.0
H46 H 0.44203 0.09117 0.00455 0.0
H47 H 0.37891 0.08301 0.08284 0.0
H48 H 0.29918 0.0786 0.09823 0.0
H49 H 0.36177 0.03894 0.04197 0.0
H50 H 0.40563 0.04913 0.97674 0.0
H51 H 0.26909 0.11047 0.0272 0.0
H52 H 0.15747 0.09482 0.99781 0.0
C53 C 0.0444 0.21399 0.04391 0.0
C54 C 0.08068 0.22055 0.04494 0.0
C55 C 0.0845 0.2251 0.02428 0.0
C56 C 0.05055 0.22107 0.01179 0.0
N57 N 0.0255 0.2143 0.02333 0.0
Co58 Co 0.974 0.2065 0.01149 0.0
N59 N 0.99265 0.20884 0.97996 0.0
C60 C 0.02279 0.21584 0.97305 0.0
C61 C 0.02956 0.21569 0.95036 0.0
C62 C 1.00138 0.20826 0.94239 0.0
C63 C 0.97854 0.20433 0.96073 0.0
N64 N 0.92195 0.19884 0.99979 0.0
C65 C 0.9124 0.19556 0.97871 0.0
C66 C 0.87075 0.19108 0.97794 0.0
C67 C 0.85351 0.19173 0.99912 0.0
C68 C 0.88539 0.19656 0.01168 0.0
N69 N 0.95663 0.20409 0.04317 0.0
C70 C 0.91636 0.20127 0.05037 0.0
C71 C 0.91478 0.19987 0.07319 0.0
C72 C 0.95674 0.20193 0.08074 0.0
C73 C 0.98165 0.20446 0.06205 0.0
N74 N 0.93839 0.21945 0.01058 0.0
C75 C 0.87878 0.2364 0.00969 0.0
C76 C 0.90366 0.2341 0.02896 0.0
C77 C 0.93371 0.22572 0.02895 0.0
C78 C 0.88549 0.23017 0.99081 0.0
C79 C 0.91478 0.22178 0.99165 0.0
N80 N 0.00808 0.19348 0.01217 0.0
C81 C 0.01069 0.17507 0.01989 0.0
C82 C 0.05377 0.17438 0.01149 0.0
C83 C 0.07381 0.18358 1.00385 0.0
C84 C 0.05041 0.19301 0.00425 0.0
C85 C 0.98868 0.18462 0.02016 0.0
H86 H 0.06639 0.1999 0.99793 0.0
H87 H 0.95565 0.18478 0.02675 0.0
H88 H 0.95239 0.22417 0.04398 0.0
H89 H 0.91702 0.21702 0.97697 0.0
C90 C 0.04733 0.2216 0.98849 0.0
C91 C 0.02813 0.20777 0.0628 0.0
C92 C 0.93931 0.19765 0.95867 0.0
C93 C 0.88416 0.19812 0.03494 0.0
H94 H 0.10255 0.22179 0.059 0.0
H95 H 0.11058 0.23023 0.01865 0.0
H96 H 0.05259 0.22034 0.94076 0.0
H97 H 0.99698 0.20624 0.92495 0.0
H98 H 0.85412 0.18792 0.96343 0.0
H99 H 0.8217 0.18893 0.00472 0.0
H100 H 0.88707 0.19719 0.08306 0.0
H101 H 0.96782 0.20158 0.09795 0.0
H102 H 0.89996 0.23876 0.04394 0.0
H103 H 0.86691 0.23153 0.9756 0.0
H104 H 0.994 0.16827 0.02641 0.0
H105 H 0.10699 0.18346 0.99712 0.0
C106 C 0.21996 0.21437 0.21696 0.0
C107 C 0.18397 0.22104 0.21684 0.0
C108 C 0.18233 0.22555 0.23761 0.0
C109 C 0.21711 0.22136 0.24927 0.0
N110 N 0.24054 0.21452 0.23713 0.0
Co111 Co 0.29216 0.20641 0.24784 0.0
N112 N 0.27606 0.20861 0.27974 0.0
C113 C 0.2485 0.21604 0.28728 0.0
C114 C 0.24523 0.21628 0.31013 0.0
C115 C 0.27292 0.20862 0.31754 0.0
C116 C 0.29161 0.20405 0.29868 0.0
N117 N 0.34399 0.1983 0.25836 0.0
C118 C 0.3536 0.19441 0.27897 0.0
C119 C 0.39364 0.18916 0.27858 0.0
C120 C 0.41018 0.19014 0.2573 0.0
C121 C 0.37931 0.19582 0.24575 0.0
N122 N 0.30742 0.20432 0.21583 0.0
C123 C 0.34708 0.20146 0.20787 0.0
C124 C 0.34714 0.2003 0.18498 0.0
C125 C 0.30483 0.20255 0.17821 0.0
C126 C 0.28123 0.20493 0.1974 0.0
N127 N 0.32878 0.21917 0.24876 0.0
C128 C 0.38687 0.23647 0.25024 0.0
C129 C 0.3575 0.23499 0.23218 0.0
C130 C 0.32891 0.22631 0.23174 0.0
C131 C 0.38574 0.22905 0.26745 0.0
C132 C 0.35657 0.22066 0.26652 0.0
N133 N 0.25694 0.19357 0.24718 0.0
C134 C 0.25204 0.17535 0.23813 0.0
C135 C 0.20966 0.17468 0.24745 0.0
C136 C 0.19138 0.18381 0.2565 0.0
C137 C 0.21551 0.19315 0.25622 0.0
C138 C 0.27478 0.18479 0.23806 0.0
H139 H 0.20079 0.2 0.26341 0.0
H140 H 0.30725 0.1849 0.23079 0.0
H141 H 0.30722 0.22532 0.21755 0.0
H142 H 0.35749 0.21527 0.28023 0.0
C143 C 0.22308 0.22194 0.27241 0.0
C144 C 0.23478 0.20828 0.19756 0.0
C145 C 0.3283 0.19652 0.29963 0.0
C146 C 0.37958 0.1978 0.22261 0.0
H147 H 0.16095 0.22242 0.20334 0.0
H148 H 0.15724 0.23078 0.24384 0.0
H149 H 0.22501 0.22138 0.32024 0.0
H150 H 0.27964 0.20693 0.33494 0.0
H151 H 0.40975 0.18522 0.29234 0.0
H152 H 0.44065 0.18691 0.25092 0.0
H153 H 0.37397 0.19757 0.17458 0.0
H154 H 0.29263 0.20237 0.16119 0.0
H155 H 0.35633 0.24049 0.21847 0.0
H156 H 0.40805 0.22948 0.28155 0.0
H157 H 0.26828 0.16857 0.23129 0.0
H158 H 0.15856 0.18379 0.26365 0.0
C159 C 0.04053 0.06508 0.21527 0.0
C160 C 0.07463 0.0579 0.2142 0.0
C161 C 0.07651 0.05314 0.23475 0.0
C162 C 0.0434 0.05762 0.24712 0.0
N163 N 0.0208 0.06485 0.23564 0.0
Co164 Co 0.97021 0.07303 0.24716 0.0
N165 N 0.9872 0.07039 0.2788 0.0
C166 C 0.01421 0.06271 0.28571 0.0
C167 C 0.01823 0.06218 0.30852 0.0
C168 C 0.99161 0.06991 0.31656 0.0
C169 C 0.97274 0.0748 0.2981 0.0
N170 N 0.91937 0.08122 0.25859 0.0
C171 C 0.91085 0.08493 0.27946 0.0
C172 C 0.87132 0.09039 0.27968 0.0
C173 C 0.85396 0.08973 0.25853 0.0
C174 C 0.88388 0.08403 0.24645 0.0
N175 N 0.9541 0.07555 0.21534 0.0
C176 C 0.9146 0.07885 0.20797 0.0
C177 C 0.91431 0.08072 0.18532 0.0
C178 C 0.9562 0.07845 0.17804 0.0
C179 C 0.97986 0.07518 0.19665 0.0
N180 N 0.93274 0.06041 0.2478 0.0
C181 C 0.87407 0.04322 0.24916 0.0
C182 C 0.9028 0.04482 0.23087 0.0
C183 C 0.93168 0.05345 0.23049 0.0
C184 C 0.87604 0.05047 0.26663 0.0
C185 C 0.90547 0.05881 0.26575 0.0
N186 N 1.00631 0.08574 0.24684 0.0
C187 C 0.0116 0.10411 0.23928 0.0
C188 C 0.054 0.10451 0.24852 0.0
C189 C 0.07258 0.09518 0.25637 0.0
C190 C 0.04811 0.0859 0.25549 0.0
C191 C 0.98861 0.09472 0.2385 0.0
H192 H 0.06269 0.07888 0.26207 0.0
H193 H 0.95609 0.0948 0.23132 0.0
H194 H 0.9529 0.05453 0.21614 0.0
H195 H 0.90527 0.06407 0.27968 0.0
C196 C 0.03823 0.05679 0.2703 0.0
C197 C 0.02614 0.07152 0.19628 0.0
C198 C 0.93674 0.08249 0.29977 0.0
C199 C 0.88292 0.08243 0.22323 0.0
H200 H 0.09594 0.05628 0.20009 0.0
H201 H 0.1005 0.04747 0.24029 0.0
H202 H 0.03819 0.05684 0.31818 0.0
H203 H 0.98561 0.07142 0.33409 0.0
H204 H 0.85614 0.09429 0.29375 0.0
H205 H 0.82369 0.09323 0.25256 0.0
H206 H 0.88781 0.08404 0.17551 0.0
H207 H 0.9679 0.07939 0.16107 0.0
H208 H 0.90327 0.03945 0.21695 0.0
H209 H 0.85423 0.04994 0.28093 0.0
H210 H 0.99616 0.11103 0.23256 0.0
H211 H 0.10529 0.0951 0.26365 0.0
C212 C 0.73199 0.95459 0.94578 0.0
C213 C 0.70765 0.9522 0.92683 0.0
C214 C 0.66545 0.9501 0.934 0.0
C215 C 0.66634 0.95134 0.95686 0.0
N216 N 0.7064 0.95409 0.96444 0.0
Co217 Co 0.72289 0.95627 0.99627 0.0
N218 N 0.67065 0.94849 0.00734 0.0
C219 C 0.63437 0.94632 0.99517 0.0
C220 C 0.60241 0.94128 0.00735 0.0
C221 C 0.61934 0.94039 0.02856 0.0
C222 C 0.66084 0.94496 0.02818 0.0
N223 N 0.74064 0.95837 0.02797 0.0
C224 C 0.72619 0.95366 0.04694 0.0
C225 C 0.74763 0.95766 0.06562 0.0
C226 C 0.7756 0.96525 0.05809 0.0
C227 C 0.76993 0.96546 0.03532 0.0
N228 N 0.77459 0.96419 0.98505 0.0
C229 C 0.79905 0.97094 0.99695 0.0
C230 C 0.83339 0.97505 0.98485 0.0
C231 C 0.83041 0.9706 0.96407 0.0
C232 C 0.79414 0.96402 0.96464 0.0
N233 N 0.68712 0.96919 0.99735 0.0
C234 C 0.62771 0.98617 0.99848 0.0
C235 C 0.63393 0.97979 0.01719 0.0
C236 C 0.66309 0.97137 0.01622 0.0
C237 C 0.65289 0.98401 0.97925 0.0
C238 C 0.68287 0.97561 0.97915 0.0
N239 N 0.75716 0.94327 0.99546 0.0
C240 C 0.82256 0.93334 0.00428 0.0
C241 C 0.80282 0.92418 0.99632 0.0
C242 C 0.76013 0.92491 0.98745 0.0
C243 C 0.73812 0.93446 0.9871 0.0
C244 C 0.79917 0.94277 1.00378 0.0
H245 H 0.70534 0.93465 0.9802 0.0
H246 H 0.81485 0.94964 0.0104 0.0
H247 H 0.66493 0.96648 0.03075 0.0
H248 H 0.70186 0.97417 0.96417 0.0
C249 C 0.63369 0.94807 0.97196 0.0
C250 C 0.77845 0.95791 0.94548 0.0
C251 C 0.68763 0.94674 0.04838 0.0
C252 C 0.79484 0.97136 0.02022 0.0
H253 H 0.71925 0.95198 0.9097 0.0
H254 H 0.63804 0.94749 0.92385 0.0
H255 H 0.57085 0.93846 1.00146 0.0
H256 H 0.60267 0.93698 0.04281 0.0
H257 H 0.74243 0.95558 0.08298 0.0
H258 H 0.79774 0.96996 0.06802 0.0
H259 H 0.85917 0.98017 0.9908 0.0
H260 H 0.85281 0.97194 0.95026 0.0
H261 H 0.61507 0.98105 0.03235 0.0
H262 H 0.6495 0.98878 0.9644 0.0
H263 H 0.85543 0.93319 0.01137 0.0
H264 H 0.74371 0.91813 0.98067 0.0
C265 C 0.03314 0.82406 0.94781 0.0
C266 C 0.05843 0.82669 0.92932 0.0
C267 C 0.10022 0.82874 0.93718 0.0
C268 C 0.09811 0.82724 0.95996 0.0
N269 N 0.0577 0.82435 0.96682 0.0
Co270 Co 0.03924 0.82184 0.99825 0.0
N271 N 0.0904 0.82961 0.01043 0.0
C272 C 0.1274 0.83196 0.99897 0.0
C273 C 0.1583 0.83695 0.01186 0.0
C274 C 0.13988 0.83763 0.03279 0.0
C275 C 0.09861 0.83298 0.03154 0.0
N276 N 0.01944 0.81939 0.02951 0.0
C277 C 0.0323 0.82398 0.04886 0.0
C278 C 0.00991 0.81973 0.06702 0.0
C279 C 0.98296 0.81211 0.05876 0.0
C280 C 0.99015 0.81213 0.0361 0.0
N281 N 0.98868 0.81392 0.98594 0.0
C282 C 0.96397 0.80694 0.99708 0.0
C283 C 0.93064 0.80287 0.98421 0.0
C284 C 0.93459 0.80762 0.96374 0.0
C285 C 0.97029 0.81433 0.9653 0.0
N286 N 0.07551 0.80901 0.9994 0.0
C287 C 0.13779 0.79251 1.0005 0.0
C288 C 0.12883 0.79856 0.01949 0.0
C289 C 0.09846 0.80672 0.01853 0.0
C290 C 0.11269 0.79465 0.98113 0.0
C291 C 0.08154 0.80282 0.98102 0.0
N292 N 1.00455 0.83478 0.99732 0.0
C293 C 0.93817 0.84453 0.0051 0.0
C294 C 0.95819 0.85378 0.99773 0.0
C295 C 1.00155 0.85319 0.98969 0.0
C296 C 0.02389 0.84369 0.98955 0.0
C297 C 0.96193 0.83514 0.00485 0.0
H298 H 0.05716 0.8436 0.98326 0.0
H299 H 0.94602 0.8282 0.01099 0.0
H300 H 0.09479 0.81135 0.03335 0.0
H301 H 0.06333 0.80432 0.96582 0.0
C302 C 0.1297 0.83042 0.9757 0.0
C303 C 0.98667 0.8208 0.94686 0.0
C304 C 0.07041 0.83098 0.05118 0.0
C305 C 0.96666 0.80627 0.02039 0.0
H306 H 0.04771 0.82714 0.91207 0.0
H307 H 0.12808 0.83153 0.92755 0.0
H308 H 0.19013 0.83989 0.00662 0.0
H309 H 0.15541 0.84097 0.04743 0.0
H310 H 0.01384 0.82164 0.08455 0.0
H311 H 0.96053 0.80722 0.06814 0.0
H312 H 0.90485 0.79758 0.98946 0.0
H313 H 0.91324 0.80641 0.94947 0.0
H314 H 0.14544 0.79713 0.03523 0.0
H315 H 0.11778 0.7903 0.96587 0.0
H316 H 0.90476 0.84458 0.01153 0.0
H317 H 0.01824 0.86003 0.98338 0.0
C318 C 0.73157 0.82594 0.81433 0.0
C319 C 0.71172 0.83012 0.83319 0.0
C320 C 0.67257 0.83432 0.82632 0.0
C321 C 0.67064 0.83245 0.80374 0.0
N322 N 0.70577 0.82711 0.79582 0.0
Co323 Co 0.71832 0.82363 0.76364 0.0
N324 N 0.66505 0.83146 0.75286 0.0
C325 C 0.63444 0.8362 0.7658 0.0
C326 C 0.60199 0.84109 0.75378 0.0
C327 C 0.61238 0.83936 0.73186 0.0
C328 C 0.65064 0.83343 0.73171 0.0
N329 N 0.73193 0.82034 0.73156 0.0
C330 C 0.71113 0.82324 0.71242 0.0
C331 C 0.73095 0.81882 0.6937 0.0
C332 C 0.76593 0.81317 0.70121 0.0
C333 C 0.76534 0.81434 0.72397 0.0
N334 N 0.77143 0.81574 0.77448 0.0
C335 C 0.79931 0.81002 0.76185 0.0
C336 C 0.8342 0.80599 0.77353 0.0
C337 C 0.82884 0.80947 0.79488 0.0
C338 C 0.7906 0.81542 0.79505 0.0
N339 N 0.68091 0.8107 0.76566 0.0
C340 C 0.62053 0.79365 0.76275 0.0
C341 C 0.6634 0.79303 0.75388 0.0
C342 C 0.69268 0.80152 0.75553 0.0
C343 C 0.60971 0.80286 0.77394 0.0
C344 C 0.64006 0.81103 0.77552 0.0
N345 N 0.75438 0.83654 0.76134 0.0
C346 C 0.82117 0.84574 0.7508 0.0
C347 C 0.80306 0.85526 0.75766 0.0
C348 C 0.76058 0.85513 0.76667 0.0
C349 C 0.73726 0.84582 0.76844 0.0
C350 C 0.79627 0.83654 0.75262 0.0
H351 H 0.70532 0.84635 0.77567 0.0
H352 H 0.81124 0.82949 0.74682 0.0
H353 H 0.72448 0.8005 0.74824 0.0
H354 H 0.62896 0.81762 0.78445 0.0
C355 C 0.63866 0.83647 0.78917 0.0
C356 C 0.77537 0.82112 0.81478 0.0
C357 C 0.67236 0.83 0.71108 0.0
C358 C 0.79523 0.80976 0.73866 0.0
H359 H 0.72475 0.83034 0.85005 0.0
H360 H 0.64916 0.83859 0.83642 0.0
H361 H 0.57451 0.84556 0.76019 0.0
H362 H 0.59407 0.84225 0.7176 0.0
H363 H 0.72107 0.8195 0.67637 0.0
H364 H 0.78887 0.80867 0.69127 0.0
H365 H 0.86161 0.80152 0.76702 0.0
H366 H 0.85159 0.80809 0.8085 0.0
H367 H 0.67463 0.78604 0.74563 0.0
H368 H 0.5773 0.80401 0.78111 0.0
H369 H 0.85401 0.84543 0.74369 0.0
H370 H 0.74534 0.86221 0.77268 0.0
C371 C 0.03229 0.95525 0.81103 0.0
C372 C 0.05652 0.9527 0.82993 0.0
C373 C 0.09853 0.95044 0.82268 0.0
C374 C 0.09767 0.95177 0.79983 0.0
N375 N 0.0578 0.95473 0.79236 0.0
Co376 Co 0.04127 0.95705 0.76059 0.0
N377 N 0.09225 0.94889 0.74936 0.0
C378 C 0.12807 0.94627 0.76149 0.0
C379 C 0.15807 0.94056 0.74947 0.0
C380 C 0.1404 0.9397 0.7284 0.0
C381 C 0.10057 0.94504 0.72861 0.0
N382 N 0.02391 0.9595 0.72898 0.0
C383 C 0.0382 0.95496 0.70981 0.0
C384 C 0.01904 0.9597 0.69124 0.0
C385 C 0.99231 0.96745 0.69909 0.0
C386 C 0.9966 0.96709 0.7219 0.0
N387 N 0.99047 0.9652 0.77199 0.0
C388 C 0.96702 0.97223 0.76034 0.0
C389 C 0.93295 0.97642 0.7725 0.0
C390 C 0.93512 0.97171 0.79309 0.0
C391 C 0.97066 0.96492 0.79234 0.0
N392 N 0.07839 0.96972 0.75956 0.0
C393 C 0.13752 0.98682 0.7579 0.0
C394 C 0.13516 0.97954 0.7405 0.0
C395 C 0.10551 0.97125 0.74152 0.0
C396 C 0.10879 0.98532 0.77624 0.0
C397 C 0.07966 0.97674 0.77676 0.0
N398 N 1.00563 0.94428 0.76133 0.0
C399 C 0.94003 0.93459 0.75179 0.0
C400 C 0.95839 0.92539 0.76051 0.0
C401 C 1.00072 0.92599 0.76987 0.0
C402 C 0.02346 0.93543 0.7702 0.0
C403 C 0.96412 0.94393 0.75238 0.0
H404 H 0.05601 0.93547 0.77736 0.0
H405 H 0.94938 0.95085 0.74543 0.0
H406 H 0.10552 0.96595 0.72767 0.0
H407 H 0.05851 0.97572 0.79115 0.0
C408 C 0.12947 0.94813 0.78466 0.0
C409 C 0.98589 0.95861 0.81132 0.0
C410 C 0.07418 0.94727 0.70835 0.0
C411 C 0.97213 0.97298 0.73716 0.0
H412 H 0.0449 0.9524 0.84705 0.0
H413 H 0.12565 0.9476 0.83275 0.0
H414 H 0.18867 0.93722 0.75541 0.0
H415 H 0.15558 0.93576 0.71439 0.0
H416 H 0.02479 0.95806 0.67374 0.0
H417 H 0.97199 0.97267 0.68931 0.0
H418 H 0.90796 0.9818 0.76673 0.0
H419 H 0.9128 0.97306 0.80692 0.0
H420 H 0.1569 0.98 0.72616 0.0
H421 H 0.10857 0.99072 0.79011 0.0
H422 H 0.90723 0.93462 0.74462 0.0
H423 H 0.01694 0.91916 0.7765 0.0
C424 C 0.22026 0.56415 0.54118 0.0
C425 C 0.18462 0.55738 0.5414 0.0
C426 C 0.18294 0.55289 0.52061 0.0
C427 C 0.21741 0.55717 0.50886 0.0
N428 N 0.24067 0.56405 0.52095 0.0
Co429 Co 0.29197 0.57226 0.51017 0.0
N430 N 0.27577 0.57005 0.47828 0.0
C431 C 0.24851 0.56254 0.47079 0.0
C432 C 0.24518 0.56229 0.44793 0.0
C433 C 0.2725 0.57002 0.44049 0.0
C434 C 0.29103 0.57465 0.45932 0.0
N435 N 0.34335 0.58051 0.49957 0.0
C436 C 0.35263 0.58446 0.47896 0.0
C437 C 0.39239 0.58982 0.47931 0.0
C438 C 0.40912 0.58886 0.50055 0.0
C439 C 0.37862 0.58308 0.51212 0.0
N440 N 0.30742 0.57432 0.54217 0.0
C441 C 0.34706 0.57724 0.55004 0.0
C442 C 0.3473 0.57836 0.57294 0.0
C443 C 0.30514 0.57601 0.57982 0.0
C444 C 0.28143 0.57362 0.56068 0.0
N445 N 0.32904 0.55959 0.50912 0.0
C446 C 0.3881 0.5425 0.50756 0.0
C447 C 0.35868 0.54386 0.52565 0.0
C448 C 0.32958 0.55244 0.52612 0.0
C449 C 0.38647 0.5499 0.49035 0.0
C450 C 0.35685 0.55819 0.49131 0.0
N451 N 0.25633 0.58501 0.51096 0.0
C452 C 0.25024 0.60309 0.52107 0.0
C453 C 0.2085 0.60378 0.51113 0.0
C454 C 0.19109 0.59478 0.50114 0.0
C455 C 0.2154 0.58548 0.50135 0.0
C456 C 0.27344 0.59373 0.52076 0.0
H457 H 0.20125 0.57867 0.49364 0.0
H458 H 0.30562 0.59361 0.52833 0.0
H459 H 0.30787 0.55335 0.54033 0.0
H460 H 0.35745 0.5636 0.47762 0.0
C461 C 0.22333 0.5566 0.4857 0.0
C462 C 0.23502 0.57023 0.56059 0.0
C463 C 0.32728 0.5823 0.45831 0.0
C464 C 0.37922 0.58103 0.53524 0.0
H465 H 0.16196 0.5559 0.55504 0.0
H466 H 0.15807 0.54758 0.51444 0.0
H467 H 0.22514 0.55715 0.43786 0.0
H468 H 0.27908 0.57173 0.42308 0.0
H469 H 0.4082 0.59383 0.46554 0.0
H470 H 0.43947 0.59217 0.50689 0.0
H471 H 0.37413 0.58112 0.5833 0.0
H472 H 0.29309 0.57614 0.59687 0.0
H473 H 0.3579 0.53836 0.53935 0.0
H474 H 0.40878 0.54954 0.47623 0.0
H475 H 0.2655 0.60982 0.52869 0.0
H476 H 0.15879 0.5949 0.49341 0.0
C477 C 0.04286 0.71368 0.54223 0.0
C478 C 0.0777 0.72066 0.54334 0.0
C479 C 0.08084 0.72523 0.52263 0.0
C480 C 0.04771 0.72084 0.51012 0.0
N481 N 0.02385 0.71386 0.5217 0.0
Co482 Co 0.97284 0.70586 0.51012 0.0
N483 N 0.99107 0.70817 0.47854 0.0
C484 C 0.01981 0.71546 0.47149 0.0
C485 C 0.02579 0.71544 0.44874 0.0
C486 C 0.99859 0.70778 0.4409 0.0
C487 C 0.9772 0.70355 0.45939 0.0
N488 N 0.92152 0.69787 0.49862 0.0
C489 C 0.91266 0.69429 0.4777 0.0
C490 C 0.87162 0.68951 0.47704 0.0
C491 C 0.85402 0.69029 0.49813 0.0
C492 C 0.88513 0.69549 0.51051 0.0
N493 N 0.95554 0.70364 0.54188 0.0
C494 C 0.91548 0.70063 0.54908 0.0
C495 C 0.9144 0.6989 0.57177 0.0
C496 C 0.95635 0.70096 0.57926 0.0
C497 C 0.98082 0.70397 0.56071 0.0
N498 N 0.93662 0.71865 0.50887 0.0
C499 C 0.87803 0.73583 0.50725 0.0
C500 C 0.90624 0.7342 0.52572 0.0
C501 C 0.9351 0.72559 0.52623 0.0
C502 C 0.8808 0.72867 0.48963 0.0
C503 C 0.91024 0.72034 0.49064 0.0
N504 N 0.00773 0.69299 0.51111 0.0
C505 C 0.01212 0.67479 0.52046 0.0
C506 C 0.0546 0.6741 0.51135 0.0
C507 C 0.07325 0.68316 0.50219 0.0
C508 C 0.04939 0.69252 0.50235 0.0
C509 C 0.98942 0.68423 0.52015 0.0
H510 H 0.06451 0.69937 0.49527 0.0
H511 H 0.95666 0.68436 0.52707 0.0
H512 H 0.95577 0.72446 0.54075 0.0
H513 H 0.9106 0.71513 0.47665 0.0
C514 C 0.04386 0.72141 0.48683 0.0
C515 C 0.02741 0.70739 0.56124 0.0
C516 C 0.93945 0.6964 0.4576 0.0
C517 C 0.8837 0.69722 0.53369 0.0
H518 H 0.09876 0.72224 0.55756 0.0
H519 H 0.10576 0.73067 0.51707 0.0
H520 H 0.04762 0.72034 0.439 0.0
H521 H 0.99384 0.70579 0.42347 0.0
H522 H 0.85561 0.68607 0.46265 0.0
H523 H 0.82254 0.68731 0.5038 0.0
H524 H 0.88726 0.69581 0.5815 0.0
H525 H 0.96749 0.70007 0.59633 0.0
H526 H 0.90624 0.73952 0.53974 0.0
H527 H 0.85951 0.72924 0.47515 0.0
H528 H 0.99593 0.66802 0.52744 0.0
H529 H 0.10616 0.68304 0.49514 0.0
C530 C 0.2233 0.71379 0.71268 0.0
C531 C 0.18879 0.72084 0.71117 0.0
C532 C 0.18525 0.72547 0.73175 0.0
C533 C 0.21786 0.72107 0.74459 0.0
N534 N 0.24179 0.714 0.73333 0.0
Co535 Co 0.29213 0.70591 0.74544 0.0
N536 N 0.27325 0.7084 0.77684 0.0
C537 C 0.24423 0.7157 0.78352 0.0
C538 C 0.23707 0.71566 0.80618 0.0
C539 C 0.26384 0.70798 0.81437 0.0
C540 C 0.28635 0.70382 0.79619 0.0
N541 N 0.34276 0.69781 0.75749 0.0
C542 C 0.35107 0.69434 0.77858 0.0
C543 C 0.39194 0.68949 0.77961 0.0
C544 C 0.40994 0.6901 0.75857 0.0
C545 C 0.37927 0.69527 0.74586 0.0
N546 N 0.31007 0.70351 0.71384 0.0
C547 C 0.35013 0.70035 0.70697 0.0
C548 C 0.35165 0.69853 0.68433 0.0
C549 C 0.30998 0.70068 0.67653 0.0
C550 C 0.28524 0.70383 0.69486 0.0
N551 N 0.32902 0.71862 0.74656 0.0
C552 C 0.38826 0.7357 0.7482 0.0
C553 C 0.36043 0.73407 0.72959 0.0
C554 C 0.33126 0.7255 0.72908 0.0
C555 C 0.38494 0.72855 0.76588 0.0
C556 C 0.35516 0.72029 0.76487 0.0
N557 N 0.2566 0.69312 0.74455 0.0
C558 C 0.2515 0.6749 0.73547 0.0
C559 C 0.20882 0.67432 0.7444 0.0
C560 C 0.19046 0.68345 0.75333 0.0
C561 C 0.21474 0.69277 0.75312 0.0
C562 C 0.27466 0.68428 0.73577 0.0
H563 H 0.19979 0.69967 0.75999 0.0
H564 H 0.30756 0.68431 0.72902 0.0
H565 H 0.31085 0.72438 0.71446 0.0
H566 H 0.35428 0.71512 0.77897 0.0
C567 C 0.22087 0.72165 0.76789 0.0
C568 C 0.23883 0.70735 0.69397 0.0
C569 C 0.32422 0.69673 0.79851 0.0
C570 C 0.38133 0.69691 0.72265 0.0
H571 H 0.16813 0.7224 0.69678 0.0
H572 H 0.16034 0.73098 0.73703 0.0
H573 H 0.21466 0.72052 0.81561 0.0
H574 H 0.26752 0.70593 0.83186 0.0
H575 H 0.40765 0.68614 0.7942 0.0
H576 H 0.44145 0.68704 0.75318 0.0
H577 H 0.37885 0.69533 0.67484 0.0
H578 H 0.29918 0.69975 0.65942 0.0
H579 H 0.3609 0.73936 0.71551 0.0
H580 H 0.40597 0.72909 0.78046 0.0
H581 H 0.26747 0.66807 0.72867 0.0
H582 H 0.15742 0.68343 0.76024 0.0
C583 C 0.04512 0.56406 0.71574 0.0
C584 C 0.08137 0.55747 0.71553 0.0
C585 C 0.08408 0.55315 0.73649 0.0
C586 C 0.04958 0.55735 0.74833 0.0
N587 N 0.02527 0.56401 0.73612 0.0
Co588 Co 0.97363 0.57206 0.74696 0.0
N589 N 0.99082 0.57011 0.7788 0.0
C590 C 0.01971 0.56298 0.78644 0.0
C591 C 0.02492 0.56324 0.80923 0.0
C592 C 0.99707 0.5709 0.81648 0.0
C593 C 0.97614 0.57489 0.79762 0.0
N594 N 0.92176 0.58011 0.75763 0.0
C595 C 0.91201 0.58386 0.77832 0.0
C596 C 0.87082 0.58858 0.77838 0.0
C597 C 0.85403 0.58757 0.75716 0.0
C598 C 0.88574 0.58232 0.74529 0.0
N599 N 0.95735 0.57395 0.715 0.0
C600 C 0.91734 0.57667 0.70728 0.0
C601 C 0.91654 0.57771 0.68436 0.0
C602 C 0.95872 0.57552 0.67732 0.0
C603 C 0.983 0.57328 0.69638 0.0
N604 N 0.93743 0.55924 0.74854 0.0
C605 C 0.87798 0.54218 0.75036 0.0
C606 C 0.90679 0.54362 0.73203 0.0
C607 C 0.93608 0.55217 0.73143 0.0
C608 C 0.88076 0.54944 0.76779 0.0
C609 C 0.91058 0.55771 0.76668 0.0
N610 N 0.00834 0.58497 0.74565 0.0
C611 C 0.01283 0.60309 0.73543 0.0
C612 C 0.05477 0.60395 0.74511 0.0
C613 C 0.07312 0.59502 0.75495 0.0
C614 C 0.04953 0.58561 0.75492 0.0
C615 C 0.99031 0.59361 0.73593 0.0
H616 H 0.06447 0.57887 0.76253 0.0
H617 H 0.9579 0.59335 0.72861 0.0
H618 H 0.95717 0.55315 0.717 0.0
H619 H 0.91074 0.56302 0.7805 0.0
C620 C 0.04486 0.55702 0.77159 0.0
C621 C 0.02956 0.57001 0.69626 0.0
C622 C 0.93813 0.58199 0.79876 0.0
C623 C 0.88496 0.58025 0.72219 0.0
H624 H 0.10391 0.55605 0.70183 0.0
H625 H 0.10973 0.54806 0.7427 0.0
H626 H 0.04674 0.55853 0.81936 0.0
H627 H 0.9917 0.57306 0.83377 0.0
H628 H 0.85417 0.59212 0.79247 0.0
H629 H 0.82263 0.59041 0.7511 0.0
H630 H 0.88925 0.5803 0.67409 0.0
H631 H 0.97039 0.57562 0.66019 0.0
H632 H 0.90689 0.53822 0.71818 0.0
H633 H 0.85913 0.54901 0.78217 0.0
H634 H 0.99689 0.60976 0.72789 0.0
H635 H 0.10563 0.59526 0.76245 0.0
C636 C 0.73189 0.45474 0.44648 0.0
C637 C 0.70732 0.45226 0.42766 0.0
C638 C 0.66518 0.45022 0.43501 0.0
C639 C 0.66632 0.45158 0.45784 0.0
N640 N 0.70649 0.45436 0.46522 0.0
Co641 Co 0.72329 0.45671 0.49696 0.0
N642 N 0.67118 0.44899 0.50838 0.0
C643 C 0.63476 0.44676 0.49638 0.0
C644 C 0.60293 0.44179 0.50877 0.0
C645 C 0.62009 0.44101 0.52996 0.0
C646 C 0.66161 0.44556 0.52935 0.0
N647 N 0.74132 0.45899 0.52857 0.0
C648 C 0.72705 0.4544 0.54771 0.0
C649 C 0.74863 0.45851 0.56622 0.0
C650 C 0.77649 0.46607 0.55841 0.0
C651 C 0.77062 0.46614 0.53564 0.0
N652 N 0.77491 0.46455 0.48539 0.0
C653 C 0.79946 0.47137 0.49703 0.0
C654 C 0.83366 0.47542 0.48472 0.0
C655 C 0.83048 0.47084 0.46407 0.0
C656 C 0.79429 0.46425 0.46493 0.0
N657 N 0.68762 0.46961 0.49779 0.0
C658 C 0.62805 0.48652 0.49849 0.0
C659 C 0.63428 0.48024 0.51735 0.0
C660 C 0.66356 0.47186 0.5166 0.0
C661 C 0.65335 0.48431 0.47933 0.0
C662 C 0.68341 0.47594 0.47944 0.0
N663 N 0.75748 0.44374 0.49639 0.0
C664 C 0.82284 0.43386 0.50536 0.0
C665 C 0.80351 0.42471 0.49704 0.0
C666 C 0.76078 0.42541 0.48818 0.0
C667 C 0.73856 0.43492 0.48798 0.0
C668 C 0.79936 0.44327 0.50485 0.0
H669 H 0.70567 0.43508 0.48121 0.0
H670 H 0.81496 0.45014 0.51144 0.0
H671 H 0.66544 0.46704 0.53124 0.0
H672 H 0.70247 0.47444 0.46451 0.0
C673 C 0.63384 0.44839 0.47312 0.0
C674 C 0.77842 0.45803 0.44598 0.0
C675 C 0.68867 0.44743 0.54943 0.0
C676 C 0.79541 0.47194 0.52031 0.0
H677 H 0.71874 0.45193 0.41051 0.0
H678 H 0.63765 0.44756 0.42501 0.0
H679 H 0.57127 0.43896 0.50304 0.0
H680 H 0.60356 0.43767 0.54434 0.0
H681 H 0.74362 0.45653 0.58365 0.0
H682 H 0.7987 0.47084 0.56815 0.0
H683 H 0.85945 0.48059 0.49045 0.0
H684 H 0.85265 0.4721 0.45013 0.0
H685 H 0.6153 0.48155 0.53246 0.0
H686 H 0.64994 0.48901 0.46438 0.0
H687 H 0.85598 0.43379 0.51212 0.0
H688 H 0.74398 0.4186 0.48184 0.0
C689 C 0.03198 0.32607 0.44442 0.0
C690 C 0.05221 0.33088 0.4263 0.0
C691 C 0.09187 0.33456 0.43373 0.0
C692 C 0.09349 0.33196 0.45596 0.0
N693 N 0.05777 0.32661 0.46311 0.0
Co694 Co 0.04354 0.32297 0.4951 0.0
N695 N 0.09695 0.33036 0.50684 0.0
C696 C 0.12981 0.33447 0.49434 0.0
C697 C 0.16249 0.339 0.50682 0.0
C698 C 0.14995 0.33763 0.52859 0.0
C699 C 0.11024 0.33225 0.52822 0.0
N700 N 0.0271 0.31989 0.52698 0.0
C701 C 0.04612 0.32289 0.54652 0.0
C702 C 0.02371 0.31881 0.56486 0.0
C703 C 0.98908 0.31324 0.55665 0.0
C704 C 0.99226 0.31415 0.53388 0.0
N705 N 0.9911 0.31526 0.48329 0.0
C706 C 0.96394 0.30904 0.49519 0.0
C707 C 0.93109 0.30463 0.48263 0.0
C708 C 0.93714 0.30842 0.4615 0.0
C709 C 0.97318 0.31506 0.46245 0.0
N710 N 0.08023 0.30989 0.49362 0.0
C711 C 0.14131 0.29307 0.4974 0.0
C712 C 0.10197 0.29325 0.50971 0.0
C713 C 0.07218 0.30156 0.50747 0.0
C714 C 0.14793 0.30119 0.48214 0.0
C715 C 0.11728 0.30934 0.4804 0.0
N716 N 0.00844 0.33598 0.49686 0.0
C717 C 0.94054 0.34521 0.50486 0.0
C718 C 0.96024 0.35476 0.49951 0.0
C719 C 1.00429 0.35465 0.49259 0.0
C720 C 0.02746 0.3453 0.49137 0.0
C721 C 0.96515 0.33596 0.50353 0.0
H722 H 0.06086 0.34579 0.48586 0.0
H723 H 0.94883 0.32886 0.50801 0.0
H724 H 0.04333 0.30109 0.51756 0.0
H725 H 0.12498 0.31515 0.46837 0.0
C726 C 0.12623 0.33509 0.47103 0.0
C727 C 0.98769 0.3214 0.44344 0.0
C728 C 0.0862 0.32921 0.54856 0.0
C729 C 0.96528 0.30905 0.5185 0.0
H730 H 0.03931 0.33192 0.40958 0.0
H731 H 0.11575 0.33902 0.42428 0.0
H732 H 0.19127 0.34312 0.50079 0.0
H733 H 0.16779 0.34043 0.54306 0.0
H734 H 0.03193 0.31955 0.5824 0.0
H735 H 0.96508 0.30883 0.56615 0.0
H736 H 0.90436 0.29973 0.4884 0.0
H737 H 0.91637 0.30678 0.44719 0.0
H738 H 0.09457 0.28715 0.52164 0.0
H739 H 0.17684 0.30131 0.47148 0.0
H740 H 0.90655 0.34487 0.5104 0.0
H741 H 0.02091 0.36176 0.4878 0.0
C742 C 0.72811 0.32547 0.31083 0.0
C743 C 0.70422 0.32873 0.32937 0.0
C744 C 0.66232 0.33092 0.32198 0.0
C745 C 0.66285 0.32901 0.29936 0.0
N746 N 0.70251 0.32576 0.29211 0.0
Co747 Co 0.71902 0.32318 0.26037 0.0
N748 N 0.66808 0.33124 0.24871 0.0
C749 C 0.63231 0.33399 0.26071 0.0
C750 C 0.60236 0.33961 0.24846 0.0
C751 C 0.62001 0.34029 0.22736 0.0
C752 C 0.65974 0.3349 0.22778 0.0
N753 N 0.7366 0.32054 0.22882 0.0
C754 C 0.72261 0.32501 0.20947 0.0
C755 C 0.74197 0.32017 0.1911 0.0
C756 C 0.76844 0.31243 0.19926 0.0
C757 C 0.76384 0.31289 0.22205 0.0
N758 N 0.76958 0.31507 0.2721 0.0
C759 C 0.79239 0.30783 0.26079 0.0
C760 C 0.82539 0.3034 0.27333 0.0
C761 C 0.8232 0.30819 0.2938 0.0
C762 C 0.78903 0.31534 0.29252 0.0
N763 N 0.6818 0.31052 0.25987 0.0
C764 C 0.62234 0.29358 0.25925 0.0
C765 C 0.62772 0.3 0.24054 0.0
C766 C 0.65693 0.3084 0.24126 0.0
C767 C 0.64807 0.29573 0.27828 0.0
C768 C 0.67802 0.30413 0.27814 0.0
N769 N 0.75484 0.33593 0.26065 0.0
C770 C 0.82115 0.34546 0.25146 0.0
C771 C 0.8034 0.35462 0.26059 0.0
C772 C 0.76086 0.35414 0.26969 0.0
C773 C 0.73731 0.34482 0.2695 0.0
C774 C 0.79646 0.3362 0.25178 0.0
H775 H 0.7046 0.34487 0.27646 0.0
H776 H 0.81092 0.32926 0.2448 0.0
H777 H 0.65836 0.31332 0.22673 0.0
H778 H 0.69753 0.30556 0.29294 0.0
C779 C 0.63115 0.33247 0.28397 0.0
C780 C 0.77441 0.32184 0.31132 0.0
C781 C 0.68641 0.33263 0.20766 0.0
C782 C 0.78764 0.30698 0.23759 0.0
H783 H 0.71577 0.32968 0.34635 0.0
H784 H 0.63562 0.3342 0.33171 0.0
H785 H 0.57193 0.34308 0.2543 0.0
H786 H 0.60497 0.34418 0.21324 0.0
H787 H 0.73636 0.32174 0.17354 0.0
H788 H 0.78871 0.30713 0.18969 0.0
H789 H 0.84954 0.29773 0.26793 0.0
H790 H 0.84438 0.30662 0.30799 0.0
H791 H 0.6083 0.29875 0.22556 0.0
H792 H 0.64524 0.29094 0.29313 0.0
H793 H 0.85403 0.34541 0.24437 0.0
H794 H 0.74532 0.361 0.27662 0.0
C795 C 0.03144 0.45464 0.31118 0.0
C796 C 0.05517 0.45214 0.33027 0.0
C797 C 0.09743 0.44993 0.32338 0.0
C798 C 0.09723 0.45123 0.30052 0.0
N799 N 0.05753 0.45413 0.29269 0.0
Co800 Co 0.04213 0.45644 0.26073 0.0
N801 N 0.09405 0.44848 0.24994 0.0
C802 C 0.1295 0.44596 0.26243 0.0
C803 C 0.16044 0.4404 0.2507 0.0
C804 C 0.14378 0.43953 0.22943 0.0
C805 C 0.10361 0.44473 0.22924 0.0
N806 N 0.0257 0.45879 0.2289 0.0
C807 C 0.04085 0.45425 0.20988 0.0
C808 C 0.02181 0.45886 0.19112 0.0
C809 C 0.99427 0.46651 0.19869 0.0
C810 C 0.99799 0.46623 0.22153 0.0
N811 N 0.99053 0.46447 0.27168 0.0
C812 C 0.96701 0.47137 0.25972 0.0
C813 C 0.93235 0.4755 0.27153 0.0
C814 C 0.93419 0.4709 0.29222 0.0
C815 C 0.97016 0.46423 0.29191 0.0
N816 N 0.07869 0.46922 0.26009 0.0
C817 C 0.13807 0.48618 0.25946 0.0
C818 C 0.13322 0.47969 0.24088 0.0
C819 C 0.10407 0.47128 0.24161 0.0
C820 C 0.11174 0.48412 0.27835 0.0
C821 C 0.0818 0.47571 0.2782 0.0
N822 N 0.00707 0.44357 0.26114 0.0
C823 C 0.94195 0.43375 0.25134 0.0
C824 C 0.95985 0.4247 0.26094 0.0
C825 C 1.00182 0.42539 0.27064 0.0
C826 C 0.02471 0.43481 0.27052 0.0
C827 C 0.96596 0.4431 0.25174 0.0
H828 H 0.05705 0.43493 0.27792 0.0
H829 H 0.95138 0.44994 0.24435 0.0
H830 H 0.10322 0.4663 0.22721 0.0
H831 H 0.06185 0.47433 0.29288 0.0
C832 C 0.1298 0.44774 0.28563 0.0
C833 C 0.98508 0.45805 0.31119 0.0
C834 C 0.0777 0.44678 0.20874 0.0
C835 C 0.97272 0.47206 0.23656 0.0
H836 H 0.04309 0.45188 0.34732 0.0
H837 H 0.12437 0.44717 0.33368 0.0
H838 H 0.19096 0.43715 0.25696 0.0
H839 H 0.15979 0.43565 0.21559 0.0
H840 H 0.02823 0.45719 0.17369 0.0
H841 H 0.97382 0.47161 0.1887 0.0
H842 H 0.90722 0.48077 0.26544 0.0
H843 H 0.91129 0.47223 0.30581 0.0
H844 H 0.15309 0.48088 0.22601 0.0
H845 H 0.11414 0.48897 0.29309 0.0
H846 H 0.90947 0.43364 0.24381 0.0
H847 H 0.01746 0.41863 0.27797 0.0
C848 C 0.72498 0.0653 0.54406 0.0
C849 C 0.69076 0.05815 0.54521 0.0
C850 C 0.68887 0.05336 0.52473 0.0
C851 C 0.72208 0.05778 0.51231 0.0
N852 N 0.74476 0.06502 0.52371 0.0
Co853 Co 0.79539 0.07317 0.51211 0.0
N854 N 0.77837 0.07051 0.4805 0.0
C855 C 0.75132 0.06282 0.47368 0.0
C856 C 0.74731 0.06228 0.45087 0.0
C857 C 0.77397 0.06999 0.44275 0.0
C858 C 0.79286 0.0749 0.46116 0.0
N859 N 0.84625 0.08135 0.5006 0.0
C860 C 0.85476 0.08504 0.47969 0.0
C861 C 0.89434 0.09049 0.47941 0.0
C862 C 0.91173 0.08983 0.50056 0.0
C863 C 0.8818 0.08414 0.5127 0.0
N864 N 0.81156 0.0757 0.5439 0.0
C865 C 0.85112 0.07898 0.55124 0.0
C866 C 0.8514 0.08087 0.57386 0.0
C867 C 0.80945 0.07865 0.58116 0.0
C868 C 0.78577 0.07538 0.56257 0.0
N869 N 0.83278 0.06054 0.5116 0.0
C870 C 0.89109 0.04329 0.51032 0.0
C871 C 0.86228 0.04488 0.52857 0.0
C872 C 0.8336 0.05355 0.52892 0.0
C873 C 0.88954 0.05061 0.49292 0.0
C874 C 0.86022 0.05896 0.49373 0.0
N875 N 0.75936 0.08588 0.51236 0.0
C876 C 0.75361 0.10417 0.52058 0.0
C877 C 0.71086 0.10459 0.51168 0.0
C878 C 0.69286 0.09531 0.5032 0.0
C879 C 0.7176 0.08606 0.5037 0.0
C880 C 0.77696 0.09482 0.52086 0.0
H881 H 0.70309 0.07907 0.49699 0.0
H882 H 0.80968 0.09492 0.5278 0.0
H883 H 0.81228 0.05463 0.54322 0.0
H884 H 0.8606 0.06423 0.4798 0.0
C885 C 0.72726 0.05692 0.48915 0.0
C886 C 0.7394 0.07178 0.56293 0.0
C887 C 0.82887 0.08258 0.45941 0.0
C888 C 0.8828 0.08254 0.53594 0.0
H889 H 0.66937 0.05659 0.55933 0.0
H890 H 0.66478 0.0477 0.51925 0.0
H891 H 0.72732 0.05693 0.44126 0.0
H892 H 0.77997 0.07149 0.4252 0.0
H893 H 0.90954 0.09437 0.4653 0.0
H894 H 0.94205 0.09331 0.50648 0.0
H895 H 0.87793 0.08419 0.58364 0.0
H896 H 0.79773 0.07962 0.5981 0.0
H897 H 0.86153 0.03948 0.54245 0.0
H898 H 0.9115 0.0501 0.47869 0.0
H899 H 0.76964 0.11108 0.52696 0.0
H900 H 0.6598 0.09515 0.49635 0.0
C901 C 0.54092 0.21375 0.5438 0.0
C902 C 0.57509 0.22091 0.54511 0.0
C903 C 0.57706 0.22581 0.52472 0.0
C904 C 0.54394 0.22143 0.51219 0.0
N905 N 0.52126 0.21412 0.52343 0.0
Co906 Co 0.47056 0.20608 0.51166 0.0
N907 N 0.48771 0.20891 0.48012 0.0
C908 C 0.51487 0.2166 0.47343 0.0
C909 C 0.51913 0.21722 0.45064 0.0
C910 C 0.49252 0.20954 0.44238 0.0
C911 C 0.47343 0.20458 0.4607 0.0
N912 N 0.41948 0.19807 0.49996 0.0
C913 C 0.41094 0.19451 0.47899 0.0
C914 C 0.37124 0.18912 0.47858 0.0
C915 C 0.3538 0.18968 0.49974 0.0
C916 C 0.38385 0.19525 0.512 0.0
N917 N 0.45442 0.20331 0.54339 0.0
C918 C 0.41484 0.20001 0.55067 0.0
C919 C 0.41453 0.19798 0.57325 0.0
C920 C 0.45648 0.20014 0.58058 0.0
C921 C 0.48018 0.20352 0.56206 0.0
N922 N 0.43333 0.21873 0.51154 0.0
C923 C 0.37263 0.23546 0.51164 0.0
C924 C 0.40088 0.23366 0.52997 0.0
C925 C 0.43091 0.22526 0.52959 0.0
C926 C 0.37705 0.22892 0.49306 0.0
C927 C 0.40711 0.2207 0.49336 0.0
N928 N 0.50635 0.19333 0.51154 0.0
C929 C 0.5113 0.17492 0.51862 0.0
C930 C 0.5539 0.17455 0.50959 0.0
C931 C 0.57267 0.18391 0.50202 0.0
C932 C 0.54827 0.1932 0.50303 0.0
C933 C 0.48838 0.18431 0.51953 0.0
H934 H 0.56306 0.20025 0.49671 0.0
H935 H 0.45574 0.18421 0.52657 0.0
H936 H 0.45149 0.22392 0.54407 0.0
H937 H 0.40816 0.2158 0.47882 0.0
C938 C 0.53888 0.22242 0.48903 0.0
C939 C 0.52648 0.20716 0.56253 0.0
C940 C 0.43729 0.19694 0.45881 0.0
C941 C 0.38298 0.19664 0.53529 0.0
H942 H 0.59639 0.22241 0.55927 0.0
H943 H 0.60112 0.23151 0.51937 0.0
H944 H 0.53926 0.22259 0.44112 0.0
H945 H 0.48666 0.20809 0.42481 0.0
H946 H 0.35605 0.18529 0.46443 0.0
H947 H 0.32345 0.18617 0.5056 0.0
H948 H 0.38793 0.19463 0.58297 0.0
H949 H 0.46817 0.19909 0.59752 0.0
H950 H 0.39897 0.23848 0.54476 0.0
H951 H 0.35716 0.23007 0.47821 0.0
H952 H 0.49569 0.16797 0.52513 0.0
H953 H 0.60552 0.18402 0.4949 0.0
C954 C 0.72379 0.21405 0.71325 0.0
C955 C 0.68923 0.22108 0.7115 0.0
C956 C 0.68562 0.22585 0.73193 0.0
C957 C 0.71823 0.22155 0.74492 0.0
N958 N 0.74221 0.2144 0.73391 0.0
Co959 Co 0.79273 0.20649 0.7463 0.0
N960 N 0.7735 0.20911 0.7776 0.0
C961 C 0.74447 0.21644 0.78406 0.0
C962 C 0.73762 0.21659 0.80675 0.0
C963 C 0.76456 0.20899 0.81518 0.0
C964 C 0.78665 0.20464 0.79708 0.0
N965 N 0.84387 0.19871 0.75862 0.0
C966 C 0.85234 0.19544 0.77982 0.0
C967 C 0.89353 0.19076 0.78106 0.0
C968 C 0.9116 0.19128 0.76003 0.0
C969 C 0.8806 0.19624 0.7471 0.0
N970 N 0.81064 0.20382 0.71479 0.0
C971 C 0.85076 0.20067 0.708 0.0
C972 C 0.85224 0.19864 0.68544 0.0
C973 C 0.81048 0.20065 0.6776 0.0
C974 C 0.78572 0.20393 0.69582 0.0
N975 N 0.82917 0.21929 0.747 0.0
C976 C 0.88913 0.23615 0.74784 0.0
C977 C 0.86477 0.2338 0.72844 0.0
C978 C 0.83451 0.22546 0.72848 0.0
C979 C 0.88186 0.23001 0.76682 0.0
C980 C 0.85242 0.22166 0.76601 0.0
N981 N 0.75779 0.19361 0.74586 0.0
C982 C 0.75425 0.17519 0.73876 0.0
C983 C 0.71105 0.17469 0.74704 0.0
C984 C 0.69135 0.18399 0.75424 0.0
C985 C 0.7153 0.19335 0.75359 0.0
C986 C 0.7768 0.18465 0.73826 0.0
H987 H 0.69967 0.20034 0.75959 0.0
H988 H 0.80997 0.18465 0.73185 0.0
H989 H 0.81616 0.22387 0.71337 0.0
H990 H 0.8497 0.21695 0.78079 0.0
C991 C 0.72116 0.22229 0.76822 0.0
C992 C 0.73931 0.20746 0.69478 0.0
C993 C 0.82459 0.19759 0.79953 0.0
C994 C 0.88237 0.19756 0.72379 0.0
H995 H 0.66857 0.22253 0.69706 0.0
H996 H 0.66066 0.23138 0.73702 0.0
H997 H 0.71546 0.22157 0.81607 0.0
H998 H 0.76873 0.20715 0.83274 0.0
H999 H 0.90923 0.1875 0.79575 0.0
H1000 H 0.94324 0.18825 0.75474 0.0
H1001 H 0.87955 0.19543 0.67604 0.0
H1002 H 0.79965 0.19959 0.66052 0.0
H1003 H 0.86899 0.23839 0.71338 0.0
H1004 H 0.9001 0.23142 0.78212 0.0
H1005 H 0.77066 0.16829 0.73255 0.0
H1006 H 0.65807 0.18402 0.76083 0.0
C1007 C 0.54182 0.06525 0.71378 0.0
C1008 C 0.5764 0.05822 0.71212 0.0
C1009 C 0.57999 0.05346 0.73259 0.0
C1010 C 0.54732 0.05777 0.74553 0.0
N1011 N 0.52334 0.0649 0.73444 0.0
Co1012 Co 0.47264 0.07278 0.74674 0.0
N1013 N 0.49167 0.07015 0.77809 0.0
C1014 C 0.52078 0.06284 0.78461 0.0
C1015 C 0.52747 0.06267 0.80731 0.0
C1016 C 0.50033 0.07023 0.81568 0.0
C1017 C 0.47828 0.07458 0.79755 0.0
N1018 N 0.42134 0.08053 0.75897 0.0
C1019 C 0.41262 0.08376 0.78016 0.0
C1020 C 0.37136 0.08841 0.78133 0.0
C1021 C 0.3535 0.08791 0.76026 0.0
C1022 C 0.38467 0.083 0.74739 0.0
N1023 N 0.45493 0.07546 0.71518 0.0
C1024 C 0.41484 0.07861 0.70834 0.0
C1025 C 0.41344 0.08064 0.68577 0.0
C1026 C 0.45523 0.07863 0.67797 0.0
C1027 C 0.47992 0.07535 0.69622 0.0
N1028 N 0.43636 0.05996 0.74741 0.0
C1029 C 0.37662 0.04307 0.74814 0.0
C1030 C 0.40115 0.04544 0.7288 0.0
C1031 C 0.43129 0.0538 0.72889 0.0
C1032 C 0.3836 0.04919 0.76713 0.0
C1033 C 0.41295 0.05757 0.76637 0.0
N1034 N 0.50746 0.08568 0.74631 0.0
C1035 C 0.51092 0.10411 0.7391 0.0
C1036 C 0.55411 0.10462 0.74738 0.0
C1037 C 0.57382 0.09532 0.75466 0.0
C1038 C 0.54993 0.08596 0.75406 0.0
C1039 C 0.48842 0.09464 0.73866 0.0
H1040 H 0.56558 0.07897 0.76011 0.0
H1041 H 0.45528 0.09462 0.73223 0.0
H1042 H 0.44977 0.05542 0.71382 0.0
H1043 H 0.41548 0.06226 0.78115 0.0
C1044 C 0.54426 0.05702 0.76882 0.0
C1045 C 0.52631 0.0718 0.69522 0.0
C1046 C 0.44019 0.08159 0.79993 0.0
C1047 C 0.3831 0.0817 0.72408 0.0
H1048 H 0.59709 0.05676 0.69769 0.0
H1049 H 0.60493 0.04794 0.73774 0.0
H1050 H 0.54964 0.05771 0.81667 0.0
H1051 H 0.496 0.07205 0.83323 0.0
H1052 H 0.35547 0.09163 0.79599 0.0
H1053 H 0.32186 0.09092 0.75492 0.0
H1054 H 0.38615 0.08383 0.67632 0.0
H1055 H 0.46612 0.07968 0.66089 0.0
H1056 H 0.39714 0.04087 0.71374 0.0
H1057 H 0.36522 0.04776 0.78239 0.0
H1058 H 0.49449 0.11099 0.73284 0.0
H1059 H 0.60709 0.0953 0.76126 0.0
C1060 C 0.23082 0.95191 0.44431 0.0
C1061 C 0.21091 0.94711 0.42614 0.0
C1062 C 0.17169 0.94318 0.43357 0.0
C1063 C 0.1699 0.94567 0.45585 0.0
N1064 N 0.20519 0.95117 0.46304 0.0
Co1065 Co 0.21903 0.95493 0.49498 0.0
N1066 N 0.16618 0.94725 0.50672 0.0
C1067 C 0.13465 0.94255 0.49431 0.0
C1068 C 0.10267 0.93778 0.50687 0.0
C1069 C 0.11435 0.93956 0.52861 0.0
C1070 C 0.15285 0.9454 0.52812 0.0
N1071 N 0.23431 0.95842 0.52678 0.0
C1072 C 0.2148 0.95555 0.54631 0.0
C1073 C 0.2359 0.96 0.56461 0.0
C1074 C 0.27032 0.96566 0.55642 0.0
C1075 C 0.26822 0.96444 0.53369 0.0
N1076 N 0.27143 0.96274 0.4832 0.0
C1077 C 0.29899 0.96885 0.49511 0.0
C1078 C 0.33202 0.97322 0.48258 0.0
C1079 C 0.32581 0.9695 0.46145 0.0
C1080 C 0.28947 0.96294 0.46239 0.0
N1081 N 0.18149 0.96785 0.49294 0.0
C1082 C 0.12076 0.98483 0.49588 0.0
C1083 C 0.16329 0.98542 0.50515 0.0
C1084 C 0.1927 0.97696 0.50349 0.0
C1085 C 0.1105 0.9757 0.48423 0.0
C1086 C 0.14104 0.96757 0.48266 0.0
N1087 N 0.25512 0.94206 0.49731 0.0
C1088 C 0.32268 0.93297 0.50693 0.0
C1089 C 0.30395 0.92338 0.50106 0.0
C1090 C 0.26075 0.92341 0.49298 0.0
C1091 C 0.23733 0.93269 0.49119 0.0
C1092 C 0.29771 0.94217 0.50507 0.0
H1093 H 0.20475 0.93208 0.48477 0.0
H1094 H 0.31319 0.9493 0.51003 0.0
H1095 H 0.22412 0.97798 0.51115 0.0
H1096 H 0.13041 0.96103 0.47336 0.0
C1097 C 0.13819 0.94197 0.47096 0.0
C1098 C 0.27497 0.95664 0.44338 0.0
C1099 C 0.17591 0.94885 0.54839 0.0
C1100 C 0.29662 0.96916 0.51838 0.0
H1101 H 0.22389 0.94618 0.40941 0.0
H1102 H 0.14837 0.93857 0.42412 0.0
H1103 H 0.07483 0.9333 0.50094 0.0
H1104 H 0.09678 0.93672 0.54315 0.0
H1105 H 0.22714 0.95937 0.58211 0.0
H1106 H 0.29377 0.97022 0.56589 0.0
H1107 H 0.35873 0.97812 0.48834 0.0
H1108 H 0.34661 0.97114 0.44715 0.0
H1109 H 0.17416 0.99235 0.51372 0.0
H1110 H 0.07839 0.97459 0.47671 0.0
H1111 H 0.35608 0.93337 0.51329 0.0
H1112 H 0.24497 0.91626 0.4877 0.0
C1113 C 0.53584 0.82465 0.44753 0.0
C1114 C 0.56034 0.82805 0.42931 0.0
C1115 C 0.60211 0.8301 0.43711 0.0
C1116 C 0.60088 0.82795 0.45964 0.0
N1117 N 0.56091 0.82469 0.46642 0.0
Co1118 Co 0.54319 0.82178 0.49784 0.0
N1119 N 0.5937 0.82969 0.51027 0.0
C1120 C 0.63008 0.83249 0.49878 0.0
C1121 C 0.65947 0.83801 0.51155 0.0
C1122 C 0.64073 0.83857 0.53242 0.0
C1123 C 0.60095 0.83323 0.53135 0.0
N1124 N 0.52432 0.81884 0.52904 0.0
C1125 C 0.53724 0.8232 0.54863 0.0
C1126 C 0.51721 0.8182 0.56665 0.0
C1127 C 0.49138 0.81047 0.55799 0.0
C1128 C 0.49701 0.81109 0.53528 0.0
N1129 N 0.49314 0.81379 0.48537 0.0
C1130 C 0.47008 0.80638 0.4961 0.0
C1131 C 0.43755 0.8021 0.48304 0.0
C1132 C 0.44034 0.80716 0.46287 0.0
C1133 C 0.47438 0.81432 0.46484 0.0
N1134 N 0.58029 0.80912 0.4982 0.0
C1135 C 0.64004 0.79227 0.49859 0.0
C1136 C 0.63377 0.79844 0.51757 0.0
C1137 C 0.60441 0.80682 0.51696 0.0
C1138 C 0.61499 0.7946 0.47942 0.0
C1139 C 0.58486 0.80295 0.47967 0.0
N1140 N 0.50753 0.83455 0.49771 0.0
C1141 C 0.44102 0.84402 0.50658 0.0
C1142 C 0.45973 0.85333 0.49864 0.0
C1143 C 0.50277 0.85292 0.49013 0.0
C1144 C 0.52583 0.84354 0.48978 0.0
C1145 C 0.4654 0.83472 0.50591 0.0
H1146 H 0.55889 0.84364 0.48326 0.0
H1147 H 0.45035 0.82769 0.51215 0.0
H1148 H 0.60229 0.81157 0.53171 0.0
H1149 H 0.56591 0.80454 0.46475 0.0
C1150 C 0.63217 0.83119 0.47546 0.0
C1151 C 0.48946 0.82113 0.44665 0.0
C1152 C 0.57304 0.83088 0.55101 0.0
C1153 C 0.47395 0.80528 0.5193 0.0
H1154 H 0.54928 0.82919 0.41229 0.0
H1155 H 0.62919 0.83344 0.42773 0.0
H1156 H 0.69018 0.84151 0.50618 0.0
H1157 H 0.65506 0.84238 0.54682 0.0
H1158 H 0.52192 0.81967 0.58431 0.0
H1159 H 0.47081 0.80507 0.56719 0.0
H1160 H 0.41325 0.79636 0.48793 0.0
H1161 H 0.41961 0.80579 0.44842 0.0
H1162 H 0.65264 0.79704 0.53267 0.0
H1163 H 0.61854 0.78999 0.46438 0.0
H1164 H 0.40771 0.84388 0.51312 0.0
H1165 H 0.5192 0.85986 0.48415 0.0
C1166 C 0.22922 0.82599 0.31543 0.0
C1167 C 0.2086 0.83071 0.33351 0.0
C1168 C 0.16882 0.8343 0.32597 0.0
C1169 C 0.16755 0.83172 0.30372 0.0
N1170 N 0.20361 0.82648 0.2967 0.0
Co1171 Co 0.21863 0.82297 0.26481 0.0
N1172 N 0.16535 0.83033 0.2529 0.0
C1173 C 0.13169 0.83414 0.26523 0.0
C1174 C 0.0981 0.83819 0.25256 0.0
C1175 C 0.11089 0.83677 0.23083 0.0
C1176 C 0.15187 0.83197 0.23148 0.0
N1177 N 0.23617 0.8201 0.23307 0.0
C1178 C 0.21798 0.82332 0.21353 0.0
C1179 C 0.24288 0.82012 0.19525 0.0
C1180 C 0.27728 0.81446 0.20352 0.0
C1181 C 0.27188 0.81466 0.22628 0.0
N1182 N 0.27074 0.81522 0.27676 0.0
C1183 C 0.29797 0.80899 0.26498 0.0
C1184 C 0.33041 0.8045 0.27775 0.0
C1185 C 0.32397 0.80827 0.29885 0.0
C1186 C 0.28813 0.81496 0.29768 0.0
N1187 N 0.18213 0.80984 0.2658 0.0
C1188 C 0.12062 0.79313 0.2616 0.0
C1189 C 0.15886 0.7936 0.24846 0.0
C1190 C 0.18888 0.80187 0.25087 0.0
C1191 C 0.11543 0.80086 0.27785 0.0
C1192 C 0.14633 0.80894 0.27981 0.0
N1193 N 0.25351 0.83603 0.2635 0.0
C1194 C 0.32141 0.84539 0.25608 0.0
C1195 C 0.3012 0.85492 0.26107 0.0
C1196 C 0.25688 0.85472 0.26759 0.0
C1197 C 0.23396 0.84532 0.2687 0.0
C1198 C 0.2971 0.83609 0.25733 0.0
H1199 H 0.20028 0.84573 0.27386 0.0
H1200 H 0.31389 0.82901 0.25318 0.0
H1201 H 0.2168 0.80167 0.24003 0.0
H1202 H 0.13981 0.81443 0.29269 0.0
C1203 C 0.1347 0.83471 0.28857 0.0
C1204 C 0.27359 0.8214 0.31646 0.0
C1205 C 0.17609 0.82887 0.21135 0.0
C1206 C 0.29791 0.80927 0.24166 0.0
H1207 H 0.22127 0.83174 0.35027 0.0
H1208 H 0.14458 0.83866 0.33537 0.0
H1209 H 0.06819 0.84189 0.25842 0.0
H1210 H 0.09216 0.83901 0.21618 0.0
H1211 H 0.2364 0.82154 0.17769 0.0
H1212 H 0.30275 0.81054 0.19406 0.0
H1213 H 0.35733 0.79964 0.2721 0.0
H1214 H 0.34447 0.80663 0.31326 0.0
H1215 H 0.16511 0.78779 0.23575 0.0
H1216 H 0.08746 0.80071 0.28914 0.0
H1217 H 0.3556 0.8451 0.25086 0.0
H1218 H 0.23982 0.86181 0.27213 0.0
C1219 C 0.53579 0.9539 0.31106 0.0
C1220 C 0.56078 0.95063 0.32922 0.0
C1221 C 0.60251 0.94868 0.32124 0.0
C1222 C 0.60074 0.95073 0.29868 0.0
N1223 N 0.56051 0.95385 0.29203 0.0
Co1224 Co 0.54208 0.95655 0.26061 0.0
N1225 N 0.59307 0.94878 0.24812 0.0
C1226 C 0.63001 0.94632 0.25949 0.0
C1227 C 0.66093 0.94143 0.24645 0.0
C1228 C 0.64261 0.94092 0.22548 0.0
C1229 C 0.60129 0.94554 0.22689 0.0
N1230 N 0.52235 0.9592 0.22941 0.0
C1231 C 0.53504 0.9547 0.20993 0.0
C1232 C 0.51173 0.95885 0.19197 0.0
C1233 C 0.48487 0.96643 0.20045 0.0
C1234 C 0.49277 0.96644 0.22305 0.0
N1235 N 0.49171 0.96444 0.27317 0.0
C1236 C 0.46745 0.97158 0.26227 0.0
C1237 C 0.43497 0.97583 0.27541 0.0
C1238 C 0.43897 0.97101 0.29581 0.0
C1239 C 0.4736 0.96402 0.29388 0.0
N1240 N 0.57836 0.96936 0.25976 0.0
C1241 C 0.63778 0.98631 0.25878 0.0
C1242 C 0.63064 0.98017 0.23982 0.0
C1243 C 0.60144 0.97177 0.2407 0.0
C1244 C 0.61357 0.98392 0.27821 0.0
C1245 C 0.5836 0.97553 0.27825 0.0
N1246 N 0.50718 0.94366 0.26124 0.0
C1247 C 0.4405 0.93405 0.2534 0.0
C1248 C 0.45977 0.9248 0.26125 0.0
C1249 C 0.50323 0.9253 0.26919 0.0
C1250 C 0.52613 0.93472 0.26907 0.0
C1251 C 0.46466 0.94338 0.25359 0.0
H1252 H 0.55951 0.93471 0.27518 0.0
H1253 H 0.44903 0.95035 0.24746 0.0
H1254 H 0.5987 0.96706 0.22593 0.0
H1255 H 0.56535 0.9739 0.29339 0.0
C1256 C 0.63216 0.94764 0.28279 0.0
C1257 C 0.48933 0.95735 0.31217 0.0
C1258 C 0.57342 0.94779 0.20727 0.0
C1259 C 0.46973 0.97229 0.23895 0.0
H1260 H 0.55012 0.94955 0.34632 0.0
H1261 H 0.62997 0.94548 0.33056 0.0
H1262 H 0.69275 0.93845 0.2516 0.0
H1263 H 0.6583 0.93774 0.21073 0.0
H1264 H 0.51496 0.95686 0.17445 0.0
H1265 H 0.46195 0.97127 0.19125 0.0
H1266 H 0.40978 0.98132 0.27043 0.0
H1267 H 0.41845 0.9724 0.31033 0.0
H1268 H 0.64876 0.98162 0.22449 0.0
H1269 H 0.61769 0.9885 0.29325 0.0
H1270 H 0.40685 0.93413 0.24731 0.0
H1271 H 0.52003 0.9184 0.27511 0.0
C1272 C 0.71929 0.56416 0.04261 0.0
C1273 C 0.68319 0.55754 0.04343 0.0
C1274 C 0.67976 0.55308 0.02268 0.0
C1275 C 0.71374 0.55723 0.01035 0.0
N1276 N 0.73843 0.56398 0.02207 0.0
Co1277 Co 0.78959 0.57201 0.01045 0.0
N1278 N 0.77132 0.56981 0.97886 0.0
C1279 C 0.74167 0.56274 0.97176 0.0
C1280 C 0.73497 0.56301 0.94907 0.0
C1281 C 0.76269 0.5706 0.9413 0.0
C1282 C 0.78525 0.57448 0.95974 0.0
N1283 N 0.84109 0.58 0.99899 0.0
C1284 C 0.85029 0.58355 0.97804 0.0
C1285 C 0.89154 0.58824 0.97744 0.0
C1286 C 0.90888 0.58744 0.99859 0.0
C1287 C 0.87746 0.58231 0.01095 0.0
N1288 N 0.80682 0.57418 0.04218 0.0
C1289 C 0.84698 0.57702 0.04947 0.0
C1290 C 0.84843 0.57826 0.07232 0.0
C1291 C 0.8065 0.57608 0.0798 0.0
C1292 C 0.78172 0.57365 0.06103 0.0
N1293 N 0.82589 0.55919 0.00912 0.0
C1294 C 0.88543 0.54213 0.00746 0.0
C1295 C 0.85725 0.5437 0.02599 0.0
C1296 C 0.82793 0.55225 0.02651 0.0
C1297 C 0.88199 0.54928 0.98979 0.0
C1298 C 0.85212 0.55753 0.99081 0.0
N1299 N 0.75478 0.58491 0.01149 0.0
C1300 C 0.75137 0.60326 0.01956 0.0
C1301 C 0.7086 0.60392 0.01079 0.0
C1302 C 0.68898 0.59474 1.0029 0.0
C1303 C 0.71265 0.58534 1.00331 0.0
C1304 C 0.77362 0.59375 0.01986 0.0
H1305 H 0.6971 0.57846 0.99672 0.0
H1306 H 0.80646 0.59361 0.02668 0.0
H1307 H 0.80737 0.55333 0.0411 0.0
H1308 H 0.85141 0.56273 0.97677 0.0
C1309 C 0.71725 0.55684 0.98705 0.0
C1310 C 0.73525 0.57032 0.06165 0.0
C1311 C 0.82383 0.58139 0.95786 0.0
C1312 C 0.87889 0.58047 0.03414 0.0
H1313 H 0.66116 0.5562 0.05739 0.0
H1314 H 0.65389 0.54795 0.01689 0.0
H1315 H 0.7122 0.55837 0.93936 0.0
H1316 H 0.76688 0.57277 0.92392 0.0
H1317 H 0.90793 0.5916 0.96305 0.0
H1318 H 0.94049 0.59032 0.00428 0.0
H1319 H 0.87597 0.58097 0.08227 0.0
H1320 H 0.79533 0.57632 0.097 0.0
H1321 H 0.85765 0.5384 0.04006 0.0
H1322 H 0.90314 0.54877 0.97524 0.0
H1323 H 0.76767 0.61007 0.02628 0.0
H1324 H 0.65601 0.59484 0.99592 0.0
C1325 C 0.54349 0.71403 0.04115 0.0
C1326 C 0.57961 0.72066 0.04155 0.0
C1327 C 0.58226 0.7251 0.02071 0.0
C1328 C 0.54786 0.72093 0.00875 0.0
N1329 N 0.52369 0.71417 0.02078 0.0
Co1330 Co 0.47214 0.70614 0.00978 0.0
N1331 N 0.48938 0.70827 0.97801 0.0
C1332 C 0.51825 0.71544 0.97052 0.0
C1333 C 0.52357 0.71526 0.94773 0.0
C1334 C 0.49581 0.70762 0.94033 0.0
C1335 C 0.47481 0.70356 0.9591 0.0
N1336 N 0.42025 0.69816 0.99892 0.0
C1337 C 0.41059 0.6945 0.97816 0.0
C1338 C 0.36936 0.68981 0.97795 0.0
C1339 C 0.35247 0.69073 0.99917 0.0
C1340 C 0.38416 0.69591 0.01119 0.0
N1341 N 0.45587 0.70405 0.04166 0.0
C1342 C 0.41589 0.70127 0.04934 0.0
C1343 C 0.41513 0.7001 0.07223 0.0
C1344 C 0.45731 0.70227 0.0793 0.0
C1345 C 0.48154 0.70462 0.06028 0.0
N1346 N 0.43593 0.71897 0.00858 0.0
C1347 C 0.3766 0.73605 0.00731 0.0
C1348 C 0.40542 0.73448 0.02558 0.0
C1349 C 0.43464 0.72592 0.0259 0.0
C1350 C 0.37932 0.7289 0.98965 0.0
C1351 C 0.40909 0.72062 0.99049 0.0
N1352 N 0.50691 0.69324 0.01074 0.0
C1353 C 0.51062 0.67492 0.01923 0.0
C1354 C 0.55317 0.67424 0.01018 0.0
C1355 C 0.57251 0.68339 1.00189 0.0
C1356 C 0.54879 0.69279 1.00223 0.0
C1357 C 0.48832 0.68442 0.01944 0.0
H1358 H 0.5641 0.69965 0.99535 0.0
H1359 H 0.45567 0.68459 0.02651 0.0
H1360 H 0.45572 0.72485 0.04029 0.0
H1361 H 0.40924 0.71539 0.97651 0.0
C1362 C 0.54325 0.72136 0.9855 0.0
C1363 C 0.52802 0.70794 0.06043 0.0
C1364 C 0.4369 0.69643 0.95781 0.0
C1365 C 0.38342 0.69781 0.03435 0.0
H1366 H 0.60209 0.72203 0.05528 0.0
H1367 H 0.60783 0.73026 0.01464 0.0
H1368 H 0.5454 0.72003 0.9377 0.0
H1369 H 0.49055 0.70552 0.92299 0.0
H1370 H 0.35276 0.68632 0.96378 0.0
H1371 H 0.32104 0.68785 0.00516 0.0
H1372 H 0.38785 0.69745 0.08246 0.0
H1373 H 0.46901 0.70209 0.09642 0.0
H1374 H 0.40558 0.73979 0.03959 0.0
H1375 H 0.35769 0.72944 0.9753 0.0
H1376 H 0.49454 0.66814 0.02624 0.0
H1377 H 0.60528 0.68327 0.99468 0.0
C1378 C 0.71855 0.7142 0.21412 0.0
C1379 C 0.68223 0.72076 0.21332 0.0
C1380 C 0.67895 0.72529 0.23401 0.0
C1381 C 0.7132 0.72125 0.24628 0.0
N1382 N 0.7379 0.71448 0.23459 0.0
Co1383 Co 0.78952 0.70661 0.24613 0.0
N1384 N 0.77163 0.70892 0.27775 0.0
C1385 C 0.74192 0.71598 0.28485 0.0
C1386 C 0.73561 0.71579 0.30757 0.0
C1387 C 0.76363 0.70827 0.31536 0.0
C1388 C 0.78592 0.70433 0.29688 0.0
N1389 N 0.84157 0.69884 0.25753 0.0
C1390 C 0.8512 0.6954 0.2785 0.0
C1391 C 0.89272 0.69085 0.27907 0.0
C1392 C 0.90977 0.69161 0.25785 0.0
C1393 C 0.87792 0.69658 0.24549 0.0
N1394 N 0.80631 0.70429 0.21438 0.0
C1395 C 0.84647 0.7015 0.20699 0.0
C1396 C 0.84764 0.70017 0.18415 0.0
C1397 C 0.80554 0.70225 0.17681 0.0
C1398 C 0.78096 0.70471 0.19563 0.0
N1399 N 0.82532 0.71951 0.2469 0.0
C1400 C 0.88611 0.73624 0.24717 0.0
C1401 C 0.85813 0.73449 0.22873 0.0
C1402 C 0.82803 0.7261 0.22893 0.0
C1403 C 0.88111 0.72969 0.26576 0.0
C1404 C 0.8509 0.72149 0.26531 0.0
N1405 N 0.75521 0.69363 0.24557 0.0
C1406 C 0.75238 0.67524 0.23796 0.0
C1407 C 0.70963 0.67455 0.24677 0.0
C1408 C 0.68976 0.68374 0.25448 0.0
C1409 C 0.71314 0.69317 0.25383 0.0
C1410 C 0.77433 0.68478 0.23742 0.0
H1411 H 0.6974 0.70006 0.26027 0.0
H1412 H 0.80715 0.68495 0.23055 0.0
H1413 H 0.80781 0.72479 0.21431 0.0
H1414 H 0.84946 0.71659 0.27984 0.0
C1415 C 0.71707 0.72176 0.26955 0.0
C1416 C 0.73448 0.70802 0.19512 0.0
C1417 C 0.82461 0.69746 0.29867 0.0
C1418 C 0.87886 0.69826 0.22224 0.0
H1419 H 0.65997 0.72202 0.19943 0.0
H1420 H 0.65303 0.73042 0.23979 0.0
H1421 H 0.7129 0.72044 0.3173 0.0
H1422 H 0.76818 0.70617 0.33276 0.0
H1423 H 0.9094 0.68758 0.29346 0.0
H1424 H 0.94143 0.68879 0.2521 0.0
H1425 H 0.87516 0.6975 0.17414 0.0
H1426 H 0.79417 0.70195 0.15965 0.0
H1427 H 0.8604 0.73934 0.21395 0.0
H1428 H 0.90077 0.73082 0.2807 0.0
H1429 H 0.76886 0.66843 0.23138 0.0
H1430 H 0.65681 0.68361 0.26148 0.0
C1431 C 0.54383 0.56447 0.2163 0.0
C1432 C 0.5795 0.55771 0.21607 0.0
C1433 C 0.58117 0.55318 0.23685 0.0
C1434 C 0.54671 0.55744 0.24861 0.0
N1435 N 0.52345 0.56435 0.23654 0.0
Co1436 Co 0.47221 0.57255 0.24739 0.0
N1437 N 0.4885 0.57027 0.27925 0.0
C1438 C 0.51583 0.56276 0.28671 0.0
C1439 C 0.51926 0.56248 0.30956 0.0
C1440 C 0.49194 0.57018 0.31705 0.0
C1441 C 0.4733 0.57483 0.29824 0.0
N1442 N 0.42078 0.58075 0.25807 0.0
C1443 C 0.41151 0.58464 0.27871 0.0
C1444 C 0.37169 0.58997 0.27841 0.0
C1445 C 0.35492 0.58906 0.25717 0.0
C1446 C 0.38546 0.58333 0.24555 0.0
N1447 N 0.45678 0.57472 0.21541 0.0
C1448 C 0.41716 0.57767 0.20757 0.0
C1449 C 0.41691 0.57886 0.18468 0.0
C1450 C 0.45905 0.57652 0.17778 0.0
C1451 C 0.48276 0.57406 0.1969 0.0
N1452 N 0.43511 0.55986 0.24839 0.0
C1453 C 0.37616 0.54272 0.25 0.0
C1454 C 0.40542 0.54415 0.23186 0.0
C1455 C 0.43444 0.55275 0.23135 0.0
C1456 C 0.37787 0.5501 0.26723 0.0
C1457 C 0.40744 0.5584 0.26624 0.0
N1458 N 0.50786 0.58532 0.24668 0.0
C1459 C 0.51281 0.60361 0.23817 0.0
C1460 C 0.5549 0.6042 0.24773 0.0
C1461 C 0.5735 0.595 0.25624 0.0
C1462 C 0.54937 0.58566 0.25566 0.0
C1463 C 0.49013 0.59417 0.23771 0.0
H1464 H 0.56399 0.57876 0.26273 0.0
H1465 H 0.45782 0.5941 0.23027 0.0
H1466 H 0.45602 0.55371 0.2171 0.0
H1467 H 0.40691 0.56378 0.27996 0.0
C1468 C 0.5409 0.55684 0.27177 0.0
C1469 C 0.52909 0.5706 0.19691 0.0
C1470 C 0.43696 0.58245 0.29931 0.0
C1471 C 0.38493 0.58138 0.2224 0.0
H1472 H 0.60225 0.55628 0.20248 0.0
H1473 H 0.60606 0.54787 0.24301 0.0
H1474 H 0.53937 0.55732 0.3196 0.0
H1475 H 0.48543 0.57185 0.33447 0.0
H1476 H 0.35588 0.59394 0.2922 0.0
H1477 H 0.32455 0.59237 0.25086 0.0
H1478 H 0.39008 0.58166 0.17435 0.0
H1479 H 0.47107 0.57669 0.16072 0.0
H1480 H 0.40615 0.53868 0.21813 0.0
H1481 H 0.3557 0.5497 0.2814 0.0
H1482 H 0.49735 0.61043 0.23096 0.0
H1483 H 0.60596 0.59506 0.26381 0.0
C1484 C 0.23323 0.45446 0.94733 0.0
C1485 C 0.20956 0.45194 0.92825 0.0
C1486 C 0.16726 0.44975 0.93514 0.0
C1487 C 0.16738 0.45108 0.95798 0.0
N1488 N 0.20706 0.45398 0.96581 0.0
Co1489 Co 0.2224 0.45631 0.99775 0.0
N1490 N 0.17046 0.44836 0.00859 0.0
C1491 C 0.13501 0.44584 0.99611 0.0
C1492 C 0.10403 0.44031 0.00789 0.0
C1493 C 0.12065 0.43944 0.02917 0.0
C1494 C 0.16085 0.44463 0.02933 0.0
N1495 N 0.23884 0.45867 0.02956 0.0
C1496 C 0.22367 0.45415 0.04862 0.0
C1497 C 0.24271 0.45876 0.06734 0.0
C1498 C 0.27027 0.4664 0.05971 0.0
C1499 C 0.26656 0.46612 0.03687 0.0
N1500 N 0.274 0.46434 0.98674 0.0
C1501 C 0.29749 0.47126 0.99864 0.0
C1502 C 0.33217 0.47539 0.98681 0.0
C1503 C 0.3304 0.47076 0.96617 0.0
C1504 C 0.29444 0.46408 0.96653 0.0
N1505 N 0.18577 0.4691 0.99828 0.0
C1506 C 0.12598 0.48601 0.99871 0.0
C1507 C 0.13111 0.47957 0.0174 0.0
C1508 C 0.16044 0.47118 0.01677 0.0
C1509 C 0.15229 0.48393 0.97983 0.0
C1510 C 0.18243 0.47555 0.98008 0.0
N1511 N 0.25747 0.44343 0.99742 0.0
C1512 C 0.32279 0.43361 0.00699 0.0
C1513 C 0.30484 0.42456 0.99745 0.0
C1514 C 0.26268 0.42525 0.98795 0.0
C1515 C 0.23974 0.43466 0.98815 0.0
C1516 C 0.29871 0.44296 0.0067 0.0
H1517 H 0.20731 0.43478 0.98085 0.0
H1518 H 0.31335 0.4498 0.01403 0.0
H1519 H 0.16144 0.46623 0.03124 0.0
H1520 H 0.20233 0.47417 0.96539 0.0
C1521 C 0.13477 0.44761 0.97289 0.0
C1522 C 0.27962 0.45787 0.94733 0.0
C1523 C 0.18676 0.44669 0.04981 0.0
C1524 C 0.29179 0.47195 0.0218 0.0
H1525 H 0.22171 0.45166 0.91122 0.0
H1526 H 0.14035 0.44698 0.92484 0.0
H1527 H 0.0735 0.43705 1.00165 0.0
H1528 H 0.1046 0.43558 0.04304 0.0
H1529 H 0.23627 0.45711 0.08479 0.0
H1530 H 0.29071 0.47152 0.06965 0.0
H1531 H 0.35729 0.48066 0.99285 0.0
H1532 H 0.35333 0.47207 0.95258 0.0
H1533 H 0.11129 0.48076 0.03227 0.0
H1534 H 0.14971 0.48874 0.96501 0.0
H1535 H 0.3554 0.43351 0.01439 0.0
H1536 H 0.24693 0.4185 0.9807 0.0
C1537 C 0.53211 0.32387 0.94668 0.0
C1538 C 0.55544 0.32621 0.92736 0.0
C1539 C 0.59773 0.32858 0.93396 0.0
C1540 C 0.59794 0.32752 0.95688 0.0
N1541 N 0.55847 0.32462 0.96501 0.0
Co1542 Co 0.54362 0.32263 0.99712 0.0
N1543 N 0.59512 0.33093 0.00727 0.0
C1544 C 0.63019 0.33346 0.9945 0.0
C1545 C 0.66085 0.33928 0.00582 0.0
C1546 C 0.64443 0.34032 0.02711 0.0
C1547 C 0.60467 0.33496 0.02773 0.0
N1548 N 0.52802 0.3205 0.0291 0.0
C1549 C 0.54348 0.32519 0.04787 0.0
C1550 C 0.52533 0.32063 0.0669 0.0
C1551 C 0.49804 0.31284 0.05978 0.0
C1552 C 0.501 0.313 0.0369 0.0
N1553 N 0.4922 0.31437 0.98677 0.0
C1554 C 0.4692 0.30751 0.99913 0.0
C1555 C 0.43442 0.30322 0.98768 0.0
C1556 C 0.43562 0.30767 0.96681 0.0
C1557 C 0.47137 0.31441 0.96666 0.0
N1558 N 0.58088 0.30996 0.99824 0.0
C1559 C 0.63994 0.29283 0.99999 0.0
C1560 C 0.63857 0.30032 0.01702 0.0
C1561 C 0.60897 0.30862 0.01596 0.0
C1562 C 0.61029 0.29416 0.98198 0.0
C1563 C 0.5812 0.30275 0.98141 0.0
N1564 N 0.50782 0.3354 0.99629 0.0
C1565 C 0.44297 0.34522 0.0066 0.0
C1566 C 0.46015 0.35423 0.99646 0.0
C1567 C 0.50156 0.35349 0.98615 0.0
C1568 C 0.52467 0.3441 0.98628 0.0
C1569 C 0.46717 0.33589 0.00622 0.0
H1570 H 0.55663 0.34396 0.97846 0.0
H1571 H 0.45318 0.32909 0.01408 0.0
H1572 H 0.60979 0.31408 0.02952 0.0
H1573 H 0.55929 0.30361 0.96726 0.0
C1574 C 0.6304 0.33135 0.97143 0.0
C1575 C 0.48577 0.32044 0.94706 0.0
C1576 C 0.57957 0.33288 0.04849 0.0
C1577 C 0.47558 0.30701 0.02226 0.0
H1578 H 0.54306 0.32629 0.91037 0.0
H1579 H 0.62435 0.33132 0.92341 0.0
H1580 H 0.69109 0.34257 0.99929 0.0
H1581 H 0.66042 0.34437 0.04073 0.0
H1582 H 0.53212 0.32242 0.08424 0.0
H1583 H 0.4782 0.30773 0.07007 0.0
H1584 H 0.40963 0.29795 0.9941 0.0
H1585 H 0.4125 0.30619 0.9534 0.0
H1586 H 0.66103 0.3 0.03108 0.0
H1587 H 0.60928 0.2886 0.9684 0.0
H1588 H 0.41092 0.34535 0.01461 0.0
H1589 H 0.51671 0.36021 0.97838 0.0
C1590 C 0.23306 0.32377 0.81148 0.0
C1591 C 0.20839 0.32631 0.83022 0.0
C1592 C 0.16658 0.32859 0.82271 0.0
C1593 C 0.168 0.32728 0.79987 0.0
N1594 N 0.20803 0.32431 0.79263 0.0
Co1595 Co 0.22525 0.32201 0.76094 0.0
N1596 N 0.17434 0.33013 0.74936 0.0
C1597 C 0.13833 0.33275 0.76133 0.0
C1598 C 0.1083 0.33837 0.74911 0.0
C1599 C 0.12611 0.33916 0.72805 0.0
C1600 C 0.16604 0.33387 0.72847 0.0
N1601 N 0.24335 0.3196 0.72939 0.0
C1602 C 0.22909 0.32403 0.71006 0.0
C1603 C 0.24894 0.31932 0.69166 0.0
C1604 C 0.27601 0.3117 0.69976 0.0
C1605 C 0.27126 0.31209 0.72253 0.0
N1606 N 0.27594 0.3139 0.77269 0.0
C1607 C 0.29986 0.30692 0.76119 0.0
C1608 C 0.33363 0.30272 0.77358 0.0
C1609 C 0.33078 0.30738 0.79417 0.0
C1610 C 0.29522 0.31415 0.79317 0.0
N1611 N 0.1883 0.3093 0.75978 0.0
C1612 C 0.12902 0.29223 0.75804 0.0
C1613 C 0.13192 0.29947 0.74053 0.0
C1614 C 0.16163 0.30774 0.7416 0.0
C1615 C 0.15734 0.29375 0.77652 0.0
C1616 C 0.18656 0.30231 0.77707 0.0
N1617 N 0.26074 0.33482 0.76184 0.0
C1618 C 0.32702 0.34449 0.75337 0.0
C1619 C 0.30843 0.35366 0.76208 0.0
C1620 C 0.26551 0.35306 0.77074 0.0
C1621 C 0.24256 0.34365 0.77055 0.0
C1622 C 0.30269 0.33518 0.75342 0.0
H1623 H 0.20966 0.34361 0.7773 0.0
H1624 H 0.31769 0.32828 0.74655 0.0
H1625 H 0.16198 0.31301 0.72766 0.0
H1626 H 0.20736 0.30335 0.79158 0.0
C1627 C 0.13655 0.33092 0.78451 0.0
C1628 C 0.27948 0.32041 0.81209 0.0
C1629 C 0.19239 0.33152 0.70825 0.0
C1630 C 0.29545 0.30622 0.73797 0.0
H1631 H 0.21958 0.32659 0.84741 0.0
H1632 H 0.13922 0.33143 0.83261 0.0
H1633 H 0.07752 0.34168 0.75489 0.0
H1634 H 0.11089 0.34299 0.71389 0.0
H1635 H 0.24337 0.32089 0.67411 0.0
H1636 H 0.29674 0.30651 0.69015 0.0
H1637 H 0.35884 0.29737 0.76796 0.0
H1638 H 0.35265 0.30601 0.80818 0.0
H1639 H 0.11052 0.29899 0.72608 0.0
H1640 H 0.15717 0.28838 0.79048 0.0
H1641 H 0.36023 0.34447 0.7467 0.0
H1642 H 0.24904 0.35988 0.77728 0.0
C1643 C 0.53367 0.45442 0.81202 0.0
C1644 C 0.55881 0.45189 0.83062 0.0
C1645 C 0.60068 0.44982 0.82291 0.0
C1646 C 0.59881 0.45123 0.8001 0.0
N1647 N 0.55846 0.45405 0.79305 0.0
Co1648 Co 0.54059 0.45642 0.76145 0.0
N1649 N 0.59236 0.44872 0.74955 0.0
C1650 C 0.62914 0.44648 0.76128 0.0
C1651 C 0.66082 0.44165 0.7486 0.0
C1652 C 0.64321 0.44096 0.7275 0.0
C1653 C 0.60155 0.44543 0.72845 0.0
N1654 N 0.52131 0.4587 0.73 0.0
C1655 C 0.5349 0.45411 0.71076 0.0
C1656 C 0.51158 0.45797 0.69251 0.0
C1657 C 0.48366 0.46544 0.70054 0.0
C1658 C 0.49104 0.46568 0.72317 0.0
N1659 N 0.48941 0.46428 0.77347 0.0
C1660 C 0.46425 0.47105 0.76201 0.0
C1661 C 0.43051 0.4751 0.77461 0.0
C1662 C 0.43458 0.47056 0.79528 0.0
C1663 C 0.47081 0.46399 0.79412 0.0
N1664 N 0.57645 0.46934 0.76023 0.0
C1665 C 0.63869 0.48586 0.75897 0.0
C1666 C 0.62957 0.47981 0.74001 0.0
C1667 C 0.59927 0.47164 0.74106 0.0
C1668 C 0.61365 0.48373 0.77839 0.0
C1669 C 0.5825 0.47555 0.77858 0.0
N1670 N 0.50643 0.44342 0.76239 0.0
C1671 C 0.44082 0.43347 0.75413 0.0
C1672 C 0.46122 0.42427 0.76151 0.0
C1673 C 0.5043 0.42499 0.76985 0.0
C1674 C 0.52607 0.43456 0.77023 0.0
C1675 C 0.464 0.44293 0.75462 0.0
H1676 H 0.55917 0.43474 0.77672 0.0
H1677 H 0.44783 0.44982 0.74844 0.0
H1678 H 0.59565 0.467 0.72627 0.0
H1679 H 0.56437 0.47406 0.79381 0.0
C1680 C 0.63076 0.44806 0.78454 0.0
C1681 C 0.48721 0.45774 0.81293 0.0
C1682 C 0.57421 0.44747 0.70853 0.0
C1683 C 0.46695 0.4715 0.73868 0.0
H1684 H 0.54795 0.45154 0.84787 0.0
H1685 H 0.6285 0.44713 0.83268 0.0
H1686 H 0.69275 0.43886 0.75406 0.0
H1687 H 0.6596 0.43779 0.71294 0.0
H1688 H 0.51553 0.45588 0.67508 0.0
H1689 H 0.46042 0.47006 0.69102 0.0
H1690 H 0.40434 0.48022 0.76907 0.0
H1691 H 0.41285 0.4718 0.80939 0.0
H1692 H 0.64608 0.48123 0.72424 0.0
H1693 H 0.61882 0.48811 0.79361 0.0
H1694 H 0.40757 0.43332 0.74751 0.0
H1695 H 0.52122 0.41818 0.7762 0.0
H1696 H 0.1567 0.07953 0.06514 0.0
H1697 H 0.25278 0.06458 0.10749 0.0
H1698 H 0.1047 0.08018 0.09664 0.0
H1699 H 0.20182 0.06576 0.13926 0.0
H1700 H 0.10908 0.07976 0.19494 0.0
H1701 H 0.16139 0.08017 0.16354 0.0
H1702 H 0.06395 0.06586 0.12101 0.0
H1703 H 0.01268 0.06491 0.15268 0.0
C1704 C 0.16711 0.07661 0.08132 0.0
C1705 C 0.20956 0.07232 0.08389 0.0
C1706 C 0.13723 0.07693 0.09933 0.0
C1707 C 0.14914 0.07311 0.12058 0.0
C1708 C 0.19181 0.06894 0.12326 0.0
C1709 C 0.22131 0.06839 0.10508 0.0
C1710 C 0.0987 0.0768 0.17881 0.0
C1711 C 0.05603 0.07263 0.17621 0.0
C1712 C 0.12874 0.07699 0.16085 0.0
C1713 C 0.1168 0.07315 0.13964 0.0
C1714 C 0.07399 0.06907 0.13697 0.0
C1715 C 0.04433 0.06864 0.15509 0.0
H1716 H 0.21689 0.22362 0.1671 0.0
H1717 H 0.18888 0.19152 0.18165 0.0
H1718 H 0.16603 0.22307 0.13527 0.0
H1719 H 0.13762 0.19088 0.1498 0.0
H1720 H 0.08091 0.19178 0.07679 0.0
H1721 H 0.13165 0.19146 0.10886 0.0
H1722 H 0.08744 0.22211 0.12782 0.0
H1723 H 0.03715 0.22235 0.09571 0.0
C1724 C 0.19991 0.21642 0.16335 0.0
C1725 C 0.20662 0.20763 0.17692 0.0
C1726 C 0.17042 0.21611 0.14522 0.0
C1727 C 0.14699 0.20696 0.13997 0.0
C1728 C 0.155 0.19805 0.15318 0.0
C1729 C 0.18435 0.1984 0.17145 0.0
C1730 C 0.08169 0.19836 0.08808 0.0
C1731 C 0.05499 0.20706 0.08385 0.0
C1732 C 0.11079 0.1982 0.10646 0.0
C1733 C 0.11422 0.20681 0.12097 0.0
C1734 C 0.08648 0.21541 0.11691 0.0
C1735 C 0.05725 0.21552 0.09865 0.0
H1736 H 0.93619 0.94214 0.82555 0.0
H1737 H 0.97257 0.97337 0.84346 0.0
H1738 H 0.88483 0.94146 0.85737 0.0
H1739 H 0.92162 0.97279 0.87529 0.0
H1740 H 0.79159 0.973 0.91396 0.0
H1741 H 0.84242 0.97276 0.88207 0.0
H1742 H 0.87906 0.94123 0.8985 0.0
H1743 H 0.82783 0.94156 0.9304 0.0
C1744 C 0.93355 0.94881 0.83653 0.0
C1745 C 0.95824 0.95781 0.83206 0.0
C1746 C 0.90414 0.94844 0.85476 0.0
C1747 C 0.89848 0.95712 0.86888 0.0
C1748 C 0.92429 0.96602 0.86462 0.0
C1749 C 0.95384 0.96634 0.84652 0.0
C1750 C 0.81022 0.966 0.91055 0.0
C1751 C 0.80582 0.9573 0.92461 0.0
C1752 C 0.83972 0.96587 0.89242 0.0
C1753 C 0.86548 0.95701 0.88773 0.0
C1754 C 0.85979 0.94818 0.90145 0.0
C1755 C 0.83044 0.94834 0.91972 0.0
H1756 H 0.8195 0.838 0.83135 0.0
H1757 H 0.7961 0.80552 0.84407 0.0
H1758 H 0.87216 0.83854 0.86261 0.0
H1759 H 0.84863 0.80596 0.87521 0.0
H1760 H 0.98062 0.80718 0.91203 0.0
H1761 H 0.92884 0.80765 0.88052 0.0
H1762 H 0.87834 0.83706 0.90401 0.0
H1763 H 0.93039 0.83649 0.93553 0.0
C1764 C 0.82533 0.83101 0.84104 0.0
C1765 C 0.804 0.8217 0.83523 0.0
C1766 C 0.85549 0.8313 0.85893 0.0
C1767 C 0.86525 0.82226 0.87133 0.0
C1768 C 0.84273 0.81303 0.86581 0.0
C1769 C 0.81234 0.81277 0.84811 0.0
C1770 C 0.95891 0.81381 0.91016 0.0
C1771 C 0.95969 0.82184 0.92603 0.0
C1772 C 0.92887 0.81404 0.89229 0.0
C1773 C 0.89895 0.82235 0.88976 0.0
C1774 C 0.90095 0.83057 0.9053 0.0
C1775 C 0.93078 0.83028 0.92332 0.0
H1776 H 0.22189 0.55511 0.59216 0.0
H1777 H 0.18447 0.58643 0.57551 0.0
H1778 H 0.17186 0.55537 0.62436 0.0
H1779 H 0.13379 0.58678 0.6076 0.0
H1780 H 0.0772 0.58651 0.68029 0.0
H1781 H 0.12761 0.58697 0.6481 0.0
H1782 H 0.09449 0.55509 0.63312 0.0
H1783 H 0.04469 0.55471 0.66541 0.0
C1784 C 0.20302 0.56208 0.59553 0.0
C1785 C 0.20703 0.57074 0.58133 0.0
C1786 C 0.17396 0.56222 0.61387 0.0
C1787 C 0.14808 0.57107 0.61866 0.0
C1788 C 0.15315 0.57984 0.60468 0.0
C1789 C 0.18216 0.57966 0.58624 0.0
C1790 C 0.0805 0.57966 0.66992 0.0
C1791 C 0.05714 0.57057 0.67538 0.0
C1792 C 0.10937 0.5799 0.65142 0.0
C1793 C 0.1158 0.57103 0.63794 0.0
C1794 C 0.09135 0.56202 0.64323 0.0
C1795 C 0.06241 0.56181 0.66163 0.0
H1796 H 0.10927 0.69865 0.56284 0.0
H1797 H 0.0141 0.71418 0.6047 0.0
H1798 H 0.1613 0.69806 0.59433 0.0
H1799 H 0.06501 0.71303 0.63649 0.0
H1800 H 0.15667 0.69878 0.6924 0.0
H1801 H 0.10479 0.69824 0.66086 0.0
H1802 H 0.20216 0.71275 0.61849 0.0
H1803 H 0.25298 0.71385 0.65032 0.0
C1804 C 0.09907 0.70171 0.57891 0.0
C1805 C 0.05686 0.70614 0.58139 0.0
C1806 C 0.12894 0.70142 0.59691 0.0
C1807 C 0.1172 0.7054 0.61801 0.0
C1808 C 0.07482 0.70972 0.62058 0.0
C1809 C 0.04536 0.71025 0.60242 0.0
C1810 C 0.16716 0.70175 0.67627 0.0
C1811 C 0.20962 0.70604 0.67376 0.0
C1812 C 0.13736 0.70149 0.65824 0.0
C1813 C 0.14942 0.70537 0.63707 0.0
C1814 C 0.19209 0.70953 0.63445 0.0
C1815 C 0.22149 0.71003 0.65264 0.0
H1816 H 0.96879 0.47335 0.34185 0.0
H1817 H 0.93818 0.44142 0.32713 0.0
H1818 H 0.91809 0.47293 0.37376 0.0
H1819 H 0.88708 0.44091 0.35907 0.0
H1820 H 0.83028 0.44188 0.43204 0.0
H1821 H 0.88118 0.44143 0.40003 0.0
H1822 H 0.83943 0.47231 0.38119 0.0
H1823 H 0.78901 0.47268 0.41324 0.0
C1824 C 0.95131 0.46622 0.34559 0.0
C1825 C 0.95723 0.45744 0.33195 0.0
C1826 C 0.9219 0.46598 0.36377 0.0
C1827 C 0.89778 0.45692 0.36899 0.0
C1828 C 0.90502 0.44802 0.35572 0.0
C1829 C 0.93429 0.44829 0.3374 0.0
C1830 C 0.83169 0.44849 0.42081 0.0
C1831 C 0.80567 0.4573 0.42506 0.0
C1832 C 0.86085 0.44825 0.40246 0.0
C1833 C 0.86501 0.45687 0.38799 0.0
C1834 C 0.83794 0.46558 0.39208 0.0
C1835 C 0.80864 0.46578 0.41031 0.0
H1836 H 0.85686 0.3303 0.31265 0.0
H1837 H 0.76096 0.31518 0.35486 0.0
H1838 H 0.90917 0.33073 0.34401 0.0
H1839 H 0.81228 0.31609 0.38649 0.0
H1840 H 0.90435 0.32949 0.44249 0.0
H1841 H 0.85221 0.33013 0.41109 0.0
H1842 H 0.95066 0.31664 0.36785 0.0
H1843 H 1.00206 0.31558 0.39953 0.0
C1844 C 0.8466 0.32728 0.32877 0.0
C1845 C 0.80411 0.32302 0.33138 0.0
C1846 C 0.87665 0.32747 0.3467 0.0
C1847 C 0.86486 0.32353 0.36787 0.0
C1848 C 0.82219 0.31937 0.37055 0.0
C1849 C 0.79251 0.31896 0.35247 0.0
C1850 C 0.91492 0.32673 0.42623 0.0
C1851 C 0.95769 0.32266 0.42346 0.0
C1852 C 0.885 0.32705 0.40826 0.0
C1853 C 0.89723 0.32347 0.38689 0.0
C1854 C 0.94031 0.31958 0.384 0.0
C1855 C 0.9699 0.31904 0.40211 0.0
H1856 H 0.7523 0.06528 0.60667 0.0
H1857 H 0.65676 0.08017 0.56391 0.0
H1858 H 0.70084 0.06642 0.63821 0.0
H1859 H 0.60423 0.08079 0.5952 0.0
H1860 H 0.51205 0.0655 0.65148 0.0
H1861 H 0.56309 0.06655 0.6197 0.0
H1862 H 0.66056 0.08089 0.66218 0.0
H1863 H 0.60854 0.08035 0.69367 0.0
C1864 C 0.7208 0.06906 0.60412 0.0
C1865 C 0.7094 0.07301 0.5829 0.0
C1866 C 0.69103 0.06959 0.62217 0.0
C1867 C 0.6484 0.07375 0.61932 0.0
C1868 C 0.63674 0.07755 0.59802 0.0
C1869 C 0.66691 0.07724 0.58013 0.0
C1870 C 0.54363 0.06926 0.65384 0.0
C1871 C 0.55551 0.07319 0.67499 0.0
C1872 C 0.57316 0.06975 0.63567 0.0
C1873 C 0.61595 0.07384 0.63833 0.0
C1874 C 0.62794 0.07768 0.65951 0.0
C1875 C 0.59804 0.07743 0.67752 0.0
H1876 H 0.60919 0.19883 0.56362 0.0
H1877 H 0.51309 0.21356 0.60625 0.0
H1878 H 0.66162 0.19828 0.59494 0.0
H1879 H 0.56449 0.21249 0.63783 0.0
H1880 H 0.6572 0.19885 0.69344 0.0
H1881 H 0.60516 0.1982 0.66199 0.0
H1882 H 0.70236 0.21253 0.61922 0.0
H1883 H 0.75341 0.2137 0.65094 0.0
C1884 C 0.5989 0.20173 0.57982 0.0
C1885 C 0.55632 0.20591 0.58255 0.0
C1886 C 0.62901 0.20146 0.59773 0.0
C1887 C 0.61719 0.20525 0.619 0.0
C1888 C 0.57444 0.20933 0.62181 0.0
C1889 C 0.5447 0.20983 0.60375 0.0
C1890 C 0.66763 0.20175 0.67723 0.0
C1891 C 0.7101 0.20602 0.6746 0.0
C1892 C 0.63773 0.20142 0.65925 0.0
C1893 C 0.64963 0.20524 0.638 0.0
C1894 C 0.69235 0.20936 0.63524 0.0
C1895 C 0.72189 0.20991 0.65338 0.0
H1896 H 0.26144 0.96264 0.39954 0.0
H1897 H 0.35792 0.94835 0.44272 0.0
H1898 H 0.31351 0.9617 0.36812 0.0
H1899 H 0.41073 0.94783 0.41158 0.0
H1900 H 0.50273 0.96346 0.35603 0.0
H1901 H 0.45115 0.96215 0.38752 0.0
H1902 H 0.35536 0.94761 0.34435 0.0
H1903 H 0.40792 0.94844 0.31313 0.0
C1904 C 0.29346 0.95912 0.40221 0.0
C1905 C 0.30518 0.95537 0.42353 0.0
C1906 C 0.32343 0.95864 0.38426 0.0
C1907 C 0.36635 0.95469 0.38731 0.0
C1908 C 0.37805 0.95096 0.40865 0.0
C1909 C 0.34776 0.95121 0.42645 0.0
C1910 C 0.47143 0.95959 0.35347 0.0
C1911 C 0.46011 0.95571 0.33223 0.0
C1912 C 0.44159 0.95896 0.37146 0.0
C1913 C 0.39911 0.95474 0.3685 0.0
C1914 C 0.38774 0.95091 0.34722 0.0
C1915 C 0.41793 0.95133 0.32939 0.0
H1916 H 0.50237 0.81511 0.40274 0.0
H1917 H 0.40786 0.82992 0.44617 0.0
H1918 H 0.45024 0.81637 0.37151 0.0
H1919 H 0.3548 0.83073 0.41519 0.0
H1920 H 0.26036 0.81565 0.36047 0.0
H1921 H 0.31276 0.81675 0.39168 0.0
H1922 H 0.40939 0.83047 0.34761 0.0
H1923 H 0.35627 0.82977 0.31666 0.0
C1924 C 0.471 0.81892 0.40546 0.0
C1925 C 0.4599 0.82276 0.42677 0.0
C1926 C 0.44087 0.81953 0.38762 0.0
C1927 C 0.39835 0.82369 0.39081 0.0
C1928 C 0.38721 0.82748 0.41215 0.0
C1929 C 0.41767 0.82707 0.42984 0.0
C1930 C 0.2923 0.81918 0.35763 0.0
C1931 C 0.3038 0.82283 0.3362 0.0
C1932 C 0.32246 0.81975 0.37546 0.0
C1933 C 0.36531 0.8237 0.37216 0.0
C1934 C 0.37676 0.82735 0.35072 0.0
C1935 C 0.34629 0.82699 0.33303 0.0
H1936 H 0.72309 0.55547 0.09388 0.0
H1937 H 0.68516 0.58665 0.07631 0.0
H1938 H 0.67296 0.55589 0.12604 0.0
H1939 H 0.63451 0.58716 0.10842 0.0
H1940 H 0.57734 0.58706 0.18116 0.0
H1941 H 0.62832 0.58746 0.14917 0.0
H1942 H 0.59483 0.55562 0.13406 0.0
H1943 H 0.54435 0.55531 0.16607 0.0
C1944 C 0.70423 0.56246 0.09709 0.0
C1945 C 0.70807 0.57103 0.08263 0.0
C1946 C 0.67508 0.56268 0.11539 0.0
C1947 C 0.649 0.57152 0.11988 0.0
C1948 C 0.65404 0.58023 0.10571 0.0
C1949 C 0.68307 0.57996 0.08728 0.0
C1950 C 0.58068 0.58021 0.1708 0.0
C1951 C 0.55704 0.57114 0.17615 0.0
C1952 C 0.60988 0.58042 0.15243 0.0
C1953 C 0.61638 0.57153 0.13899 0.0
C1954 C 0.59163 0.56256 0.14416 0.0
C1955 C 0.56232 0.56238 0.1624 0.0
H1956 H 0.68487 0.69163 0.1804 0.0
H1957 H 0.72189 0.72292 0.1631 0.0
H1958 H 0.63396 0.69114 0.14841 0.0
H1959 H 0.67143 0.72252 0.13109 0.0
H1960 H 0.542 0.72301 0.09185 0.0
H1961 H 0.59267 0.72263 0.12378 0.0
H1962 H 0.62818 0.69104 0.10743 0.0
H1963 H 0.57705 0.69151 0.07551 0.0
C1964 C 0.68252 0.69834 0.16951 0.0
C1965 C 0.70729 0.70731 0.17419 0.0
C1966 C 0.65335 0.69809 0.15117 0.0
C1967 C 0.64797 0.70683 0.13715 0.0
C1968 C 0.67386 0.71569 0.14165 0.0
C1969 C 0.70317 0.71591 0.15985 0.0
C1970 C 0.56039 0.71597 0.09527 0.0
C1971 C 0.55566 0.70729 0.08122 0.0
C1972 C 0.58979 0.71576 0.11344 0.0
C1973 C 0.61517 0.70684 0.11819 0.0
C1974 C 0.60921 0.69803 0.10446 0.0
C1975 C 0.57993 0.69828 0.08616 0.0
H1976 H 0.47684 0.47235 0.84568 0.0
H1977 H 0.43591 0.44151 0.82715 0.0
H1978 H 0.42623 0.47199 0.87767 0.0
H1979 H 0.3849 0.44106 0.85913 0.0
H1980 H 0.32704 0.44122 0.93195 0.0
H1981 H 0.37864 0.44065 0.90021 0.0
H1982 H 0.34719 0.47258 0.88463 0.0
H1983 H 0.29596 0.47305 0.91632 0.0
C1984 C 0.45733 0.46543 0.84869 0.0
C1985 C 0.46042 0.45695 0.83401 0.0
C1986 C 0.4279 0.46525 0.86687 0.0
C1987 C 0.40084 0.45653 0.871 0.0
C1988 C 0.4052 0.44789 0.85666 0.0
C1989 C 0.43446 0.44812 0.83834 0.0
C1990 C 0.33092 0.44806 0.92152 0.0
C1991 C 0.30767 0.45719 0.92664 0.0
C1992 C 0.36049 0.44775 0.90332 0.0
C1993 C 0.36776 0.45661 0.88987 0.0
C1994 C 0.34335 0.46566 0.89477 0.0
C1995 C 0.31363 0.46592 0.91282 0.0
H1996 H 0.33189 0.33646 0.82596 0.0
H1997 H 0.28918 0.3058 0.84501 0.0
H1998 H 0.38243 0.33689 0.8581 0.0
H1999 H 0.3392 0.30615 0.87721 0.0
H2000 H 0.46802 0.30496 0.91704 0.0
H2001 H 0.41738 0.30534 0.88512 0.0
H2002 H 0.38832 0.33755 0.89887 0.0
H2003 H 0.43944 0.33708 0.93078 0.0
C2004 C 0.33292 0.32988 0.83727 0.0
C2005 C 0.3066 0.32111 0.83305 0.0
C2006 C 0.36187 0.3301 0.8557 0.0
C2007 C 0.36549 0.32151 0.8703 0.0
C2008 C 0.33813 0.31284 0.86623 0.0
C2009 C 0.30906 0.31266 0.84791 0.0
C2010 C 0.45091 0.31212 0.91311 0.0
C2011 C 0.45743 0.32096 0.92647 0.0
C2012 C 0.42155 0.31234 0.89492 0.0
C2013 C 0.39804 0.32145 0.8894 0.0
C2014 C 0.40578 0.3304 0.90244 0.0
C2015 C 0.43504 0.33015 0.92075 0.0
H2016 H 0.43383 0.03259 0.04355 0.0
H2017 H 0.41939 0.03219 0.9716 0.0
H2018 H 0.48918 0.019 0.04091 0.0
H2019 H 0.47753 0.0195 0.96879 0.0
H2020 H 0.56124 0.99029 0.96853 0.0
H2021 H 0.5023 1.00307 0.97157 0.0
H2022 H 0.56 0.01449 0.03305 0.0
H2023 H 0.61704 1.00122 0.03048 0.0
C2024 C 0.44226 0.02967 0.02712 0.0
C2025 C 0.42175 0.03375 0.00783 0.0
C2026 C 0.47502 0.02193 0.02553 0.0
C2027 C 0.48908 0.01805 0.00456 0.0
C2028 C 0.46799 0.02204 0.98535 0.0
C2029 C 0.43475 0.0296 0.98697 0.0
C2030 C 0.56143 0.9956 0.98259 0.0
C2031 C 0.59403 0.99472 0.9992 0.0
C2032 C 0.5275 1.00303 0.98438 0.0
C2033 C 0.5255 1.01 1.00265 0.0
C2034 C 0.55902 1.00921 0.01898 0.0
C2035 C 0.59233 1.00164 0.01741 0.0
H2036 H 0.68199 0.28233 0.96538 0.0
H2037 H 0.67311 0.28293 0.03754 0.0
H2038 H 0.73737 0.2687 0.96785 0.0
H2039 H 0.73103 0.27013 0.04006 0.0
H2040 H 0.8134 0.24065 0.04022 0.0
H2041 H 0.75438 0.25345 0.03748 0.0
H2042 H 0.80937 0.26453 0.97503 0.0
H2043 H 0.86669 0.25132 0.9774 0.0
C2044 C 0.69165 0.27961 0.98181 0.0
C2045 C 0.67277 0.28398 1.00121 0.0
C2046 C 0.72435 0.27185 0.98328 0.0
C2047 C 0.73985 0.26823 0.00421 0.0
C2048 C 0.7203 0.27248 0.02355 0.0
C2049 C 0.6872 0.28008 0.02208 0.0
C2050 C 0.81301 0.24589 0.02602 0.0
C2051 C 0.84496 0.24493 0.00908 0.0
C2052 C 0.77904 0.25331 0.02439 0.0
C2053 C 0.77627 0.26019 0.00595 0.0
C2054 C 0.80907 0.25932 0.98926 0.0
C2055 C 0.84249 0.25178 0.99071 0.0
H2056 H 0.41919 0.24657 0.28765 0.0
H2057 H 0.42852 0.24699 0.21548 0.0
H2058 H 0.47648 0.25952 0.29002 0.0
H2059 H 0.48307 0.26079 0.21778 0.0
H2060 H 0.61113 0.27864 0.2271 0.0
H2061 H 0.55464 0.26523 0.22491 0.0
H2062 H 0.499 0.27621 0.28724 0.0
H2063 H 0.55736 0.28918 0.28985 0.0
C2064 C 0.43325 0.24941 0.27215 0.0
C2065 C 0.41918 0.24542 0.25134 0.0
C2066 C 0.46595 0.2571 0.27353 0.0
C2067 C 0.48535 0.26136 0.25414 0.0
C2068 C 0.47016 0.25764 0.23325 0.0
C2069 C 0.43792 0.24978 0.23188 0.0
C2070 C 0.58698 0.2781 0.24043 0.0
C2071 C 0.58904 0.28496 0.25873 0.0
C2072 C 0.55402 0.27045 0.23907 0.0
C2073 C 0.52129 0.2695 0.25578 0.0
C2074 C 0.52365 0.2764 0.27415 0.0
C2075 C 0.55721 0.28392 0.2757 0.0
H2076 H 0.70459 0.99027 0.28858 0.0
H2077 H 0.64777 1.00157 0.2271 0.0
H2078 H 0.7631 1.00318 0.28574 0.0
H2079 H 0.70453 0.01492 0.22471 0.0
H2080 H 0.83073 0.0331 0.21447 0.0
H2081 H 0.77599 0.01932 0.21684 0.0
H2082 H 0.78577 0.01986 0.28902 0.0
H2083 H 0.84316 0.03278 0.28652 0.0
C2084 C 0.70411 0.99567 0.27467 0.0
C2085 C 0.67135 0.99487 0.25812 0.0
C2086 C 0.73777 1.00316 0.27299 0.0
C2087 C 0.73932 1.01027 0.25492 0.0
C2088 C 0.70573 1.00954 0.23863 0.0
C2089 C 0.67264 1.00192 0.24009 0.0
C2090 C 0.82197 0.03014 0.23086 0.0
C2091 C 0.84163 0.0343 0.25027 0.0
C2092 C 0.78965 0.0223 0.23228 0.0
C2093 C 0.77532 0.01839 0.25319 0.0
C2094 C 0.79563 0.02244 0.27252 0.0
C2095 C 0.82839 0.03011 0.27107 0.0
H2096 H 0.34353 0.74648 0.97027 0.0
H2097 H 0.33314 0.74582 0.04246 0.0
H2098 H 0.28573 0.75955 0.96865 0.0
H2099 H 0.27684 0.75939 0.04065 0.0
H2100 H 0.21404 0.79202 0.02612 0.0
H2101 H 0.27004 0.77858 0.02839 0.0
H2102 H 0.20241 0.76098 0.9776 0.0
H2103 H 0.1444 0.77414 0.97607 0.0
C2104 C 0.32897 0.74901 0.98588 0.0
C2105 C 0.34327 0.74482 0.00654 0.0
C2106 C 0.29575 0.7566 0.98487 0.0
C2107 C 0.27624 0.76049 0.00448 0.0
C2108 C 0.29122 0.7566 0.02518 0.0
C2109 C 0.32392 0.74883 0.0262 0.0
C2110 C 0.21001 0.78522 0.01571 0.0
C2111 C 0.1735 0.78426 1.00111 0.0
C2112 C 0.24268 0.7775 0.01696 0.0
C2113 C 0.24081 0.76865 1.00328 0.0
C2114 C 0.20508 0.76772 0.98832 0.0
C2115 C 0.1718 0.77536 0.98737 0.0
H2116 H 0.61252 0.77885 0.72903 0.0
H2117 H 0.55163 0.78843 0.79108 0.0
H2118 H 0.5579 0.76512 0.7253 0.0
H2119 H 0.49486 0.77561 0.78613 0.0
H2120 H 0.41797 0.74606 0.78577 0.0
H2121 H 0.47485 0.75897 0.78885 0.0
H2122 H 0.48744 0.75977 0.71677 0.0
H2123 H 0.43323 0.74586 0.71385 0.0
C2124 C 0.58764 0.77811 0.74192 0.0
C2125 C 0.58716 0.78495 0.76037 0.0
C2126 C 0.55545 0.77027 0.73954 0.0
C2127 C 0.52116 0.76907 0.75534 0.0
C2128 C 0.52072 0.77596 0.77368 0.0
C2129 C 0.55328 0.7836 0.77631 0.0
C2130 C 0.43326 0.74875 0.77045 0.0
C2131 C 0.42085 0.7446 0.74953 0.0
C2132 C 0.46572 0.75646 0.77221 0.0
C2133 C 0.48642 0.76066 0.7531 0.0
C2134 C 0.47326 0.75672 0.73205 0.0
C2135 C 0.44126 0.7488 0.73031 0.0
H2136 H 0.18147 0.99685 0.79251 0.0
H2137 H 0.16891 0.99712 0.72047 0.0
H2138 H 0.23697 1.01045 0.79004 0.0
H2139 H 0.22703 1.00986 0.71787 0.0
H2140 H 0.30985 0.03924 0.71823 0.0
H2141 H 0.25072 0.02647 0.72106 0.0
H2142 H 0.30866 0.01459 0.78212 0.0
H2143 H 0.36604 0.02779 0.77974 0.0
C2144 C 0.19035 0.99976 0.77611 0.0
C2145 C 0.17041 0.99565 0.75673 0.0
C2146 C 0.22312 1.00749 0.77462 0.0
C2147 C 0.23764 1.01133 0.75369 0.0
C2148 C 0.21706 1.00733 0.73439 0.0
C2149 C 0.18385 0.99976 0.73589 0.0
C2150 C 0.31006 0.03383 0.73214 0.0
C2151 C 0.34281 0.03455 0.74871 0.0
C2152 C 0.27604 0.02643 0.73381 0.0
C2153 C 0.27411 0.01934 0.75191 0.0
C2154 C 0.30774 0.01997 0.7682 0.0
C2155 C 0.34119 0.0275 0.76673 0.0
H2156 H 0.56219 0.49045 0.46814 0.0
H2157 H 0.61634 0.50159 0.53031 0.0
H2158 H 0.50274 0.50313 0.47079 0.0
H2159 H 0.55865 0.51471 0.53254 0.0
H2160 H 0.43087 0.53225 0.5423 0.0
H2161 H 0.48659 0.51871 0.53999 0.0
H2162 H 0.479 0.51975 0.46775 0.0
H2163 H 0.42067 0.53244 0.47017 0.0
C2164 C 0.56189 0.49578 0.48216 0.0
C2165 C 0.59416 0.495 0.49896 0.0
C2166 C 0.52769 0.50313 0.48373 0.0
C2167 C 0.52509 0.51011 0.50196 0.0
C2168 C 0.55825 0.50942 0.51849 0.0
C2169 C 0.59188 0.50193 0.51711 0.0
C2170 C 0.44031 0.52946 0.52591 0.0
C2171 C 0.42101 0.53368 0.50646 0.0
C2172 C 0.4732 0.52175 0.52453 0.0
C2173 C 0.48846 0.51807 0.50363 0.0
C2174 C 0.46846 0.52217 0.48425 0.0
C2175 C 0.43514 0.52971 0.48565 0.0
H2176 H 0.70666 0.78853 0.46859 0.0
H2177 H 0.65018 0.77687 0.52987 0.0
H2178 H 0.76553 0.77569 0.47114 0.0
H2179 H 0.7072 0.76358 0.53193 0.0
H2180 H 0.83384 0.74569 0.542 0.0
H2181 H 0.77864 0.75933 0.53978 0.0
H2182 H 0.789 0.7591 0.4676 0.0
H2183 H 0.847 0.74633 0.46998 0.0
C2184 C 0.70634 0.78305 0.48238 0.0
C2185 C 0.67362 0.78373 0.49898 0.0
C2186 C 0.74018 0.77561 0.48389 0.0
C2187 C 0.74191 0.76844 0.50183 0.0
C2188 C 0.70828 0.76902 0.51813 0.0
C2189 C 0.67503 0.7766 0.51684 0.0
C2190 C 0.82516 0.74868 0.52565 0.0
C2191 C 0.8452 0.74467 0.5062 0.0
C2192 C 0.79253 0.75644 0.52431 0.0
C2193 C 0.77821 0.76039 0.50345 0.0
C2194 C 0.79885 0.75648 0.48408 0.0
C2195 C 0.83196 0.74889 0.48544 0.0
H2196 H 0.84497 0.53201 0.78777 0.0
H2197 H 0.83429 0.53219 0.71558 0.0
H2198 H 0.78704 0.51899 0.78987 0.0
H2199 H 0.77783 0.51867 0.71789 0.0
H2200 H 0.7149 0.48619 0.73334 0.0
H2201 H 0.77096 0.4996 0.73067 0.0
H2202 H 0.70372 0.51746 0.7812 0.0
H2203 H 0.64564 0.5043 0.78313 0.0
C2204 C 0.83031 0.52939 0.77226 0.0
C2205 C 0.84458 0.53343 0.75145 0.0
C2206 C 0.797 0.52182 0.77355 0.0
C2207 C 0.77737 0.51781 0.7541 0.0
C2208 C 0.7923 0.52156 0.73325 0.0
C2209 C 0.8251 0.52929 0.73194 0.0
C2210 C 0.71097 0.49304 0.7436 0.0
C2211 C 0.67452 0.49407 0.75823 0.0
C2212 C 0.74367 0.50074 0.74212 0.0
C2213 C 0.74191 0.50966 0.75559 0.0
C2214 C 0.70629 0.51066 0.77062 0.0
C2215 C 0.67297 0.50304 0.7718 0.0
H2216 H 0.23209 0.29463 0.49616 0.0
H2217 H 0.12786 0.2722 0.50596 0.0
H2218 H 0.28689 0.28092 0.50068 0.0
H2219 H 0.18264 0.25861 0.51148 0.0
H2220 H 0.28863 0.23462 0.49456 0.0
H2221 H 0.23426 0.24839 0.49164 0.0
H2222 H 0.32211 0.26924 0.52648 0.0
H2223 H 0.37768 0.25547 0.52857 0.0
C2224 C 0.22069 0.28678 0.49924 0.0
C2225 C 0.17514 0.2846 0.50051 0.0
C2226 C 0.25234 0.27891 0.50218 0.0
C2227 C 0.23959 0.26857 0.50647 0.0
C2228 C 0.19405 0.26641 0.50793 0.0
C2229 C 0.16242 0.27428 0.50501 0.0
C2230 C 0.29673 0.24215 0.50149 0.0
C2231 C 0.33813 0.24389 0.51158 0.0
C2232 C 0.26506 0.25006 0.50006 0.0
C2233 C 0.27339 0.26003 0.50876 0.0
C2234 C 0.31448 0.26174 0.51928 0.0
C2235 C 0.34629 0.25378 0.52074 0.0
H2236 H 0.14973 0.50114 0.22729 0.0
H2237 H 0.20303 0.49047 0.29008 0.0
H2238 H 0.20676 0.51443 0.22501 0.0
H2239 H 0.26197 0.50329 0.28737 0.0
H2240 H 0.34363 0.53264 0.28749 0.0
H2241 H 0.28566 0.51987 0.29001 0.0
H2242 H 0.27836 0.51872 0.21778 0.0
H2243 H 0.33363 0.53237 0.21535 0.0
C2244 C 0.17387 0.50162 0.24062 0.0
C2245 C 0.17153 0.49477 0.25896 0.0
C2246 C 0.20716 0.5092 0.23921 0.0
C2247 C 0.23997 0.51006 0.25588 0.0
C2248 C 0.2373 0.50317 0.2743 0.0
C2249 C 0.20339 0.49573 0.27591 0.0
C2250 C 0.32928 0.52987 0.27203 0.0
C2251 C 0.34339 0.53386 0.25118 0.0
C2252 C 0.29617 0.52228 0.27349 0.0
C2253 C 0.27634 0.51811 0.25415 0.0
C2254 C 0.29156 0.52181 0.23322 0.0
C2255 C 0.32423 0.52957 0.23177 0.0
H2256 H 0.05251 0.99024 0.4673 0.0
H2257 H 0.11182 0.99935 0.53006 0.0
H2258 H 0.99595 1.00314 0.47221 0.0
H2259 H 0.05752 1.01313 0.53379 0.0
H2260 H 0.93367 0.03268 0.54479 0.0
H2261 H 0.98694 0.01856 0.54193 0.0
H2262 H 0.97712 0.01988 0.46978 0.0
H2263 H 0.92118 0.03303 0.47275 0.0
C2264 C 0.05386 0.99497 0.48222 0.0
C2265 C 0.08729 0.99349 0.49833 0.0
C2266 C 0.02145 1.00265 0.48484 0.0
C2267 C 0.02159 1.00944 0.50337 0.0
C2268 C 0.05534 1.00807 0.51939 0.0
C2269 C 0.08735 1.00021 0.517 0.0
C2270 C 0.94213 0.02981 0.52832 0.0
C2271 C 0.92285 0.03424 0.50904 0.0
C2272 C 0.97356 0.02177 0.52662 0.0
C2273 C 0.98723 0.01793 0.50557 0.0
C2274 C 0.96755 0.02233 0.4864 0.0
C2275 C 0.93567 0.03017 0.48811 0.0
H2276 H 0.95632 0.23996 0.71809 0.0
H2277 H 0.89956 0.2514 0.77941 0.0
H2278 H 0.01559 0.25267 0.72105 0.0
H2279 H 0.95707 0.26456 0.78191 0.0
H2280 H 0.08426 0.28226 0.79257 0.0
H2281 H 0.02858 0.26871 0.79001 0.0
H2282 H 0.0398 0.26923 0.71787 0.0
H2283 H 0.0981 0.28191 0.72059 0.0
C2284 C 0.95601 0.24536 0.73198 0.0
C2285 C 0.92305 0.24464 0.74846 0.0
C2286 C 0.99011 0.25273 0.73373 0.0
C2287 C 0.99194 0.25981 0.75181 0.0
C2288 C 0.9581 0.25919 0.768 0.0
C2289 C 0.92456 0.25168 0.76646 0.0
C2290 C 0.07562 0.27935 0.77616 0.0
C2291 C 0.09598 0.28342 0.75682 0.0
C2292 C 0.04274 0.27164 0.77462 0.0
C2293 C 0.02851 0.26779 0.75366 0.0
C2294 C 0.04952 0.27176 0.73441 0.0
C2295 C 0.08283 0.2793 0.73598 0.0
H2296 H 0.03009 0.79483 0.26409 0.0
H2297 H 0.13293 0.77239 0.25152 0.0
H2298 H 0.9745 0.7813 0.25942 0.0
H2299 H 0.07729 0.75893 0.24613 0.0
H2300 H 0.97023 0.73507 0.264 0.0
H2301 H 0.0256 0.74866 0.26679 0.0
H2302 H 0.93823 0.76996 0.2328 0.0
H2303 H 0.88189 0.75634 0.23064 0.0
C2304 C 0.04099 0.78701 0.26037 0.0
C2305 C 0.08637 0.78477 0.25836 0.0
C2306 C 0.0089 0.77924 0.25738 0.0
C2307 C 0.02103 0.76893 0.25238 0.0
C2308 C 0.0664 0.76671 0.25021 0.0
C2309 C 0.09849 0.77449 0.25309 0.0
C2310 C 0.9625 0.74266 0.25721 0.0
C2311 C 0.92105 0.74457 0.2473 0.0
C2312 C 0.9947 0.75047 0.25857 0.0
C2313 C 0.98675 0.7605 0.25008 0.0
C2314 C 0.94557 0.76239 0.23981 0.0
C2315 C 0.91331 0.75453 0.23834 0.0
H2316 H 0.11391 0.50102 0.03065 0.0
H2317 H 0.06081 0.49016 0.96805 0.0
H2318 H 0.05662 0.51425 0.03273 0.0
H2319 H 1.00157 0.5029 0.97057 0.0
H2320 H 0.91783 0.53188 0.97012 0.0
H2321 H 0.97643 0.51929 0.96773 0.0
H2322 H 0.98548 0.51865 0.03994 0.0
H2323 H 0.9297 0.53216 0.04219 0.0
C2324 C 0.08975 0.50145 0.01732 0.0
C2325 C 0.09226 0.49456 0.99909 0.0
C2326 C 0.05628 0.509 0.01861 0.0
C2327 C 0.0234 0.50978 1.00194 0.0
C2328 C 0.02625 0.50284 0.98364 0.0
C2329 C 0.06035 0.49545 0.98214 0.0
C2330 C 0.93271 0.52929 0.9856 0.0
C2331 C 0.91884 0.53337 0.00638 0.0
C2332 C 0.96622 0.52178 0.98422 0.0
C2333 C 0.98673 0.51778 1.00358 0.0
C2334 C 0.9718 0.52159 0.02445 0.0
C2335 C 0.93879 0.52928 0.02581 0.0
H2336 H 0.32765 0.09866 0.93158 0.0
H2337 H 0.36766 0.06659 0.93559 0.0
H2338 H 0.35504 0.09952 0.89275 0.0
H2339 H 0.39472 0.06735 0.89708 0.0
H2340 H 0.38551 0.06817 0.82116 0.0
H2341 H 0.35893 0.06885 0.85979 0.0
H2342 H 0.42529 0.09823 0.86904 0.0
H2343 H 0.45199 0.09746 0.8301 0.0
C2344 C 0.34277 0.09185 0.92419 0.0
C2345 C 0.34536 0.08255 0.93642 0.0
C2346 C 0.35844 0.09233 0.90203 0.0
C2347 C 0.37652 0.08346 0.89168 0.0
C2348 C 0.38026 0.07427 0.90434 0.0
C2349 C 0.36508 0.07384 0.92643 0.0
C2350 C 0.39392 0.07482 0.83142 0.0
C2351 C 0.4206 0.08278 0.82274 0.0
C2352 C 0.37906 0.07519 0.85358 0.0
C2353 C 0.39034 0.08355 0.86763 0.0
C2354 C 0.41588 0.0917 0.85866 0.0
C2355 C 0.43115 0.09128 0.83644 0.0
H2356 H 0.89827 0.21272 0.93476 0.0
H2357 H 0.93463 0.1804 0.93164 0.0
H2358 H 0.87117 0.21195 0.89628 0.0
H2359 H 0.90717 0.17953 0.89285 0.0
H2360 H 0.81051 0.18197 0.83013 0.0
H2361 H 0.83691 0.1812 0.86912 0.0
H2362 H 0.90725 0.21001 0.85906 0.0
H2363 H 0.88097 0.21069 0.82038 0.0
C2364 C 0.90001 0.20542 0.92581 0.0
C2365 C 0.91874 0.19663 0.93603 0.0
C2366 C 0.88482 0.20498 0.90373 0.0
C2367 C 0.88754 0.19571 0.89134 0.0
C2368 C 0.90458 0.18678 0.90193 0.0
C2369 C 0.92028 0.18726 0.92407 0.0
C2370 C 0.83216 0.18802 0.8363 0.0
C2371 C 0.84396 0.19636 0.82236 0.0
C2372 C 0.84726 0.18759 0.85855 0.0
C2373 C 0.87384 0.1956 0.86729 0.0
C2374 C 0.88632 0.2038 0.85301 0.0
C2375 C 0.87164 0.20416 0.83083 0.0
H2376 H 0.35793 0.20268 0.44071 0.0
H2377 H 0.47821 0.18639 0.42481 0.0
H2378 H 0.33246 0.20045 0.4021 0.0
H2379 H 0.45366 0.18466 0.38572 0.0
H2380 H 0.40785 0.20265 0.31684 0.0
H2381 H 0.4345 0.20074 0.35536 0.0
H2382 H 0.31624 0.18393 0.37266 0.0
H2383 H 0.29056 0.18537 0.33372 0.0
C2384 C 0.37845 0.1984 0.42909 0.0
C2385 C 0.41969 0.19451 0.43592 0.0
C2386 C 0.36399 0.19718 0.40696 0.0
C2387 C 0.391 0.19234 0.39095 0.0
C2388 C 0.43211 0.18838 0.39775 0.0
C2389 C 0.44606 0.18933 0.42008 0.0
C2390 C 0.38834 0.1982 0.32865 0.0
C2391 C 0.34746 0.19399 0.32216 0.0
C2392 C 0.40346 0.19717 0.35072 0.0
C2393 C 0.37746 0.19217 0.36698 0.0
C2394 C 0.33698 0.18778 0.36044 0.0
C2395 C 0.32241 0.18857 0.33819 0.0
H2396 H 0.90849 0.07677 0.44172 0.0
H2397 H 0.78874 0.09314 0.42512 0.0
H2398 H 0.93428 0.07875 0.40307 0.0
H2399 H 0.81363 0.09464 0.38604 0.0
H2400 H 0.85706 0.07672 0.31751 0.0
H2401 H 0.83126 0.07874 0.35613 0.0
H2402 H 0.952 0.09462 0.37301 0.0
H2403 H 0.9769 0.09307 0.33395 0.0
C2404 C 0.88818 0.08102 0.42993 0.0
C2405 C 0.84694 0.08499 0.43657 0.0
C2406 C 0.90282 0.08209 0.40778 0.0
C2407 C 0.87602 0.08687 0.39156 0.0
C2408 C 0.83501 0.09095 0.39821 0.0
C2409 C 0.82088 0.09013 0.42054 0.0
C2410 C 0.87739 0.08097 0.32926 0.0
C2411 C 0.91866 0.08492 0.32258 0.0
C2412 C 0.86274 0.08207 0.3514 0.0
C2413 C 0.88957 0.08686 0.36756 0.0
C2414 C 0.9306 0.09092 0.36088 0.0
C2415 C 0.94474 0.09008 0.33856 0.0
H2416 H 0.70382 0.93161 0.07977 0.0
H2417 H 0.62656 0.95915 0.06772 0.0
H2418 H 0.67657 0.93101 0.11862 0.0
H2419 H 0.59954 0.95865 0.1063 0.0
H2420 H 0.61151 0.96279 0.18194 0.0
H2421 H 0.63742 0.96162 0.14328 0.0
H2422 H 0.60513 0.92895 0.14233 0.0
H2423 H 0.57859 0.93022 0.18126 0.0
C2424 C 0.68035 0.9374 0.08538 0.0
C2425 C 0.66689 0.94537 0.07085 0.0
C2426 C 0.66482 0.93708 0.10754 0.0
C2427 C 0.63622 0.94484 0.11559 0.0
C2428 C 0.62195 0.95263 0.10072 0.0
C2429 C 0.63704 0.95288 0.0786 0.0
C2430 C 0.61013 0.95536 0.17345 0.0
C2431 C 0.59263 0.94662 0.18438 0.0
C2432 C 0.62471 0.95469 0.15131 0.0
C2433 C 0.62274 0.94523 0.13961 0.0
C2434 C 0.60699 0.93635 0.15089 0.0
C2435 C 0.59181 0.93706 0.17309 0.0
H2436 H 0.04749 0.84515 0.0834 0.0
H2437 H 0.13377 0.81923 0.0706 0.0
H2438 H 0.07121 0.84532 0.12281 0.0
H2439 H 0.15752 0.81933 0.10971 0.0
H2440 H 0.14476 0.81355 0.18455 0.0
H2441 H 0.1201 0.81492 0.14567 0.0
H2442 H 0.13822 0.84818 0.14804 0.0
H2443 H 0.16321 0.84672 0.18712 0.0
C2444 C 0.07223 0.83965 0.08898 0.0
C2445 C 0.08927 0.83226 0.07406 0.0
C2446 C 0.08571 0.83972 0.11148 0.0
C2447 C 0.1159 0.83226 0.11945 0.0
C2448 C 0.13376 0.82508 0.10421 0.0
C2449 C 0.12062 0.82508 0.08178 0.0
C2450 C 0.14297 0.82115 0.17678 0.0
C2451 C 0.15595 0.83003 0.18869 0.0
C2452 C 0.12923 0.82194 0.1545 0.0
C2453 C 0.12779 0.83165 0.14365 0.0
C2454 C 0.13895 0.8406 0.15593 0.0
C2455 C 0.15315 0.83978 0.17824 0.0
H2456 H 0.71203 0.84129 0.67804 0.0
H2457 H 0.5926 0.82448 0.69316 0.0
H2458 H 0.68811 0.8432 0.63898 0.0
H2459 H 0.56778 0.82678 0.65431 0.0
H2460 H 0.53024 0.84156 0.58415 0.0
H2461 H 0.55183 0.84303 0.62376 0.0
H2462 H 0.67313 0.82684 0.60946 0.0
H2463 H 0.65061 0.82488 0.57036 0.0
C2464 C 0.68015 0.83826 0.6731 0.0
C2465 C 0.65413 0.83274 0.68856 0.0
C2466 C 0.66657 0.83932 0.65081 0.0
C2467 C 0.62613 0.83515 0.64369 0.0
C2468 C 0.59892 0.83015 0.65945 0.0
C2469 C 0.61301 0.82886 0.68163 0.0
C2470 C 0.56183 0.83849 0.58947 0.0
C2471 C 0.58913 0.83328 0.57411 0.0
C2472 C 0.57403 0.83929 0.61207 0.0
C2473 C 0.61425 0.83511 0.61957 0.0
C2474 C 0.64224 0.83025 0.60404 0.0
C2475 C 0.62952 0.8292 0.58164 0.0
H2476 H 0.09664 0.95434 0.56698 0.0
H2477 H 0.21713 0.93785 0.58148 0.0
H2478 H 0.0723 0.95181 0.60583 0.0
H2479 H 0.19372 0.93575 0.62062 0.0
H2480 H 0.15285 0.95332 0.69016 0.0
H2481 H 0.17695 0.95167 0.65119 0.0
H2482 H 0.0572 0.93516 0.63535 0.0
H2483 H 0.03406 0.93633 0.67476 0.0
C2484 C 0.11749 0.95001 0.57839 0.0
C2485 C 0.15866 0.94625 0.57123 0.0
C2486 C 0.10366 0.94859 0.60059 0.0
C2487 C 0.13118 0.94359 0.61619 0.0
C2488 C 0.1719 0.93962 0.60892 0.0
C2489 C 0.18522 0.94081 0.58658 0.0
C2490 C 0.1325 0.94898 0.67857 0.0
C2491 C 0.09196 0.94477 0.68559 0.0
C2492 C 0.14612 0.94811 0.65624 0.0
C2493 C 0.11891 0.9433 0.64029 0.0
C2494 C 0.07879 0.93889 0.64734 0.0
C2495 C 0.06572 0.9395 0.66984 0.0
H2496 H 0.28814 0.59331 0.42442 0.0
H2497 H 0.40724 0.57663 0.44075 0.0
H2498 H 0.31334 0.59502 0.38543 0.0
H2499 H 0.43337 0.57882 0.4022 0.0
H2500 H 0.47606 0.59344 0.3332 0.0
H2501 H 0.45089 0.59507 0.37221 0.0
H2502 H 0.33106 0.5788 0.35548 0.0
H2503 H 0.35716 0.57668 0.31693 0.0
C2504 C 0.32025 0.5903 0.41982 0.0
C2505 C 0.34597 0.58498 0.43574 0.0
C2506 C 0.33455 0.59123 0.39754 0.0
C2507 C 0.37542 0.5871 0.39083 0.0
C2508 C 0.40201 0.5822 0.40697 0.0
C2509 C 0.38718 0.58101 0.42907 0.0
C2510 C 0.44399 0.5904 0.33782 0.0
C2511 C 0.41832 0.58507 0.32191 0.0
C2512 C 0.42972 0.59129 0.36011 0.0
C2513 C 0.38891 0.58711 0.36683 0.0
C2514 C 0.36237 0.58221 0.35071 0.0
C2515 C 0.37718 0.58106 0.3286 0.0
H2516 H 0.86684 0.71218 0.32295 0.0
H2517 H 0.82808 0.67999 0.32522 0.0
H2518 H 0.89338 0.71106 0.36152 0.0
H2519 H 0.85514 0.67876 0.36406 0.0
H2520 H 0.95315 0.68085 0.42688 0.0
H2521 H 0.9265 0.68024 0.38792 0.0
H2522 H 0.85524 0.70885 0.39862 0.0
H2523 H 0.88158 0.70935 0.4373 0.0
C2524 C 0.86451 0.70482 0.33172 0.0
C2525 C 0.84522 0.69619 0.32125 0.0
C2526 C 0.87939 0.70419 0.35384 0.0
C2527 C 0.87582 0.69486 0.366 0.0
C2528 C 0.85833 0.68606 0.35515 0.0
C2529 C 0.84289 0.68674 0.33298 0.0
C2530 C 0.93109 0.68686 0.42089 0.0
C2531 C 0.91909 0.69511 0.43501 0.0
C2532 C 0.91591 0.68654 0.39865 0.0
C2533 C 0.88912 0.69455 0.39009 0.0
C2534 C 0.87629 0.70263 0.40456 0.0
C2535 C 0.89099 0.70288 0.42674 0.0
H2536 H 0.3783 0.70914 0.93731 0.0
H2537 H 0.45074 0.68071 0.92754 0.0
H2538 H 0.35221 0.70843 0.89859 0.0
H2539 H 0.42431 0.67989 0.88856 0.0
H2540 H 0.32685 0.67936 0.82542 0.0
H2541 H 0.35298 0.67827 0.86446 0.0
H2542 H 0.39143 0.71054 0.86159 0.0
H2543 H 0.36593 0.71152 0.82283 0.0
C2544 C 0.38787 0.70263 0.92691 0.0
C2545 C 0.41617 0.69494 0.93536 0.0
C2546 C 0.37333 0.70226 0.9047 0.0
C2547 C 0.38652 0.69415 0.8904 0.0
C2548 C 0.41343 0.6862 0.89916 0.0
C2549 C 0.42847 0.68665 0.92142 0.0
C2550 C 0.34149 0.68614 0.83316 0.0
C2551 C 0.34417 0.69554 0.82127 0.0
C2552 C 0.35638 0.68553 0.85544 0.0
C2553 C 0.37366 0.69437 0.86625 0.0
C2554 C 0.37757 0.70365 0.85394 0.0
C2555 C 0.36328 0.70421 0.83172 0.0
H2556 H 0.95363 0.59743 0.82952 0.0
H2557 H 0.87753 0.56961 0.81877 0.0
H2558 H 0.92702 0.59819 0.86848 0.0
H2559 H 0.85128 0.57026 0.85748 0.0
H2560 H 0.86429 0.56653 0.93316 0.0
H2561 H 0.89019 0.56761 0.89447 0.0
H2562 H 0.85563 0.60014 0.89261 0.0
H2563 H 0.82903 0.59895 0.93156 0.0
C2564 C 0.93049 0.59162 0.83541 0.0
C2565 C 0.91721 0.58352 0.82118 0.0
C2566 C 0.91537 0.59203 0.85766 0.0
C2567 C 0.88737 0.58422 0.86616 0.0
C2568 C 0.87322 0.57632 0.85158 0.0
C2569 C 0.88785 0.57599 0.82937 0.0
C2570 C 0.86261 0.57393 0.92452 0.0
C2571 C 0.84441 0.58264 0.93523 0.0
C2572 C 0.87712 0.57454 0.90233 0.0
C2573 C 0.87439 0.58393 0.89031 0.0
C2574 C 0.85811 0.5928 0.90139 0.0
C2575 C 0.84297 0.59213 0.92363 0.0
H2576 H 0.70421 0.432 0.58025 0.0
H2577 H 0.62934 0.46002 0.56966 0.0
H2578 H 0.67751 0.43118 0.61918 0.0
H2579 H 0.60283 0.45931 0.60832 0.0
H2580 H 0.61336 0.46261 0.68402 0.0
H2581 H 0.6398 0.46176 0.64541 0.0
H2582 H 0.60691 0.42914 0.64302 0.0
H2583 H 0.57999 0.43009 0.68193 0.0
C2584 C 0.68143 0.43786 0.5862 0.0
C2585 C 0.66847 0.44602 0.57204 0.0
C2586 C 0.66619 0.43741 0.60842 0.0
C2587 C 0.63837 0.44524 0.61693 0.0
C2588 C 0.62466 0.45324 0.60242 0.0
C2589 C 0.63946 0.45361 0.58025 0.0
C2590 C 0.61211 0.45525 0.67526 0.0
C2591 C 0.59439 0.44643 0.6858 0.0
C2592 C 0.62695 0.45477 0.65312 0.0
C2593 C 0.6249 0.44542 0.641 0.0
C2594 C 0.60891 0.43646 0.6519 0.0
C2595 C 0.59353 0.43698 0.6741 0.0
H2596 H 0.047 0.3406 0.58172 0.0
H2597 H 0.16468 0.32304 0.56714 0.0
H2598 H 0.07141 0.34267 0.6207 0.0
H2599 H 0.19013 0.32559 0.60579 0.0
H2600 H 0.23109 0.34226 0.67378 0.0
H2601 H 0.20684 0.34305 0.63449 0.0
H2602 H 0.08853 0.32628 0.65185 0.0
H2603 H 0.11378 0.32499 0.69072 0.0
C2604 C 0.0785 0.33738 0.58676 0.0
C2605 C 0.10398 0.33167 0.57139 0.0
C2606 C 0.0924 0.33856 0.60901 0.0
C2607 C 0.1327 0.33432 0.61619 0.0
C2608 C 0.15912 0.32901 0.60061 0.0
C2609 C 0.14465 0.32759 0.57852 0.0
C2610 C 0.19954 0.33892 0.66922 0.0
C2611 C 0.17405 0.33369 0.68539 0.0
C2612 C 0.18583 0.33932 0.64678 0.0
C2613 C 0.14577 0.33475 0.64019 0.0
C2614 C 0.11932 0.32995 0.65653 0.0
C2615 C 0.1336 0.3293 0.6788 0.0
H2616 H 0.54112 0.34412 0.08212 0.0
H2617 H 0.65945 0.32713 0.06589 0.0
H2618 H 0.5663 0.34573 0.12111 0.0
H2619 H 0.68556 0.32921 0.10444 0.0
H2620 H 0.72748 0.34344 0.17404 0.0
H2621 H 0.7035 0.34529 0.13487 0.0
H2622 H 0.58255 0.32921 0.15055 0.0
H2623 H 0.60745 0.32688 0.18923 0.0
C2624 C 0.57312 0.34104 0.08673 0.0
C2625 C 0.59858 0.33563 0.07089 0.0
C2626 C 0.58739 0.34192 0.10901 0.0
C2627 C 0.62797 0.33764 0.11573 0.0
C2628 C 0.65444 0.33269 0.09964 0.0
C2629 C 0.63963 0.33157 0.07755 0.0
C2630 C 0.69548 0.34047 0.16914 0.0
C2631 C 0.66903 0.33517 0.18479 0.0
C2632 C 0.68186 0.34149 0.14677 0.0
C2633 C 0.64102 0.33747 0.13976 0.0
C2634 C 0.61388 0.33252 0.15559 0.0
C2635 C 0.62801 0.33124 0.17775 0.0
H2636 H 0.15684 0.45284 0.1909 0.0
H2637 H 0.03897 0.43558 0.17511 0.0
H2638 H 0.18289 0.45065 0.15235 0.0
H2639 H 0.06405 0.43388 0.13609 0.0
H2640 H 0.10764 0.45278 0.06758 0.0
H2641 H 0.08157 0.45064 0.10615 0.0
H2642 H 0.20032 0.43386 0.1226 0.0
H2643 H 0.22541 0.4355 0.08356 0.0
C2644 C 0.13706 0.44834 0.17933 0.0
C2645 C 0.09624 0.44419 0.18614 0.0
C2646 C 0.15184 0.44715 0.15725 0.0
C2647 C 0.12554 0.44207 0.14129 0.0
C2648 C 0.08503 0.43779 0.14811 0.0
C2649 C 0.0708 0.43872 0.17039 0.0
C2650 C 0.12739 0.44829 0.0792 0.0
C2651 C 0.16818 0.44412 0.07244 0.0
C2652 C 0.11261 0.44713 0.1013 0.0
C2653 C 0.13888 0.44206 0.11731 0.0
C2654 C 0.17936 0.43775 0.11054 0.0
C2655 C 0.1936 0.43866 0.08825 0.0
H2656 H 0.1404 0.17 0.02161 0.0
H2657 H 0.01991 0.15541 0.99948 0.0
H2658 H 0.17727 0.15315 0.02149 0.0
H2659 H 0.05678 0.1386 0.99892 0.0
H2660 H 0.12304 0.10838 0.02204 0.0
H2661 H 0.08581 0.12521 0.02164 0.0
H2662 H 0.20602 0.13981 0.99872 0.0
H2663 H 0.24318 0.12306 0.99957 0.0
C2664 C 0.12188 0.16322 0.01646 0.0
C2665 C 0.07706 0.16411 0.01066 0.0
C2666 C 0.14307 0.15351 0.01634 0.0
C2667 C 0.12018 0.1444 0.01024 0.0
C2668 C 0.07546 0.14534 0.00417 0.0
C2669 C 0.05425 0.15503 0.00443 0.0
C2670 C 0.1414 0.11518 0.01675 0.0
C2671 C 0.18626 0.11433 0.01098 0.0
C2672 C 0.12002 0.12486 0.01648 0.0
C2673 C 0.14276 0.13399 0.01025 0.0
C2674 C 0.18746 0.13307 0.00411 0.0
C2675 C 0.20884 0.12341 0.00453 0.0
H2676 H 0.15376 0.16696 0.28002 0.0
H2677 H 0.21055 0.15909 0.21587 0.0
H2678 H 0.11712 0.15007 0.28119 0.0
H2679 H 0.17494 0.14216 0.21744 0.0
H2680 H 0.14083 0.1087 0.23848 0.0
H2681 H 0.17822 0.12558 0.23883 0.0
H2682 H 0.0583 0.14019 0.26178 0.0
H2683 H 0.02123 0.12335 0.26167 0.0
C2684 C 0.15824 0.1617 0.26606 0.0
C2685 C 0.18554 0.16447 0.24791 0.0
C2686 C 0.13734 0.15197 0.2668 0.0
C2687 C 0.14336 0.14468 0.2495 0.0
C2688 C 0.17025 0.14747 0.23128 0.0
C2689 C 0.19077 0.15722 0.23042 0.0
C2690 C 0.12262 0.1155 0.24383 0.0
C2691 C 0.07794 0.11466 0.24994 0.0
C2692 C 0.14391 0.12519 0.24383 0.0
C2693 C 0.12124 0.13428 0.25023 0.0
C2694 C 0.0769 0.13338 0.25688 0.0
C2695 C 0.05552 0.12372 0.25664 0.0
H2696 H 0.87187 0.85814 0.98675 0.0
H2697 H 0.99121 0.87272 0.01044 0.0
H2698 H 0.83492 0.87499 0.98657 0.0
H2699 H 0.95427 0.88951 0.01073 0.0
H2700 H 0.88989 0.91977 0.98717 0.0
H2701 H 0.92663 0.9029 0.98772 0.0
H2702 H 0.80499 0.88838 0.00885 0.0
H2703 H 0.76828 0.90519 0.00784 0.0
C2704 C 0.8901 0.86491 0.99219 0.0
C2705 C 0.93466 0.86403 0.99849 0.0
C2706 C 0.86887 0.87462 0.99213 0.0
C2707 C 0.89145 0.88373 0.99855 0.0
C2708 C 0.93585 0.88278 0.00518 0.0
C2709 C 0.95711 0.8731 0.0051 0.0
C2710 C 0.87108 0.91299 0.99209 0.0
C2711 C 0.826 0.91389 0.99736 0.0
C2712 C 0.89219 0.90327 0.99245 0.0
C2713 C 0.86896 0.89416 0.99828 0.0
C2714 C 0.82397 0.89511 1.00381 0.0
C2715 C 0.80284 0.90481 1.0033 0.0
H2716 H 0.77184 0.874 0.74291 0.0
H2717 H 0.88959 0.85934 0.76846 0.0
H2718 H 0.80903 0.8908 0.74313 0.0
H2719 H 0.92723 0.87619 0.76835 0.0
H2720 H 0.95839 0.90963 0.79173 0.0
H2721 H 0.92323 0.89266 0.78942 0.0
H2722 H 0.86812 0.90088 0.72519 0.0
H2723 H 0.90407 0.91783 0.72721 0.0
C2724 C 0.80583 0.87436 0.74846 0.0
C2725 C 0.82762 0.86531 0.75581 0.0
C2726 C 0.82729 0.884 0.74841 0.0
C2727 C 0.87112 0.88491 0.75587 0.0
C2728 C 0.89329 0.87582 0.76275 0.0
C2729 C 0.8719 0.86613 0.76259 0.0
C2730 C 0.93923 0.90782 0.77694 0.0
C2731 C 0.93449 0.91518 0.75959 0.0
C2732 C 0.91902 0.89805 0.77563 0.0
C2733 C 0.89305 0.89533 0.75704 0.0
C2734 C 0.8876 0.90272 0.73985 0.0
C2735 C 0.9081 0.91249 0.74107 0.0
H2736 H 0.1048 0.66543 0.47777 0.0
H2737 H 0.05846 0.65963 0.54499 0.0
H2738 H 0.14114 0.64845 0.47755 0.0
H2739 H 0.09352 0.64262 0.54455 0.0
H2740 H 0.20104 0.61775 0.54547 0.0
H2741 H 0.16565 0.63472 0.54517 0.0
H2742 H 0.12418 0.62974 0.47686 0.0
H2743 H 0.16087 0.61279 0.47697 0.0
C2744 C 0.10255 0.66057 0.49254 0.0
C2745 C 0.07859 0.66393 0.51138 0.0
C2746 C 0.12293 0.65077 0.49232 0.0
C2747 C 0.12021 0.6441 0.511 0.0
C2748 C 0.09671 0.64754 0.52991 0.0
C2749 C 0.0762 0.65729 0.53009 0.0
C2750 C 0.18455 0.62027 0.53032 0.0
C2751 C 0.18404 0.61388 0.51121 0.0
C2752 C 0.16385 0.62999 0.53021 0.0
C2753 C 0.14202 0.63366 0.51098 0.0
C2754 C 0.14109 0.62724 0.4919 0.0
C2755 C 0.16166 0.61746 0.49204 0.0
H2756 H 0.1583 0.66574 0.77801 0.0
H2757 H 0.20425 0.6599 0.71079 0.0
H2758 H 0.12149 0.6488 0.77835 0.0
H2759 H 0.1685 0.64295 0.7113 0.0
H2760 H 0.06057 0.61808 0.71085 0.0
H2761 H 0.09575 0.6351 0.71099 0.0
H2762 H 0.13882 0.63004 0.77902 0.0
H2763 H 0.10256 0.61304 0.77906 0.0
C2764 C 0.16033 0.66088 0.76326 0.0
C2765 C 0.18436 0.66421 0.74439 0.0
C2766 C 0.13966 0.65111 0.76354 0.0
C2767 C 0.14207 0.64445 0.74488 0.0
C2768 C 0.16556 0.64787 0.72592 0.0
C2769 C 0.18643 0.65758 0.7257 0.0
C2770 C 0.07735 0.6206 0.72591 0.0
C2771 C 0.07854 0.61416 0.74497 0.0
C2772 C 0.09791 0.63035 0.72592 0.0
C2773 C 0.12018 0.634 0.74502 0.0
C2774 C 0.1216 0.62755 0.76408 0.0
C2775 C 0.10125 0.61774 0.76402 0.0
H2776 H 0.80301 0.40912 0.46561 0.0
H2777 H 0.85738 0.41698 0.53023 0.0
H2778 H 0.83888 0.39221 0.4674 0.0
H2779 H 0.89357 0.40007 0.53193 0.0
H2780 H 0.99006 0.37349 0.51517 0.0
H2781 H 0.95252 0.39022 0.51475 0.0
H2782 H 0.83648 0.37563 0.48703 0.0
H2783 H 0.87469 0.35889 0.48681 0.0
C2784 C 0.82232 0.40723 0.48031 0.0
C2785 C 0.82706 0.41448 0.49781 0.0
C2786 C 0.8429 0.39749 0.48134 0.0
C2787 C 0.86903 0.3947 0.49986 0.0
C2788 C 0.87414 0.40197 0.51727 0.0
C2789 C 0.85344 0.41171 0.51627 0.0
C2790 C 0.95656 0.37384 0.50891 0.0
C2791 C 0.9356 0.36482 0.50085 0.0
C2792 C 0.93482 0.38344 0.50888 0.0
C2793 C 0.89143 0.38433 0.50077 0.0
C2794 C 0.87008 0.37528 0.49313 0.0
C2795 C 0.89181 0.36564 0.49324 0.0
H2796 H 0.80917 0.36885 0.29448 0.0
H2797 H 0.85382 0.36324 0.22695 0.0
H2798 H 0.84535 0.38574 0.29417 0.0
H2799 H 0.89115 0.38013 0.22682 0.0
H2800 H 0.91143 0.41587 0.22686 0.0
H2801 H 0.87467 0.39892 0.22659 0.0
H2802 H 0.918 0.39348 0.29445 0.0
H2803 H 0.95358 0.41044 0.2949 0.0
C2804 C 0.82681 0.37121 0.27954 0.0
C2805 C 0.82834 0.36466 0.2607 0.0
C2806 C 0.84794 0.38089 0.27944 0.0
C2807 C 0.87121 0.38436 0.26046 0.0
C2808 C 0.87315 0.37778 0.24165 0.0
C2809 C 0.85219 0.36803 0.24181 0.0
C2810 C 0.91268 0.4111 0.2418 0.0
C2811 C 0.9356 0.41455 0.26089 0.0
C2812 C 0.89205 0.40132 0.24156 0.0
C2813 C 0.89341 0.39477 0.26047 0.0
C2814 C 0.91587 0.39831 0.27962 0.0
C2815 C 0.93667 0.40803 0.27981 0.0
H2816 H 0.71127 0.12028 0.54293 0.0
H2817 H 0.65411 0.11197 0.47916 0.0
H2818 H 0.67515 0.13714 0.54107 0.0
H2819 H 0.61706 0.12882 0.47763 0.0
H2820 H 0.52135 0.15567 0.4964 0.0
H2821 H 0.55848 0.13885 0.49655 0.0
H2822 H 0.67816 0.15356 0.51954 0.0
H2823 H 0.64068 0.17041 0.51972 0.0
C2824 C 0.69127 0.12204 0.5284 0.0
C2825 C 0.68613 0.1147 0.5111 0.0
C2826 C 0.67048 0.13175 0.52736 0.0
C2827 C 0.64345 0.13441 0.50911 0.0
C2828 C 0.63742 0.12702 0.49202 0.0
C2829 C 0.65855 0.11731 0.49296 0.0
C2830 C 0.5556 0.15533 0.50151 0.0
C2831 C 0.57791 0.16441 0.5082 0.0
C2832 C 0.57702 0.14568 0.5014 0.0
C2833 C 0.6213 0.1448 0.50816 0.0
C2834 C 0.64388 0.15391 0.51448 0.0
C2835 C 0.62255 0.1636 0.51438 0.0
H2836 H 0.6408 0.10889 0.73713 0.0
H2837 H 0.521 0.12354 0.76007 0.0
H2838 H 0.67805 0.12571 0.7374 0.0
H2839 H 0.55819 0.1403 0.76068 0.0
H2840 H 0.62434 0.17041 0.73684 0.0
H2841 H 0.58708 0.1536 0.73728 0.0
H2842 H 0.7069 0.13901 0.76068 0.0
H2843 H 0.74412 0.15577 0.7599 0.0
C2844 C 0.62253 0.11567 0.74249 0.0
C2845 C 0.57777 0.11482 0.74845 0.0
C2846 C 0.64391 0.12535 0.74268 0.0
C2847 C 0.62124 0.13446 0.74898 0.0
C2848 C 0.57664 0.13355 0.75526 0.0
C2849 C 0.55526 0.1239 0.75497 0.0
C2850 C 0.64261 0.16363 0.74226 0.0
C2851 C 0.68736 0.16448 0.7482 0.0
C2852 C 0.62122 0.15395 0.74254 0.0
C2853 C 0.64387 0.14485 0.74893 0.0
C2854 C 0.68847 0.14576 0.7552 0.0
C2855 C 0.70986 0.15541 0.75481 0.0
H2856 H 0.39015 0.91922 0.4896 0.0
H2857 H 0.2733 0.90471 0.51666 0.0
H2858 H 0.42778 0.90239 0.48988 0.0
H2859 H 0.3103 0.88791 0.51639 0.0
H2860 H 0.40439 0.86074 0.53159 0.0
H2861 H 0.36845 0.8777 0.5336 0.0
H2862 H 0.42458 0.88598 0.46958 0.0
H2863 H 0.46008 0.86905 0.46745 0.0
C2864 C 0.37263 0.91247 0.49581 0.0
C2865 C 0.32858 0.91334 0.50297 0.0
C2866 C 0.39401 0.90279 0.49573 0.0
C2867 C 0.37202 0.89373 0.50299 0.0
C2868 C 0.32845 0.89468 0.51081 0.0
C2869 C 0.30706 0.90433 0.51076 0.0
C2870 C 0.40865 0.86612 0.5178 0.0
C2871 C 0.43547 0.86348 0.49942 0.0
C2872 C 0.38814 0.87589 0.51899 0.0
C2873 C 0.39389 0.8833 0.50185 0.0
C2874 C 0.42016 0.8806 0.48334 0.0
C2875 C 0.4405 0.87084 0.48212 0.0
H2876 H 0.40302 0.91724 0.22912 0.0
H2877 H 0.46132 0.90923 0.2928 0.0
H2878 H 0.36607 0.9004 0.22813 0.0
H2879 H 0.42455 0.89242 0.29178 0.0
H2880 H 0.3869 0.85917 0.27347 0.0
H2881 H 0.42509 0.87588 0.27275 0.0
H2882 H 0.30836 0.89043 0.24563 0.0
H2883 H 0.27088 0.87371 0.24557 0.0
C2884 C 0.40764 0.91195 0.24304 0.0
C2885 C 0.43543 0.91465 0.261 0.0
C2886 C 0.38647 0.90225 0.24245 0.0
C2887 C 0.39243 0.89496 0.25981 0.0
C2888 C 0.41983 0.89771 0.27787 0.0
C2889 C 0.44092 0.9074 0.27847 0.0
C2890 C 0.36957 0.8659 0.26706 0.0
C2891 C 0.32562 0.86504 0.2597 0.0
C2892 C 0.39132 0.87553 0.2669 0.0
C2893 C 0.36983 0.88459 0.25927 0.0
C2894 C 0.32621 0.88367 0.25147 0.0
C2895 C 0.30447 0.87405 0.25169 0.0
H2896 H 0.64006 0.66994 0.01982 0.0
H2897 H 0.5192 0.65527 0.99852 0.0
H2898 H 0.67697 0.65309 0.0198 0.0
H2899 H 0.55609 0.63847 0.99793 0.0
H2900 H 0.62195 0.60829 0.02083 0.0
H2901 H 0.5851 0.62515 0.0205 0.0
H2902 H 0.70557 0.63963 0.99752 0.0
H2903 H 0.74242 0.62283 0.99842 0.0
C2904 C 0.62148 0.66314 0.01486 0.0
C2905 C 0.57655 0.66399 0.00929 0.0
C2906 C 0.64268 0.65343 0.01479 0.0
C2907 C 0.61969 0.64429 0.00893 0.0
C2908 C 0.57487 0.64522 1.00302 0.0
C2909 C 0.55364 0.6549 1.00328 0.0
C2910 C 0.64045 0.61507 0.01557 0.0
C2911 C 0.68526 0.61417 0.00977 0.0
C2912 C 0.61929 0.62478 0.01532 0.0
C2913 C 0.64218 0.63388 0.00904 0.0
C2914 C 0.68688 0.63291 1.00293 0.0
C2915 C 0.70808 0.62323 1.00336 0.0
H2916 H 0.62319 0.67004 0.2367 0.0
H2917 H 0.74383 0.65574 0.25951 0.0
H2918 H 0.58669 0.65315 0.23727 0.0
H2919 H 0.70729 0.63889 0.26066 0.0
H2920 H 0.64207 0.60844 0.2386 0.0
H2921 H 0.67899 0.62531 0.23861 0.0
H2922 H 0.55784 0.63993 0.26011 0.0
H2923 H 0.52098 0.62313 0.25948 0.0
C2924 C 0.64179 0.66331 0.24212 0.0
C2925 C 0.68654 0.66428 0.24796 0.0
C2926 C 0.62083 0.65358 0.24251 0.0
C2927 C 0.64386 0.64454 0.24898 0.0
C2928 C 0.68851 0.64557 0.25512 0.0
C2929 C 0.70952 0.65527 0.25454 0.0
C2930 C 0.62347 0.61525 0.24348 0.0
C2931 C 0.57846 0.61441 0.24889 0.0
C2932 C 0.64465 0.62496 0.24355 0.0
C2933 C 0.62154 0.6341 0.24925 0.0
C2934 C 0.57669 0.63317 0.2551 0.0
C2935 C 0.55549 0.6235 0.25484 0.0
H2936 H 0.35486 0.41573 0.03106 0.0
H2937 H 0.3099 0.41029 0.96352 0.0
H2938 H 0.39171 0.3988 0.03102 0.0
H2939 H 0.34541 0.39334 0.96371 0.0
H2940 H 0.45254 0.36843 0.96241 0.0
H2941 H 0.41712 0.38539 0.96305 0.0
H2942 H 0.37605 0.38008 0.03133 0.0
H2943 H 0.41282 0.36315 0.03089 0.0
C2944 C 0.353 0.41096 0.01616 0.0
C2945 C 0.32922 0.41442 0.99731 0.0
C2946 C 0.37369 0.40118 0.01624 0.0
C2947 C 0.37153 0.39462 0.99739 0.0
C2948 C 0.34823 0.39816 0.97848 0.0
C2949 C 0.32742 0.40788 0.97845 0.0
C2950 C 0.43618 0.37087 0.97764 0.0
C2951 C 0.43581 0.36438 0.99663 0.0
C2952 C 0.41542 0.3806 0.97793 0.0
C2953 C 0.39362 0.38418 0.99725 0.0
C2954 C 0.3929 0.37766 0.01623 0.0
C2955 C 0.41353 0.36788 0.01589 0.0
H2956 H 0.37507 0.41963 0.77218 0.0
H2957 H 0.49551 0.40549 0.74858 0.0
H2958 H 0.33893 0.40263 0.77182 0.0
H2959 H 0.4597 0.38851 0.74861 0.0
H2960 H 0.36574 0.36141 0.73016 0.0
H2961 H 0.40215 0.37834 0.72938 0.0
H2962 H 0.34214 0.38611 0.79269 0.0
H2963 H 0.3066 0.36917 0.7938 0.0
C2964 C 0.39378 0.41292 0.76678 0.0
C2965 C 0.43831 0.41396 0.76051 0.0
C2966 C 0.37319 0.40314 0.76679 0.0
C2967 C 0.3964 0.39415 0.76029 0.0
C2968 C 0.44066 0.39524 0.75358 0.0
C2969 C 0.46134 0.40499 0.75378 0.0
C2970 C 0.36073 0.36664 0.7441 0.0
C2971 C 0.33277 0.36384 0.76196 0.0
C2972 C 0.38154 0.3764 0.74359 0.0
C2973 C 0.37481 0.38367 0.76087 0.0
C2974 C 0.3474 0.38082 0.77886 0.0
C2975 C 0.32692 0.37106 0.77946 0.0
loop_
_geom_bond_atom_site_label_1
_geom_bond_atom_site_label_2
_geom_bond_distance
_geom_bond_site_symmetry_2
_ccdc_geom_bond_type
C0 C1 1.443 . S
C0 N4 1.376 . S
C0 C38 1.389 . S
C1 C0 1.443 . S
C1 C2 1.340 . S
C1 H41 0.951 . S
C2 C1 1.340 . S
C2 C3 1.439 . S
C2 H42 0.950 . S
C3 C2 1.439 . S
C3 N4 1.374 . S
C3 C37 1.395 1_554 S
N4 C0 1.376 . S
N4 C3 1.374 . S
N4 Co5 2.008 . S
Co5 N4 2.008 . S
Co5 N6 1.995 1_554 S
Co5 N11 2.008 1_554 S
Co5 N16 1.995 . S
Co5 N21 2.282 . S
Co5 N27 2.282 . S
N6 Co5 1.995 1_556 S
N6 C7 1.376 . S
N6 C10 1.383 . S
C7 N6 1.376 . S
C7 C8 1.446 . S
C7 C37 1.391 . S
C8 C7 1.446 . S
C8 C9 1.339 . S
C8 H43 0.949 . S
C9 C8 1.339 . S
C9 C10 1.439 . S
C9 H44 0.950 . S
C10 N6 1.383 . S
C10 C9 1.439 . S
C10 C39 1.392 . S
N11 Co5 2.008 1_556 S
N11 C12 1.376 . S
N11 C15 1.374 1_556 S
C12 N11 1.376 . S
C12 C13 1.443 . S
C12 C39 1.389 . S
C13 C12 1.443 . S
C13 C14 1.340 . S
C13 H45 0.951 . S
C14 C13 1.340 . S
C14 C15 1.439 1_556 S
C14 H46 0.950 . S
C15 N11 1.374 1_554 S
C15 C14 1.439 1_554 S
C15 C40 1.395 . S
N16 Co5 1.995 . S
N16 C17 1.376 . S
N16 C20 1.383 . S
C17 N16 1.376 . S
C17 C18 1.446 . S
C17 C40 1.391 . S
C18 C17 1.446 . S
C18 C19 1.339 . S
C18 H47 0.949 . S
C19 C18 1.339 . S
C19 C20 1.439 . S
C19 H48 0.950 . S
C20 N16 1.383 . S
C20 C19 1.439 . S
C20 C38 1.392 . S
N21 Co5 2.282 . S
N21 C24 1.332 . S
N21 C26 1.332 1_554 S
C22 C23 1.386 . S
C22 C25 1.388 1_554 S
C23 C22 1.386 . S
C23 C24 1.382 . S
C23 H49 0.950 . S
C24 N21 1.332 . S
C24 C23 1.382 . S
C24 H35 0.952 . S
C25 C22 1.388 1_556 S
C25 C26 1.382 . S
C25 H50 0.950 . S
C26 N21 1.332 1_556 S
C26 C25 1.382 . S
C26 H36 0.948 . S
N27 Co5 2.282 . S
N27 C31 1.332 1_554 S
N27 C32 1.332 . S
C28 C29 1.388 . S
C28 C32 1.382 . S
C28 H51 0.950 . S
C29 C28 1.388 . S
C29 C30 1.386 1_554 S
C30 C29 1.386 1_556 S
C30 C31 1.382 . S
C30 H52 0.950 . S
C31 N27 1.332 1_556 S
C31 C30 1.382 . S
C31 H33 0.952 . S
C32 N27 1.332 . S
C32 C28 1.382 . S
C32 H34 0.948 . S
H33 C31 0.952 . S
H34 C32 0.948 . S
H35 C24 0.952 . S
H36 C26 0.948 . S
C37 C3 1.395 1_556 S
C37 C7 1.391 . S
C38 C0 1.389 . S
C38 C20 1.392 . S
C39 C10 1.392 . S
C39 C12 1.389 . S
C40 C15 1.395 . S
C40 C17 1.391 . S
H41 C1 0.951 . S
H42 C2 0.950 . S
H43 C8 0.949 . S
H44 C9 0.950 . S
H45 C13 0.951 . S
H46 C14 0.950 . S
H47 C18 0.949 . S
H48 C19 0.950 . S
H49 C23 0.950 . S
H50 C25 0.950 . S
H51 C28 0.950 . S
H52 C30 0.950 . S
C53 C54 1.443 . S
C53 N57 1.376 . S
C53 C91 1.389 . S
C54 C53 1.443 . S
C54 C55 1.340 . S
C54 H94 0.951 . S
C55 C54 1.340 . S
C55 C56 1.439 . S
C55 H95 0.950 . S
C56 C55 1.439 . S
C56 N57 1.374 . S
C56 C90 1.395 1_554 S
N57 C53 1.376 . S
N57 C56 1.374 . S
N57 Co58 2.008 1_455 S
Co58 N57 2.008 1_655 S
Co58 N59 1.995 1_554 S
Co58 N64 2.008 1_554 S
Co58 N69 1.995 . S
Co58 N74 2.282 . S
Co58 N80 2.282 1_655 S
N59 Co58 1.995 1_556 S
N59 C60 1.376 1_655 S
N59 C63 1.383 . S
C60 N59 1.376 1_455 S
C60 C61 1.446 . S
C60 C90 1.391 . S
C61 C60 1.446 . S
C61 C62 1.339 1_455 S
C61 H96 0.949 . S
C62 C61 1.339 1_655 S
C62 C63 1.439 . S
C62 H97 0.950 . S
C63 N59 1.383 . S
C63 C62 1.439 . S
C63 C92 1.392 . S
N64 Co58 2.008 1_556 S
N64 C65 1.376 . S
N64 C68 1.374 1_556 S
C65 N64 1.376 . S
C65 C66 1.443 . S
C65 C92 1.389 . S
C66 C65 1.443 . S
C66 C67 1.340 . S
C66 H98 0.951 . S
C67 C66 1.340 . S
C67 C68 1.439 1_556 S
C67 H99 0.950 . S
C68 N64 1.374 1_554 S
C68 C67 1.439 1_554 S
C68 C93 1.395 . S
N69 Co58 1.995 . S
N69 C70 1.376 . S
N69 C73 1.383 . S
C70 N69 1.376 . S
C70 C71 1.446 . S
C70 C93 1.391 . S
C71 C70 1.446 . S
C71 C72 1.339 . S
C71 H100 0.949 . S
C72 C71 1.339 . S
C72 C73 1.439 . S
C72 H101 0.950 . S
C73 N69 1.383 . S
C73 C72 1.439 . S
C73 C91 1.392 1_655 S
N74 Co58 2.282 . S
N74 C77 1.332 . S
N74 C79 1.332 1_554 S
C75 C76 1.386 . S
C75 C78 1.388 1_554 S
C76 C75 1.386 . S
C76 C77 1.382 . S
C76 H102 0.950 . S
C77 N74 1.332 . S
C77 C76 1.382 . S
C77 H88 0.952 . S
C78 C75 1.388 1_556 S
C78 C79 1.382 . S
C78 H103 0.950 . S
C79 N74 1.332 1_556 S
C79 C78 1.382 . S
C79 H89 0.948 . S
N80 Co58 2.282 1_455 S
N80 C84 1.332 1_554 S
N80 C85 1.332 . S
C81 C82 1.388 . S
C81 C85 1.382 . S
C81 H104 0.950 . S
C82 C81 1.388 . S
C82 C83 1.386 1_554 S
C83 C82 1.386 1_556 S
C83 C84 1.382 . S
C83 H105 0.950 . S
C84 N80 1.332 1_556 S
C84 C83 1.382 . S
C84 H86 0.952 . S
C85 N80 1.332 . S
C85 C81 1.382 . S
C85 H87 0.948 1_455 S
H86 C84 0.952 . S
H87 C85 0.948 1_655 S
H88 C77 0.952 . S
H89 C79 0.948 . S
C90 C56 1.395 1_556 S
C90 C60 1.391 . S
C91 C53 1.389 . S
C91 C73 1.392 1_455 S
C92 C63 1.392 . S
C92 C65 1.389 . S
C93 C68 1.395 . S
C93 C70 1.391 . S
H94 C54 0.951 . S
H95 C55 0.950 . S
H96 C61 0.949 . S
H97 C62 0.950 . S
H98 C66 0.951 . S
H99 C67 0.950 . S
H100 C71 0.949 . S
H101 C72 0.950 . S
H102 C76 0.950 . S
H103 C78 0.950 . S
H104 C81 0.950 . S
H105 C83 0.950 . S
C106 C107 1.443 . S
C106 N110 1.376 . S
C106 C144 1.389 . S
C107 C106 1.443 . S
C107 C108 1.340 . S
C107 H147 0.951 . S
C108 C107 1.340 . S
C108 C109 1.439 . S
C108 H148 0.950 . S
C109 C108 1.439 . S
C109 N110 1.374 . S
C109 C143 1.395 . S
N110 C106 1.376 . S
N110 C109 1.374 . S
N110 Co111 2.008 . S
Co111 N110 2.008 . S
Co111 N112 1.995 . S
Co111 N117 2.008 . S
Co111 N122 1.995 . S
Co111 N127 2.282 . S
Co111 N133 2.282 . S
N112 Co111 1.995 . S
N112 C113 1.376 . S
N112 C116 1.383 . S
C113 N112 1.376 . S
C113 C114 1.446 . S
C113 C143 1.391 . S
C114 C113 1.446 . S
C114 C115 1.339 . S
C114 H149 0.949 . S
C115 C114 1.339 . S
C115 C116 1.439 . S
C115 H150 0.950 . S
C116 N112 1.383 . S
C116 C115 1.439 . S
C116 C145 1.392 . S
N117 Co111 2.008 . S
N117 C118 1.376 . S
N117 C121 1.374 . S
C118 N117 1.376 . S
C118 C119 1.443 . S
C118 C145 1.389 . S
C119 C118 1.443 . S
C119 C120 1.340 . S
C119 H151 0.951 . S
C120 C119 1.340 . S
C120 C121 1.439 . S
C120 H152 0.950 . S
C121 N117 1.374 . S
C121 C120 1.439 . S
C121 C146 1.395 . S
N122 Co111 1.995 . S
N122 C123 1.376 . S
N122 C126 1.383 . S
C123 N122 1.376 . S
C123 C124 1.446 . S
C123 C146 1.391 . S
C124 C123 1.446 . S
C124 C125 1.339 . S
C124 H153 0.949 . S
C125 C124 1.339 . S
C125 C126 1.439 . S
C125 H154 0.950 . S
C126 N122 1.383 . S
C126 C125 1.439 . S
C126 C144 1.392 . S
N127 Co111 2.282 . S
N127 C130 1.332 . S
N127 C132 1.332 . S
C128 C129 1.386 . S
C128 C131 1.388 . S
C129 C128 1.386 . S
C129 C130 1.382 . S
C129 H155 0.950 . S
C130 N127 1.332 . S
C130 C129 1.382 . S
C130 H141 0.952 . S
C131 C128 1.388 . S
C131 C132 1.382 . S
C131 H156 0.950 . S
C132 N127 1.332 . S
C132 C131 1.382 . S
C132 H142 0.948 . S
N133 Co111 2.282 . S
N133 C137 1.332 . S
N133 C138 1.332 . S
C134 C135 1.388 . S
C134 C138 1.382 . S
C134 H157 0.950 . S
C135 C134 1.388 . S
C135 C136 1.386 . S
C136 C135 1.386 . S
C136 C137 1.382 . S
C136 H158 0.950 . S
C137 N133 1.332 . S
C137 C136 1.382 . S
C137 H139 0.952 . S
C138 N133 1.332 . S
C138 C134 1.382 . S
C138 H140 0.948 . S
H139 C137 0.952 . S
H140 C138 0.948 . S
H141 C130 0.952 . S
H142 C132 0.948 . S
C143 C109 1.395 . S
C143 C113 1.391 . S
C144 C106 1.389 . S
C144 C126 1.392 . S
C145 C116 1.392 . S
C145 C118 1.389 . S
C146 C121 1.395 . S
C146 C123 1.391 . S
H147 C107 0.951 . S
H148 C108 0.950 . S
H149 C114 0.949 . S
H150 C115 0.950 . S
H151 C119 0.951 . S
H152 C120 0.950 . S
H153 C124 0.949 . S
H154 C125 0.950 . S
H155 C129 0.950 . S
H156 C131 0.950 . S
H157 C134 0.950 . S
H158 C136 0.950 . S
C159 C160 1.443 . S
C159 N163 1.376 . S
C159 C197 1.389 . S
C160 C159 1.443 . S
C160 C161 1.340 . S
C160 H200 0.951 . S
C161 C160 1.340 . S
C161 C162 1.439 . S
C161 H201 0.950 . S
C162 C161 1.439 . S
C162 N163 1.374 . S
C162 C196 1.395 . S
N163 C159 1.376 . S
N163 C162 1.374 . S
N163 Co164 2.008 1_455 S
Co164 N163 2.008 1_655 S
Co164 N165 1.995 . S
Co164 N170 2.008 . S
Co164 N175 1.995 . S
Co164 N180 2.282 . S
Co164 N186 2.282 1_655 S
N165 Co164 1.995 . S
N165 C166 1.376 1_655 S
N165 C169 1.383 . S
C166 N165 1.376 1_455 S
C166 C167 1.446 . S
C166 C196 1.391 . S
C167 C166 1.446 . S
C167 C168 1.339 1_455 S
C167 H202 0.949 . S
C168 C167 1.339 1_655 S
C168 C169 1.439 . S
C168 H203 0.950 . S
C169 N165 1.383 . S
C169 C168 1.439 . S
C169 C198 1.392 . S
N170 Co164 2.008 . S
N170 C171 1.376 . S
N170 C174 1.374 . S
C171 N170 1.376 . S
C171 C172 1.443 . S
C171 C198 1.389 . S
C172 C171 1.443 . S
C172 C173 1.340 . S
C172 H204 0.951 . S
C173 C172 1.340 . S
C173 C174 1.439 . S
C173 H205 0.950 . S
C174 N170 1.374 . S
C174 C173 1.439 . S
C174 C199 1.395 . S
N175 Co164 1.995 . S
N175 C176 1.376 . S
N175 C179 1.383 . S
C176 N175 1.376 . S
C176 C177 1.446 . S
C176 C199 1.391 . S
C177 C176 1.446 . S
C177 C178 1.339 . S
C177 H206 0.949 . S
C178 C177 1.339 . S
C178 C179 1.439 . S
C178 H207 0.950 . S
C179 N175 1.383 . S
C179 C178 1.439 . S
C179 C197 1.392 1_655 S
N180 Co164 2.282 . S
N180 C183 1.332 . S
N180 C185 1.332 . S
C181 C182 1.386 . S
C181 C184 1.388 . S
C182 C181 1.386 . S
C182 C183 1.382 . S
C182 H208 0.950 . S
C183 N180 1.332 . S
C183 C182 1.382 . S
C183 H194 0.952 . S
C184 C181 1.388 . S
C184 C185 1.382 . S
C184 H209 0.950 . S
C185 N180 1.332 . S
C185 C184 1.382 . S
C185 H195 0.948 . S
N186 Co164 2.282 1_455 S
N186 C190 1.332 . S
N186 C191 1.332 . S
C187 C188 1.388 . S
C187 C191 1.382 . S
C187 H210 0.950 . S
C188 C187 1.388 . S
C188 C189 1.386 . S
C189 C188 1.386 . S
C189 C190 1.382 . S
C189 H211 0.950 . S
C190 N186 1.332 . S
C190 C189 1.382 . S
C190 H192 0.952 . S
C191 N186 1.332 . S
C191 C187 1.382 . S
C191 H193 0.948 1_455 S
H192 C190 0.952 . S
H193 C191 0.948 1_655 S
H194 C183 0.952 . S
H195 C185 0.948 . S
C196 C162 1.395 . S
C196 C166 1.391 . S
C197 C159 1.389 . S
C197 C179 1.392 1_455 S
C198 C169 1.392 . S
C198 C171 1.389 . S
C199 C174 1.395 . S
C199 C176 1.391 . S
H200 C160 0.951 . S
H201 C161 0.950 . S
H202 C167 0.949 . S
H203 C168 0.950 . S
H204 C172 0.951 . S
H205 C173 0.950 . S
H206 C177 0.949 . S
H207 C178 0.950 . S
H208 C182 0.950 . S
H209 C184 0.950 . S
H210 C187 0.950 . S
H211 C189 0.950 . S
C212 C213 1.443 . S
C212 N216 1.376 . S
C212 C250 1.389 . S
C213 C212 1.443 . S
C213 C214 1.340 . S
C213 H253 0.951 . S
C214 C213 1.340 . S
C214 C215 1.439 . S
C214 H254 0.950 . S
C215 C214 1.439 . S
C215 N216 1.374 . S
C215 C249 1.395 . S
N216 C212 1.376 . S
N216 C215 1.374 . S
N216 Co217 2.008 . S
Co217 N216 2.008 . S
Co217 N218 1.995 1_556 S
Co217 N223 2.008 1_556 S
Co217 N228 1.995 . S
Co217 N233 2.282 . S
Co217 N239 2.284 . S
N218 Co217 1.995 1_554 S
N218 C219 1.376 1_554 S
N218 C222 1.383 . S
C219 N218 1.376 1_556 S
C219 C220 1.446 1_556 S
C219 C249 1.391 . S
C220 C219 1.446 1_554 S
C220 C221 1.339 . S
C220 H255 0.949 . S
C221 C220 1.339 . S
C221 C222 1.439 . S
C221 H256 0.950 . S
C222 N218 1.383 . S
C222 C221 1.439 . S
C222 C251 1.392 . S
N223 Co217 2.008 1_554 S
N223 C224 1.376 . S
N223 C227 1.374 . S
C224 N223 1.376 . S
C224 C225 1.443 . S
C224 C251 1.389 . S
C225 C224 1.443 . S
C225 C226 1.340 . S
C225 H257 0.951 . S
C226 C225 1.340 . S
C226 C227 1.439 . S
C226 H258 0.950 . S
C227 N223 1.374 . S
C227 C226 1.439 . S
C227 C252 1.395 . S
N228 Co217 1.995 . S
N228 C229 1.376 . S
N228 C232 1.383 . S
C229 N228 1.376 . S
C229 C230 1.446 . S
C229 C252 1.391 1_556 S
C230 C229 1.446 . S
C230 C231 1.339 . S
C230 H259 0.949 . S
C231 C230 1.339 . S
C231 C232 1.439 . S
C231 H260 0.950 . S
C232 N228 1.383 . S
C232 C231 1.439 . S
C232 C250 1.392 . S
N233 Co217 2.282 . S
N233 C236 1.332 . S
N233 C238 1.332 . S
C234 C235 1.389 . S
C234 C237 1.388 . S
C235 C234 1.389 . S
C235 C236 1.388 . S
C235 H261 0.943 1_556 S
C236 N233 1.332 . S
C236 C235 1.388 . S
C236 H247 0.952 . S
C237 C234 1.388 . S
C237 C238 1.382 . S
C237 H262 0.950 . S
C238 N233 1.332 . S
C238 C237 1.382 . S
C238 H248 0.948 . S
N239 Co217 2.284 . S
N239 C243 1.334 . S
N239 C244 1.331 1_556 S
C240 C241 1.388 . S
C240 C244 1.379 1_556 S
C240 H263 0.952 . S
C241 C240 1.388 . S
C241 C242 1.386 . S
C242 C241 1.386 . S
C242 C243 1.382 . S
C242 H264 0.950 . S
C243 N239 1.334 . S
C243 C242 1.382 . S
C243 H245 0.952 . S
C244 N239 1.331 1_554 S
C244 C240 1.379 1_554 S
C244 H246 0.955 . S
H245 C243 0.952 . S
H246 C244 0.955 . S
H247 C236 0.952 . S
H248 C238 0.948 . S
C249 C215 1.395 . S
C249 C219 1.391 . S
C250 C212 1.389 . S
C250 C232 1.392 . S
C251 C222 1.392 . S
C251 C224 1.389 . S
C252 C227 1.395 . S
C252 C229 1.391 1_554 S
H253 C213 0.951 . S
H254 C214 0.950 . S
H255 C220 0.949 . S
H256 C221 0.950 . S
H257 C225 0.951 . S
H258 C226 0.950 . S
H259 C230 0.949 . S
H260 C231 0.950 . S
H261 C235 0.943 1_554 S
H262 C237 0.950 . S
H263 C240 0.952 . S
H264 C242 0.950 . S
C265 C266 1.443 . S
C265 N269 1.376 . S
C265 C303 1.389 1_455 S
C266 C265 1.443 . S
C266 C267 1.340 . S
C266 H306 0.951 . S
C267 C266 1.340 . S
C267 C268 1.439 . S
C267 H307 0.950 . S
C268 C267 1.439 . S
C268 N269 1.374 . S
C268 C302 1.395 . S
N269 C265 1.376 . S
N269 C268 1.374 . S
N269 Co270 2.008 . S
Co270 N269 2.008 . S
Co270 N271 1.995 1_556 S
Co270 N276 2.008 1_556 S
Co270 N281 1.995 1_455 S
Co270 N286 2.282 . S
Co270 N292 2.283 1_455 S
N271 Co270 1.995 1_554 S
N271 C272 1.376 1_554 S
N271 C275 1.383 . S
C272 N271 1.376 1_556 S
C272 C273 1.446 1_556 S
C272 C302 1.391 . S
C273 C272 1.446 1_554 S
C273 C274 1.339 . S
C273 H308 0.949 . S
C274 C273 1.339 . S
C274 C275 1.439 . S
C274 H309 0.950 . S
C275 N271 1.383 . S
C275 C274 1.439 . S
C275 C304 1.392 . S
N276 Co270 2.008 1_554 S
N276 C277 1.376 . S
N276 C280 1.374 1_455 S
C277 N276 1.376 . S
C277 C278 1.443 . S
C277 C304 1.389 . S
C278 C277 1.443 . S
C278 C279 1.340 1_455 S
C278 H310 0.951 . S
C279 C278 1.340 1_655 S
C279 C280 1.439 . S
C279 H311 0.950 . S
C280 N276 1.374 1_655 S
C280 C279 1.439 . S
C280 C305 1.395 . S
N281 Co270 1.995 1_655 S
N281 C282 1.376 . S
N281 C285 1.383 . S
C282 N281 1.376 . S
C282 C283 1.446 . S
C282 C305 1.391 1_556 S
C283 C282 1.446 . S
C283 C284 1.339 . S
C283 H312 0.949 . S
C284 C283 1.339 . S
C284 C285 1.439 . S
C284 H313 0.950 . S
C285 N281 1.383 . S
C285 C284 1.439 . S
C285 C303 1.392 . S
N286 Co270 2.282 . S
N286 C289 1.332 . S
N286 C291 1.332 . S
C287 C288 1.389 . S
C287 C290 1.388 . S
C288 C287 1.389 . S
C288 C289 1.388 . S
C288 H314 0.943 1_556 S
C289 N286 1.332 . S
C289 C288 1.388 . S
C289 H300 0.952 . S
C290 C287 1.388 . S
C290 C291 1.382 . S
C290 H315 0.950 . S
C291 N286 1.332 . S
C291 C290 1.382 . S
C291 H301 0.948 . S
N292 Co270 2.283 1_655 S
N292 C296 1.334 . S
N292 C297 1.331 1_556 S
C293 C294 1.388 . S
C293 C297 1.379 1_556 S
C293 H316 0.952 . S
C294 C293 1.388 . S
C294 C295 1.386 . S
C295 C294 1.386 . S
C295 C296 1.382 . S
C295 H317 0.950 . S
C296 N292 1.334 . S
C296 C295 1.382 . S
C296 H298 0.952 1_655 S
C297 N292 1.331 1_554 S
C297 C293 1.379 1_554 S
C297 H299 0.956 . S
H298 C296 0.952 1_455 S
H299 C297 0.956 . S
H300 C289 0.952 . S
H301 C291 0.948 . S
C302 C268 1.395 . S
C302 C272 1.391 . S
C303 C265 1.389 1_655 S
C303 C285 1.392 . S
C304 C275 1.392 . S
C304 C277 1.389 . S
C305 C280 1.395 . S
C305 C282 1.391 1_554 S
H306 C266 0.951 . S
H307 C267 0.950 . S
H308 C273 0.949 . S
H309 C274 0.950 . S
H310 C278 0.951 . S
H311 C279 0.950 . S
H312 C283 0.949 . S
H313 C284 0.950 . S
H314 C288 0.943 1_554 S
H315 C290 0.950 . S
H316 C293 0.952 . S
H317 C295 0.950 . S
C318 C319 1.443 . S
C318 N322 1.376 . S
C318 C356 1.389 . S
C319 C318 1.443 . S
C319 C320 1.340 . S
C319 H359 0.951 . S
C320 C319 1.340 . S
C320 C321 1.439 . S
C320 H360 0.950 . S
C321 C320 1.439 . S
C321 N322 1.374 . S
C321 C355 1.395 . S
N322 C318 1.376 . S
N322 C321 1.374 . S
N322 Co323 2.008 . S
Co323 N322 2.008 . S
Co323 N324 1.995 . S
Co323 N329 2.008 . S
Co323 N334 1.995 . S
Co323 N339 2.282 . S
Co323 N345 2.282 . S
N324 Co323 1.995 . S
N324 C325 1.376 . S
N324 C328 1.383 . S
C325 N324 1.376 . S
C325 C326 1.446 . S
C325 C355 1.391 . S
C326 C325 1.446 . S
C326 C327 1.339 . S
C326 H361 0.949 . S
C327 C326 1.339 . S
C327 C328 1.439 . S
C327 H362 0.950 . S
C328 N324 1.383 . S
C328 C327 1.439 . S
C328 C357 1.392 . S
N329 Co323 2.008 . S
N329 C330 1.376 . S
N329 C333 1.374 . S
C330 N329 1.376 . S
C330 C331 1.443 . S
C330 C357 1.389 . S
C331 C330 1.443 . S
C331 C332 1.340 . S
C331 H363 0.951 . S
C332 C331 1.340 . S
C332 C333 1.439 . S
C332 H364 0.950 . S
C333 N329 1.374 . S
C333 C332 1.439 . S
C333 C358 1.395 . S
N334 Co323 1.995 . S
N334 C335 1.376 . S
N334 C338 1.383 . S
C335 N334 1.376 . S
C335 C336 1.446 . S
C335 C358 1.391 . S
C336 C335 1.446 . S
C336 C337 1.339 . S
C336 H365 0.949 . S
C337 C336 1.339 . S
C337 C338 1.439 . S
C337 H366 0.950 . S
C338 N334 1.383 . S
C338 C337 1.439 . S
C338 C356 1.392 . S
N339 Co323 2.282 . S
N339 C342 1.332 . S
N339 C344 1.332 . S
C340 C341 1.386 . S
C340 C343 1.388 . S
C341 C340 1.386 . S
C341 C342 1.382 . S
C341 H367 0.950 . S
C342 N339 1.332 . S
C342 C341 1.382 . S
C342 H353 0.952 . S
C343 C340 1.388 . S
C343 C344 1.382 . S
C343 H368 0.950 . S
C344 N339 1.332 . S
C344 C343 1.382 . S
C344 H354 0.948 . S
N345 Co323 2.282 . S
N345 C349 1.332 . S
N345 C350 1.332 . S
C346 C347 1.388 . S
C346 C350 1.382 . S
C346 H369 0.950 . S
C347 C346 1.388 . S
C347 C348 1.386 . S
C348 C347 1.386 . S
C348 C349 1.382 . S
C348 H370 0.950 . S
C349 N345 1.332 . S
C349 C348 1.382 . S
C349 H351 0.952 . S
C350 N345 1.332 . S
C350 C346 1.382 . S
C350 H352 0.948 . S
H351 C349 0.952 . S
H352 C350 0.948 . S
H353 C342 0.952 . S
H354 C344 0.948 . S
C355 C321 1.395 . S
C355 C325 1.391 . S
C356 C318 1.389 . S
C356 C338 1.392 . S
C357 C328 1.392 . S
C357 C330 1.389 . S
C358 C333 1.395 . S
C358 C335 1.391 . S
H359 C319 0.951 . S
H360 C320 0.950 . S
H361 C326 0.949 . S
H362 C327 0.950 . S
H363 C331 0.951 . S
H364 C332 0.950 . S
H365 C336 0.949 . S
H366 C337 0.950 . S
H367 C341 0.950 . S
H368 C343 0.950 . S
H369 C346 0.950 . S
H370 C348 0.950 . S
C371 C372 1.443 . S
C371 N375 1.376 . S
C371 C409 1.389 1_455 S
C372 C371 1.443 . S
C372 C373 1.340 . S
C372 H412 0.951 . S
C373 C372 1.340 . S
C373 C374 1.439 . S
C373 H413 0.950 . S
C374 C373 1.439 . S
C374 N375 1.374 . S
C374 C408 1.395 . S
N375 C371 1.376 . S
N375 C374 1.374 . S
N375 Co376 2.008 . S
Co376 N375 2.008 . S
Co376 N377 1.995 . S
Co376 N382 2.008 . S
Co376 N387 1.995 1_455 S
Co376 N392 2.282 . S
Co376 N398 2.282 1_455 S
N377 Co376 1.995 . S
N377 C378 1.376 . S
N377 C381 1.383 . S
C378 N377 1.376 . S
C378 C379 1.446 . S
C378 C408 1.391 . S
C379 C378 1.446 . S
C379 C380 1.339 . S
C379 H414 0.949 . S
C380 C379 1.339 . S
C380 C381 1.439 . S
C380 H415 0.950 . S
C381 N377 1.383 . S
C381 C380 1.439 . S
C381 C410 1.392 . S
N382 Co376 2.008 . S
N382 C383 1.376 . S
N382 C386 1.374 1_455 S
C383 N382 1.376 . S
C383 C384 1.443 . S
C383 C410 1.389 . S
C384 C383 1.443 . S
C384 C385 1.340 1_455 S
C384 H416 0.951 . S
C385 C384 1.340 1_655 S
C385 C386 1.439 . S
C385 H417 0.950 . S
C386 N382 1.374 1_655 S
C386 C385 1.439 . S
C386 C411 1.395 . S
N387 Co376 1.995 1_655 S
N387 C388 1.376 . S
N387 C391 1.383 . S
C388 N387 1.376 . S
C388 C389 1.446 . S
C388 C411 1.391 . S
C389 C388 1.446 . S
C389 C390 1.339 . S
C389 H418 0.949 . S
C390 C389 1.339 . S
C390 C391 1.439 . S
C390 H419 0.950 . S
C391 N387 1.383 . S
C391 C390 1.439 . S
C391 C409 1.392 . S
N392 Co376 2.282 . S
N392 C395 1.332 . S
N392 C397 1.332 . S
C393 C394 1.386 . S
C393 C396 1.388 . S
C394 C393 1.386 . S
C394 C395 1.382 . S
C394 H420 0.950 . S
C395 N392 1.332 . S
C395 C394 1.382 . S
C395 H406 0.952 . S
C396 C393 1.388 . S
C396 C397 1.382 . S
C396 H421 0.950 . S
C397 N392 1.332 . S
C397 C396 1.382 . S
C397 H407 0.948 . S
N398 Co376 2.282 1_655 S
N398 C402 1.332 . S
N398 C403 1.332 . S
C399 C400 1.388 . S
C399 C403 1.382 . S
C399 H422 0.950 . S
C400 C399 1.388 . S
C400 C401 1.386 . S
C401 C400 1.386 . S
C401 C402 1.382 . S
C401 H423 0.950 . S
C402 N398 1.332 . S
C402 C401 1.382 . S
C402 H404 0.952 1_655 S
C403 N398 1.332 . S
C403 C399 1.382 . S
C403 H405 0.948 . S
H404 C402 0.952 1_455 S
H405 C403 0.948 . S
H406 C395 0.952 . S
H407 C397 0.948 . S
C408 C374 1.395 . S
C408 C378 1.391 . S
C409 C371 1.389 1_655 S
C409 C391 1.392 . S
C410 C381 1.392 . S
C410 C383 1.389 . S
C411 C386 1.395 . S
C411 C388 1.391 . S
H412 C372 0.951 . S
H413 C373 0.950 . S
H414 C379 0.949 . S
H415 C380 0.950 . S
H416 C384 0.951 . S
H417 C385 0.950 . S
H418 C389 0.949 . S
H419 C390 0.950 . S
H420 C394 0.950 . S
H421 C396 0.950 . S
H422 C399 0.950 . S
H423 C401 0.950 . S
C424 C425 1.443 . S
C424 N428 1.376 . S
C424 C462 1.389 . S
C425 C424 1.443 . S
C425 C426 1.340 . S
C425 H465 0.951 . S
C426 C425 1.340 . S
C426 C427 1.439 . S
C426 H466 0.950 . S
C427 C426 1.439 . S
C427 N428 1.374 . S
C427 C461 1.395 . S
N428 C424 1.376 . S
N428 C427 1.374 . S
N428 Co429 2.008 . S
Co429 N428 2.008 . S
Co429 N430 1.995 . S
Co429 N435 2.008 . S
Co429 N440 1.995 . S
Co429 N445 2.282 . S
Co429 N451 2.282 . S
N430 Co429 1.995 . S
N430 C431 1.376 . S
N430 C434 1.383 . S
C431 N430 1.376 . S
C431 C432 1.446 . S
C431 C461 1.391 . S
C432 C431 1.446 . S
C432 C433 1.339 . S
C432 H467 0.949 . S
C433 C432 1.339 . S
C433 C434 1.439 . S
C433 H468 0.950 . S
C434 N430 1.383 . S
C434 C433 1.439 . S
C434 C463 1.392 . S
N435 Co429 2.008 . S
N435 C436 1.376 . S
N435 C439 1.374 . S
C436 N435 1.376 . S
C436 C437 1.443 . S
C436 C463 1.389 . S
C437 C436 1.443 . S
C437 C438 1.340 . S
C437 H469 0.951 . S
C438 C437 1.340 . S
C438 C439 1.439 . S
C438 H470 0.950 . S
C439 N435 1.374 . S
C439 C438 1.439 . S
C439 C464 1.395 . S
N440 Co429 1.995 . S
N440 C441 1.376 . S
N440 C444 1.383 . S
C441 N440 1.376 . S
C441 C442 1.446 . S
C441 C464 1.391 . S
C442 C441 1.446 . S
C442 C443 1.339 . S
C442 H471 0.949 . S
C443 C442 1.339 . S
C443 C444 1.439 . S
C443 H472 0.950 . S
C444 N440 1.383 . S
C444 C443 1.439 . S
C444 C462 1.392 . S
N445 Co429 2.282 . S
N445 C448 1.332 . S
N445 C450 1.332 . S
C446 C447 1.386 . S
C446 C449 1.388 . S
C447 C446 1.386 . S
C447 C448 1.382 . S
C447 H473 0.950 . S
C448 N445 1.332 . S
C448 C447 1.382 . S
C448 H459 0.952 . S
C449 C446 1.388 . S
C449 C450 1.382 . S
C449 H474 0.950 . S
C450 N445 1.332 . S
C450 C449 1.382 . S
C450 H460 0.948 . S
N451 Co429 2.282 . S
N451 C455 1.332 . S
N451 C456 1.332 . S
C452 C453 1.388 . S
C452 C456 1.382 . S
C452 H475 0.950 . S
C453 C452 1.388 . S
C453 C454 1.386 . S
C454 C453 1.386 . S
C454 C455 1.382 . S
C454 H476 0.950 . S
C455 N451 1.332 . S
C455 C454 1.382 . S
C455 H457 0.952 . S
C456 N451 1.332 . S
C456 C452 1.382 . S
C456 H458 0.948 . S
H457 C455 0.952 . S
H458 C456 0.948 . S
H459 C448 0.952 . S
H460 C450 0.948 . S
C461 C427 1.395 . S
C461 C431 1.391 . S
C462 C424 1.389 . S
C462 C444 1.392 . S
C463 C434 1.392 . S
C463 C436 1.389 . S
C464 C439 1.395 . S
C464 C441 1.391 . S
H465 C425 0.951 . S
H466 C426 0.950 . S
H467 C432 0.949 . S
H468 C433 0.950 . S
H469 C437 0.951 . S
H470 C438 0.950 . S
H471 C442 0.949 . S
H472 C443 0.950 . S
H473 C447 0.950 . S
H474 C449 0.950 . S
H475 C452 0.950 . S
H476 C454 0.950 . S
C477 C478 1.443 . S
C477 N481 1.376 . S
C477 C515 1.389 . S
C478 C477 1.443 . S
C478 C479 1.340 . S
C478 H518 0.951 . S
C479 C478 1.340 . S
C479 C480 1.439 . S
C479 H519 0.950 . S
C480 C479 1.439 . S
C480 N481 1.374 . S
C480 C514 1.395 . S
N481 C477 1.376 . S
N481 C480 1.374 . S
N481 Co482 2.008 1_455 S
Co482 N481 2.008 1_655 S
Co482 N483 1.995 . S
Co482 N488 2.008 . S
Co482 N493 1.995 . S
Co482 N498 2.282 . S
Co482 N504 2.282 1_655 S
N483 Co482 1.995 . S
N483 C484 1.376 1_655 S
N483 C487 1.383 . S
C484 N483 1.376 1_455 S
C484 C485 1.446 . S
C484 C514 1.391 . S
C485 C484 1.446 . S
C485 C486 1.339 1_455 S
C485 H520 0.949 . S
C486 C485 1.339 1_655 S
C486 C487 1.439 . S
C486 H521 0.950 . S
C487 N483 1.383 . S
C487 C486 1.439 . S
C487 C516 1.392 . S
N488 Co482 2.008 . S
N488 C489 1.376 . S
N488 C492 1.374 . S
C489 N488 1.376 . S
C489 C490 1.443 . S
C489 C516 1.389 . S
C490 C489 1.443 . S
C490 C491 1.340 . S
C490 H522 0.951 . S
C491 C490 1.340 . S
C491 C492 1.439 . S
C491 H523 0.950 . S
C492 N488 1.374 . S
C492 C491 1.439 . S
C492 C517 1.395 . S
N493 Co482 1.995 . S
N493 C494 1.376 . S
N493 C497 1.383 . S
C494 N493 1.376 . S
C494 C495 1.446 . S
C494 C517 1.391 . S
C495 C494 1.446 . S
C495 C496 1.339 . S
C495 H524 0.949 . S
C496 C495 1.339 . S
C496 C497 1.439 . S
C496 H525 0.950 . S
C497 N493 1.383 . S
C497 C496 1.439 . S
C497 C515 1.392 1_655 S
N498 Co482 2.282 . S
N498 C501 1.332 . S
N498 C503 1.332 . S
C499 C500 1.386 . S
C499 C502 1.388 . S
C500 C499 1.386 . S
C500 C501 1.382 . S
C500 H526 0.950 . S
C501 N498 1.332 . S
C501 C500 1.382 . S
C501 H512 0.952 . S
C502 C499 1.388 . S
C502 C503 1.382 . S
C502 H527 0.950 . S
C503 N498 1.332 . S
C503 C502 1.382 . S
C503 H513 0.948 . S
N504 Co482 2.282 1_455 S
N504 C508 1.332 . S
N504 C509 1.332 . S
C505 C506 1.388 . S
C505 C509 1.382 . S
C505 H528 0.950 . S
C506 C505 1.388 . S
C506 C507 1.386 . S
C507 C506 1.386 . S
C507 C508 1.382 . S
C507 H529 0.950 . S
C508 N504 1.332 . S
C508 C507 1.382 . S
C508 H510 0.952 . S
C509 N504 1.332 . S
C509 C505 1.382 . S
C509 H511 0.948 1_455 S
H510 C508 0.952 . S
H511 C509 0.948 1_655 S
H512 C501 0.952 . S
H513 C503 0.948 . S
C514 C480 1.395 . S
C514 C484 1.391 . S
C515 C477 1.389 . S
C515 C497 1.392 1_455 S
C516 C487 1.392 . S
C516 C489 1.389 . S
C517 C492 1.395 . S
C517 C494 1.391 . S
H518 C478 0.951 . S
H519 C479 0.950 . S
H520 C485 0.949 . S
H521 C486 0.950 . S
H522 C490 0.951 . S
H523 C491 0.950 . S
H524 C495 0.949 . S
H525 C496 0.950 . S
H526 C500 0.950 . S
H527 C502 0.950 . S
H528 C505 0.950 . S
H529 C507 0.950 . S
C530 C531 1.443 . S
C530 N534 1.376 . S
C530 C568 1.389 . S
C531 C530 1.443 . S
C531 C532 1.340 . S
C531 H571 0.951 . S
C532 C531 1.340 . S
C532 C533 1.439 . S
C532 H572 0.950 . S
C533 C532 1.439 . S
C533 N534 1.374 . S
C533 C567 1.395 . S
N534 C530 1.376 . S
N534 C533 1.374 . S
N534 Co535 2.008 . S
Co535 N534 2.008 . S
Co535 N536 1.995 . S
Co535 N541 2.008 . S
Co535 N546 1.995 . S
Co535 N551 2.282 . S
Co535 N557 2.282 . S
N536 Co535 1.995 . S
N536 C537 1.376 . S
N536 C540 1.383 . S
C537 N536 1.376 . S
C537 C538 1.446 . S
C537 C567 1.391 . S
C538 C537 1.446 . S
C538 C539 1.339 . S
C538 H573 0.949 . S
C539 C538 1.339 . S
C539 C540 1.439 . S
C539 H574 0.950 . S
C540 N536 1.383 . S
C540 C539 1.439 . S
C540 C569 1.392 . S
N541 Co535 2.008 . S
N541 C542 1.376 . S
N541 C545 1.374 . S
C542 N541 1.376 . S
C542 C543 1.443 . S
C542 C569 1.389 . S
C543 C542 1.443 . S
C543 C544 1.340 . S
C543 H575 0.951 . S
C544 C543 1.340 . S
C544 C545 1.439 . S
C544 H576 0.950 . S
C545 N541 1.374 . S
C545 C544 1.439 . S
C545 C570 1.395 . S
N546 Co535 1.995 . S
N546 C547 1.376 . S
N546 C550 1.383 . S
C547 N546 1.376 . S
C547 C548 1.446 . S
C547 C570 1.391 . S
C548 C547 1.446 . S
C548 C549 1.339 . S
C548 H577 0.949 . S
C549 C548 1.339 . S
C549 C550 1.439 . S
C549 H578 0.950 . S
C550 N546 1.383 . S
C550 C549 1.439 . S
C550 C568 1.392 . S
N551 Co535 2.282 . S
N551 C554 1.332 . S
N551 C556 1.332 . S
C552 C553 1.386 . S
C552 C555 1.388 . S
C553 C552 1.386 . S
C553 C554 1.382 . S
C553 H579 0.950 . S
C554 N551 1.332 . S
C554 C553 1.382 . S
C554 H565 0.952 . S
C555 C552 1.388 . S
C555 C556 1.382 . S
C555 H580 0.950 . S
C556 N551 1.332 . S
C556 C555 1.382 . S
C556 H566 0.948 . S
N557 Co535 2.282 . S
N557 C561 1.332 . S
N557 C562 1.332 . S
C558 C559 1.388 . S
C558 C562 1.382 . S
C558 H581 0.950 . S
C559 C558 1.388 . S
C559 C560 1.386 . S
C560 C559 1.386 . S
C560 C561 1.382 . S
C560 H582 0.950 . S
C561 N557 1.332 . S
C561 C560 1.382 . S
C561 H563 0.952 . S
C562 N557 1.332 . S
C562 C558 1.382 . S
C562 H564 0.948 . S
H563 C561 0.952 . S
H564 C562 0.948 . S
H565 C554 0.952 . S
H566 C556 0.948 . S
C567 C533 1.395 . S
C567 C537 1.391 . S
C568 C530 1.389 . S
C568 C550 1.392 . S
C569 C540 1.392 . S
C569 C542 1.389 . S
C570 C545 1.395 . S
C570 C547 1.391 . S
H571 C531 0.951 . S
H572 C532 0.950 . S
H573 C538 0.949 . S
H574 C539 0.950 . S
H575 C543 0.951 . S
H576 C544 0.950 . S
H577 C548 0.949 . S
H578 C549 0.950 . S
H579 C553 0.950 . S
H580 C555 0.950 . S
H581 C558 0.950 . S
H582 C560 0.950 . S
C583 C584 1.443 . S
C583 N587 1.376 . S
C583 C621 1.389 . S
C584 C583 1.443 . S
C584 C585 1.340 . S
C584 H624 0.951 . S
C585 C584 1.340 . S
C585 C586 1.439 . S
C585 H625 0.950 . S
C586 C585 1.439 . S
C586 N587 1.374 . S
C586 C620 1.395 . S
N587 C583 1.376 . S
N587 C586 1.374 . S
N587 Co588 2.008 1_455 S
Co588 N587 2.008 1_655 S
Co588 N589 1.995 . S
Co588 N594 2.008 . S
Co588 N599 1.995 . S
Co588 N604 2.282 . S
Co588 N610 2.282 1_655 S
N589 Co588 1.995 . S
N589 C590 1.376 1_655 S
N589 C593 1.383 . S
C590 N589 1.376 1_455 S
C590 C591 1.446 . S
C590 C620 1.391 . S
C591 C590 1.446 . S
C591 C592 1.339 1_455 S
C591 H626 0.949 . S
C592 C591 1.339 1_655 S
C592 C593 1.439 . S
C592 H627 0.950 . S
C593 N589 1.383 . S
C593 C592 1.439 . S
C593 C622 1.392 . S
N594 Co588 2.008 . S
N594 C595 1.376 . S
N594 C598 1.374 . S
C595 N594 1.376 . S
C595 C596 1.443 . S
C595 C622 1.389 . S
C596 C595 1.443 . S
C596 C597 1.340 . S
C596 H628 0.951 . S
C597 C596 1.340 . S
C597 C598 1.439 . S
C597 H629 0.950 . S
C598 N594 1.374 . S
C598 C597 1.439 . S
C598 C623 1.395 . S
N599 Co588 1.995 . S
N599 C600 1.376 . S
N599 C603 1.383 . S
C600 N599 1.376 . S
C600 C601 1.446 . S
C600 C623 1.391 . S
C601 C600 1.446 . S
C601 C602 1.339 . S
C601 H630 0.949 . S
C602 C601 1.339 . S
C602 C603 1.439 . S
C602 H631 0.950 . S
C603 N599 1.383 . S
C603 C602 1.439 . S
C603 C621 1.392 1_655 S
N604 Co588 2.282 . S
N604 C607 1.332 . S
N604 C609 1.332 . S
C605 C606 1.386 . S
C605 C608 1.388 . S
C606 C605 1.386 . S
C606 C607 1.382 . S
C606 H632 0.950 . S
C607 N604 1.332 . S
C607 C606 1.382 . S
C607 H618 0.952 . S
C608 C605 1.388 . S
C608 C609 1.382 . S
C608 H633 0.950 . S
C609 N604 1.332 . S
C609 C608 1.382 . S
C609 H619 0.948 . S
N610 Co588 2.282 1_455 S
N610 C614 1.332 . S
N610 C615 1.332 . S
C611 C612 1.388 . S
C611 C615 1.382 . S
C611 H634 0.950 . S
C612 C611 1.388 . S
C612 C613 1.386 . S
C613 C612 1.386 . S
C613 C614 1.382 . S
C613 H635 0.950 . S
C614 N610 1.332 . S
C614 C613 1.382 . S
C614 H616 0.952 . S
C615 N610 1.332 . S
C615 C611 1.382 . S
C615 H617 0.948 1_455 S
H616 C614 0.952 . S
H617 C615 0.948 1_655 S
H618 C607 0.952 . S
H619 C609 0.948 . S
C620 C586 1.395 . S
C620 C590 1.391 . S
C621 C583 1.389 . S
C621 C603 1.392 1_455 S
C622 C593 1.392 . S
C622 C595 1.389 . S
C623 C598 1.395 . S
C623 C600 1.391 . S
H624 C584 0.951 . S
H625 C585 0.950 . S
H626 C591 0.949 . S
H627 C592 0.950 . S
H628 C596 0.951 . S
H629 C597 0.950 . S
H630 C601 0.949 . S
H631 C602 0.950 . S
H632 C606 0.950 . S
H633 C608 0.950 . S
H634 C611 0.950 . S
H635 C613 0.950 . S
C636 C637 1.443 . S
C636 N640 1.376 . S
C636 C674 1.389 . S
C637 C636 1.443 . S
C637 C638 1.340 . S
C637 H677 0.951 . S
C638 C637 1.340 . S
C638 C639 1.439 . S
C638 H678 0.950 . S
C639 C638 1.439 . S
C639 N640 1.374 . S
C639 C673 1.395 . S
N640 C636 1.376 . S
N640 C639 1.374 . S
N640 Co641 2.008 . S
Co641 N640 2.008 . S
Co641 N642 1.995 . S
Co641 N647 2.008 . S
Co641 N652 1.995 . S
Co641 N657 2.282 . S
Co641 N663 2.282 . S
N642 Co641 1.995 . S
N642 C643 1.376 . S
N642 C646 1.383 . S
C643 N642 1.376 . S
C643 C644 1.446 . S
C643 C673 1.391 . S
C644 C643 1.446 . S
C644 C645 1.339 . S
C644 H679 0.949 . S
C645 C644 1.339 . S
C645 C646 1.439 . S
C645 H680 0.950 . S
C646 N642 1.383 . S
C646 C645 1.439 . S
C646 C675 1.392 . S
N647 Co641 2.008 . S
N647 C648 1.376 . S
N647 C651 1.374 . S
C648 N647 1.376 . S
C648 C649 1.443 . S
C648 C675 1.389 . S
C649 C648 1.443 . S
C649 C650 1.340 . S
C649 H681 0.951 . S
C650 C649 1.340 . S
C650 C651 1.439 . S
C650 H682 0.950 . S
C651 N647 1.374 . S
C651 C650 1.439 . S
C651 C676 1.395 . S
N652 Co641 1.995 . S
N652 C653 1.376 . S
N652 C656 1.383 . S
C653 N652 1.376 . S
C653 C654 1.446 . S
C653 C676 1.391 . S
C654 C653 1.446 . S
C654 C655 1.339 . S
C654 H683 0.949 . S
C655 C654 1.339 . S
C655 C656 1.439 . S
C655 H684 0.950 . S
C656 N652 1.383 . S
C656 C655 1.439 . S
C656 C674 1.392 . S
N657 Co641 2.282 . S
N657 C660 1.332 . S
N657 C662 1.332 . S
C658 C659 1.386 . S
C658 C661 1.388 . S
C659 C658 1.386 . S
C659 C660 1.382 . S
C659 H685 0.950 . S
C660 N657 1.332 . S
C660 C659 1.382 . S
C660 H671 0.952 . S
C661 C658 1.388 . S
C661 C662 1.382 . S
C661 H686 0.950 . S
C662 N657 1.332 . S
C662 C661 1.382 . S
C662 H672 0.948 . S
N663 Co641 2.282 . S
N663 C667 1.332 . S
N663 C668 1.332 . S
C664 C665 1.388 . S
C664 C668 1.382 . S
C664 H687 0.950 . S
C665 C664 1.388 . S
C665 C666 1.386 . S
C666 C665 1.386 . S
C666 C667 1.382 . S
C666 H688 0.950 . S
C667 N663 1.332 . S
C667 C666 1.382 . S
C667 H669 0.952 . S
C668 N663 1.332 . S
C668 C664 1.382 . S
C668 H670 0.948 . S
H669 C667 0.952 . S
H670 C668 0.948 . S
H671 C660 0.952 . S
H672 C662 0.948 . S
C673 C639 1.395 . S
C673 C643 1.391 . S
C674 C636 1.389 . S
C674 C656 1.392 . S
C675 C646 1.392 . S
C675 C648 1.389 . S
C676 C651 1.395 . S
C676 C653 1.391 . S
H677 C637 0.951 . S
H678 C638 0.950 . S
H679 C644 0.949 . S
H680 C645 0.950 . S
H681 C649 0.951 . S
H682 C650 0.950 . S
H683 C654 0.949 . S
H684 C655 0.950 . S
H685 C659 0.950 . S
H686 C661 0.950 . S
H687 C664 0.950 . S
H688 C666 0.950 . S
C689 C690 1.443 . S
C689 N693 1.376 . S
C689 C727 1.389 1_455 S
C690 C689 1.443 . S
C690 C691 1.340 . S
C690 H730 0.951 . S
C691 C690 1.340 . S
C691 C692 1.439 . S
C691 H731 0.950 . S
C692 C691 1.439 . S
C692 N693 1.374 . S
C692 C726 1.395 . S
N693 C689 1.376 . S
N693 C692 1.374 . S
N693 Co694 2.008 . S
Co694 N693 2.008 . S
Co694 N695 1.995 . S
Co694 N700 2.008 . S
Co694 N705 1.995 1_455 S
Co694 N710 2.282 . S
Co694 N716 2.282 1_455 S
N695 Co694 1.995 . S
N695 C696 1.376 . S
N695 C699 1.383 . S
C696 N695 1.376 . S
C696 C697 1.446 . S
C696 C726 1.391 . S
C697 C696 1.446 . S
C697 C698 1.339 . S
C697 H732 0.949 . S
C698 C697 1.339 . S
C698 C699 1.439 . S
C698 H733 0.950 . S
C699 N695 1.383 . S
C699 C698 1.439 . S
C699 C728 1.392 . S
N700 Co694 2.008 . S
N700 C701 1.376 . S
N700 C704 1.374 1_455 S
C701 N700 1.376 . S
C701 C702 1.443 . S
C701 C728 1.389 . S
C702 C701 1.443 . S
C702 C703 1.340 1_455 S
C702 H734 0.951 . S
C703 C702 1.340 1_655 S
C703 C704 1.439 . S
C703 H735 0.950 . S
C704 N700 1.374 1_655 S
C704 C703 1.439 . S
C704 C729 1.395 . S
N705 Co694 1.995 1_655 S
N705 C706 1.376 . S
N705 C709 1.383 . S
C706 N705 1.376 . S
C706 C707 1.446 . S
C706 C729 1.391 . S
C707 C706 1.446 . S
C707 C708 1.339 . S
C707 H736 0.949 . S
C708 C707 1.339 . S
C708 C709 1.439 . S
C708 H737 0.950 . S
C709 N705 1.383 . S
C709 C708 1.439 . S
C709 C727 1.392 . S
N710 Co694 2.282 . S
N710 C713 1.332 . S
N710 C715 1.332 . S
C711 C712 1.386 . S
C711 C714 1.388 . S
C712 C711 1.386 . S
C712 C713 1.382 . S
C712 H738 0.950 . S
C713 N710 1.332 . S
C713 C712 1.382 . S
C713 H724 0.952 . S
C714 C711 1.388 . S
C714 C715 1.382 . S
C714 H739 0.950 . S
C715 N710 1.332 . S
C715 C714 1.382 . S
C715 H725 0.948 . S
N716 Co694 2.282 1_655 S
N716 C720 1.332 . S
N716 C721 1.332 . S
C717 C718 1.388 . S
C717 C721 1.382 . S
C717 H740 0.950 . S
C718 C717 1.388 . S
C718 C719 1.386 . S
C719 C718 1.386 . S
C719 C720 1.382 . S
C719 H741 0.950 . S
C720 N716 1.332 . S
C720 C719 1.382 . S
C720 H722 0.952 1_655 S
C721 N716 1.332 . S
C721 C717 1.382 . S
C721 H723 0.948 . S
H722 C720 0.952 1_455 S
H723 C721 0.948 . S
H724 C713 0.952 . S
H725 C715 0.948 . S
C726 C692 1.395 . S
C726 C696 1.391 . S
C727 C689 1.389 1_655 S
C727 C709 1.392 . S
C728 C699 1.392 . S
C728 C701 1.389 . S
C729 C704 1.395 . S
C729 C706 1.391 . S
H730 C690 0.951 . S
H731 C691 0.950 . S
H732 C697 0.949 . S
H733 C698 0.950 . S
H734 C702 0.951 . S
H735 C703 0.950 . S
H736 C707 0.949 . S
H737 C708 0.950 . S
H738 C712 0.950 . S
H739 C714 0.950 . S
H740 C717 0.950 . S
H741 C719 0.950 . S
C742 C743 1.443 . S
C742 N746 1.376 . S
C742 C780 1.389 . S
C743 C742 1.443 . S
C743 C744 1.340 . S
C743 H783 0.951 . S
C744 C743 1.340 . S
C744 C745 1.439 . S
C744 H784 0.950 . S
C745 C744 1.439 . S
C745 N746 1.374 . S
C745 C779 1.395 . S
N746 C742 1.376 . S
N746 C745 1.374 . S
N746 Co747 2.008 . S
Co747 N746 2.008 . S
Co747 N748 1.995 . S
Co747 N753 2.008 . S
Co747 N758 1.995 . S
Co747 N763 2.282 . S
Co747 N769 2.282 . S
N748 Co747 1.995 . S
N748 C749 1.376 . S
N748 C752 1.383 . S
C749 N748 1.376 . S
C749 C750 1.446 . S
C749 C779 1.391 . S
C750 C749 1.446 . S
C750 C751 1.339 . S
C750 H785 0.949 . S
C751 C750 1.339 . S
C751 C752 1.439 . S
C751 H786 0.950 . S
C752 N748 1.383 . S
C752 C751 1.439 . S
C752 C781 1.392 . S
N753 Co747 2.008 . S
N753 C754 1.376 . S
N753 C757 1.374 . S
C754 N753 1.376 . S
C754 C755 1.443 . S
C754 C781 1.389 . S
C755 C754 1.443 . S
C755 C756 1.340 . S
C755 H787 0.951 . S
C756 C755 1.340 . S
C756 C757 1.439 . S
C756 H788 0.950 . S
C757 N753 1.374 . S
C757 C756 1.439 . S
C757 C782 1.395 . S
N758 Co747 1.995 . S
N758 C759 1.376 . S
N758 C762 1.383 . S
C759 N758 1.376 . S
C759 C760 1.446 . S
C759 C782 1.391 . S
C760 C759 1.446 . S
C760 C761 1.339 . S
C760 H789 0.949 . S
C761 C760 1.339 . S
C761 C762 1.439 . S
C761 H790 0.950 . S
C762 N758 1.383 . S
C762 C761 1.439 . S
C762 C780 1.392 . S
N763 Co747 2.282 . S
N763 C766 1.332 . S
N763 C768 1.332 . S
C764 C765 1.386 . S
C764 C767 1.388 . S
C765 C764 1.386 . S
C765 C766 1.382 . S
C765 H791 0.950 . S
C766 N763 1.332 . S
C766 C765 1.382 . S
C766 H777 0.952 . S
C767 C764 1.388 . S
C767 C768 1.382 . S
C767 H792 0.950 . S
C768 N763 1.332 . S
C768 C767 1.382 . S
C768 H778 0.948 . S
N769 Co747 2.282 . S
N769 C773 1.332 . S
N769 C774 1.332 . S
C770 C771 1.388 . S
C770 C774 1.382 . S
C770 H793 0.950 . S
C771 C770 1.388 . S
C771 C772 1.386 . S
C772 C771 1.386 . S
C772 C773 1.382 . S
C772 H794 0.950 . S
C773 N769 1.332 . S
C773 C772 1.382 . S
C773 H775 0.952 . S
C774 N769 1.332 . S
C774 C770 1.382 . S
C774 H776 0.948 . S
H775 C773 0.952 . S
H776 C774 0.948 . S
H777 C766 0.952 . S
H778 C768 0.948 . S
C779 C745 1.395 . S
C779 C749 1.391 . S
C780 C742 1.389 . S
C780 C762 1.392 . S
C781 C752 1.392 . S
C781 C754 1.389 . S
C782 C757 1.395 . S
C782 C759 1.391 . S
H783 C743 0.951 . S
H784 C744 0.950 . S
H785 C750 0.949 . S
H786 C751 0.950 . S
H787 C755 0.951 . S
H788 C756 0.950 . S
H789 C760 0.949 . S
H790 C761 0.950 . S
H791 C765 0.950 . S
H792 C767 0.950 . S
H793 C770 0.950 . S
H794 C772 0.950 . S
C795 C796 1.443 . S
C795 N799 1.376 . S
C795 C833 1.389 1_455 S
C796 C795 1.443 . S
C796 C797 1.340 . S
C796 H836 0.951 . S
C797 C796 1.340 . S
C797 C798 1.439 . S
C797 H837 0.950 . S
C798 C797 1.439 . S
C798 N799 1.374 . S
C798 C832 1.395 . S
N799 C795 1.376 . S
N799 C798 1.374 . S
N799 Co800 2.008 . S
Co800 N799 2.008 . S
Co800 N801 1.995 . S
Co800 N806 2.008 . S
Co800 N811 1.995 1_455 S
Co800 N816 2.282 . S
Co800 N822 2.282 1_455 S
N801 Co800 1.995 . S
N801 C802 1.376 . S
N801 C805 1.383 . S
C802 N801 1.376 . S
C802 C803 1.446 . S
C802 C832 1.391 . S
C803 C802 1.446 . S
C803 C804 1.339 . S
C803 H838 0.949 . S
C804 C803 1.339 . S
C804 C805 1.439 . S
C804 H839 0.950 . S
C805 N801 1.383 . S
C805 C804 1.439 . S
C805 C834 1.392 . S
N806 Co800 2.008 . S
N806 C807 1.376 . S
N806 C810 1.374 1_455 S
C807 N806 1.376 . S
C807 C808 1.443 . S
C807 C834 1.389 . S
C808 C807 1.443 . S
C808 C809 1.340 1_455 S
C808 H840 0.951 . S
C809 C808 1.340 1_655 S
C809 C810 1.439 . S
C809 H841 0.950 . S
C810 N806 1.374 1_655 S
C810 C809 1.439 . S
C810 C835 1.395 . S
N811 Co800 1.995 1_655 S
N811 C812 1.376 . S
N811 C815 1.383 . S
C812 N811 1.376 . S
C812 C813 1.446 . S
C812 C835 1.391 . S
C813 C812 1.446 . S
C813 C814 1.339 . S
C813 H842 0.949 . S
C814 C813 1.339 . S
C814 C815 1.439 . S
C814 H843 0.950 . S
C815 N811 1.383 . S
C815 C814 1.439 . S
C815 C833 1.392 . S
N816 Co800 2.282 . S
N816 C819 1.332 . S
N816 C821 1.332 . S
C817 C818 1.386 . S
C817 C820 1.388 . S
C818 C817 1.386 . S
C818 C819 1.382 . S
C818 H844 0.950 . S
C819 N816 1.332 . S
C819 C818 1.382 . S
C819 H830 0.952 . S
C820 C817 1.388 . S
C820 C821 1.382 . S
C820 H845 0.950 . S
C821 N816 1.332 . S
C821 C820 1.382 . S
C821 H831 0.948 . S
N822 Co800 2.282 1_655 S
N822 C826 1.332 . S
N822 C827 1.332 . S
C823 C824 1.388 . S
C823 C827 1.382 . S
C823 H846 0.950 . S
C824 C823 1.388 . S
C824 C825 1.386 . S
C825 C824 1.386 . S
C825 C826 1.382 . S
C825 H847 0.950 . S
C826 N822 1.332 . S
C826 C825 1.382 . S
C826 H828 0.952 1_655 S
C827 N822 1.332 . S
C827 C823 1.382 . S
C827 H829 0.948 . S
H828 C826 0.952 1_455 S
H829 C827 0.948 . S
H830 C819 0.952 . S
H831 C821 0.948 . S
C832 C798 1.395 . S
C832 C802 1.391 . S
C833 C795 1.389 1_655 S
C833 C815 1.392 . S
C834 C805 1.392 . S
C834 C807 1.389 . S
C835 C810 1.395 . S
C835 C812 1.391 . S
H836 C796 0.951 . S
H837 C797 0.950 . S
H838 C803 0.949 . S
H839 C804 0.950 . S
H840 C808 0.951 . S
H841 C809 0.950 . S
H842 C813 0.949 . S
H843 C814 0.950 . S
H844 C818 0.950 . S
H845 C820 0.950 . S
H846 C823 0.950 . S
H847 C825 0.950 . S
C848 C849 1.443 . S
C848 N852 1.376 . S
C848 C886 1.389 . S
C849 C848 1.443 . S
C849 C850 1.340 . S
C849 H889 0.951 . S
C850 C849 1.340 . S
C850 C851 1.439 . S
C850 H890 0.950 . S
C851 C850 1.439 . S
C851 N852 1.374 . S
C851 C885 1.395 . S
N852 C848 1.376 . S
N852 C851 1.374 . S
N852 Co853 2.008 . S
Co853 N852 2.008 . S
Co853 N854 1.995 . S
Co853 N859 2.008 . S
Co853 N864 1.995 . S
Co853 N869 2.282 . S
Co853 N875 2.282 . S
N854 Co853 1.995 . S
N854 C855 1.376 . S
N854 C858 1.383 . S
C855 N854 1.376 . S
C855 C856 1.446 . S
C855 C885 1.391 . S
C856 C855 1.446 . S
C856 C857 1.339 . S
C856 H891 0.949 . S
C857 C856 1.339 . S
C857 C858 1.439 . S
C857 H892 0.950 . S
C858 N854 1.383 . S
C858 C857 1.439 . S
C858 C887 1.392 . S
N859 Co853 2.008 . S
N859 C860 1.376 . S
N859 C863 1.374 . S
C860 N859 1.376 . S
C860 C861 1.443 . S
C860 C887 1.389 . S
C861 C860 1.443 . S
C861 C862 1.340 . S
C861 H893 0.951 . S
C862 C861 1.340 . S
C862 C863 1.439 . S
C862 H894 0.950 . S
C863 N859 1.374 . S
C863 C862 1.439 . S
C863 C888 1.395 . S
N864 Co853 1.995 . S
N864 C865 1.376 . S
N864 C868 1.383 . S
C865 N864 1.376 . S
C865 C866 1.446 . S
C865 C888 1.391 . S
C866 C865 1.446 . S
C866 C867 1.339 . S
C866 H895 0.949 . S
C867 C866 1.339 . S
C867 C868 1.439 . S
C867 H896 0.950 . S
C868 N864 1.383 . S
C868 C867 1.439 . S
C868 C886 1.392 . S
N869 Co853 2.282 . S
N869 C872 1.332 . S
N869 C874 1.332 . S
C870 C871 1.386 . S
C870 C873 1.388 . S
C871 C870 1.386 . S
C871 C872 1.382 . S
C871 H897 0.950 . S
C872 N869 1.332 . S
C872 C871 1.382 . S
C872 H883 0.952 . S
C873 C870 1.388 . S
C873 C874 1.382 . S
C873 H898 0.950 . S
C874 N869 1.332 . S
C874 C873 1.382 . S
C874 H884 0.948 . S
N875 Co853 2.282 . S
N875 C879 1.332 . S
N875 C880 1.332 . S
C876 C877 1.388 . S
C876 C880 1.382 . S
C876 H899 0.950 . S
C877 C876 1.388 . S
C877 C878 1.386 . S
C878 C877 1.386 . S
C878 C879 1.382 . S
C878 H900 0.950 . S
C879 N875 1.332 . S
C879 C878 1.382 . S
C879 H881 0.952 . S
C880 N875 1.332 . S
C880 C876 1.382 . S
C880 H882 0.948 . S
H881 C879 0.952 . S
H882 C880 0.948 . S
H883 C872 0.952 . S
H884 C874 0.948 . S
C885 C851 1.395 . S
C885 C855 1.391 . S
C886 C848 1.389 . S
C886 C868 1.392 . S
C887 C858 1.392 . S
C887 C860 1.389 . S
C888 C863 1.395 . S
C888 C865 1.391 . S
H889 C849 0.951 . S
H890 C850 0.950 . S
H891 C856 0.949 . S
H892 C857 0.950 . S
H893 C861 0.951 . S
H894 C862 0.950 . S
H895 C866 0.949 . S
H896 C867 0.950 . S
H897 C871 0.950 . S
H898 C873 0.950 . S
H899 C876 0.950 . S
H900 C878 0.950 . S
C901 C902 1.443 . S
C901 N905 1.376 . S
C901 C939 1.389 . S
C902 C901 1.443 . S
C902 C903 1.340 . S
C902 H942 0.951 . S
C903 C902 1.340 . S
C903 C904 1.439 . S
C903 H943 0.950 . S
C904 C903 1.439 . S
C904 N905 1.374 . S
C904 C938 1.395 . S
N905 C901 1.376 . S
N905 C904 1.374 . S
N905 Co906 2.008 . S
Co906 N905 2.008 . S
Co906 N907 1.995 . S
Co906 N912 2.008 . S
Co906 N917 1.995 . S
Co906 N922 2.282 . S
Co906 N928 2.282 . S
N907 Co906 1.995 . S
N907 C908 1.376 . S
N907 C911 1.383 . S
C908 N907 1.376 . S
C908 C909 1.446 . S
C908 C938 1.391 . S
C909 C908 1.446 . S
C909 C910 1.339 . S
C909 H944 0.949 . S
C910 C909 1.339 . S
C910 C911 1.439 . S
C910 H945 0.950 . S
C911 N907 1.383 . S
C911 C910 1.439 . S
C911 C940 1.392 . S
N912 Co906 2.008 . S
N912 C913 1.376 . S
N912 C916 1.374 . S
C913 N912 1.376 . S
C913 C914 1.443 . S
C913 C940 1.389 . S
C914 C913 1.443 . S
C914 C915 1.340 . S
C914 H946 0.951 . S
C915 C914 1.340 . S
C915 C916 1.439 . S
C915 H947 0.950 . S
C916 N912 1.374 . S
C916 C915 1.439 . S
C916 C941 1.395 . S
N917 Co906 1.995 . S
N917 C918 1.376 . S
N917 C921 1.383 . S
C918 N917 1.376 . S
C918 C919 1.446 . S
C918 C941 1.391 . S
C919 C918 1.446 . S
C919 C920 1.339 . S
C919 H948 0.949 . S
C920 C919 1.339 . S
C920 C921 1.439 . S
C920 H949 0.950 . S
C921 N917 1.383 . S
C921 C920 1.439 . S
C921 C939 1.392 . S
N922 Co906 2.282 . S
N922 C925 1.332 . S
N922 C927 1.332 . S
C923 C924 1.386 . S
C923 C926 1.388 . S
C924 C923 1.386 . S
C924 C925 1.382 . S
C924 H950 0.950 . S
C925 N922 1.332 . S
C925 C924 1.382 . S
C925 H936 0.952 . S
C926 C923 1.388 . S
C926 C927 1.382 . S
C926 H951 0.950 . S
C927 N922 1.332 . S
C927 C926 1.382 . S
C927 H937 0.948 . S
N928 Co906 2.282 . S
N928 C932 1.332 . S
N928 C933 1.332 . S
C929 C930 1.388 . S
C929 C933 1.382 . S
C929 H952 0.950 . S
C930 C929 1.388 . S
C930 C931 1.386 . S
C931 C930 1.386 . S
C931 C932 1.382 . S
C931 H953 0.950 . S
C932 N928 1.332 . S
C932 C931 1.382 . S
C932 H934 0.952 . S
C933 N928 1.332 . S
C933 C929 1.382 . S
C933 H935 0.948 . S
H934 C932 0.952 . S
H935 C933 0.948 . S
H936 C925 0.952 . S
H937 C927 0.948 . S
C938 C904 1.395 . S
C938 C908 1.391 . S
C939 C901 1.389 . S
C939 C921 1.392 . S
C940 C911 1.392 . S
C940 C913 1.389 . S
C941 C916 1.395 . S
C941 C918 1.391 . S
H942 C902 0.951 . S
H943 C903 0.950 . S
H944 C909 0.949 . S
H945 C910 0.950 . S
H946 C914 0.951 . S
H947 C915 0.950 . S
H948 C919 0.949 . S
H949 C920 0.950 . S
H950 C924 0.950 . S
H951 C926 0.950 . S
H952 C929 0.950 . S
H953 C931 0.950 . S
C954 C955 1.443 . S
C954 N958 1.376 . S
C954 C992 1.389 . S
C955 C954 1.443 . S
C955 C956 1.340 . S
C955 H995 0.951 . S
C956 C955 1.340 . S
C956 C957 1.439 . S
C956 H996 0.950 . S
C957 C956 1.439 . S
C957 N958 1.374 . S
C957 C991 1.395 . S
N958 C954 1.376 . S
N958 C957 1.374 . S
N958 Co959 2.008 . S
Co959 N958 2.008 . S
Co959 N960 1.995 . S
Co959 N965 2.008 . S
Co959 N970 1.995 . S
Co959 N975 2.282 . S
Co959 N981 2.282 . S
N960 Co959 1.995 . S
N960 C961 1.376 . S
N960 C964 1.383 . S
C961 N960 1.376 . S
C961 C962 1.446 . S
C961 C991 1.391 . S
C962 C961 1.446 . S
C962 C963 1.339 . S
C962 H997 0.949 . S
C963 C962 1.339 . S
C963 C964 1.439 . S
C963 H998 0.950 . S
C964 N960 1.383 . S
C964 C963 1.439 . S
C964 C993 1.392 . S
N965 Co959 2.008 . S
N965 C966 1.376 . S
N965 C969 1.374 . S
C966 N965 1.376 . S
C966 C967 1.443 . S
C966 C993 1.389 . S
C967 C966 1.443 . S
C967 C968 1.340 . S
C967 H999 0.951 . S
C968 C967 1.340 . S
C968 C969 1.439 . S
C968 H1000 0.950 . S
C969 N965 1.374 . S
C969 C968 1.439 . S
C969 C994 1.395 . S
N970 Co959 1.995 . S
N970 C971 1.376 . S
N970 C974 1.383 . S
C971 N970 1.376 . S
C971 C972 1.446 . S
C971 C994 1.391 . S
C972 C971 1.446 . S
C972 C973 1.339 . S
C972 H1001 0.949 . S
C973 C972 1.339 . S
C973 C974 1.439 . S
C973 H1002 0.950 . S
C974 N970 1.383 . S
C974 C973 1.439 . S
C974 C992 1.392 . S
N975 Co959 2.282 . S
N975 C978 1.332 . S
N975 C980 1.332 . S
C976 C977 1.386 . S
C976 C979 1.388 . S
C977 C976 1.386 . S
C977 C978 1.382 . S
C977 H1003 0.950 . S
C978 N975 1.332 . S
C978 C977 1.382 . S
C978 H989 0.952 . S
C979 C976 1.388 . S
C979 C980 1.382 . S
C979 H1004 0.950 . S
C980 N975 1.332 . S
C980 C979 1.382 . S
C980 H990 0.948 . S
N981 Co959 2.282 . S
N981 C985 1.332 . S
N981 C986 1.332 . S
C982 C983 1.388 . S
C982 C986 1.382 . S
C982 H1005 0.950 . S
C983 C982 1.388 . S
C983 C984 1.386 . S
C984 C983 1.386 . S
C984 C985 1.382 . S
C984 H1006 0.950 . S
C985 N981 1.332 . S
C985 C984 1.382 . S
C985 H987 0.952 . S
C986 N981 1.332 . S
C986 C982 1.382 . S
C986 H988 0.948 . S
H987 C985 0.952 . S
H988 C986 0.948 . S
H989 C978 0.952 . S
H990 C980 0.948 . S
C991 C957 1.395 . S
C991 C961 1.391 . S
C992 C954 1.389 . S
C992 C974 1.392 . S
C993 C964 1.392 . S
C993 C966 1.389 . S
C994 C969 1.395 . S
C994 C971 1.391 . S
H995 C955 0.951 . S
H996 C956 0.950 . S
H997 C962 0.949 . S
H998 C963 0.950 . S
H999 C967 0.951 . S
H1000 C968 0.950 . S
H1001 C972 0.949 . S
H1002 C973 0.950 . S
H1003 C977 0.950 . S
H1004 C979 0.950 . S
H1005 C982 0.950 . S
H1006 C984 0.950 . S
C1007 C1008 1.443 . S
C1007 N1011 1.376 . S
C1007 C1045 1.389 . S
C1008 C1007 1.443 . S
C1008 C1009 1.340 . S
C1008 H1048 0.951 . S
C1009 C1008 1.340 . S
C1009 C1010 1.439 . S
C1009 H1049 0.950 . S
C1010 C1009 1.439 . S
C1010 N1011 1.374 . S
C1010 C1044 1.395 . S
N1011 C1007 1.376 . S
N1011 C1010 1.374 . S
N1011 Co1012 2.008 . S
Co1012 N1011 2.008 . S
Co1012 N1013 1.995 . S
Co1012 N1018 2.008 . S
Co1012 N1023 1.995 . S
Co1012 N1028 2.282 . S
Co1012 N1034 2.282 . S
N1013 Co1012 1.995 . S
N1013 C1014 1.376 . S
N1013 C1017 1.383 . S
C1014 N1013 1.376 . S
C1014 C1015 1.446 . S
C1014 C1044 1.391 . S
C1015 C1014 1.446 . S
C1015 C1016 1.339 . S
C1015 H1050 0.949 . S
C1016 C1015 1.339 . S
C1016 C1017 1.439 . S
C1016 H1051 0.950 . S
C1017 N1013 1.383 . S
C1017 C1016 1.439 . S
C1017 C1046 1.392 . S
N1018 Co1012 2.008 . S
N1018 C1019 1.376 . S
N1018 C1022 1.374 . S
C1019 N1018 1.376 . S
C1019 C1020 1.443 . S
C1019 C1046 1.389 . S
C1020 C1019 1.443 . S
C1020 C1021 1.340 . S
C1020 H1052 0.951 . S
C1021 C1020 1.340 . S
C1021 C1022 1.439 . S
C1021 H1053 0.950 . S
C1022 N1018 1.374 . S
C1022 C1021 1.439 . S
C1022 C1047 1.395 . S
N1023 Co1012 1.995 . S
N1023 C1024 1.376 . S
N1023 C1027 1.383 . S
C1024 N1023 1.376 . S
C1024 C1025 1.446 . S
C1024 C1047 1.391 . S
C1025 C1024 1.446 . S
C1025 C1026 1.339 . S
C1025 H1054 0.949 . S
C1026 C1025 1.339 . S
C1026 C1027 1.439 . S
C1026 H1055 0.950 . S
C1027 N1023 1.383 . S
C1027 C1026 1.439 . S
C1027 C1045 1.392 . S
N1028 Co1012 2.282 . S
N1028 C1031 1.332 . S
N1028 C1033 1.332 . S
C1029 C1030 1.386 . S
C1029 C1032 1.388 . S
C1030 C1029 1.386 . S
C1030 C1031 1.382 . S
C1030 H1056 0.950 . S
C1031 N1028 1.332 . S
C1031 C1030 1.382 . S
C1031 H1042 0.952 . S
C1032 C1029 1.388 . S
C1032 C1033 1.382 . S
C1032 H1057 0.950 . S
C1033 N1028 1.332 . S
C1033 C1032 1.382 . S
C1033 H1043 0.948 . S
N1034 Co1012 2.282 . S
N1034 C1038 1.332 . S
N1034 C1039 1.332 . S
C1035 C1036 1.388 . S
C1035 C1039 1.382 . S
C1035 H1058 0.950 . S
C1036 C1035 1.388 . S
C1036 C1037 1.386 . S
C1037 C1036 1.386 . S
C1037 C1038 1.382 . S
C1037 H1059 0.950 . S
C1038 N1034 1.332 . S
C1038 C1037 1.382 . S
C1038 H1040 0.952 . S
C1039 N1034 1.332 . S
C1039 C1035 1.382 . S
C1039 H1041 0.948 . S
H1040 C1038 0.952 . S
H1041 C1039 0.948 . S
H1042 C1031 0.952 . S
H1043 C1033 0.948 . S
C1044 C1010 1.395 . S
C1044 C1014 1.391 . S
C1045 C1007 1.389 . S
C1045 C1027 1.392 . S
C1046 C1017 1.392 . S
C1046 C1019 1.389 . S
C1047 C1022 1.395 . S
C1047 C1024 1.391 . S
H1048 C1008 0.951 . S
H1049 C1009 0.950 . S
H1050 C1015 0.949 . S
H1051 C1016 0.950 . S
H1052 C1020 0.951 . S
H1053 C1021 0.950 . S
H1054 C1025 0.949 . S
H1055 C1026 0.950 . S
H1056 C1030 0.950 . S
H1057 C1032 0.950 . S
H1058 C1035 0.950 . S
H1059 C1037 0.950 . S
C1060 C1061 1.443 . S
C1060 N1064 1.376 . S
C1060 C1098 1.389 . S
C1061 C1060 1.443 . S
C1061 C1062 1.340 . S
C1061 H1101 0.951 . S
C1062 C1061 1.340 . S
C1062 C1063 1.439 . S
C1062 H1102 0.950 . S
C1063 C1062 1.439 . S
C1063 N1064 1.374 . S
C1063 C1097 1.395 . S
N1064 C1060 1.376 . S
N1064 C1063 1.374 . S
N1064 Co1065 2.008 . S
Co1065 N1064 2.008 . S
Co1065 N1066 1.995 . S
Co1065 N1071 2.008 . S
Co1065 N1076 1.995 . S
Co1065 N1081 2.282 . S
Co1065 N1087 2.282 . S
N1066 Co1065 1.995 . S
N1066 C1067 1.376 . S
N1066 C1070 1.383 . S
C1067 N1066 1.376 . S
C1067 C1068 1.446 . S
C1067 C1097 1.391 . S
C1068 C1067 1.446 . S
C1068 C1069 1.339 . S
C1068 H1103 0.949 . S
C1069 C1068 1.339 . S
C1069 C1070 1.439 . S
C1069 H1104 0.950 . S
C1070 N1066 1.383 . S
C1070 C1069 1.439 . S
C1070 C1099 1.392 . S
N1071 Co1065 2.008 . S
N1071 C1072 1.376 . S
N1071 C1075 1.374 . S
C1072 N1071 1.376 . S
C1072 C1073 1.443 . S
C1072 C1099 1.389 . S
C1073 C1072 1.443 . S
C1073 C1074 1.340 . S
C1073 H1105 0.951 . S
C1074 C1073 1.340 . S
C1074 C1075 1.439 . S
C1074 H1106 0.950 . S
C1075 N1071 1.374 . S
C1075 C1074 1.439 . S
C1075 C1100 1.395 . S
N1076 Co1065 1.995 . S
N1076 C1077 1.376 . S
N1076 C1080 1.383 . S
C1077 N1076 1.376 . S
C1077 C1078 1.446 . S
C1077 C1100 1.391 . S
C1078 C1077 1.446 . S
C1078 C1079 1.339 . S
C1078 H1107 0.949 . S
C1079 C1078 1.339 . S
C1079 C1080 1.439 . S
C1079 H1108 0.950 . S
C1080 N1076 1.383 . S
C1080 C1079 1.439 . S
C1080 C1098 1.392 . S
N1081 Co1065 2.282 . S
N1081 C1084 1.332 . S
N1081 C1086 1.332 . S
C1082 C1083 1.386 . S
C1082 C1085 1.388 . S
C1083 C1082 1.386 . S
C1083 C1084 1.382 . S
C1083 H1109 0.950 . S
C1084 N1081 1.332 . S
C1084 C1083 1.382 . S
C1084 H1095 0.952 . S
C1085 C1082 1.388 . S
C1085 C1086 1.382 . S
C1085 H1110 0.950 . S
C1086 N1081 1.332 . S
C1086 C1085 1.382 . S
C1086 H1096 0.948 . S
N1087 Co1065 2.282 . S
N1087 C1091 1.332 . S
N1087 C1092 1.332 . S
C1088 C1089 1.388 . S
C1088 C1092 1.382 . S
C1088 H1111 0.950 . S
C1089 C1088 1.388 . S
C1089 C1090 1.386 . S
C1090 C1089 1.386 . S
C1090 C1091 1.382 . S
C1090 H1112 0.950 . S
C1091 N1087 1.332 . S
C1091 C1090 1.382 . S
C1091 H1093 0.952 . S
C1092 N1087 1.332 . S
C1092 C1088 1.382 . S
C1092 H1094 0.948 . S
H1093 C1091 0.952 . S
H1094 C1092 0.948 . S
H1095 C1084 0.952 . S
H1096 C1086 0.948 . S
C1097 C1063 1.395 . S
C1097 C1067 1.391 . S
C1098 C1060 1.389 . S
C1098 C1080 1.392 . S
C1099 C1070 1.392 . S
C1099 C1072 1.389 . S
C1100 C1075 1.395 . S
C1100 C1077 1.391 . S
H1101 C1061 0.951 . S
H1102 C1062 0.950 . S
H1103 C1068 0.949 . S
H1104 C1069 0.950 . S
H1105 C1073 0.951 . S
H1106 C1074 0.950 . S
H1107 C1078 0.949 . S
H1108 C1079 0.950 . S
H1109 C1083 0.950 . S
H1110 C1085 0.950 . S
H1111 C1088 0.950 . S
H1112 C1090 0.950 . S
C1113 C1114 1.443 . S
C1113 N1117 1.376 . S
C1113 C1151 1.389 . S
C1114 C1113 1.443 . S
C1114 C1115 1.340 . S
C1114 H1154 0.951 . S
C1115 C1114 1.340 . S
C1115 C1116 1.439 . S
C1115 H1155 0.950 . S
C1116 C1115 1.439 . S
C1116 N1117 1.374 . S
C1116 C1150 1.395 . S
N1117 C1113 1.376 . S
N1117 C1116 1.374 . S
N1117 Co1118 2.008 . S
Co1118 N1117 2.008 . S
Co1118 N1119 1.995 . S
Co1118 N1124 2.008 . S
Co1118 N1129 1.995 . S
Co1118 N1134 2.282 . S
Co1118 N1140 2.282 . S
N1119 Co1118 1.995 . S
N1119 C1120 1.376 . S
N1119 C1123 1.383 . S
C1120 N1119 1.376 . S
C1120 C1121 1.446 . S
C1120 C1150 1.391 . S
C1121 C1120 1.446 . S
C1121 C1122 1.339 . S
C1121 H1156 0.949 . S
C1122 C1121 1.339 . S
C1122 C1123 1.439 . S
C1122 H1157 0.950 . S
C1123 N1119 1.383 . S
C1123 C1122 1.439 . S
C1123 C1152 1.392 . S
N1124 Co1118 2.008 . S
N1124 C1125 1.376 . S
N1124 C1128 1.374 . S
C1125 N1124 1.376 . S
C1125 C1126 1.443 . S
C1125 C1152 1.389 . S
C1126 C1125 1.443 . S
C1126 C1127 1.340 . S
C1126 H1158 0.951 . S
C1127 C1126 1.340 . S
C1127 C1128 1.439 . S
C1127 H1159 0.950 . S
C1128 N1124 1.374 . S
C1128 C1127 1.439 . S
C1128 C1153 1.395 . S
N1129 Co1118 1.995 . S
N1129 C1130 1.376 . S
N1129 C1133 1.383 . S
C1130 N1129 1.376 . S
C1130 C1131 1.446 . S
C1130 C1153 1.391 . S
C1131 C1130 1.446 . S
C1131 C1132 1.339 . S
C1131 H1160 0.949 . S
C1132 C1131 1.339 . S
C1132 C1133 1.439 . S
C1132 H1161 0.950 . S
C1133 N1129 1.383 . S
C1133 C1132 1.439 . S
C1133 C1151 1.392 . S
N1134 Co1118 2.282 . S
N1134 C1137 1.332 . S
N1134 C1139 1.332 . S
C1135 C1136 1.386 . S
C1135 C1138 1.388 . S
C1136 C1135 1.386 . S
C1136 C1137 1.382 . S
C1136 H1162 0.950 . S
C1137 N1134 1.332 . S
C1137 C1136 1.382 . S
C1137 H1148 0.952 . S
C1138 C1135 1.388 . S
C1138 C1139 1.382 . S
C1138 H1163 0.950 . S
C1139 N1134 1.332 . S
C1139 C1138 1.382 . S
C1139 H1149 0.948 . S
N1140 Co1118 2.282 . S
N1140 C1144 1.332 . S
N1140 C1145 1.332 . S
C1141 C1142 1.388 . S
C1141 C1145 1.382 . S
C1141 H1164 0.950 . S
C1142 C1141 1.388 . S
C1142 C1143 1.386 . S
C1143 C1142 1.386 . S
C1143 C1144 1.382 . S
C1143 H1165 0.950 . S
C1144 N1140 1.332 . S
C1144 C1143 1.382 . S
C1144 H1146 0.952 . S
C1145 N1140 1.332 . S
C1145 C1141 1.382 . S
C1145 H1147 0.948 . S
H1146 C1144 0.952 . S
H1147 C1145 0.948 . S
H1148 C1137 0.952 . S
H1149 C1139 0.948 . S
C1150 C1116 1.395 . S
C1150 C1120 1.391 . S
C1151 C1113 1.389 . S
C1151 C1133 1.392 . S
C1152 C1123 1.392 . S
C1152 C1125 1.389 . S
C1153 C1128 1.395 . S
C1153 C1130 1.391 . S
H1154 C1114 0.951 . S
H1155 C1115 0.950 . S
H1156 C1121 0.949 . S
H1157 C1122 0.950 . S
H1158 C1126 0.951 . S
H1159 C1127 0.950 . S
H1160 C1131 0.949 . S
H1161 C1132 0.950 . S
H1162 C1136 0.950 . S
H1163 C1138 0.950 . S
H1164 C1141 0.950 . S
H1165 C1143 0.950 . S
C1166 C1167 1.443 . S
C1166 N1170 1.376 . S
C1166 C1204 1.389 . S
C1167 C1166 1.443 . S
C1167 C1168 1.340 . S
C1167 H1207 0.951 . S
C1168 C1167 1.340 . S
C1168 C1169 1.439 . S
C1168 H1208 0.950 . S
C1169 C1168 1.439 . S
C1169 N1170 1.374 . S
C1169 C1203 1.395 . S
N1170 C1166 1.376 . S
N1170 C1169 1.374 . S
N1170 Co1171 2.008 . S
Co1171 N1170 2.008 . S
Co1171 N1172 1.995 . S
Co1171 N1177 2.008 . S
Co1171 N1182 1.995 . S
Co1171 N1187 2.282 . S
Co1171 N1193 2.282 . S
N1172 Co1171 1.995 . S
N1172 C1173 1.376 . S
N1172 C1176 1.383 . S
C1173 N1172 1.376 . S
C1173 C1174 1.446 . S
C1173 C1203 1.391 . S
C1174 C1173 1.446 . S
C1174 C1175 1.339 . S
C1174 H1209 0.949 . S
C1175 C1174 1.339 . S
C1175 C1176 1.439 . S
C1175 H1210 0.950 . S
C1176 N1172 1.383 . S
C1176 C1175 1.439 . S
C1176 C1205 1.392 . S
N1177 Co1171 2.008 . S
N1177 C1178 1.376 . S
N1177 C1181 1.374 . S
C1178 N1177 1.376 . S
C1178 C1179 1.443 . S
C1178 C1205 1.389 . S
C1179 C1178 1.443 . S
C1179 C1180 1.340 . S
C1179 H1211 0.951 . S
C1180 C1179 1.340 . S
C1180 C1181 1.439 . S
C1180 H1212 0.950 . S
C1181 N1177 1.374 . S
C1181 C1180 1.439 . S
C1181 C1206 1.395 . S
N1182 Co1171 1.995 . S
N1182 C1183 1.376 . S
N1182 C1186 1.383 . S
C1183 N1182 1.376 . S
C1183 C1184 1.446 . S
C1183 C1206 1.391 . S
C1184 C1183 1.446 . S
C1184 C1185 1.339 . S
C1184 H1213 0.949 . S
C1185 C1184 1.339 . S
C1185 C1186 1.439 . S
C1185 H1214 0.950 . S
C1186 N1182 1.383 . S
C1186 C1185 1.439 . S
C1186 C1204 1.392 . S
N1187 Co1171 2.282 . S
N1187 C1190 1.332 . S
N1187 C1192 1.332 . S
C1188 C1189 1.386 . S
C1188 C1191 1.388 . S
C1189 C1188 1.386 . S
C1189 C1190 1.382 . S
C1189 H1215 0.950 . S
C1190 N1187 1.332 . S
C1190 C1189 1.382 . S
C1190 H1201 0.952 . S
C1191 C1188 1.388 . S
C1191 C1192 1.382 . S
C1191 H1216 0.950 . S
C1192 N1187 1.332 . S
C1192 C1191 1.382 . S
C1192 H1202 0.948 . S
N1193 Co1171 2.282 . S
N1193 C1197 1.332 . S
N1193 C1198 1.332 . S
C1194 C1195 1.388 . S
C1194 C1198 1.382 . S
C1194 H1217 0.950 . S
C1195 C1194 1.388 . S
C1195 C1196 1.386 . S
C1196 C1195 1.386 . S
C1196 C1197 1.382 . S
C1196 H1218 0.950 . S
C1197 N1193 1.332 . S
C1197 C1196 1.382 . S
C1197 H1199 0.952 . S
C1198 N1193 1.332 . S
C1198 C1194 1.382 . S
C1198 H1200 0.948 . S
H1199 C1197 0.952 . S
H1200 C1198 0.948 . S
H1201 C1190 0.952 . S
H1202 C1192 0.948 . S
C1203 C1169 1.395 . S
C1203 C1173 1.391 . S
C1204 C1166 1.389 . S
C1204 C1186 1.392 . S
C1205 C1176 1.392 . S
C1205 C1178 1.389 . S
C1206 C1181 1.395 . S
C1206 C1183 1.391 . S
H1207 C1167 0.951 . S
H1208 C1168 0.950 . S
H1209 C1174 0.949 . S
H1210 C1175 0.950 . S
H1211 C1179 0.951 . S
H1212 C1180 0.950 . S
H1213 C1184 0.949 . S
H1214 C1185 0.950 . S
H1215 C1189 0.950 . S
H1216 C1191 0.950 . S
H1217 C1194 0.950 . S
H1218 C1196 0.950 . S
C1219 C1220 1.443 . S
C1219 N1223 1.376 . S
C1219 C1257 1.389 . S
C1220 C1219 1.443 . S
C1220 C1221 1.340 . S
C1220 H1260 0.951 . S
C1221 C1220 1.340 . S
C1221 C1222 1.439 . S
C1221 H1261 0.950 . S
C1222 C1221 1.439 . S
C1222 N1223 1.374 . S
C1222 C1256 1.395 . S
N1223 C1219 1.376 . S
N1223 C1222 1.374 . S
N1223 Co1224 2.008 . S
Co1224 N1223 2.008 . S
Co1224 N1225 1.995 . S
Co1224 N1230 2.008 . S
Co1224 N1235 1.995 . S
Co1224 N1240 2.282 . S
Co1224 N1246 2.282 . S
N1225 Co1224 1.995 . S
N1225 C1226 1.376 . S
N1225 C1229 1.383 . S
C1226 N1225 1.376 . S
C1226 C1227 1.446 . S
C1226 C1256 1.391 . S
C1227 C1226 1.446 . S
C1227 C1228 1.339 . S
C1227 H1262 0.949 . S
C1228 C1227 1.339 . S
C1228 C1229 1.439 . S
C1228 H1263 0.950 . S
C1229 N1225 1.383 . S
C1229 C1228 1.439 . S
C1229 C1258 1.392 . S
N1230 Co1224 2.008 . S
N1230 C1231 1.376 . S
N1230 C1234 1.374 . S
C1231 N1230 1.376 . S
C1231 C1232 1.443 . S
C1231 C1258 1.389 . S
C1232 C1231 1.443 . S
C1232 C1233 1.340 . S
C1232 H1264 0.951 . S
C1233 C1232 1.340 . S
C1233 C1234 1.439 . S
C1233 H1265 0.950 . S
C1234 N1230 1.374 . S
C1234 C1233 1.439 . S
C1234 C1259 1.395 . S
N1235 Co1224 1.995 . S
N1235 C1236 1.376 . S
N1235 C1239 1.383 . S
C1236 N1235 1.376 . S
C1236 C1237 1.446 . S
C1236 C1259 1.391 . S
C1237 C1236 1.446 . S
C1237 C1238 1.339 . S
C1237 H1266 0.949 . S
C1238 C1237 1.339 . S
C1238 C1239 1.439 . S
C1238 H1267 0.950 . S
C1239 N1235 1.383 . S
C1239 C1238 1.439 . S
C1239 C1257 1.392 . S
N1240 Co1224 2.282 . S
N1240 C1243 1.332 . S
N1240 C1245 1.332 . S
C1241 C1242 1.386 . S
C1241 C1244 1.388 . S
C1242 C1241 1.386 . S
C1242 C1243 1.382 . S
C1242 H1268 0.950 . S
C1243 N1240 1.332 . S
C1243 C1242 1.382 . S
C1243 H1254 0.952 . S
C1244 C1241 1.388 . S
C1244 C1245 1.382 . S
C1244 H1269 0.950 . S
C1245 N1240 1.332 . S
C1245 C1244 1.382 . S
C1245 H1255 0.948 . S
N1246 Co1224 2.282 . S
N1246 C1250 1.332 . S
N1246 C1251 1.332 . S
C1247 C1248 1.388 . S
C1247 C1251 1.382 . S
C1247 H1270 0.950 . S
C1248 C1247 1.388 . S
C1248 C1249 1.386 . S
C1249 C1248 1.386 . S
C1249 C1250 1.382 . S
C1249 H1271 0.950 . S
C1250 N1246 1.332 . S
C1250 C1249 1.382 . S
C1250 H1252 0.952 . S
C1251 N1246 1.332 . S
C1251 C1247 1.382 . S
C1251 H1253 0.948 . S
H1252 C1250 0.952 . S
H1253 C1251 0.948 . S
H1254 C1243 0.952 . S
H1255 C1245 0.948 . S
C1256 C1222 1.395 . S
C1256 C1226 1.391 . S
C1257 C1219 1.389 . S
C1257 C1239 1.392 . S
C1258 C1229 1.392 . S
C1258 C1231 1.389 . S
C1259 C1234 1.395 . S
C1259 C1236 1.391 . S
H1260 C1220 0.951 . S
H1261 C1221 0.950 . S
H1262 C1227 0.949 . S
H1263 C1228 0.950 . S
H1264 C1232 0.951 . S
H1265 C1233 0.950 . S
H1266 C1237 0.949 . S
H1267 C1238 0.950 . S
H1268 C1242 0.950 . S
H1269 C1244 0.950 . S
H1270 C1247 0.950 . S
H1271 C1249 0.950 . S
C1272 C1273 1.443 . S
C1272 N1276 1.376 . S
C1272 C1310 1.389 . S
C1273 C1272 1.443 . S
C1273 C1274 1.340 . S
C1273 H1313 0.951 . S
C1274 C1273 1.340 . S
C1274 C1275 1.439 . S
C1274 H1314 0.950 . S
C1275 C1274 1.439 . S
C1275 N1276 1.374 . S
C1275 C1309 1.395 1_554 S
N1276 C1272 1.376 . S
N1276 C1275 1.374 . S
N1276 Co1277 2.008 . S
Co1277 N1276 2.008 . S
Co1277 N1278 1.995 1_554 S
Co1277 N1283 2.008 1_554 S
Co1277 N1288 1.995 . S
Co1277 N1293 2.282 . S
Co1277 N1299 2.282 . S
N1278 Co1277 1.995 1_556 S
N1278 C1279 1.376 . S
N1278 C1282 1.383 . S
C1279 N1278 1.376 . S
C1279 C1280 1.446 . S
C1279 C1309 1.391 . S
C1280 C1279 1.446 . S
C1280 C1281 1.339 . S
C1280 H1315 0.949 . S
C1281 C1280 1.339 . S
C1281 C1282 1.439 . S
C1281 H1316 0.950 . S
C1282 N1278 1.383 . S
C1282 C1281 1.439 . S
C1282 C1311 1.392 . S
N1283 Co1277 2.008 1_556 S
N1283 C1284 1.376 . S
N1283 C1287 1.374 1_556 S
C1284 N1283 1.376 . S
C1284 C1285 1.443 . S
C1284 C1311 1.389 . S
C1285 C1284 1.443 . S
C1285 C1286 1.340 . S
C1285 H1317 0.951 . S
C1286 C1285 1.340 . S
C1286 C1287 1.439 1_556 S
C1286 H1318 0.950 . S
C1287 N1283 1.374 1_554 S
C1287 C1286 1.439 1_554 S
C1287 C1312 1.395 . S
N1288 Co1277 1.995 . S
N1288 C1289 1.376 . S
N1288 C1292 1.383 . S
C1289 N1288 1.376 . S
C1289 C1290 1.446 . S
C1289 C1312 1.391 . S
C1290 C1289 1.446 . S
C1290 C1291 1.339 . S
C1290 H1319 0.949 . S
C1291 C1290 1.339 . S
C1291 C1292 1.439 . S
C1291 H1320 0.950 . S
C1292 N1288 1.383 . S
C1292 C1291 1.439 . S
C1292 C1310 1.392 . S
N1293 Co1277 2.282 . S
N1293 C1296 1.332 . S
N1293 C1298 1.332 1_554 S
C1294 C1295 1.386 . S
C1294 C1297 1.388 1_554 S
C1295 C1294 1.386 . S
C1295 C1296 1.382 . S
C1295 H1321 0.950 . S
C1296 N1293 1.332 . S
C1296 C1295 1.382 . S
C1296 H1307 0.952 . S
C1297 C1294 1.388 1_556 S
C1297 C1298 1.382 . S
C1297 H1322 0.950 . S
C1298 N1293 1.332 1_556 S
C1298 C1297 1.382 . S
C1298 H1308 0.948 . S
N1299 Co1277 2.282 . S
N1299 C1303 1.332 1_554 S
N1299 C1304 1.332 . S
C1300 C1301 1.388 . S
C1300 C1304 1.382 . S
C1300 H1323 0.950 . S
C1301 C1300 1.388 . S
C1301 C1302 1.386 1_554 S
C1302 C1301 1.386 1_556 S
C1302 C1303 1.382 . S
C1302 H1324 0.950 . S
C1303 N1299 1.332 1_556 S
C1303 C1302 1.382 . S
C1303 H1305 0.952 . S
C1304 N1299 1.332 . S
C1304 C1300 1.382 . S
C1304 H1306 0.948 . S
H1305 C1303 0.952 . S
H1306 C1304 0.948 . S
H1307 C1296 0.952 . S
H1308 C1298 0.948 . S
C1309 C1275 1.395 1_556 S
C1309 C1279 1.391 . S
C1310 C1272 1.389 . S
C1310 C1292 1.392 . S
C1311 C1282 1.392 . S
C1311 C1284 1.389 . S
C1312 C1287 1.395 . S
C1312 C1289 1.391 . S
H1313 C1273 0.951 . S
H1314 C1274 0.950 . S
H1315 C1280 0.949 . S
H1316 C1281 0.950 . S
H1317 C1285 0.951 . S
H1318 C1286 0.950 . S
H1319 C1290 0.949 . S
H1320 C1291 0.950 . S
H1321 C1295 0.950 . S
H1322 C1297 0.950 . S
H1323 C1300 0.950 . S
H1324 C1302 0.950 . S
C1325 C1326 1.443 . S
C1325 N1329 1.376 . S
C1325 C1363 1.389 . S
C1326 C1325 1.443 . S
C1326 C1327 1.340 . S
C1326 H1366 0.951 . S
C1327 C1326 1.340 . S
C1327 C1328 1.439 . S
C1327 H1367 0.950 . S
C1328 C1327 1.439 . S
C1328 N1329 1.374 . S
C1328 C1362 1.395 1_554 S
N1329 C1325 1.376 . S
N1329 C1328 1.374 . S
N1329 Co1330 2.008 . S
Co1330 N1329 2.008 . S
Co1330 N1331 1.995 1_554 S
Co1330 N1336 2.008 1_554 S
Co1330 N1341 1.995 . S
Co1330 N1346 2.282 . S
Co1330 N1352 2.282 . S
N1331 Co1330 1.995 1_556 S
N1331 C1332 1.376 . S
N1331 C1335 1.383 . S
C1332 N1331 1.376 . S
C1332 C1333 1.446 . S
C1332 C1362 1.391 . S
C1333 C1332 1.446 . S
C1333 C1334 1.339 . S
C1333 H1368 0.949 . S
C1334 C1333 1.339 . S
C1334 C1335 1.439 . S
C1334 H1369 0.950 . S
C1335 N1331 1.383 . S
C1335 C1334 1.439 . S
C1335 C1364 1.392 . S
N1336 Co1330 2.008 1_556 S
N1336 C1337 1.376 . S
N1336 C1340 1.374 1_556 S
C1337 N1336 1.376 . S
C1337 C1338 1.443 . S
C1337 C1364 1.389 . S
C1338 C1337 1.443 . S
C1338 C1339 1.340 . S
C1338 H1370 0.951 . S
C1339 C1338 1.340 . S
C1339 C1340 1.439 1_556 S
C1339 H1371 0.950 . S
C1340 N1336 1.374 1_554 S
C1340 C1339 1.439 1_554 S
C1340 C1365 1.395 . S
N1341 Co1330 1.995 . S
N1341 C1342 1.376 . S
N1341 C1345 1.383 . S
C1342 N1341 1.376 . S
C1342 C1343 1.446 . S
C1342 C1365 1.391 . S
C1343 C1342 1.446 . S
C1343 C1344 1.339 . S
C1343 H1372 0.949 . S
C1344 C1343 1.339 . S
C1344 C1345 1.439 . S
C1344 H1373 0.950 . S
C1345 N1341 1.383 . S
C1345 C1344 1.439 . S
C1345 C1363 1.392 . S
N1346 Co1330 2.282 . S
N1346 C1349 1.332 . S
N1346 C1351 1.332 1_554 S
C1347 C1348 1.386 . S
C1347 C1350 1.388 1_554 S
C1348 C1347 1.386 . S
C1348 C1349 1.382 . S
C1348 H1374 0.950 . S
C1349 N1346 1.332 . S
C1349 C1348 1.382 . S
C1349 H1360 0.952 . S
C1350 C1347 1.388 1_556 S
C1350 C1351 1.382 . S
C1350 H1375 0.950 . S
C1351 N1346 1.332 1_556 S
C1351 C1350 1.382 . S
C1351 H1361 0.948 . S
N1352 Co1330 2.282 . S
N1352 C1356 1.332 1_554 S
N1352 C1357 1.332 . S
C1353 C1354 1.388 . S
C1353 C1357 1.382 . S
C1353 H1376 0.950 . S
C1354 C1353 1.388 . S
C1354 C1355 1.386 1_554 S
C1355 C1354 1.386 1_556 S
C1355 C1356 1.382 . S
C1355 H1377 0.950 . S
C1356 N1352 1.332 1_556 S
C1356 C1355 1.382 . S
C1356 H1358 0.952 . S
C1357 N1352 1.332 . S
C1357 C1353 1.382 . S
C1357 H1359 0.948 . S
H1358 C1356 0.952 . S
H1359 C1357 0.948 . S
H1360 C1349 0.952 . S
H1361 C1351 0.948 . S
C1362 C1328 1.395 1_556 S
C1362 C1332 1.391 . S
C1363 C1325 1.389 . S
C1363 C1345 1.392 . S
C1364 C1335 1.392 . S
C1364 C1337 1.389 . S
C1365 C1340 1.395 . S
C1365 C1342 1.391 . S
H1366 C1326 0.951 . S
H1367 C1327 0.950 . S
H1368 C1333 0.949 . S
H1369 C1334 0.950 . S
H1370 C1338 0.951 . S
H1371 C1339 0.950 . S
H1372 C1343 0.949 . S
H1373 C1344 0.950 . S
H1374 C1348 0.950 . S
H1375 C1350 0.950 . S
H1376 C1353 0.950 . S
H1377 C1355 0.950 . S
C1378 C1379 1.443 . S
C1378 N1382 1.376 . S
C1378 C1416 1.389 . S
C1379 C1378 1.443 . S
C1379 C1380 1.340 . S
C1379 H1419 0.951 . S
C1380 C1379 1.340 . S
C1380 C1381 1.439 . S
C1380 H1420 0.950 . S
C1381 C1380 1.439 . S
C1381 N1382 1.374 . S
C1381 C1415 1.395 . S
N1382 C1378 1.376 . S
N1382 C1381 1.374 . S
N1382 Co1383 2.008 . S
Co1383 N1382 2.008 . S
Co1383 N1384 1.995 . S
Co1383 N1389 2.008 . S
Co1383 N1394 1.995 . S
Co1383 N1399 2.282 . S
Co1383 N1405 2.282 . S
N1384 Co1383 1.995 . S
N1384 C1385 1.376 . S
N1384 C1388 1.383 . S
C1385 N1384 1.376 . S
C1385 C1386 1.446 . S
C1385 C1415 1.391 . S
C1386 C1385 1.446 . S
C1386 C1387 1.339 . S
C1386 H1421 0.949 . S
C1387 C1386 1.339 . S
C1387 C1388 1.439 . S
C1387 H1422 0.950 . S
C1388 N1384 1.383 . S
C1388 C1387 1.439 . S
C1388 C1417 1.392 . S
N1389 Co1383 2.008 . S
N1389 C1390 1.376 . S
N1389 C1393 1.374 . S
C1390 N1389 1.376 . S
C1390 C1391 1.443 . S
C1390 C1417 1.389 . S
C1391 C1390 1.443 . S
C1391 C1392 1.340 . S
C1391 H1423 0.951 . S
C1392 C1391 1.340 . S
C1392 C1393 1.439 . S
C1392 H1424 0.950 . S
C1393 N1389 1.374 . S
C1393 C1392 1.439 . S
C1393 C1418 1.395 . S
N1394 Co1383 1.995 . S
N1394 C1395 1.376 . S
N1394 C1398 1.383 . S
C1395 N1394 1.376 . S
C1395 C1396 1.446 . S
C1395 C1418 1.391 . S
C1396 C1395 1.446 . S
C1396 C1397 1.339 . S
C1396 H1425 0.949 . S
C1397 C1396 1.339 . S
C1397 C1398 1.439 . S
C1397 H1426 0.950 . S
C1398 N1394 1.383 . S
C1398 C1397 1.439 . S
C1398 C1416 1.392 . S
N1399 Co1383 2.282 . S
N1399 C1402 1.332 . S
N1399 C1404 1.332 . S
C1400 C1401 1.386 . S
C1400 C1403 1.388 . S
C1401 C1400 1.386 . S
C1401 C1402 1.382 . S
C1401 H1427 0.950 . S
C1402 N1399 1.332 . S
C1402 C1401 1.382 . S
C1402 H1413 0.952 . S
C1403 C1400 1.388 . S
C1403 C1404 1.382 . S
C1403 H1428 0.950 . S
C1404 N1399 1.332 . S
C1404 C1403 1.382 . S
C1404 H1414 0.948 . S
N1405 Co1383 2.282 . S
N1405 C1409 1.332 . S
N1405 C1410 1.332 . S
C1406 C1407 1.388 . S
C1406 C1410 1.382 . S
C1406 H1429 0.950 . S
C1407 C1406 1.388 . S
C1407 C1408 1.386 . S
C1408 C1407 1.386 . S
C1408 C1409 1.382 . S
C1408 H1430 0.950 . S
C1409 N1405 1.332 . S
C1409 C1408 1.382 . S
C1409 H1411 0.952 . S
C1410 N1405 1.332 . S
C1410 C1406 1.382 . S
C1410 H1412 0.948 . S
H1411 C1409 0.952 . S
H1412 C1410 0.948 . S
H1413 C1402 0.952 . S
H1414 C1404 0.948 . S
C1415 C1381 1.395 . S
C1415 C1385 1.391 . S
C1416 C1378 1.389 . S
C1416 C1398 1.392 . S
C1417 C1388 1.392 . S
C1417 C1390 1.389 . S
C1418 C1393 1.395 . S
C1418 C1395 1.391 . S
H1419 C1379 0.951 . S
H1420 C1380 0.950 . S
H1421 C1386 0.949 . S
H1422 C1387 0.950 . S
H1423 C1391 0.951 . S
H1424 C1392 0.950 . S
H1425 C1396 0.949 . S
H1426 C1397 0.950 . S
H1427 C1401 0.950 . S
H1428 C1403 0.950 . S
H1429 C1406 0.950 . S
H1430 C1408 0.950 . S
C1431 C1432 1.443 . S
C1431 N1435 1.376 . S
C1431 C1469 1.389 . S
C1432 C1431 1.443 . S
C1432 C1433 1.340 . S
C1432 H1472 0.951 . S
C1433 C1432 1.340 . S
C1433 C1434 1.439 . S
C1433 H1473 0.950 . S
C1434 C1433 1.439 . S
C1434 N1435 1.374 . S
C1434 C1468 1.395 . S
N1435 C1431 1.376 . S
N1435 C1434 1.374 . S
N1435 Co1436 2.008 . S
Co1436 N1435 2.008 . S
Co1436 N1437 1.995 . S
Co1436 N1442 2.008 . S
Co1436 N1447 1.995 . S
Co1436 N1452 2.282 . S
Co1436 N1458 2.282 . S
N1437 Co1436 1.995 . S
N1437 C1438 1.376 . S
N1437 C1441 1.383 . S
C1438 N1437 1.376 . S
C1438 C1439 1.446 . S
C1438 C1468 1.391 . S
C1439 C1438 1.446 . S
C1439 C1440 1.339 . S
C1439 H1474 0.949 . S
C1440 C1439 1.339 . S
C1440 C1441 1.439 . S
C1440 H1475 0.950 . S
C1441 N1437 1.383 . S
C1441 C1440 1.439 . S
C1441 C1470 1.392 . S
N1442 Co1436 2.008 . S
N1442 C1443 1.376 . S
N1442 C1446 1.374 . S
C1443 N1442 1.376 . S
C1443 C1444 1.443 . S
C1443 C1470 1.389 . S
C1444 C1443 1.443 . S
C1444 C1445 1.340 . S
C1444 H1476 0.951 . S
C1445 C1444 1.340 . S
C1445 C1446 1.439 . S
C1445 H1477 0.950 . S
C1446 N1442 1.374 . S
C1446 C1445 1.439 . S
C1446 C1471 1.395 . S
N1447 Co1436 1.995 . S
N1447 C1448 1.376 . S
N1447 C1451 1.383 . S
C1448 N1447 1.376 . S
C1448 C1449 1.446 . S
C1448 C1471 1.391 . S
C1449 C1448 1.446 . S
C1449 C1450 1.339 . S
C1449 H1478 0.949 . S
C1450 C1449 1.339 . S
C1450 C1451 1.439 . S
C1450 H1479 0.950 . S
C1451 N1447 1.383 . S
C1451 C1450 1.439 . S
C1451 C1469 1.392 . S
N1452 Co1436 2.282 . S
N1452 C1455 1.332 . S
N1452 C1457 1.332 . S
C1453 C1454 1.386 . S
C1453 C1456 1.388 . S
C1454 C1453 1.386 . S
C1454 C1455 1.382 . S
C1454 H1480 0.950 . S
C1455 N1452 1.332 . S
C1455 C1454 1.382 . S
C1455 H1466 0.952 . S
C1456 C1453 1.388 . S
C1456 C1457 1.382 . S
C1456 H1481 0.950 . S
C1457 N1452 1.332 . S
C1457 C1456 1.382 . S
C1457 H1467 0.948 . S
N1458 Co1436 2.282 . S
N1458 C1462 1.332 . S
N1458 C1463 1.332 . S
C1459 C1460 1.388 . S
C1459 C1463 1.382 . S
C1459 H1482 0.950 . S
C1460 C1459 1.388 . S
C1460 C1461 1.386 . S
C1461 C1460 1.386 . S
C1461 C1462 1.382 . S
C1461 H1483 0.950 . S
C1462 N1458 1.332 . S
C1462 C1461 1.382 . S
C1462 H1464 0.952 . S
C1463 N1458 1.332 . S
C1463 C1459 1.382 . S
C1463 H1465 0.948 . S
H1464 C1462 0.952 . S
H1465 C1463 0.948 . S
H1466 C1455 0.952 . S
H1467 C1457 0.948 . S
C1468 C1434 1.395 . S
C1468 C1438 1.391 . S
C1469 C1431 1.389 . S
C1469 C1451 1.392 . S
C1470 C1441 1.392 . S
C1470 C1443 1.389 . S
C1471 C1446 1.395 . S
C1471 C1448 1.391 . S
H1472 C1432 0.951 . S
H1473 C1433 0.950 . S
H1474 C1439 0.949 . S
H1475 C1440 0.950 . S
H1476 C1444 0.951 . S
H1477 C1445 0.950 . S
H1478 C1449 0.949 . S
H1479 C1450 0.950 . S
H1480 C1454 0.950 . S
H1481 C1456 0.950 . S
H1482 C1459 0.950 . S
H1483 C1461 0.950 . S
C1484 C1485 1.443 . S
C1484 N1488 1.376 . S
C1484 C1522 1.389 . S
C1485 C1484 1.443 . S
C1485 C1486 1.340 . S
C1485 H1525 0.951 . S
C1486 C1485 1.340 . S
C1486 C1487 1.439 . S
C1486 H1526 0.950 . S
C1487 C1486 1.439 . S
C1487 N1488 1.374 . S
C1487 C1521 1.395 . S
N1488 C1484 1.376 . S
N1488 C1487 1.374 . S
N1488 Co1489 2.008 . S
Co1489 N1488 2.008 . S
Co1489 N1490 1.995 1_556 S
Co1489 N1495 2.008 1_556 S
Co1489 N1500 1.995 . S
Co1489 N1505 2.282 . S
Co1489 N1511 2.283 . S
N1490 Co1489 1.995 1_554 S
N1490 C1491 1.376 1_554 S
N1490 C1494 1.383 . S
C1491 N1490 1.376 1_556 S
C1491 C1492 1.446 1_556 S
C1491 C1521 1.391 . S
C1492 C1491 1.446 1_554 S
C1492 C1493 1.339 . S
C1492 H1527 0.949 . S
C1493 C1492 1.339 . S
C1493 C1494 1.439 . S
C1493 H1528 0.950 . S
C1494 N1490 1.383 . S
C1494 C1493 1.439 . S
C1494 C1523 1.392 . S
N1495 Co1489 2.008 1_554 S
N1495 C1496 1.376 . S
N1495 C1499 1.374 . S
C1496 N1495 1.376 . S
C1496 C1497 1.443 . S
C1496 C1523 1.389 . S
C1497 C1496 1.443 . S
C1497 C1498 1.340 . S
C1497 H1529 0.951 . S
C1498 C1497 1.340 . S
C1498 C1499 1.439 . S
C1498 H1530 0.950 . S
C1499 N1495 1.374 . S
C1499 C1498 1.439 . S
C1499 C1524 1.395 . S
N1500 Co1489 1.995 . S
N1500 C1501 1.376 . S
N1500 C1504 1.383 . S
C1501 N1500 1.376 . S
C1501 C1502 1.446 . S
C1501 C1524 1.391 1_556 S
C1502 C1501 1.446 . S
C1502 C1503 1.339 . S
C1502 H1531 0.949 . S
C1503 C1502 1.339 . S
C1503 C1504 1.439 . S
C1503 H1532 0.950 . S
C1504 N1500 1.383 . S
C1504 C1503 1.439 . S
C1504 C1522 1.392 . S
N1505 Co1489 2.282 . S
N1505 C1508 1.332 . S
N1505 C1510 1.332 . S
C1506 C1507 1.389 . S
C1506 C1509 1.388 . S
C1507 C1506 1.389 . S
C1507 C1508 1.388 . S
C1507 H1533 0.943 1_556 S
C1508 N1505 1.332 . S
C1508 C1507 1.388 . S
C1508 H1519 0.952 . S
C1509 C1506 1.388 . S
C1509 C1510 1.382 . S
C1509 H1534 0.950 . S
C1510 N1505 1.332 . S
C1510 C1509 1.382 . S
C1510 H1520 0.948 . S
N1511 Co1489 2.283 . S
N1511 C1515 1.334 . S
N1511 C1516 1.331 1_556 S
C1512 C1513 1.388 . S
C1512 C1516 1.379 1_556 S
C1512 H1535 0.952 . S
C1513 C1512 1.388 . S
C1513 C1514 1.386 . S
C1514 C1513 1.386 . S
C1514 C1515 1.382 . S
C1514 H1536 0.950 . S
C1515 N1511 1.334 . S
C1515 C1514 1.382 . S
C1515 H1517 0.952 . S
C1516 N1511 1.331 1_554 S
C1516 C1512 1.379 1_554 S
C1516 H1518 0.955 . S
H1517 C1515 0.952 . S
H1518 C1516 0.955 . S
H1519 C1508 0.952 . S
H1520 C1510 0.948 . S
C1521 C1487 1.395 . S
C1521 C1491 1.391 . S
C1522 C1484 1.389 . S
C1522 C1504 1.392 . S
C1523 C1494 1.392 . S
C1523 C1496 1.389 . S
C1524 C1499 1.395 . S
C1524 C1501 1.391 1_554 S
H1525 C1485 0.951 . S
H1526 C1486 0.950 . S
H1527 C1492 0.949 . S
H1528 C1493 0.950 . S
H1529 C1497 0.951 . S
H1530 C1498 0.950 . S
H1531 C1502 0.949 . S
H1532 C1503 0.950 . S
H1533 C1507 0.943 1_554 S
H1534 C1509 0.950 . S
H1535 C1512 0.952 . S
H1536 C1514 0.950 . S
C1537 C1538 1.443 . S
C1537 N1541 1.376 . S
C1537 C1575 1.389 . S
C1538 C1537 1.443 . S
C1538 C1539 1.340 . S
C1538 H1578 0.951 . S
C1539 C1538 1.340 . S
C1539 C1540 1.439 . S
C1539 H1579 0.950 . S
C1540 C1539 1.439 . S
C1540 N1541 1.374 . S
C1540 C1574 1.395 . S
N1541 C1537 1.376 . S
N1541 C1540 1.374 . S
N1541 Co1542 2.008 . S
Co1542 N1541 2.008 . S
Co1542 N1543 1.995 1_556 S
Co1542 N1548 2.008 1_556 S
Co1542 N1553 1.995 . S
Co1542 N1558 2.282 . S
Co1542 N1564 2.284 . S
N1543 Co1542 1.995 1_554 S
N1543 C1544 1.376 1_554 S
N1543 C1547 1.383 . S
C1544 N1543 1.376 1_556 S
C1544 C1545 1.446 1_556 S
C1544 C1574 1.391 . S
C1545 C1544 1.446 1_554 S
C1545 C1546 1.339 . S
C1545 H1580 0.949 . S
C1546 C1545 1.339 . S
C1546 C1547 1.439 . S
C1546 H1581 0.950 . S
C1547 N1543 1.383 . S
C1547 C1546 1.439 . S
C1547 C1576 1.392 . S
N1548 Co1542 2.008 1_554 S
N1548 C1549 1.376 . S
N1548 C1552 1.374 . S
C1549 N1548 1.376 . S
C1549 C1550 1.443 . S
C1549 C1576 1.389 . S
C1550 C1549 1.443 . S
C1550 C1551 1.340 . S
C1550 H1582 0.951 . S
C1551 C1550 1.340 . S
C1551 C1552 1.439 . S
C1551 H1583 0.950 . S
C1552 N1548 1.374 . S
C1552 C1551 1.439 . S
C1552 C1577 1.395 . S
N1553 Co1542 1.995 . S
N1553 C1554 1.376 . S
N1553 C1557 1.383 . S
C1554 N1553 1.376 . S
C1554 C1555 1.446 . S
C1554 C1577 1.391 1_556 S
C1555 C1554 1.446 . S
C1555 C1556 1.339 . S
C1555 H1584 0.949 . S
C1556 C1555 1.339 . S
C1556 C1557 1.439 . S
C1556 H1585 0.950 . S
C1557 N1553 1.383 . S
C1557 C1556 1.439 . S
C1557 C1575 1.392 . S
N1558 Co1542 2.282 . S
N1558 C1561 1.332 . S
N1558 C1563 1.332 . S
C1559 C1560 1.389 . S
C1559 C1562 1.388 . S
C1560 C1559 1.389 . S
C1560 C1561 1.388 . S
C1560 H1586 0.943 1_556 S
C1561 N1558 1.332 . S
C1561 C1560 1.388 . S
C1561 H1572 0.952 . S
C1562 C1559 1.388 . S
C1562 C1563 1.382 . S
C1562 H1587 0.950 . S
C1563 N1558 1.332 . S
C1563 C1562 1.382 . S
C1563 H1573 0.948 . S
N1564 Co1542 2.284 . S
N1564 C1568 1.334 . S
N1564 C1569 1.331 1_556 S
C1565 C1566 1.388 . S
C1565 C1569 1.379 1_556 S
C1565 H1588 0.952 . S
C1566 C1565 1.388 . S
C1566 C1567 1.386 . S
C1567 C1566 1.386 . S
C1567 C1568 1.382 . S
C1567 H1589 0.950 . S
C1568 N1564 1.334 . S
C1568 C1567 1.382 . S
C1568 H1570 0.952 . S
C1569 N1564 1.331 1_554 S
C1569 C1565 1.379 1_554 S
C1569 H1571 0.955 . S
H1570 C1568 0.952 . S
H1571 C1569 0.955 . S
H1572 C1561 0.952 . S
H1573 C1563 0.948 . S
C1574 C1540 1.395 . S
C1574 C1544 1.391 . S
C1575 C1537 1.389 . S
C1575 C1557 1.392 . S
C1576 C1547 1.392 . S
C1576 C1549 1.389 . S
C1577 C1552 1.395 . S
C1577 C1554 1.391 1_554 S
H1578 C1538 0.951 . S
H1579 C1539 0.950 . S
H1580 C1545 0.949 . S
H1581 C1546 0.950 . S
H1582 C1550 0.951 . S
H1583 C1551 0.950 . S
H1584 C1555 0.949 . S
H1585 C1556 0.950 . S
H1586 C1560 0.943 1_554 S
H1587 C1562 0.950 . S
H1588 C1565 0.952 . S
H1589 C1567 0.950 . S
C1590 C1591 1.443 . S
C1590 N1594 1.376 . S
C1590 C1628 1.389 . S
C1591 C1590 1.443 . S
C1591 C1592 1.340 . S
C1591 H1631 0.951 . S
C1592 C1591 1.340 . S
C1592 C1593 1.439 . S
C1592 H1632 0.950 . S
C1593 C1592 1.439 . S
C1593 N1594 1.374 . S
C1593 C1627 1.395 . S
N1594 C1590 1.376 . S
N1594 C1593 1.374 . S
N1594 Co1595 2.008 . S
Co1595 N1594 2.008 . S
Co1595 N1596 1.995 . S
Co1595 N1601 2.008 . S
Co1595 N1606 1.995 . S
Co1595 N1611 2.282 . S
Co1595 N1617 2.282 . S
N1596 Co1595 1.995 . S
N1596 C1597 1.376 . S
N1596 C1600 1.383 . S
C1597 N1596 1.376 . S
C1597 C1598 1.446 . S
C1597 C1627 1.391 . S
C1598 C1597 1.446 . S
C1598 C1599 1.339 . S
C1598 H1633 0.949 . S
C1599 C1598 1.339 . S
C1599 C1600 1.439 . S
C1599 H1634 0.950 . S
C1600 N1596 1.383 . S
C1600 C1599 1.439 . S
C1600 C1629 1.392 . S
N1601 Co1595 2.008 . S
N1601 C1602 1.376 . S
N1601 C1605 1.374 . S
C1602 N1601 1.376 . S
C1602 C1603 1.443 . S
C1602 C1629 1.389 . S
C1603 C1602 1.443 . S
C1603 C1604 1.340 . S
C1603 H1635 0.951 . S
C1604 C1603 1.340 . S
C1604 C1605 1.439 . S
C1604 H1636 0.950 . S
C1605 N1601 1.374 . S
C1605 C1604 1.439 . S
C1605 C1630 1.395 . S
N1606 Co1595 1.995 . S
N1606 C1607 1.376 . S
N1606 C1610 1.383 . S
C1607 N1606 1.376 . S
C1607 C1608 1.446 . S
C1607 C1630 1.391 . S
C1608 C1607 1.446 . S
C1608 C1609 1.339 . S
C1608 H1637 0.949 . S
C1609 C1608 1.339 . S
C1609 C1610 1.439 . S
C1609 H1638 0.950 . S
C1610 N1606 1.383 . S
C1610 C1609 1.439 . S
C1610 C1628 1.392 . S
N1611 Co1595 2.282 . S
N1611 C1614 1.332 . S
N1611 C1616 1.332 . S
C1612 C1613 1.386 . S
C1612 C1615 1.388 . S
C1613 C1612 1.386 . S
C1613 C1614 1.382 . S
C1613 H1639 0.950 . S
C1614 N1611 1.332 . S
C1614 C1613 1.382 . S
C1614 H1625 0.952 . S
C1615 C1612 1.388 . S
C1615 C1616 1.382 . S
C1615 H1640 0.950 . S
C1616 N1611 1.332 . S
C1616 C1615 1.382 . S
C1616 H1626 0.948 . S
N1617 Co1595 2.282 . S
N1617 C1621 1.332 . S
N1617 C1622 1.332 . S
C1618 C1619 1.388 . S
C1618 C1622 1.382 . S
C1618 H1641 0.950 . S
C1619 C1618 1.388 . S
C1619 C1620 1.386 . S
C1620 C1619 1.386 . S
C1620 C1621 1.382 . S
C1620 H1642 0.950 . S
C1621 N1617 1.332 . S
C1621 C1620 1.382 . S
C1621 H1623 0.952 . S
C1622 N1617 1.332 . S
C1622 C1618 1.382 . S
C1622 H1624 0.948 . S
H1623 C1621 0.952 . S
H1624 C1622 0.948 . S
H1625 C1614 0.952 . S
H1626 C1616 0.948 . S
C1627 C1593 1.395 . S
C1627 C1597 1.391 . S
C1628 C1590 1.389 . S
C1628 C1610 1.392 . S
C1629 C1600 1.392 . S
C1629 C1602 1.389 . S
C1630 C1605 1.395 . S
C1630 C1607 1.391 . S
H1631 C1591 0.951 . S
H1632 C1592 0.950 . S
H1633 C1598 0.949 . S
H1634 C1599 0.950 . S
H1635 C1603 0.951 . S
H1636 C1604 0.950 . S
H1637 C1608 0.949 . S
H1638 C1609 0.950 . S
H1639 C1613 0.950 . S
H1640 C1615 0.950 . S
H1641 C1618 0.950 . S
H1642 C1620 0.950 . S
C1643 C1644 1.443 . S
C1643 N1647 1.376 . S
C1643 C1681 1.389 . S
C1644 C1643 1.443 . S
C1644 C1645 1.340 . S
C1644 H1684 0.951 . S
C1645 C1644 1.340 . S
C1645 C1646 1.439 . S
C1645 H1685 0.950 . S
C1646 C1645 1.439 . S
C1646 N1647 1.374 . S
C1646 C1680 1.395 . S
N1647 C1643 1.376 . S
N1647 C1646 1.374 . S
N1647 Co1648 2.008 . S
Co1648 N1647 2.008 . S
Co1648 N1649 1.995 . S
Co1648 N1654 2.008 . S
Co1648 N1659 1.995 . S
Co1648 N1664 2.282 . S
Co1648 N1670 2.282 . S
N1649 Co1648 1.995 . S
N1649 C1650 1.376 . S
N1649 C1653 1.383 . S
C1650 N1649 1.376 . S
C1650 C1651 1.446 . S
C1650 C1680 1.391 . S
C1651 C1650 1.446 . S
C1651 C1652 1.339 . S
C1651 H1686 0.949 . S
C1652 C1651 1.339 . S
C1652 C1653 1.439 . S
C1652 H1687 0.950 . S
C1653 N1649 1.383 . S
C1653 C1652 1.439 . S
C1653 C1682 1.392 . S
N1654 Co1648 2.008 . S
N1654 C1655 1.376 . S
N1654 C1658 1.374 . S
C1655 N1654 1.376 . S
C1655 C1656 1.443 . S
C1655 C1682 1.389 . S
C1656 C1655 1.443 . S
C1656 C1657 1.340 . S
C1656 H1688 0.951 . S
C1657 C1656 1.340 . S
C1657 C1658 1.439 . S
C1657 H1689 0.950 . S
C1658 N1654 1.374 . S
C1658 C1657 1.439 . S
C1658 C1683 1.395 . S
N1659 Co1648 1.995 . S
N1659 C1660 1.376 . S
N1659 C1663 1.383 . S
C1660 N1659 1.376 . S
C1660 C1661 1.446 . S
C1660 C1683 1.391 . S
C1661 C1660 1.446 . S
C1661 C1662 1.339 . S
C1661 H1690 0.949 . S
C1662 C1661 1.339 . S
C1662 C1663 1.439 . S
C1662 H1691 0.950 . S
C1663 N1659 1.383 . S
C1663 C1662 1.439 . S
C1663 C1681 1.392 . S
N1664 Co1648 2.282 . S
N1664 C1667 1.332 . S
N1664 C1669 1.332 . S
C1665 C1666 1.386 . S
C1665 C1668 1.388 . S
C1666 C1665 1.386 . S
C1666 C1667 1.382 . S
C1666 H1692 0.950 . S
C1667 N1664 1.332 . S
C1667 C1666 1.382 . S
C1667 H1678 0.952 . S
C1668 C1665 1.388 . S
C1668 C1669 1.382 . S
C1668 H1693 0.950 . S
C1669 N1664 1.332 . S
C1669 C1668 1.382 . S
C1669 H1679 0.948 . S
N1670 Co1648 2.282 . S
N1670 C1674 1.332 . S
N1670 C1675 1.332 . S
C1671 C1672 1.388 . S
C1671 C1675 1.382 . S
C1671 H1694 0.950 . S
C1672 C1671 1.388 . S
C1672 C1673 1.386 . S
C1673 C1672 1.386 . S
C1673 C1674 1.382 . S
C1673 H1695 0.950 . S
C1674 N1670 1.332 . S
C1674 C1673 1.382 . S
C1674 H1676 0.952 . S
C1675 N1670 1.332 . S
C1675 C1671 1.382 . S
C1675 H1677 0.948 . S
H1676 C1674 0.952 . S
H1677 C1675 0.948 . S
H1678 C1667 0.952 . S
H1679 C1669 0.948 . S
C1680 C1646 1.395 . S
C1680 C1650 1.391 . S
C1681 C1643 1.389 . S
C1681 C1663 1.392 . S
C1682 C1653 1.392 . S
C1682 C1655 1.389 . S
C1683 C1658 1.395 . S
C1683 C1660 1.391 . S
H1684 C1644 0.951 . S
H1685 C1645 0.950 . S
H1686 C1651 0.949 . S
H1687 C1652 0.950 . S
H1688 C1656 0.951 . S
H1689 C1657 0.950 . S
H1690 C1661 0.949 . S
H1691 C1662 0.950 . S
H1692 C1666 0.950 . S
H1693 C1668 0.950 . S
H1694 C1671 0.950 . S
H1695 C1673 0.950 . S
H1696 C1704 0.950 . S
H1697 C1709 0.950 . S
H1698 C1706 0.950 . S
H1699 C1708 0.950 . S
H1700 C1710 0.950 . S
H1701 C1712 0.950 . S
H1702 C1714 0.950 . S
H1703 C1715 0.950 . S
C1704 H1696 0.950 . S
C1704 C1705 1.386 . S
C1704 C1706 1.391 . S
C1705 C1704 1.386 . S
C1705 C1709 1.393 . S
C1706 H1698 0.950 . S
C1706 C1704 1.391 . S
C1706 C1707 1.400 . S
C1707 C1706 1.400 . S
C1707 C1708 1.398 . S
C1707 C1713 1.491 . S
C1708 H1699 0.950 . S
C1708 C1707 1.398 . S
C1708 C1709 1.391 . S
C1709 H1697 0.950 . S
C1709 C1705 1.393 . S
C1709 C1708 1.391 . S
C1710 H1700 0.950 . S
C1710 C1711 1.386 . S
C1710 C1712 1.391 . S
C1711 C1710 1.386 . S
C1711 C1715 1.393 . S
C1712 H1701 0.950 . S
C1712 C1710 1.391 . S
C1712 C1713 1.400 . S
C1713 C1707 1.491 . S
C1713 C1712 1.400 . S
C1713 C1714 1.398 . S
C1714 H1702 0.950 . S
C1714 C1713 1.398 . S
C1714 C1715 1.391 . S
C1715 H1703 0.950 . S
C1715 C1711 1.393 . S
C1715 C1714 1.391 . S
H1716 C1724 0.950 . S
H1717 C1729 0.950 . S
H1718 C1726 0.950 . S
H1719 C1728 0.950 . S
H1720 C1730 0.950 . S
H1721 C1732 0.950 . S
H1722 C1734 0.950 . S
H1723 C1735 0.950 . S
C1724 H1716 0.950 . S
C1724 C1725 1.386 . S
C1724 C1726 1.391 . S
C1725 C1724 1.386 . S
C1725 C1729 1.393 . S
C1726 H1718 0.950 . S
C1726 C1724 1.391 . S
C1726 C1727 1.400 . S
C1727 C1726 1.400 . S
C1727 C1728 1.398 . S
C1727 C1733 1.491 . S
C1728 H1719 0.950 . S
C1728 C1727 1.398 . S
C1728 C1729 1.391 . S
C1729 H1717 0.950 . S
C1729 C1725 1.393 . S
C1729 C1728 1.391 . S
C1730 H1720 0.950 . S
C1730 C1731 1.386 . S
C1730 C1732 1.391 . S
C1731 C1730 1.386 . S
C1731 C1735 1.393 . S
C1732 H1721 0.950 . S
C1732 C1730 1.391 . S
C1732 C1733 1.400 . S
C1733 C1727 1.491 . S
C1733 C1732 1.400 . S
C1733 C1734 1.398 . S
C1734 H1722 0.950 . S
C1734 C1733 1.398 . S
C1734 C1735 1.391 . S
C1735 H1723 0.950 . S
C1735 C1731 1.393 . S
C1735 C1734 1.391 . S
H1736 C1744 0.950 . S
H1737 C1749 0.950 . S
H1738 C1746 0.950 . S
H1739 C1748 0.950 . S
H1740 C1750 0.950 . S
H1741 C1752 0.950 . S
H1742 C1754 0.950 . S
H1743 C1755 0.950 . S
C1744 H1736 0.950 . S
C1744 C1745 1.386 . S
C1744 C1746 1.391 . S
C1745 C1744 1.386 . S
C1745 C1749 1.393 . S
C1746 H1738 0.950 . S
C1746 C1744 1.391 . S
C1746 C1747 1.400 . S
C1747 C1746 1.400 . S
C1747 C1748 1.398 . S
C1747 C1753 1.491 . S
C1748 H1739 0.950 . S
C1748 C1747 1.398 . S
C1748 C1749 1.391 . S
C1749 H1737 0.950 . S
C1749 C1745 1.393 . S
C1749 C1748 1.391 . S
C1750 H1740 0.950 . S
C1750 C1751 1.386 . S
C1750 C1752 1.391 . S
C1751 C1750 1.386 . S
C1751 C1755 1.393 . S
C1752 H1741 0.950 . S
C1752 C1750 1.391 . S
C1752 C1753 1.400 . S
C1753 C1747 1.491 . S
C1753 C1752 1.400 . S
C1753 C1754 1.398 . S
C1754 H1742 0.950 . S
C1754 C1753 1.398 . S
C1754 C1755 1.391 . S
C1755 H1743 0.950 . S
C1755 C1751 1.393 . S
C1755 C1754 1.391 . S
H1756 C1764 0.950 . S
H1757 C1769 0.950 . S
H1758 C1766 0.950 . S
H1759 C1768 0.950 . S
H1760 C1770 0.950 . S
H1761 C1772 0.950 . S
H1762 C1774 0.950 . S
H1763 C1775 0.950 . S
C1764 H1756 0.950 . S
C1764 C1765 1.386 . S
C1764 C1766 1.391 . S
C1765 C1764 1.386 . S
C1765 C1769 1.393 . S
C1766 H1758 0.950 . S
C1766 C1764 1.391 . S
C1766 C1767 1.400 . S
C1767 C1766 1.400 . S
C1767 C1768 1.398 . S
C1767 C1773 1.491 . S
C1768 H1759 0.950 . S
C1768 C1767 1.398 . S
C1768 C1769 1.391 . S
C1769 H1757 0.950 . S
C1769 C1765 1.393 . S
C1769 C1768 1.391 . S
C1770 H1760 0.950 . S
C1770 C1771 1.386 . S
C1770 C1772 1.391 . S
C1771 C1770 1.386 . S
C1771 C1775 1.393 . S
C1772 H1761 0.950 . S
C1772 C1770 1.391 . S
C1772 C1773 1.400 . S
C1773 C1767 1.491 . S
C1773 C1772 1.400 . S
C1773 C1774 1.398 . S
C1774 H1762 0.950 . S
C1774 C1773 1.398 . S
C1774 C1775 1.391 . S
C1775 H1763 0.950 . S
C1775 C1771 1.393 . S
C1775 C1774 1.391 . S
H1776 C1784 0.950 . S
H1777 C1789 0.950 . S
H1778 C1786 0.950 . S
H1779 C1788 0.950 . S
H1780 C1790 0.950 . S
H1781 C1792 0.950 . S
H1782 C1794 0.950 . S
H1783 C1795 0.950 . S
C1784 H1776 0.950 . S
C1784 C1785 1.386 . S
C1784 C1786 1.391 . S
C1785 C1784 1.386 . S
C1785 C1789 1.393 . S
C1786 H1778 0.950 . S
C1786 C1784 1.391 . S
C1786 C1787 1.400 . S
C1787 C1786 1.400 . S
C1787 C1788 1.398 . S
C1787 C1793 1.491 . S
C1788 H1779 0.950 . S
C1788 C1787 1.398 . S
C1788 C1789 1.391 . S
C1789 H1777 0.950 . S
C1789 C1785 1.393 . S
C1789 C1788 1.391 . S
C1790 H1780 0.950 . S
C1790 C1791 1.386 . S
C1790 C1792 1.391 . S
C1791 C1790 1.386 . S
C1791 C1795 1.393 . S
C1792 H1781 0.950 . S
C1792 C1790 1.391 . S
C1792 C1793 1.400 . S
C1793 C1787 1.491 . S
C1793 C1792 1.400 . S
C1793 C1794 1.398 . S
C1794 H1782 0.950 . S
C1794 C1793 1.398 . S
C1794 C1795 1.391 . S
C1795 H1783 0.950 . S
C1795 C1791 1.393 . S
C1795 C1794 1.391 . S
H1796 C1804 0.950 . S
H1797 C1809 0.950 . S
H1798 C1806 0.950 . S
H1799 C1808 0.950 . S
H1800 C1810 0.950 . S
H1801 C1812 0.950 . S
H1802 C1814 0.950 . S
H1803 C1815 0.950 . S
C1804 H1796 0.950 . S
C1804 C1805 1.386 . S
C1804 C1806 1.391 . S
C1805 C1804 1.386 . S
C1805 C1809 1.393 . S
C1806 H1798 0.950 . S
C1806 C1804 1.391 . S
C1806 C1807 1.400 . S
C1807 C1806 1.400 . S
C1807 C1808 1.398 . S
C1807 C1813 1.491 . S
C1808 H1799 0.950 . S
C1808 C1807 1.398 . S
C1808 C1809 1.391 . S
C1809 H1797 0.950 . S
C1809 C1805 1.393 . S
C1809 C1808 1.391 . S
C1810 H1800 0.950 . S
C1810 C1811 1.386 . S
C1810 C1812 1.391 . S
C1811 C1810 1.386 . S
C1811 C1815 1.393 . S
C1812 H1801 0.950 . S
C1812 C1810 1.391 . S
C1812 C1813 1.400 . S
C1813 C1807 1.491 . S
C1813 C1812 1.400 . S
C1813 C1814 1.398 . S
C1814 H1802 0.950 . S
C1814 C1813 1.398 . S
C1814 C1815 1.391 . S
C1815 H1803 0.950 . S
C1815 C1811 1.393 . S
C1815 C1814 1.391 . S
H1816 C1824 0.950 . S
H1817 C1829 0.950 . S
H1818 C1826 0.950 . S
H1819 C1828 0.950 . S
H1820 C1830 0.950 . S
H1821 C1832 0.950 . S
H1822 C1834 0.950 . S
H1823 C1835 0.950 . S
C1824 H1816 0.950 . S
C1824 C1825 1.386 . S
C1824 C1826 1.391 . S
C1825 C1824 1.386 . S
C1825 C1829 1.393 . S
C1826 H1818 0.950 . S
C1826 C1824 1.391 . S
C1826 C1827 1.400 . S
C1827 C1826 1.400 . S
C1827 C1828 1.398 . S
C1827 C1833 1.491 . S
C1828 H1819 0.950 . S
C1828 C1827 1.398 . S
C1828 C1829 1.391 . S
C1829 H1817 0.950 . S
C1829 C1825 1.393 . S
C1829 C1828 1.391 . S
C1830 H1820 0.950 . S
C1830 C1831 1.386 . S
C1830 C1832 1.391 . S
C1831 C1830 1.386 . S
C1831 C1835 1.393 . S
C1832 H1821 0.950 . S
C1832 C1830 1.391 . S
C1832 C1833 1.400 . S
C1833 C1827 1.491 . S
C1833 C1832 1.400 . S
C1833 C1834 1.398 . S
C1834 H1822 0.950 . S
C1834 C1833 1.398 . S
C1834 C1835 1.391 . S
C1835 H1823 0.950 . S
C1835 C1831 1.393 . S
C1835 C1834 1.391 . S
H1836 C1844 0.950 . S
H1837 C1849 0.950 . S
H1838 C1846 0.950 . S
H1839 C1848 0.950 . S
H1840 C1850 0.950 . S
H1841 C1852 0.950 . S
H1842 C1854 0.950 . S
H1843 C1855 0.950 . S
C1844 H1836 0.950 . S
C1844 C1845 1.386 . S
C1844 C1846 1.391 . S
C1845 C1844 1.386 . S
C1845 C1849 1.393 . S
C1846 H1838 0.950 . S
C1846 C1844 1.391 . S
C1846 C1847 1.400 . S
C1847 C1846 1.400 . S
C1847 C1848 1.398 . S
C1847 C1853 1.491 . S
C1848 H1839 0.950 . S
C1848 C1847 1.398 . S
C1848 C1849 1.391 . S
C1849 H1837 0.950 . S
C1849 C1845 1.393 . S
C1849 C1848 1.391 . S
C1850 H1840 0.950 . S
C1850 C1851 1.386 . S
C1850 C1852 1.391 . S
C1851 C1850 1.386 . S
C1851 C1855 1.393 . S
C1852 H1841 0.950 . S
C1852 C1850 1.391 . S
C1852 C1853 1.400 . S
C1853 C1847 1.491 . S
C1853 C1852 1.400 . S
C1853 C1854 1.398 . S
C1854 H1842 0.950 . S
C1854 C1853 1.398 . S
C1854 C1855 1.391 . S
C1855 H1843 0.950 . S
C1855 C1851 1.393 . S
C1855 C1854 1.391 . S
H1856 C1864 0.950 . S
H1857 C1869 0.950 . S
H1858 C1866 0.950 . S
H1859 C1868 0.950 . S
H1860 C1870 0.950 . S
H1861 C1872 0.950 . S
H1862 C1874 0.950 . S
H1863 C1875 0.950 . S
C1864 H1856 0.950 . S
C1864 C1865 1.386 . S
C1864 C1866 1.391 . S
C1865 C1864 1.386 . S
C1865 C1869 1.393 . S
C1866 H1858 0.950 . S
C1866 C1864 1.391 . S
C1866 C1867 1.400 . S
C1867 C1866 1.400 . S
C1867 C1868 1.398 . S
C1867 C1873 1.491 . S
C1868 H1859 0.950 . S
C1868 C1867 1.398 . S
C1868 C1869 1.391 . S
C1869 H1857 0.950 . S
C1869 C1865 1.393 . S
C1869 C1868 1.391 . S
C1870 H1860 0.950 . S
C1870 C1871 1.386 . S
C1870 C1872 1.391 . S
C1871 C1870 1.386 . S
C1871 C1875 1.393 . S
C1872 H1861 0.950 . S
C1872 C1870 1.391 . S
C1872 C1873 1.400 . S
C1873 C1867 1.491 . S
C1873 C1872 1.400 . S
C1873 C1874 1.398 . S
C1874 H1862 0.950 . S
C1874 C1873 1.398 . S
C1874 C1875 1.391 . S
C1875 H1863 0.950 . S
C1875 C1871 1.393 . S
C1875 C1874 1.391 . S
H1876 C1884 0.950 . S
H1877 C1889 0.950 . S
H1878 C1886 0.950 . S
H1879 C1888 0.950 . S
H1880 C1890 0.950 . S
H1881 C1892 0.950 . S
H1882 C1894 0.950 . S
H1883 C1895 0.950 . S
C1884 H1876 0.950 . S
C1884 C1885 1.386 . S
C1884 C1886 1.391 . S
C1885 C1884 1.386 . S
C1885 C1889 1.393 . S
C1886 H1878 0.950 . S
C1886 C1884 1.391 . S
C1886 C1887 1.400 . S
C1887 C1886 1.400 . S
C1887 C1888 1.398 . S
C1887 C1893 1.491 . S
C1888 H1879 0.950 . S
C1888 C1887 1.398 . S
C1888 C1889 1.391 . S
C1889 H1877 0.950 . S
C1889 C1885 1.393 . S
C1889 C1888 1.391 . S
C1890 H1880 0.950 . S
C1890 C1891 1.386 . S
C1890 C1892 1.391 . S
C1891 C1890 1.386 . S
C1891 C1895 1.393 . S
C1892 H1881 0.950 . S
C1892 C1890 1.391 . S
C1892 C1893 1.400 . S
C1893 C1887 1.491 . S
C1893 C1892 1.400 . S
C1893 C1894 1.398 . S
C1894 H1882 0.950 . S
C1894 C1893 1.398 . S
C1894 C1895 1.391 . S
C1895 H1883 0.950 . S
C1895 C1891 1.393 . S
C1895 C1894 1.391 . S
H1896 C1904 0.950 . S
H1897 C1909 0.950 . S
H1898 C1906 0.950 . S
H1899 C1908 0.950 . S
H1900 C1910 0.950 . S
H1901 C1912 0.950 . S
H1902 C1914 0.950 . S
H1903 C1915 0.950 . S
C1904 H1896 0.950 . S
C1904 C1905 1.386 . S
C1904 C1906 1.391 . S
C1905 C1904 1.386 . S
C1905 C1909 1.393 . S
C1906 H1898 0.950 . S
C1906 C1904 1.391 . S
C1906 C1907 1.400 . S
C1907 C1906 1.400 . S
C1907 C1908 1.398 . S
C1907 C1913 1.491 . S
C1908 H1899 0.950 . S
C1908 C1907 1.398 . S
C1908 C1909 1.391 . S
C1909 H1897 0.950 . S
C1909 C1905 1.393 . S
C1909 C1908 1.391 . S
C1910 H1900 0.950 . S
C1910 C1911 1.386 . S
C1910 C1912 1.391 . S
C1911 C1910 1.386 . S
C1911 C1915 1.393 . S
C1912 H1901 0.950 . S
C1912 C1910 1.391 . S
C1912 C1913 1.400 . S
C1913 C1907 1.491 . S
C1913 C1912 1.400 . S
C1913 C1914 1.398 . S
C1914 H1902 0.950 . S
C1914 C1913 1.398 . S
C1914 C1915 1.391 . S
C1915 H1903 0.950 . S
C1915 C1911 1.393 . S
C1915 C1914 1.391 . S
H1916 C1924 0.950 . S
H1917 C1929 0.950 . S
H1918 C1926 0.950 . S
H1919 C1928 0.950 . S
H1920 C1930 0.950 . S
H1921 C1932 0.950 . S
H1922 C1934 0.950 . S
H1923 C1935 0.950 . S
C1924 H1916 0.950 . S
C1924 C1925 1.386 . S
C1924 C1926 1.391 . S
C1925 C1924 1.386 . S
C1925 C1929 1.393 . S
C1926 H1918 0.950 . S
C1926 C1924 1.391 . S
C1926 C1927 1.400 . S
C1927 C1926 1.400 . S
C1927 C1928 1.398 . S
C1927 C1933 1.491 . S
C1928 H1919 0.950 . S
C1928 C1927 1.398 . S
C1928 C1929 1.391 . S
C1929 H1917 0.950 . S
C1929 C1925 1.393 . S
C1929 C1928 1.391 . S
C1930 H1920 0.950 . S
C1930 C1931 1.386 . S
C1930 C1932 1.391 . S
C1931 C1930 1.386 . S
C1931 C1935 1.393 . S
C1932 H1921 0.950 . S
C1932 C1930 1.391 . S
C1932 C1933 1.400 . S
C1933 C1927 1.491 . S
C1933 C1932 1.400 . S
C1933 C1934 1.398 . S
C1934 H1922 0.950 . S
C1934 C1933 1.398 . S
C1934 C1935 1.391 . S
C1935 H1923 0.950 . S
C1935 C1931 1.393 . S
C1935 C1934 1.391 . S
H1936 C1944 0.950 . S
H1937 C1949 0.950 . S
H1938 C1946 0.950 . S
H1939 C1948 0.950 . S
H1940 C1950 0.950 . S
H1941 C1952 0.950 . S
H1942 C1954 0.950 . S
H1943 C1955 0.950 . S
C1944 H1936 0.950 . S
C1944 C1945 1.386 . S
C1944 C1946 1.391 . S
C1945 C1944 1.386 . S
C1945 C1949 1.393 . S
C1946 H1938 0.950 . S
C1946 C1944 1.391 . S
C1946 C1947 1.400 . S
C1947 C1946 1.400 . S
C1947 C1948 1.398 . S
C1947 C1953 1.491 . S
C1948 H1939 0.950 . S
C1948 C1947 1.398 . S
C1948 C1949 1.391 . S
C1949 H1937 0.950 . S
C1949 C1945 1.393 . S
C1949 C1948 1.391 . S
C1950 H1940 0.950 . S
C1950 C1951 1.386 . S
C1950 C1952 1.391 . S
C1951 C1950 1.386 . S
C1951 C1955 1.393 . S
C1952 H1941 0.950 . S
C1952 C1950 1.391 . S
C1952 C1953 1.400 . S
C1953 C1947 1.491 . S
C1953 C1952 1.400 . S
C1953 C1954 1.398 . S
C1954 H1942 0.950 . S
C1954 C1953 1.398 . S
C1954 C1955 1.391 . S
C1955 H1943 0.950 . S
C1955 C1951 1.393 . S
C1955 C1954 1.391 . S
H1956 C1964 0.950 . S
H1957 C1969 0.950 . S
H1958 C1966 0.950 . S
H1959 C1968 0.950 . S
H1960 C1970 0.950 . S
H1961 C1972 0.950 . S
H1962 C1974 0.950 . S
H1963 C1975 0.950 . S
C1964 H1956 0.950 . S
C1964 C1965 1.386 . S
C1964 C1966 1.391 . S
C1965 C1964 1.386 . S
C1965 C1969 1.393 . S
C1966 H1958 0.950 . S
C1966 C1964 1.391 . S
C1966 C1967 1.400 . S
C1967 C1966 1.400 . S
C1967 C1968 1.398 . S
C1967 C1973 1.491 . S
C1968 H1959 0.950 . S
C1968 C1967 1.398 . S
C1968 C1969 1.391 . S
C1969 H1957 0.950 . S
C1969 C1965 1.393 . S
C1969 C1968 1.391 . S
C1970 H1960 0.950 . S
C1970 C1971 1.386 . S
C1970 C1972 1.391 . S
C1971 C1970 1.386 . S
C1971 C1975 1.393 . S
C1972 H1961 0.950 . S
C1972 C1970 1.391 . S
C1972 C1973 1.400 . S
C1973 C1967 1.491 . S
C1973 C1972 1.400 . S
C1973 C1974 1.398 . S
C1974 H1962 0.950 . S
C1974 C1973 1.398 . S
C1974 C1975 1.391 . S
C1975 H1963 0.950 . S
C1975 C1971 1.393 . S
C1975 C1974 1.391 . S
H1976 C1984 0.950 . S
H1977 C1989 0.950 . S
H1978 C1986 0.950 . S
H1979 C1988 0.950 . S
H1980 C1990 0.950 . S
H1981 C1992 0.950 . S
H1982 C1994 0.950 . S
H1983 C1995 0.950 . S
C1984 H1976 0.950 . S
C1984 C1985 1.386 . S
C1984 C1986 1.391 . S
C1985 C1984 1.386 . S
C1985 C1989 1.393 . S
C1986 H1978 0.950 . S
C1986 C1984 1.391 . S
C1986 C1987 1.400 . S
C1987 C1986 1.400 . S
C1987 C1988 1.398 . S
C1987 C1993 1.491 . S
C1988 H1979 0.950 . S
C1988 C1987 1.398 . S
C1988 C1989 1.391 . S
C1989 H1977 0.950 . S
C1989 C1985 1.393 . S
C1989 C1988 1.391 . S
C1990 H1980 0.950 . S
C1990 C1991 1.386 . S
C1990 C1992 1.391 . S
C1991 C1990 1.386 . S
C1991 C1995 1.393 . S
C1992 H1981 0.950 . S
C1992 C1990 1.391 . S
C1992 C1993 1.400 . S
C1993 C1987 1.491 . S
C1993 C1992 1.400 . S
C1993 C1994 1.398 . S
C1994 H1982 0.950 . S
C1994 C1993 1.398 . S
C1994 C1995 1.391 . S
C1995 H1983 0.950 . S
C1995 C1991 1.393 . S
C1995 C1994 1.391 . S
H1996 C2004 0.950 . S
H1997 C2009 0.950 . S
H1998 C2006 0.950 . S
H1999 C2008 0.950 . S
H2000 C2010 0.950 . S
H2001 C2012 0.950 . S
H2002 C2014 0.950 . S
H2003 C2015 0.950 . S
C2004 H1996 0.950 . S
C2004 C2005 1.386 . S
C2004 C2006 1.391 . S
C2005 C2004 1.386 . S
C2005 C2009 1.393 . S
C2006 H1998 0.950 . S
C2006 C2004 1.391 . S
C2006 C2007 1.400 . S
C2007 C2006 1.400 . S
C2007 C2008 1.398 . S
C2007 C2013 1.491 . S
C2008 H1999 0.950 . S
C2008 C2007 1.398 . S
C2008 C2009 1.391 . S
C2009 H1997 0.950 . S
C2009 C2005 1.393 . S
C2009 C2008 1.391 . S
C2010 H2000 0.950 . S
C2010 C2011 1.386 . S
C2010 C2012 1.391 . S
C2011 C2010 1.386 . S
C2011 C2015 1.393 . S
C2012 H2001 0.950 . S
C2012 C2010 1.391 . S
C2012 C2013 1.400 . S
C2013 C2007 1.491 . S
C2013 C2012 1.400 . S
C2013 C2014 1.398 . S
C2014 H2002 0.950 . S
C2014 C2013 1.398 . S
C2014 C2015 1.391 . S
C2015 H2003 0.950 . S
C2015 C2011 1.393 . S
C2015 C2014 1.391 . S
H2016 C2024 0.950 . S
H2017 C2029 0.950 . S
H2018 C2026 0.950 . S
H2019 C2028 0.950 1_565 S
H2020 C2030 0.950 . S
H2021 C2032 0.950 . S
H2022 C2034 0.950 1_545 S
H2023 C2035 0.950 . S
C2024 H2016 0.950 . S
C2024 C2025 1.386 . S
C2024 C2026 1.391 . S
C2025 C2024 1.386 . S
C2025 C2029 1.393 1_554 S
C2026 H2018 0.950 . S
C2026 C2024 1.391 . S
C2026 C2027 1.413 . S
C2027 C2026 1.413 . S
C2027 C2028 1.386 1_554 S
C2027 C2033 1.490 1_544 S
C2028 H2019 0.950 1_545 S
C2028 C2027 1.386 1_556 S
C2028 C2029 1.391 . S
C2029 H2017 0.950 . S
C2029 C2025 1.393 1_556 S
C2029 C2028 1.391 . S
C2030 H2020 0.950 . S
C2030 C2031 1.386 . S
C2030 C2032 1.391 . S
C2031 C2030 1.386 . S
C2031 C2035 1.393 1_556 S
C2032 H2021 0.950 . S
C2032 C2030 1.391 . S
C2032 C2033 1.413 . S
C2033 C2027 1.490 1_566 S
C2033 C2032 1.413 . S
C2033 C2034 1.386 1_556 S
C2034 H2022 0.950 1_565 S
C2034 C2033 1.386 1_554 S
C2034 C2035 1.391 . S
C2035 H2023 0.950 . S
C2035 C2031 1.393 1_554 S
C2035 C2034 1.391 . S
H2036 C2044 0.950 . S
H2037 C2049 0.950 . S
H2038 C2046 0.950 . S
H2039 C2048 0.950 . S
H2040 C2050 0.950 . S
H2041 C2052 0.950 . S
H2042 C2054 0.950 . S
H2043 C2055 0.950 . S
C2044 H2036 0.950 . S
C2044 C2045 1.394 . S
C2044 C2046 1.391 . S
C2045 C2044 1.394 . S
C2045 C2049 1.384 1_556 S
C2046 H2038 0.950 . S
C2046 C2044 1.391 . S
C2046 C2047 1.400 1_556 S
C2047 C2046 1.400 1_554 S
C2047 C2048 1.399 . S
C2047 C2053 1.491 1_554 S
C2048 H2039 0.950 . S
C2048 C2047 1.399 . S
C2048 C2049 1.391 . S
C2049 H2037 0.950 . S
C2049 C2045 1.384 1_554 S
C2049 C2048 1.391 . S
C2050 H2040 0.950 . S
C2050 C2051 1.393 . S
C2050 C2052 1.391 . S
C2051 C2050 1.393 . S
C2051 C2055 1.385 1_554 S
C2052 H2041 0.950 . S
C2052 C2050 1.391 . S
C2052 C2053 1.398 1_554 S
C2053 C2047 1.491 1_556 S
C2053 C2052 1.398 1_556 S
C2053 C2054 1.400 . S
C2054 H2042 0.950 . S
C2054 C2053 1.400 . S
C2054 C2055 1.391 . S
C2055 H2043 0.950 . S
C2055 C2051 1.385 1_556 S
C2055 C2054 1.391 . S
H2056 C2064 0.950 . S
H2057 C2069 0.950 . S
H2058 C2066 0.950 . S
H2059 C2068 0.950 . S
H2060 C2070 0.950 . S
H2061 C2072 0.950 . S
H2062 C2074 0.950 . S
H2063 C2075 0.950 . S
C2064 H2056 0.950 . S
C2064 C2065 1.386 . S
C2064 C2066 1.391 . S
C2065 C2064 1.386 . S
C2065 C2069 1.393 . S
C2066 H2058 0.950 . S
C2066 C2064 1.391 . S
C2066 C2067 1.400 . S
C2067 C2066 1.400 . S
C2067 C2068 1.398 . S
C2067 C2073 1.491 . S
C2068 H2059 0.950 . S
C2068 C2067 1.398 . S
C2068 C2069 1.391 . S
C2069 H2057 0.950 . S
C2069 C2065 1.393 . S
C2069 C2068 1.391 . S
C2070 H2060 0.950 . S
C2070 C2071 1.386 . S
C2070 C2072 1.391 . S
C2071 C2070 1.386 . S
C2071 C2075 1.393 . S
C2072 H2061 0.950 . S
C2072 C2070 1.391 . S
C2072 C2073 1.400 . S
C2073 C2067 1.491 . S
C2073 C2072 1.400 . S
C2073 C2074 1.398 . S
C2074 H2062 0.950 . S
C2074 C2073 1.398 . S
C2074 C2075 1.391 . S
C2075 H2063 0.950 . S
C2075 C2071 1.393 . S
C2075 C2074 1.391 . S
H2076 C2084 0.950 . S
H2077 C2089 0.950 . S
H2078 C2086 0.950 . S
H2079 C2088 1.055 . S
H2080 C2090 0.950 . S
H2081 C2092 0.950 . S
H2082 C2094 1.054 . S
H2083 C2095 0.950 . S
C2084 H2076 0.950 . S
C2084 C2085 1.386 . S
C2084 C2086 1.391 . S
C2085 C2084 1.386 . S
C2085 C2089 1.393 . S
C2086 H2078 0.950 . S
C2086 C2084 1.391 . S
C2086 C2087 1.400 . S
C2087 C2086 1.400 . S
C2087 C2088 1.360 1_565 S
C2087 C2093 1.491 1_565 S
C2088 H2079 1.055 . S
C2088 C2087 1.360 1_545 S
C2088 C2089 1.332 1_545 S
C2089 H2077 0.950 . S
C2089 C2085 1.393 . S
C2089 C2088 1.332 1_565 S
C2090 H2080 0.950 . S
C2090 C2091 1.386 . S
C2090 C2092 1.391 . S
C2091 C2090 1.386 . S
C2091 C2095 1.393 . S
C2092 H2081 0.950 . S
C2092 C2090 1.391 . S
C2092 C2093 1.400 . S
C2093 C2087 1.491 1_545 S
C2093 C2092 1.400 . S
C2093 C2094 1.361 1_545 S
C2094 H2082 1.054 . S
C2094 C2093 1.361 1_565 S
C2094 C2095 1.333 1_565 S
C2095 H2083 0.950 . S
C2095 C2091 1.393 . S
C2095 C2094 1.333 1_545 S
H2096 C2104 0.950 . S
H2097 C2109 0.950 . S
H2098 C2106 0.950 . S
H2099 C2108 0.950 . S
H2100 C2110 0.950 . S
H2101 C2112 0.950 . S
H2102 C2114 0.950 . S
H2103 C2115 0.950 . S
C2104 H2096 0.950 . S
C2104 C2105 1.386 1_556 S
C2104 C2106 1.391 . S
C2105 C2104 1.386 1_554 S
C2105 C2109 1.393 . S
C2106 H2098 0.950 . S
C2106 C2104 1.391 . S
C2106 C2107 1.384 1_556 S
C2107 C2106 1.384 1_554 S
C2107 C2108 1.416 . S
C2107 C2113 1.490 1_554 S
C2108 H2099 0.950 . S
C2108 C2107 1.416 . S
C2108 C2109 1.391 . S
C2109 H2097 0.950 . S
C2109 C2105 1.393 . S
C2109 C2108 1.391 . S
C2110 H2100 0.950 . S
C2110 C2111 1.386 1_554 S
C2110 C2112 1.391 . S
C2111 C2110 1.386 1_556 S
C2111 C2115 1.393 . S
C2112 H2101 0.950 . S
C2112 C2110 1.391 . S
C2112 C2113 1.385 1_554 S
C2113 C2107 1.490 1_556 S
C2113 C2112 1.385 1_556 S
C2113 C2114 1.414 . S
C2114 H2102 0.950 . S
C2114 C2113 1.414 . S
C2114 C2115 1.391 . S
C2115 H2103 0.950 . S
C2115 C2111 1.393 . S
C2115 C2114 1.391 . S
H2116 C2124 0.950 . S
H2117 C2129 0.950 . S
H2118 C2126 0.950 . S
H2119 C2128 0.950 . S
H2120 C2130 0.950 . S
H2121 C2132 0.950 . S
H2122 C2134 0.950 . S
H2123 C2135 0.950 . S
C2124 H2116 0.950 . S
C2124 C2125 1.386 . S
C2124 C2126 1.391 . S
C2125 C2124 1.386 . S
C2125 C2129 1.393 . S
C2126 H2118 0.950 . S
C2126 C2124 1.391 . S
C2126 C2127 1.400 . S
C2127 C2126 1.400 . S
C2127 C2128 1.398 . S
C2127 C2133 1.491 . S
C2128 H2119 0.950 . S
C2128 C2127 1.398 . S
C2128 C2129 1.391 . S
C2129 H2117 0.950 . S
C2129 C2125 1.393 . S
C2129 C2128 1.391 . S
C2130 H2120 0.950 . S
C2130 C2131 1.386 . S
C2130 C2132 1.391 . S
C2131 C2130 1.386 . S
C2131 C2135 1.393 . S
C2132 H2121 0.950 . S
C2132 C2130 1.391 . S
C2132 C2133 1.400 . S
C2133 C2127 1.491 . S
C2133 C2132 1.400 . S
C2133 C2134 1.398 . S
C2134 H2122 0.950 . S
C2134 C2133 1.398 . S
C2134 C2135 1.391 . S
C2135 H2123 0.950 . S
C2135 C2131 1.393 . S
C2135 C2134 1.391 . S
H2136 C2144 0.950 . S
H2137 C2149 0.950 . S
H2138 C2146 0.950 . S
H2139 C2148 0.872 1_545 S
H2140 C2150 0.950 . S
H2141 C2152 0.950 . S
H2142 C2154 0.874 1_565 S
H2143 C2155 0.950 . S
C2144 H2136 0.950 . S
C2144 C2145 1.386 . S
C2144 C2146 1.391 . S
C2145 C2144 1.386 . S
C2145 C2149 1.393 . S
C2146 H2138 0.950 . S
C2146 C2144 1.391 . S
C2146 C2147 1.400 . S
C2147 C2146 1.400 . S
C2147 C2148 1.424 . S
C2147 C2153 1.491 1_565 S
C2148 H2139 0.872 1_565 S
C2148 C2147 1.424 . S
C2148 C2149 1.447 . S
C2149 H2137 0.950 . S
C2149 C2145 1.393 . S
C2149 C2148 1.447 . S
C2150 H2140 0.950 . S
C2150 C2151 1.386 . S
C2150 C2152 1.391 . S
C2151 C2150 1.386 . S
C2151 C2155 1.393 . S
C2152 H2141 0.950 . S
C2152 C2150 1.391 . S
C2152 C2153 1.400 . S
C2153 C2147 1.491 1_545 S
C2153 C2152 1.400 . S
C2153 C2154 1.424 . S
C2154 H2142 0.874 1_545 S
C2154 C2153 1.424 . S
C2154 C2155 1.446 . S
C2155 H2143 0.950 . S
C2155 C2151 1.393 . S
C2155 C2154 1.446 . S
H2156 C2164 0.950 . S
H2157 C2169 0.950 . S
H2158 C2166 0.950 . S
H2159 C2168 0.950 . S
H2160 C2170 0.950 . S
H2161 C2172 0.950 . S
H2162 C2174 0.950 . S
H2163 C2175 0.950 . S
C2164 H2156 0.950 . S
C2164 C2165 1.386 . S
C2164 C2166 1.391 . S
C2165 C2164 1.386 . S
C2165 C2169 1.393 . S
C2166 H2158 0.950 . S
C2166 C2164 1.391 . S
C2166 C2167 1.400 . S
C2167 C2166 1.400 . S
C2167 C2168 1.398 . S
C2167 C2173 1.491 . S
C2168 H2159 0.950 . S
C2168 C2167 1.398 . S
C2168 C2169 1.391 . S
C2169 H2157 0.950 . S
C2169 C2165 1.393 . S
C2169 C2168 1.391 . S
C2170 H2160 0.950 . S
C2170 C2171 1.386 . S
C2170 C2172 1.391 . S
C2171 C2170 1.386 . S
C2171 C2175 1.393 . S
C2172 H2161 0.950 . S
C2172 C2170 1.391 . S
C2172 C2173 1.400 . S
C2173 C2167 1.491 . S
C2173 C2172 1.400 . S
C2173 C2174 1.398 . S
C2174 H2162 0.950 . S
C2174 C2173 1.398 . S
C2174 C2175 1.391 . S
C2175 H2163 0.950 . S
C2175 C2171 1.393 . S
C2175 C2174 1.391 . S
H2176 C2184 0.950 . S
H2177 C2189 0.950 . S
H2178 C2186 0.950 . S
H2179 C2188 0.950 . S
H2180 C2190 0.950 . S
H2181 C2192 0.950 . S
H2182 C2194 0.950 . S
H2183 C2195 0.950 . S
C2184 H2176 0.950 . S
C2184 C2185 1.386 . S
C2184 C2186 1.391 . S
C2185 C2184 1.386 . S
C2185 C2189 1.393 . S
C2186 H2178 0.950 . S
C2186 C2184 1.391 . S
C2186 C2187 1.400 . S
C2187 C2186 1.400 . S
C2187 C2188 1.398 . S
C2187 C2193 1.491 . S
C2188 H2179 0.950 . S
C2188 C2187 1.398 . S
C2188 C2189 1.391 . S
C2189 H2177 0.950 . S
C2189 C2185 1.393 . S
C2189 C2188 1.391 . S
C2190 H2180 0.950 . S
C2190 C2191 1.386 . S
C2190 C2192 1.391 . S
C2191 C2190 1.386 . S
C2191 C2195 1.393 . S
C2192 H2181 0.950 . S
C2192 C2190 1.391 . S
C2192 C2193 1.400 . S
C2193 C2187 1.491 . S
C2193 C2192 1.400 . S
C2193 C2194 1.398 . S
C2194 H2182 0.950 . S
C2194 C2193 1.398 . S
C2194 C2195 1.391 . S
C2195 H2183 0.950 . S
C2195 C2191 1.393 . S
C2195 C2194 1.391 . S
H2196 C2204 0.950 . S
H2197 C2209 0.950 . S
H2198 C2206 0.950 . S
H2199 C2208 0.950 . S
H2200 C2210 0.950 . S
H2201 C2212 0.950 . S
H2202 C2214 0.950 . S
H2203 C2215 0.950 . S
C2204 H2196 0.950 . S
C2204 C2205 1.386 . S
C2204 C2206 1.391 . S
C2205 C2204 1.386 . S
C2205 C2209 1.393 . S
C2206 H2198 0.950 . S
C2206 C2204 1.391 . S
C2206 C2207 1.400 . S
C2207 C2206 1.400 . S
C2207 C2208 1.398 . S
C2207 C2213 1.491 . S
C2208 H2199 0.950 . S
C2208 C2207 1.398 . S
C2208 C2209 1.391 . S
C2209 H2197 0.950 . S
C2209 C2205 1.393 . S
C2209 C2208 1.391 . S
C2210 H2200 0.950 . S
C2210 C2211 1.386 . S
C2210 C2212 1.391 . S
C2211 C2210 1.386 . S
C2211 C2215 1.393 . S
C2212 H2201 0.950 . S
C2212 C2210 1.391 . S
C2212 C2213 1.400 . S
C2213 C2207 1.491 . S
C2213 C2212 1.400 . S
C2213 C2214 1.398 . S
C2214 H2202 0.950 . S
C2214 C2213 1.398 . S
C2214 C2215 1.391 . S
C2215 H2203 0.950 . S
C2215 C2211 1.393 . S
C2215 C2214 1.391 . S
H2216 C2224 0.950 . S
H2217 C2229 0.950 . S
H2218 C2226 0.950 . S
H2219 C2228 0.950 . S
H2220 C2230 0.950 . S
H2221 C2232 0.950 . S
H2222 C2234 0.950 . S
H2223 C2235 0.950 . S
C2224 H2216 0.950 . S
C2224 C2225 1.386 . S
C2224 C2226 1.391 . S
C2225 C2224 1.386 . S
C2225 C2229 1.393 . S
C2226 H2218 0.950 . S
C2226 C2224 1.391 . S
C2226 C2227 1.400 . S
C2227 C2226 1.400 . S
C2227 C2228 1.398 . S
C2227 C2233 1.491 . S
C2228 H2219 0.950 . S
C2228 C2227 1.398 . S
C2228 C2229 1.391 . S
C2229 H2217 0.950 . S
C2229 C2225 1.393 . S
C2229 C2228 1.391 . S
C2230 H2220 0.950 . S
C2230 C2231 1.386 . S
C2230 C2232 1.391 . S
C2231 C2230 1.386 . S
C2231 C2235 1.393 . S
C2232 H2221 0.950 . S
C2232 C2230 1.391 . S
C2232 C2233 1.400 . S
C2233 C2227 1.491 . S
C2233 C2232 1.400 . S
C2233 C2234 1.398 . S
C2234 H2222 0.950 . S
C2234 C2233 1.398 . S
C2234 C2235 1.391 . S
C2235 H2223 0.950 . S
C2235 C2231 1.393 . S
C2235 C2234 1.391 . S
H2236 C2244 0.950 . S
H2237 C2249 0.950 . S
H2238 C2246 0.950 . S
H2239 C2248 0.950 . S
H2240 C2250 0.950 . S
H2241 C2252 0.950 . S
H2242 C2254 0.950 . S
H2243 C2255 0.950 . S
C2244 H2236 0.950 . S
C2244 C2245 1.386 . S
C2244 C2246 1.391 . S
C2245 C2244 1.386 . S
C2245 C2249 1.393 . S
C2246 H2238 0.950 . S
C2246 C2244 1.391 . S
C2246 C2247 1.400 . S
C2247 C2246 1.400 . S
C2247 C2248 1.398 . S
C2247 C2253 1.491 . S
C2248 H2239 0.950 . S
C2248 C2247 1.398 . S
C2248 C2249 1.391 . S
C2249 H2237 0.950 . S
C2249 C2245 1.393 . S
C2249 C2248 1.391 . S
C2250 H2240 0.950 . S
C2250 C2251 1.386 . S
C2250 C2252 1.391 . S
C2251 C2250 1.386 . S
C2251 C2255 1.393 . S
C2252 H2241 0.950 . S
C2252 C2250 1.391 . S
C2252 C2253 1.400 . S
C2253 C2247 1.491 . S
C2253 C2252 1.400 . S
C2253 C2254 1.398 . S
C2254 H2242 0.950 . S
C2254 C2253 1.398 . S
C2254 C2255 1.391 . S
C2255 H2243 0.950 . S
C2255 C2251 1.393 . S
C2255 C2254 1.391 . S
H2256 C2264 0.950 . S
H2257 C2269 0.950 . S
H2258 C2266 0.950 . S
H2259 C2268 0.950 1_545 S
H2260 C2270 0.950 . S
H2261 C2272 0.950 . S
H2262 C2274 0.950 1_565 S
H2263 C2275 0.950 . S
C2264 H2256 0.950 . S
C2264 C2265 1.386 . S
C2264 C2266 1.391 . S
C2265 C2264 1.386 . S
C2265 C2269 1.393 . S
C2266 H2258 0.950 . S
C2266 C2264 1.391 . S
C2266 C2267 1.400 . S
C2267 C2266 1.400 . S
C2267 C2268 1.398 . S
C2267 C2273 1.491 1_465 S
C2268 H2259 0.950 1_565 S
C2268 C2267 1.398 . S
C2268 C2269 1.391 . S
C2269 H2257 0.950 . S
C2269 C2265 1.393 . S
C2269 C2268 1.391 . S
C2270 H2260 0.950 . S
C2270 C2271 1.386 . S
C2270 C2272 1.391 . S
C2271 C2270 1.386 . S
C2271 C2275 1.393 . S
C2272 H2261 0.950 . S
C2272 C2270 1.391 . S
C2272 C2273 1.400 . S
C2273 C2267 1.491 1_645 S
C2273 C2272 1.400 . S
C2273 C2274 1.398 . S
C2274 H2262 0.950 1_545 S
C2274 C2273 1.398 . S
C2274 C2275 1.391 . S
C2275 H2263 0.950 . S
C2275 C2271 1.393 . S
C2275 C2274 1.391 . S
H2276 C2284 0.950 . S
H2277 C2289 0.950 . S
H2278 C2286 0.950 1_455 S
H2279 C2288 0.950 . S
H2280 C2290 0.950 . S
H2281 C2292 0.950 1_655 S
H2282 C2294 0.950 . S
H2283 C2295 0.950 . S
C2284 H2276 0.950 . S
C2284 C2285 1.386 . S
C2284 C2286 1.391 . S
C2285 C2284 1.386 . S
C2285 C2289 1.393 . S
C2286 H2278 0.950 1_655 S
C2286 C2284 1.391 . S
C2286 C2287 1.400 . S
C2287 C2286 1.400 . S
C2287 C2288 1.398 . S
C2287 C2293 1.491 1_655 S
C2288 H2279 0.950 . S
C2288 C2287 1.398 . S
C2288 C2289 1.391 . S
C2289 H2277 0.950 . S
C2289 C2285 1.393 . S
C2289 C2288 1.391 . S
C2290 H2280 0.950 . S
C2290 C2291 1.386 . S
C2290 C2292 1.391 . S
C2291 C2290 1.386 . S
C2291 C2295 1.393 . S
C2292 H2281 0.950 1_455 S
C2292 C2290 1.391 . S
C2292 C2293 1.400 . S
C2293 C2287 1.491 1_455 S
C2293 C2292 1.400 . S
C2293 C2294 1.398 . S
C2294 H2282 0.950 . S
C2294 C2293 1.398 . S
C2294 C2295 1.391 . S
C2295 H2283 0.950 . S
C2295 C2291 1.393 . S
C2295 C2294 1.391 . S
H2296 C2304 0.950 . S
H2297 C2309 0.950 . S
H2298 C2306 0.944 1_655 S
H2299 C2308 0.950 . S
H2300 C2310 0.950 . S
H2301 C2312 0.942 1_455 S
H2302 C2314 0.950 . S
H2303 C2315 0.950 . S
C2304 H2296 0.950 . S
C2304 C2305 1.386 . S
C2304 C2306 1.391 . S
C2305 C2304 1.386 . S
C2305 C2309 1.393 . S
C2306 H2298 0.944 1_455 S
C2306 C2304 1.391 . S
C2306 C2307 1.400 . S
C2307 C2306 1.400 . S
C2307 C2308 1.398 . S
C2307 C2313 1.491 1_455 S
C2308 H2299 0.950 . S
C2308 C2307 1.398 . S
C2308 C2309 1.391 . S
C2309 H2297 0.950 . S
C2309 C2305 1.393 . S
C2309 C2308 1.391 . S
C2310 H2300 0.950 . S
C2310 C2311 1.386 . S
C2310 C2312 1.391 . S
C2311 C2310 1.386 . S
C2311 C2315 1.393 . S
C2312 H2301 0.942 1_655 S
C2312 C2310 1.391 . S
C2312 C2313 1.400 . S
C2313 C2307 1.491 1_655 S
C2313 C2312 1.400 . S
C2313 C2314 1.398 . S
C2314 H2302 0.950 . S
C2314 C2313 1.398 . S
C2314 C2315 1.391 . S
C2315 H2303 0.950 . S
C2315 C2311 1.393 . S
C2315 C2314 1.391 . S
H2316 C2324 0.950 . S
H2317 C2329 0.950 . S
H2318 C2326 0.950 . S
H2319 C2328 0.950 1_655 S
H2320 C2330 0.950 . S
H2321 C2332 0.950 . S
H2322 C2334 0.950 1_455 S
H2323 C2335 0.950 . S
C2324 H2316 0.950 . S
C2324 C2325 1.386 . S
C2324 C2326 1.391 . S
C2325 C2324 1.386 . S
C2325 C2329 1.393 1_556 S
C2326 H2318 0.950 . S
C2326 C2324 1.391 . S
C2326 C2327 1.409 . S
C2327 C2326 1.409 . S
C2327 C2328 1.392 1_556 S
C2327 C2333 1.489 1_456 S
C2328 H2319 0.950 1_455 S
C2328 C2327 1.392 1_554 S
C2328 C2329 1.391 . S
C2329 H2317 0.950 . S
C2329 C2325 1.393 1_554 S
C2329 C2328 1.391 . S
C2330 H2320 0.950 . S
C2330 C2331 1.386 . S
C2330 C2332 1.391 . S
C2331 C2330 1.386 . S
C2331 C2335 1.393 1_554 S
C2332 H2321 0.950 . S
C2332 C2330 1.391 . S
C2332 C2333 1.409 . S
C2333 C2327 1.489 1_654 S
C2333 C2332 1.409 . S
C2333 C2334 1.392 1_554 S
C2334 H2322 0.950 1_655 S
C2334 C2333 1.392 1_556 S
C2334 C2335 1.391 . S
C2335 H2323 0.950 . S
C2335 C2331 1.393 1_556 S
C2335 C2334 1.391 . S
H2336 C2344 0.950 . S
H2337 C2349 0.950 . S
H2338 C2346 0.950 . S
H2339 C2348 0.950 . S
H2340 C2350 0.950 . S
H2341 C2352 0.950 . S
H2342 C2354 0.950 . S
H2343 C2355 0.950 . S
C2344 H2336 0.950 . S
C2344 C2345 1.386 . S
C2344 C2346 1.391 . S
C2345 C2344 1.386 . S
C2345 C2349 1.393 . S
C2346 H2338 0.950 . S
C2346 C2344 1.391 . S
C2346 C2347 1.400 . S
C2347 C2346 1.400 . S
C2347 C2348 1.398 . S
C2347 C2353 1.491 . S
C2348 H2339 0.950 . S
C2348 C2347 1.398 . S
C2348 C2349 1.391 . S
C2349 H2337 0.950 . S
C2349 C2345 1.393 . S
C2349 C2348 1.391 . S
C2350 H2340 0.950 . S
C2350 C2351 1.386 . S
C2350 C2352 1.391 . S
C2351 C2350 1.386 . S
C2351 C2355 1.393 . S
C2352 H2341 0.950 . S
C2352 C2350 1.391 . S
C2352 C2353 1.400 . S
C2353 C2347 1.491 . S
C2353 C2352 1.400 . S
C2353 C2354 1.398 . S
C2354 H2342 0.950 . S
C2354 C2353 1.398 . S
C2354 C2355 1.391 . S
C2355 H2343 0.950 . S
C2355 C2351 1.393 . S
C2355 C2354 1.391 . S
H2356 C2364 0.950 . S
H2357 C2369 0.950 . S
H2358 C2366 0.950 . S
H2359 C2368 0.950 . S
H2360 C2370 0.950 . S
H2361 C2372 0.950 . S
H2362 C2374 0.950 . S
H2363 C2375 0.950 . S
C2364 H2356 0.950 . S
C2364 C2365 1.386 . S
C2364 C2366 1.391 . S
C2365 C2364 1.386 . S
C2365 C2369 1.393 . S
C2366 H2358 0.950 . S
C2366 C2364 1.391 . S
C2366 C2367 1.400 . S
C2367 C2366 1.400 . S
C2367 C2368 1.398 . S
C2367 C2373 1.491 . S
C2368 H2359 0.950 . S
C2368 C2367 1.398 . S
C2368 C2369 1.391 . S
C2369 H2357 0.950 . S
C2369 C2365 1.393 . S
C2369 C2368 1.391 . S
C2370 H2360 0.950 . S
C2370 C2371 1.386 . S
C2370 C2372 1.391 . S
C2371 C2370 1.386 . S
C2371 C2375 1.393 . S
C2372 H2361 0.950 . S
C2372 C2370 1.391 . S
C2372 C2373 1.400 . S
C2373 C2367 1.491 . S
C2373 C2372 1.400 . S
C2373 C2374 1.398 . S
C2374 H2362 0.950 . S
C2374 C2373 1.398 . S
C2374 C2375 1.391 . S
C2375 H2363 0.950 . S
C2375 C2371 1.393 . S
C2375 C2374 1.391 . S
H2376 C2384 0.950 . S
H2377 C2389 0.950 . S
H2378 C2386 0.950 . S
H2379 C2388 0.950 . S
H2380 C2390 0.950 . S
H2381 C2392 0.950 . S
H2382 C2394 0.950 . S
H2383 C2395 0.950 . S
C2384 H2376 0.950 . S
C2384 C2385 1.386 . S
C2384 C2386 1.391 . S
C2385 C2384 1.386 . S
C2385 C2389 1.393 . S
C2386 H2378 0.950 . S
C2386 C2384 1.391 . S
C2386 C2387 1.400 . S
C2387 C2386 1.400 . S
C2387 C2388 1.398 . S
C2387 C2393 1.491 . S
C2388 H2379 0.950 . S
C2388 C2387 1.398 . S
C2388 C2389 1.391 . S
C2389 H2377 0.950 . S
C2389 C2385 1.393 . S
C2389 C2388 1.391 . S
C2390 H2380 0.950 . S
C2390 C2391 1.386 . S
C2390 C2392 1.391 . S
C2391 C2390 1.386 . S
C2391 C2395 1.393 . S
C2392 H2381 0.950 . S
C2392 C2390 1.391 . S
C2392 C2393 1.400 . S
C2393 C2387 1.491 . S
C2393 C2392 1.400 . S
C2393 C2394 1.398 . S
C2394 H2382 0.950 . S
C2394 C2393 1.398 . S
C2394 C2395 1.391 . S
C2395 H2383 0.950 . S
C2395 C2391 1.393 . S
C2395 C2394 1.391 . S
H2396 C2404 0.950 . S
H2397 C2409 0.950 . S
H2398 C2406 0.950 . S
H2399 C2408 0.950 . S
H2400 C2410 0.950 . S
H2401 C2412 0.950 . S
H2402 C2414 0.950 . S
H2403 C2415 0.950 . S
C2404 H2396 0.950 . S
C2404 C2405 1.386 . S
C2404 C2406 1.391 . S
C2405 C2404 1.386 . S
C2405 C2409 1.393 . S
C2406 H2398 0.950 . S
C2406 C2404 1.391 . S
C2406 C2407 1.400 . S
C2407 C2406 1.400 . S
C2407 C2408 1.398 . S
C2407 C2413 1.491 . S
C2408 H2399 0.950 . S
C2408 C2407 1.398 . S
C2408 C2409 1.391 . S
C2409 H2397 0.950 . S
C2409 C2405 1.393 . S
C2409 C2408 1.391 . S
C2410 H2400 0.950 . S
C2410 C2411 1.386 . S
C2410 C2412 1.391 . S
C2411 C2410 1.386 . S
C2411 C2415 1.393 . S
C2412 H2401 0.950 . S
C2412 C2410 1.391 . S
C2412 C2413 1.400 . S
C2413 C2407 1.491 . S
C2413 C2412 1.400 . S
C2413 C2414 1.398 . S
C2414 H2402 0.950 . S
C2414 C2413 1.398 . S
C2414 C2415 1.391 . S
C2415 H2403 0.950 . S
C2415 C2411 1.393 . S
C2415 C2414 1.391 . S
H2416 C2424 0.950 . S
H2417 C2429 0.950 . S
H2418 C2426 0.950 . S
H2419 C2428 0.950 . S
H2420 C2430 0.950 . S
H2421 C2432 0.950 . S
H2422 C2434 0.950 . S
H2423 C2435 0.950 . S
C2424 H2416 0.950 . S
C2424 C2425 1.386 . S
C2424 C2426 1.391 . S
C2425 C2424 1.386 . S
C2425 C2429 1.393 . S
C2426 H2418 0.950 . S
C2426 C2424 1.391 . S
C2426 C2427 1.400 . S
C2427 C2426 1.400 . S
C2427 C2428 1.398 . S
C2427 C2433 1.491 . S
C2428 H2419 0.950 . S
C2428 C2427 1.398 . S
C2428 C2429 1.391 . S
C2429 H2417 0.950 . S
C2429 C2425 1.393 . S
C2429 C2428 1.391 . S
C2430 H2420 0.950 . S
C2430 C2431 1.386 . S
C2430 C2432 1.391 . S
C2431 C2430 1.386 . S
C2431 C2435 1.393 . S
C2432 H2421 0.950 . S
C2432 C2430 1.391 . S
C2432 C2433 1.400 . S
C2433 C2427 1.491 . S
C2433 C2432 1.400 . S
C2433 C2434 1.398 . S
C2434 H2422 0.950 . S
C2434 C2433 1.398 . S
C2434 C2435 1.391 . S
C2435 H2423 0.950 . S
C2435 C2431 1.393 . S
C2435 C2434 1.391 . S
H2436 C2444 0.950 . S
H2437 C2449 0.950 . S
H2438 C2446 0.950 . S
H2439 C2448 0.950 . S
H2440 C2450 0.950 . S
H2441 C2452 0.950 . S
H2442 C2454 0.950 . S
H2443 C2455 0.950 . S
C2444 H2436 0.950 . S
C2444 C2445 1.386 . S
C2444 C2446 1.391 . S
C2445 C2444 1.386 . S
C2445 C2449 1.393 . S
C2446 H2438 0.950 . S
C2446 C2444 1.391 . S
C2446 C2447 1.400 . S
C2447 C2446 1.400 . S
C2447 C2448 1.398 . S
C2447 C2453 1.491 . S
C2448 H2439 0.950 . S
C2448 C2447 1.398 . S
C2448 C2449 1.391 . S
C2449 H2437 0.950 . S
C2449 C2445 1.393 . S
C2449 C2448 1.391 . S
C2450 H2440 0.950 . S
C2450 C2451 1.386 . S
C2450 C2452 1.391 . S
C2451 C2450 1.386 . S
C2451 C2455 1.393 . S
C2452 H2441 0.950 . S
C2452 C2450 1.391 . S
C2452 C2453 1.400 . S
C2453 C2447 1.491 . S
C2453 C2452 1.400 . S
C2453 C2454 1.398 . S
C2454 H2442 0.950 . S
C2454 C2453 1.398 . S
C2454 C2455 1.391 . S
C2455 H2443 0.950 . S
C2455 C2451 1.393 . S
C2455 C2454 1.391 . S
H2456 C2464 0.950 . S
H2457 C2469 0.950 . S
H2458 C2466 0.950 . S
H2459 C2468 0.950 . S
H2460 C2470 0.950 . S
H2461 C2472 0.950 . S
H2462 C2474 0.950 . S
H2463 C2475 0.950 . S
C2464 H2456 0.950 . S
C2464 C2465 1.386 . S
C2464 C2466 1.391 . S
C2465 C2464 1.386 . S
C2465 C2469 1.393 . S
C2466 H2458 0.950 . S
C2466 C2464 1.391 . S
C2466 C2467 1.400 . S
C2467 C2466 1.400 . S
C2467 C2468 1.398 . S
C2467 C2473 1.491 . S
C2468 H2459 0.950 . S
C2468 C2467 1.398 . S
C2468 C2469 1.391 . S
C2469 H2457 0.950 . S
C2469 C2465 1.393 . S
C2469 C2468 1.391 . S
C2470 H2460 0.950 . S
C2470 C2471 1.386 . S
C2470 C2472 1.391 . S
C2471 C2470 1.386 . S
C2471 C2475 1.393 . S
C2472 H2461 0.950 . S
C2472 C2470 1.391 . S
C2472 C2473 1.400 . S
C2473 C2467 1.491 . S
C2473 C2472 1.400 . S
C2473 C2474 1.398 . S
C2474 H2462 0.950 . S
C2474 C2473 1.398 . S
C2474 C2475 1.391 . S
C2475 H2463 0.950 . S
C2475 C2471 1.393 . S
C2475 C2474 1.391 . S
H2476 C2484 0.950 . S
H2477 C2489 0.950 . S
H2478 C2486 0.950 . S
H2479 C2488 0.950 . S
H2480 C2490 0.950 . S
H2481 C2492 0.950 . S
H2482 C2494 0.950 . S
H2483 C2495 0.950 . S
C2484 H2476 0.950 . S
C2484 C2485 1.386 . S
C2484 C2486 1.391 . S
C2485 C2484 1.386 . S
C2485 C2489 1.393 . S
C2486 H2478 0.950 . S
C2486 C2484 1.391 . S
C2486 C2487 1.400 . S
C2487 C2486 1.400 . S
C2487 C2488 1.398 . S
C2487 C2493 1.491 . S
C2488 H2479 0.950 . S
C2488 C2487 1.398 . S
C2488 C2489 1.391 . S
C2489 H2477 0.950 . S
C2489 C2485 1.393 . S
C2489 C2488 1.391 . S
C2490 H2480 0.950 . S
C2490 C2491 1.386 . S
C2490 C2492 1.391 . S
C2491 C2490 1.386 . S
C2491 C2495 1.393 . S
C2492 H2481 0.950 . S
C2492 C2490 1.391 . S
C2492 C2493 1.400 . S
C2493 C2487 1.491 . S
C2493 C2492 1.400 . S
C2493 C2494 1.398 . S
C2494 H2482 0.950 . S
C2494 C2493 1.398 . S
C2494 C2495 1.391 . S
C2495 H2483 0.950 . S
C2495 C2491 1.393 . S
C2495 C2494 1.391 . S
H2496 C2504 0.950 . S
H2497 C2509 0.950 . S
H2498 C2506 0.950 . S
H2499 C2508 0.950 . S
H2500 C2510 0.950 . S
H2501 C2512 0.950 . S
H2502 C2514 0.950 . S
H2503 C2515 0.950 . S
C2504 H2496 0.950 . S
C2504 C2505 1.386 . S
C2504 C2506 1.391 . S
C2505 C2504 1.386 . S
C2505 C2509 1.393 . S
C2506 H2498 0.950 . S
C2506 C2504 1.391 . S
C2506 C2507 1.400 . S
C2507 C2506 1.400 . S
C2507 C2508 1.398 . S
C2507 C2513 1.491 . S
C2508 H2499 0.950 . S
C2508 C2507 1.398 . S
C2508 C2509 1.391 . S
C2509 H2497 0.950 . S
C2509 C2505 1.393 . S
C2509 C2508 1.391 . S
C2510 H2500 0.950 . S
C2510 C2511 1.386 . S
C2510 C2512 1.391 . S
C2511 C2510 1.386 . S
C2511 C2515 1.393 . S
C2512 H2501 0.950 . S
C2512 C2510 1.391 . S
C2512 C2513 1.400 . S
C2513 C2507 1.491 . S
C2513 C2512 1.400 . S
C2513 C2514 1.398 . S
C2514 H2502 0.950 . S
C2514 C2513 1.398 . S
C2514 C2515 1.391 . S
C2515 H2503 0.950 . S
C2515 C2511 1.393 . S
C2515 C2514 1.391 . S
H2516 C2524 0.950 . S
H2517 C2529 0.950 . S
H2518 C2526 0.950 . S
H2519 C2528 0.950 . S
H2520 C2530 0.950 . S
H2521 C2532 0.950 . S
H2522 C2534 0.950 . S
H2523 C2535 0.950 . S
C2524 H2516 0.950 . S
C2524 C2525 1.386 . S
C2524 C2526 1.391 . S
C2525 C2524 1.386 . S
C2525 C2529 1.393 . S
C2526 H2518 0.950 . S
C2526 C2524 1.391 . S
C2526 C2527 1.400 . S
C2527 C2526 1.400 . S
C2527 C2528 1.398 . S
C2527 C2533 1.491 . S
C2528 H2519 0.950 . S
C2528 C2527 1.398 . S
C2528 C2529 1.391 . S
C2529 H2517 0.950 . S
C2529 C2525 1.393 . S
C2529 C2528 1.391 . S
C2530 H2520 0.950 . S
C2530 C2531 1.386 . S
C2530 C2532 1.391 . S
C2531 C2530 1.386 . S
C2531 C2535 1.393 . S
C2532 H2521 0.950 . S
C2532 C2530 1.391 . S
C2532 C2533 1.400 . S
C2533 C2527 1.491 . S
C2533 C2532 1.400 . S
C2533 C2534 1.398 . S
C2534 H2522 0.950 . S
C2534 C2533 1.398 . S
C2534 C2535 1.391 . S
C2535 H2523 0.950 . S
C2535 C2531 1.393 . S
C2535 C2534 1.391 . S
H2536 C2544 0.950 . S
H2537 C2549 0.950 . S
H2538 C2546 0.950 . S
H2539 C2548 0.950 . S
H2540 C2550 0.950 . S
H2541 C2552 0.950 . S
H2542 C2554 0.950 . S
H2543 C2555 0.950 . S
C2544 H2536 0.950 . S
C2544 C2545 1.386 . S
C2544 C2546 1.391 . S
C2545 C2544 1.386 . S
C2545 C2549 1.393 . S
C2546 H2538 0.950 . S
C2546 C2544 1.391 . S
C2546 C2547 1.400 . S
C2547 C2546 1.400 . S
C2547 C2548 1.398 . S
C2547 C2553 1.491 . S
C2548 H2539 0.950 . S
C2548 C2547 1.398 . S
C2548 C2549 1.391 . S
C2549 H2537 0.950 . S
C2549 C2545 1.393 . S
C2549 C2548 1.391 . S
C2550 H2540 0.950 . S
C2550 C2551 1.386 . S
C2550 C2552 1.391 . S
C2551 C2550 1.386 . S
C2551 C2555 1.393 . S
C2552 H2541 0.950 . S
C2552 C2550 1.391 . S
C2552 C2553 1.400 . S
C2553 C2547 1.491 . S
C2553 C2552 1.400 . S
C2553 C2554 1.398 . S
C2554 H2542 0.950 . S
C2554 C2553 1.398 . S
C2554 C2555 1.391 . S
C2555 H2543 0.950 . S
C2555 C2551 1.393 . S
C2555 C2554 1.391 . S
H2556 C2564 0.950 . S
H2557 C2569 0.950 . S
H2558 C2566 0.950 . S
H2559 C2568 0.950 . S
H2560 C2570 0.950 . S
H2561 C2572 0.950 . S
H2562 C2574 0.950 . S
H2563 C2575 0.950 . S
C2564 H2556 0.950 . S
C2564 C2565 1.386 . S
C2564 C2566 1.391 . S
C2565 C2564 1.386 . S
C2565 C2569 1.393 . S
C2566 H2558 0.950 . S
C2566 C2564 1.391 . S
C2566 C2567 1.400 . S
C2567 C2566 1.400 . S
C2567 C2568 1.398 . S
C2567 C2573 1.491 . S
C2568 H2559 0.950 . S
C2568 C2567 1.398 . S
C2568 C2569 1.391 . S
C2569 H2557 0.950 . S
C2569 C2565 1.393 . S
C2569 C2568 1.391 . S
C2570 H2560 0.950 . S
C2570 C2571 1.386 . S
C2570 C2572 1.391 . S
C2571 C2570 1.386 . S
C2571 C2575 1.393 . S
C2572 H2561 0.950 . S
C2572 C2570 1.391 . S
C2572 C2573 1.400 . S
C2573 C2567 1.491 . S
C2573 C2572 1.400 . S
C2573 C2574 1.398 . S
C2574 H2562 0.950 . S
C2574 C2573 1.398 . S
C2574 C2575 1.391 . S
C2575 H2563 0.950 . S
C2575 C2571 1.393 . S
C2575 C2574 1.391 . S
H2576 C2584 0.950 . S
H2577 C2589 0.950 . S
H2578 C2586 0.950 . S
H2579 C2588 0.950 . S
H2580 C2590 0.950 . S
H2581 C2592 0.950 . S
H2582 C2594 0.950 . S
H2583 C2595 0.950 . S
C2584 H2576 0.950 . S
C2584 C2585 1.386 . S
C2584 C2586 1.391 . S
C2585 C2584 1.386 . S
C2585 C2589 1.393 . S
C2586 H2578 0.950 . S
C2586 C2584 1.391 . S
C2586 C2587 1.400 . S
C2587 C2586 1.400 . S
C2587 C2588 1.398 . S
C2587 C2593 1.491 . S
C2588 H2579 0.950 . S
C2588 C2587 1.398 . S
C2588 C2589 1.391 . S
C2589 H2577 0.950 . S
C2589 C2585 1.393 . S
C2589 C2588 1.391 . S
C2590 H2580 0.950 . S
C2590 C2591 1.386 . S
C2590 C2592 1.391 . S
C2591 C2590 1.386 . S
C2591 C2595 1.393 . S
C2592 H2581 0.950 . S
C2592 C2590 1.391 . S
C2592 C2593 1.400 . S
C2593 C2587 1.491 . S
C2593 C2592 1.400 . S
C2593 C2594 1.398 . S
C2594 H2582 0.950 . S
C2594 C2593 1.398 . S
C2594 C2595 1.391 . S
C2595 H2583 0.950 . S
C2595 C2591 1.393 . S
C2595 C2594 1.391 . S
H2596 C2604 0.950 . S
H2597 C2609 0.950 . S
H2598 C2606 0.950 . S
H2599 C2608 0.950 . S
H2600 C2610 0.950 . S
H2601 C2612 0.950 . S
H2602 C2614 0.950 . S
H2603 C2615 0.950 . S
C2604 H2596 0.950 . S
C2604 C2605 1.386 . S
C2604 C2606 1.391 . S
C2605 C2604 1.386 . S
C2605 C2609 1.393 . S
C2606 H2598 0.950 . S
C2606 C2604 1.391 . S
C2606 C2607 1.400 . S
C2607 C2606 1.400 . S
C2607 C2608 1.398 . S
C2607 C2613 1.491 . S
C2608 H2599 0.950 . S
C2608 C2607 1.398 . S
C2608 C2609 1.391 . S
C2609 H2597 0.950 . S
C2609 C2605 1.393 . S
C2609 C2608 1.391 . S
C2610 H2600 0.950 . S
C2610 C2611 1.386 . S
C2610 C2612 1.391 . S
C2611 C2610 1.386 . S
C2611 C2615 1.393 . S
C2612 H2601 0.950 . S
C2612 C2610 1.391 . S
C2612 C2613 1.400 . S
C2613 C2607 1.491 . S
C2613 C2612 1.400 . S
C2613 C2614 1.398 . S
C2614 H2602 0.950 . S
C2614 C2613 1.398 . S
C2614 C2615 1.391 . S
C2615 H2603 0.950 . S
C2615 C2611 1.393 . S
C2615 C2614 1.391 . S
H2616 C2624 0.950 . S
H2617 C2629 0.950 . S
H2618 C2626 0.950 . S
H2619 C2628 0.950 . S
H2620 C2630 0.950 . S
H2621 C2632 0.950 . S
H2622 C2634 0.950 . S
H2623 C2635 0.950 . S
C2624 H2616 0.950 . S
C2624 C2625 1.386 . S
C2624 C2626 1.391 . S
C2625 C2624 1.386 . S
C2625 C2629 1.393 . S
C2626 H2618 0.950 . S
C2626 C2624 1.391 . S
C2626 C2627 1.400 . S
C2627 C2626 1.400 . S
C2627 C2628 1.398 . S
C2627 C2633 1.491 . S
C2628 H2619 0.950 . S
C2628 C2627 1.398 . S
C2628 C2629 1.391 . S
C2629 H2617 0.950 . S
C2629 C2625 1.393 . S
C2629 C2628 1.391 . S
C2630 H2620 0.950 . S
C2630 C2631 1.386 . S
C2630 C2632 1.391 . S
C2631 C2630 1.386 . S
C2631 C2635 1.393 . S
C2632 H2621 0.950 . S
C2632 C2630 1.391 . S
C2632 C2633 1.400 . S
C2633 C2627 1.491 . S
C2633 C2632 1.400 . S
C2633 C2634 1.398 . S
C2634 H2622 0.950 . S
C2634 C2633 1.398 . S
C2634 C2635 1.391 . S
C2635 H2623 0.950 . S
C2635 C2631 1.393 . S
C2635 C2634 1.391 . S
H2636 C2644 0.950 . S
H2637 C2649 0.950 . S
H2638 C2646 0.950 . S
H2639 C2648 0.950 . S
H2640 C2650 0.950 . S
H2641 C2652 0.950 . S
H2642 C2654 0.950 . S
H2643 C2655 0.950 . S
C2644 H2636 0.950 . S
C2644 C2645 1.386 . S
C2644 C2646 1.391 . S
C2645 C2644 1.386 . S
C2645 C2649 1.393 . S
C2646 H2638 0.950 . S
C2646 C2644 1.391 . S
C2646 C2647 1.400 . S
C2647 C2646 1.400 . S
C2647 C2648 1.398 . S
C2647 C2653 1.491 . S
C2648 H2639 0.950 . S
C2648 C2647 1.398 . S
C2648 C2649 1.391 . S
C2649 H2637 0.950 . S
C2649 C2645 1.393 . S
C2649 C2648 1.391 . S
C2650 H2640 0.950 . S
C2650 C2651 1.386 . S
C2650 C2652 1.391 . S
C2651 C2650 1.386 . S
C2651 C2655 1.393 . S
C2652 H2641 0.950 . S
C2652 C2650 1.391 . S
C2652 C2653 1.400 . S
C2653 C2647 1.491 . S
C2653 C2652 1.400 . S
C2653 C2654 1.398 . S
C2654 H2642 0.950 . S
C2654 C2653 1.398 . S
C2654 C2655 1.391 . S
C2655 H2643 0.950 . S
C2655 C2651 1.393 . S
C2655 C2654 1.391 . S
H2656 C2664 0.950 . S
H2657 C2669 0.950 . S
H2658 C2666 0.950 . S
H2659 C2668 0.950 . S
H2660 C2670 0.950 . S
H2661 C2672 0.950 . S
H2662 C2674 0.946 1_556 S
H2663 C2675 0.951 . S
C2664 H2656 0.950 . S
C2664 C2665 1.386 . S
C2664 C2666 1.391 . S
C2665 C2664 1.386 . S
C2665 C2669 1.393 . S
C2666 H2658 0.950 . S
C2666 C2664 1.391 . S
C2666 C2667 1.400 . S
C2667 C2666 1.400 . S
C2667 C2668 1.398 . S
C2667 C2673 1.491 . S
C2668 H2659 0.950 . S
C2668 C2667 1.398 . S
C2668 C2669 1.391 . S
C2669 H2657 0.950 . S
C2669 C2665 1.393 . S
C2669 C2668 1.391 . S
C2670 H2660 0.950 . S
C2670 C2671 1.386 . S
C2670 C2672 1.391 . S
C2671 C2670 1.386 . S
C2671 C2675 1.393 . S
C2672 H2661 0.950 . S
C2672 C2670 1.391 . S
C2672 C2673 1.400 . S
C2673 C2667 1.491 . S
C2673 C2672 1.400 . S
C2673 C2674 1.398 . S
C2674 H2662 0.946 1_554 S
C2674 C2673 1.398 . S
C2674 C2675 1.391 . S
C2675 H2663 0.951 . S
C2675 C2671 1.393 . S
C2675 C2674 1.391 . S
H2676 C2684 0.950 . S
H2677 C2689 0.950 . S
H2678 C2686 0.950 . S
H2679 C2688 0.950 . S
H2680 C2690 0.950 . S
H2681 C2692 0.950 . S
H2682 C2694 0.950 . S
H2683 C2695 0.950 . S
C2684 H2676 0.950 . S
C2684 C2685 1.386 . S
C2684 C2686 1.391 . S
C2685 C2684 1.386 . S
C2685 C2689 1.393 . S
C2686 H2678 0.950 . S
C2686 C2684 1.391 . S
C2686 C2687 1.400 . S
C2687 C2686 1.400 . S
C2687 C2688 1.398 . S
C2687 C2693 1.491 . S
C2688 H2679 0.950 . S
C2688 C2687 1.398 . S
C2688 C2689 1.391 . S
C2689 H2677 0.950 . S
C2689 C2685 1.393 . S
C2689 C2688 1.391 . S
C2690 H2680 0.950 . S
C2690 C2691 1.386 . S
C2690 C2692 1.391 . S
C2691 C2690 1.386 . S
C2691 C2695 1.393 . S
C2692 H2681 0.950 . S
C2692 C2690 1.391 . S
C2692 C2693 1.400 . S
C2693 C2687 1.491 . S
C2693 C2692 1.400 . S
C2693 C2694 1.398 . S
C2694 H2682 0.950 . S
C2694 C2693 1.398 . S
C2694 C2695 1.391 . S
C2695 H2683 0.950 . S
C2695 C2691 1.393 . S
C2695 C2694 1.391 . S
H2696 C2704 0.950 . S
H2697 C2709 0.950 . S
H2698 C2706 0.950 . S
H2699 C2708 0.950 . S
H2700 C2710 0.950 . S
H2701 C2712 0.950 . S
H2702 C2714 0.950 . S
H2703 C2715 0.950 . S
C2704 H2696 0.950 . S
C2704 C2705 1.386 . S
C2704 C2706 1.391 . S
C2705 C2704 1.386 . S
C2705 C2709 1.393 . S
C2706 H2698 0.950 . S
C2706 C2704 1.391 . S
C2706 C2707 1.400 . S
C2707 C2706 1.400 . S
C2707 C2708 1.398 . S
C2707 C2713 1.491 . S
C2708 H2699 0.950 . S
C2708 C2707 1.398 . S
C2708 C2709 1.391 . S
C2709 H2697 0.950 . S
C2709 C2705 1.393 . S
C2709 C2708 1.391 . S
C2710 H2700 0.950 . S
C2710 C2711 1.386 . S
C2710 C2712 1.391 . S
C2711 C2710 1.386 . S
C2711 C2715 1.393 . S
C2712 H2701 0.950 . S
C2712 C2710 1.391 . S
C2712 C2713 1.400 . S
C2713 C2707 1.491 . S
C2713 C2712 1.400 . S
C2713 C2714 1.398 . S
C2714 H2702 0.950 . S
C2714 C2713 1.398 . S
C2714 C2715 1.391 . S
C2715 H2703 0.950 . S
C2715 C2711 1.393 . S
C2715 C2714 1.391 . S
H2716 C2724 0.950 . S
H2717 C2729 0.950 . S
H2718 C2726 0.950 . S
H2719 C2728 0.950 . S
H2720 C2730 0.950 . S
H2721 C2732 0.950 . S
H2722 C2734 0.950 . S
H2723 C2735 0.950 . S
C2724 H2716 0.950 . S
C2724 C2725 1.386 . S
C2724 C2726 1.391 . S
C2725 C2724 1.386 . S
C2725 C2729 1.393 . S
C2726 H2718 0.950 . S
C2726 C2724 1.391 . S
C2726 C2727 1.400 . S
C2727 C2726 1.400 . S
C2727 C2728 1.398 . S
C2727 C2733 1.491 . S
C2728 H2719 0.950 . S
C2728 C2727 1.398 . S
C2728 C2729 1.391 . S
C2729 H2717 0.950 . S
C2729 C2725 1.393 . S
C2729 C2728 1.391 . S
C2730 H2720 0.950 . S
C2730 C2731 1.386 . S
C2730 C2732 1.391 . S
C2731 C2730 1.386 . S
C2731 C2735 1.393 . S
C2732 H2721 0.950 . S
C2732 C2730 1.391 . S
C2732 C2733 1.400 . S
C2733 C2727 1.491 . S
C2733 C2732 1.400 . S
C2733 C2734 1.398 . S
C2734 H2722 0.950 . S
C2734 C2733 1.398 . S
C2734 C2735 1.391 . S
C2735 H2723 0.950 . S
C2735 C2731 1.393 . S
C2735 C2734 1.391 . S
H2736 C2744 0.950 . S
H2737 C2749 0.950 . S
H2738 C2746 0.950 . S
H2739 C2748 0.950 . S
H2740 C2750 0.950 . S
H2741 C2752 0.950 . S
H2742 C2754 0.950 . S
H2743 C2755 0.950 . S
C2744 H2736 0.950 . S
C2744 C2745 1.386 . S
C2744 C2746 1.391 . S
C2745 C2744 1.386 . S
C2745 C2749 1.393 . S
C2746 H2738 0.950 . S
C2746 C2744 1.391 . S
C2746 C2747 1.400 . S
C2747 C2746 1.400 . S
C2747 C2748 1.398 . S
C2747 C2753 1.491 . S
C2748 H2739 0.950 . S
C2748 C2747 1.398 . S
C2748 C2749 1.391 . S
C2749 H2737 0.950 . S
C2749 C2745 1.393 . S
C2749 C2748 1.391 . S
C2750 H2740 0.950 . S
C2750 C2751 1.386 . S
C2750 C2752 1.391 . S
C2751 C2750 1.386 . S
C2751 C2755 1.393 . S
C2752 H2741 0.950 . S
C2752 C2750 1.391 . S
C2752 C2753 1.400 . S
C2753 C2747 1.491 . S
C2753 C2752 1.400 . S
C2753 C2754 1.398 . S
C2754 H2742 0.950 . S
C2754 C2753 1.398 . S
C2754 C2755 1.391 . S
C2755 H2743 0.950 . S
C2755 C2751 1.393 . S
C2755 C2754 1.391 . S
H2756 C2764 0.950 . S
H2757 C2769 0.950 . S
H2758 C2766 0.950 . S
H2759 C2768 0.950 . S
H2760 C2770 0.950 . S
H2761 C2772 0.950 . S
H2762 C2774 0.950 . S
H2763 C2775 0.950 . S
C2764 H2756 0.950 . S
C2764 C2765 1.386 . S
C2764 C2766 1.391 . S
C2765 C2764 1.386 . S
C2765 C2769 1.393 . S
C2766 H2758 0.950 . S
C2766 C2764 1.391 . S
C2766 C2767 1.400 . S
C2767 C2766 1.400 . S
C2767 C2768 1.398 . S
C2767 C2773 1.491 . S
C2768 H2759 0.950 . S
C2768 C2767 1.398 . S
C2768 C2769 1.391 . S
C2769 H2757 0.950 . S
C2769 C2765 1.393 . S
C2769 C2768 1.391 . S
C2770 H2760 0.950 . S
C2770 C2771 1.386 . S
C2770 C2772 1.391 . S
C2771 C2770 1.386 . S
C2771 C2775 1.393 . S
C2772 H2761 0.950 . S
C2772 C2770 1.391 . S
C2772 C2773 1.400 . S
C2773 C2767 1.491 . S
C2773 C2772 1.400 . S
C2773 C2774 1.398 . S
C2774 H2762 0.950 . S
C2774 C2773 1.398 . S
C2774 C2775 1.391 . S
C2775 H2763 0.950 . S
C2775 C2771 1.393 . S
C2775 C2774 1.391 . S
H2776 C2784 0.950 . S
H2777 C2789 0.950 . S
H2778 C2786 0.950 . S
H2779 C2788 0.950 . S
H2780 C2790 0.950 . S
H2781 C2792 0.950 . S
H2782 C2794 0.950 . S
H2783 C2795 0.950 . S
C2784 H2776 0.950 . S
C2784 C2785 1.386 . S
C2784 C2786 1.391 . S
C2785 C2784 1.386 . S
C2785 C2789 1.393 . S
C2786 H2778 0.950 . S
C2786 C2784 1.391 . S
C2786 C2787 1.400 . S
C2787 C2786 1.400 . S
C2787 C2788 1.398 . S
C2787 C2793 1.491 . S
C2788 H2779 0.950 . S
C2788 C2787 1.398 . S
C2788 C2789 1.391 . S
C2789 H2777 0.950 . S
C2789 C2785 1.393 . S
C2789 C2788 1.391 . S
C2790 H2780 0.950 . S
C2790 C2791 1.386 . S
C2790 C2792 1.391 . S
C2791 C2790 1.386 . S
C2791 C2795 1.393 . S
C2792 H2781 0.950 . S
C2792 C2790 1.391 . S
C2792 C2793 1.400 . S
C2793 C2787 1.491 . S
C2793 C2792 1.400 . S
C2793 C2794 1.398 . S
C2794 H2782 0.950 . S
C2794 C2793 1.398 . S
C2794 C2795 1.391 . S
C2795 H2783 0.950 . S
C2795 C2791 1.393 . S
C2795 C2794 1.391 . S
H2796 C2804 0.950 . S
H2797 C2809 0.950 . S
H2798 C2806 0.950 . S
H2799 C2808 0.950 . S
H2800 C2810 0.950 . S
H2801 C2812 0.950 . S
H2802 C2814 0.950 . S
H2803 C2815 0.950 . S
C2804 H2796 0.950 . S
C2804 C2805 1.386 . S
C2804 C2806 1.391 . S
C2805 C2804 1.386 . S
C2805 C2809 1.393 . S
C2806 H2798 0.950 . S
C2806 C2804 1.391 . S
C2806 C2807 1.400 . S
C2807 C2806 1.400 . S
C2807 C2808 1.398 . S
C2807 C2813 1.491 . S
C2808 H2799 0.950 . S
C2808 C2807 1.398 . S
C2808 C2809 1.391 . S
C2809 H2797 0.950 . S
C2809 C2805 1.393 . S
C2809 C2808 1.391 . S
C2810 H2800 0.950 . S
C2810 C2811 1.386 . S
C2810 C2812 1.391 . S
C2811 C2810 1.386 . S
C2811 C2815 1.393 . S
C2812 H2801 0.950 . S
C2812 C2810 1.391 . S
C2812 C2813 1.400 . S
C2813 C2807 1.491 . S
C2813 C2812 1.400 . S
C2813 C2814 1.398 . S
C2814 H2802 0.950 . S
C2814 C2813 1.398 . S
C2814 C2815 1.391 . S
C2815 H2803 0.950 . S
C2815 C2811 1.393 . S
C2815 C2814 1.391 . S
H2816 C2824 0.950 . S
H2817 C2829 0.950 . S
H2818 C2826 0.950 . S
H2819 C2828 0.950 . S
H2820 C2830 0.950 . S
H2821 C2832 0.950 . S
H2822 C2834 0.950 . S
H2823 C2835 0.950 . S
C2824 H2816 0.950 . S
C2824 C2825 1.386 . S
C2824 C2826 1.391 . S
C2825 C2824 1.386 . S
C2825 C2829 1.393 . S
C2826 H2818 0.950 . S
C2826 C2824 1.391 . S
C2826 C2827 1.400 . S
C2827 C2826 1.400 . S
C2827 C2828 1.398 . S
C2827 C2833 1.491 . S
C2828 H2819 0.950 . S
C2828 C2827 1.398 . S
C2828 C2829 1.391 . S
C2829 H2817 0.950 . S
C2829 C2825 1.393 . S
C2829 C2828 1.391 . S
C2830 H2820 0.950 . S
C2830 C2831 1.386 . S
C2830 C2832 1.391 . S
C2831 C2830 1.386 . S
C2831 C2835 1.393 . S
C2832 H2821 0.950 . S
C2832 C2830 1.391 . S
C2832 C2833 1.400 . S
C2833 C2827 1.491 . S
C2833 C2832 1.400 . S
C2833 C2834 1.398 . S
C2834 H2822 0.950 . S
C2834 C2833 1.398 . S
C2834 C2835 1.391 . S
C2835 H2823 0.950 . S
C2835 C2831 1.393 . S
C2835 C2834 1.391 . S
H2836 C2844 0.950 . S
H2837 C2849 0.950 . S
H2838 C2846 0.950 . S
H2839 C2848 0.950 . S
H2840 C2850 0.950 . S
H2841 C2852 0.950 . S
H2842 C2854 0.950 . S
H2843 C2855 0.950 . S
C2844 H2836 0.950 . S
C2844 C2845 1.386 . S
C2844 C2846 1.391 . S
C2845 C2844 1.386 . S
C2845 C2849 1.393 . S
C2846 H2838 0.950 . S
C2846 C2844 1.391 . S
C2846 C2847 1.400 . S
C2847 C2846 1.400 . S
C2847 C2848 1.398 . S
C2847 C2853 1.491 . S
C2848 H2839 0.950 . S
C2848 C2847 1.398 . S
C2848 C2849 1.391 . S
C2849 H2837 0.950 . S
C2849 C2845 1.393 . S
C2849 C2848 1.391 . S
C2850 H2840 0.950 . S
C2850 C2851 1.386 . S
C2850 C2852 1.391 . S
C2851 C2850 1.386 . S
C2851 C2855 1.393 . S
C2852 H2841 0.950 . S
C2852 C2850 1.391 . S
C2852 C2853 1.400 . S
C2853 C2847 1.491 . S
C2853 C2852 1.400 . S
C2853 C2854 1.398 . S
C2854 H2842 0.950 . S
C2854 C2853 1.398 . S
C2854 C2855 1.391 . S
C2855 H2843 0.950 . S
C2855 C2851 1.393 . S
C2855 C2854 1.391 . S
H2856 C2864 0.950 . S
H2857 C2869 0.950 . S
H2858 C2866 0.950 . S
H2859 C2868 0.950 . S
H2860 C2870 0.950 . S
H2861 C2872 0.950 . S
H2862 C2874 0.950 . S
H2863 C2875 0.950 . S
C2864 H2856 0.950 . S
C2864 C2865 1.386 . S
C2864 C2866 1.391 . S
C2865 C2864 1.386 . S
C2865 C2869 1.393 . S
C2866 H2858 0.950 . S
C2866 C2864 1.391 . S
C2866 C2867 1.400 . S
C2867 C2866 1.400 . S
C2867 C2868 1.398 . S
C2867 C2873 1.491 . S
C2868 H2859 0.950 . S
C2868 C2867 1.398 . S
C2868 C2869 1.391 . S
C2869 H2857 0.950 . S
C2869 C2865 1.393 . S
C2869 C2868 1.391 . S
C2870 H2860 0.950 . S
C2870 C2871 1.386 . S
C2870 C2872 1.391 . S
C2871 C2870 1.386 . S
C2871 C2875 1.393 . S
C2872 H2861 0.950 . S
C2872 C2870 1.391 . S
C2872 C2873 1.400 . S
C2873 C2867 1.491 . S
C2873 C2872 1.400 . S
C2873 C2874 1.398 . S
C2874 H2862 0.950 . S
C2874 C2873 1.398 . S
C2874 C2875 1.391 . S
C2875 H2863 0.950 . S
C2875 C2871 1.393 . S
C2875 C2874 1.391 . S
H2876 C2884 0.950 . S
H2877 C2889 0.950 . S
H2878 C2886 0.950 . S
H2879 C2888 0.950 . S
H2880 C2890 0.950 . S
H2881 C2892 0.950 . S
H2882 C2894 0.950 . S
H2883 C2895 0.950 . S
C2884 H2876 0.950 . S
C2884 C2885 1.386 . S
C2884 C2886 1.391 . S
C2885 C2884 1.386 . S
C2885 C2889 1.393 . S
C2886 H2878 0.950 . S
C2886 C2884 1.391 . S
C2886 C2887 1.400 . S
C2887 C2886 1.400 . S
C2887 C2888 1.398 . S
C2887 C2893 1.491 . S
C2888 H2879 0.950 . S
C2888 C2887 1.398 . S
C2888 C2889 1.391 . S
C2889 H2877 0.950 . S
C2889 C2885 1.393 . S
C2889 C2888 1.391 . S
C2890 H2880 0.950 . S
C2890 C2891 1.386 . S
C2890 C2892 1.391 . S
C2891 C2890 1.386 . S
C2891 C2895 1.393 . S
C2892 H2881 0.950 . S
C2892 C2890 1.391 . S
C2892 C2893 1.400 . S
C2893 C2887 1.491 . S
C2893 C2892 1.400 . S
C2893 C2894 1.398 . S
C2894 H2882 0.950 . S
C2894 C2893 1.398 . S
C2894 C2895 1.391 . S
C2895 H2883 0.950 . S
C2895 C2891 1.393 . S
C2895 C2894 1.391 . S
H2896 C2904 0.950 . S
H2897 C2909 0.950 . S
H2898 C2906 0.950 . S
H2899 C2908 0.950 . S
H2900 C2910 0.948 1_556 S
H2901 C2912 0.952 . S
H2902 C2914 0.950 . S
H2903 C2915 0.950 . S
C2904 H2896 0.950 . S
C2904 C2905 1.386 . S
C2904 C2906 1.391 . S
C2905 C2904 1.386 . S
C2905 C2909 1.393 . S
C2906 H2898 0.950 . S
C2906 C2904 1.391 . S
C2906 C2907 1.400 . S
C2907 C2906 1.400 . S
C2907 C2908 1.398 . S
C2907 C2913 1.491 . S
C2908 H2899 0.950 . S
C2908 C2907 1.398 . S
C2908 C2909 1.391 . S
C2909 H2897 0.950 . S
C2909 C2905 1.393 . S
C2909 C2908 1.391 . S
C2910 H2900 0.948 1_554 S
C2910 C2911 1.386 . S
C2910 C2912 1.391 . S
C2911 C2910 1.386 . S
C2911 C2915 1.393 . S
C2912 H2901 0.952 . S
C2912 C2910 1.391 . S
C2912 C2913 1.400 . S
C2913 C2907 1.491 . S
C2913 C2912 1.400 . S
C2913 C2914 1.398 . S
C2914 H2902 0.950 . S
C2914 C2913 1.398 . S
C2914 C2915 1.391 . S
C2915 H2903 0.950 . S
C2915 C2911 1.393 . S
C2915 C2914 1.391 . S
H2916 C2924 0.950 . S
H2917 C2929 0.950 . S
H2918 C2926 0.950 . S
H2919 C2928 0.950 . S
H2920 C2930 0.950 . S
H2921 C2932 0.950 . S
H2922 C2934 0.950 . S
H2923 C2935 0.950 . S
C2924 H2916 0.950 . S
C2924 C2925 1.386 . S
C2924 C2926 1.391 . S
C2925 C2924 1.386 . S
C2925 C2929 1.393 . S
C2926 H2918 0.950 . S
C2926 C2924 1.391 . S
C2926 C2927 1.400 . S
C2927 C2926 1.400 . S
C2927 C2928 1.398 . S
C2927 C2933 1.491 . S
C2928 H2919 0.950 . S
C2928 C2927 1.398 . S
C2928 C2929 1.391 . S
C2929 H2917 0.950 . S
C2929 C2925 1.393 . S
C2929 C2928 1.391 . S
C2930 H2920 0.950 . S
C2930 C2931 1.386 . S
C2930 C2932 1.391 . S
C2931 C2930 1.386 . S
C2931 C2935 1.393 . S
C2932 H2921 0.950 . S
C2932 C2930 1.391 . S
C2932 C2933 1.400 . S
C2933 C2927 1.491 . S
C2933 C2932 1.400 . S
C2933 C2934 1.398 . S
C2934 H2922 0.950 . S
C2934 C2933 1.398 . S
C2934 C2935 1.391 . S
C2935 H2923 0.950 . S
C2935 C2931 1.393 . S
C2935 C2934 1.391 . S
H2936 C2944 0.950 . S
H2937 C2949 0.950 . S
H2938 C2946 0.950 . S
H2939 C2948 0.950 . S
H2940 C2950 0.950 . S
H2941 C2952 0.950 . S
H2942 C2954 0.950 . S
H2943 C2955 0.950 . S
C2944 H2936 0.950 . S
C2944 C2945 1.386 1_554 S
C2944 C2946 1.391 . S
C2945 C2944 1.386 1_556 S
C2945 C2949 1.393 . S
C2946 H2938 0.950 . S
C2946 C2944 1.391 . S
C2946 C2947 1.400 1_554 S
C2947 C2946 1.400 1_556 S
C2947 C2948 1.398 . S
C2947 C2953 1.491 . S
C2948 H2939 0.950 . S
C2948 C2947 1.398 . S
C2948 C2949 1.391 . S
C2949 H2937 0.950 . S
C2949 C2945 1.393 . S
C2949 C2948 1.391 . S
C2950 H2940 0.950 . S
C2950 C2951 1.386 . S
C2950 C2952 1.391 . S
C2951 C2950 1.386 . S
C2951 C2955 1.393 1_556 S
C2952 H2941 0.950 . S
C2952 C2950 1.391 . S
C2952 C2953 1.400 . S
C2953 C2947 1.491 . S
C2953 C2952 1.400 . S
C2953 C2954 1.398 1_556 S
C2954 H2942 0.950 . S
C2954 C2953 1.398 1_554 S
C2954 C2955 1.391 . S
C2955 H2943 0.950 . S
C2955 C2951 1.393 1_554 S
C2955 C2954 1.391 . S
H2956 C2964 0.950 . S
H2957 C2969 0.950 . S
H2958 C2966 0.950 . S
H2959 C2968 0.950 . S
H2960 C2970 0.950 . S
H2961 C2972 0.950 . S
H2962 C2974 0.950 . S
H2963 C2975 0.950 . S
C2964 H2956 0.950 . S
C2964 C2965 1.386 . S
C2964 C2966 1.391 . S
C2965 C2964 1.386 . S
C2965 C2969 1.393 . S
C2966 H2958 0.950 . S
C2966 C2964 1.391 . S
C2966 C2967 1.400 . S
C2967 C2966 1.400 . S
C2967 C2968 1.398 . S
C2967 C2973 1.491 . S
C2968 H2959 0.950 . S
C2968 C2967 1.398 . S
C2968 C2969 1.391 . S
C2969 H2957 0.950 . S
C2969 C2965 1.393 . S
C2969 C2968 1.391 . S
C2970 H2960 0.950 . S
C2970 C2971 1.386 . S
C2970 C2972 1.391 . S
C2971 C2970 1.386 . S
C2971 C2975 1.393 . S
C2972 H2961 0.950 . S
C2972 C2970 1.391 . S
C2972 C2973 1.400 . S
C2973 C2967 1.491 . S
C2973 C2972 1.400 . S
C2973 C2974 1.398 . S
C2974 H2962 0.950 . S
C2974 C2973 1.398 . S
C2974 C2975 1.391 . S
C2975 H2963 0.950 . S
C2975 C2971 1.393 . S
C2975 C2974 1.391 . S
C1705 C38 1.627 . S
C1711 C197 1.630 . S
C1725 C144 1.630 . S
C1731 C91 1.633 . S
C1745 C409 1.634 . S
C1751 C250 1.633 . S
C1765 C356 1.633 . S
C1771 C303 1.634 . S
C1785 C462 1.633 . S
C1791 C621 1.630 . S
C1805 C515 1.627 . S
C1811 C568 1.630 . S
C1825 C833 1.631 . S
C1831 C674 1.630 . S
C1845 C780 1.633 . S
C1851 C727 1.631 . S
C1865 C886 1.631 . S
C1871 C1045 1.628 . S
C1885 C939 1.629 . S
C1891 C992 1.632 . S
C1905 C1098 1.630 . S
C1911 C1257 1.632 . S
C1925 C1151 1.629 . S
C1931 C1204 1.631 . S
C1945 C1310 1.632 . S
C1951 C1469 1.629 . S
C1965 C1416 1.628 . S
C1971 C1363 1.626 . S
C1985 C1681 1.630 . S
C1991 C1522 1.629 . S
C2005 C1628 1.633 . S
C2011 C1575 1.634 . S
C2025 C22 1.728 . S
C2031 C234 1.724 . S
C2045 C1559 1.715 . S
C2051 C75 1.720 . S
C2065 C128 1.725 . S
C2071 C764 1.720 . S
C2085 C1241 1.720 . S
C2091 C181 1.724 . S
C2105 C1347 1.716 . S
C2111 C287 1.711 . S
C2125 C340 1.721 . S
C2131 C552 1.726 . S
C2145 C393 1.714 . S
C2151 C1029 1.719 . S
C2165 C658 1.720 . S
C2171 C446 1.724 . S
C2185 C1135 1.711 . S
C2191 C499 1.716 . S
C2205 C605 1.719 . S
C2211 C1665 1.714 . S
C2225 C711 1.724 . S
C2231 C923 1.728 . S
C2245 C817 1.713 . S
C2251 C1453 1.718 . S
C2265 C1082 1.713 . S
C2271 C870 1.718 . S
C2285 C976 1.726 . S
C2291 C1612 1.721 . S
C2305 C1188 1.723 . S
C2311 C1400 1.727 . S
C2325 C1506 1.713 . S
C2331 C1294 1.718 . S
C2345 C39 1.448 . S
C2351 C1046 1.445 . S
C2365 C92 1.439 . S
C2371 C993 1.441 . S
C2385 C940 1.443 . S
C2391 C145 1.440 . S
C2405 C887 1.444 . S
C2411 C198 1.440 . S
C2425 C251 1.439 . S
C2431 C1258 1.437 . S
C2445 C304 1.436 . S
C2451 C1205 1.437 . S
C2465 C357 1.441 . S
C2471 C1152 1.439 . S
C2485 C1099 1.439 . S
C2491 C410 1.442 . S
C2505 C463 1.443 . S
C2511 C1470 1.447 . S
C2525 C1417 1.440 . S
C2531 C516 1.443 . S
C2545 C1364 1.440 . S
C2551 C569 1.440 . S
C2565 C622 1.448 . S
C2571 C1311 1.449 . S
C2585 C675 1.439 . S
C2591 C1682 1.437 . S
C2605 C728 1.446 . S
C2611 C1629 1.444 . S
C2625 C1576 1.441 . S
C2631 C781 1.438 . S
C2645 C834 1.440 . S
C2651 C1523 1.443 . S
C2665 C82 1.695 . S
C2671 C29 1.692 . S
C2685 C135 1.698 . S
C2691 C188 1.695 . S
C2705 C294 1.696 . S
C2711 C241 1.699 . S
C2725 C347 1.698 . S
C2731 C400 1.695 . S
C2745 C506 1.701 . S
C2751 C453 1.702 . S
C2765 C559 1.701 . S
C2771 C612 1.702 . S
C2785 C665 1.702 . S
C2791 C718 1.699 . S
C2805 C771 1.706 . S
C2811 C824 1.706 . S
C2825 C877 1.687 . S
C2831 C930 1.688 . S
C2845 C1036 1.693 . S
C2851 C983 1.691 . S
C2865 C1089 1.704 . S
C2871 C1142 1.706 . S
C2885 C1248 1.694 . S
C2891 C1195 1.697 . S
C2905 C1354 1.692 . S
C2911 C1301 1.690 . S
C2925 C1407 1.691 . S
C2931 C1460 1.689 . S
C2945 C1513 1.691 . S
C2951 C1566 1.691 . S
C2965 C1672 1.701 . S
C2971 C1619 1.704 . S
