# Generated by pormake.
# Topology une, (4)-cn, num edge types: 1
# Building blocks:
#     Node 0, Type 0, BuildingBlock: QUQFOY_clean_sbu_1, # of connection points: 4
#     Node 1, Type 0, BuildingBlock: QUQFOY_clean_sbu_1, # of connection points: 4
#     Node 2, Type 0, BuildingBlock: QUQFOY_clean_sbu_1, # of connection points: 4
#     Node 3, Type 0, BuildingBlock: QUQFOY_clean_sbu_1, # of connection points: 4
#     Node 4, Type 0, BuildingBlock: QUQFOY_clean_sbu_1, # of connection points: 4
#     Node 5, Type 0, BuildingBlock: QUQFOY_clean_sbu_1, # of connection points: 4
#     Node 6, Type 0, BuildingBlock: QUQFOY_clean_sbu_1, # of connection points: 4
#     Node 7, Type 0, BuildingBlock: QUQFOY_clean_sbu_1, # of connection points: 4
#     Node 8, Type 0, BuildingBlock: QUQFOY_clean_sbu_1, # of connection points: 4
#     Node 9, Type 0, BuildingBlock: QUQFOY_clean_sbu_1, # of connection points: 4
#     Node 10, Type 0, BuildingBlock: QUQFOY_clean_sbu_1, # of connection points: 4
#     Node 11, Type 0, BuildingBlock: QUQFOY_clean_sbu_1, # of connection points: 4
#     Node 12, Type 0, BuildingBlock: QUQFOY_clean_sbu_1, # of connection points: 4
#     Node 13, Type 0, BuildingBlock: QUQFOY_clean_sbu_1, # of connection points: 4
#     Node 14, Type 0, BuildingBlock: QUQFOY_clean_sbu_1, # of connection points: 4
#     Node 15, Type 0, BuildingBlock: QUQFOY_clean_sbu_1, # of connection points: 4
#     Node 16, Type 0, BuildingBlock: QUQFOY_clean_sbu_1, # of connection points: 4
#     Node 17, Type 0, BuildingBlock: QUQFOY_clean_sbu_1, # of connection points: 4
#     Edge 18, Type (0, 0), BuildingBlock: CIFDUS_clean_linker_0, # of connection points: 2
#     Edge 19, Type (0, 0), BuildingBlock: CIFDUS_clean_linker_0, # of connection points: 2
#     Edge 20, Type (0, 0), BuildingBlock: CIFDUS_clean_linker_0, # of connection points: 2
#     Edge 21, Type (0, 0), BuildingBlock: CIFDUS_clean_linker_0, # of connection points: 2
#     Edge 22, Type (0, 0), BuildingBlock: CIFDUS_clean_linker_0, # of connection points: 2
#     Edge 23, Type (0, 0), BuildingBlock: CIFDUS_clean_linker_0, # of connection points: 2
#     Edge 24, Type (0, 0), BuildingBlock: CIFDUS_clean_linker_0, # of connection points: 2
#     Edge 25, Type (0, 0), BuildingBlock: CIFDUS_clean_linker_0, # of connection points: 2
#     Edge 26, Type (0, 0), BuildingBlock: CIFDUS_clean_linker_0, # of connection points: 2
#     Edge 27, Type (0, 0), BuildingBlock: CIFDUS_clean_linker_0, # of connection points: 2
#     Edge 28, Type (0, 0), BuildingBlock: CIFDUS_clean_linker_0, # of connection points: 2
#     Edge 29, Type (0, 0), BuildingBlock: CIFDUS_clean_linker_0, # of connection points: 2
#     Edge 30, Type (0, 0), BuildingBlock: CIFDUS_clean_linker_0, # of connection points: 2
#     Edge 31, Type (0, 0), BuildingBlock: CIFDUS_clean_linker_0, # of connection points: 2
#     Edge 32, Type (0, 0), BuildingBlock: CIFDUS_clean_linker_0, # of connection points: 2
#     Edge 33, Type (0, 0), BuildingBlock: CIFDUS_clean_linker_0, # of connection points: 2
#     Edge 34, Type (0, 0), BuildingBlock: CIFDUS_clean_linker_0, # of connection points: 2
#     Edge 35, Type (0, 0), BuildingBlock: CIFDUS_clean_linker_0, # of connection points: 2
#     Edge 36, Type (0, 0), BuildingBlock: CIFDUS_clean_linker_0, # of connection points: 2
#     Edge 37, Type (0, 0), BuildingBlock: CIFDUS_clean_linker_0, # of connection points: 2
#     Edge 38, Type (0, 0), BuildingBlock: CIFDUS_clean_linker_0, # of connection points: 2
#     Edge 39, Type (0, 0), BuildingBlock: CIFDUS_clean_linker_0, # of connection points: 2
#     Edge 40, Type (0, 0), BuildingBlock: CIFDUS_clean_linker_0, # of connection points: 2
#     Edge 41, Type (0, 0), BuildingBlock: CIFDUS_clean_linker_0, # of connection points: 2
#     Edge 42, Type (0, 0), BuildingBlock: CIFDUS_clean_linker_0, # of connection points: 2
#     Edge 43, Type (0, 0), BuildingBlock: CIFDUS_clean_linker_0, # of connection points: 2
#     Edge 44, Type (0, 0), BuildingBlock: CIFDUS_clean_linker_0, # of connection points: 2
#     Edge 45, Type (0, 0), BuildingBlock: CIFDUS_clean_linker_0, # of connection points: 2
#     Edge 46, Type (0, 0), BuildingBlock: CIFDUS_clean_linker_0, # of connection points: 2
#     Edge 47, Type (0, 0), BuildingBlock: CIFDUS_clean_linker_0, # of connection points: 2
#     Edge 48, Type (0, 0), BuildingBlock: CIFDUS_clean_linker_0, # of connection points: 2
#     Edge 49, Type (0, 0), BuildingBlock: CIFDUS_clean_linker_0, # of connection points: 2
#     Edge 50, Type (0, 0), BuildingBlock: CIFDUS_clean_linker_0, # of connection points: 2
#     Edge 51, Type (0, 0), BuildingBlock: CIFDUS_clean_linker_0, # of connection points: 2
#     Edge 52, Type (0, 0), BuildingBlock: CIFDUS_clean_linker_0, # of connection points: 2
#     Edge 53, Type (0, 0), BuildingBlock: CIFDUS_clean_linker_0, # of connection points: 2
# Relax obj value: 0.123
# Max RMSD: 0.150
# Mean RMSD: 0.144
data_MOF--net-une--node1-QUQFOY_clean_sbu_1--edge1-CIFDUS_clean_linker_0
_symmetry_space_group_name_H-M    P1
_symmetry_Int_Tables_number       1
_symmetry_cell_setting            triclinic
loop_
_symmetry_equiv_pos_as_xyz
'x, y, z'
_cell_length_a     36.132807
_cell_length_b     36.34306
_cell_length_c     53.15407
_cell_angle_alpha  89.626344
_cell_angle_beta   90.189208
_cell_angle_gamma 120.51482
loop_
_atom_site_label
_atom_site_type_symbol
_atom_site_fract_x
_atom_site_fract_y
_atom_site_fract_z
_atom_type_partial_charge
O0 O 0.31494 0.10208 0.03467 0.0
Cd1 Cd 0.31333 0.06432 0.06439 0.0
Cd2 Cd 0.36703 0.05588 0.02881 0.0
O3 O 0.37261 0.11117 0.01474 0.0
O4 O 0.28697 0.08047 0.09196 0.0
O5 O 0.35248 0.09039 0.09432 0.0
C6 C 0.32228 0.09454 0.10436 0.0
C7 C 0.42451 0.04483 0.02149 0.0
C8 C 0.34349 0.12038 0.01778 0.0
C9 C 0.27662 0.98152 0.03995 0.0
O10 O 0.30836 0.0007 0.02507 0.0
O11 O 0.27447 -0.00057 0.05986 0.0
O12 O 0.40034 0.04429 1.00354 0.0
O13 O 0.41694 0.05298 0.04387 0.0
O14 O 0.8843 0.22853 0.07216 0.0
Cd15 Cd 0.9276 0.24857 0.10114 0.0
Cd16 Cd 0.96397 0.32774 0.06812 0.0
O17 O 0.91617 0.28268 0.04533 0.0
O18 O 0.90042 0.19763 0.12394 0.0
O19 O 0.91003 0.26045 0.13472 0.0
C20 C 0.89501 0.22063 0.14016 0.0
C21 C -0.01631 0.3982 0.05765 0.0
C22 C 0.88609 0.24534 0.05088 0.0
C23 C 0.01988 0.29121 0.08428 0.0
O24 O 0.01624 0.32202 0.07603 0.0
O25 O -0.01212 0.25775 0.09336 0.0
O26 O -0.00819 0.37509 0.04314 0.0
O27 O 0.96376 0.38126 0.07844 0.0
O28 O 0.7466 0.64368 0.03044 0.0
Cd29 Cd 0.72293 0.66356 0.05909 0.0
Cd30 Cd 0.65318 0.63018 0.02048 0.0
O31 O 0.69941 0.62679 0.99957 0.0
O32 O 0.77206 0.68592 0.08332 0.0
O33 O 0.70762 0.63224 0.09258 0.0
C34 C 0.74707 0.65724 0.0992 0.0
C35 C 0.58159 0.57554 0.01616 0.0
C36 C 0.73475 0.63209 0.00792 0.0
C37 C 0.69058 0.72074 0.03951 0.0
O38 O 0.66222 0.68964 0.02682 0.0
O39 O 0.71789 0.71703 0.05274 0.0
O40 O 0.60106 0.60345 0.99865 0.0
O41 O 0.60313 0.57814 0.03619 0.0
O42 O 0.71706 0.9378 0.96874 0.0
Cd43 Cd 0.72325 0.97543 0.93816 0.0
Cd44 Cd 0.65538 0.97809 0.96455 0.0
O45 O 0.65156 0.92311 0.97838 0.0
O46 O 0.74918 0.95822 0.91103 0.0
O47 O 0.68248 0.94583 0.9097 0.0
C48 C 0.71241 0.94099 0.89983 0.0
C49 C 0.59462 0.98389 0.97188 0.0
C50 C 0.68213 0.91563 0.98069 0.0
C51 C 0.74648 0.05797 0.95912 0.0
O52 O 0.70985 0.03685 0.96949 0.0
O53 O 0.75831 0.04046 0.94296 0.0
O54 O 0.61906 0.98516 0.98985 0.0
O55 O 0.60355 0.97753 0.94941 0.0
O56 O 0.07502 0.77015 0.95337 0.0
Cd57 Cd 0.03274 0.72076 0.93074 0.0
Cd58 Cd 0.04123 0.6761 0.97565 0.0
O59 O 0.08747 0.73745 0.98467 0.0
O60 O 0.03833 0.75188 0.8987 0.0
O61 O 0.05915 0.70448 0.90284 0.0
C62 C 0.05716 0.73307 0.88927 0.0
C63 C 0.04776 0.61981 0.9918 0.0
C64 C 0.09489 0.77142 0.9734 0.0
C65 C 0.95329 0.6639 0.95971 0.0
O66 O 0.97801 0.65934 0.97476 0.0
O67 O 0.96799 0.68641 0.93984 0.0
O68 O 0.03971 0.64331 1.00609 0.0
O69 O 0.05479 0.62986 0.96824 0.0
O70 O 0.17256 0.27977 0.96627 0.0
Cd71 Cd 0.2079 0.2883 0.93429 0.0
Cd72 Cd 0.2758 0.34223 0.96886 0.0
O73 O 0.22321 0.32762 0.99108 0.0
O74 O 0.16548 0.26797 0.90605 0.0
O75 O 0.21884 0.33473 0.90935 0.0
C76 C 0.1853 0.30647 0.89732 0.0
C77 C 0.34042 0.4059 0.97726 0.0
C78 C 0.18424 0.29916 0.98719 0.0
C79 C 0.27014 0.26118 0.94721 0.0
O80 O 0.28704 0.29336 0.96163 0.0
O81 O 0.23835 0.25349 0.93332 0.0
O82 O 0.32368 0.3748 0.9931 0.0
O83 O 0.31941 0.40189 0.95679 0.0
O84 O 0.94806 0.41453 0.36201 0.0
Cd85 Cd 0.9456 0.38325 0.39502 0.0
Cd86 Cd 0.01768 0.38144 0.36673 0.0
O87 O 0.01075 0.42686 0.34749 0.0
O88 O 0.91079 0.39621 0.41851 0.0
O89 O 0.97935 0.41776 0.42489 0.0
C90 C 0.94481 0.41695 0.43212 0.0
C91 C 0.07946 0.37904 0.35646 0.0
C92 C 0.9788 0.43241 0.34635 0.0
C93 C 0.93228 0.2988 0.38151 0.0
O94 O 0.96781 0.31959 0.36997 0.0
O95 O 0.91765 0.31798 0.3943 0.0
O96 O 0.04933 0.36974 0.34046 0.0
O97 O 0.07588 0.3922 0.37831 0.0
O98 O 0.56762 0.5163 0.38364 0.0
Cd99 Cd 0.60682 0.55327 0.41255 0.0
Cd100 Cd 0.59229 0.61621 0.38656 0.0
O101 O 0.54236 0.55877 0.37425 0.0
O102 O 0.59964 0.51408 0.44095 0.0
O103 O 0.57816 0.56132 0.44251 0.0
C104 C 0.58053 0.5304 0.45308 0.0
C105 C 0.58761 0.67604 0.37464 0.0
C106 C 0.54104 0.52334 0.372 0.0
C107 C 0.68189 0.62318 0.38828 0.0
O108 O 0.65459 0.63233 0.37997 0.0
O109 O 0.67086 0.59317 0.40419 0.0
O110 O 0.59026 0.65147 0.35847 0.0
O111 O 0.58478 0.66531 0.39804 0.0
O112 O 0.43041 0.04098 0.39014 0.0
Cd113 Cd 0.39091 0.02773 0.42072 0.0
Cd114 Cd 0.33008 0.96656 0.38516 0.0
O115 O 0.38774 0.98324 0.36817 0.0
O116 O 0.42985 0.0468 0.45044 0.0
O117 O 0.3809 0.97912 0.44329 0.0
C118 C 0.4124 0.00708 0.45681 0.0
C119 C 0.27012 0.90417 0.36994 0.0
C120 C 0.42401 0.01681 0.37148 0.0
C121 C 0.32315 0.0435 0.40471 0.0
O122 O 0.31351 0.0123 0.39019 0.0
O123 O 0.35295 0.05485 0.42084 0.0
O124 O 0.29097 0.93775 0.35623 0.0
O125 O 0.28444 0.90496 0.39232 0.0
O126 O 0.29409 0.18656 0.30033 0.0
Cd127 Cd 0.32231 0.23306 0.273 0.0
Cd128 Cd 0.27654 0.26584 0.30446 0.0
O129 O 0.26384 0.21271 0.32515 0.0
O130 O 0.34515 0.20822 0.24831 0.0
O131 O 0.29433 0.22276 0.23887 0.0
C132 C 0.31839 0.20776 0.23206 0.0
C133 C 0.22811 0.29007 0.30989 0.0
C134 C 0.27295 0.18422 0.31993 0.0
C135 C 0.37374 0.32022 0.29552 0.0
O136 O 0.33845 0.31521 0.30354 0.0
O137 O 0.37505 0.29091 0.28336 0.0
O138 O 0.25323 0.29194 0.32761 0.0
O139 O 0.22947 0.27322 0.28887 0.0
O140 O 0.74687 0.08016 0.3218 0.0
Cd141 Cd 0.7068 0.05187 0.29172 0.0
Cd142 Cd 0.67022 0.98547 0.3358 0.0
O143 O 0.71885 0.03658 0.35456 0.0
O144 O 0.73361 0.10109 0.26768 0.0
O145 O 0.73141 0.04038 0.2605 0.0
C146 C 0.74389 0.07908 0.25357 0.0
C147 C 0.65232 0.91752 0.34988 0.0
C148 C 0.74731 0.07164 0.34495 0.0
C149 C 0.6135 0.0121 0.30737 0.0
O150 O 0.61871 -0.01065 0.32357 0.0
O151 O 0.64421 0.03931 0.29374 0.0
O152 O 0.64462 0.94218 0.36332 0.0
O153 O 0.67115 0.93176 0.32845 0.0
O154 O 0.87691 0.66655 0.29285 0.0
Cd155 Cd 0.90002 0.6506 0.26208 0.0
Cd156 Cd 0.97552 0.68673 0.29638 0.0
O157 O 0.92824 0.68063 0.32057 0.0
O158 O 0.85037 0.62902 0.23829 0.0
O159 O 0.91401 0.68471 0.22971 0.0
C160 C 0.87466 0.65931 0.22301 0.0
C161 C 0.04522 0.74088 0.30707 0.0
C162 C 0.89134 0.67462 0.31519 0.0
C163 C 0.94122 0.59847 0.27494 0.0
O164 O 0.97207 0.63162 0.2848 0.0
O165 O 0.9085 0.59869 0.26627 0.0
O166 O 0.02428 0.70696 0.32052 0.0
O167 O 0.02653 0.74449 0.28726 0.0
O168 O 0.60061 0.73663 0.7262 0.0
Cd169 Cd 0.61137 0.71542 0.75965 0.0
Cd170 Cd 0.66827 0.70082 0.72411 0.0
O171 O 0.65493 0.74179 0.70416 0.0
O172 O 0.58813 0.73796 0.78541 0.0
O173 O 0.65686 0.75771 0.78307 0.0
C174 C 0.62681 0.76156 0.7936 0.0
C175 C 0.72078 0.69088 0.70452 0.0
C176 C 0.62367 0.74818 0.70652 0.0
C177 C 0.58798 0.62652 0.7512 0.0
O178 O 0.61914 0.64208 0.73581 0.0
O179 O 0.57926 0.65044 0.76407 0.0
O180 O 0.68428 0.67901 0.6943 0.0
O181 O 0.72863 0.70998 0.72591 0.0
O182 O 0.20269 0.8573 0.69815 0.0
Cd183 Cd 0.23645 0.88039 0.73089 0.0
Cd184 Cd 0.26912 0.96117 0.69901 0.0
O185 O 0.21546 0.91722 0.67922 0.0
O186 O 0.20716 0.8319 0.75523 0.0
O187 O 0.20928 0.89336 0.75985 0.0
C188 C 0.19625 0.85504 0.76788 0.0
C189 C 0.29436 0.03253 0.68768 0.0
C190 C 0.19597 0.87675 0.68043 0.0
C191 C 0.3284 0.9271 0.71748 0.0
O192 O 0.32032 0.95208 0.70495 0.0
O193 O 0.29948 0.89635 0.73023 0.0
O194 O 0.29607 0.00613 0.67249 0.0
O195 O 0.27698 0.01822 0.70943 0.0
O196 O 0.10444 0.35491 0.70535 0.0
Cd197 Cd 0.05931 0.34468 0.73233 0.0
Cd198 Cd 0.00995 0.28142 0.69766 0.0
O199 O 0.06931 0.29086 0.68838 0.0
O200 O 0.09179 0.36762 0.76436 0.0
O201 O 0.04512 0.29897 0.75821 0.0
C202 C 0.07346 0.32872 0.7725 0.0
C203 C 0.94883 0.21833 0.68474 0.0
C204 C 0.10338 0.32692 0.69069 0.0
C205 C 0.00136 0.36085 0.70354 0.0
O206 O -0.00152 0.33026 0.69063 0.0
O207 O 0.02114 0.37043 0.72445 0.0
O208 O 0.97616 0.24502 0.6689 0.0
O209 O 0.9578 0.22558 0.70836 0.0
O210 O 0.96888 0.54162 0.62632 0.0
Cd211 Cd 0.97842 0.58171 0.59639 0.0
Cd212 Cd 0.94022 0.61103 0.64183 0.0
O213 O 0.94575 0.56286 0.65863 0.0
O214 O 0.01012 0.56415 0.5733 0.0
O215 O 0.94688 0.55552 0.5637 0.0
C216 C 0.97875 0.55072 0.55768 0.0
C217 C 0.89166 0.62701 0.66079 0.0
C218 C 0.95719 0.53821 0.64916 0.0
C219 C 0.02358 0.67424 0.61375 0.0
O220 O -0.00569 0.66503 0.62989 0.0
O221 O 0.02303 0.64601 0.59953 0.0
O222 O 0.92653 0.63463 0.6718 0.0
O223 O 0.88344 0.60901 0.63901 0.0
O224 O 0.42445 0.4462 0.64779 0.0
Cd225 Cd 0.39954 0.4121 0.61532 0.0
Cd226 Cd 0.38575 0.344 0.65259 0.0
O227 O 0.42639 0.39815 0.67277 0.0
O228 O 0.41651 0.4576 0.58914 0.0
O229 O 0.43788 0.41056 0.58814 0.0
C230 C 0.4384 0.44334 0.57819 0.0
C231 C 0.37965 0.28011 0.66727 0.0
C232 C 0.43439 0.43593 0.66855 0.0
C233 C 0.30983 0.3482 0.62857 0.0
O234 O 0.32543 0.33313 0.64417 0.0
O235 O 0.3338 0.37898 0.61401 0.0
O236 O 0.36839 0.30196 0.68071 0.0
O237 O 0.39665 0.29548 0.64559 0.0
O238 O 0.53071 0.95099 0.6363 0.0
Cd239 Cd 0.56321 0.95261 0.60452 0.0
Cd240 Cd 0.63462 0.00628 0.63926 0.0
O241 O 0.58311 0.00761 0.65525 0.0
O242 O 0.51927 0.93365 0.57732 0.0
O243 O 0.57678 -0.0016 0.57869 0.0
C244 C 0.54098 0.97161 0.56791 0.0
C245 C 0.70219 0.05795 0.65443 0.0
C246 C 0.54381 0.97877 0.65355 0.0
C247 C 0.61608 0.91739 0.62044 0.0
O248 O 0.63385 0.94956 0.63485 0.0
O249 O 0.58741 0.91259 0.60479 0.0
O250 O 0.67427 0.02821 0.66868 0.0
O251 O 0.69135 0.05974 0.6315 0.0
H252 H 0.44315 0.02237 0.97681 0.0
H253 H 0.48229 0.04442 0.05472 0.0
H254 H 0.53737 0.026 0.04621 0.0
H255 H 0.57441 0.00414 0.01671 0.0
H256 H 0.53575 0.98252 0.93871 0.0
H257 H 0.47993 -3e-05 0.94731 0.0
C258 C 0.46378 0.02328 0.99195 0.0
C259 C 0.4587 0.0349 0.01637 0.0
C260 C 0.49519 0.0125 0.98695 0.0
C261 C 0.4856 0.03572 0.03576 0.0
C262 C 0.51702 0.0251 0.03092 0.0
C263 C 0.55365 0.00297 1.00157 0.0
C264 C 0.55917 -0.00806 0.97709 0.0
C265 C 0.52202 0.01342 1.0066 0.0
C266 C 0.5321 -0.0092 0.95772 0.0
C267 C 0.50029 0.0009 0.96261 0.0
H268 H 0.02419 0.43917 0.01472 0.0
H269 H 0.97237 0.45648 0.08377 0.0
H270 H -0.00852 0.52847 0.07023 0.0
H271 H 0.01907 0.58449 0.03784 0.0
H272 H 0.06815 0.56585 0.96809 0.0
H273 H 0.05443 0.49627 0.9831 0.0
C274 C 0.01721 0.4587 0.02691 0.0
C275 C -0.0034 0.44237 0.05017 0.0
C276 C 0.02788 0.49975 0.01891 0.0
C277 C -0.01201 0.4682 0.06574 0.0
C278 C -0.00106 0.50935 0.05801 0.0
C279 C 0.02732 0.5655 0.02601 0.0
C280 C 0.04457 0.5803 1.00184 0.0
C281 C 0.01842 0.52521 0.03451 0.0
C282 C 0.05484 0.55517 0.98674 0.0
C283 C 0.04684 0.51534 0.99527 0.0
H284 H 0.39155 0.41933 0.01773 0.0
H285 H 0.38698 0.47586 0.94696 0.0
H286 H 0.46108 0.53379 0.95308 0.0
H287 H 0.52794 0.5665 0.97766 0.0
H288 H 0.53246 0.50924 0.04817 0.0
H289 H 0.45742 0.45324 0.04293 0.0
C290 C 0.40656 0.44449 1.0037 0.0
C291 C 0.38373 0.4432 0.98187 0.0
C292 C 0.44924 0.47732 1.0072 0.0
C293 C 0.40377 0.47609 0.96393 0.0
C294 C 0.4462 0.50912 0.96738 0.0
C295 C 0.51254 0.54181 0.99192 0.0
C296 C 0.53592 0.54193 0.01322 0.0
C297 C 0.4694 0.50973 0.98878 0.0
C298 C 0.51532 0.50984 0.03156 0.0
C299 C 0.47238 0.47782 0.02859 0.0
H300 H 0.09019 0.34711 0.31302 0.0
H301 H 0.14651 0.39114 0.38643 0.0
H302 H 0.19848 0.36852 0.37794 0.0
H303 H 0.22467 0.33231 0.35079 0.0
H304 H 0.16717 0.28683 0.27779 0.0
H305 H 0.11849 0.3139 0.28512 0.0
C306 C 0.11411 0.35224 0.32711 0.0
C307 C 0.11438 0.37066 0.35039 0.0
C308 C 0.14324 0.33846 0.32229 0.0
C309 C 0.14563 0.37707 0.36837 0.0
C310 C 0.17518 0.36393 0.36357 0.0
C311 C 0.20154 0.32833 0.33643 0.0
C312 C 0.19925 0.30722 0.31384 0.0
C313 C 0.1737 0.34387 0.3408 0.0
C314 C 0.1694 0.30273 0.29537 0.0
C315 C 0.14163 0.31825 0.29955 0.0
H316 H 0.59712 0.74188 0.40381 0.0
H317 H 0.59075 0.70308 0.32655 0.0
H318 H 0.61082 0.77448 0.3121 0.0
H319 H 0.63437 0.84914 0.32129 0.0
H320 H 0.63869 0.88818 0.39819 0.0
H321 H 0.61564 0.81575 0.41288 0.0
C322 C 0.59945 0.7489 0.38383 0.0
C323 C 0.59274 0.71726 0.36634 0.0
C324 C 0.61135 0.79029 0.37555 0.0
C325 C 0.59592 0.72687 0.34047 0.0
C326 C 0.60764 0.7678 0.33214 0.0
C327 C 0.6304 0.84176 0.34125 0.0
C328 C 0.63875 0.87392 0.35865 0.0
C329 C 0.61634 0.79997 0.34951 0.0
C330 C 0.63265 0.86386 0.38444 0.0
C331 C 0.61939 0.82248 0.39285 0.0
H332 H 0.08951 0.74136 0.34849 0.0
H333 H 0.09938 0.81547 0.28236 0.0
H334 H 0.17112 0.87122 0.29539 0.0
H335 H 0.22955 0.89983 0.3262 0.0
H336 H 0.21898 0.82685 0.39299 0.0
H337 H 0.14884 0.76928 0.37885 0.0
C338 C 0.10736 0.76963 0.33685 0.0
C339 C 0.08903 0.77432 0.31451 0.0
C340 C 0.14839 0.80161 0.34454 0.0
C341 C 0.11266 0.81114 0.29967 0.0
C342 C 0.15368 0.84298 0.3071 0.0
C343 C 0.21215 0.87118 0.3376 0.0
C344 C 0.22949 0.86762 0.36064 0.0
C345 C 0.17167 0.83866 0.32958 0.0
C346 C 0.20638 0.83036 0.3752 0.0
C347 C 0.16624 0.79752 0.36715 0.0
H348 H 0.82242 0.62627 0.64 0.0
H349 H 0.89772 0.65807 0.70808 0.0
H350 H 0.85299 0.68269 0.7273 0.0
H351 H 0.79191 0.69468 0.72498 0.0
H352 H 0.71662 0.66246 0.65687 0.0
H353 H 0.76213 0.63908 0.63747 0.0
C354 C 0.82891 0.6384 0.65908 0.0
C355 C 0.86323 0.64017 0.67258 0.0
C356 C 0.80326 0.65281 0.66999 0.0
C357 C 0.87142 0.65628 0.69724 0.0
C358 C 0.84593 0.67049 0.70826 0.0
C359 C 0.78578 0.68294 0.70582 0.0
C360 C 0.751 0.68038 0.69242 0.0
C361 C 0.81181 0.66901 0.69481 0.0
C362 C 0.7432 0.66475 0.66765 0.0
C363 C 0.76913 0.65123 0.65652 0.0
H364 H 0.37581 0.21623 0.63895 0.0
H365 H 0.35844 0.24718 0.71459 0.0
H366 H 0.33067 0.17332 0.72776 0.0
H367 H 0.3074 0.09895 0.71728 0.0
H368 H 0.3238 0.06782 0.64145 0.0
H369 H 0.35544 0.14244 0.6289 0.0
C370 C 0.36663 0.20693 0.65839 0.0
C371 C 0.36914 0.23709 0.67573 0.0
C372 C 0.34982 0.16416 0.66575 0.0
C373 C 0.35673 0.2245 0.70084 0.0
C374 C 0.34064 0.18222 0.70838 0.0
C375 C 0.31783 0.10851 0.69801 0.0
C376 C 0.31291 0.07781 0.68032 0.0
C377 C 0.33622 0.15158 0.69089 0.0
C378 C 0.32701 0.09078 0.65546 0.0
C379 C 0.34525 0.1335 0.64824 0.0
H380 H 0.77578 0.10087 0.62741 0.0
H381 H 0.72633 0.0788 0.70317 0.0
H382 H 0.79897 0.12348 0.71966 0.0
H383 H 0.87645 0.17038 0.71243 0.0
H384 H 0.92581 0.1912 0.63661 0.0
H385 H 0.85357 0.14469 0.62038 0.0
C386 C 0.78095 0.10619 0.64749 0.0
C387 C 0.74583 0.08711 0.66402 0.0
C388 C 0.82286 0.13113 0.65689 0.0
C389 C 0.75295 0.09346 0.69006 0.0
C390 C 0.79446 0.11882 0.69952 0.0
C391 C 0.87148 0.1641 0.69242 0.0
C392 C 0.90644 0.18427 0.67579 0.0
C393 C 0.82969 0.1378 0.68311 0.0
C394 C 0.89942 0.17608 0.64985 0.0
C395 C 0.85807 0.14971 0.6405 0.0
H396 H 0.2723 0.12269 0.12459 0.0
H397 H 0.38539 0.1144 0.1393 0.0
H398 H 0.39454 0.14939 0.1799 0.0
H399 H 0.36989 0.18155 0.21137 0.0
H400 H 0.25785 0.19145 0.19604 0.0
H401 H 0.24903 0.15686 0.1554 0.0
C402 C 0.29891 0.12841 0.1367 0.0
C403 C 0.32796 0.11565 0.12899 0.0
C404 C 0.30426 0.14899 0.15984 0.0
C405 C 0.36253 0.1238 0.14479 0.0
C406 C 0.36778 0.14382 0.168 0.0
C407 C 0.34361 0.1763 0.19912 0.0
C408 C 0.31449 0.189 0.2068 0.0
C409 C 0.33879 0.15649 0.17573 0.0
C410 C 0.28077 0.1821 0.19061 0.0
C411 C 0.27562 0.16218 0.16739 0.0
H412 H 0.85689 0.13738 0.15479 0.0
H413 H 0.87602 0.25966 0.1776 0.0
H414 H 0.83035 0.2263 0.21436 0.0
H415 H 0.78402 0.16242 0.23951 0.0
H416 H 0.76513 0.04011 0.21706 0.0
H417 H 0.81152 0.07354 0.18048 0.0
C418 C 0.85134 0.15684 0.16788 0.0
C419 C 0.86993 0.20103 0.16342 0.0
C420 C 0.8248 0.13739 0.18889 0.0
C421 C 0.86224 0.22566 0.18057 0.0
C422 C 0.83599 0.20656 0.20156 0.0
C423 C 0.78984 0.14295 0.22658 0.0
C424 C 0.77086 0.09872 0.23094 0.0
C425 C 0.81684 0.16243 0.20577 0.0
C426 C 0.77917 0.07415 0.2141 0.0
C427 C 0.80578 0.09328 0.19321 0.0
H428 H 0.79261 0.61292 0.20584 0.0
H429 H 0.91787 0.71805 0.18577 0.0
H430 H 0.88912 0.727 0.14599 0.0
H431 H 0.82866 0.7047 0.11685 0.0
H432 H 0.70337 0.59958 0.13687 0.0
H433 H 0.73195 0.59106 0.17685 0.0
C434 C 0.8137 0.6378 0.19277 0.0
C435 C 0.85742 0.66472 0.19879 0.0
C436 C 0.79693 0.64283 0.16997 0.0
C437 C 0.88416 0.69685 0.18164 0.0
C438 C 0.86772 0.702 0.15888 0.0
C439 C 0.80749 0.67997 0.12996 0.0
C440 C 0.76387 0.6528 0.12383 0.0
C441 C 0.82418 0.67516 0.15286 0.0
C442 C 0.73702 0.62094 0.14109 0.0
C443 C 0.75337 0.61601 0.16394 0.0
H444 H 0.63497 0.88535 0.87913 0.0
H445 H 0.77082 0.93333 0.87131 0.0
H446 H 0.75651 0.88199 0.83787 0.0
H447 H 0.70518 0.82158 0.81184 0.0
H448 H 0.56927 0.77299 0.82038 0.0
H449 H 0.58388 0.8261 0.8526 0.0
C450 C 0.66149 0.88497 0.86989 0.0
C451 C 0.70389 0.91325 0.87768 0.0
C452 C 0.65301 0.85481 0.85099 0.0
C453 C 0.73785 0.91197 0.86567 0.0
C454 C 0.7297 0.88247 0.8466 0.0
C455 C 0.67876 0.82251 0.82081 0.0
C456 C 0.6362 0.79313 0.81376 0.0
C457 C 0.68736 0.85333 0.83934 0.0
C458 C 0.60236 0.79506 0.82547 0.0
C459 C 0.61066 0.82554 0.84388 0.0
H460 H 0.07773 0.80588 0.86392 0.0
H461 H 0.08857 0.69315 0.86016 0.0
H462 H 0.13208 0.72078 0.82196 0.0
H463 H 0.16933 0.77827 0.7907 0.0
H464 H 0.16085 0.89229 0.79579 0.0
H465 H 0.11434 0.86291 0.8326 0.0
C466 C 0.08911 0.78704 0.85458 0.0
C467 C 0.07967 0.74735 0.86479 0.0
C468 C 0.11497 0.80361 0.83307 0.0
C469 C 0.09524 0.72369 0.85264 0.0
C470 C 0.12026 0.73957 0.83087 0.0
C471 C 0.15732 0.79673 0.79984 0.0
C472 C 0.16871 0.83752 0.79051 0.0
C473 C 0.13079 0.77975 0.82111 0.0
C474 C 0.15282 0.86095 0.80262 0.0
C475 C 0.12609 0.8441 0.82363 0.0
H476 H 0.11517 0.25398 0.8691 0.0
H477 H 0.21931 0.38457 0.87428 0.0
H478 H 0.19257 0.40332 0.83695 0.0
H479 H 0.14049 0.38239 0.80237 0.0
H480 H 0.03712 0.25151 0.79676 0.0
H481 H 0.06249 0.23329 0.83488 0.0
C482 C 0.13209 0.28657 0.86209 0.0
C483 C 0.16934 0.31779 0.87448 0.0
C484 C 0.11654 0.29714 0.84059 0.0
C485 C 0.19068 0.35986 0.86511 0.0
C486 C 0.17535 0.37064 0.84377 0.0
C487 C 0.12323 0.34993 0.80959 0.0
C488 C 0.08684 0.31839 0.7967 0.0
C489 C 0.13837 0.33953 0.83133 0.0
C490 C 0.06515 0.27645 0.80628 0.0
C491 C 0.07972 0.26596 0.82805 0.0
H492 H 0.01093 0.46428 0.46421 0.0
H493 H 0.87708 0.42133 0.45122 0.0
H494 H 0.87592 0.46001 0.48828 0.0
H495 H 0.91277 0.50571 0.52478 0.0
H496 H 0.04636 0.54756 0.53787 0.0
H497 H 0.04772 0.51 0.50041 0.0
C498 C 0.98148 0.46331 0.46949 0.0
C499 C 0.94418 0.43984 0.45495 0.0
C500 C 0.98097 0.48564 0.49086 0.0
C501 C 0.9063 0.43905 0.46208 0.0
C502 C 0.90558 0.46125 0.48327 0.0
C503 C 0.94222 0.50681 0.51933 0.0
C504 C 0.97937 0.52946 0.53413 0.0
C505 C 0.94273 0.48468 0.49782 0.0
C506 C 0.01722 0.53033 0.52687 0.0
C507 C 0.01807 0.5088 0.50544 0.0
H508 H 0.53032 0.55116 0.48057 0.0
H509 H 0.58304 0.46795 0.48061 0.0
H510 H 0.54406 0.43372 0.51927 0.0
H511 H 0.49305 0.42579 0.5525 0.0
H512 H 0.44023 0.50896 0.55208 0.0
H513 H 0.48096 0.5445 0.51423 0.0
C514 C 0.53361 0.5258 0.48914 0.0
C515 C 0.55961 0.51221 0.47765 0.0
C516 C 0.51074 0.5059 0.51127 0.0
C517 C 0.56328 0.47912 0.48901 0.0
C518 C 0.54087 0.45939 0.51111 0.0
C519 C 0.49044 0.45167 0.54412 0.0
C520 C 0.46343 0.46449 0.55511 0.0
C521 C 0.51413 0.4722 0.52228 0.0
C522 C 0.46066 0.49829 0.54404 0.0
C523 C 0.48401 0.51874 0.52237 0.0
H524 H 0.46617 0.92254 0.54272 0.0
H525 H 0.57673 0.04997 0.54505 0.0
H526 H 0.54591 0.0724 0.51151 0.0
H527 H 0.4873 0.05605 0.48186 0.0
H528 H 0.37728 0.92836 0.47909 0.0
H529 H 0.40804 0.90595 0.51269 0.0
C530 C 0.4837 0.95518 0.53581 0.0
C531 C 0.52378 0.9845 0.54639 0.0
C532 C 0.4657 0.96792 0.51662 0.0
C533 C 0.54593 0.02668 0.53721 0.0
C534 C 0.52823 0.03959 0.5181 0.0
C535 C 0.46987 0.02337 0.48872 0.0
C536 C 0.42988 -0.00601 0.47807 0.0
C537 C 0.48803 0.01056 0.50778 0.0
C538 C 0.40801 0.95166 0.48699 0.0
C539 C 0.42565 0.93879 0.50616 0.0
H540 H 0.24885 0.95669 0.993 0.0
H541 H 0.22328 0.91338 0.07007 0.0
H542 H 0.16455 0.8434 0.05628 0.0
H543 H 0.12133 0.79458 0.02181 0.0
H544 H 0.14489 0.84173 0.94533 0.0
H545 H 0.20368 0.91043 0.95938 0.0
C546 C 0.2305 0.93184 1.00678 0.0
C547 C 0.24054 0.93968 0.03242 0.0
C548 C 0.19648 0.89257 0.9988 0.0
C549 C 0.21603 0.90777 0.05019 0.0
C550 C 0.18261 0.86788 0.04231 0.0
C551 C 0.1394 0.82001 0.00832 0.0
C552 C 0.12904 0.81316 0.98259 0.0
C553 C 0.17267 0.85989 0.01661 0.0
C554 C 0.1522 0.84638 0.96524 0.0
C555 C 0.18589 0.88558 0.97323 0.0
H556 H 0.02244 0.23113 0.05707 0.0
H557 H 0.103 0.35296 0.09213 0.0
H558 H 0.16408 0.36421 0.06643 0.0
H559 H 0.19031 0.34481 0.02905 0.0
H560 H 0.10594 0.22674 0.99072 0.0
H561 H 0.05052 0.20875 0.02231 0.0
C562 C 0.05391 0.25923 0.05979 0.0
C563 C 0.05867 0.2909 0.07662 0.0
C564 C 0.08772 0.26682 0.04366 0.0
C565 C 0.09905 0.32792 0.07951 0.0
C566 C 0.13367 0.33462 0.06454 0.0
C567 C 0.15997 0.31494 0.02779 0.0
C568 C 0.15201 0.28754 0.00733 0.0
C569 C 0.12773 0.30524 0.04569 0.0
C570 C 0.1126 0.24883 1.00601 0.0
C571 C 0.08095 0.23833 0.02416 0.0
H572 H 0.62729 0.73697 0.02836 0.0
H573 H 0.76368 0.79879 0.04187 0.0
H574 H 0.77298 0.86647 0.02634 0.0
H575 H 0.74327 0.90529 1.00391 0.0
H576 H 0.60653 0.84348 0.99145 0.0
H577 H 0.59635 0.77852 0.01171 0.0
C578 C 0.65891 0.7655 0.02836 0.0
C579 C 0.69481 0.76291 0.03588 0.0
C580 C 0.664 0.80406 0.01928 0.0
C581 C 0.73555 0.80009 0.03616 0.0
C582 C 0.74094 0.83867 0.02707 0.0
C583 C 0.71124 0.87771 1.0059 0.0
C584 C 0.6758 0.87878 0.99583 0.0
C585 C 0.70558 0.84059 0.01775 0.0
C586 C 0.63433 0.84326 0.99895 0.0
C587 C 0.62849 0.80609 0.01046 0.0
H588 H 0.72978 0.10138 0.99389 0.0
H589 H 0.8311 0.11202 0.94598 0.0
H590 H 0.88307 0.17713 0.96794 0.0
H591 H 0.90103 0.2241 1.00504 0.0
H592 H 0.80005 0.2065 0.05542 0.0
H593 H 0.74632 0.1512 0.02808 0.0
C594 C 0.7631 0.11815 0.98791 0.0
C595 C 0.77665 0.10138 0.96859 0.0
C596 C 0.79286 0.15423 1.00125 0.0
C597 C 0.81987 0.124 0.96094 0.0
C598 C 0.84962 0.16112 0.97357 0.0
C599 C 0.8671 0.20884 0.00951 0.0
C600 C 0.85408 0.21914 0.03196 0.0
C601 C 0.83672 0.17556 0.99437 0.0
C602 C 0.81038 0.19889 0.0381 0.0
C603 C 0.77983 0.16724 0.02257 0.0
H604 H 0.78105 0.59527 0.01839 0.0
H605 H 0.75782 0.66426 0.96032 0.0
H606 H 0.82229 0.67646 0.93776 0.0
H607 H 0.89129 0.67707 0.93864 0.0
H608 H 0.91233 0.6069 0.9974 0.0
H609 H 0.84256 0.58516 0.01532 0.0
C610 C 0.78955 0.61195 1.00042 0.0
C611 C 0.76533 0.62924 0.99107 0.0
C612 C 0.82666 0.61921 0.98789 0.0
C613 C 0.77614 0.65054 0.96775 0.0
C614 C 0.81321 0.65789 0.95503 0.0
C615 C 0.8802 0.65634 0.95504 0.0
C616 C 0.90762 0.64472 0.96702 0.0
C617 C 0.83972 0.6439 0.96551 0.0
C618 C 0.89245 0.61727 0.98808 0.0
C619 C 0.85243 0.60466 0.9984 0.0
H620 H 0.34748 0.27464 0.96255 0.0
H621 H 0.22055 0.17515 0.94083 0.0
H622 H 0.23385 0.12135 0.95949 0.0
H623 H 0.27698 0.10447 0.98812 0.0
H624 H 0.40431 0.20324 0.00916 0.0
H625 H 0.39552 0.25588 0.98474 0.0
C626 C 0.32321 0.24104 0.96129 0.0
C627 C 0.28286 0.22886 0.95075 0.0
C628 C 0.3308 0.21046 0.97246 0.0
C629 C 0.25185 0.18529 0.94887 0.0
C630 C 0.25923 0.15457 0.95983 0.0
C631 C 0.3029 0.13746 0.98697 0.0
C632 C 0.34082 0.15061 1.00064 0.0
C633 C 0.29776 0.16708 0.97269 0.0
C634 C 0.37475 0.19293 0.99885 0.0
C635 C 0.36969 0.22284 0.98494 0.0
H636 H 0.85539 0.24132 0.40324 0.0
H637 H 0.95124 0.25121 0.35075 0.0
H638 H 0.90399 0.17801 0.3377 0.0
H639 H 0.8317 0.11571 0.3361 0.0
H640 H 0.73522 0.10377 0.38823 0.0
H641 H 0.78666 0.17283 0.40693 0.0
C642 C 0.86619 0.22719 0.38929 0.0
C643 C 0.90633 0.25218 0.37754 0.0
C644 C 0.83871 0.18477 0.38172 0.0
C645 C 0.92021 0.23309 0.35984 0.0
C646 C 0.89322 0.19113 0.35229 0.0
C647 C 0.82249 0.12777 0.35207 0.0
C648 C 0.78008 0.10537 0.36075 0.0
C649 C 0.85187 0.16737 0.36236 0.0
C650 C 0.76804 0.12072 0.38145 0.0
C651 C 0.79726 0.16033 0.3919 0.0
H652 H 0.83738 0.70502 0.31397 0.0
H653 H 0.87995 0.63687 0.36114 0.0
H654 H 0.82041 0.61794 0.39029 0.0
H655 H 0.75044 0.61255 0.39871 0.0
H656 H 0.71074 0.68372 0.35154 0.0
H657 H 0.7752 0.71015 0.32641 0.0
C658 C 0.83407 0.68685 0.33096 0.0
C659 C 0.86234 0.67184 0.33536 0.0
C660 C 0.8 0.67621 0.3475 0.0
C661 C 0.85836 0.64876 0.35749 0.0
C662 C 0.82416 0.63765 0.37401 0.0
C663 C 0.75631 0.63445 0.38324 0.0
C664 C 0.72513 0.64509 0.3767 0.0
C665 C 0.79384 0.6499 0.36869 0.0
C666 C 0.73367 0.6742 0.35682 0.0
C667 C 0.7706 0.68943 0.34232 0.0
H668 H 0.30294 0.19459 0.36719 0.0
H669 H 0.22496 0.09905 0.31261 0.0
H670 H 0.22461 0.04347 0.339 0.0
H671 H 0.2582 0.02534 0.3726 0.0
H672 H 0.34628 0.12272 0.42363 0.0
H673 H 0.32982 0.1741 0.40437 0.0
C674 C 0.28478 0.16132 0.36163 0.0
C675 C 0.26386 0.15044 0.33823 0.0
C676 C 0.28705 0.13014 0.37615 0.0
C677 C 0.24107 0.10769 0.33067 0.0
C678 C 0.24109 0.07612 0.34568 0.0
C679 C 0.27322 0.05757 0.37993 0.0
C680 C 0.30433 0.07051 0.39907 0.0
C681 C 0.26578 0.08739 0.36775 0.0
C682 C 0.32262 0.11207 0.40871 0.0
C683 C 0.31351 0.14156 0.39753 0.0
H684 H 0.54111 0.45491 0.35121 0.0
H685 H 0.46787 0.51871 0.35502 0.0
H686 H 0.41245 0.46416 0.32844 0.0
H687 H 0.38215 0.39593 0.30704 0.0
H688 H 0.45361 0.33054 0.30309 0.0
H689 H 0.51317 0.38897 0.3261 0.0
C690 C 0.51301 0.45681 0.3462 0.0
C691 C 0.50829 0.49044 0.3554 0.0
C692 C 0.48127 0.42542 0.33068 0.0
C693 C 0.47215 0.49301 0.34835 0.0
C694 C 0.44046 0.4619 0.3331 0.0
C695 C 0.41108 0.39477 0.31085 0.0
C696 C 0.41339 0.35888 0.30365 0.0
C697 C 0.44441 0.42771 0.32451 0.0
C698 C 0.45119 0.35798 0.30837 0.0
C699 C 0.48497 0.3911 0.3218 0.0
H700 H 0.60159 0.0763 0.32021 0.0
H701 H 0.53459 0.94414 0.29829 0.0
H702 H 0.4666 0.93584 0.31299 0.0
H703 H 0.42977 0.96268 0.33903 0.0
H704 H 0.4992 0.09255 0.36582 0.0
H705 H 0.56267 0.10549 0.3423 0.0
C706 C 0.57169 0.04628 0.31777 0.0
C707 C 0.57251 0.011 0.30797 0.0
C708 C 0.5335 0.04111 0.32782 0.0
C709 C 0.53417 0.97176 0.3055 0.0
C710 C 0.49554 0.96693 0.31419 0.0
C711 C 0.45851 -0.00595 0.33934 0.0
C712 C 0.46004 0.02638 0.35446 0.0
C713 C 0.49529 0.00081 0.32651 0.0
C714 C 0.49748 0.0669 0.35464 0.0
C715 C 0.53375 0.07438 0.34115 0.0
H716 H 0.00936 0.58731 0.2792 0.0
H717 H 0.87083 0.51897 0.2807 0.0
H718 H 0.87008 0.45837 0.30138 0.0
H719 H 0.90926 0.43084 0.32562 0.0
H720 H 0.04787 0.49968 0.32411 0.0
H721 H 0.04817 0.55418 0.29691 0.0
C722 C 0.979 0.55861 0.28339 0.0
C723 C 0.94027 0.55784 0.27889 0.0
C724 C 0.97887 0.5245 0.29586 0.0
C725 C 0.9011 0.52034 0.28402 0.0
C726 C 0.90067 0.48591 0.29618 0.0
C727 C 0.93946 0.45754 0.31906 0.0
C728 C 0.97848 0.46189 0.3273 0.0
C729 C 0.9394 0.48864 0.30332 0.0
C730 C 0.01742 0.49596 0.31822 0.0
C731 C 0.01763 0.52712 0.30268 0.0
H732 H 0.49723 0.44891 0.70178 0.0
H733 H 0.41235 0.49445 0.67998 0.0
H734 H 0.44601 0.55204 0.71057 0.0
H735 H 0.50667 0.59587 0.73798 0.0
H736 H 0.59954 0.55817 0.75425 0.0
H737 H 0.55507 0.49027 0.73247 0.0
C738 C 0.48588 0.47118 0.70409 0.0
C739 C 0.45297 0.46809 0.68852 0.0
C740 C 0.50666 0.50535 0.72097 0.0
C741 C 0.43831 0.49692 0.69151 0.0
C742 C 0.45731 0.52962 0.70908 0.0
C743 C 0.51606 0.57185 0.73771 0.0
C744 C 0.55571 0.58135 0.74794 0.0
C745 C 0.49242 0.535 0.72327 0.0
C746 C 0.5686 0.55089 0.74682 0.0
C747 C 0.54358 0.51252 0.73399 0.0
H748 H 0.47911 0.90933 0.67582 0.0
H749 H 0.53813 0.04617 0.67048 0.0
H750 H 0.47804 0.04287 0.69374 0.0
H751 H 0.40428 -0.00034 0.70987 0.0
H752 H 0.34631 0.86294 0.7162 0.0
H753 H 0.41113 0.86753 0.69888 0.0
C754 C 0.47901 0.93841 0.68018 0.0
C755 C 0.51218 0.97782 0.67117 0.0
C756 C 0.44472 0.93621 0.69367 0.0
C757 C 0.51257 0.01551 0.67721 0.0
C758 C 0.47824 0.01358 0.69038 0.0
C759 C 0.40637 0.97105 0.70803 0.0
C760 C 0.37057 0.93098 0.71388 0.0
C761 C 0.44349 0.97395 0.6979 0.0
C762 C 0.37359 0.89412 0.71181 0.0
C763 C 0.41042 0.89669 0.70167 0.0
H764 H 0.00181 0.43078 0.72349 0.0
H765 H 0.9616 0.34842 0.65846 0.0
H766 H 0.94116 0.3943 0.63696 0.0
H767 H 0.94096 0.46096 0.63462 0.0
H768 H 0.97854 0.54368 0.69903 0.0
H769 H -0.00695 0.49428 0.72286 0.0
C770 C -0.01191 0.42266 0.70476 0.0
C771 C -0.0159 0.3866 0.69253 0.0
C772 C 0.97604 0.4493 0.69229 0.0
C773 C 0.96569 0.37623 0.66833 0.0
C774 C 0.9539 0.40246 0.6559 0.0
C775 C 0.95183 0.46788 0.65399 0.0
C776 C 0.95927 0.50594 0.665 0.0
C777 C 0.95998 0.43956 0.66742 0.0
C778 C 0.97264 0.5144 0.69021 0.0
C779 C 0.98119 0.48634 0.70375 0.0
H780 H 0.19976 0.82208 0.64844 0.0
H781 H 0.1208 0.87364 0.67081 0.0
H782 H 0.06018 0.81805 0.64693 0.0
H783 H 0.02712 0.74767 0.6268 0.0
H784 H 0.10638 0.69614 0.60453 0.0
H785 H 0.17011 0.75981 0.62036 0.0
C786 C 0.16956 0.82169 0.64737 0.0
C787 C 0.16406 0.85109 0.6614 0.0
C788 C 0.13512 0.78971 0.63374 0.0
C789 C 0.12529 0.85101 0.66002 0.0
C790 C 0.09073 0.81918 0.64653 0.0
C791 C 0.05858 0.75107 0.62472 0.0
C792 C 0.06211 0.71705 0.61509 0.0
C793 C 0.09481 0.78728 0.63432 0.0
C794 C 0.10293 0.72189 0.61202 0.0
C795 C 0.13929 0.75806 0.62133 0.0
H796 H 0.12404 0.27127 0.67042 0.0
H797 H 0.16797 0.40563 0.67688 0.0
H798 H 0.23248 0.4234 0.65294 0.0
H799 H 0.27979 0.40126 0.63427 0.0
H800 H 0.2407 0.26788 0.63266 0.0
H801 H 0.17024 0.24887 0.6498 0.0
C802 C 0.14761 0.30438 0.66637 0.0
C803 C 0.14157 0.33711 0.67559 0.0
C804 C 0.18521 0.31442 0.65322 0.0
C805 C 0.1723 0.37991 0.6703 0.0
C806 C 0.20903 0.39009 0.65648 0.0
C807 C 0.2552 0.36798 0.63688 0.0
C808 C 0.26475 0.33588 0.6319 0.0
C809 C 0.21621 0.35768 0.6483 0.0
C810 C 0.23346 0.29293 0.63608 0.0
C811 C 0.19352 0.28217 0.64614 0.0
H812 H 0.68002 0.8082 0.67405 0.0
H813 H 0.54568 0.73652 0.6938 0.0
H814 H 0.53006 0.7771 0.66312 0.0
H815 H 0.55616 0.83971 0.63567 0.0
H816 H 0.69161 0.91824 0.62087 0.0
H817 H 0.7054 0.86767 0.6438 0.0
C818 C 0.64728 0.80109 0.67128 0.0
C819 C 0.61411 0.7699 0.68627 0.0
C820 C 0.63883 0.82569 0.65434 0.0
C821 C 0.5718 0.76095 0.68269 0.0
C822 C 0.56283 0.78397 0.6651 0.0
C823 C 0.58839 0.84465 0.63666 0.0
C824 C 0.62279 0.88187 0.62636 0.0
C825 C 0.59627 0.81729 0.65142 0.0
C826 C 0.66471 0.88917 0.62838 0.0
C827 C 0.67258 0.86064 0.64175 0.0
loop_
_geom_bond_atom_site_label_1
_geom_bond_atom_site_label_2
_geom_bond_distance
_geom_bond_site_symmetry_2
_ccdc_geom_bond_type
O0 Cd1 2.223 . S
O0 C8 1.315 . S
Cd1 O0 2.223 . S
Cd1 O4 2.297 . S
Cd1 O5 2.439 . S
Cd1 O11 2.240 . S
Cd2 O3 2.240 . S
Cd2 O10 2.223 . S
Cd2 O12 2.297 . S
Cd2 O13 2.439 . S
O3 Cd2 2.240 . S
O3 C8 1.279 . S
O4 Cd1 2.297 . S
O4 C6 1.247 . S
O5 Cd1 2.439 . S
O5 C6 1.208 . S
C6 O4 1.247 . S
C6 O5 1.208 . S
C7 O12 1.247 . S
C7 O13 1.208 . S
C8 O0 1.315 . S
C8 O3 1.279 . S
C9 O10 1.315 1_565 S
C9 O11 1.279 1_565 S
O10 Cd2 2.223 . S
O10 C9 1.315 1_545 S
O11 Cd1 2.240 . S
O11 C9 1.279 1_545 S
O12 Cd2 2.297 . S
O12 C7 1.247 . S
O13 Cd2 2.439 . S
O13 C7 1.208 . S
O14 Cd15 2.223 . S
O14 C22 1.315 . S
Cd15 O14 2.223 . S
Cd15 O18 2.297 . S
Cd15 O19 2.439 . S
Cd15 O25 2.240 . S
Cd16 O17 2.240 . S
Cd16 O24 2.223 . S
Cd16 O26 2.297 . S
Cd16 O27 2.439 . S
O17 Cd16 2.240 . S
O17 C22 1.279 . S
O18 Cd15 2.297 . S
O18 C20 1.247 . S
O19 Cd15 2.439 . S
O19 C20 1.208 . S
C20 O18 1.247 . S
C20 O19 1.208 . S
C21 O26 1.247 . S
C21 O27 1.208 . S
C22 O14 1.315 . S
C22 O17 1.279 . S
C23 O24 1.315 1_455 S
C23 O25 1.279 1_455 S
O24 Cd16 2.223 . S
O24 C23 1.315 1_655 S
O25 Cd15 2.240 . S
O25 C23 1.279 1_655 S
O26 Cd16 2.297 . S
O26 C21 1.247 . S
O27 Cd16 2.439 . S
O27 C21 1.208 . S
O28 Cd29 2.223 . S
O28 C36 1.315 . S
Cd29 O28 2.223 . S
Cd29 O32 2.297 . S
Cd29 O33 2.439 . S
Cd29 O39 2.240 . S
Cd30 O31 2.240 . S
Cd30 O38 2.223 . S
Cd30 O40 2.297 . S
Cd30 O41 2.439 . S
O31 Cd30 2.240 . S
O31 C36 1.279 . S
O32 Cd29 2.297 . S
O32 C34 1.247 . S
O33 Cd29 2.439 . S
O33 C34 1.208 . S
C34 O32 1.247 . S
C34 O33 1.208 . S
C35 O40 1.247 . S
C35 O41 1.208 . S
C36 O28 1.315 . S
C36 O31 1.279 . S
C37 O38 1.315 . S
C37 O39 1.279 . S
O38 Cd30 2.223 . S
O38 C37 1.315 . S
O39 Cd29 2.240 . S
O39 C37 1.279 . S
O40 Cd30 2.297 . S
O40 C35 1.247 . S
O41 Cd30 2.439 . S
O41 C35 1.208 . S
O42 Cd43 2.223 . S
O42 C50 1.315 . S
Cd43 O42 2.223 . S
Cd43 O46 2.297 . S
Cd43 O47 2.439 . S
Cd43 O53 2.240 . S
Cd44 O45 2.240 . S
Cd44 O52 2.223 . S
Cd44 O54 2.297 . S
Cd44 O55 2.439 . S
O45 Cd44 2.240 . S
O45 C50 1.279 . S
O46 Cd43 2.297 . S
O46 C48 1.247 . S
O47 Cd43 2.439 . S
O47 C48 1.208 . S
C48 O46 1.247 . S
C48 O47 1.208 . S
C49 O54 1.247 . S
C49 O55 1.208 . S
C50 O42 1.315 . S
C50 O45 1.279 . S
C51 O52 1.315 1_545 S
C51 O53 1.279 1_545 S
O52 Cd44 2.223 . S
O52 C51 1.315 1_565 S
O53 Cd43 2.240 . S
O53 C51 1.279 1_565 S
O54 Cd44 2.297 . S
O54 C49 1.247 . S
O55 Cd44 2.439 . S
O55 C49 1.208 . S
O56 Cd57 2.223 . S
O56 C64 1.315 . S
Cd57 O56 2.223 . S
Cd57 O60 2.297 . S
Cd57 O61 2.439 . S
Cd57 O67 2.240 . S
Cd58 O59 2.240 . S
Cd58 O66 2.223 . S
Cd58 O68 2.297 . S
Cd58 O69 2.439 . S
O59 Cd58 2.240 . S
O59 C64 1.279 . S
O60 Cd57 2.297 . S
O60 C62 1.247 . S
O61 Cd57 2.439 . S
O61 C62 1.208 . S
C62 O60 1.247 . S
C62 O61 1.208 . S
C63 O68 1.247 . S
C63 O69 1.208 . S
C64 O56 1.315 . S
C64 O59 1.279 . S
C65 O66 1.315 1_655 S
C65 O67 1.279 1_655 S
O66 Cd58 2.223 . S
O66 C65 1.315 1_455 S
O67 Cd57 2.240 . S
O67 C65 1.279 1_455 S
O68 Cd58 2.297 . S
O68 C63 1.247 . S
O69 Cd58 2.439 . S
O69 C63 1.208 . S
O70 Cd71 2.223 . S
O70 C78 1.315 . S
Cd71 O70 2.223 . S
Cd71 O74 2.297 . S
Cd71 O75 2.439 . S
Cd71 O81 2.240 . S
Cd72 O73 2.240 . S
Cd72 O80 2.223 . S
Cd72 O82 2.297 . S
Cd72 O83 2.439 . S
O73 Cd72 2.240 . S
O73 C78 1.279 . S
O74 Cd71 2.297 . S
O74 C76 1.247 . S
O75 Cd71 2.439 . S
O75 C76 1.208 . S
C76 O74 1.247 . S
C76 O75 1.208 . S
C77 O82 1.247 . S
C77 O83 1.208 . S
C78 O70 1.315 . S
C78 O73 1.279 . S
C79 O80 1.315 . S
C79 O81 1.279 . S
O80 Cd72 2.223 . S
O80 C79 1.315 . S
O81 Cd71 2.240 . S
O81 C79 1.279 . S
O82 Cd72 2.297 . S
O82 C77 1.247 . S
O83 Cd72 2.439 . S
O83 C77 1.208 . S
O84 Cd85 2.223 . S
O84 C92 1.315 . S
Cd85 O84 2.223 . S
Cd85 O88 2.297 . S
Cd85 O89 2.439 1_655 S
Cd85 O95 2.240 . S
Cd86 O87 2.240 . S
Cd86 O94 2.223 1_455 S
Cd86 O96 2.297 . S
Cd86 O97 2.439 . S
O87 Cd86 2.240 . S
O87 C92 1.279 1_455 S
O88 Cd85 2.297 . S
O88 C90 1.247 1_655 S
O89 Cd85 2.439 1_455 S
O89 C90 1.208 . S
C90 O88 1.247 1_455 S
C90 O89 1.208 . S
C91 O96 1.247 . S
C91 O97 1.208 . S
C92 O84 1.315 . S
C92 O87 1.279 1_655 S
C93 O94 1.315 . S
C93 O95 1.279 . S
O94 Cd86 2.223 1_655 S
O94 C93 1.315 . S
O95 Cd85 2.240 . S
O95 C93 1.279 . S
O96 Cd86 2.297 . S
O96 C91 1.247 . S
O97 Cd86 2.439 . S
O97 C91 1.208 . S
O98 Cd99 2.223 . S
O98 C106 1.315 . S
Cd99 O98 2.223 . S
Cd99 O102 2.297 . S
Cd99 O103 2.439 . S
Cd99 O109 2.240 . S
Cd100 O101 2.240 . S
Cd100 O108 2.223 . S
Cd100 O110 2.297 . S
Cd100 O111 2.439 . S
O101 Cd100 2.240 . S
O101 C106 1.279 . S
O102 Cd99 2.297 . S
O102 C104 1.247 . S
O103 Cd99 2.439 . S
O103 C104 1.208 . S
C104 O102 1.247 . S
C104 O103 1.208 . S
C105 O110 1.247 . S
C105 O111 1.208 . S
C106 O98 1.315 . S
C106 O101 1.279 . S
C107 O108 1.315 . S
C107 O109 1.279 . S
O108 Cd100 2.223 . S
O108 C107 1.315 . S
O109 Cd99 2.240 . S
O109 C107 1.279 . S
O110 Cd100 2.297 . S
O110 C105 1.247 . S
O111 Cd100 2.439 . S
O111 C105 1.208 . S
O112 Cd113 2.223 . S
O112 C120 1.315 . S
Cd113 O112 2.223 . S
Cd113 O116 2.297 . S
Cd113 O117 2.439 1_545 S
Cd113 O123 2.240 . S
Cd114 O115 2.240 . S
Cd114 O122 2.223 1_565 S
Cd114 O124 2.297 . S
Cd114 O125 2.439 . S
O115 Cd114 2.240 . S
O115 C120 1.279 1_565 S
O116 Cd113 2.297 . S
O116 C118 1.247 1_545 S
O117 Cd113 2.439 1_565 S
O117 C118 1.208 . S
C118 O116 1.247 1_565 S
C118 O117 1.208 . S
C119 O124 1.247 . S
C119 O125 1.208 . S
C120 O112 1.315 . S
C120 O115 1.279 1_545 S
C121 O122 1.315 . S
C121 O123 1.279 . S
O122 Cd114 2.223 1_545 S
O122 C121 1.315 . S
O123 Cd113 2.240 . S
O123 C121 1.279 . S
O124 Cd114 2.297 . S
O124 C119 1.247 . S
O125 Cd114 2.439 . S
O125 C119 1.208 . S
O126 Cd127 2.223 . S
O126 C134 1.315 . S
Cd127 O126 2.223 . S
Cd127 O130 2.297 . S
Cd127 O131 2.439 . S
Cd127 O137 2.240 . S
Cd128 O129 2.240 . S
Cd128 O136 2.223 . S
Cd128 O138 2.297 . S
Cd128 O139 2.439 . S
O129 Cd128 2.240 . S
O129 C134 1.279 . S
O130 Cd127 2.297 . S
O130 C132 1.247 . S
O131 Cd127 2.439 . S
O131 C132 1.208 . S
C132 O130 1.247 . S
C132 O131 1.208 . S
C133 O138 1.247 . S
C133 O139 1.208 . S
C134 O126 1.315 . S
C134 O129 1.279 . S
C135 O136 1.315 . S
C135 O137 1.279 . S
O136 Cd128 2.223 . S
O136 C135 1.315 . S
O137 Cd127 2.240 . S
O137 C135 1.279 . S
O138 Cd128 2.297 . S
O138 C133 1.247 . S
O139 Cd128 2.439 . S
O139 C133 1.208 . S
O140 Cd141 2.223 . S
O140 C148 1.315 . S
Cd141 O140 2.223 . S
Cd141 O144 2.297 . S
Cd141 O145 2.439 . S
Cd141 O151 2.240 . S
Cd142 O143 2.240 . S
Cd142 O150 2.223 . S
Cd142 O152 2.297 1_545 S
Cd142 O153 2.439 1_545 S
O143 Cd142 2.240 . S
O143 C148 1.279 . S
O144 Cd141 2.297 . S
O144 C146 1.247 . S
O145 Cd141 2.439 . S
O145 C146 1.208 . S
C146 O144 1.247 . S
C146 O145 1.208 . S
C147 O152 1.247 . S
C147 O153 1.208 . S
C148 O140 1.315 . S
C148 O143 1.279 . S
C149 O150 1.315 . S
C149 O151 1.279 . S
O150 Cd142 2.223 . S
O150 C149 1.315 . S
O151 Cd141 2.240 . S
O151 C149 1.279 . S
O152 Cd142 2.297 1_565 S
O152 C147 1.247 . S
O153 Cd142 2.439 1_565 S
O153 C147 1.208 . S
O154 Cd155 2.223 . S
O154 C162 1.315 . S
Cd155 O154 2.223 . S
Cd155 O158 2.297 . S
Cd155 O159 2.439 . S
Cd155 O165 2.240 . S
Cd156 O157 2.240 . S
Cd156 O164 2.223 . S
Cd156 O166 2.297 1_655 S
Cd156 O167 2.439 1_655 S
O157 Cd156 2.240 . S
O157 C162 1.279 . S
O158 Cd155 2.297 . S
O158 C160 1.247 . S
O159 Cd155 2.439 . S
O159 C160 1.208 . S
C160 O158 1.247 . S
C160 O159 1.208 . S
C161 O166 1.247 . S
C161 O167 1.208 . S
C162 O154 1.315 . S
C162 O157 1.279 . S
C163 O164 1.315 . S
C163 O165 1.279 . S
O164 Cd156 2.223 . S
O164 C163 1.315 . S
O165 Cd155 2.240 . S
O165 C163 1.279 . S
O166 Cd156 2.297 1_455 S
O166 C161 1.247 . S
O167 Cd156 2.439 1_455 S
O167 C161 1.208 . S
O168 Cd169 2.223 . S
O168 C176 1.315 . S
Cd169 O168 2.223 . S
Cd169 O172 2.297 . S
Cd169 O173 2.439 . S
Cd169 O179 2.240 . S
Cd170 O171 2.240 . S
Cd170 O178 2.223 . S
Cd170 O180 2.297 . S
Cd170 O181 2.439 . S
O171 Cd170 2.240 . S
O171 C176 1.279 . S
O172 Cd169 2.297 . S
O172 C174 1.247 . S
O173 Cd169 2.439 . S
O173 C174 1.208 . S
C174 O172 1.247 . S
C174 O173 1.208 . S
C175 O180 1.247 . S
C175 O181 1.208 . S
C176 O168 1.315 . S
C176 O171 1.279 . S
C177 O178 1.315 . S
C177 O179 1.279 . S
O178 Cd170 2.223 . S
O178 C177 1.315 . S
O179 Cd169 2.240 . S
O179 C177 1.279 . S
O180 Cd170 2.297 . S
O180 C175 1.247 . S
O181 Cd170 2.439 . S
O181 C175 1.208 . S
O182 Cd183 2.223 . S
O182 C190 1.315 . S
Cd183 O182 2.223 . S
Cd183 O186 2.297 . S
Cd183 O187 2.439 . S
Cd183 O193 2.240 . S
Cd184 O185 2.240 . S
Cd184 O192 2.223 . S
Cd184 O194 2.297 1_565 S
Cd184 O195 2.439 1_565 S
O185 Cd184 2.240 . S
O185 C190 1.279 . S
O186 Cd183 2.297 . S
O186 C188 1.247 . S
O187 Cd183 2.439 . S
O187 C188 1.208 . S
C188 O186 1.247 . S
C188 O187 1.208 . S
C189 O194 1.247 . S
C189 O195 1.208 . S
C190 O182 1.315 . S
C190 O185 1.279 . S
C191 O192 1.315 . S
C191 O193 1.279 . S
O192 Cd184 2.223 . S
O192 C191 1.315 . S
O193 Cd183 2.240 . S
O193 C191 1.279 . S
O194 Cd184 2.297 1_545 S
O194 C189 1.247 . S
O195 Cd184 2.439 1_545 S
O195 C189 1.208 . S
O196 Cd197 2.223 . S
O196 C204 1.315 . S
Cd197 O196 2.223 . S
Cd197 O200 2.297 . S
Cd197 O201 2.439 . S
Cd197 O207 2.240 . S
Cd198 O199 2.240 . S
Cd198 O206 2.223 . S
Cd198 O208 2.297 1_455 S
Cd198 O209 2.439 1_455 S
O199 Cd198 2.240 . S
O199 C204 1.279 . S
O200 Cd197 2.297 . S
O200 C202 1.247 . S
O201 Cd197 2.439 . S
O201 C202 1.208 . S
C202 O200 1.247 . S
C202 O201 1.208 . S
C203 O208 1.247 . S
C203 O209 1.208 . S
C204 O196 1.315 . S
C204 O199 1.279 . S
C205 O206 1.315 . S
C205 O207 1.279 . S
O206 Cd198 2.223 . S
O206 C205 1.315 . S
O207 Cd197 2.240 . S
O207 C205 1.279 . S
O208 Cd198 2.297 1_655 S
O208 C203 1.247 . S
O209 Cd198 2.439 1_655 S
O209 C203 1.208 . S
O210 Cd211 2.223 . S
O210 C218 1.315 . S
Cd211 O210 2.223 . S
Cd211 O214 2.297 . S
Cd211 O215 2.439 1_455 S
Cd211 O221 2.240 . S
Cd212 O213 2.240 . S
Cd212 O220 2.223 1_655 S
Cd212 O222 2.297 . S
Cd212 O223 2.439 . S
O213 Cd212 2.240 . S
O213 C218 1.279 1_655 S
O214 Cd211 2.297 . S
O214 C216 1.247 1_455 S
O215 Cd211 2.439 1_655 S
O215 C216 1.208 . S
C216 O214 1.247 1_655 S
C216 O215 1.208 . S
C217 O222 1.247 . S
C217 O223 1.208 . S
C218 O210 1.315 . S
C218 O213 1.279 1_455 S
C219 O220 1.315 . S
C219 O221 1.279 . S
O220 Cd212 2.223 1_455 S
O220 C219 1.315 . S
O221 Cd211 2.240 . S
O221 C219 1.279 . S
O222 Cd212 2.297 . S
O222 C217 1.247 . S
O223 Cd212 2.439 . S
O223 C217 1.208 . S
O224 Cd225 2.223 . S
O224 C232 1.315 . S
Cd225 O224 2.223 . S
Cd225 O228 2.297 . S
Cd225 O229 2.439 . S
Cd225 O235 2.240 . S
Cd226 O227 2.240 . S
Cd226 O234 2.223 . S
Cd226 O236 2.297 . S
Cd226 O237 2.439 . S
O227 Cd226 2.240 . S
O227 C232 1.279 . S
O228 Cd225 2.297 . S
O228 C230 1.247 . S
O229 Cd225 2.439 . S
O229 C230 1.208 . S
C230 O228 1.247 . S
C230 O229 1.208 . S
C231 O236 1.247 . S
C231 O237 1.208 . S
C232 O224 1.315 . S
C232 O227 1.279 . S
C233 O234 1.315 . S
C233 O235 1.279 . S
O234 Cd226 2.223 . S
O234 C233 1.315 . S
O235 Cd225 2.240 . S
O235 C233 1.279 . S
O236 Cd226 2.297 . S
O236 C231 1.247 . S
O237 Cd226 2.439 . S
O237 C231 1.208 . S
O238 Cd239 2.223 . S
O238 C246 1.315 . S
Cd239 O238 2.223 . S
Cd239 O242 2.297 . S
Cd239 O243 2.439 1_565 S
Cd239 O249 2.240 . S
Cd240 O241 2.240 . S
Cd240 O248 2.223 1_545 S
Cd240 O250 2.297 . S
Cd240 O251 2.439 . S
O241 Cd240 2.240 . S
O241 C246 1.279 1_545 S
O242 Cd239 2.297 . S
O242 C244 1.247 1_565 S
O243 Cd239 2.439 1_545 S
O243 C244 1.208 . S
C244 O242 1.247 1_545 S
C244 O243 1.208 . S
C245 O250 1.247 . S
C245 O251 1.208 . S
C246 O238 1.315 . S
C246 O241 1.279 1_565 S
C247 O248 1.315 . S
C247 O249 1.279 . S
O248 Cd240 2.223 1_565 S
O248 C247 1.315 . S
O249 Cd239 2.240 . S
O249 C247 1.279 . S
O250 Cd240 2.297 . S
O250 C245 1.247 . S
O251 Cd240 2.439 . S
O251 C245 1.208 . S
H252 C258 0.930 . S
H253 C261 0.930 . S
H254 C262 0.930 1_556 S
H255 C263 0.930 . S
H256 C266 0.930 . S
H257 C267 0.930 1_554 S
C258 H252 0.930 . S
C258 C259 1.355 . S
C258 C260 1.415 . S
C259 C258 1.355 . S
C259 C261 1.419 1_545 S
C260 C258 1.415 . S
C260 C265 1.425 1_544 S
C260 C267 1.409 1_554 S
C261 H253 0.930 . S
C261 C259 1.419 1_565 S
C261 C262 1.362 . S
C262 H254 0.930 1_554 S
C262 C261 1.362 . S
C262 C265 1.409 1_554 S
C263 H255 0.930 . S
C263 C264 1.355 . S
C263 C265 1.415 . S
C264 C263 1.355 . S
C264 C266 1.419 1_565 S
C265 C260 1.425 1_566 S
C265 C262 1.409 1_556 S
C265 C263 1.415 . S
C266 H256 0.930 . S
C266 C264 1.419 1_545 S
C266 C267 1.362 . S
C267 H257 0.930 1_556 S
C267 C260 1.409 1_556 S
C267 C266 1.362 . S
H268 C274 0.930 . S
H269 C277 0.930 . S
H270 C278 0.930 . S
H271 C279 0.930 . S
H272 C282 0.930 . S
H273 C283 0.930 . S
C274 H268 0.930 . S
C274 C275 1.355 1_455 S
C274 C276 1.405 1_554 S
C275 C274 1.355 1_655 S
C275 C277 1.419 . S
C276 C274 1.405 1_556 S
C276 C281 1.424 1_456 S
C276 C283 1.419 . S
C277 H269 0.930 . S
C277 C275 1.419 . S
C277 C278 1.362 . S
C278 H270 0.930 . S
C278 C277 1.362 . S
C278 C281 1.419 . S
C279 H271 0.930 . S
C279 C280 1.355 1_655 S
C279 C281 1.405 1_556 S
C280 C279 1.355 1_455 S
C280 C282 1.419 . S
C281 C276 1.424 1_654 S
C281 C278 1.419 . S
C281 C279 1.405 1_554 S
C282 H272 0.930 . S
C282 C280 1.419 . S
C282 C283 1.362 . S
C283 H273 0.930 . S
C283 C276 1.419 . S
C283 C282 1.362 . S
H284 C290 0.913 1_554 S
H285 C293 0.930 . S
H286 C294 0.930 . S
H287 C295 0.913 1_556 S
H288 C298 0.930 . S
H289 C299 0.930 . S
C290 H284 0.913 1_556 S
C290 C291 1.381 . S
C290 C292 1.406 1_556 S
C291 C290 1.381 . S
C291 C293 1.419 . S
C292 C290 1.406 1_554 S
C292 C297 1.425 1_554 S
C292 C299 1.409 . S
C293 H285 0.930 . S
C293 C291 1.419 . S
C293 C294 1.362 . S
C294 H286 0.930 . S
C294 C293 1.362 . S
C294 C297 1.409 . S
C295 H287 0.913 1_554 S
C295 C296 1.381 . S
C295 C297 1.406 1_554 S
C296 C295 1.381 . S
C296 C298 1.419 . S
C297 C292 1.425 1_556 S
C297 C294 1.409 . S
C297 C295 1.406 1_556 S
C298 H288 0.930 . S
C298 C296 1.419 . S
C298 C299 1.362 . S
C299 H289 0.930 . S
C299 C292 1.409 . S
C299 C298 1.362 . S
H300 C306 0.930 . S
H301 C309 0.930 . S
H302 C310 0.930 . S
H303 C311 0.930 . S
H304 C314 0.930 . S
H305 C315 0.930 . S
C306 H300 0.930 . S
C306 C307 1.355 . S
C306 C308 1.415 . S
C307 C306 1.355 . S
C307 C309 1.419 . S
C308 C306 1.415 . S
C308 C313 1.425 . S
C308 C315 1.409 . S
C309 H301 0.930 . S
C309 C307 1.419 . S
C309 C310 1.362 . S
C310 H302 0.930 . S
C310 C309 1.362 . S
C310 C313 1.409 . S
C311 H303 0.930 . S
C311 C312 1.355 . S
C311 C313 1.415 . S
C312 C311 1.355 . S
C312 C314 1.419 . S
C313 C308 1.425 . S
C313 C310 1.409 . S
C313 C311 1.415 . S
C314 H304 0.930 . S
C314 C312 1.419 . S
C314 C315 1.362 . S
C315 H305 0.930 . S
C315 C308 1.409 . S
C315 C314 1.362 . S
H316 C322 0.930 . S
H317 C325 0.930 . S
H318 C326 0.930 . S
H319 C327 0.930 . S
H320 C330 0.930 . S
H321 C331 0.930 . S
C322 H316 0.930 . S
C322 C323 1.355 . S
C322 C324 1.415 . S
C323 C322 1.355 . S
C323 C325 1.419 . S
C324 C322 1.415 . S
C324 C329 1.425 . S
C324 C331 1.409 . S
C325 H317 0.930 . S
C325 C323 1.419 . S
C325 C326 1.362 . S
C326 H318 0.930 . S
C326 C325 1.362 . S
C326 C329 1.409 . S
C327 H319 0.930 . S
C327 C328 1.355 . S
C327 C329 1.415 . S
C328 C327 1.355 . S
C328 C330 1.419 . S
C329 C324 1.425 . S
C329 C326 1.409 . S
C329 C327 1.415 . S
C330 H320 0.930 . S
C330 C328 1.419 . S
C330 C331 1.362 . S
C331 H321 0.930 . S
C331 C324 1.409 . S
C331 C330 1.362 . S
H332 C338 0.930 . S
H333 C341 0.930 . S
H334 C342 0.930 . S
H335 C343 0.930 . S
H336 C346 0.930 . S
H337 C347 0.930 . S
C338 H332 0.930 . S
C338 C339 1.355 . S
C338 C340 1.415 . S
C339 C338 1.355 . S
C339 C341 1.419 . S
C340 C338 1.415 . S
C340 C345 1.425 . S
C340 C347 1.409 . S
C341 H333 0.930 . S
C341 C339 1.419 . S
C341 C342 1.362 . S
C342 H334 0.930 . S
C342 C341 1.362 . S
C342 C345 1.409 . S
C343 H335 0.930 . S
C343 C344 1.355 . S
C343 C345 1.415 . S
C344 C343 1.355 . S
C344 C346 1.419 . S
C345 C340 1.425 . S
C345 C342 1.409 . S
C345 C343 1.415 . S
C346 H336 0.930 . S
C346 C344 1.419 . S
C346 C347 1.362 . S
C347 H337 0.930 . S
C347 C340 1.409 . S
C347 C346 1.362 . S
H348 C354 0.930 . S
H349 C357 0.930 . S
H350 C358 0.930 . S
H351 C359 0.930 . S
H352 C362 0.930 . S
H353 C363 0.930 . S
C354 H348 0.930 . S
C354 C355 1.355 . S
C354 C356 1.415 . S
C355 C354 1.355 . S
C355 C357 1.419 . S
C356 C354 1.415 . S
C356 C361 1.425 . S
C356 C363 1.409 . S
C357 H349 0.930 . S
C357 C355 1.419 . S
C357 C358 1.362 . S
C358 H350 0.930 . S
C358 C357 1.362 . S
C358 C361 1.409 . S
C359 H351 0.930 . S
C359 C360 1.355 . S
C359 C361 1.415 . S
C360 C359 1.355 . S
C360 C362 1.419 . S
C361 C356 1.425 . S
C361 C358 1.409 . S
C361 C359 1.415 . S
C362 H352 0.930 . S
C362 C360 1.419 . S
C362 C363 1.362 . S
C363 H353 0.930 . S
C363 C356 1.409 . S
C363 C362 1.362 . S
H364 C370 0.930 . S
H365 C373 0.930 . S
H366 C374 0.930 . S
H367 C375 0.930 . S
H368 C378 0.930 . S
H369 C379 0.930 . S
C370 H364 0.930 . S
C370 C371 1.355 . S
C370 C372 1.415 . S
C371 C370 1.355 . S
C371 C373 1.419 . S
C372 C370 1.415 . S
C372 C377 1.425 . S
C372 C379 1.409 . S
C373 H365 0.930 . S
C373 C371 1.419 . S
C373 C374 1.362 . S
C374 H366 0.930 . S
C374 C373 1.362 . S
C374 C377 1.409 . S
C375 H367 0.930 . S
C375 C376 1.355 . S
C375 C377 1.415 . S
C376 C375 1.355 . S
C376 C378 1.419 . S
C377 C372 1.425 . S
C377 C374 1.409 . S
C377 C375 1.415 . S
C378 H368 0.930 . S
C378 C376 1.419 . S
C378 C379 1.362 . S
C379 H369 0.930 . S
C379 C372 1.409 . S
C379 C378 1.362 . S
H380 C386 0.930 . S
H381 C389 0.930 . S
H382 C390 0.930 . S
H383 C391 0.930 . S
H384 C394 0.930 . S
H385 C395 0.930 . S
C386 H380 0.930 . S
C386 C387 1.355 . S
C386 C388 1.415 . S
C387 C386 1.355 . S
C387 C389 1.419 . S
C388 C386 1.415 . S
C388 C393 1.425 . S
C388 C395 1.409 . S
C389 H381 0.930 . S
C389 C387 1.419 . S
C389 C390 1.362 . S
C390 H382 0.930 . S
C390 C389 1.362 . S
C390 C393 1.409 . S
C391 H383 0.930 . S
C391 C392 1.355 . S
C391 C393 1.415 . S
C392 C391 1.355 . S
C392 C394 1.419 . S
C393 C388 1.425 . S
C393 C390 1.409 . S
C393 C391 1.415 . S
C394 H384 0.930 . S
C394 C392 1.419 . S
C394 C395 1.362 . S
C395 H385 0.930 . S
C395 C388 1.409 . S
C395 C394 1.362 . S
H396 C402 0.930 . S
H397 C405 0.930 . S
H398 C406 0.930 . S
H399 C407 0.930 . S
H400 C410 0.930 . S
H401 C411 0.930 . S
C402 H396 0.930 . S
C402 C403 1.355 . S
C402 C404 1.415 . S
C403 C402 1.355 . S
C403 C405 1.419 . S
C404 C402 1.415 . S
C404 C409 1.425 . S
C404 C411 1.409 . S
C405 H397 0.930 . S
C405 C403 1.419 . S
C405 C406 1.362 . S
C406 H398 0.930 . S
C406 C405 1.362 . S
C406 C409 1.409 . S
C407 H399 0.930 . S
C407 C408 1.355 . S
C407 C409 1.415 . S
C408 C407 1.355 . S
C408 C410 1.419 . S
C409 C404 1.425 . S
C409 C406 1.409 . S
C409 C407 1.415 . S
C410 H400 0.930 . S
C410 C408 1.419 . S
C410 C411 1.362 . S
C411 H401 0.930 . S
C411 C404 1.409 . S
C411 C410 1.362 . S
H412 C418 0.930 . S
H413 C421 0.930 . S
H414 C422 0.930 . S
H415 C423 0.930 . S
H416 C426 0.930 . S
H417 C427 0.930 . S
C418 H412 0.930 . S
C418 C419 1.355 . S
C418 C420 1.415 . S
C419 C418 1.355 . S
C419 C421 1.419 . S
C420 C418 1.415 . S
C420 C425 1.425 . S
C420 C427 1.409 . S
C421 H413 0.930 . S
C421 C419 1.419 . S
C421 C422 1.362 . S
C422 H414 0.930 . S
C422 C421 1.362 . S
C422 C425 1.409 . S
C423 H415 0.930 . S
C423 C424 1.355 . S
C423 C425 1.415 . S
C424 C423 1.355 . S
C424 C426 1.419 . S
C425 C420 1.425 . S
C425 C422 1.409 . S
C425 C423 1.415 . S
C426 H416 0.930 . S
C426 C424 1.419 . S
C426 C427 1.362 . S
C427 H417 0.930 . S
C427 C420 1.409 . S
C427 C426 1.362 . S
H428 C434 0.930 . S
H429 C437 0.930 . S
H430 C438 0.930 . S
H431 C439 0.930 . S
H432 C442 0.930 . S
H433 C443 0.930 . S
C434 H428 0.930 . S
C434 C435 1.355 . S
C434 C436 1.415 . S
C435 C434 1.355 . S
C435 C437 1.419 . S
C436 C434 1.415 . S
C436 C441 1.425 . S
C436 C443 1.409 . S
C437 H429 0.930 . S
C437 C435 1.419 . S
C437 C438 1.362 . S
C438 H430 0.930 . S
C438 C437 1.362 . S
C438 C441 1.409 . S
C439 H431 0.930 . S
C439 C440 1.355 . S
C439 C441 1.415 . S
C440 C439 1.355 . S
C440 C442 1.419 . S
C441 C436 1.425 . S
C441 C438 1.409 . S
C441 C439 1.415 . S
C442 H432 0.930 . S
C442 C440 1.419 . S
C442 C443 1.362 . S
C443 H433 0.930 . S
C443 C436 1.409 . S
C443 C442 1.362 . S
H444 C450 0.930 . S
H445 C453 0.930 . S
H446 C454 0.930 . S
H447 C455 0.930 . S
H448 C458 0.930 . S
H449 C459 0.930 . S
C450 H444 0.930 . S
C450 C451 1.355 . S
C450 C452 1.415 . S
C451 C450 1.355 . S
C451 C453 1.419 . S
C452 C450 1.415 . S
C452 C457 1.425 . S
C452 C459 1.409 . S
C453 H445 0.930 . S
C453 C451 1.419 . S
C453 C454 1.362 . S
C454 H446 0.930 . S
C454 C453 1.362 . S
C454 C457 1.409 . S
C455 H447 0.930 . S
C455 C456 1.355 . S
C455 C457 1.415 . S
C456 C455 1.355 . S
C456 C458 1.419 . S
C457 C452 1.425 . S
C457 C454 1.409 . S
C457 C455 1.415 . S
C458 H448 0.930 . S
C458 C456 1.419 . S
C458 C459 1.362 . S
C459 H449 0.930 . S
C459 C452 1.409 . S
C459 C458 1.362 . S
H460 C466 0.930 . S
H461 C469 0.930 . S
H462 C470 0.930 . S
H463 C471 0.930 . S
H464 C474 0.930 . S
H465 C475 0.930 . S
C466 H460 0.930 . S
C466 C467 1.355 . S
C466 C468 1.415 . S
C467 C466 1.355 . S
C467 C469 1.419 . S
C468 C466 1.415 . S
C468 C473 1.425 . S
C468 C475 1.409 . S
C469 H461 0.930 . S
C469 C467 1.419 . S
C469 C470 1.362 . S
C470 H462 0.930 . S
C470 C469 1.362 . S
C470 C473 1.409 . S
C471 H463 0.930 . S
C471 C472 1.355 . S
C471 C473 1.415 . S
C472 C471 1.355 . S
C472 C474 1.419 . S
C473 C468 1.425 . S
C473 C470 1.409 . S
C473 C471 1.415 . S
C474 H464 0.930 . S
C474 C472 1.419 . S
C474 C475 1.362 . S
C475 H465 0.930 . S
C475 C468 1.409 . S
C475 C474 1.362 . S
H476 C482 0.930 . S
H477 C485 0.930 . S
H478 C486 0.930 . S
H479 C487 0.930 . S
H480 C490 0.930 . S
H481 C491 0.930 . S
C482 H476 0.930 . S
C482 C483 1.355 . S
C482 C484 1.415 . S
C483 C482 1.355 . S
C483 C485 1.419 . S
C484 C482 1.415 . S
C484 C489 1.425 . S
C484 C491 1.409 . S
C485 H477 0.930 . S
C485 C483 1.419 . S
C485 C486 1.362 . S
C486 H478 0.930 . S
C486 C485 1.362 . S
C486 C489 1.409 . S
C487 H479 0.930 . S
C487 C488 1.355 . S
C487 C489 1.415 . S
C488 C487 1.355 . S
C488 C490 1.419 . S
C489 C484 1.425 . S
C489 C486 1.409 . S
C489 C487 1.415 . S
C490 H480 0.930 . S
C490 C488 1.419 . S
C490 C491 1.362 . S
C491 H481 0.930 . S
C491 C484 1.409 . S
C491 C490 1.362 . S
H492 C498 0.930 . S
H493 C501 0.930 . S
H494 C502 0.930 . S
H495 C503 0.930 . S
H496 C506 0.930 . S
H497 C507 0.930 . S
C498 H492 0.930 . S
C498 C499 1.355 . S
C498 C500 1.415 . S
C499 C498 1.355 . S
C499 C501 1.419 . S
C500 C498 1.415 . S
C500 C505 1.425 1_455 S
C500 C507 1.409 . S
C501 H493 0.930 . S
C501 C499 1.419 . S
C501 C502 1.362 1_455 S
C502 H494 0.930 . S
C502 C501 1.362 1_655 S
C502 C505 1.409 . S
C503 H495 0.930 . S
C503 C504 1.355 . S
C503 C505 1.415 . S
C504 C503 1.355 . S
C504 C506 1.419 . S
C505 C500 1.425 1_655 S
C505 C502 1.409 . S
C505 C503 1.415 . S
C506 H496 0.930 . S
C506 C504 1.419 . S
C506 C507 1.362 1_655 S
C507 H497 0.930 . S
C507 C500 1.409 . S
C507 C506 1.362 1_455 S
H508 C514 0.930 . S
H509 C517 0.930 . S
H510 C518 0.930 . S
H511 C519 0.930 . S
H512 C522 0.930 . S
H513 C523 0.930 . S
C514 H508 0.930 . S
C514 C515 1.355 . S
C514 C516 1.415 . S
C515 C514 1.355 . S
C515 C517 1.419 . S
C516 C514 1.415 . S
C516 C521 1.425 . S
C516 C523 1.409 . S
C517 H509 0.930 . S
C517 C515 1.419 . S
C517 C518 1.362 . S
C518 H510 0.930 . S
C518 C517 1.362 . S
C518 C521 1.409 . S
C519 H511 0.930 . S
C519 C520 1.355 . S
C519 C521 1.415 . S
C520 C519 1.355 . S
C520 C522 1.419 . S
C521 C516 1.425 . S
C521 C518 1.409 . S
C521 C519 1.415 . S
C522 H512 0.930 . S
C522 C520 1.419 . S
C522 C523 1.362 . S
C523 H513 0.930 . S
C523 C516 1.409 . S
C523 C522 1.362 . S
H524 C530 0.930 . S
H525 C533 0.930 . S
H526 C534 0.929 . S
H527 C535 0.930 . S
H528 C538 0.930 . S
H529 C539 0.927 . S
C530 H524 0.930 . S
C530 C531 1.355 . S
C530 C532 1.415 . S
C531 C530 1.355 . S
C531 C533 1.419 . S
C532 C530 1.415 . S
C532 C537 1.425 1_545 S
C532 C539 1.411 . S
C533 H525 0.930 . S
C533 C531 1.419 . S
C533 C534 1.363 1_545 S
C534 H526 0.929 . S
C534 C533 1.363 1_565 S
C534 C537 1.410 . S
C535 H527 0.930 . S
C535 C536 1.355 . S
C535 C537 1.415 . S
C536 C535 1.355 . S
C536 C538 1.419 . S
C537 C532 1.425 1_565 S
C537 C534 1.410 . S
C537 C535 1.415 . S
C538 H528 0.930 . S
C538 C536 1.419 . S
C538 C539 1.364 1_565 S
C539 H529 0.927 . S
C539 C532 1.411 . S
C539 C538 1.364 1_545 S
H540 C546 0.930 . S
H541 C549 0.930 . S
H542 C550 0.930 . S
H543 C551 0.961 . S
H544 C554 0.930 . S
H545 C555 0.930 . S
C546 H540 0.930 . S
C546 C547 1.355 1_556 S
C546 C548 1.415 . S
C547 C546 1.355 1_554 S
C547 C549 1.419 . S
C548 C546 1.415 . S
C548 C553 1.425 1_556 S
C548 C555 1.409 . S
C549 H541 0.930 . S
C549 C547 1.419 . S
C549 C550 1.362 . S
C550 H542 0.930 . S
C550 C549 1.362 . S
C550 C553 1.409 . S
C551 H543 0.961 . S
C551 C552 1.313 1_554 S
C551 C553 1.427 . S
C552 C551 1.313 1_556 S
C552 C554 1.419 . S
C553 C548 1.425 1_554 S
C553 C550 1.409 . S
C553 C551 1.427 . S
C554 H544 0.930 . S
C554 C552 1.419 . S
C554 C555 1.362 . S
C555 H545 0.930 . S
C555 C548 1.409 . S
C555 C554 1.362 . S
H556 C562 0.930 . S
H557 C565 0.930 . S
H558 C566 0.930 . S
H559 C567 0.930 . S
H560 C570 0.930 . S
H561 C571 0.930 . S
C562 H556 0.930 . S
C562 C563 1.355 . S
C562 C564 1.415 . S
C563 C562 1.355 . S
C563 C565 1.419 . S
C564 C562 1.415 . S
C564 C569 1.425 1_554 S
C564 C571 1.409 . S
C565 H557 0.930 . S
C565 C563 1.419 . S
C565 C566 1.362 1_554 S
C566 H558 0.930 . S
C566 C565 1.362 1_556 S
C566 C569 1.409 . S
C567 H559 0.930 . S
C567 C568 1.355 . S
C567 C569 1.415 . S
C568 C567 1.355 . S
C568 C570 1.419 . S
C569 C564 1.425 1_556 S
C569 C566 1.409 . S
C569 C567 1.415 . S
C570 H560 0.930 . S
C570 C568 1.419 . S
C570 C571 1.362 1_556 S
C571 H561 0.930 . S
C571 C564 1.409 . S
C571 C570 1.362 1_554 S
H572 C578 0.930 . S
H573 C581 0.930 . S
H574 C582 0.930 . S
H575 C583 0.930 . S
H576 C586 0.930 . S
H577 C587 0.930 . S
C578 H572 0.930 . S
C578 C579 1.355 . S
C578 C580 1.415 . S
C579 C578 1.355 . S
C579 C581 1.419 . S
C580 C578 1.415 . S
C580 C585 1.425 1_554 S
C580 C587 1.409 . S
C581 H573 0.930 . S
C581 C579 1.419 . S
C581 C582 1.362 1_554 S
C582 H574 0.930 . S
C582 C581 1.362 1_556 S
C582 C585 1.409 . S
C583 H575 0.930 . S
C583 C584 1.355 . S
C583 C585 1.415 . S
C584 C583 1.355 . S
C584 C586 1.419 . S
C585 C580 1.425 1_556 S
C585 C582 1.409 . S
C585 C583 1.415 . S
C586 H576 0.930 . S
C586 C584 1.419 . S
C586 C587 1.362 1_556 S
C587 H577 0.930 . S
C587 C580 1.409 . S
C587 C586 1.362 1_554 S
H588 C594 0.930 . S
H589 C597 0.930 . S
H590 C598 0.930 . S
H591 C599 0.930 . S
H592 C602 0.930 . S
H593 C603 0.930 . S
C594 H588 0.930 . S
C594 C595 1.355 1_554 S
C594 C596 1.415 . S
C595 C594 1.355 1_556 S
C595 C597 1.419 . S
C596 C594 1.415 . S
C596 C601 1.425 1_554 S
C596 C603 1.409 . S
C597 H589 0.930 . S
C597 C595 1.419 . S
C597 C598 1.362 . S
C598 H590 0.930 . S
C598 C597 1.362 . S
C598 C601 1.409 . S
C599 H591 0.930 . S
C599 C600 1.355 1_556 S
C599 C601 1.415 . S
C600 C599 1.355 1_554 S
C600 C602 1.419 . S
C601 C596 1.425 1_556 S
C601 C598 1.409 . S
C601 C599 1.415 . S
C602 H592 0.930 . S
C602 C600 1.419 . S
C602 C603 1.362 . S
C603 H593 0.930 . S
C603 C596 1.409 . S
C603 C602 1.362 . S
H604 C610 0.930 . S
H605 C613 0.930 . S
H606 C614 0.930 . S
H607 C615 0.930 . S
H608 C618 0.930 . S
H609 C619 0.930 . S
C610 H604 0.930 . S
C610 C611 1.355 . S
C610 C612 1.415 . S
C611 C610 1.355 . S
C611 C613 1.419 1_554 S
C612 C610 1.415 . S
C612 C617 1.425 1_554 S
C612 C619 1.409 . S
C613 H605 0.930 . S
C613 C611 1.419 1_556 S
C613 C614 1.362 . S
C614 H606 0.930 . S
C614 C613 1.362 . S
C614 C617 1.409 . S
C615 H607 0.930 . S
C615 C616 1.355 . S
C615 C617 1.415 . S
C616 C615 1.355 . S
C616 C618 1.419 1_556 S
C617 C612 1.425 1_556 S
C617 C614 1.409 . S
C617 C615 1.415 . S
C618 H608 0.930 . S
C618 C616 1.419 1_554 S
C618 C619 1.362 . S
C619 H609 0.930 . S
C619 C612 1.409 . S
C619 C618 1.362 . S
H620 C626 0.930 . S
H621 C629 0.930 . S
H622 C630 0.930 . S
H623 C631 0.930 . S
H624 C634 0.930 . S
H625 C635 0.930 . S
C626 H620 0.930 . S
C626 C627 1.355 . S
C626 C628 1.415 . S
C627 C626 1.355 . S
C627 C629 1.419 . S
C628 C626 1.415 . S
C628 C633 1.425 1_556 S
C628 C635 1.409 . S
C629 H621 0.930 . S
C629 C627 1.419 . S
C629 C630 1.362 1_556 S
C630 H622 0.930 . S
C630 C629 1.362 1_554 S
C630 C633 1.409 . S
C631 H623 0.930 . S
C631 C632 1.355 . S
C631 C633 1.415 . S
C632 C631 1.355 . S
C632 C634 1.419 . S
C633 C628 1.425 1_554 S
C633 C630 1.409 . S
C633 C631 1.415 . S
C634 H624 0.930 . S
C634 C632 1.419 . S
C634 C635 1.362 1_554 S
C635 H625 0.930 . S
C635 C628 1.409 . S
C635 C634 1.362 1_556 S
H636 C642 0.930 . S
H637 C645 0.930 . S
H638 C646 0.930 . S
H639 C647 0.930 . S
H640 C650 0.930 . S
H641 C651 0.930 . S
C642 H636 0.930 . S
C642 C643 1.355 . S
C642 C644 1.415 . S
C643 C642 1.355 . S
C643 C645 1.419 . S
C644 C642 1.415 . S
C644 C649 1.425 . S
C644 C651 1.409 . S
C645 H637 0.930 . S
C645 C643 1.419 . S
C645 C646 1.362 . S
C646 H638 0.930 . S
C646 C645 1.362 . S
C646 C649 1.409 . S
C647 H639 0.930 . S
C647 C648 1.355 . S
C647 C649 1.415 . S
C648 C647 1.355 . S
C648 C650 1.419 . S
C649 C644 1.425 . S
C649 C646 1.409 . S
C649 C647 1.415 . S
C650 H640 0.930 . S
C650 C648 1.419 . S
C650 C651 1.362 . S
C651 H641 0.930 . S
C651 C644 1.409 . S
C651 C650 1.362 . S
H652 C658 0.930 . S
H653 C661 0.930 . S
H654 C662 0.930 . S
H655 C663 0.930 . S
H656 C666 0.930 . S
H657 C667 0.930 . S
C658 H652 0.930 . S
C658 C659 1.355 . S
C658 C660 1.415 . S
C659 C658 1.355 . S
C659 C661 1.419 . S
C660 C658 1.415 . S
C660 C665 1.425 . S
C660 C667 1.409 . S
C661 H653 0.930 . S
C661 C659 1.419 . S
C661 C662 1.362 . S
C662 H654 0.930 . S
C662 C661 1.362 . S
C662 C665 1.409 . S
C663 H655 0.930 . S
C663 C664 1.355 . S
C663 C665 1.415 . S
C664 C663 1.355 . S
C664 C666 1.419 . S
C665 C660 1.425 . S
C665 C662 1.409 . S
C665 C663 1.415 . S
C666 H656 0.930 . S
C666 C664 1.419 . S
C666 C667 1.362 . S
C667 H657 0.930 . S
C667 C660 1.409 . S
C667 C666 1.362 . S
H668 C674 0.930 . S
H669 C677 0.930 . S
H670 C678 0.930 . S
H671 C679 0.930 . S
H672 C682 0.930 . S
H673 C683 0.930 . S
C674 H668 0.930 . S
C674 C675 1.355 . S
C674 C676 1.415 . S
C675 C674 1.355 . S
C675 C677 1.419 . S
C676 C674 1.415 . S
C676 C681 1.425 . S
C676 C683 1.409 . S
C677 H669 0.930 . S
C677 C675 1.419 . S
C677 C678 1.362 . S
C678 H670 0.930 . S
C678 C677 1.362 . S
C678 C681 1.409 . S
C679 H671 0.930 . S
C679 C680 1.355 . S
C679 C681 1.415 . S
C680 C679 1.355 . S
C680 C682 1.419 . S
C681 C676 1.425 . S
C681 C678 1.409 . S
C681 C679 1.415 . S
C682 H672 0.930 . S
C682 C680 1.419 . S
C682 C683 1.362 . S
C683 H673 0.930 . S
C683 C676 1.409 . S
C683 C682 1.362 . S
H684 C690 0.930 . S
H685 C693 0.930 . S
H686 C694 0.930 . S
H687 C695 0.930 . S
H688 C698 0.930 . S
H689 C699 0.930 . S
C690 H684 0.930 . S
C690 C691 1.355 . S
C690 C692 1.415 . S
C691 C690 1.355 . S
C691 C693 1.419 . S
C692 C690 1.415 . S
C692 C697 1.425 . S
C692 C699 1.409 . S
C693 H685 0.930 . S
C693 C691 1.419 . S
C693 C694 1.362 . S
C694 H686 0.930 . S
C694 C693 1.362 . S
C694 C697 1.409 . S
C695 H687 0.930 . S
C695 C696 1.355 . S
C695 C697 1.415 . S
C696 C695 1.355 . S
C696 C698 1.419 . S
C697 C692 1.425 . S
C697 C694 1.409 . S
C697 C695 1.415 . S
C698 H688 0.930 . S
C698 C696 1.419 . S
C698 C699 1.362 . S
C699 H689 0.930 . S
C699 C692 1.409 . S
C699 C698 1.362 . S
H700 C706 0.930 . S
H701 C709 0.930 . S
H702 C710 0.930 1_565 S
H703 C711 0.930 1_565 S
H704 C714 0.930 . S
H705 C715 0.930 . S
C706 H700 0.930 . S
C706 C707 1.355 . S
C706 C708 1.415 . S
C707 C706 1.355 . S
C707 C709 1.419 . S
C708 C706 1.415 . S
C708 C713 1.425 . S
C708 C715 1.409 . S
C709 H701 0.930 . S
C709 C707 1.419 . S
C709 C710 1.362 . S
C710 H702 0.930 1_545 S
C710 C709 1.362 . S
C710 C713 1.409 . S
C711 H703 0.930 1_545 S
C711 C712 1.355 . S
C711 C713 1.415 . S
C712 C711 1.355 . S
C712 C714 1.419 . S
C713 C708 1.425 . S
C713 C710 1.409 . S
C713 C711 1.415 . S
C714 H704 0.930 . S
C714 C712 1.419 . S
C714 C715 1.362 . S
C715 H705 0.930 . S
C715 C708 1.409 . S
C715 C714 1.362 . S
H716 C722 0.930 1_455 S
H717 C725 0.930 . S
H718 C726 0.930 . S
H719 C727 0.930 . S
H720 C730 0.930 . S
H721 C731 0.930 . S
C722 H716 0.930 1_655 S
C722 C723 1.355 . S
C722 C724 1.415 . S
C723 C722 1.355 . S
C723 C725 1.419 . S
C724 C722 1.415 . S
C724 C729 1.425 . S
C724 C731 1.409 1_655 S
C725 H717 0.930 . S
C725 C723 1.419 . S
C725 C726 1.362 . S
C726 H718 0.930 . S
C726 C725 1.362 . S
C726 C729 1.409 . S
C727 H719 0.930 . S
C727 C728 1.355 . S
C727 C729 1.415 . S
C728 C727 1.355 . S
C728 C730 1.419 1_655 S
C729 C724 1.425 . S
C729 C726 1.409 . S
C729 C727 1.415 . S
C730 H720 0.930 . S
C730 C728 1.419 1_455 S
C730 C731 1.362 . S
C731 H721 0.930 . S
C731 C724 1.409 1_455 S
C731 C730 1.362 . S
H732 C738 0.930 . S
H733 C741 0.930 . S
H734 C742 0.930 . S
H735 C743 0.930 . S
H736 C746 0.930 . S
H737 C747 0.930 . S
C738 H732 0.930 . S
C738 C739 1.355 . S
C738 C740 1.415 . S
C739 C738 1.355 . S
C739 C741 1.419 . S
C740 C738 1.415 . S
C740 C745 1.425 . S
C740 C747 1.409 . S
C741 H733 0.930 . S
C741 C739 1.419 . S
C741 C742 1.362 . S
C742 H734 0.930 . S
C742 C741 1.362 . S
C742 C745 1.409 . S
C743 H735 0.930 . S
C743 C744 1.355 . S
C743 C745 1.415 . S
C744 C743 1.355 . S
C744 C746 1.419 . S
C745 C740 1.425 . S
C745 C742 1.409 . S
C745 C743 1.415 . S
C746 H736 0.930 . S
C746 C744 1.419 . S
C746 C747 1.362 . S
C747 H737 0.930 . S
C747 C740 1.409 . S
C747 C746 1.362 . S
H748 C754 0.930 . S
H749 C757 0.930 . S
H750 C758 0.930 . S
H751 C759 0.930 . S
H752 C762 0.930 . S
H753 C763 0.930 . S
C754 H748 0.930 . S
C754 C755 1.355 . S
C754 C756 1.415 . S
C755 C754 1.355 . S
C755 C757 1.419 . S
C756 C754 1.415 . S
C756 C761 1.425 . S
C756 C763 1.409 . S
C757 H749 0.930 . S
C757 C755 1.419 . S
C757 C758 1.362 . S
C758 H750 0.930 . S
C758 C757 1.362 . S
C758 C761 1.409 . S
C759 H751 0.930 . S
C759 C760 1.355 . S
C759 C761 1.415 . S
C760 C759 1.355 . S
C760 C762 1.419 . S
C761 C756 1.425 . S
C761 C758 1.409 . S
C761 C759 1.415 . S
C762 H752 0.930 . S
C762 C760 1.419 . S
C762 C763 1.362 . S
C763 H753 0.930 . S
C763 C756 1.409 . S
C763 C762 1.362 . S
H764 C770 0.930 . S
H765 C773 0.930 . S
H766 C774 0.930 . S
H767 C775 0.930 . S
H768 C778 0.930 . S
H769 C779 0.930 . S
C770 H764 0.930 . S
C770 C771 1.355 . S
C770 C772 1.415 . S
C771 C770 1.355 . S
C771 C773 1.419 . S
C772 C770 1.415 . S
C772 C777 1.425 . S
C772 C779 1.409 . S
C773 H765 0.930 . S
C773 C771 1.419 . S
C773 C774 1.362 . S
C774 H766 0.930 . S
C774 C773 1.362 . S
C774 C777 1.409 . S
C775 H767 0.930 . S
C775 C776 1.355 . S
C775 C777 1.415 . S
C776 C775 1.355 . S
C776 C778 1.419 . S
C777 C772 1.425 . S
C777 C774 1.409 . S
C777 C775 1.415 . S
C778 H768 0.930 . S
C778 C776 1.419 . S
C778 C779 1.362 . S
C779 H769 0.930 . S
C779 C772 1.409 . S
C779 C778 1.362 . S
H780 C786 0.930 . S
H781 C789 0.930 . S
H782 C790 0.930 . S
H783 C791 0.930 . S
H784 C794 0.930 . S
H785 C795 0.930 . S
C786 H780 0.930 . S
C786 C787 1.355 . S
C786 C788 1.415 . S
C787 C786 1.355 . S
C787 C789 1.419 . S
C788 C786 1.415 . S
C788 C793 1.425 . S
C788 C795 1.409 . S
C789 H781 0.930 . S
C789 C787 1.419 . S
C789 C790 1.362 . S
C790 H782 0.930 . S
C790 C789 1.362 . S
C790 C793 1.409 . S
C791 H783 0.930 . S
C791 C792 1.355 . S
C791 C793 1.415 . S
C792 C791 1.355 . S
C792 C794 1.419 . S
C793 C788 1.425 . S
C793 C790 1.409 . S
C793 C791 1.415 . S
C794 H784 0.930 . S
C794 C792 1.419 . S
C794 C795 1.362 . S
C795 H785 0.930 . S
C795 C788 1.409 . S
C795 C794 1.362 . S
H796 C802 0.930 . S
H797 C805 0.930 . S
H798 C806 0.930 . S
H799 C807 0.930 . S
H800 C810 0.930 . S
H801 C811 0.930 . S
C802 H796 0.930 . S
C802 C803 1.355 . S
C802 C804 1.415 . S
C803 C802 1.355 . S
C803 C805 1.419 . S
C804 C802 1.415 . S
C804 C809 1.425 . S
C804 C811 1.409 . S
C805 H797 0.930 . S
C805 C803 1.419 . S
C805 C806 1.362 . S
C806 H798 0.930 . S
C806 C805 1.362 . S
C806 C809 1.409 . S
C807 H799 0.930 . S
C807 C808 1.355 . S
C807 C809 1.415 . S
C808 C807 1.355 . S
C808 C810 1.419 . S
C809 C804 1.425 . S
C809 C806 1.409 . S
C809 C807 1.415 . S
C810 H800 0.930 . S
C810 C808 1.419 . S
C810 C811 1.362 . S
C811 H801 0.930 . S
C811 C804 1.409 . S
C811 C810 1.362 . S
H812 C818 0.930 . S
H813 C821 0.930 . S
H814 C822 0.930 . S
H815 C823 0.930 . S
H816 C826 0.930 . S
H817 C827 0.930 . S
C818 H812 0.930 . S
C818 C819 1.355 . S
C818 C820 1.415 . S
C819 C818 1.355 . S
C819 C821 1.419 . S
C820 C818 1.415 . S
C820 C825 1.425 . S
C820 C827 1.409 . S
C821 H813 0.930 . S
C821 C819 1.419 . S
C821 C822 1.362 . S
C822 H814 0.930 . S
C822 C821 1.362 . S
C822 C825 1.409 . S
C823 H815 0.930 . S
C823 C824 1.355 . S
C823 C825 1.415 . S
C824 C823 1.355 . S
C824 C826 1.419 . S
C825 C820 1.425 . S
C825 C822 1.409 . S
C825 C823 1.415 . S
C826 H816 0.930 . S
C826 C824 1.419 . S
C826 C827 1.362 . S
C827 H817 0.930 . S
C827 C820 1.409 . S
C827 C826 1.362 . S
C259 C7 1.835 . S
C264 C49 1.835 . S
C275 C21 1.863 . S
C280 C63 1.863 . S
C291 C77 1.867 . S
C296 C35 1.867 . S
C307 C91 1.847 . S
C312 C133 1.847 . S
C323 C105 1.835 . S
C328 C147 1.835 . S
C339 C161 1.832 . S
C344 C119 1.833 . S
C355 C217 1.791 . S
C360 C175 1.792 . S
C371 C231 1.810 . S
C376 C189 1.809 . S
C387 C245 1.808 . S
C392 C203 1.805 . S
C403 C6 1.454 . S
C408 C132 1.453 . S
C419 C20 1.510 . S
C424 C146 1.510 . S
C435 C160 1.501 . S
C440 C34 1.500 . S
C451 C48 1.438 . S
C456 C174 1.437 . S
C467 C62 1.484 . S
C472 C188 1.484 . S
C483 C76 1.480 . S
C488 C202 1.481 . S
C499 C90 1.460 . S
C504 C216 1.462 . S
C515 C104 1.462 . S
C520 C230 1.462 . S
C531 C244 1.467 . S
C536 C118 1.464 . S
C547 C9 1.015 . S
C552 C64 0.953 . S
C563 C23 0.963 . S
C568 C78 0.985 . S
C579 C37 0.998 . S
C584 C50 1.010 . S
C595 C51 0.995 . S
C600 C22 0.963 . S
C611 C36 1.015 . S
C616 C65 0.956 . S
C627 C79 1.015 . S
C632 C8 0.990 . S
C643 C93 1.027 . S
C648 C148 1.079 . S
C659 C162 1.018 . S
C664 C107 0.961 . S
C675 C134 1.010 . S
C680 C121 1.076 . S
C691 C106 0.967 . S
C696 C135 1.025 . S
C707 C149 0.970 . S
C712 C120 1.028 . S
C723 C163 0.992 . S
C728 C92 0.943 . S
C739 C232 1.026 . S
C744 C177 0.966 . S
C755 C246 1.029 . S
C760 C191 0.992 . S
C771 C205 0.924 . S
C776 C218 0.991 . S
C787 C190 1.050 . S
C792 C219 1.073 . S
C803 C204 1.006 . S
C808 C233 0.952 . S
C819 C176 1.029 . S
C824 C247 1.037 . S
