# Generated by pormake.
# Topology uns, (4)-cn, num edge types: 1
# Building blocks:
#     Node 0, Type 0, BuildingBlock: KOZSID_clean_sbu_0, # of connection points: 4
#     Node 1, Type 0, BuildingBlock: KOZSID_clean_sbu_0, # of connection points: 4
#     Node 2, Type 0, BuildingBlock: KOZSID_clean_sbu_0, # of connection points: 4
#     Node 3, Type 0, BuildingBlock: KOZSID_clean_sbu_0, # of connection points: 4
#     Node 4, Type 0, BuildingBlock: KOZSID_clean_sbu_0, # of connection points: 4
#     Node 5, Type 0, BuildingBlock: KOZSID_clean_sbu_0, # of connection points: 4
#     Node 6, Type 0, BuildingBlock: KOZSID_clean_sbu_0, # of connection points: 4
#     Node 7, Type 0, BuildingBlock: KOZSID_clean_sbu_0, # of connection points: 4
#     Node 8, Type 0, BuildingBlock: KOZSID_clean_sbu_0, # of connection points: 4
#     Node 9, Type 0, BuildingBlock: KOZSID_clean_sbu_0, # of connection points: 4
#     Node 10, Type 0, BuildingBlock: KOZSID_clean_sbu_0, # of connection points: 4
#     Node 11, Type 0, BuildingBlock: KOZSID_clean_sbu_0, # of connection points: 4
#     Node 12, Type 0, BuildingBlock: KOZSID_clean_sbu_0, # of connection points: 4
#     Node 13, Type 0, BuildingBlock: KOZSID_clean_sbu_0, # of connection points: 4
#     Node 14, Type 0, BuildingBlock: KOZSID_clean_sbu_0, # of connection points: 4
#     Node 15, Type 0, BuildingBlock: KOZSID_clean_sbu_0, # of connection points: 4
#     Node 16, Type 0, BuildingBlock: KOZSID_clean_sbu_0, # of connection points: 4
#     Node 17, Type 0, BuildingBlock: KOZSID_clean_sbu_0, # of connection points: 4
#     Node 18, Type 0, BuildingBlock: KOZSID_clean_sbu_0, # of connection points: 4
#     Node 19, Type 0, BuildingBlock: KOZSID_clean_sbu_0, # of connection points: 4
#     Node 20, Type 0, BuildingBlock: KOZSID_clean_sbu_0, # of connection points: 4
#     Node 21, Type 0, BuildingBlock: KOZSID_clean_sbu_0, # of connection points: 4
#     Node 22, Type 0, BuildingBlock: KOZSID_clean_sbu_0, # of connection points: 4
#     Node 23, Type 0, BuildingBlock: KOZSID_clean_sbu_0, # of connection points: 4
#     Node 24, Type 0, BuildingBlock: KOZSID_clean_sbu_0, # of connection points: 4
#     Node 25, Type 0, BuildingBlock: KOZSID_clean_sbu_0, # of connection points: 4
#     Node 26, Type 0, BuildingBlock: KOZSID_clean_sbu_0, # of connection points: 4
#     Node 27, Type 0, BuildingBlock: KOZSID_clean_sbu_0, # of connection points: 4
#     Node 28, Type 0, BuildingBlock: KOZSID_clean_sbu_0, # of connection points: 4
#     Node 29, Type 0, BuildingBlock: KOZSID_clean_sbu_0, # of connection points: 4
#     Node 30, Type 0, BuildingBlock: KOZSID_clean_sbu_0, # of connection points: 4
#     Node 31, Type 0, BuildingBlock: KOZSID_clean_sbu_0, # of connection points: 4
#     Node 32, Type 0, BuildingBlock: KOZSID_clean_sbu_0, # of connection points: 4
#     Node 33, Type 0, BuildingBlock: KOZSID_clean_sbu_0, # of connection points: 4
#     Node 34, Type 0, BuildingBlock: KOZSID_clean_sbu_0, # of connection points: 4
#     Node 35, Type 0, BuildingBlock: KOZSID_clean_sbu_0, # of connection points: 4
#     Edge 36, Type (0, 0), BuildingBlock: KIFKEQ_clean_linker_1, # of connection points: 2
#     Edge 37, Type (0, 0), BuildingBlock: KIFKEQ_clean_linker_1, # of connection points: 2
#     Edge 38, Type (0, 0), BuildingBlock: KIFKEQ_clean_linker_1, # of connection points: 2
#     Edge 39, Type (0, 0), BuildingBlock: KIFKEQ_clean_linker_1, # of connection points: 2
#     Edge 40, Type (0, 0), BuildingBlock: KIFKEQ_clean_linker_1, # of connection points: 2
#     Edge 41, Type (0, 0), BuildingBlock: KIFKEQ_clean_linker_1, # of connection points: 2
#     Edge 42, Type (0, 0), BuildingBlock: KIFKEQ_clean_linker_1, # of connection points: 2
#     Edge 43, Type (0, 0), BuildingBlock: KIFKEQ_clean_linker_1, # of connection points: 2
#     Edge 44, Type (0, 0), BuildingBlock: KIFKEQ_clean_linker_1, # of connection points: 2
#     Edge 45, Type (0, 0), BuildingBlock: KIFKEQ_clean_linker_1, # of connection points: 2
#     Edge 46, Type (0, 0), BuildingBlock: KIFKEQ_clean_linker_1, # of connection points: 2
#     Edge 47, Type (0, 0), BuildingBlock: KIFKEQ_clean_linker_1, # of connection points: 2
#     Edge 48, Type (0, 0), BuildingBlock: KIFKEQ_clean_linker_1, # of connection points: 2
#     Edge 49, Type (0, 0), BuildingBlock: KIFKEQ_clean_linker_1, # of connection points: 2
#     Edge 50, Type (0, 0), BuildingBlock: KIFKEQ_clean_linker_1, # of connection points: 2
#     Edge 51, Type (0, 0), BuildingBlock: KIFKEQ_clean_linker_1, # of connection points: 2
#     Edge 52, Type (0, 0), BuildingBlock: KIFKEQ_clean_linker_1, # of connection points: 2
#     Edge 53, Type (0, 0), BuildingBlock: KIFKEQ_clean_linker_1, # of connection points: 2
#     Edge 54, Type (0, 0), BuildingBlock: KIFKEQ_clean_linker_1, # of connection points: 2
#     Edge 55, Type (0, 0), BuildingBlock: KIFKEQ_clean_linker_1, # of connection points: 2
#     Edge 56, Type (0, 0), BuildingBlock: KIFKEQ_clean_linker_1, # of connection points: 2
#     Edge 57, Type (0, 0), BuildingBlock: KIFKEQ_clean_linker_1, # of connection points: 2
#     Edge 58, Type (0, 0), BuildingBlock: KIFKEQ_clean_linker_1, # of connection points: 2
#     Edge 59, Type (0, 0), BuildingBlock: KIFKEQ_clean_linker_1, # of connection points: 2
#     Edge 60, Type (0, 0), BuildingBlock: KIFKEQ_clean_linker_1, # of connection points: 2
#     Edge 61, Type (0, 0), BuildingBlock: KIFKEQ_clean_linker_1, # of connection points: 2
#     Edge 62, Type (0, 0), BuildingBlock: KIFKEQ_clean_linker_1, # of connection points: 2
#     Edge 63, Type (0, 0), BuildingBlock: KIFKEQ_clean_linker_1, # of connection points: 2
#     Edge 64, Type (0, 0), BuildingBlock: KIFKEQ_clean_linker_1, # of connection points: 2
#     Edge 65, Type (0, 0), BuildingBlock: KIFKEQ_clean_linker_1, # of connection points: 2
#     Edge 66, Type (0, 0), BuildingBlock: KIFKEQ_clean_linker_1, # of connection points: 2
#     Edge 67, Type (0, 0), BuildingBlock: KIFKEQ_clean_linker_1, # of connection points: 2
#     Edge 68, Type (0, 0), BuildingBlock: KIFKEQ_clean_linker_1, # of connection points: 2
#     Edge 69, Type (0, 0), BuildingBlock: KIFKEQ_clean_linker_1, # of connection points: 2
#     Edge 70, Type (0, 0), BuildingBlock: KIFKEQ_clean_linker_1, # of connection points: 2
#     Edge 71, Type (0, 0), BuildingBlock: KIFKEQ_clean_linker_1, # of connection points: 2
#     Edge 72, Type (0, 0), BuildingBlock: KIFKEQ_clean_linker_1, # of connection points: 2
#     Edge 73, Type (0, 0), BuildingBlock: KIFKEQ_clean_linker_1, # of connection points: 2
#     Edge 74, Type (0, 0), BuildingBlock: KIFKEQ_clean_linker_1, # of connection points: 2
#     Edge 75, Type (0, 0), BuildingBlock: KIFKEQ_clean_linker_1, # of connection points: 2
#     Edge 76, Type (0, 0), BuildingBlock: KIFKEQ_clean_linker_1, # of connection points: 2
#     Edge 77, Type (0, 0), BuildingBlock: KIFKEQ_clean_linker_1, # of connection points: 2
#     Edge 78, Type (0, 0), BuildingBlock: KIFKEQ_clean_linker_1, # of connection points: 2
#     Edge 79, Type (0, 0), BuildingBlock: KIFKEQ_clean_linker_1, # of connection points: 2
#     Edge 80, Type (0, 0), BuildingBlock: KIFKEQ_clean_linker_1, # of connection points: 2
#     Edge 81, Type (0, 0), BuildingBlock: KIFKEQ_clean_linker_1, # of connection points: 2
#     Edge 82, Type (0, 0), BuildingBlock: KIFKEQ_clean_linker_1, # of connection points: 2
#     Edge 83, Type (0, 0), BuildingBlock: KIFKEQ_clean_linker_1, # of connection points: 2
#     Edge 84, Type (0, 0), BuildingBlock: KIFKEQ_clean_linker_1, # of connection points: 2
#     Edge 85, Type (0, 0), BuildingBlock: KIFKEQ_clean_linker_1, # of connection points: 2
#     Edge 86, Type (0, 0), BuildingBlock: KIFKEQ_clean_linker_1, # of connection points: 2
#     Edge 87, Type (0, 0), BuildingBlock: KIFKEQ_clean_linker_1, # of connection points: 2
#     Edge 88, Type (0, 0), BuildingBlock: KIFKEQ_clean_linker_1, # of connection points: 2
#     Edge 89, Type (0, 0), BuildingBlock: KIFKEQ_clean_linker_1, # of connection points: 2
#     Edge 90, Type (0, 0), BuildingBlock: KIFKEQ_clean_linker_1, # of connection points: 2
#     Edge 91, Type (0, 0), BuildingBlock: KIFKEQ_clean_linker_1, # of connection points: 2
#     Edge 92, Type (0, 0), BuildingBlock: KIFKEQ_clean_linker_1, # of connection points: 2
#     Edge 93, Type (0, 0), BuildingBlock: KIFKEQ_clean_linker_1, # of connection points: 2
#     Edge 94, Type (0, 0), BuildingBlock: KIFKEQ_clean_linker_1, # of connection points: 2
#     Edge 95, Type (0, 0), BuildingBlock: KIFKEQ_clean_linker_1, # of connection points: 2
#     Edge 96, Type (0, 0), BuildingBlock: KIFKEQ_clean_linker_1, # of connection points: 2
#     Edge 97, Type (0, 0), BuildingBlock: KIFKEQ_clean_linker_1, # of connection points: 2
#     Edge 98, Type (0, 0), BuildingBlock: KIFKEQ_clean_linker_1, # of connection points: 2
#     Edge 99, Type (0, 0), BuildingBlock: KIFKEQ_clean_linker_1, # of connection points: 2
#     Edge 100, Type (0, 0), BuildingBlock: KIFKEQ_clean_linker_1, # of connection points: 2
#     Edge 101, Type (0, 0), BuildingBlock: KIFKEQ_clean_linker_1, # of connection points: 2
#     Edge 102, Type (0, 0), BuildingBlock: KIFKEQ_clean_linker_1, # of connection points: 2
#     Edge 103, Type (0, 0), BuildingBlock: KIFKEQ_clean_linker_1, # of connection points: 2
#     Edge 104, Type (0, 0), BuildingBlock: KIFKEQ_clean_linker_1, # of connection points: 2
#     Edge 105, Type (0, 0), BuildingBlock: KIFKEQ_clean_linker_1, # of connection points: 2
#     Edge 106, Type (0, 0), BuildingBlock: KIFKEQ_clean_linker_1, # of connection points: 2
#     Edge 107, Type (0, 0), BuildingBlock: KIFKEQ_clean_linker_1, # of connection points: 2
# Relax obj value: 0.013
# Max RMSD: 0.148
# Mean RMSD: 0.124
data_MOF--net-uns--node1-KOZSID_clean_sbu_0--edge1-KIFKEQ_clean_linker_1
_symmetry_space_group_name_H-M    P1
_symmetry_Int_Tables_number       1
_symmetry_cell_setting            triclinic
loop_
_symmetry_equiv_pos_as_xyz
'x, y, z'
_cell_length_a     77.070365
_cell_length_b     78.815194
_cell_length_c     37.313255
_cell_angle_alpha  85.009455
_cell_angle_beta   89.995997
_cell_angle_gamma 119.33998
loop_
_atom_site_label
_atom_site_type_symbol
_atom_site_fract_x
_atom_site_fract_y
_atom_site_fract_z
_atom_type_partial_charge
C0 C 0.24282 0.20451 0.01383 0.0
C1 C 0.24228 0.20665 0.9766 0.0
C2 C 0.25715 0.20396 0.96291 0.0
C3 C 0.26602 0.2005 0.99239 0.0
N4 N 0.25778 0.20095 0.02385 0.0
Co5 Co 0.26657 0.19725 0.07285 0.0
N6 N 0.29241 0.20098 0.05318 0.0
C7 C 0.29688 0.20082 0.01832 0.0
C8 C 0.31553 0.20317 0.01248 0.0
C9 C 0.32322 0.20451 0.04581 0.0
C10 C 0.30871 0.20277 0.07025 0.0
N11 N 0.2752 0.1936 0.12205 0.0
C12 C 0.29314 0.19649 0.1333 0.0
C13 C 0.29219 0.1915 0.17021 0.0
C14 C 0.27301 0.18488 0.18229 0.0
C15 C 0.26331 0.18619 0.15232 0.0
N16 N 0.24064 0.19325 0.0924 0.0
C17 C 0.23242 0.18519 0.12565 0.0
C18 C 0.21417 0.18378 0.13144 0.0
C19 C 0.21058 0.19139 0.09982 0.0
C20 C 0.22696 0.19711 0.07648 0.0
N21 N 0.25449 0.16892 0.06876 0.0
C22 C 0.24005 0.12969 0.05578 0.0
C23 C 0.25722 0.13957 0.0749 0.0
C24 C 0.26423 0.15909 0.08081 0.0
C25 C 0.22978 0.13961 0.04442 0.0
C26 C 0.23705 0.15908 0.0517 0.0
N27 N 0.27888 0.22561 0.07642 0.0
C28 C 0.28551 0.25294 0.10986 0.0
C29 C 0.29699 0.26632 0.08058 0.0
C30 C 0.29914 0.25877 0.04927 0.0
C31 C 0.29014 0.23854 0.04783 0.0
C32 C 0.27648 0.23271 0.10713 0.0
H33 H 0.29242 0.23342 0.02343 0.0
H34 H 0.26755 0.22284 0.12991 0.0
H35 H 0.2779 0.16625 0.09428 0.0
H36 H 0.22879 0.16629 0.04269 0.0
C37 C 0.28388 0.2 0.99157 0.0
C38 C 0.22829 0.20488 0.03883 0.0
C39 C 0.31017 0.20049 0.10948 0.0
C40 C 0.2435 0.18194 0.1521 0.0
H41 H 0.23224 0.20984 0.96089 0.0
H42 H 0.26148 0.2052 0.93479 0.0
H43 H 0.32273 0.2039 0.98703 0.0
H44 H 0.33762 0.20597 0.05166 0.0
H45 H 0.30389 0.19175 0.18657 0.0
H46 H 0.26685 0.17965 0.20964 0.0
H47 H 0.20488 0.17845 0.15607 0.0
H48 H 0.19733 0.19247 0.0945 0.0
H49 H 0.26569 0.13252 0.08402 0.0
H50 H 0.21629 0.13242 0.02986 0.0
H51 H 0.28328 0.25805 0.13455 0.0
H52 H 0.30804 0.26846 0.02609 0.0
C53 C 0.87218 0.09661 0.07477 0.0
C54 C 0.8835 0.09311 0.10017 0.0
C55 C 0.87059 0.07639 0.12134 0.0
C56 C 0.85214 0.07067 0.10792 0.0
N57 N 0.85263 0.08277 0.07972 0.0
Co58 Co 0.82918 0.08027 0.05326 0.0
N59 N 0.80995 0.06197 0.09263 0.0
C60 C 0.81423 0.05241 0.11983 0.0
C61 C 0.79817 0.04071 0.14316 0.0
C62 C 0.7827 0.0427 0.12948 0.0
C63 C 0.79011 0.05538 0.09813 0.0
N64 N 0.80587 0.07795 0.02639 0.0
C65 C 0.78634 0.06991 0.03715 0.0
C66 C 0.7751 0.07045 0.00834 0.0
C67 C 0.78791 0.07886 0.97872 0.0
C68 C 0.80621 0.08296 0.99081 0.0
N69 N 0.84835 0.09835 0.01383 0.0
C70 C 0.84398 0.1007 0.9795 0.0
C71 C 0.86028 0.11405 0.95807 0.0
C72 C 0.87594 0.12052 0.98032 0.0
C73 C 0.86823 0.11075 0.01423 0.0
N74 N 0.82737 0.05767 0.03123 0.0
C75 C 0.82472 0.02309 0.01011 0.0
C76 C 0.80759 0.02401 0.01922 0.0
C77 C 0.80921 0.0413 0.02957 0.0
C78 C 0.8432 0.04029 0.00973 0.0
C79 C 0.84419 0.05741 0.0203 0.0
N80 N 0.83108 0.10263 0.076 0.0
C81 C 0.83372 0.13454 0.07242 0.0
C82 C 0.83639 0.13535 0.10963 0.0
C83 C 0.83609 0.11927 0.12945 0.0
C84 C 0.83343 0.1032 0.11227 0.0
C85 C 0.83099 0.11802 0.05618 0.0
H86 H 0.83368 0.09137 0.12848 0.0
H87 H 0.82905 0.11779 0.02756 0.0
H88 H 0.79569 0.04109 0.03738 0.0
H89 H 0.85866 0.07023 0.0208 0.0
C90 C 0.83389 0.05658 0.12489 0.0
C91 C 0.88043 0.11262 0.0454 0.0
C92 C 0.77744 0.05909 0.07257 0.0
C93 C 0.82417 0.09285 0.97022 0.0
H94 H 0.89935 0.10176 0.10333 0.0
H95 H 0.87411 0.06979 0.14482 0.0
H96 H 0.79782 0.03205 0.1676 0.0
H97 H 0.76759 0.03531 0.14092 0.0
H98 H 0.75916 0.06467 0.00819 0.0
H99 H 0.7843 0.08163 0.95159 0.0
H100 H 0.86063 0.11908 0.93001 0.0
H101 H 0.89127 0.13115 0.97245 0.0
H102 H 0.79291 1.01131 0.01894 0.0
H103 H 0.85687 0.04036 0.00271 0.0
H104 H 0.83365 0.14652 0.05597 0.0
H105 H 0.83842 0.11925 0.15807 0.0
C106 C 0.98659 0.77841 0.01623 0.0
C107 C 0.99292 0.77888 0.98113 0.0
C108 C 0.98164 0.76041 0.97091 0.0
C109 C 0.96908 0.74967 0.00019 0.0
N110 N 0.97151 0.7603 0.02807 0.0
Co111 Co 0.95713 0.74979 0.0761 0.0
N112 N 0.93623 0.72555 0.05729 0.0
C113 C 0.93763 0.71872 0.02624 0.0
C114 C 0.9208 0.7016 0.02035 0.0
C115 C 0.90806 0.69737 0.04964 0.0
C116 C 0.91787 0.71222 0.07177 0.0
N117 N 0.94298 0.73917 0.1242 0.0
C118 C 0.92413 0.72467 0.13312 0.0
C119 C 0.9201 0.7223 0.17007 0.0
C120 C 0.93713 0.73562 0.18471 0.0
C121 C 0.95051 0.74542 0.15604 0.0
N122 N 0.97787 0.7741 0.09513 0.0
C123 C 0.9812 0.77682 0.13017 0.0
C124 C 0.99631 0.79511 0.13552 0.0
C125 C 1.00319 0.80447 0.10174 0.0
C126 C 0.99197 0.79123 0.07754 0.0
N127 N 0.94071 0.76218 0.06468 0.0
C128 C 0.91275 0.77485 0.04987 0.0
C129 C 0.92189 0.77733 0.0831 0.0
C130 C 0.93585 0.77097 0.08989 0.0
C131 C 0.91876 0.76674 0.02381 0.0
C132 C 0.93259 0.76052 0.03171 0.0
N133 N 0.97323 0.73692 0.0869 0.0
C134 C 1.00435 0.73671 0.08117 0.0
C135 C 0.99482 0.71658 0.09207 0.0
C136 C 0.97446 0.70713 0.10214 0.0
C137 C 0.96405 0.71757 0.09984 0.0
C138 C 0.99332 0.74655 0.07861 0.0
H139 H 0.94836 0.70973 0.10742 0.0
H140 H 1.00099 0.76182 0.06872 0.0
H141 H 0.94225 0.77264 0.11592 0.0
H142 H 0.93623 0.7538 0.01126 0.0
C143 C 0.95349 0.73032 0.00118 0.0
C144 C 0.99687 0.79474 0.03857 0.0
C145 C 0.91007 0.71238 0.10758 0.0
C146 C 0.96848 0.76276 0.15719 0.0
H147 H 1.00481 0.79117 0.96492 0.0
H148 H 0.98237 0.75547 0.94506 0.0
H149 H 0.91785 0.6935 0.99702 0.0
H150 H 0.89334 0.68475 0.05435 0.0
H151 H 0.90628 0.71218 0.18497 0.0
H152 H 0.93914 0.73848 0.21269 0.0
H153 H 1.00148 0.80105 0.16093 0.0
H154 H 1.01543 0.81921 0.09564 0.0
H155 H 0.91784 0.78353 0.10419 0.0
H156 H 0.91268 0.76498 0.99737 0.0
H157 H 0.02008 0.74464 0.07321 0.0
H158 H 0.96654 0.69168 0.11142 0.0
C159 C 0.22088 0.24472 0.48074 0.0
C160 C 0.22679 0.24416 0.51578 0.0
C161 C 0.23379 0.26253 0.52641 0.0
C162 C 0.23183 0.27332 0.49741 0.0
N163 N 0.22376 0.26281 0.46932 0.0
Co164 Co 0.21989 0.27347 0.42153 0.0
N165 N 0.2226 0.29729 0.44098 0.0
C166 C 0.23068 0.30404 0.47216 0.0
C167 C 0.23043 0.32084 0.4785 0.0
C168 C 0.22171 0.32491 0.44937 0.0
C169 C 0.2171 0.31031 0.42688 0.0
N170 N 0.2164 0.28425 0.37364 0.0
C171 C 0.21157 0.29841 0.36516 0.0
C172 C 0.21034 0.30125 0.32818 0.0
C173 C 0.21471 0.28848 0.31311 0.0
C174 C 0.21827 0.27855 0.34158 0.0
N175 N 0.21694 0.24959 0.40181 0.0
C176 C 0.21784 0.24722 0.36664 0.0
C177 C 0.21453 0.22896 0.36081 0.0
C178 C 0.21167 0.21927 0.39437 0.0
C179 C 0.21373 0.23233 0.419 0.0
N180 N 0.19098 0.26052 0.43252 0.0
C181 C 0.15018 0.24739 0.44673 0.0
C182 C 0.15711 0.24529 0.41343 0.0
C183 C 0.17751 0.25188 0.40693 0.0
C184 C 0.1641 0.25529 0.47318 0.0
C185 C 0.18424 0.26174 0.46559 0.0
N186 N 0.24896 0.28695 0.4112 0.0
C187 C 0.28062 0.28789 0.41736 0.0
C188 C 0.29109 0.30817 0.40714 0.0
C189 C 0.27976 0.31722 0.39713 0.0
C190 C 0.25889 0.30639 0.3989 0.0
C191 C 0.25971 0.27765 0.41934 0.0
H192 H 0.25081 0.31401 0.39158 0.0
H193 H 0.25229 0.26228 0.42852 0.0
H194 H 0.18247 0.25055 0.38082 0.0
H195 H 0.19446 0.26834 0.48631 0.0
C196 C 0.23523 0.29253 0.49692 0.0
C197 C 0.21482 0.22853 0.45803 0.0
C198 C 0.20895 0.30996 0.39121 0.0
C199 C 0.21925 0.26144 0.33993 0.0
H200 H 0.22656 0.23189 0.53171 0.0
H201 H 0.23939 0.26735 0.55236 0.0
H202 H 0.23533 0.32879 0.50205 0.0
H203 H 0.21914 0.33725 0.44503 0.0
H204 H 0.20652 0.31134 0.31359 0.0
H205 H 0.21426 0.28601 0.28495 0.0
H206 H 0.21377 0.2232 0.33521 0.0
H207 H 0.2088 0.2044 0.39999 0.0
H208 H 0.147 0.23925 0.39206 0.0
H209 H 0.15956 0.25675 0.49969 0.0
H210 H 0.28844 0.2799 0.42427 0.0
H211 H 0.2868 0.33278 0.3892 0.0
C212 C 0.78736 0.92584 0.41715 0.0
C213 C 0.79935 0.92656 0.38866 0.0
C214 C 0.79954 0.93982 0.3623 0.0
C215 C 0.78761 0.94633 0.37601 0.0
N216 N 0.78011 0.93834 0.40985 0.0
Co217 Co 0.76028 0.94214 0.43816 0.0
N218 N 0.75933 0.96058 0.39842 0.0
C219 C 0.77049 0.9671 0.36711 0.0
C220 C 0.76795 0.98084 0.34627 0.0
C221 C 0.75454 0.98346 0.36555 0.0
C222 C 0.74946 0.97097 0.39709 0.0
N223 N 0.73975 0.9451 0.46587 0.0
C224 C 0.73066 0.95584 0.45724 0.0
C225 C 0.71634 0.9526 0.48362 0.0
C226 C 0.71686 0.93992 0.51029 0.0
C227 C 0.73118 0.9359 0.49858 0.0
N228 N 0.7618 0.92445 0.47855 0.0
C229 C 0.75253 0.91981 0.51155 0.0
C230 C 0.75653 0.90753 0.53389 0.0
C231 C 0.76891 0.90389 0.51381 0.0
C232 C 0.77161 0.91408 0.48012 0.0
N233 N 0.78221 0.96519 0.45892 0.0
C234 C 0.81293 0.99905 0.48617 0.0
C235 C 0.79567 0.98608 0.50733 0.0
C236 C 0.78066 0.96934 0.49336 0.0
C237 C 0.81453 0.99454 0.45138 0.0
C238 C 0.79925 0.97778 0.43852 0.0
N239 N 0.73865 0.91914 0.41711 0.0
C240 C 0.71157 0.88561 0.42367 0.0
C241 C 0.71166 0.88471 0.38631 0.0
C242 C 0.72502 0.90167 0.36481 0.0
C243 C 0.73808 0.91853 0.38053 0.0
C244 C 0.725 0.90286 0.43838 0.0
H245 H 0.74794 0.93074 0.36241 0.0
H246 H 0.72434 0.90262 0.46704 0.0
H247 H 0.76789 0.96005 0.51082 0.0
H248 H 0.80156 0.97555 0.41169 0.0
C249 C 0.78297 0.95977 0.35782 0.0
C250 C 0.78266 0.91252 0.45001 0.0
C251 C 0.73561 0.96989 0.42536 0.0
C252 C 0.73809 0.92496 0.51893 0.0
H253 H 0.80687 0.91811 0.38684 0.0
H254 H 0.80715 0.94392 0.33598 0.0
H255 H 0.77514 0.98822 0.32029 0.0
H256 H 0.74934 0.99364 0.35742 0.0
H257 H 0.70675 0.95903 0.48395 0.0
H258 H 0.70819 0.93464 0.53561 0.0
H259 H 0.75043 0.90125 0.56097 0.0
H260 H 0.77476 0.89431 0.52257 0.0
H261 H 0.79375 0.98874 0.53465 0.0
H262 H 0.82735 1.00417 0.43354 0.0
H263 H 0.70122 0.87306 0.44158 0.0
H264 H 0.72593 0.90188 0.3358 0.0
C265 C 0.04912 0.81894 0.48533 0.0
C266 C 0.04377 0.81108 0.52097 0.0
C267 C 0.05539 0.80286 0.53045 0.0
C268 C 0.06718 0.80613 0.50024 0.0
N269 N 0.06396 0.8162 0.47243 0.0
Co270 Co 0.07708 0.82271 0.42334 0.0
N271 N 0.09831 0.81701 0.44043 0.0
C272 C 0.0976 0.80661 0.47149 0.0
C273 C 0.11449 0.80508 0.47598 0.0
C274 C 0.12654 0.8151 0.44575 0.0
C275 C 0.11628 0.82221 0.42451 0.0
N276 N 0.09009 0.82909 0.3743 0.0
C277 C 0.10873 0.83327 0.364 0.0
C278 C 0.1119 0.83728 0.32685 0.0
C279 C 0.09455 0.83535 0.3135 0.0
C280 C 0.08184 0.83037 0.34311 0.0
N281 N 0.05589 0.82844 0.40589 0.0
C282 C 0.05172 0.8304 0.3712 0.0
C283 C 0.03646 0.83453 0.36699 0.0
C284 C 0.03036 0.83487 0.40117 0.0
C285 C 0.04216 0.83072 0.42447 0.0
N286 N 0.09383 0.8501 0.43327 0.0
C287 C 0.12103 0.88889 0.44578 0.0
C288 C 0.11013 0.88478 0.41452 0.0
C289 C 0.09673 0.8653 0.40865 0.0
C290 C 0.11748 0.87321 0.47107 0.0
C291 C 0.10376 0.85407 0.46453 0.0
N292 N 0.06056 0.79512 0.41394 0.0
C293 C 0.02949 0.76467 0.4227 0.0
C294 C 0.03834 0.75438 0.40967 0.0
C295 C 0.0584 0.76524 0.39719 0.0
C296 C 0.06914 0.78548 0.39936 0.0
C297 C 0.04077 0.7849 0.42454 0.0
H298 H 0.08463 0.79321 0.39031 0.0
H299 H 0.0335 0.79212 0.43549 0.0
H300 H 0.08904 0.86252 0.38387 0.0
H301 H 0.10155 0.84244 0.48458 0.0
C302 C 0.08254 0.80155 0.49794 0.0
C303 C 0.03796 0.82647 0.46361 0.0
C304 C 0.12333 0.83258 0.3884 0.0
C305 C 0.06381 0.83049 0.34328 0.0
H306 H 0.03222 0.81077 0.53799 0.0
H307 H 0.05531 0.79546 0.55635 0.0
H308 H 0.11798 0.79818 0.49905 0.0
H309 H 0.14114 0.8169 0.43991 0.0
H310 H 0.12536 0.84129 0.31101 0.0
H311 H 0.09188 0.83818 0.28572 0.0
H312 H 0.03067 0.83726 0.34204 0.0
H313 H 0.01818 0.83731 0.4082 0.0
H314 H 0.11239 0.89647 0.39424 0.0
H315 H 0.12529 0.87569 0.49587 0.0
H316 H 1.01393 0.75716 0.4318 0.0
H317 H 0.06606 0.75811 0.38696 0.0
C318 C 0.81358 0.82226 0.93219 0.0
C319 C 0.83046 0.82694 0.91107 0.0
C320 C 0.82869 0.83524 0.87849 0.0
C321 C 0.81085 0.83504 0.88137 0.0
N322 N 0.80122 0.82712 0.91372 0.0
Co323 Co 0.77468 0.82341 0.92863 0.0
N324 N 0.76836 0.82736 0.8778 0.0
C325 C 0.78146 0.83461 0.84915 0.0
C326 C 0.77295 0.83546 0.81727 0.0
C327 C 0.75331 0.82869 0.82636 0.0
C328 C 0.75096 0.82426 0.86352 0.0
N329 N 0.74818 0.81985 0.94377 0.0
C330 C 0.73266 0.81805 0.92392 0.0
C331 C 0.71752 0.81707 0.94573 0.0
C332 C 0.7239 0.81866 0.98014 0.0
C333 C 0.74252 0.82053 0.97757 0.0
N334 N 0.78116 0.81944 0.97926 0.0
C335 C 0.77205 0.82055 0.009 0.0
C336 C 0.77968 0.81706 0.04028 0.0
C337 C 0.79458 0.81357 0.02953 0.0
C338 C 0.79515 0.81511 0.99219 0.0
N339 N 0.78658 0.85168 0.93264 0.0
C340 C 0.79968 0.89053 0.94671 0.0
C341 C 0.81025 0.88095 0.95849 0.0
C342 C 0.80348 0.86155 0.95109 0.0
C343 C 0.78323 0.88061 0.92586 0.0
C344 C 0.77699 0.86139 0.91918 0.0
N345 N 0.76253 0.79516 0.9251 0.0
C346 C 0.74104 0.76204 0.95102 0.0
C347 C 0.74442 0.75462 0.92063 0.0
C348 C 0.75716 0.76798 0.89251 0.0
C349 C 0.76618 0.78814 0.8954 0.0
C350 C 0.75007 0.78224 0.9526 0.0
H351 H 0.77608 0.79803 0.87357 0.0
H352 H 0.74685 0.78737 0.97616 0.0
H353 H 0.81154 0.85434 0.96137 0.0
H354 H 0.76392 0.85426 0.90406 0.0
C355 C 0.80107 0.83853 0.85265 0.0
C356 C 0.81005 0.8138 0.96989 0.0
C357 C 0.73287 0.82015 0.8843 0.0
C358 C 0.75443 0.82148 0.00649 0.0
H359 H 0.84269 0.82444 0.91817 0.0
H360 H 0.83872 0.83988 0.85491 0.0
H361 H 0.78012 0.84024 0.79055 0.0
H362 H 0.74213 0.8278 0.8079 0.0
H363 H 0.7036 0.81603 0.93749 0.0
H364 H 0.71592 0.8185 0.00414 0.0
H365 H 0.77454 0.81635 0.06765 0.0
H366 H 0.804 0.81036 0.04709 0.0
H367 H 0.82314 0.88806 0.97454 0.0
H368 H 0.77488 0.88753 0.91526 0.0
H369 H 0.73114 0.7523 0.97323 0.0
H370 H 0.76032 0.76289 0.86862 0.0
C371 C 0.20008 0.99519 0.94302 0.0
C372 C 0.19456 1.00767 0.92424 0.0
C373 C 0.18848 1.0006 0.89161 0.0
C374 C 0.19049 0.98421 0.8924 0.0
N375 N 0.19738 0.98046 0.92351 0.0
Co376 Co 0.20177 0.95792 0.93628 0.0
N377 N 0.20195 0.95301 0.88482 0.0
C378 C 0.19597 0.9608 0.85721 0.0
C379 C 0.19806 0.95511 0.82453 0.0
C380 C 0.2054 0.9426 0.83201 0.0
C381 C 0.20719 0.94119 0.86907 0.0
N382 N 0.20573 0.93502 0.94924 0.0
C383 C 0.20955 0.92394 0.92803 0.0
C384 C 0.20976 0.90847 0.94855 0.0
C385 C 0.20557 0.9097 0.98357 0.0
C386 C 0.20301 0.92576 0.9826 0.0
N387 N 0.20189 0.9633 0.98749 0.0
C388 C 0.19964 0.95094 0.01659 0.0
C389 C 0.20156 0.95916 0.04835 0.0
C390 C 0.2052 0.97785 0.03861 0.0
C391 C 0.20509 0.97994 0.00131 0.0
N392 N 0.17267 0.9401 0.94128 0.0
C393 C 0.13262 0.91098 0.9573 0.0
C394 C 0.14064 0.92914 0.97157 0.0
C395 C 0.16061 0.94354 0.96298 0.0
C396 C 0.14477 0.90847 0.93284 0.0
C397 C 0.16455 0.92298 0.92551 0.0
N398 N 0.23084 0.97532 0.93191 0.0
C399 C 0.26319 0.98463 0.95511 0.0
C400 C 0.2727 0.99876 0.92576 0.0
C401 C 0.26063 1.0012 0.8999 0.0
C402 C 0.23978 0.98934 0.90344 0.0
C403 C 0.24244 0.97318 0.95766 0.0
H404 H 0.23093 0.99137 0.88293 0.0
H405 H 0.23584 0.96247 0.98058 0.0
H406 H 0.16648 0.95714 0.97503 0.0
H407 H 0.17338 0.91983 0.90802 0.0
C408 C 0.18996 0.9745 0.86256 0.0
C409 C 0.2072 0.99743 0.97965 0.0
C410 C 0.21018 0.92584 0.88841 0.0
C411 C 0.19971 0.9335 0.01261 0.0
H412 H 0.19503 0.0206 0.93306 0.0
H413 H 0.18409 1.00719 0.86935 0.0
H414 H 0.19463 0.9595 0.7984 0.0
H415 H 0.20818 0.93464 0.81264 0.0
H416 H 0.21203 0.89708 0.93908 0.0
H417 H 0.20452 0.90002 0.00693 0.0
H418 H 0.20145 0.95274 0.07526 0.0
H419 H 0.20786 0.98867 0.05696 0.0
H420 H 0.13188 0.93196 0.99038 0.0
H421 H 0.13925 0.89511 0.91991 0.0
H422 H 0.27171 0.98241 0.97626 0.0
H423 H 0.26723 0.01186 0.87664 0.0
C424 C 0.02941 0.21369 0.94288 0.0
C425 C 0.01795 0.19793 0.92351 0.0
C426 C 0.02826 0.20138 0.89135 0.0
C427 C 0.0454 0.21894 0.89295 0.0
N428 N 0.04656 0.22672 0.92414 0.0
Co429 Co 0.06862 0.25193 0.93745 0.0
N430 N 0.0785 0.26123 0.88619 0.0
C431 C 0.07314 0.24994 0.85864 0.0
C432 C 0.08249 0.26001 0.82632 0.0
C433 C 0.09489 0.27876 0.83396 0.0
C434 C 0.09246 0.27912 0.87077 0.0
N435 N 0.09087 0.27704 0.95109 0.0
C436 C 0.10427 0.29335 0.93028 0.0
C437 C 0.11786 0.30713 0.95134 0.0
C438 C 0.11323 0.29894 0.98631 0.0
C439 C 0.09705 0.28071 0.98478 0.0
N440 N 0.05833 0.24246 0.98838 0.0
C441 C 0.06833 0.24972 0.01785 0.0
C442 C 0.05707 0.24064 0.04931 0.0
C443 C 0.03883 0.2268 0.03895 0.0
C444 C 0.04003 0.22819 0.00163 0.0
N445 N 0.0863 0.2404 0.94319 0.0
C446 C 0.11489 0.22898 0.96129 0.0
C447 C 0.09505 0.21778 0.97506 0.0
C448 C 0.08095 0.22364 0.96541 0.0
C449 C 0.11949 0.245 0.93612 0.0
C450 C 0.10519 0.25045 0.92771 0.0
N451 N 0.05138 0.26381 0.93232 0.0
C452 C 0.03888 0.28349 0.95592 0.0
C453 C 0.02762 0.28192 0.92561 0.0
C454 C 0.02831 0.27068 0.89893 0.0
C455 C 0.04019 0.26171 0.90286 0.0
C456 C 0.05065 0.27452 0.95861 0.0
H457 H 0.04042 0.25321 0.88193 0.0
H458 H 0.05919 0.27633 0.98216 0.0
H459 H 0.06596 0.21505 0.9771 0.0
H460 H 0.10993 0.26339 0.90968 0.0
C461 C 0.05833 0.2303 0.86364 0.0
C462 C 0.02392 0.21543 0.97943 0.0
C463 C 0.10644 0.29539 0.89068 0.0
C464 C 0.08643 0.2673 0.01447 0.0
H465 H 1.00357 0.18539 0.93164 0.0
H466 H 0.02333 0.19265 0.86877 0.0
H467 H 0.08064 0.25437 0.80033 0.0
H468 H 0.10528 0.29054 0.81482 0.0
H469 H 0.1303 0.32135 0.94218 0.0
H470 H 0.1208 0.30549 0.00999 0.0
H471 H 0.06122 0.24433 0.07644 0.0
H472 H 0.0261 0.21702 0.05679 0.0
H473 H 0.0906 0.20508 0.99428 0.0
H474 H 0.1343 0.25374 0.92348 0.0
H475 H 0.03858 0.29152 0.9778 0.0
H476 H 0.02006 0.26906 0.87482 0.0
C477 C 0.82854 0.81176 0.55662 0.0
C478 C 0.83244 0.82765 0.57528 0.0
C479 C 0.83873 0.82443 0.60822 0.0
C480 C 0.83839 0.80687 0.60775 0.0
N481 N 0.83237 0.79888 0.57653 0.0
Co482 Co 0.82972 0.77369 0.56442 0.0
N483 N 0.82968 0.76481 0.61612 0.0
C484 C 0.83465 0.77611 0.64363 0.0
C485 C 0.83271 0.76599 0.67654 0.0
C486 C 0.82658 0.74721 0.66935 0.0
C487 C 0.82538 0.74698 0.63222 0.0
N488 N 0.82739 0.74856 0.55209 0.0
C489 C 0.82457 0.7325 0.57364 0.0
C490 C 0.82548 0.71893 0.55341 0.0
C491 C 0.82936 0.72689 0.51831 0.0
C492 C 0.83064 0.74483 0.51889 0.0
N493 N 0.82951 0.78272 0.51296 0.0
C494 C 0.83277 0.77533 0.48419 0.0
C495 C 0.83093 0.78412 0.45207 0.0
C496 C 0.82622 0.79792 0.46126 0.0
C497 C 0.82555 0.79681 0.49857 0.0
N498 N 0.859 0.78562 0.56016 0.0
C499 C 0.89967 0.79842 0.54534 0.0
C500 C 0.89076 0.80912 0.53044 0.0
C501 C 0.87048 0.80259 0.53849 0.0
C502 C 0.88805 0.78209 0.56985 0.0
C503 C 0.86794 0.77592 0.57655 0.0
N504 N 0.80052 0.76155 0.56814 0.0
C505 C 0.76862 0.7417 0.54343 0.0
C506 C 0.75867 0.74367 0.57282 0.0
C507 C 0.77018 0.75493 0.59976 0.0
C508 C 0.79104 0.76386 0.59677 0.0
C509 C 0.78942 0.75059 0.54174 0.0
H510 H 0.79946 0.77259 0.61769 0.0
H511 H 0.79647 0.74848 0.51898 0.0
H512 H 0.86394 0.81086 0.52605 0.0
H513 H 0.85958 0.76278 0.59407 0.0
C514 C 0.83942 0.7957 0.63794 0.0
C515 C 0.82188 0.8097 0.51972 0.0
C516 C 0.82406 0.73079 0.61332 0.0
C517 C 0.83363 0.75797 0.48866 0.0
H518 H 0.8307 0.84013 0.56619 0.0
H519 H 0.84206 0.8333 0.63051 0.0
H520 H 0.83542 0.77158 0.70265 0.0
H521 H 0.82429 0.73526 0.68898 0.0
H522 H 0.82426 0.70503 0.56304 0.0
H523 H 0.83117 0.72042 0.49518 0.0
H524 H 0.83186 0.78029 0.42526 0.0
H525 H 0.82343 0.80752 0.44262 0.0
H526 H 0.89907 0.82197 0.51157 0.0
H527 H 0.89425 0.77368 0.58328 0.0
H528 H 0.76037 0.73295 0.52218 0.0
H529 H 0.76315 0.75699 0.62285 0.0
C530 C 0.215 0.02662 0.55162 0.0
C531 C 0.1973 0.01394 0.57114 0.0
C532 C 0.19824 0.02153 0.6032 0.0
C533 C 0.21633 0.0384 0.60138 0.0
N534 N 0.22681 0.04195 0.57017 0.0
Co535 Co 0.25339 0.06489 0.55623 0.0
N536 N 0.25876 0.07079 0.60726 0.0
C537 C 0.24507 0.06337 0.63501 0.0
C538 C 0.25282 0.07017 0.66713 0.0
C539 C 0.27259 0.08301 0.65912 0.0
C540 C 0.27579 0.0834 0.62233 0.0
N541 N 0.27988 0.08809 0.54207 0.0
C542 C 0.29486 0.09976 0.56259 0.0
C543 C 0.31033 0.11505 0.54131 0.0
C544 C 0.30463 0.11316 0.50647 0.0
C545 C 0.2861 0.09686 0.50831 0.0
N546 N 0.24783 0.0586 0.50547 0.0
C547 C 0.25752 0.07069 0.47581 0.0
C548 C 0.25113 0.06191 0.44457 0.0
C549 C 0.23646 0.04315 0.45525 0.0
C550 C 0.23458 0.04156 0.49255 0.0
N551 N 0.24131 0.08197 0.55045 0.0
C552 C 0.22792 0.10916 0.53545 0.0
C553 C 0.21875 0.0911 0.52088 0.0
C554 C 0.22543 0.07757 0.52922 0.0
C555 C 0.24332 0.11292 0.55873 0.0
C556 C 0.24984 0.09932 0.56557 0.0
N557 N 0.2657 0.04814 0.56148 0.0
C558 C 0.28767 0.03776 0.53744 0.0
C559 C 0.28357 0.02433 0.56771 0.0
C560 C 0.27028 0.02308 0.59489 0.0
C561 C 0.2614 0.03498 0.59113 0.0
C562 C 0.27876 0.04955 0.53499 0.0
H563 H 0.25105 0.03352 0.6122 0.0
H564 H 0.28251 0.05985 0.51151 0.0
H565 H 0.21811 0.0638 0.51765 0.0
H566 H 0.26229 0.1033 0.58225 0.0
C567 C 0.22546 0.049 0.63041 0.0
C568 C 0.21969 0.02408 0.51505 0.0
C569 C 0.29403 0.09846 0.60218 0.0
C570 C 0.27489 0.08845 0.47884 0.0
H571 H 0.18505 1.00057 0.56314 0.0
H572 H 0.18744 0.01502 0.62577 0.0
H573 H 0.24504 0.0663 0.69325 0.0
H574 H 0.28323 0.09179 0.6779 0.0
H575 H 0.32402 0.12671 0.55024 0.0
H576 H 0.31304 0.12252 0.48265 0.0
H577 H 0.25716 0.06804 0.41741 0.0
H578 H 0.22836 0.03195 0.43752 0.0
H579 H 0.20664 0.08752 0.50296 0.0
H580 H 0.25096 0.12672 0.57038 0.0
H581 H 0.29804 0.03947 0.51599 0.0
H582 H 0.26658 0.01283 0.6187 0.0
C583 C 1.00281 0.19946 0.56182 0.0
C584 C 1.01469 0.19446 0.58319 0.0
C585 C 1.00455 0.18655 0.61585 0.0
C586 C 0.98718 0.18727 0.61275 0.0
N587 N 0.9857 0.19512 0.58017 0.0
Co588 Co 0.96338 0.19953 0.56483 0.0
N589 N 0.9534 0.19649 0.61557 0.0
C590 C 0.95897 0.18919 0.64454 0.0
C591 C 0.94994 0.18909 0.67628 0.0
C592 C 0.93757 0.19639 0.66674 0.0
C593 C 0.93959 0.20037 0.62948 0.0
N594 N 0.94095 0.2038 0.54923 0.0
C595 C 0.92765 0.20636 0.56876 0.0
C596 C 0.91369 0.20759 0.54676 0.0
C597 C 0.91816 0.20537 0.51258 0.0
C598 C 0.93454 0.2029 0.51546 0.0
N599 N 0.97358 0.20262 0.51432 0.0
C600 C 0.96337 0.20143 0.48454 0.0
C601 C 0.97439 0.20439 0.45336 0.0
C602 C 0.99268 0.20761 0.46424 0.0
C603 C 0.99177 0.20647 0.50155 0.0
N604 N 0.94615 0.17127 0.56197 0.0
C605 C 0.91931 0.13227 0.55024 0.0
C606 C 0.9394 0.1412 0.53808 0.0
C607 C 0.95257 0.16069 0.54428 0.0
C608 C 0.91336 0.14297 0.57008 0.0
C609 C 0.92689 0.16225 0.57562 0.0
N610 N 0.98032 0.22777 0.56724 0.0
C611 C 0.99266 0.26081 0.54028 0.0
C612 C 1.00356 0.26833 0.57054 0.0
C613 C 1.00274 0.25506 0.59901 0.0
C614 C 0.99119 0.23488 0.5967 0.0
C615 C 0.98109 0.2406 0.53927 0.0
H616 H 0.99098 0.22506 0.61886 0.0
H617 H 0.97263 0.2354 0.51585 0.0
H618 H 0.96779 0.16738 0.53381 0.0
H619 H 0.92141 0.16995 0.59013 0.0
C620 C 0.97414 0.18451 0.64141 0.0
C621 C 1.0079 0.20778 0.52408 0.0
C622 C 0.92587 0.2047 0.60836 0.0
C623 C 0.94512 0.20116 0.48681 0.0
H624 H 0.02927 0.19654 0.57623 0.0
H625 H 1.00976 0.18189 0.63962 0.0
H626 H 0.9522 0.18442 0.70318 0.0
H627 H 0.92759 0.19789 0.68498 0.0
H628 H 0.90111 0.20919 0.55475 0.0
H629 H 0.91035 0.20549 0.48853 0.0
H630 H 0.96998 0.20499 0.42595 0.0
H631 H 1.00522 0.21044 0.4468 0.0
H632 H 0.94474 0.13348 0.52275 0.0
H633 H 0.89818 0.13659 0.58093 0.0
H634 H 0.99265 0.27049 0.51782 0.0
H635 H 1.01106 0.26023 0.62281 0.0
C636 C 0.90768 0.54148 0.34301 0.0
C637 C 0.9099 0.54938 0.30745 0.0
C638 C 0.92955 0.55701 0.29694 0.0
C639 C 0.93827 0.55342 0.32651 0.0
N640 N 0.92529 0.54368 0.35489 0.0
Co641 Co 0.93244 0.53709 0.40349 0.0
N642 N 0.95885 0.54196 0.3849 0.0
C643 C 0.96814 0.55193 0.35329 0.0
C644 C 0.98625 0.55293 0.34771 0.0
C645 C 0.98852 0.54301 0.3778 0.0
C646 C 0.9716 0.5365 0.40007 0.0
N647 N 0.93971 0.53082 0.45208 0.0
C648 C 0.95411 0.5264 0.46159 0.0
C649 C 0.95383 0.52265 0.49871 0.0
C650 C 0.93883 0.52497 0.51286 0.0
C651 C 0.93077 0.52991 0.48373 0.0
N652 N 0.90599 0.53204 0.42236 0.0
C653 C 0.90035 0.53008 0.45736 0.0
C654 C 0.88106 0.52607 0.46263 0.0
C655 C 0.87414 0.52581 0.42885 0.0
C656 C 0.88978 0.52999 0.40468 0.0
N657 N 0.92089 0.50953 0.39403 0.0
C658 C 0.9083 0.4704 0.38191 0.0
C659 C 0.90341 0.47505 0.41461 0.0
C660 C 0.90976 0.49462 0.42005 0.0
C661 C 0.91898 0.48585 0.35507 0.0
C662 C 0.92513 0.50514 0.36165 0.0
N663 N 0.94443 0.56483 0.41248 0.0
C664 C 0.94441 0.59558 0.40491 0.0
C665 C 0.96386 0.60557 0.41681 0.0
C666 C 0.97298 0.59449 0.42799 0.0
C667 C 0.96302 0.57423 0.42584 0.0
C668 C 0.935 0.57532 0.403 0.0
H669 H 0.97064 0.56628 0.43418 0.0
H670 H 0.9203 0.56833 0.3928 0.0
H671 H 0.90609 0.49771 0.44567 0.0
H672 H 0.93376 0.51655 0.34062 0.0
C673 C 0.95805 0.55732 0.32761 0.0
C674 C 0.88936 0.5344 0.36565 0.0
C675 C 0.9688 0.52653 0.43644 0.0
C676 C 0.91272 0.52996 0.48454 0.0
H677 H 0.89864 0.55011 0.29112 0.0
H678 H 0.9366 0.56424 0.2708 0.0
H679 H 0.99629 0.55947 0.32409 0.0
H680 H 1.00121 0.54092 0.38291 0.0
H681 H 0.96335 0.51853 0.51401 0.0
H682 H 0.93377 0.52238 0.54088 0.0
H683 H 0.87287 0.52333 0.488 0.0
H684 H 0.85942 0.52338 0.4227 0.0
H685 H 0.89525 0.46375 0.43634 0.0
H686 H 0.92273 0.48315 0.32898 0.0
H687 H 0.93669 0.60341 0.39587 0.0
H688 H 0.98781 0.6014 0.43816 0.0
C689 C 0.53698 0.42624 0.41681 0.0
C690 C 0.54793 0.42194 0.44185 0.0
C691 C 0.53464 0.40508 0.46218 0.0
C692 C 0.51638 0.40004 0.44847 0.0
N693 N 0.51732 0.41271 0.42092 0.0
Co694 Co 0.49438 0.41073 0.39333 0.0
N695 N 0.47453 0.39155 0.43113 0.0
C696 C 0.47838 0.38152 0.45809 0.0
C697 C 0.46195 0.36927 0.48021 0.0
C698 C 0.44668 0.37141 0.46599 0.0
C699 C 0.45461 0.38474 0.43556 0.0
N700 N 0.47152 0.40884 0.36544 0.0
C701 C 0.45181 0.40044 0.37513 0.0
C702 C 0.44105 0.40162 0.34602 0.0
C703 C 0.45437 0.41085 0.31725 0.0
C704 C 0.47246 0.41475 0.33014 0.0
N705 N 0.51418 0.42972 0.35542 0.0
C706 C 0.51035 0.43308 0.32115 0.0
C707 C 0.52693 0.44696 0.30099 0.0
C708 C 0.54223 0.45265 0.32395 0.0
C709 C 0.53405 0.44186 0.35695 0.0
N710 N 0.49338 0.38894 0.36975 0.0
C711 C 0.49225 0.35607 0.34355 0.0
C712 C 0.47465 0.356 0.3533 0.0
C713 C 0.47553 0.3725 0.36626 0.0
C714 C 0.5104 0.37326 0.34598 0.0
C715 C 0.51063 0.38952 0.35886 0.0
N716 N 0.49563 0.43243 0.4174 0.0
C717 C 0.49916 0.46467 0.41489 0.0
C718 C 0.50197 0.46516 0.45207 0.0
C719 C 0.50069 0.44853 0.47154 0.0
C720 C 0.49755 0.43245 0.45382 0.0
C721 C 0.49596 0.44818 0.39812 0.0
H722 H 0.49717 0.42019 0.46966 0.0
H723 H 0.4943 0.44837 0.36942 0.0
H724 H 0.46171 0.37165 0.37435 0.0
H725 H 0.52487 0.4024 0.36078 0.0
C726 C 0.49793 0.38562 0.46411 0.0
C727 C 0.54586 0.44249 0.38814 0.0
C728 C 0.44237 0.38892 0.40973 0.0
C729 C 0.49074 0.42538 0.31077 0.0
H730 H 0.56384 0.4301 0.44498 0.0
H731 H 0.53782 0.39778 0.48504 0.0
H732 H 0.46121 0.36012 0.50421 0.0
H733 H 0.43136 0.36369 0.47643 0.0
H734 H 0.42512 0.39582 0.34511 0.0
H735 H 0.45122 0.41433 0.29018 0.0
H736 H 0.5277 0.45277 0.2733 0.0
H737 H 0.55765 0.46343 0.31712 0.0
H738 H 0.46025 0.34304 0.35212 0.0
H739 H 0.52437 0.37413 0.33814 0.0
H740 H 0.50003 0.47715 0.3986 0.0
H741 H 0.50225 0.44792 0.50039 0.0
C742 C 0.65382 0.10946 0.3406 0.0
C743 C 0.65886 0.10868 0.3053 0.0
C744 C 0.64735 0.08968 0.29774 0.0
C745 C 0.63594 0.07989 0.32871 0.0
N746 N 0.63931 0.0916 0.35515 0.0
Co747 Co 0.6268 0.08276 0.40482 0.0
N748 N 0.60546 0.05751 0.39019 0.0
C749 C 0.60591 0.04939 0.36023 0.0
C750 C 0.58887 0.0319 0.35726 0.0
C751 C 0.57701 0.02888 0.3873 0.0
C752 C 0.58752 0.04476 0.4069 0.0
N753 N 0.61434 0.07391 0.45438 0.0
C754 C 0.59568 0.05979 0.46566 0.0
C755 C 0.59289 0.05861 0.50275 0.0
C756 C 0.6105 0.07243 0.515 0.0
C757 C 0.62298 0.08128 0.48485 0.0
N758 N 0.64813 0.10793 0.41992 0.0
C759 C 0.65273 0.11196 0.45415 0.0
C760 C 0.66778 0.13067 0.45669 0.0
C761 C 0.67328 0.1389 0.4219 0.0
C762 C 0.6614 0.12458 0.39991 0.0
N763 N 0.60982 0.09449 0.39361 0.0
C764 C 0.58186 0.10711 0.37995 0.0
C765 C 0.5932 0.11201 0.41062 0.0
C766 C 0.607 0.10544 0.4171 0.0
C767 C 0.5854 0.09644 0.3557 0.0
C768 C 0.59951 0.0905 0.36278 0.0
N769 N 0.64354 0.07059 0.41548 0.0
C770 C 0.67418 0.07004 0.40504 0.0
C771 C 0.66566 0.05079 0.42133 0.0
C772 C 0.64613 0.04204 0.43622 0.0
C773 C 0.63533 0.0521 0.43287 0.0
C774 C 0.66302 0.07973 0.40284 0.0
H775 H 0.62007 0.04462 0.44332 0.0
H776 H 0.67003 0.09443 0.38985 0.0
H777 H 0.61502 0.10879 0.4415 0.0
H778 H 0.60167 0.08219 0.3436 0.0
C779 C 0.62071 0.06029 0.33293 0.0
C780 C 0.66493 0.12667 0.3606 0.0
C781 C 0.58069 0.04679 0.44217 0.0
C782 C 0.64102 0.09878 0.48316 0.0
H783 H 0.67012 0.12048 0.28725 0.0
H784 H 0.64725 0.08377 0.27258 0.0
H785 H 0.5851 0.02286 0.33516 0.0
H786 H 0.56234 0.01647 0.39402 0.0
H787 H 0.57951 0.04893 0.51922 0.0
H788 H 0.61347 0.07626 0.54237 0.0
H789 H 0.67376 0.13766 0.48093 0.0
H790 H 0.68505 0.15363 0.4137 0.0
H791 H 0.59096 0.12029 0.43004 0.0
H792 H 0.57723 0.09262 0.33136 0.0
H793 H 0.68936 0.07753 0.39378 0.0
H794 H 0.63893 0.0272 0.44909 0.0
C795 C 0.88603 0.5761 0.81235 0.0
C796 C 0.89191 0.57528 0.84735 0.0
C797 C 0.89884 0.59354 0.85851 0.0
C798 C 0.89685 0.60452 0.82986 0.0
N799 N 0.88883 0.59421 0.80153 0.0
Co800 Co 0.88472 0.60506 0.75424 0.0
N801 N 0.88698 0.62844 0.77465 0.0
C802 C 0.89517 0.63511 0.80579 0.0
C803 C 0.89431 0.65151 0.81298 0.0
C804 C 0.88503 0.65534 0.78449 0.0
C805 C 0.88071 0.641 0.76152 0.0
N806 N 0.88097 0.61608 0.70692 0.0
C807 C 0.87539 0.62977 0.69938 0.0
C808 C 0.87411 0.63297 0.66252 0.0
C809 C 0.87919 0.62088 0.64659 0.0
C810 C 0.88321 0.61097 0.67448 0.0
N811 N 0.88221 0.58162 0.73351 0.0
C812 C 0.88352 0.57978 0.69818 0.0
C813 C 0.88088 0.56184 0.69164 0.0
C814 C 0.87802 0.55182 0.72492 0.0
C815 C 0.87931 0.56436 0.75008 0.0
N816 N 0.85581 0.59157 0.76532 0.0
C817 C 0.81481 0.57712 0.77998 0.0
C818 C 0.82192 0.57559 0.74638 0.0
C819 C 0.84243 0.58282 0.73966 0.0
C820 C 0.82869 0.58515 0.80646 0.0
C821 C 0.84894 0.59228 0.79862 0.0
N822 N 0.91381 0.61894 0.74377 0.0
C823 C 0.94558 0.61988 0.74781 0.0
C824 C 0.95582 0.64009 0.73767 0.0
C825 C 0.94449 0.64929 0.72919 0.0
C826 C 0.92361 0.63846 0.73196 0.0
C827 C 0.92468 0.60964 0.75086 0.0
H828 H 0.9154 0.64605 0.72545 0.0
H829 H 0.9174 0.59428 0.76003 0.0
H830 H 0.84753 0.58191 0.71334 0.0
H831 H 0.85911 0.59895 0.81938 0.0
C832 C 0.90003 0.62364 0.83003 0.0
C833 C 0.88013 0.56018 0.78906 0.0
C834 C 0.87194 0.64039 0.72639 0.0
C835 C 0.88474 0.59418 0.67199 0.0
H836 H 0.89168 0.56292 0.86289 0.0
H837 H 0.90437 0.59815 0.8846 0.0
H838 H 0.89907 0.65926 0.83678 0.0
H839 H 0.88182 0.66728 0.78097 0.0
H840 H 0.86973 0.6428 0.64859 0.0
H841 H 0.87884 0.61877 0.61827 0.0
H842 H 0.88063 0.5565 0.66577 0.0
H843 H 0.87573 0.53712 0.73006 0.0
H844 H 0.81186 0.5695 0.72497 0.0
H845 H 0.82402 0.58621 0.83316 0.0
H846 H 0.95365 0.61212 0.75467 0.0
H847 H 0.95172 0.66481 0.72061 0.0
C848 C 0.45581 0.26218 0.75604 0.0
C849 C 0.46767 0.26281 0.72741 0.0
C850 C 0.46788 0.27611 0.70111 0.0
C851 C 0.45607 0.28273 0.71498 0.0
N852 N 0.44869 0.27481 0.7489 0.0
Co853 Co 0.42883 0.27854 0.77728 0.0
N854 N 0.42737 0.29652 0.73722 0.0
C855 C 0.43854 0.30313 0.70592 0.0
C856 C 0.43535 0.3163 0.68458 0.0
C857 C 0.42151 0.31845 0.70352 0.0
C858 C 0.41687 0.30629 0.73539 0.0
N859 N 0.40821 0.28134 0.80504 0.0
C860 C 0.39867 0.29163 0.79616 0.0
C861 C 0.38466 0.28863 0.82296 0.0
C862 C 0.38573 0.27645 0.85004 0.0
C863 C 0.40009 0.27252 0.83818 0.0
N864 N 0.43087 0.26131 0.81792 0.0
C865 C 0.42197 0.25698 0.85119 0.0
C866 C 0.42611 0.24481 0.87354 0.0
C867 C 0.43815 0.24086 0.85314 0.0
C868 C 0.44052 0.25078 0.8193 0.0
N869 N 0.45067 0.30208 0.79729 0.0
C870 C 0.48012 0.33775 0.82144 0.0
C871 C 0.46346 0.32451 0.84367 0.0
C872 C 0.44902 0.30689 0.83117 0.0
C873 C 0.48217 0.33231 0.78776 0.0
C874 C 0.46757 0.31465 0.77648 0.0
N875 N 0.40729 0.2552 0.75688 0.0
C876 C 0.38039 0.22156 0.76396 0.0
C877 C 0.38013 0.22065 0.72657 0.0
C878 C 0.39331 0.23759 0.70486 0.0
C879 C 0.40648 0.25449 0.72033 0.0
C880 C 0.39391 0.2389 0.77844 0.0
H881 H 0.41622 0.26667 0.70203 0.0
H882 H 0.39351 0.23875 0.80715 0.0
H883 H 0.4365 0.29758 0.84913 0.0
H884 H 0.47027 0.31174 0.75044 0.0
C885 C 0.45123 0.29601 0.69673 0.0
C886 C 0.45104 0.24878 0.78883 0.0
C887 C 0.40282 0.30495 0.76346 0.0
C888 C 0.40745 0.26201 0.85866 0.0
H889 H 0.47505 0.25425 0.72542 0.0
H890 H 0.47533 0.2801 0.67466 0.0
H891 H 0.4423 0.32352 0.65836 0.0
H892 H 0.41562 0.32802 0.69494 0.0
H893 H 0.3749 0.29487 0.82324 0.0
H894 H 0.37738 0.27144 0.8757 0.0
H895 H 0.42022 0.23869 0.90078 0.0
H896 H 0.44393 0.23121 0.86178 0.0
H897 H 0.46123 0.32797 0.87015 0.0
H898 H 0.49504 0.34175 0.76985 0.0
H899 H 0.37023 0.20899 0.78202 0.0
H900 H 0.39398 0.23776 0.67584 0.0
C901 C 0.71498 0.15155 0.81848 0.0
C902 C 0.70918 0.14328 0.85383 0.0
C903 C 0.72097 0.1353 0.86373 0.0
C904 C 0.7333 0.13909 0.83405 0.0
N905 N 0.73025 0.14926 0.8062 0.0
Co906 Co 0.74419 0.15651 0.75775 0.0
N907 N 0.76562 0.15138 0.77583 0.0
C908 C 0.76468 0.14078 0.80677 0.0
C909 C 0.78179 0.13975 0.81212 0.0
C910 C 0.79424 0.15032 0.7826 0.0
C911 C 0.78399 0.15725 0.76087 0.0
N912 N 0.75804 0.16362 0.70934 0.0
C913 C 0.77701 0.16847 0.69999 0.0
C914 C 0.78073 0.17286 0.66297 0.0
C915 C 0.76339 0.17049 0.64875 0.0
C916 C 0.75014 0.16489 0.67773 0.0
N917 N 0.72282 0.1617 0.73933 0.0
C918 C 0.71907 0.16373 0.7044 0.0
C919 C 0.7035 0.16734 0.69946 0.0
C920 C 0.69676 0.16727 0.73339 0.0
C921 C 0.70853 0.16342 0.75728 0.0
N922 N 0.76009 0.18381 0.76869 0.0
C923 C 0.7862 0.22266 0.78316 0.0
C924 C 0.77616 0.21855 0.75084 0.0
C925 C 0.76325 0.19909 0.74412 0.0
C926 C 0.78239 0.20673 0.8082 0.0
C927 C 0.76926 0.18763 0.80067 0.0
N928 N 0.72852 0.12899 0.74738 0.0
C929 C 0.69786 0.09808 0.75446 0.0
C930 C 0.70742 0.08835 0.74185 0.0
C931 C 0.72761 0.09968 0.73049 0.0
C932 C 0.7378 0.11988 0.73323 0.0
C933 C 0.7086 0.11829 0.75695 0.0
H934 H 0.75338 0.12802 0.72483 0.0
H935 H 0.70084 0.12508 0.76777 0.0
H936 H 0.75608 0.19641 0.71881 0.0
H937 H 0.76699 0.17589 0.82053 0.0
C938 C 0.74906 0.13505 0.83243 0.0
C939 C 0.70396 0.1591 0.79636 0.0
C940 C 0.79147 0.16807 0.72515 0.0
C941 C 0.73182 0.16443 0.67705 0.0
H942 H 0.69727 0.14258 0.87036 0.0
H943 H 0.72066 0.12775 0.88959 0.0
H944 H 0.78514 0.13282 0.83532 0.0
H945 H 0.8091 0.15262 0.77754 0.0
H946 H 0.79452 0.17741 0.6478 0.0
H947 H 0.76106 0.17345 0.62082 0.0
H948 H 0.69793 0.17003 0.67421 0.0
H949 H 0.68425 0.1693 0.73982 0.0
H950 H 0.77821 0.23023 0.73075 0.0
H951 H 0.7899 0.20882 0.83328 0.0
H952 H 0.68232 0.09006 0.76367 0.0
H953 H 0.7356 0.09298 0.71978 0.0
C954 C 0.4825 0.15589 0.26942 0.0
C955 C 0.4997 0.16131 0.24862 0.0
C956 C 0.49796 0.16987 0.21631 0.0
C957 C 0.47993 0.16931 0.21923 0.0
N958 N 0.47021 0.16097 0.25136 0.0
Co959 Co 0.444 0.15771 0.26698 0.0
N960 N 0.43754 0.16195 0.21638 0.0
C961 C 0.45055 0.16919 0.18758 0.0
C962 C 0.44203 0.17052 0.15597 0.0
C963 C 0.4225 0.16413 0.16543 0.0
C964 C 0.42024 0.15942 0.20253 0.0
N965 N 0.4178 0.15463 0.28281 0.0
C966 C 0.40235 0.15332 0.26334 0.0
C967 C 0.38741 0.15245 0.28557 0.0
C968 C 0.39387 0.15363 0.31989 0.0
C969 C 0.41233 0.15516 0.31683 0.0
N970 N 0.45066 0.15344 0.31739 0.0
C971 C 0.44161 0.15429 0.34747 0.0
C972 C 0.44876 0.14978 0.37842 0.0
C973 C 0.46327 0.14591 0.36713 0.0
C974 C 0.46433 0.14848 0.32976 0.0
N975 N 0.45646 0.18596 0.27115 0.0
C976 C 0.47192 0.22564 0.28139 0.0
C977 C 0.48153 0.21534 0.29464 0.0
C978 C 0.47366 0.19557 0.28895 0.0
C979 C 0.45472 0.21572 0.26233 0.0
C980 C 0.44731 0.19607 0.25759 0.0
N981 N 0.43136 0.12948 0.26313 0.0
C982 C 0.40942 0.09639 0.28859 0.0
C983 C 0.41274 0.08889 0.25816 0.0
C984 C 0.42582 0.10232 0.23038 0.0
C985 C 0.43501 0.12246 0.23345 0.0
C986 C 0.41873 0.11658 0.29043 0.0
H987 H 0.44499 0.13235 0.2117 0.0
H988 H 0.41567 0.1217 0.31414 0.0
H989 H 0.4813 0.18798 0.2995 0.0
H990 H 0.43382 0.18905 0.24359 0.0
C991 C 0.47018 0.17307 0.19076 0.0
C992 C 0.47889 0.14693 0.30674 0.0
C993 C 0.40251 0.15587 0.22379 0.0
C994 C 0.42419 0.15558 0.34546 0.0
H995 H 0.51218 0.15927 0.25599 0.0
H996 H 0.50822 0.17509 0.19297 0.0
H997 H 0.44914 0.17552 0.12922 0.0
H998 H 0.41138 0.16379 0.14734 0.0
H999 H 0.37359 0.15177 0.27769 0.0
H1000 H 0.38605 0.15342 0.34416 0.0
H1001 H 0.44334 0.14841 0.40587 0.0
H1002 H 0.47186 0.14148 0.38455 0.0
H1003 H 0.49499 0.22247 0.3093 0.0
H1004 H 0.44656 0.22289 0.25204 0.0
H1005 H 0.39983 0.08676 0.31118 0.0
H1006 H 0.42877 0.09739 0.20608 0.0
C1007 C 0.86559 0.33142 0.28025 0.0
C1008 C 0.86263 0.34474 0.25792 0.0
C1009 C 0.85946 0.33826 0.2246 0.0
C1010 C 0.86076 0.32148 0.22829 0.0
N1011 N 0.86429 0.31665 0.26209 0.0
Co1012 Co 0.86842 0.29397 0.27844 0.0
N1013 N 0.86624 0.28596 0.22825 0.0
C1014 C 0.86342 0.295 0.19816 0.0
C1015 C 0.86205 0.28597 0.16771 0.0
C1016 C 0.86384 0.27001 0.17902 0.0
C1017 C 0.86623 0.27026 0.2159 0.0
N1018 N 0.87231 0.27115 0.29486 0.0
C1019 C 0.87121 0.25656 0.27637 0.0
C1020 C 0.87387 0.243 0.29846 0.0
C1021 C 0.87643 0.24905 0.33222 0.0
C1022 C 0.87522 0.2659 0.32887 0.0
N1023 N 0.8709 0.30225 0.32855 0.0
C1024 C 0.8738 0.29327 0.35871 0.0
C1025 C 0.8759 0.30282 0.38878 0.0
C1026 C 0.87464 0.31906 0.3771 0.0
C1027 C 0.87188 0.31853 0.34039 0.0
N1028 N 0.83901 0.27651 0.28732 0.0
C1029 C 0.79822 0.24731 0.29737 0.0
C1030 C 0.81174 0.25005 0.32427 0.0
C1031 C 0.83165 0.26463 0.31892 0.0
C1032 C 0.80547 0.26013 0.26569 0.0
C1033 C 0.82571 0.27457 0.26134 0.0
N1034 N 0.89781 0.31111 0.26975 0.0
C1035 C 0.93118 0.32311 0.29079 0.0
C1036 C 0.93955 0.33581 0.25951 0.0
C1037 C 0.92664 0.3358 0.23309 0.0
C1038 C 0.90595 0.32354 0.23885 0.0
C1039 C 0.91058 0.31094 0.29516 0.0
H1040 H 0.8968 0.32441 0.21808 0.0
H1041 H 0.9054 0.30152 0.31948 0.0
H1042 H 0.84088 0.26554 0.34058 0.0
H1043 H 0.83035 0.28377 0.23653 0.0
C1044 C 0.86073 0.31115 0.19983 0.0
C1045 C 0.87079 0.3341 0.31785 0.0
C1046 C 0.86721 0.25465 0.23823 0.0
C1047 C 0.87573 0.27656 0.35738 0.0
H1048 H 0.86334 0.35815 0.26454 0.0
H1049 H 0.85734 0.34539 0.20021 0.0
H1050 H 0.85941 0.29015 0.14072 0.0
H1051 H 0.86294 0.25914 0.16216 0.0
H1052 H 0.87363 0.22992 0.29099 0.0
H1053 H 0.87846 0.24177 0.3565 0.0
H1054 H 0.87861 0.29875 0.4158 0.0
H1055 H 0.87598 0.33026 0.39357 0.0
H1056 H 0.80726 0.24056 0.34922 0.0
H1057 H 0.79564 0.25903 0.2442 0.0
H1058 H 0.94054 0.32228 0.31176 0.0
H1059 H 0.93245 0.34543 0.20835 0.0
C1060 C 0.69395 0.54071 0.28149 0.0
C1061 C 0.68119 0.52588 0.26125 0.0
C1062 C 0.68694 0.53259 0.22587 0.0
C1063 C 0.70287 0.55104 0.22637 0.0
N1064 N 0.70786 0.55633 0.25988 0.0
Co1065 Co 0.72963 0.58221 0.27187 0.0
N1066 N 0.74143 0.58929 0.22176 0.0
C1067 C 0.73225 0.58078 0.19243 0.0
C1068 C 0.74402 0.58892 0.16131 0.0
C1069 C 0.76175 0.60348 0.17167 0.0
C1070 C 0.7598 0.60331 0.20872 0.0
N1071 N 0.75148 0.60809 0.2835 0.0
C1072 C 0.7692 0.62034 0.26548 0.0
C1073 C 0.78051 0.63648 0.28409 0.0
C1074 C 0.76929 0.6344 0.31436 0.0
C1075 C 0.7519 0.61708 0.3128 0.0
N1076 N 0.71767 0.57525 0.32205 0.0
C1077 C 0.72201 0.58786 0.34722 0.0
C1078 C 0.71093 0.57934 0.37894 0.0
C1079 C 0.69849 0.56023 0.37328 0.0
C1080 C 0.70263 0.55817 0.33822 0.0
N1081 N 0.74659 0.57062 0.28475 0.0
C1082 C 0.77473 0.55822 0.30013 0.0
C1083 C 0.77118 0.56945 0.32323 0.0
C1084 C 0.75706 0.57529 0.31529 0.0
C1085 C 0.76331 0.55289 0.2695 0.0
C1086 C 0.74937 0.55922 0.26233 0.0
N1087 N 0.71295 0.5942 0.25926 0.0
C1088 C 0.71024 0.62233 0.23601 0.0
C1089 C 0.69035 0.61336 0.24926 0.0
C1090 C 0.68183 0.59422 0.26606 0.0
C1091 C 0.6933 0.58497 0.27071 0.0
C1092 C 0.7212 0.6125 0.24111 0.0
H1093 H 0.68626 0.57049 0.28441 0.0
H1094 H 0.73656 0.61999 0.23127 0.0
H1095 H 0.75514 0.58417 0.33347 0.0
H1096 H 0.74116 0.55524 0.23823 0.0
C1097 C 0.71424 0.56324 0.19616 0.0
C1098 C 0.69017 0.54055 0.32016 0.0
C1099 C 0.77524 0.6174 0.23017 0.0
C1100 C 0.73758 0.60715 0.34106 0.0
H1101 H 0.66847 0.51197 0.27093 0.0
H1102 H 0.68024 0.52496 0.20256 0.0
H1103 H 0.74046 0.58429 0.13454 0.0
H1104 H 0.77463 0.6131 0.15398 0.0
H1105 H 0.79536 0.64843 0.27688 0.0
H1106 H 0.77375 0.64387 0.33585 0.0
H1107 H 0.71178 0.58619 0.40329 0.0
H1108 H 0.68716 0.54921 0.39234 0.0
H1109 H 0.7797 0.57436 0.3469 0.0
H1110 H 0.76512 0.54396 0.25102 0.0
H1111 H 0.71758 0.6371 0.22285 0.0
H1112 H 0.66639 0.58641 0.27593 0.0
C1113 C 0.49437 0.1453 0.89217 0.0
C1114 C 0.49819 0.16099 0.9114 0.0
C1115 C 0.50454 0.15756 0.94412 0.0
C1116 C 0.50431 0.14008 0.94296 0.0
N1117 N 0.49828 0.13232 0.91155 0.0
Co1118 Co 0.49596 0.1074 0.89856 0.0
N1119 N 0.49602 0.09814 0.95005 0.0
C1120 C 0.50117 0.10931 0.97776 0.0
C1121 C 0.50014 0.09924 0.01026 0.0
C1122 C 0.4944 0.08062 0.0026 0.0
C1123 C 0.49228 0.08035 0.96561 0.0
N1124 N 0.49405 0.08261 0.8853 0.0
C1125 C 0.49134 0.06646 0.90632 0.0
C1126 C 0.49197 0.05294 0.88561 0.0
C1127 C 0.4958 0.06114 0.85065 0.0
C1128 C 0.4972 0.07911 0.85185 0.0
N1129 N 0.49554 0.11675 0.84736 0.0
C1130 C 0.49878 0.10961 0.81819 0.0
C1131 C 0.49679 0.11855 0.78641 0.0
C1132 C 0.49199 0.13219 0.7962 0.0
C1133 C 0.49144 0.13086 0.83354 0.0
N1134 N 0.52533 0.11966 0.89409 0.0
C1135 C 0.56593 0.13235 0.87817 0.0
C1136 C 0.5569 0.14298 0.8634 0.0
C1137 C 0.53667 0.1365 0.872 0.0
C1138 C 0.5545 0.11623 0.90321 0.0
C1139 C 0.53445 0.11013 0.9105 0.0
N1140 N 0.46668 0.09484 0.90242 0.0
C1141 C 0.4349 0.07383 0.87845 0.0
C1142 C 0.42466 0.07561 0.90764 0.0
C1143 C 0.43605 0.08765 0.93389 0.0
C1144 C 0.45698 0.09708 0.93082 0.0
C1145 C 0.45572 0.08348 0.87636 0.0
H1146 H 0.4653 0.10604 0.95159 0.0
H1147 H 0.46292 0.08163 0.85352 0.0
H1148 H 0.53003 0.1447 0.8596 0.0
H1149 H 0.52629 0.09715 0.92849 0.0
C1150 C 0.50566 0.12883 0.97264 0.0
C1151 C 0.48778 0.1436 0.85519 0.0
C1152 C 0.49085 0.06436 0.94594 0.0
C1153 C 0.49989 0.09236 0.82198 0.0
H1154 H 0.49642 0.17351 0.9028 0.0
H1155 H 0.50792 0.16625 0.96667 0.0
H1156 H 0.50335 0.10481 0.03638 0.0
H1157 H 0.49296 0.06888 0.02187 0.0
H1158 H 0.49052 0.0389 0.89503 0.0
H1159 H 0.49737 0.05475 0.82718 0.0
H1160 H 0.49769 0.11492 0.7594 0.0
H1161 H 0.48908 0.14184 0.77795 0.0
H1162 H 0.56509 0.1557 0.8442 0.0
H1163 H 0.56081 0.10791 0.91662 0.0
H1164 H 0.4269 0.06508 0.85704 0.0
H1165 H 0.42889 0.08946 0.95708 0.0
C1166 C 0.88194 0.3597 0.88691 0.0
C1167 C 0.86389 0.34733 0.90566 0.0
C1168 C 0.86476 0.3547 0.93794 0.0
C1169 C 0.88316 0.37116 0.93698 0.0
N1170 N 0.89389 0.37466 0.90609 0.0
Co1171 Co 0.92095 0.39705 0.89326 0.0
N1172 N 0.92591 0.40237 0.94459 0.0
C1173 C 0.91201 0.39489 0.97201 0.0
C1174 C 0.91968 0.40086 0.00463 0.0
C1175 C 0.9396 0.41324 0.99729 0.0
C1176 C 0.94296 0.4143 0.96036 0.0
N1177 N 0.94797 0.41974 0.8802 0.0
C1178 C 0.96286 0.43095 0.90136 0.0
C1179 C 0.9787 0.4462 0.88068 0.0
C1180 C 0.97339 0.44471 0.84561 0.0
C1181 C 0.95468 0.42871 0.84669 0.0
N1182 N 0.91577 0.3913 0.84217 0.0
C1183 C 0.92599 0.40347 0.81292 0.0
C1184 C 0.91969 0.39503 0.78135 0.0
C1185 C 0.90455 0.3764 0.79137 0.0
C1186 C 0.90231 0.37456 0.82864 0.0
N1187 N 0.90988 0.41495 0.8873 0.0
C1188 C 0.89897 0.44393 0.87056 0.0
C1189 C 0.88879 0.42569 0.85661 0.0
C1190 C 0.89435 0.41135 0.86559 0.0
C1191 C 0.91368 0.44662 0.89501 0.0
C1192 C 0.91896 0.43219 0.90267 0.0
N1193 N 0.93234 0.37951 0.89866 0.0
C1194 C 0.95419 0.36877 0.87556 0.0
C1195 C 0.94954 0.35514 0.9057 0.0
C1196 C 0.93594 0.3539 0.93224 0.0
C1197 C 0.9274 0.36608 0.92808 0.0
C1198 C 0.94559 0.38082 0.87268 0.0
H1199 H 0.91686 0.36467 0.94871 0.0
H1200 H 0.9498 0.39129 0.84936 0.0
H1201 H 0.88658 0.39764 0.85387 0.0
H1202 H 0.93098 0.43549 0.92012 0.0
C1203 C 0.89227 0.38115 0.96662 0.0
C1204 C 0.88693 0.35718 0.85057 0.0
C1205 C 0.96146 0.42943 0.94097 0.0
C1206 C 0.94364 0.42085 0.81673 0.0
H1207 H 0.85147 0.33425 0.89707 0.0
H1208 H 0.85371 0.34826 0.96013 0.0
H1209 H 0.91174 0.39673 0.03064 0.0
H1210 H 0.95029 0.42134 0.01664 0.0
H1211 H 0.99238 0.45764 0.89005 0.0
H1212 H 0.98213 0.45419 0.82214 0.0
H1213 H 0.92608 0.40126 0.7544 0.0
H1214 H 0.89636 0.36545 0.77325 0.0
H1215 H 0.87718 0.42274 0.83781 0.0
H1216 H 0.92154 0.46008 0.90769 0.0
H1217 H 0.9648 0.37047 0.85458 0.0
H1218 H 0.93179 0.34348 0.9559 0.0
C1219 C 0.66823 0.53342 0.8909 0.0
C1220 C 0.68127 0.53063 0.91317 0.0
C1221 C 0.67537 0.53043 0.9478 0.0
C1222 C 0.65911 0.53307 0.94492 0.0
N1223 N 0.65408 0.53457 0.91066 0.0
Co1224 Co 0.63198 0.53947 0.89534 0.0
N1225 N 0.62001 0.53305 0.94527 0.0
C1226 C 0.62925 0.53252 0.9756 0.0
C1227 C 0.61742 0.52802 0.0063 0.0
C1228 C 0.59957 0.52556 0.9946 0.0
C1229 C 0.60153 0.52863 0.95724 0.0
N1230 N 0.60977 0.54418 0.88031 0.0
C1231 C 0.59196 0.53845 0.89759 0.0
C1232 C 0.58046 0.54417 0.87669 0.0
C1233 C 0.59162 0.55409 0.84561 0.0
C1234 C 0.60918 0.55376 0.84907 0.0
N1235 N 0.64418 0.54625 0.84538 0.0
C1236 C 0.63966 0.55548 0.81793 0.0
C1237 C 0.65064 0.55871 0.78665 0.0
C1238 C 0.66319 0.55145 0.79498 0.0
C1239 C 0.65927 0.5443 0.83113 0.0
N1240 N 0.61554 0.51191 0.88615 0.0
C1241 C 0.58709 0.47302 0.87624 0.0
C1242 C 0.59168 0.48837 0.84932 0.0
C1243 C 0.60578 0.50754 0.8548 0.0
C1244 C 0.59799 0.47753 0.90755 0.0
C1245 C 0.61218 0.49701 0.91189 0.0
N1246 N 0.64807 0.56714 0.9043 0.0
C1247 C 0.6498 0.59651 0.92279 0.0
C1248 C 0.66991 0.60753 0.91101 0.0
C1249 C 0.67901 0.59776 0.89689 0.0
C1250 C 0.66786 0.57767 0.89362 0.0
C1251 C 0.63926 0.57638 0.91956 0.0
H1252 H 0.67525 0.57084 0.88167 0.0
H1253 H 0.6238 0.5684 0.92882 0.0
H1254 H 0.60824 0.51891 0.83395 0.0
H1255 H 0.61991 0.50009 0.93661 0.0
C1256 C 0.64751 0.53293 0.97379 0.0
C1257 C 0.67181 0.53802 0.85161 0.0
C1258 C 0.58603 0.52852 0.93433 0.0
C1259 C 0.6237 0.55906 0.82151 0.0
H1260 H 0.69425 0.52968 0.90532 0.0
H1261 H 0.68219 0.52867 0.97216 0.0
H1262 H 0.62104 0.52599 0.0338 0.0
H1263 H 0.58664 0.52198 0.01165 0.0
H1264 H 0.56555 0.5414 0.88303 0.0
H1265 H 0.58707 0.56002 0.82256 0.0
H1266 H 0.64952 0.56537 0.76076 0.0
H1267 H 0.67437 0.55189 0.77679 0.0
H1268 H 0.58421 0.48571 0.82416 0.0
H1269 H 0.59511 0.46625 0.92916 0.0
H1270 H 0.64223 0.60338 0.93442 0.0
H1271 H 0.6945 0.60568 0.88731 0.0
C1272 C 0.57805 0.87582 0.67044 0.0
C1273 C 0.58075 0.88389 0.63491 0.0
C1274 C 0.60052 0.89157 0.62529 0.0
C1275 C 0.60884 0.88783 0.65532 0.0
N1276 N 0.59549 0.87797 0.68316 0.0
Co1277 Co 0.602 0.8712 0.73216 0.0
N1278 N 0.6286 0.87605 0.71479 0.0
C1279 C 0.63838 0.88629 0.68368 0.0
C1280 C 0.65646 0.88713 0.67887 0.0
C1281 C 0.65817 0.8768 0.70894 0.0
C1282 C 0.64095 0.8702 0.73041 0.0
N1283 N 0.60861 0.86461 0.78109 0.0
C1284 C 0.62267 0.8598 0.79115 0.0
C1285 C 0.62186 0.85577 0.82829 0.0
C1286 C 0.60689 0.85833 0.84185 0.0
C1287 C 0.59935 0.86366 0.81238 0.0
N1288 N 0.57539 0.86623 0.74987 0.0
C1289 C 0.56939 0.86429 0.78466 0.0
C1290 C 0.55006 0.86028 0.78911 0.0
C1291 C 0.54351 0.86003 0.75501 0.0
C1292 C 0.5594 0.86422 0.73147 0.0
N1293 N 0.59049 0.84371 0.72242 0.0
C1294 C 0.57707 0.80449 0.70971 0.0
C1295 C 0.57126 0.80913 0.74152 0.0
C1296 C 0.57815 0.82875 0.74737 0.0
C1297 C 0.58948 0.82009 0.68427 0.0
C1298 C 0.5958 0.83939 0.69094 0.0
N1299 N 0.61389 0.89888 0.74143 0.0
C1300 C 0.61388 0.92962 0.73335 0.0
C1301 C 0.63318 0.93964 0.74596 0.0
C1302 C 0.64217 0.92851 0.75786 0.0
C1303 C 0.63228 0.90825 0.75555 0.0
C1304 C 0.60456 0.90939 0.73135 0.0
H1305 H 0.63984 0.90027 0.76421 0.0
H1306 H 0.58996 0.90241 0.72074 0.0
H1307 H 0.5737 0.8318 0.77232 0.0
H1308 H 0.60544 0.85087 0.67081 0.0
C1309 C 0.62862 0.8918 0.65744 0.0
C1310 C 0.55943 0.86865 0.69229 0.0
C1311 C 0.63744 0.85971 0.76648 0.0
C1312 C 0.5814 0.86395 0.8124 0.0
H1313 H 0.56972 0.88472 0.61802 0.0
H1314 H 0.60792 0.89894 0.59943 0.0
H1315 H 0.66682 0.89377 0.65568 0.0
H1316 H 0.67065 0.87445 0.71451 0.0
H1317 H 0.63098 0.85127 0.84397 0.0
H1318 H 0.60147 0.85559 0.86967 0.0
H1319 H 0.54159 0.85748 0.81417 0.0
H1320 H 0.52885 0.85756 0.74827 0.0
H1321 H 0.56143 0.79775 0.76188 0.0
H1322 H 0.59481 0.81757 0.65955 0.0
H1323 H 0.60599 0.93733 0.72475 0.0
H1324 H 0.65705 0.93543 0.76777 0.0
C1325 C 0.20355 0.76024 0.73964 0.0
C1326 C 0.21445 0.7594 0.76865 0.0
C1327 C 0.201 0.74648 0.79494 0.0
C1328 C 0.18272 0.74021 0.78058 0.0
N1329 N 0.18367 0.74801 0.7464 0.0
Co1330 Co 0.16046 0.74445 0.717 0.0
N1331 N 0.14053 0.72669 0.75668 0.0
C1332 C 0.14469 0.72027 0.7886 0.0
C1333 C 0.1281 0.70774 0.81008 0.0
C1334 C 0.11235 0.7058 0.79059 0.0
C1335 C 0.12024 0.71724 0.75807 0.0
N1336 N 0.13735 0.74181 0.68826 0.0
C1337 C 0.11739 0.73146 0.69629 0.0
C1338 C 0.10671 0.73356 0.66786 0.0
C1339 C 0.12032 0.74574 0.64124 0.0
C1340 C 0.13847 0.75032 0.65463 0.0
N1341 N 0.18027 0.76145 0.67671 0.0
C1342 C 0.17608 0.76599 0.64327 0.0
C1343 C 0.19262 0.77816 0.6214 0.0
C1344 C 0.20839 0.7818 0.64222 0.0
C1345 C 0.2005 0.7716 0.67576 0.0
N1346 N 0.15872 0.72081 0.69769 0.0
C1347 C 0.15319 0.68543 0.6736 0.0
C1348 C 0.14997 0.69868 0.65105 0.0
C1349 C 0.15286 0.71616 0.66349 0.0
C1350 C 0.16005 0.69069 0.70773 0.0
C1351 C 0.16268 0.70818 0.71906 0.0
N1352 N 0.16243 0.76798 0.73664 0.0
C1353 C 0.17102 0.8021 0.72831 0.0
C1354 C 0.17241 0.80344 0.7655 0.0
C1355 C 0.16733 0.78638 0.7879 0.0
C1356 C 0.1623 0.76898 0.77311 0.0
C1357 C 0.16594 0.7843 0.71453 0.0
H1358 H 0.1589 0.75667 0.79183 0.0
H1359 H 0.16547 0.78417 0.68591 0.0
H1360 H 0.14995 0.72551 0.64512 0.0
H1361 H 0.16771 0.71094 0.74551 0.0
C1362 C 0.16437 0.72722 0.79848 0.0
C1363 C 0.21276 0.77306 0.70645 0.0
C1364 C 0.1078 0.71874 0.72956 0.0
C1365 C 0.15662 0.76089 0.63494 0.0
H1366 H 0.23046 0.7675 0.77071 0.0
H1367 H 0.20415 0.7424 0.82159 0.0
H1368 H 0.12752 0.701 0.83692 0.0
H1369 H 0.09681 0.697 0.79943 0.0
H1370 H 0.09072 0.72661 0.66597 0.0
H1371 H 0.11731 0.75017 0.61475 0.0
H1372 H 0.19315 0.78442 0.59416 0.0
H1373 H 0.2239 0.79147 0.63397 0.0
H1374 H 0.14471 0.69536 0.62427 0.0
H1375 H 0.16334 0.68128 0.72596 0.0
H1376 H 0.17452 0.81484 0.7098 0.0
H1377 H 0.16743 0.78644 0.81693 0.0
C1378 C 0.32023 0.44397 0.67607 0.0
C1379 C 0.32634 0.44407 0.64099 0.0
C1380 C 0.31483 0.42549 0.63131 0.0
C1381 C 0.30237 0.41505 0.66086 0.0
N1382 N 0.30508 0.42598 0.68837 0.0
Co1383 Co 0.29103 0.41591 0.73666 0.0
N1384 N 0.26985 0.39159 0.71872 0.0
C1385 C 0.27095 0.38433 0.68804 0.0
C1386 C 0.25355 0.36774 0.6821 0.0
C1387 C 0.24078 0.36441 0.71088 0.0
C1388 C 0.25117 0.37916 0.73294 0.0
N1389 N 0.27708 0.40578 0.78481 0.0
C1390 C 0.25792 0.39205 0.7936 0.0
C1391 C 0.2541 0.38931 0.83062 0.0
C1392 C 0.27151 0.40199 0.84532 0.0
C1393 C 0.28494 0.41165 0.81658 0.0
N1394 N 0.31208 0.44014 0.75514 0.0
C1395 C 0.31568 0.44289 0.79012 0.0
C1396 C 0.33075 0.46125 0.79512 0.0
C1397 C 0.33733 0.47056 0.7612 0.0
C1398 C 0.32607 0.45719 0.73719 0.0
N1399 N 0.27487 0.42852 0.72527 0.0
C1400 C 0.24692 0.44115 0.71179 0.0
C1401 C 0.25735 0.44494 0.74359 0.0
C1402 C 0.27118 0.43841 0.74991 0.0
C1403 C 0.25155 0.4318 0.68626 0.0
C1404 C 0.26565 0.42584 0.69329 0.0
N1405 N 0.30697 0.40287 0.74755 0.0
C1406 C 0.3379 0.40237 0.74116 0.0
C1407 C 0.32866 0.38255 0.75461 0.0
C1408 C 0.30842 0.37344 0.76587 0.0
C1409 C 0.29792 0.3838 0.7622 0.0
C1410 C 0.3269 0.41221 0.73806 0.0
H1411 H 0.28229 0.37618 0.77042 0.0
H1412 H 0.33449 0.42727 0.72688 0.0
H1413 H 0.2784 0.44077 0.77519 0.0
H1414 H 0.26852 0.41839 0.67323 0.0
C1415 C 0.2867 0.39567 0.66256 0.0
C1416 C 0.33083 0.46043 0.69809 0.0
C1417 C 0.24339 0.38082 0.76772 0.0
C1418 C 0.30312 0.42885 0.81748 0.0
H1419 H 0.33827 0.45614 0.62448 0.0
H1420 H 0.3154 0.42029 0.60567 0.0
H1421 H 0.25014 0.35966 0.65868 0.0
H1422 H 0.22554 0.35265 0.71483 0.0
H1423 H 0.24017 0.37935 0.84539 0.0
H1424 H 0.27374 0.40462 0.87338 0.0
H1425 H 0.33606 0.46731 0.82039 0.0
H1426 H 0.34941 0.48536 0.75492 0.0
H1427 H 0.25426 0.4522 0.764 0.0
H1428 H 0.24411 0.42888 0.66106 0.0
H1429 H 0.35343 0.41016 0.73186 0.0
H1430 H 0.30062 0.35832 0.77728 0.0
C1431 C 0.55558 0.91238 0.14948 0.0
C1432 C 0.55769 0.90893 0.18592 0.0
C1433 C 0.55874 0.92429 0.20207 0.0
C1434 C 0.55739 0.9363 0.17473 0.0
N1435 N 0.55551 0.92955 0.14201 0.0
Co1436 Co 0.55381 0.94293 0.09482 0.0
N1437 N 0.55335 0.9645 0.11895 0.0
C1438 C 0.5545 0.96669 0.15456 0.0
C1439 C 0.55171 0.98172 0.16356 0.0
C1440 C 0.54804 0.98928 0.13194 0.0
C1441 C 0.54891 0.97843 0.10537 0.0
N1442 N 0.5526 0.95646 0.04761 0.0
C1443 C 0.54923 0.97172 0.0407 0.0
C1444 C 0.54921 0.97642 0.00397 0.0
C1445 C 0.55201 0.96321 0.9871 0.0
C1446 C 0.55369 0.95136 0.01438 0.0
N1447 N 0.55341 0.92099 0.07062 0.0
C1448 C 0.55248 0.91909 0.03489 0.0
C1449 C 0.55116 0.90199 0.02616 0.0
C1450 C 0.55121 0.89232 0.05822 0.0
C1451 C 0.5528 0.90423 0.08482 0.0
N1452 N 0.52416 0.92832 0.09992 0.0
C1453 C 0.4824 0.91242 0.10749 0.0
C1454 C 0.49187 0.91551 0.07362 0.0
C1455 C 0.51261 0.9231 0.07052 0.0
C1456 C 0.49412 0.91674 0.13745 0.0
C1457 C 0.51471 0.92467 0.13312 0.0
N1458 N 0.58375 0.95796 0.09001 0.0
C1459 C 0.61506 0.96985 0.05551 0.0
C1460 C 0.62609 0.97922 0.08443 0.0
C1461 C 0.6156 0.97783 0.11597 0.0
C1462 C 0.59474 0.9675 0.118 0.0
C1463 C 0.5941 0.95917 0.05901 0.0
H1464 H 0.58797 0.96756 0.14264 0.0
H1465 H 0.58665 0.95197 0.0363 0.0
H1466 H 0.51909 0.92503 0.04407 0.0
H1467 H 0.52272 0.92825 0.15707 0.0
C1468 C 0.55645 0.95332 0.17913 0.0
C1469 C 0.55386 0.89899 0.12305 0.0
C1470 C 0.54435 0.98108 0.06795 0.0
C1471 C 0.55302 0.93366 0.0101 0.0
H1472 H 0.55832 0.89656 0.1995 0.0
H1473 H 0.56006 0.92631 0.23047 0.0
H1474 H 0.55146 0.9861 0.19018 0.0
H1475 H 0.54449 1.001 0.12896 0.0
H1476 H 0.54655 0.98767 0.99083 0.0
H1477 H 0.55162 0.96169 0.95852 0.0
H1478 H 0.55018 0.8971 -0.00036 0.0
H1479 H 0.55016 0.87806 0.06155 0.0
H1480 H 0.48332 0.91209 0.04966 0.0
H1481 H 0.48752 0.91472 0.16422 0.0
H1482 H 0.62257 0.97044 0.03051 0.0
H1483 H 0.62347 0.98501 0.139 0.0
C1484 C 0.12225 0.59701 0.08453 0.0
C1485 C 0.1338 0.59781 0.05523 0.0
C1486 C 0.13315 0.61069 0.02906 0.0
C1487 C 0.12119 0.61692 0.0437 0.0
N1488 N 0.11451 0.60915 0.07797 0.0
Co1489 Co 0.09477 0.61246 0.10767 0.0
N1490 N 0.09217 0.6299 0.06798 0.0
C1491 C 0.10245 0.6362 0.03574 0.0
C1492 C 0.0981 0.64852 0.01435 0.0
C1493 C 0.08443 0.65047 0.03425 0.0
C1494 C 0.08124 0.63923 0.06689 0.0
N1495 N 0.07435 0.61492 0.13686 0.0
C1496 C 0.06466 0.62521 0.12911 0.0
C1497 C 0.05207 0.62314 0.15784 0.0
C1498 C 0.05372 0.61109 0.18441 0.0
C1499 C 0.06723 0.60655 0.17069 0.0
N1500 N 0.09793 0.5957 0.14787 0.0
C1501 C 0.08955 0.59132 0.18159 0.0
C1502 C 0.09437 0.57948 0.20339 0.0
C1503 C 0.10633 0.57582 0.18216 0.0
C1504 C 0.10798 0.58557 0.14843 0.0
N1505 N 0.11668 0.63633 0.1265 0.0
C1506 C 0.14649 0.67195 0.15005 0.0
C1507 C 0.1304 0.65845 0.17313 0.0
C1508 C 0.11579 0.64087 0.16093 0.0
C1509 C 0.14774 0.66687 0.11559 0.0
C1510 C 0.13292 0.64925 0.10456 0.0
N1511 N 0.07319 0.58868 0.08855 0.0
C1512 C 0.04756 0.55458 0.09768 0.0
C1513 C 0.04745 0.55296 0.06057 0.0
C1514 C 0.05949 0.56986 0.0378 0.0
C1515 C 0.07199 0.58739 0.05216 0.0
C1516 C 0.06041 0.5725 0.11101 0.0
H1517 H 0.08091 0.59957 0.03317 0.0
H1518 H 0.06018 0.57284 0.1396 0.0
H1519 H 0.1038 0.63135 0.17969 0.0
H1520 H 0.13491 0.64662 0.07786 0.0
C1521 C 0.11539 0.62953 0.02572 0.0
C1522 C 0.11826 0.58382 0.11733 0.0
C1523 C 0.06763 0.63788 0.09587 0.0
C1524 C 0.07511 0.59623 0.19029 0.0
H1525 H 0.1415 0.58957 0.0527 0.0
H1526 H 0.1401 0.61462 0.00218 0.0
H1527 H 0.10406 0.6552 0.98738 0.0
H1528 H 0.07757 0.65917 0.02563 0.0
H1529 H 0.04304 0.63007 0.16001 0.0
H1530 H 0.04651 0.60677 0.21109 0.0
H1531 H 0.08904 0.57345 0.2309 0.0
H1532 H 0.11257 0.56649 0.19022 0.0
H1533 H 0.12873 0.66164 0.20016 0.0
H1534 H 0.16015 0.67653 0.09691 0.0
H1535 H 0.03831 0.54197 0.11647 0.0
H1536 H 0.05945 0.56959 0.00882 0.0
C1537 C 0.38091 0.4784 0.16244 0.0
C1538 C 0.37572 0.47046 0.19807 0.0
C1539 C 0.38769 0.46261 0.20732 0.0
C1540 C 0.39948 0.46613 0.17698 0.0
N1541 N 0.39594 0.476 0.14928 0.0
Co1542 Co 0.40893 0.48267 0.09999 0.0
N1543 N 0.43055 0.47745 0.11673 0.0
C1544 C 0.43018 0.46728 0.14789 0.0
C1545 C 0.44718 0.46594 0.15209 0.0
C1546 C 0.45896 0.47581 0.12154 0.0
C1547 C 0.44844 0.48265 0.1004 0.0
N1548 N 0.42177 0.48915 0.05073 0.0
C1549 C 0.44036 0.49333 0.03998 0.0
C1550 C 0.44334 0.49742 0.0028 0.0
C1551 C 0.42591 0.49547 0.98988 0.0
C1552 C 0.41336 0.49044 0.01973 0.0
N1553 N 0.38737 0.48796 0.08299 0.0
C1554 C 0.38314 0.49005 0.04837 0.0
C1555 C 0.36794 0.49428 0.04446 0.0
C1556 C 0.36193 0.49454 0.07875 0.0
C1557 C 0.37366 0.49016 0.10183 0.0
N1558 N 0.42535 0.51018 0.10977 0.0
C1559 C 0.45128 0.54942 0.12289 0.0
C1560 C 0.44063 0.54484 0.09124 0.0
C1561 C 0.42788 0.52523 0.08517 0.0
C1562 C 0.44827 0.53371 0.14787 0.0
C1563 C 0.43523 0.51442 0.14102 0.0
N1564 N 0.39272 0.45499 0.09069 0.0
C1565 C 0.36168 0.42438 0.09825 0.0
C1566 C 0.37082 0.41434 0.08535 0.0
C1567 C 0.39099 0.4253 0.0738 0.0
C1568 C 0.40155 0.44552 0.07632 0.0
C1569 C 0.37284 0.44459 0.1008 0.0
H1570 H 0.41706 0.45339 0.06742 0.0
H1571 H 0.36542 0.45163 0.1119 0.0
H1572 H 0.42022 0.52228 0.06037 0.0
H1573 H 0.43349 0.50288 0.1609 0.0
C1574 C 0.41513 0.462 0.17448 0.0
C1575 C 0.36957 0.48584 0.14105 0.0
C1576 C 0.45512 0.49256 0.06387 0.0
C1577 C 0.39526 0.49039 0.02027 0.0
H1578 H 0.36411 0.46989 0.21527 0.0
H1579 H 0.38784 0.4553 0.23316 0.0
H1580 H 0.45088 0.45918 0.17509 0.0
H1581 H 0.47353 0.47762 0.11536 0.0
H1582 H 0.4567 0.50147 0.98665 0.0
H1583 H 0.42307 0.4983 0.96221 0.0
H1584 H 0.3622 0.49724 0.01964 0.0
H1585 H 0.34991 0.49719 0.08593 0.0
H1586 H 0.44201 0.55627 0.07119 0.0
H1587 H 0.45625 0.53614 0.17244 0.0
H1588 H 0.34615 0.41659 0.10753 0.0
H1589 H 0.39864 0.4183 0.06295 0.0
C1590 C 0.14383 0.48581 0.60187 0.0
C1591 C 0.16079 0.49134 0.58026 0.0
C1592 C 0.15719 0.49672 0.54659 0.0
C1593 C 0.13842 0.49442 0.54959 0.0
N1594 N 0.12988 0.48811 0.58322 0.0
Co1595 Co 0.10309 0.48379 0.59947 0.0
N1596 N 0.09686 0.48932 0.549 0.0
C1597 C 0.10831 0.49302 0.51876 0.0
C1598 C 0.09999 0.49565 0.48782 0.0
C1599 C 0.0822 0.49372 0.49895 0.0
C1600 C 0.08082 0.49024 0.53627 0.0
N1601 N 0.0766 0.4803 0.61587 0.0
C1602 C 0.06301 0.48326 0.59716 0.0
C1603 C 0.04751 0.48093 0.61973 0.0
C1604 C 0.05144 0.47639 0.6538 0.0
C1605 C 0.06912 0.47635 0.65024 0.0
N1606 N 0.10906 0.47733 0.64974 0.0
C1607 C 0.09699 0.47226 0.6797 0.0
C1608 C 0.10412 0.46697 0.70974 0.0
C1609 C 0.12166 0.46842 0.69827 0.0
C1610 C 0.12437 0.47476 0.66176 0.0
N1611 N 0.11523 0.51209 0.60696 0.0
C1612 C 0.12602 0.55132 0.61578 0.0
C1613 C 0.11827 0.53679 0.64474 0.0
C1614 C 0.11316 0.51757 0.63986 0.0
C1615 C 0.12963 0.54612 0.58279 0.0
C1616 C 0.12424 0.52658 0.57903 0.0
N1617 N 0.09066 0.45553 0.59217 0.0
C1618 C 0.06727 0.42176 0.61256 0.0
C1619 C 0.07278 0.41511 0.58341 0.0
C1620 C 0.08762 0.42921 0.55874 0.0
C1621 C 0.09633 0.44918 0.56363 0.0
C1622 C 0.07616 0.44173 0.61621 0.0
H1623 H 0.10761 0.45925 0.54405 0.0
H1624 H 0.07108 0.4456 0.63896 0.0
H1625 H 0.10708 0.50737 0.66311 0.0
H1626 H 0.12703 0.52345 0.55305 0.0
C1627 C 0.12761 0.49589 0.5207 0.0
C1628 C 0.14136 0.47755 0.63938 0.0
C1629 C 0.06454 0.48902 0.55839 0.0
C1630 C 0.07898 0.47251 0.67855 0.0
H1631 H 0.17419 0.49102 0.58783 0.0
H1632 H 0.16681 0.50111 0.52251 0.0
H1633 H 0.10637 0.49918 0.46055 0.0
H1634 H 0.07169 0.49523 0.48162 0.0
H1635 H 0.03482 0.48264 0.61249 0.0
H1636 H 0.0426 0.4737 0.67833 0.0
H1637 H 0.09721 0.46225 0.73666 0.0
H1638 H 0.13117 0.46488 0.71489 0.0
H1639 H 0.11587 0.54016 0.67121 0.0
H1640 H 0.13589 0.5569 0.55961 0.0
H1641 H 0.05625 0.4116 0.63302 0.0
H1642 H 0.09239 0.42495 0.53549 0.0
C1643 C 0.53361 0.6637 0.61561 0.0
C1644 C 0.52941 0.67621 0.59349 0.0
C1645 C 0.52596 0.66934 0.56046 0.0
C1646 C 0.52802 0.65298 0.56435 0.0
N1647 N 0.53222 0.64875 0.59802 0.0
Co1648 Co 0.536 0.62603 0.61537 0.0
N1649 N 0.53343 0.6174 0.56568 0.0
C1650 C 0.53099 0.62642 0.53515 0.0
C1651 C 0.52968 0.61714 0.50505 0.0
C1652 C 0.5311 0.60106 0.5171 0.0
C1653 C 0.53306 0.60141 0.55407 0.0
N1654 N 0.53937 0.60301 0.63284 0.0
C1655 C 0.53783 0.58803 0.61506 0.0
C1656 C 0.53991 0.57434 0.63791 0.0
C1657 C 0.54267 0.58078 0.67135 0.0
C1658 C 0.54205 0.59793 0.66712 0.0
N1659 N 0.53908 0.6351 0.66496 0.0
C1660 C 0.54221 0.62646 0.69534 0.0
C1661 C 0.54546 0.63683 0.7246 0.0
C1662 C 0.54472 0.65325 0.71214 0.0
C1663 C 0.54087 0.65191 0.67585 0.0
N1664 N 0.50657 0.60906 0.62494 0.0
C1665 C 0.46569 0.58021 0.63614 0.0
C1666 C 0.4792 0.58361 0.66331 0.0
C1667 C 0.49916 0.59803 0.65737 0.0
C1668 C 0.47298 0.59227 0.60361 0.0
C1669 C 0.49326 0.60651 0.59866 0.0
N1670 N 0.56541 0.64263 0.60596 0.0
C1671 C 0.59885 0.65298 0.62522 0.0
C1672 C 0.60736 0.66571 0.59389 0.0
C1673 C 0.59432 0.66687 0.56881 0.0
C1674 C 0.57356 0.65533 0.57536 0.0
C1675 C 0.5782 0.64169 0.63049 0.0
H1676 H 0.56436 0.65685 0.55536 0.0
H1677 H 0.57298 0.63232 0.65488 0.0
H1678 H 0.5084 0.59952 0.67931 0.0
H1679 H 0.49791 0.61503 0.57314 0.0
C1680 C 0.52811 0.64251 0.53618 0.0
C1681 C 0.53999 0.66735 0.65238 0.0
C1682 C 0.53349 0.5857 0.57709 0.0
C1683 C 0.54332 0.60927 0.69491 0.0
H1684 H 0.52943 0.6893 0.60024 0.0
H1685 H 0.52305 0.6759 0.53617 0.0
H1686 H 0.52728 0.62122 0.47781 0.0
H1687 H 0.53025 0.59003 0.50068 0.0
H1688 H 0.5391 0.56089 0.63125 0.0
H1689 H 0.54446 0.57359 0.69599 0.0
H1690 H 0.54871 0.63322 0.75151 0.0
H1691 H 0.54729 0.6651 0.72787 0.0
H1692 H 0.47471 0.57475 0.68896 0.0
H1693 H 0.46318 0.59072 0.58184 0.0
H1694 H 0.60805 0.6518 0.64611 0.0
H1695 H 0.60003 0.67641 0.54397 0.0
C1696 C 0.36132 0.87862 0.61 0.0
C1697 C 0.34935 0.8643 0.58815 0.0
C1698 C 0.35839 0.87014 0.55453 0.0
C1699 C 0.37528 0.8876 0.55766 0.0
N1700 N 0.37774 0.89326 0.59134 0.0
Co1701 Co 0.4002 0.91791 0.6073 0.0
N1702 N 0.41244 0.92717 0.55706 0.0
C1703 C 0.4049 0.91832 0.52693 0.0
C1704 C 0.41646 0.92815 0.49621 0.0
C1705 C 0.43255 0.94411 0.50742 0.0
C1706 C 0.42993 0.94296 0.54456 0.0
N1707 N 0.42303 0.94234 0.62336 0.0
C1708 C 0.44003 0.95624 0.60489 0.0
C1709 C 0.45284 0.96981 0.62711 0.0
C1710 C 0.44373 0.96426 0.66076 0.0
C1711 C 0.426 0.9476 0.65735 0.0
N1712 N 0.38752 0.90881 0.65744 0.0
C1713 C 0.39433 0.91833 0.68723 0.0
C1714 C 0.38197 0.90909 0.71737 0.0
C1715 C 0.36616 0.89285 0.70613 0.0
C1716 C 0.36978 0.8931 0.66962 0.0
N1717 N 0.41633 0.90453 0.61649 0.0
C1718 C 0.44407 0.89087 0.62755 0.0
C1719 C 0.43883 0.89896 0.65466 0.0
C1720 C 0.425 0.90536 0.6488 0.0
C1721 C 0.43443 0.88906 0.59502 0.0
C1722 C 0.42065 0.89584 0.59016 0.0
N1723 N 0.38435 0.93162 0.59832 0.0
C1724 C 0.37309 0.95333 0.61777 0.0
C1725 C 0.36169 0.95108 0.58759 0.0
C1726 C 0.36177 0.93868 0.56286 0.0
C1727 C 0.37307 0.92915 0.56873 0.0
C1728 C 0.38423 0.94375 0.62238 0.0
H1729 H 0.37245 0.91986 0.54901 0.0
H1730 H 0.39252 0.94637 0.64591 0.0
H1731 H 0.42206 0.91148 0.67069 0.0
H1732 H 0.41393 0.89425 0.5647 0.0
C1733 C 0.38801 0.89988 0.52888 0.0
C1734 C 0.35582 0.87818 0.64768 0.0
C1735 C 0.44504 0.95656 0.56688 0.0
C1736 C 0.41226 0.93607 0.68578 0.0
H1737 H 0.33523 0.85126 0.59545 0.0
H1738 H 0.35292 0.86287 0.53037 0.0
H1739 H 0.41386 0.92385 0.46909 0.0
H1740 H 0.44508 0.95505 0.49034 0.0
H1741 H 0.46747 0.98217 0.61999 0.0
H1742 H 0.44962 0.97121 0.68507 0.0
H1743 H 0.38408 0.91376 0.74423 0.0
H1744 H 0.35329 0.88211 0.72279 0.0
H1745 H 0.44585 0.90105 0.68025 0.0
H1746 H 0.43751 0.88254 0.57327 0.0
H1747 H 0.3733 0.96228 0.63837 0.0
H1748 H 0.35337 0.93646 0.53881 0.0
C1749 C 0.16293 0.48035 0.21635 0.0
C1750 C 0.16595 0.49532 0.237 0.0
C1751 C 0.16933 0.49002 0.27092 0.0
C1752 C 0.16834 0.47228 0.269 0.0
N1753 N 0.16481 0.46603 0.2358 0.0
Co1754 Co 0.16249 0.44113 0.2212 0.0
N1755 N 0.16466 0.43216 0.27213 0.0
C1756 C 0.16578 0.44135 0.30171 0.0
C1757 C 0.16659 0.43149 0.33319 0.0
C1758 C 0.16627 0.41513 0.3231 0.0
C1759 C 0.16554 0.41611 0.28581 0.0
N1760 N 0.16089 0.41649 0.20651 0.0
C1761 C 0.16345 0.40254 0.22606 0.0
C1762 C 0.16311 0.38889 0.20453 0.0
C1763 C 0.16033 0.3944 0.17027 0.0
C1764 C 0.15929 0.41114 0.17265 0.0
N1765 N 0.1595 0.4499 0.17041 0.0
C1766 C 0.15703 0.44011 0.14108 0.0
C1767 C 0.15381 0.4489 0.11045 0.0
C1768 C 0.15383 0.46509 0.12091 0.0
C1769 C 0.1572 0.46531 0.15744 0.0
N1770 N 0.1921 0.45422 0.2132 0.0
C1771 C 0.23346 0.46722 0.20374 0.0
C1772 C 0.2205 0.45987 0.17584 0.0
C1773 C 0.20028 0.45376 0.18094 0.0
C1774 C 0.22535 0.4687 0.23621 0.0
C1775 C 0.20482 0.46228 0.24027 0.0
N1776 N 0.13292 0.42776 0.22898 0.0
C1777 C 0.10012 0.4059 0.20903 0.0
C1778 C 0.09078 0.40898 0.23789 0.0
C1779 C 0.10308 0.42182 0.26226 0.0
C1780 C 0.12393 0.43101 0.2573 0.0
C1781 C 0.12087 0.41516 0.20532 0.0
H1782 H 0.13251 0.4407 0.27662 0.0
H1783 H 0.12677 0.41196 0.18277 0.0
H1784 H 0.19151 0.44817 0.15848 0.0
H1785 H 0.19951 0.46362 0.26573 0.0
C1786 C 0.16811 0.4601 0.29862 0.0
C1787 C 0.1572 0.47995 0.17901 0.0
C1788 C 0.16715 0.4022 0.26455 0.0
C1789 C 0.15735 0.42244 0.14351 0.0
H1790 H 0.16518 0.50842 0.22865 0.0
H1791 H 0.17139 0.49776 0.29452 0.0
H1792 H 0.16799 0.43601 0.3601 0.0
H1793 H 0.16716 0.40406 0.34105 0.0
H1794 H 0.1651 0.37645 0.21252 0.0
H1795 H 0.15965 0.38732 0.14631 0.0
H1796 H 0.15127 0.44389 0.08386 0.0
H1797 H 0.15124 0.47534 0.10375 0.0
H1798 H 0.22569 0.4581 0.1502 0.0
H1799 H 0.23471 0.47468 0.25854 0.0
H1800 H 0.09152 0.39654 0.18879 0.0
H1801 H 0.09672 0.42465 0.28534 0.0
C1802 C 0.54425 0.6906 0.21872 0.0
C1803 C 0.52672 0.67834 0.23904 0.0
C1804 C 0.52835 0.6863 0.27094 0.0
C1805 C 0.54665 0.70296 0.26822 0.0
N1806 N 0.55657 0.70604 0.23654 0.0
Co1807 Co 0.58328 0.72839 0.22134 0.0
N1808 N 0.58975 0.73432 0.27207 0.0
C1809 C 0.57655 0.72728 0.30057 0.0
C1810 C 0.58509 0.73391 0.3323 0.0
C1811 C 0.60485 0.74626 0.32321 0.0
C1812 C 0.60729 0.74655 0.28621 0.0
N1813 N 0.60985 0.75108 0.2058 0.0
C1814 C 0.62534 0.76262 0.22549 0.0
C1815 C 0.64063 0.77763 0.20346 0.0
C1816 C 0.63429 0.77571 0.16902 0.0
C1817 C 0.61557 0.75966 0.17182 0.0
N1818 N 0.57666 0.72184 0.17097 0.0
C1819 C 0.586 0.73363 0.14085 0.0
C1820 C 0.57897 0.72457 0.11006 0.0
C1821 C 0.56428 0.70592 0.12156 0.0
C1822 C 0.56304 0.70468 0.15888 0.0
N1823 N 0.57211 0.74629 0.21644 0.0
C1824 C 0.56298 0.77646 0.19871 0.0
C1825 C 0.5523 0.7583 0.18458 0.0
C1826 C 0.55695 0.74333 0.19412 0.0
C1827 C 0.57692 0.77834 0.22426 0.0
C1828 C 0.58132 0.76335 0.23241 0.0
N1829 N 0.59494 0.7111 0.22563 0.0
C1830 C 0.61761 0.70159 0.2018 0.0
C1831 C 0.61405 0.68845 0.23233 0.0
C1832 C 0.60015 0.68648 0.25906 0.0
C1833 C 0.59077 0.69792 0.25518 0.0
C1834 C 0.608 0.7127 0.19903 0.0
H1835 H 0.58038 0.69631 0.27632 0.0
H1836 H 0.61138 0.72277 0.17531 0.0
H1837 H 0.54891 0.72972 0.18215 0.0
H1838 H 0.59298 0.76622 0.25045 0.0
C1839 C 0.5566 0.71344 0.29691 0.0
C1840 C 0.54847 0.68743 0.18233 0.0
C1841 C 0.62521 0.76151 0.26507 0.0
C1842 C 0.6037 0.75125 0.14297 0.0
H1843 H 0.51421 0.66494 0.23176 0.0
H1844 H 0.51792 0.68007 0.29408 0.0
H1845 H 0.57781 0.73032 0.35885 0.0
H1846 H 0.61599 0.75489 0.34145 0.0
H1847 H 0.65465 0.78914 0.21166 0.0
H1848 H 0.64241 0.78488 0.14483 0.0
H1849 H 0.58463 0.73041 0.08262 0.0
H1850 H 0.55579 0.69457 0.10435 0.0
H1851 H 0.54111 0.75595 0.16512 0.0
H1852 H 0.58503 0.79168 0.23722 0.0
H1853 H 0.62779 0.70334 0.17997 0.0
H1854 H 0.5969 0.67656 0.28322 0.0
C1855 C 0.33714 0.87149 0.21715 0.0
C1856 C 0.34935 0.86712 0.23891 0.0
C1857 C 0.34079 0.86215 0.27288 0.0
C1858 C 0.32397 0.86383 0.27011 0.0
N1859 N 0.32114 0.86947 0.23636 0.0
Co1860 Co 0.29879 0.87422 0.22096 0.0
N1861 N 0.28734 0.86862 0.2717 0.0
C1862 C 0.29507 0.86458 0.30163 0.0
C1863 C 0.2842 0.86174 0.33279 0.0
C1864 C 0.26839 0.86385 0.32215 0.0
C1865 C 0.27046 0.86768 0.28489 0.0
N1866 N 0.2761 0.87845 0.20546 0.0
C1867 C 0.25977 0.87572 0.22467 0.0
C1868 C 0.24684 0.87883 0.20276 0.0
C1869 C 0.25521 0.88364 0.16858 0.0
C1870 C 0.27265 0.88307 0.17142 0.0
N1871 N 0.31066 0.88041 0.17031 0.0
C1872 C 0.30354 0.88552 0.1406 0.0
C1873 C 0.31518 0.88961 0.10984 0.0
C1874 C 0.33086 0.88726 0.12055 0.0
C1875 C 0.3279 0.88189 0.15741 0.0
N1876 N 0.28205 0.84601 0.21346 0.0
C1877 C 0.25339 0.80671 0.20543 0.0
C1878 C 0.25887 0.82142 0.17704 0.0
C1879 C 0.27308 0.84067 0.18152 0.0
C1880 C 0.26351 0.81183 0.2373 0.0
C1881 C 0.27776 0.83142 0.24067 0.0
N1882 N 0.31527 0.90247 0.22836 0.0
C1883 C 0.3272 0.93652 0.20754 0.0
C1884 C 0.33884 0.9427 0.23737 0.0
C1885 C 0.33837 0.92836 0.26286 0.0
C1886 C 0.3267 0.90848 0.25773 0.0
C1887 C 0.31558 0.91659 0.20373 0.0
H1888 H 0.32721 0.89826 0.27778 0.0
H1889 H 0.30696 0.91302 0.18055 0.0
H1890 H 0.27617 0.85103 0.15886 0.0
H1891 H 0.28477 0.83451 0.26578 0.0
C1892 C 0.31171 0.86209 0.29925 0.0
C1893 C 0.34195 0.87844 0.17888 0.0
C1894 C 0.25551 0.86938 0.26323 0.0
C1895 C 0.28582 0.8863 0.14254 0.0
H1896 H 0.36332 0.86796 0.23138 0.0
H1897 H 0.34655 0.85846 0.297 0.0
H1898 H 0.28713 0.85805 0.3599 0.0
H1899 H 0.25644 0.8623 0.33978 0.0
H1900 H 0.23262 0.87741 0.21047 0.0
H1901 H 0.2491 0.88676 0.1444 0.0
H1902 H 0.31263 0.89392 0.08289 0.0
H1903 H 0.34316 0.88936 0.10322 0.0
H1904 H 0.25204 0.81816 0.15133 0.0
H1905 H 0.26001 0.80095 0.26 0.0
H1906 H 0.32678 0.94704 0.18733 0.0
H1907 H 0.34723 0.93244 0.28638 0.0
H1908 H 0.34097 0.22042 0.15276 0.0
H1909 H 0.31194 0.16753 0.09993 0.0
H1910 H 0.36301 0.20953 0.18102 0.0
H1911 H 0.33425 0.15679 0.12694 0.0
H1912 H 0.3629 0.13363 0.211 0.0
H1913 H 0.34088 0.14472 0.18315 0.0
H1914 H 0.39009 0.204 0.16977 0.0
H1915 H 0.41164 0.19287 0.19861 0.0
C1916 C 0.33959 0.20661 0.14679 0.0
C1917 C 0.32492 0.19488 0.12404 0.0
C1918 C 0.3522 0.20034 0.16287 0.0
C1919 C 0.35044 0.18219 0.15644 0.0
C1920 C 0.33588 0.17066 0.13309 0.0
C1921 C 0.32325 0.1769 0.11721 0.0
C1922 C 0.36886 0.149 0.20209 0.0
C1923 C 0.38891 0.16238 0.20676 0.0
C1924 C 0.35635 0.15538 0.18592 0.0
C1925 C 0.36367 0.17531 0.174 0.0
C1926 C 0.38379 0.18863 0.17895 0.0
C1927 C 0.39622 0.18225 0.19523 0.0
H1928 H 0.85935 0.17426 0.0851 0.0
H1929 H 0.82162 0.13613 0.17598 0.0
H1930 H 0.8666 0.20269 0.1168 0.0
H1931 H 0.82949 0.16442 0.20816 0.0
H1932 H 0.8321 0.22051 0.24113 0.0
H1933 H 0.824 0.19177 0.20945 0.0
H1934 H 0.88492 0.2195 0.1668 0.0
H1935 H 0.89267 0.24834 0.19804 0.0
C1936 C 0.85249 0.17192 0.11172 0.0
C1937 C 0.83994 0.15284 0.12794 0.0
C1938 C 0.85688 0.18824 0.13015 0.0
C1939 C 0.84878 0.18592 0.16527 0.0
C1940 C 0.83591 0.16684 0.18113 0.0
C1941 C 0.83155 0.15057 0.16275 0.0
C1942 C 0.84373 0.22024 0.2253 0.0
C1943 C 0.863 0.23644 0.22212 0.0
C1944 C 0.83915 0.20382 0.20714 0.0
C1945 C 0.85377 0.20327 0.18533 0.0
C1946 C 0.87319 0.21948 0.18281 0.0
C1947 C 0.87774 0.2359 0.20099 0.0
H1948 H 0.79163 0.65669 0.21048 0.0
H1949 H 0.80332 0.60866 0.20807 0.0
H1950 H 0.8238 0.67877 0.17915 0.0
H1951 H 0.83506 0.63033 0.17481 0.0
H1952 H 0.89993 0.6788 0.15037 0.0
H1953 H 0.86749 0.65574 0.17977 0.0
H1954 H 0.84184 0.68794 0.12374 0.0
H1955 H 0.87472 0.71149 0.09588 0.0
C1956 C 0.80125 0.65094 0.20349 0.0
C1957 C 0.79531 0.63113 0.21261 0.0
C1958 C 0.81955 0.66349 0.18489 0.0
C1959 C 0.83222 0.65645 0.17423 0.0
C1960 C 0.82602 0.63647 0.18306 0.0
C1961 C 0.80781 0.62399 0.20204 0.0
C1962 C 0.88723 0.68074 0.1442 0.0
C1963 C 0.88973 0.69691 0.12117 0.0
C1964 C 0.86859 0.66749 0.1609 0.0
C1965 C 0.85188 0.66995 0.15456 0.0
C1966 C 0.85435 0.68575 0.13007 0.0
C1967 C 0.8731 0.69913 0.11368 0.0
H1968 H 0.23293 0.34561 0.35526 0.0
H1969 H 0.1724 0.30732 0.39546 0.0
H1970 H 0.22304 0.36781 0.32406 0.0
H1971 H 0.16235 0.32992 0.36583 0.0
H1972 H 0.14619 0.36219 0.27624 0.0
H1973 H 0.15652 0.34053 0.30869 0.0
H1974 H 0.2128 0.39085 0.32815 0.0
H1975 H 0.20273 0.41212 0.29389 0.0
C1976 C 0.21757 0.3423 0.35813 0.0
C1977 C 0.20342 0.32492 0.3778 0.0
C1978 C 0.21183 0.355 0.34031 0.0
C1979 C 0.1918 0.35072 0.34206 0.0
C1980 C 0.17781 0.33358 0.36311 0.0
C1981 C 0.18356 0.32075 0.38059 0.0
C1982 C 0.16089 0.36846 0.28696 0.0
C1983 C 0.17379 0.38874 0.28218 0.0
C1984 C 0.16674 0.35613 0.30609 0.0
C1985 C 0.18553 0.36384 0.3214 0.0
C1986 C 0.19838 0.38423 0.31639 0.0
C1987 C 0.19262 0.39648 0.29688 0.0
H1988 H 0.62246 0.79454 0.26413 0.0
H1989 H 0.65768 0.76903 0.30508 0.0
H1990 H 0.64247 0.82353 0.29477 0.0
H1991 H 0.67861 0.79861 0.33484 0.0
H1992 H 0.70012 0.84661 0.41191 0.0
H1993 H 0.67943 0.81688 0.38319 0.0
H1994 H 0.67361 0.85163 0.29278 0.0
H1995 H 0.69305 0.88099 0.32241 0.0
C1996 C 0.63471 0.7953 0.27944 0.0
C1997 C 0.63862 0.77964 0.28216 0.0
C1998 C 0.64632 0.812 0.29687 0.0
C1999 C 0.66234 0.81362 0.31727 0.0
C2000 C 0.66629 0.79787 0.3198 0.0
C2001 C 0.65449 0.78101 0.3025 0.0
C2002 C 0.69412 0.84787 0.3862 0.0
C2003 C 0.69835 0.86632 0.36959 0.0
C2004 C 0.68249 0.83081 0.3694 0.0
C2005 C 0.67481 0.83172 0.33547 0.0
C2006 C 0.67897 0.85018 0.31906 0.0
C2007 C 0.69042 0.86715 0.33593 0.0
H2008 H 0.13196 0.81016 0.34865 0.0
H2009 H 0.159 0.86558 0.39331 0.0
H2010 H 0.16365 0.81901 0.3178 0.0
H2011 H 0.19112 0.87439 0.36369 0.0
H2012 H 0.23961 0.89294 0.27458 0.0
H2013 H 0.20788 0.88379 0.30597 0.0
H2014 H 0.1961 0.82407 0.32487 0.0
H2015 H 0.22736 0.83325 0.29205 0.0
C2016 C 0.1449 0.82413 0.35228 0.0
C2017 C 0.14319 0.83723 0.37319 0.0
C2018 C 0.16309 0.82922 0.33474 0.0
C2019 C 0.18007 0.8475 0.33799 0.0
C2020 C 0.17835 0.86036 0.35993 0.0
C2021 C 0.16006 0.85528 0.37726 0.0
C2022 C 0.23001 0.87783 0.28508 0.0
C2023 C 0.23573 0.86373 0.2806 0.0
C2024 C 0.21197 0.87259 0.3035 0.0
C2025 C 0.19933 0.85315 0.3182 0.0
C2026 C 0.20519 0.8391 0.31353 0.0
C2027 C 0.22313 0.84433 0.29486 0.0
H2028 H 0.66859 0.88052 0.80757 0.0
H2029 H 0.63905 0.82631 0.75896 0.0
H2030 H 0.69111 0.87058 0.83621 0.0
H2031 H 0.66207 0.8164 0.78645 0.0
H2032 H 0.69332 0.79636 0.87215 0.0
H2033 H 0.6704 0.80579 0.84265 0.0
H2034 H 0.71821 0.86569 0.82563 0.0
H2035 H 0.74055 0.85626 0.8563 0.0
C2036 C 0.66718 0.86655 0.80269 0.0
C2037 C 0.65215 0.85414 0.78121 0.0
C2038 C 0.68012 0.86084 0.81893 0.0
C2039 C 0.67852 0.84262 0.81378 0.0
C2040 C 0.66361 0.83038 0.79158 0.0
C2041 C 0.65056 0.83609 0.77548 0.0
C2042 C 0.69877 0.81151 0.86212 0.0
C2043 C 0.71866 0.82557 0.86638 0.0
C2044 C 0.68574 0.81694 0.84495 0.0
C2045 C 0.69236 0.83656 0.8316 0.0
C2046 C 0.71237 0.85053 0.83596 0.0
C2047 C 0.72527 0.84512 0.8533 0.0
H2048 H 0.17465 0.90006 0.86341 0.0
H2049 H 0.23537 0.91211 0.87105 0.0
H2050 H 0.1666 0.87141 0.83206 0.0
H2051 H 0.22745 0.88333 0.83915 0.0
H2052 H 0.19794 0.81763 0.81988 0.0
H2053 H 0.20783 0.84752 0.84843 0.0
H2054 H 0.17309 0.86243 0.77464 0.0
H2055 H 0.16273 0.83218 0.74668 0.0
C2056 C 0.1863 0.89656 0.85819 0.0
C2057 C 0.20565 0.90829 0.8695 0.0
C2058 C 0.18174 0.88023 0.83998 0.0
C2059 C 0.19639 0.87511 0.83278 0.0
C2060 C 0.21577 0.88679 0.84442 0.0
C2061 C 0.22036 0.90327 0.86256 0.0
C2062 C 0.19233 0.82724 0.80981 0.0
C2063 C 0.17934 0.82237 0.78122 0.0
C2064 C 0.19821 0.84451 0.82594 0.0
C2065 C 0.1912 0.85737 0.81399 0.0
C2066 C 0.17857 0.85274 0.78483 0.0
C2067 C 0.17277 0.83549 0.76856 0.0
H2068 H 0.11675 0.32673 0.84009 0.0
H2069 H 0.14114 0.2949 0.90064 0.0
H2070 H 0.14911 0.34735 0.80731 0.0
H2071 H 0.17342 0.31554 0.86889 0.0
H2072 H 0.22281 0.34105 0.78252 0.0
H2073 H 0.18936 0.32094 0.81079 0.0
H2074 H 0.18338 0.37255 0.81344 0.0
H2075 H 0.2167 0.39247 0.78406 0.0
C2076 C 0.12914 0.32436 0.84665 0.0
C2077 C 0.12649 0.30928 0.87288 0.0
C2078 C 0.14766 0.33613 0.82796 0.0
C2079 C 0.16392 0.33302 0.83509 0.0
C2080 C 0.16122 0.31815 0.86201 0.0
C2081 C 0.14277 0.30643 0.88056 0.0
C2082 C 0.21408 0.34795 0.78828 0.0
C2083 C 0.2221 0.3682 0.78041 0.0
C2084 C 0.19503 0.33651 0.80503 0.0
C2085 C 0.18362 0.34509 0.81475 0.0
C2086 C 0.19156 0.36537 0.80605 0.0
C2087 C 0.21063 0.37679 0.78925 0.0
H2088 H 0.85941 0.74074 0.64384 0.0
H2089 H 0.80295 0.69065 0.62616 0.0
H2090 H 0.87035 0.71954 0.67497 0.0
H2091 H 0.81424 0.66899 0.65574 0.0
H2092 H 0.83457 0.6355 0.73526 0.0
H2093 H 0.82231 0.65732 0.71043 0.0
H2094 H 0.88133 0.69779 0.66368 0.0
H2095 H 0.89342 0.67635 0.68997 0.0
C2096 C 0.84935 0.7251 0.64654 0.0
C2097 C 0.83031 0.71733 0.6326 0.0
C2098 C 0.85569 0.71287 0.66414 0.0
C2099 C 0.84332 0.69242 0.66776 0.0
C2100 C 0.82414 0.68464 0.65397 0.0
C2101 C 0.81768 0.69699 0.63672 0.0
C2102 C 0.84486 0.64928 0.7202 0.0
C2103 C 0.86491 0.65441 0.71463 0.0
C2104 C 0.83785 0.66168 0.70556 0.0
C2105 C 0.85075 0.6794 0.68482 0.0
C2106 C 0.87094 0.68453 0.67996 0.0
C2107 C 0.87794 0.67225 0.69488 0.0
H2108 H 0.36056 0.21712 0.66387 0.0
H2109 H 0.36906 0.18249 0.75102 0.0
H2110 H 0.34098 0.18794 0.63378 0.0
H2111 H 0.34832 0.15292 0.72175 0.0
H2112 H 0.327 0.10621 0.64082 0.0
H2113 H 0.34761 0.13543 0.67176 0.0
H2114 H 0.30997 0.15943 0.63616 0.0
H2115 H 0.29018 0.13074 0.60449 0.0
C2116 C 0.35821 0.20325 0.67678 0.0
C2117 C 0.3666 0.2023 0.70988 0.0
C2118 C 0.34669 0.18638 0.65965 0.0
C2119 C 0.34295 0.16791 0.67519 0.0
C2120 C 0.35106 0.16686 0.70863 0.0
C2121 C 0.36272 0.18383 0.72574 0.0
C2122 C 0.3234 0.11791 0.63949 0.0
C2123 C 0.3072 0.11639 0.62005 0.0
C2124 C 0.33502 0.13455 0.65747 0.0
C2125 C 0.33057 0.14995 0.65651 0.0
C2126 C 0.31419 0.14818 0.63706 0.0
C2127 C 0.30274 0.13167 0.61899 0.0
H2128 H 0.91073 0.22911 0.61922 0.0
H2129 H 0.89707 0.16901 0.63748 0.0
H2130 H 0.87852 0.2204 0.64858 0.0
H2131 H 0.86548 0.16032 0.66805 0.0
H2132 H 0.80132 0.14648 0.68548 0.0
H2133 H 0.83366 0.15574 0.65707 0.0
H2134 H 0.85963 0.21056 0.70478 0.0
H2135 H 0.82679 0.20132 0.732 0.0
C2136 C 0.90084 0.21407 0.62974 0.0
C2137 C 0.90634 0.19974 0.62618 0.0
C2138 C 0.88247 0.20906 0.64684 0.0
C2139 C 0.86925 0.1896 0.66082 0.0
C2140 C 0.87498 0.17537 0.65719 0.0
C2141 C 0.89318 0.18035 0.63991 0.0
C2142 C 0.81404 0.16043 0.69001 0.0
C2143 C 0.81169 0.1732 0.71085 0.0
C2144 C 0.83263 0.16576 0.67389 0.0
C2145 C 0.84944 0.18396 0.67852 0.0
C2146 C 0.84704 0.19658 0.70008 0.0
C2147 C 0.82833 0.19125 0.71603 0.0
H2148 H 0.97035 0.49288 0.4327 0.0
H2149 H 1.00105 0.54923 0.47364 0.0
H2150 H 0.9937 0.48387 0.46148 0.0
H2151 H 0.02397 0.54023 0.50367 0.0
H2152 H 0.07288 0.525 0.528 0.0
H2153 H 0.05069 0.53428 0.49592 0.0
H2154 H 1.00199 0.47515 0.5188 0.0
H2155 H 0.02465 0.46587 0.54945 0.0
C2156 C 0.98224 0.50335 0.44771 0.0
C2157 C 0.98405 0.52172 0.45093 0.0
C2158 C 0.99548 0.49816 0.4646 0.0
C2159 C 1.01074 0.51124 0.48527 0.0
C2160 C 1.01266 0.52983 0.48769 0.0
C2161 C 0.99953 0.53502 0.4706 0.0
C2162 C 0.05739 0.51407 0.5262 0.0
C2163 C 0.0504 0.49478 0.54136 0.0
C2164 C 0.04461 0.51937 0.50796 0.0
C2165 C 0.02443 0.50551 0.50462 0.0
C2166 C 0.01745 0.48619 0.52022 0.0
C2167 C 0.03032 0.48088 0.53822 0.0
H2168 H 0.48665 0.49015 0.44075 0.0
H2169 H 0.52818 0.48058 0.50527 0.0
H2170 H 0.49442 0.51898 0.47151 0.0
H2171 H 0.53524 0.50878 0.53703 0.0
H2172 H 0.55908 0.57271 0.55976 0.0
H2173 H 0.55164 0.54378 0.52919 0.0
H2174 H 0.48953 0.52835 0.52875 0.0
H2175 H 0.49728 0.55757 0.5586 0.0
C2176 C 0.49744 0.49417 0.46145 0.0
C2177 C 0.50669 0.48291 0.47056 0.0
C2178 C 0.50172 0.51059 0.47945 0.0
C2179 C 0.51541 0.51623 0.50698 0.0
C2180 C 0.52476 0.50504 0.51583 0.0
C2181 C 0.52049 0.48867 0.49786 0.0
C2182 C 0.54384 0.56294 0.55342 0.0
C2183 C 0.5287 0.56716 0.5617 0.0
C2184 C 0.53952 0.54637 0.53596 0.0
C2185 C 0.51995 0.53368 0.52633 0.0
C2186 C 0.5048 0.53789 0.53519 0.0
C2187 C 0.50914 0.55447 0.55262 0.0
H2188 H 0.54669 0.04911 0.43548 0.0
H2189 H 0.56933 0.01288 0.48465 0.0
H2190 H 0.51393 0.02723 0.46568 0.0
H2191 H 0.53701 0.99133 0.51606 0.0
H2192 H 0.47151 0.94644 0.54203 0.0
H2193 H 0.50367 0.96752 0.50983 0.0
H2194 H 0.49688 0.01796 0.52306 0.0
H2195 H 0.46426 0.99652 0.55389 0.0
C2196 C 0.54452 0.03633 0.45262 0.0
C2197 C 0.56035 0.03253 0.45771 0.0
C2198 C 0.52587 0.02392 0.47032 0.0
C2199 C 0.52272 1.00749 0.49368 0.0
C2200 C 0.53865 1.00361 0.49802 0.0
C2201 C 0.55721 0.01594 0.48014 0.0
C2202 C 0.47706 0.96208 0.53823 0.0
C2203 C 0.46557 0.96992 0.55072 0.0
C2204 C 0.49552 0.97421 0.51987 0.0
C2205 C 0.50303 0.99455 0.51365 0.0
C2206 C 0.49154 1.00238 0.52673 0.0
C2207 C 0.47298 0.99018 0.54488 0.0
H2208 H 0.46931 0.03199 0.99416 0.0
H2209 H 0.52716 0.06687 0.93973 0.0
H2210 H 0.4813 0.0118 0.02773 0.0
H2211 H 0.53913 0.04682 0.97263 0.0
H2212 H 0.56146 0.02086 0.06115 0.0
H2213 H 0.54756 0.04064 0.03342 0.0
H2214 H 0.49248 0.98791 0.01914 0.0
H2215 H 0.50645 0.9683 0.04742 0.0
C2216 C 0.48451 0.03516 0.98918 0.0
C2217 C 0.49731 0.05091 0.96438 0.0
C2218 C 0.4914 0.02366 0.00835 0.0
C2219 C 0.51127 0.02781 0.00322 0.0
C2220 C 0.52388 0.04343 0.97788 0.0
C2221 C 0.51699 0.05481 0.95872 0.0
C2222 C 0.54624 0.01362 0.05283 0.0
C2223 C 0.53491 0.99315 0.05673 0.0
C2224 C 0.53833 0.02487 0.03654 0.0
C2225 C 0.51893 0.01588 0.02368 0.0
C2226 C 0.50737 0.99535 0.02895 0.0
C2227 C 0.51533 0.98412 0.04513 0.0
H2228 H 0.95201 0.45557 0.9652 0.0
H2229 H 1.00044 0.44317 0.95821 0.0
H2230 H 0.9729 0.4845 0.99574 0.0
H2231 H 0.02158 0.47224 0.98921 0.0
H2232 H 0.05835 0.53818 0.00657 0.0
H2233 H 0.03801 0.50806 0.97887 0.0
H2234 H 0.98867 0.49401 0.05287 0.0
H2235 H 1.00892 0.52447 0.08003 0.0
C2236 C 0.96716 0.45904 0.9704 0.0
C2237 C 0.97463 0.44713 0.95951 0.0
C2238 C 0.9791 0.47555 0.98813 0.0
C2239 C 0.9989 0.48067 0.99524 0.0
C2240 C 1.00644 0.46879 0.98401 0.0
C2241 C 0.99438 0.45214 0.96639 0.0
C2242 C 0.04313 0.52871 0.01688 0.0
C2243 C 0.03522 0.53389 0.04532 0.0
C2244 C 0.03153 0.5113 0.00123 0.0
C2245 C 1.01165 0.4986 0.01348 0.0
C2246 C 1.00385 0.50356 0.04244 0.0
C2247 C 1.01551 0.52094 0.05826 0.0
H2248 H 0.55742 0.49208 0.96105 0.0
H2249 H 0.57067 0.55215 0.9484 0.0
H2250 H 0.52637 0.48282 0.99494 0.0
H2251 H 0.53926 0.54298 0.98069 0.0
H2252 H 0.49141 0.52475 0.06933 0.0
H2253 H 0.5231 0.53308 0.0386 0.0
H2254 H 0.49396 0.47846 0.99024 0.0
H2255 H 0.46268 0.47005 0.02223 0.0
C2256 C 0.5534 0.5032 0.96492 0.0
C2257 C 0.56615 0.52271 0.95145 0.0
C2258 C 0.53561 0.49794 0.98429 0.0
C2259 C 0.53015 0.51212 0.99068 0.0
C2260 C 0.54299 0.53167 0.97686 0.0
C2261 C 0.56084 0.53691 0.95777 0.0
C2262 C 0.492 0.51449 0.0525 0.0
C2263 C 0.47475 0.49682 0.048 0.0
C2264 C 0.51005 0.51931 0.03452 0.0
C2265 C 0.51117 0.50656 0.01147 0.0
C2266 C 0.49385 0.48859 0.00794 0.0
C2267 C 0.47589 0.48375 0.02613 0.0
H2268 H 0.2379 0.03336 0.95679 0.0
H2269 H 0.18852 1.00411 0.03521 0.0
H2270 H 0.24504 0.06508 0.9758 0.0
H2271 H 0.19618 0.03577 0.05537 0.0
H2272 H 0.23428 0.09784 0.1008 0.0
H2273 H 0.22639 0.0654 0.08442 0.0
H2274 H 0.22454 0.08398 0.97295 0.0
H2275 H 0.23201 0.11625 0.98941 0.0
C2276 C 0.2289 0.03372 0.97871 0.0
C2277 C 0.21302 0.01625 0.99519 0.0
C2278 C 0.23287 0.05184 0.98937 0.0
C2279 C 0.22117 0.05289 0.01709 0.0
C2280 C 0.20557 0.03538 0.03422 0.0
C2281 C 0.20133 0.01726 0.02299 0.0
C2282 C 0.23198 0.09489 0.07286 0.0
C2283 C 0.23368 0.10954 0.04639 0.0
C2284 C 0.22744 0.07635 0.06353 0.0
C2285 C 0.22499 0.07222 0.02739 0.0
C2286 C 0.22651 0.08681 0.00097 0.0
C2287 C 0.2306 0.1052 0.01041 0.0
H2288 H 1.01155 0.18316 0.02829 0.0
H2289 H 0.9898 0.21602 0.96338 0.0
H2290 H 0.97727 0.15878 0.04853 0.0
H2291 H 0.95548 0.19159 0.98285 0.0
H2292 H 0.89621 0.15204 0.04492 0.0
H2293 H 0.93104 0.17761 0.03288 0.0
H2294 H 0.9478 0.13317 0.02431 0.0
H2295 H 0.913 0.10779 0.03657 0.0
C2296 C 0.99939 0.1853 0.0189 0.0
C2297 C 1.0033 0.20165 0.99488 0.0
C2298 C 0.97973 0.17124 0.0301 0.0
C2299 C 0.96347 0.17313 0.01743 0.0
C2300 C 0.96753 0.18973 0.99373 0.0
C2301 C 0.98718 0.20373 0.98246 0.0
C2302 C 0.90747 0.14782 0.04112 0.0
C2303 C 0.90199 0.12795 0.04249 0.0
C2304 C 0.9274 0.16244 0.03386 0.0
C2305 C 0.94238 0.15755 0.02759 0.0
C2306 C 0.93684 0.13758 0.0296 0.0
C2307 C 0.91689 0.12298 0.03672 0.0
H2308 H 0.90982 0.80623 0.07059 0.0
H2309 H 0.87914 0.75538 0.0121 0.0
H2310 H 0.88419 0.81509 0.0562 0.0
H2311 H 0.85428 0.76475 0.99614 0.0
H2312 H 0.80299 0.77708 0.99293 0.0
H2313 H 0.82676 0.76726 0.01659 0.0
H2314 H 0.87293 0.82795 0.00747 0.0
H2315 H 0.84883 0.83755 0.98521 0.0
C2316 C 0.89762 0.79689 0.05477 0.0
C2317 C 0.89679 0.78016 0.04228 0.0
C2318 C 0.88298 0.8021 0.04612 0.0
C2319 C 0.86707 0.79074 0.02476 0.0
C2320 C 0.86607 0.77381 0.01295 0.0
C2321 C 0.88061 0.76858 0.02167 0.0
C2322 C 0.81819 0.78824 0.99644 0.0
C2323 C 0.82419 0.80801 0.98684 0.0
C2324 C 0.8319 0.78267 0.00969 0.0
C2325 C 0.85198 0.79676 0.01363 0.0
C2326 C 0.85767 0.81664 0.0052 0.0
C2327 C 0.84392 0.82218 0.99216 0.0
H2328 H 0.02306 0.18413 0.50898 0.0
H2329 H 0.03768 0.24455 0.50169 0.0
H2330 H 0.05694 0.19387 0.48737 0.0
H2331 H 0.07144 0.25452 0.47874 0.0
H2332 H 0.13572 0.26648 0.48469 0.0
H2333 H 0.10134 0.25694 0.50003 0.0
H2334 H 0.0814 0.20704 0.43893 0.0
H2335 H 0.11603 0.2161 0.42508 0.0
C2336 C 0.03356 0.19952 0.50226 0.0
C2337 C 0.02794 0.21364 0.50749 0.0
C2338 C 0.05295 0.20515 0.4896 0.0
C2339 C 0.06718 0.22505 0.48152 0.0
C2340 C 0.06114 0.23909 0.48538 0.0
C2341 C 0.04175 0.23343 0.49822 0.0
C2342 C 0.12406 0.25334 0.47475 0.0
C2343 C 0.12882 0.24195 0.454 0.0
C2344 C 0.10421 0.24801 0.48312 0.0
C2345 C 0.08838 0.23116 0.47082 0.0
C2346 C 0.09311 0.21997 0.44935 0.0
C2347 C 0.11303 0.2253 0.44103 0.0
H2348 H 0.84214 0.84134 0.4698 0.0
H2349 H 0.7872 0.80931 0.53422 0.0
H2350 H 0.83259 0.86571 0.44799 0.0
H2351 H 0.77771 0.83379 0.51342 0.0
H2352 H 0.75864 0.87319 0.45097 0.0
H2353 H 0.7676 0.84749 0.46309 0.0
H2354 H 0.82913 0.89169 0.4707 0.0
H2355 H 0.82 0.91725 0.45786 0.0
C2356 C 0.82783 0.83937 0.47869 0.0
C2357 C 0.81518 0.82327 0.50302 0.0
C2358 C 0.82245 0.85343 0.46663 0.0
C2359 C 0.80434 0.85179 0.47886 0.0
C2360 C 0.79159 0.83543 0.50285 0.0
C2361 C 0.79699 0.8214 0.51487 0.0
C2362 C 0.77411 0.8773 0.45467 0.0
C2363 C 0.78868 0.89712 0.45323 0.0
C2364 C 0.77925 0.86263 0.46194 0.0
C2365 C 0.79911 0.86743 0.46811 0.0
C2366 C 0.81375 0.88737 0.46564 0.0
C2367 C 0.80857 0.90205 0.45835 0.0
H2368 H 0.21616 0.9889 0.53842 0.0
H2369 H 0.19345 0.01578 0.46059 0.0
H2370 H 0.19276 0.95677 0.5204 0.0
H2371 H 0.17092 0.98385 0.44039 0.0
H2372 H 0.11737 0.92197 0.44036 0.0
H2373 H 0.1417 0.95468 0.45493 0.0
H2374 H 0.18398 0.93458 0.47835 0.0
H2375 H 0.15924 0.90182 0.46553 0.0
C2376 C 0.20649 0.98792 0.51667 0.0
C2377 C 0.20701 1.00489 0.5003 0.0
C2378 C 0.19308 0.96947 0.5061 0.0
C2379 C 0.17983 0.96744 0.47856 0.0
C2380 C 0.18061 0.98459 0.4619 0.0
C2381 C 0.19385 1.00302 0.47293 0.0
C2382 C 0.13192 0.92464 0.44846 0.0
C2383 C 0.1363 0.90926 0.45209 0.0
C2384 C 0.146 0.94347 0.45668 0.0
C2385 C 0.16499 0.94752 0.46818 0.0
C2386 C 0.16947 0.93214 0.47061 0.0
C2387 C 0.15529 0.91329 0.463 0.0
H2388 H 0.77405 0.90248 0.96876 0.0
H2389 H 0.8368 0.92318 0.94917 0.0
H2390 H 0.78152 0.93457 0.98421 0.0
H2391 H 0.84441 0.95551 0.96578 0.0
H2392 H 0.84515 0.01598 0.95795 0.0
H2393 H 0.84055 0.98425 0.94399 0.0
H2394 H 0.7962 0.95553 0.03169 0.0
H2395 H 0.80075 0.98697 0.04552 0.0
C2396 C 0.78949 0.91392 0.96768 0.0
C2397 C 0.8048 0.91024 0.95738 0.0
C2398 C 0.79381 0.93232 0.97699 0.0
C2399 C 0.81359 0.94768 0.97642 0.0
C2400 C 0.829 0.94406 0.96627 0.0
C2401 C 0.82466 0.9255 0.95708 0.0
C2402 C 0.83458 1.0029 0.97445 0.0
C2403 C 0.82307 1.00405 0.00246 0.0
C2404 C 0.83196 0.9847 0.96648 0.0
C2405 C 0.8178 0.96727 0.98639 0.0
C2406 C 0.80688 0.96857 0.0152 0.0
C2407 C 0.80948 0.98665 0.02311 0.0
H2408 H 0.12101 0.87197 0.96776 0.0
H2409 H 0.09794 0.91182 0.97356 0.0
H2410 H 0.08829 0.84454 0.98443 0.0
H2411 H 0.06508 0.88413 0.99262 0.0
H2412 H 1.00389 0.82734 0.99397 0.0
H2413 H 0.0363 0.85574 0.9737 0.0
H2414 H 0.06598 0.82897 0.03427 0.0
H2415 H 0.03378 0.80061 0.05297 0.0
C2416 C 0.10894 0.87496 0.97243 0.0
C2417 C 0.11227 0.89428 0.96878 0.0
C2418 C 0.09011 0.85911 0.98266 0.0
C2419 C 0.07388 0.86196 0.99019 0.0
C2420 C 0.07712 0.88127 0.98671 0.0
C2421 C 0.09606 0.89722 0.9762 0.0
C2422 C 0.01744 0.82762 0.00256 0.0
C2423 C 1.01642 0.81187 0.02498 0.0
C2424 C 0.036 0.84393 0.9913 0.0
C2425 C 0.05392 0.84478 0.00223 0.0
C2426 C 0.05267 0.82883 0.02465 0.0
C2427 C 0.03421 0.81258 0.03562 0.0
H2428 H 0.11329 0.19329 0.97817 0.0
H2429 H 0.15348 0.25556 0.97326 0.0
H2430 H 0.14042 0.18738 0.99715 0.0
H2431 H 0.18059 0.24974 0.98995 0.0
H2432 H 0.22149 0.23416 0.0549 0.0
H2433 H 0.19361 0.23925 0.03819 0.0
H2434 H 0.17066 0.18921 0.97665 0.0
H2435 H 0.1982 0.18378 0.99497 0.0
C2436 C 0.12785 0.20572 0.98108 0.0
C2437 C 0.13111 0.22491 0.97373 0.0
C2438 C 0.14352 0.20235 0.99154 0.0
C2439 C 0.16286 0.21807 0.99502 0.0
C2440 C 0.16596 0.2372 0.98806 0.0
C2441 C 0.15036 0.24055 0.97785 0.0
C2442 C 0.21056 0.22443 0.03748 0.0
C2443 C 0.21223 0.20889 0.02551 0.0
C2444 C 0.19456 0.22732 0.02778 0.0
C2445 C 0.1798 0.21473 0.00576 0.0
C2446 C 0.18155 0.19912 0.99387 0.0
C2447 C 0.1975 0.19617 0.00384 0.0
H2448 H 0.9135 0.77295 0.53636 0.0
H2449 H 0.93309 0.83481 0.52864 0.0
H2450 H 0.9469 0.78005 0.52014 0.0
H2451 H 0.96662 0.84195 0.50986 0.0
H2452 H 0.02952 0.84785 0.50799 0.0
H2453 H 0.99647 0.8417 0.52882 0.0
H2454 H 0.969 0.79062 0.46995 0.0
H2455 H 1.00182 0.79646 0.45078 0.0
C2456 C 0.92494 0.78814 0.53139 0.0
C2457 C 0.92045 0.80329 0.53433 0.0
C2458 C 0.94417 0.79222 0.5214 0.0
C2459 C 0.9596 0.8116 0.51334 0.0
C2460 C 0.95521 0.82684 0.51619 0.0
C2461 C 0.93588 0.82273 0.52652 0.0
C2462 C 1.01632 0.83525 0.49998 0.0
C2463 C 0.01811 0.82259 0.47792 0.0
C2464 C 0.99739 0.83179 0.51154 0.0
C2465 C 0.97992 0.81561 0.5012 0.0
C2466 C 0.98197 0.803 0.47915 0.0
C2467 C 1.00078 0.80637 0.46792 0.0
H2468 H 0.24295 0.21889 0.44029 0.0
H2469 H 0.18958 0.19832 0.50742 0.0
H2470 H 0.24386 0.1888 0.45895 0.0
H2471 H 0.19081 0.16828 0.52719 0.0
H2472 H 0.21968 0.13057 0.57966 0.0
H2473 H 0.21528 0.15891 0.56221 0.0
H2474 H 0.22089 0.15184 0.45018 0.0
H2475 H 0.22496 0.12333 0.46762 0.0
C2476 C 0.23143 0.20788 0.45912 0.0
C2477 C 0.21597 0.21072 0.47192 0.0
C2478 C 0.23191 0.19065 0.46971 0.0
C2479 C 0.21725 0.17604 0.49413 0.0
C2480 C 0.20224 0.17924 0.50819 0.0
C2481 C 0.20154 0.19638 0.49697 0.0
C2482 C 0.21964 0.1349 0.55132 0.0
C2483 C 0.22263 0.12469 0.525 0.0
C2484 C 0.21709 0.15108 0.54135 0.0
C2485 C 0.21788 0.15768 0.50484 0.0
C2486 C 0.22034 0.14717 0.47854 0.0
C2487 C 0.2225 0.13076 0.4885 0.0
H2488 H 0.80872 0.02412 0.52755 0.0
H2489 H 0.85349 0.01591 0.47449 0.0
H2490 H 0.83463 0.05538 0.54499 0.0
H2491 H 0.87929 0.04757 0.49045 0.0
H2492 H 0.92314 0.09924 0.55072 0.0
H2493 H 0.89776 0.0664 0.53818 0.0
H2494 H 0.85621 0.08753 0.51662 0.0
H2495 H 0.88137 0.12005 0.52939 0.0
C2496 C 0.82409 0.02887 0.51985 0.0
C2497 C 0.82891 0.01747 0.49935 0.0
C2498 C 0.83897 0.04697 0.52944 0.0
C2499 C 0.85911 0.05421 0.51879 0.0
C2500 C 0.864 0.04251 0.49933 0.0
C2501 C 0.84913 0.0244 0.48978 0.0
C2502 C 0.90862 0.09686 0.54312 0.0
C2503 C 0.90428 0.11228 0.54145 0.0
C2504 C 0.89403 0.07802 0.53593 0.0
C2505 C 0.87478 0.07417 0.52674 0.0
C2506 C 0.87063 0.08973 0.52452 0.0
C2507 C 0.88513 0.10846 0.53177 0.0
H2508 H 0.92989 0.45782 0.34454 0.0
H2509 H 0.87417 0.43598 0.40551 0.0
H2510 H 0.92053 0.42482 0.3319 0.0
H2511 H 0.86527 0.40267 0.39462 0.0
H2512 H 0.84586 0.34855 0.33168 0.0
H2513 H 0.8548 0.38091 0.34931 0.0
H2514 H 0.91618 0.39432 0.35574 0.0
H2515 H 0.90714 0.36221 0.33659 0.0
C2516 C 0.91561 0.446 0.35534 0.0
C2517 C 0.90273 0.44979 0.37578 0.0
C2518 C 0.91035 0.4269 0.34855 0.0
C2519 C 0.8921 0.41085 0.36222 0.0
C2520 C 0.87934 0.41458 0.38318 0.0
C2521 C 0.88457 0.43375 0.38984 0.0
C2522 C 0.86122 0.35845 0.33711 0.0
C2523 C 0.87586 0.35302 0.33242 0.0
C2524 C 0.86638 0.37698 0.34745 0.0
C2525 C 0.88631 0.3905 0.35372 0.0
C2526 C 0.90077 0.38461 0.3504 0.0
C2527 C 0.89561 0.36613 0.3398 0.0
H2528 H 0.56613 0.47981 0.40679 0.0
H2529 H 0.57462 0.43591 0.3612 0.0
H2530 H 0.60166 0.50338 0.39561 0.0
H2531 H 0.60998 0.45945 0.34863 0.0
H2532 H 0.67623 0.50262 0.34885 0.0
H2533 H 0.64206 0.4786 0.37057 0.0
H2534 H 0.62414 0.52231 0.34677 0.0
H2535 H 0.65829 0.54618 0.32646 0.0
C2536 C 0.57574 0.47521 0.39474 0.0
C2537 C 0.5678 0.45609 0.38515 0.0
C2538 C 0.59605 0.48872 0.38792 0.0
C2539 C 0.60886 0.48348 0.37092 0.0
C2540 C 0.60081 0.46406 0.36222 0.0
C2541 C 0.58054 0.45054 0.36928 0.0
C2542 C 0.66495 0.50704 0.34892 0.0
C2543 C 0.66986 0.52623 0.3363 0.0
C2544 C 0.64533 0.49328 0.36101 0.0
C2545 C 0.63014 0.49839 0.3605 0.0
C2546 C 0.63533 0.5178 0.34832 0.0
C2547 C 0.65491 0.53151 0.33645 0.0
H2548 H 0.54332 0.08331 0.36414 0.0
H2549 H 0.58477 0.14321 0.38039 0.0
H2550 H 0.51769 0.09208 0.3502 0.0
H2551 H 0.55952 0.15241 0.3646 0.0
H2552 H 0.50647 0.16235 0.35818 0.0
H2553 H 0.53018 0.15208 0.37942 0.0
H2554 H 0.50761 0.10718 0.30595 0.0
H2555 H 0.48308 0.11673 0.28697 0.0
C2556 C 0.54696 0.09843 0.36449 0.0
C2557 C 0.56608 0.11259 0.37321 0.0
C2558 C 0.53229 0.10354 0.35621 0.0
C2559 C 0.53639 0.12307 0.35574 0.0
C2560 C 0.55553 0.13718 0.3651 0.0
C2561 C 0.57012 0.13196 0.37402 0.0
C2562 C 0.50624 0.14991 0.34748 0.0
C2563 C 0.49254 0.13994 0.32174 0.0
C2564 C 0.52011 0.14421 0.35912 0.0
C2565 C 0.52099 0.12869 0.34462 0.0
C2566 C 0.50724 0.11886 0.3186 0.0
C2567 C 0.49319 0.12437 0.30746 0.0
H2568 H 0.68643 0.5135 0.83826 0.0
H2569 H 0.70257 0.57437 0.8306 0.0
H2570 H 0.72057 0.52264 0.8187 0.0
H2571 H 0.73631 0.58362 0.80966 0.0
H2572 H 0.7997 0.59528 0.81883 0.0
H2573 H 0.7652 0.58529 0.83359 0.0
H2574 H 0.74618 0.53601 0.77112 0.0
H2575 H 0.78105 0.54553 0.75783 0.0
C2576 C 0.69723 0.52881 0.83167 0.0
C2577 C 0.69188 0.54322 0.83578 0.0
C2578 C 0.71678 0.53409 0.82033 0.0
C2579 C 0.7314 0.55393 0.8128 0.0
C2580 C 0.72569 0.56823 0.81586 0.0
C2581 C 0.70627 0.56296 0.82743 0.0
C2582 C 0.78824 0.58216 0.80851 0.0
C2583 C 0.79334 0.57113 0.7874 0.0
C2584 C 0.76832 0.57656 0.81654 0.0
C2585 C 0.7527 0.55984 0.80347 0.0
C2586 C 0.75773 0.54887 0.782 0.0
C2587 C 0.77777 0.55446 0.77401 0.0
H2588 H 0.48813 0.25259 0.79532 0.0
H2589 H 0.42623 0.20951 0.79066 0.0
H2590 H 0.49656 0.22651 0.80747 0.0
H2591 H 0.43449 0.18328 0.80203 0.0
H2592 H 0.45349 0.14387 0.87061 0.0
H2593 H 0.44456 0.16889 0.85092 0.0
H2594 H 0.49918 0.20025 0.78466 0.0
H2595 H 0.50821 0.17537 0.80545 0.0
C2596 C 0.47641 0.23748 0.79615 0.0
C2597 C 0.45658 0.23301 0.79179 0.0
C2598 C 0.4812 0.2225 0.80304 0.0
C2599 C 0.46622 0.20267 0.80589 0.0
C2600 C 0.44641 0.19831 0.80058 0.0
C2601 C 0.44166 0.2133 0.79372 0.0
C2602 C 0.46335 0.15595 0.85131 0.0
C2603 C 0.48131 0.1575 0.83896 0.0
C2604 C 0.45826 0.1703 0.83991 0.0
C2605 C 0.4711 0.18669 0.81603 0.0
C2606 C 0.48898 0.18799 0.80326 0.0
C2607 C 0.49405 0.17361 0.81472 0.0
H2608 H 0.86136 0.34943 0.79503 0.0
H2609 H 0.88255 0.32174 0.87449 0.0
H2610 H 0.83755 0.3173 0.77623 0.0
H2611 H 0.8583 0.2896 0.85666 0.0
H2612 H 0.79422 0.2381 0.84859 0.0
H2613 H 0.81971 0.27044 0.86175 0.0
H2614 H 0.8365 0.28703 0.74863 0.0
H2615 H 0.81161 0.25421 0.7352 0.0
C2616 C 0.86131 0.33652 0.80774 0.0
C2617 C 0.87418 0.3381 0.83557 0.0
C2618 C 0.84756 0.31812 0.79722 0.0
C2619 C 0.84602 0.30091 0.81501 0.0
C2620 C 0.85906 0.30257 0.84256 0.0
C2621 C 0.87302 0.32094 0.85259 0.0
C2622 C 0.80347 0.24841 0.82637 0.0
C2623 C 0.80084 0.24319 0.79076 0.0
C2624 C 0.81807 0.26705 0.83401 0.0
C2625 C 0.83026 0.28124 0.80629 0.0
C2626 C 0.82729 0.27641 0.77057 0.0
C2627 C 0.81289 0.25758 0.76291 0.0
H2628 H 0.47422 0.25541 0.23446 0.0
H2629 H 0.4852 0.24257 0.34426 0.0
H2630 H 0.48109 0.28778 0.24782 0.0
H2631 H 0.49211 0.27506 0.35769 0.0
H2632 H 0.5166 0.34084 0.36257 0.0
H2633 H 0.51446 0.31059 0.3458 0.0
H2634 H 0.46378 0.30015 0.28276 0.0
H2635 H 0.46626 0.33056 0.29868 0.0
C2636 C 0.47821 0.25954 0.26144 0.0
C2637 C 0.47894 0.2463 0.2884 0.0
C2638 C 0.48211 0.2781 0.26912 0.0
C2639 C 0.48688 0.28395 0.30396 0.0
C2640 C 0.48859 0.27109 0.3305 0.0
C2641 C 0.48467 0.25246 0.3228 0.0
C2642 C 0.50519 0.33223 0.34469 0.0
C2643 C 0.49159 0.33814 0.33198 0.0
C2644 C 0.50384 0.31478 0.33539 0.0
C2645 C 0.48896 0.30292 0.31293 0.0
C2646 C 0.47558 0.30903 0.29976 0.0
C2647 C 0.47686 0.32638 0.3092 0.0
H2648 H 0.70264 0.1344 0.37356 0.0
H2649 H 0.67 0.15713 0.31159 0.0
H2650 H 0.73393 0.16431 0.35492 0.0
H2651 H 0.70161 0.18701 0.29178 0.0
H2652 H 0.77355 0.22453 0.24657 0.0
H2653 H 0.74048 0.19542 0.25704 0.0
H2654 H 0.74235 0.20283 0.37025 0.0
H2655 H 0.77463 0.23236 0.36 0.0
C2656 C 0.70226 0.1457 0.35538 0.0
C2657 C 0.68394 0.14362 0.34434 0.0
C2658 C 0.72011 0.16278 0.34479 0.0
C2659 C 0.72014 0.17798 0.32214 0.0
C2660 C 0.70195 0.17547 0.30925 0.0
C2661 C 0.68394 0.15844 0.32049 0.0
C2662 C 0.76675 0.2203 0.27357 0.0
C2663 C 0.77711 0.2308 0.30248 0.0
C2664 C 0.74784 0.20355 0.27952 0.0
C2665 C 0.73903 0.1968 0.3145 0.0
C2666 C 0.74895 0.2076 0.34308 0.0
C2667 C 0.76758 0.22447 0.33713 0.0
H2668 H 0.88085 0.56229 0.38375 0.0
H2669 H 0.8614 0.51492 0.31673 0.0
H2670 H 0.85265 0.56681 0.36647 0.0
H2671 H 0.83327 0.5198 0.29841 0.0
H2672 H 0.7995 0.55428 0.25179 0.0
H2673 H 0.82695 0.5478 0.26502 0.0
H2674 H 0.81417 0.54419 0.37877 0.0
H2675 H 0.78624 0.54962 0.36601 0.0
C2676 C 0.87055 0.55293 0.36511 0.0
C2677 C 0.87307 0.53804 0.35203 0.0
C2678 C 0.85441 0.55548 0.35527 0.0
C2679 C 0.84061 0.54351 0.33141 0.0
C2680 C 0.84365 0.52921 0.3169 0.0
C2681 C 0.85968 0.52641 0.32734 0.0
C2682 C 0.8022 0.55168 0.27966 0.0
C2683 C 0.79062 0.55277 0.30775 0.0
C2684 C 0.81804 0.54807 0.28718 0.0
C2685 C 0.82288 0.54574 0.32292 0.0
C2686 C 0.81103 0.54627 0.35093 0.0
C2687 C 0.79505 0.54953 0.34351 0.0
H2688 H 0.59945 0.16859 0.86049 0.0
H2689 H 0.57945 0.10665 0.86896 0.0
H2690 H 0.63286 0.17544 0.84144 0.0
H2691 H 0.61271 0.11346 0.8523 0.0
H2692 H 0.66767 0.12926 0.78337 0.0
H2693 H 0.63489 0.12374 0.8022 0.0
H2694 H 0.66265 0.17502 0.8605 0.0
H2695 H 0.69563 0.18081 0.8401 0.0
C2696 C 0.60211 0.15643 0.85843 0.0
C2697 C 0.58661 0.13705 0.86661 0.0
C2698 C 0.62138 0.16037 0.84793 0.0
C2699 C 0.62564 0.14503 0.8452 0.0
C2700 C 0.6101 0.12572 0.85348 0.0
C2701 C 0.59095 0.1218 0.8637 0.0
C2702 C 0.6667 0.13929 0.80029 0.0
C2703 C 0.6841 0.15546 0.81027 0.0
C2704 C 0.64791 0.13611 0.81133 0.0
C2705 C 0.64594 0.14887 0.83313 0.0
C2706 C 0.66349 0.165 0.8434 0.0
C2707 C 0.68238 0.16825 0.83207 0.0
H2708 H 0.86341 0.44296 0.85431 0.0
H2709 H 0.92648 0.48285 0.85925 0.0
H2710 H 0.85831 0.4706 0.83479 0.0
H2711 H 0.92125 0.51022 0.84227 0.0
H2712 H 0.91088 0.55403 0.77394 0.0
H2713 H 0.91445 0.52554 0.79235 0.0
H2714 H 0.85811 0.49908 0.85348 0.0
H2715 H 0.85431 0.52757 0.83333 0.0
C2716 C 0.87618 0.45756 0.85137 0.0
C2717 C 0.89535 0.46055 0.85869 0.0
C2718 C 0.87321 0.47347 0.84061 0.0
C2719 C 0.88935 0.49276 0.83683 0.0
C2720 C 0.90845 0.49565 0.84426 0.0
C2721 C 0.91141 0.47985 0.85468 0.0
C2722 C 0.89927 0.54206 0.79123 0.0
C2723 C 0.88227 0.54286 0.80203 0.0
C2724 C 0.90134 0.52576 0.80208 0.0
C2725 C 0.88662 0.5099 0.82465 0.0
C2726 C 0.86963 0.51083 0.83574 0.0
C2727 C 0.8675 0.52718 0.82453 0.0
H2728 H 0.5851 0.43755 0.89759 0.0
H2729 H 0.55145 0.46228 0.84503 0.0
H2730 H 0.55867 0.40474 0.88717 0.0
H2731 H 0.52542 0.42973 0.83422 0.0
H2732 H 0.49665 0.37282 0.78021 0.0
H2733 H 0.52196 0.40475 0.79572 0.0
H2734 H 0.52278 0.3795 0.90269 0.0
H2735 H 0.49743 0.3472 0.88683 0.0
C2736 C 0.57205 0.43604 0.88411 0.0
C2737 C 0.57068 0.45273 0.87166 0.0
C2738 C 0.55688 0.4172 0.87815 0.0
C2739 C 0.53999 0.41457 0.85946 0.0
C2740 C 0.53839 0.43119 0.848 0.0
C2741 C 0.55342 0.44993 0.8541 0.0
C2742 C 0.50225 0.374 0.80703 0.0
C2743 C 0.49504 0.35736 0.83218 0.0
C2744 C 0.51667 0.39239 0.81606 0.0
C2745 C 0.52444 0.39477 0.85051 0.0
C2746 C 0.51723 0.37817 0.87583 0.0
C2747 C 0.50258 0.3597 0.86686 0.0
H2748 H 0.57085 0.70238 0.625 0.0
H2749 H 0.52278 0.6768 0.70618 0.0
H2750 H 0.57935 0.73514 0.64001 0.0
H2751 H 0.53162 0.70962 0.72204 0.0
H2752 H 0.57012 0.77326 0.75917 0.0
H2753 H 0.56107 0.73994 0.74755 0.0
H2754 H 0.5613 0.75528 0.63372 0.0
H2755 H 0.56934 0.7882 0.64509 0.0
C2756 C 0.5623 0.70381 0.64643 0.0
C2757 C 0.54627 0.68707 0.66463 0.0
C2758 C 0.56708 0.72253 0.6549 0.0
C2759 C 0.55612 0.72498 0.68214 0.0
C2760 C 0.54043 0.70821 0.70112 0.0
C2761 C 0.53542 0.68944 0.69217 0.0
C2762 C 0.56789 0.76953 0.73168 0.0
C2763 C 0.57069 0.78373 0.70311 0.0
C2764 C 0.56281 0.75039 0.72506 0.0
C2765 C 0.56069 0.74502 0.68969 0.0
C2766 C 0.56319 0.75905 0.66123 0.0
C2767 C 0.56792 0.77803 0.66784 0.0
H2768 H 0.23155 0.80835 0.734 0.0
H2769 H 0.24261 0.77082 0.67175 0.0
H2770 H 0.26667 0.83371 0.72473 0.0
H2771 H 0.27759 0.79614 0.66158 0.0
H2772 H 0.34303 0.83972 0.66927 0.0
H2773 H 0.30908 0.81394 0.68809 0.0
H2774 H 0.28913 0.85663 0.67716 0.0
H2775 H 0.32322 0.8823 0.65913 0.0
C2776 C 0.24163 0.80552 0.71862 0.0
C2777 C 0.2345 0.7877 0.70362 0.0
C2778 C 0.26169 0.82008 0.71299 0.0
C2779 C 0.27509 0.81711 0.69222 0.0
C2780 C 0.26789 0.79894 0.6781 0.0
C2781 C 0.24785 0.78443 0.68375 0.0
C2782 C 0.33136 0.84353 0.6715 0.0
C2783 C 0.33564 0.86292 0.66288 0.0
C2784 C 0.31188 0.82877 0.68194 0.0
C2785 C 0.2962 0.83308 0.68397 0.0
C2786 C 0.30076 0.85272 0.67637 0.0
C2787 C 0.32026 0.86745 0.66594 0.0
H2788 H 0.24825 0.47638 0.71615 0.0
H2789 H 0.20912 0.41709 0.6929 0.0
H2790 H 0.22243 0.48488 0.70063 0.0
H2791 H 0.18295 0.42509 0.67917 0.0
H2792 H 0.14829 0.44952 0.61638 0.0
H2793 H 0.17346 0.44093 0.63536 0.0
H2794 H 0.19186 0.48275 0.71453 0.0
H2795 H 0.16732 0.49208 0.69353 0.0
C2796 C 0.23398 0.4651 0.70827 0.0
C2797 C 0.23079 0.44614 0.70535 0.0
C2798 C 0.21908 0.46991 0.6995 0.0
C2799 C 0.20047 0.45577 0.68815 0.0
C2800 C 0.19716 0.4366 0.68668 0.0
C2801 C 0.21214 0.43192 0.69482 0.0
C2802 C 0.15769 0.45677 0.63795 0.0
C2803 C 0.15575 0.47133 0.65368 0.0
C2804 C 0.17208 0.45176 0.64915 0.0
C2805 C 0.18482 0.46099 0.67682 0.0
C2806 C 0.18261 0.47543 0.69288 0.0
C2807 C 0.16837 0.48064 0.68124 0.0
H2808 H 0.37353 0.91391 0.15478 0.0
H2809 H 0.35419 0.85225 0.16594 0.0
H2810 H 0.40663 0.92104 0.1327 0.0
H2811 H 0.38727 0.85923 0.14408 0.0
H2812 H 0.45549 0.88354 0.15636 0.0
H2813 H 0.42085 0.87468 0.16909 0.0
H2814 H 0.42544 0.91693 0.08242 0.0
H2815 H 0.46029 0.92588 0.0698 0.0
C2816 C 0.37635 0.9019 0.152 0.0
C2817 C 0.36145 0.88257 0.16226 0.0
C2818 C 0.39525 0.90593 0.13927 0.0
C2819 C 0.39967 0.89071 0.13681 0.0
C2820 C 0.38446 0.87131 0.14605 0.0
C2821 C 0.36553 0.86728 0.15842 0.0
C2822 C 0.44904 0.89079 0.13977 0.0
C2823 C 0.46064 0.90543 0.11211 0.0
C2824 C 0.42914 0.88564 0.14692 0.0
C2825 C 0.42034 0.89513 0.12686 0.0
C2826 C 0.4318 0.90944 0.09856 0.0
C2827 C 0.45168 0.91443 0.09109 0.0
H2828 H 0.12322 0.48024 0.19699 0.0
H2829 H 0.17685 0.51161 0.12886 0.0
H2830 H 0.11382 0.50501 0.17822 0.0
H2831 H 0.16737 0.53636 0.10913 0.0
H2832 H 0.1557 0.58833 0.12197 0.0
H2833 H 0.16479 0.56264 0.13299 0.0
H2834 H 0.10284 0.51869 0.12944 0.0
H2835 H 0.09394 0.54452 0.11915 0.0
C2836 C 0.13278 0.49232 0.17741 0.0
C2837 C 0.15064 0.49399 0.1641 0.0
C2838 C 0.12741 0.5065 0.1665 0.0
C2839 C 0.1398 0.52277 0.14204 0.0
C2840 C 0.15755 0.52418 0.12824 0.0
C2841 C 0.16291 0.50994 0.1392 0.0
C2842 C 0.14415 0.57315 0.12296 0.0
C2843 C 0.12417 0.56834 0.1195 0.0
C2844 C 0.14931 0.55841 0.12921 0.0
C2845 C 0.13455 0.5385 0.1323 0.0
C2846 C 0.11459 0.5338 0.12779 0.0
C2847 C 0.10947 0.54855 0.12157 0.0
H2848 H 0.5216 0.67718 0.1285 0.0
H2849 H 0.54587 0.65302 0.20868 0.0
H2850 H 0.49873 0.6442 0.11214 0.0
H2851 H 0.52259 0.62 0.19329 0.0
H2852 H 0.46042 0.56528 0.18805 0.0
H2853 H 0.48481 0.59833 0.19974 0.0
H2854 H 0.49857 0.61471 0.08575 0.0
H2855 H 0.4748 0.58129 0.07374 0.0
C2856 C 0.52242 0.66487 0.14192 0.0
C2857 C 0.53594 0.66773 0.16917 0.0
C2858 C 0.5092 0.64595 0.1328 0.0
C2859 C 0.5088 0.62943 0.15142 0.0
C2860 C 0.52241 0.63237 0.17854 0.0
C2861 C 0.53584 0.65127 0.18719 0.0
C2862 C 0.46879 0.57569 0.16529 0.0
C2863 C 0.46556 0.57023 0.12984 0.0
C2864 C 0.48278 0.59477 0.1721 0.0
C2865 C 0.49378 0.60917 0.14373 0.0
C2866 C 0.49028 0.60399 0.10823 0.0
C2867 C 0.4765 0.58478 0.10139 0.0
H2868 H 0.13599 0.6503 0.71488 0.0
H2869 H 0.16054 0.67641 0.60738 0.0
H2870 H 0.12983 0.61875 0.69859 0.0
H2871 H 0.15361 0.64438 0.59051 0.0
H2872 H 0.15791 0.58694 0.58984 0.0
H2873 H 0.16424 0.6196 0.60138 0.0
H2874 H 0.10812 0.59354 0.66284 0.0
H2875 H 0.10196 0.56118 0.65162 0.0
C2876 C 0.14012 0.64934 0.6877 0.0
C2877 C 0.14891 0.66601 0.66256 0.0
C2878 C 0.13633 0.63112 0.67818 0.0
C2879 C 0.14111 0.62891 0.64313 0.0
C2880 C 0.14987 0.64555 0.61782 0.0
C2881 C 0.15365 0.66387 0.62738 0.0
C2882 C 0.14687 0.58825 0.60552 0.0
C2883 C 0.12959 0.5714 0.62032 0.0
C2884 C 0.15047 0.60696 0.6121 0.0
C2885 C 0.13683 0.60924 0.63352 0.0
C2886 C 0.11923 0.59239 0.64705 0.0
C2887 C 0.11568 0.57378 0.64059 0.0
H2888 H 0.36815 0.46864 0.71627 0.0
H2889 H 0.33723 0.49083 0.6477 0.0
H2890 H 0.39982 0.49835 0.69879 0.0
H2891 H 0.36926 0.52044 0.62896 0.0
H2892 H 0.44075 0.55672 0.58634 0.0
H2893 H 0.40746 0.52811 0.59757 0.0
H2894 H 0.40962 0.53703 0.7101 0.0
H2895 H 0.44213 0.56617 0.69903 0.0
C2896 C 0.36821 0.47984 0.69716 0.0
C2897 C 0.35023 0.47766 0.68387 0.0
C2898 C 0.38629 0.4968 0.68717 0.0
C2899 C 0.38694 0.51174 0.6628 0.0
C2900 C 0.36913 0.50913 0.64785 0.0
C2901 C 0.35088 0.49226 0.65853 0.0
C2902 C 0.434 0.55296 0.61335 0.0
C2903 C 0.44451 0.5638 0.64181 0.0
C2904 C 0.41495 0.53647 0.61974 0.0
C2905 C 0.40611 0.53026 0.65476 0.0
C2906 C 0.41622 0.54136 0.68291 0.0
C2907 C 0.435 0.558 0.6765 0.0
H2908 H 0.53259 0.84935 0.64159 0.0
H2909 H 0.54984 0.89593 0.70992 0.0
H2910 H 0.50428 0.85369 0.62197 0.0
H2911 H 0.52132 0.89971 0.69155 0.0
H2912 H 0.45221 0.87563 0.69041 0.0
H2913 H 0.48056 0.87069 0.7021 0.0
H2914 H 0.4999 0.88673 0.58998 0.0
H2915 H 0.47206 0.89291 0.57815 0.0
C2916 C 0.53037 0.86055 0.65218 0.0
C2917 C 0.54317 0.87209 0.67768 0.0
C2918 C 0.51424 0.86303 0.64099 0.0
C2919 C 0.51054 0.87689 0.65557 0.0
C2920 C 0.52374 0.8888 0.68016 0.0
C2921 C 0.54001 0.88662 0.69068 0.0
C2922 C 0.4625 0.87834 0.66809 0.0
C2923 C 0.45988 0.88512 0.63337 0.0
C2924 C 0.47869 0.87532 0.67486 0.0
C2925 C 0.49248 0.87847 0.64703 0.0
C2926 C 0.48942 0.88415 0.61191 0.0
C2927 C 0.47338 0.88758 0.60517 0.0
H2928 H 0.25794 0.4834 0.14227 0.0
H2929 H 0.25804 0.46311 0.25371 0.0
H2930 H 0.291 0.4875 0.13158 0.0
H2931 H 0.29183 0.46838 0.24296 0.0
H2932 H 0.36306 0.50627 0.19062 0.0
H2933 H 0.3308 0.50288 0.21024 0.0
H2934 H 0.3004 0.45554 0.14383 0.0
H2935 H 0.33234 0.45845 0.1254 0.0
C2936 C 0.26495 0.47989 0.16463 0.0
C2937 C 0.25494 0.47251 0.19878 0.0
C2938 C 0.28402 0.48242 0.15845 0.0
C2939 C 0.29387 0.47815 0.18638 0.0
C2940 C 0.28453 0.47184 0.22101 0.0
C2941 C 0.26521 0.46893 0.22713 0.0
C2942 C 0.34941 0.49496 0.18082 0.0
C2943 C 0.35014 0.48279 0.15617 0.0
C2944 C 0.33103 0.49303 0.19198 0.0
C2945 C 0.3132 0.47906 0.17825 0.0
C2946 C 0.31395 0.46649 0.15461 0.0
C2947 C 0.33218 0.46816 0.14408 0.0
H2948 H 0.52655 0.86615 0.16483 0.0
H2949 H 0.5832 0.89088 0.10628 0.0
H2950 H 0.52802 0.83615 0.18225 0.0
H2951 H 0.58443 0.86081 0.12194 0.0
H2952 H 0.59247 0.81456 0.18699 0.0
H2953 H 0.58967 0.84339 0.17031 0.0
H2954 H 0.52615 0.80724 0.16188 0.0
H2955 H 0.52884 0.77811 0.18099 0.0
C2956 C 0.53929 0.86508 0.15569 0.0
C2957 C 0.55481 0.8808 0.13442 0.0
C2958 C 0.54006 0.84784 0.16528 0.0
C2959 C 0.55636 0.84592 0.15363 0.0
C2960 C 0.5718 0.86175 0.13209 0.0
C2961 C 0.57109 0.87898 0.12286 0.0
C2962 C 0.57779 0.81264 0.18213 0.0
C2963 C 0.56083 0.79388 0.18601 0.0
C2964 C 0.57623 0.82929 0.1719 0.0
C2965 C 0.55768 0.82782 0.16454 0.0
C2966 C 0.54067 0.80904 0.16775 0.0
C2967 C 0.54223 0.79227 0.17829 0.0
H2968 H 0.21808 0.79619 0.17377 0.0
H2969 H 0.25104 0.77136 0.22861 0.0
H2970 H 0.19196 0.76365 0.16318 0.0
H2971 H 0.22469 0.73853 0.21789 0.0
H2972 H 0.16419 0.68096 0.2152 0.0
H2973 H 0.18935 0.71312 0.23165 0.0
H2974 H 0.18835 0.73896 0.12529 0.0
H2975 H 0.163 0.70723 0.10938 0.0
C2976 C 0.21983 0.78377 0.18343 0.0
C2977 C 0.23688 0.78648 0.20152 0.0
C2978 C 0.20479 0.76506 0.17736 0.0
C2979 C 0.2063 0.74842 0.18919 0.0
C2980 C 0.22298 0.751 0.20853 0.0
C2981 C 0.2381 0.76982 0.21465 0.0
C2982 C 0.16923 0.69357 0.1955 0.0
C2983 C 0.16159 0.69144 0.16089 0.0
C2984 C 0.1838 0.71196 0.20481 0.0
C2985 C 0.19089 0.72869 0.17985 0.0
C2986 C 0.18311 0.7265 0.1454 0.0
C2987 C 0.1687 0.7082 0.1361 0.0
H2988 H 0.31795 0.28743 0.13562 0.0
H2989 H 0.29851 0.29433 0.02957 0.0
H2990 H 0.33531 0.32298 0.13728 0.0
H2991 H 0.3159 0.32981 0.03116 0.0
H2992 H 0.33284 0.3913 0.06365 0.0
H2993 H 0.31447 0.35568 0.06353 0.0
H2994 H 0.36495 0.35238 0.10591 0.0
H2995 H 0.38327 0.38795 0.10618 0.0
C2996 C 0.31723 0.29651 0.11278 0.0
C2997 C 0.30685 0.28797 0.08244 0.0
C2998 C 0.32734 0.31691 0.11359 0.0
C2999 C 0.32708 0.32932 0.0843 0.0
C3000 C 0.31634 0.32074 0.05428 0.0
C3001 C 0.30648 0.30038 0.05327 0.0
C3002 C 0.34 0.38297 0.07306 0.0
C3003 C 0.35958 0.39256 0.08482 0.0
C3004 C 0.32951 0.36255 0.07277 0.0
C3005 C 0.3382 0.3511 0.08475 0.0
C3006 C 0.35772 0.36068 0.09678 0.0
C3007 C 0.3683 0.38112 0.09659 0.0
H3008 H 0.65164 0.97489 0.13016 0.0
H3009 H 0.65079 1.00904 0.03406 0.0
H3010 H 0.68814 0.99408 0.12829 0.0
H3011 H 0.68734 0.02863 0.03275 0.0
H3012 H 0.75047 0.07223 0.0752 0.0
H3013 H 0.71388 0.05283 0.07708 0.0
H3014 H 0.71754 0.99981 0.08213 0.0
H3015 H 0.75402 0.0192 0.0786 0.0
C3016 C 0.65928 0.98651 0.10863 0.0
C3017 C 0.64835 0.99042 0.08218 0.0
C3018 C 0.68016 0.99747 0.10754 0.0
C3019 C 0.69061 0.01293 0.08049 0.0
C3020 C 0.67969 0.01689 0.05407 0.0
C3021 C 0.65881 1.0056 0.05465 0.0
C3022 C 0.7434 0.05643 0.07698 0.0
C3023 C 0.75511 0.04724 0.07735 0.0
C3024 C 0.7225 0.04534 0.07782 0.0
C3025 C 0.71283 0.02479 0.07981 0.0
C3026 C 0.72454 0.0156 0.08091 0.0
C3027 C 0.74542 0.02669 0.07916 0.0
H3028 H 0.03119 0.72574 0.1192 0.0
H3029 H 0.9833 0.68208 0.06348 0.0
H3030 H 0.04871 0.70702 0.11904 0.0
H3031 H 1.0011 0.6638 0.06145 0.0
H3032 H 0.0276 0.62465 0.09404 0.0
H3033 H 1.01029 0.64355 0.09349 0.0
H3034 H 0.0671 0.69701 0.08679 0.0
H3035 H 0.08415 0.67773 0.08987 0.0
C3036 C 0.02451 0.71221 0.10656 0.0
C3037 C 1.00577 0.70534 0.09163 0.0
C3038 C 0.03462 0.70147 0.10619 0.0
C3039 C 0.02646 0.6837 0.09026 0.0
C3040 C 1.0078 0.67707 0.0748 0.0
C3041 C 0.99756 0.68763 0.07578 0.0
C3042 C 0.0363 0.64045 0.09244 0.0
C3043 C 0.05719 0.64971 0.09221 0.0
C3044 C 0.02641 0.6514 0.09181 0.0
C3045 C 0.03715 0.67201 0.09016 0.0
C3046 C 0.05816 0.68124 0.08886 0.0
C3047 C 0.06802 0.67022 0.09014 0.0
H3048 H 0.31607 0.30151 0.45228 0.0
H3049 H 0.31746 0.34172 0.36417 0.0
H3050 H 0.35219 0.32065 0.45415 0.0
H3051 H 0.35346 0.3613 0.36769 0.0
H3052 H 0.4152 0.40169 0.41384 0.0
H3053 H 0.3787 0.38226 0.4134 0.0
H3054 H 0.38285 0.32968 0.41205 0.0
H3055 H 0.41926 0.34918 0.41129 0.0
C3056 C 0.32393 0.31427 0.43305 0.0
C3057 C 0.31347 0.31984 0.40797 0.0
C3058 C 0.34472 0.32536 0.43441 0.0
C3059 C 0.35571 0.34258 0.41125 0.0
C3060 C 0.3454 0.34827 0.3863 0.0
C3061 C 0.32465 0.33699 0.38444 0.0
C3062 C 0.40824 0.38596 0.41381 0.0
C3063 C 0.42005 0.37692 0.41316 0.0
C3064 C 0.38739 0.37486 0.41331 0.0
C3065 C 0.37786 0.35441 0.41274 0.0
C3066 C 0.38969 0.34535 0.41288 0.0
C3067 C 0.41053 0.35649 0.41262 0.0
H3068 H 0.66991 0.02867 0.47798 0.0
H3069 H 0.68646 0.04769 0.36518 0.0
H3070 H 0.6877 1.01004 0.47789 0.0
H3071 H 0.70405 0.0289 0.365 0.0
H3072 H 0.71054 0.97204 0.37515 0.0
H3073 H 0.69445 0.99235 0.37347 0.0
H3074 H 0.72399 0.01727 0.46914 0.0
H3075 H 0.74049 0.99739 0.47008 0.0
C3076 C 0.67733 0.02886 0.45318 0.0
C3077 C 0.67681 0.03972 0.42163 0.0
C3078 C 0.68761 0.01828 0.45317 0.0
C3079 C 0.6973 0.01799 0.42143 0.0
C3080 C 0.69667 0.02875 0.38983 0.0
C3081 C 0.68672 0.03962 0.39001 0.0
C3082 C 0.71383 0.98213 0.39539 0.0
C3083 C 0.72684 0.98323 0.42262 0.0
C3084 C 0.7046 0.99371 0.39451 0.0
C3085 C 0.70786 1.00636 0.42129 0.0
C3086 C 0.72101 1.00755 0.44834 0.0
C3087 C 0.73052 0.99626 0.44879 0.0
H3088 H 0.04051 0.73135 0.36013 0.0
H3089 H 1.01038 0.7275 0.46066 0.0
H3090 H 0.0227 0.69576 0.3622 0.0
H3091 H 0.99244 0.69197 0.46242 0.0
H3092 H 0.94925 0.62945 0.43524 0.0
H3093 H 0.96679 0.66509 0.4327 0.0
H3094 H 0.02083 0.66693 0.39575 0.0
H3095 H 1.00317 0.63135 0.39731 0.0
C3096 C 0.03019 0.72298 0.3828 0.0
C3097 C 0.02697 0.7325 0.41019 0.0
C3098 C 0.01994 0.7025 0.38397 0.0
C3099 C 1.00609 0.69089 0.4125 0.0
C3100 C 1.00274 0.70038 0.43974 0.0
C3101 C 1.01305 0.72085 0.43865 0.0
C3102 C 0.96485 0.63744 0.42637 0.0
C3103 C 0.97474 0.62741 0.41651 0.0
C3104 C 0.97498 0.65792 0.42523 0.0
C3105 C 0.99528 0.669 0.41397 0.0
C3106 C 1.00517 0.65896 0.40418 0.0
C3107 C 0.99507 0.63848 0.40552 0.0
H3108 H 0.65787 0.63418 0.89064 0.0
H3109 H 0.70748 0.62978 0.93453 0.0
H3110 H 0.67643 0.66968 0.89222 0.0
H3111 H 0.72607 0.66532 0.93614 0.0
H3112 H 0.74115 0.7262 0.9723 0.0
H3113 H 0.72352 0.69076 0.9697 0.0
H3114 H 0.70734 0.69885 0.86138 0.0
H3115 H 0.725 0.73433 0.86397 0.0
C3116 C 0.6727 0.64079 0.90081 0.0
C3117 C 0.68118 0.62914 0.91255 0.0
C3118 C 0.6834 0.66114 0.9014 0.0
C3119 C 0.70274 0.67033 0.91424 0.0
C3120 C 0.71116 0.65867 0.92627 0.0
C3121 C 0.70057 0.63834 0.92516 0.0
C3122 C 0.73385 0.72041 0.94791 0.0
C3123 C 0.73445 0.73309 0.91835 0.0
C3124 C 0.72386 0.70012 0.94635 0.0
C3125 C 0.71398 0.69198 0.91538 0.0
C3126 C 0.71468 0.70466 0.88573 0.0
C3127 C 0.72493 0.72498 0.8871 0.0
H3128 H 0.29668 0.03792 0.90266 0.0
H3129 H 0.29948 0.98605 0.94088 0.0
H3130 H 0.33315 0.05671 0.89813 0.0
H3131 H 0.33566 1.00483 0.93755 0.0
H3132 H 0.39947 0.03826 0.89138 0.0
H3133 H 0.36325 0.02052 0.89428 0.0
H3134 H 0.36253 0.06987 0.93477 0.0
H3135 H 0.39901 0.08798 0.93066 0.0
C3136 C 0.30503 0.03049 0.91001 0.0
C3137 C 0.29502 1.01042 0.92224 0.0
C3138 C 0.32597 0.04133 0.90782 0.0
C3139 C 0.33747 0.03235 0.91749 0.0
C3140 C 0.32741 0.01227 0.92948 0.0
C3141 C 0.30656 1.0015 0.93179 0.0
C3142 C 0.39166 0.04547 0.90059 0.0
C3143 C 0.40231 0.06466 0.91062 0.0
C3144 C 0.3708 0.03517 0.90265 0.0
C3145 C 0.35982 0.04367 0.91486 0.0
C3146 C 0.37042 0.06287 0.92491 0.0
C3147 C 0.39138 0.0732 0.92296 0.0
H3148 H 0.99125 0.26975 0.89488 0.0
H3149 H 0.03644 0.3175 0.94808 0.0
H3150 H 0.97153 0.28639 0.89036 0.0
H3151 H 1.01642 0.33363 0.94456 0.0
H3152 H 0.96607 0.34718 0.96537 0.0
H3153 H 0.98408 0.32879 0.97024 0.0
H3154 H 0.97338 0.31697 0.85921 0.0
H3155 H 0.95527 0.33525 0.85441 0.0
C3156 C 0.99709 0.2838 0.90545 0.0
C3157 C 1.01549 0.29211 0.92209 0.0
C3158 C 0.9857 0.2933 0.90299 0.0
C3159 C 0.9923 0.31127 0.91742 0.0
C3160 C 1.01069 0.31963 0.93382 0.0
C3161 C 0.02217 0.31028 0.93591 0.0
C3162 C 0.96734 0.34045 0.94214 0.0
C3163 C 0.95928 0.34275 0.90948 0.0
C3164 C 0.97782 0.33006 0.94482 0.0
C3165 C 0.98027 0.32148 0.91505 0.0
C3166 C 0.97169 0.32329 0.8827 0.0
C3167 C 0.96144 0.33389 0.87989 0.0
H3168 H 0.73392 0.72247 0.63169 0.0
H3169 H 0.73307 0.74178 0.52018 0.0
H3170 H 0.69749 0.70429 0.63545 0.0
H3171 H 0.69657 0.72354 0.52394 0.0
H3172 H 0.6303 0.70338 0.56112 0.0
H3173 H 0.6667 0.7229 0.55526 0.0
H3174 H 0.67128 0.67452 0.6085 0.0
H3175 H 0.63517 0.65483 0.61327 0.0
C3176 C 0.72595 0.723 0.60808 0.0
C3177 C 0.73643 0.73354 0.57562 0.0
C3178 C 0.70508 0.71245 0.61014 0.0
C3179 C 0.69411 0.71237 0.57992 0.0
C3180 C 0.70455 0.72335 0.54772 0.0
C3181 C 0.72546 0.73369 0.54552 0.0
C3182 C 0.63902 0.69677 0.57109 0.0
C3183 C 0.6296 0.67751 0.58812 0.0
C3184 C 0.65992 0.70802 0.56787 0.0
C3185 C 0.6719 0.70036 0.58189 0.0
C3186 C 0.66251 0.68102 0.59814 0.0
C3187 C 0.64172 0.66974 0.60095 0.0
H3188 H 0.28853 1.00401 0.51631 0.0
H3189 H 0.30137 0.0172 0.62625 0.0
H3190 H 0.30679 0.98584 0.52027 0.0
H3191 H 0.3196 0.99902 0.63023 0.0
H3192 H 0.37157 0.98771 0.60586 0.0
H3193 H 0.35169 1.00397 0.60195 0.0
H3194 H 0.30542 0.95538 0.55271 0.0
H3195 H 0.32501 0.93857 0.55776 0.0
C3196 C 0.29519 1.00297 0.54137 0.0
C3197 C 0.29354 0.01213 0.57094 0.0
C3198 C 0.30554 0.99244 0.5437 0.0
C3199 C 0.31476 0.99105 0.57549 0.0
C3200 C 0.31284 0.99996 0.60522 0.0
C3201 C 0.30225 1.01024 0.60307 0.0
C3202 C 0.35705 0.98024 0.59465 0.0
C3203 C 0.3499 0.96158 0.58261 0.0
C3204 C 0.34565 0.98966 0.59233 0.0
C3205 C 0.32686 0.98091 0.57738 0.0
C3206 C 0.31987 0.96255 0.56429 0.0
C3207 C 0.33119 0.95296 0.56703 0.0
H3208 H 0.08944 0.39426 0.55743 0.0
H3209 H 0.0338 0.38706 0.6 0.0
H3210 H 0.07357 0.35895 0.55387 0.0
H3211 H 0.01835 0.35191 0.59759 0.0
H3212 H 1.00446 0.28861 0.62705 0.0
H3213 H 0.02177 0.32406 0.62923 0.0
H3214 H 0.04594 0.33229 0.52076 0.0
H3215 H 0.02863 0.29678 0.51858 0.0
C3216 C 0.07384 0.38526 0.56577 0.0
C3217 C 0.06304 0.39366 0.57937 0.0
C3218 C 0.06478 0.36499 0.56388 0.0
C3219 C 0.04478 0.35261 0.57589 0.0
C3220 C 0.0339 0.361 0.58884 0.0
C3221 C 0.04284 0.38121 0.59031 0.0
C3222 C 1.01365 0.29797 0.60382 0.0
C3223 C 1.01513 0.28987 0.57262 0.0
C3224 C 0.02343 0.31828 0.60495 0.0
C3225 C 0.03515 0.33099 0.57509 0.0
C3226 C 0.0371 0.3229 0.54424 0.0
C3227 C 0.02708 0.30258 0.54293 0.0
H3228 H 0.97925 0.67483 0.76563 0.0
H3229 H 0.98286 0.63126 0.70871 0.0
H3230 H 1.01544 0.6932 0.76638 0.0
H3231 H 0.01914 0.65001 0.70774 0.0
H3232 H 0.08411 0.6789 0.73545 0.0
H3233 H 0.04774 0.6598 0.7393 0.0
H3234 H 0.0449 0.71344 0.73395 0.0
H3235 H 0.0812 0.73217 0.73253 0.0
C3236 C 0.98782 0.66932 0.75278 0.0
C3237 C 0.9781 0.65158 0.73704 0.0
C3238 C 1.0087 0.67992 0.75305 0.0
C3239 C 0.02058 0.6733 0.73703 0.0
C3240 C 1.01074 0.65554 0.72107 0.0
C3241 C 0.98984 0.64478 0.72135 0.0
C3242 C 0.07561 0.68649 0.73564 0.0
C3243 C 0.08547 0.70701 0.7337 0.0
C3244 C 0.05469 0.67558 0.73735 0.0
C3245 C 0.04302 0.68491 0.73665 0.0
C3246 C 0.05308 0.70552 0.73515 0.0
C3247 C 0.07397 0.71636 0.73403 0.0
H3248 H 0.31496 0.34415 0.74234 0.0
H3249 H 0.36804 0.39557 0.76952 0.0
H3250 H 0.33315 0.32614 0.74392 0.0
H3251 H 0.38651 0.37786 0.76913 0.0
H3252 H 0.40854 0.33449 0.80348 0.0
H3253 H 0.39085 0.35317 0.80154 0.0
H3254 H 0.35774 0.32243 0.71278 0.0
H3255 H 0.37507 0.30333 0.71593 0.0
C3256 C 0.33049 0.35166 0.74878 0.0
C3257 C 0.3399 0.3714 0.75593 0.0
C3258 C 0.34107 0.34136 0.74911 0.0
C3259 C 0.36144 0.35046 0.75648 0.0
C3260 C 0.37083 0.3702 0.7637 0.0
C3261 C 0.36024 0.38048 0.76348 0.0
C3262 C 0.39755 0.33188 0.78344 0.0
C3263 C 0.39319 0.31752 0.7598 0.0
C3264 C 0.38745 0.34264 0.78215 0.0
C3265 C 0.37272 0.33938 0.75704 0.0
C3266 C 0.36869 0.3252 0.7329 0.0
C3267 C 0.37876 0.31438 0.73435 0.0
H3268 H 0.63217 0.96681 0.69572 0.0
H3269 H 0.65897 0.96238 0.79526 0.0
H3270 H 0.64982 1.00229 0.69466 0.0
H3271 H 0.67683 0.99796 0.79388 0.0
H3272 H 0.72131 0.06275 0.75992 0.0
H3273 H 0.70359 0.0272 0.76069 0.0
H3274 H 0.65097 0.02873 0.72548 0.0
H3275 H 0.66887 0.06434 0.72371 0.0
C3276 C 0.64163 0.97332 0.71766 0.0
C3277 C 0.64398 0.96152 0.74568 0.0
C3278 C 0.65183 0.99377 0.71698 0.0
C3279 C 0.6648 1.00311 0.74418 0.0
C3280 C 0.66721 0.99135 0.77217 0.0
C3281 C 0.65693 0.97087 0.77294 0.0
C3282 C 0.70603 0.05556 0.75191 0.0
C3283 C 0.6966 0.06654 0.74163 0.0
C3284 C 0.69577 0.03509 0.75281 0.0
C3285 C 0.67578 0.02498 0.74325 0.0
C3286 C 0.66638 0.03597 0.73273 0.0
C3287 C 0.67661 0.05643 0.73204 0.0
H3288 H 0.34247 0.96129 0.29802 0.0
H3289 H 0.36281 0.97224 0.18628 0.0
H3290 H 0.36102 0.99647 0.30377 0.0
H3291 H 0.38119 1.00735 0.19193 0.0
H3292 H 0.42718 0.06749 0.22705 0.0
H3293 H 0.41026 0.03228 0.22278 0.0
H3294 H 0.35835 0.02584 0.27984 0.0
H3295 H 0.37488 0.06101 0.28321 0.0
C3296 C 0.35106 0.97119 0.2748 0.0
C3297 C 0.3511 0.96397 0.24167 0.0
C3298 C 0.36153 0.99135 0.27799 0.0
C3299 C 0.37252 1.00473 0.24826 0.0
C3300 C 0.37299 0.99745 0.2154 0.0
C3301 C 0.36233 0.97734 0.2121 0.0
C3302 C 0.41208 0.05866 0.23833 0.0
C3303 C 0.4025 0.06728 0.25554 0.0
C3304 C 0.40241 0.03843 0.23602 0.0
C3305 C 0.38299 0.02623 0.25115 0.0
C3306 C 0.37343 0.03477 0.26845 0.0
C3307 C 0.38299 0.055 0.27044 0.0
H3308 H 0.96522 0.35844 0.30805 0.0
H3309 H 0.96378 0.34174 0.20051 0.0
H3310 H 1.00163 0.37688 0.30272 0.0
H3311 H 1.00027 0.36024 0.19512 0.0
H3312 H 0.06376 0.37198 0.22159 0.0
H3313 H 0.02759 0.3561 0.2248 0.0
H3314 H 0.03045 0.40637 0.26805 0.0
H3315 H 0.06686 0.42276 0.26367 0.0
C3316 C 0.9727 0.35883 0.28316 0.0
C3317 C 0.96161 0.34854 0.25475 0.0
C3318 C 0.99355 0.3695 0.28003 0.0
C3319 C 1.00387 0.36994 0.24859 0.0
C3320 C 0.99277 0.36003 0.21984 0.0
C3321 C 0.97188 0.34958 0.22278 0.0
C3322 C 0.05682 0.37989 0.23127 0.0
C3323 C 0.06846 0.39886 0.24198 0.0
C3324 C 0.03599 0.3707 0.23317 0.0
C3325 C 0.02611 0.38002 0.24634 0.0
C3326 C 0.03762 0.39876 0.25787 0.0
C3327 C 0.05852 0.40811 0.25555 0.0
H3328 H 0.69078 0.63882 0.19338 0.0
H3329 H 0.66355 0.61219 0.29929 0.0
H3330 H 0.67225 0.6566 0.18989 0.0
H3331 H 0.64492 0.62982 0.2956 0.0
H3332 H 0.60005 0.65018 0.26001 0.0
H3333 H 0.61807 0.63182 0.26403 0.0
H3334 H 0.67107 0.68301 0.21711 0.0
H3335 H 0.6532 0.70133 0.21334 0.0
C3336 C 0.68095 0.63681 0.21602 0.0
C3337 C 0.67871 0.624 0.24659 0.0
C3338 C 0.67029 0.64701 0.21401 0.0
C3339 C 0.65706 0.64468 0.24249 0.0
C3340 C 0.65472 0.63177 0.27293 0.0
C3341 C 0.66542 0.62162 0.27499 0.0
C3342 C 0.61559 0.65757 0.25089 0.0
C3343 C 0.62507 0.67723 0.23608 0.0
C3344 C 0.62594 0.64703 0.25314 0.0
C3345 C 0.64601 0.65587 0.24061 0.0
C3346 C 0.65553 0.67558 0.2263 0.0
C3347 C 0.64523 0.68611 0.22414 0.0
loop_
_geom_bond_atom_site_label_1
_geom_bond_atom_site_label_2
_geom_bond_distance
_geom_bond_site_symmetry_2
_ccdc_geom_bond_type
C0 C1 1.443 . S
C0 N4 1.376 . S
C0 C38 1.389 . S
C1 C0 1.443 . S
C1 C2 1.340 . S
C1 H41 0.951 . S
C2 C1 1.340 . S
C2 C3 1.439 . S
C2 H42 0.950 1_554 S
C3 C2 1.439 . S
C3 N4 1.374 . S
C3 C37 1.395 . S
N4 C0 1.376 . S
N4 C3 1.374 . S
N4 Co5 2.008 . S
Co5 N4 2.008 . S
Co5 N6 1.995 . S
Co5 N11 2.008 . S
Co5 N16 1.995 . S
Co5 N21 2.282 . S
Co5 N27 2.282 . S
N6 Co5 1.995 . S
N6 C7 1.376 . S
N6 C10 1.383 . S
C7 N6 1.376 . S
C7 C8 1.446 . S
C7 C37 1.391 . S
C8 C7 1.446 . S
C8 C9 1.339 . S
C8 H43 0.949 . S
C9 C8 1.339 . S
C9 C10 1.439 . S
C9 H44 0.950 . S
C10 N6 1.383 . S
C10 C9 1.439 . S
C10 C39 1.392 . S
N11 Co5 2.008 . S
N11 C12 1.376 . S
N11 C15 1.374 . S
C12 N11 1.376 . S
C12 C13 1.443 . S
C12 C39 1.389 . S
C13 C12 1.443 . S
C13 C14 1.340 . S
C13 H45 0.951 . S
C14 C13 1.340 . S
C14 C15 1.439 . S
C14 H46 0.950 . S
C15 N11 1.374 . S
C15 C14 1.439 . S
C15 C40 1.395 . S
N16 Co5 1.995 . S
N16 C17 1.376 . S
N16 C20 1.383 . S
C17 N16 1.376 . S
C17 C18 1.446 . S
C17 C40 1.391 . S
C18 C17 1.446 . S
C18 C19 1.339 . S
C18 H47 0.949 . S
C19 C18 1.339 . S
C19 C20 1.439 . S
C19 H48 0.950 . S
C20 N16 1.383 . S
C20 C19 1.439 . S
C20 C38 1.392 . S
N21 Co5 2.282 . S
N21 C24 1.332 . S
N21 C26 1.332 . S
C22 C23 1.386 . S
C22 C25 1.388 . S
C23 C22 1.386 . S
C23 C24 1.382 . S
C23 H49 0.950 . S
C24 N21 1.332 . S
C24 C23 1.382 . S
C24 H35 0.952 . S
C25 C22 1.388 . S
C25 C26 1.382 . S
C25 H50 0.950 . S
C26 N21 1.332 . S
C26 C25 1.382 . S
C26 H36 0.948 . S
N27 Co5 2.282 . S
N27 C31 1.332 . S
N27 C32 1.332 . S
C28 C29 1.388 . S
C28 C32 1.382 . S
C28 H51 0.950 . S
C29 C28 1.388 . S
C29 C30 1.386 . S
C30 C29 1.386 . S
C30 C31 1.382 . S
C30 H52 0.950 . S
C31 N27 1.332 . S
C31 C30 1.382 . S
C31 H33 0.952 . S
C32 N27 1.332 . S
C32 C28 1.382 . S
C32 H34 0.948 . S
H33 C31 0.952 . S
H34 C32 0.948 . S
H35 C24 0.952 . S
H36 C26 0.948 . S
C37 C3 1.395 . S
C37 C7 1.391 . S
C38 C0 1.389 . S
C38 C20 1.392 . S
C39 C10 1.392 . S
C39 C12 1.389 . S
C40 C15 1.395 . S
C40 C17 1.391 . S
H41 C1 0.951 . S
H42 C2 0.950 1_556 S
H43 C8 0.949 . S
H44 C9 0.950 . S
H45 C13 0.951 . S
H46 C14 0.950 . S
H47 C18 0.949 . S
H48 C19 0.950 . S
H49 C23 0.950 . S
H50 C25 0.950 . S
H51 C28 0.950 . S
H52 C30 0.950 . S
C53 C54 1.443 . S
C53 N57 1.376 . S
C53 C91 1.389 . S
C54 C53 1.443 . S
C54 C55 1.340 . S
C54 H94 0.951 . S
C55 C54 1.340 . S
C55 C56 1.439 . S
C55 H95 0.950 . S
C56 C55 1.439 . S
C56 N57 1.374 . S
C56 C90 1.395 . S
N57 C53 1.376 . S
N57 C56 1.374 . S
N57 Co58 2.008 . S
Co58 N57 2.008 . S
Co58 N59 1.995 . S
Co58 N64 2.008 . S
Co58 N69 1.995 . S
Co58 N74 2.282 . S
Co58 N80 2.282 . S
N59 Co58 1.995 . S
N59 C60 1.376 . S
N59 C63 1.383 . S
C60 N59 1.376 . S
C60 C61 1.446 . S
C60 C90 1.391 . S
C61 C60 1.446 . S
C61 C62 1.339 . S
C61 H96 0.949 . S
C62 C61 1.339 . S
C62 C63 1.439 . S
C62 H97 0.950 . S
C63 N59 1.383 . S
C63 C62 1.439 . S
C63 C92 1.392 . S
N64 Co58 2.008 . S
N64 C65 1.376 . S
N64 C68 1.374 . S
C65 N64 1.376 . S
C65 C66 1.443 . S
C65 C92 1.389 . S
C66 C65 1.443 . S
C66 C67 1.340 1_554 S
C66 H98 0.951 . S
C67 C66 1.340 1_556 S
C67 C68 1.439 1_556 S
C67 H99 0.950 . S
C68 N64 1.374 . S
C68 C67 1.439 1_554 S
C68 C93 1.395 1_554 S
N69 Co58 1.995 . S
N69 C70 1.387 . S
N69 C73 1.383 . S
C70 N69 1.387 . S
C70 C71 1.441 1_554 S
C70 C93 1.387 1_554 S
C71 C70 1.441 1_556 S
C71 C72 1.334 1_556 S
C71 H100 0.949 . S
C72 C71 1.334 1_554 S
C72 C73 1.445 . S
C72 H101 0.948 1_554 S
C73 N69 1.383 . S
C73 C72 1.445 . S
C73 C91 1.392 . S
N74 Co58 2.282 . S
N74 C77 1.332 . S
N74 C79 1.332 . S
C75 C76 1.386 . S
C75 C78 1.388 . S
C76 C75 1.386 . S
C76 C77 1.382 . S
C76 H102 0.950 1_554 S
C77 N74 1.332 . S
C77 C76 1.382 . S
C77 H88 0.952 . S
C78 C75 1.388 . S
C78 C79 1.382 . S
C78 H103 0.950 1_545 S
C79 N74 1.332 . S
C79 C78 1.382 . S
C79 H89 0.948 . S
N80 Co58 2.282 . S
N80 C84 1.332 . S
N80 C85 1.332 . S
C81 C82 1.388 . S
C81 C85 1.382 . S
C81 H104 0.950 . S
C82 C81 1.388 . S
C82 C83 1.386 . S
C83 C82 1.386 . S
C83 C84 1.382 . S
C83 H105 0.950 . S
C84 N80 1.332 . S
C84 C83 1.382 . S
C84 H86 0.952 . S
C85 N80 1.332 . S
C85 C81 1.382 . S
C85 H87 0.948 . S
H86 C84 0.952 . S
H87 C85 0.948 . S
H88 C77 0.952 . S
H89 C79 0.948 . S
C90 C56 1.395 . S
C90 C60 1.391 . S
C91 C53 1.389 . S
C91 C73 1.392 . S
C92 C63 1.392 . S
C92 C65 1.389 . S
C93 C68 1.395 1_556 S
C93 C70 1.387 1_556 S
H94 C54 0.951 . S
H95 C55 0.950 . S
H96 C61 0.949 . S
H97 C62 0.950 . S
H98 C66 0.951 . S
H99 C67 0.950 . S
H100 C71 0.949 . S
H101 C72 0.948 1_556 S
H102 C76 0.950 1_556 S
H103 C78 0.950 1_565 S
H104 C81 0.950 . S
H105 C83 0.950 . S
C106 C107 1.443 . S
C106 N110 1.376 . S
C106 C144 1.389 . S
C107 C106 1.443 . S
C107 C108 1.340 . S
C107 H147 0.951 . S
C108 C107 1.340 . S
C108 C109 1.439 . S
C108 H148 0.950 1_554 S
C109 C108 1.439 . S
C109 N110 1.374 . S
C109 C143 1.395 . S
N110 C106 1.376 . S
N110 C109 1.374 . S
N110 Co111 2.008 . S
Co111 N110 2.008 . S
Co111 N112 1.995 . S
Co111 N117 2.008 . S
Co111 N122 1.995 . S
Co111 N127 2.282 . S
Co111 N133 2.282 . S
N112 Co111 1.995 . S
N112 C113 1.376 . S
N112 C116 1.383 . S
C113 N112 1.376 . S
C113 C114 1.446 . S
C113 C143 1.391 . S
C114 C113 1.446 . S
C114 C115 1.339 . S
C114 H149 0.949 . S
C115 C114 1.339 . S
C115 C116 1.439 . S
C115 H150 0.950 . S
C116 N112 1.383 . S
C116 C115 1.439 . S
C116 C145 1.392 . S
N117 Co111 2.008 . S
N117 C118 1.376 . S
N117 C121 1.374 . S
C118 N117 1.376 . S
C118 C119 1.443 . S
C118 C145 1.389 . S
C119 C118 1.443 . S
C119 C120 1.340 . S
C119 H151 0.951 . S
C120 C119 1.340 . S
C120 C121 1.439 . S
C120 H152 0.950 . S
C121 N117 1.374 . S
C121 C120 1.439 . S
C121 C146 1.395 . S
N122 Co111 1.995 . S
N122 C123 1.376 . S
N122 C126 1.383 . S
C123 N122 1.376 . S
C123 C124 1.446 . S
C123 C146 1.391 . S
C124 C123 1.446 . S
C124 C125 1.339 . S
C124 H153 0.949 . S
C125 C124 1.339 . S
C125 C126 1.439 . S
C125 H154 0.950 1_655 S
C126 N122 1.383 . S
C126 C125 1.439 . S
C126 C144 1.392 . S
N127 Co111 2.282 . S
N127 C130 1.332 . S
N127 C132 1.332 . S
C128 C129 1.386 . S
C128 C131 1.388 . S
C129 C128 1.386 . S
C129 C130 1.382 . S
C129 H155 0.950 . S
C130 N127 1.332 . S
C130 C129 1.382 . S
C130 H141 0.952 . S
C131 C128 1.388 . S
C131 C132 1.382 . S
C131 H156 0.950 . S
C132 N127 1.332 . S
C132 C131 1.382 . S
C132 H142 0.948 . S
N133 Co111 2.282 . S
N133 C137 1.332 . S
N133 C138 1.332 . S
C134 C135 1.388 . S
C134 C138 1.382 . S
C134 H157 0.950 . S
C135 C134 1.388 . S
C135 C136 1.386 . S
C136 C135 1.386 . S
C136 C137 1.382 . S
C136 H158 0.950 . S
C137 N133 1.332 . S
C137 C136 1.382 . S
C137 H139 0.952 . S
C138 N133 1.332 . S
C138 C134 1.382 . S
C138 H140 0.948 . S
H139 C137 0.952 . S
H140 C138 0.948 . S
H141 C130 0.952 . S
H142 C132 0.948 . S
C143 C109 1.395 . S
C143 C113 1.391 . S
C144 C106 1.389 . S
C144 C126 1.392 . S
C145 C116 1.392 . S
C145 C118 1.389 . S
C146 C121 1.395 . S
C146 C123 1.391 . S
H147 C107 0.951 . S
H148 C108 0.950 1_556 S
H149 C114 0.949 . S
H150 C115 0.950 . S
H151 C119 0.951 . S
H152 C120 0.950 . S
H153 C124 0.949 . S
H154 C125 0.950 1_455 S
H155 C129 0.950 . S
H156 C131 0.950 . S
H157 C134 0.950 . S
H158 C136 0.950 . S
C159 C160 1.443 . S
C159 N163 1.376 . S
C159 C197 1.389 . S
C160 C159 1.443 . S
C160 C161 1.340 . S
C160 H200 0.951 . S
C161 C160 1.340 . S
C161 C162 1.439 . S
C161 H201 0.950 . S
C162 C161 1.439 . S
C162 N163 1.374 . S
C162 C196 1.395 . S
N163 C159 1.376 . S
N163 C162 1.374 . S
N163 Co164 2.008 . S
Co164 N163 2.008 . S
Co164 N165 1.995 . S
Co164 N170 2.008 . S
Co164 N175 1.995 . S
Co164 N180 2.282 . S
Co164 N186 2.282 . S
N165 Co164 1.995 . S
N165 C166 1.376 . S
N165 C169 1.383 . S
C166 N165 1.376 . S
C166 C167 1.446 . S
C166 C196 1.391 . S
C167 C166 1.446 . S
C167 C168 1.339 . S
C167 H202 0.949 . S
C168 C167 1.339 . S
C168 C169 1.439 . S
C168 H203 0.950 . S
C169 N165 1.383 . S
C169 C168 1.439 . S
C169 C198 1.392 . S
N170 Co164 2.008 . S
N170 C171 1.376 . S
N170 C174 1.374 . S
C171 N170 1.376 . S
C171 C172 1.443 . S
C171 C198 1.389 . S
C172 C171 1.443 . S
C172 C173 1.340 . S
C172 H204 0.951 . S
C173 C172 1.340 . S
C173 C174 1.439 . S
C173 H205 0.950 . S
C174 N170 1.374 . S
C174 C173 1.439 . S
C174 C199 1.395 . S
N175 Co164 1.995 . S
N175 C176 1.376 . S
N175 C179 1.383 . S
C176 N175 1.376 . S
C176 C177 1.446 . S
C176 C199 1.391 . S
C177 C176 1.446 . S
C177 C178 1.339 . S
C177 H206 0.949 . S
C178 C177 1.339 . S
C178 C179 1.439 . S
C178 H207 0.950 . S
C179 N175 1.383 . S
C179 C178 1.439 . S
C179 C197 1.392 . S
N180 Co164 2.282 . S
N180 C183 1.332 . S
N180 C185 1.332 . S
C181 C182 1.386 . S
C181 C184 1.388 . S
C182 C181 1.386 . S
C182 C183 1.382 . S
C182 H208 0.950 . S
C183 N180 1.332 . S
C183 C182 1.382 . S
C183 H194 0.952 . S
C184 C181 1.388 . S
C184 C185 1.382 . S
C184 H209 0.950 . S
C185 N180 1.332 . S
C185 C184 1.382 . S
C185 H195 0.948 . S
N186 Co164 2.282 . S
N186 C190 1.332 . S
N186 C191 1.332 . S
C187 C188 1.388 . S
C187 C191 1.382 . S
C187 H210 0.950 . S
C188 C187 1.388 . S
C188 C189 1.386 . S
C189 C188 1.386 . S
C189 C190 1.382 . S
C189 H211 0.950 . S
C190 N186 1.332 . S
C190 C189 1.382 . S
C190 H192 0.952 . S
C191 N186 1.332 . S
C191 C187 1.382 . S
C191 H193 0.948 . S
H192 C190 0.952 . S
H193 C191 0.948 . S
H194 C183 0.952 . S
H195 C185 0.948 . S
C196 C162 1.395 . S
C196 C166 1.391 . S
C197 C159 1.389 . S
C197 C179 1.392 . S
C198 C169 1.392 . S
C198 C171 1.389 . S
C199 C174 1.395 . S
C199 C176 1.391 . S
H200 C160 0.951 . S
H201 C161 0.950 . S
H202 C167 0.949 . S
H203 C168 0.950 . S
H204 C172 0.951 . S
H205 C173 0.950 . S
H206 C177 0.949 . S
H207 C178 0.950 . S
H208 C182 0.950 . S
H209 C184 0.950 . S
H210 C187 0.950 . S
H211 C189 0.950 . S
C212 C213 1.443 . S
C212 N216 1.376 . S
C212 C250 1.389 . S
C213 C212 1.443 . S
C213 C214 1.340 . S
C213 H253 0.951 . S
C214 C213 1.340 . S
C214 C215 1.439 . S
C214 H254 0.950 . S
C215 C214 1.439 . S
C215 N216 1.374 . S
C215 C249 1.395 . S
N216 C212 1.376 . S
N216 C215 1.374 . S
N216 Co217 2.008 . S
Co217 N216 2.008 . S
Co217 N218 1.995 . S
Co217 N223 2.008 . S
Co217 N228 1.995 . S
Co217 N233 2.282 . S
Co217 N239 2.282 . S
N218 Co217 1.995 . S
N218 C219 1.376 . S
N218 C222 1.383 . S
C219 N218 1.376 . S
C219 C220 1.446 . S
C219 C249 1.391 . S
C220 C219 1.446 . S
C220 C221 1.339 . S
C220 H255 0.949 . S
C221 C220 1.339 . S
C221 C222 1.439 . S
C221 H256 0.950 . S
C222 N218 1.383 . S
C222 C221 1.439 . S
C222 C251 1.392 . S
N223 Co217 2.008 . S
N223 C224 1.376 . S
N223 C227 1.374 . S
C224 N223 1.376 . S
C224 C225 1.443 . S
C224 C251 1.389 . S
C225 C224 1.443 . S
C225 C226 1.340 . S
C225 H257 0.951 . S
C226 C225 1.340 . S
C226 C227 1.439 . S
C226 H258 0.950 . S
C227 N223 1.374 . S
C227 C226 1.439 . S
C227 C252 1.395 . S
N228 Co217 1.995 . S
N228 C229 1.376 . S
N228 C232 1.383 . S
C229 N228 1.376 . S
C229 C230 1.446 . S
C229 C252 1.391 . S
C230 C229 1.446 . S
C230 C231 1.339 . S
C230 H259 0.949 . S
C231 C230 1.339 . S
C231 C232 1.439 . S
C231 H260 0.950 . S
C232 N228 1.383 . S
C232 C231 1.439 . S
C232 C250 1.392 . S
N233 Co217 2.282 . S
N233 C236 1.332 . S
N233 C238 1.332 . S
C234 C235 1.386 . S
C234 C237 1.388 . S
C235 C234 1.386 . S
C235 C236 1.382 . S
C235 H261 0.950 . S
C236 N233 1.332 . S
C236 C235 1.382 . S
C236 H247 0.952 . S
C237 C234 1.388 . S
C237 C238 1.382 . S
C237 H262 0.950 1_565 S
C238 N233 1.332 . S
C238 C237 1.382 . S
C238 H248 0.948 . S
N239 Co217 2.282 . S
N239 C243 1.332 . S
N239 C244 1.332 . S
C240 C241 1.388 . S
C240 C244 1.382 . S
C240 H263 0.950 . S
C241 C240 1.388 . S
C241 C242 1.386 . S
C242 C241 1.386 . S
C242 C243 1.382 . S
C242 H264 0.950 . S
C243 N239 1.332 . S
C243 C242 1.382 . S
C243 H245 0.952 . S
C244 N239 1.332 . S
C244 C240 1.382 . S
C244 H246 0.948 . S
H245 C243 0.952 . S
H246 C244 0.948 . S
H247 C236 0.952 . S
H248 C238 0.948 . S
C249 C215 1.395 . S
C249 C219 1.391 . S
C250 C212 1.389 . S
C250 C232 1.392 . S
C251 C222 1.392 . S
C251 C224 1.389 . S
C252 C227 1.395 . S
C252 C229 1.391 . S
H253 C213 0.951 . S
H254 C214 0.950 . S
H255 C220 0.949 . S
H256 C221 0.950 . S
H257 C225 0.951 . S
H258 C226 0.950 . S
H259 C230 0.949 . S
H260 C231 0.950 . S
H261 C235 0.950 . S
H262 C237 0.950 1_545 S
H263 C240 0.950 . S
H264 C242 0.950 . S
C265 C266 1.443 . S
C265 N269 1.376 . S
C265 C303 1.389 . S
C266 C265 1.443 . S
C266 C267 1.340 . S
C266 H306 0.951 . S
C267 C266 1.340 . S
C267 C268 1.439 . S
C267 H307 0.950 . S
C268 C267 1.439 . S
C268 N269 1.374 . S
C268 C302 1.395 . S
N269 C265 1.376 . S
N269 C268 1.374 . S
N269 Co270 2.008 . S
Co270 N269 2.008 . S
Co270 N271 1.995 . S
Co270 N276 2.008 . S
Co270 N281 1.995 . S
Co270 N286 2.282 . S
Co270 N292 2.282 . S
N271 Co270 1.995 . S
N271 C272 1.376 . S
N271 C275 1.383 . S
C272 N271 1.376 . S
C272 C273 1.446 . S
C272 C302 1.391 . S
C273 C272 1.446 . S
C273 C274 1.339 . S
C273 H308 0.949 . S
C274 C273 1.339 . S
C274 C275 1.439 . S
C274 H309 0.950 . S
C275 N271 1.383 . S
C275 C274 1.439 . S
C275 C304 1.392 . S
N276 Co270 2.008 . S
N276 C277 1.376 . S
N276 C280 1.374 . S
C277 N276 1.376 . S
C277 C278 1.443 . S
C277 C304 1.389 . S
C278 C277 1.443 . S
C278 C279 1.340 . S
C278 H310 0.951 . S
C279 C278 1.340 . S
C279 C280 1.439 . S
C279 H311 0.950 . S
C280 N276 1.374 . S
C280 C279 1.439 . S
C280 C305 1.395 . S
N281 Co270 1.995 . S
N281 C282 1.376 . S
N281 C285 1.383 . S
C282 N281 1.376 . S
C282 C283 1.446 . S
C282 C305 1.391 . S
C283 C282 1.446 . S
C283 C284 1.339 . S
C283 H312 0.949 . S
C284 C283 1.339 . S
C284 C285 1.439 . S
C284 H313 0.950 1_455 S
C285 N281 1.383 . S
C285 C284 1.439 . S
C285 C303 1.392 . S
N286 Co270 2.282 . S
N286 C289 1.332 . S
N286 C291 1.332 . S
C287 C288 1.386 . S
C287 C290 1.388 . S
C288 C287 1.386 . S
C288 C289 1.382 . S
C288 H314 0.950 . S
C289 N286 1.332 . S
C289 C288 1.382 . S
C289 H300 0.952 . S
C290 C287 1.388 . S
C290 C291 1.382 . S
C290 H315 0.950 . S
C291 N286 1.332 . S
C291 C290 1.382 . S
C291 H301 0.948 . S
N292 Co270 2.282 . S
N292 C296 1.332 . S
N292 C297 1.332 . S
C293 C294 1.388 . S
C293 C297 1.382 . S
C293 H316 0.950 . S
C294 C293 1.388 . S
C294 C295 1.386 . S
C295 C294 1.386 . S
C295 C296 1.382 . S
C295 H317 0.950 . S
C296 N292 1.332 . S
C296 C295 1.382 . S
C296 H298 0.952 . S
C297 N292 1.332 . S
C297 C293 1.382 . S
C297 H299 0.948 . S
H298 C296 0.952 . S
H299 C297 0.948 . S
H300 C289 0.952 . S
H301 C291 0.948 . S
C302 C268 1.395 . S
C302 C272 1.391 . S
C303 C265 1.389 . S
C303 C285 1.392 . S
C304 C275 1.392 . S
C304 C277 1.389 . S
C305 C280 1.395 . S
C305 C282 1.391 . S
H306 C266 0.951 . S
H307 C267 0.950 . S
H308 C273 0.949 . S
H309 C274 0.950 . S
H310 C278 0.951 . S
H311 C279 0.950 . S
H312 C283 0.949 . S
H313 C284 0.950 1_655 S
H314 C288 0.950 . S
H315 C290 0.950 . S
H316 C293 0.950 . S
H317 C295 0.950 . S
C318 C319 1.443 . S
C318 N322 1.376 . S
C318 C356 1.389 . S
C319 C318 1.443 . S
C319 C320 1.340 . S
C319 H359 0.951 . S
C320 C319 1.340 . S
C320 C321 1.439 . S
C320 H360 0.950 . S
C321 C320 1.439 . S
C321 N322 1.374 . S
C321 C355 1.395 . S
N322 C318 1.376 . S
N322 C321 1.374 . S
N322 Co323 2.008 . S
Co323 N322 2.008 . S
Co323 N324 1.995 . S
Co323 N329 2.008 . S
Co323 N334 1.995 . S
Co323 N339 2.282 . S
Co323 N345 2.282 . S
N324 Co323 1.995 . S
N324 C325 1.376 . S
N324 C328 1.383 . S
C325 N324 1.376 . S
C325 C326 1.446 . S
C325 C355 1.391 . S
C326 C325 1.446 . S
C326 C327 1.339 . S
C326 H361 0.949 . S
C327 C326 1.339 . S
C327 C328 1.439 . S
C327 H362 0.950 . S
C328 N324 1.383 . S
C328 C327 1.439 . S
C328 C357 1.392 . S
N329 Co323 2.008 . S
N329 C330 1.376 . S
N329 C333 1.374 . S
C330 N329 1.376 . S
C330 C331 1.443 . S
C330 C357 1.389 . S
C331 C330 1.443 . S
C331 C332 1.340 . S
C331 H363 0.951 . S
C332 C331 1.340 . S
C332 C333 1.439 . S
C332 H364 0.950 . S
C333 N329 1.374 . S
C333 C332 1.439 . S
C333 C358 1.395 . S
N334 Co323 1.995 . S
N334 C335 1.376 . S
N334 C338 1.383 . S
C335 N334 1.376 . S
C335 C336 1.446 1_556 S
C335 C358 1.391 . S
C336 C335 1.446 1_554 S
C336 C337 1.339 . S
C336 H365 0.949 . S
C337 C336 1.339 . S
C337 C338 1.439 1_554 S
C337 H366 0.950 . S
C338 N334 1.383 . S
C338 C337 1.439 1_556 S
C338 C356 1.392 . S
N339 Co323 2.282 . S
N339 C342 1.332 . S
N339 C344 1.332 . S
C340 C341 1.386 . S
C340 C343 1.388 . S
C341 C340 1.386 . S
C341 C342 1.382 . S
C341 H367 0.950 . S
C342 N339 1.332 . S
C342 C341 1.382 . S
C342 H353 0.952 . S
C343 C340 1.388 . S
C343 C344 1.382 . S
C343 H368 0.950 . S
C344 N339 1.332 . S
C344 C343 1.382 . S
C344 H354 0.948 . S
N345 Co323 2.282 . S
N345 C349 1.332 . S
N345 C350 1.332 . S
C346 C347 1.388 . S
C346 C350 1.382 . S
C346 H369 0.950 . S
C347 C346 1.388 . S
C347 C348 1.386 . S
C348 C347 1.386 . S
C348 C349 1.382 . S
C348 H370 0.950 . S
C349 N345 1.332 . S
C349 C348 1.382 . S
C349 H351 0.952 . S
C350 N345 1.332 . S
C350 C346 1.382 . S
C350 H352 0.948 . S
H351 C349 0.952 . S
H352 C350 0.948 . S
H353 C342 0.952 . S
H354 C344 0.948 . S
C355 C321 1.395 . S
C355 C325 1.391 . S
C356 C318 1.389 . S
C356 C338 1.392 . S
C357 C328 1.392 . S
C357 C330 1.389 . S
C358 C333 1.395 . S
C358 C335 1.391 . S
H359 C319 0.951 . S
H360 C320 0.950 . S
H361 C326 0.949 . S
H362 C327 0.950 . S
H363 C331 0.951 . S
H364 C332 0.950 . S
H365 C336 0.949 . S
H366 C337 0.950 . S
H367 C341 0.950 . S
H368 C343 0.950 . S
H369 C346 0.950 . S
H370 C348 0.950 . S
C371 C372 1.458 . S
C371 N375 1.376 . S
C371 C409 1.389 . S
C372 C371 1.458 . S
C372 C373 1.347 . S
C372 H412 0.933 1_565 S
C373 C372 1.347 . S
C373 C374 1.439 . S
C373 H413 0.954 1_565 S
C374 C373 1.439 . S
C374 N375 1.374 . S
C374 C408 1.395 . S
N375 C371 1.376 . S
N375 C374 1.374 . S
N375 Co376 2.008 . S
Co376 N375 2.008 . S
Co376 N377 1.995 . S
Co376 N382 2.008 . S
Co376 N387 1.995 . S
Co376 N392 2.282 . S
Co376 N398 2.282 . S
N377 Co376 1.995 . S
N377 C378 1.376 . S
N377 C381 1.383 . S
C378 N377 1.376 . S
C378 C379 1.446 . S
C378 C408 1.391 . S
C379 C378 1.446 . S
C379 C380 1.339 . S
C379 H414 0.949 . S
C380 C379 1.339 . S
C380 C381 1.439 . S
C380 H415 0.950 . S
C381 N377 1.383 . S
C381 C380 1.439 . S
C381 C410 1.392 . S
N382 Co376 2.008 . S
N382 C383 1.376 . S
N382 C386 1.374 1_556 S
C383 N382 1.376 . S
C383 C384 1.443 . S
C383 C410 1.389 . S
C384 C383 1.443 . S
C384 C385 1.340 1_556 S
C384 H416 0.951 . S
C385 C384 1.340 1_554 S
C385 C386 1.439 . S
C385 H417 0.950 . S
C386 N382 1.374 1_554 S
C386 C385 1.439 . S
C386 C411 1.395 . S
N387 Co376 1.995 . S
N387 C388 1.376 1_556 S
N387 C391 1.383 1_556 S
C388 N387 1.376 1_554 S
C388 C389 1.446 . S
C388 C411 1.391 . S
C389 C388 1.446 . S
C389 C390 1.339 . S
C389 H418 0.949 . S
C390 C389 1.339 . S
C390 C391 1.439 . S
C390 H419 0.950 . S
C391 N387 1.383 1_554 S
C391 C390 1.439 . S
C391 C409 1.392 1_554 S
N392 Co376 2.282 . S
N392 C395 1.332 . S
N392 C397 1.332 . S
C393 C394 1.386 1_556 S
C393 C396 1.388 . S
C394 C393 1.386 1_554 S
C394 C395 1.382 1_554 S
C394 H420 0.950 . S
C395 N392 1.332 . S
C395 C394 1.382 1_556 S
C395 H406 0.952 1_556 S
C396 C393 1.388 . S
C396 C397 1.382 . S
C396 H421 0.950 . S
C397 N392 1.332 . S
C397 C396 1.382 . S
C397 H407 0.948 . S
N398 Co376 2.282 . S
N398 C402 1.332 . S
N398 C403 1.332 . S
C399 C400 1.388 . S
C399 C403 1.382 . S
C399 H422 0.950 . S
C400 C399 1.388 . S
C400 C401 1.386 . S
C401 C400 1.386 . S
C401 C402 1.382 . S
C401 H423 0.950 . S
C402 N398 1.332 . S
C402 C401 1.382 . S
C402 H404 0.952 . S
C403 N398 1.332 . S
C403 C399 1.382 . S
C403 H405 0.948 . S
H404 C402 0.952 . S
H405 C403 0.948 . S
H406 C395 0.952 1_554 S
H407 C397 0.948 . S
C408 C374 1.395 . S
C408 C378 1.391 . S
C409 C371 1.389 . S
C409 C391 1.392 1_556 S
C410 C381 1.392 . S
C410 C383 1.389 . S
C411 C386 1.395 . S
C411 C388 1.391 . S
H412 C372 0.933 1_545 S
H413 C373 0.954 1_545 S
H414 C379 0.949 . S
H415 C380 0.950 . S
H416 C384 0.951 . S
H417 C385 0.950 . S
H418 C389 0.949 . S
H419 C390 0.950 . S
H420 C394 0.950 . S
H421 C396 0.950 . S
H422 C399 0.950 . S
H423 C401 0.950 . S
C424 C425 1.443 1_455 S
C424 N428 1.376 . S
C424 C462 1.389 . S
C425 C424 1.443 1_655 S
C425 C426 1.340 1_655 S
C425 H465 0.951 . S
C426 C425 1.340 1_455 S
C426 C427 1.439 . S
C426 H466 0.950 . S
C427 C426 1.439 . S
C427 N428 1.374 . S
C427 C461 1.395 . S
N428 C424 1.376 . S
N428 C427 1.374 . S
N428 Co429 2.008 . S
Co429 N428 2.008 . S
Co429 N430 1.995 . S
Co429 N435 2.008 . S
Co429 N440 1.995 . S
Co429 N445 2.282 . S
Co429 N451 2.282 . S
N430 Co429 1.995 . S
N430 C431 1.376 . S
N430 C434 1.383 . S
C431 N430 1.376 . S
C431 C432 1.446 . S
C431 C461 1.391 . S
C432 C431 1.446 . S
C432 C433 1.339 . S
C432 H467 0.949 . S
C433 C432 1.339 . S
C433 C434 1.439 . S
C433 H468 0.950 . S
C434 N430 1.383 . S
C434 C433 1.439 . S
C434 C463 1.392 . S
N435 Co429 2.008 . S
N435 C436 1.376 . S
N435 C439 1.374 . S
C436 N435 1.376 . S
C436 C437 1.443 . S
C436 C463 1.389 . S
C437 C436 1.443 . S
C437 C438 1.340 . S
C437 H469 0.951 . S
C438 C437 1.340 . S
C438 C439 1.439 . S
C438 H470 0.950 1_556 S
C439 N435 1.374 . S
C439 C438 1.439 . S
C439 C464 1.395 1_556 S
N440 Co429 1.995 . S
N440 C441 1.376 1_556 S
N440 C444 1.383 . S
C441 N440 1.376 1_554 S
C441 C442 1.446 . S
C441 C464 1.391 . S
C442 C441 1.446 . S
C442 C443 1.339 . S
C442 H471 0.949 . S
C443 C442 1.339 . S
C443 C444 1.439 1_554 S
C443 H472 0.950 1_455 S
C444 N440 1.383 . S
C444 C443 1.439 1_556 S
C444 C462 1.392 . S
N445 Co429 2.282 . S
N445 C448 1.332 . S
N445 C450 1.332 . S
C446 C447 1.386 . S
C446 C449 1.388 . S
C447 C446 1.386 . S
C447 C448 1.382 . S
C447 H473 0.950 1_556 S
C448 N445 1.332 . S
C448 C447 1.382 . S
C448 H459 0.952 . S
C449 C446 1.388 . S
C449 C450 1.382 . S
C449 H474 0.950 . S
C450 N445 1.332 . S
C450 C449 1.382 . S
C450 H460 0.948 . S
N451 Co429 2.282 . S
N451 C455 1.332 . S
N451 C456 1.332 . S
C452 C453 1.388 . S
C452 C456 1.382 . S
C452 H475 0.950 . S
C453 C452 1.388 . S
C453 C454 1.386 . S
C454 C453 1.386 . S
C454 C455 1.382 . S
C454 H476 0.950 . S
C455 N451 1.332 . S
C455 C454 1.382 . S
C455 H457 0.952 . S
C456 N451 1.332 . S
C456 C452 1.382 . S
C456 H458 0.948 . S
H457 C455 0.952 . S
H458 C456 0.948 . S
H459 C448 0.952 . S
H460 C450 0.948 . S
C461 C427 1.395 . S
C461 C431 1.391 . S
C462 C424 1.389 . S
C462 C444 1.392 . S
C463 C434 1.392 . S
C463 C436 1.389 . S
C464 C439 1.395 1_554 S
C464 C441 1.391 . S
H465 C425 0.951 . S
H466 C426 0.950 . S
H467 C432 0.949 . S
H468 C433 0.950 . S
H469 C437 0.951 . S
H470 C438 0.950 1_554 S
H471 C442 0.949 . S
H472 C443 0.950 1_655 S
H473 C447 0.950 1_554 S
H474 C449 0.950 . S
H475 C452 0.950 . S
H476 C454 0.950 . S
C477 C478 1.443 . S
C477 N481 1.376 . S
C477 C515 1.389 . S
C478 C477 1.443 . S
C478 C479 1.340 . S
C478 H518 0.951 . S
C479 C478 1.340 . S
C479 C480 1.439 . S
C479 H519 0.950 . S
C480 C479 1.439 . S
C480 N481 1.374 . S
C480 C514 1.395 . S
N481 C477 1.376 . S
N481 C480 1.374 . S
N481 Co482 2.008 . S
Co482 N481 2.008 . S
Co482 N483 1.995 . S
Co482 N488 2.008 . S
Co482 N493 1.995 . S
Co482 N498 2.282 . S
Co482 N504 2.282 . S
N483 Co482 1.995 . S
N483 C484 1.376 . S
N483 C487 1.383 . S
C484 N483 1.376 . S
C484 C485 1.446 . S
C484 C514 1.391 . S
C485 C484 1.446 . S
C485 C486 1.339 . S
C485 H520 0.949 . S
C486 C485 1.339 . S
C486 C487 1.439 . S
C486 H521 0.950 . S
C487 N483 1.383 . S
C487 C486 1.439 . S
C487 C516 1.392 . S
N488 Co482 2.008 . S
N488 C489 1.376 . S
N488 C492 1.374 . S
C489 N488 1.376 . S
C489 C490 1.443 . S
C489 C516 1.389 . S
C490 C489 1.443 . S
C490 C491 1.340 . S
C490 H522 0.951 . S
C491 C490 1.340 . S
C491 C492 1.439 . S
C491 H523 0.950 . S
C492 N488 1.374 . S
C492 C491 1.439 . S
C492 C517 1.395 . S
N493 Co482 1.995 . S
N493 C494 1.376 . S
N493 C497 1.383 . S
C494 N493 1.376 . S
C494 C495 1.446 . S
C494 C517 1.391 . S
C495 C494 1.446 . S
C495 C496 1.339 . S
C495 H524 0.949 . S
C496 C495 1.339 . S
C496 C497 1.439 . S
C496 H525 0.950 . S
C497 N493 1.383 . S
C497 C496 1.439 . S
C497 C515 1.392 . S
N498 Co482 2.282 . S
N498 C501 1.332 . S
N498 C503 1.332 . S
C499 C500 1.386 . S
C499 C502 1.388 . S
C500 C499 1.386 . S
C500 C501 1.382 . S
C500 H526 0.950 . S
C501 N498 1.332 . S
C501 C500 1.382 . S
C501 H512 0.952 . S
C502 C499 1.388 . S
C502 C503 1.382 . S
C502 H527 0.950 . S
C503 N498 1.332 . S
C503 C502 1.382 . S
C503 H513 0.948 . S
N504 Co482 2.282 . S
N504 C508 1.332 . S
N504 C509 1.332 . S
C505 C506 1.388 . S
C505 C509 1.382 . S
C505 H528 0.950 . S
C506 C505 1.388 . S
C506 C507 1.386 . S
C507 C506 1.386 . S
C507 C508 1.382 . S
C507 H529 0.950 . S
C508 N504 1.332 . S
C508 C507 1.382 . S
C508 H510 0.952 . S
C509 N504 1.332 . S
C509 C505 1.382 . S
C509 H511 0.948 . S
H510 C508 0.952 . S
H511 C509 0.948 . S
H512 C501 0.952 . S
H513 C503 0.948 . S
C514 C480 1.395 . S
C514 C484 1.391 . S
C515 C477 1.389 . S
C515 C497 1.392 . S
C516 C487 1.392 . S
C516 C489 1.389 . S
C517 C492 1.395 . S
C517 C494 1.391 . S
H518 C478 0.951 . S
H519 C479 0.950 . S
H520 C485 0.949 . S
H521 C486 0.950 . S
H522 C490 0.951 . S
H523 C491 0.950 . S
H524 C495 0.949 . S
H525 C496 0.950 . S
H526 C500 0.950 . S
H527 C502 0.950 . S
H528 C505 0.950 . S
H529 C507 0.950 . S
C530 C531 1.451 . S
C530 N534 1.376 . S
C530 C568 1.389 . S
C531 C530 1.451 . S
C531 C532 1.348 . S
C531 H571 0.938 1_545 S
C532 C531 1.348 . S
C532 C533 1.439 . S
C532 H572 0.951 1_545 S
C533 C532 1.439 . S
C533 N534 1.374 . S
C533 C567 1.395 . S
N534 C530 1.376 . S
N534 C533 1.374 . S
N534 Co535 2.008 . S
Co535 N534 2.008 . S
Co535 N536 1.995 . S
Co535 N541 2.008 . S
Co535 N546 1.995 . S
Co535 N551 2.282 . S
Co535 N557 2.282 . S
N536 Co535 1.995 . S
N536 C537 1.376 . S
N536 C540 1.383 . S
C537 N536 1.376 . S
C537 C538 1.446 . S
C537 C567 1.391 . S
C538 C537 1.446 . S
C538 C539 1.339 . S
C538 H573 0.949 . S
C539 C538 1.339 . S
C539 C540 1.439 . S
C539 H574 0.950 . S
C540 N536 1.383 . S
C540 C539 1.439 . S
C540 C569 1.392 . S
N541 Co535 2.008 . S
N541 C542 1.376 . S
N541 C545 1.374 . S
C542 N541 1.376 . S
C542 C543 1.443 . S
C542 C569 1.389 . S
C543 C542 1.443 . S
C543 C544 1.340 . S
C543 H575 0.951 . S
C544 C543 1.340 . S
C544 C545 1.439 . S
C544 H576 0.950 . S
C545 N541 1.374 . S
C545 C544 1.439 . S
C545 C570 1.395 . S
N546 Co535 1.995 . S
N546 C547 1.376 . S
N546 C550 1.383 . S
C547 N546 1.376 . S
C547 C548 1.446 . S
C547 C570 1.391 . S
C548 C547 1.446 . S
C548 C549 1.339 . S
C548 H577 0.949 . S
C549 C548 1.339 . S
C549 C550 1.439 . S
C549 H578 0.950 . S
C550 N546 1.383 . S
C550 C549 1.439 . S
C550 C568 1.392 . S
N551 Co535 2.282 . S
N551 C554 1.332 . S
N551 C556 1.332 . S
C552 C553 1.386 . S
C552 C555 1.388 . S
C553 C552 1.386 . S
C553 C554 1.382 . S
C553 H579 0.950 . S
C554 N551 1.332 . S
C554 C553 1.382 . S
C554 H565 0.952 . S
C555 C552 1.388 . S
C555 C556 1.382 . S
C555 H580 0.950 . S
C556 N551 1.332 . S
C556 C555 1.382 . S
C556 H566 0.948 . S
N557 Co535 2.282 . S
N557 C561 1.332 . S
N557 C562 1.332 . S
C558 C559 1.388 . S
C558 C562 1.382 . S
C558 H581 0.950 . S
C559 C558 1.388 . S
C559 C560 1.386 . S
C560 C559 1.386 . S
C560 C561 1.382 . S
C560 H582 0.950 . S
C561 N557 1.332 . S
C561 C560 1.382 . S
C561 H563 0.952 . S
C562 N557 1.332 . S
C562 C558 1.382 . S
C562 H564 0.948 . S
H563 C561 0.952 . S
H564 C562 0.948 . S
H565 C554 0.952 . S
H566 C556 0.948 . S
C567 C533 1.395 . S
C567 C537 1.391 . S
C568 C530 1.389 . S
C568 C550 1.392 . S
C569 C540 1.392 . S
C569 C542 1.389 . S
C570 C545 1.395 . S
C570 C547 1.391 . S
H571 C531 0.938 1_565 S
H572 C532 0.951 1_565 S
H573 C538 0.949 . S
H574 C539 0.950 . S
H575 C543 0.951 . S
H576 C544 0.950 . S
H577 C548 0.949 . S
H578 C549 0.950 . S
H579 C553 0.950 . S
H580 C555 0.950 . S
H581 C558 0.950 . S
H582 C560 0.950 . S
C583 C584 1.443 1_655 S
C583 N587 1.376 . S
C583 C621 1.389 . S
C584 C583 1.443 1_455 S
C584 C585 1.340 1_455 S
C584 H624 0.951 . S
C585 C584 1.340 1_655 S
C585 C586 1.439 . S
C585 H625 0.950 . S
C586 C585 1.439 . S
C586 N587 1.374 . S
C586 C620 1.395 . S
N587 C583 1.376 . S
N587 C586 1.374 . S
N587 Co588 2.008 . S
Co588 N587 2.008 . S
Co588 N589 1.995 . S
Co588 N594 2.008 . S
Co588 N599 1.995 . S
Co588 N604 2.282 . S
Co588 N610 2.282 . S
N589 Co588 1.995 . S
N589 C590 1.376 . S
N589 C593 1.383 . S
C590 N589 1.376 . S
C590 C591 1.446 . S
C590 C620 1.391 . S
C591 C590 1.446 . S
C591 C592 1.339 . S
C591 H626 0.949 . S
C592 C591 1.339 . S
C592 C593 1.439 . S
C592 H627 0.950 . S
C593 N589 1.383 . S
C593 C592 1.439 . S
C593 C622 1.392 . S
N594 Co588 2.008 . S
N594 C595 1.376 . S
N594 C598 1.374 . S
C595 N594 1.376 . S
C595 C596 1.443 . S
C595 C622 1.389 . S
C596 C595 1.443 . S
C596 C597 1.340 . S
C596 H628 0.951 . S
C597 C596 1.340 . S
C597 C598 1.439 . S
C597 H629 0.950 . S
C598 N594 1.374 . S
C598 C597 1.439 . S
C598 C623 1.395 . S
N599 Co588 1.995 . S
N599 C600 1.376 . S
N599 C603 1.383 . S
C600 N599 1.376 . S
C600 C601 1.446 . S
C600 C623 1.391 . S
C601 C600 1.446 . S
C601 C602 1.339 . S
C601 H630 0.949 . S
C602 C601 1.339 . S
C602 C603 1.439 . S
C602 H631 0.950 . S
C603 N599 1.383 . S
C603 C602 1.439 . S
C603 C621 1.392 . S
N604 Co588 2.282 . S
N604 C607 1.332 . S
N604 C609 1.332 . S
C605 C606 1.386 . S
C605 C608 1.388 . S
C606 C605 1.386 . S
C606 C607 1.382 . S
C606 H632 0.950 . S
C607 N604 1.332 . S
C607 C606 1.382 . S
C607 H618 0.952 . S
C608 C605 1.388 . S
C608 C609 1.382 . S
C608 H633 0.950 . S
C609 N604 1.332 . S
C609 C608 1.382 . S
C609 H619 0.948 . S
N610 Co588 2.282 . S
N610 C614 1.332 . S
N610 C615 1.332 . S
C611 C612 1.388 . S
C611 C615 1.382 . S
C611 H634 0.950 . S
C612 C611 1.388 . S
C612 C613 1.386 . S
C613 C612 1.386 . S
C613 C614 1.382 . S
C613 H635 0.950 . S
C614 N610 1.332 . S
C614 C613 1.382 . S
C614 H616 0.952 . S
C615 N610 1.332 . S
C615 C611 1.382 . S
C615 H617 0.948 . S
H616 C614 0.952 . S
H617 C615 0.948 . S
H618 C607 0.952 . S
H619 C609 0.948 . S
C620 C586 1.395 . S
C620 C590 1.391 . S
C621 C583 1.389 . S
C621 C603 1.392 . S
C622 C593 1.392 . S
C622 C595 1.389 . S
C623 C598 1.395 . S
C623 C600 1.391 . S
H624 C584 0.951 . S
H625 C585 0.950 . S
H626 C591 0.949 . S
H627 C592 0.950 . S
H628 C596 0.951 . S
H629 C597 0.950 . S
H630 C601 0.949 . S
H631 C602 0.950 . S
H632 C606 0.950 . S
H633 C608 0.950 . S
H634 C611 0.950 . S
H635 C613 0.950 . S
C636 C637 1.443 . S
C636 N640 1.376 . S
C636 C674 1.389 . S
C637 C636 1.443 . S
C637 C638 1.340 . S
C637 H677 0.951 . S
C638 C637 1.340 . S
C638 C639 1.439 . S
C638 H678 0.950 . S
C639 C638 1.439 . S
C639 N640 1.374 . S
C639 C673 1.395 . S
N640 C636 1.376 . S
N640 C639 1.374 . S
N640 Co641 2.008 . S
Co641 N640 2.008 . S
Co641 N642 1.995 . S
Co641 N647 2.008 . S
Co641 N652 1.995 . S
Co641 N657 2.282 . S
Co641 N663 2.282 . S
N642 Co641 1.995 . S
N642 C643 1.376 . S
N642 C646 1.383 . S
C643 N642 1.376 . S
C643 C644 1.446 . S
C643 C673 1.391 . S
C644 C643 1.446 . S
C644 C645 1.339 . S
C644 H679 0.949 . S
C645 C644 1.339 . S
C645 C646 1.439 . S
C645 H680 0.950 . S
C646 N642 1.383 . S
C646 C645 1.439 . S
C646 C675 1.392 . S
N647 Co641 2.008 . S
N647 C648 1.376 . S
N647 C651 1.374 . S
C648 N647 1.376 . S
C648 C649 1.443 . S
C648 C675 1.389 . S
C649 C648 1.443 . S
C649 C650 1.340 . S
C649 H681 0.951 . S
C650 C649 1.340 . S
C650 C651 1.439 . S
C650 H682 0.950 . S
C651 N647 1.374 . S
C651 C650 1.439 . S
C651 C676 1.395 . S
N652 Co641 1.995 . S
N652 C653 1.376 . S
N652 C656 1.383 . S
C653 N652 1.376 . S
C653 C654 1.446 . S
C653 C676 1.391 . S
C654 C653 1.446 . S
C654 C655 1.339 . S
C654 H683 0.949 . S
C655 C654 1.339 . S
C655 C656 1.439 . S
C655 H684 0.950 . S
C656 N652 1.383 . S
C656 C655 1.439 . S
C656 C674 1.392 . S
N657 Co641 2.282 . S
N657 C660 1.332 . S
N657 C662 1.332 . S
C658 C659 1.386 . S
C658 C661 1.388 . S
C659 C658 1.386 . S
C659 C660 1.382 . S
C659 H685 0.950 . S
C660 N657 1.332 . S
C660 C659 1.382 . S
C660 H671 0.952 . S
C661 C658 1.388 . S
C661 C662 1.382 . S
C661 H686 0.950 . S
C662 N657 1.332 . S
C662 C661 1.382 . S
C662 H672 0.948 . S
N663 Co641 2.282 . S
N663 C667 1.332 . S
N663 C668 1.332 . S
C664 C665 1.388 . S
C664 C668 1.382 . S
C664 H687 0.950 . S
C665 C664 1.388 . S
C665 C666 1.386 . S
C666 C665 1.386 . S
C666 C667 1.382 . S
C666 H688 0.950 . S
C667 N663 1.332 . S
C667 C666 1.382 . S
C667 H669 0.952 . S
C668 N663 1.332 . S
C668 C664 1.382 . S
C668 H670 0.948 . S
H669 C667 0.952 . S
H670 C668 0.948 . S
H671 C660 0.952 . S
H672 C662 0.948 . S
C673 C639 1.395 . S
C673 C643 1.391 . S
C674 C636 1.389 . S
C674 C656 1.392 . S
C675 C646 1.392 . S
C675 C648 1.389 . S
C676 C651 1.395 . S
C676 C653 1.391 . S
H677 C637 0.951 . S
H678 C638 0.950 . S
H679 C644 0.949 . S
H680 C645 0.950 . S
H681 C649 0.951 . S
H682 C650 0.950 . S
H683 C654 0.949 . S
H684 C655 0.950 . S
H685 C659 0.950 . S
H686 C661 0.950 . S
H687 C664 0.950 . S
H688 C666 0.950 . S
C689 C690 1.443 . S
C689 N693 1.376 . S
C689 C727 1.389 . S
C690 C689 1.443 . S
C690 C691 1.340 . S
C690 H730 0.951 . S
C691 C690 1.340 . S
C691 C692 1.439 . S
C691 H731 0.950 . S
C692 C691 1.439 . S
C692 N693 1.374 . S
C692 C726 1.395 . S
N693 C689 1.376 . S
N693 C692 1.374 . S
N693 Co694 2.008 . S
Co694 N693 2.008 . S
Co694 N695 1.995 . S
Co694 N700 2.008 . S
Co694 N705 1.995 . S
Co694 N710 2.282 . S
Co694 N716 2.282 . S
N695 Co694 1.995 . S
N695 C696 1.376 . S
N695 C699 1.383 . S
C696 N695 1.376 . S
C696 C697 1.446 . S
C696 C726 1.391 . S
C697 C696 1.446 . S
C697 C698 1.339 . S
C697 H732 0.949 . S
C698 C697 1.339 . S
C698 C699 1.439 . S
C698 H733 0.950 . S
C699 N695 1.383 . S
C699 C698 1.439 . S
C699 C728 1.392 . S
N700 Co694 2.008 . S
N700 C701 1.376 . S
N700 C704 1.374 . S
C701 N700 1.376 . S
C701 C702 1.443 . S
C701 C728 1.389 . S
C702 C701 1.443 . S
C702 C703 1.340 . S
C702 H734 0.951 . S
C703 C702 1.340 . S
C703 C704 1.439 . S
C703 H735 0.950 . S
C704 N700 1.374 . S
C704 C703 1.439 . S
C704 C729 1.395 . S
N705 Co694 1.995 . S
N705 C706 1.376 . S
N705 C709 1.383 . S
C706 N705 1.376 . S
C706 C707 1.446 . S
C706 C729 1.391 . S
C707 C706 1.446 . S
C707 C708 1.339 . S
C707 H736 0.949 . S
C708 C707 1.339 . S
C708 C709 1.439 . S
C708 H737 0.950 . S
C709 N705 1.383 . S
C709 C708 1.439 . S
C709 C727 1.392 . S
N710 Co694 2.282 . S
N710 C713 1.332 . S
N710 C715 1.332 . S
C711 C712 1.386 . S
C711 C714 1.388 . S
C712 C711 1.386 . S
C712 C713 1.382 . S
C712 H738 0.950 . S
C713 N710 1.332 . S
C713 C712 1.382 . S
C713 H724 0.952 . S
C714 C711 1.388 . S
C714 C715 1.382 . S
C714 H739 0.950 . S
C715 N710 1.332 . S
C715 C714 1.382 . S
C715 H725 0.948 . S
N716 Co694 2.282 . S
N716 C720 1.332 . S
N716 C721 1.332 . S
C717 C718 1.388 . S
C717 C721 1.382 . S
C717 H740 0.950 . S
C718 C717 1.388 . S
C718 C719 1.386 . S
C719 C718 1.386 . S
C719 C720 1.382 . S
C719 H741 0.950 . S
C720 N716 1.332 . S
C720 C719 1.382 . S
C720 H722 0.952 . S
C721 N716 1.332 . S
C721 C717 1.382 . S
C721 H723 0.948 . S
H722 C720 0.952 . S
H723 C721 0.948 . S
H724 C713 0.952 . S
H725 C715 0.948 . S
C726 C692 1.395 . S
C726 C696 1.391 . S
C727 C689 1.389 . S
C727 C709 1.392 . S
C728 C699 1.392 . S
C728 C701 1.389 . S
C729 C704 1.395 . S
C729 C706 1.391 . S
H730 C690 0.951 . S
H731 C691 0.950 . S
H732 C697 0.949 . S
H733 C698 0.950 . S
H734 C702 0.951 . S
H735 C703 0.950 . S
H736 C707 0.949 . S
H737 C708 0.950 . S
H738 C712 0.950 . S
H739 C714 0.950 . S
H740 C717 0.950 . S
H741 C719 0.950 . S
C742 C743 1.443 . S
C742 N746 1.376 . S
C742 C780 1.389 . S
C743 C742 1.443 . S
C743 C744 1.340 . S
C743 H783 0.951 . S
C744 C743 1.340 . S
C744 C745 1.439 . S
C744 H784 0.950 . S
C745 C744 1.439 . S
C745 N746 1.374 . S
C745 C779 1.395 . S
N746 C742 1.376 . S
N746 C745 1.374 . S
N746 Co747 2.008 . S
Co747 N746 2.008 . S
Co747 N748 1.995 . S
Co747 N753 2.008 . S
Co747 N758 1.995 . S
Co747 N763 2.282 . S
Co747 N769 2.282 . S
N748 Co747 1.995 . S
N748 C749 1.376 . S
N748 C752 1.383 . S
C749 N748 1.376 . S
C749 C750 1.446 . S
C749 C779 1.391 . S
C750 C749 1.446 . S
C750 C751 1.339 . S
C750 H785 0.949 . S
C751 C750 1.339 . S
C751 C752 1.439 . S
C751 H786 0.950 . S
C752 N748 1.383 . S
C752 C751 1.439 . S
C752 C781 1.392 . S
N753 Co747 2.008 . S
N753 C754 1.376 . S
N753 C757 1.374 . S
C754 N753 1.376 . S
C754 C755 1.443 . S
C754 C781 1.389 . S
C755 C754 1.443 . S
C755 C756 1.340 . S
C755 H787 0.951 . S
C756 C755 1.340 . S
C756 C757 1.439 . S
C756 H788 0.950 . S
C757 N753 1.374 . S
C757 C756 1.439 . S
C757 C782 1.395 . S
N758 Co747 1.995 . S
N758 C759 1.376 . S
N758 C762 1.383 . S
C759 N758 1.376 . S
C759 C760 1.446 . S
C759 C782 1.391 . S
C760 C759 1.446 . S
C760 C761 1.339 . S
C760 H789 0.949 . S
C761 C760 1.339 . S
C761 C762 1.439 . S
C761 H790 0.950 . S
C762 N758 1.383 . S
C762 C761 1.439 . S
C762 C780 1.392 . S
N763 Co747 2.282 . S
N763 C766 1.332 . S
N763 C768 1.332 . S
C764 C765 1.386 . S
C764 C767 1.388 . S
C765 C764 1.386 . S
C765 C766 1.382 . S
C765 H791 0.950 . S
C766 N763 1.332 . S
C766 C765 1.382 . S
C766 H777 0.952 . S
C767 C764 1.388 . S
C767 C768 1.382 . S
C767 H792 0.950 . S
C768 N763 1.332 . S
C768 C767 1.382 . S
C768 H778 0.948 . S
N769 Co747 2.282 . S
N769 C773 1.332 . S
N769 C774 1.332 . S
C770 C771 1.388 . S
C770 C774 1.382 . S
C770 H793 0.950 . S
C771 C770 1.388 . S
C771 C772 1.386 . S
C772 C771 1.386 . S
C772 C773 1.382 . S
C772 H794 0.950 . S
C773 N769 1.332 . S
C773 C772 1.382 . S
C773 H775 0.952 . S
C774 N769 1.332 . S
C774 C770 1.382 . S
C774 H776 0.948 . S
H775 C773 0.952 . S
H776 C774 0.948 . S
H777 C766 0.952 . S
H778 C768 0.948 . S
C779 C745 1.395 . S
C779 C749 1.391 . S
C780 C742 1.389 . S
C780 C762 1.392 . S
C781 C752 1.392 . S
C781 C754 1.389 . S
C782 C757 1.395 . S
C782 C759 1.391 . S
H783 C743 0.951 . S
H784 C744 0.950 . S
H785 C750 0.949 . S
H786 C751 0.950 . S
H787 C755 0.951 . S
H788 C756 0.950 . S
H789 C760 0.949 . S
H790 C761 0.950 . S
H791 C765 0.950 . S
H792 C767 0.950 . S
H793 C770 0.950 . S
H794 C772 0.950 . S
C795 C796 1.443 . S
C795 N799 1.376 . S
C795 C833 1.389 . S
C796 C795 1.443 . S
C796 C797 1.340 . S
C796 H836 0.951 . S
C797 C796 1.340 . S
C797 C798 1.439 . S
C797 H837 0.950 . S
C798 C797 1.439 . S
C798 N799 1.374 . S
C798 C832 1.395 . S
N799 C795 1.376 . S
N799 C798 1.374 . S
N799 Co800 2.008 . S
Co800 N799 2.008 . S
Co800 N801 1.995 . S
Co800 N806 2.008 . S
Co800 N811 1.995 . S
Co800 N816 2.282 . S
Co800 N822 2.282 . S
N801 Co800 1.995 . S
N801 C802 1.376 . S
N801 C805 1.383 . S
C802 N801 1.376 . S
C802 C803 1.446 . S
C802 C832 1.391 . S
C803 C802 1.446 . S
C803 C804 1.339 . S
C803 H838 0.949 . S
C804 C803 1.339 . S
C804 C805 1.439 . S
C804 H839 0.950 . S
C805 N801 1.383 . S
C805 C804 1.439 . S
C805 C834 1.392 . S
N806 Co800 2.008 . S
N806 C807 1.376 . S
N806 C810 1.374 . S
C807 N806 1.376 . S
C807 C808 1.443 . S
C807 C834 1.389 . S
C808 C807 1.443 . S
C808 C809 1.340 . S
C808 H840 0.951 . S
C809 C808 1.340 . S
C809 C810 1.439 . S
C809 H841 0.950 . S
C810 N806 1.374 . S
C810 C809 1.439 . S
C810 C835 1.395 . S
N811 Co800 1.995 . S
N811 C812 1.376 . S
N811 C815 1.383 . S
C812 N811 1.376 . S
C812 C813 1.446 . S
C812 C835 1.391 . S
C813 C812 1.446 . S
C813 C814 1.339 . S
C813 H842 0.949 . S
C814 C813 1.339 . S
C814 C815 1.439 . S
C814 H843 0.950 . S
C815 N811 1.383 . S
C815 C814 1.439 . S
C815 C833 1.392 . S
N816 Co800 2.282 . S
N816 C819 1.332 . S
N816 C821 1.332 . S
C817 C818 1.386 . S
C817 C820 1.388 . S
C818 C817 1.386 . S
C818 C819 1.382 . S
C818 H844 0.950 . S
C819 N816 1.332 . S
C819 C818 1.382 . S
C819 H830 0.952 . S
C820 C817 1.388 . S
C820 C821 1.382 . S
C820 H845 0.950 . S
C821 N816 1.332 . S
C821 C820 1.382 . S
C821 H831 0.948 . S
N822 Co800 2.282 . S
N822 C826 1.332 . S
N822 C827 1.332 . S
C823 C824 1.388 . S
C823 C827 1.382 . S
C823 H846 0.950 . S
C824 C823 1.388 . S
C824 C825 1.386 . S
C825 C824 1.386 . S
C825 C826 1.382 . S
C825 H847 0.950 . S
C826 N822 1.332 . S
C826 C825 1.382 . S
C826 H828 0.952 . S
C827 N822 1.332 . S
C827 C823 1.382 . S
C827 H829 0.948 . S
H828 C826 0.952 . S
H829 C827 0.948 . S
H830 C819 0.952 . S
H831 C821 0.948 . S
C832 C798 1.395 . S
C832 C802 1.391 . S
C833 C795 1.389 . S
C833 C815 1.392 . S
C834 C805 1.392 . S
C834 C807 1.389 . S
C835 C810 1.395 . S
C835 C812 1.391 . S
H836 C796 0.951 . S
H837 C797 0.950 . S
H838 C803 0.949 . S
H839 C804 0.950 . S
H840 C808 0.951 . S
H841 C809 0.950 . S
H842 C813 0.949 . S
H843 C814 0.950 . S
H844 C818 0.950 . S
H845 C820 0.950 . S
H846 C823 0.950 . S
H847 C825 0.950 . S
C848 C849 1.443 . S
C848 N852 1.376 . S
C848 C886 1.389 . S
C849 C848 1.443 . S
C849 C850 1.340 . S
C849 H889 0.951 . S
C850 C849 1.340 . S
C850 C851 1.439 . S
C850 H890 0.950 . S
C851 C850 1.439 . S
C851 N852 1.374 . S
C851 C885 1.395 . S
N852 C848 1.376 . S
N852 C851 1.374 . S
N852 Co853 2.008 . S
Co853 N852 2.008 . S
Co853 N854 1.995 . S
Co853 N859 2.008 . S
Co853 N864 1.995 . S
Co853 N869 2.282 . S
Co853 N875 2.282 . S
N854 Co853 1.995 . S
N854 C855 1.376 . S
N854 C858 1.383 . S
C855 N854 1.376 . S
C855 C856 1.446 . S
C855 C885 1.391 . S
C856 C855 1.446 . S
C856 C857 1.339 . S
C856 H891 0.949 . S
C857 C856 1.339 . S
C857 C858 1.439 . S
C857 H892 0.950 . S
C858 N854 1.383 . S
C858 C857 1.439 . S
C858 C887 1.392 . S
N859 Co853 2.008 . S
N859 C860 1.376 . S
N859 C863 1.374 . S
C860 N859 1.376 . S
C860 C861 1.443 . S
C860 C887 1.389 . S
C861 C860 1.443 . S
C861 C862 1.340 . S
C861 H893 0.951 . S
C862 C861 1.340 . S
C862 C863 1.439 . S
C862 H894 0.950 . S
C863 N859 1.374 . S
C863 C862 1.439 . S
C863 C888 1.395 . S
N864 Co853 1.995 . S
N864 C865 1.376 . S
N864 C868 1.383 . S
C865 N864 1.376 . S
C865 C866 1.446 . S
C865 C888 1.391 . S
C866 C865 1.446 . S
C866 C867 1.339 . S
C866 H895 0.949 . S
C867 C866 1.339 . S
C867 C868 1.439 . S
C867 H896 0.950 . S
C868 N864 1.383 . S
C868 C867 1.439 . S
C868 C886 1.392 . S
N869 Co853 2.282 . S
N869 C872 1.332 . S
N869 C874 1.332 . S
C870 C871 1.386 . S
C870 C873 1.388 . S
C871 C870 1.386 . S
C871 C872 1.382 . S
C871 H897 0.950 . S
C872 N869 1.332 . S
C872 C871 1.382 . S
C872 H883 0.952 . S
C873 C870 1.388 . S
C873 C874 1.382 . S
C873 H898 0.950 . S
C874 N869 1.332 . S
C874 C873 1.382 . S
C874 H884 0.948 . S
N875 Co853 2.282 . S
N875 C879 1.332 . S
N875 C880 1.332 . S
C876 C877 1.388 . S
C876 C880 1.382 . S
C876 H899 0.950 . S
C877 C876 1.388 . S
C877 C878 1.386 . S
C878 C877 1.386 . S
C878 C879 1.382 . S
C878 H900 0.950 . S
C879 N875 1.332 . S
C879 C878 1.382 . S
C879 H881 0.952 . S
C880 N875 1.332 . S
C880 C876 1.382 . S
C880 H882 0.948 . S
H881 C879 0.952 . S
H882 C880 0.948 . S
H883 C872 0.952 . S
H884 C874 0.948 . S
C885 C851 1.395 . S
C885 C855 1.391 . S
C886 C848 1.389 . S
C886 C868 1.392 . S
C887 C858 1.392 . S
C887 C860 1.389 . S
C888 C863 1.395 . S
C888 C865 1.391 . S
H889 C849 0.951 . S
H890 C850 0.950 . S
H891 C856 0.949 . S
H892 C857 0.950 . S
H893 C861 0.951 . S
H894 C862 0.950 . S
H895 C866 0.949 . S
H896 C867 0.950 . S
H897 C871 0.950 . S
H898 C873 0.950 . S
H899 C876 0.950 . S
H900 C878 0.950 . S
C901 C902 1.443 . S
C901 N905 1.376 . S
C901 C939 1.389 . S
C902 C901 1.443 . S
C902 C903 1.340 . S
C902 H942 0.951 . S
C903 C902 1.340 . S
C903 C904 1.439 . S
C903 H943 0.950 . S
C904 C903 1.439 . S
C904 N905 1.374 . S
C904 C938 1.395 . S
N905 C901 1.376 . S
N905 C904 1.374 . S
N905 Co906 2.008 . S
Co906 N905 2.008 . S
Co906 N907 1.995 . S
Co906 N912 2.008 . S
Co906 N917 1.995 . S
Co906 N922 2.282 . S
Co906 N928 2.282 . S
N907 Co906 1.995 . S
N907 C908 1.376 . S
N907 C911 1.383 . S
C908 N907 1.376 . S
C908 C909 1.446 . S
C908 C938 1.391 . S
C909 C908 1.446 . S
C909 C910 1.339 . S
C909 H944 0.949 . S
C910 C909 1.339 . S
C910 C911 1.439 . S
C910 H945 0.950 . S
C911 N907 1.383 . S
C911 C910 1.439 . S
C911 C940 1.392 . S
N912 Co906 2.008 . S
N912 C913 1.376 . S
N912 C916 1.374 . S
C913 N912 1.376 . S
C913 C914 1.443 . S
C913 C940 1.389 . S
C914 C913 1.443 . S
C914 C915 1.340 . S
C914 H946 0.951 . S
C915 C914 1.340 . S
C915 C916 1.439 . S
C915 H947 0.950 . S
C916 N912 1.374 . S
C916 C915 1.439 . S
C916 C941 1.395 . S
N917 Co906 1.995 . S
N917 C918 1.376 . S
N917 C921 1.383 . S
C918 N917 1.376 . S
C918 C919 1.446 . S
C918 C941 1.391 . S
C919 C918 1.446 . S
C919 C920 1.339 . S
C919 H948 0.949 . S
C920 C919 1.339 . S
C920 C921 1.439 . S
C920 H949 0.950 . S
C921 N917 1.383 . S
C921 C920 1.439 . S
C921 C939 1.392 . S
N922 Co906 2.282 . S
N922 C925 1.332 . S
N922 C927 1.332 . S
C923 C924 1.386 . S
C923 C926 1.388 . S
C924 C923 1.386 . S
C924 C925 1.382 . S
C924 H950 0.950 . S
C925 N922 1.332 . S
C925 C924 1.382 . S
C925 H936 0.952 . S
C926 C923 1.388 . S
C926 C927 1.382 . S
C926 H951 0.950 . S
C927 N922 1.332 . S
C927 C926 1.382 . S
C927 H937 0.948 . S
N928 Co906 2.282 . S
N928 C932 1.332 . S
N928 C933 1.332 . S
C929 C930 1.388 . S
C929 C933 1.382 . S
C929 H952 0.950 . S
C930 C929 1.388 . S
C930 C931 1.386 . S
C931 C930 1.386 . S
C931 C932 1.382 . S
C931 H953 0.950 . S
C932 N928 1.332 . S
C932 C931 1.382 . S
C932 H934 0.952 . S
C933 N928 1.332 . S
C933 C929 1.382 . S
C933 H935 0.948 . S
H934 C932 0.952 . S
H935 C933 0.948 . S
H936 C925 0.952 . S
H937 C927 0.948 . S
C938 C904 1.395 . S
C938 C908 1.391 . S
C939 C901 1.389 . S
C939 C921 1.392 . S
C940 C911 1.392 . S
C940 C913 1.389 . S
C941 C916 1.395 . S
C941 C918 1.391 . S
H942 C902 0.951 . S
H943 C903 0.950 . S
H944 C909 0.949 . S
H945 C910 0.950 . S
H946 C914 0.951 . S
H947 C915 0.950 . S
H948 C919 0.949 . S
H949 C920 0.950 . S
H950 C924 0.950 . S
H951 C926 0.950 . S
H952 C929 0.950 . S
H953 C931 0.950 . S
C954 C955 1.443 . S
C954 N958 1.376 . S
C954 C992 1.389 . S
C955 C954 1.443 . S
C955 C956 1.340 . S
C955 H995 0.951 . S
C956 C955 1.340 . S
C956 C957 1.439 . S
C956 H996 0.950 . S
C957 C956 1.439 . S
C957 N958 1.374 . S
C957 C991 1.395 . S
N958 C954 1.376 . S
N958 C957 1.374 . S
N958 Co959 2.008 . S
Co959 N958 2.008 . S
Co959 N960 1.995 . S
Co959 N965 2.008 . S
Co959 N970 1.995 . S
Co959 N975 2.282 . S
Co959 N981 2.282 . S
N960 Co959 1.995 . S
N960 C961 1.376 . S
N960 C964 1.383 . S
C961 N960 1.376 . S
C961 C962 1.446 . S
C961 C991 1.391 . S
C962 C961 1.446 . S
C962 C963 1.339 . S
C962 H997 0.949 . S
C963 C962 1.339 . S
C963 C964 1.439 . S
C963 H998 0.950 . S
C964 N960 1.383 . S
C964 C963 1.439 . S
C964 C993 1.392 . S
N965 Co959 2.008 . S
N965 C966 1.376 . S
N965 C969 1.374 . S
C966 N965 1.376 . S
C966 C967 1.443 . S
C966 C993 1.389 . S
C967 C966 1.443 . S
C967 C968 1.340 . S
C967 H999 0.951 . S
C968 C967 1.340 . S
C968 C969 1.439 . S
C968 H1000 0.950 . S
C969 N965 1.374 . S
C969 C968 1.439 . S
C969 C994 1.395 . S
N970 Co959 1.995 . S
N970 C971 1.376 . S
N970 C974 1.383 . S
C971 N970 1.376 . S
C971 C972 1.446 . S
C971 C994 1.391 . S
C972 C971 1.446 . S
C972 C973 1.339 . S
C972 H1001 0.949 . S
C973 C972 1.339 . S
C973 C974 1.439 . S
C973 H1002 0.950 . S
C974 N970 1.383 . S
C974 C973 1.439 . S
C974 C992 1.392 . S
N975 Co959 2.282 . S
N975 C978 1.332 . S
N975 C980 1.332 . S
C976 C977 1.386 . S
C976 C979 1.388 . S
C977 C976 1.386 . S
C977 C978 1.382 . S
C977 H1003 0.950 . S
C978 N975 1.332 . S
C978 C977 1.382 . S
C978 H989 0.952 . S
C979 C976 1.388 . S
C979 C980 1.382 . S
C979 H1004 0.950 . S
C980 N975 1.332 . S
C980 C979 1.382 . S
C980 H990 0.948 . S
N981 Co959 2.282 . S
N981 C985 1.332 . S
N981 C986 1.332 . S
C982 C983 1.388 . S
C982 C986 1.382 . S
C982 H1005 0.950 . S
C983 C982 1.388 . S
C983 C984 1.386 . S
C984 C983 1.386 . S
C984 C985 1.382 . S
C984 H1006 0.950 . S
C985 N981 1.332 . S
C985 C984 1.382 . S
C985 H987 0.952 . S
C986 N981 1.332 . S
C986 C982 1.382 . S
C986 H988 0.948 . S
H987 C985 0.952 . S
H988 C986 0.948 . S
H989 C978 0.952 . S
H990 C980 0.948 . S
C991 C957 1.395 . S
C991 C961 1.391 . S
C992 C954 1.389 . S
C992 C974 1.392 . S
C993 C964 1.392 . S
C993 C966 1.389 . S
C994 C969 1.395 . S
C994 C971 1.391 . S
H995 C955 0.951 . S
H996 C956 0.950 . S
H997 C962 0.949 . S
H998 C963 0.950 . S
H999 C967 0.951 . S
H1000 C968 0.950 . S
H1001 C972 0.949 . S
H1002 C973 0.950 . S
H1003 C977 0.950 . S
H1004 C979 0.950 . S
H1005 C982 0.950 . S
H1006 C984 0.950 . S
C1007 C1008 1.443 . S
C1007 N1011 1.376 . S
C1007 C1045 1.389 . S
C1008 C1007 1.443 . S
C1008 C1009 1.340 . S
C1008 H1048 0.951 . S
C1009 C1008 1.340 . S
C1009 C1010 1.439 . S
C1009 H1049 0.950 . S
C1010 C1009 1.439 . S
C1010 N1011 1.374 . S
C1010 C1044 1.395 . S
N1011 C1007 1.376 . S
N1011 C1010 1.374 . S
N1011 Co1012 2.008 . S
Co1012 N1011 2.008 . S
Co1012 N1013 1.995 . S
Co1012 N1018 2.008 . S
Co1012 N1023 1.995 . S
Co1012 N1028 2.282 . S
Co1012 N1034 2.282 . S
N1013 Co1012 1.995 . S
N1013 C1014 1.376 . S
N1013 C1017 1.383 . S
C1014 N1013 1.376 . S
C1014 C1015 1.446 . S
C1014 C1044 1.391 . S
C1015 C1014 1.446 . S
C1015 C1016 1.339 . S
C1015 H1050 0.949 . S
C1016 C1015 1.339 . S
C1016 C1017 1.439 . S
C1016 H1051 0.950 . S
C1017 N1013 1.383 . S
C1017 C1016 1.439 . S
C1017 C1046 1.392 . S
N1018 Co1012 2.008 . S
N1018 C1019 1.376 . S
N1018 C1022 1.374 . S
C1019 N1018 1.376 . S
C1019 C1020 1.443 . S
C1019 C1046 1.389 . S
C1020 C1019 1.443 . S
C1020 C1021 1.340 . S
C1020 H1052 0.951 . S
C1021 C1020 1.340 . S
C1021 C1022 1.439 . S
C1021 H1053 0.950 . S
C1022 N1018 1.374 . S
C1022 C1021 1.439 . S
C1022 C1047 1.395 . S
N1023 Co1012 1.995 . S
N1023 C1024 1.376 . S
N1023 C1027 1.383 . S
C1024 N1023 1.376 . S
C1024 C1025 1.446 . S
C1024 C1047 1.391 . S
C1025 C1024 1.446 . S
C1025 C1026 1.339 . S
C1025 H1054 0.949 . S
C1026 C1025 1.339 . S
C1026 C1027 1.439 . S
C1026 H1055 0.950 . S
C1027 N1023 1.383 . S
C1027 C1026 1.439 . S
C1027 C1045 1.392 . S
N1028 Co1012 2.282 . S
N1028 C1031 1.332 . S
N1028 C1033 1.332 . S
C1029 C1030 1.386 . S
C1029 C1032 1.388 . S
C1030 C1029 1.386 . S
C1030 C1031 1.382 . S
C1030 H1056 0.950 . S
C1031 N1028 1.332 . S
C1031 C1030 1.382 . S
C1031 H1042 0.952 . S
C1032 C1029 1.388 . S
C1032 C1033 1.382 . S
C1032 H1057 0.950 . S
C1033 N1028 1.332 . S
C1033 C1032 1.382 . S
C1033 H1043 0.948 . S
N1034 Co1012 2.282 . S
N1034 C1038 1.332 . S
N1034 C1039 1.332 . S
C1035 C1036 1.388 . S
C1035 C1039 1.382 . S
C1035 H1058 0.950 . S
C1036 C1035 1.388 . S
C1036 C1037 1.386 . S
C1037 C1036 1.386 . S
C1037 C1038 1.382 . S
C1037 H1059 0.950 . S
C1038 N1034 1.332 . S
C1038 C1037 1.382 . S
C1038 H1040 0.952 . S
C1039 N1034 1.332 . S
C1039 C1035 1.382 . S
C1039 H1041 0.948 . S
H1040 C1038 0.952 . S
H1041 C1039 0.948 . S
H1042 C1031 0.952 . S
H1043 C1033 0.948 . S
C1044 C1010 1.395 . S
C1044 C1014 1.391 . S
C1045 C1007 1.389 . S
C1045 C1027 1.392 . S
C1046 C1017 1.392 . S
C1046 C1019 1.389 . S
C1047 C1022 1.395 . S
C1047 C1024 1.391 . S
H1048 C1008 0.951 . S
H1049 C1009 0.950 . S
H1050 C1015 0.949 . S
H1051 C1016 0.950 . S
H1052 C1020 0.951 . S
H1053 C1021 0.950 . S
H1054 C1025 0.949 . S
H1055 C1026 0.950 . S
H1056 C1030 0.950 . S
H1057 C1032 0.950 . S
H1058 C1035 0.950 . S
H1059 C1037 0.950 . S
C1060 C1061 1.443 . S
C1060 N1064 1.376 . S
C1060 C1098 1.389 . S
C1061 C1060 1.443 . S
C1061 C1062 1.340 . S
C1061 H1101 0.951 . S
C1062 C1061 1.340 . S
C1062 C1063 1.439 . S
C1062 H1102 0.950 . S
C1063 C1062 1.439 . S
C1063 N1064 1.374 . S
C1063 C1097 1.395 . S
N1064 C1060 1.376 . S
N1064 C1063 1.374 . S
N1064 Co1065 2.008 . S
Co1065 N1064 2.008 . S
Co1065 N1066 1.995 . S
Co1065 N1071 2.008 . S
Co1065 N1076 1.995 . S
Co1065 N1081 2.282 . S
Co1065 N1087 2.282 . S
N1066 Co1065 1.995 . S
N1066 C1067 1.376 . S
N1066 C1070 1.383 . S
C1067 N1066 1.376 . S
C1067 C1068 1.446 . S
C1067 C1097 1.391 . S
C1068 C1067 1.446 . S
C1068 C1069 1.339 . S
C1068 H1103 0.949 . S
C1069 C1068 1.339 . S
C1069 C1070 1.439 . S
C1069 H1104 0.950 . S
C1070 N1066 1.383 . S
C1070 C1069 1.439 . S
C1070 C1099 1.392 . S
N1071 Co1065 2.008 . S
N1071 C1072 1.376 . S
N1071 C1075 1.374 . S
C1072 N1071 1.376 . S
C1072 C1073 1.443 . S
C1072 C1099 1.389 . S
C1073 C1072 1.443 . S
C1073 C1074 1.340 . S
C1073 H1105 0.951 . S
C1074 C1073 1.340 . S
C1074 C1075 1.439 . S
C1074 H1106 0.950 . S
C1075 N1071 1.374 . S
C1075 C1074 1.439 . S
C1075 C1100 1.395 . S
N1076 Co1065 1.995 . S
N1076 C1077 1.376 . S
N1076 C1080 1.383 . S
C1077 N1076 1.376 . S
C1077 C1078 1.446 . S
C1077 C1100 1.391 . S
C1078 C1077 1.446 . S
C1078 C1079 1.339 . S
C1078 H1107 0.949 . S
C1079 C1078 1.339 . S
C1079 C1080 1.439 . S
C1079 H1108 0.950 . S
C1080 N1076 1.383 . S
C1080 C1079 1.439 . S
C1080 C1098 1.392 . S
N1081 Co1065 2.282 . S
N1081 C1084 1.332 . S
N1081 C1086 1.332 . S
C1082 C1083 1.386 . S
C1082 C1085 1.388 . S
C1083 C1082 1.386 . S
C1083 C1084 1.382 . S
C1083 H1109 0.950 . S
C1084 N1081 1.332 . S
C1084 C1083 1.382 . S
C1084 H1095 0.952 . S
C1085 C1082 1.388 . S
C1085 C1086 1.382 . S
C1085 H1110 0.950 . S
C1086 N1081 1.332 . S
C1086 C1085 1.382 . S
C1086 H1096 0.948 . S
N1087 Co1065 2.282 . S
N1087 C1091 1.332 . S
N1087 C1092 1.332 . S
C1088 C1089 1.388 . S
C1088 C1092 1.382 . S
C1088 H1111 0.950 . S
C1089 C1088 1.388 . S
C1089 C1090 1.386 . S
C1090 C1089 1.386 . S
C1090 C1091 1.382 . S
C1090 H1112 0.950 . S
C1091 N1087 1.332 . S
C1091 C1090 1.382 . S
C1091 H1093 0.952 . S
C1092 N1087 1.332 . S
C1092 C1088 1.382 . S
C1092 H1094 0.948 . S
H1093 C1091 0.952 . S
H1094 C1092 0.948 . S
H1095 C1084 0.952 . S
H1096 C1086 0.948 . S
C1097 C1063 1.395 . S
C1097 C1067 1.391 . S
C1098 C1060 1.389 . S
C1098 C1080 1.392 . S
C1099 C1070 1.392 . S
C1099 C1072 1.389 . S
C1100 C1075 1.395 . S
C1100 C1077 1.391 . S
H1101 C1061 0.951 . S
H1102 C1062 0.950 . S
H1103 C1068 0.949 . S
H1104 C1069 0.950 . S
H1105 C1073 0.951 . S
H1106 C1074 0.950 . S
H1107 C1078 0.949 . S
H1108 C1079 0.950 . S
H1109 C1083 0.950 . S
H1110 C1085 0.950 . S
H1111 C1088 0.950 . S
H1112 C1090 0.950 . S
C1113 C1114 1.443 . S
C1113 N1117 1.376 . S
C1113 C1151 1.389 . S
C1114 C1113 1.443 . S
C1114 C1115 1.340 . S
C1114 H1154 0.951 . S
C1115 C1114 1.340 . S
C1115 C1116 1.439 . S
C1115 H1155 0.950 . S
C1116 C1115 1.439 . S
C1116 N1117 1.374 . S
C1116 C1150 1.395 . S
N1117 C1113 1.376 . S
N1117 C1116 1.374 . S
N1117 Co1118 2.008 . S
Co1118 N1117 2.008 . S
Co1118 N1119 1.995 . S
Co1118 N1124 2.008 . S
Co1118 N1129 1.995 . S
Co1118 N1134 2.282 . S
Co1118 N1140 2.282 . S
N1119 Co1118 1.995 . S
N1119 C1120 1.376 . S
N1119 C1123 1.383 . S
C1120 N1119 1.376 . S
C1120 C1121 1.446 1_556 S
C1120 C1150 1.391 . S
C1121 C1120 1.446 1_554 S
C1121 C1122 1.339 . S
C1121 H1156 0.949 . S
C1122 C1121 1.339 . S
C1122 C1123 1.439 1_554 S
C1122 H1157 0.950 . S
C1123 N1119 1.383 . S
C1123 C1122 1.439 1_556 S
C1123 C1152 1.392 . S
N1124 Co1118 2.008 . S
N1124 C1125 1.376 . S
N1124 C1128 1.374 . S
C1125 N1124 1.376 . S
C1125 C1126 1.443 . S
C1125 C1152 1.389 . S
C1126 C1125 1.443 . S
C1126 C1127 1.340 . S
C1126 H1158 0.951 . S
C1127 C1126 1.340 . S
C1127 C1128 1.439 . S
C1127 H1159 0.950 . S
C1128 N1124 1.374 . S
C1128 C1127 1.439 . S
C1128 C1153 1.395 . S
N1129 Co1118 1.995 . S
N1129 C1130 1.376 . S
N1129 C1133 1.383 . S
C1130 N1129 1.376 . S
C1130 C1131 1.446 . S
C1130 C1153 1.391 . S
C1131 C1130 1.446 . S
C1131 C1132 1.339 . S
C1131 H1160 0.949 . S
C1132 C1131 1.339 . S
C1132 C1133 1.439 . S
C1132 H1161 0.950 . S
C1133 N1129 1.383 . S
C1133 C1132 1.439 . S
C1133 C1151 1.392 . S
N1134 Co1118 2.282 . S
N1134 C1137 1.332 . S
N1134 C1139 1.332 . S
C1135 C1136 1.386 . S
C1135 C1138 1.388 . S
C1136 C1135 1.386 . S
C1136 C1137 1.382 . S
C1136 H1162 0.950 . S
C1137 N1134 1.332 . S
C1137 C1136 1.382 . S
C1137 H1148 0.952 . S
C1138 C1135 1.388 . S
C1138 C1139 1.382 . S
C1138 H1163 0.950 . S
C1139 N1134 1.332 . S
C1139 C1138 1.382 . S
C1139 H1149 0.948 . S
N1140 Co1118 2.282 . S
N1140 C1144 1.332 . S
N1140 C1145 1.332 . S
C1141 C1142 1.388 . S
C1141 C1145 1.382 . S
C1141 H1164 0.950 . S
C1142 C1141 1.388 . S
C1142 C1143 1.386 . S
C1143 C1142 1.386 . S
C1143 C1144 1.382 . S
C1143 H1165 0.950 . S
C1144 N1140 1.332 . S
C1144 C1143 1.382 . S
C1144 H1146 0.952 . S
C1145 N1140 1.332 . S
C1145 C1141 1.382 . S
C1145 H1147 0.948 . S
H1146 C1144 0.952 . S
H1147 C1145 0.948 . S
H1148 C1137 0.952 . S
H1149 C1139 0.948 . S
C1150 C1116 1.395 . S
C1150 C1120 1.391 . S
C1151 C1113 1.389 . S
C1151 C1133 1.392 . S
C1152 C1123 1.392 . S
C1152 C1125 1.389 . S
C1153 C1128 1.395 . S
C1153 C1130 1.391 . S
H1154 C1114 0.951 . S
H1155 C1115 0.950 . S
H1156 C1121 0.949 . S
H1157 C1122 0.950 . S
H1158 C1126 0.951 . S
H1159 C1127 0.950 . S
H1160 C1131 0.949 . S
H1161 C1132 0.950 . S
H1162 C1136 0.950 . S
H1163 C1138 0.950 . S
H1164 C1141 0.950 . S
H1165 C1143 0.950 . S
C1166 C1167 1.443 . S
C1166 N1170 1.376 . S
C1166 C1204 1.389 . S
C1167 C1166 1.443 . S
C1167 C1168 1.340 . S
C1167 H1207 0.951 . S
C1168 C1167 1.340 . S
C1168 C1169 1.439 . S
C1168 H1208 0.950 . S
C1169 C1168 1.439 . S
C1169 N1170 1.374 . S
C1169 C1203 1.395 . S
N1170 C1166 1.376 . S
N1170 C1169 1.374 . S
N1170 Co1171 2.008 . S
Co1171 N1170 2.008 . S
Co1171 N1172 1.995 . S
Co1171 N1177 2.008 . S
Co1171 N1182 1.995 . S
Co1171 N1187 2.282 . S
Co1171 N1193 2.282 . S
N1172 Co1171 1.995 . S
N1172 C1173 1.376 . S
N1172 C1176 1.383 . S
C1173 N1172 1.376 . S
C1173 C1174 1.446 . S
C1173 C1203 1.391 . S
C1174 C1173 1.446 . S
C1174 C1175 1.339 . S
C1174 H1209 0.949 1_556 S
C1175 C1174 1.339 . S
C1175 C1176 1.439 . S
C1175 H1210 0.950 . S
C1176 N1172 1.383 . S
C1176 C1175 1.439 . S
C1176 C1205 1.392 . S
N1177 Co1171 2.008 . S
N1177 C1178 1.376 . S
N1177 C1181 1.374 . S
C1178 N1177 1.376 . S
C1178 C1179 1.443 . S
C1178 C1205 1.389 . S
C1179 C1178 1.443 . S
C1179 C1180 1.340 . S
C1179 H1211 0.951 . S
C1180 C1179 1.340 . S
C1180 C1181 1.439 . S
C1180 H1212 0.950 . S
C1181 N1177 1.374 . S
C1181 C1180 1.439 . S
C1181 C1206 1.395 . S
N1182 Co1171 1.995 . S
N1182 C1183 1.376 . S
N1182 C1186 1.383 . S
C1183 N1182 1.376 . S
C1183 C1184 1.446 . S
C1183 C1206 1.391 . S
C1184 C1183 1.446 . S
C1184 C1185 1.339 . S
C1184 H1213 0.949 . S
C1185 C1184 1.339 . S
C1185 C1186 1.439 . S
C1185 H1214 0.950 . S
C1186 N1182 1.383 . S
C1186 C1185 1.439 . S
C1186 C1204 1.392 . S
N1187 Co1171 2.282 . S
N1187 C1190 1.332 . S
N1187 C1192 1.332 . S
C1188 C1189 1.386 . S
C1188 C1191 1.388 . S
C1189 C1188 1.386 . S
C1189 C1190 1.382 . S
C1189 H1215 0.950 . S
C1190 N1187 1.332 . S
C1190 C1189 1.382 . S
C1190 H1201 0.952 . S
C1191 C1188 1.388 . S
C1191 C1192 1.382 . S
C1191 H1216 0.950 . S
C1192 N1187 1.332 . S
C1192 C1191 1.382 . S
C1192 H1202 0.948 . S
N1193 Co1171 2.282 . S
N1193 C1197 1.332 . S
N1193 C1198 1.332 . S
C1194 C1195 1.388 . S
C1194 C1198 1.382 . S
C1194 H1217 0.950 . S
C1195 C1194 1.388 . S
C1195 C1196 1.386 . S
C1196 C1195 1.386 . S
C1196 C1197 1.382 . S
C1196 H1218 0.950 . S
C1197 N1193 1.332 . S
C1197 C1196 1.382 . S
C1197 H1199 0.952 . S
C1198 N1193 1.332 . S
C1198 C1194 1.382 . S
C1198 H1200 0.948 . S
H1199 C1197 0.952 . S
H1200 C1198 0.948 . S
H1201 C1190 0.952 . S
H1202 C1192 0.948 . S
C1203 C1169 1.395 . S
C1203 C1173 1.391 . S
C1204 C1166 1.389 . S
C1204 C1186 1.392 . S
C1205 C1176 1.392 . S
C1205 C1178 1.389 . S
C1206 C1181 1.395 . S
C1206 C1183 1.391 . S
H1207 C1167 0.951 . S
H1208 C1168 0.950 . S
H1209 C1174 0.949 1_554 S
H1210 C1175 0.950 . S
H1211 C1179 0.951 . S
H1212 C1180 0.950 . S
H1213 C1184 0.949 . S
H1214 C1185 0.950 . S
H1215 C1189 0.950 . S
H1216 C1191 0.950 . S
H1217 C1194 0.950 . S
H1218 C1196 0.950 . S
C1219 C1220 1.443 . S
C1219 N1223 1.376 . S
C1219 C1257 1.389 . S
C1220 C1219 1.443 . S
C1220 C1221 1.340 . S
C1220 H1260 0.951 . S
C1221 C1220 1.340 . S
C1221 C1222 1.439 . S
C1221 H1261 0.950 1_556 S
C1222 C1221 1.439 . S
C1222 N1223 1.374 . S
C1222 C1256 1.395 1_556 S
N1223 C1219 1.376 . S
N1223 C1222 1.374 . S
N1223 Co1224 2.008 . S
Co1224 N1223 2.008 . S
Co1224 N1225 1.995 . S
Co1224 N1230 2.008 . S
Co1224 N1235 1.995 . S
Co1224 N1240 2.282 . S
Co1224 N1246 2.282 . S
N1225 Co1224 1.995 . S
N1225 C1226 1.376 1_556 S
N1225 C1229 1.383 . S
C1226 N1225 1.376 1_554 S
C1226 C1227 1.446 . S
C1226 C1256 1.391 . S
C1227 C1226 1.446 . S
C1227 C1228 1.339 . S
C1227 H1262 0.949 . S
C1228 C1227 1.339 . S
C1228 C1229 1.439 1_554 S
C1228 H1263 0.950 . S
C1229 N1225 1.383 . S
C1229 C1228 1.439 1_556 S
C1229 C1258 1.392 . S
N1230 Co1224 2.008 . S
N1230 C1231 1.376 . S
N1230 C1234 1.374 . S
C1231 N1230 1.376 . S
C1231 C1232 1.443 . S
C1231 C1258 1.389 . S
C1232 C1231 1.443 . S
C1232 C1233 1.340 . S
C1232 H1264 0.951 . S
C1233 C1232 1.340 . S
C1233 C1234 1.439 . S
C1233 H1265 0.950 . S
C1234 N1230 1.374 . S
C1234 C1233 1.439 . S
C1234 C1259 1.395 . S
N1235 Co1224 1.995 . S
N1235 C1236 1.376 . S
N1235 C1239 1.383 . S
C1236 N1235 1.376 . S
C1236 C1237 1.446 . S
C1236 C1259 1.391 . S
C1237 C1236 1.446 . S
C1237 C1238 1.339 . S
C1237 H1266 0.949 . S
C1238 C1237 1.339 . S
C1238 C1239 1.439 . S
C1238 H1267 0.950 . S
C1239 N1235 1.383 . S
C1239 C1238 1.439 . S
C1239 C1257 1.392 . S
N1240 Co1224 2.282 . S
N1240 C1243 1.332 . S
N1240 C1245 1.332 . S
C1241 C1242 1.386 . S
C1241 C1244 1.388 . S
C1242 C1241 1.386 . S
C1242 C1243 1.382 . S
C1242 H1268 0.950 . S
C1243 N1240 1.332 . S
C1243 C1242 1.382 . S
C1243 H1254 0.952 . S
C1244 C1241 1.388 . S
C1244 C1245 1.382 . S
C1244 H1269 0.950 . S
C1245 N1240 1.332 . S
C1245 C1244 1.382 . S
C1245 H1255 0.948 . S
N1246 Co1224 2.282 . S
N1246 C1250 1.332 . S
N1246 C1251 1.332 . S
C1247 C1248 1.388 . S
C1247 C1251 1.382 . S
C1247 H1270 0.950 . S
C1248 C1247 1.388 . S
C1248 C1249 1.386 . S
C1249 C1248 1.386 . S
C1249 C1250 1.382 . S
C1249 H1271 0.950 . S
C1250 N1246 1.332 . S
C1250 C1249 1.382 . S
C1250 H1252 0.952 . S
C1251 N1246 1.332 . S
C1251 C1247 1.382 . S
C1251 H1253 0.948 . S
H1252 C1250 0.952 . S
H1253 C1251 0.948 . S
H1254 C1243 0.952 . S
H1255 C1245 0.948 . S
C1256 C1222 1.395 1_554 S
C1256 C1226 1.391 . S
C1257 C1219 1.389 . S
C1257 C1239 1.392 . S
C1258 C1229 1.392 . S
C1258 C1231 1.389 . S
C1259 C1234 1.395 . S
C1259 C1236 1.391 . S
H1260 C1220 0.951 . S
H1261 C1221 0.950 1_554 S
H1262 C1227 0.949 . S
H1263 C1228 0.950 . S
H1264 C1232 0.951 . S
H1265 C1233 0.950 . S
H1266 C1237 0.949 . S
H1267 C1238 0.950 . S
H1268 C1242 0.950 . S
H1269 C1244 0.950 . S
H1270 C1247 0.950 . S
H1271 C1249 0.950 . S
C1272 C1273 1.443 . S
C1272 N1276 1.376 . S
C1272 C1310 1.389 . S
C1273 C1272 1.443 . S
C1273 C1274 1.340 . S
C1273 H1313 0.951 . S
C1274 C1273 1.340 . S
C1274 C1275 1.439 . S
C1274 H1314 0.950 . S
C1275 C1274 1.439 . S
C1275 N1276 1.374 . S
C1275 C1309 1.395 . S
N1276 C1272 1.376 . S
N1276 C1275 1.374 . S
N1276 Co1277 2.008 . S
Co1277 N1276 2.008 . S
Co1277 N1278 1.995 . S
Co1277 N1283 2.008 . S
Co1277 N1288 1.995 . S
Co1277 N1293 2.282 . S
Co1277 N1299 2.282 . S
N1278 Co1277 1.995 . S
N1278 C1279 1.376 . S
N1278 C1282 1.383 . S
C1279 N1278 1.376 . S
C1279 C1280 1.446 . S
C1279 C1309 1.391 . S
C1280 C1279 1.446 . S
C1280 C1281 1.339 . S
C1280 H1315 0.949 . S
C1281 C1280 1.339 . S
C1281 C1282 1.439 . S
C1281 H1316 0.950 . S
C1282 N1278 1.383 . S
C1282 C1281 1.439 . S
C1282 C1311 1.392 . S
N1283 Co1277 2.008 . S
N1283 C1284 1.376 . S
N1283 C1287 1.374 . S
C1284 N1283 1.376 . S
C1284 C1285 1.443 . S
C1284 C1311 1.389 . S
C1285 C1284 1.443 . S
C1285 C1286 1.340 . S
C1285 H1317 0.951 . S
C1286 C1285 1.340 . S
C1286 C1287 1.439 . S
C1286 H1318 0.950 . S
C1287 N1283 1.374 . S
C1287 C1286 1.439 . S
C1287 C1312 1.395 . S
N1288 Co1277 1.995 . S
N1288 C1289 1.376 . S
N1288 C1292 1.383 . S
C1289 N1288 1.376 . S
C1289 C1290 1.446 . S
C1289 C1312 1.391 . S
C1290 C1289 1.446 . S
C1290 C1291 1.339 . S
C1290 H1319 0.949 . S
C1291 C1290 1.339 . S
C1291 C1292 1.439 . S
C1291 H1320 0.950 . S
C1292 N1288 1.383 . S
C1292 C1291 1.439 . S
C1292 C1310 1.392 . S
N1293 Co1277 2.282 . S
N1293 C1296 1.332 . S
N1293 C1298 1.332 . S
C1294 C1295 1.386 . S
C1294 C1297 1.388 . S
C1295 C1294 1.386 . S
C1295 C1296 1.382 . S
C1295 H1321 0.950 . S
C1296 N1293 1.332 . S
C1296 C1295 1.382 . S
C1296 H1307 0.952 . S
C1297 C1294 1.388 . S
C1297 C1298 1.382 . S
C1297 H1322 0.950 . S
C1298 N1293 1.332 . S
C1298 C1297 1.382 . S
C1298 H1308 0.948 . S
N1299 Co1277 2.282 . S
N1299 C1303 1.332 . S
N1299 C1304 1.332 . S
C1300 C1301 1.388 . S
C1300 C1304 1.382 . S
C1300 H1323 0.950 . S
C1301 C1300 1.388 . S
C1301 C1302 1.386 . S
C1302 C1301 1.386 . S
C1302 C1303 1.382 . S
C1302 H1324 0.950 . S
C1303 N1299 1.332 . S
C1303 C1302 1.382 . S
C1303 H1305 0.952 . S
C1304 N1299 1.332 . S
C1304 C1300 1.382 . S
C1304 H1306 0.948 . S
H1305 C1303 0.952 . S
H1306 C1304 0.948 . S
H1307 C1296 0.952 . S
H1308 C1298 0.948 . S
C1309 C1275 1.395 . S
C1309 C1279 1.391 . S
C1310 C1272 1.389 . S
C1310 C1292 1.392 . S
C1311 C1282 1.392 . S
C1311 C1284 1.389 . S
C1312 C1287 1.395 . S
C1312 C1289 1.391 . S
H1313 C1273 0.951 . S
H1314 C1274 0.950 . S
H1315 C1280 0.949 . S
H1316 C1281 0.950 . S
H1317 C1285 0.951 . S
H1318 C1286 0.950 . S
H1319 C1290 0.949 . S
H1320 C1291 0.950 . S
H1321 C1295 0.950 . S
H1322 C1297 0.950 . S
H1323 C1300 0.950 . S
H1324 C1302 0.950 . S
C1325 C1326 1.443 . S
C1325 N1329 1.376 . S
C1325 C1363 1.389 . S
C1326 C1325 1.443 . S
C1326 C1327 1.340 . S
C1326 H1366 0.951 . S
C1327 C1326 1.340 . S
C1327 C1328 1.439 . S
C1327 H1367 0.950 . S
C1328 C1327 1.439 . S
C1328 N1329 1.374 . S
C1328 C1362 1.395 . S
N1329 C1325 1.376 . S
N1329 C1328 1.374 . S
N1329 Co1330 2.008 . S
Co1330 N1329 2.008 . S
Co1330 N1331 1.995 . S
Co1330 N1336 2.008 . S
Co1330 N1341 1.995 . S
Co1330 N1346 2.282 . S
Co1330 N1352 2.282 . S
N1331 Co1330 1.995 . S
N1331 C1332 1.376 . S
N1331 C1335 1.383 . S
C1332 N1331 1.376 . S
C1332 C1333 1.446 . S
C1332 C1362 1.391 . S
C1333 C1332 1.446 . S
C1333 C1334 1.339 . S
C1333 H1368 0.949 . S
C1334 C1333 1.339 . S
C1334 C1335 1.439 . S
C1334 H1369 0.950 . S
C1335 N1331 1.383 . S
C1335 C1334 1.439 . S
C1335 C1364 1.392 . S
N1336 Co1330 2.008 . S
N1336 C1337 1.376 . S
N1336 C1340 1.374 . S
C1337 N1336 1.376 . S
C1337 C1338 1.443 . S
C1337 C1364 1.389 . S
C1338 C1337 1.443 . S
C1338 C1339 1.340 . S
C1338 H1370 0.951 . S
C1339 C1338 1.340 . S
C1339 C1340 1.439 . S
C1339 H1371 0.950 . S
C1340 N1336 1.374 . S
C1340 C1339 1.439 . S
C1340 C1365 1.395 . S
N1341 Co1330 1.995 . S
N1341 C1342 1.376 . S
N1341 C1345 1.383 . S
C1342 N1341 1.376 . S
C1342 C1343 1.446 . S
C1342 C1365 1.391 . S
C1343 C1342 1.446 . S
C1343 C1344 1.339 . S
C1343 H1372 0.949 . S
C1344 C1343 1.339 . S
C1344 C1345 1.439 . S
C1344 H1373 0.950 . S
C1345 N1341 1.383 . S
C1345 C1344 1.439 . S
C1345 C1363 1.392 . S
N1346 Co1330 2.282 . S
N1346 C1349 1.332 . S
N1346 C1351 1.332 . S
C1347 C1348 1.386 . S
C1347 C1350 1.388 . S
C1348 C1347 1.386 . S
C1348 C1349 1.382 . S
C1348 H1374 0.950 . S
C1349 N1346 1.332 . S
C1349 C1348 1.382 . S
C1349 H1360 0.952 . S
C1350 C1347 1.388 . S
C1350 C1351 1.382 . S
C1350 H1375 0.950 . S
C1351 N1346 1.332 . S
C1351 C1350 1.382 . S
C1351 H1361 0.948 . S
N1352 Co1330 2.282 . S
N1352 C1356 1.332 . S
N1352 C1357 1.332 . S
C1353 C1354 1.388 . S
C1353 C1357 1.382 . S
C1353 H1376 0.950 . S
C1354 C1353 1.388 . S
C1354 C1355 1.386 . S
C1355 C1354 1.386 . S
C1355 C1356 1.382 . S
C1355 H1377 0.950 . S
C1356 N1352 1.332 . S
C1356 C1355 1.382 . S
C1356 H1358 0.952 . S
C1357 N1352 1.332 . S
C1357 C1353 1.382 . S
C1357 H1359 0.948 . S
H1358 C1356 0.952 . S
H1359 C1357 0.948 . S
H1360 C1349 0.952 . S
H1361 C1351 0.948 . S
C1362 C1328 1.395 . S
C1362 C1332 1.391 . S
C1363 C1325 1.389 . S
C1363 C1345 1.392 . S
C1364 C1335 1.392 . S
C1364 C1337 1.389 . S
C1365 C1340 1.395 . S
C1365 C1342 1.391 . S
H1366 C1326 0.951 . S
H1367 C1327 0.950 . S
H1368 C1333 0.949 . S
H1369 C1334 0.950 . S
H1370 C1338 0.951 . S
H1371 C1339 0.950 . S
H1372 C1343 0.949 . S
H1373 C1344 0.950 . S
H1374 C1348 0.950 . S
H1375 C1350 0.950 . S
H1376 C1353 0.950 . S
H1377 C1355 0.950 . S
C1378 C1379 1.443 . S
C1378 N1382 1.376 . S
C1378 C1416 1.389 . S
C1379 C1378 1.443 . S
C1379 C1380 1.340 . S
C1379 H1419 0.951 . S
C1380 C1379 1.340 . S
C1380 C1381 1.439 . S
C1380 H1420 0.950 . S
C1381 C1380 1.439 . S
C1381 N1382 1.374 . S
C1381 C1415 1.395 . S
N1382 C1378 1.376 . S
N1382 C1381 1.374 . S
N1382 Co1383 2.008 . S
Co1383 N1382 2.008 . S
Co1383 N1384 1.995 . S
Co1383 N1389 2.008 . S
Co1383 N1394 1.995 . S
Co1383 N1399 2.282 . S
Co1383 N1405 2.282 . S
N1384 Co1383 1.995 . S
N1384 C1385 1.376 . S
N1384 C1388 1.383 . S
C1385 N1384 1.376 . S
C1385 C1386 1.446 . S
C1385 C1415 1.391 . S
C1386 C1385 1.446 . S
C1386 C1387 1.339 . S
C1386 H1421 0.949 . S
C1387 C1386 1.339 . S
C1387 C1388 1.439 . S
C1387 H1422 0.950 . S
C1388 N1384 1.383 . S
C1388 C1387 1.439 . S
C1388 C1417 1.392 . S
N1389 Co1383 2.008 . S
N1389 C1390 1.376 . S
N1389 C1393 1.374 . S
C1390 N1389 1.376 . S
C1390 C1391 1.443 . S
C1390 C1417 1.389 . S
C1391 C1390 1.443 . S
C1391 C1392 1.340 . S
C1391 H1423 0.951 . S
C1392 C1391 1.340 . S
C1392 C1393 1.439 . S
C1392 H1424 0.950 . S
C1393 N1389 1.374 . S
C1393 C1392 1.439 . S
C1393 C1418 1.395 . S
N1394 Co1383 1.995 . S
N1394 C1395 1.376 . S
N1394 C1398 1.383 . S
C1395 N1394 1.376 . S
C1395 C1396 1.446 . S
C1395 C1418 1.391 . S
C1396 C1395 1.446 . S
C1396 C1397 1.339 . S
C1396 H1425 0.949 . S
C1397 C1396 1.339 . S
C1397 C1398 1.439 . S
C1397 H1426 0.950 . S
C1398 N1394 1.383 . S
C1398 C1397 1.439 . S
C1398 C1416 1.392 . S
N1399 Co1383 2.282 . S
N1399 C1402 1.332 . S
N1399 C1404 1.332 . S
C1400 C1401 1.386 . S
C1400 C1403 1.388 . S
C1401 C1400 1.386 . S
C1401 C1402 1.382 . S
C1401 H1427 0.950 . S
C1402 N1399 1.332 . S
C1402 C1401 1.382 . S
C1402 H1413 0.952 . S
C1403 C1400 1.388 . S
C1403 C1404 1.382 . S
C1403 H1428 0.950 . S
C1404 N1399 1.332 . S
C1404 C1403 1.382 . S
C1404 H1414 0.948 . S
N1405 Co1383 2.282 . S
N1405 C1409 1.332 . S
N1405 C1410 1.332 . S
C1406 C1407 1.388 . S
C1406 C1410 1.382 . S
C1406 H1429 0.950 . S
C1407 C1406 1.388 . S
C1407 C1408 1.386 . S
C1408 C1407 1.386 . S
C1408 C1409 1.382 . S
C1408 H1430 0.950 . S
C1409 N1405 1.332 . S
C1409 C1408 1.382 . S
C1409 H1411 0.952 . S
C1410 N1405 1.332 . S
C1410 C1406 1.382 . S
C1410 H1412 0.948 . S
H1411 C1409 0.952 . S
H1412 C1410 0.948 . S
H1413 C1402 0.952 . S
H1414 C1404 0.948 . S
C1415 C1381 1.395 . S
C1415 C1385 1.391 . S
C1416 C1378 1.389 . S
C1416 C1398 1.392 . S
C1417 C1388 1.392 . S
C1417 C1390 1.389 . S
C1418 C1393 1.395 . S
C1418 C1395 1.391 . S
H1419 C1379 0.951 . S
H1420 C1380 0.950 . S
H1421 C1386 0.949 . S
H1422 C1387 0.950 . S
H1423 C1391 0.951 . S
H1424 C1392 0.950 . S
H1425 C1396 0.949 . S
H1426 C1397 0.950 . S
H1427 C1401 0.950 . S
H1428 C1403 0.950 . S
H1429 C1406 0.950 . S
H1430 C1408 0.950 . S
C1431 C1432 1.443 . S
C1431 N1435 1.376 . S
C1431 C1469 1.389 . S
C1432 C1431 1.443 . S
C1432 C1433 1.340 . S
C1432 H1472 0.951 . S
C1433 C1432 1.340 . S
C1433 C1434 1.439 . S
C1433 H1473 0.950 . S
C1434 C1433 1.439 . S
C1434 N1435 1.374 . S
C1434 C1468 1.395 . S
N1435 C1431 1.376 . S
N1435 C1434 1.374 . S
N1435 Co1436 2.008 . S
Co1436 N1435 2.008 . S
Co1436 N1437 1.995 . S
Co1436 N1442 2.008 . S
Co1436 N1447 1.995 . S
Co1436 N1452 2.282 . S
Co1436 N1458 2.282 . S
N1437 Co1436 1.995 . S
N1437 C1438 1.376 . S
N1437 C1441 1.383 . S
C1438 N1437 1.376 . S
C1438 C1439 1.446 . S
C1438 C1468 1.391 . S
C1439 C1438 1.446 . S
C1439 C1440 1.339 . S
C1439 H1474 0.949 . S
C1440 C1439 1.339 . S
C1440 C1441 1.439 . S
C1440 H1475 0.950 . S
C1441 N1437 1.383 . S
C1441 C1440 1.439 . S
C1441 C1470 1.392 . S
N1442 Co1436 2.008 . S
N1442 C1443 1.376 . S
N1442 C1446 1.374 1_554 S
C1443 N1442 1.376 . S
C1443 C1444 1.443 1_554 S
C1443 C1470 1.389 . S
C1444 C1443 1.443 1_556 S
C1444 C1445 1.340 . S
C1444 H1476 0.951 . S
C1445 C1444 1.340 . S
C1445 C1446 1.439 . S
C1445 H1477 0.950 . S
C1446 N1442 1.374 1_556 S
C1446 C1445 1.439 . S
C1446 C1471 1.395 . S
N1447 Co1436 1.995 . S
N1447 C1448 1.376 . S
N1447 C1451 1.383 . S
C1448 N1447 1.376 . S
C1448 C1449 1.446 . S
C1448 C1471 1.391 1_554 S
C1449 C1448 1.446 . S
C1449 C1450 1.336 . S
C1449 H1478 0.952 1_554 S
C1450 C1449 1.336 . S
C1450 C1451 1.439 . S
C1450 H1479 0.950 . S
C1451 N1447 1.383 . S
C1451 C1450 1.439 . S
C1451 C1469 1.392 . S
N1452 Co1436 2.282 . S
N1452 C1455 1.332 . S
N1452 C1457 1.332 . S
C1453 C1454 1.386 . S
C1453 C1456 1.388 . S
C1454 C1453 1.386 . S
C1454 C1455 1.382 . S
C1454 H1480 0.950 . S
C1455 N1452 1.332 . S
C1455 C1454 1.382 . S
C1455 H1466 0.952 . S
C1456 C1453 1.388 . S
C1456 C1457 1.382 . S
C1456 H1481 0.950 . S
C1457 N1452 1.332 . S
C1457 C1456 1.382 . S
C1457 H1467 0.948 . S
N1458 Co1436 2.282 . S
N1458 C1462 1.332 . S
N1458 C1463 1.332 . S
C1459 C1460 1.388 . S
C1459 C1463 1.382 . S
C1459 H1482 0.950 1_554 S
C1460 C1459 1.388 . S
C1460 C1461 1.386 . S
C1461 C1460 1.386 . S
C1461 C1462 1.382 . S
C1461 H1483 0.950 . S
C1462 N1458 1.332 . S
C1462 C1461 1.382 . S
C1462 H1464 0.952 . S
C1463 N1458 1.332 . S
C1463 C1459 1.382 . S
C1463 H1465 0.948 . S
H1464 C1462 0.952 . S
H1465 C1463 0.948 . S
H1466 C1455 0.952 . S
H1467 C1457 0.948 . S
C1468 C1434 1.395 . S
C1468 C1438 1.391 . S
C1469 C1431 1.389 . S
C1469 C1451 1.392 . S
C1470 C1441 1.392 . S
C1470 C1443 1.389 . S
C1471 C1446 1.395 . S
C1471 C1448 1.391 1_556 S
H1472 C1432 0.951 . S
H1473 C1433 0.950 . S
H1474 C1439 0.949 . S
H1475 C1440 0.950 . S
H1476 C1444 0.951 . S
H1477 C1445 0.950 . S
H1478 C1449 0.952 1_556 S
H1479 C1450 0.950 . S
H1480 C1454 0.950 . S
H1481 C1456 0.950 . S
H1482 C1459 0.950 1_556 S
H1483 C1461 0.950 . S
C1484 C1485 1.443 . S
C1484 N1488 1.376 . S
C1484 C1522 1.389 . S
C1485 C1484 1.443 . S
C1485 C1486 1.340 . S
C1485 H1525 0.951 . S
C1486 C1485 1.340 . S
C1486 C1487 1.439 . S
C1486 H1526 0.950 1_554 S
C1487 C1486 1.439 . S
C1487 N1488 1.374 . S
C1487 C1521 1.395 . S
N1488 C1484 1.376 . S
N1488 C1487 1.374 . S
N1488 Co1489 2.008 . S
Co1489 N1488 2.008 . S
Co1489 N1490 1.995 . S
Co1489 N1495 2.008 . S
Co1489 N1500 1.995 . S
Co1489 N1505 2.282 . S
Co1489 N1511 2.282 . S
N1490 Co1489 1.995 . S
N1490 C1491 1.376 . S
N1490 C1494 1.383 . S
C1491 N1490 1.376 . S
C1491 C1492 1.446 1_554 S
C1491 C1521 1.391 . S
C1492 C1491 1.446 1_556 S
C1492 C1493 1.339 1_556 S
C1492 H1527 0.949 . S
C1493 C1492 1.339 1_554 S
C1493 C1494 1.439 . S
C1493 H1528 0.950 . S
C1494 N1490 1.383 . S
C1494 C1493 1.439 . S
C1494 C1523 1.392 . S
N1495 Co1489 2.008 . S
N1495 C1496 1.376 . S
N1495 C1499 1.374 . S
C1496 N1495 1.376 . S
C1496 C1497 1.443 . S
C1496 C1523 1.389 . S
C1497 C1496 1.443 . S
C1497 C1498 1.340 . S
C1497 H1529 0.951 . S
C1498 C1497 1.340 . S
C1498 C1499 1.439 . S
C1498 H1530 0.950 . S
C1499 N1495 1.374 . S
C1499 C1498 1.439 . S
C1499 C1524 1.395 . S
N1500 Co1489 1.995 . S
N1500 C1501 1.376 . S
N1500 C1504 1.383 . S
C1501 N1500 1.376 . S
C1501 C1502 1.446 . S
C1501 C1524 1.391 . S
C1502 C1501 1.446 . S
C1502 C1503 1.339 . S
C1502 H1531 0.949 . S
C1503 C1502 1.339 . S
C1503 C1504 1.439 . S
C1503 H1532 0.950 . S
C1504 N1500 1.383 . S
C1504 C1503 1.439 . S
C1504 C1522 1.392 . S
N1505 Co1489 2.282 . S
N1505 C1508 1.332 . S
N1505 C1510 1.332 . S
C1506 C1507 1.386 . S
C1506 C1509 1.388 . S
C1507 C1506 1.386 . S
C1507 C1508 1.382 . S
C1507 H1533 0.950 . S
C1508 N1505 1.332 . S
C1508 C1507 1.382 . S
C1508 H1519 0.952 . S
C1509 C1506 1.388 . S
C1509 C1510 1.382 . S
C1509 H1534 0.950 . S
C1510 N1505 1.332 . S
C1510 C1509 1.382 . S
C1510 H1520 0.948 . S
N1511 Co1489 2.282 . S
N1511 C1515 1.332 . S
N1511 C1516 1.332 . S
C1512 C1513 1.388 . S
C1512 C1516 1.382 . S
C1512 H1535 0.950 . S
C1513 C1512 1.388 . S
C1513 C1514 1.386 . S
C1514 C1513 1.386 . S
C1514 C1515 1.382 . S
C1514 H1536 0.950 1_554 S
C1515 N1511 1.332 . S
C1515 C1514 1.382 . S
C1515 H1517 0.952 . S
C1516 N1511 1.332 . S
C1516 C1512 1.382 . S
C1516 H1518 0.948 . S
H1517 C1515 0.952 . S
H1518 C1516 0.948 . S
H1519 C1508 0.952 . S
H1520 C1510 0.948 . S
C1521 C1487 1.395 . S
C1521 C1491 1.391 . S
C1522 C1484 1.389 . S
C1522 C1504 1.392 . S
C1523 C1494 1.392 . S
C1523 C1496 1.389 . S
C1524 C1499 1.395 . S
C1524 C1501 1.391 . S
H1525 C1485 0.951 . S
H1526 C1486 0.950 1_556 S
H1527 C1492 0.949 . S
H1528 C1493 0.950 . S
H1529 C1497 0.951 . S
H1530 C1498 0.950 . S
H1531 C1502 0.949 . S
H1532 C1503 0.950 . S
H1533 C1507 0.950 . S
H1534 C1509 0.950 . S
H1535 C1512 0.950 . S
H1536 C1514 0.950 1_556 S
C1537 C1538 1.443 . S
C1537 N1541 1.376 . S
C1537 C1575 1.389 . S
C1538 C1537 1.443 . S
C1538 C1539 1.340 . S
C1538 H1578 0.951 . S
C1539 C1538 1.340 . S
C1539 C1540 1.439 . S
C1539 H1579 0.950 . S
C1540 C1539 1.439 . S
C1540 N1541 1.374 . S
C1540 C1574 1.395 . S
N1541 C1537 1.376 . S
N1541 C1540 1.374 . S
N1541 Co1542 2.008 . S
Co1542 N1541 2.008 . S
Co1542 N1543 1.995 . S
Co1542 N1548 2.008 . S
Co1542 N1553 1.995 . S
Co1542 N1558 2.282 . S
Co1542 N1564 2.282 . S
N1543 Co1542 1.995 . S
N1543 C1544 1.376 . S
N1543 C1547 1.383 . S
C1544 N1543 1.376 . S
C1544 C1545 1.446 . S
C1544 C1574 1.391 . S
C1545 C1544 1.446 . S
C1545 C1546 1.339 . S
C1545 H1580 0.949 . S
C1546 C1545 1.339 . S
C1546 C1547 1.439 . S
C1546 H1581 0.950 . S
C1547 N1543 1.383 . S
C1547 C1546 1.439 . S
C1547 C1576 1.392 . S
N1548 Co1542 2.008 . S
N1548 C1549 1.372 1_554 S
N1548 C1552 1.374 1_554 S
C1549 N1548 1.372 1_556 S
C1549 C1550 1.465 . S
C1549 C1576 1.373 1_556 S
C1550 C1549 1.465 . S
C1550 C1551 1.340 . S
C1550 H1582 0.951 . S
C1551 C1550 1.340 . S
C1551 C1552 1.439 . S
C1551 H1583 0.950 . S
C1552 N1548 1.374 1_556 S
C1552 C1551 1.439 . S
C1552 C1577 1.395 . S
N1553 Co1542 1.995 . S
N1553 C1554 1.376 1_554 S
N1553 C1557 1.383 . S
C1554 N1553 1.376 1_556 S
C1554 C1555 1.446 . S
C1554 C1577 1.391 . S
C1555 C1554 1.446 . S
C1555 C1556 1.339 1_556 S
C1555 H1584 0.949 . S
C1556 C1555 1.339 1_554 S
C1556 C1557 1.439 . S
C1556 H1585 0.950 . S
C1557 N1553 1.383 . S
C1557 C1556 1.439 . S
C1557 C1575 1.392 . S
N1558 Co1542 2.282 . S
N1558 C1561 1.332 . S
N1558 C1563 1.332 . S
C1559 C1560 1.386 . S
C1559 C1562 1.388 . S
C1560 C1559 1.386 . S
C1560 C1561 1.382 . S
C1560 H1586 0.950 . S
C1561 N1558 1.332 . S
C1561 C1560 1.382 . S
C1561 H1572 0.952 . S
C1562 C1559 1.388 . S
C1562 C1563 1.382 . S
C1562 H1587 0.950 . S
C1563 N1558 1.332 . S
C1563 C1562 1.382 . S
C1563 H1573 0.948 . S
N1564 Co1542 2.282 . S
N1564 C1568 1.332 . S
N1564 C1569 1.332 . S
C1565 C1566 1.388 . S
C1565 C1569 1.382 . S
C1565 H1588 0.950 1_554 S
C1566 C1565 1.388 . S
C1566 C1567 1.386 . S
C1567 C1566 1.386 . S
C1567 C1568 1.382 . S
C1567 H1589 0.950 . S
C1568 N1564 1.332 . S
C1568 C1567 1.382 . S
C1568 H1570 0.952 . S
C1569 N1564 1.332 . S
C1569 C1565 1.382 . S
C1569 H1571 0.948 . S
H1570 C1568 0.952 . S
H1571 C1569 0.948 . S
H1572 C1561 0.952 . S
H1573 C1563 0.948 . S
C1574 C1540 1.395 . S
C1574 C1544 1.391 . S
C1575 C1537 1.389 . S
C1575 C1557 1.392 . S
C1576 C1547 1.392 . S
C1576 C1549 1.373 1_554 S
C1577 C1552 1.395 . S
C1577 C1554 1.391 . S
H1578 C1538 0.951 . S
H1579 C1539 0.950 . S
H1580 C1545 0.949 . S
H1581 C1546 0.950 . S
H1582 C1550 0.951 . S
H1583 C1551 0.950 . S
H1584 C1555 0.949 . S
H1585 C1556 0.950 . S
H1586 C1560 0.950 . S
H1587 C1562 0.950 . S
H1588 C1565 0.950 1_556 S
H1589 C1567 0.950 . S
C1590 C1591 1.443 . S
C1590 N1594 1.376 . S
C1590 C1628 1.389 . S
C1591 C1590 1.443 . S
C1591 C1592 1.340 . S
C1591 H1631 0.951 . S
C1592 C1591 1.340 . S
C1592 C1593 1.439 . S
C1592 H1632 0.950 . S
C1593 C1592 1.439 . S
C1593 N1594 1.374 . S
C1593 C1627 1.395 . S
N1594 C1590 1.376 . S
N1594 C1593 1.374 . S
N1594 Co1595 2.008 . S
Co1595 N1594 2.008 . S
Co1595 N1596 1.995 . S
Co1595 N1601 2.008 . S
Co1595 N1606 1.995 . S
Co1595 N1611 2.282 . S
Co1595 N1617 2.282 . S
N1596 Co1595 1.995 . S
N1596 C1597 1.376 . S
N1596 C1600 1.383 . S
C1597 N1596 1.376 . S
C1597 C1598 1.446 . S
C1597 C1627 1.391 . S
C1598 C1597 1.446 . S
C1598 C1599 1.339 . S
C1598 H1633 0.949 . S
C1599 C1598 1.339 . S
C1599 C1600 1.439 . S
C1599 H1634 0.950 . S
C1600 N1596 1.383 . S
C1600 C1599 1.439 . S
C1600 C1629 1.392 . S
N1601 Co1595 2.008 . S
N1601 C1602 1.376 . S
N1601 C1605 1.374 . S
C1602 N1601 1.376 . S
C1602 C1603 1.443 . S
C1602 C1629 1.389 . S
C1603 C1602 1.443 . S
C1603 C1604 1.340 . S
C1603 H1635 0.951 . S
C1604 C1603 1.340 . S
C1604 C1605 1.439 . S
C1604 H1636 0.950 . S
C1605 N1601 1.374 . S
C1605 C1604 1.439 . S
C1605 C1630 1.395 . S
N1606 Co1595 1.995 . S
N1606 C1607 1.376 . S
N1606 C1610 1.383 . S
C1607 N1606 1.376 . S
C1607 C1608 1.446 . S
C1607 C1630 1.391 . S
C1608 C1607 1.446 . S
C1608 C1609 1.339 . S
C1608 H1637 0.949 . S
C1609 C1608 1.339 . S
C1609 C1610 1.439 . S
C1609 H1638 0.950 . S
C1610 N1606 1.383 . S
C1610 C1609 1.439 . S
C1610 C1628 1.392 . S
N1611 Co1595 2.282 . S
N1611 C1614 1.332 . S
N1611 C1616 1.332 . S
C1612 C1613 1.386 . S
C1612 C1615 1.388 . S
C1613 C1612 1.386 . S
C1613 C1614 1.382 . S
C1613 H1639 0.950 . S
C1614 N1611 1.332 . S
C1614 C1613 1.382 . S
C1614 H1625 0.952 . S
C1615 C1612 1.388 . S
C1615 C1616 1.382 . S
C1615 H1640 0.950 . S
C1616 N1611 1.332 . S
C1616 C1615 1.382 . S
C1616 H1626 0.948 . S
N1617 Co1595 2.282 . S
N1617 C1621 1.332 . S
N1617 C1622 1.332 . S
C1618 C1619 1.388 . S
C1618 C1622 1.382 . S
C1618 H1641 0.950 . S
C1619 C1618 1.388 . S
C1619 C1620 1.386 . S
C1620 C1619 1.386 . S
C1620 C1621 1.382 . S
C1620 H1642 0.950 . S
C1621 N1617 1.332 . S
C1621 C1620 1.382 . S
C1621 H1623 0.952 . S
C1622 N1617 1.332 . S
C1622 C1618 1.382 . S
C1622 H1624 0.948 . S
H1623 C1621 0.952 . S
H1624 C1622 0.948 . S
H1625 C1614 0.952 . S
H1626 C1616 0.948 . S
C1627 C1593 1.395 . S
C1627 C1597 1.391 . S
C1628 C1590 1.389 . S
C1628 C1610 1.392 . S
C1629 C1600 1.392 . S
C1629 C1602 1.389 . S
C1630 C1605 1.395 . S
C1630 C1607 1.391 . S
H1631 C1591 0.951 . S
H1632 C1592 0.950 . S
H1633 C1598 0.949 . S
H1634 C1599 0.950 . S
H1635 C1603 0.951 . S
H1636 C1604 0.950 . S
H1637 C1608 0.949 . S
H1638 C1609 0.950 . S
H1639 C1613 0.950 . S
H1640 C1615 0.950 . S
H1641 C1618 0.950 . S
H1642 C1620 0.950 . S
C1643 C1644 1.443 . S
C1643 N1647 1.376 . S
C1643 C1681 1.389 . S
C1644 C1643 1.443 . S
C1644 C1645 1.340 . S
C1644 H1684 0.951 . S
C1645 C1644 1.340 . S
C1645 C1646 1.439 . S
C1645 H1685 0.950 . S
C1646 C1645 1.439 . S
C1646 N1647 1.374 . S
C1646 C1680 1.395 . S
N1647 C1643 1.376 . S
N1647 C1646 1.374 . S
N1647 Co1648 2.008 . S
Co1648 N1647 2.008 . S
Co1648 N1649 1.995 . S
Co1648 N1654 2.008 . S
Co1648 N1659 1.995 . S
Co1648 N1664 2.282 . S
Co1648 N1670 2.282 . S
N1649 Co1648 1.995 . S
N1649 C1650 1.376 . S
N1649 C1653 1.383 . S
C1650 N1649 1.376 . S
C1650 C1651 1.446 . S
C1650 C1680 1.391 . S
C1651 C1650 1.446 . S
C1651 C1652 1.339 . S
C1651 H1686 0.949 . S
C1652 C1651 1.339 . S
C1652 C1653 1.439 . S
C1652 H1687 0.950 . S
C1653 N1649 1.383 . S
C1653 C1652 1.439 . S
C1653 C1682 1.392 . S
N1654 Co1648 2.008 . S
N1654 C1655 1.376 . S
N1654 C1658 1.374 . S
C1655 N1654 1.376 . S
C1655 C1656 1.443 . S
C1655 C1682 1.389 . S
C1656 C1655 1.443 . S
C1656 C1657 1.340 . S
C1656 H1688 0.951 . S
C1657 C1656 1.340 . S
C1657 C1658 1.439 . S
C1657 H1689 0.950 . S
C1658 N1654 1.374 . S
C1658 C1657 1.439 . S
C1658 C1683 1.395 . S
N1659 Co1648 1.995 . S
N1659 C1660 1.376 . S
N1659 C1663 1.383 . S
C1660 N1659 1.376 . S
C1660 C1661 1.446 . S
C1660 C1683 1.391 . S
C1661 C1660 1.446 . S
C1661 C1662 1.339 . S
C1661 H1690 0.949 . S
C1662 C1661 1.339 . S
C1662 C1663 1.439 . S
C1662 H1691 0.950 . S
C1663 N1659 1.383 . S
C1663 C1662 1.439 . S
C1663 C1681 1.392 . S
N1664 Co1648 2.282 . S
N1664 C1667 1.332 . S
N1664 C1669 1.332 . S
C1665 C1666 1.386 . S
C1665 C1668 1.388 . S
C1666 C1665 1.386 . S
C1666 C1667 1.382 . S
C1666 H1692 0.950 . S
C1667 N1664 1.332 . S
C1667 C1666 1.382 . S
C1667 H1678 0.952 . S
C1668 C1665 1.388 . S
C1668 C1669 1.382 . S
C1668 H1693 0.950 . S
C1669 N1664 1.332 . S
C1669 C1668 1.382 . S
C1669 H1679 0.948 . S
N1670 Co1648 2.282 . S
N1670 C1674 1.332 . S
N1670 C1675 1.332 . S
C1671 C1672 1.388 . S
C1671 C1675 1.382 . S
C1671 H1694 0.950 . S
C1672 C1671 1.388 . S
C1672 C1673 1.386 . S
C1673 C1672 1.386 . S
C1673 C1674 1.382 . S
C1673 H1695 0.950 . S
C1674 N1670 1.332 . S
C1674 C1673 1.382 . S
C1674 H1676 0.952 . S
C1675 N1670 1.332 . S
C1675 C1671 1.382 . S
C1675 H1677 0.948 . S
H1676 C1674 0.952 . S
H1677 C1675 0.948 . S
H1678 C1667 0.952 . S
H1679 C1669 0.948 . S
C1680 C1646 1.395 . S
C1680 C1650 1.391 . S
C1681 C1643 1.389 . S
C1681 C1663 1.392 . S
C1682 C1653 1.392 . S
C1682 C1655 1.389 . S
C1683 C1658 1.395 . S
C1683 C1660 1.391 . S
H1684 C1644 0.951 . S
H1685 C1645 0.950 . S
H1686 C1651 0.949 . S
H1687 C1652 0.950 . S
H1688 C1656 0.951 . S
H1689 C1657 0.950 . S
H1690 C1661 0.949 . S
H1691 C1662 0.950 . S
H1692 C1666 0.950 . S
H1693 C1668 0.950 . S
H1694 C1671 0.950 . S
H1695 C1673 0.950 . S
C1696 C1697 1.443 . S
C1696 N1700 1.376 . S
C1696 C1734 1.389 . S
C1697 C1696 1.443 . S
C1697 C1698 1.340 . S
C1697 H1737 0.951 . S
C1698 C1697 1.340 . S
C1698 C1699 1.439 . S
C1698 H1738 0.950 . S
C1699 C1698 1.439 . S
C1699 N1700 1.374 . S
C1699 C1733 1.395 . S
N1700 C1696 1.376 . S
N1700 C1699 1.374 . S
N1700 Co1701 2.008 . S
Co1701 N1700 2.008 . S
Co1701 N1702 1.995 . S
Co1701 N1707 2.008 . S
Co1701 N1712 1.995 . S
Co1701 N1717 2.282 . S
Co1701 N1723 2.282 . S
N1702 Co1701 1.995 . S
N1702 C1703 1.376 . S
N1702 C1706 1.383 . S
C1703 N1702 1.376 . S
C1703 C1704 1.446 . S
C1703 C1733 1.391 . S
C1704 C1703 1.446 . S
C1704 C1705 1.339 . S
C1704 H1739 0.949 . S
C1705 C1704 1.339 . S
C1705 C1706 1.439 . S
C1705 H1740 0.950 . S
C1706 N1702 1.383 . S
C1706 C1705 1.439 . S
C1706 C1735 1.392 . S
N1707 Co1701 2.008 . S
N1707 C1708 1.376 . S
N1707 C1711 1.374 . S
C1708 N1707 1.376 . S
C1708 C1709 1.443 . S
C1708 C1735 1.389 . S
C1709 C1708 1.443 . S
C1709 C1710 1.340 . S
C1709 H1741 0.951 . S
C1710 C1709 1.340 . S
C1710 C1711 1.439 . S
C1710 H1742 0.950 . S
C1711 N1707 1.374 . S
C1711 C1710 1.439 . S
C1711 C1736 1.395 . S
N1712 Co1701 1.995 . S
N1712 C1713 1.376 . S
N1712 C1716 1.383 . S
C1713 N1712 1.376 . S
C1713 C1714 1.446 . S
C1713 C1736 1.391 . S
C1714 C1713 1.446 . S
C1714 C1715 1.339 . S
C1714 H1743 0.949 . S
C1715 C1714 1.339 . S
C1715 C1716 1.439 . S
C1715 H1744 0.950 . S
C1716 N1712 1.383 . S
C1716 C1715 1.439 . S
C1716 C1734 1.392 . S
N1717 Co1701 2.282 . S
N1717 C1720 1.332 . S
N1717 C1722 1.332 . S
C1718 C1719 1.386 . S
C1718 C1721 1.388 . S
C1719 C1718 1.386 . S
C1719 C1720 1.382 . S
C1719 H1745 0.950 . S
C1720 N1717 1.332 . S
C1720 C1719 1.382 . S
C1720 H1731 0.952 . S
C1721 C1718 1.388 . S
C1721 C1722 1.382 . S
C1721 H1746 0.950 . S
C1722 N1717 1.332 . S
C1722 C1721 1.382 . S
C1722 H1732 0.948 . S
N1723 Co1701 2.282 . S
N1723 C1727 1.332 . S
N1723 C1728 1.332 . S
C1724 C1725 1.388 . S
C1724 C1728 1.382 . S
C1724 H1747 0.950 . S
C1725 C1724 1.388 . S
C1725 C1726 1.386 . S
C1726 C1725 1.386 . S
C1726 C1727 1.382 . S
C1726 H1748 0.950 . S
C1727 N1723 1.332 . S
C1727 C1726 1.382 . S
C1727 H1729 0.952 . S
C1728 N1723 1.332 . S
C1728 C1724 1.382 . S
C1728 H1730 0.948 . S
H1729 C1727 0.952 . S
H1730 C1728 0.948 . S
H1731 C1720 0.952 . S
H1732 C1722 0.948 . S
C1733 C1699 1.395 . S
C1733 C1703 1.391 . S
C1734 C1696 1.389 . S
C1734 C1716 1.392 . S
C1735 C1706 1.392 . S
C1735 C1708 1.389 . S
C1736 C1711 1.395 . S
C1736 C1713 1.391 . S
H1737 C1697 0.951 . S
H1738 C1698 0.950 . S
H1739 C1704 0.949 . S
H1740 C1705 0.950 . S
H1741 C1709 0.951 . S
H1742 C1710 0.950 . S
H1743 C1714 0.949 . S
H1744 C1715 0.950 . S
H1745 C1719 0.950 . S
H1746 C1721 0.950 . S
H1747 C1724 0.950 . S
H1748 C1726 0.950 . S
C1749 C1750 1.443 . S
C1749 N1753 1.376 . S
C1749 C1787 1.389 . S
C1750 C1749 1.443 . S
C1750 C1751 1.340 . S
C1750 H1790 0.951 . S
C1751 C1750 1.340 . S
C1751 C1752 1.439 . S
C1751 H1791 0.950 . S
C1752 C1751 1.439 . S
C1752 N1753 1.374 . S
C1752 C1786 1.395 . S
N1753 C1749 1.376 . S
N1753 C1752 1.374 . S
N1753 Co1754 2.008 . S
Co1754 N1753 2.008 . S
Co1754 N1755 1.995 . S
Co1754 N1760 2.008 . S
Co1754 N1765 1.995 . S
Co1754 N1770 2.282 . S
Co1754 N1776 2.282 . S
N1755 Co1754 1.995 . S
N1755 C1756 1.376 . S
N1755 C1759 1.383 . S
C1756 N1755 1.376 . S
C1756 C1757 1.446 . S
C1756 C1786 1.391 . S
C1757 C1756 1.446 . S
C1757 C1758 1.339 . S
C1757 H1792 0.949 . S
C1758 C1757 1.339 . S
C1758 C1759 1.439 . S
C1758 H1793 0.950 . S
C1759 N1755 1.383 . S
C1759 C1758 1.439 . S
C1759 C1788 1.392 . S
N1760 Co1754 2.008 . S
N1760 C1761 1.376 . S
N1760 C1764 1.374 . S
C1761 N1760 1.376 . S
C1761 C1762 1.443 . S
C1761 C1788 1.389 . S
C1762 C1761 1.443 . S
C1762 C1763 1.340 . S
C1762 H1794 0.951 . S
C1763 C1762 1.340 . S
C1763 C1764 1.439 . S
C1763 H1795 0.950 . S
C1764 N1760 1.374 . S
C1764 C1763 1.439 . S
C1764 C1789 1.395 . S
N1765 Co1754 1.995 . S
N1765 C1766 1.376 . S
N1765 C1769 1.383 . S
C1766 N1765 1.376 . S
C1766 C1767 1.446 . S
C1766 C1789 1.391 . S
C1767 C1766 1.446 . S
C1767 C1768 1.339 . S
C1767 H1796 0.949 . S
C1768 C1767 1.339 . S
C1768 C1769 1.439 . S
C1768 H1797 0.950 . S
C1769 N1765 1.383 . S
C1769 C1768 1.439 . S
C1769 C1787 1.392 . S
N1770 Co1754 2.282 . S
N1770 C1773 1.332 . S
N1770 C1775 1.332 . S
C1771 C1772 1.386 . S
C1771 C1774 1.388 . S
C1772 C1771 1.386 . S
C1772 C1773 1.382 . S
C1772 H1798 0.950 . S
C1773 N1770 1.332 . S
C1773 C1772 1.382 . S
C1773 H1784 0.952 . S
C1774 C1771 1.388 . S
C1774 C1775 1.382 . S
C1774 H1799 0.950 . S
C1775 N1770 1.332 . S
C1775 C1774 1.382 . S
C1775 H1785 0.948 . S
N1776 Co1754 2.282 . S
N1776 C1780 1.332 . S
N1776 C1781 1.332 . S
C1777 C1778 1.388 . S
C1777 C1781 1.382 . S
C1777 H1800 0.950 . S
C1778 C1777 1.388 . S
C1778 C1779 1.386 . S
C1779 C1778 1.386 . S
C1779 C1780 1.382 . S
C1779 H1801 0.950 . S
C1780 N1776 1.332 . S
C1780 C1779 1.382 . S
C1780 H1782 0.952 . S
C1781 N1776 1.332 . S
C1781 C1777 1.382 . S
C1781 H1783 0.948 . S
H1782 C1780 0.952 . S
H1783 C1781 0.948 . S
H1784 C1773 0.952 . S
H1785 C1775 0.948 . S
C1786 C1752 1.395 . S
C1786 C1756 1.391 . S
C1787 C1749 1.389 . S
C1787 C1769 1.392 . S
C1788 C1759 1.392 . S
C1788 C1761 1.389 . S
C1789 C1764 1.395 . S
C1789 C1766 1.391 . S
H1790 C1750 0.951 . S
H1791 C1751 0.950 . S
H1792 C1757 0.949 . S
H1793 C1758 0.950 . S
H1794 C1762 0.951 . S
H1795 C1763 0.950 . S
H1796 C1767 0.949 . S
H1797 C1768 0.950 . S
H1798 C1772 0.950 . S
H1799 C1774 0.950 . S
H1800 C1777 0.950 . S
H1801 C1779 0.950 . S
C1802 C1803 1.443 . S
C1802 N1806 1.376 . S
C1802 C1840 1.389 . S
C1803 C1802 1.443 . S
C1803 C1804 1.340 . S
C1803 H1843 0.951 . S
C1804 C1803 1.340 . S
C1804 C1805 1.439 . S
C1804 H1844 0.950 . S
C1805 C1804 1.439 . S
C1805 N1806 1.374 . S
C1805 C1839 1.395 . S
N1806 C1802 1.376 . S
N1806 C1805 1.374 . S
N1806 Co1807 2.008 . S
Co1807 N1806 2.008 . S
Co1807 N1808 1.995 . S
Co1807 N1813 2.008 . S
Co1807 N1818 1.995 . S
Co1807 N1823 2.282 . S
Co1807 N1829 2.282 . S
N1808 Co1807 1.995 . S
N1808 C1809 1.376 . S
N1808 C1812 1.383 . S
C1809 N1808 1.376 . S
C1809 C1810 1.446 . S
C1809 C1839 1.391 . S
C1810 C1809 1.446 . S
C1810 C1811 1.339 . S
C1810 H1845 0.949 . S
C1811 C1810 1.339 . S
C1811 C1812 1.439 . S
C1811 H1846 0.950 . S
C1812 N1808 1.383 . S
C1812 C1811 1.439 . S
C1812 C1841 1.392 . S
N1813 Co1807 2.008 . S
N1813 C1814 1.376 . S
N1813 C1817 1.374 . S
C1814 N1813 1.376 . S
C1814 C1815 1.443 . S
C1814 C1841 1.389 . S
C1815 C1814 1.443 . S
C1815 C1816 1.340 . S
C1815 H1847 0.951 . S
C1816 C1815 1.340 . S
C1816 C1817 1.439 . S
C1816 H1848 0.950 . S
C1817 N1813 1.374 . S
C1817 C1816 1.439 . S
C1817 C1842 1.395 . S
N1818 Co1807 1.995 . S
N1818 C1819 1.376 . S
N1818 C1822 1.383 . S
C1819 N1818 1.376 . S
C1819 C1820 1.446 . S
C1819 C1842 1.391 . S
C1820 C1819 1.446 . S
C1820 C1821 1.339 . S
C1820 H1849 0.949 . S
C1821 C1820 1.339 . S
C1821 C1822 1.439 . S
C1821 H1850 0.950 . S
C1822 N1818 1.383 . S
C1822 C1821 1.439 . S
C1822 C1840 1.392 . S
N1823 Co1807 2.282 . S
N1823 C1826 1.332 . S
N1823 C1828 1.332 . S
C1824 C1825 1.386 . S
C1824 C1827 1.388 . S
C1825 C1824 1.386 . S
C1825 C1826 1.382 . S
C1825 H1851 0.950 . S
C1826 N1823 1.332 . S
C1826 C1825 1.382 . S
C1826 H1837 0.952 . S
C1827 C1824 1.388 . S
C1827 C1828 1.382 . S
C1827 H1852 0.950 . S
C1828 N1823 1.332 . S
C1828 C1827 1.382 . S
C1828 H1838 0.948 . S
N1829 Co1807 2.282 . S
N1829 C1833 1.332 . S
N1829 C1834 1.332 . S
C1830 C1831 1.388 . S
C1830 C1834 1.382 . S
C1830 H1853 0.950 . S
C1831 C1830 1.388 . S
C1831 C1832 1.386 . S
C1832 C1831 1.386 . S
C1832 C1833 1.382 . S
C1832 H1854 0.950 . S
C1833 N1829 1.332 . S
C1833 C1832 1.382 . S
C1833 H1835 0.952 . S
C1834 N1829 1.332 . S
C1834 C1830 1.382 . S
C1834 H1836 0.948 . S
H1835 C1833 0.952 . S
H1836 C1834 0.948 . S
H1837 C1826 0.952 . S
H1838 C1828 0.948 . S
C1839 C1805 1.395 . S
C1839 C1809 1.391 . S
C1840 C1802 1.389 . S
C1840 C1822 1.392 . S
C1841 C1812 1.392 . S
C1841 C1814 1.389 . S
C1842 C1817 1.395 . S
C1842 C1819 1.391 . S
H1843 C1803 0.951 . S
H1844 C1804 0.950 . S
H1845 C1810 0.949 . S
H1846 C1811 0.950 . S
H1847 C1815 0.951 . S
H1848 C1816 0.950 . S
H1849 C1820 0.949 . S
H1850 C1821 0.950 . S
H1851 C1825 0.950 . S
H1852 C1827 0.950 . S
H1853 C1830 0.950 . S
H1854 C1832 0.950 . S
C1855 C1856 1.443 . S
C1855 N1859 1.376 . S
C1855 C1893 1.389 . S
C1856 C1855 1.443 . S
C1856 C1857 1.340 . S
C1856 H1896 0.951 . S
C1857 C1856 1.340 . S
C1857 C1858 1.439 . S
C1857 H1897 0.950 . S
C1858 C1857 1.439 . S
C1858 N1859 1.374 . S
C1858 C1892 1.395 . S
N1859 C1855 1.376 . S
N1859 C1858 1.374 . S
N1859 Co1860 2.008 . S
Co1860 N1859 2.008 . S
Co1860 N1861 1.995 . S
Co1860 N1866 2.008 . S
Co1860 N1871 1.995 . S
Co1860 N1876 2.282 . S
Co1860 N1882 2.282 . S
N1861 Co1860 1.995 . S
N1861 C1862 1.376 . S
N1861 C1865 1.383 . S
C1862 N1861 1.376 . S
C1862 C1863 1.446 . S
C1862 C1892 1.391 . S
C1863 C1862 1.446 . S
C1863 C1864 1.339 . S
C1863 H1898 0.949 . S
C1864 C1863 1.339 . S
C1864 C1865 1.439 . S
C1864 H1899 0.950 . S
C1865 N1861 1.383 . S
C1865 C1864 1.439 . S
C1865 C1894 1.392 . S
N1866 Co1860 2.008 . S
N1866 C1867 1.376 . S
N1866 C1870 1.374 . S
C1867 N1866 1.376 . S
C1867 C1868 1.443 . S
C1867 C1894 1.389 . S
C1868 C1867 1.443 . S
C1868 C1869 1.340 . S
C1868 H1900 0.951 . S
C1869 C1868 1.340 . S
C1869 C1870 1.439 . S
C1869 H1901 0.950 . S
C1870 N1866 1.374 . S
C1870 C1869 1.439 . S
C1870 C1895 1.395 . S
N1871 Co1860 1.995 . S
N1871 C1872 1.376 . S
N1871 C1875 1.383 . S
C1872 N1871 1.376 . S
C1872 C1873 1.446 . S
C1872 C1895 1.391 . S
C1873 C1872 1.446 . S
C1873 C1874 1.339 . S
C1873 H1902 0.949 . S
C1874 C1873 1.339 . S
C1874 C1875 1.439 . S
C1874 H1903 0.950 . S
C1875 N1871 1.383 . S
C1875 C1874 1.439 . S
C1875 C1893 1.392 . S
N1876 Co1860 2.282 . S
N1876 C1879 1.332 . S
N1876 C1881 1.332 . S
C1877 C1878 1.386 . S
C1877 C1880 1.388 . S
C1878 C1877 1.386 . S
C1878 C1879 1.382 . S
C1878 H1904 0.950 . S
C1879 N1876 1.332 . S
C1879 C1878 1.382 . S
C1879 H1890 0.952 . S
C1880 C1877 1.388 . S
C1880 C1881 1.382 . S
C1880 H1905 0.950 . S
C1881 N1876 1.332 . S
C1881 C1880 1.382 . S
C1881 H1891 0.948 . S
N1882 Co1860 2.282 . S
N1882 C1886 1.332 . S
N1882 C1887 1.332 . S
C1883 C1884 1.388 . S
C1883 C1887 1.382 . S
C1883 H1906 0.950 . S
C1884 C1883 1.388 . S
C1884 C1885 1.386 . S
C1885 C1884 1.386 . S
C1885 C1886 1.382 . S
C1885 H1907 0.950 . S
C1886 N1882 1.332 . S
C1886 C1885 1.382 . S
C1886 H1888 0.952 . S
C1887 N1882 1.332 . S
C1887 C1883 1.382 . S
C1887 H1889 0.948 . S
H1888 C1886 0.952 . S
H1889 C1887 0.948 . S
H1890 C1879 0.952 . S
H1891 C1881 0.948 . S
C1892 C1858 1.395 . S
C1892 C1862 1.391 . S
C1893 C1855 1.389 . S
C1893 C1875 1.392 . S
C1894 C1865 1.392 . S
C1894 C1867 1.389 . S
C1895 C1870 1.395 . S
C1895 C1872 1.391 . S
H1896 C1856 0.951 . S
H1897 C1857 0.950 . S
H1898 C1863 0.949 . S
H1899 C1864 0.950 . S
H1900 C1868 0.951 . S
H1901 C1869 0.950 . S
H1902 C1873 0.949 . S
H1903 C1874 0.950 . S
H1904 C1878 0.950 . S
H1905 C1880 0.950 . S
H1906 C1883 0.950 . S
H1907 C1885 0.950 . S
H1908 C1916 0.950 . S
H1909 C1921 0.950 . S
H1910 C1918 0.950 . S
H1911 C1920 0.950 . S
H1912 C1922 0.950 . S
H1913 C1924 0.950 . S
H1914 C1926 0.950 . S
H1915 C1927 0.950 . S
C1916 H1908 0.950 . S
C1916 C1917 1.386 . S
C1916 C1918 1.391 . S
C1917 C1916 1.386 . S
C1917 C1921 1.393 . S
C1918 H1910 0.950 . S
C1918 C1916 1.391 . S
C1918 C1919 1.400 . S
C1919 C1918 1.400 . S
C1919 C1920 1.398 . S
C1919 C1925 1.491 . S
C1920 H1911 0.950 . S
C1920 C1919 1.398 . S
C1920 C1921 1.391 . S
C1921 H1909 0.950 . S
C1921 C1917 1.393 . S
C1921 C1920 1.391 . S
C1922 H1912 0.950 . S
C1922 C1923 1.386 . S
C1922 C1924 1.391 . S
C1923 C1922 1.386 . S
C1923 C1927 1.393 . S
C1924 H1913 0.950 . S
C1924 C1922 1.391 . S
C1924 C1925 1.400 . S
C1925 C1919 1.491 . S
C1925 C1924 1.400 . S
C1925 C1926 1.398 . S
C1926 H1914 0.950 . S
C1926 C1925 1.398 . S
C1926 C1927 1.391 . S
C1927 H1915 0.950 . S
C1927 C1923 1.393 . S
C1927 C1926 1.391 . S
H1928 C1936 0.950 . S
H1929 C1941 0.950 . S
H1930 C1938 0.950 . S
H1931 C1940 0.950 . S
H1932 C1942 0.950 . S
H1933 C1944 0.950 . S
H1934 C1946 0.950 . S
H1935 C1947 0.950 . S
C1936 H1928 0.950 . S
C1936 C1937 1.386 . S
C1936 C1938 1.391 . S
C1937 C1936 1.386 . S
C1937 C1941 1.393 . S
C1938 H1930 0.950 . S
C1938 C1936 1.391 . S
C1938 C1939 1.400 . S
C1939 C1938 1.400 . S
C1939 C1940 1.398 . S
C1939 C1945 1.491 . S
C1940 H1931 0.950 . S
C1940 C1939 1.398 . S
C1940 C1941 1.391 . S
C1941 H1929 0.950 . S
C1941 C1937 1.393 . S
C1941 C1940 1.391 . S
C1942 H1932 0.950 . S
C1942 C1943 1.386 . S
C1942 C1944 1.391 . S
C1943 C1942 1.386 . S
C1943 C1947 1.393 . S
C1944 H1933 0.950 . S
C1944 C1942 1.391 . S
C1944 C1945 1.400 . S
C1945 C1939 1.491 . S
C1945 C1944 1.400 . S
C1945 C1946 1.398 . S
C1946 H1934 0.950 . S
C1946 C1945 1.398 . S
C1946 C1947 1.391 . S
C1947 H1935 0.950 . S
C1947 C1943 1.393 . S
C1947 C1946 1.391 . S
H1948 C1956 0.950 . S
H1949 C1961 0.950 . S
H1950 C1958 0.950 . S
H1951 C1960 0.950 . S
H1952 C1962 0.950 . S
H1953 C1964 0.950 . S
H1954 C1966 0.950 . S
H1955 C1967 0.950 . S
C1956 H1948 0.950 . S
C1956 C1957 1.386 . S
C1956 C1958 1.391 . S
C1957 C1956 1.386 . S
C1957 C1961 1.393 . S
C1958 H1950 0.950 . S
C1958 C1956 1.391 . S
C1958 C1959 1.400 . S
C1959 C1958 1.400 . S
C1959 C1960 1.398 . S
C1959 C1965 1.491 . S
C1960 H1951 0.950 . S
C1960 C1959 1.398 . S
C1960 C1961 1.391 . S
C1961 H1949 0.950 . S
C1961 C1957 1.393 . S
C1961 C1960 1.391 . S
C1962 H1952 0.950 . S
C1962 C1963 1.386 . S
C1962 C1964 1.391 . S
C1963 C1962 1.386 . S
C1963 C1967 1.393 . S
C1964 H1953 0.950 . S
C1964 C1962 1.391 . S
C1964 C1965 1.400 . S
C1965 C1959 1.491 . S
C1965 C1964 1.400 . S
C1965 C1966 1.398 . S
C1966 H1954 0.950 . S
C1966 C1965 1.398 . S
C1966 C1967 1.391 . S
C1967 H1955 0.950 . S
C1967 C1963 1.393 . S
C1967 C1966 1.391 . S
H1968 C1976 0.950 . S
H1969 C1981 0.950 . S
H1970 C1978 0.950 . S
H1971 C1980 0.950 . S
H1972 C1982 0.950 . S
H1973 C1984 0.950 . S
H1974 C1986 0.950 . S
H1975 C1987 0.950 . S
C1976 H1968 0.950 . S
C1976 C1977 1.386 . S
C1976 C1978 1.391 . S
C1977 C1976 1.386 . S
C1977 C1981 1.393 . S
C1978 H1970 0.950 . S
C1978 C1976 1.391 . S
C1978 C1979 1.400 . S
C1979 C1978 1.400 . S
C1979 C1980 1.398 . S
C1979 C1985 1.491 . S
C1980 H1971 0.950 . S
C1980 C1979 1.398 . S
C1980 C1981 1.391 . S
C1981 H1969 0.950 . S
C1981 C1977 1.393 . S
C1981 C1980 1.391 . S
C1982 H1972 0.950 . S
C1982 C1983 1.386 . S
C1982 C1984 1.391 . S
C1983 C1982 1.386 . S
C1983 C1987 1.393 . S
C1984 H1973 0.950 . S
C1984 C1982 1.391 . S
C1984 C1985 1.400 . S
C1985 C1979 1.491 . S
C1985 C1984 1.400 . S
C1985 C1986 1.398 . S
C1986 H1974 0.950 . S
C1986 C1985 1.398 . S
C1986 C1987 1.391 . S
C1987 H1975 0.950 . S
C1987 C1983 1.393 . S
C1987 C1986 1.391 . S
H1988 C1996 0.950 . S
H1989 C2001 0.950 . S
H1990 C1998 0.950 . S
H1991 C2000 0.950 . S
H1992 C2002 0.950 . S
H1993 C2004 0.950 . S
H1994 C2006 0.950 . S
H1995 C2007 0.950 . S
C1996 H1988 0.950 . S
C1996 C1997 1.386 . S
C1996 C1998 1.391 . S
C1997 C1996 1.386 . S
C1997 C2001 1.393 . S
C1998 H1990 0.950 . S
C1998 C1996 1.391 . S
C1998 C1999 1.400 . S
C1999 C1998 1.400 . S
C1999 C2000 1.398 . S
C1999 C2005 1.491 . S
C2000 H1991 0.950 . S
C2000 C1999 1.398 . S
C2000 C2001 1.391 . S
C2001 H1989 0.950 . S
C2001 C1997 1.393 . S
C2001 C2000 1.391 . S
C2002 H1992 0.950 . S
C2002 C2003 1.386 . S
C2002 C2004 1.391 . S
C2003 C2002 1.386 . S
C2003 C2007 1.393 . S
C2004 H1993 0.950 . S
C2004 C2002 1.391 . S
C2004 C2005 1.400 . S
C2005 C1999 1.491 . S
C2005 C2004 1.400 . S
C2005 C2006 1.398 . S
C2006 H1994 0.950 . S
C2006 C2005 1.398 . S
C2006 C2007 1.391 . S
C2007 H1995 0.950 . S
C2007 C2003 1.393 . S
C2007 C2006 1.391 . S
H2008 C2016 0.950 . S
H2009 C2021 0.950 . S
H2010 C2018 0.950 . S
H2011 C2020 0.950 . S
H2012 C2022 0.950 . S
H2013 C2024 0.950 . S
H2014 C2026 0.950 . S
H2015 C2027 0.950 . S
C2016 H2008 0.950 . S
C2016 C2017 1.386 . S
C2016 C2018 1.391 . S
C2017 C2016 1.386 . S
C2017 C2021 1.393 . S
C2018 H2010 0.950 . S
C2018 C2016 1.391 . S
C2018 C2019 1.400 . S
C2019 C2018 1.400 . S
C2019 C2020 1.398 . S
C2019 C2025 1.491 . S
C2020 H2011 0.950 . S
C2020 C2019 1.398 . S
C2020 C2021 1.391 . S
C2021 H2009 0.950 . S
C2021 C2017 1.393 . S
C2021 C2020 1.391 . S
C2022 H2012 0.950 . S
C2022 C2023 1.386 . S
C2022 C2024 1.391 . S
C2023 C2022 1.386 . S
C2023 C2027 1.393 . S
C2024 H2013 0.950 . S
C2024 C2022 1.391 . S
C2024 C2025 1.400 . S
C2025 C2019 1.491 . S
C2025 C2024 1.400 . S
C2025 C2026 1.398 . S
C2026 H2014 0.950 . S
C2026 C2025 1.398 . S
C2026 C2027 1.391 . S
C2027 H2015 0.950 . S
C2027 C2023 1.393 . S
C2027 C2026 1.391 . S
H2028 C2036 0.950 . S
H2029 C2041 0.950 . S
H2030 C2038 0.950 . S
H2031 C2040 0.950 . S
H2032 C2042 0.950 . S
H2033 C2044 0.950 . S
H2034 C2046 0.950 . S
H2035 C2047 0.950 . S
C2036 H2028 0.950 . S
C2036 C2037 1.386 . S
C2036 C2038 1.391 . S
C2037 C2036 1.386 . S
C2037 C2041 1.393 . S
C2038 H2030 0.950 . S
C2038 C2036 1.391 . S
C2038 C2039 1.400 . S
C2039 C2038 1.400 . S
C2039 C2040 1.398 . S
C2039 C2045 1.491 . S
C2040 H2031 0.950 . S
C2040 C2039 1.398 . S
C2040 C2041 1.391 . S
C2041 H2029 0.950 . S
C2041 C2037 1.393 . S
C2041 C2040 1.391 . S
C2042 H2032 0.950 . S
C2042 C2043 1.386 . S
C2042 C2044 1.391 . S
C2043 C2042 1.386 . S
C2043 C2047 1.393 . S
C2044 H2033 0.950 . S
C2044 C2042 1.391 . S
C2044 C2045 1.400 . S
C2045 C2039 1.491 . S
C2045 C2044 1.400 . S
C2045 C2046 1.398 . S
C2046 H2034 0.950 . S
C2046 C2045 1.398 . S
C2046 C2047 1.391 . S
C2047 H2035 0.950 . S
C2047 C2043 1.393 . S
C2047 C2046 1.391 . S
H2048 C2056 0.950 . S
H2049 C2061 0.950 . S
H2050 C2058 0.950 . S
H2051 C2060 0.950 . S
H2052 C2062 0.950 . S
H2053 C2064 0.950 . S
H2054 C2066 0.950 . S
H2055 C2067 0.950 . S
C2056 H2048 0.950 . S
C2056 C2057 1.386 . S
C2056 C2058 1.391 . S
C2057 C2056 1.386 . S
C2057 C2061 1.393 . S
C2058 H2050 0.950 . S
C2058 C2056 1.391 . S
C2058 C2059 1.400 . S
C2059 C2058 1.400 . S
C2059 C2060 1.398 . S
C2059 C2065 1.491 . S
C2060 H2051 0.950 . S
C2060 C2059 1.398 . S
C2060 C2061 1.391 . S
C2061 H2049 0.950 . S
C2061 C2057 1.393 . S
C2061 C2060 1.391 . S
C2062 H2052 0.950 . S
C2062 C2063 1.386 . S
C2062 C2064 1.391 . S
C2063 C2062 1.386 . S
C2063 C2067 1.393 . S
C2064 H2053 0.950 . S
C2064 C2062 1.391 . S
C2064 C2065 1.400 . S
C2065 C2059 1.491 . S
C2065 C2064 1.400 . S
C2065 C2066 1.398 . S
C2066 H2054 0.950 . S
C2066 C2065 1.398 . S
C2066 C2067 1.391 . S
C2067 H2055 0.950 . S
C2067 C2063 1.393 . S
C2067 C2066 1.391 . S
H2068 C2076 0.950 . S
H2069 C2081 0.950 . S
H2070 C2078 0.950 . S
H2071 C2080 0.950 . S
H2072 C2082 0.950 . S
H2073 C2084 0.950 . S
H2074 C2086 0.950 . S
H2075 C2087 0.950 . S
C2076 H2068 0.950 . S
C2076 C2077 1.386 . S
C2076 C2078 1.391 . S
C2077 C2076 1.386 . S
C2077 C2081 1.393 . S
C2078 H2070 0.950 . S
C2078 C2076 1.391 . S
C2078 C2079 1.400 . S
C2079 C2078 1.400 . S
C2079 C2080 1.398 . S
C2079 C2085 1.491 . S
C2080 H2071 0.950 . S
C2080 C2079 1.398 . S
C2080 C2081 1.391 . S
C2081 H2069 0.950 . S
C2081 C2077 1.393 . S
C2081 C2080 1.391 . S
C2082 H2072 0.950 . S
C2082 C2083 1.386 . S
C2082 C2084 1.391 . S
C2083 C2082 1.386 . S
C2083 C2087 1.393 . S
C2084 H2073 0.950 . S
C2084 C2082 1.391 . S
C2084 C2085 1.400 . S
C2085 C2079 1.491 . S
C2085 C2084 1.400 . S
C2085 C2086 1.398 . S
C2086 H2074 0.950 . S
C2086 C2085 1.398 . S
C2086 C2087 1.391 . S
C2087 H2075 0.950 . S
C2087 C2083 1.393 . S
C2087 C2086 1.391 . S
H2088 C2096 0.950 . S
H2089 C2101 0.950 . S
H2090 C2098 0.950 . S
H2091 C2100 0.950 . S
H2092 C2102 0.950 . S
H2093 C2104 0.950 . S
H2094 C2106 0.950 . S
H2095 C2107 0.950 . S
C2096 H2088 0.950 . S
C2096 C2097 1.386 . S
C2096 C2098 1.391 . S
C2097 C2096 1.386 . S
C2097 C2101 1.393 . S
C2098 H2090 0.950 . S
C2098 C2096 1.391 . S
C2098 C2099 1.400 . S
C2099 C2098 1.400 . S
C2099 C2100 1.398 . S
C2099 C2105 1.491 . S
C2100 H2091 0.950 . S
C2100 C2099 1.398 . S
C2100 C2101 1.391 . S
C2101 H2089 0.950 . S
C2101 C2097 1.393 . S
C2101 C2100 1.391 . S
C2102 H2092 0.950 . S
C2102 C2103 1.386 . S
C2102 C2104 1.391 . S
C2103 C2102 1.386 . S
C2103 C2107 1.393 . S
C2104 H2093 0.950 . S
C2104 C2102 1.391 . S
C2104 C2105 1.400 . S
C2105 C2099 1.491 . S
C2105 C2104 1.400 . S
C2105 C2106 1.398 . S
C2106 H2094 0.950 . S
C2106 C2105 1.398 . S
C2106 C2107 1.391 . S
C2107 H2095 0.950 . S
C2107 C2103 1.393 . S
C2107 C2106 1.391 . S
H2108 C2116 0.950 . S
H2109 C2121 0.950 . S
H2110 C2118 0.950 . S
H2111 C2120 0.950 . S
H2112 C2122 0.950 . S
H2113 C2124 0.950 . S
H2114 C2126 0.950 . S
H2115 C2127 0.950 . S
C2116 H2108 0.950 . S
C2116 C2117 1.386 . S
C2116 C2118 1.391 . S
C2117 C2116 1.386 . S
C2117 C2121 1.393 . S
C2118 H2110 0.950 . S
C2118 C2116 1.391 . S
C2118 C2119 1.400 . S
C2119 C2118 1.400 . S
C2119 C2120 1.398 . S
C2119 C2125 1.491 . S
C2120 H2111 0.950 . S
C2120 C2119 1.398 . S
C2120 C2121 1.391 . S
C2121 H2109 0.950 . S
C2121 C2117 1.393 . S
C2121 C2120 1.391 . S
C2122 H2112 0.950 . S
C2122 C2123 1.386 . S
C2122 C2124 1.391 . S
C2123 C2122 1.386 . S
C2123 C2127 1.393 . S
C2124 H2113 0.950 . S
C2124 C2122 1.391 . S
C2124 C2125 1.400 . S
C2125 C2119 1.491 . S
C2125 C2124 1.400 . S
C2125 C2126 1.398 . S
C2126 H2114 0.950 . S
C2126 C2125 1.398 . S
C2126 C2127 1.391 . S
C2127 H2115 0.950 . S
C2127 C2123 1.393 . S
C2127 C2126 1.391 . S
H2128 C2136 0.950 . S
H2129 C2141 0.950 . S
H2130 C2138 0.950 . S
H2131 C2140 0.950 . S
H2132 C2142 0.950 . S
H2133 C2144 0.950 . S
H2134 C2146 0.950 . S
H2135 C2147 0.950 . S
C2136 H2128 0.950 . S
C2136 C2137 1.386 . S
C2136 C2138 1.391 . S
C2137 C2136 1.386 . S
C2137 C2141 1.393 . S
C2138 H2130 0.950 . S
C2138 C2136 1.391 . S
C2138 C2139 1.400 . S
C2139 C2138 1.400 . S
C2139 C2140 1.398 . S
C2139 C2145 1.491 . S
C2140 H2131 0.950 . S
C2140 C2139 1.398 . S
C2140 C2141 1.391 . S
C2141 H2129 0.950 . S
C2141 C2137 1.393 . S
C2141 C2140 1.391 . S
C2142 H2132 0.950 . S
C2142 C2143 1.386 . S
C2142 C2144 1.391 . S
C2143 C2142 1.386 . S
C2143 C2147 1.393 . S
C2144 H2133 0.950 . S
C2144 C2142 1.391 . S
C2144 C2145 1.400 . S
C2145 C2139 1.491 . S
C2145 C2144 1.400 . S
C2145 C2146 1.398 . S
C2146 H2134 0.950 . S
C2146 C2145 1.398 . S
C2146 C2147 1.391 . S
C2147 H2135 0.950 . S
C2147 C2143 1.393 . S
C2147 C2146 1.391 . S
H2148 C2156 0.950 . S
H2149 C2161 0.950 . S
H2150 C2158 0.950 . S
H2151 C2160 0.950 1_455 S
H2152 C2162 0.950 . S
H2153 C2164 0.950 . S
H2154 C2166 0.950 1_655 S
H2155 C2167 0.950 . S
C2156 H2148 0.950 . S
C2156 C2157 1.386 . S
C2156 C2158 1.391 . S
C2157 C2156 1.386 . S
C2157 C2161 1.393 . S
C2158 H2150 0.950 . S
C2158 C2156 1.391 . S
C2158 C2159 1.400 . S
C2159 C2158 1.400 . S
C2159 C2160 1.398 . S
C2159 C2165 1.491 1_655 S
C2160 H2151 0.950 1_655 S
C2160 C2159 1.398 . S
C2160 C2161 1.391 . S
C2161 H2149 0.950 . S
C2161 C2157 1.393 . S
C2161 C2160 1.391 . S
C2162 H2152 0.950 . S
C2162 C2163 1.386 . S
C2162 C2164 1.391 . S
C2163 C2162 1.386 . S
C2163 C2167 1.393 . S
C2164 H2153 0.950 . S
C2164 C2162 1.391 . S
C2164 C2165 1.400 . S
C2165 C2159 1.491 1_455 S
C2165 C2164 1.400 . S
C2165 C2166 1.398 . S
C2166 H2154 0.950 1_455 S
C2166 C2165 1.398 . S
C2166 C2167 1.391 . S
C2167 H2155 0.950 . S
C2167 C2163 1.393 . S
C2167 C2166 1.391 . S
H2168 C2176 0.950 . S
H2169 C2181 0.950 . S
H2170 C2178 0.950 . S
H2171 C2180 0.950 . S
H2172 C2182 0.950 . S
H2173 C2184 0.950 . S
H2174 C2186 0.950 . S
H2175 C2187 0.950 . S
C2176 H2168 0.950 . S
C2176 C2177 1.386 . S
C2176 C2178 1.391 . S
C2177 C2176 1.386 . S
C2177 C2181 1.393 . S
C2178 H2170 0.950 . S
C2178 C2176 1.391 . S
C2178 C2179 1.400 . S
C2179 C2178 1.400 . S
C2179 C2180 1.398 . S
C2179 C2185 1.491 . S
C2180 H2171 0.950 . S
C2180 C2179 1.398 . S
C2180 C2181 1.391 . S
C2181 H2169 0.950 . S
C2181 C2177 1.393 . S
C2181 C2180 1.391 . S
C2182 H2172 0.950 . S
C2182 C2183 1.386 . S
C2182 C2184 1.391 . S
C2183 C2182 1.386 . S
C2183 C2187 1.393 . S
C2184 H2173 0.950 . S
C2184 C2182 1.391 . S
C2184 C2185 1.400 . S
C2185 C2179 1.491 . S
C2185 C2184 1.400 . S
C2185 C2186 1.398 . S
C2186 H2174 0.950 . S
C2186 C2185 1.398 . S
C2186 C2187 1.391 . S
C2187 H2175 0.950 . S
C2187 C2183 1.393 . S
C2187 C2186 1.391 . S
H2188 C2196 0.950 . S
H2189 C2201 0.950 . S
H2190 C2198 0.950 . S
H2191 C2200 0.950 . S
H2192 C2202 0.950 . S
H2193 C2204 0.950 . S
H2194 C2206 0.950 . S
H2195 C2207 0.950 . S
C2196 H2188 0.950 . S
C2196 C2197 1.386 . S
C2196 C2198 1.391 . S
C2197 C2196 1.386 . S
C2197 C2201 1.393 . S
C2198 H2190 0.950 . S
C2198 C2196 1.391 . S
C2198 C2199 1.400 1_545 S
C2199 C2198 1.400 1_565 S
C2199 C2200 1.398 . S
C2199 C2205 1.491 . S
C2200 H2191 0.950 . S
C2200 C2199 1.398 . S
C2200 C2201 1.391 1_565 S
C2201 H2189 0.950 . S
C2201 C2197 1.393 . S
C2201 C2200 1.391 1_545 S
C2202 H2192 0.950 . S
C2202 C2203 1.386 . S
C2202 C2204 1.391 . S
C2203 C2202 1.386 . S
C2203 C2207 1.393 . S
C2204 H2193 0.950 . S
C2204 C2202 1.391 . S
C2204 C2205 1.400 . S
C2205 C2199 1.491 . S
C2205 C2204 1.400 . S
C2205 C2206 1.398 . S
C2206 H2194 0.950 . S
C2206 C2205 1.398 . S
C2206 C2207 1.391 . S
C2207 H2195 0.950 . S
C2207 C2203 1.393 . S
C2207 C2206 1.391 . S
H2208 C2216 0.950 . S
H2209 C2221 0.950 1_554 S
H2210 C2218 0.950 . S
H2211 C2220 0.955 . S
H2212 C2222 0.950 . S
H2213 C2224 0.950 . S
H2214 C2226 0.950 . S
H2215 C2227 0.950 . S
C2216 H2208 0.950 . S
C2216 C2217 1.386 . S
C2216 C2218 1.391 . S
C2217 C2216 1.386 . S
C2217 C2221 1.393 . S
C2218 H2210 0.950 . S
C2218 C2216 1.391 . S
C2218 C2219 1.400 . S
C2219 C2218 1.400 . S
C2219 C2220 1.394 1_556 S
C2219 C2225 1.491 . S
C2220 H2211 0.955 . S
C2220 C2219 1.394 1_554 S
C2220 C2221 1.389 1_554 S
C2221 H2209 0.950 1_556 S
C2221 C2217 1.393 . S
C2221 C2220 1.389 1_556 S
C2222 H2212 0.950 . S
C2222 C2223 1.386 . S
C2222 C2224 1.391 1_565 S
C2223 C2222 1.386 . S
C2223 C2227 1.393 1_554 S
C2224 H2213 0.950 . S
C2224 C2222 1.391 1_545 S
C2224 C2225 1.400 1_554 S
C2225 C2219 1.491 . S
C2225 C2224 1.400 1_556 S
C2225 C2226 1.398 1_545 S
C2226 H2214 0.950 . S
C2226 C2225 1.398 1_565 S
C2226 C2227 1.391 . S
C2227 H2215 0.950 . S
C2227 C2223 1.393 1_556 S
C2227 C2226 1.391 . S
H2228 C2236 0.950 . S
H2229 C2241 0.950 . S
H2230 C2238 0.950 . S
H2231 C2240 0.950 1_455 S
H2232 C2242 0.949 1_556 S
H2233 C2244 0.950 . S
H2234 C2246 0.950 . S
H2235 C2247 0.950 1_655 S
C2236 H2228 0.950 . S
C2236 C2237 1.386 . S
C2236 C2238 1.391 . S
C2237 C2236 1.386 . S
C2237 C2241 1.393 . S
C2238 H2230 0.950 . S
C2238 C2236 1.391 . S
C2238 C2239 1.400 . S
C2239 C2238 1.400 . S
C2239 C2240 1.398 . S
C2239 C2245 1.491 . S
C2240 H2231 0.950 1_655 S
C2240 C2239 1.398 . S
C2240 C2241 1.391 . S
C2241 H2229 0.950 . S
C2241 C2237 1.393 . S
C2241 C2240 1.391 . S
C2242 H2232 0.949 1_554 S
C2242 C2243 1.389 . S
C2242 C2244 1.389 1_554 S
C2243 C2242 1.389 . S
C2243 C2247 1.393 . S
C2244 H2233 0.950 . S
C2244 C2242 1.389 1_556 S
C2244 C2245 1.400 1_455 S
C2245 C2239 1.491 . S
C2245 C2244 1.400 1_655 S
C2245 C2246 1.398 1_556 S
C2246 H2234 0.950 . S
C2246 C2245 1.398 1_554 S
C2246 C2247 1.391 1_655 S
C2247 H2235 0.950 1_455 S
C2247 C2243 1.393 . S
C2247 C2246 1.391 1_455 S
H2248 C2256 0.950 . S
H2249 C2261 0.950 . S
H2250 C2258 0.950 . S
H2251 C2260 0.950 . S
H2252 C2262 0.950 . S
H2253 C2264 0.950 1_556 S
H2254 C2266 0.950 . S
H2255 C2267 0.950 . S
C2256 H2248 0.950 . S
C2256 C2257 1.386 . S
C2256 C2258 1.391 . S
C2257 C2256 1.386 . S
C2257 C2261 1.393 . S
C2258 H2250 0.950 . S
C2258 C2256 1.391 . S
C2258 C2259 1.400 . S
C2259 C2258 1.400 . S
C2259 C2260 1.398 . S
C2259 C2265 1.491 . S
C2260 H2251 0.950 . S
C2260 C2259 1.398 . S
C2260 C2261 1.391 . S
C2261 H2249 0.950 . S
C2261 C2257 1.393 . S
C2261 C2260 1.391 . S
C2262 H2252 0.950 . S
C2262 C2263 1.386 . S
C2262 C2264 1.393 . S
C2263 C2262 1.386 . S
C2263 C2267 1.393 . S
C2264 H2253 0.950 1_554 S
C2264 C2262 1.393 . S
C2264 C2265 1.398 1_554 S
C2265 C2259 1.491 . S
C2265 C2264 1.398 1_556 S
C2265 C2266 1.398 . S
C2266 H2254 0.950 . S
C2266 C2265 1.398 . S
C2266 C2267 1.391 1_556 S
C2267 H2255 0.950 . S
C2267 C2263 1.393 . S
C2267 C2266 1.391 1_554 S
H2268 C2276 0.950 . S
H2269 C2281 0.950 1_565 S
H2270 C2278 0.950 1_556 S
H2271 C2280 0.950 . S
H2272 C2282 0.950 . S
H2273 C2284 0.950 . S
H2274 C2286 0.950 . S
H2275 C2287 0.950 . S
C2276 H2268 0.950 . S
C2276 C2277 1.386 1_556 S
C2276 C2278 1.391 1_556 S
C2277 C2276 1.386 1_554 S
C2277 C2281 1.393 . S
C2278 H2270 0.950 1_554 S
C2278 C2276 1.391 1_554 S
C2278 C2279 1.400 . S
C2279 C2278 1.400 . S
C2279 C2280 1.398 . S
C2279 C2285 1.491 . S
C2280 H2271 0.950 . S
C2280 C2279 1.398 . S
C2280 C2281 1.391 . S
C2281 H2269 0.950 1_545 S
C2281 C2277 1.393 . S
C2281 C2280 1.391 . S
C2282 H2272 0.950 . S
C2282 C2283 1.386 . S
C2282 C2284 1.391 . S
C2283 C2282 1.386 . S
C2283 C2287 1.393 . S
C2284 H2273 0.950 . S
C2284 C2282 1.391 . S
C2284 C2285 1.400 . S
C2285 C2279 1.491 . S
C2285 C2284 1.400 . S
C2285 C2286 1.398 . S
C2286 H2274 0.950 . S
C2286 C2285 1.398 . S
C2286 C2287 1.391 . S
C2287 H2275 0.950 . S
C2287 C2283 1.393 . S
C2287 C2286 1.391 . S
H2288 C2296 0.950 1_554 S
H2289 C2301 0.950 . S
H2290 C2298 0.950 . S
H2291 C2300 0.950 . S
H2292 C2302 0.950 . S
H2293 C2304 0.950 1_556 S
H2294 C2306 0.950 . S
H2295 C2307 0.950 . S
C2296 H2288 0.950 1_556 S
C2296 C2297 1.386 . S
C2296 C2298 1.391 1_556 S
C2297 C2296 1.386 . S
C2297 C2301 1.393 . S
C2298 H2290 0.950 . S
C2298 C2296 1.391 1_554 S
C2298 C2299 1.400 . S
C2299 C2298 1.400 . S
C2299 C2300 1.398 1_554 S
C2299 C2305 1.491 . S
C2300 H2291 0.950 . S
C2300 C2299 1.398 1_556 S
C2300 C2301 1.391 . S
C2301 H2289 0.950 . S
C2301 C2297 1.393 . S
C2301 C2300 1.391 . S
C2302 H2292 0.950 . S
C2302 C2303 1.386 . S
C2302 C2304 1.391 . S
C2303 C2302 1.386 . S
C2303 C2307 1.393 . S
C2304 H2293 0.950 1_554 S
C2304 C2302 1.391 . S
C2304 C2305 1.400 . S
C2305 C2299 1.491 . S
C2305 C2304 1.400 . S
C2305 C2306 1.398 . S
C2306 H2294 0.950 . S
C2306 C2305 1.398 . S
C2306 C2307 1.391 . S
C2307 H2295 0.950 . S
C2307 C2303 1.393 . S
C2307 C2306 1.391 . S
H2308 C2316 0.950 . S
H2309 C2321 0.950 . S
H2310 C2318 0.950 . S
H2311 C2320 0.950 . S
H2312 C2322 0.950 . S
H2313 C2324 0.950 . S
H2314 C2326 0.950 1_554 S
H2315 C2327 0.950 . S
C2316 H2308 0.950 . S
C2316 C2317 1.386 . S
C2316 C2318 1.391 . S
C2317 C2316 1.386 . S
C2317 C2321 1.393 . S
C2318 H2310 0.950 . S
C2318 C2316 1.391 . S
C2318 C2319 1.400 . S
C2319 C2318 1.400 . S
C2319 C2320 1.398 . S
C2319 C2325 1.491 . S
C2320 H2311 0.950 . S
C2320 C2319 1.398 . S
C2320 C2321 1.391 . S
C2321 H2309 0.950 . S
C2321 C2317 1.393 . S
C2321 C2320 1.391 . S
C2322 H2312 0.950 . S
C2322 C2323 1.386 . S
C2322 C2324 1.391 . S
C2323 C2322 1.386 . S
C2323 C2327 1.393 . S
C2324 H2313 0.950 . S
C2324 C2322 1.391 . S
C2324 C2325 1.400 1_556 S
C2325 C2319 1.491 . S
C2325 C2324 1.400 1_554 S
C2325 C2326 1.398 1_554 S
C2326 H2314 0.950 1_556 S
C2326 C2325 1.398 1_556 S
C2326 C2327 1.391 . S
C2327 H2315 0.950 . S
C2327 C2323 1.393 . S
C2327 C2326 1.391 . S
H2328 C2336 0.950 . S
H2329 C2341 0.950 . S
H2330 C2338 0.950 . S
H2331 C2340 0.950 . S
H2332 C2342 0.950 . S
H2333 C2344 0.950 . S
H2334 C2346 0.950 . S
H2335 C2347 0.950 . S
C2336 H2328 0.950 . S
C2336 C2337 1.386 . S
C2336 C2338 1.391 . S
C2337 C2336 1.386 . S
C2337 C2341 1.393 . S
C2338 H2330 0.950 . S
C2338 C2336 1.391 . S
C2338 C2339 1.400 . S
C2339 C2338 1.400 . S
C2339 C2340 1.398 . S
C2339 C2345 1.491 . S
C2340 H2331 0.950 . S
C2340 C2339 1.398 . S
C2340 C2341 1.391 . S
C2341 H2329 0.950 . S
C2341 C2337 1.393 . S
C2341 C2340 1.391 . S
C2342 H2332 0.950 . S
C2342 C2343 1.386 . S
C2342 C2344 1.391 . S
C2343 C2342 1.386 . S
C2343 C2347 1.393 . S
C2344 H2333 0.950 . S
C2344 C2342 1.391 . S
C2344 C2345 1.400 . S
C2345 C2339 1.491 . S
C2345 C2344 1.400 . S
C2345 C2346 1.398 . S
C2346 H2334 0.950 . S
C2346 C2345 1.398 . S
C2346 C2347 1.391 . S
C2347 H2335 0.950 . S
C2347 C2343 1.393 . S
C2347 C2346 1.391 . S
H2348 C2356 0.950 . S
H2349 C2361 0.950 . S
H2350 C2358 0.950 . S
H2351 C2360 0.950 . S
H2352 C2362 0.950 . S
H2353 C2364 0.950 . S
H2354 C2366 0.950 . S
H2355 C2367 0.950 . S
C2356 H2348 0.950 . S
C2356 C2357 1.386 . S
C2356 C2358 1.391 . S
C2357 C2356 1.386 . S
C2357 C2361 1.393 . S
C2358 H2350 0.950 . S
C2358 C2356 1.391 . S
C2358 C2359 1.400 . S
C2359 C2358 1.400 . S
C2359 C2360 1.398 . S
C2359 C2365 1.491 . S
C2360 H2351 0.950 . S
C2360 C2359 1.398 . S
C2360 C2361 1.391 . S
C2361 H2349 0.950 . S
C2361 C2357 1.393 . S
C2361 C2360 1.391 . S
C2362 H2352 0.950 . S
C2362 C2363 1.386 . S
C2362 C2364 1.391 . S
C2363 C2362 1.386 . S
C2363 C2367 1.393 . S
C2364 H2353 0.950 . S
C2364 C2362 1.391 . S
C2364 C2365 1.400 . S
C2365 C2359 1.491 . S
C2365 C2364 1.400 . S
C2365 C2366 1.398 . S
C2366 H2354 0.950 . S
C2366 C2365 1.398 . S
C2366 C2367 1.391 . S
C2367 H2355 0.950 . S
C2367 C2363 1.393 . S
C2367 C2366 1.391 . S
H2368 C2376 0.950 . S
H2369 C2381 0.950 1_545 S
H2370 C2378 0.950 . S
H2371 C2380 0.950 . S
H2372 C2382 0.950 . S
H2373 C2384 0.950 . S
H2374 C2386 0.950 . S
H2375 C2387 0.950 . S
C2376 H2368 0.950 . S
C2376 C2377 1.386 . S
C2376 C2378 1.391 . S
C2377 C2376 1.386 . S
C2377 C2381 1.393 . S
C2378 H2370 0.950 . S
C2378 C2376 1.391 . S
C2378 C2379 1.400 . S
C2379 C2378 1.400 . S
C2379 C2380 1.398 . S
C2379 C2385 1.491 . S
C2380 H2371 0.950 . S
C2380 C2379 1.398 . S
C2380 C2381 1.391 . S
C2381 H2369 0.950 1_565 S
C2381 C2377 1.393 . S
C2381 C2380 1.391 . S
C2382 H2372 0.950 . S
C2382 C2383 1.386 . S
C2382 C2384 1.391 . S
C2383 C2382 1.386 . S
C2383 C2387 1.393 . S
C2384 H2373 0.950 . S
C2384 C2382 1.391 . S
C2384 C2385 1.400 . S
C2385 C2379 1.491 . S
C2385 C2384 1.400 . S
C2385 C2386 1.398 . S
C2386 H2374 0.950 . S
C2386 C2385 1.398 . S
C2386 C2387 1.391 . S
C2387 H2375 0.950 . S
C2387 C2383 1.393 . S
C2387 C2386 1.391 . S
H2388 C2396 0.950 . S
H2389 C2401 0.950 . S
H2390 C2398 0.950 . S
H2391 C2400 0.950 . S
H2392 C2402 0.950 . S
H2393 C2404 0.950 . S
H2394 C2406 0.950 . S
H2395 C2407 0.950 . S
C2396 H2388 0.950 . S
C2396 C2397 1.386 . S
C2396 C2398 1.391 . S
C2397 C2396 1.386 . S
C2397 C2401 1.393 . S
C2398 H2390 0.950 . S
C2398 C2396 1.391 . S
C2398 C2399 1.400 . S
C2399 C2398 1.400 . S
C2399 C2400 1.398 . S
C2399 C2405 1.491 . S
C2400 H2391 0.950 . S
C2400 C2399 1.398 . S
C2400 C2401 1.391 . S
C2401 H2389 0.950 . S
C2401 C2397 1.393 . S
C2401 C2400 1.391 . S
C2402 H2392 0.950 . S
C2402 C2403 1.386 1_556 S
C2402 C2404 1.391 . S
C2403 C2402 1.386 1_554 S
C2403 C2407 1.393 . S
C2404 H2393 0.950 . S
C2404 C2402 1.391 . S
C2404 C2405 1.400 . S
C2405 C2399 1.491 . S
C2405 C2404 1.400 . S
C2405 C2406 1.398 1_556 S
C2406 H2394 0.950 . S
C2406 C2405 1.398 1_554 S
C2406 C2407 1.391 . S
C2407 H2395 0.950 . S
C2407 C2403 1.393 . S
C2407 C2406 1.391 . S
H2408 C2416 0.950 . S
H2409 C2421 0.950 . S
H2410 C2418 0.950 . S
H2411 C2420 0.950 . S
H2412 C2422 0.950 . S
H2413 C2424 0.950 . S
H2414 C2426 0.950 . S
H2415 C2427 0.950 . S
C2416 H2408 0.950 . S
C2416 C2417 1.386 . S
C2416 C2418 1.391 . S
C2417 C2416 1.386 . S
C2417 C2421 1.393 1_556 S
C2418 H2410 0.950 . S
C2418 C2416 1.391 . S
C2418 C2419 1.400 1_556 S
C2419 C2418 1.400 1_554 S
C2419 C2420 1.398 . S
C2419 C2425 1.491 . S
C2420 H2411 0.950 . S
C2420 C2419 1.398 . S
C2420 C2421 1.391 . S
C2421 H2409 0.950 . S
C2421 C2417 1.393 1_554 S
C2421 C2420 1.391 . S
C2422 H2412 0.950 . S
C2422 C2423 1.386 . S
C2422 C2424 1.391 . S
C2423 C2422 1.386 . S
C2423 C2427 1.393 . S
C2424 H2413 0.950 . S
C2424 C2422 1.391 . S
C2424 C2425 1.400 . S
C2425 C2419 1.491 . S
C2425 C2424 1.400 . S
C2425 C2426 1.398 . S
C2426 H2414 0.950 . S
C2426 C2425 1.398 . S
C2426 C2427 1.391 . S
C2427 H2415 0.950 . S
C2427 C2423 1.393 . S
C2427 C2426 1.391 . S
H2428 C2436 0.950 . S
H2429 C2441 0.950 . S
H2430 C2438 0.950 . S
H2431 C2440 0.950 . S
H2432 C2442 0.950 . S
H2433 C2444 0.950 1_556 S
H2434 C2446 0.950 . S
H2435 C2447 0.950 . S
C2436 H2428 0.950 . S
C2436 C2437 1.386 1_554 S
C2436 C2438 1.391 . S
C2437 C2436 1.386 1_556 S
C2437 C2441 1.393 . S
C2438 H2430 0.950 . S
C2438 C2436 1.391 . S
C2438 C2439 1.400 . S
C2439 C2438 1.400 . S
C2439 C2440 1.398 1_554 S
C2439 C2445 1.491 . S
C2440 H2431 0.950 . S
C2440 C2439 1.398 1_556 S
C2440 C2441 1.391 . S
C2441 H2429 0.950 . S
C2441 C2437 1.393 . S
C2441 C2440 1.391 . S
C2442 H2432 0.950 . S
C2442 C2443 1.386 . S
C2442 C2444 1.391 . S
C2443 C2442 1.386 . S
C2443 C2447 1.393 . S
C2444 H2433 0.950 1_554 S
C2444 C2442 1.391 . S
C2444 C2445 1.400 . S
C2445 C2439 1.491 . S
C2445 C2444 1.400 . S
C2445 C2446 1.398 . S
C2446 H2434 0.950 . S
C2446 C2445 1.398 . S
C2446 C2447 1.391 . S
C2447 H2435 0.950 . S
C2447 C2443 1.393 . S
C2447 C2446 1.391 . S
H2448 C2456 0.950 . S
H2449 C2461 0.950 . S
H2450 C2458 0.950 . S
H2451 C2460 0.950 . S
H2452 C2462 0.950 . S
H2453 C2464 0.950 . S
H2454 C2466 0.950 . S
H2455 C2467 0.950 . S
C2456 H2448 0.950 . S
C2456 C2457 1.386 . S
C2456 C2458 1.391 . S
C2457 C2456 1.386 . S
C2457 C2461 1.393 . S
C2458 H2450 0.950 . S
C2458 C2456 1.391 . S
C2458 C2459 1.400 . S
C2459 C2458 1.400 . S
C2459 C2460 1.398 . S
C2459 C2465 1.491 . S
C2460 H2451 0.950 . S
C2460 C2459 1.398 . S
C2460 C2461 1.391 . S
C2461 H2449 0.950 . S
C2461 C2457 1.393 . S
C2461 C2460 1.391 . S
C2462 H2452 0.950 . S
C2462 C2463 1.386 . S
C2462 C2464 1.391 . S
C2463 C2462 1.386 . S
C2463 C2467 1.393 . S
C2464 H2453 0.950 . S
C2464 C2462 1.391 . S
C2464 C2465 1.400 . S
C2465 C2459 1.491 . S
C2465 C2464 1.400 . S
C2465 C2466 1.398 . S
C2466 H2454 0.950 . S
C2466 C2465 1.398 . S
C2466 C2467 1.391 . S
C2467 H2455 0.950 . S
C2467 C2463 1.393 . S
C2467 C2466 1.391 . S
H2468 C2476 0.950 . S
H2469 C2481 0.950 . S
H2470 C2478 0.950 . S
H2471 C2480 0.950 . S
H2472 C2482 0.950 . S
H2473 C2484 0.950 . S
H2474 C2486 0.950 . S
H2475 C2487 0.950 . S
C2476 H2468 0.950 . S
C2476 C2477 1.386 . S
C2476 C2478 1.391 . S
C2477 C2476 1.386 . S
C2477 C2481 1.393 . S
C2478 H2470 0.950 . S
C2478 C2476 1.391 . S
C2478 C2479 1.400 . S
C2479 C2478 1.400 . S
C2479 C2480 1.398 . S
C2479 C2485 1.491 . S
C2480 H2471 0.950 . S
C2480 C2479 1.398 . S
C2480 C2481 1.391 . S
C2481 H2469 0.950 . S
C2481 C2477 1.393 . S
C2481 C2480 1.391 . S
C2482 H2472 0.950 . S
C2482 C2483 1.386 . S
C2482 C2484 1.391 . S
C2483 C2482 1.386 . S
C2483 C2487 1.393 . S
C2484 H2473 0.950 . S
C2484 C2482 1.391 . S
C2484 C2485 1.400 . S
C2485 C2479 1.491 . S
C2485 C2484 1.400 . S
C2485 C2486 1.398 . S
C2486 H2474 0.950 . S
C2486 C2485 1.398 . S
C2486 C2487 1.391 . S
C2487 H2475 0.950 . S
C2487 C2483 1.393 . S
C2487 C2486 1.391 . S
H2488 C2496 0.950 . S
H2489 C2501 0.950 . S
H2490 C2498 0.950 . S
H2491 C2500 0.950 . S
H2492 C2502 0.950 . S
H2493 C2504 0.950 . S
H2494 C2506 0.950 . S
H2495 C2507 0.950 . S
C2496 H2488 0.950 . S
C2496 C2497 1.386 . S
C2496 C2498 1.391 . S
C2497 C2496 1.386 . S
C2497 C2501 1.393 . S
C2498 H2490 0.950 . S
C2498 C2496 1.391 . S
C2498 C2499 1.400 . S
C2499 C2498 1.400 . S
C2499 C2500 1.398 . S
C2499 C2505 1.491 . S
C2500 H2491 0.950 . S
C2500 C2499 1.398 . S
C2500 C2501 1.391 . S
C2501 H2489 0.950 . S
C2501 C2497 1.393 . S
C2501 C2500 1.391 . S
C2502 H2492 0.950 . S
C2502 C2503 1.386 . S
C2502 C2504 1.391 . S
C2503 C2502 1.386 . S
C2503 C2507 1.393 . S
C2504 H2493 0.950 . S
C2504 C2502 1.391 . S
C2504 C2505 1.400 . S
C2505 C2499 1.491 . S
C2505 C2504 1.400 . S
C2505 C2506 1.398 . S
C2506 H2494 0.950 . S
C2506 C2505 1.398 . S
C2506 C2507 1.391 . S
C2507 H2495 0.950 . S
C2507 C2503 1.393 . S
C2507 C2506 1.391 . S
H2508 C2516 0.950 . S
H2509 C2521 0.950 . S
H2510 C2518 0.950 . S
H2511 C2520 0.950 . S
H2512 C2522 0.950 . S
H2513 C2524 0.950 . S
H2514 C2526 0.950 . S
H2515 C2527 0.950 . S
C2516 H2508 0.950 . S
C2516 C2517 1.386 . S
C2516 C2518 1.391 . S
C2517 C2516 1.386 . S
C2517 C2521 1.393 . S
C2518 H2510 0.950 . S
C2518 C2516 1.391 . S
C2518 C2519 1.400 . S
C2519 C2518 1.400 . S
C2519 C2520 1.398 . S
C2519 C2525 1.491 . S
C2520 H2511 0.950 . S
C2520 C2519 1.398 . S
C2520 C2521 1.391 . S
C2521 H2509 0.950 . S
C2521 C2517 1.393 . S
C2521 C2520 1.391 . S
C2522 H2512 0.950 . S
C2522 C2523 1.386 . S
C2522 C2524 1.391 . S
C2523 C2522 1.386 . S
C2523 C2527 1.393 . S
C2524 H2513 0.950 . S
C2524 C2522 1.391 . S
C2524 C2525 1.400 . S
C2525 C2519 1.491 . S
C2525 C2524 1.400 . S
C2525 C2526 1.398 . S
C2526 H2514 0.950 . S
C2526 C2525 1.398 . S
C2526 C2527 1.391 . S
C2527 H2515 0.950 . S
C2527 C2523 1.393 . S
C2527 C2526 1.391 . S
H2528 C2536 0.950 . S
H2529 C2541 0.950 . S
H2530 C2538 0.950 . S
H2531 C2540 0.950 . S
H2532 C2542 0.950 . S
H2533 C2544 0.950 . S
H2534 C2546 0.950 . S
H2535 C2547 0.950 . S
C2536 H2528 0.950 . S
C2536 C2537 1.386 . S
C2536 C2538 1.391 . S
C2537 C2536 1.386 . S
C2537 C2541 1.393 . S
C2538 H2530 0.950 . S
C2538 C2536 1.391 . S
C2538 C2539 1.400 . S
C2539 C2538 1.400 . S
C2539 C2540 1.398 . S
C2539 C2545 1.491 . S
C2540 H2531 0.950 . S
C2540 C2539 1.398 . S
C2540 C2541 1.391 . S
C2541 H2529 0.950 . S
C2541 C2537 1.393 . S
C2541 C2540 1.391 . S
C2542 H2532 0.950 . S
C2542 C2543 1.386 . S
C2542 C2544 1.391 . S
C2543 C2542 1.386 . S
C2543 C2547 1.393 . S
C2544 H2533 0.950 . S
C2544 C2542 1.391 . S
C2544 C2545 1.400 . S
C2545 C2539 1.491 . S
C2545 C2544 1.400 . S
C2545 C2546 1.398 . S
C2546 H2534 0.950 . S
C2546 C2545 1.398 . S
C2546 C2547 1.391 . S
C2547 H2535 0.950 . S
C2547 C2543 1.393 . S
C2547 C2546 1.391 . S
H2548 C2556 0.950 . S
H2549 C2561 0.950 . S
H2550 C2558 0.950 . S
H2551 C2560 0.950 . S
H2552 C2562 0.950 . S
H2553 C2564 0.950 . S
H2554 C2566 0.950 . S
H2555 C2567 0.950 . S
C2556 H2548 0.950 . S
C2556 C2557 1.386 . S
C2556 C2558 1.391 . S
C2557 C2556 1.386 . S
C2557 C2561 1.393 . S
C2558 H2550 0.950 . S
C2558 C2556 1.391 . S
C2558 C2559 1.400 . S
C2559 C2558 1.400 . S
C2559 C2560 1.398 . S
C2559 C2565 1.491 . S
C2560 H2551 0.950 . S
C2560 C2559 1.398 . S
C2560 C2561 1.391 . S
C2561 H2549 0.950 . S
C2561 C2557 1.393 . S
C2561 C2560 1.391 . S
C2562 H2552 0.950 . S
C2562 C2563 1.386 . S
C2562 C2564 1.391 . S
C2563 C2562 1.386 . S
C2563 C2567 1.393 . S
C2564 H2553 0.950 . S
C2564 C2562 1.391 . S
C2564 C2565 1.400 . S
C2565 C2559 1.491 . S
C2565 C2564 1.400 . S
C2565 C2566 1.398 . S
C2566 H2554 0.950 . S
C2566 C2565 1.398 . S
C2566 C2567 1.391 . S
C2567 H2555 0.950 . S
C2567 C2563 1.393 . S
C2567 C2566 1.391 . S
H2568 C2576 0.950 . S
H2569 C2581 0.950 . S
H2570 C2578 0.950 . S
H2571 C2580 0.950 . S
H2572 C2582 0.950 . S
H2573 C2584 0.950 . S
H2574 C2586 0.950 . S
H2575 C2587 0.950 . S
C2576 H2568 0.950 . S
C2576 C2577 1.386 . S
C2576 C2578 1.391 . S
C2577 C2576 1.386 . S
C2577 C2581 1.393 . S
C2578 H2570 0.950 . S
C2578 C2576 1.391 . S
C2578 C2579 1.400 . S
C2579 C2578 1.400 . S
C2579 C2580 1.398 . S
C2579 C2585 1.491 . S
C2580 H2571 0.950 . S
C2580 C2579 1.398 . S
C2580 C2581 1.391 . S
C2581 H2569 0.950 . S
C2581 C2577 1.393 . S
C2581 C2580 1.391 . S
C2582 H2572 0.950 . S
C2582 C2583 1.386 . S
C2582 C2584 1.391 . S
C2583 C2582 1.386 . S
C2583 C2587 1.393 . S
C2584 H2573 0.950 . S
C2584 C2582 1.391 . S
C2584 C2585 1.400 . S
C2585 C2579 1.491 . S
C2585 C2584 1.400 . S
C2585 C2586 1.398 . S
C2586 H2574 0.950 . S
C2586 C2585 1.398 . S
C2586 C2587 1.391 . S
C2587 H2575 0.950 . S
C2587 C2583 1.393 . S
C2587 C2586 1.391 . S
H2588 C2596 0.950 . S
H2589 C2601 0.950 . S
H2590 C2598 0.950 . S
H2591 C2600 0.950 . S
H2592 C2602 0.950 . S
H2593 C2604 0.950 . S
H2594 C2606 0.950 . S
H2595 C2607 0.950 . S
C2596 H2588 0.950 . S
C2596 C2597 1.386 . S
C2596 C2598 1.391 . S
C2597 C2596 1.386 . S
C2597 C2601 1.393 . S
C2598 H2590 0.950 . S
C2598 C2596 1.391 . S
C2598 C2599 1.400 . S
C2599 C2598 1.400 . S
C2599 C2600 1.398 . S
C2599 C2605 1.491 . S
C2600 H2591 0.950 . S
C2600 C2599 1.398 . S
C2600 C2601 1.391 . S
C2601 H2589 0.950 . S
C2601 C2597 1.393 . S
C2601 C2600 1.391 . S
C2602 H2592 0.950 . S
C2602 C2603 1.386 . S
C2602 C2604 1.391 . S
C2603 C2602 1.386 . S
C2603 C2607 1.393 . S
C2604 H2593 0.950 . S
C2604 C2602 1.391 . S
C2604 C2605 1.400 . S
C2605 C2599 1.491 . S
C2605 C2604 1.400 . S
C2605 C2606 1.398 . S
C2606 H2594 0.950 . S
C2606 C2605 1.398 . S
C2606 C2607 1.391 . S
C2607 H2595 0.950 . S
C2607 C2603 1.393 . S
C2607 C2606 1.391 . S
H2608 C2616 0.950 . S
H2609 C2621 0.950 . S
H2610 C2618 0.950 . S
H2611 C2620 0.950 . S
H2612 C2622 0.950 . S
H2613 C2624 0.950 . S
H2614 C2626 0.950 . S
H2615 C2627 0.950 . S
C2616 H2608 0.950 . S
C2616 C2617 1.386 . S
C2616 C2618 1.391 . S
C2617 C2616 1.386 . S
C2617 C2621 1.393 . S
C2618 H2610 0.950 . S
C2618 C2616 1.391 . S
C2618 C2619 1.400 . S
C2619 C2618 1.400 . S
C2619 C2620 1.398 . S
C2619 C2625 1.491 . S
C2620 H2611 0.950 . S
C2620 C2619 1.398 . S
C2620 C2621 1.391 . S
C2621 H2609 0.950 . S
C2621 C2617 1.393 . S
C2621 C2620 1.391 . S
C2622 H2612 0.950 . S
C2622 C2623 1.386 . S
C2622 C2624 1.391 . S
C2623 C2622 1.386 . S
C2623 C2627 1.393 . S
C2624 H2613 0.950 . S
C2624 C2622 1.391 . S
C2624 C2625 1.400 . S
C2625 C2619 1.491 . S
C2625 C2624 1.400 . S
C2625 C2626 1.398 . S
C2626 H2614 0.950 . S
C2626 C2625 1.398 . S
C2626 C2627 1.391 . S
C2627 H2615 0.950 . S
C2627 C2623 1.393 . S
C2627 C2626 1.391 . S
H2628 C2636 0.950 . S
H2629 C2641 0.950 . S
H2630 C2638 0.950 . S
H2631 C2640 0.950 . S
H2632 C2642 0.950 . S
H2633 C2644 0.950 . S
H2634 C2646 0.950 . S
H2635 C2647 0.950 . S
C2636 H2628 0.950 . S
C2636 C2637 1.386 . S
C2636 C2638 1.391 . S
C2637 C2636 1.386 . S
C2637 C2641 1.393 . S
C2638 H2630 0.950 . S
C2638 C2636 1.391 . S
C2638 C2639 1.400 . S
C2639 C2638 1.400 . S
C2639 C2640 1.398 . S
C2639 C2645 1.491 . S
C2640 H2631 0.950 . S
C2640 C2639 1.398 . S
C2640 C2641 1.391 . S
C2641 H2629 0.950 . S
C2641 C2637 1.393 . S
C2641 C2640 1.391 . S
C2642 H2632 0.950 . S
C2642 C2643 1.386 . S
C2642 C2644 1.391 . S
C2643 C2642 1.386 . S
C2643 C2647 1.393 . S
C2644 H2633 0.950 . S
C2644 C2642 1.391 . S
C2644 C2645 1.400 . S
C2645 C2639 1.491 . S
C2645 C2644 1.400 . S
C2645 C2646 1.398 . S
C2646 H2634 0.950 . S
C2646 C2645 1.398 . S
C2646 C2647 1.391 . S
C2647 H2635 0.950 . S
C2647 C2643 1.393 . S
C2647 C2646 1.391 . S
H2648 C2656 0.950 . S
H2649 C2661 0.950 . S
H2650 C2658 0.950 . S
H2651 C2660 0.950 . S
H2652 C2662 0.950 . S
H2653 C2664 0.950 . S
H2654 C2666 0.950 . S
H2655 C2667 0.950 . S
C2656 H2648 0.950 . S
C2656 C2657 1.386 . S
C2656 C2658 1.391 . S
C2657 C2656 1.386 . S
C2657 C2661 1.393 . S
C2658 H2650 0.950 . S
C2658 C2656 1.391 . S
C2658 C2659 1.400 . S
C2659 C2658 1.400 . S
C2659 C2660 1.398 . S
C2659 C2665 1.491 . S
C2660 H2651 0.950 . S
C2660 C2659 1.398 . S
C2660 C2661 1.391 . S
C2661 H2649 0.950 . S
C2661 C2657 1.393 . S
C2661 C2660 1.391 . S
C2662 H2652 0.950 . S
C2662 C2663 1.386 . S
C2662 C2664 1.391 . S
C2663 C2662 1.386 . S
C2663 C2667 1.393 . S
C2664 H2653 0.950 . S
C2664 C2662 1.391 . S
C2664 C2665 1.400 . S
C2665 C2659 1.491 . S
C2665 C2664 1.400 . S
C2665 C2666 1.398 . S
C2666 H2654 0.950 . S
C2666 C2665 1.398 . S
C2666 C2667 1.391 . S
C2667 H2655 0.950 . S
C2667 C2663 1.393 . S
C2667 C2666 1.391 . S
H2668 C2676 0.950 . S
H2669 C2681 0.950 . S
H2670 C2678 0.950 . S
H2671 C2680 0.950 . S
H2672 C2682 0.950 . S
H2673 C2684 0.950 . S
H2674 C2686 0.950 . S
H2675 C2687 0.950 . S
C2676 H2668 0.950 . S
C2676 C2677 1.386 . S
C2676 C2678 1.391 . S
C2677 C2676 1.386 . S
C2677 C2681 1.393 . S
C2678 H2670 0.950 . S
C2678 C2676 1.391 . S
C2678 C2679 1.400 . S
C2679 C2678 1.400 . S
C2679 C2680 1.398 . S
C2679 C2685 1.491 . S
C2680 H2671 0.950 . S
C2680 C2679 1.398 . S
C2680 C2681 1.391 . S
C2681 H2669 0.950 . S
C2681 C2677 1.393 . S
C2681 C2680 1.391 . S
C2682 H2672 0.950 . S
C2682 C2683 1.386 . S
C2682 C2684 1.391 . S
C2683 C2682 1.386 . S
C2683 C2687 1.393 . S
C2684 H2673 0.950 . S
C2684 C2682 1.391 . S
C2684 C2685 1.400 . S
C2685 C2679 1.491 . S
C2685 C2684 1.400 . S
C2685 C2686 1.398 . S
C2686 H2674 0.950 . S
C2686 C2685 1.398 . S
C2686 C2687 1.391 . S
C2687 H2675 0.950 . S
C2687 C2683 1.393 . S
C2687 C2686 1.391 . S
H2688 C2696 0.950 . S
H2689 C2701 0.950 . S
H2690 C2698 0.950 . S
H2691 C2700 0.950 . S
H2692 C2702 0.950 . S
H2693 C2704 0.950 . S
H2694 C2706 0.950 . S
H2695 C2707 0.950 . S
C2696 H2688 0.950 . S
C2696 C2697 1.386 . S
C2696 C2698 1.391 . S
C2697 C2696 1.386 . S
C2697 C2701 1.393 . S
C2698 H2690 0.950 . S
C2698 C2696 1.391 . S
C2698 C2699 1.400 . S
C2699 C2698 1.400 . S
C2699 C2700 1.398 . S
C2699 C2705 1.491 . S
C2700 H2691 0.950 . S
C2700 C2699 1.398 . S
C2700 C2701 1.391 . S
C2701 H2689 0.950 . S
C2701 C2697 1.393 . S
C2701 C2700 1.391 . S
C2702 H2692 0.950 . S
C2702 C2703 1.386 . S
C2702 C2704 1.391 . S
C2703 C2702 1.386 . S
C2703 C2707 1.393 . S
C2704 H2693 0.950 . S
C2704 C2702 1.391 . S
C2704 C2705 1.400 . S
C2705 C2699 1.491 . S
C2705 C2704 1.400 . S
C2705 C2706 1.398 . S
C2706 H2694 0.950 . S
C2706 C2705 1.398 . S
C2706 C2707 1.391 . S
C2707 H2695 0.950 . S
C2707 C2703 1.393 . S
C2707 C2706 1.391 . S
H2708 C2716 0.950 . S
H2709 C2721 0.950 . S
H2710 C2718 0.950 . S
H2711 C2720 0.950 . S
H2712 C2722 0.950 . S
H2713 C2724 0.950 . S
H2714 C2726 0.950 . S
H2715 C2727 0.950 . S
C2716 H2708 0.950 . S
C2716 C2717 1.386 . S
C2716 C2718 1.391 . S
C2717 C2716 1.386 . S
C2717 C2721 1.393 . S
C2718 H2710 0.950 . S
C2718 C2716 1.391 . S
C2718 C2719 1.400 . S
C2719 C2718 1.400 . S
C2719 C2720 1.398 . S
C2719 C2725 1.491 . S
C2720 H2711 0.950 . S
C2720 C2719 1.398 . S
C2720 C2721 1.391 . S
C2721 H2709 0.950 . S
C2721 C2717 1.393 . S
C2721 C2720 1.391 . S
C2722 H2712 0.950 . S
C2722 C2723 1.386 . S
C2722 C2724 1.391 . S
C2723 C2722 1.386 . S
C2723 C2727 1.393 . S
C2724 H2713 0.950 . S
C2724 C2722 1.391 . S
C2724 C2725 1.400 . S
C2725 C2719 1.491 . S
C2725 C2724 1.400 . S
C2725 C2726 1.398 . S
C2726 H2714 0.950 . S
C2726 C2725 1.398 . S
C2726 C2727 1.391 . S
C2727 H2715 0.950 . S
C2727 C2723 1.393 . S
C2727 C2726 1.391 . S
H2728 C2736 0.950 . S
H2729 C2741 0.950 . S
H2730 C2738 0.950 . S
H2731 C2740 0.950 . S
H2732 C2742 0.950 . S
H2733 C2744 0.950 . S
H2734 C2746 0.950 . S
H2735 C2747 0.950 . S
C2736 H2728 0.950 . S
C2736 C2737 1.386 . S
C2736 C2738 1.391 . S
C2737 C2736 1.386 . S
C2737 C2741 1.393 . S
C2738 H2730 0.950 . S
C2738 C2736 1.391 . S
C2738 C2739 1.400 . S
C2739 C2738 1.400 . S
C2739 C2740 1.398 . S
C2739 C2745 1.491 . S
C2740 H2731 0.950 . S
C2740 C2739 1.398 . S
C2740 C2741 1.391 . S
C2741 H2729 0.950 . S
C2741 C2737 1.393 . S
C2741 C2740 1.391 . S
C2742 H2732 0.950 . S
C2742 C2743 1.386 . S
C2742 C2744 1.391 . S
C2743 C2742 1.386 . S
C2743 C2747 1.393 . S
C2744 H2733 0.950 . S
C2744 C2742 1.391 . S
C2744 C2745 1.400 . S
C2745 C2739 1.491 . S
C2745 C2744 1.400 . S
C2745 C2746 1.398 . S
C2746 H2734 0.950 . S
C2746 C2745 1.398 . S
C2746 C2747 1.391 . S
C2747 H2735 0.950 . S
C2747 C2743 1.393 . S
C2747 C2746 1.391 . S
H2748 C2756 0.950 . S
H2749 C2761 0.950 . S
H2750 C2758 0.950 . S
H2751 C2760 0.950 . S
H2752 C2762 0.950 . S
H2753 C2764 0.950 . S
H2754 C2766 0.950 . S
H2755 C2767 0.950 . S
C2756 H2748 0.950 . S
C2756 C2757 1.386 . S
C2756 C2758 1.391 . S
C2757 C2756 1.386 . S
C2757 C2761 1.393 . S
C2758 H2750 0.950 . S
C2758 C2756 1.391 . S
C2758 C2759 1.400 . S
C2759 C2758 1.400 . S
C2759 C2760 1.398 . S
C2759 C2765 1.491 . S
C2760 H2751 0.950 . S
C2760 C2759 1.398 . S
C2760 C2761 1.391 . S
C2761 H2749 0.950 . S
C2761 C2757 1.393 . S
C2761 C2760 1.391 . S
C2762 H2752 0.950 . S
C2762 C2763 1.386 . S
C2762 C2764 1.391 . S
C2763 C2762 1.386 . S
C2763 C2767 1.393 . S
C2764 H2753 0.950 . S
C2764 C2762 1.391 . S
C2764 C2765 1.400 . S
C2765 C2759 1.491 . S
C2765 C2764 1.400 . S
C2765 C2766 1.398 . S
C2766 H2754 0.950 . S
C2766 C2765 1.398 . S
C2766 C2767 1.391 . S
C2767 H2755 0.950 . S
C2767 C2763 1.393 . S
C2767 C2766 1.391 . S
H2768 C2776 0.950 . S
H2769 C2781 0.950 . S
H2770 C2778 0.950 . S
H2771 C2780 0.950 . S
H2772 C2782 0.950 . S
H2773 C2784 0.950 . S
H2774 C2786 0.950 . S
H2775 C2787 0.950 . S
C2776 H2768 0.950 . S
C2776 C2777 1.386 . S
C2776 C2778 1.391 . S
C2777 C2776 1.386 . S
C2777 C2781 1.393 . S
C2778 H2770 0.950 . S
C2778 C2776 1.391 . S
C2778 C2779 1.400 . S
C2779 C2778 1.400 . S
C2779 C2780 1.398 . S
C2779 C2785 1.491 . S
C2780 H2771 0.950 . S
C2780 C2779 1.398 . S
C2780 C2781 1.391 . S
C2781 H2769 0.950 . S
C2781 C2777 1.393 . S
C2781 C2780 1.391 . S
C2782 H2772 0.950 . S
C2782 C2783 1.386 . S
C2782 C2784 1.391 . S
C2783 C2782 1.386 . S
C2783 C2787 1.393 . S
C2784 H2773 0.950 . S
C2784 C2782 1.391 . S
C2784 C2785 1.400 . S
C2785 C2779 1.491 . S
C2785 C2784 1.400 . S
C2785 C2786 1.398 . S
C2786 H2774 0.950 . S
C2786 C2785 1.398 . S
C2786 C2787 1.391 . S
C2787 H2775 0.950 . S
C2787 C2783 1.393 . S
C2787 C2786 1.391 . S
H2788 C2796 0.950 . S
H2789 C2801 0.950 . S
H2790 C2798 0.950 . S
H2791 C2800 0.950 . S
H2792 C2802 0.950 . S
H2793 C2804 0.950 . S
H2794 C2806 0.950 . S
H2795 C2807 0.950 . S
C2796 H2788 0.950 . S
C2796 C2797 1.386 . S
C2796 C2798 1.391 . S
C2797 C2796 1.386 . S
C2797 C2801 1.393 . S
C2798 H2790 0.950 . S
C2798 C2796 1.391 . S
C2798 C2799 1.400 . S
C2799 C2798 1.400 . S
C2799 C2800 1.398 . S
C2799 C2805 1.491 . S
C2800 H2791 0.950 . S
C2800 C2799 1.398 . S
C2800 C2801 1.391 . S
C2801 H2789 0.950 . S
C2801 C2797 1.393 . S
C2801 C2800 1.391 . S
C2802 H2792 0.950 . S
C2802 C2803 1.386 . S
C2802 C2804 1.391 . S
C2803 C2802 1.386 . S
C2803 C2807 1.393 . S
C2804 H2793 0.950 . S
C2804 C2802 1.391 . S
C2804 C2805 1.400 . S
C2805 C2799 1.491 . S
C2805 C2804 1.400 . S
C2805 C2806 1.398 . S
C2806 H2794 0.950 . S
C2806 C2805 1.398 . S
C2806 C2807 1.391 . S
C2807 H2795 0.950 . S
C2807 C2803 1.393 . S
C2807 C2806 1.391 . S
H2808 C2816 0.950 . S
H2809 C2821 0.950 . S
H2810 C2818 0.950 . S
H2811 C2820 0.950 . S
H2812 C2822 0.950 . S
H2813 C2824 0.950 . S
H2814 C2826 0.950 . S
H2815 C2827 0.950 . S
C2816 H2808 0.950 . S
C2816 C2817 1.386 . S
C2816 C2818 1.391 . S
C2817 C2816 1.386 . S
C2817 C2821 1.393 . S
C2818 H2810 0.950 . S
C2818 C2816 1.391 . S
C2818 C2819 1.400 . S
C2819 C2818 1.400 . S
C2819 C2820 1.398 . S
C2819 C2825 1.491 . S
C2820 H2811 0.950 . S
C2820 C2819 1.398 . S
C2820 C2821 1.391 . S
C2821 H2809 0.950 . S
C2821 C2817 1.393 . S
C2821 C2820 1.391 . S
C2822 H2812 0.950 . S
C2822 C2823 1.386 . S
C2822 C2824 1.391 . S
C2823 C2822 1.386 . S
C2823 C2827 1.393 . S
C2824 H2813 0.950 . S
C2824 C2822 1.391 . S
C2824 C2825 1.400 . S
C2825 C2819 1.491 . S
C2825 C2824 1.400 . S
C2825 C2826 1.398 . S
C2826 H2814 0.950 . S
C2826 C2825 1.398 . S
C2826 C2827 1.391 . S
C2827 H2815 0.950 . S
C2827 C2823 1.393 . S
C2827 C2826 1.391 . S
H2828 C2836 0.950 . S
H2829 C2841 0.950 . S
H2830 C2838 0.950 . S
H2831 C2840 0.950 . S
H2832 C2842 0.950 . S
H2833 C2844 0.950 . S
H2834 C2846 0.950 . S
H2835 C2847 0.950 . S
C2836 H2828 0.950 . S
C2836 C2837 1.386 . S
C2836 C2838 1.391 . S
C2837 C2836 1.386 . S
C2837 C2841 1.393 . S
C2838 H2830 0.950 . S
C2838 C2836 1.391 . S
C2838 C2839 1.400 . S
C2839 C2838 1.400 . S
C2839 C2840 1.398 . S
C2839 C2845 1.491 . S
C2840 H2831 0.950 . S
C2840 C2839 1.398 . S
C2840 C2841 1.391 . S
C2841 H2829 0.950 . S
C2841 C2837 1.393 . S
C2841 C2840 1.391 . S
C2842 H2832 0.950 . S
C2842 C2843 1.386 . S
C2842 C2844 1.391 . S
C2843 C2842 1.386 . S
C2843 C2847 1.393 . S
C2844 H2833 0.950 . S
C2844 C2842 1.391 . S
C2844 C2845 1.400 . S
C2845 C2839 1.491 . S
C2845 C2844 1.400 . S
C2845 C2846 1.398 . S
C2846 H2834 0.950 . S
C2846 C2845 1.398 . S
C2846 C2847 1.391 . S
C2847 H2835 0.950 . S
C2847 C2843 1.393 . S
C2847 C2846 1.391 . S
H2848 C2856 0.950 . S
H2849 C2861 0.950 . S
H2850 C2858 0.950 . S
H2851 C2860 0.950 . S
H2852 C2862 0.950 . S
H2853 C2864 0.950 . S
H2854 C2866 0.950 . S
H2855 C2867 0.950 . S
C2856 H2848 0.950 . S
C2856 C2857 1.386 . S
C2856 C2858 1.391 . S
C2857 C2856 1.386 . S
C2857 C2861 1.393 . S
C2858 H2850 0.950 . S
C2858 C2856 1.391 . S
C2858 C2859 1.400 . S
C2859 C2858 1.400 . S
C2859 C2860 1.398 . S
C2859 C2865 1.491 . S
C2860 H2851 0.950 . S
C2860 C2859 1.398 . S
C2860 C2861 1.391 . S
C2861 H2849 0.950 . S
C2861 C2857 1.393 . S
C2861 C2860 1.391 . S
C2862 H2852 0.950 . S
C2862 C2863 1.386 . S
C2862 C2864 1.391 . S
C2863 C2862 1.386 . S
C2863 C2867 1.393 . S
C2864 H2853 0.950 . S
C2864 C2862 1.391 . S
C2864 C2865 1.400 . S
C2865 C2859 1.491 . S
C2865 C2864 1.400 . S
C2865 C2866 1.398 . S
C2866 H2854 0.950 . S
C2866 C2865 1.398 . S
C2866 C2867 1.391 . S
C2867 H2855 0.950 . S
C2867 C2863 1.393 . S
C2867 C2866 1.391 . S
H2868 C2876 0.950 . S
H2869 C2881 0.950 . S
H2870 C2878 0.950 . S
H2871 C2880 0.950 . S
H2872 C2882 0.950 . S
H2873 C2884 0.950 . S
H2874 C2886 0.950 . S
H2875 C2887 0.950 . S
C2876 H2868 0.950 . S
C2876 C2877 1.386 . S
C2876 C2878 1.391 . S
C2877 C2876 1.386 . S
C2877 C2881 1.393 . S
C2878 H2870 0.950 . S
C2878 C2876 1.391 . S
C2878 C2879 1.400 . S
C2879 C2878 1.400 . S
C2879 C2880 1.398 . S
C2879 C2885 1.491 . S
C2880 H2871 0.950 . S
C2880 C2879 1.398 . S
C2880 C2881 1.391 . S
C2881 H2869 0.950 . S
C2881 C2877 1.393 . S
C2881 C2880 1.391 . S
C2882 H2872 0.950 . S
C2882 C2883 1.386 . S
C2882 C2884 1.391 . S
C2883 C2882 1.386 . S
C2883 C2887 1.393 . S
C2884 H2873 0.950 . S
C2884 C2882 1.391 . S
C2884 C2885 1.400 . S
C2885 C2879 1.491 . S
C2885 C2884 1.400 . S
C2885 C2886 1.398 . S
C2886 H2874 0.950 . S
C2886 C2885 1.398 . S
C2886 C2887 1.391 . S
C2887 H2875 0.950 . S
C2887 C2883 1.393 . S
C2887 C2886 1.391 . S
H2888 C2896 0.950 . S
H2889 C2901 0.950 . S
H2890 C2898 0.950 . S
H2891 C2900 0.950 . S
H2892 C2902 0.950 . S
H2893 C2904 0.950 . S
H2894 C2906 0.950 . S
H2895 C2907 0.950 . S
C2896 H2888 0.950 . S
C2896 C2897 1.386 . S
C2896 C2898 1.391 . S
C2897 C2896 1.386 . S
C2897 C2901 1.393 . S
C2898 H2890 0.950 . S
C2898 C2896 1.391 . S
C2898 C2899 1.400 . S
C2899 C2898 1.400 . S
C2899 C2900 1.398 . S
C2899 C2905 1.491 . S
C2900 H2891 0.950 . S
C2900 C2899 1.398 . S
C2900 C2901 1.391 . S
C2901 H2889 0.950 . S
C2901 C2897 1.393 . S
C2901 C2900 1.391 . S
C2902 H2892 0.950 . S
C2902 C2903 1.386 . S
C2902 C2904 1.391 . S
C2903 C2902 1.386 . S
C2903 C2907 1.393 . S
C2904 H2893 0.950 . S
C2904 C2902 1.391 . S
C2904 C2905 1.400 . S
C2905 C2899 1.491 . S
C2905 C2904 1.400 . S
C2905 C2906 1.398 . S
C2906 H2894 0.950 . S
C2906 C2905 1.398 . S
C2906 C2907 1.391 . S
C2907 H2895 0.950 . S
C2907 C2903 1.393 . S
C2907 C2906 1.391 . S
H2908 C2916 0.950 . S
H2909 C2921 0.950 . S
H2910 C2918 0.950 . S
H2911 C2920 0.950 . S
H2912 C2922 0.950 . S
H2913 C2924 0.950 . S
H2914 C2926 0.950 . S
H2915 C2927 0.950 . S
C2916 H2908 0.950 . S
C2916 C2917 1.386 . S
C2916 C2918 1.391 . S
C2917 C2916 1.386 . S
C2917 C2921 1.393 . S
C2918 H2910 0.950 . S
C2918 C2916 1.391 . S
C2918 C2919 1.400 . S
C2919 C2918 1.400 . S
C2919 C2920 1.398 . S
C2919 C2925 1.491 . S
C2920 H2911 0.950 . S
C2920 C2919 1.398 . S
C2920 C2921 1.391 . S
C2921 H2909 0.950 . S
C2921 C2917 1.393 . S
C2921 C2920 1.391 . S
C2922 H2912 0.950 . S
C2922 C2923 1.386 . S
C2922 C2924 1.391 . S
C2923 C2922 1.386 . S
C2923 C2927 1.393 . S
C2924 H2913 0.950 . S
C2924 C2922 1.391 . S
C2924 C2925 1.400 . S
C2925 C2919 1.491 . S
C2925 C2924 1.400 . S
C2925 C2926 1.398 . S
C2926 H2914 0.950 . S
C2926 C2925 1.398 . S
C2926 C2927 1.391 . S
C2927 H2915 0.950 . S
C2927 C2923 1.393 . S
C2927 C2926 1.391 . S
H2928 C2936 0.950 . S
H2929 C2941 0.950 . S
H2930 C2938 0.950 . S
H2931 C2940 0.950 . S
H2932 C2942 0.950 . S
H2933 C2944 0.950 . S
H2934 C2946 0.950 . S
H2935 C2947 0.950 . S
C2936 H2928 0.950 . S
C2936 C2937 1.386 . S
C2936 C2938 1.391 . S
C2937 C2936 1.386 . S
C2937 C2941 1.393 . S
C2938 H2930 0.950 . S
C2938 C2936 1.391 . S
C2938 C2939 1.400 . S
C2939 C2938 1.400 . S
C2939 C2940 1.398 . S
C2939 C2945 1.491 . S
C2940 H2931 0.950 . S
C2940 C2939 1.398 . S
C2940 C2941 1.391 . S
C2941 H2929 0.950 . S
C2941 C2937 1.393 . S
C2941 C2940 1.391 . S
C2942 H2932 0.950 . S
C2942 C2943 1.386 . S
C2942 C2944 1.391 . S
C2943 C2942 1.386 . S
C2943 C2947 1.393 . S
C2944 H2933 0.950 . S
C2944 C2942 1.391 . S
C2944 C2945 1.400 . S
C2945 C2939 1.491 . S
C2945 C2944 1.400 . S
C2945 C2946 1.398 . S
C2946 H2934 0.950 . S
C2946 C2945 1.398 . S
C2946 C2947 1.391 . S
C2947 H2935 0.950 . S
C2947 C2943 1.393 . S
C2947 C2946 1.391 . S
H2948 C2956 0.950 . S
H2949 C2961 0.950 . S
H2950 C2958 0.950 . S
H2951 C2960 0.950 . S
H2952 C2962 0.950 . S
H2953 C2964 0.950 . S
H2954 C2966 0.950 . S
H2955 C2967 0.950 . S
C2956 H2948 0.950 . S
C2956 C2957 1.386 . S
C2956 C2958 1.391 . S
C2957 C2956 1.386 . S
C2957 C2961 1.393 . S
C2958 H2950 0.950 . S
C2958 C2956 1.391 . S
C2958 C2959 1.400 . S
C2959 C2958 1.400 . S
C2959 C2960 1.398 . S
C2959 C2965 1.491 . S
C2960 H2951 0.950 . S
C2960 C2959 1.398 . S
C2960 C2961 1.391 . S
C2961 H2949 0.950 . S
C2961 C2957 1.393 . S
C2961 C2960 1.391 . S
C2962 H2952 0.950 . S
C2962 C2963 1.386 . S
C2962 C2964 1.391 . S
C2963 C2962 1.386 . S
C2963 C2967 1.393 . S
C2964 H2953 0.950 . S
C2964 C2962 1.391 . S
C2964 C2965 1.400 . S
C2965 C2959 1.491 . S
C2965 C2964 1.400 . S
C2965 C2966 1.398 . S
C2966 H2954 0.950 . S
C2966 C2965 1.398 . S
C2966 C2967 1.391 . S
C2967 H2955 0.950 . S
C2967 C2963 1.393 . S
C2967 C2966 1.391 . S
H2968 C2976 0.950 . S
H2969 C2981 0.950 . S
H2970 C2978 0.950 . S
H2971 C2980 0.950 . S
H2972 C2982 0.950 . S
H2973 C2984 0.950 . S
H2974 C2986 0.950 . S
H2975 C2987 0.950 . S
C2976 H2968 0.950 . S
C2976 C2977 1.386 . S
C2976 C2978 1.391 . S
C2977 C2976 1.386 . S
C2977 C2981 1.393 . S
C2978 H2970 0.950 . S
C2978 C2976 1.391 . S
C2978 C2979 1.400 . S
C2979 C2978 1.400 . S
C2979 C2980 1.398 . S
C2979 C2985 1.491 . S
C2980 H2971 0.950 . S
C2980 C2979 1.398 . S
C2980 C2981 1.391 . S
C2981 H2969 0.950 . S
C2981 C2977 1.393 . S
C2981 C2980 1.391 . S
C2982 H2972 0.950 . S
C2982 C2983 1.386 . S
C2982 C2984 1.391 . S
C2983 C2982 1.386 . S
C2983 C2987 1.393 . S
C2984 H2973 0.950 . S
C2984 C2982 1.391 . S
C2984 C2985 1.400 . S
C2985 C2979 1.491 . S
C2985 C2984 1.400 . S
C2985 C2986 1.398 . S
C2986 H2974 0.950 . S
C2986 C2985 1.398 . S
C2986 C2987 1.391 . S
C2987 H2975 0.950 . S
C2987 C2983 1.393 . S
C2987 C2986 1.391 . S
H2988 C2996 0.950 . S
H2989 C3001 0.950 . S
H2990 C2998 0.950 . S
H2991 C3000 0.950 . S
H2992 C3002 0.950 . S
H2993 C3004 0.950 . S
H2994 C3006 0.950 . S
H2995 C3007 0.950 . S
C2996 H2988 0.950 . S
C2996 C2997 1.386 . S
C2996 C2998 1.391 . S
C2997 C2996 1.386 . S
C2997 C3001 1.393 . S
C2998 H2990 0.950 . S
C2998 C2996 1.391 . S
C2998 C2999 1.400 . S
C2999 C2998 1.400 . S
C2999 C3000 1.398 . S
C2999 C3005 1.491 . S
C3000 H2991 0.950 . S
C3000 C2999 1.398 . S
C3000 C3001 1.391 . S
C3001 H2989 0.950 . S
C3001 C2997 1.393 . S
C3001 C3000 1.391 . S
C3002 H2992 0.950 . S
C3002 C3003 1.386 . S
C3002 C3004 1.391 . S
C3003 C3002 1.386 . S
C3003 C3007 1.393 . S
C3004 H2993 0.950 . S
C3004 C3002 1.391 . S
C3004 C3005 1.400 . S
C3005 C2999 1.491 . S
C3005 C3004 1.400 . S
C3005 C3006 1.398 . S
C3006 H2994 0.950 . S
C3006 C3005 1.398 . S
C3006 C3007 1.391 . S
C3007 H2995 0.950 . S
C3007 C3003 1.393 . S
C3007 C3006 1.391 . S
H3008 C3016 0.950 . S
H3009 C3021 0.950 1_556 S
H3010 C3018 0.950 . S
H3011 C3020 0.950 . S
H3012 C3022 0.950 . S
H3013 C3024 0.950 . S
H3014 C3026 0.950 . S
H3015 C3027 0.950 . S
C3016 H3008 0.950 . S
C3016 C3017 1.386 . S
C3016 C3018 1.391 . S
C3017 C3016 1.386 . S
C3017 C3021 1.393 . S
C3018 H3010 0.950 . S
C3018 C3016 1.391 . S
C3018 C3019 1.400 . S
C3019 C3018 1.400 . S
C3019 C3020 1.398 . S
C3019 C3025 1.491 . S
C3020 H3011 0.950 . S
C3020 C3019 1.398 . S
C3020 C3021 1.391 . S
C3021 H3009 0.950 1_554 S
C3021 C3017 1.393 . S
C3021 C3020 1.391 . S
C3022 H3012 0.950 . S
C3022 C3023 1.386 . S
C3022 C3024 1.391 . S
C3023 C3022 1.386 . S
C3023 C3027 1.393 . S
C3024 H3013 0.950 . S
C3024 C3022 1.391 . S
C3024 C3025 1.400 1_545 S
C3025 C3019 1.491 . S
C3025 C3024 1.400 1_565 S
C3025 C3026 1.398 . S
C3026 H3014 0.950 . S
C3026 C3025 1.398 . S
C3026 C3027 1.391 1_565 S
C3027 H3015 0.950 . S
C3027 C3023 1.393 . S
C3027 C3026 1.391 1_545 S
H3028 C3036 0.950 . S
H3029 C3041 0.950 . S
H3030 C3038 0.950 . S
H3031 C3040 0.950 . S
H3032 C3042 0.950 . S
H3033 C3044 0.950 . S
H3034 C3046 0.950 . S
H3035 C3047 0.950 . S
C3036 H3028 0.950 . S
C3036 C3037 1.386 . S
C3036 C3038 1.391 . S
C3037 C3036 1.386 . S
C3037 C3041 1.393 1_455 S
C3038 H3030 0.950 . S
C3038 C3036 1.391 . S
C3038 C3039 1.400 . S
C3039 C3038 1.400 . S
C3039 C3040 1.398 . S
C3039 C3045 1.491 . S
C3040 H3031 0.950 . S
C3040 C3039 1.398 . S
C3040 C3041 1.391 1_455 S
C3041 H3029 0.950 . S
C3041 C3037 1.393 1_655 S
C3041 C3040 1.391 1_655 S
C3042 H3032 0.950 . S
C3042 C3043 1.386 . S
C3042 C3044 1.391 . S
C3043 C3042 1.386 . S
C3043 C3047 1.393 . S
C3044 H3033 0.950 . S
C3044 C3042 1.391 . S
C3044 C3045 1.400 . S
C3045 C3039 1.491 . S
C3045 C3044 1.400 . S
C3045 C3046 1.398 . S
C3046 H3034 0.950 . S
C3046 C3045 1.398 . S
C3046 C3047 1.391 . S
C3047 H3035 0.950 . S
C3047 C3043 1.393 . S
C3047 C3046 1.391 . S
H3048 C3056 0.950 . S
H3049 C3061 0.950 . S
H3050 C3058 0.950 . S
H3051 C3060 0.950 . S
H3052 C3062 0.950 . S
H3053 C3064 0.950 . S
H3054 C3066 0.950 . S
H3055 C3067 0.950 . S
C3056 H3048 0.950 . S
C3056 C3057 1.386 . S
C3056 C3058 1.391 . S
C3057 C3056 1.386 . S
C3057 C3061 1.393 . S
C3058 H3050 0.950 . S
C3058 C3056 1.391 . S
C3058 C3059 1.400 . S
C3059 C3058 1.400 . S
C3059 C3060 1.398 . S
C3059 C3065 1.491 . S
C3060 H3051 0.950 . S
C3060 C3059 1.398 . S
C3060 C3061 1.391 . S
C3061 H3049 0.950 . S
C3061 C3057 1.393 . S
C3061 C3060 1.391 . S
C3062 H3052 0.950 . S
C3062 C3063 1.386 . S
C3062 C3064 1.391 . S
C3063 C3062 1.386 . S
C3063 C3067 1.393 . S
C3064 H3053 0.950 . S
C3064 C3062 1.391 . S
C3064 C3065 1.400 . S
C3065 C3059 1.491 . S
C3065 C3064 1.400 . S
C3065 C3066 1.398 . S
C3066 H3054 0.950 . S
C3066 C3065 1.398 . S
C3066 C3067 1.391 . S
C3067 H3055 0.950 . S
C3067 C3063 1.393 . S
C3067 C3066 1.391 . S
H3068 C3076 0.950 . S
H3069 C3081 0.950 . S
H3070 C3078 0.950 . S
H3071 C3080 0.950 . S
H3072 C3082 0.950 . S
H3073 C3084 0.950 . S
H3074 C3086 0.950 . S
H3075 C3087 0.950 . S
C3076 H3068 0.950 . S
C3076 C3077 1.386 . S
C3076 C3078 1.391 . S
C3077 C3076 1.386 . S
C3077 C3081 1.393 . S
C3078 H3070 0.950 . S
C3078 C3076 1.391 . S
C3078 C3079 1.400 . S
C3079 C3078 1.400 . S
C3079 C3080 1.398 . S
C3079 C3085 1.491 . S
C3080 H3071 0.950 . S
C3080 C3079 1.398 . S
C3080 C3081 1.391 . S
C3081 H3069 0.950 . S
C3081 C3077 1.393 . S
C3081 C3080 1.391 . S
C3082 H3072 0.950 . S
C3082 C3083 1.386 . S
C3082 C3084 1.391 1_565 S
C3083 C3082 1.386 . S
C3083 C3087 1.393 . S
C3084 H3073 0.950 . S
C3084 C3082 1.391 1_545 S
C3084 C3085 1.400 . S
C3085 C3079 1.491 . S
C3085 C3084 1.400 . S
C3085 C3086 1.398 1_545 S
C3086 H3074 0.950 . S
C3086 C3085 1.398 1_565 S
C3086 C3087 1.391 . S
C3087 H3075 0.950 . S
C3087 C3083 1.393 . S
C3087 C3086 1.391 . S
H3088 C3096 0.950 . S
H3089 C3101 0.950 . S
H3090 C3098 0.950 . S
H3091 C3100 0.950 . S
H3092 C3102 0.950 . S
H3093 C3104 0.950 . S
H3094 C3106 0.950 . S
H3095 C3107 0.950 . S
C3096 H3088 0.950 . S
C3096 C3097 1.386 1_455 S
C3096 C3098 1.391 1_455 S
C3097 C3096 1.386 1_655 S
C3097 C3101 1.393 . S
C3098 H3090 0.950 . S
C3098 C3096 1.391 1_655 S
C3098 C3099 1.400 . S
C3099 C3098 1.400 . S
C3099 C3100 1.398 . S
C3099 C3105 1.491 . S
C3100 H3091 0.950 . S
C3100 C3099 1.398 . S
C3100 C3101 1.391 . S
C3101 H3089 0.950 . S
C3101 C3097 1.393 . S
C3101 C3100 1.391 . S
C3102 H3092 0.950 . S
C3102 C3103 1.386 . S
C3102 C3104 1.391 . S
C3103 C3102 1.386 . S
C3103 C3107 1.393 . S
C3104 H3093 0.950 . S
C3104 C3102 1.391 . S
C3104 C3105 1.400 . S
C3105 C3099 1.491 . S
C3105 C3104 1.400 . S
C3105 C3106 1.398 . S
C3106 H3094 0.950 . S
C3106 C3105 1.398 . S
C3106 C3107 1.391 . S
C3107 H3095 0.950 . S
C3107 C3103 1.393 . S
C3107 C3106 1.391 . S
H3108 C3116 0.950 . S
H3109 C3121 0.950 . S
H3110 C3118 0.950 . S
H3111 C3120 0.950 . S
H3112 C3122 0.950 . S
H3113 C3124 0.950 . S
H3114 C3126 0.950 . S
H3115 C3127 0.950 . S
C3116 H3108 0.950 . S
C3116 C3117 1.386 . S
C3116 C3118 1.391 . S
C3117 C3116 1.386 . S
C3117 C3121 1.393 . S
C3118 H3110 0.950 . S
C3118 C3116 1.391 . S
C3118 C3119 1.400 . S
C3119 C3118 1.400 . S
C3119 C3120 1.398 . S
C3119 C3125 1.491 . S
C3120 H3111 0.950 . S
C3120 C3119 1.398 . S
C3120 C3121 1.391 . S
C3121 H3109 0.950 . S
C3121 C3117 1.393 . S
C3121 C3120 1.391 . S
C3122 H3112 0.950 . S
C3122 C3123 1.386 . S
C3122 C3124 1.391 . S
C3123 C3122 1.386 . S
C3123 C3127 1.393 . S
C3124 H3113 0.950 . S
C3124 C3122 1.391 . S
C3124 C3125 1.400 . S
C3125 C3119 1.491 . S
C3125 C3124 1.400 . S
C3125 C3126 1.398 . S
C3126 H3114 0.950 . S
C3126 C3125 1.398 . S
C3126 C3127 1.391 . S
C3127 H3115 0.950 . S
C3127 C3123 1.393 . S
C3127 C3126 1.391 . S
H3128 C3136 0.950 . S
H3129 C3141 0.950 . S
H3130 C3138 0.950 . S
H3131 C3140 1.000 . S
H3132 C3142 0.950 . S
H3133 C3144 0.950 . S
H3134 C3146 0.950 . S
H3135 C3147 0.950 . S
C3136 H3128 0.950 . S
C3136 C3137 1.386 . S
C3136 C3138 1.391 . S
C3137 C3136 1.386 . S
C3137 C3141 1.393 1_545 S
C3138 H3130 0.950 . S
C3138 C3136 1.391 . S
C3138 C3139 1.400 . S
C3139 C3138 1.400 . S
C3139 C3140 1.398 . S
C3139 C3145 1.491 . S
C3140 H3131 1.000 . S
C3140 C3139 1.398 . S
C3140 C3141 1.391 1_545 S
C3141 H3129 0.950 . S
C3141 C3137 1.393 1_565 S
C3141 C3140 1.391 1_565 S
C3142 H3132 0.950 . S
C3142 C3143 1.386 . S
C3142 C3144 1.391 . S
C3143 C3142 1.386 . S
C3143 C3147 1.393 . S
C3144 H3133 0.950 . S
C3144 C3142 1.391 . S
C3144 C3145 1.400 . S
C3145 C3139 1.491 . S
C3145 C3144 1.400 . S
C3145 C3146 1.398 . S
C3146 H3134 0.950 . S
C3146 C3145 1.398 . S
C3146 C3147 1.391 . S
C3147 H3135 0.950 . S
C3147 C3143 1.393 . S
C3147 C3146 1.391 . S
H3148 C3156 0.950 . S
H3149 C3161 0.950 1_455 S
H3150 C3158 0.950 . S
H3151 C3160 0.950 . S
H3152 C3162 0.950 . S
H3153 C3164 0.950 . S
H3154 C3166 0.950 . S
H3155 C3167 0.950 . S
C3156 H3148 0.950 . S
C3156 C3157 1.386 . S
C3156 C3158 1.391 . S
C3157 C3156 1.386 . S
C3157 C3161 1.393 . S
C3158 H3150 0.950 . S
C3158 C3156 1.391 . S
C3158 C3159 1.400 . S
C3159 C3158 1.400 . S
C3159 C3160 1.398 . S
C3159 C3165 1.491 . S
C3160 H3151 0.950 . S
C3160 C3159 1.398 . S
C3160 C3161 1.391 . S
C3161 H3149 0.950 1_655 S
C3161 C3157 1.393 . S
C3161 C3160 1.391 . S
C3162 H3152 0.950 . S
C3162 C3163 1.386 . S
C3162 C3164 1.391 . S
C3163 C3162 1.386 . S
C3163 C3167 1.393 . S
C3164 H3153 0.950 . S
C3164 C3162 1.391 . S
C3164 C3165 1.400 . S
C3165 C3159 1.491 . S
C3165 C3164 1.400 . S
C3165 C3166 1.398 . S
C3166 H3154 0.950 . S
C3166 C3165 1.398 . S
C3166 C3167 1.391 . S
C3167 H3155 0.950 . S
C3167 C3163 1.393 . S
C3167 C3166 1.391 . S
H3168 C3176 0.950 . S
H3169 C3181 0.950 . S
H3170 C3178 0.950 . S
H3171 C3180 0.950 . S
H3172 C3182 0.950 . S
H3173 C3184 0.950 . S
H3174 C3186 0.950 . S
H3175 C3187 0.950 . S
C3176 H3168 0.950 . S
C3176 C3177 1.386 . S
C3176 C3178 1.391 . S
C3177 C3176 1.386 . S
C3177 C3181 1.393 . S
C3178 H3170 0.950 . S
C3178 C3176 1.391 . S
C3178 C3179 1.400 . S
C3179 C3178 1.400 . S
C3179 C3180 1.398 . S
C3179 C3185 1.491 . S
C3180 H3171 0.950 . S
C3180 C3179 1.398 . S
C3180 C3181 1.391 . S
C3181 H3169 0.950 . S
C3181 C3177 1.393 . S
C3181 C3180 1.391 . S
C3182 H3172 0.950 . S
C3182 C3183 1.386 . S
C3182 C3184 1.391 . S
C3183 C3182 1.386 . S
C3183 C3187 1.393 . S
C3184 H3173 0.950 . S
C3184 C3182 1.391 . S
C3184 C3185 1.400 . S
C3185 C3179 1.491 . S
C3185 C3184 1.400 . S
C3185 C3186 1.398 . S
C3186 H3174 0.950 . S
C3186 C3185 1.398 . S
C3186 C3187 1.391 . S
C3187 H3175 0.950 . S
C3187 C3183 1.393 . S
C3187 C3186 1.391 . S
H3188 C3196 0.950 . S
H3189 C3201 0.950 . S
H3190 C3198 0.950 . S
H3191 C3200 0.950 . S
H3192 C3202 0.950 . S
H3193 C3204 0.950 . S
H3194 C3206 0.950 . S
H3195 C3207 0.950 . S
C3196 H3188 0.950 . S
C3196 C3197 1.386 . S
C3196 C3198 1.391 . S
C3197 C3196 1.386 . S
C3197 C3201 1.393 1_565 S
C3198 H3190 0.950 . S
C3198 C3196 1.391 . S
C3198 C3199 1.400 . S
C3199 C3198 1.400 . S
C3199 C3200 1.398 . S
C3199 C3205 1.491 . S
C3200 H3191 0.950 . S
C3200 C3199 1.398 . S
C3200 C3201 1.391 1_565 S
C3201 H3189 0.950 . S
C3201 C3197 1.393 1_545 S
C3201 C3200 1.391 1_545 S
C3202 H3192 0.950 . S
C3202 C3203 1.386 . S
C3202 C3204 1.391 . S
C3203 C3202 1.386 . S
C3203 C3207 1.393 . S
C3204 H3193 0.950 . S
C3204 C3202 1.391 . S
C3204 C3205 1.400 . S
C3205 C3199 1.491 . S
C3205 C3204 1.400 . S
C3205 C3206 1.398 . S
C3206 H3194 0.950 . S
C3206 C3205 1.398 . S
C3206 C3207 1.391 . S
C3207 H3195 0.950 . S
C3207 C3203 1.393 . S
C3207 C3206 1.391 . S
H3208 C3216 0.950 . S
H3209 C3221 0.950 . S
H3210 C3218 0.950 . S
H3211 C3220 0.950 . S
H3212 C3222 0.949 1_655 S
H3213 C3224 0.950 . S
H3214 C3226 0.950 . S
H3215 C3227 0.950 . S
C3216 H3208 0.950 . S
C3216 C3217 1.386 . S
C3216 C3218 1.391 . S
C3217 C3216 1.386 . S
C3217 C3221 1.393 . S
C3218 H3210 0.950 . S
C3218 C3216 1.391 . S
C3218 C3219 1.400 . S
C3219 C3218 1.400 . S
C3219 C3220 1.398 . S
C3219 C3225 1.491 . S
C3220 H3211 0.950 . S
C3220 C3219 1.398 . S
C3220 C3221 1.391 . S
C3221 H3209 0.950 . S
C3221 C3217 1.393 . S
C3221 C3220 1.391 . S
C3222 H3212 0.949 1_455 S
C3222 C3223 1.386 . S
C3222 C3224 1.391 . S
C3223 C3222 1.386 . S
C3223 C3227 1.393 . S
C3224 H3213 0.950 . S
C3224 C3222 1.391 . S
C3224 C3225 1.400 . S
C3225 C3219 1.491 . S
C3225 C3224 1.400 . S
C3225 C3226 1.398 . S
C3226 H3214 0.950 . S
C3226 C3225 1.398 . S
C3226 C3227 1.391 . S
C3227 H3215 0.950 . S
C3227 C3223 1.393 . S
C3227 C3226 1.391 . S
H3228 C3236 0.950 . S
H3229 C3241 0.950 . S
H3230 C3238 0.950 . S
H3231 C3240 0.950 . S
H3232 C3242 0.950 . S
H3233 C3244 0.950 . S
H3234 C3246 0.950 . S
H3235 C3247 0.950 . S
C3236 H3228 0.950 . S
C3236 C3237 1.386 . S
C3236 C3238 1.391 . S
C3237 C3236 1.386 . S
C3237 C3241 1.393 . S
C3238 H3230 0.950 . S
C3238 C3236 1.391 . S
C3238 C3239 1.400 1_655 S
C3239 C3238 1.400 1_455 S
C3239 C3240 1.398 . S
C3239 C3245 1.491 . S
C3240 H3231 0.950 . S
C3240 C3239 1.398 . S
C3240 C3241 1.391 1_455 S
C3241 H3229 0.950 . S
C3241 C3237 1.393 . S
C3241 C3240 1.391 1_655 S
C3242 H3232 0.950 . S
C3242 C3243 1.386 . S
C3242 C3244 1.391 . S
C3243 C3242 1.386 . S
C3243 C3247 1.393 . S
C3244 H3233 0.950 . S
C3244 C3242 1.391 . S
C3244 C3245 1.400 . S
C3245 C3239 1.491 . S
C3245 C3244 1.400 . S
C3245 C3246 1.398 . S
C3246 H3234 0.950 . S
C3246 C3245 1.398 . S
C3246 C3247 1.391 . S
C3247 H3235 0.950 . S
C3247 C3243 1.393 . S
C3247 C3246 1.391 . S
H3248 C3256 0.950 . S
H3249 C3261 0.950 . S
H3250 C3258 0.950 . S
H3251 C3260 0.950 . S
H3252 C3262 0.950 . S
H3253 C3264 0.950 . S
H3254 C3266 0.950 . S
H3255 C3267 0.950 . S
C3256 H3248 0.950 . S
C3256 C3257 1.386 . S
C3256 C3258 1.391 . S
C3257 C3256 1.386 . S
C3257 C3261 1.393 . S
C3258 H3250 0.950 . S
C3258 C3256 1.391 . S
C3258 C3259 1.400 . S
C3259 C3258 1.400 . S
C3259 C3260 1.398 . S
C3259 C3265 1.491 . S
C3260 H3251 0.950 . S
C3260 C3259 1.398 . S
C3260 C3261 1.391 . S
C3261 H3249 0.950 . S
C3261 C3257 1.393 . S
C3261 C3260 1.391 . S
C3262 H3252 0.950 . S
C3262 C3263 1.386 . S
C3262 C3264 1.391 . S
C3263 C3262 1.386 . S
C3263 C3267 1.393 . S
C3264 H3253 0.950 . S
C3264 C3262 1.391 . S
C3264 C3265 1.400 . S
C3265 C3259 1.491 . S
C3265 C3264 1.400 . S
C3265 C3266 1.398 . S
C3266 H3254 0.950 . S
C3266 C3265 1.398 . S
C3266 C3267 1.391 . S
C3267 H3255 0.950 . S
C3267 C3263 1.393 . S
C3267 C3266 1.391 . S
H3268 C3276 0.950 . S
H3269 C3281 0.950 . S
H3270 C3278 0.950 . S
H3271 C3280 0.950 . S
H3272 C3282 0.950 . S
H3273 C3284 0.950 . S
H3274 C3286 0.950 . S
H3275 C3287 0.950 . S
C3276 H3268 0.950 . S
C3276 C3277 1.386 . S
C3276 C3278 1.391 . S
C3277 C3276 1.386 . S
C3277 C3281 1.393 . S
C3278 H3270 0.950 . S
C3278 C3276 1.391 . S
C3278 C3279 1.400 . S
C3279 C3278 1.400 . S
C3279 C3280 1.398 . S
C3279 C3285 1.491 1_565 S
C3280 H3271 0.950 . S
C3280 C3279 1.398 . S
C3280 C3281 1.391 . S
C3281 H3269 0.950 . S
C3281 C3277 1.393 . S
C3281 C3280 1.391 . S
C3282 H3272 0.950 . S
C3282 C3283 1.386 . S
C3282 C3284 1.391 . S
C3283 C3282 1.386 . S
C3283 C3287 1.393 . S
C3284 H3273 0.950 . S
C3284 C3282 1.391 . S
C3284 C3285 1.400 . S
C3285 C3279 1.491 1_545 S
C3285 C3284 1.400 . S
C3285 C3286 1.398 . S
C3286 H3274 0.950 . S
C3286 C3285 1.398 . S
C3286 C3287 1.391 . S
C3287 H3275 0.950 . S
C3287 C3283 1.393 . S
C3287 C3286 1.391 . S
H3288 C3296 0.950 . S
H3289 C3301 0.950 . S
H3290 C3298 0.950 . S
H3291 C3300 0.950 . S
H3292 C3302 0.950 . S
H3293 C3304 0.950 . S
H3294 C3306 0.950 . S
H3295 C3307 0.950 . S
C3296 H3288 0.950 . S
C3296 C3297 1.386 . S
C3296 C3298 1.391 . S
C3297 C3296 1.386 . S
C3297 C3301 1.393 . S
C3298 H3290 0.950 . S
C3298 C3296 1.391 . S
C3298 C3299 1.400 . S
C3299 C3298 1.400 . S
C3299 C3300 1.398 . S
C3299 C3305 1.491 1_565 S
C3300 H3291 0.950 . S
C3300 C3299 1.398 . S
C3300 C3301 1.391 . S
C3301 H3289 0.950 . S
C3301 C3297 1.393 . S
C3301 C3300 1.391 . S
C3302 H3292 0.950 . S
C3302 C3303 1.386 . S
C3302 C3304 1.391 . S
C3303 C3302 1.386 . S
C3303 C3307 1.393 . S
C3304 H3293 0.950 . S
C3304 C3302 1.391 . S
C3304 C3305 1.400 . S
C3305 C3299 1.491 1_545 S
C3305 C3304 1.400 . S
C3305 C3306 1.398 . S
C3306 H3294 0.950 . S
C3306 C3305 1.398 . S
C3306 C3307 1.391 . S
C3307 H3295 0.950 . S
C3307 C3303 1.393 . S
C3307 C3306 1.391 . S
H3308 C3316 0.950 . S
H3309 C3321 0.950 . S
H3310 C3318 0.950 . S
H3311 C3320 0.950 . S
H3312 C3322 0.950 . S
H3313 C3324 0.950 . S
H3314 C3326 0.950 . S
H3315 C3327 0.950 . S
C3316 H3308 0.950 . S
C3316 C3317 1.386 . S
C3316 C3318 1.391 . S
C3317 C3316 1.386 . S
C3317 C3321 1.393 . S
C3318 H3310 0.950 . S
C3318 C3316 1.391 . S
C3318 C3319 1.400 . S
C3319 C3318 1.400 . S
C3319 C3320 1.398 . S
C3319 C3325 1.491 1_655 S
C3320 H3311 0.950 . S
C3320 C3319 1.398 . S
C3320 C3321 1.391 . S
C3321 H3309 0.950 . S
C3321 C3317 1.393 . S
C3321 C3320 1.391 . S
C3322 H3312 0.950 . S
C3322 C3323 1.386 . S
C3322 C3324 1.391 . S
C3323 C3322 1.386 . S
C3323 C3327 1.393 . S
C3324 H3313 0.950 . S
C3324 C3322 1.391 . S
C3324 C3325 1.400 . S
C3325 C3319 1.491 1_455 S
C3325 C3324 1.400 . S
C3325 C3326 1.398 . S
C3326 H3314 0.950 . S
C3326 C3325 1.398 . S
C3326 C3327 1.391 . S
C3327 H3315 0.950 . S
C3327 C3323 1.393 . S
C3327 C3326 1.391 . S
H3328 C3336 0.950 . S
H3329 C3341 0.950 . S
H3330 C3338 0.950 . S
H3331 C3340 0.950 . S
H3332 C3342 0.950 . S
H3333 C3344 0.950 . S
H3334 C3346 0.950 . S
H3335 C3347 0.950 . S
C3336 H3328 0.950 . S
C3336 C3337 1.386 . S
C3336 C3338 1.391 . S
C3337 C3336 1.386 . S
C3337 C3341 1.393 . S
C3338 H3330 0.950 . S
C3338 C3336 1.391 . S
C3338 C3339 1.400 . S
C3339 C3338 1.400 . S
C3339 C3340 1.398 . S
C3339 C3345 1.491 . S
C3340 H3331 0.950 . S
C3340 C3339 1.398 . S
C3340 C3341 1.391 . S
C3341 H3329 0.950 . S
C3341 C3337 1.393 . S
C3341 C3340 1.391 . S
C3342 H3332 0.950 . S
C3342 C3343 1.386 . S
C3342 C3344 1.391 . S
C3343 C3342 1.386 . S
C3343 C3347 1.393 . S
C3344 H3333 0.950 . S
C3344 C3342 1.391 . S
C3344 C3345 1.400 . S
C3345 C3339 1.491 . S
C3345 C3344 1.400 . S
C3345 C3346 1.398 . S
C3346 H3334 0.950 . S
C3346 C3345 1.398 . S
C3346 C3347 1.391 . S
C3347 H3335 0.950 . S
C3347 C3343 1.393 . S
C3347 C3346 1.391 . S
C1917 C39 1.504 . S
C1923 C993 1.500 . S
C1937 C82 1.417 . S
C1943 C1046 1.417 . S
C1957 C1099 1.395 . S
C1963 C145 1.395 . S
C1977 C198 1.392 . S
C1983 C1788 1.392 . S
C1997 C1841 1.418 . S
C2003 C241 1.417 . S
C2017 C304 1.509 . S
C2023 C1894 1.507 . S
C2037 C1311 1.510 . S
C2043 C357 1.508 . S
C2057 C410 1.416 . S
C2063 C1354 1.416 . S
C2077 C463 1.390 . S
C2083 C1417 1.392 . S
C2097 C516 1.391 . S
C2103 C834 1.392 . S
C2117 C877 1.418 . S
C2123 C569 1.418 . S
C2137 C622 1.497 . S
C2143 C940 1.502 . S
C2157 C675 1.505 . S
C2163 C1629 1.500 . S
C2177 C718 1.416 . S
C2183 C1682 1.416 . S
C2197 C781 1.394 . S
C2203 C1735 1.392 . S
C2217 C1152 1.395 . S
C2223 C1470 1.395 . S
C2237 C1205 1.416 . S
C2243 C1513 1.415 . S
C2257 C1258 1.505 . S
C2263 C1576 1.507 . S
C2277 C409 1.908 1_544 S
C2283 C22 1.876 . S
C2297 C462 1.895 1_655 S
C2303 C91 1.876 . S
C2317 C128 1.810 . S
C2323 C356 1.847 . S
C2337 C621 1.847 1_455 S
C2343 C181 1.810 . S
C2357 C515 1.896 . S
C2363 C250 1.878 . S
C2377 C568 1.909 1_565 S
C2383 C287 1.879 . S
C2397 C340 1.613 . S
C2403 C75 1.632 1_565 S
C2417 C393 1.690 . S
C2423 C144 1.700 1_455 S
C2437 C446 1.726 . S
C2443 C38 1.740 . S
C2457 C499 1.708 . S
C2463 C303 1.727 1_655 S
C2477 C197 1.707 . S
C2483 C552 1.698 . S
C2497 C234 1.628 1_545 S
C2503 C605 1.608 . S
C2517 C658 1.883 . S
C2523 C1045 1.911 . S
C2537 C727 1.882 . S
C2543 C1098 1.897 . S
C2557 C764 1.824 . S
C2563 C992 1.854 . S
C2577 C1257 1.846 . S
C2583 C817 1.809 . S
C2597 C886 1.873 . S
C2603 C1151 1.894 . S
C2617 C1204 1.913 . S
C2623 C923 1.881 . S
C2637 C976 1.612 . S
C2643 C711 1.627 . S
C2657 C780 1.708 . S
C2663 C1029 1.700 . S
C2677 C674 1.737 . S
C2683 C1082 1.721 . S
C2697 C1135 1.725 . S
C2703 C939 1.739 . S
C2717 C1188 1.700 . S
C2723 C833 1.706 . S
C2737 C1241 1.617 . S
C2743 C870 1.628 . S
C2757 C1681 1.908 . S
C2763 C1294 1.874 . S
C2777 C1363 1.883 . S
C2783 C1734 1.897 . S
C2797 C1400 1.813 . S
C2803 C1628 1.849 . S
C2817 C1893 1.854 . S
C2823 C1453 1.823 . S
C2837 C1787 1.895 . S
C2843 C1522 1.880 . S
C2857 C1840 1.912 . S
C2863 C1559 1.880 . S
C2877 C1347 1.631 . S
C2883 C1612 1.610 . S
C2897 C1416 1.709 . S
C2903 C1665 1.701 . S
C2917 C1310 1.729 . S
C2923 C1718 1.711 . S
C2937 C1771 1.723 . S
C2943 C1575 1.738 . S
C2957 C1469 1.710 . S
C2963 C1824 1.703 . S
C2977 C1877 1.617 . S
C2983 C1506 1.634 . S
C2997 C29 2.120 . S
C3003 C1566 2.126 . S
C3017 C1460 2.059 . S
C3023 C92 2.063 . S
C3037 C135 2.051 1_455 S
C3043 C1523 2.068 . S
C3057 C188 2.058 . S
C3063 C728 2.068 . S
C3077 C771 2.046 . S
C3083 C251 2.063 . S
C3097 C294 2.118 1_655 S
C3103 C665 2.121 . S
C3117 C1248 1.645 . S
C3123 C347 1.654 . S
C3137 C400 1.611 1_545 S
C3143 C1142 1.602 . S
C3157 C453 1.606 1_655 S
C3163 C1195 1.611 . S
C3177 C506 1.617 . S
C3183 C1672 1.619 . S
C3197 C559 1.611 1_565 S
C3203 C1725 1.605 . S
C3217 C1619 1.651 . S
C3223 C612 1.643 1_455 S
C3237 C824 2.053 . S
C3243 C1364 2.058 . S
C3257 C1407 2.048 . S
C3263 C887 2.056 . S
C3277 C1301 2.132 . S
C3283 C930 2.129 . S
C3297 C1884 1.659 . S
C3303 C983 1.651 . S
C3317 C1036 1.611 . S
C3323 C1778 1.607 . S
C3337 C1089 1.615 . S
C3343 C1831 1.625 . S
