# Generated by pormake.
# Topology wgb, (5)-cn, num edge types: 1
# Building blocks:
#     Node 0, Type 0, BuildingBlock: XOMCOT_clean_sbu_1, # of connection points: 5
#     Node 1, Type 0, BuildingBlock: XOMCOT_clean_sbu_1, # of connection points: 5
#     Node 2, Type 0, BuildingBlock: XOMCOT_clean_sbu_1, # of connection points: 5
#     Node 3, Type 0, BuildingBlock: XOMCOT_clean_sbu_1, # of connection points: 5
#     Node 4, Type 0, BuildingBlock: XOMCOT_clean_sbu_1, # of connection points: 5
#     Node 5, Type 0, BuildingBlock: XOMCOT_clean_sbu_1, # of connection points: 5
#     Node 6, Type 0, BuildingBlock: XOMCOT_clean_sbu_1, # of connection points: 5
#     Node 7, Type 0, BuildingBlock: XOMCOT_clean_sbu_1, # of connection points: 5
#     Node 8, Type 0, BuildingBlock: XOMCOT_clean_sbu_1, # of connection points: 5
#     Node 9, Type 0, BuildingBlock: XOMCOT_clean_sbu_1, # of connection points: 5
#     Node 10, Type 0, BuildingBlock: XOMCOT_clean_sbu_1, # of connection points: 5
#     Node 11, Type 0, BuildingBlock: XOMCOT_clean_sbu_1, # of connection points: 5
#     Node 12, Type 0, BuildingBlock: XOMCOT_clean_sbu_1, # of connection points: 5
#     Node 13, Type 0, BuildingBlock: XOMCOT_clean_sbu_1, # of connection points: 5
#     Node 14, Type 0, BuildingBlock: XOMCOT_clean_sbu_1, # of connection points: 5
#     Node 15, Type 0, BuildingBlock: XOMCOT_clean_sbu_1, # of connection points: 5
#     Edge 16, Type (0, 0), BuildingBlock: XUDNAN_clean_linker_2, # of connection points: 2
#     Edge 17, Type (0, 0), BuildingBlock: XUDNAN_clean_linker_2, # of connection points: 2
#     Edge 18, Type (0, 0), BuildingBlock: XUDNAN_clean_linker_2, # of connection points: 2
#     Edge 19, Type (0, 0), BuildingBlock: XUDNAN_clean_linker_2, # of connection points: 2
#     Edge 20, Type (0, 0), BuildingBlock: XUDNAN_clean_linker_2, # of connection points: 2
#     Edge 21, Type (0, 0), BuildingBlock: XUDNAN_clean_linker_2, # of connection points: 2
#     Edge 22, Type (0, 0), BuildingBlock: XUDNAN_clean_linker_2, # of connection points: 2
#     Edge 23, Type (0, 0), BuildingBlock: XUDNAN_clean_linker_2, # of connection points: 2
#     Edge 24, Type (0, 0), BuildingBlock: XUDNAN_clean_linker_2, # of connection points: 2
#     Edge 25, Type (0, 0), BuildingBlock: XUDNAN_clean_linker_2, # of connection points: 2
#     Edge 26, Type (0, 0), BuildingBlock: XUDNAN_clean_linker_2, # of connection points: 2
#     Edge 27, Type (0, 0), BuildingBlock: XUDNAN_clean_linker_2, # of connection points: 2
#     Edge 28, Type (0, 0), BuildingBlock: XUDNAN_clean_linker_2, # of connection points: 2
#     Edge 29, Type (0, 0), BuildingBlock: XUDNAN_clean_linker_2, # of connection points: 2
#     Edge 30, Type (0, 0), BuildingBlock: XUDNAN_clean_linker_2, # of connection points: 2
#     Edge 31, Type (0, 0), BuildingBlock: XUDNAN_clean_linker_2, # of connection points: 2
#     Edge 32, Type (0, 0), BuildingBlock: XUDNAN_clean_linker_2, # of connection points: 2
#     Edge 33, Type (0, 0), BuildingBlock: XUDNAN_clean_linker_2, # of connection points: 2
#     Edge 34, Type (0, 0), BuildingBlock: XUDNAN_clean_linker_2, # of connection points: 2
#     Edge 35, Type (0, 0), BuildingBlock: XUDNAN_clean_linker_2, # of connection points: 2
#     Edge 36, Type (0, 0), BuildingBlock: XUDNAN_clean_linker_2, # of connection points: 2
#     Edge 37, Type (0, 0), BuildingBlock: XUDNAN_clean_linker_2, # of connection points: 2
#     Edge 38, Type (0, 0), BuildingBlock: XUDNAN_clean_linker_2, # of connection points: 2
#     Edge 39, Type (0, 0), BuildingBlock: XUDNAN_clean_linker_2, # of connection points: 2
#     Edge 40, Type (0, 0), BuildingBlock: XUDNAN_clean_linker_2, # of connection points: 2
#     Edge 41, Type (0, 0), BuildingBlock: XUDNAN_clean_linker_2, # of connection points: 2
#     Edge 42, Type (0, 0), BuildingBlock: XUDNAN_clean_linker_2, # of connection points: 2
#     Edge 43, Type (0, 0), BuildingBlock: XUDNAN_clean_linker_2, # of connection points: 2
#     Edge 44, Type (0, 0), BuildingBlock: XUDNAN_clean_linker_2, # of connection points: 2
#     Edge 45, Type (0, 0), BuildingBlock: XUDNAN_clean_linker_2, # of connection points: 2
#     Edge 46, Type (0, 0), BuildingBlock: XUDNAN_clean_linker_2, # of connection points: 2
#     Edge 47, Type (0, 0), BuildingBlock: XUDNAN_clean_linker_2, # of connection points: 2
#     Edge 48, Type (0, 0), BuildingBlock: XUDNAN_clean_linker_2, # of connection points: 2
#     Edge 49, Type (0, 0), BuildingBlock: XUDNAN_clean_linker_2, # of connection points: 2
#     Edge 50, Type (0, 0), BuildingBlock: XUDNAN_clean_linker_2, # of connection points: 2
#     Edge 51, Type (0, 0), BuildingBlock: XUDNAN_clean_linker_2, # of connection points: 2
#     Edge 52, Type (0, 0), BuildingBlock: XUDNAN_clean_linker_2, # of connection points: 2
#     Edge 53, Type (0, 0), BuildingBlock: XUDNAN_clean_linker_2, # of connection points: 2
#     Edge 54, Type (0, 0), BuildingBlock: XUDNAN_clean_linker_2, # of connection points: 2
#     Edge 55, Type (0, 0), BuildingBlock: XUDNAN_clean_linker_2, # of connection points: 2
# Relax obj value: 0.106
# Max RMSD: 0.129
# Mean RMSD: 0.129
data_MOF--net-wgb--node1-XOMCOT_clean_sbu_1--edge1-XUDNAN_clean_linker_2
_symmetry_space_group_name_H-M    P1
_symmetry_Int_Tables_number       1
_symmetry_cell_setting            triclinic
loop_
_symmetry_equiv_pos_as_xyz
'x, y, z'
_cell_length_a     58.447625
_cell_length_b     58.560482
_cell_length_c     26.427885
_cell_angle_alpha  89.924265
_cell_angle_beta   90.030676
_cell_angle_gamma 90.120757
loop_
_atom_site_label
_atom_site_type_symbol
_atom_site_fract_x
_atom_site_fract_y
_atom_site_fract_z
_atom_type_partial_charge
C0 C 0.37648 0.08262 0.12398 0.0
C1 C 0.38294 0.06016 0.12254 0.0
N2 N 0.37383 0.04936 0.16286 0.0
N3 N 0.36346 0.08629 0.16516 0.0
C4 C 0.36214 0.06569 0.18842 0.0
H5 H 0.38059 0.09546 0.09597 0.0
Co6 Co 0.3504 0.11485 0.17598 0.0
C7 C 0.32933 0.1111 0.27647 0.0
O8 O 0.34238 0.12807 0.29153 0.0
N9 N 0.33733 0.14408 0.18483 0.0
C10 C 0.31162 0.17214 0.1872 0.0
C11 C 0.31477 0.14884 0.18885 0.0
C12 C 0.34752 0.16482 0.18155 0.0
N13 N 0.33228 0.18206 0.1829 0.0
O14 O 0.37533 0.12258 0.22022 0.0
H15 H 0.30134 0.13613 0.19078 0.0
H16 H 0.3656 0.16747 0.17568 0.0
O17 O 0.33164 0.10328 0.2317 0.0
C18 C 0.39178 0.13105 0.19463 0.0
O19 O 0.38923 0.13338 0.14548 0.0
N20 N 0.32774 0.10759 0.1294 0.0
C21 C 0.29806 0.09769 0.04988 0.0
C22 C 0.29622 0.08609 0.09629 0.0
C23 C 0.31149 0.09105 0.13542 0.0
C24 C 0.32993 0.11893 0.08474 0.0
C25 C 0.31531 0.11424 0.04444 0.0
H26 H 0.31053 0.08122 0.16989 0.0
H27 H 0.34344 0.13142 0.08021 0.0
H28 H 0.35224 0.06256 0.22231 0.0
H29 H 0.39355 0.05242 0.09376 0.0
H30 H 0.29544 0.1811 0.18818 0.0
H31 H 0.28319 0.07321 0.10241 0.0
H32 H 0.31796 0.12317 0.00902 0.0
C33 C 0.08735 0.63496 0.89943 0.0
C34 C 0.06478 0.62854 0.89994 0.0
N35 N 0.05437 0.63783 0.85935 0.0
N36 N 0.09132 0.64831 0.85885 0.0
C37 C 0.07094 0.64966 0.83472 0.0
H38 H 0.10016 0.63031 0.92711 0.0
Co39 Co 0.12022 0.66052 0.84695 0.0
C40 C 0.10852 0.70597 0.80246 0.0
O41 O 0.12017 0.71596 0.83878 0.0
N42 N 0.15028 0.67149 0.83531 0.0
C43 C 0.18202 0.68748 0.80438 0.0
C44 C 0.15859 0.68638 0.80062 0.0
C45 C 0.16932 0.66268 0.85706 0.0
N46 N 0.18872 0.67253 0.83997 0.0
O47 O 0.12417 0.63996 0.79167 0.0
H48 H 0.14873 0.69515 0.7722 0.0
H49 H 0.16905 0.64891 0.88435 0.0
O50 O 0.10734 0.68409 0.80056 0.0
C51 C 0.13116 0.62053 0.80694 0.0
O52 O 0.13461 0.61755 0.85564 0.0
N53 N 0.11642 0.67912 0.9052 0.0
C54 C 0.10872 0.69865 1.00017 0.0
C55 C 0.09326 0.70221 0.96046 0.0
C56 C 0.0971 0.69177 0.91364 0.0
C57 C 0.13125 0.67518 0.94409 0.0
C58 C 0.12794 0.68502 0.99146 0.0
H59 H 0.08414 0.69328 0.88467 0.0
H60 H 0.14499 0.66322 0.93995 0.0
H61 H 0.06823 0.65939 0.80041 0.0
H62 H 0.05676 0.6176 0.9278 0.0
H63 H 0.19334 0.6978 0.78132 0.0
H64 H 0.07781 0.71205 0.96623 0.0
H65 H 0.14005 0.68146 0.0215 0.0
C66 C 0.63663 0.93225 0.12 0.0
C67 C 0.63406 0.95543 0.11665 0.0
N68 N 0.64548 0.96512 0.15533 0.0
N69 N 0.64984 0.92717 0.16024 0.0
C70 C 0.65482 0.94757 0.18161 0.0
H71 H 0.629 0.91976 0.09505 0.0
Co72 Co 0.65632 0.89705 0.17609 0.0
C73 C 0.70105 0.89671 0.22938 0.0
O74 O 0.70678 0.8794 0.20042 0.0
N75 N 0.66154 0.86602 0.19164 0.0
C76 C 0.66653 0.83384 0.23555 0.0
C77 C 0.66572 0.85729 0.23818 0.0
C78 C 0.65879 0.8474 0.16198 0.0
N79 N 0.662 0.82777 0.1876 0.0
O80 O 0.6345 0.89818 0.22993 0.0
H81 H 0.66759 0.86734 0.27225 0.0
H82 H 0.65397 0.84788 0.12263 0.0
O83 O 0.68149 0.9063 0.22302 0.0
C84 C 0.61542 0.89011 0.21468 0.0
O85 O 0.61402 0.88268 0.16786 0.0
N86 N 0.67566 0.89598 0.11901 0.0
C87 C 0.69607 0.89595 0.02296 0.0
C88 C 0.70706 0.90618 0.06463 0.0
C89 C 0.69618 0.90675 0.11189 0.0
C90 C 0.66435 0.88703 0.07859 0.0
C91 C 0.67415 0.88674 0.03064 0.0
H92 H 0.70404 0.91648 0.14185 0.0
H93 H 0.64698 0.88101 0.08314 0.0
H94 H 0.66494 0.94953 0.21564 0.0
H95 H 0.62389 0.96443 0.08882 0.0
H96 H 0.66935 0.82214 0.26667 0.0
H97 H 0.72374 0.91404 0.06097 0.0
H98 H 0.66411 0.87999 0.99966 0.0
C99 C 0.94193 0.36259 0.90913 0.0
C100 C 0.96387 0.37085 0.90777 0.0
N101 N 0.96967 0.3745 0.85914 0.0
N102 N 0.9338 0.36049 0.86152 0.0
C103 C 0.95104 0.36829 0.83187 0.0
H104 H 0.93243 0.35881 0.94318 0.0
Co105 Co 0.90355 0.35224 0.84535 0.0
C106 C 0.93028 0.31822 0.77732 0.0
O107 O 0.95108 0.32266 0.79332 0.0
N108 N 0.87323 0.34441 0.83062 0.0
C109 C 0.84223 0.32282 0.82245 0.0
C110 C 0.86562 0.32284 0.82455 0.0
C111 C 0.85402 0.35723 0.83275 0.0
N112 N 0.83479 0.34446 0.82779 0.0
O113 O 0.90318 0.37479 0.79299 0.0
H114 H 0.87627 0.30781 0.82603 0.0
H115 H 0.85413 0.37536 0.84036 0.0
O116 O 0.91315 0.32872 0.79642 0.0
C117 C 0.89803 0.39455 0.80966 0.0
O118 O 0.89399 0.3969 0.8583 0.0
N119 N 0.90285 0.3317 0.89944 0.0
C120 C 0.89706 0.30695 0.98853 0.0
C121 C 0.912 0.2991 0.95068 0.0
C122 C 0.91463 0.3118 0.90592 0.0
C123 C 0.88886 0.33976 0.93646 0.0
C124 C 0.8856 0.32763 0.98103 0.0
H125 H 0.92618 0.30578 0.87707 0.0
H126 H 0.88021 0.3559 0.93121 0.0
H127 H 0.94976 0.36981 0.79115 0.0
H128 H 0.97472 0.37385 0.94029 0.0
H129 H 0.83159 0.3077 0.82111 0.0
H130 H 0.92125 0.28323 0.95537 0.0
H131 H 0.87435 0.33456 0.0097 0.0
C132 C 0.34458 0.4557 0.12035 0.0
C133 C 0.35051 0.47807 0.11125 0.0
N134 N 0.35776 0.47986 0.06305 0.0
N135 N 0.34779 0.44326 0.07795 0.0
C136 C 0.35566 0.45855 0.04363 0.0
H137 H 0.3396 0.44887 0.15668 0.0
Co138 Co 0.34723 0.41117 0.07143 0.0
C139 C 0.31127 0.40098 0.99485 0.0
O140 O 0.30558 0.38281 0.02128 0.0
N141 N 0.34781 0.37884 0.06471 0.0
C142 C 0.35173 0.34465 0.02842 0.0
C143 C 0.3518 0.36786 0.02054 0.0
C144 C 0.34653 0.36174 0.09933 0.0
N145 N 0.34848 0.34089 0.07803 0.0
O146 O 0.37439 0.41241 0.03097 0.0
H147 H 0.3545 0.37626 0.98455 0.0
H148 H 0.34441 0.36419 0.13948 0.0
O149 O 0.32733 0.41415 0.01063 0.0
C150 C 0.39177 0.41423 0.05981 0.0
O151 O 0.38837 0.41627 0.10876 0.0
N152 N 0.32208 0.4098 0.11579 0.0
C153 C 0.29006 0.40662 0.19333 0.0
C154 C 0.28339 0.41378 0.14495 0.0
C155 C 0.29989 0.416 0.10687 0.0
C156 C 0.32889 0.4042 0.16354 0.0
C157 C 0.31316 0.40235 0.20286 0.0
H158 H 0.29474 0.42302 0.07093 0.0
H159 H 0.34683 0.40122 0.17108 0.0
H160 H 0.36081 0.45384 0.00575 0.0
H161 H 0.35096 0.49159 0.13911 0.0
H162 H 0.35443 0.33154 1.0002 0.0
H163 H 0.2657 0.41796 0.137 0.0
H164 H 0.31893 0.39727 0.24017 0.0
C165 C 0.45486 0.66953 0.86589 0.0
C166 C 0.47669 0.66115 0.86301 0.0
N167 N 0.48233 0.65228 0.90831 0.0
N168 N 0.44659 0.66645 0.91313 0.0
C169 C 0.4637 0.65549 0.93793 0.0
H170 H 0.44554 0.67699 0.83471 0.0
Co171 Co 0.41622 0.67296 0.93324 0.0
C172 C 0.44457 0.70094 0.00868 0.0
O173 O 0.46384 0.69875 0.98369 0.0
N174 N 0.38606 0.67895 0.95155 0.0
C175 C 0.35443 0.69757 0.97261 0.0
C176 C 0.37792 0.69806 0.97359 0.0
C177 C 0.36724 0.66704 0.93776 0.0
N178 N 0.34775 0.67811 0.94987 0.0
O179 O 0.41555 0.64555 0.97357 0.0
H180 H 0.3883 0.71219 0.98655 0.0
H181 H 0.36784 0.65143 0.91594 0.0
O182 O 0.42631 0.69151 0.99184 0.0
C183 C 0.41325 0.62827 0.9446 0.0
O184 O 0.41265 0.63163 0.89543 0.0
N185 N 0.41536 0.69836 0.88961 0.0
C186 C 0.41243 0.72989 0.81031 0.0
C187 C 0.42574 0.73456 0.85343 0.0
C188 C 0.42698 0.71856 0.89279 0.0
C189 C 0.40203 0.69378 0.8485 0.0
C190 C 0.40022 0.70927 0.80868 0.0
H191 H 0.43777 0.72234 0.92459 0.0
H192 H 0.39317 0.67758 0.84606 0.0
H193 H 0.46238 0.64973 0.97675 0.0
H194 H 0.4876 0.66169 0.82996 0.0
H195 H 0.34312 0.71094 0.9857 0.0
H196 H 0.43566 0.75015 0.8562 0.0
H197 H 0.38939 0.70502 0.77678 0.0
C198 C 0.66535 0.56029 0.13207 0.0
C199 C 0.65775 0.5384 0.12286 0.0
N200 N 0.6549 0.536 0.07259 0.0
N201 N 0.66753 0.57151 0.0877 0.0
C202 C 0.66106 0.55627 0.05222 0.0
H203 H 0.66835 0.56774 0.16889 0.0
Co204 Co 0.67481 0.60212 0.07784 0.0
C205 C 0.69685 0.6013 0.97835 0.0
O206 O 0.68093 0.61557 0.96325 0.0
N207 N 0.6821 0.63291 0.06864 0.0
C208 C 0.70255 0.66488 0.06448 0.0
C209 C 0.70321 0.64154 0.06008 0.0
C210 C 0.66887 0.65132 0.07787 0.0
N211 N 0.68096 0.67095 0.07567 0.0
O212 O 0.64984 0.60475 0.03095 0.0
H213 H 0.71841 0.63143 0.05391 0.0
H214 H 0.65115 0.65031 0.08942 0.0
O215 O 0.69641 0.59379 0.02383 0.0
C216 C 0.63047 0.60833 0.05157 0.0
O217 O 0.62939 0.60945 0.10118 0.0
N218 N 0.69746 0.60032 0.12719 0.0
C219 C 0.72786 0.60485 0.20727 0.0
C220 C 0.73368 0.59151 0.16513 0.0
C221 C 0.71809 0.58946 0.12494 0.0
C222 C 0.69119 0.61221 0.16915 0.0
C223 C 0.70623 0.61492 0.20939 0.0
H224 H 0.7227 0.57957 0.09202 0.0
H225 H 0.67456 0.62025 0.17052 0.0
H226 H 0.66035 0.5602 0.01222 0.0
H227 H 0.65359 0.52565 0.1511 0.0
H228 H 0.71695 0.67647 0.06147 0.0
H229 H 0.7503 0.58344 0.16264 0.0
H230 H 0.70115 0.62515 0.24161 0.0
C231 C 0.56224 0.35569 0.85827 0.0
C232 C 0.54045 0.36328 0.86833 0.0
N233 N 0.53841 0.3661 0.91869 0.0
N234 N 0.57383 0.35345 0.90215 0.0
C235 C 0.55886 0.35992 0.93827 0.0
H236 H 0.5694 0.35282 0.82111 0.0
Co237 Co 0.60482 0.34642 0.90994 0.0
C238 C 0.60507 0.32502 0.01008 0.0
O239 O 0.61915 0.34124 0.02467 0.0
N240 N 0.6358 0.33936 0.9172 0.0
C241 C 0.6678 0.31908 0.92091 0.0
C242 C 0.64446 0.31839 0.92619 0.0
C243 C 0.65421 0.35257 0.90676 0.0
N244 N 0.67387 0.34055 0.90857 0.0
O245 O 0.60825 0.37201 0.95463 0.0
H246 H 0.63434 0.30324 0.9334 0.0
H247 H 0.65311 0.37021 0.89477 0.0
O248 O 0.59728 0.32524 0.9649 0.0
C249 C 0.60906 0.38978 0.92677 0.0
O250 O 0.60796 0.38716 0.87742 0.0
N251 N 0.6021 0.3236 0.86166 0.0
C252 C 0.59628 0.29868 0.77333 0.0
C253 C 0.58581 0.29144 0.81846 0.0
C254 C 0.58883 0.30439 0.86271 0.0
C255 C 0.61312 0.33012 0.81868 0.0
C256 C 0.61058 0.31785 0.77425 0.0
H257 H 0.57965 0.29973 0.89668 0.0
H258 H 0.6231 0.34569 0.8184 0.0
H259 H 0.56316 0.36069 0.97807 0.0
H260 H 0.52752 0.36749 0.84053 0.0
H261 H 0.67937 0.30474 0.92411 0.0
H262 H 0.57454 0.27674 0.81883 0.0
H263 H 0.61908 0.32383 0.74028 0.0
C264 C 0.87554 0.57578 0.60228 0.0
C265 C 0.88071 0.55302 0.60107 0.0
N266 N 0.87751 0.54413 0.64768 0.0
N267 N 0.86853 0.58152 0.64906 0.0
C268 C 0.87003 0.56193 0.67616 0.0
H269 H 0.87733 0.58753 0.57099 0.0
Co270 Co 0.86196 0.61163 0.66717 0.0
C271 C 0.81767 0.60994 0.72109 0.0
O272 O 0.81117 0.62694 0.69191 0.0
N273 N 0.85656 0.64256 0.68556 0.0
C274 C 0.85009 0.67347 0.73294 0.0
C275 C 0.85143 0.65001 0.73271 0.0
C276 C 0.85961 0.66208 0.65875 0.0
N277 N 0.85537 0.68094 0.68636 0.0
O278 O 0.88439 0.61015 0.71946 0.0
H279 H 0.84922 0.6391 0.76539 0.0
H280 H 0.86538 0.66289 0.62011 0.0
O281 O 0.83767 0.60131 0.71506 0.0
C282 C 0.90397 0.61598 0.70258 0.0
O283 O 0.90583 0.62108 0.6543 0.0
N284 N 0.84147 0.61327 0.61181 0.0
C285 C 0.8174 0.61571 0.52057 0.0
C286 C 0.80969 0.60154 0.55994 0.0
C287 C 0.8223 0.60016 0.60498 0.0
C288 C 0.85011 0.6254 0.57217 0.0
C289 C 0.83815 0.62734 0.52685 0.0
H290 H 0.81691 0.58815 0.63364 0.0
H291 H 0.8671 0.63255 0.57465 0.0
H292 H 0.86648 0.56104 0.71627 0.0
H293 H 0.88663 0.54397 0.56799 0.0
H294 H 0.84638 0.68424 0.76517 0.0
H295 H 0.79417 0.59158 0.55595 0.0
H296 H 0.84553 0.63728 0.49632 0.0
C297 C 0.57607 0.14235 0.37389 0.0
C298 C 0.55273 0.14013 0.36899 0.0
N299 N 0.5464 0.14993 0.32501 0.0
N300 N 0.58442 0.1535 0.33326 0.0
C301 C 0.56599 0.15776 0.30393 0.0
H302 H 0.58635 0.13647 0.40534 0.0
Co303 Co 0.61517 0.16044 0.32425 0.0
C304 C 0.6159 0.20322 0.26518 0.0
O305 O 0.63084 0.2107 0.29852 0.0
N306 N 0.64684 0.16598 0.31451 0.0
C307 C 0.67951 0.16729 0.27089 0.0
C308 C 0.65621 0.16943 0.26825 0.0
C309 C 0.66508 0.16092 0.34428 0.0
N310 N 0.68506 0.16192 0.3187 0.0
O311 O 0.6175 0.13646 0.276 0.0
H312 H 0.64666 0.17151 0.23354 0.0
H313 H 0.66386 0.15421 0.3822 0.0
O314 O 0.60773 0.18295 0.2699 0.0
C315 C 0.62311 0.11749 0.29605 0.0
O316 O 0.62577 0.11657 0.3454 0.0
N317 N 0.61234 0.18305 0.37518 0.0
C318 C 0.60418 0.21231 0.45703 0.0
C319 C 0.5914 0.21411 0.41228 0.0
C320 C 0.59556 0.19925 0.37223 0.0
C321 C 0.6239 0.18011 0.41953 0.0
C322 C 0.62059 0.1949 0.46036 0.0
H323 H 0.58459 0.20033 0.33944 0.0
H324 H 0.63489 0.16561 0.42466 0.0
H325 H 0.56692 0.16637 0.26776 0.0
H326 H 0.54127 0.13238 0.39624 0.0
H327 H 0.69138 0.16838 0.23952 0.0
H328 H 0.5777 0.22641 0.40855 0.0
H329 H 0.6306 0.1924 0.49437 0.0
C330 C 0.14547 0.44215 0.59501 0.0
C331 C 0.14398 0.46549 0.59429 0.0
N332 N 0.1527 0.47362 0.6379 0.0
N333 N 0.15533 0.43538 0.63857 0.0
C334 C 0.1594 0.45493 0.66432 0.0
H335 H 0.13893 0.43075 0.56628 0.0
Co336 Co 0.15823 0.40475 0.65577 0.0
C337 C 0.20126 0.39987 0.71404 0.0
O338 O 0.20538 0.38131 0.68766 0.0
N339 N 0.15987 0.37337 0.67303 0.0
C340 C 0.16093 0.34165 0.71984 0.0
C341 C 0.16109 0.36513 0.72084 0.0
C342 C 0.15791 0.35444 0.64394 0.0
N343 N 0.1588 0.33505 0.67141 0.0
O344 O 0.13589 0.40862 0.70768 0.0
H345 H 0.162 0.37558 0.75449 0.0
H346 H 0.15571 0.35452 0.60346 0.0
O347 O 0.18338 0.4118 0.7043 0.0
C348 C 0.1162 0.40283 0.69129 0.0
O349 O 0.1144 0.39611 0.64401 0.0
N350 N 0.17835 0.40104 0.6008 0.0
C351 C 0.20092 0.39692 0.50784 0.0
C352 C 0.21195 0.40673 0.54989 0.0
C353 C 0.20011 0.40929 0.59563 0.0
C354 C 0.1671 0.3926 0.55976 0.0
C355 C 0.17798 0.39025 0.5133 0.0
H356 H 0.20833 0.41847 0.62597 0.0
H357 H 0.14914 0.38833 0.56282 0.0
H358 H 0.16661 0.45538 0.70203 0.0
H359 H 0.136 0.47559 0.56487 0.0
H360 H 0.16175 0.33031 0.75217 0.0
H361 H 0.22947 0.41266 0.5476 0.0
H362 H 0.16814 0.38386 0.48162 0.0
C363 C 0.43047 0.86843 0.40646 0.0
C364 C 0.45314 0.87426 0.41009 0.0
N365 N 0.46317 0.87073 0.36481 0.0
N366 N 0.42604 0.86081 0.3594 0.0
C367 C 0.44624 0.86251 0.33471 0.0
H368 H 0.4179 0.87011 0.43618 0.0
Co369 Co 0.39695 0.85278 0.33615 0.0
C370 C 0.40243 0.81038 0.27658 0.0
O371 O 0.38408 0.80247 0.29941 0.0
N372 N 0.36719 0.84563 0.31195 0.0
C373 C 0.33892 0.84107 0.25614 0.0
C374 C 0.36184 0.84546 0.26217 0.0
C375 C 0.34692 0.84164 0.33537 0.0
N376 N 0.32951 0.83871 0.30229 0.0
O377 O 0.39886 0.87648 0.28627 0.0
H378 H 0.37389 0.84854 0.23186 0.0
H379 H 0.34464 0.84089 0.37575 0.0
O380 O 0.41025 0.83016 0.28854 0.0
C381 C 0.39216 0.89549 0.30447 0.0
O382 O 0.38583 0.89611 0.35216 0.0
N383 N 0.39486 0.83149 0.38944 0.0
C384 C 0.39735 0.81148 0.48549 0.0
C385 C 0.41028 0.8028 0.44508 0.0
C386 C 0.40911 0.81333 0.39742 0.0
C387 C 0.38211 0.83988 0.4283 0.0
C388 C 0.38265 0.82986 0.47605 0.0
H389 H 0.421 0.808 0.36855 0.0
H390 H 0.37279 0.85565 0.42329 0.0
H391 H 0.4482 0.85855 0.29499 0.0
H392 H 0.46141 0.88075 0.44374 0.0
H393 H 0.3298 0.84034 0.22052 0.0
H394 H 0.42238 0.78908 0.45108 0.0
H395 H 0.37244 0.83726 0.50602 0.0
C396 C 0.85131 0.95225 0.63951 0.0
C397 C 0.85911 0.97392 0.62935 0.0
N398 N 0.86224 0.9759 0.57906 0.0
N399 N 0.84922 0.94054 0.59582 0.0
C400 C 0.85613 0.95537 0.55961 0.0
H401 H 0.84812 0.9453 0.67673 0.0
Co402 Co 0.84119 0.9097 0.59009 0.0
C403 C 0.82253 0.9071 0.48667 0.0
O404 O 0.83767 0.8912 0.47655 0.0
N405 N 0.83319 0.87868 0.58547 0.0
C406 C 0.81265 0.8467 0.58103 0.0
C407 C 0.81221 0.87004 0.57546 0.0
C408 C 0.84609 0.86022 0.59682 0.0
N409 N 0.83399 0.8406 0.59434 0.0
O410 O 0.8683 0.90424 0.55048 0.0
H411 H 0.79734 0.88012 0.56593 0.0
H412 H 0.86375 0.86109 0.60879 0.0
O413 O 0.82259 0.91653 0.53024 0.0
C414 C 0.88478 0.90097 0.58131 0.0
O415 O 0.88075 0.90352 0.62991 0.0
N416 N 0.81637 0.91418 0.63323 0.0
C417 C 0.7828 0.91379 0.70751 0.0
C418 C 0.77778 0.92185 0.65877 0.0
C419 C 0.79505 0.92224 0.62198 0.0
C420 C 0.82148 0.90669 0.6807 0.0
C421 C 0.805 0.90658 0.71862 0.0
H422 H 0.79102 0.9283 0.58445 0.0
H423 H 0.83845 0.9003 0.6887 0.0
H424 H 0.85703 0.95101 0.51988 0.0
H425 H 0.86313 0.98688 0.65716 0.0
H426 H 0.79838 0.8351 0.57596 0.0
H427 H 0.76065 0.92739 0.64913 0.0
H428 H 0.80931 0.90002 0.75578 0.0
C429 C 0.94656 0.16956 0.36559 0.0
C430 C 0.96915 0.16357 0.362 0.0
N431 N 0.97604 0.1556 0.40726 0.0
N432 N 0.93905 0.16589 0.41326 0.0
C433 C 0.95741 0.15698 0.43759 0.0
H434 H 0.93617 0.1756 0.33455 0.0
Co435 Co 0.90819 0.16866 0.43346 0.0
C436 C 0.93254 0.19897 0.51248 0.0
O437 O 0.95286 0.19855 0.4914 0.0
N438 N 0.87741 0.17093 0.45172 0.0
C439 C 0.84345 0.18584 0.46921 0.0
C440 C 0.86669 0.18929 0.47118 0.0
C441 C 0.86038 0.15658 0.43811 0.0
N442 N 0.8394 0.16532 0.44785 0.0
O443 O 0.91068 0.14126 0.47331 0.0
H444 H 0.87504 0.2051 0.48138 0.0
H445 H 0.86338 0.14077 0.41814 0.0
O446 O 0.91584 0.18812 0.49216 0.0
C447 C 0.9102 0.12399 0.44388 0.0
O448 O 0.90947 0.12761 0.3948 0.0
N449 N 0.90445 0.19383 0.39048 0.0
C450 C 0.89713 0.22476 0.31214 0.0
C451 C 0.91181 0.23036 0.35233 0.0
C452 C 0.91514 0.21459 0.39172 0.0
C453 C 0.89046 0.18818 0.35117 0.0
C454 C 0.8863 0.20346 0.31209 0.0
H455 H 0.92682 0.21881 0.42184 0.0
H456 H 0.88291 0.17133 0.34951 0.0
H457 H 0.95693 0.1511 0.47642 0.0
H458 H 0.97964 0.16495 0.32841 0.0
H459 H 0.8306 0.19844 0.47842 0.0
H460 H 0.9206 0.24665 0.35313 0.0
H461 H 0.87523 0.19838 0.28118 0.0
C462 C 0.14017 0.07303 0.63604 0.0
C463 C 0.13389 0.05052 0.6362 0.0
N464 N 0.14328 0.04037 0.59556 0.0
N465 N 0.15355 0.07728 0.5956 0.0
C466 C 0.15496 0.05705 0.57096 0.0
H467 H 0.13584 0.08551 0.66458 0.0
Co468 Co 0.16626 0.10634 0.58819 0.0
C469 C 0.21112 0.09264 0.53811 0.0
O470 O 0.22237 0.09413 0.5809 0.0
N471 N 0.17804 0.13648 0.58181 0.0
C472 C 0.20038 0.16739 0.58404 0.0
C473 C 0.19996 0.14399 0.58215 0.0
C474 C 0.16551 0.15593 0.58317 0.0
N475 N 0.1787 0.17485 0.58474 0.0
O476 O 0.14486 0.11232 0.53471 0.0
H477 H 0.21495 0.13353 0.58448 0.0
H478 H 0.1471 0.15632 0.5863 0.0
O479 O 0.18934 0.09569 0.53709 0.0
C480 C 0.1254 0.11792 0.55271 0.0
O481 O 0.1233 0.11966 0.60207 0.0
N482 N 0.18515 0.10056 0.64503 0.0
C483 C 0.20688 0.09233 0.73757 0.0
C484 C 0.20649 0.07558 0.6997 0.0
C485 C 0.19499 0.07979 0.65438 0.0
C486 C 0.18437 0.11654 0.68251 0.0
C487 C 0.19533 0.11292 0.72866 0.0
H488 H 0.19445 0.06644 0.6262 0.0
H489 H 0.17459 0.13201 0.67744 0.0
H490 H 0.16507 0.05437 0.53719 0.0
H491 H 0.12336 0.04217 0.66441 0.0
H492 H 0.21547 0.17809 0.58655 0.0
H493 H 0.21503 0.05936 0.70472 0.0
H494 H 0.19419 0.12596 0.75755 0.0
C495 C 0.06186 0.85756 0.38692 0.0
C496 C 0.03917 0.86202 0.39621 0.0
N497 N 0.03499 0.85826 0.44571 0.0
N498 N 0.07202 0.85078 0.43013 0.0
C499 C 0.05531 0.8515 0.46539 0.0
H500 H 0.0705 0.85932 0.35094 0.0
Co501 Co 0.10299 0.84413 0.4363 0.0
C502 C 0.10594 0.80413 0.50497 0.0
O503 O 0.12086 0.79517 0.47358 0.0
N504 N 0.13481 0.83843 0.44264 0.0
C505 C 0.16923 0.83644 0.47893 0.0
C506 C 0.14619 0.8391 0.4872 0.0
C507 C 0.15159 0.83583 0.40775 0.0
N508 N 0.17261 0.83436 0.42883 0.0
O509 O 0.10659 0.86939 0.4811 0.0
H510 H 0.13823 0.84177 0.52365 0.0
H511 H 0.1489 0.83609 0.36747 0.0
O512 O 0.09694 0.82357 0.49461 0.0
C513 C 0.11163 0.88821 0.45955 0.0
O514 O 0.11297 0.88875 0.40993 0.0
N515 N 0.09909 0.82047 0.38875 0.0
C516 C 0.09413 0.78897 0.31031 0.0
C517 C 0.08381 0.7851 0.3575 0.0
C518 C 0.08597 0.80138 0.39583 0.0
C519 C 0.10707 0.82555 0.34165 0.0
C520 C 0.10536 0.80983 0.30225 0.0
H521 H 0.07678 0.7987 0.43074 0.0
H522 H 0.11468 0.84208 0.33449 0.0
H523 H 0.05823 0.84771 0.50493 0.0
H524 H 0.02676 0.86752 0.3684 0.0
H525 H 0.18245 0.83619 0.50761 0.0
H526 H 0.07387 0.76979 0.36452 0.0
H527 H 0.11306 0.81394 0.2661 0.0
H528 H 0.32218 0.12082 0.37646 0.0
H529 H 0.29195 0.08491 0.24943 0.0
H530 H 0.25792 0.07594 0.30141 0.0
H531 H 0.30195 0.08235 0.47402 0.0
H532 H 0.29715 0.1051 0.51861 0.0
H533 H 0.31909 0.10795 0.47122 0.0
H534 H 0.30066 0.14577 0.44058 0.0
H535 H 0.27855 0.14292 0.48757 0.0
H536 H 0.27101 0.14592 0.42177 0.0
H537 H 0.22538 0.07331 0.36801 0.0
H538 H 0.20023 0.07429 0.44414 0.0
H539 H 0.25334 0.11062 0.5258 0.0
C540 C 0.30855 0.11085 0.35957 0.0
C541 C 0.30986 0.10357 0.30875 0.0
C542 C 0.29152 0.09059 0.28833 0.0
C543 C 0.27201 0.08551 0.31754 0.0
C544 C 0.27112 0.09335 0.36733 0.0
C545 C 0.28911 0.1055 0.38821 0.0
C546 C 0.28419 0.11209 0.44237 0.0
C547 C 0.30163 0.10122 0.47869 0.0
C548 C 0.28356 0.13822 0.4484 0.0
C549 C 0.26064 0.10175 0.44892 0.0
C550 C 0.25311 0.0912 0.40528 0.0
C551 C 0.2313 0.08131 0.40253 0.0
C552 C 0.21708 0.082 0.44574 0.0
C553 C 0.22495 0.09217 0.49107 0.0
C554 C 0.24696 0.10224 0.4921 0.0
H555 H 0.1164 0.7598 0.52827 0.0
H556 H 0.082 0.81962 0.58776 0.0
H557 H 0.07473 0.79892 0.66795 0.0
H558 H 0.07902 0.71685 0.5895 0.0
H559 H 0.10249 0.6976 0.60084 0.0
H560 H 0.10304 0.71638 0.54675 0.0
H561 H 0.14211 0.73267 0.57602 0.0
H562 H 0.14172 0.71394 0.62998 0.0
H563 H 0.14479 0.7443 0.63888 0.0
H564 H 0.0758 0.77342 0.74504 0.0
H565 H 0.08402 0.74491 0.81176 0.0
H566 H 0.11558 0.70079 0.70065 0.0
C567 C 0.10703 0.76849 0.55784 0.0
C568 C 0.09979 0.7914 0.55171 0.0
C569 C 0.08764 0.80209 0.59146 0.0
C570 C 0.08341 0.79043 0.63711 0.0
C571 C 0.09111 0.76798 0.64212 0.0
C572 C 0.10246 0.75704 0.6033 0.0
C573 C 0.11001 0.73329 0.619 0.0
C574 C 0.09791 0.71495 0.58712 0.0
C575 C 0.1362 0.73093 0.61579 0.0
C576 C 0.10181 0.73276 0.67338 0.0
C577 C 0.09085 0.75292 0.68591 0.0
C578 C 0.08381 0.75738 0.7353 0.0
C579 C 0.0885 0.74109 0.77291 0.0
C580 C 0.09983 0.72046 0.76095 0.0
C581 C 0.1061 0.71604 0.71034 0.0
H582 H 0.81363 0.88496 0.39738 0.0
H583 H 0.78806 0.93908 0.49384 0.0
H584 H 0.75478 0.94389 0.43688 0.0
H585 H 0.79568 0.90983 0.27698 0.0
H586 H 0.78828 0.88245 0.25049 0.0
H587 H 0.81063 0.88452 0.29724 0.0
H588 H 0.78958 0.85467 0.3529 0.0
H589 H 0.76715 0.85257 0.30648 0.0
H590 H 0.76029 0.85968 0.37104 0.0
H591 H 0.72265 0.941 0.37015 0.0
H592 H 0.69575 0.93086 0.30093 0.0
H593 H 0.74318 0.87886 0.24981 0.0
C594 C 0.80126 0.89809 0.40629 0.0
C595 C 0.80357 0.91164 0.45028 0.0
C596 C 0.78674 0.92843 0.46052 0.0
C597 C 0.76775 0.93132 0.42828 0.0
C598 C 0.76582 0.91735 0.3857 0.0
C599 C 0.78226 0.90116 0.37465 0.0
C600 C 0.77595 0.88767 0.32784 0.0
C601 C 0.79369 0.89135 0.28564 0.0
C602 C 0.77307 0.86214 0.34034 0.0
C603 C 0.75326 0.89855 0.31447 0.0
C604 C 0.74763 0.91573 0.34798 0.0
C605 C 0.72703 0.92768 0.34356 0.0
C606 C 0.71183 0.92181 0.30412 0.0
C607 C 0.71728 0.9041 0.2697 0.0
C608 C 0.73841 0.89257 0.27513 0.0
H609 H 0.96237 0.29538 0.71915 0.0
H610 H 0.8893 0.30009 0.74616 0.0
H611 H 0.88256 0.26873 0.68642 0.0
H612 H 0.9566 0.28578 0.58455 0.0
H613 H 0.98062 0.2666 0.58089 0.0
H614 H 0.98002 0.28854 0.62857 0.0
H615 H 0.98554 0.25786 0.69817 0.0
H616 H 0.986 0.23581 0.65069 0.0
H617 H 0.96579 0.23424 0.70207 0.0
H618 H 0.88362 0.23569 0.62635 0.0
H619 H 0.89178 0.20705 0.56083 0.0
H620 H 0.96362 0.22602 0.56424 0.0
C621 C 0.94495 0.28974 0.71275 0.0
C622 C 0.92641 0.29993 0.7389 0.0
C623 C 0.90388 0.29231 0.72817 0.0
C624 C 0.89984 0.27447 0.69396 0.0
C625 C 0.91845 0.26459 0.66958 0.0
C626 C 0.94054 0.27222 0.67764 0.0
C627 C 0.95727 0.25954 0.64383 0.0
C628 C 0.96934 0.2761 0.60729 0.0
C629 C 0.97468 0.24606 0.6756 0.0
C630 C 0.94111 0.2436 0.61575 0.0
C631 C 0.91886 0.24659 0.63189 0.0
C632 C 0.90093 0.23347 0.61277 0.0
C633 C 0.90574 0.21726 0.57523 0.0
C634 C 0.92822 0.21456 0.55607 0.0
C635 C 0.94617 0.22775 0.57744 0.0
H636 H 0.29133 0.37112 0.93014 0.0
H637 H 0.29918 0.44353 0.95881 0.0
H638 H 0.27156 0.45193 0.88964 0.0
H639 H 0.28731 0.37584 0.7927 0.0
H640 H 0.267 0.35271 0.78839 0.0
H641 H 0.28777 0.35309 0.83874 0.0
H642 H 0.25502 0.34998 0.90452 0.0
H643 H 0.23414 0.34988 0.85445 0.0
H644 H 0.23241 0.37088 0.9041 0.0
H645 H 0.23966 0.45148 0.8209 0.0
H646 H 0.21123 0.44251 0.75359 0.0
H647 H 0.22715 0.37057 0.7689 0.0
C648 C 0.28745 0.38878 0.92147 0.0
C649 C 0.29732 0.40669 0.94976 0.0
C650 C 0.29192 0.42958 0.93721 0.0
C651 C 0.27614 0.43446 0.89826 0.0
C652 C 0.26628 0.41627 0.87176 0.0
C653 C 0.27218 0.39391 0.88238 0.0
C654 C 0.25958 0.3773 0.84855 0.0
C655 C 0.27642 0.36396 0.81511 0.0
C656 C 0.24439 0.36106 0.87979 0.0
C657 C 0.24534 0.39367 0.81756 0.0
C658 C 0.24913 0.4161 0.83156 0.0
C659 C 0.23687 0.43398 0.80928 0.0
C660 C 0.22067 0.42876 0.77132 0.0
C661 C 0.2172 0.4059 0.75564 0.0
C662 C 0.22969 0.38827 0.77943 0.0
H663 H 0.38392 0.77383 0.22671 0.0
H664 H 0.44576 0.81473 0.23635 0.0
H665 H 0.46383 0.79021 0.17127 0.0
H666 H 0.41072 0.71923 0.20868 0.0
H667 H 0.38951 0.70928 0.16427 0.0
H668 H 0.38177 0.72968 0.21222 0.0
H669 H 0.36687 0.75731 0.14307 0.0
H670 H 0.3745 0.73697 0.09492 0.0
H671 H 0.3856 0.76568 0.09211 0.0
H672 H 0.47514 0.76061 0.10543 0.0
H673 H 0.47799 0.73055 0.04046 0.0
H674 H 0.40814 0.70973 0.07246 0.0
C675 C 0.40133 0.77762 0.2154 0.0
C676 C 0.4135 0.79615 0.237 0.0
C677 C 0.43611 0.80065 0.22045 0.0
C678 C 0.44652 0.78676 0.18362 0.0
C679 C 0.43402 0.76855 0.16335 0.0
C680 C 0.41183 0.76412 0.17839 0.0
C681 C 0.40178 0.74403 0.14966 0.0
C682 C 0.39559 0.7244 0.18588 0.0
C683 C 0.38096 0.75145 0.11807 0.0
C684 C 0.4218 0.73772 0.1161 0.0
C685 C 0.44029 0.75196 0.12481 0.0
C686 C 0.46073 0.74943 0.09831 0.0
C687 C 0.46219 0.7322 0.06149 0.0
C688 C 0.44327 0.71772 0.05098 0.0
C689 C 0.42291 0.72049 0.07926 0.0
H690 H 0.7034 0.6172 0.88223 0.0
H691 H 0.73524 0.57507 0.99747 0.0
H692 H 0.7691 0.57012 0.94205 0.0
H693 H 0.7249 0.58639 0.77229 0.0
H694 H 0.7288 0.61224 0.73618 0.0
H695 H 0.70666 0.61066 0.78346 0.0
H696 H 0.72331 0.6466 0.82739 0.0
H697 H 0.7455 0.64827 0.78038 0.0
H698 H 0.75293 0.64683 0.8465 0.0
H699 H 0.80089 0.57201 0.87377 0.0
H700 H 0.82676 0.58112 0.80191 0.0
H701 H 0.77313 0.62214 0.73413 0.0
C702 C 0.71729 0.60663 0.89578 0.0
C703 C 0.71654 0.59645 0.94428 0.0
C704 C 0.73531 0.58296 0.9604 0.0
C705 C 0.75463 0.58006 0.92912 0.0
C706 C 0.75491 0.59068 0.88174 0.0
C707 C 0.7366 0.60364 0.86528 0.0
C708 C 0.7413 0.61431 0.81418 0.0
C709 C 0.72441 0.60536 0.77417 0.0
C710 C 0.74073 0.64055 0.81734 0.0
C711 C 0.76526 0.60567 0.80451 0.0
C712 C 0.7729 0.5919 0.84349 0.0
C713 C 0.79494 0.58265 0.84297 0.0
C714 C 0.80952 0.58786 0.80196 0.0
C715 C 0.80204 0.60234 0.76227 0.0
C716 C 0.77948 0.611 0.76367 0.0
H717 H 0.62915 0.24739 0.25089 0.0
H718 H 0.58771 0.19392 0.18339 0.0
H719 H 0.57839 0.21991 0.11197 0.0
H720 H 0.59301 0.29497 0.21574 0.0
H721 H 0.61701 0.31365 0.20429 0.0
H722 H 0.6193 0.2911 0.25041 0.0
H723 H 0.65503 0.27535 0.20411 0.0
H724 H 0.65288 0.29785 0.15794 0.0
H725 H 0.65315 0.26846 0.13777 0.0
H726 H 0.57541 0.25209 0.04531 0.0
H727 H 0.57914 0.28648 0.99119 0.0
H728 H 0.62233 0.31803 0.10504 0.0
C729 C 0.61797 0.24105 0.22137 0.0
C730 C 0.6092 0.21853 0.22279 0.0
C731 C 0.59464 0.21109 0.18318 0.0
C732 C 0.58925 0.22575 0.14251 0.0
C733 C 0.59843 0.24782 0.14223 0.0
C734 C 0.61243 0.25537 0.18091 0.0
C735 C 0.62074 0.2795 0.17167 0.0
C736 C 0.61199 0.29576 0.21298 0.0
C737 C 0.647 0.28032 0.16762 0.0
C738 C 0.60952 0.28441 0.12128 0.0
C739 C 0.59662 0.26605 0.10478 0.0
C740 C 0.58534 0.26658 0.05821 0.0
C741 C 0.58754 0.28621 0.0277 0.0
C742 C 0.60096 0.30507 0.04381 0.0
C743 C 0.6118 0.30407 0.09157 0.0
H744 H 0.32434 0.30364 0.04965 0.0
H745 H 0.3717 0.32896 0.1624 0.0
H746 H 0.37274 0.29063 0.2026 0.0
H747 H 0.2919 0.2676 0.13654 0.0
H748 H 0.28697 0.24563 0.09006 0.0
H749 H 0.29031 0.27491 0.07034 0.0
H750 H 0.32328 0.26306 0.0104 0.0
H751 H 0.3201 0.23378 0.03005 0.0
H752 H 0.34747 0.24777 0.03569 0.0
H753 H 0.37082 0.24852 0.22568 0.0
H754 H 0.3624 0.20719 0.23646 0.0
H755 H 0.31339 0.21049 0.11395 0.0
C756 C 0.33484 0.30101 0.08289 0.0
C757 C 0.34808 0.31905 0.10296 0.0
C758 C 0.36143 0.31527 0.1468 0.0
C759 C 0.36217 0.29358 0.16961 0.0
C760 C 0.34904 0.27604 0.14865 0.0
C761 C 0.33529 0.27966 0.10682 0.0
C762 C 0.32228 0.25818 0.09262 0.0
C763 C 0.29633 0.2618 0.09771 0.0
C764 C 0.32867 0.25024 0.03902 0.0
C765 C 0.33111 0.24179 0.13245 0.0
C766 C 0.34678 0.25232 0.16402 0.0
C767 C 0.35829 0.24023 0.20175 0.0
C768 C 0.3535 0.21684 0.20757 0.0
C769 C 0.33704 0.20598 0.17659 0.0
C770 C 0.32569 0.21864 0.13871 0.0
H771 H 0.22254 0.70371 0.8496 0.0
H772 H 0.20692 0.63187 0.86872 0.0
H773 H 0.24662 0.62495 0.89804 0.0
H774 H 0.28054 0.69724 0.80542 0.0
H775 H 0.29084 0.7219 0.8393 0.0
H776 H 0.26154 0.72074 0.81833 0.0
H777 H 0.24778 0.72777 0.91024 0.0
H778 H 0.27703 0.7289 0.93151 0.0
H779 H 0.2573 0.70902 0.96011 0.0
H780 H 0.28879 0.62615 0.92359 0.0
H781 H 0.32861 0.63589 0.94867 0.0
H782 H 0.31526 0.70713 0.91605 0.0
C783 C 0.22757 0.68649 0.85945 0.0
C784 C 0.21178 0.66828 0.85658 0.0
C785 C 0.21879 0.64605 0.87087 0.0
C786 C 0.2413 0.64196 0.88729 0.0
C787 C 0.25646 0.66036 0.88973 0.0
C788 C 0.24978 0.68222 0.87656 0.0
C789 C 0.26895 0.69924 0.88426 0.0
C790 C 0.27587 0.71043 0.83382 0.0
C791 C 0.26237 0.71729 0.92389 0.0
C792 C 0.28752 0.68361 0.9038 0.0
C793 C 0.28016 0.66119 0.90623 0.0
C794 C 0.29466 0.64367 0.9221 0.0
C795 C 0.3172 0.6493 0.93611 0.0
C796 C 0.32482 0.67225 0.93484 0.0
C797 C 0.30973 0.68951 0.91832 0.0
H798 H 0.69104 0.79284 0.20436 0.0
H799 H 0.62882 0.81167 0.12596 0.0
H800 H 0.62571 0.77247 0.09114 0.0
H801 H 0.71369 0.75918 0.10389 0.0
H802 H 0.72664 0.73831 0.14506 0.0
H803 H 0.72286 0.76721 0.16655 0.0
H804 H 0.7002 0.7525 0.2444 0.0
H805 H 0.70392 0.72353 0.22313 0.0
H806 H 0.67559 0.73438 0.23496 0.0
H807 H 0.62939 0.73081 0.06617 0.0
H808 H 0.64168 0.69126 0.04608 0.0
H809 H 0.70292 0.70106 0.13576 0.0
C810 C 0.67666 0.78852 0.18033 0.0
C811 C 0.66003 0.805 0.16804 0.0
C812 C 0.64168 0.79912 0.1356 0.0
C813 C 0.63975 0.77694 0.11596 0.0
C814 C 0.65653 0.76103 0.12863 0.0
C815 C 0.67478 0.76665 0.15959 0.0
C816 C 0.69129 0.74693 0.16481 0.0
C817 C 0.71502 0.75329 0.14381 0.0
C818 C 0.69283 0.73886 0.22011 0.0
C819 C 0.67952 0.72935 0.13192 0.0
C820 C 0.6593 0.73763 0.11202 0.0
C821 C 0.64526 0.72421 0.08129 0.0
C822 C 0.65228 0.70184 0.07019 0.0
C823 C 0.67328 0.69341 0.08896 0.0
C824 C 0.68695 0.70732 0.12038 0.0
H825 H 0.79699 0.3213 0.79713 0.0
H826 H 0.81871 0.38277 0.87535 0.0
H827 H 0.77844 0.39115 0.89641 0.0
H828 H 0.74131 0.34197 0.75092 0.0
H829 H 0.72781 0.31478 0.76271 0.0
H830 H 0.75771 0.31602 0.74629 0.0
H831 H 0.76773 0.29346 0.82781 0.0
H832 H 0.73796 0.29226 0.8446 0.0
H833 H 0.75842 0.3042 0.88828 0.0
H834 H 0.73551 0.39052 0.91623 0.0
H835 H 0.69516 0.37994 0.93516 0.0
H836 H 0.70329 0.31761 0.84931 0.0
C837 C 0.79342 0.33667 0.81828 0.0
C838 C 0.81123 0.35127 0.83465 0.0
C839 C 0.80551 0.37137 0.86173 0.0
C840 C 0.78261 0.37626 0.87406 0.0
C841 C 0.76563 0.36092 0.85896 0.0
C842 C 0.77086 0.34155 0.83152 0.0
C843 C 0.75012 0.32649 0.82401 0.0
C844 C 0.74387 0.32472 0.76763 0.0
C845 C 0.75379 0.30271 0.8476 0.0
C846 C 0.73245 0.34 0.85284 0.0
C847 C 0.74147 0.36008 0.87188 0.0
C848 C 0.72828 0.37492 0.90113 0.0
C849 C 0.70545 0.36885 0.91167 0.0
C850 C 0.69636 0.34794 0.89393 0.0
C851 C 0.70998 0.33361 0.8636 0.0
H852 H 0.81129 0.80791 0.64667 0.0
H853 H 0.87451 0.82213 0.56715 0.0
H854 H 0.88738 0.78239 0.58272 0.0
H855 H 0.83699 0.77227 0.74402 0.0
H856 H 0.81274 0.75326 0.74757 0.0
H857 H 0.8087 0.78269 0.72979 0.0
H858 H 0.78863 0.76984 0.64709 0.0
H859 H 0.79266 0.74039 0.66454 0.0
H860 H 0.80325 0.7507 0.60467 0.0
H861 H 0.89179 0.74016 0.6019 0.0
H862 H 0.88928 0.69993 0.63095 0.0
H863 H 0.82457 0.71437 0.70364 0.0
C864 C 0.82783 0.80258 0.63257 0.0
C865 C 0.84189 0.81789 0.60534 0.0
C866 C 0.86359 0.81056 0.58815 0.0
C867 C 0.87095 0.78806 0.59667 0.0
C868 C 0.85656 0.77329 0.6233 0.0
C869 C 0.83561 0.78037 0.64172 0.0
C870 C 0.82362 0.76138 0.67031 0.0
C871 C 0.82033 0.76779 0.72624 0.0
C872 C 0.80068 0.75522 0.64513 0.0
C873 C 0.84089 0.74234 0.66442 0.0
C874 C 0.85968 0.74947 0.63675 0.0
C875 C 0.87732 0.7345 0.62417 0.0
C876 C 0.87573 0.71173 0.64054 0.0
C877 C 0.85687 0.70429 0.66982 0.0
C878 C 0.83933 0.71984 0.68203 0.0
H879 H 0.7971 0.17682 0.48287 0.0
H880 H 0.8318 0.13625 0.36898 0.0
H881 H 0.79476 0.12706 0.33 0.0
H882 H 0.74402 0.14136 0.49056 0.0
H883 H 0.72607 0.16615 0.49741 0.0
H884 H 0.75492 0.16653 0.52159 0.0
H885 H 0.76352 0.20283 0.46872 0.0
H886 H 0.73481 0.20249 0.4442 0.0
H887 H 0.75878 0.20236 0.40131 0.0
H888 H 0.75516 0.12704 0.29551 0.0
H889 H 0.71522 0.13492 0.27029 0.0
H890 H 0.70556 0.17527 0.40575 0.0
C891 C 0.79693 0.16568 0.45027 0.0
C892 C 0.81755 0.15728 0.42929 0.0
C893 C 0.81641 0.14268 0.38656 0.0
C894 C 0.79537 0.13741 0.36388 0.0
C895 C 0.77552 0.14665 0.38452 0.0
C896 C 0.77605 0.16028 0.4271 0.0
C897 C 0.75247 0.16958 0.4392 0.0
C898 C 0.74386 0.16034 0.49022 0.0
C899 C 0.75241 0.19587 0.43827 0.0
C900 C 0.73878 0.15977 0.39559 0.0
C901 C 0.75241 0.14641 0.3648 0.0
C902 C 0.74421 0.13709 0.31983 0.0
C903 C 0.72161 0.14175 0.30565 0.0
C904 C 0.70742 0.15554 0.33634 0.0
C905 C 0.71599 0.16428 0.38234 0.0
H906 H 0.18502 0.29957 0.70102 0.0
H907 H 0.13021 0.3188 0.5994 0.0
H908 H 0.1282 0.27902 0.56744 0.0
H909 H 0.21336 0.26263 0.61337 0.0
H910 H 0.22212 0.24239 0.661 0.0
H911 H 0.21818 0.27194 0.6775 0.0
H912 H 0.18948 0.26015 0.74763 0.0
H913 H 0.19333 0.23055 0.73132 0.0
H914 H 0.16506 0.24278 0.73144 0.0
H915 H 0.13179 0.23657 0.54859 0.0
H916 H 0.14332 0.19603 0.5383 0.0
H917 H 0.19746 0.20581 0.6481 0.0
C918 C 0.17248 0.29526 0.6724 0.0
C919 C 0.15761 0.31203 0.65286 0.0
C920 C 0.14172 0.30607 0.61464 0.0
C921 C 0.14041 0.28356 0.59654 0.0
C922 C 0.15537 0.26737 0.6166 0.0
C923 C 0.17129 0.27304 0.65324 0.0
C924 C 0.18625 0.25287 0.66663 0.0
C925 C 0.21147 0.25776 0.65384 0.0
C926 C 0.18334 0.2462 0.72257 0.0
C927 C 0.17624 0.23491 0.63194 0.0
C928 C 0.15822 0.24346 0.60386 0.0
C929 C 0.14598 0.22976 0.57012 0.0
C930 C 0.15254 0.20682 0.5646 0.0
C931 C 0.17138 0.19803 0.59196 0.0
C932 C 0.18323 0.21227 0.62615 0.0
H933 H 0.3063 0.85177 0.38693 0.0
H934 H 0.29841 0.81689 0.24317 0.0
H935 H 0.25729 0.81149 0.26059 0.0
H936 H 0.26667 0.81613 0.45786 0.0
H937 H 0.2559 0.83962 0.49481 0.0
H938 H 0.28484 0.84028 0.47143 0.0
H939 H 0.27686 0.87907 0.42761 0.0
H940 H 0.24789 0.8785 0.45072 0.0
H941 H 0.25329 0.88141 0.38388 0.0
H942 H 0.21679 0.81064 0.2928 0.0
H943 H 0.17999 0.81408 0.33794 0.0
H944 H 0.21435 0.84943 0.46069 0.0
C945 C 0.29604 0.8427 0.35941 0.0
C946 C 0.30566 0.83478 0.31359 0.0
C947 C 0.29143 0.82337 0.27822 0.0
C948 C 0.26806 0.8201 0.28791 0.0
C949 C 0.25913 0.82829 0.33322 0.0
C950 C 0.27268 0.8393 0.36846 0.0
C951 C 0.25873 0.84686 0.41373 0.0
C952 C 0.26703 0.83501 0.46233 0.0
C953 C 0.25922 0.87301 0.41928 0.0
C954 C 0.23521 0.83845 0.39834 0.0
C955 C 0.23581 0.82777 0.35179 0.0
C956 C 0.21612 0.81895 0.32932 0.0
C957 C 0.19526 0.82112 0.3551 0.0
C958 C 0.1942 0.83203 0.40289 0.0
C959 C 0.21456 0.84072 0.42462 0.0
H960 H 0.28102 0.12718 0.97823 0.0
H961 H 0.28027 0.05576 0.02316 0.0
H962 H 0.25554 0.04681 0.9502 0.0
H963 H 0.22368 0.13052 0.93014 0.0
H964 H 0.23148 0.14864 0.8777 0.0
H965 H 0.24774 0.14969 0.93557 0.0
H966 H 0.28492 0.14114 0.88564 0.0
H967 H 0.26879 0.14013 0.82763 0.0
H968 H 0.28624 0.11616 0.84597 0.0
H969 H 0.23131 0.04562 0.87119 0.0
H970 H 0.21052 0.05209 0.79123 0.0
H971 H 0.23062 0.12356 0.79463 0.0
C972 C 0.27584 0.1096 0.9728 0.0
C973 C 0.28258 0.09223 0.00686 0.0
C974 C 0.275 0.06952 0.9984 0.0
C975 C 0.26107 0.0642 0.95679 0.0
C976 C 0.25504 0.08173 0.92377 0.0
C977 C 0.26229 0.10394 0.93118 0.0
C978 C 0.25432 0.11947 0.88901 0.0
C979 C 0.23835 0.13818 0.90934 0.0
C980 C 0.27479 0.12983 0.86037 0.0
C981 C 0.24144 0.10252 0.85662 0.0
C982 C 0.24188 0.08089 0.87744 0.0
C983 C 0.23098 0.06247 0.85435 0.0
C984 C 0.21937 0.0663 0.80867 0.0
C985 C 0.21897 0.08833 0.78627 0.0
C986 C 0.23024 0.10658 0.81087 0.0
H987 H 0.08835 0.79519 0.20767 0.0
H988 H 0.09911 0.74281 0.32167 0.0
H989 H 0.10107 0.71362 0.25465 0.0
H990 H 0.05429 0.76031 0.12024 0.0
H991 H 0.06726 0.77285 0.06489 0.0
H992 H 0.06451 0.78937 0.12205 0.0
H993 H 0.10816 0.79726 0.1214 0.0
H994 H 0.11104 0.78076 0.06436 0.0
H995 H 0.12778 0.77357 0.11941 0.0
H996 H 0.10527 0.69073 0.17565 0.0
H997 H 0.11045 0.67538 0.08945 0.0
H998 H 0.09729 0.74251 0.02636 0.0
C999 C 0.09099 0.77757 0.21862 0.0
C1000 C 0.09351 0.7713 0.27004 0.0
C1001 C 0.09675 0.748 0.28267 0.0
C1002 C 0.09801 0.7313 0.24485 0.0
C1003 C 0.09586 0.73814 0.19458 0.0
C1004 C 0.09228 0.76068 0.18136 0.0
C1005 C 0.09163 0.76363 0.12439 0.0
C1006 C 0.06802 0.77203 0.10688 0.0
C1007 C 0.1108 0.77976 0.10635 0.0
C1008 C 0.09591 0.73929 0.10765 0.0
C1009 C 0.09818 0.72486 0.14879 0.0
C1010 C 0.10331 0.70181 0.14312 0.0
C1011 C 0.10636 0.69329 0.09411 0.0
C1012 C 0.10427 0.70779 0.05142 0.0
C1013 C 0.09868 0.73102 0.05836 0.0
H1014 H 0.72679 0.92684 0.98024 0.0
H1015 H 0.69006 0.86379 0.94795 0.0
H1016 H 0.70492 0.86441 0.86124 0.0
H1017 H 0.72236 0.95315 0.85818 0.0
H1018 H 0.75127 0.96393 0.85826 0.0
H1019 H 0.73627 0.95997 0.91719 0.0
H1020 H 0.76886 0.93396 0.95024 0.0
H1021 H 0.78411 0.93815 0.89179 0.0
H1022 H 0.77756 0.90965 0.91323 0.0
H1023 H 0.7233 0.87177 0.77739 0.0
H1024 H 0.7491 0.88209 0.70658 0.0
H1025 H 0.77729 0.93744 0.79573 0.0
C1026 C 0.72195 0.91297 0.95546 0.0
C1027 C 0.70661 0.89559 0.97136 0.0
C1028 C 0.70095 0.87789 0.93678 0.0
C1029 C 0.70944 0.87795 0.88725 0.0
C1030 C 0.72407 0.89553 0.8728 0.0
C1031 C 0.73074 0.9124 0.90617 0.0
C1032 C 0.74818 0.92826 0.88217 0.0
C1033 C 0.73896 0.95278 0.87876 0.0
C1034 C 0.77103 0.92745 0.91107 0.0
C1035 C 0.75028 0.91758 0.83018 0.0
C1036 C 0.73583 0.899 0.82525 0.0
C1037 C 0.7347 0.88628 0.78075 0.0
C1038 C 0.74922 0.89233 0.74069 0.0
C1039 C 0.76481 0.91064 0.74587 0.0
C1040 C 0.76519 0.92356 0.79089 0.0
H1041 H 0.92909 0.24301 0.24761 0.0
H1042 H 0.85626 0.24024 0.27812 0.0
H1043 H 0.84858 0.26093 0.19842 0.0
H1044 H 0.92946 0.29993 0.18657 0.0
H1045 H 0.9506 0.29169 0.14046 0.0
H1046 H 0.95046 0.27853 0.20213 0.0
H1047 H 0.94803 0.23871 0.15989 0.0
H1048 H 0.94772 0.25175 0.09814 0.0
H1049 H 0.92497 0.23265 0.11656 0.0
H1050 H 0.84844 0.27924 0.11397 0.0
H1051 H 0.85591 0.29707 0.03107 0.0
H1052 H 0.92891 0.28796 0.05317 0.0
C1053 C 0.91162 0.24738 0.238 0.0
C1054 C 0.89323 0.24034 0.26901 0.0
C1055 C 0.87052 0.2457 0.25484 0.0
C1056 C 0.86601 0.25734 0.20967 0.0
C1057 C 0.88442 0.26342 0.17905 0.0
C1058 C 0.9068 0.25888 0.19265 0.0
C1059 C 0.92328 0.26654 0.15159 0.0
C1060 C 0.9394 0.28529 0.17137 0.0
C1061 C 0.93679 0.24619 0.1303 0.0
C1062 C 0.90663 0.2759 0.11274 0.0
C1063 C 0.88433 0.2739 0.12955 0.0
C1064 C 0.86583 0.28111 0.10054 0.0
C1065 C 0.87024 0.29119 0.05353 0.0
C1066 C 0.89296 0.29398 0.03588 0.0
C1067 C 0.91137 0.28588 0.06559 0.0
H1068 H 0.23428 0.42469 0.46529 0.0
H1069 H 0.19445 0.36322 0.43673 0.0
H1070 H 0.2111 0.3607 0.3516 0.0
H1071 H 0.23253 0.4483 0.34148 0.0
H1072 H 0.26183 0.45795 0.3419 0.0
H1073 H 0.24619 0.4557 0.40041 0.0
H1074 H 0.27744 0.42909 0.43726 0.0
H1075 H 0.29333 0.43151 0.37913 0.0
H1076 H 0.28545 0.40374 0.403 0.0
H1077 H 0.23082 0.36556 0.26808 0.0
H1078 H 0.25651 0.37459 0.19614 0.0
H1079 H 0.28627 0.43024 0.28189 0.0
C1080 C 0.22922 0.41047 0.4417 0.0
C1081 C 0.21258 0.39444 0.4579 0.0
C1082 C 0.20653 0.37622 0.42503 0.0
C1083 C 0.21601 0.37452 0.37654 0.0
C1084 C 0.23193 0.39085 0.36158 0.0
C1085 C 0.23888 0.40819 0.3935 0.0
C1086 C 0.25713 0.42289 0.36891 0.0
C1087 C 0.24892 0.44767 0.36282 0.0
C1088 C 0.27967 0.42173 0.39885 0.0
C1089 C 0.25923 0.41114 0.31811 0.0
C1090 C 0.24428 0.3929 0.31438 0.0
C1091 C 0.24271 0.3797 0.27064 0.0
C1092 C 0.2572 0.385 0.22998 0.0
C1093 C 0.27316 0.40306 0.23386 0.0
C1094 C 0.2741 0.41636 0.27828 0.0
H1095 H 0.40176 0.767 0.51925 0.0
H1096 H 0.40093 0.83731 0.57116 0.0
H1097 H 0.40529 0.82418 0.65914 0.0
H1098 H 0.37008 0.74335 0.62228 0.0
H1099 H 0.38658 0.71744 0.62594 0.0
H1100 H 0.38387 0.73226 0.56651 0.0
H1101 H 0.42802 0.73454 0.55896 0.0
H1102 H 0.43086 0.71964 0.61831 0.0
H1103 H 0.44442 0.74704 0.60969 0.0
H1104 H 0.40865 0.80362 0.74184 0.0
H1105 H 0.41107 0.77677 0.8137 0.0
H1106 H 0.4113 0.71984 0.70848 0.0
C1107 C 0.40269 0.77961 0.5491 0.0
C1108 C 0.40068 0.80317 0.53823 0.0
C1109 C 0.40188 0.81914 0.57851 0.0
C1110 C 0.40455 0.81188 0.62866 0.0
C1111 C 0.40616 0.78857 0.63815 0.0
C1112 C 0.40538 0.77265 0.59958 0.0
C1113 C 0.40724 0.74859 0.6204 0.0
C1114 C 0.38566 0.73459 0.60805 0.0
C1115 C 0.42893 0.73676 0.60066 0.0
C1116 C 0.40898 0.75353 0.67659 0.0
C1117 C 0.40839 0.7767 0.68598 0.0
C1118 C 0.40932 0.78542 0.73499 0.0
C1119 C 0.41083 0.77003 0.77558 0.0
C1120 C 0.4114 0.74615 0.76698 0.0
C1121 C 0.4106 0.73794 0.71659 0.0
H1122 H 0.74625 0.57508 0.27666 0.0
H1123 H 0.74537 0.64614 0.2307 0.0
H1124 H 0.76883 0.65639 0.30512 0.0
H1125 H 0.74008 0.58546 0.40762 0.0
H1126 H 0.75875 0.56282 0.42822 0.0
H1127 H 0.74378 0.56042 0.36888 0.0
H1128 H 0.78216 0.55431 0.32187 0.0
H1129 H 0.79724 0.55637 0.38119 0.0
H1130 H 0.80489 0.5749 0.32935 0.0
H1131 H 0.78995 0.65942 0.38609 0.0
H1132 H 0.80928 0.65499 0.46838 0.0
H1133 H 0.7965 0.58195 0.46392 0.0
C1134 C 0.75155 0.59265 0.28185 0.0
C1135 C 0.74439 0.60986 0.24796 0.0
C1136 C 0.75099 0.6328 0.25626 0.0
C1137 C 0.76422 0.63875 0.29836 0.0
C1138 C 0.77059 0.62154 0.33188 0.0
C1139 C 0.76466 0.59894 0.32413 0.0
C1140 C 0.77289 0.58407 0.36752 0.0
C1141 C 0.75267 0.57252 0.39465 0.0
C1142 C 0.79034 0.56637 0.34886 0.0
C1143 C 0.78415 0.6019 0.40093 0.0
C1144 C 0.78265 0.62336 0.37942 0.0
C1145 C 0.79145 0.64268 0.40314 0.0
C1146 C 0.80243 0.63998 0.44982 0.0
C1147 C 0.80452 0.61813 0.47244 0.0
C1148 C 0.79503 0.59888 0.44776 0.0
H1149 H 0.60109 0.25349 0.74628 0.0
H1150 H 0.58116 0.31998 0.68898 0.0
H1151 H 0.57892 0.30439 0.60258 0.0
H1152 H 0.637 0.23899 0.64685 0.0
H1153 H 0.62936 0.20919 0.64378 0.0
H1154 H 0.62665 0.22445 0.70253 0.0
H1155 H 0.58385 0.21318 0.70823 0.0
H1156 H 0.5865 0.19753 0.64984 0.0
H1157 H 0.56505 0.21943 0.65592 0.0
H1158 H 0.584 0.28362 0.52234 0.0
H1159 H 0.59227 0.25753 0.45209 0.0
H1160 H 0.60666 0.20327 0.55998 0.0
C1161 C 0.59559 0.26449 0.71564 0.0
C1162 C 0.59132 0.2879 0.724 0.0
C1163 C 0.58459 0.302 0.68306 0.0
C1164 C 0.58324 0.29332 0.63395 0.0
C1165 C 0.58844 0.27042 0.62646 0.0
C1166 C 0.5941 0.25603 0.66607 0.0
C1167 C 0.60003 0.23239 0.64674 0.0
C1168 C 0.62472 0.22589 0.66082 0.0
C1169 C 0.58282 0.21458 0.66634 0.0
C1170 C 0.5975 0.23605 0.59017 0.0
C1171 C 0.59075 0.25811 0.57949 0.0
C1172 C 0.5887 0.2661 0.53012 0.0
C1173 C 0.59336 0.25106 0.49039 0.0
C1174 C 0.5998 0.22812 0.50007 0.0
C1175 C 0.60188 0.22064 0.5509 0.0
H1176 H 0.37119 0.02864 0.25549 0.0
H1177 H 0.38108 0.01511 0.09556 0.0
H1178 H 0.38732 0.97446 0.11422 0.0
H1179 H 0.41337 0.98983 0.30128 0.0
H1180 H 0.39689 0.98063 0.35524 0.0
H1181 H 0.39275 0.00881 0.32948 0.0
H1182 H 0.34947 1.00056 0.31823 0.0
H1183 H 0.35345 0.97241 0.34433 0.0
H1184 H 0.3405 0.9758 0.28287 0.0
H1185 H 0.39375 0.93513 0.15032 0.0
H1186 H 0.39785 0.89991 0.20152 0.0
H1187 H 0.38285 0.93875 0.33728 0.0
C1188 C 0.37439 0.0171 0.22436 0.0
C1189 C 0.37591 0.02528 0.1741 0.0
C1190 C 0.38032 0.00951 0.13452 0.0
C1191 C 0.38376 0.98627 0.14467 0.0
C1192 C 0.38261 0.97887 0.19461 0.0
C1193 C 0.37784 0.99375 0.2338 0.0
C1194 C 0.37763 0.98133 0.28413 0.0
C1195 C 0.39627 0.99071 0.31961 0.0
C1196 C 0.35384 0.9826 0.30883 0.0
C1197 C 0.3831 0.95723 0.26704 0.0
C1198 C 0.38598 0.95616 0.21528 0.0
C1199 C 0.39144 0.93573 0.19092 0.0
C1200 C 0.39381 0.91583 0.22026 0.0
C1201 C 0.39064 0.91652 0.27333 0.0
C1202 C 0.38531 0.93758 0.29675 0.0
H1203 H 0.94783 0.62583 0.67423 0.0
H1204 H 0.90603 0.61113 0.80611 0.0
H1205 H 0.94004 0.61614 0.86097 0.0
H1206 H 0.99826 0.59654 0.71658 0.0
H1207 H 0.0176 0.61723 0.68955 0.0
H1208 H 0.98997 0.61255 0.66122 0.0
H1209 H 0.98092 0.65568 0.66968 0.0
H1210 H 0.00848 0.66048 0.69836 0.0
H1211 H 0.98282 0.66912 0.73088 0.0
H1212 H 0.97863 0.62318 0.90105 0.0
H1213 H 0.01895 0.63013 0.92357 0.0
H1214 H 0.03556 0.63967 0.76491 0.0
C1215 C 0.94575 0.62362 0.71466 0.0
C1216 C 0.92423 0.61809 0.73594 0.0
C1217 C 0.92234 0.61531 0.78899 0.0
C1218 C 0.94155 0.61819 0.8204 0.0
C1219 C 0.96246 0.62381 0.79809 0.0
C1220 C 0.96468 0.62638 0.7464 0.0
C1221 C 0.98908 0.63219 0.73172 0.0
C1222 C 0.99933 0.61351 0.69777 0.0
C1223 C 0.99039 0.65577 0.70616 0.0
C1224 C 1.00033 0.6325 0.7833 0.0
C1225 C 0.98467 0.62768 0.82106 0.0
C1226 C 0.99104 0.62684 0.87175 0.0
C1227 C 0.01405 0.6307 0.88412 0.0
C1228 C 0.03055 0.63528 0.846 0.0
C1229 C 0.02341 0.63642 0.79497 0.0
H1230 H 0.64593 0.98489 0.24848 0.0
H1231 H 0.64517 0.99976 0.08775 0.0
H1232 H 0.64064 0.0408 0.1061 0.0
H1233 H 0.60351 0.02406 0.28284 0.0
H1234 H 0.61658 0.03255 0.34169 0.0
H1235 H 0.62193 1.00455 0.31635 0.0
H1236 H 0.66561 0.01218 0.31854 0.0
H1237 H 0.66041 0.04014 0.34449 0.0
H1238 H 0.67701 0.03715 0.28742 0.0
H1239 H 0.63302 0.07979 0.14162 0.0
H1240 H 0.625 0.11431 0.19244 0.0
H1241 H 0.63112 0.07411 0.32993 0.0
C1242 C 0.6454 0.99687 0.21728 0.0
C1243 C 0.64585 0.98916 0.1667 0.0
C1244 C 0.64462 1.00531 0.12678 0.0
C1245 C 0.64213 0.02865 0.13681 0.0
C1246 C 0.64101 0.03564 0.18703 0.0
C1247 C 0.64284 0.02029 0.22666 0.0
C1248 C 0.64009 0.03219 0.27713 0.0
C1249 C 0.61929 0.02277 0.30619 0.0
C1250 C 0.66209 0.0303 0.30875 0.0
C1251 C 0.63606 0.05649 0.25957 0.0
C1252 C 0.63672 0.05815 0.20749 0.0
C1253 C 0.63269 0.07876 0.1825 0.0
C1254 C 0.62804 0.09825 0.21162 0.0
C1255 C 0.62748 0.09694 0.26509 0.0
C1256 C 0.63156 0.07573 0.28912 0.0
H1257 H 0.07488 0.38334 0.67029 0.0
H1258 H 0.11133 0.4208 0.78692 0.0
H1259 H 0.07679 0.41927 0.84124 0.0
H1260 H 0.01934 0.40892 0.68909 0.0
H1261 H 1.00409 0.38261 0.67798 0.0
H1262 H 0.03127 0.38757 0.64777 0.0
H1263 H 0.04692 0.34991 0.68597 0.0
H1264 H 0.01977 0.3448 0.7161 0.0
H1265 H 0.04558 0.34549 0.75343 0.0
H1266 H 0.0383 0.41309 0.88274 0.0
H1267 H 0.99979 0.40134 0.91035 0.0
H1268 H 0.98919 0.36673 0.76709 0.0
C1269 C 0.07561 0.39142 0.70709 0.0
C1270 C 0.09577 0.40235 0.72431 0.0
C1271 C 0.09606 0.41239 0.77298 0.0
C1272 C 0.07652 0.41165 0.80396 0.0
C1273 C 0.05693 0.40071 0.7857 0.0
C1274 C 0.05641 0.39068 0.73848 0.0
C1275 C 0.03362 0.37916 0.72842 0.0
C1276 C 0.02136 0.39023 0.68313 0.0
C1277 C 0.03666 0.35331 0.72053 0.0
C1278 C 0.02132 0.38419 0.7775 0.0
C1279 C 0.03501 0.39677 0.80988 0.0
C1280 C 0.0275 0.40319 0.85773 0.0
C1281 C 1.0056 0.39629 0.87317 0.0
C1282 C 0.99142 0.38293 0.84108 0.0
C1283 C 0.99942 0.37711 0.79233 0.0
H1284 H 0.38684 0.6123 0.02373 0.0
H1285 H 0.43346 0.59097 0.90546 0.0
H1286 H 0.42528 0.55059 0.92516 0.0
H1287 H 0.39834 0.56423 0.11274 0.0
H1288 H 0.36876 0.56203 0.13144 0.0
H1289 H 0.38041 0.58924 0.11242 0.0
H1290 H 0.3485 0.59305 0.0449 0.0
H1291 H 0.33695 0.56574 0.06321 0.0
H1292 H 0.34494 0.57087 0.99831 0.0
H1293 H 0.40988 0.51283 0.95214 0.0
H1294 H 0.38965 0.47967 0.98802 0.0
H1295 H 0.35156 0.52481 0.08719 0.0
C1296 C 0.39586 0.59906 0.00333 0.0
C1297 C 0.41109 0.60465 0.96367 0.0
C1298 C 0.42194 0.58695 0.93633 0.0
C1299 C 0.41736 0.56399 0.94716 0.0
C1300 C 0.40172 0.55893 0.98528 0.0
C1301 C 0.39122 0.57589 0.01328 0.0
C1302 C 0.37393 0.56566 0.04978 0.0
C1303 C 0.38078 0.57058 0.10487 0.0
C1304 C 0.34965 0.57435 0.03834 0.0
C1305 C 0.37624 0.54043 0.03743 0.0
C1306 C 0.39242 0.53698 1.00022 0.0
C1307 C 0.39723 0.51529 0.98151 0.0
C1308 C 0.38542 0.49652 1.0018 0.0
C1309 C 0.36887 0.49948 0.04042 0.0
C1310 C 0.36424 0.52186 0.05814 0.0
H1311 H 0.58947 0.62529 0.08406 0.0
H1312 H 0.62411 0.59999 0.95023 0.0
H1313 H 0.58893 0.60653 0.90002 0.0
H1314 H 0.53334 0.60195 0.05665 0.0
H1315 H 0.51839 0.62655 0.08064 0.0
H1316 H 0.54587 0.61889 0.10642 0.0
H1317 H 0.56136 0.65936 0.08592 0.0
H1318 H 0.53392 0.66717 0.06029 0.0
H1319 H 0.55931 0.67012 0.02214 0.0
H1320 H 0.55017 0.61639 0.86448 0.0
H1321 H 0.51158 0.63066 0.8447 0.0
H1322 H 0.50257 0.65074 1.00141 0.0
C1323 C 0.58964 0.62092 0.04427 0.0
C1324 C 0.60951 0.61199 0.02106 0.0
C1325 C 0.60909 0.60682 0.96876 0.0
C1326 C 0.58917 0.61041 0.94004 0.0
C1327 C 0.56989 0.61925 0.96416 0.0
C1328 C 0.57001 0.62456 0.01504 0.0
C1329 C 0.54738 0.63481 0.03142 0.0
C1330 C 0.53555 0.61964 0.07113 0.0
C1331 C 0.5507 0.65932 0.05109 0.0
C1332 C 0.53447 0.63456 0.98171 0.0
C1333 C 0.54772 0.62536 0.94351 0.0
C1334 C 0.5397 0.62368 0.89408 0.0
C1335 C 0.51775 0.63197 0.88318 0.0
C1336 C 0.50401 0.64202 0.92138 0.0
C1337 C 0.51247 0.64296 0.97148 0.0
H1338 H 0.65838 0.49106 0.09836 0.0
H1339 H 0.62863 0.53738 0.98832 0.0
H1340 H 0.61136 0.50474 0.94363 0.0
H1341 H 0.67262 0.44712 0.01088 0.0
H1342 H 0.66587 0.42387 0.05311 0.0
H1343 H 0.67496 0.45094 0.07837 0.0
H1344 H 0.63812 0.45287 0.13263 0.0
H1345 H 0.62884 0.42583 0.10729 0.0
H1346 H 0.61059 0.45049 0.10227 0.0
H1347 H 0.59862 0.46779 0.90906 0.0
H1348 H 0.59247 0.42794 0.88321 0.0
H1349 H 0.62987 0.40442 0.01524 0.0
C1350 C 0.64802 0.49429 0.06517 0.0
C1351 C 0.64491 0.51677 0.0467 0.0
C1352 C 0.63153 0.52032 1.00272 0.0
C1353 C 0.62145 0.5019 0.97738 0.0
C1354 C 0.62488 0.48 0.99647 0.0
C1355 C 0.63789 0.47601 0.03917 0.0
C1356 C 0.63972 0.45059 0.05001 0.0
C1357 C 0.66478 0.44267 0.04795 0.0
C1358 C 0.62865 0.4446 0.10109 0.0
C1359 C 0.62594 0.44095 0.00624 0.0
C1360 C 0.61742 0.45834 0.97624 0.0
C1361 C 0.60505 0.45401 0.93237 0.0
C1362 C 0.6017 0.43131 0.91799 0.0
C1363 C 0.61064 0.41314 0.94732 0.0
C1364 C 0.62254 0.41799 0.99263 0.0
H1365 H 0.40703 0.39365 0.97217 0.0
H1366 H 0.43008 0.42995 0.10595 0.0
H1367 H 0.47015 0.42277 0.08225 0.0
H1368 H 0.44797 0.34997 0.97835 0.0
H1369 H 0.45242 0.34768 0.91106 0.0
H1370 H 0.4254 0.35764 0.93503 0.0
H1371 H 0.42918 0.39465 0.88186 0.0
H1372 H 0.45612 0.38469 0.85726 0.0
H1373 H 0.45449 0.41207 0.88809 0.0
H1374 H 0.5074 0.40907 0.04886 0.0
H1375 H 0.53996 0.39142 0.00451 0.0
H1376 H 0.49341 0.36347 0.89248 0.0
C1377 C 0.42055 0.40058 0.99565 0.0
C1378 C 0.41547 0.41246 0.04077 0.0
C1379 C 0.43359 0.42081 0.07122 0.0
C1380 C 0.45642 0.41684 0.05808 0.0
C1381 C 0.46091 0.40448 0.01431 0.0
C1382 C 0.44356 0.39663 0.9832 0.0
C1383 C 0.4532 0.38276 0.93974 0.0
C1384 C 0.44421 0.35805 0.94116 0.0
C1385 C 0.44794 0.39423 0.88871 0.0
C1386 C 0.47857 0.38379 0.95186 0.0
C1387 C 0.48259 0.39646 0.99498 0.0
C1388 C 0.50451 0.39923 0.01481 0.0
C1389 C 0.52288 0.38894 0.98964 0.0
C1390 C 0.51927 0.37601 0.94507 0.0
C1391 C 0.49675 0.37347 0.92609 0.0
H1392 H 0.87839 0.43574 0.83099 0.0
H1393 H 0.91413 0.39899 0.71251 0.0
H1394 H 0.91255 0.43343 0.65817 0.0
H1395 H 0.84036 0.46708 0.74799 0.0
H1396 H 0.84104 0.49256 0.78616 0.0
H1397 H 0.84488 0.46501 0.81533 0.0
H1398 H 0.88337 0.47862 0.85358 0.0
H1399 H 0.87971 0.50617 0.82437 0.0
H1400 H 0.90525 0.48985 0.81236 0.0
H1401 H 0.90853 0.47222 0.61877 0.0
H1402 H 0.90086 0.51163 0.59409 0.0
H1403 H 0.86586 0.52301 0.73712 0.0
C1404 C 0.88588 0.43489 0.79357 0.0
C1405 C 0.89648 0.41469 0.77596 0.0
C1406 C 0.90589 0.41425 0.72666 0.0
C1407 C 0.90512 0.43374 0.69565 0.0
C1408 C 0.89468 0.45341 0.71439 0.0
C1409 C 0.88505 0.45407 0.76202 0.0
C1410 C 0.87468 0.47729 0.77295 0.0
C1411 C 0.8487 0.47536 0.78107 0.0
C1412 C 0.88647 0.48865 0.81851 0.0
C1413 C 0.88021 0.48972 0.72414 0.0
C1414 C 0.89179 0.47562 0.69105 0.0
C1415 C 0.89921 0.48332 0.64412 0.0
C1416 C 0.89457 0.50594 0.63037 0.0
C1417 C 0.88236 0.52084 0.66315 0.0
C1418 C 0.87519 0.51239 0.71086 0.0
H1419 H 0.51013 0.12161 0.34228 0.0
H1420 H 0.53053 0.18344 0.26344 0.0
H1421 H 0.49159 0.18708 0.22859 0.0
H1422 H 0.47533 0.09938 0.24524 0.0
H1423 H 0.45382 0.08773 0.28682 0.0
H1424 H 0.48282 0.09085 0.3087 0.0
H1425 H 0.4686 0.11497 0.3845 0.0
H1426 H 0.43952 0.112 0.36266 0.0
H1427 H 0.45148 0.14002 0.37293 0.0
H1428 H 0.45183 0.18273 0.19756 0.0
H1429 H 0.41366 0.16996 0.16963 0.0
H1430 H 0.4178 0.11153 0.27013 0.0
C1431 C 0.5063 0.13612 0.31839 0.0
C1432 C 0.52345 0.15224 0.30557 0.0
C1433 C 0.51783 0.17073 0.2733 0.0
C1434 C 0.49567 0.17307 0.25374 0.0
C1435 C 0.47925 0.15686 0.26696 0.0
C1436 C 0.48423 0.13872 0.29849 0.0
C1437 C 0.46371 0.12298 0.30426 0.0
C1438 C 0.46926 0.09881 0.2851 0.0
C1439 C 0.45534 0.12247 0.35937 0.0
C1440 C 0.44658 0.13485 0.2701 0.0
C1441 C 0.45593 0.15448 0.24941 0.0
C1442 C 0.4442 0.1676 0.21403 0.0
C1443 C 0.42256 0.1602 0.19838 0.0
C1444 C 0.41279 0.13997 0.21826 0.0
C1445 C 0.42471 0.12738 0.25543 0.0
H1446 H 0.15111 0.48998 0.73454 0.0
H1447 H 0.1535 0.51101 0.57712 0.0
H1448 H 0.1488 0.55115 0.60287 0.0
H1449 H 0.10888 0.52875 0.77391 0.0
H1450 H 0.12155 0.53448 0.83479 0.0
H1451 H 0.12638 0.50745 0.80432 0.0
H1452 H 0.17022 0.51367 0.81012 0.0
H1453 H 0.16553 0.54065 0.84111 0.0
H1454 H 0.18265 0.5394 0.78447 0.0
H1455 H 0.14105 0.58896 0.64557 0.0
H1456 H 0.13362 0.62159 0.70289 0.0
H1457 H 0.13772 0.57583 0.83192 0.0
C1458 C 0.15113 0.50302 0.70552 0.0
C1459 C 0.1525 0.49722 0.65372 0.0
C1460 C 0.1521 0.51492 0.61699 0.0
C1461 C 0.14954 0.53783 0.63123 0.0
C1462 C 0.14763 0.54289 0.68247 0.0
C1463 C 0.14868 0.52602 0.71909 0.0
C1464 C 0.14572 0.53597 0.77151 0.0
C1465 C 0.12436 0.52607 0.79764 0.0
C1466 C 0.16732 0.5322 0.80369 0.0
C1467 C 0.14256 0.56097 0.75854 0.0
C1468 C 0.14366 0.56466 0.70701 0.0
C1469 C 0.1404 0.58632 0.68608 0.0
C1470 C 0.13609 0.60472 0.71882 0.0
C1471 C 0.13522 0.6013 0.77181 0.0
C1472 C 0.1385 0.57909 0.79161 0.0
H1473 H 0.57565 0.86729 0.19561 0.0
H1474 H 0.60863 0.9105 0.30741 0.0
H1475 H 0.57315 0.90984 0.35882 0.0
H1476 H 0.52055 0.89242 0.2018 0.0
H1477 H 0.50534 0.86582 0.19441 0.0
H1478 H 0.53344 0.86917 0.16752 0.0
H1479 H 0.54743 0.83346 0.21652 0.0
H1480 H 0.51932 0.82993 0.24333 0.0
H1481 H 0.54391 0.8322 0.28423 0.0
H1482 H 0.53332 0.90586 0.39535 0.0
H1483 H 0.49332 0.89771 0.41683 0.0
H1484 H 0.48699 0.85569 0.28204 0.0
C1485 C 0.57552 0.87657 0.23102 0.0
C1486 C 0.59491 0.88903 0.24749 0.0
C1487 C 0.59401 0.90081 0.29416 0.0
C1488 C 0.57392 0.90056 0.32348 0.0
C1489 C 0.55504 0.8883 0.30572 0.0
C1490 C 0.55576 0.87637 0.26075 0.0
C1491 C 0.53318 0.86458 0.24986 0.0
C1492 C 0.5225 0.87354 0.20047 0.0
C1493 C 0.53614 0.83849 0.24842 0.0
C1494 C 0.51945 0.87192 0.29552 0.0
C1495 C 0.53235 0.88561 0.32721 0.0
C1496 C 0.52318 0.89492 0.3711 0.0
C1497 C 0.50032 0.89002 0.38309 0.0
C1498 C 0.48671 0.87576 0.35156 0.0
C1499 C 0.49663 0.86669 0.30709 0.0
H1500 H 0.89037 0.10776 0.5319 0.0
H1501 H 0.9258 0.08642 0.39581 0.0
H1502 H 0.91848 0.04612 0.41729 0.0
H1503 H 0.90872 0.05905 0.61276 0.0
H1504 H 0.88137 0.05717 0.64397 0.0
H1505 H 0.89155 0.08432 0.62091 0.0
H1506 H 0.85432 0.08902 0.56874 0.0
H1507 H 0.84415 0.06178 0.59109 0.0
H1508 H 0.84628 0.06718 0.52409 0.0
H1509 H 0.90454 0.00842 0.4488 0.0
H1510 H 0.88688 0.97538 0.49187 0.0
H1511 H 0.85977 0.02063 0.60703 0.0
C1512 C 0.89716 0.09454 0.50757 0.0
C1513 C 0.90884 0.10018 0.46243 0.0
C1514 C 0.91689 0.08246 0.43068 0.0
C1515 C 0.9128 0.0595 0.44251 0.0
C1516 C 0.90059 0.05446 0.48628 0.0
C1517 C 0.89305 0.0714 0.51867 0.0
C1518 C 0.8792 0.06123 0.56175 0.0
C1519 C 0.89091 0.06571 0.61288 0.0
C1520 C 0.85453 0.07035 0.56136 0.0
C1521 C 0.87992 0.03606 0.54801 0.0
C1522 C 0.89239 0.03256 0.50439 0.0
C1523 C 0.89487 0.0109 0.48326 0.0
C1524 C 0.88458 0.99224 0.50772 0.0
C1525 C 0.87194 0.99531 0.5529 0.0
C1526 C 0.86959 0.01762 0.573 0.0
H1527 H 0.08425 0.13489 0.58269 0.0
H1528 H 0.12067 0.11083 0.45001 0.0
H1529 H 0.08577 0.11699 0.39833 0.0
H1530 H 0.03017 0.10952 0.55403 0.0
H1531 H 0.01382 0.1332 0.57804 0.0
H1532 H 0.04161 0.12704 0.6041 0.0
H1533 H 0.05495 0.16831 0.58403 0.0
H1534 H 0.02715 0.17466 0.55828 0.0
H1535 H 0.0524 0.17908 0.52035 0.0
H1536 H 0.04648 0.12534 0.36205 0.0
H1537 H 1.00686 0.13676 0.34272 0.0
H1538 H 0.99672 0.15591 0.49966 0.0
C1539 C 0.085 0.1309 0.54272 0.0
C1540 C 0.10521 0.12232 0.52033 0.0
C1541 C 0.10541 0.11747 0.46789 0.0
C1542 C 0.08565 0.12084 0.43836 0.0
C1543 C 0.06596 0.12912 0.46193 0.0
C1544 C 0.06558 0.13422 0.51289 0.0
C1545 C 0.04242 0.14315 0.52922 0.0
C1546 C 0.03136 0.12728 0.56868 0.0
C1547 C 0.04436 0.16776 0.54913 0.0
C1548 C 0.0297 0.1423 0.47943 0.0
C1549 C 0.04354 0.1341 0.44111 0.0
C1550 C 0.03557 0.13189 0.39173 0.0
C1551 C 0.01304 0.13855 0.38111 0.0
C1552 C 0.99865 0.14741 0.4196 0.0
C1553 C 1.00714 0.14901 0.46951 0.0
H1554 H 0.12002 0.93139 0.42362 0.0
H1555 H 0.1156 0.89198 0.5626 0.0
H1556 H 0.12557 0.92648 0.6117 0.0
H1557 H 0.16782 0.96709 0.46068 0.0
H1558 H 0.15671 0.99227 0.43012 0.0
H1559 H 0.14985 0.9644 0.40553 0.0
H1560 H 0.10659 0.9734 0.4126 0.0
H1561 H 0.11331 1.00134 0.43684 0.0
H1562 H 0.09501 0.98245 0.47251 0.0
H1563 H 0.13537 0.96507 0.6456 0.0
H1564 H 0.14241 1.0058 0.66306 0.0
H1565 H 0.14025 0.02062 0.50235 0.0
C1566 C 0.1212 0.92996 0.46439 0.0
C1567 C 0.11705 0.90894 0.48931 0.0
C1568 C 0.11865 0.90788 0.54271 0.0
C1569 C 0.12441 0.92736 0.57088 0.0
C1570 C 0.1285 0.94776 0.54508 0.0
C1571 C 0.12687 0.94924 0.49308 0.0
C1572 C 0.13141 0.97342 0.4748 0.0
C1573 C 0.15272 0.97434 0.44077 0.0
C1574 C 0.11032 0.98323 0.4476 0.0
C1575 C 0.13566 0.98537 0.52477 0.0
C1576 C 0.13404 0.97016 0.56471 0.0
C1577 C 0.13667 0.97712 0.61465 0.0
C1578 C 0.14057 1.00031 0.62418 0.0
C1579 C 0.14174 0.01637 0.58407 0.0
C1580 C 0.13969 0.00868 0.53362 0.0
H1581 H 0.99803 0.88357 0.41512 0.0
H1582 H 0.02258 0.8396 0.53607 0.0
H1583 H 0.98627 0.84503 0.58144 0.0
H1584 H 0.96828 0.92321 0.49247 0.0
H1585 H 0.94465 0.92689 0.44938 0.0
H1586 H 0.97246 0.91934 0.42544 0.0
H1587 H 0.95507 0.88386 0.38131 0.0
H1588 H 0.92718 0.8913 0.4051 0.0
H1589 H 0.93895 0.86348 0.41808 0.0
H1590 H 0.94839 0.85617 0.61544 0.0
H1591 H 0.91063 0.87198 0.63616 0.0
H1592 H 0.90894 0.90744 0.49187 0.0
C1593 C 0.99578 0.87479 0.45079 0.0
C1594 C 0.01345 0.86117 0.4719 0.0
C1595 C 0.00965 0.85039 0.51922 0.0
C1596 C 0.98895 0.85322 0.54519 0.0
C1597 C 0.97204 0.86676 0.52332 0.0
C1598 C 0.97512 0.87731 0.47713 0.0
C1599 C 0.95418 0.89122 0.46252 0.0
C1600 C 0.96027 0.91667 0.45715 0.0
C1601 C 0.9432 0.8819 0.41386 0.0
C1602 C 0.93895 0.88702 0.5081 0.0
C1603 C 0.94972 0.87285 0.54259 0.0
C1604 C 0.93973 0.86714 0.58862 0.0
C1605 C 0.91829 0.87631 0.60008 0.0
C1606 C 0.90685 0.89092 0.5656 0.0
C1607 C 0.9172 0.8961 0.51862 0.0
loop_
_geom_bond_atom_site_label_1
_geom_bond_atom_site_label_2
_geom_bond_distance
_geom_bond_site_symmetry_2
_ccdc_geom_bond_type
C0 C1 1.351 . S
C0 N3 1.368 . S
C0 H5 0.931 . S
C1 C0 1.351 . S
C1 N2 1.373 . S
C1 H29 0.930 . S
N2 C1 1.373 . S
N2 C4 1.340 . S
N3 C0 1.368 . S
N3 C4 1.321 . S
N3 Co6 2.135 . S
C4 N2 1.340 . S
C4 N3 1.321 . S
C4 H28 0.930 . S
H5 C0 0.931 . S
Co6 N3 2.135 . S
Co6 N9 2.121 . S
Co6 O14 2.055 . S
Co6 O17 2.039 . S
Co6 N20 2.140 . S
C7 O8 1.227 . S
C7 O17 1.265 . S
O8 C7 1.227 . S
N9 Co6 2.121 . S
N9 C11 1.375 . S
N9 C12 1.313 . S
C10 C11 1.338 . S
C10 N13 1.377 . S
C10 H30 0.930 . S
C11 N9 1.375 . S
C11 C10 1.338 . S
C11 H15 0.931 . S
C12 N9 1.313 . S
C12 N13 1.344 . S
C12 H16 0.930 . S
N13 C10 1.377 . S
N13 C12 1.344 . S
O14 Co6 2.055 . S
O14 C18 1.253 . S
H15 C11 0.931 . S
H16 C12 0.930 . S
O17 Co6 2.039 . S
O17 C7 1.265 . S
C18 O14 1.253 . S
C18 O19 1.227 . S
O19 C18 1.227 . S
N20 Co6 2.140 . S
N20 C23 1.346 . S
N20 C24 1.345 . S
C21 C22 1.387 . S
C21 C25 1.391 . S
C22 C21 1.387 . S
C22 C23 1.369 . S
C22 H31 0.929 . S
C23 N20 1.346 . S
C23 C22 1.369 . S
C23 H26 0.928 . S
C24 N20 1.345 . S
C24 C25 1.371 . S
C24 H27 0.931 . S
C25 C21 1.391 . S
C25 C24 1.371 . S
C25 H32 0.930 . S
H26 C23 0.928 . S
H27 C24 0.931 . S
H28 C4 0.930 . S
H29 C1 0.930 . S
H30 C10 0.930 . S
H31 C22 0.929 . S
H32 C25 0.930 . S
C33 C34 1.351 . S
C33 N36 1.368 . S
C33 H38 0.931 . S
C34 C33 1.351 . S
C34 N35 1.373 . S
C34 H62 0.930 . S
N35 C34 1.373 . S
N35 C37 1.340 . S
N36 C33 1.368 . S
N36 C37 1.321 . S
N36 Co39 2.135 . S
C37 N35 1.340 . S
C37 N36 1.321 . S
C37 H61 0.930 . S
H38 C33 0.931 . S
Co39 N36 2.135 . S
Co39 N42 2.121 . S
Co39 O47 2.055 . S
Co39 O50 2.039 . S
Co39 N53 2.140 . S
C40 O41 1.227 . S
C40 O50 1.265 . S
O41 C40 1.227 . S
N42 Co39 2.121 . S
N42 C44 1.375 . S
N42 C45 1.313 . S
C43 C44 1.338 . S
C43 N46 1.377 . S
C43 H63 0.930 . S
C44 N42 1.375 . S
C44 C43 1.338 . S
C44 H48 0.931 . S
C45 N42 1.313 . S
C45 N46 1.344 . S
C45 H49 0.930 . S
N46 C43 1.377 . S
N46 C45 1.344 . S
O47 Co39 2.055 . S
O47 C51 1.253 . S
H48 C44 0.931 . S
H49 C45 0.930 . S
O50 Co39 2.039 . S
O50 C40 1.265 . S
C51 O47 1.253 . S
C51 O52 1.227 . S
O52 C51 1.227 . S
N53 Co39 2.140 . S
N53 C56 1.346 . S
N53 C57 1.345 . S
C54 C55 1.387 . S
C54 C58 1.391 . S
C55 C54 1.387 . S
C55 C56 1.369 . S
C55 H64 0.929 . S
C56 N53 1.346 . S
C56 C55 1.369 . S
C56 H59 0.928 . S
C57 N53 1.345 . S
C57 C58 1.371 . S
C57 H60 0.931 . S
C58 C54 1.391 . S
C58 C57 1.371 . S
C58 H65 0.930 . S
H59 C56 0.928 . S
H60 C57 0.931 . S
H61 C37 0.930 . S
H62 C34 0.930 . S
H63 C43 0.930 . S
H64 C55 0.929 . S
H65 C58 0.930 . S
C66 C67 1.351 . S
C66 N69 1.368 . S
C66 H71 0.931 . S
C67 C66 1.351 . S
C67 N68 1.373 . S
C67 H95 0.930 . S
N68 C67 1.373 . S
N68 C70 1.340 . S
N69 C66 1.368 . S
N69 C70 1.321 . S
N69 Co72 2.135 . S
C70 N68 1.340 . S
C70 N69 1.321 . S
C70 H94 0.930 . S
H71 C66 0.931 . S
Co72 N69 2.135 . S
Co72 N75 2.121 . S
Co72 O80 2.055 . S
Co72 O83 2.039 . S
Co72 N86 2.140 . S
C73 O74 1.227 . S
C73 O83 1.265 . S
O74 C73 1.227 . S
N75 Co72 2.121 . S
N75 C77 1.375 . S
N75 C78 1.313 . S
C76 C77 1.338 . S
C76 N79 1.377 . S
C76 H96 0.930 . S
C77 N75 1.375 . S
C77 C76 1.338 . S
C77 H81 0.931 . S
C78 N75 1.313 . S
C78 N79 1.344 . S
C78 H82 0.930 . S
N79 C76 1.377 . S
N79 C78 1.344 . S
O80 Co72 2.055 . S
O80 C84 1.253 . S
H81 C77 0.931 . S
H82 C78 0.930 . S
O83 Co72 2.039 . S
O83 C73 1.265 . S
C84 O80 1.253 . S
C84 O85 1.227 . S
O85 C84 1.227 . S
N86 Co72 2.140 . S
N86 C89 1.346 . S
N86 C90 1.345 . S
C87 C88 1.387 . S
C87 C91 1.391 . S
C88 C87 1.387 . S
C88 C89 1.369 . S
C88 H97 0.929 . S
C89 N86 1.346 . S
C89 C88 1.369 . S
C89 H92 0.928 . S
C90 N86 1.345 . S
C90 C91 1.371 . S
C90 H93 0.931 . S
C91 C87 1.391 . S
C91 C90 1.371 . S
C91 H98 0.930 . S
H92 C89 0.928 . S
H93 C90 0.931 . S
H94 C70 0.930 . S
H95 C67 0.930 . S
H96 C76 0.930 . S
H97 C88 0.929 . S
H98 C91 0.930 . S
C99 C100 1.351 . S
C99 N102 1.368 . S
C99 H104 0.931 . S
C100 C99 1.351 . S
C100 N101 1.373 . S
C100 H128 0.930 . S
N101 C100 1.373 . S
N101 C103 1.340 . S
N102 C99 1.368 . S
N102 C103 1.321 . S
N102 Co105 2.135 . S
C103 N101 1.340 . S
C103 N102 1.321 . S
C103 H127 0.930 . S
H104 C99 0.931 . S
Co105 N102 2.135 . S
Co105 N108 2.121 . S
Co105 O113 2.055 . S
Co105 O116 2.039 . S
Co105 N119 2.140 . S
C106 O107 1.227 . S
C106 O116 1.265 . S
O107 C106 1.227 . S
N108 Co105 2.121 . S
N108 C110 1.375 . S
N108 C111 1.313 . S
C109 C110 1.338 . S
C109 N112 1.377 . S
C109 H129 0.930 . S
C110 N108 1.375 . S
C110 C109 1.338 . S
C110 H114 0.931 . S
C111 N108 1.313 . S
C111 N112 1.344 . S
C111 H115 0.930 . S
N112 C109 1.377 . S
N112 C111 1.344 . S
O113 Co105 2.055 . S
O113 C117 1.253 . S
H114 C110 0.931 . S
H115 C111 0.930 . S
O116 Co105 2.039 . S
O116 C106 1.265 . S
C117 O113 1.253 . S
C117 O118 1.227 . S
O118 C117 1.227 . S
N119 Co105 2.140 . S
N119 C122 1.346 . S
N119 C123 1.345 . S
C120 C121 1.387 . S
C120 C124 1.391 . S
C121 C120 1.387 . S
C121 C122 1.369 . S
C121 H130 0.929 . S
C122 N119 1.346 . S
C122 C121 1.369 . S
C122 H125 0.928 . S
C123 N119 1.345 . S
C123 C124 1.371 . S
C123 H126 0.931 . S
C124 C120 1.391 . S
C124 C123 1.371 . S
C124 H131 0.930 . S
H125 C122 0.928 . S
H126 C123 0.931 . S
H127 C103 0.930 . S
H128 C100 0.930 . S
H129 C109 0.930 . S
H130 C121 0.929 . S
H131 C124 0.930 . S
C132 C133 1.351 . S
C132 N135 1.368 . S
C132 H137 0.931 . S
C133 C132 1.351 . S
C133 N134 1.373 . S
C133 H161 0.930 . S
N134 C133 1.373 . S
N134 C136 1.340 . S
N135 C132 1.368 . S
N135 C136 1.321 . S
N135 Co138 2.135 . S
C136 N134 1.340 . S
C136 N135 1.321 . S
C136 H160 0.930 . S
H137 C132 0.931 . S
Co138 N135 2.135 . S
Co138 N141 2.121 . S
Co138 O146 2.055 . S
Co138 O149 2.039 1_554 S
Co138 N152 2.140 . S
C139 O140 1.227 . S
C139 O149 1.265 1_554 S
O140 C139 1.227 . S
N141 Co138 2.121 . S
N141 C143 1.375 . S
N141 C144 1.313 . S
C142 C143 1.338 . S
C142 N145 1.377 . S
C142 H162 0.930 . S
C143 N141 1.375 . S
C143 C142 1.338 . S
C143 H147 0.931 . S
C144 N141 1.313 . S
C144 N145 1.344 . S
C144 H148 0.930 . S
N145 C142 1.377 . S
N145 C144 1.344 . S
O146 Co138 2.055 . S
O146 C150 1.253 . S
H147 C143 0.931 . S
H148 C144 0.930 . S
O149 Co138 2.039 1_556 S
O149 C139 1.265 1_556 S
C150 O146 1.253 . S
C150 O151 1.227 . S
O151 C150 1.227 . S
N152 Co138 2.140 . S
N152 C155 1.346 . S
N152 C156 1.345 . S
C153 C154 1.387 . S
C153 C157 1.391 . S
C154 C153 1.387 . S
C154 C155 1.369 . S
C154 H163 0.929 . S
C155 N152 1.346 . S
C155 C154 1.369 . S
C155 H158 0.928 . S
C156 N152 1.345 . S
C156 C157 1.371 . S
C156 H159 0.931 . S
C157 C153 1.391 . S
C157 C156 1.371 . S
C157 H164 0.930 . S
H158 C155 0.928 . S
H159 C156 0.931 . S
H160 C136 0.930 . S
H161 C133 0.930 . S
H162 C142 0.930 . S
H163 C154 0.929 . S
H164 C157 0.930 . S
C165 C166 1.351 . S
C165 N168 1.368 . S
C165 H170 0.931 . S
C166 C165 1.351 . S
C166 N167 1.373 . S
C166 H194 0.930 . S
N167 C166 1.373 . S
N167 C169 1.340 . S
N168 C165 1.368 . S
N168 C169 1.321 . S
N168 Co171 2.135 . S
C169 N167 1.340 . S
C169 N168 1.321 . S
C169 H193 0.930 . S
H170 C165 0.931 . S
Co171 N168 2.135 . S
Co171 N174 2.121 . S
Co171 O179 2.055 . S
Co171 O182 2.039 1_556 S
Co171 N185 2.140 . S
C172 O173 1.227 . S
C172 O182 1.265 1_556 S
O173 C172 1.227 . S
N174 Co171 2.121 . S
N174 C176 1.375 . S
N174 C177 1.313 . S
C175 C176 1.338 . S
C175 N178 1.377 . S
C175 H195 0.930 . S
C176 N174 1.375 . S
C176 C175 1.338 . S
C176 H180 0.931 . S
C177 N174 1.313 . S
C177 N178 1.344 . S
C177 H181 0.930 . S
N178 C175 1.377 . S
N178 C177 1.344 . S
O179 Co171 2.055 . S
O179 C183 1.253 . S
H180 C176 0.931 . S
H181 C177 0.930 . S
O182 Co171 2.039 1_554 S
O182 C172 1.265 1_554 S
C183 O179 1.253 . S
C183 O184 1.227 . S
O184 C183 1.227 . S
N185 Co171 2.140 . S
N185 C188 1.346 . S
N185 C189 1.345 . S
C186 C187 1.387 . S
C186 C190 1.391 . S
C187 C186 1.387 . S
C187 C188 1.369 . S
C187 H196 0.929 . S
C188 N185 1.346 . S
C188 C187 1.369 . S
C188 H191 0.928 . S
C189 N185 1.345 . S
C189 C190 1.371 . S
C189 H192 0.931 . S
C190 C186 1.391 . S
C190 C189 1.371 . S
C190 H197 0.930 . S
H191 C188 0.928 . S
H192 C189 0.931 . S
H193 C169 0.930 . S
H194 C166 0.930 . S
H195 C175 0.930 . S
H196 C187 0.929 . S
H197 C190 0.930 . S
C198 C199 1.351 . S
C198 N201 1.368 . S
C198 H203 0.931 . S
C199 C198 1.351 . S
C199 N200 1.373 . S
C199 H227 0.930 . S
N200 C199 1.373 . S
N200 C202 1.340 . S
N201 C198 1.368 . S
N201 C202 1.321 . S
N201 Co204 2.135 . S
C202 N200 1.340 . S
C202 N201 1.321 . S
C202 H226 0.930 . S
H203 C198 0.931 . S
Co204 N201 2.135 . S
Co204 N207 2.121 . S
Co204 O212 2.055 . S
Co204 O215 2.039 1_554 S
Co204 N218 2.140 . S
C205 O206 1.227 . S
C205 O215 1.265 1_554 S
O206 C205 1.227 . S
N207 Co204 2.121 . S
N207 C209 1.375 . S
N207 C210 1.313 . S
C208 C209 1.338 . S
C208 N211 1.377 . S
C208 H228 0.930 . S
C209 N207 1.375 . S
C209 C208 1.338 . S
C209 H213 0.931 . S
C210 N207 1.313 . S
C210 N211 1.344 . S
C210 H214 0.930 . S
N211 C208 1.377 . S
N211 C210 1.344 . S
O212 Co204 2.055 . S
O212 C216 1.253 . S
H213 C209 0.931 . S
H214 C210 0.930 . S
O215 Co204 2.039 1_556 S
O215 C205 1.265 1_556 S
C216 O212 1.253 . S
C216 O217 1.227 . S
O217 C216 1.227 . S
N218 Co204 2.140 . S
N218 C221 1.346 . S
N218 C222 1.345 . S
C219 C220 1.387 . S
C219 C223 1.391 . S
C220 C219 1.387 . S
C220 C221 1.369 . S
C220 H229 0.929 . S
C221 N218 1.346 . S
C221 C220 1.369 . S
C221 H224 0.928 . S
C222 N218 1.345 . S
C222 C223 1.371 . S
C222 H225 0.931 . S
C223 C219 1.391 . S
C223 C222 1.371 . S
C223 H230 0.930 . S
H224 C221 0.928 . S
H225 C222 0.931 . S
H226 C202 0.930 . S
H227 C199 0.930 . S
H228 C208 0.930 . S
H229 C220 0.929 . S
H230 C223 0.930 . S
C231 C232 1.351 . S
C231 N234 1.368 . S
C231 H236 0.931 . S
C232 C231 1.351 . S
C232 N233 1.373 . S
C232 H260 0.930 . S
N233 C232 1.373 . S
N233 C235 1.340 . S
N234 C231 1.368 . S
N234 C235 1.321 . S
N234 Co237 2.135 . S
C235 N233 1.340 . S
C235 N234 1.321 . S
C235 H259 0.930 . S
H236 C231 0.931 . S
Co237 N234 2.135 . S
Co237 N240 2.121 . S
Co237 O245 2.055 . S
Co237 O248 2.039 1_556 S
Co237 N251 2.140 . S
C238 O239 1.227 . S
C238 O248 1.265 1_556 S
O239 C238 1.227 . S
N240 Co237 2.121 . S
N240 C242 1.375 . S
N240 C243 1.313 . S
C241 C242 1.338 . S
C241 N244 1.377 . S
C241 H261 0.930 . S
C242 N240 1.375 . S
C242 C241 1.338 . S
C242 H246 0.931 . S
C243 N240 1.313 . S
C243 N244 1.344 . S
C243 H247 0.930 . S
N244 C241 1.377 . S
N244 C243 1.344 . S
O245 Co237 2.055 . S
O245 C249 1.253 . S
H246 C242 0.931 . S
H247 C243 0.930 . S
O248 Co237 2.039 1_554 S
O248 C238 1.265 1_554 S
C249 O245 1.253 . S
C249 O250 1.227 . S
O250 C249 1.227 . S
N251 Co237 2.140 . S
N251 C254 1.346 . S
N251 C255 1.345 . S
C252 C253 1.387 . S
C252 C256 1.391 . S
C253 C252 1.387 . S
C253 C254 1.369 . S
C253 H262 0.929 . S
C254 N251 1.346 . S
C254 C253 1.369 . S
C254 H257 0.928 . S
C255 N251 1.345 . S
C255 C256 1.371 . S
C255 H258 0.931 . S
C256 C252 1.391 . S
C256 C255 1.371 . S
C256 H263 0.930 . S
H257 C254 0.928 . S
H258 C255 0.931 . S
H259 C235 0.930 . S
H260 C232 0.930 . S
H261 C241 0.930 . S
H262 C253 0.929 . S
H263 C256 0.930 . S
C264 C265 1.351 . S
C264 N267 1.368 . S
C264 H269 0.931 . S
C265 C264 1.351 . S
C265 N266 1.373 . S
C265 H293 0.930 . S
N266 C265 1.373 . S
N266 C268 1.340 . S
N267 C264 1.368 . S
N267 C268 1.321 . S
N267 Co270 2.135 . S
C268 N266 1.340 . S
C268 N267 1.321 . S
C268 H292 0.930 . S
H269 C264 0.931 . S
Co270 N267 2.135 . S
Co270 N273 2.121 . S
Co270 O278 2.055 . S
Co270 O281 2.039 . S
Co270 N284 2.140 . S
C271 O272 1.227 . S
C271 O281 1.265 . S
O272 C271 1.227 . S
N273 Co270 2.121 . S
N273 C275 1.375 . S
N273 C276 1.313 . S
C274 C275 1.338 . S
C274 N277 1.377 . S
C274 H294 0.930 . S
C275 N273 1.375 . S
C275 C274 1.338 . S
C275 H279 0.931 . S
C276 N273 1.313 . S
C276 N277 1.344 . S
C276 H280 0.930 . S
N277 C274 1.377 . S
N277 C276 1.344 . S
O278 Co270 2.055 . S
O278 C282 1.253 . S
H279 C275 0.931 . S
H280 C276 0.930 . S
O281 Co270 2.039 . S
O281 C271 1.265 . S
C282 O278 1.253 . S
C282 O283 1.227 . S
O283 C282 1.227 . S
N284 Co270 2.140 . S
N284 C287 1.346 . S
N284 C288 1.345 . S
C285 C286 1.387 . S
C285 C289 1.391 . S
C286 C285 1.387 . S
C286 C287 1.369 . S
C286 H295 0.929 . S
C287 N284 1.346 . S
C287 C286 1.369 . S
C287 H290 0.928 . S
C288 N284 1.345 . S
C288 C289 1.371 . S
C288 H291 0.931 . S
C289 C285 1.391 . S
C289 C288 1.371 . S
C289 H296 0.930 . S
H290 C287 0.928 . S
H291 C288 0.931 . S
H292 C268 0.930 . S
H293 C265 0.930 . S
H294 C274 0.930 . S
H295 C286 0.929 . S
H296 C289 0.930 . S
C297 C298 1.351 . S
C297 N300 1.368 . S
C297 H302 0.931 . S
C298 C297 1.351 . S
C298 N299 1.373 . S
C298 H326 0.930 . S
N299 C298 1.373 . S
N299 C301 1.340 . S
N300 C297 1.368 . S
N300 C301 1.321 . S
N300 Co303 2.135 . S
C301 N299 1.340 . S
C301 N300 1.321 . S
C301 H325 0.930 . S
H302 C297 0.931 . S
Co303 N300 2.135 . S
Co303 N306 2.121 . S
Co303 O311 2.055 . S
Co303 O314 2.039 . S
Co303 N317 2.140 . S
C304 O305 1.227 . S
C304 O314 1.265 . S
O305 C304 1.227 . S
N306 Co303 2.121 . S
N306 C308 1.375 . S
N306 C309 1.313 . S
C307 C308 1.338 . S
C307 N310 1.377 . S
C307 H327 0.930 . S
C308 N306 1.375 . S
C308 C307 1.338 . S
C308 H312 0.931 . S
C309 N306 1.313 . S
C309 N310 1.344 . S
C309 H313 0.930 . S
N310 C307 1.377 . S
N310 C309 1.344 . S
O311 Co303 2.055 . S
O311 C315 1.253 . S
H312 C308 0.931 . S
H313 C309 0.930 . S
O314 Co303 2.039 . S
O314 C304 1.265 . S
C315 O311 1.253 . S
C315 O316 1.227 . S
O316 C315 1.227 . S
N317 Co303 2.140 . S
N317 C320 1.346 . S
N317 C321 1.345 . S
C318 C319 1.387 . S
C318 C322 1.391 . S
C319 C318 1.387 . S
C319 C320 1.369 . S
C319 H328 0.929 . S
C320 N317 1.346 . S
C320 C319 1.369 . S
C320 H323 0.928 . S
C321 N317 1.345 . S
C321 C322 1.371 . S
C321 H324 0.931 . S
C322 C318 1.391 . S
C322 C321 1.371 . S
C322 H329 0.930 . S
H323 C320 0.928 . S
H324 C321 0.931 . S
H325 C301 0.930 . S
H326 C298 0.930 . S
H327 C307 0.930 . S
H328 C319 0.929 . S
H329 C322 0.930 . S
C330 C331 1.351 . S
C330 N333 1.368 . S
C330 H335 0.931 . S
C331 C330 1.351 . S
C331 N332 1.373 . S
C331 H359 0.930 . S
N332 C331 1.373 . S
N332 C334 1.340 . S
N333 C330 1.368 . S
N333 C334 1.321 . S
N333 Co336 2.135 . S
C334 N332 1.340 . S
C334 N333 1.321 . S
C334 H358 0.930 . S
H335 C330 0.931 . S
Co336 N333 2.135 . S
Co336 N339 2.121 . S
Co336 O344 2.055 . S
Co336 O347 2.039 . S
Co336 N350 2.140 . S
C337 O338 1.227 . S
C337 O347 1.265 . S
O338 C337 1.227 . S
N339 Co336 2.121 . S
N339 C341 1.375 . S
N339 C342 1.313 . S
C340 C341 1.338 . S
C340 N343 1.377 . S
C340 H360 0.930 . S
C341 N339 1.375 . S
C341 C340 1.338 . S
C341 H345 0.931 . S
C342 N339 1.313 . S
C342 N343 1.344 . S
C342 H346 0.930 . S
N343 C340 1.377 . S
N343 C342 1.344 . S
O344 Co336 2.055 . S
O344 C348 1.253 . S
H345 C341 0.931 . S
H346 C342 0.930 . S
O347 Co336 2.039 . S
O347 C337 1.265 . S
C348 O344 1.253 . S
C348 O349 1.227 . S
O349 C348 1.227 . S
N350 Co336 2.140 . S
N350 C353 1.346 . S
N350 C354 1.345 . S
C351 C352 1.387 . S
C351 C355 1.391 . S
C352 C351 1.387 . S
C352 C353 1.369 . S
C352 H361 0.929 . S
C353 N350 1.346 . S
C353 C352 1.369 . S
C353 H356 0.928 . S
C354 N350 1.345 . S
C354 C355 1.371 . S
C354 H357 0.931 . S
C355 C351 1.391 . S
C355 C354 1.371 . S
C355 H362 0.930 . S
H356 C353 0.928 . S
H357 C354 0.931 . S
H358 C334 0.930 . S
H359 C331 0.930 . S
H360 C340 0.930 . S
H361 C352 0.929 . S
H362 C355 0.930 . S
C363 C364 1.351 . S
C363 N366 1.368 . S
C363 H368 0.931 . S
C364 C363 1.351 . S
C364 N365 1.373 . S
C364 H392 0.930 . S
N365 C364 1.373 . S
N365 C367 1.340 . S
N366 C363 1.368 . S
N366 C367 1.321 . S
N366 Co369 2.135 . S
C367 N365 1.340 . S
C367 N366 1.321 . S
C367 H391 0.930 . S
H368 C363 0.931 . S
Co369 N366 2.135 . S
Co369 N372 2.121 . S
Co369 O377 2.055 . S
Co369 O380 2.039 . S
Co369 N383 2.140 . S
C370 O371 1.227 . S
C370 O380 1.265 . S
O371 C370 1.227 . S
N372 Co369 2.121 . S
N372 C374 1.375 . S
N372 C375 1.313 . S
C373 C374 1.338 . S
C373 N376 1.377 . S
C373 H393 0.930 . S
C374 N372 1.375 . S
C374 C373 1.338 . S
C374 H378 0.931 . S
C375 N372 1.313 . S
C375 N376 1.344 . S
C375 H379 0.930 . S
N376 C373 1.377 . S
N376 C375 1.344 . S
O377 Co369 2.055 . S
O377 C381 1.253 . S
H378 C374 0.931 . S
H379 C375 0.930 . S
O380 Co369 2.039 . S
O380 C370 1.265 . S
C381 O377 1.253 . S
C381 O382 1.227 . S
O382 C381 1.227 . S
N383 Co369 2.140 . S
N383 C386 1.346 . S
N383 C387 1.345 . S
C384 C385 1.387 . S
C384 C388 1.391 . S
C385 C384 1.387 . S
C385 C386 1.369 . S
C385 H394 0.929 . S
C386 N383 1.346 . S
C386 C385 1.369 . S
C386 H389 0.928 . S
C387 N383 1.345 . S
C387 C388 1.371 . S
C387 H390 0.931 . S
C388 C384 1.391 . S
C388 C387 1.371 . S
C388 H395 0.930 . S
H389 C386 0.928 . S
H390 C387 0.931 . S
H391 C367 0.930 . S
H392 C364 0.930 . S
H393 C373 0.930 . S
H394 C385 0.929 . S
H395 C388 0.930 . S
C396 C397 1.351 . S
C396 N399 1.368 . S
C396 H401 0.931 . S
C397 C396 1.351 . S
C397 N398 1.373 . S
C397 H425 0.930 . S
N398 C397 1.373 . S
N398 C400 1.340 . S
N399 C396 1.368 . S
N399 C400 1.321 . S
N399 Co402 2.135 . S
C400 N398 1.340 . S
C400 N399 1.321 . S
C400 H424 0.930 . S
H401 C396 0.931 . S
Co402 N399 2.135 . S
Co402 N405 2.121 . S
Co402 O410 2.055 . S
Co402 O413 2.039 . S
Co402 N416 2.140 . S
C403 O404 1.227 . S
C403 O413 1.265 . S
O404 C403 1.227 . S
N405 Co402 2.121 . S
N405 C407 1.375 . S
N405 C408 1.313 . S
C406 C407 1.338 . S
C406 N409 1.377 . S
C406 H426 0.930 . S
C407 N405 1.375 . S
C407 C406 1.338 . S
C407 H411 0.931 . S
C408 N405 1.313 . S
C408 N409 1.344 . S
C408 H412 0.930 . S
N409 C406 1.377 . S
N409 C408 1.344 . S
O410 Co402 2.055 . S
O410 C414 1.253 . S
H411 C407 0.931 . S
H412 C408 0.930 . S
O413 Co402 2.039 . S
O413 C403 1.265 . S
C414 O410 1.253 . S
C414 O415 1.227 . S
O415 C414 1.227 . S
N416 Co402 2.140 . S
N416 C419 1.346 . S
N416 C420 1.345 . S
C417 C418 1.387 . S
C417 C421 1.391 . S
C418 C417 1.387 . S
C418 C419 1.369 . S
C418 H427 0.929 . S
C419 N416 1.346 . S
C419 C418 1.369 . S
C419 H422 0.928 . S
C420 N416 1.345 . S
C420 C421 1.371 . S
C420 H423 0.931 . S
C421 C417 1.391 . S
C421 C420 1.371 . S
C421 H428 0.930 . S
H422 C419 0.928 . S
H423 C420 0.931 . S
H424 C400 0.930 . S
H425 C397 0.930 . S
H426 C406 0.930 . S
H427 C418 0.929 . S
H428 C421 0.930 . S
C429 C430 1.351 . S
C429 N432 1.368 . S
C429 H434 0.931 . S
C430 C429 1.351 . S
C430 N431 1.373 . S
C430 H458 0.930 . S
N431 C430 1.373 . S
N431 C433 1.340 . S
N432 C429 1.368 . S
N432 C433 1.321 . S
N432 Co435 2.135 . S
C433 N431 1.340 . S
C433 N432 1.321 . S
C433 H457 0.930 . S
H434 C429 0.931 . S
Co435 N432 2.135 . S
Co435 N438 2.121 . S
Co435 O443 2.055 . S
Co435 O446 2.039 . S
Co435 N449 2.140 . S
C436 O437 1.227 . S
C436 O446 1.265 . S
O437 C436 1.227 . S
N438 Co435 2.121 . S
N438 C440 1.375 . S
N438 C441 1.313 . S
C439 C440 1.338 . S
C439 N442 1.377 . S
C439 H459 0.930 . S
C440 N438 1.375 . S
C440 C439 1.338 . S
C440 H444 0.931 . S
C441 N438 1.313 . S
C441 N442 1.344 . S
C441 H445 0.930 . S
N442 C439 1.377 . S
N442 C441 1.344 . S
O443 Co435 2.055 . S
O443 C447 1.253 . S
H444 C440 0.931 . S
H445 C441 0.930 . S
O446 Co435 2.039 . S
O446 C436 1.265 . S
C447 O443 1.253 . S
C447 O448 1.227 . S
O448 C447 1.227 . S
N449 Co435 2.140 . S
N449 C452 1.346 . S
N449 C453 1.345 . S
C450 C451 1.387 . S
C450 C454 1.391 . S
C451 C450 1.387 . S
C451 C452 1.369 . S
C451 H460 0.929 . S
C452 N449 1.346 . S
C452 C451 1.369 . S
C452 H455 0.928 . S
C453 N449 1.345 . S
C453 C454 1.371 . S
C453 H456 0.931 . S
C454 C450 1.391 . S
C454 C453 1.371 . S
C454 H461 0.930 . S
H455 C452 0.928 . S
H456 C453 0.931 . S
H457 C433 0.930 . S
H458 C430 0.930 . S
H459 C439 0.930 . S
H460 C451 0.929 . S
H461 C454 0.930 . S
C462 C463 1.351 . S
C462 N465 1.368 . S
C462 H467 0.931 . S
C463 C462 1.351 . S
C463 N464 1.373 . S
C463 H491 0.930 . S
N464 C463 1.373 . S
N464 C466 1.340 . S
N465 C462 1.368 . S
N465 C466 1.321 . S
N465 Co468 2.135 . S
C466 N464 1.340 . S
C466 N465 1.321 . S
C466 H490 0.930 . S
H467 C462 0.931 . S
Co468 N465 2.135 . S
Co468 N471 2.121 . S
Co468 O476 2.055 . S
Co468 O479 2.039 . S
Co468 N482 2.140 . S
C469 O470 1.227 . S
C469 O479 1.265 . S
O470 C469 1.227 . S
N471 Co468 2.121 . S
N471 C473 1.375 . S
N471 C474 1.313 . S
C472 C473 1.338 . S
C472 N475 1.377 . S
C472 H492 0.930 . S
C473 N471 1.375 . S
C473 C472 1.338 . S
C473 H477 0.931 . S
C474 N471 1.313 . S
C474 N475 1.344 . S
C474 H478 0.930 . S
N475 C472 1.377 . S
N475 C474 1.344 . S
O476 Co468 2.055 . S
O476 C480 1.253 . S
H477 C473 0.931 . S
H478 C474 0.930 . S
O479 Co468 2.039 . S
O479 C469 1.265 . S
C480 O476 1.253 . S
C480 O481 1.227 . S
O481 C480 1.227 . S
N482 Co468 2.140 . S
N482 C485 1.346 . S
N482 C486 1.345 . S
C483 C484 1.387 . S
C483 C487 1.391 . S
C484 C483 1.387 . S
C484 C485 1.369 . S
C484 H493 0.929 . S
C485 N482 1.346 . S
C485 C484 1.369 . S
C485 H488 0.928 . S
C486 N482 1.345 . S
C486 C487 1.371 . S
C486 H489 0.931 . S
C487 C483 1.391 . S
C487 C486 1.371 . S
C487 H494 0.930 . S
H488 C485 0.928 . S
H489 C486 0.931 . S
H490 C466 0.930 . S
H491 C463 0.930 . S
H492 C472 0.930 . S
H493 C484 0.929 . S
H494 C487 0.930 . S
C495 C496 1.351 . S
C495 N498 1.368 . S
C495 H500 0.931 . S
C496 C495 1.351 . S
C496 N497 1.373 . S
C496 H524 0.930 . S
N497 C496 1.373 . S
N497 C499 1.340 . S
N498 C495 1.368 . S
N498 C499 1.321 . S
N498 Co501 2.135 . S
C499 N497 1.340 . S
C499 N498 1.321 . S
C499 H523 0.930 . S
H500 C495 0.931 . S
Co501 N498 2.135 . S
Co501 N504 2.121 . S
Co501 O509 2.055 . S
Co501 O512 2.039 . S
Co501 N515 2.140 . S
C502 O503 1.227 . S
C502 O512 1.265 . S
O503 C502 1.227 . S
N504 Co501 2.121 . S
N504 C506 1.375 . S
N504 C507 1.313 . S
C505 C506 1.338 . S
C505 N508 1.377 . S
C505 H525 0.930 . S
C506 N504 1.375 . S
C506 C505 1.338 . S
C506 H510 0.931 . S
C507 N504 1.313 . S
C507 N508 1.344 . S
C507 H511 0.930 . S
N508 C505 1.377 . S
N508 C507 1.344 . S
O509 Co501 2.055 . S
O509 C513 1.253 . S
H510 C506 0.931 . S
H511 C507 0.930 . S
O512 Co501 2.039 . S
O512 C502 1.265 . S
C513 O509 1.253 . S
C513 O514 1.227 . S
O514 C513 1.227 . S
N515 Co501 2.140 . S
N515 C518 1.346 . S
N515 C519 1.345 . S
C516 C517 1.387 . S
C516 C520 1.391 . S
C517 C516 1.387 . S
C517 C518 1.369 . S
C517 H526 0.929 . S
C518 N515 1.346 . S
C518 C517 1.369 . S
C518 H521 0.928 . S
C519 N515 1.345 . S
C519 C520 1.371 . S
C519 H522 0.931 . S
C520 C516 1.391 . S
C520 C519 1.371 . S
C520 H527 0.930 . S
H521 C518 0.928 . S
H522 C519 0.931 . S
H523 C499 0.930 . S
H524 C496 0.930 . S
H525 C505 0.930 . S
H526 C517 0.929 . S
H527 C520 0.930 . S
H528 C540 0.930 . S
H529 C542 0.930 . S
H530 C543 0.930 . S
H531 C547 0.959 . S
H532 C547 0.959 . S
H533 C547 0.961 . S
H534 C548 0.960 . S
H535 C548 0.961 . S
H536 C548 0.959 . S
H537 C551 0.929 . S
H538 C552 0.931 . S
H539 C554 0.930 . S
C540 H528 0.930 . S
C540 C541 1.399 . S
C540 C545 1.399 . S
C541 C540 1.399 . S
C541 C542 1.376 . S
C542 H529 0.930 . S
C542 C541 1.376 . S
C542 C543 1.388 . S
C543 H530 0.930 . S
C543 C542 1.388 . S
C543 C544 1.390 . S
C544 C543 1.390 . S
C544 C545 1.394 . S
C544 C550 1.465 . S
C545 C540 1.399 . S
C545 C544 1.394 . S
C545 C546 1.516 . S
C546 C545 1.516 . S
C546 C547 1.502 . S
C546 C548 1.561 . S
C546 C549 1.526 . S
C547 H531 0.959 . S
C547 H532 0.959 . S
C547 H533 0.961 . S
C547 C546 1.502 . S
C548 H534 0.960 . S
C548 H535 0.961 . S
C548 H536 0.959 . S
C548 C546 1.561 . S
C549 C546 1.526 . S
C549 C550 1.396 . S
C549 C554 1.390 . S
C550 C544 1.465 . S
C550 C549 1.396 . S
C550 C551 1.399 . S
C551 H537 0.929 . S
C551 C550 1.399 . S
C551 C552 1.385 . S
C552 H538 0.931 . S
C552 C551 1.385 . S
C552 C553 1.389 . S
C553 C552 1.389 . S
C553 C554 1.387 . S
C554 H539 0.930 . S
C554 C549 1.390 . S
C554 C553 1.387 . S
H555 C567 0.930 . S
H556 C569 0.930 . S
H557 C570 0.930 . S
H558 C574 0.959 . S
H559 C574 0.959 . S
H560 C574 0.961 . S
H561 C575 0.960 . S
H562 C575 0.961 . S
H563 C575 0.959 . S
H564 C578 0.929 . S
H565 C579 0.931 . S
H566 C581 0.930 . S
C567 H555 0.930 . S
C567 C568 1.399 . S
C567 C572 1.399 . S
C568 C567 1.399 . S
C568 C569 1.376 . S
C569 H556 0.930 . S
C569 C568 1.376 . S
C569 C570 1.388 . S
C570 H557 0.930 . S
C570 C569 1.388 . S
C570 C571 1.390 . S
C571 C570 1.390 . S
C571 C572 1.394 . S
C571 C577 1.465 . S
C572 C567 1.399 . S
C572 C571 1.394 . S
C572 C573 1.516 . S
C573 C572 1.516 . S
C573 C574 1.502 . S
C573 C575 1.561 . S
C573 C576 1.526 . S
C574 H558 0.959 . S
C574 H559 0.959 . S
C574 H560 0.961 . S
C574 C573 1.502 . S
C575 H561 0.960 . S
C575 H562 0.961 . S
C575 H563 0.959 . S
C575 C573 1.561 . S
C576 C573 1.526 . S
C576 C577 1.396 . S
C576 C581 1.390 . S
C577 C571 1.465 . S
C577 C576 1.396 . S
C577 C578 1.399 . S
C578 H564 0.929 . S
C578 C577 1.399 . S
C578 C579 1.385 . S
C579 H565 0.931 . S
C579 C578 1.385 . S
C579 C580 1.389 . S
C580 C579 1.389 . S
C580 C581 1.387 . S
C581 H566 0.930 . S
C581 C576 1.390 . S
C581 C580 1.387 . S
H582 C594 0.930 . S
H583 C596 0.930 . S
H584 C597 0.930 . S
H585 C601 0.959 . S
H586 C601 0.959 . S
H587 C601 0.961 . S
H588 C602 0.960 . S
H589 C602 0.961 . S
H590 C602 0.959 . S
H591 C605 0.929 . S
H592 C606 0.931 . S
H593 C608 0.930 . S
C594 H582 0.930 . S
C594 C595 1.399 . S
C594 C599 1.399 . S
C595 C594 1.399 . S
C595 C596 1.376 . S
C596 H583 0.930 . S
C596 C595 1.376 . S
C596 C597 1.388 . S
C597 H584 0.930 . S
C597 C596 1.388 . S
C597 C598 1.390 . S
C598 C597 1.390 . S
C598 C599 1.394 . S
C598 C604 1.465 . S
C599 C594 1.399 . S
C599 C598 1.394 . S
C599 C600 1.516 . S
C600 C599 1.516 . S
C600 C601 1.502 . S
C600 C602 1.561 . S
C600 C603 1.526 . S
C601 H585 0.959 . S
C601 H586 0.959 . S
C601 H587 0.961 . S
C601 C600 1.502 . S
C602 H588 0.960 . S
C602 H589 0.961 . S
C602 H590 0.959 . S
C602 C600 1.561 . S
C603 C600 1.526 . S
C603 C604 1.396 . S
C603 C608 1.390 . S
C604 C598 1.465 . S
C604 C603 1.396 . S
C604 C605 1.399 . S
C605 H591 0.929 . S
C605 C604 1.399 . S
C605 C606 1.385 . S
C606 H592 0.931 . S
C606 C605 1.385 . S
C606 C607 1.389 . S
C607 C606 1.389 . S
C607 C608 1.387 . S
C608 H593 0.930 . S
C608 C603 1.390 . S
C608 C607 1.387 . S
H609 C621 0.930 . S
H610 C623 0.930 . S
H611 C624 0.930 . S
H612 C628 0.959 . S
H613 C628 0.959 . S
H614 C628 0.961 . S
H615 C629 0.960 . S
H616 C629 0.961 . S
H617 C629 0.959 . S
H618 C632 0.929 . S
H619 C633 0.931 . S
H620 C635 0.930 . S
C621 H609 0.930 . S
C621 C622 1.399 . S
C621 C626 1.399 . S
C622 C621 1.399 . S
C622 C623 1.376 . S
C623 H610 0.930 . S
C623 C622 1.376 . S
C623 C624 1.388 . S
C624 H611 0.930 . S
C624 C623 1.388 . S
C624 C625 1.390 . S
C625 C624 1.390 . S
C625 C626 1.394 . S
C625 C631 1.465 . S
C626 C621 1.399 . S
C626 C625 1.394 . S
C626 C627 1.516 . S
C627 C626 1.516 . S
C627 C628 1.502 . S
C627 C629 1.561 . S
C627 C630 1.526 . S
C628 H612 0.959 . S
C628 H613 0.959 . S
C628 H614 0.961 . S
C628 C627 1.502 . S
C629 H615 0.960 . S
C629 H616 0.961 . S
C629 H617 0.959 . S
C629 C627 1.561 . S
C630 C627 1.526 . S
C630 C631 1.396 . S
C630 C635 1.390 . S
C631 C625 1.465 . S
C631 C630 1.396 . S
C631 C632 1.399 . S
C632 H618 0.929 . S
C632 C631 1.399 . S
C632 C633 1.385 . S
C633 H619 0.931 . S
C633 C632 1.385 . S
C633 C634 1.389 . S
C634 C633 1.389 . S
C634 C635 1.387 . S
C635 H620 0.930 . S
C635 C630 1.390 . S
C635 C634 1.387 . S
H636 C648 0.930 . S
H637 C650 0.930 1_554 S
H638 C651 0.930 . S
H639 C655 0.959 . S
H640 C655 0.959 . S
H641 C655 0.961 . S
H642 C656 0.960 . S
H643 C656 0.961 . S
H644 C656 0.959 . S
H645 C659 0.929 . S
H646 C660 0.931 . S
H647 C662 0.930 . S
C648 H636 0.930 . S
C648 C649 1.399 . S
C648 C653 1.399 . S
C649 C648 1.399 . S
C649 C650 1.376 . S
C650 H637 0.930 1_556 S
C650 C649 1.376 . S
C650 C651 1.388 . S
C651 H638 0.930 . S
C651 C650 1.388 . S
C651 C652 1.390 . S
C652 C651 1.390 . S
C652 C653 1.394 . S
C652 C658 1.465 . S
C653 C648 1.399 . S
C653 C652 1.394 . S
C653 C654 1.516 . S
C654 C653 1.516 . S
C654 C655 1.502 . S
C654 C656 1.561 . S
C654 C657 1.526 . S
C655 H639 0.959 . S
C655 H640 0.959 . S
C655 H641 0.961 . S
C655 C654 1.502 . S
C656 H642 0.960 . S
C656 H643 0.961 . S
C656 H644 0.959 . S
C656 C654 1.561 . S
C657 C654 1.526 . S
C657 C658 1.396 . S
C657 C662 1.390 . S
C658 C652 1.465 . S
C658 C657 1.396 . S
C658 C659 1.399 . S
C659 H645 0.929 . S
C659 C658 1.399 . S
C659 C660 1.385 . S
C660 H646 0.931 . S
C660 C659 1.385 . S
C660 C661 1.389 . S
C661 C660 1.389 . S
C661 C662 1.387 . S
C662 H647 0.930 . S
C662 C657 1.390 . S
C662 C661 1.387 . S
H663 C675 0.930 . S
H664 C677 0.930 . S
H665 C678 0.930 . S
H666 C682 0.959 . S
H667 C682 0.959 . S
H668 C682 0.961 . S
H669 C683 0.960 . S
H670 C683 0.961 . S
H671 C683 0.959 . S
H672 C686 0.929 . S
H673 C687 0.931 1_556 S
H674 C689 0.930 . S
C675 H663 0.930 . S
C675 C676 1.399 . S
C675 C680 1.399 . S
C676 C675 1.399 . S
C676 C677 1.376 . S
C677 H664 0.930 . S
C677 C676 1.376 . S
C677 C678 1.388 . S
C678 H665 0.930 . S
C678 C677 1.388 . S
C678 C679 1.390 . S
C679 C678 1.390 . S
C679 C680 1.394 . S
C679 C685 1.465 . S
C680 C675 1.399 . S
C680 C679 1.394 . S
C680 C681 1.516 . S
C681 C680 1.516 . S
C681 C682 1.502 . S
C681 C683 1.561 . S
C681 C684 1.526 . S
C682 H666 0.959 . S
C682 H667 0.959 . S
C682 H668 0.961 . S
C682 C681 1.502 . S
C683 H669 0.960 . S
C683 H670 0.961 . S
C683 H671 0.959 . S
C683 C681 1.561 . S
C684 C681 1.526 . S
C684 C685 1.396 . S
C684 C689 1.390 . S
C685 C679 1.465 . S
C685 C684 1.396 . S
C685 C686 1.399 . S
C686 H672 0.929 . S
C686 C685 1.399 . S
C686 C687 1.385 . S
C687 H673 0.931 1_554 S
C687 C686 1.385 . S
C687 C688 1.389 . S
C688 C687 1.389 . S
C688 C689 1.387 . S
C689 H674 0.930 . S
C689 C684 1.390 . S
C689 C688 1.387 . S
H690 C702 0.930 . S
H691 C704 0.930 . S
H692 C705 0.930 . S
H693 C709 0.959 . S
H694 C709 0.959 . S
H695 C709 0.961 . S
H696 C710 0.960 . S
H697 C710 0.961 . S
H698 C710 0.959 . S
H699 C713 0.929 . S
H700 C714 0.931 . S
H701 C716 0.930 . S
C702 H690 0.930 . S
C702 C703 1.399 . S
C702 C707 1.399 . S
C703 C702 1.399 . S
C703 C704 1.376 . S
C704 H691 0.930 . S
C704 C703 1.376 . S
C704 C705 1.388 . S
C705 H692 0.930 . S
C705 C704 1.388 . S
C705 C706 1.390 . S
C706 C705 1.390 . S
C706 C707 1.394 . S
C706 C712 1.465 . S
C707 C702 1.399 . S
C707 C706 1.394 . S
C707 C708 1.516 . S
C708 C707 1.516 . S
C708 C709 1.502 . S
C708 C710 1.561 . S
C708 C711 1.526 . S
C709 H693 0.959 . S
C709 H694 0.959 . S
C709 H695 0.961 . S
C709 C708 1.502 . S
C710 H696 0.960 . S
C710 H697 0.961 . S
C710 H698 0.959 . S
C710 C708 1.561 . S
C711 C708 1.526 . S
C711 C712 1.396 . S
C711 C716 1.390 . S
C712 C706 1.465 . S
C712 C711 1.396 . S
C712 C713 1.399 . S
C713 H699 0.929 . S
C713 C712 1.399 . S
C713 C714 1.385 . S
C714 H700 0.931 . S
C714 C713 1.385 . S
C714 C715 1.389 . S
C715 C714 1.389 . S
C715 C716 1.387 . S
C716 H701 0.930 . S
C716 C711 1.390 . S
C716 C715 1.387 . S
H717 C729 0.930 . S
H718 C731 0.930 . S
H719 C732 0.930 . S
H720 C736 0.959 . S
H721 C736 0.959 . S
H722 C736 0.961 . S
H723 C737 0.960 . S
H724 C737 0.961 . S
H725 C737 0.959 . S
H726 C740 0.929 . S
H727 C741 0.931 1_556 S
H728 C743 0.930 . S
C729 H717 0.930 . S
C729 C730 1.399 . S
C729 C734 1.399 . S
C730 C729 1.399 . S
C730 C731 1.376 . S
C731 H718 0.930 . S
C731 C730 1.376 . S
C731 C732 1.388 . S
C732 H719 0.930 . S
C732 C731 1.388 . S
C732 C733 1.390 . S
C733 C732 1.390 . S
C733 C734 1.394 . S
C733 C739 1.465 . S
C734 C729 1.399 . S
C734 C733 1.394 . S
C734 C735 1.516 . S
C735 C734 1.516 . S
C735 C736 1.502 . S
C735 C737 1.561 . S
C735 C738 1.526 . S
C736 H720 0.959 . S
C736 H721 0.959 . S
C736 H722 0.961 . S
C736 C735 1.502 . S
C737 H723 0.960 . S
C737 H724 0.961 . S
C737 H725 0.959 . S
C737 C735 1.561 . S
C738 C735 1.526 . S
C738 C739 1.396 . S
C738 C743 1.390 . S
C739 C733 1.465 . S
C739 C738 1.396 . S
C739 C740 1.399 . S
C740 H726 0.929 . S
C740 C739 1.399 . S
C740 C741 1.385 . S
C741 H727 0.931 1_554 S
C741 C740 1.385 . S
C741 C742 1.389 . S
C742 C741 1.389 . S
C742 C743 1.387 . S
C743 H728 0.930 . S
C743 C738 1.390 . S
C743 C742 1.387 . S
H744 C756 0.930 . S
H745 C758 0.930 . S
H746 C759 0.930 . S
H747 C763 0.959 . S
H748 C763 0.959 . S
H749 C763 0.961 . S
H750 C764 0.960 . S
H751 C764 0.961 . S
H752 C764 0.959 . S
H753 C767 0.929 . S
H754 C768 0.931 . S
H755 C770 0.930 . S
C756 H744 0.930 . S
C756 C757 1.399 . S
C756 C761 1.399 . S
C757 C756 1.399 . S
C757 C758 1.376 . S
C758 H745 0.930 . S
C758 C757 1.376 . S
C758 C759 1.388 . S
C759 H746 0.930 . S
C759 C758 1.388 . S
C759 C760 1.390 . S
C760 C759 1.390 . S
C760 C761 1.394 . S
C760 C766 1.465 . S
C761 C756 1.399 . S
C761 C760 1.394 . S
C761 C762 1.516 . S
C762 C761 1.516 . S
C762 C763 1.502 . S
C762 C764 1.561 . S
C762 C765 1.526 . S
C763 H747 0.959 . S
C763 H748 0.959 . S
C763 H749 0.961 . S
C763 C762 1.502 . S
C764 H750 0.960 . S
C764 H751 0.961 . S
C764 H752 0.959 . S
C764 C762 1.561 . S
C765 C762 1.526 . S
C765 C766 1.396 . S
C765 C770 1.390 . S
C766 C760 1.465 . S
C766 C765 1.396 . S
C766 C767 1.399 . S
C767 H753 0.929 . S
C767 C766 1.399 . S
C767 C768 1.385 . S
C768 H754 0.931 . S
C768 C767 1.385 . S
C768 C769 1.389 . S
C769 C768 1.389 . S
C769 C770 1.387 . S
C770 H755 0.930 . S
C770 C765 1.390 . S
C770 C769 1.387 . S
H771 C783 0.930 . S
H772 C785 0.930 . S
H773 C786 0.930 . S
H774 C790 0.959 . S
H775 C790 0.959 . S
H776 C790 0.961 . S
H777 C791 0.960 . S
H778 C791 0.961 . S
H779 C791 0.959 . S
H780 C794 0.929 . S
H781 C795 0.931 . S
H782 C797 0.930 . S
C783 H771 0.930 . S
C783 C784 1.399 . S
C783 C788 1.399 . S
C784 C783 1.399 . S
C784 C785 1.376 . S
C785 H772 0.930 . S
C785 C784 1.376 . S
C785 C786 1.388 . S
C786 H773 0.930 . S
C786 C785 1.388 . S
C786 C787 1.390 . S
C787 C786 1.390 . S
C787 C788 1.394 . S
C787 C793 1.465 . S
C788 C783 1.399 . S
C788 C787 1.394 . S
C788 C789 1.516 . S
C789 C788 1.516 . S
C789 C790 1.502 . S
C789 C791 1.561 . S
C789 C792 1.526 . S
C790 H774 0.959 . S
C790 H775 0.959 . S
C790 H776 0.961 . S
C790 C789 1.502 . S
C791 H777 0.960 . S
C791 H778 0.961 . S
C791 H779 0.959 . S
C791 C789 1.561 . S
C792 C789 1.526 . S
C792 C793 1.396 . S
C792 C797 1.390 . S
C793 C787 1.465 . S
C793 C792 1.396 . S
C793 C794 1.399 . S
C794 H780 0.929 . S
C794 C793 1.399 . S
C794 C795 1.385 . S
C795 H781 0.931 . S
C795 C794 1.385 . S
C795 C796 1.389 . S
C796 C795 1.389 . S
C796 C797 1.387 . S
C797 H782 0.930 . S
C797 C792 1.390 . S
C797 C796 1.387 . S
H798 C810 0.930 . S
H799 C812 0.930 . S
H800 C813 0.930 . S
H801 C817 0.959 . S
H802 C817 0.959 . S
H803 C817 0.961 . S
H804 C818 0.960 . S
H805 C818 0.961 . S
H806 C818 0.959 . S
H807 C821 0.929 . S
H808 C822 0.931 . S
H809 C824 0.930 . S
C810 H798 0.930 . S
C810 C811 1.399 . S
C810 C815 1.399 . S
C811 C810 1.399 . S
C811 C812 1.376 . S
C812 H799 0.930 . S
C812 C811 1.376 . S
C812 C813 1.388 . S
C813 H800 0.930 . S
C813 C812 1.388 . S
C813 C814 1.390 . S
C814 C813 1.390 . S
C814 C815 1.394 . S
C814 C820 1.465 . S
C815 C810 1.399 . S
C815 C814 1.394 . S
C815 C816 1.516 . S
C816 C815 1.516 . S
C816 C817 1.502 . S
C816 C818 1.561 . S
C816 C819 1.526 . S
C817 H801 0.959 . S
C817 H802 0.959 . S
C817 H803 0.961 . S
C817 C816 1.502 . S
C818 H804 0.960 . S
C818 H805 0.961 . S
C818 H806 0.959 . S
C818 C816 1.561 . S
C819 C816 1.526 . S
C819 C820 1.396 . S
C819 C824 1.390 . S
C820 C814 1.465 . S
C820 C819 1.396 . S
C820 C821 1.399 . S
C821 H807 0.929 . S
C821 C820 1.399 . S
C821 C822 1.385 . S
C822 H808 0.931 . S
C822 C821 1.385 . S
C822 C823 1.389 . S
C823 C822 1.389 . S
C823 C824 1.387 . S
C824 H809 0.930 . S
C824 C819 1.390 . S
C824 C823 1.387 . S
H825 C837 0.930 . S
H826 C839 0.930 . S
H827 C840 0.930 . S
H828 C844 0.959 . S
H829 C844 0.959 . S
H830 C844 0.961 . S
H831 C845 0.960 . S
H832 C845 0.961 . S
H833 C845 0.959 . S
H834 C848 0.929 . S
H835 C849 0.931 . S
H836 C851 0.930 . S
C837 H825 0.930 . S
C837 C838 1.399 . S
C837 C842 1.399 . S
C838 C837 1.399 . S
C838 C839 1.376 . S
C839 H826 0.930 . S
C839 C838 1.376 . S
C839 C840 1.388 . S
C840 H827 0.930 . S
C840 C839 1.388 . S
C840 C841 1.390 . S
C841 C840 1.390 . S
C841 C842 1.394 . S
C841 C847 1.465 . S
C842 C837 1.399 . S
C842 C841 1.394 . S
C842 C843 1.516 . S
C843 C842 1.516 . S
C843 C844 1.502 . S
C843 C845 1.561 . S
C843 C846 1.526 . S
C844 H828 0.959 . S
C844 H829 0.959 . S
C844 H830 0.961 . S
C844 C843 1.502 . S
C845 H831 0.960 . S
C845 H832 0.961 . S
C845 H833 0.959 . S
C845 C843 1.561 . S
C846 C843 1.526 . S
C846 C847 1.396 . S
C846 C851 1.390 . S
C847 C841 1.465 . S
C847 C846 1.396 . S
C847 C848 1.399 . S
C848 H834 0.929 . S
C848 C847 1.399 . S
C848 C849 1.385 . S
C849 H835 0.931 . S
C849 C848 1.385 . S
C849 C850 1.389 . S
C850 C849 1.389 . S
C850 C851 1.387 . S
C851 H836 0.930 . S
C851 C846 1.390 . S
C851 C850 1.387 . S
H852 C864 0.930 . S
H853 C866 0.930 . S
H854 C867 0.930 . S
H855 C871 0.959 . S
H856 C871 0.959 . S
H857 C871 0.961 . S
H858 C872 0.960 . S
H859 C872 0.961 . S
H860 C872 0.959 . S
H861 C875 0.929 . S
H862 C876 0.931 . S
H863 C878 0.930 . S
C864 H852 0.930 . S
C864 C865 1.399 . S
C864 C869 1.399 . S
C865 C864 1.399 . S
C865 C866 1.376 . S
C866 H853 0.930 . S
C866 C865 1.376 . S
C866 C867 1.388 . S
C867 H854 0.930 . S
C867 C866 1.388 . S
C867 C868 1.390 . S
C868 C867 1.390 . S
C868 C869 1.394 . S
C868 C874 1.465 . S
C869 C864 1.399 . S
C869 C868 1.394 . S
C869 C870 1.516 . S
C870 C869 1.516 . S
C870 C871 1.502 . S
C870 C872 1.561 . S
C870 C873 1.526 . S
C871 H855 0.959 . S
C871 H856 0.959 . S
C871 H857 0.961 . S
C871 C870 1.502 . S
C872 H858 0.960 . S
C872 H859 0.961 . S
C872 H860 0.959 . S
C872 C870 1.561 . S
C873 C870 1.526 . S
C873 C874 1.396 . S
C873 C878 1.390 . S
C874 C868 1.465 . S
C874 C873 1.396 . S
C874 C875 1.399 . S
C875 H861 0.929 . S
C875 C874 1.399 . S
C875 C876 1.385 . S
C876 H862 0.931 . S
C876 C875 1.385 . S
C876 C877 1.389 . S
C877 C876 1.389 . S
C877 C878 1.387 . S
C878 H863 0.930 . S
C878 C873 1.390 . S
C878 C877 1.387 . S
H879 C891 0.930 . S
H880 C893 0.930 . S
H881 C894 0.930 . S
H882 C898 0.959 . S
H883 C898 0.959 . S
H884 C898 0.961 . S
H885 C899 0.960 . S
H886 C899 0.961 . S
H887 C899 0.959 . S
H888 C902 0.929 . S
H889 C903 0.931 . S
H890 C905 0.930 . S
C891 H879 0.930 . S
C891 C892 1.399 . S
C891 C896 1.399 . S
C892 C891 1.399 . S
C892 C893 1.376 . S
C893 H880 0.930 . S
C893 C892 1.376 . S
C893 C894 1.388 . S
C894 H881 0.930 . S
C894 C893 1.388 . S
C894 C895 1.390 . S
C895 C894 1.390 . S
C895 C896 1.394 . S
C895 C901 1.465 . S
C896 C891 1.399 . S
C896 C895 1.394 . S
C896 C897 1.516 . S
C897 C896 1.516 . S
C897 C898 1.502 . S
C897 C899 1.561 . S
C897 C900 1.526 . S
C898 H882 0.959 . S
C898 H883 0.959 . S
C898 H884 0.961 . S
C898 C897 1.502 . S
C899 H885 0.960 . S
C899 H886 0.961 . S
C899 H887 0.959 . S
C899 C897 1.561 . S
C900 C897 1.526 . S
C900 C901 1.396 . S
C900 C905 1.390 . S
C901 C895 1.465 . S
C901 C900 1.396 . S
C901 C902 1.399 . S
C902 H888 0.929 . S
C902 C901 1.399 . S
C902 C903 1.385 . S
C903 H889 0.931 . S
C903 C902 1.385 . S
C903 C904 1.389 . S
C904 C903 1.389 . S
C904 C905 1.387 . S
C905 H890 0.930 . S
C905 C900 1.390 . S
C905 C904 1.387 . S
H906 C918 0.930 . S
H907 C920 0.930 . S
H908 C921 0.930 . S
H909 C925 0.959 . S
H910 C925 0.959 . S
H911 C925 0.961 . S
H912 C926 0.960 . S
H913 C926 0.961 . S
H914 C926 0.959 . S
H915 C929 0.929 . S
H916 C930 0.931 . S
H917 C932 0.930 . S
C918 H906 0.930 . S
C918 C919 1.399 . S
C918 C923 1.399 . S
C919 C918 1.399 . S
C919 C920 1.376 . S
C920 H907 0.930 . S
C920 C919 1.376 . S
C920 C921 1.388 . S
C921 H908 0.930 . S
C921 C920 1.388 . S
C921 C922 1.390 . S
C922 C921 1.390 . S
C922 C923 1.394 . S
C922 C928 1.465 . S
C923 C918 1.399 . S
C923 C922 1.394 . S
C923 C924 1.516 . S
C924 C923 1.516 . S
C924 C925 1.502 . S
C924 C926 1.561 . S
C924 C927 1.526 . S
C925 H909 0.959 . S
C925 H910 0.959 . S
C925 H911 0.961 . S
C925 C924 1.502 . S
C926 H912 0.960 . S
C926 H913 0.961 . S
C926 H914 0.959 . S
C926 C924 1.561 . S
C927 C924 1.526 . S
C927 C928 1.396 . S
C927 C932 1.390 . S
C928 C922 1.465 . S
C928 C927 1.396 . S
C928 C929 1.399 . S
C929 H915 0.929 . S
C929 C928 1.399 . S
C929 C930 1.385 . S
C930 H916 0.931 . S
C930 C929 1.385 . S
C930 C931 1.389 . S
C931 C930 1.389 . S
C931 C932 1.387 . S
C932 H917 0.930 . S
C932 C927 1.390 . S
C932 C931 1.387 . S
H933 C945 0.930 . S
H934 C947 0.930 . S
H935 C948 0.930 . S
H936 C952 0.959 . S
H937 C952 0.959 . S
H938 C952 0.961 . S
H939 C953 0.960 . S
H940 C953 0.961 . S
H941 C953 0.959 . S
H942 C956 0.929 . S
H943 C957 0.931 . S
H944 C959 0.930 . S
C945 H933 0.930 . S
C945 C946 1.399 . S
C945 C950 1.399 . S
C946 C945 1.399 . S
C946 C947 1.376 . S
C947 H934 0.930 . S
C947 C946 1.376 . S
C947 C948 1.388 . S
C948 H935 0.930 . S
C948 C947 1.388 . S
C948 C949 1.390 . S
C949 C948 1.390 . S
C949 C950 1.394 . S
C949 C955 1.465 . S
C950 C945 1.399 . S
C950 C949 1.394 . S
C950 C951 1.516 . S
C951 C950 1.516 . S
C951 C952 1.502 . S
C951 C953 1.561 . S
C951 C954 1.526 . S
C952 H936 0.959 . S
C952 H937 0.959 . S
C952 H938 0.961 . S
C952 C951 1.502 . S
C953 H939 0.960 . S
C953 H940 0.961 . S
C953 H941 0.959 . S
C953 C951 1.561 . S
C954 C951 1.526 . S
C954 C955 1.396 . S
C954 C959 1.390 . S
C955 C949 1.465 . S
C955 C954 1.396 . S
C955 C956 1.399 . S
C956 H942 0.929 . S
C956 C955 1.399 . S
C956 C957 1.385 . S
C957 H943 0.931 . S
C957 C956 1.385 . S
C957 C958 1.389 . S
C958 C957 1.389 . S
C958 C959 1.387 . S
C959 H944 0.930 . S
C959 C954 1.390 . S
C959 C958 1.387 . S
H960 C972 0.930 . S
H961 C974 0.930 . S
H962 C975 0.930 . S
H963 C979 0.959 . S
H964 C979 0.959 . S
H965 C979 0.961 . S
H966 C980 0.960 . S
H967 C980 0.961 . S
H968 C980 0.959 . S
H969 C983 0.929 . S
H970 C984 0.931 . S
H971 C986 0.930 . S
C972 H960 0.930 . S
C972 C973 1.399 . S
C972 C977 1.399 . S
C973 C972 1.399 . S
C973 C974 1.376 . S
C974 H961 0.930 . S
C974 C973 1.376 . S
C974 C975 1.388 . S
C975 H962 0.930 . S
C975 C974 1.388 . S
C975 C976 1.390 . S
C976 C975 1.390 . S
C976 C977 1.394 . S
C976 C982 1.465 . S
C977 C972 1.399 . S
C977 C976 1.394 . S
C977 C978 1.516 . S
C978 C977 1.516 . S
C978 C979 1.502 . S
C978 C980 1.561 . S
C978 C981 1.526 . S
C979 H963 0.959 . S
C979 H964 0.959 . S
C979 H965 0.961 . S
C979 C978 1.502 . S
C980 H966 0.960 . S
C980 H967 0.961 . S
C980 H968 0.959 . S
C980 C978 1.561 . S
C981 C978 1.526 . S
C981 C982 1.396 . S
C981 C986 1.390 . S
C982 C976 1.465 . S
C982 C981 1.396 . S
C982 C983 1.399 . S
C983 H969 0.929 . S
C983 C982 1.399 . S
C983 C984 1.385 . S
C984 H970 0.931 . S
C984 C983 1.385 . S
C984 C985 1.389 . S
C985 C984 1.389 . S
C985 C986 1.387 . S
C986 H971 0.930 . S
C986 C981 1.390 . S
C986 C985 1.387 . S
H987 C999 0.930 . S
H988 C1001 0.930 . S
H989 C1002 0.930 . S
H990 C1006 0.959 . S
H991 C1006 0.959 . S
H992 C1006 0.961 . S
H993 C1007 0.960 . S
H994 C1007 0.961 . S
H995 C1007 0.959 . S
H996 C1010 0.929 . S
H997 C1011 0.931 . S
H998 C1013 0.930 . S
C999 H987 0.930 . S
C999 C1000 1.399 . S
C999 C1004 1.399 . S
C1000 C999 1.399 . S
C1000 C1001 1.376 . S
C1001 H988 0.930 . S
C1001 C1000 1.376 . S
C1001 C1002 1.388 . S
C1002 H989 0.930 . S
C1002 C1001 1.388 . S
C1002 C1003 1.390 . S
C1003 C1002 1.390 . S
C1003 C1004 1.394 . S
C1003 C1009 1.465 . S
C1004 C999 1.399 . S
C1004 C1003 1.394 . S
C1004 C1005 1.516 . S
C1005 C1004 1.516 . S
C1005 C1006 1.502 . S
C1005 C1007 1.561 . S
C1005 C1008 1.526 . S
C1006 H990 0.959 . S
C1006 H991 0.959 . S
C1006 H992 0.961 . S
C1006 C1005 1.502 . S
C1007 H993 0.960 . S
C1007 H994 0.961 . S
C1007 H995 0.959 . S
C1007 C1005 1.561 . S
C1008 C1005 1.526 . S
C1008 C1009 1.396 . S
C1008 C1013 1.390 . S
C1009 C1003 1.465 . S
C1009 C1008 1.396 . S
C1009 C1010 1.399 . S
C1010 H996 0.929 . S
C1010 C1009 1.399 . S
C1010 C1011 1.385 . S
C1011 H997 0.931 . S
C1011 C1010 1.385 . S
C1011 C1012 1.389 . S
C1012 C1011 1.389 . S
C1012 C1013 1.387 . S
C1013 H998 0.930 . S
C1013 C1008 1.390 . S
C1013 C1012 1.387 . S
H1014 C1026 0.930 . S
H1015 C1028 0.930 . S
H1016 C1029 0.930 . S
H1017 C1033 0.959 . S
H1018 C1033 0.959 . S
H1019 C1033 0.961 . S
H1020 C1034 0.960 . S
H1021 C1034 0.961 . S
H1022 C1034 0.959 . S
H1023 C1037 0.929 . S
H1024 C1038 0.931 . S
H1025 C1040 0.930 . S
C1026 H1014 0.930 . S
C1026 C1027 1.399 . S
C1026 C1031 1.399 . S
C1027 C1026 1.399 . S
C1027 C1028 1.376 . S
C1028 H1015 0.930 . S
C1028 C1027 1.376 . S
C1028 C1029 1.388 . S
C1029 H1016 0.930 . S
C1029 C1028 1.388 . S
C1029 C1030 1.390 . S
C1030 C1029 1.390 . S
C1030 C1031 1.394 . S
C1030 C1036 1.465 . S
C1031 C1026 1.399 . S
C1031 C1030 1.394 . S
C1031 C1032 1.516 . S
C1032 C1031 1.516 . S
C1032 C1033 1.502 . S
C1032 C1034 1.561 . S
C1032 C1035 1.526 . S
C1033 H1017 0.959 . S
C1033 H1018 0.959 . S
C1033 H1019 0.961 . S
C1033 C1032 1.502 . S
C1034 H1020 0.960 . S
C1034 H1021 0.961 . S
C1034 H1022 0.959 . S
C1034 C1032 1.561 . S
C1035 C1032 1.526 . S
C1035 C1036 1.396 . S
C1035 C1040 1.390 . S
C1036 C1030 1.465 . S
C1036 C1035 1.396 . S
C1036 C1037 1.399 . S
C1037 H1023 0.929 . S
C1037 C1036 1.399 . S
C1037 C1038 1.385 . S
C1038 H1024 0.931 . S
C1038 C1037 1.385 . S
C1038 C1039 1.389 . S
C1039 C1038 1.389 . S
C1039 C1040 1.387 . S
C1040 H1025 0.930 . S
C1040 C1035 1.390 . S
C1040 C1039 1.387 . S
H1041 C1053 0.930 . S
H1042 C1055 0.930 . S
H1043 C1056 0.930 . S
H1044 C1060 0.959 . S
H1045 C1060 0.959 . S
H1046 C1060 0.961 . S
H1047 C1061 0.960 . S
H1048 C1061 0.961 . S
H1049 C1061 0.959 . S
H1050 C1064 0.929 . S
H1051 C1065 0.931 . S
H1052 C1067 0.930 . S
C1053 H1041 0.930 . S
C1053 C1054 1.399 . S
C1053 C1058 1.399 . S
C1054 C1053 1.399 . S
C1054 C1055 1.376 . S
C1055 H1042 0.930 . S
C1055 C1054 1.376 . S
C1055 C1056 1.388 . S
C1056 H1043 0.930 . S
C1056 C1055 1.388 . S
C1056 C1057 1.390 . S
C1057 C1056 1.390 . S
C1057 C1058 1.394 . S
C1057 C1063 1.465 . S
C1058 C1053 1.399 . S
C1058 C1057 1.394 . S
C1058 C1059 1.516 . S
C1059 C1058 1.516 . S
C1059 C1060 1.502 . S
C1059 C1061 1.561 . S
C1059 C1062 1.526 . S
C1060 H1044 0.959 . S
C1060 H1045 0.959 . S
C1060 H1046 0.961 . S
C1060 C1059 1.502 . S
C1061 H1047 0.960 . S
C1061 H1048 0.961 . S
C1061 H1049 0.959 . S
C1061 C1059 1.561 . S
C1062 C1059 1.526 . S
C1062 C1063 1.396 . S
C1062 C1067 1.390 . S
C1063 C1057 1.465 . S
C1063 C1062 1.396 . S
C1063 C1064 1.399 . S
C1064 H1050 0.929 . S
C1064 C1063 1.399 . S
C1064 C1065 1.385 . S
C1065 H1051 0.931 . S
C1065 C1064 1.385 . S
C1065 C1066 1.389 . S
C1066 C1065 1.389 . S
C1066 C1067 1.387 . S
C1067 H1052 0.930 . S
C1067 C1062 1.390 . S
C1067 C1066 1.387 . S
H1068 C1080 0.930 . S
H1069 C1082 0.930 . S
H1070 C1083 0.930 . S
H1071 C1087 0.959 . S
H1072 C1087 0.959 . S
H1073 C1087 0.961 . S
H1074 C1088 0.960 . S
H1075 C1088 0.961 . S
H1076 C1088 0.959 . S
H1077 C1091 0.929 . S
H1078 C1092 0.931 . S
H1079 C1094 0.930 . S
C1080 H1068 0.930 . S
C1080 C1081 1.399 . S
C1080 C1085 1.399 . S
C1081 C1080 1.399 . S
C1081 C1082 1.376 . S
C1082 H1069 0.930 . S
C1082 C1081 1.376 . S
C1082 C1083 1.388 . S
C1083 H1070 0.930 . S
C1083 C1082 1.388 . S
C1083 C1084 1.390 . S
C1084 C1083 1.390 . S
C1084 C1085 1.394 . S
C1084 C1090 1.465 . S
C1085 C1080 1.399 . S
C1085 C1084 1.394 . S
C1085 C1086 1.516 . S
C1086 C1085 1.516 . S
C1086 C1087 1.502 . S
C1086 C1088 1.561 . S
C1086 C1089 1.526 . S
C1087 H1071 0.959 . S
C1087 H1072 0.959 . S
C1087 H1073 0.961 . S
C1087 C1086 1.502 . S
C1088 H1074 0.960 . S
C1088 H1075 0.961 . S
C1088 H1076 0.959 . S
C1088 C1086 1.561 . S
C1089 C1086 1.526 . S
C1089 C1090 1.396 . S
C1089 C1094 1.390 . S
C1090 C1084 1.465 . S
C1090 C1089 1.396 . S
C1090 C1091 1.399 . S
C1091 H1077 0.929 . S
C1091 C1090 1.399 . S
C1091 C1092 1.385 . S
C1092 H1078 0.931 . S
C1092 C1091 1.385 . S
C1092 C1093 1.389 . S
C1093 C1092 1.389 . S
C1093 C1094 1.387 . S
C1094 H1079 0.930 . S
C1094 C1089 1.390 . S
C1094 C1093 1.387 . S
H1095 C1107 0.930 . S
H1096 C1109 0.930 . S
H1097 C1110 0.930 . S
H1098 C1114 0.959 . S
H1099 C1114 0.959 . S
H1100 C1114 0.961 . S
H1101 C1115 0.960 . S
H1102 C1115 0.961 . S
H1103 C1115 0.959 . S
H1104 C1118 0.929 . S
H1105 C1119 0.931 . S
H1106 C1121 0.930 . S
C1107 H1095 0.930 . S
C1107 C1108 1.399 . S
C1107 C1112 1.399 . S
C1108 C1107 1.399 . S
C1108 C1109 1.376 . S
C1109 H1096 0.930 . S
C1109 C1108 1.376 . S
C1109 C1110 1.388 . S
C1110 H1097 0.930 . S
C1110 C1109 1.388 . S
C1110 C1111 1.390 . S
C1111 C1110 1.390 . S
C1111 C1112 1.394 . S
C1111 C1117 1.465 . S
C1112 C1107 1.399 . S
C1112 C1111 1.394 . S
C1112 C1113 1.516 . S
C1113 C1112 1.516 . S
C1113 C1114 1.502 . S
C1113 C1115 1.561 . S
C1113 C1116 1.526 . S
C1114 H1098 0.959 . S
C1114 H1099 0.959 . S
C1114 H1100 0.961 . S
C1114 C1113 1.502 . S
C1115 H1101 0.960 . S
C1115 H1102 0.961 . S
C1115 H1103 0.959 . S
C1115 C1113 1.561 . S
C1116 C1113 1.526 . S
C1116 C1117 1.396 . S
C1116 C1121 1.390 . S
C1117 C1111 1.465 . S
C1117 C1116 1.396 . S
C1117 C1118 1.399 . S
C1118 H1104 0.929 . S
C1118 C1117 1.399 . S
C1118 C1119 1.385 . S
C1119 H1105 0.931 . S
C1119 C1118 1.385 . S
C1119 C1120 1.389 . S
C1120 C1119 1.389 . S
C1120 C1121 1.387 . S
C1121 H1106 0.930 . S
C1121 C1116 1.390 . S
C1121 C1120 1.387 . S
H1122 C1134 0.930 . S
H1123 C1136 0.930 . S
H1124 C1137 0.930 . S
H1125 C1141 0.959 . S
H1126 C1141 0.959 . S
H1127 C1141 0.961 . S
H1128 C1142 0.960 . S
H1129 C1142 0.961 . S
H1130 C1142 0.959 . S
H1131 C1145 0.929 . S
H1132 C1146 0.931 . S
H1133 C1148 0.930 . S
C1134 H1122 0.930 . S
C1134 C1135 1.399 . S
C1134 C1139 1.399 . S
C1135 C1134 1.399 . S
C1135 C1136 1.376 . S
C1136 H1123 0.930 . S
C1136 C1135 1.376 . S
C1136 C1137 1.388 . S
C1137 H1124 0.930 . S
C1137 C1136 1.388 . S
C1137 C1138 1.390 . S
C1138 C1137 1.390 . S
C1138 C1139 1.394 . S
C1138 C1144 1.465 . S
C1139 C1134 1.399 . S
C1139 C1138 1.394 . S
C1139 C1140 1.516 . S
C1140 C1139 1.516 . S
C1140 C1141 1.502 . S
C1140 C1142 1.561 . S
C1140 C1143 1.526 . S
C1141 H1125 0.959 . S
C1141 H1126 0.959 . S
C1141 H1127 0.961 . S
C1141 C1140 1.502 . S
C1142 H1128 0.960 . S
C1142 H1129 0.961 . S
C1142 H1130 0.959 . S
C1142 C1140 1.561 . S
C1143 C1140 1.526 . S
C1143 C1144 1.396 . S
C1143 C1148 1.390 . S
C1144 C1138 1.465 . S
C1144 C1143 1.396 . S
C1144 C1145 1.399 . S
C1145 H1131 0.929 . S
C1145 C1144 1.399 . S
C1145 C1146 1.385 . S
C1146 H1132 0.931 . S
C1146 C1145 1.385 . S
C1146 C1147 1.389 . S
C1147 C1146 1.389 . S
C1147 C1148 1.387 . S
C1148 H1133 0.930 . S
C1148 C1143 1.390 . S
C1148 C1147 1.387 . S
H1149 C1161 0.930 . S
H1150 C1163 0.930 . S
H1151 C1164 0.930 . S
H1152 C1168 0.959 . S
H1153 C1168 0.959 . S
H1154 C1168 0.961 . S
H1155 C1169 0.960 . S
H1156 C1169 0.961 . S
H1157 C1169 0.959 . S
H1158 C1172 0.929 . S
H1159 C1173 0.931 . S
H1160 C1175 0.930 . S
C1161 H1149 0.930 . S
C1161 C1162 1.399 . S
C1161 C1166 1.399 . S
C1162 C1161 1.399 . S
C1162 C1163 1.376 . S
C1163 H1150 0.930 . S
C1163 C1162 1.376 . S
C1163 C1164 1.388 . S
C1164 H1151 0.930 . S
C1164 C1163 1.388 . S
C1164 C1165 1.390 . S
C1165 C1164 1.390 . S
C1165 C1166 1.394 . S
C1165 C1171 1.465 . S
C1166 C1161 1.399 . S
C1166 C1165 1.394 . S
C1166 C1167 1.516 . S
C1167 C1166 1.516 . S
C1167 C1168 1.502 . S
C1167 C1169 1.561 . S
C1167 C1170 1.526 . S
C1168 H1152 0.959 . S
C1168 H1153 0.959 . S
C1168 H1154 0.961 . S
C1168 C1167 1.502 . S
C1169 H1155 0.960 . S
C1169 H1156 0.961 . S
C1169 H1157 0.959 . S
C1169 C1167 1.561 . S
C1170 C1167 1.526 . S
C1170 C1171 1.396 . S
C1170 C1175 1.390 . S
C1171 C1165 1.465 . S
C1171 C1170 1.396 . S
C1171 C1172 1.399 . S
C1172 H1158 0.929 . S
C1172 C1171 1.399 . S
C1172 C1173 1.385 . S
C1173 H1159 0.931 . S
C1173 C1172 1.385 . S
C1173 C1174 1.389 . S
C1174 C1173 1.389 . S
C1174 C1175 1.387 . S
C1175 H1160 0.930 . S
C1175 C1170 1.390 . S
C1175 C1174 1.387 . S
H1176 C1188 0.930 1_545 S
H1177 C1190 0.930 . S
H1178 C1191 0.930 . S
H1179 C1195 0.959 . S
H1180 C1195 0.959 . S
H1181 C1195 0.961 . S
H1182 C1196 0.960 . S
H1183 C1196 0.961 . S
H1184 C1196 0.959 . S
H1185 C1199 0.929 . S
H1186 C1200 0.931 . S
H1187 C1202 0.930 . S
C1188 H1176 0.930 1_565 S
C1188 C1189 1.399 1_565 S
C1188 C1193 1.399 . S
C1189 C1188 1.399 1_545 S
C1189 C1190 1.376 1_545 S
C1190 H1177 0.930 . S
C1190 C1189 1.376 1_565 S
C1190 C1191 1.388 . S
C1191 H1178 0.930 . S
C1191 C1190 1.388 . S
C1191 C1192 1.390 . S
C1192 C1191 1.390 . S
C1192 C1193 1.394 . S
C1192 C1198 1.465 . S
C1193 C1188 1.399 . S
C1193 C1192 1.394 . S
C1193 C1194 1.516 . S
C1194 C1193 1.516 . S
C1194 C1195 1.502 . S
C1194 C1196 1.561 . S
C1194 C1197 1.526 . S
C1195 H1179 0.959 . S
C1195 H1180 0.959 . S
C1195 H1181 0.961 . S
C1195 C1194 1.502 . S
C1196 H1182 0.960 . S
C1196 H1183 0.961 . S
C1196 H1184 0.959 . S
C1196 C1194 1.561 . S
C1197 C1194 1.526 . S
C1197 C1198 1.396 . S
C1197 C1202 1.390 . S
C1198 C1192 1.465 . S
C1198 C1197 1.396 . S
C1198 C1199 1.399 . S
C1199 H1185 0.929 . S
C1199 C1198 1.399 . S
C1199 C1200 1.385 . S
C1200 H1186 0.931 . S
C1200 C1199 1.385 . S
C1200 C1201 1.389 . S
C1201 C1200 1.389 . S
C1201 C1202 1.387 . S
C1202 H1187 0.930 . S
C1202 C1197 1.390 . S
C1202 C1201 1.387 . S
H1203 C1215 0.930 . S
H1204 C1217 0.930 . S
H1205 C1218 0.930 . S
H1206 C1222 0.959 . S
H1207 C1222 0.959 . S
H1208 C1222 0.961 . S
H1209 C1223 0.960 . S
H1210 C1223 0.961 . S
H1211 C1223 0.959 . S
H1212 C1226 0.929 . S
H1213 C1227 0.931 . S
H1214 C1229 0.930 1_455 S
C1215 H1203 0.930 . S
C1215 C1216 1.399 . S
C1215 C1220 1.399 . S
C1216 C1215 1.399 . S
C1216 C1217 1.376 . S
C1217 H1204 0.930 . S
C1217 C1216 1.376 . S
C1217 C1218 1.388 . S
C1218 H1205 0.930 . S
C1218 C1217 1.388 . S
C1218 C1219 1.390 . S
C1219 C1218 1.390 . S
C1219 C1220 1.394 . S
C1219 C1225 1.465 . S
C1220 C1215 1.399 . S
C1220 C1219 1.394 . S
C1220 C1221 1.516 . S
C1221 C1220 1.516 . S
C1221 C1222 1.502 . S
C1221 C1223 1.561 . S
C1221 C1224 1.526 . S
C1222 H1206 0.959 . S
C1222 H1207 0.959 . S
C1222 H1208 0.961 . S
C1222 C1221 1.502 . S
C1223 H1209 0.960 . S
C1223 H1210 0.961 . S
C1223 H1211 0.959 . S
C1223 C1221 1.561 . S
C1224 C1221 1.526 . S
C1224 C1225 1.396 . S
C1224 C1229 1.390 . S
C1225 C1219 1.465 . S
C1225 C1224 1.396 . S
C1225 C1226 1.399 . S
C1226 H1212 0.929 . S
C1226 C1225 1.399 . S
C1226 C1227 1.385 . S
C1227 H1213 0.931 . S
C1227 C1226 1.385 . S
C1227 C1228 1.389 1_655 S
C1228 C1227 1.389 1_455 S
C1228 C1229 1.387 1_455 S
C1229 H1214 0.930 1_655 S
C1229 C1224 1.390 . S
C1229 C1228 1.387 1_655 S
H1230 C1242 0.930 1_565 S
H1231 C1244 0.930 . S
H1232 C1245 0.930 . S
H1233 C1249 0.959 . S
H1234 C1249 0.959 . S
H1235 C1249 0.961 . S
H1236 C1250 0.960 . S
H1237 C1250 0.961 . S
H1238 C1250 0.959 . S
H1239 C1253 0.929 . S
H1240 C1254 0.931 . S
H1241 C1256 0.930 . S
C1242 H1230 0.930 1_545 S
C1242 C1243 1.399 1_545 S
C1242 C1247 1.399 . S
C1243 C1242 1.399 1_565 S
C1243 C1244 1.376 1_565 S
C1244 H1231 0.930 . S
C1244 C1243 1.376 1_545 S
C1244 C1245 1.388 . S
C1245 H1232 0.930 . S
C1245 C1244 1.388 . S
C1245 C1246 1.390 . S
C1246 C1245 1.390 . S
C1246 C1247 1.394 . S
C1246 C1252 1.465 . S
C1247 C1242 1.399 . S
C1247 C1246 1.394 . S
C1247 C1248 1.516 . S
C1248 C1247 1.516 . S
C1248 C1249 1.502 . S
C1248 C1250 1.561 . S
C1248 C1251 1.526 . S
C1249 H1233 0.959 . S
C1249 H1234 0.959 . S
C1249 H1235 0.961 . S
C1249 C1248 1.502 . S
C1250 H1236 0.960 . S
C1250 H1237 0.961 . S
C1250 H1238 0.959 . S
C1250 C1248 1.561 . S
C1251 C1248 1.526 . S
C1251 C1252 1.396 . S
C1251 C1256 1.390 . S
C1252 C1246 1.465 . S
C1252 C1251 1.396 . S
C1252 C1253 1.399 . S
C1253 H1239 0.929 . S
C1253 C1252 1.399 . S
C1253 C1254 1.385 . S
C1254 H1240 0.931 . S
C1254 C1253 1.385 . S
C1254 C1255 1.389 . S
C1255 C1254 1.389 . S
C1255 C1256 1.387 . S
C1256 H1241 0.930 . S
C1256 C1251 1.390 . S
C1256 C1255 1.387 . S
H1257 C1269 0.930 . S
H1258 C1271 0.930 . S
H1259 C1272 0.930 . S
H1260 C1276 0.959 . S
H1261 C1276 0.959 . S
H1262 C1276 0.961 . S
H1263 C1277 0.960 . S
H1264 C1277 0.961 . S
H1265 C1277 0.959 . S
H1266 C1280 0.929 . S
H1267 C1281 0.931 . S
H1268 C1283 0.930 . S
C1269 H1257 0.930 . S
C1269 C1270 1.399 . S
C1269 C1274 1.399 . S
C1270 C1269 1.399 . S
C1270 C1271 1.376 . S
C1271 H1258 0.930 . S
C1271 C1270 1.376 . S
C1271 C1272 1.388 . S
C1272 H1259 0.930 . S
C1272 C1271 1.388 . S
C1272 C1273 1.390 . S
C1273 C1272 1.390 . S
C1273 C1274 1.394 . S
C1273 C1279 1.465 . S
C1274 C1269 1.399 . S
C1274 C1273 1.394 . S
C1274 C1275 1.516 . S
C1275 C1274 1.516 . S
C1275 C1276 1.502 . S
C1275 C1277 1.561 . S
C1275 C1278 1.526 . S
C1276 H1260 0.959 . S
C1276 H1261 0.959 . S
C1276 H1262 0.961 . S
C1276 C1275 1.502 . S
C1277 H1263 0.960 . S
C1277 H1264 0.961 . S
C1277 H1265 0.959 . S
C1277 C1275 1.561 . S
C1278 C1275 1.526 . S
C1278 C1279 1.396 . S
C1278 C1283 1.390 . S
C1279 C1273 1.465 . S
C1279 C1278 1.396 . S
C1279 C1280 1.399 . S
C1280 H1266 0.929 . S
C1280 C1279 1.399 . S
C1280 C1281 1.385 1_455 S
C1281 H1267 0.931 . S
C1281 C1280 1.385 1_655 S
C1281 C1282 1.389 . S
C1282 C1281 1.389 . S
C1282 C1283 1.387 1_655 S
C1283 H1268 0.930 . S
C1283 C1278 1.390 . S
C1283 C1282 1.387 1_455 S
H1284 C1296 0.930 1_554 S
H1285 C1298 0.930 . S
H1286 C1299 0.930 . S
H1287 C1303 0.959 . S
H1288 C1303 0.959 . S
H1289 C1303 0.961 . S
H1290 C1304 0.960 . S
H1291 C1304 0.961 . S
H1292 C1304 0.959 . S
H1293 C1307 0.929 . S
H1294 C1308 0.931 . S
H1295 C1310 0.930 . S
C1296 H1284 0.930 1_556 S
C1296 C1297 1.399 . S
C1296 C1301 1.399 . S
C1297 C1296 1.399 . S
C1297 C1298 1.376 . S
C1298 H1285 0.930 . S
C1298 C1297 1.376 . S
C1298 C1299 1.388 . S
C1299 H1286 0.930 . S
C1299 C1298 1.388 . S
C1299 C1300 1.390 . S
C1300 C1299 1.390 . S
C1300 C1301 1.394 . S
C1300 C1306 1.465 . S
C1301 C1296 1.399 . S
C1301 C1300 1.394 . S
C1301 C1302 1.516 1_556 S
C1302 C1301 1.516 1_554 S
C1302 C1303 1.502 . S
C1302 C1304 1.561 . S
C1302 C1305 1.526 . S
C1303 H1287 0.959 . S
C1303 H1288 0.959 . S
C1303 H1289 0.961 . S
C1303 C1302 1.502 . S
C1304 H1290 0.960 . S
C1304 H1291 0.961 . S
C1304 H1292 0.959 . S
C1304 C1302 1.561 . S
C1305 C1302 1.526 . S
C1305 C1306 1.396 1_554 S
C1305 C1310 1.390 . S
C1306 C1300 1.465 . S
C1306 C1305 1.396 1_556 S
C1306 C1307 1.399 . S
C1307 H1293 0.929 . S
C1307 C1306 1.399 . S
C1307 C1308 1.385 . S
C1308 H1294 0.931 . S
C1308 C1307 1.385 . S
C1308 C1309 1.389 1_556 S
C1309 C1308 1.389 1_554 S
C1309 C1310 1.387 . S
C1310 H1295 0.930 . S
C1310 C1305 1.390 . S
C1310 C1309 1.387 . S
H1311 C1323 0.930 . S
H1312 C1325 0.930 1_556 S
H1313 C1326 0.930 . S
H1314 C1330 0.959 . S
H1315 C1330 0.959 . S
H1316 C1330 0.961 . S
H1317 C1331 0.960 . S
H1318 C1331 0.961 . S
H1319 C1331 0.959 . S
H1320 C1334 0.929 . S
H1321 C1335 0.931 . S
H1322 C1337 0.930 . S
C1323 H1311 0.930 . S
C1323 C1324 1.399 . S
C1323 C1328 1.399 . S
C1324 C1323 1.399 . S
C1324 C1325 1.376 . S
C1325 H1312 0.930 1_554 S
C1325 C1324 1.376 . S
C1325 C1326 1.388 1_554 S
C1326 H1313 0.930 . S
C1326 C1325 1.388 1_556 S
C1326 C1327 1.390 1_556 S
C1327 C1326 1.390 1_554 S
C1327 C1328 1.394 . S
C1327 C1333 1.465 1_554 S
C1328 C1323 1.399 . S
C1328 C1327 1.394 . S
C1328 C1329 1.516 . S
C1329 C1328 1.516 . S
C1329 C1330 1.502 . S
C1329 C1331 1.561 . S
C1329 C1332 1.526 . S
C1330 H1314 0.959 . S
C1330 H1315 0.959 . S
C1330 H1316 0.961 . S
C1330 C1329 1.502 . S
C1331 H1317 0.960 . S
C1331 H1318 0.961 . S
C1331 H1319 0.959 . S
C1331 C1329 1.561 . S
C1332 C1329 1.526 . S
C1332 C1333 1.396 1_554 S
C1332 C1337 1.390 . S
C1333 C1327 1.465 1_556 S
C1333 C1332 1.396 1_556 S
C1333 C1334 1.399 . S
C1334 H1320 0.929 . S
C1334 C1333 1.399 . S
C1334 C1335 1.385 . S
C1335 H1321 0.931 . S
C1335 C1334 1.385 . S
C1335 C1336 1.389 . S
C1336 C1335 1.389 . S
C1336 C1337 1.387 1_556 S
C1337 H1322 0.930 . S
C1337 C1332 1.390 . S
C1337 C1336 1.387 1_554 S
H1338 C1350 0.930 . S
H1339 C1352 0.930 . S
H1340 C1353 0.930 . S
H1341 C1357 0.959 . S
H1342 C1357 0.959 . S
H1343 C1357 0.961 . S
H1344 C1358 0.960 . S
H1345 C1358 0.961 . S
H1346 C1358 0.959 . S
H1347 C1361 0.929 . S
H1348 C1362 0.931 . S
H1349 C1364 0.930 1_554 S
C1350 H1338 0.930 . S
C1350 C1351 1.399 . S
C1350 C1355 1.399 . S
C1351 C1350 1.399 . S
C1351 C1352 1.376 1_554 S
C1352 H1339 0.930 . S
C1352 C1351 1.376 1_556 S
C1352 C1353 1.388 . S
C1353 H1340 0.930 . S
C1353 C1352 1.388 . S
C1353 C1354 1.390 . S
C1354 C1353 1.390 . S
C1354 C1355 1.394 1_556 S
C1354 C1360 1.465 . S
C1355 C1350 1.399 . S
C1355 C1354 1.394 1_554 S
C1355 C1356 1.516 . S
C1356 C1355 1.516 . S
C1356 C1357 1.502 . S
C1356 C1358 1.561 . S
C1356 C1359 1.526 1_554 S
C1357 H1341 0.959 . S
C1357 H1342 0.959 . S
C1357 H1343 0.961 . S
C1357 C1356 1.502 . S
C1358 H1344 0.960 . S
C1358 H1345 0.961 . S
C1358 H1346 0.959 . S
C1358 C1356 1.561 . S
C1359 C1356 1.526 1_556 S
C1359 C1360 1.396 . S
C1359 C1364 1.390 . S
C1360 C1354 1.465 . S
C1360 C1359 1.396 . S
C1360 C1361 1.399 . S
C1361 H1347 0.929 . S
C1361 C1360 1.399 . S
C1361 C1362 1.385 . S
C1362 H1348 0.931 . S
C1362 C1361 1.385 . S
C1362 C1363 1.389 . S
C1363 C1362 1.389 . S
C1363 C1364 1.387 . S
C1364 H1349 0.930 1_556 S
C1364 C1359 1.390 . S
C1364 C1363 1.387 . S
H1365 C1377 0.930 1_556 S
H1366 C1379 0.930 . S
H1367 C1380 0.930 . S
H1368 C1384 0.959 . S
H1369 C1384 0.959 . S
H1370 C1384 0.961 . S
H1371 C1385 0.960 . S
H1372 C1385 0.961 . S
H1373 C1385 0.959 . S
H1374 C1388 0.929 . S
H1375 C1389 0.931 . S
H1376 C1391 0.930 . S
C1377 H1365 0.930 1_554 S
C1377 C1378 1.399 . S
C1377 C1382 1.399 . S
C1378 C1377 1.399 . S
C1378 C1379 1.376 . S
C1379 H1366 0.930 . S
C1379 C1378 1.376 . S
C1379 C1380 1.388 . S
C1380 H1367 0.930 . S
C1380 C1379 1.388 . S
C1380 C1381 1.390 . S
C1381 C1380 1.390 . S
C1381 C1382 1.394 . S
C1381 C1387 1.465 . S
C1382 C1377 1.399 . S
C1382 C1381 1.394 . S
C1382 C1383 1.516 1_554 S
C1383 C1382 1.516 1_556 S
C1383 C1384 1.502 . S
C1383 C1385 1.561 . S
C1383 C1386 1.526 . S
C1384 H1368 0.959 . S
C1384 H1369 0.959 . S
C1384 H1370 0.961 . S
C1384 C1383 1.502 . S
C1385 H1371 0.960 . S
C1385 H1372 0.961 . S
C1385 H1373 0.959 . S
C1385 C1383 1.561 . S
C1386 C1383 1.526 . S
C1386 C1387 1.396 1_556 S
C1386 C1391 1.390 . S
C1387 C1381 1.465 . S
C1387 C1386 1.396 1_554 S
C1387 C1388 1.399 . S
C1388 H1374 0.929 . S
C1388 C1387 1.399 . S
C1388 C1389 1.385 . S
C1389 H1375 0.931 . S
C1389 C1388 1.385 . S
C1389 C1390 1.389 1_554 S
C1390 C1389 1.389 1_556 S
C1390 C1391 1.387 . S
C1391 H1376 0.930 . S
C1391 C1386 1.390 . S
C1391 C1390 1.387 . S
H1392 C1404 0.930 . S
H1393 C1406 0.930 . S
H1394 C1407 0.930 . S
H1395 C1411 0.959 . S
H1396 C1411 0.959 . S
H1397 C1411 0.961 . S
H1398 C1412 0.960 . S
H1399 C1412 0.961 . S
H1400 C1412 0.959 . S
H1401 C1415 0.929 . S
H1402 C1416 0.931 . S
H1403 C1418 0.930 . S
C1404 H1392 0.930 . S
C1404 C1405 1.399 . S
C1404 C1409 1.399 . S
C1405 C1404 1.399 . S
C1405 C1406 1.376 . S
C1406 H1393 0.930 . S
C1406 C1405 1.376 . S
C1406 C1407 1.388 . S
C1407 H1394 0.930 . S
C1407 C1406 1.388 . S
C1407 C1408 1.390 . S
C1408 C1407 1.390 . S
C1408 C1409 1.394 . S
C1408 C1414 1.465 . S
C1409 C1404 1.399 . S
C1409 C1408 1.394 . S
C1409 C1410 1.516 . S
C1410 C1409 1.516 . S
C1410 C1411 1.502 . S
C1410 C1412 1.561 . S
C1410 C1413 1.526 . S
C1411 H1395 0.959 . S
C1411 H1396 0.959 . S
C1411 H1397 0.961 . S
C1411 C1410 1.502 . S
C1412 H1398 0.960 . S
C1412 H1399 0.961 . S
C1412 H1400 0.959 . S
C1412 C1410 1.561 . S
C1413 C1410 1.526 . S
C1413 C1414 1.396 . S
C1413 C1418 1.390 . S
C1414 C1408 1.465 . S
C1414 C1413 1.396 . S
C1414 C1415 1.399 . S
C1415 H1401 0.929 . S
C1415 C1414 1.399 . S
C1415 C1416 1.385 . S
C1416 H1402 0.931 . S
C1416 C1415 1.385 . S
C1416 C1417 1.389 . S
C1417 C1416 1.389 . S
C1417 C1418 1.387 . S
C1418 H1403 0.930 . S
C1418 C1413 1.390 . S
C1418 C1417 1.387 . S
H1419 C1431 0.930 . S
H1420 C1433 0.930 . S
H1421 C1434 0.930 . S
H1422 C1438 0.959 . S
H1423 C1438 0.959 . S
H1424 C1438 0.961 . S
H1425 C1439 0.960 . S
H1426 C1439 0.961 . S
H1427 C1439 0.959 . S
H1428 C1442 0.929 . S
H1429 C1443 0.931 . S
H1430 C1445 0.930 . S
C1431 H1419 0.930 . S
C1431 C1432 1.399 . S
C1431 C1436 1.399 . S
C1432 C1431 1.399 . S
C1432 C1433 1.376 . S
C1433 H1420 0.930 . S
C1433 C1432 1.376 . S
C1433 C1434 1.388 . S
C1434 H1421 0.930 . S
C1434 C1433 1.388 . S
C1434 C1435 1.390 . S
C1435 C1434 1.390 . S
C1435 C1436 1.394 . S
C1435 C1441 1.465 . S
C1436 C1431 1.399 . S
C1436 C1435 1.394 . S
C1436 C1437 1.516 . S
C1437 C1436 1.516 . S
C1437 C1438 1.502 . S
C1437 C1439 1.561 . S
C1437 C1440 1.526 . S
C1438 H1422 0.959 . S
C1438 H1423 0.959 . S
C1438 H1424 0.961 . S
C1438 C1437 1.502 . S
C1439 H1425 0.960 . S
C1439 H1426 0.961 . S
C1439 H1427 0.959 . S
C1439 C1437 1.561 . S
C1440 C1437 1.526 . S
C1440 C1441 1.396 . S
C1440 C1445 1.390 . S
C1441 C1435 1.465 . S
C1441 C1440 1.396 . S
C1441 C1442 1.399 . S
C1442 H1428 0.929 . S
C1442 C1441 1.399 . S
C1442 C1443 1.385 . S
C1443 H1429 0.931 . S
C1443 C1442 1.385 . S
C1443 C1444 1.389 . S
C1444 C1443 1.389 . S
C1444 C1445 1.387 . S
C1445 H1430 0.930 . S
C1445 C1440 1.390 . S
C1445 C1444 1.387 . S
H1446 C1458 0.930 . S
H1447 C1460 0.930 . S
H1448 C1461 0.930 . S
H1449 C1465 0.959 . S
H1450 C1465 0.959 . S
H1451 C1465 0.961 . S
H1452 C1466 0.960 . S
H1453 C1466 0.961 . S
H1454 C1466 0.959 . S
H1455 C1469 0.929 . S
H1456 C1470 0.931 . S
H1457 C1472 0.930 . S
C1458 H1446 0.930 . S
C1458 C1459 1.399 . S
C1458 C1463 1.399 . S
C1459 C1458 1.399 . S
C1459 C1460 1.376 . S
C1460 H1447 0.930 . S
C1460 C1459 1.376 . S
C1460 C1461 1.388 . S
C1461 H1448 0.930 . S
C1461 C1460 1.388 . S
C1461 C1462 1.390 . S
C1462 C1461 1.390 . S
C1462 C1463 1.394 . S
C1462 C1468 1.465 . S
C1463 C1458 1.399 . S
C1463 C1462 1.394 . S
C1463 C1464 1.516 . S
C1464 C1463 1.516 . S
C1464 C1465 1.502 . S
C1464 C1466 1.561 . S
C1464 C1467 1.526 . S
C1465 H1449 0.959 . S
C1465 H1450 0.959 . S
C1465 H1451 0.961 . S
C1465 C1464 1.502 . S
C1466 H1452 0.960 . S
C1466 H1453 0.961 . S
C1466 H1454 0.959 . S
C1466 C1464 1.561 . S
C1467 C1464 1.526 . S
C1467 C1468 1.396 . S
C1467 C1472 1.390 . S
C1468 C1462 1.465 . S
C1468 C1467 1.396 . S
C1468 C1469 1.399 . S
C1469 H1455 0.929 . S
C1469 C1468 1.399 . S
C1469 C1470 1.385 . S
C1470 H1456 0.931 . S
C1470 C1469 1.385 . S
C1470 C1471 1.389 . S
C1471 C1470 1.389 . S
C1471 C1472 1.387 . S
C1472 H1457 0.930 . S
C1472 C1467 1.390 . S
C1472 C1471 1.387 . S
H1473 C1485 0.930 . S
H1474 C1487 0.930 . S
H1475 C1488 0.930 . S
H1476 C1492 0.959 . S
H1477 C1492 0.959 . S
H1478 C1492 0.961 . S
H1479 C1493 0.960 . S
H1480 C1493 0.961 . S
H1481 C1493 0.959 . S
H1482 C1496 0.929 . S
H1483 C1497 0.931 . S
H1484 C1499 0.930 . S
C1485 H1473 0.930 . S
C1485 C1486 1.399 . S
C1485 C1490 1.399 . S
C1486 C1485 1.399 . S
C1486 C1487 1.376 . S
C1487 H1474 0.930 . S
C1487 C1486 1.376 . S
C1487 C1488 1.388 . S
C1488 H1475 0.930 . S
C1488 C1487 1.388 . S
C1488 C1489 1.390 . S
C1489 C1488 1.390 . S
C1489 C1490 1.394 . S
C1489 C1495 1.465 . S
C1490 C1485 1.399 . S
C1490 C1489 1.394 . S
C1490 C1491 1.516 . S
C1491 C1490 1.516 . S
C1491 C1492 1.502 . S
C1491 C1493 1.561 . S
C1491 C1494 1.526 . S
C1492 H1476 0.959 . S
C1492 H1477 0.959 . S
C1492 H1478 0.961 . S
C1492 C1491 1.502 . S
C1493 H1479 0.960 . S
C1493 H1480 0.961 . S
C1493 H1481 0.959 . S
C1493 C1491 1.561 . S
C1494 C1491 1.526 . S
C1494 C1495 1.396 . S
C1494 C1499 1.390 . S
C1495 C1489 1.465 . S
C1495 C1494 1.396 . S
C1495 C1496 1.399 . S
C1496 H1482 0.929 . S
C1496 C1495 1.399 . S
C1496 C1497 1.385 . S
C1497 H1483 0.931 . S
C1497 C1496 1.385 . S
C1497 C1498 1.389 . S
C1498 C1497 1.389 . S
C1498 C1499 1.387 . S
C1499 H1484 0.930 . S
C1499 C1494 1.390 . S
C1499 C1498 1.387 . S
H1500 C1512 0.930 . S
H1501 C1514 0.930 . S
H1502 C1515 0.930 . S
H1503 C1519 0.959 . S
H1504 C1519 0.959 . S
H1505 C1519 0.961 . S
H1506 C1520 0.960 . S
H1507 C1520 0.961 . S
H1508 C1520 0.959 . S
H1509 C1523 0.929 . S
H1510 C1524 0.931 . S
H1511 C1526 0.930 . S
C1512 H1500 0.930 . S
C1512 C1513 1.399 . S
C1512 C1517 1.399 . S
C1513 C1512 1.399 . S
C1513 C1514 1.376 . S
C1514 H1501 0.930 . S
C1514 C1513 1.376 . S
C1514 C1515 1.388 . S
C1515 H1502 0.930 . S
C1515 C1514 1.388 . S
C1515 C1516 1.390 . S
C1516 C1515 1.390 . S
C1516 C1517 1.394 . S
C1516 C1522 1.465 . S
C1517 C1512 1.399 . S
C1517 C1516 1.394 . S
C1517 C1518 1.516 . S
C1518 C1517 1.516 . S
C1518 C1519 1.502 . S
C1518 C1520 1.561 . S
C1518 C1521 1.526 . S
C1519 H1503 0.959 . S
C1519 H1504 0.959 . S
C1519 H1505 0.961 . S
C1519 C1518 1.502 . S
C1520 H1506 0.960 . S
C1520 H1507 0.961 . S
C1520 H1508 0.959 . S
C1520 C1518 1.561 . S
C1521 C1518 1.526 . S
C1521 C1522 1.396 . S
C1521 C1526 1.390 . S
C1522 C1516 1.465 . S
C1522 C1521 1.396 . S
C1522 C1523 1.399 . S
C1523 H1509 0.929 . S
C1523 C1522 1.399 . S
C1523 C1524 1.385 1_545 S
C1524 H1510 0.931 . S
C1524 C1523 1.385 1_565 S
C1524 C1525 1.389 . S
C1525 C1524 1.389 . S
C1525 C1526 1.387 1_565 S
C1526 H1511 0.930 . S
C1526 C1521 1.390 . S
C1526 C1525 1.387 1_545 S
H1527 C1539 0.930 . S
H1528 C1541 0.930 . S
H1529 C1542 0.930 . S
H1530 C1546 0.959 . S
H1531 C1546 0.959 . S
H1532 C1546 0.961 . S
H1533 C1547 0.960 . S
H1534 C1547 0.961 . S
H1535 C1547 0.959 . S
H1536 C1550 0.929 . S
H1537 C1551 0.931 . S
H1538 C1553 0.930 . S
C1539 H1527 0.930 . S
C1539 C1540 1.399 . S
C1539 C1544 1.399 . S
C1540 C1539 1.399 . S
C1540 C1541 1.376 . S
C1541 H1528 0.930 . S
C1541 C1540 1.376 . S
C1541 C1542 1.388 . S
C1542 H1529 0.930 . S
C1542 C1541 1.388 . S
C1542 C1543 1.390 . S
C1543 C1542 1.390 . S
C1543 C1544 1.394 . S
C1543 C1549 1.465 . S
C1544 C1539 1.399 . S
C1544 C1543 1.394 . S
C1544 C1545 1.516 . S
C1545 C1544 1.516 . S
C1545 C1546 1.502 . S
C1545 C1547 1.561 . S
C1545 C1548 1.526 . S
C1546 H1530 0.959 . S
C1546 H1531 0.959 . S
C1546 H1532 0.961 . S
C1546 C1545 1.502 . S
C1547 H1533 0.960 . S
C1547 H1534 0.961 . S
C1547 H1535 0.959 . S
C1547 C1545 1.561 . S
C1548 C1545 1.526 . S
C1548 C1549 1.396 . S
C1548 C1553 1.390 . S
C1549 C1543 1.465 . S
C1549 C1548 1.396 . S
C1549 C1550 1.399 . S
C1550 H1536 0.929 . S
C1550 C1549 1.399 . S
C1550 C1551 1.385 1_455 S
C1551 H1537 0.931 . S
C1551 C1550 1.385 1_655 S
C1551 C1552 1.389 . S
C1552 C1551 1.389 . S
C1552 C1553 1.387 1_655 S
C1553 H1538 0.930 . S
C1553 C1548 1.390 . S
C1553 C1552 1.387 1_455 S
H1554 C1566 0.930 . S
H1555 C1568 0.930 . S
H1556 C1569 0.930 . S
H1557 C1573 0.959 . S
H1558 C1573 0.959 . S
H1559 C1573 0.961 . S
H1560 C1574 0.960 . S
H1561 C1574 0.961 . S
H1562 C1574 0.959 . S
H1563 C1577 0.929 . S
H1564 C1578 0.924 1_545 S
H1565 C1580 0.930 1_545 S
C1566 H1554 0.930 . S
C1566 C1567 1.399 . S
C1566 C1571 1.399 . S
C1567 C1566 1.399 . S
C1567 C1568 1.376 . S
C1568 H1555 0.930 . S
C1568 C1567 1.376 . S
C1568 C1569 1.388 . S
C1569 H1556 0.930 . S
C1569 C1568 1.388 . S
C1569 C1570 1.390 . S
C1570 C1569 1.390 . S
C1570 C1571 1.394 . S
C1570 C1576 1.465 . S
C1571 C1566 1.399 . S
C1571 C1570 1.394 . S
C1571 C1572 1.516 . S
C1572 C1571 1.516 . S
C1572 C1573 1.502 . S
C1572 C1574 1.561 . S
C1572 C1575 1.526 . S
C1573 H1557 0.959 . S
C1573 H1558 0.959 . S
C1573 H1559 0.961 . S
C1573 C1572 1.502 . S
C1574 H1560 0.960 . S
C1574 H1561 0.961 . S
C1574 H1562 0.959 . S
C1574 C1572 1.561 . S
C1575 C1572 1.526 . S
C1575 C1576 1.396 . S
C1575 C1580 1.390 . S
C1576 C1570 1.465 . S
C1576 C1575 1.396 . S
C1576 C1577 1.399 . S
C1577 H1563 0.929 . S
C1577 C1576 1.399 . S
C1577 C1578 1.385 . S
C1578 H1564 0.924 1_565 S
C1578 C1577 1.385 . S
C1578 C1579 1.389 1_565 S
C1579 C1578 1.389 1_545 S
C1579 C1580 1.387 1_545 S
C1580 H1565 0.930 1_565 S
C1580 C1575 1.390 . S
C1580 C1579 1.387 1_565 S
H1581 C1593 0.930 1_455 S
H1582 C1595 0.930 . S
H1583 C1596 0.930 . S
H1584 C1600 0.959 . S
H1585 C1600 0.959 . S
H1586 C1600 0.961 . S
H1587 C1601 0.960 . S
H1588 C1601 0.961 . S
H1589 C1601 0.959 . S
H1590 C1604 0.929 . S
H1591 C1605 0.931 . S
H1592 C1607 0.930 . S
C1593 H1581 0.930 1_655 S
C1593 C1594 1.399 1_655 S
C1593 C1598 1.399 . S
C1594 C1593 1.399 1_455 S
C1594 C1595 1.376 1_455 S
C1595 H1582 0.930 . S
C1595 C1594 1.376 1_655 S
C1595 C1596 1.388 . S
C1596 H1583 0.930 . S
C1596 C1595 1.388 . S
C1596 C1597 1.390 . S
C1597 C1596 1.390 . S
C1597 C1598 1.394 . S
C1597 C1603 1.465 . S
C1598 C1593 1.399 . S
C1598 C1597 1.394 . S
C1598 C1599 1.516 . S
C1599 C1598 1.516 . S
C1599 C1600 1.502 . S
C1599 C1601 1.561 . S
C1599 C1602 1.526 . S
C1600 H1584 0.959 . S
C1600 H1585 0.959 . S
C1600 H1586 0.961 . S
C1600 C1599 1.502 . S
C1601 H1587 0.960 . S
C1601 H1588 0.961 . S
C1601 H1589 0.959 . S
C1601 C1599 1.561 . S
C1602 C1599 1.526 . S
C1602 C1603 1.396 . S
C1602 C1607 1.390 . S
C1603 C1597 1.465 . S
C1603 C1602 1.396 . S
C1603 C1604 1.399 . S
C1604 H1590 0.929 . S
C1604 C1603 1.399 . S
C1604 C1605 1.385 . S
C1605 H1591 0.931 . S
C1605 C1604 1.385 . S
C1605 C1606 1.389 . S
C1606 C1605 1.389 . S
C1606 C1607 1.387 . S
C1607 H1592 0.930 . S
C1607 C1602 1.390 . S
C1607 C1606 1.387 . S
C541 C7 0.935 . S
C553 C469 0.928 . S
C568 C502 0.937 . S
C580 C40 0.929 . S
C595 C403 0.915 . S
C607 C73 0.921 . S
C622 C106 0.931 . S
C634 C436 0.937 . S
C649 C139 0.914 1_556 S
C661 C337 0.920 . S
C676 C370 0.935 . S
C688 C172 0.921 1_554 S
C703 C205 0.914 1_556 S
C715 C271 0.917 . S
C730 C304 0.937 . S
C742 C238 0.928 1_554 S
C757 N145 1.425 . S
C769 N13 1.420 . S
C784 N46 1.431 . S
C796 N178 1.434 . S
C811 N79 1.427 . S
C823 N211 1.423 . S
C838 N112 1.426 . S
C850 N244 1.432 . S
C865 N409 1.393 . S
C877 N277 1.398 . S
C892 N442 1.384 . S
C904 N310 1.383 . S
C919 N343 1.423 . S
C931 N475 1.418 . S
C946 N376 1.392 . S
C958 N508 1.386 . S
C973 C21 1.520 1_556 S
C985 C483 1.497 . S
C1000 C516 1.476 . S
C1012 C54 1.502 1_554 S
C1027 C87 1.472 1_556 S
C1039 C417 1.494 . S
C1054 C450 1.504 . S
C1066 C120 1.475 1_554 S
C1081 C351 1.472 . S
C1093 C153 1.496 . S
C1108 C384 1.518 . S
C1120 C186 1.488 . S
C1135 C219 1.472 . S
C1147 C285 1.497 . S
C1162 C252 1.513 . S
C1174 C318 1.496 . S
C1189 N2 1.501 . S
C1201 C381 1.554 . S
C1216 C282 1.551 . S
C1228 N35 1.490 . S
C1243 N68 1.524 . S
C1255 C315 1.551 . S
C1270 C348 1.565 . S
C1282 N101 1.445 . S
C1297 C183 1.581 . S
C1309 N134 1.477 . S
C1324 C216 1.550 . S
C1336 N167 1.507 . S
C1351 N200 1.440 . S
C1363 C249 1.586 . S
C1378 C150 1.583 . S
C1390 N233 1.498 . S
C1405 C117 1.576 . S
C1417 N266 1.445 . S
C1432 N299 1.517 . S
C1444 C18 1.576 . S
C1459 N332 1.524 . S
C1471 C51 1.551 . S
C1486 C84 1.567 . S
C1498 N365 1.442 . S
C1513 C447 1.581 . S
C1525 N398 1.475 . S
C1540 C480 1.567 . S
C1552 N431 1.442 . S
C1567 C513 1.565 . S
C1579 N464 1.468 . S
C1594 N497 1.532 . S
C1606 C414 1.562 . S
