# Generated by pormake.
# Topology dmp, (4)-cn, num edge types: 1
# Building blocks:
#     Node 0, Type 0, BuildingBlock: UXUYUI_clean_sbu_0, # of connection points: 4
#     Node 1, Type 0, BuildingBlock: UXUYUI_clean_sbu_0, # of connection points: 4
#     Node 2, Type 0, BuildingBlock: UXUYUI_clean_sbu_0, # of connection points: 4
#     Node 3, Type 0, BuildingBlock: UXUYUI_clean_sbu_0, # of connection points: 4
#     Edge 4, Type (0, 0), BuildingBlock: EYOCIG_clean_linker_4, # of connection points: 2
#     Edge 5, Type (0, 0), BuildingBlock: EYOCIG_clean_linker_4, # of connection points: 2
#     Edge 6, Type (0, 0), BuildingBlock: EYOCIG_clean_linker_4, # of connection points: 2
#     Edge 7, Type (0, 0), BuildingBlock: EYOCIG_clean_linker_4, # of connection points: 2
#     Edge 8, Type (0, 0), BuildingBlock: EYOCIG_clean_linker_4, # of connection points: 2
#     Edge 9, Type (0, 0), BuildingBlock: EYOCIG_clean_linker_4, # of connection points: 2
#     Edge 10, Type (0, 0), BuildingBlock: EYOCIG_clean_linker_4, # of connection points: 2
#     Edge 11, Type (0, 0), BuildingBlock: EYOCIG_clean_linker_4, # of connection points: 2
# Relax obj value: 0.351
# Max RMSD: 0.312
# Mean RMSD: 0.312
data_MOF--net-dmp--node1-UXUYUI_clean_sbu_0--edge1-EYOCIG_clean_linker_4
_symmetry_space_group_name_H-M    P1
_symmetry_Int_Tables_number       1
_symmetry_cell_setting            triclinic
loop_
_symmetry_equiv_pos_as_xyz
'x, y, z'
_cell_length_a     49.021051
_cell_length_b     20.58663
_cell_length_c     23.97103
_cell_angle_alpha  89.99495
_cell_angle_beta   89.985668
_cell_angle_gamma 89.918549
loop_
_atom_site_label
_atom_site_type_symbol
_atom_site_fract_x
_atom_site_fract_y
_atom_site_fract_z
_atom_type_partial_charge
Li0 Li 0.11197 0.28397 0.23989 0.0
Li1 Li 0.10599 0.19055 0.30512 0.0
Li2 Li 0.07317 0.20796 0.22978 0.0
Li3 Li 0.07546 0.28111 0.3114 0.0
C4 C 0.12146 0.17436 0.17082 0.0
N5 N 0.13979 0.14548 0.06468 0.0
C6 C 0.14162 0.12715 0.16298 0.0
C7 C 0.11066 0.207 0.12471 0.0
C8 C 0.15063 0.11328 0.109 0.0
C9 C 0.12015 0.19159 0.07137 0.0
C10 C 0.12373 0.31506 0.36747 0.0
C11 C 0.12117 0.33756 0.46608 0.0
N12 N 0.14192 0.3809 0.46069 0.0
C13 C 0.14491 0.36007 0.36284 0.0
C14 C 0.11171 0.30372 0.41946 0.0
C15 C 0.15388 0.39273 0.4105 0.0
C16 C 0.13494 0.40221 0.20402 0.0
N17 N 0.13817 0.33659 0.20473 0.0
C18 C 0.18289 0.34546 0.16642 0.0
C19 C 0.16143 0.30781 0.18622 0.0
C20 C 0.18038 0.41302 0.16681 0.0
C21 C 0.15605 0.44187 0.18485 0.0
H22 H 0.11649 0.4237 0.2206 0.0
H23 H 0.16392 0.25586 0.18934 0.0
C24 C 0.13379 0.07258 0.31301 0.0
N25 N 0.12858 0.12865 0.34102 0.0
C26 C 0.15714 0.03641 0.32553 0.0
C27 C 0.16768 0.11315 0.39879 0.0
C28 C 0.14425 0.14789 0.38477 0.0
C29 C 0.17483 0.05873 0.36717 0.0
H30 H 0.1212 0.05918 0.2778 0.0
H31 H 0.13997 0.1929 0.40586 0.0
C32 C 0.05822 0.34946 0.20288 0.0
N33 N 0.02885 0.4449 0.1483 0.0
C34 C 0.03323 0.37061 0.22438 0.0
C35 C 0.06817 0.3765 0.15342 0.0
C36 C 0.01873 0.41905 0.19624 0.0
C37 C 0.05303 0.42471 0.12646 0.0
C38 C 0.05938 0.13088 0.33634 0.0
C39 C 0.04282 0.08432 0.31083 0.0
C40 C 0.06889 0.12028 0.39053 0.0
C41 C 0.03654 0.0272 0.3395 0.0
C42 C 0.06227 0.06236 0.41774 0.0
N43 N 0.04636 0.01743 0.39189 0.0
C44 C 0.05939 0.10206 0.1664 0.0
C45 C 0.03077 0.19305 0.14896 0.0
C46 C 0.04519 0.06498 0.12761 0.0
N47 N 0.0519 0.16458 0.17641 0.0
C48 C 0.01598 0.15757 0.10959 0.0
C49 C 0.02328 0.09291 0.09912 0.0
H50 H 0.07628 0.08095 0.18913 0.0
H51 H 0.02538 0.24294 0.15774 0.0
C52 C 0.06199 0.39895 0.36219 0.0
N53 N 0.05549 0.33487 0.35964 0.0
C54 C 0.04803 0.43993 0.39867 0.0
C55 C 0.02083 0.34816 0.42852 0.0
C56 C 0.03537 0.30885 0.39158 0.0
C57 C 0.02731 0.4142 0.43212 0.0
H58 H 0.07816 0.41789 0.33614 0.0
H59 H 0.03077 0.25761 0.38848 0.0
O60 O 0.11262 0.18876 0.22354 0.0
O61 O 0.11545 0.28103 0.32148 0.0
O62 O 0.07339 0.30444 0.23123 0.0
O63 O 0.06482 0.1881 0.30956 0.0
H64 H 0.1504 0.10187 0.19824 0.0
H65 H 0.09504 0.24359 0.13006 0.0
H66 H 0.16628 0.077 0.10236 0.0
H67 H 0.11192 0.21632 0.03527 0.0
H68 H 0.1121 0.32915 0.50658 0.0
H69 H 0.15457 0.36902 0.32297 0.0
H70 H 0.09539 0.26878 0.42383 0.0
H71 H 0.17041 0.42732 0.40762 0.0
H72 H 0.20174 0.32221 0.15368 0.0
H73 H 0.1539 0.49423 0.18658 0.0
H74 H 0.16232 0.9945 0.3003 0.0
H75 H 0.18111 0.13146 0.43106 0.0
H76 H 0.02518 0.35014 0.26254 0.0
H77 H 0.08751 0.36091 0.13625 0.0
H78 H -0.00055 0.43621 0.21259 0.0
H79 H 0.06056 0.44628 0.0883 0.0
H80 H 0.03438 0.09272 0.26983 0.0
H81 H 0.08126 0.15633 0.41134 0.0
H82 H 0.02369 0.99087 0.32025 0.0
H83 H 0.06966 0.05329 0.45954 0.0
H84 H 0.05114 0.01498 0.12024 0.0
H85 H -0.00098 0.18007 0.08793 0.0
H86 H 0.05336 0.49094 0.40082 0.0
H87 H 0.00482 0.3273 0.45401 0.0
Li88 Li 0.40202 0.78344 0.22959 0.0
Li89 Li 0.39995 0.71184 0.31217 0.0
Li90 Li 0.36339 0.7076 0.24115 0.0
Li91 Li 0.36929 0.80216 0.30521 0.0
C92 C 0.41747 0.64327 0.20296 0.0
N93 N 0.44742 0.55039 0.14642 0.0
C94 C 0.4422 0.62096 0.22484 0.0
C95 C 0.40808 0.61864 0.15213 0.0
C96 C 0.457 0.57384 0.1957 0.0
C97 C 0.42351 0.57173 0.12419 0.0
C98 C 0.41625 0.86199 0.33547 0.0
C99 C 0.41394 0.93105 0.4166 0.0
N100 N 0.4302 0.97511 0.39052 0.0
C101 C 0.43313 0.9077 0.30969 0.0
C102 C 0.40683 0.87334 0.38962 0.0
C103 C 0.4399 0.96465 0.33813 0.0
C104 C 0.4153 0.8891 0.16571 0.0
N105 N 0.42307 0.82678 0.17576 0.0
C106 C 0.45902 0.83475 0.10905 0.0
C107 C 0.44436 0.79887 0.14839 0.0
C108 C 0.45145 0.89923 0.09856 0.0
C109 C 0.42936 0.92656 0.12694 0.0
H110 H 0.39832 0.9098 0.18844 0.0
H111 H 0.45001 0.74917 0.15727 0.0
C112 C 0.41374 0.59507 0.36414 0.0
N113 N 0.42008 0.6592 0.36101 0.0
C114 C 0.42789 0.55466 0.40075 0.0
C115 C 0.45495 0.64708 0.42959 0.0
C116 C 0.44021 0.68583 0.39254 0.0
C117 C 0.44865 0.58098 0.43371 0.0
H118 H 0.39758 0.57562 0.33836 0.0
H119 H 0.44471 0.73709 0.38894 0.0
C120 C 0.35304 0.81592 0.17146 0.0
N121 N 0.33324 0.843 0.0661 0.0
C122 C 0.33225 0.86173 0.1644 0.0
C123 C 0.36376 0.78388 0.12498 0.0
C124 C 0.3225 0.8747 0.1108 0.0
C125 C 0.35349 0.79829 0.07203 0.0
C126 C 0.3524 0.67707 0.36884 0.0
C127 C 0.33238 0.62912 0.36433 0.0
C128 C 0.36393 0.69067 0.42089 0.0
C129 C 0.32403 0.59587 0.41218 0.0
C130 C 0.35512 0.65616 0.4677 0.0
N131 N 0.33547 0.60997 0.46244 0.0
C132 C 0.3406 0.59091 0.19909 0.0
C133 C 0.31269 0.68518 0.19484 0.0
C134 C 0.31917 0.55259 0.17938 0.0
N135 N 0.33685 0.6558 0.20656 0.0
C136 C 0.29085 0.64888 0.17498 0.0
C137 C 0.29399 0.58194 0.16807 0.0
H138 H 0.35979 0.56866 0.21054 0.0
H139 H 0.31 0.73632 0.20324 0.0
C140 C 0.34218 0.92149 0.31326 0.0
N141 N 0.34667 0.86447 0.3404 0.0
C142 C 0.31906 0.95855 0.32571 0.0
C143 C 0.30706 0.88015 0.39673 0.0
C144 C 0.3303 0.84463 0.3829 0.0
C145 C 0.30078 0.936 0.36622 0.0
H146 H 0.35521 0.93516 0.27877 0.0
H147 H 0.3339 0.79869 0.40302 0.0
O148 O 0.40196 0.68677 0.23233 0.0
O149 O 0.41043 0.80478 0.30901 0.0
O150 O 0.36262 0.8024 0.2238 0.0
O151 O 0.35989 0.71196 0.32275 0.0
H152 H 0.44981 0.63946 0.26409 0.0
H153 H 0.3889 0.63488 0.1347 0.0
H154 H 0.47606 0.55577 0.21235 0.0
H155 H 0.4164 0.55203 0.08497 0.0
H156 H 0.40665 0.94066 0.45839 0.0
H157 H 0.44145 0.89874 0.26865 0.0
H158 H 0.39416 0.838 0.41061 0.0
H159 H 0.45302 0.00029 0.3187 0.0
H160 H 0.47612 0.81272 0.08749 0.0
H161 H 0.4232 0.97642 0.11958 0.0
H162 H 0.4227 0.50359 0.40331 0.0
H163 H 0.471 0.66839 0.45468 0.0
H164 H 0.3236 0.88666 0.2 0.0
H165 H 0.37992 0.74858 0.12973 0.0
H166 H 0.30637 0.90992 0.10474 0.0
H167 H 0.36164 0.77395 0.03565 0.0
H168 H 0.32311 0.61837 0.32441 0.0
H169 H 0.37938 0.72777 0.42514 0.0
H170 H 0.30838 0.55903 0.40941 0.0
H171 H 0.36381 0.66631 0.50824 0.0
H172 H 0.32185 0.50053 0.17542 0.0
H173 H 0.27138 0.67236 0.16756 0.0
H174 H 0.31451 0.00149 0.30126 0.0
H175 H 0.29313 0.86154 0.42798 0.0
Li176 Li 0.86165 0.79134 0.73677 0.0
Li177 Li 0.89656 0.78322 0.81031 0.0
Li178 Li 0.8971 0.7094 0.72672 0.0
Li179 Li 0.86167 0.70022 0.79949 0.0
C180 C 0.90947 0.86241 0.70737 0.0
N181 N 0.9259 0.97979 0.66298 0.0
C182 C 0.90639 0.91955 0.73821 0.0
C183 C 0.92085 0.86487 0.65397 0.0
C184 C 0.9149 0.97843 0.71508 0.0
C185 C 0.92898 0.92476 0.6322 0.0
C186 C 0.84336 0.7962 0.8678 0.0
C187 C 0.83999 0.76806 0.96518 0.0
N188 N 0.81553 0.79918 0.96794 0.0
C189 C 0.8182 0.82789 0.87154 0.0
C190 C 0.85443 0.76617 0.91495 0.0
C191 C 0.80446 0.82894 0.92259 0.0
C192 C 0.81039 0.83105 0.71173 0.0
N193 N 0.83658 0.84608 0.6986 0.0
C194 C 0.82148 0.93101 0.6378 0.0
C195 C 0.84255 0.89457 0.66192 0.0
C196 C 0.79441 0.91649 0.65168 0.0
C197 C 0.78886 0.86578 0.68862 0.0
H198 H 0.80629 0.79207 0.74058 0.0
H199 H 0.86347 0.90533 0.6515 0.0
C200 C 0.94583 0.81575 0.86221 0.0
N201 N 0.91872 0.82948 0.8601 0.0
C202 C 0.96296 0.85201 0.89672 0.0
C203 C 0.92377 0.91474 0.92654 0.0
C204 C 0.90744 0.87749 0.89146 0.0
C205 C 0.95177 0.90224 0.92876 0.0
H206 H 0.95412 0.77732 0.83647 0.0
H207 H 0.88587 0.88776 0.88832 0.0
C208 C 0.84361 0.69614 0.66867 0.0
N209 N 0.81501 0.69532 0.56945 0.0
C210 C 0.8182 0.66574 0.66559 0.0
C211 C 0.85456 0.72594 0.62131 0.0
C212 C 0.80406 0.66577 0.615 0.0
C213 C 0.83973 0.72518 0.57156 0.0
C214 C 0.90962 0.62998 0.82946 0.0
C215 C 0.90683 0.57332 0.7979 0.0
C216 C 0.92067 0.62674 0.88311 0.0
C217 C 0.91526 0.5141 0.82062 0.0
C218 C 0.92874 0.56654 0.90443 0.0
N219 N 0.92593 0.51196 0.87297 0.0
C220 C 0.94685 0.68014 0.67542 0.0
C221 C 0.90924 0.61732 0.64411 0.0
C222 C 0.96442 0.64664 0.63971 0.0
N223 N 0.91991 0.66472 0.67694 0.0
C224 C 0.92604 0.58276 0.60779 0.0
C225 C 0.95387 0.59739 0.60581 0.0
H226 H 0.95463 0.71812 0.70222 0.0
H227 H 0.88777 0.60584 0.64667 0.0
C228 C 0.8104 0.66139 0.82494 0.0
N229 N 0.83659 0.64537 0.83736 0.0
C230 C 0.78884 0.6268 0.84795 0.0
C231 C 0.82142 0.55977 0.89729 0.0
C232 C 0.84253 0.59608 0.87329 0.0
C233 C 0.79435 0.57525 0.88408 0.0
H234 H 0.80633 0.70103 0.79672 0.0
H235 H 0.86344 0.58454 0.88318 0.0
O236 O 0.90183 0.80405 0.72948 0.0
O237 O 0.85689 0.7938 0.81797 0.0
O238 O 0.85758 0.69738 0.71801 0.0
O239 O 0.90199 0.68865 0.80786 0.0
H240 H 0.8974 0.91852 0.77938 0.0
H241 H 0.92335 0.82095 0.62964 0.0
H242 H 0.91272 0.02305 0.7385 0.0
H243 H 0.93777 0.92746 0.59086 0.0
H244 H 0.84822 0.74472 1.00195 0.0
H245 H 0.80942 0.85154 0.83545 0.0
H246 H 0.87383 0.74113 0.91257 0.0
H247 H 0.78499 0.85337 0.92614 0.0
H248 H 0.82626 0.97047 0.60956 0.0
H249 H 0.7681 0.85377 0.7002 0.0
H250 H 0.98463 0.84156 0.89785 0.0
H251 H 0.91471 0.95346 0.95098 0.0
H252 H 0.80951 0.64221 0.70182 0.0
H253 H 0.87417 0.74997 0.62318 0.0
H254 H 0.78438 0.64234 0.61196 0.0
H255 H 0.84785 0.74839 0.53465 0.0
H256 H 0.89811 0.57498 0.7565 0.0
H257 H 0.92296 0.6703 0.90798 0.0
H258 H 0.91328 0.46983 0.79666 0.0
H259 H 0.93728 0.56323 0.94595 0.0
H260 H 0.98593 0.65869 0.63884 0.0
H261 H 0.91746 0.54473 0.58195 0.0
H262 H 0.76807 0.63958 0.8369 0.0
H263 H 0.82617 0.51966 0.92491 0.0
Li264 Li 0.61377 0.20037 0.73708 0.0
Li265 Li 0.57866 0.20882 0.81035 0.0
Li266 Li 0.57846 0.28264 0.72673 0.0
Li267 Li 0.61368 0.29151 0.79981 0.0
C268 C 0.56593 0.12964 0.70734 0.0
N269 N 0.54955 0.01224 0.66294 0.0
C270 C 0.5689 0.07255 0.73829 0.0
C271 C 0.55468 0.12713 0.65383 0.0
C272 C 0.56042 0.01366 0.71514 0.0
C273 C 0.54659 0.06724 0.63205 0.0
C274 C 0.63188 0.1957 0.86813 0.0
C275 C 0.63527 0.22404 0.96545 0.0
N276 N 0.6598 0.19322 0.96814 0.0
C277 C 0.6571 0.16431 0.8718 0.0
C278 C 0.62078 0.22567 0.91529 0.0
C279 C 0.67089 0.16351 0.92278 0.0
C280 C 0.66505 0.16086 0.71197 0.0
N281 N 0.63887 0.14563 0.69898 0.0
C282 C 0.65401 0.06072 0.63822 0.0
C283 C 0.63292 0.09705 0.66239 0.0
C284 C 0.68108 0.07545 0.65194 0.0
C285 C 0.6866 0.12624 0.6888 0.0
H286 H 0.66913 0.19994 0.74073 0.0
H287 H 0.61201 0.08612 0.65207 0.0
C288 C 0.52921 0.17669 0.86192 0.0
N289 N 0.55631 0.16279 0.86002 0.0
C290 C 0.51197 0.14063 0.89641 0.0
C291 C 0.55105 0.07774 0.92662 0.0
C292 C 0.56748 0.1148 0.89157 0.0
C293 C 0.52305 0.09042 0.92862 0.0
H294 H 0.52101 0.21511 0.83605 0.0
H295 H 0.58905 0.10442 0.88861 0.0
C296 C 0.63189 0.29593 0.66897 0.0
N297 N 0.66032 0.29774 0.56953 0.0
C298 C 0.6572 0.32681 0.66579 0.0
C299 C 0.62096 0.26614 0.62161 0.0
C300 C 0.67125 0.32728 0.61508 0.0
C301 C 0.63571 0.26741 0.57174 0.0
C302 C 0.56578 0.36207 0.82951 0.0
C303 C 0.56866 0.41882 0.79808 0.0
C304 C 0.55469 0.3652 0.88313 0.0
C305 C 0.56025 0.47801 0.8209 0.0
C306 C 0.54666 0.42537 0.90457 0.0
N307 N 0.54954 0.48003 0.87323 0.0
C308 C 0.52892 0.31241 0.67482 0.0
C309 C 0.56668 0.37535 0.64444 0.0
C310 C 0.51148 0.34647 0.63925 0.0
N311 N 0.55587 0.32766 0.67678 0.0
C312 C 0.55002 0.41048 0.60828 0.0
C313 C 0.52218 0.39612 0.60596 0.0
H314 H 0.52102 0.2742 0.70125 0.0
H315 H 0.58815 0.38672 0.64736 0.0
C316 C 0.66494 0.33033 0.82528 0.0
N317 N 0.63876 0.34631 0.83775 0.0
C318 C 0.6865 0.36495 0.84823 0.0
C319 C 0.65392 0.43197 0.8976 0.0
C320 C 0.63281 0.39562 0.87367 0.0
C321 C 0.68099 0.41652 0.88434 0.0
H322 H 0.66902 0.29072 0.79704 0.0
H323 H 0.61189 0.40715 0.88358 0.0
O324 O 0.57356 0.18802 0.72943 0.0
O325 O 0.61829 0.19783 0.81837 0.0
O326 O 0.61802 0.29421 0.71843 0.0
O327 O 0.57337 0.30343 0.80778 0.0
H328 H 0.57778 0.07362 0.77954 0.0
H329 H 0.55228 0.17102 0.62941 0.0
H330 H 0.56252 0.96907 0.73864 0.0
H331 H 0.5379 0.06449 0.59063 0.0
H332 H 0.62702 0.24735 1.00223 0.0
H333 H 0.66591 0.1407 0.83569 0.0
H334 H 0.60132 0.25047 0.91297 0.0
H335 H 0.69042 0.13932 0.92628 0.0
H336 H 0.64926 0.02119 0.61004 0.0
H337 H 0.70736 0.13842 0.70026 0.0
H338 H 0.49032 0.15122 0.89737 0.0
H339 H 0.56002 0.03904 0.95119 0.0
H340 H 0.66588 0.3503 0.70204 0.0
H341 H 0.60143 0.24174 0.62355 0.0
H342 H 0.69085 0.35109 0.61196 0.0
H343 H 0.6276 0.24423 0.53481 0.0
H344 H 0.57741 0.41725 0.75671 0.0
H345 H 0.55235 0.32157 0.9079 0.0
H346 H 0.56229 0.52235 0.79705 0.0
H347 H 0.53809 0.4286 0.94607 0.0
H348 H 0.48996 0.33462 0.6381 0.0
H349 H 0.55871 0.4488 0.58291 0.0
H350 H 0.70727 0.35221 0.83713 0.0
H351 H 0.64917 0.4721 0.92519 0.0
C352 C 0.25149 0.98661 0.37589 0.0
C353 C 0.27403 0.96404 0.37105 0.0
C354 C 0.22449 0.0101 0.37631 0.0
C355 C 0.20184 0.03216 0.37205 0.0
C356 C 0.2246 0.48147 0.14658 0.0
C357 C 0.20402 0.45187 0.15604 0.0
C358 C 0.24966 0.51444 0.14671 0.0
C359 C 0.2704 0.54326 0.15644 0.0
C360 C 0.72479 0.01078 0.62101 0.0
C361 C 0.70346 0.03678 0.63203 0.0
C362 C 0.75073 0.98136 0.62093 0.0
C363 C 0.77206 0.95528 0.63183 0.0
C364 C 0.75063 0.51061 0.9146 0.0
C365 C 0.77195 0.53657 0.90366 0.0
C366 C 0.72471 0.48126 0.91466 0.0
C367 C 0.70338 0.45527 0.90382 0.0
C368 C -0.00382 0.01961 0.02825 0.0
C369 C 0.0081 0.05434 0.06027 0.0
C370 C 0.98192 0.9775 0.99258 0.0
C371 C 0.96886 0.94216 0.96301 0.0
C372 C 0.49273 0.01539 0.99237 0.0
C373 C 0.50586 0.05064 0.96282 0.0
C374 C 0.47844 0.9732 0.02796 0.0
C375 C 0.46654 0.93826 0.05988 0.0
C376 C 0.98521 0.52899 0.53847 0.0
C377 C 0.97146 0.56103 0.56959 0.0
C378 C 0.00032 0.48979 0.50169 0.0
C379 C 0.01269 0.45552 0.4699 0.0
C380 C 0.47595 0.50569 0.50298 0.0
C381 C 0.46352 0.54008 0.47141 0.0
C382 C 0.49104 0.46594 0.53935 0.0
C383 C 0.50471 0.43327 0.57011 0.0
loop_
_geom_bond_atom_site_label_1
_geom_bond_atom_site_label_2
_geom_bond_distance
_geom_bond_site_symmetry_2
_ccdc_geom_bond_type
Li0 N17 1.990 . S
Li0 O60 1.956 . S
Li0 O61 1.970 . S
Li0 O62 1.961 . S
Li1 N25 1.990 . S
Li1 O60 1.970 . S
Li1 O61 1.956 . S
Li1 O63 1.961 . S
Li2 N47 1.990 . S
Li2 O60 1.961 . S
Li2 O62 1.956 . S
Li2 O63 1.970 . S
Li3 N53 1.990 . S
Li3 O61 1.961 . S
Li3 O62 1.970 . S
Li3 O63 1.956 . S
C4 C6 1.348 . S
C4 C7 1.356 . S
C4 O60 1.325 . S
N5 C8 1.314 . S
N5 C9 1.279 . S
C6 C4 1.348 . S
C6 C8 1.353 . S
C6 H64 0.929 . S
C7 C4 1.356 . S
C7 C9 1.358 . S
C7 H65 0.930 . S
C8 N5 1.314 . S
C8 C6 1.353 . S
C8 H66 0.930 . S
C9 N5 1.279 . S
C9 C7 1.358 . S
C9 H67 0.930 . S
C10 C13 1.348 . S
C10 C14 1.356 . S
C10 O61 1.325 . S
C11 N12 1.279 . S
C11 C14 1.358 . S
C11 H68 0.930 . S
N12 C11 1.279 . S
N12 C15 1.314 . S
C13 C10 1.348 . S
C13 C15 1.353 . S
C13 H69 0.929 . S
C14 C10 1.356 . S
C14 C11 1.358 . S
C14 H70 0.930 . S
C15 N12 1.314 . S
C15 C13 1.353 . S
C15 H71 0.930 . S
C16 N17 1.314 . S
C16 C21 1.353 . S
C16 H22 0.930 . S
N17 Li0 1.990 . S
N17 C16 1.314 . S
N17 C19 1.279 . S
C18 C19 1.358 . S
C18 C20 1.356 . S
C18 H72 0.930 . S
C19 N17 1.279 . S
C19 C18 1.358 . S
C19 H23 0.930 . S
C20 C18 1.356 . S
C20 C21 1.348 . S
C21 C16 1.353 . S
C21 C20 1.348 . S
C21 H73 0.929 . S
H22 C16 0.930 . S
H23 C19 0.930 . S
C24 N25 1.314 . S
C24 C26 1.353 . S
C24 H30 0.930 . S
N25 Li1 1.990 . S
N25 C24 1.314 . S
N25 C28 1.279 . S
C26 C24 1.353 . S
C26 C29 1.348 . S
C26 H74 0.929 1_545 S
C27 C28 1.358 . S
C27 C29 1.356 . S
C27 H75 0.930 . S
C28 N25 1.279 . S
C28 C27 1.358 . S
C28 H31 0.930 . S
C29 C26 1.348 . S
C29 C27 1.356 . S
H30 C24 0.930 . S
H31 C28 0.930 . S
C32 C34 1.348 . S
C32 C35 1.356 . S
C32 O62 1.325 . S
N33 C36 1.314 . S
N33 C37 1.279 . S
C34 C32 1.348 . S
C34 C36 1.353 . S
C34 H76 0.929 . S
C35 C32 1.356 . S
C35 C37 1.358 . S
C35 H77 0.930 . S
C36 N33 1.314 . S
C36 C34 1.353 . S
C36 H78 0.930 . S
C37 N33 1.279 . S
C37 C35 1.358 . S
C37 H79 0.930 . S
C38 C39 1.348 . S
C38 C40 1.356 . S
C38 O63 1.325 . S
C39 C38 1.348 . S
C39 C41 1.353 . S
C39 H80 0.929 . S
C40 C38 1.356 . S
C40 C42 1.358 . S
C40 H81 0.930 . S
C41 C39 1.353 . S
C41 N43 1.314 . S
C41 H82 0.930 . S
C42 C40 1.358 . S
C42 N43 1.279 . S
C42 H83 0.930 . S
N43 C41 1.314 . S
N43 C42 1.279 . S
C44 C46 1.353 . S
C44 N47 1.314 . S
C44 H50 0.930 . S
C45 N47 1.279 . S
C45 C48 1.358 . S
C45 H51 0.930 . S
C46 C44 1.353 . S
C46 C49 1.348 . S
C46 H84 0.929 . S
N47 Li2 1.990 . S
N47 C44 1.314 . S
N47 C45 1.279 . S
C48 C45 1.358 . S
C48 C49 1.356 . S
C48 H85 0.930 . S
C49 C46 1.348 . S
C49 C48 1.356 . S
H50 C44 0.930 . S
H51 C45 0.930 . S
C52 N53 1.314 . S
C52 C54 1.353 . S
C52 H58 0.930 . S
N53 Li3 1.990 . S
N53 C52 1.314 . S
N53 C56 1.279 . S
C54 C52 1.353 . S
C54 C57 1.348 . S
C54 H86 0.929 . S
C55 C56 1.358 . S
C55 C57 1.356 . S
C55 H87 0.930 . S
C56 N53 1.279 . S
C56 C55 1.358 . S
C56 H59 0.930 . S
C57 C54 1.348 . S
C57 C55 1.356 . S
H58 C52 0.930 . S
H59 C56 0.930 . S
O60 Li0 1.956 . S
O60 Li1 1.970 . S
O60 Li2 1.961 . S
O60 C4 1.325 . S
O61 Li0 1.970 . S
O61 Li1 1.956 . S
O61 Li3 1.961 . S
O61 C10 1.325 . S
O62 Li0 1.961 . S
O62 Li2 1.956 . S
O62 Li3 1.970 . S
O62 C32 1.325 . S
O63 Li1 1.961 . S
O63 Li2 1.970 . S
O63 Li3 1.956 . S
O63 C38 1.325 . S
H64 C6 0.929 . S
H65 C7 0.930 . S
H66 C8 0.930 . S
H67 C9 0.930 . S
H68 C11 0.930 . S
H69 C13 0.929 . S
H70 C14 0.930 . S
H71 C15 0.930 . S
H72 C18 0.930 . S
H73 C21 0.929 . S
H74 C26 0.929 1_565 S
H75 C27 0.930 . S
H76 C34 0.929 . S
H77 C35 0.930 . S
H78 C36 0.930 . S
H79 C37 0.930 . S
H80 C39 0.929 . S
H81 C40 0.930 . S
H82 C41 0.930 . S
H83 C42 0.930 . S
H84 C46 0.929 . S
H85 C48 0.930 . S
H86 C54 0.929 . S
H87 C55 0.930 . S
Li88 N105 1.990 . S
Li88 O148 1.956 . S
Li88 O149 1.970 . S
Li88 O150 1.961 . S
Li89 N113 1.990 . S
Li89 O148 1.970 . S
Li89 O149 1.956 . S
Li89 O151 1.961 . S
Li90 N135 1.990 . S
Li90 O148 1.961 . S
Li90 O150 1.956 . S
Li90 O151 1.970 . S
Li91 N141 1.990 . S
Li91 O149 1.961 . S
Li91 O150 1.970 . S
Li91 O151 1.956 . S
C92 C94 1.348 . S
C92 C95 1.356 . S
C92 O148 1.325 . S
N93 C96 1.314 . S
N93 C97 1.279 . S
C94 C92 1.348 . S
C94 C96 1.353 . S
C94 H152 0.929 . S
C95 C92 1.356 . S
C95 C97 1.358 . S
C95 H153 0.930 . S
C96 N93 1.314 . S
C96 C94 1.353 . S
C96 H154 0.930 . S
C97 N93 1.279 . S
C97 C95 1.358 . S
C97 H155 0.930 . S
C98 C101 1.348 . S
C98 C102 1.356 . S
C98 O149 1.325 . S
C99 N100 1.279 . S
C99 C102 1.358 . S
C99 H156 0.930 . S
N100 C99 1.279 . S
N100 C103 1.314 . S
C101 C98 1.348 . S
C101 C103 1.353 . S
C101 H157 0.929 . S
C102 C98 1.356 . S
C102 C99 1.358 . S
C102 H158 0.930 . S
C103 N100 1.314 . S
C103 C101 1.353 . S
C103 H159 0.930 . S
C104 N105 1.314 . S
C104 C109 1.353 . S
C104 H110 0.930 . S
N105 Li88 1.990 . S
N105 C104 1.314 . S
N105 C107 1.279 . S
C106 C107 1.358 . S
C106 C108 1.356 . S
C106 H160 0.930 . S
C107 N105 1.279 . S
C107 C106 1.358 . S
C107 H111 0.930 . S
C108 C106 1.356 . S
C108 C109 1.348 . S
C109 C104 1.353 . S
C109 C108 1.348 . S
C109 H161 0.929 . S
H110 C104 0.930 . S
H111 C107 0.930 . S
C112 N113 1.314 . S
C112 C114 1.353 . S
C112 H118 0.930 . S
N113 Li89 1.990 . S
N113 C112 1.314 . S
N113 C116 1.279 . S
C114 C112 1.353 . S
C114 C117 1.348 . S
C114 H162 0.929 . S
C115 C116 1.358 . S
C115 C117 1.356 . S
C115 H163 0.930 . S
C116 N113 1.279 . S
C116 C115 1.358 . S
C116 H119 0.930 . S
C117 C114 1.348 . S
C117 C115 1.356 . S
H118 C112 0.930 . S
H119 C116 0.930 . S
C120 C122 1.348 . S
C120 C123 1.356 . S
C120 O150 1.325 . S
N121 C124 1.314 . S
N121 C125 1.279 . S
C122 C120 1.348 . S
C122 C124 1.353 . S
C122 H164 0.929 . S
C123 C120 1.356 . S
C123 C125 1.358 . S
C123 H165 0.930 . S
C124 N121 1.314 . S
C124 C122 1.353 . S
C124 H166 0.930 . S
C125 N121 1.279 . S
C125 C123 1.358 . S
C125 H167 0.930 . S
C126 C127 1.348 . S
C126 C128 1.356 . S
C126 O151 1.325 . S
C127 C126 1.348 . S
C127 C129 1.353 . S
C127 H168 0.929 . S
C128 C126 1.356 . S
C128 C130 1.358 . S
C128 H169 0.930 . S
C129 C127 1.353 . S
C129 N131 1.314 . S
C129 H170 0.930 . S
C130 C128 1.358 . S
C130 N131 1.279 . S
C130 H171 0.930 . S
N131 C129 1.314 . S
N131 C130 1.279 . S
C132 C134 1.353 . S
C132 N135 1.314 . S
C132 H138 0.930 . S
C133 N135 1.279 . S
C133 C136 1.358 . S
C133 H139 0.930 . S
C134 C132 1.353 . S
C134 C137 1.348 . S
C134 H172 0.929 . S
N135 Li90 1.990 . S
N135 C132 1.314 . S
N135 C133 1.279 . S
C136 C133 1.358 . S
C136 C137 1.356 . S
C136 H173 0.930 . S
C137 C134 1.348 . S
C137 C136 1.356 . S
H138 C132 0.930 . S
H139 C133 0.930 . S
C140 N141 1.314 . S
C140 C142 1.353 . S
C140 H146 0.930 . S
N141 Li91 1.990 . S
N141 C140 1.314 . S
N141 C144 1.279 . S
C142 C140 1.353 . S
C142 C145 1.348 . S
C142 H174 0.929 1_565 S
C143 C144 1.358 . S
C143 C145 1.356 . S
C143 H175 0.930 . S
C144 N141 1.279 . S
C144 C143 1.358 . S
C144 H147 0.930 . S
C145 C142 1.348 . S
C145 C143 1.356 . S
H146 C140 0.930 . S
H147 C144 0.930 . S
O148 Li88 1.956 . S
O148 Li89 1.970 . S
O148 Li90 1.961 . S
O148 C92 1.325 . S
O149 Li88 1.970 . S
O149 Li89 1.956 . S
O149 Li91 1.961 . S
O149 C98 1.325 . S
O150 Li88 1.961 . S
O150 Li90 1.956 . S
O150 Li91 1.970 . S
O150 C120 1.325 . S
O151 Li89 1.961 . S
O151 Li90 1.970 . S
O151 Li91 1.956 . S
O151 C126 1.325 . S
H152 C94 0.929 . S
H153 C95 0.930 . S
H154 C96 0.930 . S
H155 C97 0.930 . S
H156 C99 0.930 . S
H157 C101 0.929 . S
H158 C102 0.930 . S
H159 C103 0.930 . S
H160 C106 0.930 . S
H161 C109 0.929 . S
H162 C114 0.929 . S
H163 C115 0.930 . S
H164 C122 0.929 . S
H165 C123 0.930 . S
H166 C124 0.930 . S
H167 C125 0.930 . S
H168 C127 0.929 . S
H169 C128 0.930 . S
H170 C129 0.930 . S
H171 C130 0.930 . S
H172 C134 0.929 . S
H173 C136 0.930 . S
H174 C142 0.929 1_545 S
H175 C143 0.930 . S
Li176 N193 1.990 . S
Li176 O236 1.956 . S
Li176 O237 1.970 . S
Li176 O238 1.961 . S
Li177 N201 1.990 . S
Li177 O236 1.970 . S
Li177 O237 1.956 . S
Li177 O239 1.961 . S
Li178 N223 1.990 . S
Li178 O236 1.961 . S
Li178 O238 1.956 . S
Li178 O239 1.970 . S
Li179 N229 1.990 . S
Li179 O237 1.961 . S
Li179 O238 1.970 . S
Li179 O239 1.956 . S
C180 C182 1.348 . S
C180 C183 1.356 . S
C180 O236 1.325 . S
N181 C184 1.314 . S
N181 C185 1.279 . S
C182 C180 1.348 . S
C182 C184 1.353 . S
C182 H240 0.929 . S
C183 C180 1.356 . S
C183 C185 1.358 . S
C183 H241 0.930 . S
C184 N181 1.314 . S
C184 C182 1.353 . S
C184 H242 0.930 . S
C185 N181 1.279 . S
C185 C183 1.358 . S
C185 H243 0.930 . S
C186 C189 1.348 . S
C186 C190 1.356 . S
C186 O237 1.325 . S
C187 N188 1.279 . S
C187 C190 1.358 . S
C187 H244 0.930 . S
N188 C187 1.279 . S
N188 C191 1.314 . S
C189 C186 1.348 . S
C189 C191 1.353 . S
C189 H245 0.929 . S
C190 C186 1.356 . S
C190 C187 1.358 . S
C190 H246 0.930 . S
C191 N188 1.314 . S
C191 C189 1.353 . S
C191 H247 0.930 . S
C192 N193 1.314 . S
C192 C197 1.353 . S
C192 H198 0.930 . S
N193 Li176 1.990 . S
N193 C192 1.314 . S
N193 C195 1.279 . S
C194 C195 1.358 . S
C194 C196 1.356 . S
C194 H248 0.930 1_565 S
C195 N193 1.279 . S
C195 C194 1.358 . S
C195 H199 0.930 . S
C196 C194 1.356 . S
C196 C197 1.348 . S
C197 C192 1.353 . S
C197 C196 1.348 . S
C197 H249 0.929 . S
H198 C192 0.930 . S
H199 C195 0.930 . S
C200 N201 1.314 . S
C200 C202 1.353 . S
C200 H206 0.930 . S
N201 Li177 1.990 . S
N201 C200 1.314 . S
N201 C204 1.279 . S
C202 C200 1.353 . S
C202 C205 1.348 . S
C202 H250 0.929 . S
C203 C204 1.358 . S
C203 C205 1.356 . S
C203 H251 0.930 . S
C204 N201 1.279 . S
C204 C203 1.358 . S
C204 H207 0.930 . S
C205 C202 1.348 . S
C205 C203 1.356 . S
H206 C200 0.930 . S
H207 C204 0.930 . S
C208 C210 1.348 . S
C208 C211 1.356 . S
C208 O238 1.325 . S
N209 C212 1.314 . S
N209 C213 1.279 . S
C210 C208 1.348 . S
C210 C212 1.353 . S
C210 H252 0.929 . S
C211 C208 1.356 . S
C211 C213 1.358 . S
C211 H253 0.930 . S
C212 N209 1.314 . S
C212 C210 1.353 . S
C212 H254 0.930 . S
C213 N209 1.279 . S
C213 C211 1.358 . S
C213 H255 0.930 . S
C214 C215 1.348 . S
C214 C216 1.356 . S
C214 O239 1.325 . S
C215 C214 1.348 . S
C215 C217 1.353 . S
C215 H256 0.929 . S
C216 C214 1.356 . S
C216 C218 1.358 . S
C216 H257 0.930 . S
C217 C215 1.353 . S
C217 N219 1.314 . S
C217 H258 0.930 . S
C218 C216 1.358 . S
C218 N219 1.279 . S
C218 H259 0.930 . S
N219 C217 1.314 . S
N219 C218 1.279 . S
C220 C222 1.353 . S
C220 N223 1.314 . S
C220 H226 0.930 . S
C221 N223 1.279 . S
C221 C224 1.358 . S
C221 H227 0.930 . S
C222 C220 1.353 . S
C222 C225 1.348 . S
C222 H260 0.929 . S
N223 Li178 1.990 . S
N223 C220 1.314 . S
N223 C221 1.279 . S
C224 C221 1.358 . S
C224 C225 1.356 . S
C224 H261 0.930 . S
C225 C222 1.348 . S
C225 C224 1.356 . S
H226 C220 0.930 . S
H227 C221 0.930 . S
C228 N229 1.314 . S
C228 C230 1.353 . S
C228 H234 0.930 . S
N229 Li179 1.990 . S
N229 C228 1.314 . S
N229 C232 1.279 . S
C230 C228 1.353 . S
C230 C233 1.348 . S
C230 H262 0.929 . S
C231 C232 1.358 . S
C231 C233 1.356 . S
C231 H263 0.930 . S
C232 N229 1.279 . S
C232 C231 1.358 . S
C232 H235 0.930 . S
C233 C230 1.348 . S
C233 C231 1.356 . S
H234 C228 0.930 . S
H235 C232 0.930 . S
O236 Li176 1.956 . S
O236 Li177 1.970 . S
O236 Li178 1.961 . S
O236 C180 1.325 . S
O237 Li176 1.970 . S
O237 Li177 1.956 . S
O237 Li179 1.961 . S
O237 C186 1.325 . S
O238 Li176 1.961 . S
O238 Li178 1.956 . S
O238 Li179 1.970 . S
O238 C208 1.325 . S
O239 Li177 1.961 . S
O239 Li178 1.970 . S
O239 Li179 1.956 . S
O239 C214 1.325 . S
H240 C182 0.929 . S
H241 C183 0.930 . S
H242 C184 0.930 . S
H243 C185 0.930 . S
H244 C187 0.930 . S
H245 C189 0.929 . S
H246 C190 0.930 . S
H247 C191 0.930 . S
H248 C194 0.930 1_545 S
H249 C197 0.929 . S
H250 C202 0.929 . S
H251 C203 0.930 . S
H252 C210 0.929 . S
H253 C211 0.930 . S
H254 C212 0.930 . S
H255 C213 0.930 . S
H256 C215 0.929 . S
H257 C216 0.930 . S
H258 C217 0.930 . S
H259 C218 0.930 . S
H260 C222 0.929 . S
H261 C224 0.930 . S
H262 C230 0.929 . S
H263 C231 0.930 . S
Li264 N281 1.990 . S
Li264 O324 1.956 . S
Li264 O325 1.970 . S
Li264 O326 1.961 . S
Li265 N289 1.990 . S
Li265 O324 1.970 . S
Li265 O325 1.956 . S
Li265 O327 1.961 . S
Li266 N311 1.990 . S
Li266 O324 1.961 . S
Li266 O326 1.956 . S
Li266 O327 1.970 . S
Li267 N317 1.990 . S
Li267 O325 1.961 . S
Li267 O326 1.970 . S
Li267 O327 1.956 . S
C268 C270 1.348 . S
C268 C271 1.356 . S
C268 O324 1.325 . S
N269 C272 1.314 . S
N269 C273 1.279 . S
C270 C268 1.348 . S
C270 C272 1.353 . S
C270 H328 0.929 . S
C271 C268 1.356 . S
C271 C273 1.358 . S
C271 H329 0.930 . S
C272 N269 1.314 . S
C272 C270 1.353 . S
C272 H330 0.930 . S
C273 N269 1.279 . S
C273 C271 1.358 . S
C273 H331 0.930 . S
C274 C277 1.348 . S
C274 C278 1.356 . S
C274 O325 1.325 . S
C275 N276 1.279 . S
C275 C278 1.358 . S
C275 H332 0.930 . S
N276 C275 1.279 . S
N276 C279 1.314 . S
C277 C274 1.348 . S
C277 C279 1.353 . S
C277 H333 0.929 . S
C278 C274 1.356 . S
C278 C275 1.358 . S
C278 H334 0.930 . S
C279 N276 1.314 . S
C279 C277 1.353 . S
C279 H335 0.930 . S
C280 N281 1.314 . S
C280 C285 1.353 . S
C280 H286 0.930 . S
N281 Li264 1.990 . S
N281 C280 1.314 . S
N281 C283 1.279 . S
C282 C283 1.358 . S
C282 C284 1.356 . S
C282 H336 0.930 1_545 S
C283 N281 1.279 . S
C283 C282 1.358 . S
C283 H287 0.930 . S
C284 C282 1.356 . S
C284 C285 1.348 . S
C285 C280 1.353 . S
C285 C284 1.348 . S
C285 H337 0.929 . S
H286 C280 0.930 . S
H287 C283 0.930 . S
C288 N289 1.314 . S
C288 C290 1.353 . S
C288 H294 0.930 . S
N289 Li265 1.990 . S
N289 C288 1.314 . S
N289 C292 1.279 . S
C290 C288 1.353 . S
C290 C293 1.348 . S
C290 H338 0.929 . S
C291 C292 1.358 . S
C291 C293 1.356 . S
C291 H339 0.930 . S
C292 N289 1.279 . S
C292 C291 1.358 . S
C292 H295 0.930 . S
C293 C290 1.348 . S
C293 C291 1.356 . S
H294 C288 0.930 . S
H295 C292 0.930 . S
C296 C298 1.348 . S
C296 C299 1.356 . S
C296 O326 1.325 . S
N297 C300 1.314 . S
N297 C301 1.279 . S
C298 C296 1.348 . S
C298 C300 1.353 . S
C298 H340 0.929 . S
C299 C296 1.356 . S
C299 C301 1.358 . S
C299 H341 0.930 . S
C300 N297 1.314 . S
C300 C298 1.353 . S
C300 H342 0.930 . S
C301 N297 1.279 . S
C301 C299 1.358 . S
C301 H343 0.930 . S
C302 C303 1.348 . S
C302 C304 1.356 . S
C302 O327 1.325 . S
C303 C302 1.348 . S
C303 C305 1.353 . S
C303 H344 0.929 . S
C304 C302 1.356 . S
C304 C306 1.358 . S
C304 H345 0.930 . S
C305 C303 1.353 . S
C305 N307 1.314 . S
C305 H346 0.930 . S
C306 C304 1.358 . S
C306 N307 1.279 . S
C306 H347 0.930 . S
N307 C305 1.314 . S
N307 C306 1.279 . S
C308 C310 1.353 . S
C308 N311 1.314 . S
C308 H314 0.930 . S
C309 N311 1.279 . S
C309 C312 1.358 . S
C309 H315 0.930 . S
C310 C308 1.353 . S
C310 C313 1.348 . S
C310 H348 0.929 . S
N311 Li266 1.990 . S
N311 C308 1.314 . S
N311 C309 1.279 . S
C312 C309 1.358 . S
C312 C313 1.356 . S
C312 H349 0.930 . S
C313 C310 1.348 . S
C313 C312 1.356 . S
H314 C308 0.930 . S
H315 C309 0.930 . S
C316 N317 1.314 . S
C316 C318 1.353 . S
C316 H322 0.930 . S
N317 Li267 1.990 . S
N317 C316 1.314 . S
N317 C320 1.279 . S
C318 C316 1.353 . S
C318 C321 1.348 . S
C318 H350 0.929 . S
C319 C320 1.358 . S
C319 C321 1.356 . S
C319 H351 0.930 . S
C320 N317 1.279 . S
C320 C319 1.358 . S
C320 H323 0.930 . S
C321 C318 1.348 . S
C321 C319 1.356 . S
H322 C316 0.930 . S
H323 C320 0.930 . S
O324 Li264 1.956 . S
O324 Li265 1.970 . S
O324 Li266 1.961 . S
O324 C268 1.325 . S
O325 Li264 1.970 . S
O325 Li265 1.956 . S
O325 Li267 1.961 . S
O325 C274 1.325 . S
O326 Li264 1.961 . S
O326 Li266 1.956 . S
O326 Li267 1.970 . S
O326 C296 1.325 . S
O327 Li265 1.961 . S
O327 Li266 1.970 . S
O327 Li267 1.956 . S
O327 C302 1.325 . S
H328 C270 0.929 . S
H329 C271 0.930 . S
H330 C272 0.930 . S
H331 C273 0.930 . S
H332 C275 0.930 . S
H333 C277 0.929 . S
H334 C278 0.930 . S
H335 C279 0.930 . S
H336 C282 0.930 1_565 S
H337 C285 0.929 . S
H338 C290 0.929 . S
H339 C291 0.930 . S
H340 C298 0.929 . S
H341 C299 0.930 . S
H342 C300 0.930 . S
H343 C301 0.930 . S
H344 C303 0.929 . S
H345 C304 0.930 . S
H346 C305 0.930 . S
H347 C306 0.930 . S
H348 C310 0.929 . S
H349 C312 0.930 . S
H350 C318 0.929 . S
H351 C319 0.930 . S
C352 C353 1.170 . S
C352 C354 1.380 1_545 S
C353 C352 1.170 . S
C354 C352 1.380 1_565 S
C354 C355 1.170 . S
C355 C354 1.170 . S
C356 C357 1.170 . S
C356 C358 1.380 . S
C357 C356 1.170 . S
C358 C356 1.380 . S
C358 C359 1.170 . S
C359 C358 1.170 . S
C360 C361 1.170 . S
C360 C362 1.380 1_565 S
C361 C360 1.170 . S
C362 C360 1.380 1_545 S
C362 C363 1.170 . S
C363 C362 1.170 . S
C364 C365 1.170 . S
C364 C366 1.380 . S
C365 C364 1.170 . S
C366 C364 1.380 . S
C366 C367 1.170 . S
C367 C366 1.170 . S
C368 C369 1.170 . S
C368 C370 1.380 1_444 S
C369 C368 1.170 . S
C370 C368 1.380 1_666 S
C370 C371 1.170 . S
C371 C370 1.170 . S
C372 C373 1.170 . S
C372 C374 1.380 1_546 S
C373 C372 1.170 . S
C374 C372 1.380 1_564 S
C374 C375 1.170 . S
C375 C374 1.170 . S
C376 C377 1.170 . S
C376 C378 1.380 1_655 S
C377 C376 1.170 . S
C378 C376 1.380 1_455 S
C378 C379 1.170 . S
C379 C378 1.170 . S
C380 C381 1.170 . S
C380 C382 1.380 . S
C381 C380 1.170 . S
C382 C380 1.380 . S
C382 C383 1.170 . S
C383 C382 1.170 . S
C353 C145 1.108 1_545 S
C355 C29 1.089 1_565 S
C357 C20 1.081 . S
C359 C137 1.152 . S
C361 C284 1.157 1_565 S
C363 C196 1.110 1_545 S
C365 C233 1.169 . S
C367 C321 1.095 . S
C369 C49 2.017 . S
C371 C205 1.974 . S
C373 C293 1.988 . S
C375 C108 1.990 . S
C377 C225 1.989 . S
C379 C57 1.989 . S
C381 C117 1.978 . S
C383 C313 2.005 . S
